CHEMBL2163410
     RDKit          3D

  0  0  0  0  0  0  0  0  0  0999 V3000
M  V30 BEGIN CTAB
M  V30 COUNTS 80 85 0 0 0
M  V30 BEGIN ATOM
M  V30 1 C 6.161439 -4.285554 6.717126 0
M  V30 2 C 5.690908 -3.586687 5.489976 0
M  V30 3 C 6.503999 -2.776557 4.728783 0
M  V30 4 C 5.791917 -2.262929 3.649122 0
M  V30 5 N 5.975465 -1.428269 2.543131 0
M  V30 6 C 5.837536 -0.051603 2.334285 0
M  V30 7 N 6.078446 0.469545 1.117737 0
M  V30 8 C 5.956664 1.786995 0.881626 0
M  V30 9 S 6.316971 2.295532 -0.799389 0
M  V30 10 C 4.813925 2.232932 -1.800985 0
M  V30 11 C 4.567140 1.012816 -2.423662 0
M  V30 12 C 3.420005 0.952896 -3.191730 0
M  V30 13 C 2.618866 2.078695 -3.285855 0
M  V30 14 N 1.465495 1.817502 -4.121315 0
M  V30 15 C 0.517833 1.377685 -3.163883 0
M  V30 16 O 0.893648 1.338198 -1.942034 0
M  V30 17 C -0.916245 0.921979 -3.293770 0
M  V30 18 N -1.353057 0.611601 -1.980492 0
M  V30 19 C -1.510264 1.691689 -1.070257 0
M  V30 20 C -2.821437 1.461197 -0.323537 0
M  V30 21 C -3.095219 -0.017267 -0.520000 0 CFG=1
M  V30 22 O -4.434067 -0.335206 -0.593327 0
M  V30 23 C -4.803566 -1.253438 0.358404 0
M  V30 24 C -6.257018 -1.601770 0.264953 0
M  V30 25 N -6.637112 -2.162907 -0.968291 0
M  V30 26 C -6.641696 -1.359470 -2.132104 0
M  V30 27 C -6.053735 -2.230827 -3.255961 0
M  V30 28 N -6.620361 -3.538503 -3.164216 0
M  V30 29 C -5.683158 -4.601562 -2.935952 0
M  V30 30 C -7.824838 -3.639940 -2.390570 0
M  V30 31 C -7.683308 -3.125822 -0.971854 0
M  V30 32 C -2.409911 -0.328110 -1.840828 0
M  V30 33 C 2.878227 3.278918 -2.662876 0
M  V30 34 C 4.017870 3.361093 -1.891163 0
M  V30 35 N 5.585301 2.613177 1.879478 0
M  V30 36 N 5.333060 2.158164 3.104982 0
M  V30 37 C 4.956751 2.782530 4.235202 0
M  V30 38 C 4.826360 1.853672 5.244239 0
M  V30 39 C 5.144888 0.661685 4.644990 0
M  V30 40 C 5.461991 0.831321 3.318366 0
M  V30 41 N 4.543553 -2.789573 3.793781 0
M  V30 42 N 4.477586 -3.560693 4.863113 0
M  V30 43 H 6.810006 -5.122835 6.444279 0
M  V30 44 H 5.287463 -4.719042 7.278956 0
M  V30 45 H 6.644674 -3.581899 7.405479 0
M  V30 46 H 7.537374 -2.473557 4.799857 0
M  V30 47 H 6.280179 -2.048751 1.749550 0
M  V30 48 H 5.233860 0.177556 -2.307340 0
M  V30 49 H 3.235278 0.004484 -3.671450 0
M  V30 50 H 1.043565 1.810672 -5.073274 0
M  V30 51 H -1.519787 1.662837 -3.824443 0
M  V30 52 H -0.865899 -0.013853 -3.876991 0
M  V30 53 H -1.469192 2.707195 -1.533978 0
M  V30 54 H -0.718973 1.622256 -0.289430 0
M  V30 55 H -3.576421 2.095068 -0.804973 0
M  V30 56 H -2.739793 1.689240 0.750188 0
M  V30 57 H -2.647293 -0.604945 0.307157 0
M  V30 58 H -4.141299 -2.135447 0.259975 0
M  V30 59 H -4.639891 -0.889720 1.399132 0
M  V30 60 H -6.423131 -2.401355 1.051691 0
M  V30 61 H -6.911282 -0.763125 0.611994 0
M  V30 62 H -6.171057 -0.375221 -2.078569 0
M  V30 63 H -7.695080 -1.150359 -2.507096 0
M  V30 64 H -6.244923 -1.772565 -4.246312 0
M  V30 65 H -4.959814 -2.305792 -3.096159 0
M  V30 66 H -4.744127 -4.377050 -3.453720 0
M  V30 67 H -6.061693 -5.571048 -3.332203 0
M  V30 68 H -5.521694 -4.718120 -1.837437 0
M  V30 69 H -8.679073 -3.127986 -2.873750 0
M  V30 70 H -8.078288 -4.714760 -2.308644 0
M  V30 71 H -8.673629 -2.721697 -0.631362 0
M  V30 72 H -7.414678 -3.955467 -0.277613 0
M  V30 73 H -1.954662 -1.341886 -1.707588 0
M  V30 74 H -3.104593 -0.418828 -2.676090 0
M  V30 75 H 2.183613 4.081005 -2.810370 0
M  V30 76 H 4.262374 4.270419 -1.386832 0
M  V30 77 H 4.775059 3.853446 4.365808 0
M  V30 78 H 4.538412 2.025049 6.274196 0
M  V30 79 H 5.135743 -0.273841 5.184142 0
M  V30 80 H 3.669235 -4.101758 5.241785 0
M  V30 END ATOM
M  V30 BEGIN BOND
M  V30 1 1 1 2
M  V30 2 2 2 3
M  V30 3 1 3 4
M  V30 4 1 4 5
M  V30 5 1 5 6
M  V30 6 2 6 7
M  V30 7 1 7 8
M  V30 8 1 8 9
M  V30 9 1 9 10
M  V30 10 2 10 11
M  V30 11 1 11 12
M  V30 12 2 12 13
M  V30 13 1 13 14
M  V30 14 1 14 15
M  V30 15 2 15 16
M  V30 16 1 15 17
M  V30 17 1 17 18
M  V30 18 1 18 19
M  V30 19 1 19 20
M  V30 20 1 20 21
M  V30 21 1 21 22
M  V30 22 1 22 23
M  V30 23 1 23 24
M  V30 24 1 24 25
M  V30 25 1 25 26
M  V30 26 1 26 27
M  V30 27 1 27 28
M  V30 28 1 28 29
M  V30 29 1 28 30
M  V30 30 1 30 31
M  V30 31 1 21 32
M  V30 32 1 13 33
M  V30 33 2 33 34
M  V30 34 2 8 35
M  V30 35 1 35 36
M  V30 36 1 36 37
M  V30 37 2 37 38
M  V30 38 1 38 39
M  V30 39 2 39 40
M  V30 40 2 4 41
M  V30 41 1 41 42
M  V30 42 1 42 2
M  V30 43 1 40 6
M  V30 44 1 34 10
M  V30 45 1 40 36
M  V30 46 1 32 18
M  V30 47 1 31 25
M  V30 48 1 1 43
M  V30 49 1 1 44
M  V30 50 1 1 45
M  V30 51 1 3 46
M  V30 52 1 5 47
M  V30 53 1 11 48
M  V30 54 1 12 49
M  V30 55 1 14 50
M  V30 56 1 17 51
M  V30 57 1 17 52
M  V30 58 1 19 53
M  V30 59 1 19 54
M  V30 60 1 20 55
M  V30 61 1 20 56
M  V30 62 1 21 57 CFG=1
M  V30 63 1 23 58
M  V30 64 1 23 59
M  V30 65 1 24 60
M  V30 66 1 24 61
M  V30 67 1 26 62
M  V30 68 1 26 63
M  V30 69 1 27 64
M  V30 70 1 27 65
M  V30 71 1 29 66
M  V30 72 1 29 67
M  V30 73 1 29 68
M  V30 74 1 30 69
M  V30 75 1 30 70
M  V30 76 1 31 71
M  V30 77 1 31 72
M  V30 78 1 32 73
M  V30 79 1 32 74
M  V30 80 1 33 75
M  V30 81 1 34 76
M  V30 82 1 37 77
M  V30 83 1 38 78
M  V30 84 1 39 79
M  V30 85 1 42 80
M  V30 END BOND
M  V30 END CTAB
M  END
>  <Dataset>  (1) 
ChEMBL_Kinases

>  <Ligand_Instance>  (1) 
nan

>  <PDB_ID>  (1) 
nan

>  <Standardized_SMILES>  (1) 
Cc1cc(Nc2nc(Sc3ccc(NC(=O)CN4CC[C@@H](OCCN5CCN(C)CC5)C4)cc3)nn3cccc23)n[nH]1

>  <Name>  (1) 
nan

>  <Pocket>  (1) 
nan

>  <ATP_Site>  (1) 
nan

>  <Peripheral>  (1) 
nan

>  <Num_H_Atoms_ProtBoundConf>  (1) 
nan

>  <Num_Resolved_Atoms>  (1) 
nan

>  <Num_Not_Resolved_Atoms>  (1) 
nan

$$$$
CHEMBL2163409
     RDKit          3D

  0  0  0  0  0  0  0  0  0  0999 V3000
M  V30 BEGIN CTAB
M  V30 COUNTS 76 81 0 0 0
M  V30 BEGIN ATOM
M  V30 1 C 1.556740 -2.648084 5.297501 0
M  V30 2 C 2.823608 -1.895584 5.172653 0
M  V30 3 C 2.978212 -0.525222 5.068699 0
M  V30 4 C 4.313230 -0.209045 4.968469 0
M  V30 5 N 5.004542 1.046419 4.839302 0
M  V30 6 C 5.200151 1.435722 3.474161 0
M  V30 7 N 4.764985 0.679287 2.451965 0
M  V30 8 C 4.942007 1.028966 1.146984 0
M  V30 9 S 4.255720 -0.168737 0.022412 0
M  V30 10 C 2.565087 0.188653 -0.376854 0
M  V30 11 C 1.892215 1.269135 0.107298 0
M  V30 12 C 0.579833 1.461991 -0.258116 0
M  V30 13 C -0.117650 0.644167 -1.082123 0
M  V30 14 N -1.457828 0.778493 -1.508609 0
M  V30 15 C -2.365998 1.800609 -1.207239 0
M  V30 16 O -2.022618 2.760474 -0.475672 0
M  V30 17 C -3.773422 2.053365 -1.578955 0
M  V30 18 N -4.237095 0.967364 -2.386912 0
M  V30 19 C -5.571673 1.192425 -2.928807 0
M  V30 20 C -5.756871 -0.183438 -3.589783 0
M  V30 21 C -4.950060 -1.156153 -2.672722 0 CFG=1
M  V30 22 O -3.853946 -1.549904 -3.384836 0
M  V30 23 C -3.762919 -2.843263 -3.773126 0
M  V30 24 C -3.712357 -3.931711 -2.782547 0
M  V30 25 N -2.657317 -4.002392 -1.865136 0
M  V30 26 C -2.502484 -3.073408 -0.842306 0
M  V30 27 C -1.695713 -3.548782 0.346866 0
M  V30 28 O -0.631171 -4.366076 -0.053228 0
M  V30 29 C -1.223228 -5.531110 -0.548163 0
M  V30 30 C -1.891745 -5.184907 -1.846010 0
M  V30 31 C -4.560069 -0.218120 -1.579749 0
M  V30 32 C 0.589970 -0.439429 -1.554762 0
M  V30 33 C 1.903021 -0.677759 -1.220212 0
M  V30 34 N 5.585616 2.191913 0.868017 0
M  V30 35 N 6.033742 2.974017 1.844494 0
M  V30 36 C 6.684049 4.145811 1.754439 0
M  V30 37 C 6.922602 4.544379 3.054914 0
M  V30 38 C 6.417725 3.615147 3.930239 0
M  V30 39 C 5.852428 2.616499 3.131330 0
M  V30 40 N 4.960043 -1.387772 5.012216 0
M  V30 41 N 4.085826 -2.397666 5.133434 0
M  V30 42 H 0.792460 -2.067560 5.863723 0
M  V30 43 H 1.128692 -2.848077 4.277413 0
M  V30 44 H 1.719330 -3.642093 5.775176 0
M  V30 45 H 2.204294 0.232977 5.062379 0
M  V30 46 H 5.376465 1.700855 5.570741 0
M  V30 47 H 2.401754 1.966651 0.775991 0
M  V30 48 H 0.109979 2.320610 0.153481 0
M  V30 49 H -1.890985 0.069444 -2.136191 0
M  V30 50 H -3.911774 3.031388 -2.058095 0
M  V30 51 H -4.397435 2.071087 -0.661803 0
M  V30 52 H -5.628270 2.010041 -3.643050 0
M  V30 53 H -6.271635 1.234522 -2.078859 0
M  V30 54 H -6.800758 -0.480938 -3.663607 0
M  V30 55 H -5.239063 -0.092082 -4.562400 0
M  V30 56 H -5.635417 -1.981320 -2.398257 0
M  V30 57 H -4.680318 -3.028263 -4.426718 0
M  V30 58 H -2.929623 -2.894796 -4.528240 0
M  V30 59 H -3.692590 -4.905264 -3.373082 0
M  V30 60 H -4.696347 -4.003052 -2.251998 0
M  V30 61 H -2.036093 -2.106464 -1.135365 0
M  V30 62 H -3.505584 -2.826257 -0.427601 0
M  V30 63 H -1.282033 -2.720462 0.924365 0
M  V30 64 H -2.349326 -4.144748 1.019631 0
M  V30 65 H -1.932885 -5.920155 0.209866 0
M  V30 66 H -0.416991 -6.268698 -0.730860 0
M  V30 67 H -2.558694 -6.055818 -2.087101 0
M  V30 68 H -1.093804 -5.230336 -2.637910 0
M  V30 69 H -3.786167 -0.524410 -0.900565 0
M  V30 70 H -5.516678 0.009428 -0.999131 0
M  V30 71 H 0.104527 -1.154588 -2.226632 0
M  V30 72 H 2.391064 -1.538984 -1.624987 0
M  V30 73 H 6.999225 4.732723 0.917667 0
M  V30 74 H 7.435984 5.461603 3.365167 0
M  V30 75 H 6.414589 3.585554 5.019188 0
M  V30 76 H 4.239522 -3.428617 5.195592 0
M  V30 END ATOM
M  V30 BEGIN BOND
M  V30 1 1 1 2
M  V30 2 2 2 3
M  V30 3 1 3 4
M  V30 4 1 4 5
M  V30 5 1 5 6
M  V30 6 2 6 7
M  V30 7 1 7 8
M  V30 8 1 8 9
M  V30 9 1 9 10
M  V30 10 2 10 11
M  V30 11 1 11 12
M  V30 12 2 12 13
M  V30 13 1 13 14
M  V30 14 1 14 15
M  V30 15 2 15 16
M  V30 16 1 15 17
M  V30 17 1 17 18
M  V30 18 1 18 19
M  V30 19 1 19 20
M  V30 20 1 20 21
M  V30 21 1 21 22
M  V30 22 1 22 23
M  V30 23 1 23 24
M  V30 24 1 24 25
M  V30 25 1 25 26
M  V30 26 1 26 27
M  V30 27 1 27 28
M  V30 28 1 28 29
M  V30 29 1 29 30
M  V30 30 1 21 31
M  V30 31 1 13 32
M  V30 32 2 32 33
M  V30 33 2 8 34
M  V30 34 1 34 35
M  V30 35 1 35 36
M  V30 36 2 36 37
M  V30 37 1 37 38
M  V30 38 2 38 39
M  V30 39 2 4 40
M  V30 40 1 40 41
M  V30 41 1 41 2
M  V30 42 1 39 6
M  V30 43 1 33 10
M  V30 44 1 39 35
M  V30 45 1 31 18
M  V30 46 1 30 25
M  V30 47 1 1 42
M  V30 48 1 1 43
M  V30 49 1 1 44
M  V30 50 1 3 45
M  V30 51 1 5 46
M  V30 52 1 11 47
M  V30 53 1 12 48
M  V30 54 1 14 49
M  V30 55 1 17 50
M  V30 56 1 17 51
M  V30 57 1 19 52
M  V30 58 1 19 53
M  V30 59 1 20 54
M  V30 60 1 20 55
M  V30 61 1 21 56 CFG=1
M  V30 62 1 23 57
M  V30 63 1 23 58
M  V30 64 1 24 59
M  V30 65 1 24 60
M  V30 66 1 26 61
M  V30 67 1 26 62
M  V30 68 1 27 63
M  V30 69 1 27 64
M  V30 70 1 29 65
M  V30 71 1 29 66
M  V30 72 1 30 67
M  V30 73 1 30 68
M  V30 74 1 31 69
M  V30 75 1 31 70
M  V30 76 1 32 71
M  V30 77 1 33 72
M  V30 78 1 36 73
M  V30 79 1 37 74
M  V30 80 1 38 75
M  V30 81 1 41 76
M  V30 END BOND
M  V30 END CTAB
M  END
>  <Dataset>  (2) 
ChEMBL_Kinases

>  <Ligand_Instance>  (2) 
nan

>  <PDB_ID>  (2) 
nan

>  <Standardized_SMILES>  (2) 
Cc1cc(Nc2nc(Sc3ccc(NC(=O)CN4CC[C@@H](OCCN5CCOCC5)C4)cc3)nn3cccc23)n[nH]1

>  <Name>  (2) 
nan

>  <Pocket>  (2) 
nan

>  <ATP_Site>  (2) 
nan

>  <Peripheral>  (2) 
nan

>  <Num_H_Atoms_ProtBoundConf>  (2) 
nan

>  <Num_Resolved_Atoms>  (2) 
nan

>  <Num_Not_Resolved_Atoms>  (2) 
nan

$$$$
CHEMBL2163408
     RDKit          3D

  0  0  0  0  0  0  0  0  0  0999 V3000
M  V30 BEGIN CTAB
M  V30 COUNTS 67 71 0 0 0
M  V30 BEGIN ATOM
M  V30 1 C 3.413923 -2.377563 5.951113 0
M  V30 2 O 4.696858 -2.048818 5.576417 0
M  V30 3 C 4.980835 -2.365230 4.260663 0
M  V30 4 C 4.103091 -1.679379 3.258395 0
M  V30 5 O 4.510070 -2.097716 1.983935 0
M  V30 6 C 3.694751 -1.461596 1.013992 0 CFG=2
M  V30 7 C 2.911597 -2.459905 0.224171 0
M  V30 8 C 3.340542 -2.284858 -1.207445 0
M  V30 9 N 4.284725 -1.222232 -1.288959 0
M  V30 10 C 4.014607 -0.259220 -2.308641 0
M  V30 11 C 2.792225 0.539689 -2.024483 0
M  V30 12 O 2.282447 0.157046 -0.914504 0
M  V30 13 N 2.142563 1.585640 -2.734794 0
M  V30 14 C 1.018582 1.890356 -1.876229 0
M  V30 15 C -0.197029 1.248996 -2.001005 0
M  V30 16 C -1.164352 1.655811 -1.101342 0
M  V30 17 C -0.881388 2.635704 -0.167680 0
M  V30 18 S -2.183541 3.102411 0.963803 0
M  V30 19 C -3.664547 2.185168 0.684733 0
M  V30 20 N -3.737742 1.034070 1.386950 0
M  V30 21 C -4.799693 0.201636 1.299170 0
M  V30 22 N -4.953970 -1.021484 1.999815 0
M  V30 23 C -4.381150 -2.004836 1.116509 0
M  V30 24 C -3.093077 -2.488654 1.002592 0
M  V30 25 C -3.109058 -3.423608 -0.015972 0
M  V30 26 C -1.927591 -4.199592 -0.479985 0
M  V30 27 N -4.360526 -3.497970 -0.495590 0
M  V30 28 N -5.135802 -2.645629 0.181264 0
M  V30 29 C -5.830773 0.574143 0.449252 0
M  V30 30 C -7.039652 -0.051506 0.140170 0
M  V30 31 C -7.660911 0.772089 -0.760306 0
M  V30 32 C -6.871289 1.883289 -1.013331 0
M  V30 33 N -5.762394 1.718178 -0.251122 0
M  V30 34 N -4.700730 2.480925 -0.118270 0
M  V30 35 C 0.341863 3.263488 -0.061687 0
M  V30 36 C 1.319028 2.868676 -0.952610 0
M  V30 37 C 4.508977 -0.711144 0.020590 0
M  V30 38 H 3.217633 -3.475668 5.838203 0
M  V30 39 H 3.301180 -2.180100 7.054637 0
M  V30 40 H 2.650907 -1.803250 5.410399 0
M  V30 41 H 4.969147 -3.471829 4.074914 0
M  V30 42 H 6.056444 -2.085380 4.085220 0
M  V30 43 H 3.048358 -2.017252 3.429074 0
M  V30 44 H 4.223339 -0.585869 3.367189 0
M  V30 45 H 2.965931 -0.808386 1.560449 0
M  V30 46 H 3.170319 -3.468323 0.614902 0
M  V30 47 H 1.808894 -2.265953 0.326077 0
M  V30 48 H 3.867094 -3.230491 -1.509728 0
M  V30 49 H 2.442200 -2.133106 -1.841963 0
M  V30 50 H 4.845839 0.426148 -2.472215 0
M  V30 51 H 3.823482 -0.797854 -3.257716 0
M  V30 52 H 2.671842 1.785438 -3.611267 0
M  V30 53 H -0.313940 0.500702 -2.761525 0
M  V30 54 H -2.136808 1.183342 -1.157295 0
M  V30 55 H -5.342984 -1.367779 2.915918 0
M  V30 56 H -2.281187 -2.149860 1.628460 0
M  V30 57 H -2.016393 -4.407619 -1.565272 0
M  V30 58 H -0.977414 -3.649829 -0.325641 0
M  V30 59 H -1.847379 -5.173767 0.043072 0
M  V30 60 H -4.733593 -4.098590 -1.265656 0
M  V30 61 H -7.432583 -0.999171 0.521879 0
M  V30 62 H -8.619482 0.652898 -1.249290 0
M  V30 63 H -7.033490 2.741765 -1.665537 0
M  V30 64 H 0.544464 4.019478 0.664813 0
M  V30 65 H 2.268471 3.360407 -0.865442 0
M  V30 66 H 4.373592 0.388949 0.099153 0
M  V30 67 H 5.595410 -0.885635 0.279380 0
M  V30 END ATOM
M  V30 BEGIN BOND
M  V30 1 1 1 2
M  V30 2 1 2 3
M  V30 3 1 3 4
M  V30 4 1 4 5
M  V30 5 1 5 6
M  V30 6 1 6 7
M  V30 7 1 7 8
M  V30 8 1 8 9
M  V30 9 1 9 10
M  V30 10 1 10 11
M  V30 11 2 11 12
M  V30 12 1 11 13
M  V30 13 1 13 14
M  V30 14 2 14 15
M  V30 15 1 15 16
M  V30 16 2 16 17
M  V30 17 1 17 18
M  V30 18 1 18 19
M  V30 19 1 19 20
M  V30 20 2 20 21
M  V30 21 1 21 22
M  V30 22 1 22 23
M  V30 23 1 23 24
M  V30 24 2 24 25
M  V30 25 1 25 26
M  V30 26 1 25 27
M  V30 27 1 27 28
M  V30 28 1 21 29
M  V30 29 2 29 30
M  V30 30 1 30 31
M  V30 31 2 31 32
M  V30 32 1 32 33
M  V30 33 1 33 34
M  V30 34 1 17 35
M  V30 35 2 35 36
M  V30 36 1 9 37
M  V30 37 1 37 6
M  V30 38 1 36 14
M  V30 39 2 34 19
M  V30 40 2 28 23
M  V30 41 1 33 29
M  V30 42 1 1 38
M  V30 43 1 1 39
M  V30 44 1 1 40
M  V30 45 1 3 41
M  V30 46 1 3 42
M  V30 47 1 4 43
M  V30 48 1 4 44
M  V30 49 1 6 45 CFG=1
M  V30 50 1 7 46
M  V30 51 1 7 47
M  V30 52 1 8 48
M  V30 53 1 8 49
M  V30 54 1 10 50
M  V30 55 1 10 51
M  V30 56 1 13 52
M  V30 57 1 15 53
M  V30 58 1 16 54
M  V30 59 1 22 55
M  V30 60 1 24 56
M  V30 61 1 26 57
M  V30 62 1 26 58
M  V30 63 1 26 59
M  V30 64 1 27 60
M  V30 65 1 30 61
M  V30 66 1 31 62
M  V30 67 1 32 63
M  V30 68 1 35 64
M  V30 69 1 36 65
M  V30 70 1 37 66
M  V30 71 1 37 67
M  V30 END BOND
M  V30 END CTAB
M  END
>  <Dataset>  (3) 
ChEMBL_Kinases

>  <Ligand_Instance>  (3) 
nan

>  <PDB_ID>  (3) 
nan

>  <Standardized_SMILES>  (3) 
COCCO[C@@H]1CCN(CC(=O)Nc2ccc(Sc3nc(Nc4cc(C)[nH]n4)c4cccn4n3)cc2)C1

>  <Name>  (3) 
nan

>  <Pocket>  (3) 
nan

>  <ATP_Site>  (3) 
nan

>  <Peripheral>  (3) 
nan

>  <Num_H_Atoms_ProtBoundConf>  (3) 
nan

>  <Num_Resolved_Atoms>  (3) 
nan

>  <Num_Not_Resolved_Atoms>  (3) 
nan

$$$$
CHEMBL2163407
     RDKit          3D

  0  0  0  0  0  0  0  0  0  0999 V3000
M  V30 BEGIN CTAB
M  V30 COUNTS 64 68 0 0 0
M  V30 BEGIN ATOM
M  V30 1 C 3.416270 -2.441006 5.048903 0
M  V30 2 C 3.959512 -1.077584 4.826927 0
M  V30 3 C 3.138852 0.042520 4.681218 0
M  V30 4 C 3.964393 1.151092 4.489215 0
M  V30 5 N 3.521778 2.487938 4.300179 0
M  V30 6 C 3.250738 3.015271 3.019989 0
M  V30 7 N 3.404099 2.258322 1.918947 0
M  V30 8 C 3.151799 2.738011 0.681347 0
M  V30 9 S 3.383152 1.652486 -0.725679 0
M  V30 10 C 1.832226 0.778407 -1.038880 0
M  V30 11 C 0.934743 1.374180 -1.901641 0
M  V30 12 C -0.249304 0.705580 -2.136863 0
M  V30 13 C -0.446340 -0.500688 -1.496583 0
M  V30 14 N -1.642512 -1.291104 -1.660843 0
M  V30 15 C -2.546602 -0.843103 -0.635904 0
M  V30 16 O -2.033652 0.088521 0.087839 0
M  V30 17 C -3.890947 -1.098618 -0.125376 0
M  V30 18 N -4.669361 -2.088571 -0.760061 0
M  V30 19 C -5.133435 -1.848790 -2.083168 0
M  V30 20 C -5.528499 -3.235726 -2.619719 0
M  V30 21 C -4.509657 -4.096382 -1.980538 0 CFG=1
M  V30 22 O -3.404098 -4.383820 -2.739216 0
M  V30 23 C -3.189042 -5.698337 -3.019525 0
M  V30 24 C -1.929147 -5.797511 -3.864836 0
M  V30 25 O -0.842566 -5.275880 -3.164719 0
M  V30 26 C -4.226293 -3.430813 -0.662205 0
M  V30 27 C 0.457272 -1.091297 -0.634092 0
M  V30 28 C 1.656360 -0.427286 -0.387323 0
M  V30 29 N 2.732070 4.025647 0.574232 0
M  V30 30 N 2.573900 4.791488 1.649506 0
M  V30 31 C 2.177671 6.070138 1.804143 0
M  V30 32 C 2.174044 6.416327 3.145078 0
M  V30 33 C 2.590953 5.291379 3.859034 0
M  V30 34 C 2.824076 4.322130 2.900742 0
M  V30 35 N 5.239579 0.678957 4.523464 0
M  V30 36 N 5.230050 -0.632954 4.722488 0
M  V30 37 H 3.240214 -2.912041 4.065968 0
M  V30 38 H 4.158060 -3.074421 5.574936 0
M  V30 39 H 2.517892 -2.428045 5.693032 0
M  V30 40 H 2.045961 0.049338 4.711954 0
M  V30 41 H 3.404417 3.067723 5.159135 0
M  V30 42 H 1.135906 2.318252 -2.377171 0
M  V30 43 H -1.016729 1.079612 -2.790826 0
M  V30 44 H -2.145728 -2.037810 -2.183557 0
M  V30 45 H -3.847836 -1.358384 0.972760 0
M  V30 46 H -4.462797 -0.125704 -0.124871 0
M  V30 47 H -4.354642 -1.368415 -2.679760 0
M  V30 48 H -6.018918 -1.167128 -2.123464 0
M  V30 49 H -5.435654 -3.127061 -3.725528 0
M  V30 50 H -6.556103 -3.403702 -2.288253 0
M  V30 51 H -5.008338 -5.076424 -1.757912 0
M  V30 52 H -2.907892 -6.189192 -2.040488 0
M  V30 53 H -4.012708 -6.282062 -3.413475 0
M  V30 54 H -1.682001 -6.853114 -4.101391 0
M  V30 55 H -2.044308 -5.181784 -4.783199 0
M  V30 56 H -0.669994 -5.891794 -2.405888 0
M  V30 57 H -4.707780 -4.006473 0.161744 0
M  V30 58 H -3.115951 -3.421769 -0.495882 0
M  V30 59 H 0.315960 -2.020380 -0.135382 0
M  V30 60 H 2.430608 -0.807257 0.273984 0
M  V30 61 H 1.895084 6.757451 1.011715 0
M  V30 62 H 1.908307 7.363218 3.613607 0
M  V30 63 H 2.717541 5.163777 4.929117 0
M  V30 64 H 6.055813 -1.280714 4.796728 0
M  V30 END ATOM
M  V30 BEGIN BOND
M  V30 1 1 1 2
M  V30 2 2 2 3
M  V30 3 1 3 4
M  V30 4 1 4 5
M  V30 5 1 5 6
M  V30 6 2 6 7
M  V30 7 1 7 8
M  V30 8 1 8 9
M  V30 9 1 9 10
M  V30 10 2 10 11
M  V30 11 1 11 12
M  V30 12 2 12 13
M  V30 13 1 13 14
M  V30 14 1 14 15
M  V30 15 2 15 16
M  V30 16 1 15 17
M  V30 17 1 17 18
M  V30 18 1 18 19
M  V30 19 1 19 20
M  V30 20 1 20 21
M  V30 21 1 21 22
M  V30 22 1 22 23
M  V30 23 1 23 24
M  V30 24 1 24 25
M  V30 25 1 21 26
M  V30 26 1 13 27
M  V30 27 2 27 28
M  V30 28 2 8 29
M  V30 29 1 29 30
M  V30 30 1 30 31
M  V30 31 2 31 32
M  V30 32 1 32 33
M  V30 33 2 33 34
M  V30 34 2 4 35
M  V30 35 1 35 36
M  V30 36 1 36 2
M  V30 37 1 34 6
M  V30 38 1 28 10
M  V30 39 1 34 30
M  V30 40 1 26 18
M  V30 41 1 1 37
M  V30 42 1 1 38
M  V30 43 1 1 39
M  V30 44 1 3 40
M  V30 45 1 5 41
M  V30 46 1 11 42
M  V30 47 1 12 43
M  V30 48 1 14 44
M  V30 49 1 17 45
M  V30 50 1 17 46
M  V30 51 1 19 47
M  V30 52 1 19 48
M  V30 53 1 20 49
M  V30 54 1 20 50
M  V30 55 1 21 51 CFG=1
M  V30 56 1 23 52
M  V30 57 1 23 53
M  V30 58 1 24 54
M  V30 59 1 24 55
M  V30 60 1 25 56
M  V30 61 1 26 57
M  V30 62 1 26 58
M  V30 63 1 27 59
M  V30 64 1 28 60
M  V30 65 1 31 61
M  V30 66 1 32 62
M  V30 67 1 33 63
M  V30 68 1 36 64
M  V30 END BOND
M  V30 END CTAB
M  END
>  <Dataset>  (4) 
ChEMBL_Kinases

>  <Ligand_Instance>  (4) 
nan

>  <PDB_ID>  (4) 
nan

>  <Standardized_SMILES>  (4) 
Cc1cc(Nc2nc(Sc3ccc(NC(=O)CN4CC[C@@H](OCCO)C4)cc3)nn3cccc23)n[nH]1

>  <Name>  (4) 
nan

>  <Pocket>  (4) 
nan

>  <ATP_Site>  (4) 
nan

>  <Peripheral>  (4) 
nan

>  <Num_H_Atoms_ProtBoundConf>  (4) 
nan

>  <Num_Resolved_Atoms>  (4) 
nan

>  <Num_Not_Resolved_Atoms>  (4) 
nan

$$$$
CHEMBL2163406
     RDKit          3D

  0  0  0  0  0  0  0  0  0  0999 V3000
M  V30 BEGIN CTAB
M  V30 COUNTS 57 61 0 0 0
M  V30 BEGIN ATOM
M  V30 1 C 5.355985 -6.464891 2.948346 0
M  V30 2 C 4.218712 -5.851279 2.224407 0
M  V30 3 C 4.344972 -4.691335 1.497503 0
M  V30 4 C 3.103336 -4.413318 0.964300 0
M  V30 5 N 2.512916 -3.421684 0.144361 0
M  V30 6 C 2.346294 -3.353883 -1.258251 0
M  V30 7 N 1.747953 -2.261613 -1.725880 0
M  V30 8 C 1.509001 -2.032955 -3.019413 0
M  V30 9 S 0.722278 -0.616617 -3.741201 0
M  V30 10 C 0.234394 0.579437 -2.514417 0
M  V30 11 C 0.377508 0.565250 -1.143594 0
M  V30 12 C -0.087665 1.622445 -0.387304 0
M  V30 13 C -0.711471 2.728610 -0.978529 0
M  V30 14 N -1.086446 3.658288 0.030583 0
M  V30 15 C -2.399996 3.325371 0.470308 0
M  V30 16 O -2.903222 2.326532 -0.114459 0
M  V30 17 C -3.166520 4.061271 1.532228 0
M  V30 18 N -4.450940 3.345452 1.627535 0
M  V30 19 C -4.255695 2.022674 2.173342 0
M  V30 20 C -5.339471 1.770721 3.159691 0
M  V30 21 C -5.838208 3.116602 3.556536 0 CFG=1
M  V30 22 O -5.390425 3.496364 4.834979 0
M  V30 23 C -5.266798 4.067997 2.549438 0
M  V30 24 C -0.855461 2.744316 -2.349106 0
M  V30 25 C -0.389767 1.686842 -3.102551 0
M  V30 26 N 1.927375 -3.009643 -3.824981 0
M  V30 27 N 2.520920 -4.111349 -3.456978 0
M  V30 28 C 2.992357 -5.170601 -4.138372 0
M  V30 29 C 3.529256 -6.060213 -3.230488 0
M  V30 30 C 3.377013 -5.519812 -1.954152 0
M  V30 31 C 2.750941 -4.319277 -2.146831 0
M  V30 32 N 2.274535 -5.408087 1.384222 0
M  V30 33 N 2.928877 -6.276531 2.139694 0
M  V30 34 H 5.454559 -6.037110 3.970461 0
M  V30 35 H 5.194123 -7.565808 3.060761 0
M  V30 36 H 6.316848 -6.333803 2.407638 0
M  V30 37 H 5.141621 -4.021164 1.281977 0
M  V30 38 H 2.191109 -2.680529 0.799860 0
M  V30 39 H 0.859669 -0.310095 -0.788492 0
M  V30 40 H 0.104740 1.452646 0.678859 0
M  V30 41 H -0.628817 4.486501 0.491582 0
M  V30 42 H -2.678691 3.901898 2.499393 0
M  V30 43 H -3.308949 5.113312 1.295152 0
M  V30 44 H -4.329607 1.229607 1.379859 0
M  V30 45 H -3.255894 1.899781 2.615526 0
M  V30 46 H -4.945842 1.191610 4.037609 0
M  V30 47 H -6.181278 1.204028 2.690005 0
M  V30 48 H -6.956779 3.156266 3.512408 0
M  V30 49 H -6.049066 3.062911 5.461717 0
M  V30 50 H -6.085229 4.627100 2.025991 0
M  V30 51 H -4.689185 4.885970 3.074286 0
M  V30 52 H -1.348338 3.646289 -2.674013 0
M  V30 53 H -0.576085 1.846461 -4.162710 0
M  V30 54 H 2.965000 -5.320064 -5.218196 0
M  V30 55 H 3.986412 -7.012214 -3.487137 0
M  V30 56 H 3.676583 -5.938184 -1.015559 0
M  V30 57 H 2.572574 -7.134245 2.603147 0
M  V30 END ATOM
M  V30 BEGIN BOND
M  V30 1 1 1 2
M  V30 2 2 2 3
M  V30 3 1 3 4
M  V30 4 1 4 5
M  V30 5 1 5 6
M  V30 6 2 6 7
M  V30 7 1 7 8
M  V30 8 1 8 9
M  V30 9 1 9 10
M  V30 10 2 10 11
M  V30 11 1 11 12
M  V30 12 2 12 13
M  V30 13 1 13 14
M  V30 14 1 14 15
M  V30 15 2 15 16
M  V30 16 1 15 17
M  V30 17 1 17 18
M  V30 18 1 18 19
M  V30 19 1 19 20
M  V30 20 1 20 21
M  V30 21 1 21 22
M  V30 22 1 21 23
M  V30 23 1 13 24
M  V30 24 2 24 25
M  V30 25 2 8 26
M  V30 26 1 26 27
M  V30 27 1 27 28
M  V30 28 2 28 29
M  V30 29 1 29 30
M  V30 30 2 30 31
M  V30 31 2 4 32
M  V30 32 1 32 33
M  V30 33 1 33 2
M  V30 34 1 31 6
M  V30 35 1 25 10
M  V30 36 1 31 27
M  V30 37 1 23 18
M  V30 38 1 1 34
M  V30 39 1 1 35
M  V30 40 1 1 36
M  V30 41 1 3 37
M  V30 42 1 5 38
M  V30 43 1 11 39
M  V30 44 1 12 40
M  V30 45 1 14 41
M  V30 46 1 17 42
M  V30 47 1 17 43
M  V30 48 1 19 44
M  V30 49 1 19 45
M  V30 50 1 20 46
M  V30 51 1 20 47
M  V30 52 1 21 48 CFG=1
M  V30 53 1 22 49
M  V30 54 1 23 50
M  V30 55 1 23 51
M  V30 56 1 24 52
M  V30 57 1 25 53
M  V30 58 1 28 54
M  V30 59 1 29 55
M  V30 60 1 30 56
M  V30 61 1 33 57
M  V30 END BOND
M  V30 END CTAB
M  END
>  <Dataset>  (5) 
ChEMBL_Kinases

>  <Ligand_Instance>  (5) 
nan

>  <PDB_ID>  (5) 
nan

>  <Standardized_SMILES>  (5) 
Cc1cc(Nc2nc(Sc3ccc(NC(=O)CN4CC[C@@H](O)C4)cc3)nn3cccc23)n[nH]1

>  <Name>  (5) 
nan

>  <Pocket>  (5) 
nan

>  <ATP_Site>  (5) 
nan

>  <Peripheral>  (5) 
nan

>  <Num_H_Atoms_ProtBoundConf>  (5) 
nan

>  <Num_Resolved_Atoms>  (5) 
nan

>  <Num_Not_Resolved_Atoms>  (5) 
nan

$$$$
CHEMBL2163405
     RDKit          3D

  0  0  0  0  0  0  0  0  0  0999 V3000
M  V30 BEGIN CTAB
M  V30 COUNTS 57 61 0 0 0
M  V30 BEGIN ATOM
M  V30 1 C 6.666856 -6.007509 3.745296 0
M  V30 2 C 5.612130 -6.142299 2.684190 0
M  V30 3 C 4.812423 -5.046488 2.386406 0
M  V30 4 C 3.974930 -5.545205 1.380034 0
M  V30 5 N 2.948129 -4.835877 0.700893 0
M  V30 6 C 2.751928 -4.049935 -0.465772 0
M  V30 7 N 2.952594 -2.721065 -0.483011 0
M  V30 8 C 2.765198 -1.953785 -1.580988 0
M  V30 9 S 3.092954 -0.210229 -1.384590 0
M  V30 10 C 1.628510 0.661311 -0.847198 0
M  V30 11 C 1.465455 0.757252 0.536344 0
M  V30 12 C 0.379022 1.403636 1.082364 0
M  V30 13 C -0.602473 1.988456 0.316500 0
M  V30 14 N -1.684298 2.635225 0.953196 0
M  V30 15 C -2.790510 3.297449 0.388109 0
M  V30 16 O -2.895551 3.359746 -0.859544 0
M  V30 17 C -3.850362 3.933442 1.209797 0
M  V30 18 N -4.870740 4.533034 0.396092 0
M  V30 19 C -5.833487 5.172822 1.310314 0
M  V30 20 C -6.627584 4.006982 1.800751 0
M  V30 21 C -6.681969 3.031918 0.667218 0 CFG=2
M  V30 22 O -6.304778 1.758317 1.147586 0
M  V30 23 C -5.656864 3.545140 -0.321575 0
M  V30 24 C -0.403167 1.870733 -1.037025 0
M  V30 25 C 0.660217 1.238097 -1.637993 0
M  V30 26 N 2.356531 -2.616298 -2.679862 0
M  V30 27 N 2.150299 -3.911897 -2.701690 0
M  V30 28 C 1.743886 -4.691581 -3.726753 0
M  V30 29 C 1.680054 -5.997137 -3.231381 0
M  V30 30 C 2.050333 -6.008777 -1.897131 0
M  V30 31 C 2.334121 -4.696297 -1.607145 0
M  V30 32 N 4.277401 -6.843255 1.120158 0
M  V30 33 N 5.280978 -7.215725 1.916602 0
M  V30 34 H 6.289555 -5.448818 4.620597 0
M  V30 35 H 7.547236 -5.449362 3.367576 0
M  V30 36 H 7.041024 -7.031307 4.032514 0
M  V30 37 H 4.780725 -4.058051 2.772968 0
M  V30 38 H 2.018155 -4.884692 1.186035 0
M  V30 39 H 2.179594 0.332109 1.221132 0
M  V30 40 H 0.294408 1.452985 2.174400 0
M  V30 41 H -1.707634 2.648511 1.995256 0
M  V30 42 H -4.359258 3.140212 1.832641 0
M  V30 43 H -3.469368 4.680489 1.927609 0
M  V30 44 H -5.296761 5.705460 2.116692 0
M  V30 45 H -6.463989 5.845139 0.703259 0
M  V30 46 H -7.668759 4.254239 2.080509 0
M  V30 47 H -6.165834 3.535580 2.693833 0
M  V30 48 H -7.705930 2.996292 0.211191 0
M  V30 49 H -5.837132 1.254982 0.448990 0
M  V30 50 H -5.099773 2.688933 -0.692678 0
M  V30 51 H -6.167126 4.065988 -1.149610 0
M  V30 52 H -1.108569 2.291346 -1.727985 0
M  V30 53 H 0.817728 1.145021 -2.693519 0
M  V30 54 H 1.486656 -4.473238 -4.770452 0
M  V30 55 H 1.396883 -6.937407 -3.724688 0
M  V30 56 H 2.119874 -6.826520 -1.194209 0
M  V30 57 H 5.758142 -8.141844 1.978838 0
M  V30 END ATOM
M  V30 BEGIN BOND
M  V30 1 1 1 2
M  V30 2 2 2 3
M  V30 3 1 3 4
M  V30 4 1 4 5
M  V30 5 1 5 6
M  V30 6 2 6 7
M  V30 7 1 7 8
M  V30 8 1 8 9
M  V30 9 1 9 10
M  V30 10 2 10 11
M  V30 11 1 11 12
M  V30 12 2 12 13
M  V30 13 1 13 14
M  V30 14 1 14 15
M  V30 15 2 15 16
M  V30 16 1 15 17
M  V30 17 1 17 18
M  V30 18 1 18 19
M  V30 19 1 19 20
M  V30 20 1 20 21
M  V30 21 1 21 22
M  V30 22 1 21 23
M  V30 23 1 13 24
M  V30 24 2 24 25
M  V30 25 2 8 26
M  V30 26 1 26 27
M  V30 27 1 27 28
M  V30 28 2 28 29
M  V30 29 1 29 30
M  V30 30 2 30 31
M  V30 31 2 4 32
M  V30 32 1 32 33
M  V30 33 1 33 2
M  V30 34 1 31 6
M  V30 35 1 25 10
M  V30 36 1 31 27
M  V30 37 1 23 18
M  V30 38 1 1 34
M  V30 39 1 1 35
M  V30 40 1 1 36
M  V30 41 1 3 37
M  V30 42 1 5 38
M  V30 43 1 11 39
M  V30 44 1 12 40
M  V30 45 1 14 41
M  V30 46 1 17 42
M  V30 47 1 17 43
M  V30 48 1 19 44
M  V30 49 1 19 45
M  V30 50 1 20 46
M  V30 51 1 20 47
M  V30 52 1 21 48 CFG=3
M  V30 53 1 22 49
M  V30 54 1 23 50
M  V30 55 1 23 51
M  V30 56 1 24 52
M  V30 57 1 25 53
M  V30 58 1 28 54
M  V30 59 1 29 55
M  V30 60 1 30 56
M  V30 61 1 33 57
M  V30 END BOND
M  V30 END CTAB
M  END
>  <Dataset>  (6) 
ChEMBL_Kinases

>  <Ligand_Instance>  (6) 
nan

>  <PDB_ID>  (6) 
nan

>  <Standardized_SMILES>  (6) 
Cc1cc(Nc2nc(Sc3ccc(NC(=O)CN4CC[C@H](O)C4)cc3)nn3cccc23)n[nH]1

>  <Name>  (6) 
nan

>  <Pocket>  (6) 
nan

>  <ATP_Site>  (6) 
nan

>  <Peripheral>  (6) 
nan

>  <Num_H_Atoms_ProtBoundConf>  (6) 
nan

>  <Num_Resolved_Atoms>  (6) 
nan

>  <Num_Not_Resolved_Atoms>  (6) 
nan

$$$$
CHEMBL2163403
     RDKit          3D

  0  0  0  0  0  0  0  0  0  0999 V3000
M  V30 BEGIN CTAB
M  V30 COUNTS 70 75 0 0 0
M  V30 BEGIN ATOM
M  V30 1 C 4.584063 -3.712567 -0.387489 0
M  V30 2 C 4.231700 -2.342848 0.073545 0
M  V30 3 C 5.062003 -1.374185 0.579146 0
M  V30 4 C 4.357404 -0.211813 0.900012 0
M  V30 5 N 4.898222 1.003602 1.437492 0
M  V30 6 C 3.932768 2.047888 1.669204 0
M  V30 7 N 3.526005 2.759898 0.593818 0
M  V30 8 C 2.622831 3.768098 0.704358 0
M  V30 9 S 2.274155 4.490415 -0.917507 0
M  V30 10 C 0.871490 3.552397 -1.576090 0
M  V30 11 C -0.419964 4.006293 -1.424502 0
M  V30 12 C -1.456083 3.230752 -1.915802 0
M  V30 13 C -1.171384 2.017849 -2.547068 0
M  V30 14 N -2.112833 1.125561 -3.108361 0
M  V30 15 C -2.753917 0.729139 -4.278990 0
M  V30 16 O -2.485559 1.312486 -5.384966 0
M  V30 17 C -3.750149 -0.315688 -4.449170 0
M  V30 18 N -4.138946 -1.050662 -3.295901 0
M  V30 19 C -5.274596 -1.938140 -3.628847 0
M  V30 20 C -5.155508 -3.139281 -2.714980 0
M  V30 21 C -3.981663 -2.745064 -1.824323 0 CFG=1
M  V30 22 C -3.337658 -3.856830 -1.145578 0
M  V30 23 O -3.453093 -5.105048 -1.106015 0
M  V30 24 N -2.283891 -3.397661 -0.286654 0
M  V30 25 C -1.513695 -4.371120 0.497837 0
M  V30 26 C -1.127362 -3.686910 1.780213 0
M  V30 27 C -1.599978 -2.279264 1.608427 0
M  V30 28 C -1.667718 -2.141047 0.098818 0
M  V30 29 C -3.120531 -2.050535 -2.875689 0
M  V30 30 C 0.154536 1.591764 -2.681702 0
M  V30 31 C 1.223490 2.351154 -2.197478 0
M  V30 32 N 2.131812 4.050652 1.929213 0
M  V30 33 N 2.532816 3.349504 2.987085 0
M  V30 34 C 2.134021 3.512102 4.257501 0
M  V30 35 C 2.827169 2.547190 4.994824 0
M  V30 36 C 3.654564 1.793518 4.155512 0
M  V30 37 C 3.420790 2.349468 2.913552 0
M  V30 38 N 3.099750 -0.510449 0.576440 0
M  V30 39 N 3.019668 -1.738278 0.098762 0
M  V30 40 H 3.678861 -4.345750 -0.421368 0
M  V30 41 H 4.988274 -3.666336 -1.422997 0
M  V30 42 H 5.297265 -4.164081 0.331633 0
M  V30 43 H 6.137982 -1.528335 0.699316 0
M  V30 44 H 5.942776 1.022026 1.612585 0
M  V30 45 H -0.632293 4.939598 -0.938016 0
M  V30 46 H -2.487042 3.490750 -1.848072 0
M  V30 47 H -2.338394 0.664629 -2.206889 0
M  V30 48 H -3.456265 -1.065063 -5.243136 0
M  V30 49 H -4.683363 0.152407 -4.881754 0
M  V30 50 H -5.161922 -2.169704 -4.693043 0
M  V30 51 H -6.226166 -1.407137 -3.449177 0
M  V30 52 H -4.869648 -4.013205 -3.344466 0
M  V30 53 H -6.081915 -3.315272 -2.139147 0
M  V30 54 H -4.366987 -1.964292 -1.134929 0
M  V30 55 H -2.167963 -5.230916 0.794393 0
M  V30 56 H -0.677621 -4.798582 -0.050637 0
M  V30 57 H -1.630623 -4.102075 2.664471 0
M  V30 58 H -0.024668 -3.742633 1.986671 0
M  V30 59 H -2.644398 -2.206636 2.012652 0
M  V30 60 H -0.941379 -1.510559 2.058340 0
M  V30 61 H -0.614730 -2.111095 -0.257913 0
M  V30 62 H -2.267825 -1.253730 -0.197634 0
M  V30 63 H -3.019606 -2.721118 -3.773398 0
M  V30 64 H -2.213253 -1.615097 -2.535266 0
M  V30 65 H 0.439803 0.660828 -3.162451 0
M  V30 66 H 2.251547 2.034268 -2.294785 0
M  V30 67 H 1.429206 4.225238 4.661303 0
M  V30 68 H 2.767780 2.367183 6.065525 0
M  V30 69 H 4.326999 0.978293 4.346491 0
M  V30 70 H 2.110365 -2.183683 -0.224505 0
M  V30 END ATOM
M  V30 BEGIN BOND
M  V30 1 1 1 2
M  V30 2 2 2 3
M  V30 3 1 3 4
M  V30 4 1 4 5
M  V30 5 1 5 6
M  V30 6 2 6 7
M  V30 7 1 7 8
M  V30 8 1 8 9
M  V30 9 1 9 10
M  V30 10 2 10 11
M  V30 11 1 11 12
M  V30 12 2 12 13
M  V30 13 1 13 14
M  V30 14 1 14 15
M  V30 15 2 15 16
M  V30 16 1 15 17
M  V30 17 1 17 18
M  V30 18 1 18 19
M  V30 19 1 19 20
M  V30 20 1 20 21
M  V30 21 1 21 22
M  V30 22 2 22 23
M  V30 23 1 22 24
M  V30 24 1 24 25
M  V30 25 1 25 26
M  V30 26 1 26 27
M  V30 27 1 27 28
M  V30 28 1 21 29
M  V30 29 1 13 30
M  V30 30 2 30 31
M  V30 31 2 8 32
M  V30 32 1 32 33
M  V30 33 1 33 34
M  V30 34 2 34 35
M  V30 35 1 35 36
M  V30 36 2 36 37
M  V30 37 2 4 38
M  V30 38 1 38 39
M  V30 39 1 39 2
M  V30 40 1 37 6
M  V30 41 1 31 10
M  V30 42 1 37 33
M  V30 43 1 29 18
M  V30 44 1 28 24
M  V30 45 1 1 40
M  V30 46 1 1 41
M  V30 47 1 1 42
M  V30 48 1 3 43
M  V30 49 1 5 44
M  V30 50 1 11 45
M  V30 51 1 12 46
M  V30 52 1 14 47
M  V30 53 1 17 48
M  V30 54 1 17 49
M  V30 55 1 19 50
M  V30 56 1 19 51
M  V30 57 1 20 52
M  V30 58 1 20 53
M  V30 59 1 21 54 CFG=1
M  V30 60 1 25 55
M  V30 61 1 25 56
M  V30 62 1 26 57
M  V30 63 1 26 58
M  V30 64 1 27 59
M  V30 65 1 27 60
M  V30 66 1 28 61
M  V30 67 1 28 62
M  V30 68 1 29 63
M  V30 69 1 29 64
M  V30 70 1 30 65
M  V30 71 1 31 66
M  V30 72 1 34 67
M  V30 73 1 35 68
M  V30 74 1 36 69
M  V30 75 1 39 70
M  V30 END BOND
M  V30 END CTAB
M  END
>  <Dataset>  (7) 
ChEMBL_Kinases

>  <Ligand_Instance>  (7) 
nan

>  <PDB_ID>  (7) 
nan

>  <Standardized_SMILES>  (7) 
Cc1cc(Nc2nc(Sc3ccc(NC(=O)CN4CC[C@@H](C(=O)N5CCCC5)C4)cc3)nn3cccc23)n[nH]1

>  <Name>  (7) 
nan

>  <Pocket>  (7) 
nan

>  <ATP_Site>  (7) 
nan

>  <Peripheral>  (7) 
nan

>  <Num_H_Atoms_ProtBoundConf>  (7) 
nan

>  <Num_Resolved_Atoms>  (7) 
nan

>  <Num_Not_Resolved_Atoms>  (7) 
nan

$$$$
CHEMBL2163402
     RDKit          3D

  0  0  0  0  0  0  0  0  0  0999 V3000
M  V30 BEGIN CTAB
M  V30 COUNTS 70 75 0 0 0
M  V30 BEGIN ATOM
M  V30 1 C 1.757186 -3.128544 3.914464 0
M  V30 2 C 2.345214 -1.824684 3.543104 0
M  V30 3 C 2.985847 -1.566302 2.364115 0
M  V30 4 C 3.382813 -0.268464 2.388546 0
M  V30 5 N 4.065020 0.722071 1.618857 0
M  V30 6 C 3.672458 1.655153 0.594444 0
M  V30 7 N 2.879009 2.699834 0.897658 0
M  V30 8 C 2.505865 3.600058 -0.053761 0
M  V30 9 S 1.445300 4.849092 0.677697 0
M  V30 10 C -0.281273 4.323056 0.573001 0
M  V30 11 C -1.108862 4.705819 -0.455946 0
M  V30 12 C -2.403046 4.244592 -0.496241 0
M  V30 13 C -2.813574 3.409610 0.508700 0
M  V30 14 N -4.106848 2.777774 0.688060 0
M  V30 15 C -3.832446 1.603535 -0.113591 0
M  V30 16 O -2.638464 1.803119 -0.529691 0
M  V30 17 C -4.736830 0.445082 -0.380041 0
M  V30 18 N -4.019286 -0.445930 -1.259932 0
M  V30 19 C -4.746456 -1.648812 -1.447891 0
M  V30 20 C -3.816417 -2.828071 -1.244830 0
M  V30 21 C -2.489509 -2.217880 -0.978356 0 CFG=2
M  V30 22 C -1.669008 -2.856814 0.056833 0
M  V30 23 O -1.493460 -2.042349 1.040947 0
M  V30 24 N -1.109758 -4.145227 0.075132 0
M  V30 25 C -1.174642 -5.229001 -0.916238 0
M  V30 26 C -0.001420 -6.139209 -0.581965 0
M  V30 27 C 0.109178 -5.989330 0.910866 0
M  V30 28 C -0.301257 -4.582064 1.230294 0
M  V30 29 C -2.720874 -0.750591 -0.777409 0
M  V30 30 C -1.976192 3.013055 1.562594 0
M  V30 31 C -0.653664 3.472075 1.623863 0
M  V30 32 N 2.926065 3.455338 -1.303369 0
M  V30 33 N 3.714423 2.426831 -1.626866 0
M  V30 34 C 4.240411 2.128543 -2.851570 0
M  V30 35 C 4.973487 0.982266 -2.631027 0
M  V30 36 C 4.910554 0.577105 -1.320066 0
M  V30 37 C 4.097558 1.525663 -0.715475 0
M  V30 38 N 2.975838 0.240143 3.581167 0
M  V30 39 N 2.358851 -0.708138 4.252098 0
M  V30 40 H 2.083128 -3.483383 4.921908 0
M  V30 41 H 0.645328 -3.084815 3.932459 0
M  V30 42 H 2.104277 -3.906679 3.212055 0
M  V30 43 H 3.227140 -2.128873 1.489061 0
M  V30 44 H 5.097121 0.817279 1.824725 0
M  V30 45 H -0.759679 5.360920 -1.229005 0
M  V30 46 H -3.143572 4.469392 -1.238014 0
M  V30 47 H -5.047083 2.848291 1.124542 0
M  V30 48 H -4.955140 -0.123244 0.541888 0
M  V30 49 H -5.699362 0.738295 -0.839475 0
M  V30 50 H -5.152864 -1.633948 -2.487023 0
M  V30 51 H -5.631394 -1.778250 -0.777312 0
M  V30 52 H -4.160198 -3.523156 -0.457866 0
M  V30 53 H -3.824757 -3.425722 -2.187962 0
M  V30 54 H -1.895094 -2.348048 -1.942298 0
M  V30 55 H -2.125632 -5.742646 -0.797866 0
M  V30 56 H -0.958896 -4.844966 -1.935999 0
M  V30 57 H -0.177867 -7.172887 -0.906014 0
M  V30 58 H 0.931688 -5.694381 -1.017975 0
M  V30 59 H 1.157585 -6.201608 1.218959 0
M  V30 60 H -0.542504 -6.717873 1.409101 0
M  V30 61 H 0.608279 -3.969768 1.331526 0
M  V30 62 H -0.906060 -4.496628 2.141831 0
M  V30 63 H -1.973789 -0.202707 -1.415279 0
M  V30 64 H -2.533839 -0.429514 0.274194 0
M  V30 65 H -2.245303 2.350781 2.392735 0
M  V30 66 H 0.005012 3.180501 2.418111 0
M  V30 67 H 4.069735 2.710127 -3.751381 0
M  V30 68 H 5.534343 0.456647 -3.391801 0
M  V30 69 H 5.385790 -0.281515 -0.869459 0
M  V30 70 H 1.913587 -0.664348 5.211964 0
M  V30 END ATOM
M  V30 BEGIN BOND
M  V30 1 1 1 2
M  V30 2 2 2 3
M  V30 3 1 3 4
M  V30 4 1 4 5
M  V30 5 1 5 6
M  V30 6 2 6 7
M  V30 7 1 7 8
M  V30 8 1 8 9
M  V30 9 1 9 10
M  V30 10 2 10 11
M  V30 11 1 11 12
M  V30 12 2 12 13
M  V30 13 1 13 14
M  V30 14 1 14 15
M  V30 15 2 15 16
M  V30 16 1 15 17
M  V30 17 1 17 18
M  V30 18 1 18 19
M  V30 19 1 19 20
M  V30 20 1 20 21
M  V30 21 1 21 22
M  V30 22 2 22 23
M  V30 23 1 22 24
M  V30 24 1 24 25
M  V30 25 1 25 26
M  V30 26 1 26 27
M  V30 27 1 27 28
M  V30 28 1 21 29
M  V30 29 1 13 30
M  V30 30 2 30 31
M  V30 31 2 8 32
M  V30 32 1 32 33
M  V30 33 1 33 34
M  V30 34 2 34 35
M  V30 35 1 35 36
M  V30 36 2 36 37
M  V30 37 2 4 38
M  V30 38 1 38 39
M  V30 39 1 39 2
M  V30 40 1 37 6
M  V30 41 1 31 10
M  V30 42 1 37 33
M  V30 43 1 29 18
M  V30 44 1 28 24
M  V30 45 1 1 40
M  V30 46 1 1 41
M  V30 47 1 1 42
M  V30 48 1 3 43
M  V30 49 1 5 44
M  V30 50 1 11 45
M  V30 51 1 12 46
M  V30 52 1 14 47
M  V30 53 1 17 48
M  V30 54 1 17 49
M  V30 55 1 19 50
M  V30 56 1 19 51
M  V30 57 1 20 52
M  V30 58 1 20 53
M  V30 59 1 21 54 CFG=3
M  V30 60 1 25 55
M  V30 61 1 25 56
M  V30 62 1 26 57
M  V30 63 1 26 58
M  V30 64 1 27 59
M  V30 65 1 27 60
M  V30 66 1 28 61
M  V30 67 1 28 62
M  V30 68 1 29 63
M  V30 69 1 29 64
M  V30 70 1 30 65
M  V30 71 1 31 66
M  V30 72 1 34 67
M  V30 73 1 35 68
M  V30 74 1 36 69
M  V30 75 1 39 70
M  V30 END BOND
M  V30 END CTAB
M  END
>  <Dataset>  (8) 
ChEMBL_Kinases

>  <Ligand_Instance>  (8) 
nan

>  <PDB_ID>  (8) 
nan

>  <Standardized_SMILES>  (8) 
Cc1cc(Nc2nc(Sc3ccc(NC(=O)CN4CC[C@H](C(=O)N5CCCC5)C4)cc3)nn3cccc23)n[nH]1

>  <Name>  (8) 
nan

>  <Pocket>  (8) 
nan

>  <ATP_Site>  (8) 
nan

>  <Peripheral>  (8) 
nan

>  <Num_H_Atoms_ProtBoundConf>  (8) 
nan

>  <Num_Resolved_Atoms>  (8) 
nan

>  <Num_Not_Resolved_Atoms>  (8) 
nan

$$$$
CHEMBL2163401
     RDKit          3D

  0  0  0  0  0  0  0  0  0  0999 V3000
M  V30 BEGIN CTAB
M  V30 COUNTS 71 75 0 0 0
M  V30 BEGIN ATOM
M  V30 1 C 3.460189 -3.854007 3.199978 0
M  V30 2 C 3.469956 -2.748727 2.209932 0
M  V30 3 C 4.541762 -2.293514 1.454267 0
M  V30 4 C 4.090979 -1.232796 0.663552 0
M  V30 5 N 4.859736 -0.447172 -0.271638 0
M  V30 6 C 4.291137 0.615551 -1.023364 0
M  V30 7 N 4.066844 1.836348 -0.455649 0
M  V30 8 C 3.532533 2.867908 -1.148225 0
M  V30 9 S 3.331908 4.305301 -0.057076 0
M  V30 10 C 1.666994 4.166322 0.679353 0
M  V30 11 C 0.596551 4.801966 0.097906 0
M  V30 12 C -0.624450 4.556039 0.674331 0
M  V30 13 C -0.683210 3.714926 1.762141 0
M  V30 14 N -1.920263 3.363473 2.418863 0
M  V30 15 C -2.248542 2.271930 1.541025 0
M  V30 16 O -1.284218 2.231802 0.687653 0
M  V30 17 C -3.349114 1.259405 1.396319 0
M  V30 18 N -3.014862 0.472027 0.251340 0
M  V30 19 C -1.892475 -0.383220 0.350444 0
M  V30 20 C -2.143152 -1.532940 -0.627912 0
M  V30 21 C -3.620296 -1.680515 -0.603139 0 CFG=1
M  V30 22 S -4.259839 -2.713051 0.662754 0
M  V30 23 O -3.523659 -2.319990 1.944778 0
M  V30 24 O -5.706984 -2.383660 0.878169 0
M  V30 25 C -3.988850 -4.435123 0.415119 0
M  V30 26 C -4.622504 -4.934686 -0.868912 0
M  V30 27 C -2.532300 -4.799476 0.388742 0
M  V30 28 C -4.585743 -5.179847 1.615864 0
M  V30 29 C -4.114372 -0.261029 -0.287024 0
M  V30 30 C 0.427453 3.081459 2.336551 0
M  V30 31 C 1.681403 3.319655 1.763274 0
M  V30 32 N 3.199475 2.711761 -2.454169 0
M  V30 33 N 3.396201 1.541222 -3.058509 0
M  V30 34 C 3.127523 1.199234 -4.324270 0
M  V30 35 C 3.512880 -0.136413 -4.457280 0
M  V30 36 C 3.997929 -0.502852 -3.219346 0
M  V30 37 C 3.928079 0.550116 -2.326727 0
M  V30 38 N 2.776043 -1.086838 0.964563 0
M  V30 39 N 2.412035 -1.983747 1.878984 0
M  V30 40 H 4.512887 -4.192485 3.399824 0
M  V30 41 H 3.105111 -3.478405 4.183808 0
M  V30 42 H 2.919459 -4.749772 2.877040 0
M  V30 43 H 5.556220 -2.683711 1.468095 0
M  V30 44 H 5.865989 -0.697443 -0.375796 0
M  V30 45 H 0.703849 5.446539 -0.747747 0
M  V30 46 H -1.538461 4.998535 0.303327 0
M  V30 47 H -2.673254 3.427293 3.110178 0
M  V30 48 H -3.380819 0.712852 2.346430 0
M  V30 49 H -4.315908 1.787525 1.297617 0
M  V30 50 H -0.994384 0.136559 -0.076397 0
M  V30 51 H -1.666635 -0.769057 1.348501 0
M  V30 52 H -1.576192 -2.387949 -0.278882 0
M  V30 53 H -1.801219 -1.242666 -1.646574 0
M  V30 54 H -4.003043 -1.952235 -1.616324 0
M  V30 55 H -5.499996 -4.333074 -1.177388 0
M  V30 56 H -3.847114 -4.956093 -1.640344 0
M  V30 57 H -4.985244 -5.968414 -0.696128 0
M  V30 58 H -1.985387 -4.224359 1.151717 0
M  V30 59 H -2.388417 -5.872798 0.669394 0
M  V30 60 H -2.140973 -4.651404 -0.642946 0
M  V30 61 H -4.370610 -6.245590 1.430249 0
M  V30 62 H -3.953685 -4.862694 2.487643 0
M  V30 63 H -5.651199 -4.957482 1.744022 0
M  V30 64 H -4.369751 0.208709 -1.273538 0
M  V30 65 H -5.029266 -0.275105 0.299746 0
M  V30 66 H 0.350485 2.428870 3.192920 0
M  V30 67 H 2.542980 2.843169 2.196497 0
M  V30 68 H 2.704062 1.811498 -5.085713 0
M  V30 69 H 3.459161 -0.786783 -5.326064 0
M  V30 70 H 4.378295 -1.499566 -3.004948 0
M  V30 71 H 1.457555 -2.100737 2.298724 0
M  V30 END ATOM
M  V30 BEGIN BOND
M  V30 1 1 1 2
M  V30 2 2 2 3
M  V30 3 1 3 4
M  V30 4 1 4 5
M  V30 5 1 5 6
M  V30 6 2 6 7
M  V30 7 1 7 8
M  V30 8 1 8 9
M  V30 9 1 9 10
M  V30 10 2 10 11
M  V30 11 1 11 12
M  V30 12 2 12 13
M  V30 13 1 13 14
M  V30 14 1 14 15
M  V30 15 2 15 16
M  V30 16 1 15 17
M  V30 17 1 17 18
M  V30 18 1 18 19
M  V30 19 1 19 20
M  V30 20 1 20 21
M  V30 21 1 21 22
M  V30 22 2 22 23
M  V30 23 2 22 24
M  V30 24 1 22 25
M  V30 25 1 25 26
M  V30 26 1 25 27
M  V30 27 1 25 28
M  V30 28 1 21 29
M  V30 29 1 13 30
M  V30 30 2 30 31
M  V30 31 2 8 32
M  V30 32 1 32 33
M  V30 33 1 33 34
M  V30 34 2 34 35
M  V30 35 1 35 36
M  V30 36 2 36 37
M  V30 37 2 4 38
M  V30 38 1 38 39
M  V30 39 1 39 2
M  V30 40 1 37 6
M  V30 41 1 31 10
M  V30 42 1 37 33
M  V30 43 1 29 18
M  V30 44 1 1 40
M  V30 45 1 1 41
M  V30 46 1 1 42
M  V30 47 1 3 43
M  V30 48 1 5 44
M  V30 49 1 11 45
M  V30 50 1 12 46
M  V30 51 1 14 47
M  V30 52 1 17 48
M  V30 53 1 17 49
M  V30 54 1 19 50
M  V30 55 1 19 51
M  V30 56 1 20 52
M  V30 57 1 20 53
M  V30 58 1 21 54 CFG=3
M  V30 59 1 26 55
M  V30 60 1 26 56
M  V30 61 1 26 57
M  V30 62 1 27 58
M  V30 63 1 27 59
M  V30 64 1 27 60
M  V30 65 1 28 61
M  V30 66 1 28 62
M  V30 67 1 28 63
M  V30 68 1 29 64
M  V30 69 1 29 65
M  V30 70 1 30 66
M  V30 71 1 31 67
M  V30 72 1 34 68
M  V30 73 1 35 69
M  V30 74 1 36 70
M  V30 75 1 39 71
M  V30 END BOND
M  V30 END CTAB
M  END
>  <Dataset>  (9) 
ChEMBL_Kinases

>  <Ligand_Instance>  (9) 
nan

>  <PDB_ID>  (9) 
nan

>  <Standardized_SMILES>  (9) 
Cc1cc(Nc2nc(Sc3ccc(NC(=O)CN4CC[C@@H](S(=O)(=O)C(C)(C)C)C4)cc3)nn3cccc23)n[nH]1

>  <Name>  (9) 
nan

>  <Pocket>  (9) 
nan

>  <ATP_Site>  (9) 
nan

>  <Peripheral>  (9) 
nan

>  <Num_H_Atoms_ProtBoundConf>  (9) 
nan

>  <Num_Resolved_Atoms>  (9) 
nan

>  <Num_Not_Resolved_Atoms>  (9) 
nan

$$$$
CHEMBL2163400
     RDKit          3D

  0  0  0  0  0  0  0  0  0  0999 V3000
M  V30 BEGIN CTAB
M  V30 COUNTS 70 74 0 0 0
M  V30 BEGIN ATOM
M  V30 1 C 4.830479 -0.499591 5.125119 0
M  V30 2 C 4.779361 -1.335608 3.910954 0
M  V30 3 C 4.599032 -1.016901 2.577161 0
M  V30 4 C 4.631490 -2.171108 1.832283 0
M  V30 5 N 4.496481 -2.357910 0.440308 0
M  V30 6 C 4.300306 -1.283807 -0.466068 0
M  V30 7 N 4.222156 0.016643 -0.137958 0
M  V30 8 C 4.036935 1.001136 -1.035747 0
M  V30 9 S 3.941015 2.724336 -0.507840 0
M  V30 10 C 2.189503 3.017152 -0.170758 0
M  V30 11 C 1.370921 3.466681 -1.177156 0
M  V30 12 C 0.035690 3.683390 -0.917519 0
M  V30 13 C -0.452214 3.444789 0.347083 0
M  V30 14 N -1.786499 3.585602 0.848439 0
M  V30 15 C -2.387844 2.318476 0.647796 0
M  V30 16 O -1.627988 1.443484 0.106900 0
M  V30 17 C -3.779863 1.876777 0.983069 0
M  V30 18 N -3.993549 0.507811 0.620390 0
M  V30 19 C -3.994726 0.342532 -0.809005 0
M  V30 20 C -5.026237 -0.730271 -1.106896 0
M  V30 21 C -5.646174 -1.125063 0.204050 0 CFG=1
M  V30 22 S -4.991277 -2.502031 0.973223 0 CHG=1 VAL=3
M  V30 23 O -5.613164 -2.995304 2.402773 0 CHG=-1 VAL=1
M  V30 24 C -3.833536 -3.493387 0.186418 0
M  V30 25 C -4.277600 -4.130895 -1.100677 0
M  V30 26 C -2.536355 -2.701717 0.004262 0
M  V30 27 C -3.485610 -4.644706 1.143762 0
M  V30 28 C -5.344379 0.135038 1.041466 0
M  V30 29 C 0.401246 2.988120 1.352311 0
M  V30 30 C 1.751973 2.762140 1.115020 0
M  V30 31 N 3.920064 0.697385 -2.342416 0
M  V30 32 N 3.985047 -0.556139 -2.754985 0
M  V30 33 C 3.900440 -1.120980 -3.970645 0
M  V30 34 C 4.031342 -2.488473 -3.869509 0
M  V30 35 C 4.200035 -2.714810 -2.518093 0
M  V30 36 C 4.170847 -1.501617 -1.819430 0
M  V30 37 N 4.829368 -3.152664 2.729987 0
M  V30 38 N 4.915503 -2.662005 3.942780 0
M  V30 39 H 3.785649 -0.417833 5.518922 0
M  V30 40 H 5.167014 0.536244 4.913136 0
M  V30 41 H 5.453670 -0.983829 5.906521 0
M  V30 42 H 4.459770 -0.025489 2.219772 0
M  V30 43 H 4.539430 -3.317643 0.035110 0
M  V30 44 H 1.712344 3.667338 -2.181238 0
M  V30 45 H -0.719620 4.032668 -1.603590 0
M  V30 46 H -2.426885 4.288253 1.292323 0
M  V30 47 H -3.982793 2.015253 2.064461 0
M  V30 48 H -4.500152 2.494834 0.408049 0
M  V30 49 H -4.235240 1.284097 -1.342526 0
M  V30 50 H -2.985693 0.003336 -1.125961 0
M  V30 51 H -4.547360 -1.533976 -1.654624 0
M  V30 52 H -5.818702 -0.262427 -1.743712 0
M  V30 53 H -6.749257 -1.174957 0.134827 0
M  V30 54 H -3.539641 -3.852465 -1.896868 0
M  V30 55 H -5.322784 -3.886569 -1.375450 0
M  V30 56 H -4.227465 -5.253753 -1.076062 0
M  V30 57 H -2.385544 -2.365615 -1.034915 0
M  V30 58 H -1.642853 -3.330820 0.288802 0
M  V30 59 H -2.491620 -1.853299 0.725455 0
M  V30 60 H -4.436430 -5.199527 1.301882 0
M  V30 61 H -2.748867 -5.319811 0.702450 0
M  V30 62 H -3.181356 -4.215914 2.130857 0
M  V30 63 H -6.025975 0.952885 0.749761 0
M  V30 64 H -5.336429 -0.083272 2.121992 0
M  V30 65 H 0.114957 2.766889 2.391631 0
M  V30 66 H 2.432101 2.412475 1.865110 0
M  V30 67 H 3.751606 -0.573858 -4.882502 0
M  V30 68 H 4.005718 -3.209805 -4.667865 0
M  V30 69 H 4.330633 -3.737214 -2.146447 0
M  V30 70 H 5.071327 -3.317026 4.748350 0
M  V30 END ATOM
M  V30 BEGIN BOND
M  V30 1 1 1 2
M  V30 2 2 2 3
M  V30 3 1 3 4
M  V30 4 1 4 5
M  V30 5 1 5 6
M  V30 6 2 6 7
M  V30 7 1 7 8
M  V30 8 1 8 9
M  V30 9 1 9 10
M  V30 10 2 10 11
M  V30 11 1 11 12
M  V30 12 2 12 13
M  V30 13 1 13 14
M  V30 14 1 14 15
M  V30 15 2 15 16
M  V30 16 1 15 17
M  V30 17 1 17 18
M  V30 18 1 18 19
M  V30 19 1 19 20
M  V30 20 1 20 21
M  V30 21 1 21 22
M  V30 22 1 22 23
M  V30 23 1 22 24
M  V30 24 1 24 25
M  V30 25 1 24 26
M  V30 26 1 24 27
M  V30 27 1 21 28
M  V30 28 1 13 29
M  V30 29 2 29 30
M  V30 30 2 8 31
M  V30 31 1 31 32
M  V30 32 1 32 33
M  V30 33 2 33 34
M  V30 34 1 34 35
M  V30 35 2 35 36
M  V30 36 2 4 37
M  V30 37 1 37 38
M  V30 38 1 38 2
M  V30 39 1 36 6
M  V30 40 1 30 10
M  V30 41 1 36 32
M  V30 42 1 28 18
M  V30 43 1 1 39
M  V30 44 1 1 40
M  V30 45 1 1 41
M  V30 46 1 3 42
M  V30 47 1 5 43
M  V30 48 1 11 44
M  V30 49 1 12 45
M  V30 50 1 14 46
M  V30 51 1 17 47
M  V30 52 1 17 48
M  V30 53 1 19 49
M  V30 54 1 19 50
M  V30 55 1 20 51
M  V30 56 1 20 52
M  V30 57 1 21 53 CFG=3
M  V30 58 1 25 54
M  V30 59 1 25 55
M  V30 60 1 25 56
M  V30 61 1 26 57
M  V30 62 1 26 58
M  V30 63 1 26 59
M  V30 64 1 27 60
M  V30 65 1 27 61
M  V30 66 1 27 62
M  V30 67 1 28 63
M  V30 68 1 28 64
M  V30 69 1 29 65
M  V30 70 1 30 66
M  V30 71 1 33 67
M  V30 72 1 34 68
M  V30 73 1 35 69
M  V30 74 1 38 70
M  V30 END BOND
M  V30 END CTAB
M  END
>  <Dataset>  (10) 
ChEMBL_Kinases

>  <Ligand_Instance>  (10) 
nan

>  <PDB_ID>  (10) 
nan

>  <Standardized_SMILES>  (10) 
Cc1cc(Nc2nc(Sc3ccc(NC(=O)CN4CC[C@@H]([S+]([O-])C(C)(C)C)C4)cc3)nn3cccc23)n[nH]1

>  <Name>  (10) 
nan

>  <Pocket>  (10) 
nan

>  <ATP_Site>  (10) 
nan

>  <Peripheral>  (10) 
nan

>  <Num_H_Atoms_ProtBoundConf>  (10) 
nan

>  <Num_Resolved_Atoms>  (10) 
nan

>  <Num_Not_Resolved_Atoms>  (10) 
nan

$$$$
CHEMBL2163399
     RDKit          3D

  0  0  0  0  0  0  0  0  0  0999 V3000
M  V30 BEGIN CTAB
M  V30 COUNTS 69 73 0 0 0
M  V30 BEGIN ATOM
M  V30 1 C 1.630910 -1.896963 4.823384 0
M  V30 2 C 2.459390 -2.159349 3.614248 0
M  V30 3 C 3.662773 -1.608092 3.250008 0
M  V30 4 C 4.079977 -2.145908 2.044477 0
M  V30 5 N 5.333360 -1.670007 1.512042 0
M  V30 6 C 4.948459 -0.713468 0.552401 0
M  V30 7 N 4.698442 0.523974 1.028482 0
M  V30 8 C 4.318461 1.491815 0.162227 0
M  V30 9 S 3.861495 3.241688 0.355171 0
M  V30 10 C 2.072114 3.300049 0.633161 0
M  V30 11 C 1.390588 3.223859 -0.587216 0
M  V30 12 C -0.008634 3.235597 -0.496423 0
M  V30 13 C -0.585565 3.321497 0.777792 0
M  V30 14 N -2.011209 3.249177 0.606994 0
M  V30 15 C -2.179014 1.856755 0.903799 0
M  V30 16 O -0.997059 1.395310 1.198118 0
M  V30 17 C -3.085797 0.699812 1.030205 0
M  V30 18 N -4.420825 1.052642 0.639776 0
M  V30 19 C -4.387376 1.222226 -0.823497 0
M  V30 20 C -4.223534 -0.184670 -1.337354 0
M  V30 21 C -4.901551 -1.059467 -0.330914 0 CFG=1
M  V30 22 S -3.843411 -2.260230 0.461192 0
M  V30 23 C -3.153478 -3.524136 -0.579200 0
M  V30 24 C -3.714300 -3.593430 -1.973133 0
M  V30 25 C -1.639234 -3.406081 -0.584078 0
M  V30 26 C -3.481241 -4.882423 0.063902 0
M  V30 27 C -5.336257 -0.087245 0.774001 0
M  V30 28 C 0.099647 3.397337 1.947193 0
M  V30 29 C 1.471842 3.384257 1.853945 0
M  V30 30 N 4.200788 1.198098 -1.150974 0
M  V30 31 N 4.450474 -0.017249 -1.591598 0
M  V30 32 C 4.413824 -0.597075 -2.821104 0
M  V30 33 C 4.763603 -1.928083 -2.768940 0
M  V30 34 C 5.031664 -2.206691 -1.465555 0
M  V30 35 C 4.831596 -1.022813 -0.775263 0
M  V30 36 N 3.120385 -3.011325 1.702800 0
M  V30 37 N 2.169013 -3.023555 2.616916 0
M  V30 38 H 0.679613 -2.444477 4.756454 0
M  V30 39 H 2.199455 -2.317089 5.702352 0
M  V30 40 H 1.446128 -0.815634 4.900159 0
M  V30 41 H 4.141900 -0.858274 3.893919 0
M  V30 42 H 6.288218 -1.964871 1.774466 0
M  V30 43 H 1.858640 3.156733 -1.572813 0
M  V30 44 H -0.535324 3.176948 -1.456260 0
M  V30 45 H -2.961160 3.554940 0.414536 0
M  V30 46 H -2.666127 -0.124561 0.414739 0
M  V30 47 H -3.051362 0.308348 2.078345 0
M  V30 48 H -5.353114 1.668909 -1.121639 0
M  V30 49 H -3.539698 1.826666 -1.133555 0
M  V30 50 H -4.794502 -0.313785 -2.307279 0
M  V30 51 H -3.147630 -0.414488 -1.508052 0
M  V30 52 H -5.842428 -1.518406 -0.730553 0
M  V30 53 H -4.651922 -4.184459 -2.019352 0
M  V30 54 H -2.957549 -4.195151 -2.560875 0
M  V30 55 H -3.832085 -2.618445 -2.447012 0
M  V30 56 H -1.197534 -3.781373 -1.532842 0
M  V30 57 H -1.290369 -2.346229 -0.512651 0
M  V30 58 H -1.200765 -3.925805 0.309779 0
M  V30 59 H -3.590030 -4.740190 1.159946 0
M  V30 60 H -4.401057 -5.286174 -0.379446 0
M  V30 61 H -2.646371 -5.557624 -0.195737 0
M  V30 62 H -6.388082 0.239219 0.646761 0
M  V30 63 H -5.234035 -0.537945 1.764810 0
M  V30 64 H -0.453526 3.456790 2.851251 0
M  V30 65 H 2.087709 3.436877 2.717763 0
M  V30 66 H 4.148179 -0.105990 -3.767203 0
M  V30 67 H 4.808447 -2.608614 -3.620335 0
M  V30 68 H 5.332592 -3.157006 -1.067621 0
M  V30 69 H 1.312306 -3.610453 2.585288 0
M  V30 END ATOM
M  V30 BEGIN BOND
M  V30 1 1 1 2
M  V30 2 2 2 3
M  V30 3 1 3 4
M  V30 4 1 4 5
M  V30 5 1 5 6
M  V30 6 2 6 7
M  V30 7 1 7 8
M  V30 8 1 8 9
M  V30 9 1 9 10
M  V30 10 2 10 11
M  V30 11 1 11 12
M  V30 12 2 12 13
M  V30 13 1 13 14
M  V30 14 1 14 15
M  V30 15 2 15 16
M  V30 16 1 15 17
M  V30 17 1 17 18
M  V30 18 1 18 19
M  V30 19 1 19 20
M  V30 20 1 20 21
M  V30 21 1 21 22
M  V30 22 1 22 23
M  V30 23 1 23 24
M  V30 24 1 23 25
M  V30 25 1 23 26
M  V30 26 1 21 27
M  V30 27 1 13 28
M  V30 28 2 28 29
M  V30 29 2 8 30
M  V30 30 1 30 31
M  V30 31 1 31 32
M  V30 32 2 32 33
M  V30 33 1 33 34
M  V30 34 2 34 35
M  V30 35 2 4 36
M  V30 36 1 36 37
M  V30 37 1 37 2
M  V30 38 1 35 6
M  V30 39 1 29 10
M  V30 40 1 35 31
M  V30 41 1 27 18
M  V30 42 1 1 38
M  V30 43 1 1 39
M  V30 44 1 1 40
M  V30 45 1 3 41
M  V30 46 1 5 42
M  V30 47 1 11 43
M  V30 48 1 12 44
M  V30 49 1 14 45
M  V30 50 1 17 46
M  V30 51 1 17 47
M  V30 52 1 19 48
M  V30 53 1 19 49
M  V30 54 1 20 50
M  V30 55 1 20 51
M  V30 56 1 21 52 CFG=3
M  V30 57 1 24 53
M  V30 58 1 24 54
M  V30 59 1 24 55
M  V30 60 1 25 56
M  V30 61 1 25 57
M  V30 62 1 25 58
M  V30 63 1 26 59
M  V30 64 1 26 60
M  V30 65 1 26 61
M  V30 66 1 27 62
M  V30 67 1 27 63
M  V30 68 1 28 64
M  V30 69 1 29 65
M  V30 70 1 32 66
M  V30 71 1 33 67
M  V30 72 1 34 68
M  V30 73 1 37 69
M  V30 END BOND
M  V30 END CTAB
M  END
>  <Dataset>  (11) 
ChEMBL_Kinases

>  <Ligand_Instance>  (11) 
nan

>  <PDB_ID>  (11) 
nan

>  <Standardized_SMILES>  (11) 
Cc1cc(Nc2nc(Sc3ccc(NC(=O)CN4CC[C@@H](SC(C)(C)C)C4)cc3)nn3cccc23)n[nH]1

>  <Name>  (11) 
nan

>  <Pocket>  (11) 
nan

>  <ATP_Site>  (11) 
nan

>  <Peripheral>  (11) 
nan

>  <Num_H_Atoms_ProtBoundConf>  (11) 
nan

>  <Num_Resolved_Atoms>  (11) 
nan

>  <Num_Not_Resolved_Atoms>  (11) 
nan

$$$$
CHEMBL2163398
     RDKit          3D

  0  0  0  0  0  0  0  0  0  0999 V3000
M  V30 BEGIN CTAB
M  V30 COUNTS 70 75 0 0 0
M  V30 BEGIN ATOM
M  V30 1 C 2.944778 -3.680910 2.717214 0
M  V30 2 C 3.304330 -2.248702 2.639797 0
M  V30 3 C 4.126148 -1.761827 1.669661 0
M  V30 4 C 4.229701 -0.418508 1.913856 0
M  V30 5 N 4.858158 0.757815 1.402975 0
M  V30 6 C 4.407187 1.698039 0.432313 0
M  V30 7 N 3.598404 2.653446 0.925193 0
M  V30 8 C 3.117189 3.600843 0.092654 0
M  V30 9 S 2.033288 4.837603 0.840791 0
M  V30 10 C 0.328431 4.342881 0.788324 0
M  V30 11 C -0.543865 4.671666 -0.228087 0
M  V30 12 C -1.874886 4.231118 -0.175827 0
M  V30 13 C -2.226072 3.472143 0.931664 0
M  V30 14 N -3.621230 3.047158 0.965852 0
M  V30 15 C -3.529392 1.815761 0.232231 0
M  V30 16 O -2.303665 1.668836 -0.100281 0
M  V30 17 C -4.745138 0.947378 -0.025257 0
M  V30 18 N -4.287736 -0.176490 -0.757409 0
M  V30 19 C -5.231114 -1.170366 -1.115991 0
M  V30 20 C -4.652222 -2.528049 -0.753761 0
M  V30 21 C -3.192221 -2.263238 -0.603822 0
M  V30 22 C -2.519309 -2.969174 0.482506 0
M  V30 23 O -1.994907 -2.375791 1.438948 0
M  V30 24 N -2.438026 -4.410129 0.478891 0
M  V30 25 C -2.896347 -5.494773 -0.405946 0
M  V30 26 C -1.515364 -6.051458 -0.796521 0
M  V30 27 C -0.883672 -6.117121 0.595515 0
M  V30 28 C -1.791145 -5.268554 1.470142 0
M  V30 29 C -3.061742 -0.771353 -0.374605 0
M  V30 30 C -1.391364 3.118154 1.970506 0
M  V30 31 C -0.091058 3.573425 1.876646 0
M  V30 32 N 3.428316 3.613518 -1.226243 0
M  V30 33 N 4.225547 2.677697 -1.730587 0
M  V30 34 C 4.710376 2.421401 -2.961564 0
M  V30 35 C 5.507874 1.301366 -2.918262 0
M  V30 36 C 5.525843 0.833825 -1.606790 0
M  V30 37 C 4.726103 1.709575 -0.916883 0
M  V30 38 N 3.478420 -0.144649 3.005955 0
M  V30 39 N 2.915359 -1.259431 3.447047 0
M  V30 40 H 3.484175 -4.160947 3.586100 0
M  V30 41 H 1.852995 -3.799304 2.942610 0
M  V30 42 H 3.209207 -4.246941 1.817655 0
M  V30 43 H 4.677521 -2.130972 0.820426 0
M  V30 44 H 5.800646 1.009818 1.770415 0
M  V30 45 H -0.153174 5.269599 -1.040436 0
M  V30 46 H -2.487359 4.521680 -0.992198 0
M  V30 47 H -4.541553 3.335800 1.336392 0
M  V30 48 H -5.311823 0.752387 0.881210 0
M  V30 49 H -5.413446 1.613269 -0.649280 0
M  V30 50 H -5.327528 -1.164871 -2.230160 0
M  V30 51 H -6.242578 -1.025100 -0.704746 0
M  V30 52 H -4.876137 -3.251423 -1.565905 0
M  V30 53 H -5.148514 -2.821617 0.194055 0
M  V30 54 H -2.664189 -2.553715 -1.544979 0
M  V30 55 H -3.375260 -6.299018 0.157985 0
M  V30 56 H -3.441568 -5.140592 -1.277331 0
M  V30 57 H -1.575748 -7.031512 -1.273680 0
M  V30 58 H -0.973177 -5.275867 -1.396187 0
M  V30 59 H 0.147853 -5.719907 0.567742 0
M  V30 60 H -0.952416 -7.146151 0.980028 0
M  V30 61 H -1.178193 -4.694411 2.196782 0
M  V30 62 H -2.563121 -5.879694 1.957224 0
M  V30 63 H -2.275579 -0.402449 -1.101509 0
M  V30 64 H -2.693020 -0.511321 0.633798 0
M  V30 65 H -1.821020 2.519541 2.761127 0
M  V30 66 H 0.570186 3.289406 2.707146 0
M  V30 67 H 4.514393 3.000124 -3.871214 0
M  V30 68 H 6.036814 0.848082 -3.745944 0
M  V30 69 H 6.051493 -0.032685 -1.191990 0
M  V30 70 H 2.276912 -1.388649 4.272524 0
M  V30 END ATOM
M  V30 BEGIN BOND
M  V30 1 1 1 2
M  V30 2 2 2 3
M  V30 3 1 3 4
M  V30 4 1 4 5
M  V30 5 1 5 6
M  V30 6 2 6 7
M  V30 7 1 7 8
M  V30 8 1 8 9
M  V30 9 1 9 10
M  V30 10 2 10 11
M  V30 11 1 11 12
M  V30 12 2 12 13
M  V30 13 1 13 14
M  V30 14 1 14 15
M  V30 15 2 15 16
M  V30 16 1 15 17
M  V30 17 1 17 18
M  V30 18 1 18 19
M  V30 19 1 19 20
M  V30 20 1 20 21
M  V30 21 1 21 22
M  V30 22 2 22 23
M  V30 23 1 22 24
M  V30 24 1 24 25
M  V30 25 1 25 26
M  V30 26 1 26 27
M  V30 27 1 27 28
M  V30 28 1 21 29
M  V30 29 1 13 30
M  V30 30 2 30 31
M  V30 31 2 8 32
M  V30 32 1 32 33
M  V30 33 1 33 34
M  V30 34 2 34 35
M  V30 35 1 35 36
M  V30 36 2 36 37
M  V30 37 2 4 38
M  V30 38 1 38 39
M  V30 39 1 39 2
M  V30 40 1 37 6
M  V30 41 1 31 10
M  V30 42 1 37 33
M  V30 43 1 29 18
M  V30 44 1 28 24
M  V30 45 1 1 40
M  V30 46 1 1 41
M  V30 47 1 1 42
M  V30 48 1 3 43
M  V30 49 1 5 44
M  V30 50 1 11 45
M  V30 51 1 12 46
M  V30 52 1 14 47
M  V30 53 1 17 48
M  V30 54 1 17 49
M  V30 55 1 19 50
M  V30 56 1 19 51
M  V30 57 1 20 52
M  V30 58 1 20 53
M  V30 59 1 21 54
M  V30 60 1 25 55
M  V30 61 1 25 56
M  V30 62 1 26 57
M  V30 63 1 26 58
M  V30 64 1 27 59
M  V30 65 1 27 60
M  V30 66 1 28 61
M  V30 67 1 28 62
M  V30 68 1 29 63
M  V30 69 1 29 64
M  V30 70 1 30 65
M  V30 71 1 31 66
M  V30 72 1 34 67
M  V30 73 1 35 68
M  V30 74 1 36 69
M  V30 75 1 39 70
M  V30 END BOND
M  V30 END CTAB
M  END
>  <Dataset>  (12) 
ChEMBL_Kinases

>  <Ligand_Instance>  (12) 
nan

>  <PDB_ID>  (12) 
nan

>  <Standardized_SMILES>  (12) 
Cc1cc(Nc2nc(Sc3ccc(NC(=O)CN4CCC(C(=O)N5CCCC5)C4)cc3)nn3cccc23)n[nH]1

>  <Name>  (12) 
nan

>  <Pocket>  (12) 
nan

>  <ATP_Site>  (12) 
nan

>  <Peripheral>  (12) 
nan

>  <Num_H_Atoms_ProtBoundConf>  (12) 
nan

>  <Num_Resolved_Atoms>  (12) 
nan

>  <Num_Not_Resolved_Atoms>  (12) 
nan

$$$$
CHEMBL2163397
     RDKit          3D

  0  0  0  0  0  0  0  0  0  0999 V3000
M  V30 BEGIN CTAB
M  V30 COUNTS 70 74 0 0 0
M  V30 BEGIN ATOM
M  V30 1 C 5.829085 -0.341480 3.876964 0
M  V30 2 C 5.858455 -0.857988 2.478483 0
M  V30 3 C 5.485598 -0.295587 1.286909 0
M  V30 4 C 5.698292 -1.166345 0.240553 0
M  V30 5 N 5.461148 -1.004843 -1.135047 0
M  V30 6 C 4.928384 0.182876 -1.698828 0
M  V30 7 N 4.593155 1.287242 -1.012186 0
M  V30 8 C 4.089419 2.405186 -1.556647 0
M  V30 9 S 3.676954 3.829991 -0.525012 0
M  V30 10 C 1.958071 3.568366 -0.034333 0
M  V30 11 C 0.867233 4.024135 -0.749881 0
M  V30 12 C -0.407284 3.759439 -0.267978 0
M  V30 13 C -0.526488 3.049863 0.909308 0
M  V30 14 N -1.879223 2.837864 1.300637 0
M  V30 15 C -2.287331 1.612783 0.713918 0
M  V30 16 O -1.399606 1.015987 0.013571 0
M  V30 17 C -3.588241 0.895446 0.775213 0
M  V30 18 N -3.539334 -0.317898 0.023848 0
M  V30 19 C -2.702864 -1.348722 0.543166 0
M  V30 20 C -3.301463 -2.610199 -0.054093 0
M  V30 21 C -4.762182 -2.346524 -0.030622 0
M  V30 22 C -5.499586 -2.756502 1.167383 0
M  V30 23 O -6.050402 -1.803649 1.751618 0
M  V30 24 C -5.676949 -4.084035 1.752232 0
M  V30 25 C -6.208965 -5.107884 0.778364 0
M  V30 26 C -4.404974 -4.549435 2.408454 0
M  V30 27 C -6.710787 -3.981444 2.890009 0
M  V30 28 C -4.825259 -0.855045 -0.261522 0
M  V30 29 C 0.528468 2.572547 1.661828 0
M  V30 30 C 1.784837 2.862022 1.139715 0
M  V30 31 N 3.891154 2.459634 -2.892086 0
M  V30 32 N 4.197845 1.401893 -3.658323 0
M  V30 33 C 4.111610 1.170668 -4.982597 0
M  V30 34 C 4.567353 -0.110486 -5.276239 0
M  V30 35 C 4.936493 -0.649017 -4.060753 0
M  V30 36 C 4.704691 0.296429 -3.054630 0
M  V30 37 N 6.207534 -2.263955 0.832715 0
M  V30 38 N 6.301390 -2.086390 2.133129 0
M  V30 39 H 4.884340 -0.667003 4.377277 0
M  V30 40 H 5.850891 0.775815 3.879025 0
M  V30 41 H 6.643699 -0.787674 4.446951 0
M  V30 42 H 5.083428 0.702261 1.225534 0
M  V30 43 H 5.680669 -1.785039 -1.790025 0
M  V30 44 H 1.065563 4.569534 -1.658375 0
M  V30 45 H -1.229342 4.125498 -0.843788 0
M  V30 46 H -2.662799 3.279181 1.869143 0
M  V30 47 H -3.811330 0.726172 1.868352 0
M  V30 48 H -4.375258 1.536546 0.329463 0
M  V30 49 H -1.664496 -1.301266 0.123888 0
M  V30 50 H -2.662580 -1.433856 1.641183 0
M  V30 51 H -2.936650 -3.495059 0.451760 0
M  V30 52 H -2.979343 -2.620521 -1.141669 0
M  V30 53 H -5.235384 -2.814096 -0.952454 0
M  V30 54 H -5.527471 -5.118159 -0.114663 0
M  V30 55 H -7.262613 -4.983037 0.540453 0
M  V30 56 H -6.094677 -6.105631 1.254040 0
M  V30 57 H -4.618238 -5.046329 3.400510 0
M  V30 58 H -3.855125 -5.245760 1.743548 0
M  V30 59 H -3.708600 -3.730238 2.675391 0
M  V30 60 H -7.651451 -3.545292 2.538901 0
M  V30 61 H -6.924157 -5.040108 3.169572 0
M  V30 62 H -6.289532 -3.485536 3.773988 0
M  V30 63 H -5.207660 -0.597759 -1.263441 0
M  V30 64 H -5.567899 -0.421768 0.458954 0
M  V30 65 H 0.351370 2.025579 2.571955 0
M  V30 66 H 2.638758 2.490097 1.725338 0
M  V30 67 H 3.746817 1.851039 -5.751798 0
M  V30 68 H 4.659128 -0.660920 -6.192401 0
M  V30 69 H 5.345014 -1.647884 -3.890692 0
M  V30 70 H 6.690466 -2.878051 2.725345 0
M  V30 END ATOM
M  V30 BEGIN BOND
M  V30 1 1 1 2
M  V30 2 2 2 3
M  V30 3 1 3 4
M  V30 4 1 4 5
M  V30 5 1 5 6
M  V30 6 2 6 7
M  V30 7 1 7 8
M  V30 8 1 8 9
M  V30 9 1 9 10
M  V30 10 2 10 11
M  V30 11 1 11 12
M  V30 12 2 12 13
M  V30 13 1 13 14
M  V30 14 1 14 15
M  V30 15 2 15 16
M  V30 16 1 15 17
M  V30 17 1 17 18
M  V30 18 1 18 19
M  V30 19 1 19 20
M  V30 20 1 20 21
M  V30 21 1 21 22
M  V30 22 2 22 23
M  V30 23 1 22 24
M  V30 24 1 24 25
M  V30 25 1 24 26
M  V30 26 1 24 27
M  V30 27 1 21 28
M  V30 28 1 13 29
M  V30 29 2 29 30
M  V30 30 2 8 31
M  V30 31 1 31 32
M  V30 32 1 32 33
M  V30 33 2 33 34
M  V30 34 1 34 35
M  V30 35 2 35 36
M  V30 36 2 4 37
M  V30 37 1 37 38
M  V30 38 1 38 2
M  V30 39 1 36 6
M  V30 40 1 30 10
M  V30 41 1 36 32
M  V30 42 1 28 18
M  V30 43 1 1 39
M  V30 44 1 1 40
M  V30 45 1 1 41
M  V30 46 1 3 42
M  V30 47 1 5 43
M  V30 48 1 11 44
M  V30 49 1 12 45
M  V30 50 1 14 46
M  V30 51 1 17 47
M  V30 52 1 17 48
M  V30 53 1 19 49
M  V30 54 1 19 50
M  V30 55 1 20 51
M  V30 56 1 20 52
M  V30 57 1 21 53
M  V30 58 1 25 54
M  V30 59 1 25 55
M  V30 60 1 25 56
M  V30 61 1 26 57
M  V30 62 1 26 58
M  V30 63 1 26 59
M  V30 64 1 27 60
M  V30 65 1 27 61
M  V30 66 1 27 62
M  V30 67 1 28 63
M  V30 68 1 28 64
M  V30 69 1 29 65
M  V30 70 1 30 66
M  V30 71 1 33 67
M  V30 72 1 34 68
M  V30 73 1 35 69
M  V30 74 1 38 70
M  V30 END BOND
M  V30 END CTAB
M  END
>  <Dataset>  (13) 
ChEMBL_Kinases

>  <Ligand_Instance>  (13) 
nan

>  <PDB_ID>  (13) 
nan

>  <Standardized_SMILES>  (13) 
Cc1cc(Nc2nc(Sc3ccc(NC(=O)CN4CCC(C(=O)C(C)(C)C)C4)cc3)nn3cccc23)n[nH]1

>  <Name>  (13) 
nan

>  <Pocket>  (13) 
nan

>  <ATP_Site>  (13) 
nan

>  <Peripheral>  (13) 
nan

>  <Num_H_Atoms_ProtBoundConf>  (13) 
nan

>  <Num_Resolved_Atoms>  (13) 
nan

>  <Num_Not_Resolved_Atoms>  (13) 
nan

$$$$
CHEMBL2163396
     RDKit          3D

  0  0  0  0  0  0  0  0  0  0999 V3000
M  V30 BEGIN CTAB
M  V30 COUNTS 64 68 0 0 0
M  V30 BEGIN ATOM
M  V30 1 C 2.427411 -1.032649 4.791306 0
M  V30 2 C 3.309257 -0.571941 3.684414 0
M  V30 3 C 3.845097 0.696426 3.760756 0
M  V30 4 C 4.599431 0.868582 2.636270 0
M  V30 5 N 5.453960 1.782649 1.921961 0
M  V30 6 C 4.621153 2.622551 1.137641 0
M  V30 7 N 4.072374 2.126222 -0.009636 0
M  V30 8 C 3.279986 2.959146 -0.749139 0
M  V30 9 S 2.483554 2.379084 -2.267413 0
M  V30 10 C 0.896743 1.722397 -1.743260 0
M  V30 11 C -0.000952 1.192040 -2.662337 0
M  V30 12 C -1.216650 0.690573 -2.291044 0
M  V30 13 C -1.619227 0.684146 -0.975967 0
M  V30 14 N -2.807454 0.238938 -0.318374 0
M  V30 15 C -2.592752 -1.135822 0.008552 0
M  V30 16 O -1.433324 -1.475684 -0.402636 0
M  V30 17 C -3.632440 -1.955893 0.724281 0
M  V30 18 N -3.084011 -3.271441 0.860257 0
M  V30 19 C -3.897046 -4.226355 1.540371 0
M  V30 20 C -3.965512 -5.483377 0.709454 0
M  V30 21 C -3.631762 -4.983819 -0.668790 0 CFG=1
M  V30 22 N -4.835551 -4.538037 -1.340043 0
M  V30 23 S -5.042085 -5.304802 -2.872488 0
M  V30 24 C -3.739713 -4.964738 -4.005920 0
M  V30 25 O -5.161035 -6.788438 -2.689675 0
M  V30 26 O -6.346025 -4.824150 -3.490085 0
M  V30 27 C -2.713079 -3.842174 -0.412272 0
M  V30 28 C -0.742231 1.210309 -0.016884 0
M  V30 29 C 0.477319 1.707835 -0.429219 0
M  V30 30 N 3.047686 4.225649 -0.362564 0
M  V30 31 N 3.554631 4.762940 0.743375 0
M  V30 32 C 3.483592 5.973999 1.348981 0
M  V30 33 C 4.253214 5.879653 2.491329 0
M  V30 34 C 4.800660 4.609094 2.591857 0
M  V30 35 C 4.330189 3.932175 1.458916 0
M  V30 36 N 4.516726 -0.268742 1.906305 0
M  V30 37 N 3.734934 -1.154899 2.531485 0
M  V30 38 H 1.814411 -1.894741 4.392393 0
M  V30 39 H 3.059929 -1.428259 5.597088 0
M  V30 40 H 1.746251 -0.224133 5.108928 0
M  V30 41 H 3.857811 1.565858 4.404731 0
M  V30 42 H 6.471835 1.709203 2.067292 0
M  V30 43 H 0.223762 1.150066 -3.706242 0
M  V30 44 H -1.979048 0.261902 -2.920461 0
M  V30 45 H -3.707466 0.704723 -0.063972 0
M  V30 46 H -4.623265 -1.881584 0.283702 0
M  V30 47 H -3.633803 -1.516899 1.766841 0
M  V30 48 H -4.911109 -3.829272 1.748509 0
M  V30 49 H -3.377016 -4.457411 2.520910 0
M  V30 50 H -4.958751 -5.975868 0.770061 0
M  V30 51 H -3.148616 -6.172711 1.055034 0
M  V30 52 H -3.076918 -5.736035 -1.269734 0
M  V30 53 H -4.867283 -3.499051 -1.423493 0
M  V30 54 H -2.904721 -4.394787 -3.546181 0
M  V30 55 H -3.297409 -5.892001 -4.432289 0
M  V30 56 H -4.059895 -4.340187 -4.872577 0
M  V30 57 H -1.670090 -4.255374 -0.298764 0
M  V30 58 H -2.803841 -3.140274 -1.266227 0
M  V30 59 H -0.903668 1.283411 1.072302 0
M  V30 60 H 1.191026 2.123137 0.273624 0
M  V30 61 H 2.899973 6.757918 0.907120 0
M  V30 62 H 4.286481 6.804494 3.090794 0
M  V30 63 H 5.429846 4.374646 3.431108 0
M  V30 64 H 3.424970 -2.123597 2.303455 0
M  V30 END ATOM
M  V30 BEGIN BOND
M  V30 1 1 1 2
M  V30 2 2 2 3
M  V30 3 1 3 4
M  V30 4 1 4 5
M  V30 5 1 5 6
M  V30 6 2 6 7
M  V30 7 1 7 8
M  V30 8 1 8 9
M  V30 9 1 9 10
M  V30 10 2 10 11
M  V30 11 1 11 12
M  V30 12 2 12 13
M  V30 13 1 13 14
M  V30 14 1 14 15
M  V30 15 2 15 16
M  V30 16 1 15 17
M  V30 17 1 17 18
M  V30 18 1 18 19
M  V30 19 1 19 20
M  V30 20 1 20 21
M  V30 21 1 21 22
M  V30 22 1 22 23
M  V30 23 1 23 24
M  V30 24 2 23 25
M  V30 25 2 23 26
M  V30 26 1 21 27
M  V30 27 1 13 28
M  V30 28 2 28 29
M  V30 29 2 8 30
M  V30 30 1 30 31
M  V30 31 1 31 32
M  V30 32 2 32 33
M  V30 33 1 33 34
M  V30 34 2 34 35
M  V30 35 2 4 36
M  V30 36 1 36 37
M  V30 37 1 37 2
M  V30 38 1 35 6
M  V30 39 1 29 10
M  V30 40 1 35 31
M  V30 41 1 27 18
M  V30 42 1 1 38
M  V30 43 1 1 39
M  V30 44 1 1 40
M  V30 45 1 3 41
M  V30 46 1 5 42
M  V30 47 1 11 43
M  V30 48 1 12 44
M  V30 49 1 14 45
M  V30 50 1 17 46
M  V30 51 1 17 47
M  V30 52 1 19 48
M  V30 53 1 19 49
M  V30 54 1 20 50
M  V30 55 1 20 51
M  V30 56 1 21 52 CFG=3
M  V30 57 1 22 53
M  V30 58 1 24 54
M  V30 59 1 24 55
M  V30 60 1 24 56
M  V30 61 1 27 57
M  V30 62 1 27 58
M  V30 63 1 28 59
M  V30 64 1 29 60
M  V30 65 1 32 61
M  V30 66 1 33 62
M  V30 67 1 34 63
M  V30 68 1 37 64
M  V30 END BOND
M  V30 END CTAB
M  END
>  <Dataset>  (14) 
ChEMBL_Kinases

>  <Ligand_Instance>  (14) 
nan

>  <PDB_ID>  (14) 
nan

>  <Standardized_SMILES>  (14) 
Cc1cc(Nc2nc(Sc3ccc(NC(=O)CN4CC[C@@H](NS(C)(=O)=O)C4)cc3)nn3cccc23)n[nH]1

>  <Name>  (14) 
nan

>  <Pocket>  (14) 
nan

>  <ATP_Site>  (14) 
nan

>  <Peripheral>  (14) 
nan

>  <Num_H_Atoms_ProtBoundConf>  (14) 
nan

>  <Num_Resolved_Atoms>  (14) 
nan

>  <Num_Not_Resolved_Atoms>  (14) 
nan

$$$$
CHEMBL2152388
     RDKit          3D

  0  0  0  0  0  0  0  0  0  0999 V3000
M  V30 BEGIN CTAB
M  V30 COUNTS 63 66 0 0 0
M  V30 BEGIN ATOM
M  V30 1 C 0.021303 2.756514 3.605987 0
M  V30 2 O 0.684850 1.642325 3.143614 0
M  V30 3 C 0.475326 0.331806 3.427318 0
M  V30 4 O -0.465184 0.497549 4.200451 0
M  V30 5 C 0.989775 -0.971544 3.107462 0
M  V30 6 C 2.030640 -1.078221 2.223840 0
M  V30 7 C 2.699373 -0.026694 1.435713 0
M  V30 8 C 1.857146 0.316348 0.269503 0
M  V30 9 C 1.628657 -0.622103 -0.716340 0
M  V30 10 C 0.882334 -0.407517 -1.862678 0
M  V30 11 C 0.301699 0.822828 -2.081774 0
M  V30 12 C -0.511681 1.190401 -3.230130 0
M  V30 13 O -0.995283 2.354707 -3.419165 0
M  V30 14 N -0.861803 0.289655 -4.276036 0
M  V30 15 C -1.670958 0.668453 -5.409393 0
M  V30 16 C -3.029220 1.157715 -4.968853 0
M  V30 17 C -0.950915 1.632352 -6.304264 0
M  V30 18 C -1.930528 -0.578438 -6.258152 0
M  V30 19 O -2.708880 -0.265212 -7.366372 0
M  V30 20 C 0.492471 1.802208 -1.135560 0
M  V30 21 C 1.246351 1.513046 -0.024736 0
M  V30 22 C 2.461843 -2.405989 2.065594 0
M  V30 23 O 3.429441 -2.714996 1.284013 0
M  V30 24 C 1.934759 -3.510766 2.697164 0
M  V30 25 C 2.389267 -4.782974 2.509376 0
M  V30 26 C 1.841843 -5.867961 3.156016 0
M  V30 27 C 0.804266 -5.549762 4.000171 0
M  V30 28 N 0.325217 -4.316137 4.215305 0
M  V30 29 C 0.885363 -3.257188 3.561620 0
M  V30 30 N 0.435760 -2.008605 3.750478 0
M  V30 31 C -0.651160 -1.879967 4.655585 0
M  V30 32 C -1.906934 -1.833328 4.045715 0
M  V30 33 C -3.102362 -1.716710 4.699521 0
M  V30 34 C -2.992836 -1.643099 6.079492 0
M  V30 35 C -1.796131 -1.681803 6.762171 0
M  V30 36 C -0.620013 -1.801478 6.030879 0
M  V30 37 H -1.002703 2.489750 3.926887 0
M  V30 38 H -0.101781 3.542500 2.820716 0
M  V30 39 H 0.528434 3.197668 4.515163 0
M  V30 40 H 3.665059 -0.448094 1.039860 0
M  V30 41 H 2.898765 0.865243 2.073892 0
M  V30 42 H 2.007082 -1.632304 -0.709645 0
M  V30 43 H 0.705144 -1.143420 -2.633829 0
M  V30 44 H -0.501558 -0.694296 -4.193769 0
M  V30 45 H -3.768356 0.912144 -5.755990 0
M  V30 46 H -3.278913 0.584622 -4.028367 0
M  V30 47 H -2.986479 2.233678 -4.699859 0
M  V30 48 H -1.068523 2.684863 -5.989809 0
M  V30 49 H -1.393090 1.577148 -7.343478 0
M  V30 50 H 0.137231 1.389660 -6.317506 0
M  V30 51 H -2.428235 -1.353116 -5.626362 0
M  V30 52 H -0.981222 -1.016824 -6.616202 0
M  V30 53 H -3.652646 -0.549859 -7.228967 0
M  V30 54 H 0.057964 2.788974 -1.257051 0
M  V30 55 H 1.381247 2.326414 0.681485 0
M  V30 56 H 3.217446 -4.953462 1.821851 0
M  V30 57 H 2.190651 -6.867419 3.015435 0
M  V30 58 H 0.300803 -6.326713 4.559215 0
M  V30 59 H -2.010523 -1.890304 2.947992 0
M  V30 60 H -4.052460 -1.684330 4.187509 0
M  V30 61 H -3.876954 -1.548439 6.692696 0
M  V30 62 H -1.646806 -1.629625 7.811243 0
M  V30 63 H 0.381163 -1.842443 6.453650 0
M  V30 END ATOM
M  V30 BEGIN BOND
M  V30 1 1 1 2
M  V30 2 1 2 3
M  V30 3 2 3 4
M  V30 4 1 3 5
M  V30 5 2 5 6
M  V30 6 1 6 7
M  V30 7 1 7 8
M  V30 8 2 8 9
M  V30 9 1 9 10
M  V30 10 2 10 11
M  V30 11 1 11 12
M  V30 12 2 12 13
M  V30 13 1 12 14
M  V30 14 1 14 15
M  V30 15 1 15 16
M  V30 16 1 15 17
M  V30 17 1 15 18
M  V30 18 1 18 19
M  V30 19 1 11 20
M  V30 20 2 20 21
M  V30 21 1 6 22
M  V30 22 2 22 23
M  V30 23 1 22 24
M  V30 24 2 24 25
M  V30 25 1 25 26
M  V30 26 2 26 27
M  V30 27 1 27 28
M  V30 28 2 28 29
M  V30 29 1 29 30
M  V30 30 1 30 31
M  V30 31 2 31 32
M  V30 32 1 32 33
M  V30 33 2 33 34
M  V30 34 1 34 35
M  V30 35 2 35 36
M  V30 36 1 30 5
M  V30 37 1 36 31
M  V30 38 1 21 8
M  V30 39 1 29 24
M  V30 40 1 1 37
M  V30 41 1 1 38
M  V30 42 1 1 39
M  V30 43 1 7 40
M  V30 44 1 7 41
M  V30 45 1 9 42
M  V30 46 1 10 43
M  V30 47 1 14 44
M  V30 48 1 16 45
M  V30 49 1 16 46
M  V30 50 1 16 47
M  V30 51 1 17 48
M  V30 52 1 17 49
M  V30 53 1 17 50
M  V30 54 1 18 51
M  V30 55 1 18 52
M  V30 56 1 19 53
M  V30 57 1 20 54
M  V30 58 1 21 55
M  V30 59 1 25 56
M  V30 60 1 26 57
M  V30 61 1 27 58
M  V30 62 1 32 59
M  V30 63 1 33 60
M  V30 64 1 34 61
M  V30 65 1 35 62
M  V30 66 1 36 63
M  V30 END BOND
M  V30 END CTAB
M  END
>  <Dataset>  (15) 
ChEMBL_Kinases

>  <Ligand_Instance>  (15) 
nan

>  <PDB_ID>  (15) 
nan

>  <Standardized_SMILES>  (15) 
COC(=O)c1c(Cc2ccc(C(=O)NC(C)(C)CO)cc2)c(=O)c2cccnc2n1-c1ccccc1

>  <Name>  (15) 
nan

>  <Pocket>  (15) 
nan

>  <ATP_Site>  (15) 
nan

>  <Peripheral>  (15) 
nan

>  <Num_H_Atoms_ProtBoundConf>  (15) 
nan

>  <Num_Resolved_Atoms>  (15) 
nan

>  <Num_Not_Resolved_Atoms>  (15) 
nan

$$$$
CHEMBL215899
     RDKit          3D

  0  0  0  0  0  0  0  0  0  0999 V3000
M  V30 BEGIN CTAB
M  V30 COUNTS 40 44 0 0 0
M  V30 BEGIN ATOM
M  V30 1 C 1.916133 -2.615912 3.659542 0
M  V30 2 C 0.738482 -2.714592 2.703666 0
M  V30 3 C 1.036942 -2.960670 1.263873 0
M  V30 4 N 1.149082 -4.173390 0.652276 0
M  V30 5 N 1.420082 -4.014180 -0.630919 0
M  V30 6 C 1.489172 -2.695420 -0.877486 0
M  V30 7 C 1.747110 -2.043640 -2.067303 0
M  V30 8 C 1.759373 -0.662597 -2.038765 0
M  V30 9 C 1.523445 0.030892 -0.869188 0
M  V30 10 C 1.524431 1.502149 -0.781185 0
M  V30 11 O 2.665133 2.088822 -1.092867 0
M  V30 12 C 2.529898 3.397045 -0.973220 0
M  V30 13 N 1.255706 3.658727 -0.570021 0
M  V30 14 C 0.609166 2.482825 -0.443985 0
M  V30 15 C -0.717577 2.008269 -0.068989 0
M  V30 16 C -1.215615 2.266687 1.200210 0
M  V30 17 C -2.468258 1.822828 1.565174 0
M  V30 18 F -2.944744 2.078971 2.802469 0
M  V30 19 C -3.221321 1.108519 0.627981 0
M  V30 20 F -4.452743 0.698556 1.054995 0
M  V30 21 C -2.757441 0.828653 -0.655416 0
M  V30 22 C -1.496425 1.299173 -0.961575 0
M  V30 23 F -1.040171 1.024324 -2.222819 0
M  V30 24 C 1.270695 -0.708559 0.290340 0
M  V30 25 N 1.253567 -2.058915 0.286963 0
M  V30 26 C -0.487054 -3.441276 3.190321 0
M  V30 27 C -0.501970 -1.963900 3.093153 0
M  V30 28 H 2.441086 -3.576026 3.769460 0
M  V30 29 H 2.561990 -1.766935 3.423126 0
M  V30 30 H 1.471363 -2.417918 4.671631 0
M  V30 31 H 1.933274 -2.574346 -2.989146 0
M  V30 32 H 1.950835 -0.056776 -2.914289 0
M  V30 33 H 3.192848 4.237992 -1.124351 0
M  V30 34 H -0.562134 2.832016 1.872536 0
M  V30 35 H -3.390240 0.272356 -1.329392 0
M  V30 36 H 1.080973 -0.190524 1.228375 0
M  V30 37 H -1.133476 -3.975201 2.464948 0
M  V30 38 H -0.442637 -3.952855 4.175429 0
M  V30 39 H -0.466187 -1.440572 4.074039 0
M  V30 40 H -1.019316 -1.483044 2.246239 0
M  V30 END ATOM
M  V30 BEGIN BOND
M  V30 1 1 1 2
M  V30 2 1 2 3
M  V30 3 2 3 4
M  V30 4 1 4 5
M  V30 5 2 5 6
M  V30 6 1 6 7
M  V30 7 2 7 8
M  V30 8 1 8 9
M  V30 9 1 9 10
M  V30 10 1 10 11
M  V30 11 1 11 12
M  V30 12 2 12 13
M  V30 13 1 13 14
M  V30 14 1 14 15
M  V30 15 2 15 16
M  V30 16 1 16 17
M  V30 17 1 17 18
M  V30 18 2 17 19
M  V30 19 1 19 20
M  V30 20 1 19 21
M  V30 21 2 21 22
M  V30 22 1 22 23
M  V30 23 2 9 24
M  V30 24 1 24 25
M  V30 25 1 2 26
M  V30 26 1 26 27
M  V30 27 1 27 2
M  V30 28 1 25 3
M  V30 29 1 25 6
M  V30 30 2 14 10
M  V30 31 1 22 15
M  V30 32 1 1 28
M  V30 33 1 1 29
M  V30 34 1 1 30
M  V30 35 1 7 31
M  V30 36 1 8 32
M  V30 37 1 12 33
M  V30 38 1 16 34
M  V30 39 1 21 35
M  V30 40 1 24 36
M  V30 41 1 26 37
M  V30 42 1 26 38
M  V30 43 1 27 39
M  V30 44 1 27 40
M  V30 END BOND
M  V30 END CTAB
M  END
>  <Dataset>  (16) 
ChEMBL_Kinases

>  <Ligand_Instance>  (16) 
nan

>  <PDB_ID>  (16) 
nan

>  <Standardized_SMILES>  (16) 
CC1(c2nnc3ccc(-c4ocnc4-c4cc(F)c(F)cc4F)cn23)CC1

>  <Name>  (16) 
nan

>  <Pocket>  (16) 
nan

>  <ATP_Site>  (16) 
nan

>  <Peripheral>  (16) 
nan

>  <Num_H_Atoms_ProtBoundConf>  (16) 
nan

>  <Num_Resolved_Atoms>  (16) 
nan

>  <Num_Not_Resolved_Atoms>  (16) 
nan

$$$$
CHEMBL215900
     RDKit          3D

  0  0  0  0  0  0  0  0  0  0999 V3000
M  V30 BEGIN CTAB
M  V30 COUNTS 49 53 0 0 0
M  V30 BEGIN ATOM
M  V30 1 C -0.016382 1.914143 4.667256 0
M  V30 2 C 1.320397 1.227605 4.678210 0
M  V30 3 C 1.460021 0.332667 3.466420 0
M  V30 4 C 1.351024 1.106225 2.176317 0
M  V30 5 N 1.493144 0.191559 1.054199 0
M  V30 6 C 2.636962 -0.180872 0.408341 0
M  V30 7 C 3.918079 0.248385 0.700477 0
M  V30 8 C 4.996720 -0.211241 -0.038669 0
M  V30 9 C 4.738958 -1.114264 -1.077298 0
M  V30 10 O 5.811396 -1.569062 -1.809574 0
M  V30 11 C 3.435374 -1.490285 -1.301650 0
M  V30 12 C 2.351515 -1.066091 -0.604105 0
M  V30 13 C 1.002025 -1.225697 -0.560817 0
M  V30 14 C 0.182554 -1.989325 -1.334469 0
M  V30 15 C -1.171010 -1.993227 -1.103656 0
M  V30 16 C -1.729001 -1.223829 -0.083424 0
M  V30 17 C -3.143638 -1.203639 0.186912 0
M  V30 18 C -3.936189 -0.272522 -0.455356 0
M  V30 19 C -5.301908 -0.108793 -0.318836 0
M  V30 20 C -5.908377 -0.992947 0.567484 0
M  V30 21 C -5.192402 -1.954157 1.251295 0
M  V30 22 C -3.830165 -2.040752 1.048924 0
M  V30 23 Cl -2.861764 -3.249208 1.894784 0
M  V30 24 C -0.882906 -0.453934 0.693111 0
M  V30 25 C 0.477158 -0.456675 0.453193 0
M  V30 26 C -1.899345 -2.865062 -2.023006 0
M  V30 27 O -3.140510 -3.079893 -2.064826 0
M  V30 28 N -0.871999 -3.406328 -2.851178 0
M  V30 29 C 0.379376 -2.884110 -2.442313 0
M  V30 30 O 1.366232 -3.271157 -3.078403 0
M  V30 31 H -0.424911 1.946772 5.680150 0
M  V30 32 H -0.677315 1.366794 3.950139 0
M  V30 33 H 0.135236 2.958281 4.308095 0
M  V30 34 H 2.176892 1.921926 4.781121 0
M  V30 35 H 1.357541 0.570599 5.571781 0
M  V30 36 H 0.660493 -0.427400 3.501116 0
M  V30 37 H 2.419994 -0.196888 3.469173 0
M  V30 38 H 0.363537 1.596569 2.062572 0
M  V30 39 H 2.159865 1.858754 2.092454 0
M  V30 40 H 4.113574 0.937197 1.492926 0
M  V30 41 H 5.974945 0.133248 0.204462 0
M  V30 42 H 6.350480 -0.923372 -2.371679 0
M  V30 43 H 3.330798 -2.174854 -2.104828 0
M  V30 44 H -3.447995 0.421443 -1.153497 0
M  V30 45 H -5.820994 0.656310 -0.873465 0
M  V30 46 H -6.971543 -0.909699 0.711914 0
M  V30 47 H -5.694738 -2.634382 1.940459 0
M  V30 48 H -1.305403 0.160802 1.504190 0
M  V30 49 H -1.142893 -4.087066 -3.620831 0
M  V30 END ATOM
M  V30 BEGIN BOND
M  V30 1 1 1 2
M  V30 2 1 2 3
M  V30 3 1 3 4
M  V30 4 1 4 5
M  V30 5 1 5 6
M  V30 6 2 6 7
M  V30 7 1 7 8
M  V30 8 2 8 9
M  V30 9 1 9 10
M  V30 10 1 9 11
M  V30 11 2 11 12
M  V30 12 1 12 13
M  V30 13 2 13 14
M  V30 14 1 14 15
M  V30 15 2 15 16
M  V30 16 1 16 17
M  V30 17 2 17 18
M  V30 18 1 18 19
M  V30 19 2 19 20
M  V30 20 1 20 21
M  V30 21 2 21 22
M  V30 22 1 22 23
M  V30 23 1 16 24
M  V30 24 2 24 25
M  V30 25 1 15 26
M  V30 26 2 26 27
M  V30 27 1 26 28
M  V30 28 1 28 29
M  V30 29 2 29 30
M  V30 30 1 25 5
M  V30 31 1 12 6
M  V30 32 1 25 13
M  V30 33 1 29 14
M  V30 34 1 22 17
M  V30 35 1 1 31
M  V30 36 1 1 32
M  V30 37 1 1 33
M  V30 38 1 2 34
M  V30 39 1 2 35
M  V30 40 1 3 36
M  V30 41 1 3 37
M  V30 42 1 4 38
M  V30 43 1 4 39
M  V30 44 1 7 40
M  V30 45 1 8 41
M  V30 46 1 10 42
M  V30 47 1 11 43
M  V30 48 1 18 44
M  V30 49 1 19 45
M  V30 50 1 20 46
M  V30 51 1 21 47
M  V30 52 1 24 48
M  V30 53 1 28 49
M  V30 END BOND
M  V30 END CTAB
M  END
>  <Dataset>  (17) 
ChEMBL_Kinases

>  <Ligand_Instance>  (17) 
nan

>  <PDB_ID>  (17) 
nan

>  <Standardized_SMILES>  (17) 
CCCCn1c2ccc(O)cc2c2c3c(c(-c4ccccc4Cl)cc21)C(=O)NC3=O

>  <Name>  (17) 
nan

>  <Pocket>  (17) 
nan

>  <ATP_Site>  (17) 
nan

>  <Peripheral>  (17) 
nan

>  <Num_H_Atoms_ProtBoundConf>  (17) 
nan

>  <Num_Resolved_Atoms>  (17) 
nan

>  <Num_Not_Resolved_Atoms>  (17) 
nan

$$$$
CHEMBL215952
     RDKit          3D

  0  0  0  0  0  0  0  0  0  0999 V3000
M  V30 BEGIN CTAB
M  V30 COUNTS 31 33 0 0 0
M  V30 BEGIN ATOM
M  V30 1 C -2.366462 -2.578219 0.060911 0
M  V30 2 C -1.208317 -3.252897 0.703289 0
M  V30 3 C -1.214623 -4.557158 1.149613 0
M  V30 4 C -0.079072 -5.081727 1.732369 0
M  V30 5 C 1.068747 -4.345566 1.885885 0
M  V30 6 C 1.061750 -3.023224 1.428629 0
M  V30 7 C -0.079613 -2.472815 0.834926 0
M  V30 8 C 0.108826 -1.089864 0.426048 0
M  V30 9 C -0.286593 -0.564275 -0.787895 0
M  V30 10 C -0.051946 0.766799 -1.060734 0
M  V30 11 C 0.565576 1.632192 -0.184276 0
M  V30 12 N 0.776310 2.925647 -0.488611 0
M  V30 13 C 1.391985 3.689791 0.444829 0
M  V30 14 N 1.634753 5.070452 0.160367 0
M  V30 15 N 1.791092 3.210940 1.638882 0
M  V30 16 C 1.596137 1.922704 1.975824 0
M  V30 17 C 0.970148 1.127862 1.037564 0
M  V30 18 C 0.731659 -0.205811 1.303265 0
M  V30 19 H -2.413196 -1.499201 0.305325 0
M  V30 20 H -3.269137 -3.027726 0.570114 0
M  V30 21 H -2.489893 -2.811644 -1.005667 0
M  V30 22 H -2.154202 -5.113607 1.008074 0
M  V30 23 H -0.172117 -6.111142 2.053435 0
M  V30 24 H 1.945286 -4.783373 2.347026 0
M  V30 25 H 2.002515 -2.496981 1.580985 0
M  V30 26 H -0.766748 -1.211103 -1.485151 0
M  V30 27 H -0.352306 1.212176 -2.010737 0
M  V30 28 H 2.267573 5.637205 0.744100 0
M  V30 29 H 1.172456 5.550247 -0.656718 0
M  V30 30 H 1.919118 1.560610 2.926738 0
M  V30 31 H 1.054931 -0.604605 2.277057 0
M  V30 END ATOM
M  V30 BEGIN BOND
M  V30 1 1 1 2
M  V30 2 2 2 3
M  V30 3 1 3 4
M  V30 4 2 4 5
M  V30 5 1 5 6
M  V30 6 2 6 7
M  V30 7 1 7 8
M  V30 8 2 8 9
M  V30 9 1 9 10
M  V30 10 2 10 11
M  V30 11 1 11 12
M  V30 12 2 12 13
M  V30 13 1 13 14
M  V30 14 1 13 15
M  V30 15 2 15 16
M  V30 16 1 16 17
M  V30 17 2 17 18
M  V30 18 1 7 2
M  V30 19 1 18 8
M  V30 20 1 17 11
M  V30 21 1 1 19
M  V30 22 1 1 20
M  V30 23 1 1 21
M  V30 24 1 3 22
M  V30 25 1 4 23
M  V30 26 1 5 24
M  V30 27 1 6 25
M  V30 28 1 9 26
M  V30 29 1 10 27
M  V30 30 1 14 28
M  V30 31 1 14 29
M  V30 32 1 16 30
M  V30 33 1 18 31
M  V30 END BOND
M  V30 END CTAB
M  END
>  <Dataset>  (18) 
ChEMBL_Kinases

>  <Ligand_Instance>  (18) 
nan

>  <PDB_ID>  (18) 
nan

>  <Standardized_SMILES>  (18) 
Cc1ccccc1-c1ccc2nc(N)ncc2c1

>  <Name>  (18) 
nan

>  <Pocket>  (18) 
nan

>  <ATP_Site>  (18) 
nan

>  <Peripheral>  (18) 
nan

>  <Num_H_Atoms_ProtBoundConf>  (18) 
nan

>  <Num_Resolved_Atoms>  (18) 
nan

>  <Num_Not_Resolved_Atoms>  (18) 
nan

$$$$
CHEMBL215969
     RDKit          3D

  0  0  0  0  0  0  0  0  0  0999 V3000
M  V30 BEGIN CTAB
M  V30 COUNTS 54 57 0 0 0
M  V30 BEGIN ATOM
M  V30 1 C 5.177837 -6.243017 5.327555 0
M  V30 2 N 4.027251 -5.403148 5.065909 0
M  V30 3 C 3.546170 -4.475039 4.102933 0
M  V30 4 N 3.758254 -3.144812 4.138058 0
M  V30 5 C 3.259680 -2.327230 3.172141 0
M  V30 6 C 2.525905 -2.934901 2.156053 0
M  V30 7 C 1.978638 -2.166112 1.124400 0
M  V30 8 C 1.239522 -2.700742 0.083358 0
M  V30 9 C 0.684822 -1.871446 -0.972469 0
M  V30 10 C 0.063386 -0.724031 -0.583489 0
M  V30 11 C -0.499884 0.137312 -1.508476 0
M  V30 12 C -1.194169 1.394916 -1.244708 0
M  V30 13 O -1.696352 2.155004 -2.131765 0
M  V30 14 N -1.390957 1.921230 0.054497 0
M  V30 15 C -2.107357 3.170444 -0.021563 0
M  V30 16 C -1.542207 4.403209 -0.138880 0
M  V30 17 C -2.374087 5.506333 -0.199459 0
M  V30 18 C -3.735027 5.293897 -0.137299 0
M  V30 19 C -4.343032 4.068090 -0.019114 0
M  V30 20 C -5.822026 3.935614 0.040556 0
M  V30 21 F -6.371275 5.210844 -0.043192 0
M  V30 22 F -6.246879 3.369118 1.229751 0
M  V30 23 F -6.305727 3.223901 -1.032299 0
M  V30 24 C -3.484362 2.966345 0.040470 0
M  V30 25 C -4.147900 1.640039 0.168597 0
M  V30 26 C -0.415465 -0.200270 -2.860715 0
M  V30 27 C 0.205942 -1.352961 -3.288035 0
M  V30 28 C 0.756057 -2.184249 -2.313631 0
M  V30 29 C 1.436969 -3.438851 -2.728295 0
M  V30 30 C 1.076948 -4.070403 0.134805 0
M  V30 31 C 1.581487 -4.899310 1.112820 0
M  V30 32 C 2.311308 -4.314942 2.128122 0
M  V30 33 N 2.836620 -5.061173 3.120057 0
M  V30 34 H 5.657390 -5.996642 6.286650 0
M  V30 35 H 4.856530 -7.322454 5.410356 0
M  V30 36 H 5.945781 -6.179277 4.515158 0
M  V30 37 H 3.326155 -5.521602 5.839502 0
M  V30 38 H 3.424340 -1.272496 3.194534 0
M  V30 39 H 2.164285 -1.108570 1.179103 0
M  V30 40 H -0.052290 -0.379081 0.428213 0
M  V30 41 H -1.019923 1.385212 0.894355 0
M  V30 42 H -0.462427 4.445928 -0.178195 0
M  V30 43 H -1.930955 6.489607 -0.292811 0
M  V30 44 H -4.404607 6.159913 -0.184267 0
M  V30 45 H -3.336473 0.871383 0.330457 0
M  V30 46 H -4.651045 1.386195 -0.785862 0
M  V30 47 H -4.803094 1.593999 1.053602 0
M  V30 48 H -0.821766 0.401289 -3.668622 0
M  V30 49 H 0.301851 -1.664712 -4.311555 0
M  V30 50 H 1.961624 -3.168695 -3.691762 0
M  V30 51 H 0.746252 -4.244711 -3.002061 0
M  V30 52 H 2.260933 -3.741343 -2.053888 0
M  V30 53 H 0.513065 -4.575013 -0.637278 0
M  V30 54 H 1.425244 -5.966043 1.106373 0
M  V30 END ATOM
M  V30 BEGIN BOND
M  V30 1 1 1 2
M  V30 2 1 2 3
M  V30 3 2 3 4
M  V30 4 1 4 5
M  V30 5 2 5 6
M  V30 6 1 6 7
M  V30 7 2 7 8
M  V30 8 1 8 9
M  V30 9 2 9 10
M  V30 10 1 10 11
M  V30 11 1 11 12
M  V30 12 2 12 13
M  V30 13 1 12 14
M  V30 14 1 14 15
M  V30 15 2 15 16
M  V30 16 1 16 17
M  V30 17 2 17 18
M  V30 18 1 18 19
M  V30 19 1 19 20
M  V30 20 1 20 21
M  V30 21 1 20 22
M  V30 22 1 20 23
M  V30 23 2 19 24
M  V30 24 1 24 25
M  V30 25 2 11 26
M  V30 26 1 26 27
M  V30 27 2 27 28
M  V30 28 1 28 29
M  V30 29 1 8 30
M  V30 30 2 30 31
M  V30 31 1 31 32
M  V30 32 2 32 33
M  V30 33 1 33 3
M  V30 34 1 32 6
M  V30 35 1 28 9
M  V30 36 1 24 15
M  V30 37 1 1 34
M  V30 38 1 1 35
M  V30 39 1 1 36
M  V30 40 1 2 37
M  V30 41 1 5 38
M  V30 42 1 7 39
M  V30 43 1 10 40
M  V30 44 1 14 41
M  V30 45 1 16 42
M  V30 46 1 17 43
M  V30 47 1 18 44
M  V30 48 1 25 45
M  V30 49 1 25 46
M  V30 50 1 25 47
M  V30 51 1 26 48
M  V30 52 1 27 49
M  V30 53 1 29 50
M  V30 54 1 29 51
M  V30 55 1 29 52
M  V30 56 1 30 53
M  V30 57 1 31 54
M  V30 END BOND
M  V30 END CTAB
M  END
>  <Dataset>  (19) 
ChEMBL_Kinases

>  <Ligand_Instance>  (19) 
nan

>  <PDB_ID>  (19) 
nan

>  <Standardized_SMILES>  (19) 
CNc1ncc2cc(-c3cc(C(=O)Nc4cccc(C(F)(F)F)c4C)ccc3C)ccc2n1

>  <Name>  (19) 
nan

>  <Pocket>  (19) 
nan

>  <ATP_Site>  (19) 
nan

>  <Peripheral>  (19) 
nan

>  <Num_H_Atoms_ProtBoundConf>  (19) 
nan

>  <Num_Resolved_Atoms>  (19) 
nan

>  <Num_Not_Resolved_Atoms>  (19) 
nan

$$$$
CHEMBL2159845
     RDKit          3D

  0  0  0  0  0  0  0  0  0  0999 V3000
M  V30 BEGIN CTAB
M  V30 COUNTS 22 23 0 0 0
M  V30 BEGIN ATOM
M  V30 1 O 1.051211 -4.186267 4.368424 0
M  V30 2 C 1.576712 -3.897526 3.258452 0
M  V30 3 O 2.133809 -5.027883 2.680964 0
M  V30 4 C 1.698877 -2.629664 2.499522 0
M  V30 5 S 0.932243 -1.244507 3.365361 0
M  V30 6 C 1.145564 0.225073 2.350745 0
M  V30 7 N 2.136725 1.160048 2.309750 0
M  V30 8 N 1.802809 2.046899 1.370504 0
M  V30 9 C 0.641491 1.692582 0.830796 0
M  V30 10 C -0.085660 2.389511 -0.235751 0
M  V30 11 C -1.244651 2.092412 -0.819246 0
M  V30 12 C -1.752661 2.884807 -1.806612 0
M  V30 13 C -0.995337 3.990459 -2.148138 0
M  V30 14 S 0.489569 3.840535 -0.979834 0
M  V30 15 N 0.237267 0.566607 1.438032 0
M  V30 16 H 1.730023 -5.971832 2.772573 0
M  V30 17 H 2.777552 -2.357445 2.351847 0
M  V30 18 H 1.159039 -2.760787 1.540537 0
M  V30 19 H -1.776956 1.187754 -0.478081 0
M  V30 20 H -2.704576 2.676846 -2.314460 0
M  V30 21 H -1.397465 4.738962 -3.025868 0
M  V30 22 H -0.669055 0.075833 1.186739 0
M  V30 END ATOM
M  V30 BEGIN BOND
M  V30 1 2 1 2
M  V30 2 1 2 3
M  V30 3 1 2 4
M  V30 4 1 4 5
M  V30 5 1 5 6
M  V30 6 2 6 7
M  V30 7 1 7 8
M  V30 8 2 8 9
M  V30 9 1 9 10
M  V30 10 2 10 11
M  V30 11 1 11 12
M  V30 12 2 12 13
M  V30 13 1 13 14
M  V30 14 1 9 15
M  V30 15 1 15 6
M  V30 16 1 14 10
M  V30 17 1 3 16
M  V30 18 1 4 17
M  V30 19 1 4 18
M  V30 20 1 11 19
M  V30 21 1 12 20
M  V30 22 1 13 21
M  V30 23 1 15 22
M  V30 END BOND
M  V30 END CTAB
M  END
>  <Dataset>  (20) 
ChEMBL_Kinases

>  <Ligand_Instance>  (20) 
nan

>  <PDB_ID>  (20) 
nan

>  <Standardized_SMILES>  (20) 
O=C(O)CSc1nnc(-c2cccs2)[nH]1

>  <Name>  (20) 
nan

>  <Pocket>  (20) 
nan

>  <ATP_Site>  (20) 
nan

>  <Peripheral>  (20) 
nan

>  <Num_H_Atoms_ProtBoundConf>  (20) 
nan

>  <Num_Resolved_Atoms>  (20) 
nan

>  <Num_Not_Resolved_Atoms>  (20) 
nan

$$$$
CHEMBL216053
     RDKit          3D

  0  0  0  0  0  0  0  0  0  0999 V3000
M  V30 BEGIN CTAB
M  V30 COUNTS 77 80 0 0 0
M  V30 BEGIN ATOM
M  V30 1 C 1.371225 -6.238729 2.572639 0
M  V30 2 O 0.616694 -5.137487 2.994941 0
M  V30 3 C -0.038445 -4.293095 2.125919 0
M  V30 4 C 0.047710 -4.546701 0.772573 0
M  V30 5 C -0.624236 -3.667522 -0.037912 0
M  V30 6 C -0.560437 -3.894996 -1.392711 0
M  V30 7 N 0.117597 -4.933231 -2.092583 0
M  V30 8 C 0.959736 -4.473848 -3.176047 0
M  V30 9 C 1.249770 -3.138888 -3.499672 0
M  V30 10 C 2.077737 -3.136480 -4.625175 0
M  V30 11 C 2.523137 -1.798920 -5.149018 0
M  V30 12 C 1.466398 -1.216380 -6.001716 0
M  V30 13 O 0.632234 -2.173612 -5.929342 0
M  V30 14 N 1.489874 0.042673 -6.650422 0
M  V30 15 C 0.463201 0.589525 -7.459753 0
M  V30 16 C 0.256348 0.467799 -8.821401 0
M  V30 17 C -0.810945 1.086036 -9.435898 0
M  V30 18 C -1.708687 1.849971 -8.697649 0
M  V30 19 C -1.545386 2.005803 -7.317658 0
M  V30 20 F -2.434122 2.748274 -6.654738 0
M  V30 21 C -0.445776 1.354197 -6.758849 0
M  V30 22 F -0.359393 1.560984 -5.401807 0
M  V30 23 N 2.270207 -4.444335 -4.954097 0
M  V30 24 N 1.613569 -5.172781 -4.099636 0
M  V30 25 N -1.223514 -3.037344 -2.219265 0
M  V30 26 C -1.927945 -1.992116 -1.766396 0
M  V30 27 N -1.989072 -1.771235 -0.443074 0
M  V30 28 C -1.361688 -2.573377 0.424165 0
M  V30 29 C -1.381633 -2.413247 1.793938 0
M  V30 30 C -0.746636 -3.229413 2.698865 0
M  V30 31 O -0.753238 -3.080015 4.061620 0
M  V30 32 C -1.320719 -2.062333 4.816956 0
M  V30 33 C -0.612821 -0.721140 4.604166 0
M  V30 34 C -1.323536 0.333595 5.367288 0
M  V30 35 N -0.856250 1.656807 5.363800 0
M  V30 36 C 0.118740 2.110307 6.193536 0
M  V30 37 C 1.542780 1.703270 6.209868 0
M  V30 38 O 1.820097 0.381520 6.494461 0
M  V30 39 C -1.254865 2.435761 4.255708 0
M  V30 40 C -0.814158 3.835461 4.071065 0
M  V30 41 C 0.640156 4.096850 3.931045 0
M  V30 42 C -1.449275 4.747273 5.110359 0
M  V30 43 H 0.787781 -6.825665 1.858151 0
M  V30 44 H 2.343572 -5.902238 2.123849 0
M  V30 45 H 1.578296 -6.901997 3.463700 0
M  V30 46 H 0.586447 -5.357875 0.334747 0
M  V30 47 H 0.074555 -5.938784 -1.919874 0
M  V30 48 H 0.878031 -2.280100 -2.942043 0
M  V30 49 H 3.421265 -1.995654 -5.756928 0
M  V30 50 H 2.826137 -1.154284 -4.305487 0
M  V30 51 H 2.369467 0.616230 -6.503761 0
M  V30 52 H 1.006940 -0.146923 -9.320592 0
M  V30 53 H -0.922557 0.951087 -10.522521 0
M  V30 54 H -2.548770 2.331477 -9.207215 0
M  V30 55 H 2.870526 -4.632909 -5.780842 0
M  V30 56 H -2.462921 -1.296521 -2.402092 0
M  V30 57 H -1.984253 -1.577581 2.085504 0
M  V30 58 H -2.368590 -1.919856 4.467628 0
M  V30 59 H -1.396515 -2.341232 5.876578 0
M  V30 60 H -0.652607 -0.521593 3.503236 0
M  V30 61 H 0.437238 -0.789605 4.846867 0
M  V30 62 H -1.530918 -0.034050 6.444029 0
M  V30 63 H -2.388562 0.350101 4.967511 0
M  V30 64 H 0.076182 3.261505 6.325900 0
M  V30 65 H -0.217865 1.813169 7.311089 0
M  V30 66 H 2.074965 2.292735 7.023899 0
M  V30 67 H 2.094696 1.950960 5.268678 0
M  V30 68 H 1.570975 0.144720 7.437581 0
M  V30 69 H -0.940862 1.827603 3.329522 0
M  V30 70 H -2.381922 2.344253 4.185530 0
M  V30 71 H -1.307691 4.192095 3.086580 0
M  V30 72 H 0.770730 4.901094 3.112354 0
M  V30 73 H 1.220258 3.230290 3.555486 0
M  V30 74 H 1.089792 4.573230 4.807960 0
M  V30 75 H -0.663348 5.368578 5.597137 0
M  V30 76 H -2.136524 5.496292 4.617848 0
M  V30 77 H -2.046637 4.199581 5.857572 0
M  V30 END ATOM
M  V30 BEGIN BOND
M  V30 1 1 1 2
M  V30 2 1 2 3
M  V30 3 2 3 4
M  V30 4 1 4 5
M  V30 5 2 5 6
M  V30 6 1 6 7
M  V30 7 1 7 8
M  V30 8 1 8 9
M  V30 9 2 9 10
M  V30 10 1 10 11
M  V30 11 1 11 12
M  V30 12 2 12 13
M  V30 13 1 12 14
M  V30 14 1 14 15
M  V30 15 2 15 16
M  V30 16 1 16 17
M  V30 17 2 17 18
M  V30 18 1 18 19
M  V30 19 1 19 20
M  V30 20 2 19 21
M  V30 21 1 21 22
M  V30 22 1 10 23
M  V30 23 1 23 24
M  V30 24 1 6 25
M  V30 25 2 25 26
M  V30 26 1 26 27
M  V30 27 2 27 28
M  V30 28 1 28 29
M  V30 29 2 29 30
M  V30 30 1 30 31
M  V30 31 1 31 32
M  V30 32 1 32 33
M  V30 33 1 33 34
M  V30 34 1 34 35
M  V30 35 1 35 36
M  V30 36 1 36 37
M  V30 37 1 37 38
M  V30 38 1 35 39
M  V30 39 1 39 40
M  V30 40 1 40 41
M  V30 41 1 40 42
M  V30 42 1 30 3
M  V30 43 1 28 5
M  V30 44 2 24 8
M  V30 45 1 21 15
M  V30 46 1 1 43
M  V30 47 1 1 44
M  V30 48 1 1 45
M  V30 49 1 4 46
M  V30 50 1 7 47
M  V30 51 1 9 48
M  V30 52 1 11 49
M  V30 53 1 11 50
M  V30 54 1 14 51
M  V30 55 1 16 52
M  V30 56 1 17 53
M  V30 57 1 18 54
M  V30 58 1 23 55
M  V30 59 1 26 56
M  V30 60 1 29 57
M  V30 61 1 32 58
M  V30 62 1 32 59
M  V30 63 1 33 60
M  V30 64 1 33 61
M  V30 65 1 34 62
M  V30 66 1 34 63
M  V30 67 1 36 64
M  V30 68 1 36 65
M  V30 69 1 37 66
M  V30 70 1 37 67
M  V30 71 1 38 68
M  V30 72 1 39 69
M  V30 73 1 39 70
M  V30 74 1 40 71
M  V30 75 1 41 72
M  V30 76 1 41 73
M  V30 77 1 41 74
M  V30 78 1 42 75
M  V30 79 1 42 76
M  V30 80 1 42 77
M  V30 END BOND
M  V30 END CTAB
M  END
>  <Dataset>  (21) 
ChEMBL_Kinases

>  <Ligand_Instance>  (21) 
nan

>  <PDB_ID>  (21) 
nan

>  <Standardized_SMILES>  (21) 
COc1cc2c(Nc3cc(CC(=O)Nc4cccc(F)c4F)[nH]n3)ncnc2cc1OCCCN(CCO)CC(C)C

>  <Name>  (21) 
nan

>  <Pocket>  (21) 
nan

>  <ATP_Site>  (21) 
nan

>  <Peripheral>  (21) 
nan

>  <Num_H_Atoms_ProtBoundConf>  (21) 
nan

>  <Num_Resolved_Atoms>  (21) 
nan

>  <Num_Not_Resolved_Atoms>  (21) 
nan

$$$$
CHEMBL216201
     RDKit          3D

  0  0  0  0  0  0  0  0  0  0999 V3000
M  V30 BEGIN CTAB
M  V30 COUNTS 53 55 0 0 0
M  V30 BEGIN ATOM
M  V30 1 C 0.578157 -0.277962 3.565381 0
M  V30 2 C 2.088121 -0.158824 3.327221 0
M  V30 3 C 2.776861 -1.470173 3.608071 0
M  V30 4 C 2.214305 0.228934 1.854902 0
M  V30 5 C 3.645114 0.388896 1.468356 0
M  V30 6 O 3.747922 0.748736 0.124119 0
M  V30 7 N 1.385266 1.382958 1.702566 0
M  V30 8 C 0.629173 1.670877 0.732950 0
M  V30 9 N 0.739265 0.634288 -0.206979 0
M  V30 10 C -0.245158 2.783841 0.447870 0
M  V30 11 C -0.207347 3.695854 1.467347 0
M  V30 12 O 0.428981 3.831696 2.668167 0
M  V30 13 N -1.019277 4.866142 1.339984 0
M  V30 14 S -1.811405 4.553509 -0.299288 0
M  V30 15 C -1.060879 3.036070 -0.639601 0
M  V30 16 N -1.159580 2.146860 -1.741653 0
M  V30 17 C -1.823514 0.893363 -1.456647 0
M  V30 18 C -2.494425 0.677684 -0.264420 0
M  V30 19 C -3.063763 -0.541019 0.019089 0
M  V30 20 C -2.967112 -1.562951 -0.893764 0
M  V30 21 O -3.423865 -2.897793 -0.893156 0
M  V30 22 C -2.511603 -3.928875 -0.582506 0
M  V30 23 C -2.439078 -4.798789 -1.666600 0
M  V30 24 C -1.601541 -5.914259 -1.630970 0
M  V30 25 Cl -1.385225 -7.094913 -2.886116 0
M  V30 26 C -0.846001 -6.151633 -0.514492 0
M  V30 27 C -0.912528 -5.283504 0.580809 0
M  V30 28 C -1.744743 -4.186790 0.525568 0
M  V30 29 Cl -1.921977 -3.030615 1.820700 0
M  V30 30 C -2.291764 -1.348118 -2.104346 0
M  V30 31 C -1.708763 -0.122350 -2.409495 0
M  V30 32 H 0.042109 -0.488189 2.615717 0
M  V30 33 H 0.392342 -1.137318 4.245675 0
M  V30 34 H 0.166248 0.663491 3.957925 0
M  V30 35 H 2.448704 0.676324 3.935325 0
M  V30 36 H 2.077366 -2.040540 4.264747 0
M  V30 37 H 3.704447 -1.305091 4.199900 0
M  V30 38 H 3.053751 -2.003120 2.677292 0
M  V30 39 H 1.835248 -0.664535 1.305394 0
M  V30 40 H 4.219007 1.048902 2.143647 0
M  V30 41 H 4.104832 -0.637965 1.553442 0
M  V30 42 H 3.771957 0.001217 -0.502959 0
M  V30 43 H 0.747344 -0.193281 -0.823990 0
M  V30 44 H 1.268288 0.569462 -1.115876 0
M  V30 45 H -0.039577 3.826246 3.586293 0
M  V30 46 H -0.805101 2.327581 -2.710385 0
M  V30 47 H -2.591078 1.449041 0.472089 0
M  V30 48 H -3.608716 -0.828188 0.882811 0
M  V30 49 H -2.974127 -4.756051 -2.627687 0
M  V30 50 H -0.153692 -6.958064 -0.319898 0
M  V30 51 H -0.353583 -5.377412 1.512503 0
M  V30 52 H -2.133064 -2.056116 -2.929742 0
M  V30 53 H -1.180254 0.098484 -3.317689 0
M  V30 END ATOM
M  V30 BEGIN BOND
M  V30 1 1 1 2
M  V30 2 1 2 3
M  V30 3 1 2 4
M  V30 4 1 4 5
M  V30 5 1 5 6
M  V30 6 1 4 7
M  V30 7 2 7 8
M  V30 8 1 8 9
M  V30 9 1 8 10
M  V30 10 1 10 11
M  V30 11 1 11 12
M  V30 12 2 11 13
M  V30 13 1 13 14
M  V30 14 1 14 15
M  V30 15 1 15 16
M  V30 16 1 16 17
M  V30 17 2 17 18
M  V30 18 1 18 19
M  V30 19 2 19 20
M  V30 20 1 20 21
M  V30 21 1 21 22
M  V30 22 2 22 23
M  V30 23 1 23 24
M  V30 24 1 24 25
M  V30 25 2 24 26
M  V30 26 1 26 27
M  V30 27 2 27 28
M  V30 28 1 28 29
M  V30 29 1 20 30
M  V30 30 2 30 31
M  V30 31 2 15 10
M  V30 32 1 31 17
M  V30 33 1 28 22
M  V30 34 1 1 32
M  V30 35 1 1 33
M  V30 36 1 1 34
M  V30 37 1 2 35
M  V30 38 1 3 36
M  V30 39 1 3 37
M  V30 40 1 3 38
M  V30 41 1 4 39
M  V30 42 1 5 40
M  V30 43 1 5 41
M  V30 44 1 6 42
M  V30 45 1 9 43
M  V30 46 1 9 44
M  V30 47 1 12 45
M  V30 48 1 16 46
M  V30 49 1 18 47
M  V30 50 1 19 48
M  V30 51 1 23 49
M  V30 52 1 26 50
M  V30 53 1 27 51
M  V30 54 1 30 52
M  V30 55 1 31 53
M  V30 END BOND
M  V30 END CTAB
M  END
>  <Dataset>  (22) 
ChEMBL_Kinases

>  <Ligand_Instance>  (22) 
nan

>  <PDB_ID>  (22) 
nan

>  <Standardized_SMILES>  (22) 
CC(C)C(CO)/N=C(\N)c1c(O)nsc1Nc1ccc(Oc2cc(Cl)ccc2Cl)cc1

>  <Name>  (22) 
nan

>  <Pocket>  (22) 
nan

>  <ATP_Site>  (22) 
nan

>  <Peripheral>  (22) 
nan

>  <Num_H_Atoms_ProtBoundConf>  (22) 
nan

>  <Num_Resolved_Atoms>  (22) 
nan

>  <Num_Not_Resolved_Atoms>  (22) 
nan

$$$$
CHEMBL2163395
     RDKit          3D

  0  0  0  0  0  0  0  0  0  0999 V3000
M  V30 BEGIN CTAB
M  V30 COUNTS 70 75 0 0 0
M  V30 BEGIN ATOM
M  V30 1 C 2.045276 -4.029586 3.939502 0
M  V30 2 C 2.210027 -2.537747 3.786433 0
M  V30 3 C 3.019560 -2.109964 2.781220 0
M  V30 4 C 3.050780 -0.715009 2.908639 0
M  V30 5 N 3.695884 0.340028 2.279374 0
M  V30 6 C 3.769391 1.409109 1.406223 0
M  V30 7 N 3.546978 2.655757 1.746871 0
M  V30 8 C 3.623914 3.676214 0.902860 0
M  V30 9 S 2.877614 5.362057 1.208830 0
M  V30 10 C 1.062016 4.929001 0.710826 0
M  V30 11 C 1.135752 4.859610 -0.629261 0
M  V30 12 C 0.030445 4.033908 -1.068524 0
M  V30 13 C -0.842674 3.507671 -0.084416 0
M  V30 14 N -1.759917 2.456901 -0.520114 0
M  V30 15 C -2.635146 1.480212 -0.932109 0
M  V30 16 O -3.641012 2.282785 -1.109062 0
M  V30 17 C -2.233459 0.085164 -1.017680 0
M  V30 18 N -3.036977 -0.929965 -1.456354 0
M  V30 19 C -3.119442 -0.987424 -2.932248 0
M  V30 20 C -3.804450 -2.377352 -3.009900 0
M  V30 21 C -4.836926 -2.318480 -1.876696 0 CFG=1
M  V30 22 C -4.633983 -3.532052 -1.019209 0
M  V30 23 O -5.300867 -4.540327 -0.728124 0
M  V30 24 N -3.395740 -3.624876 -0.330860 0
M  V30 25 C -3.044318 -4.730591 0.536451 0
M  V30 26 C -1.622796 -5.263390 0.380037 0
M  V30 27 C -1.375521 -5.185767 1.846117 0
M  V30 28 C -2.638795 -4.326973 1.947495 0
M  V30 29 C -4.415869 -1.032890 -1.141953 0
M  V30 30 C -0.724747 3.743805 1.300258 0
M  V30 31 C 0.338810 4.533280 1.764685 0
M  V30 32 N 3.963737 3.495073 -0.384396 0
M  V30 33 N 4.215468 2.242979 -0.815544 0
M  V30 34 C 4.559738 1.815732 -2.090340 0
M  V30 35 C 4.680407 0.403130 -2.019794 0
M  V30 36 C 4.402810 0.174252 -0.718864 0
M  V30 37 C 4.116859 1.228445 0.071575 0
M  V30 38 N 2.247846 -0.402169 3.992381 0
M  V30 39 N 1.769179 -1.516779 4.477491 0
M  V30 40 H 3.003827 -4.450482 4.361051 0
M  V30 41 H 1.734410 -4.493084 3.000155 0
M  V30 42 H 1.274462 -4.209329 4.723735 0
M  V30 43 H 3.594548 -2.496247 1.979487 0
M  V30 44 H 4.690320 0.414785 2.665204 0
M  V30 45 H 1.788748 5.256063 -1.352330 0
M  V30 46 H -0.061379 3.854810 -2.112034 0
M  V30 47 H -0.932891 1.799532 -0.398431 0
M  V30 48 H -1.312817 0.085172 -1.745827 0
M  V30 49 H -1.707504 -0.265222 -0.073327 0
M  V30 50 H -3.679063 -0.224485 -3.408186 0
M  V30 51 H -2.065492 -1.094052 -3.300170 0
M  V30 52 H -4.262938 -2.556138 -3.999406 0
M  V30 53 H -3.041164 -3.178836 -2.848381 0
M  V30 54 H -5.857752 -2.246794 -2.281032 0
M  V30 55 H -2.581439 -2.965854 -0.345514 0
M  V30 56 H -3.743840 -5.575506 0.543865 0
M  V30 57 H -0.986603 -4.489195 -0.122154 0
M  V30 58 H -1.530014 -6.272790 -0.049673 0
M  V30 59 H -0.467119 -4.625145 2.154994 0
M  V30 60 H -1.464091 -6.196326 2.283658 0
M  V30 61 H -3.298743 -4.745099 2.714106 0
M  V30 62 H -2.469491 -3.253759 2.098813 0
M  V30 63 H -5.031806 -0.214581 -1.631644 0
M  V30 64 H -4.695264 -1.154410 -0.098659 0
M  V30 65 H -1.494156 3.268469 1.897953 0
M  V30 66 H 0.419319 4.697993 2.803328 0
M  V30 67 H 4.684463 2.590485 -2.853840 0
M  V30 68 H 4.909105 0.073976 -2.993942 0
M  V30 69 H 4.446940 -0.863925 -0.406904 0
M  V30 70 H 1.119343 -1.658115 5.311787 0
M  V30 END ATOM
M  V30 BEGIN BOND
M  V30 1 1 1 2
M  V30 2 2 2 3
M  V30 3 1 3 4
M  V30 4 1 4 5
M  V30 5 1 5 6
M  V30 6 2 6 7
M  V30 7 1 7 8
M  V30 8 1 8 9
M  V30 9 1 9 10
M  V30 10 2 10 11
M  V30 11 1 11 12
M  V30 12 2 12 13
M  V30 13 1 13 14
M  V30 14 1 14 15
M  V30 15 2 15 16
M  V30 16 1 15 17
M  V30 17 1 17 18
M  V30 18 1 18 19
M  V30 19 1 19 20
M  V30 20 1 20 21
M  V30 21 1 21 22
M  V30 22 2 22 23
M  V30 23 1 22 24
M  V30 24 1 24 25
M  V30 25 1 25 26
M  V30 26 1 26 27
M  V30 27 1 27 28
M  V30 28 1 21 29
M  V30 29 1 13 30
M  V30 30 2 30 31
M  V30 31 2 8 32
M  V30 32 1 32 33
M  V30 33 1 33 34
M  V30 34 2 34 35
M  V30 35 1 35 36
M  V30 36 2 36 37
M  V30 37 2 4 38
M  V30 38 1 38 39
M  V30 39 1 39 2
M  V30 40 1 37 6
M  V30 41 1 31 10
M  V30 42 1 37 33
M  V30 43 1 29 18
M  V30 44 1 28 25
M  V30 45 1 1 40
M  V30 46 1 1 41
M  V30 47 1 1 42
M  V30 48 1 3 43
M  V30 49 1 5 44
M  V30 50 1 11 45
M  V30 51 1 12 46
M  V30 52 1 14 47
M  V30 53 1 17 48
M  V30 54 1 17 49
M  V30 55 1 19 50
M  V30 56 1 19 51
M  V30 57 1 20 52
M  V30 58 1 20 53
M  V30 59 1 21 54 CFG=3
M  V30 60 1 24 55
M  V30 61 1 25 56
M  V30 62 1 26 57
M  V30 63 1 26 58
M  V30 64 1 27 59
M  V30 65 1 27 60
M  V30 66 1 28 61
M  V30 67 1 28 62
M  V30 68 1 29 63
M  V30 69 1 29 64
M  V30 70 1 30 65
M  V30 71 1 31 66
M  V30 72 1 34 67
M  V30 73 1 35 68
M  V30 74 1 36 69
M  V30 75 1 39 70
M  V30 END BOND
M  V30 END CTAB
M  END
>  <Dataset>  (23) 
ChEMBL_Kinases

>  <Ligand_Instance>  (23) 
nan

>  <PDB_ID>  (23) 
nan

>  <Standardized_SMILES>  (23) 
Cc1cc(Nc2nc(Sc3ccc(NC(=O)CN4CC[C@@H](C(=O)NC5CCC5)C4)cc3)nn3cccc23)n[nH]1

>  <Name>  (23) 
nan

>  <Pocket>  (23) 
nan

>  <ATP_Site>  (23) 
nan

>  <Peripheral>  (23) 
nan

>  <Num_H_Atoms_ProtBoundConf>  (23) 
nan

>  <Num_Resolved_Atoms>  (23) 
nan

>  <Num_Not_Resolved_Atoms>  (23) 
nan

$$$$
CHEMBL216325
     RDKit          3D

  0  0  0  0  0  0  0  0  0  0999 V3000
M  V30 BEGIN CTAB
M  V30 COUNTS 48 50 0 0 0
M  V30 BEGIN ATOM
M  V30 1 N 3.660245 2.089734 1.708272 0
M  V30 2 C 2.283773 1.790736 1.636839 0
M  V30 3 N 1.777409 0.781432 2.136094 0
M  V30 4 C 2.304398 -0.285418 2.852621 0
M  V30 5 C 3.596047 -0.790647 2.251478 0
M  V30 6 O 4.012784 -1.885376 3.047208 0
M  V30 7 C 2.518216 -0.139147 4.320493 0
M  V30 8 O 3.391858 0.902598 4.640814 0
M  V30 9 C 1.708804 2.846120 0.908954 0
M  V30 10 C 2.020809 3.997236 0.287197 0
M  V30 11 O 3.360720 4.349796 0.299819 0
M  V30 12 N 1.077343 4.902095 -0.396103 0
M  V30 13 S -0.457395 3.945477 -0.084531 0
M  V30 14 C 0.233918 2.670215 0.773667 0
M  V30 15 N -0.695891 1.706009 1.185088 0
M  V30 16 C -1.499574 0.727711 0.554466 0
M  V30 17 C -2.454023 0.140721 1.393623 0
M  V30 18 C -3.284282 -0.803998 0.815396 0
M  V30 19 C -3.255920 -1.208550 -0.480831 0
M  V30 20 O -4.046028 -2.135989 -1.108497 0
M  V30 21 C -3.670443 -3.440824 -1.307527 0
M  V30 22 C -3.693430 -3.672996 -2.695225 0
M  V30 23 C -3.362852 -4.908940 -3.243489 0
M  V30 24 Cl -3.369223 -5.282918 -4.961850 0
M  V30 25 C -2.993889 -5.968792 -2.428175 0
M  V30 26 C -2.977806 -5.726237 -1.082010 0
M  V30 27 C -3.301285 -4.512311 -0.524892 0
M  V30 28 Cl -3.315180 -4.104256 1.176078 0
M  V30 29 C -2.308505 -0.613235 -1.280205 0
M  V30 30 C -1.441124 0.346428 -0.758734 0
M  V30 31 H 3.876833 2.630757 2.575617 0
M  V30 32 H 4.679252 2.279471 1.706688 0
M  V30 33 H 1.588090 -1.153455 2.728987 0
M  V30 34 H 4.386188 -0.008281 2.267883 0
M  V30 35 H 3.398342 -1.163829 1.247922 0
M  V30 36 H 4.260063 -2.661938 2.489546 0
M  V30 37 H 3.135990 -1.056672 4.593523 0
M  V30 38 H 1.632666 -0.210363 4.955573 0
M  V30 39 H 3.761203 0.740946 5.536730 0
M  V30 40 H 3.727644 5.135739 -0.197086 0
M  V30 41 H -0.710731 1.843175 2.234139 0
M  V30 42 H -2.568347 0.389472 2.450633 0
M  V30 43 H -4.031514 -1.255842 1.453586 0
M  V30 44 H -3.950338 -2.992462 -3.501909 0
M  V30 45 H -2.718194 -6.970767 -2.712606 0
M  V30 46 H -2.713313 -6.453397 -0.318850 0
M  V30 47 H -2.160115 -0.830341 -2.323458 0
M  V30 48 H -0.669168 0.853897 -1.328232 0
M  V30 END ATOM
M  V30 BEGIN BOND
M  V30 1 1 1 2
M  V30 2 2 2 3
M  V30 3 1 3 4
M  V30 4 1 4 5
M  V30 5 1 5 6
M  V30 6 1 4 7
M  V30 7 1 7 8
M  V30 8 1 2 9
M  V30 9 1 9 10
M  V30 10 1 10 11
M  V30 11 2 10 12
M  V30 12 1 12 13
M  V30 13 1 13 14
M  V30 14 1 14 15
M  V30 15 1 15 16
M  V30 16 2 16 17
M  V30 17 1 17 18
M  V30 18 2 18 19
M  V30 19 1 19 20
M  V30 20 1 20 21
M  V30 21 2 21 22
M  V30 22 1 22 23
M  V30 23 1 23 24
M  V30 24 2 23 25
M  V30 25 1 25 26
M  V30 26 2 26 27
M  V30 27 1 27 28
M  V30 28 1 19 29
M  V30 29 2 29 30
M  V30 30 2 14 9
M  V30 31 1 30 16
M  V30 32 1 27 21
M  V30 33 1 1 31
M  V30 34 1 1 32
M  V30 35 1 4 33
M  V30 36 1 5 34
M  V30 37 1 5 35
M  V30 38 1 6 36
M  V30 39 1 7 37
M  V30 40 1 7 38
M  V30 41 1 8 39
M  V30 42 1 11 40
M  V30 43 1 15 41
M  V30 44 1 17 42
M  V30 45 1 18 43
M  V30 46 1 22 44
M  V30 47 1 25 45
M  V30 48 1 26 46
M  V30 49 1 29 47
M  V30 50 1 30 48
M  V30 END BOND
M  V30 END CTAB
M  END
>  <Dataset>  (24) 
ChEMBL_Kinases

>  <Ligand_Instance>  (24) 
nan

>  <PDB_ID>  (24) 
nan

>  <Standardized_SMILES>  (24) 
N/C(=N\C(CO)CO)c1c(O)nsc1Nc1ccc(Oc2cc(Cl)ccc2Cl)cc1

>  <Name>  (24) 
nan

>  <Pocket>  (24) 
nan

>  <ATP_Site>  (24) 
nan

>  <Peripheral>  (24) 
nan

>  <Num_H_Atoms_ProtBoundConf>  (24) 
nan

>  <Num_Resolved_Atoms>  (24) 
nan

>  <Num_Not_Resolved_Atoms>  (24) 
nan

$$$$
CHEMBL2163387
     RDKit          3D

  0  0  0  0  0  0  0  0  0  0999 V3000
M  V30 BEGIN CTAB
M  V30 COUNTS 72 76 0 0 0
M  V30 BEGIN ATOM
M  V30 1 C 3.244447 -3.035310 -0.960011 0
M  V30 2 C 3.226066 -1.605803 -1.390980 0
M  V30 3 C 2.401939 -0.992961 -2.321451 0
M  V30 4 C 2.773605 0.331929 -2.366042 0
M  V30 5 N 2.193364 1.358589 -3.194230 0
M  V30 6 C 2.582550 2.724102 -3.234045 0
M  V30 7 N 1.949540 3.575937 -2.378121 0
M  V30 8 C 2.268010 4.897471 -2.358483 0
M  V30 9 S 1.404409 5.991492 -1.209059 0
M  V30 10 C 0.217122 5.013775 -0.264512 0
M  V30 11 C -1.093765 4.766474 -0.610662 0
M  V30 12 C -1.857818 3.996990 0.228333 0
M  V30 13 C -1.315979 3.489767 1.385699 0
M  V30 14 N -2.245412 2.697974 2.158409 0
M  V30 15 C -2.103535 1.365377 1.693079 0
M  V30 16 O -1.248888 1.178235 0.763685 0
M  V30 17 C -2.848184 0.177026 2.179605 0
M  V30 18 N -2.486509 -1.019582 1.518250 0
M  V30 19 C -1.153278 -1.508209 1.774219 0
M  V30 20 C -1.167438 -2.965593 1.315867 0
M  V30 21 C -2.605716 -3.197158 0.902885 0 CFG=1
M  V30 22 C -2.936220 -4.580334 1.327068 0
M  V30 23 O -3.287275 -5.379413 0.447590 0
M  V30 24 N -2.819787 -4.869077 2.715717 0
M  V30 25 C -3.140650 -6.210142 3.123556 0
M  V30 26 C -2.280856 -7.258136 2.475036 0
M  V30 27 C -4.591390 -6.480925 2.825013 0
M  V30 28 C -2.983565 -6.384355 4.636032 0
M  V30 29 C -3.328039 -2.146871 1.735556 0
M  V30 30 C -0.008679 3.727216 1.746361 0
M  V30 31 C 0.773699 4.507570 0.899945 0
M  V30 32 N 3.206698 5.379919 -3.178560 0
M  V30 33 N 3.853867 4.579637 -4.035559 0
M  V30 34 C 4.817802 4.771904 -4.955990 0
M  V30 35 C 5.129060 3.580045 -5.575828 0
M  V30 36 C 4.327042 2.606706 -5.019310 0
M  V30 37 C 3.545518 3.254719 -4.066224 0
M  V30 38 N 3.776225 0.486188 -1.494905 0
M  V30 39 N 4.065483 -0.659297 -0.898534 0
M  V30 40 H 4.222208 -3.508754 -1.247869 0
M  V30 41 H 3.079281 -3.124819 0.117138 0
M  V30 42 H 2.458447 -3.548736 -1.559516 0
M  V30 43 H 1.628940 -1.464803 -2.890817 0
M  V30 44 H 1.415355 1.116998 -3.835514 0
M  V30 45 H -1.376800 5.232127 -1.549692 0
M  V30 46 H -2.874690 3.833968 -0.088615 0
M  V30 47 H -2.954519 2.843217 2.927574 0
M  V30 48 H -2.753527 0.037456 3.274986 0
M  V30 49 H -3.923067 0.357438 1.997526 0
M  V30 50 H -0.353322 -0.915104 1.334948 0
M  V30 51 H -1.033443 -1.552457 2.887448 0
M  V30 52 H -0.483788 -3.081090 0.433700 0
M  V30 53 H -0.859648 -3.664936 2.119750 0
M  V30 54 H -2.761071 -3.035329 -0.178591 0
M  V30 55 H -2.518546 -4.163401 3.428673 0
M  V30 56 H -1.230250 -6.959356 2.395900 0
M  V30 57 H -2.289033 -8.156112 3.126970 0
M  V30 58 H -2.722876 -7.625561 1.503111 0
M  V30 59 H -4.883900 -7.349736 3.483589 0
M  V30 60 H -4.693378 -6.738725 1.757898 0
M  V30 61 H -5.185617 -5.603537 3.120210 0
M  V30 62 H -3.851760 -5.977854 5.177231 0
M  V30 63 H -2.057260 -5.975116 5.032052 0
M  V30 64 H -2.991651 -7.484301 4.836630 0
M  V30 65 H -3.461983 -2.453143 2.769534 0
M  V30 66 H -4.298960 -1.981440 1.193704 0
M  V30 67 H 0.338253 3.283530 2.685606 0
M  V30 68 H 1.790655 4.655753 1.242040 0
M  V30 69 H 5.271516 5.722512 -5.167964 0
M  V30 70 H 5.855084 3.382298 -6.357160 0
M  V30 71 H 4.293553 1.535477 -5.260949 0
M  V30 72 H 4.834607 -0.720473 -0.178299 0
M  V30 END ATOM
M  V30 BEGIN BOND
M  V30 1 1 1 2
M  V30 2 2 2 3
M  V30 3 1 3 4
M  V30 4 1 4 5
M  V30 5 1 5 6
M  V30 6 2 6 7
M  V30 7 1 7 8
M  V30 8 1 8 9
M  V30 9 1 9 10
M  V30 10 2 10 11
M  V30 11 1 11 12
M  V30 12 2 12 13
M  V30 13 1 13 14
M  V30 14 1 14 15
M  V30 15 2 15 16
M  V30 16 1 15 17
M  V30 17 1 17 18
M  V30 18 1 18 19
M  V30 19 1 19 20
M  V30 20 1 20 21
M  V30 21 1 21 22
M  V30 22 2 22 23
M  V30 23 1 22 24
M  V30 24 1 24 25
M  V30 25 1 25 26
M  V30 26 1 25 27
M  V30 27 1 25 28
M  V30 28 1 21 29
M  V30 29 1 13 30
M  V30 30 2 30 31
M  V30 31 2 8 32
M  V30 32 1 32 33
M  V30 33 1 33 34
M  V30 34 2 34 35
M  V30 35 1 35 36
M  V30 36 2 36 37
M  V30 37 2 4 38
M  V30 38 1 38 39
M  V30 39 1 39 2
M  V30 40 1 37 6
M  V30 41 1 31 10
M  V30 42 1 37 33
M  V30 43 1 29 18
M  V30 44 1 1 40
M  V30 45 1 1 41
M  V30 46 1 1 42
M  V30 47 1 3 43
M  V30 48 1 5 44
M  V30 49 1 11 45
M  V30 50 1 12 46
M  V30 51 1 14 47
M  V30 52 1 17 48
M  V30 53 1 17 49
M  V30 54 1 19 50
M  V30 55 1 19 51
M  V30 56 1 20 52
M  V30 57 1 20 53
M  V30 58 1 21 54 CFG=3
M  V30 59 1 24 55
M  V30 60 1 26 56
M  V30 61 1 26 57
M  V30 62 1 26 58
M  V30 63 1 27 59
M  V30 64 1 27 60
M  V30 65 1 27 61
M  V30 66 1 28 62
M  V30 67 1 28 63
M  V30 68 1 28 64
M  V30 69 1 29 65
M  V30 70 1 29 66
M  V30 71 1 30 67
M  V30 72 1 31 68
M  V30 73 1 34 69
M  V30 74 1 35 70
M  V30 75 1 36 71
M  V30 76 1 39 72
M  V30 END BOND
M  V30 END CTAB
M  END
>  <Dataset>  (25) 
ChEMBL_Kinases

>  <Ligand_Instance>  (25) 
nan

>  <PDB_ID>  (25) 
nan

>  <Standardized_SMILES>  (25) 
Cc1cc(Nc2nc(Sc3ccc(NC(=O)CN4CC[C@@H](C(=O)NC(C)(C)C)C4)cc3)nn3cccc23)n[nH]1

>  <Name>  (25) 
nan

>  <Pocket>  (25) 
nan

>  <ATP_Site>  (25) 
nan

>  <Peripheral>  (25) 
nan

>  <Num_H_Atoms_ProtBoundConf>  (25) 
nan

>  <Num_Resolved_Atoms>  (25) 
nan

>  <Num_Not_Resolved_Atoms>  (25) 
nan

$$$$
CHEMBL2163388
     RDKit          3D

  0  0  0  0  0  0  0  0  0  0999 V3000
M  V30 BEGIN CTAB
M  V30 COUNTS 66 70 0 0 0
M  V30 BEGIN ATOM
M  V30 1 C 3.594228 -1.632727 3.294208 0
M  V30 2 C 3.546795 -0.396665 2.510419 0
M  V30 3 C 3.569063 0.929347 2.854946 0
M  V30 4 C 3.497522 1.792107 1.773313 0
M  V30 5 N 3.480849 3.210787 1.748658 0
M  V30 6 C 3.419852 3.817403 0.463869 0
M  V30 7 N 2.218020 3.664731 -0.107402 0
M  V30 8 C 1.891881 4.137316 -1.308641 0
M  V30 9 S 0.299827 3.922158 -2.072995 0
M  V30 10 C -0.854146 3.012675 -1.081782 0
M  V30 11 C -2.064919 2.816560 -1.722166 0
M  V30 12 C -3.090550 2.133258 -1.103897 0
M  V30 13 C -2.900993 1.642488 0.167482 0
M  V30 14 N -3.796009 0.902571 1.008339 0
M  V30 15 C -3.518619 -0.458961 0.728823 0
M  V30 16 O -2.611626 -0.722106 -0.135643 0
M  V30 17 C -4.118309 -1.727200 1.281563 0
M  V30 18 N -3.394650 -2.790415 0.562779 0
M  V30 19 C -3.763129 -2.794199 -0.831100 0
M  V30 20 C -4.481657 -4.103752 -1.075416 0
M  V30 21 C -3.879232 -4.974805 -0.021782 0 CFG=1
M  V30 22 C -2.595664 -5.612425 -0.407040 0
M  V30 23 O -2.116964 -5.378349 -1.566347 0
M  V30 24 N -1.969249 -6.457252 0.550992 0
M  V30 25 C -0.713931 -7.115989 0.243118 0
M  V30 26 C -0.328063 -7.931998 1.478701 0
M  V30 27 F -0.198845 -7.031241 2.522480 0
M  V30 28 F 0.819385 -8.672283 1.263311 0
M  V30 29 F -1.427007 -8.734350 1.779148 0
M  V30 30 C -3.757067 -4.036006 1.150608 0
M  V30 31 C -1.696916 1.819419 0.843992 0
M  V30 32 C -0.679864 2.515385 0.188891 0
M  V30 33 N 2.834564 4.800830 -1.963603 0
M  V30 34 N 4.045370 4.990192 -1.458449 0
M  V30 35 C 5.185572 5.604603 -1.862027 0
M  V30 36 C 6.182072 5.498993 -0.912344 0
M  V30 37 C 5.658199 4.780077 0.158474 0
M  V30 38 C 4.370117 4.511089 -0.246766 0
M  V30 39 N 3.428793 0.922337 0.723959 0
M  V30 40 N 3.457424 -0.323891 1.154681 0
M  V30 41 H 3.699202 -2.493691 2.608302 0
M  V30 42 H 4.415405 -1.641517 4.057381 0
M  V30 43 H 2.605795 -1.769465 3.784017 0
M  V30 44 H 3.639101 1.263159 3.902387 0
M  V30 45 H 3.514522 3.684784 2.683089 0
M  V30 46 H -2.334365 3.154729 -2.728944 0
M  V30 47 H -4.082977 1.892728 -1.450494 0
M  V30 48 H -4.544095 1.014813 1.719604 0
M  V30 49 H -3.898876 -1.741917 2.364306 0
M  V30 50 H -5.205773 -1.782152 1.133583 0
M  V30 51 H -2.860261 -2.653282 -1.445389 0
M  V30 52 H -4.532823 -1.981696 -0.994684 0
M  V30 53 H -5.580441 -4.031282 -1.018821 0
M  V30 54 H -4.181223 -4.463738 -2.094057 0
M  V30 55 H -4.639371 -5.764556 0.245339 0
M  V30 56 H -2.451612 -6.588335 1.493173 0
M  V30 57 H 0.092753 -6.435024 -0.045640 0
M  V30 58 H -0.818667 -7.874271 -0.587044 0
M  V30 59 H -4.740847 -4.027001 1.670722 0
M  V30 60 H -2.954092 -4.442503 1.823777 0
M  V30 61 H -1.420815 1.489341 1.829749 0
M  V30 62 H 0.269834 2.692427 0.636499 0
M  V30 63 H 5.294237 6.121615 -2.827332 0
M  V30 64 H 7.195706 5.880649 -0.938149 0
M  V30 65 H 6.127354 4.491954 1.089559 0
M  V30 66 H 3.406984 -1.099785 0.430953 0
M  V30 END ATOM
M  V30 BEGIN BOND
M  V30 1 1 1 2
M  V30 2 2 2 3
M  V30 3 1 3 4
M  V30 4 1 4 5
M  V30 5 1 5 6
M  V30 6 2 6 7
M  V30 7 1 7 8
M  V30 8 1 8 9
M  V30 9 1 9 10
M  V30 10 2 10 11
M  V30 11 1 11 12
M  V30 12 2 12 13
M  V30 13 1 13 14
M  V30 14 1 14 15
M  V30 15 2 15 16
M  V30 16 1 15 17
M  V30 17 1 17 18
M  V30 18 1 18 19
M  V30 19 1 19 20
M  V30 20 1 20 21
M  V30 21 1 21 22
M  V30 22 2 22 23
M  V30 23 1 22 24
M  V30 24 1 24 25
M  V30 25 1 25 26
M  V30 26 1 26 27
M  V30 27 1 26 28
M  V30 28 1 26 29
M  V30 29 1 21 30
M  V30 30 1 13 31
M  V30 31 2 31 32
M  V30 32 2 8 33
M  V30 33 1 33 34
M  V30 34 1 34 35
M  V30 35 2 35 36
M  V30 36 1 36 37
M  V30 37 2 37 38
M  V30 38 2 4 39
M  V30 39 1 39 40
M  V30 40 1 40 2
M  V30 41 1 38 6
M  V30 42 1 32 10
M  V30 43 1 38 34
M  V30 44 1 30 18
M  V30 45 1 1 41
M  V30 46 1 1 42
M  V30 47 1 1 43
M  V30 48 1 3 44
M  V30 49 1 5 45
M  V30 50 1 11 46
M  V30 51 1 12 47
M  V30 52 1 14 48
M  V30 53 1 17 49
M  V30 54 1 17 50
M  V30 55 1 19 51
M  V30 56 1 19 52
M  V30 57 1 20 53
M  V30 58 1 20 54
M  V30 59 1 21 55 CFG=1
M  V30 60 1 24 56
M  V30 61 1 25 57
M  V30 62 1 25 58
M  V30 63 1 30 59
M  V30 64 1 30 60
M  V30 65 1 31 61
M  V30 66 1 32 62
M  V30 67 1 35 63
M  V30 68 1 36 64
M  V30 69 1 37 65
M  V30 70 1 40 66
M  V30 END BOND
M  V30 END CTAB
M  END
>  <Dataset>  (26) 
ChEMBL_Kinases

>  <Ligand_Instance>  (26) 
nan

>  <PDB_ID>  (26) 
nan

>  <Standardized_SMILES>  (26) 
Cc1cc(Nc2nc(Sc3ccc(NC(=O)CN4CC[C@@H](C(=O)NCC(F)(F)F)C4)cc3)nn3cccc23)n[nH]1

>  <Name>  (26) 
nan

>  <Pocket>  (26) 
nan

>  <ATP_Site>  (26) 
nan

>  <Peripheral>  (26) 
nan

>  <Num_H_Atoms_ProtBoundConf>  (26) 
nan

>  <Num_Resolved_Atoms>  (26) 
nan

>  <Num_Not_Resolved_Atoms>  (26) 
nan

$$$$
CHEMBL2163389
     RDKit          3D

  0  0  0  0  0  0  0  0  0  0999 V3000
M  V30 BEGIN CTAB
M  V30 COUNTS 73 78 0 0 0
M  V30 BEGIN ATOM
M  V30 1 C 10.206809 0.448166 2.287018 0
M  V30 2 C 9.385578 1.663637 2.120209 0
M  V30 3 C 8.044644 1.646943 1.765524 0
M  V30 4 C 7.532666 2.946701 1.685204 0
M  V30 5 N 6.214176 3.265889 1.351812 0
M  V30 6 C 5.558654 3.546838 0.125552 0
M  V30 7 N 4.224581 3.816401 0.177230 0
M  V30 8 C 3.527882 4.094635 -0.939527 0
M  V30 9 S 1.785159 4.425807 -0.712919 0
M  V30 10 C 0.969405 2.817929 -0.847717 0
M  V30 11 C 0.852999 2.132341 0.347401 0
M  V30 12 C 0.230432 0.879447 0.319912 0
M  V30 13 C -0.231540 0.406652 -0.915002 0
M  V30 14 N -0.851175 -0.890075 -0.824357 0
M  V30 15 C -2.237477 -1.103456 -0.571277 0
M  V30 16 O -2.745198 0.031396 -0.456656 0
M  V30 17 C -2.454556 -2.594591 -0.557575 0
M  V30 18 N -3.820003 -2.947036 -0.306754 0
M  V30 19 C -4.737947 -2.610729 -1.347121 0
M  V30 20 C -6.102366 -2.440156 -0.721210 0
M  V30 21 C -5.811900 -2.226892 0.723831 0 CFG=1
M  V30 22 C -6.599581 -3.072506 1.650179 0
M  V30 23 O -7.368833 -2.502223 2.504617 0
M  V30 24 N -6.513243 -4.517498 1.605653 0
M  V30 25 C -5.798130 -5.528432 0.820100 0
M  V30 26 C -6.763107 -6.670633 0.594694 0
M  V30 27 C -8.193092 -6.185691 0.455597 0
M  V30 28 C -8.592377 -5.657145 1.841970 0
M  V30 29 C -7.336083 -5.232732 2.595360 0
M  V30 30 C -4.324660 -2.389341 0.930159 0
M  V30 31 C -0.091573 1.129507 -2.081682 0
M  V30 32 C 0.519862 2.366227 -2.071528 0
M  V30 33 N 4.219710 4.090189 -2.091909 0
M  V30 34 N 5.512097 3.830414 -2.154261 0
M  V30 35 C 6.302281 3.797705 -3.243041 0
M  V30 36 C 7.577205 3.480185 -2.794951 0
M  V30 37 C 7.561177 3.319094 -1.426302 0
M  V30 38 C 6.251643 3.546379 -1.063463 0
M  V30 39 N 8.583124 3.711594 1.994641 0
M  V30 40 N 9.657181 2.991679 2.248008 0
M  V30 41 H 10.489471 0.064344 1.288623 0
M  V30 42 H 11.120765 0.646958 2.878721 0
M  V30 43 H 9.632858 -0.374123 2.789012 0
M  V30 44 H 7.455460 0.760528 1.572821 0
M  V30 45 H 5.714662 3.266997 2.266353 0
M  V30 46 H 1.214535 2.516015 1.277951 0
M  V30 47 H 0.135726 0.338230 1.247018 0
M  V30 48 H 0.018162 -1.478830 -0.996852 0
M  V30 49 H -1.848828 -3.046184 0.261401 0
M  V30 50 H -2.190437 -2.995090 -1.567103 0
M  V30 51 H -4.823623 -3.326097 -2.168960 0
M  V30 52 H -4.442814 -1.640980 -1.807687 0
M  V30 53 H -6.770359 -3.305899 -0.844237 0
M  V30 54 H -6.650459 -1.572719 -1.180006 0
M  V30 55 H -6.055310 -1.166034 0.951692 0
M  V30 56 H -5.475610 -5.181860 -0.158472 0
M  V30 57 H -4.954403 -5.944695 1.432795 0
M  V30 58 H -6.449089 -7.295323 -0.268456 0
M  V30 59 H -6.738425 -7.318892 1.488184 0
M  V30 60 H -8.815788 -7.077248 0.231209 0
M  V30 61 H -8.303121 -5.410012 -0.326268 0
M  V30 62 H -9.175297 -6.403323 2.404113 0
M  V30 63 H -9.235174 -4.783466 1.668803 0
M  V30 64 H -6.814672 -6.053055 3.084571 0
M  V30 65 H -7.701967 -4.548200 3.396189 0
M  V30 66 H -3.826536 -1.400122 1.036011 0
M  V30 67 H -4.055804 -2.957393 1.823351 0
M  V30 68 H -0.478610 0.685118 -2.987884 0
M  V30 69 H 0.636788 2.944304 -2.977337 0
M  V30 70 H 6.027103 3.978334 -4.274239 0
M  V30 71 H 8.482321 3.362698 -3.375293 0
M  V30 72 H 8.363785 3.070501 -0.734054 0
M  V30 73 H 10.611000 3.323273 2.513740 0
M  V30 END ATOM
M  V30 BEGIN BOND
M  V30 1 1 1 2
M  V30 2 2 2 3
M  V30 3 1 3 4
M  V30 4 1 4 5
M  V30 5 1 5 6
M  V30 6 2 6 7
M  V30 7 1 7 8
M  V30 8 1 8 9
M  V30 9 1 9 10
M  V30 10 2 10 11
M  V30 11 1 11 12
M  V30 12 2 12 13
M  V30 13 1 13 14
M  V30 14 1 14 15
M  V30 15 2 15 16
M  V30 16 1 15 17
M  V30 17 1 17 18
M  V30 18 1 18 19
M  V30 19 1 19 20
M  V30 20 1 20 21
M  V30 21 1 21 22
M  V30 22 2 22 23
M  V30 23 1 22 24
M  V30 24 1 24 25
M  V30 25 1 25 26
M  V30 26 1 26 27
M  V30 27 1 27 28
M  V30 28 1 28 29
M  V30 29 1 21 30
M  V30 30 1 13 31
M  V30 31 2 31 32
M  V30 32 2 8 33
M  V30 33 1 33 34
M  V30 34 1 34 35
M  V30 35 2 35 36
M  V30 36 1 36 37
M  V30 37 2 37 38
M  V30 38 2 4 39
M  V30 39 1 39 40
M  V30 40 1 40 2
M  V30 41 1 38 6
M  V30 42 1 32 10
M  V30 43 1 38 34
M  V30 44 1 30 18
M  V30 45 1 29 24
M  V30 46 1 1 41
M  V30 47 1 1 42
M  V30 48 1 1 43
M  V30 49 1 3 44
M  V30 50 1 5 45
M  V30 51 1 11 46
M  V30 52 1 12 47
M  V30 53 1 14 48
M  V30 54 1 17 49
M  V30 55 1 17 50
M  V30 56 1 19 51
M  V30 57 1 19 52
M  V30 58 1 20 53
M  V30 59 1 20 54
M  V30 60 1 21 55 CFG=1
M  V30 61 1 25 56
M  V30 62 1 25 57
M  V30 63 1 26 58
M  V30 64 1 26 59
M  V30 65 1 27 60
M  V30 66 1 27 61
M  V30 67 1 28 62
M  V30 68 1 28 63
M  V30 69 1 29 64
M  V30 70 1 29 65
M  V30 71 1 30 66
M  V30 72 1 30 67
M  V30 73 1 31 68
M  V30 74 1 32 69
M  V30 75 1 35 70
M  V30 76 1 36 71
M  V30 77 1 37 72
M  V30 78 1 40 73
M  V30 END BOND
M  V30 END CTAB
M  END
>  <Dataset>  (27) 
ChEMBL_Kinases

>  <Ligand_Instance>  (27) 
nan

>  <PDB_ID>  (27) 
nan

>  <Standardized_SMILES>  (27) 
Cc1cc(Nc2nc(Sc3ccc(NC(=O)CN4CC[C@@H](C(=O)N5CCCCC5)C4)cc3)nn3cccc23)n[nH]1

>  <Name>  (27) 
nan

>  <Pocket>  (27) 
nan

>  <ATP_Site>  (27) 
nan

>  <Peripheral>  (27) 
nan

>  <Num_H_Atoms_ProtBoundConf>  (27) 
nan

>  <Num_Resolved_Atoms>  (27) 
nan

>  <Num_Not_Resolved_Atoms>  (27) 
nan

$$$$
CHEMBL2163390
     RDKit          3D

  0  0  0  0  0  0  0  0  0  0999 V3000
M  V30 BEGIN CTAB
M  V30 COUNTS 71 76 0 0 0
M  V30 BEGIN ATOM
M  V30 1 C 6.999253 -2.017562 3.587706 0
M  V30 2 C 6.544839 -0.772618 2.899547 0
M  V30 3 C 6.700899 0.523193 3.340206 0
M  V30 4 C 6.113695 1.316221 2.356992 0
M  V30 5 N 6.040831 2.717256 2.390941 0
M  V30 6 C 5.401080 3.412495 1.311876 0
M  V30 7 N 4.911553 2.663422 0.322727 0
M  V30 8 C 4.278134 3.187634 -0.757655 0
M  V30 9 S 3.619339 2.180078 -2.093803 0
M  V30 10 C 1.935724 1.750319 -1.664474 0
M  V30 11 C 0.787744 2.454779 -1.962325 0
M  V30 12 C -0.430893 1.959428 -1.542545 0
M  V30 13 C -0.474022 0.773620 -0.836418 0
M  V30 14 N -1.740455 0.245677 -0.389803 0
M  V30 15 C -2.602063 -0.637742 -1.095176 0
M  V30 16 O -2.223812 -1.004108 -2.239192 0
M  V30 17 C -3.789185 -0.890206 -0.206918 0
M  V30 18 N -4.677019 -1.777726 -0.890663 0
M  V30 19 C -5.318314 -1.214568 -2.051277 0
M  V30 20 C -6.524678 -2.116451 -2.295521 0
M  V30 21 C -6.587812 -3.003917 -1.047940 0 CFG=1
M  V30 22 C -5.802560 -4.212624 -1.369771 0
M  V30 23 O -5.166585 -4.572493 -2.398086 0
M  V30 24 N -5.628091 -5.293816 -0.432526 0
M  V30 25 C -4.829954 -6.415031 -0.894136 0
M  V30 26 C -3.734530 -6.757662 0.091000 0
M  V30 27 O -4.241794 -6.966071 1.375185 0
M  V30 28 C -4.865885 -5.792760 1.809127 0
M  V30 29 C -6.072350 -5.565480 0.937187 0
M  V30 30 C -5.807746 -2.140609 -0.058351 0
M  V30 31 C 0.660589 0.027120 -0.512409 0
M  V30 32 C 1.876884 0.552808 -0.949709 0
M  V30 33 N 4.175136 4.519610 -0.766990 0
M  V30 34 N 4.648663 5.316192 0.198820 0
M  V30 35 C 4.637838 6.671418 0.359362 0
M  V30 36 C 5.275786 6.933714 1.552248 0
M  V30 37 C 5.694727 5.757459 2.156830 0
M  V30 38 C 5.275524 4.784772 1.266494 0
M  V30 39 N 5.636775 0.504970 1.385410 0
M  V30 40 N 5.901361 -0.739151 1.723320 0
M  V30 41 H 6.544179 -2.902567 3.098924 0
M  V30 42 H 8.097958 -2.145951 3.545194 0
M  V30 43 H 6.639659 -2.044954 4.645159 0
M  V30 44 H 7.183640 0.860370 4.266775 0
M  V30 45 H 6.435594 3.267598 3.172655 0
M  V30 46 H 0.956237 3.366099 -2.518989 0
M  V30 47 H -1.315183 2.530388 -1.788676 0
M  V30 48 H -1.795731 0.708268 0.565327 0
M  V30 49 H -3.438120 -1.377640 0.705462 0
M  V30 50 H -4.269781 0.071788 0.052593 0
M  V30 51 H -4.626754 -1.190232 -2.914119 0
M  V30 52 H -5.738378 -0.218870 -1.791003 0
M  V30 53 H -6.412128 -2.736640 -3.197960 0
M  V30 54 H -7.471286 -1.534064 -2.381944 0
M  V30 55 H -7.623228 -3.201194 -0.721181 0
M  V30 56 H -5.491047 -7.299938 -0.999032 0
M  V30 57 H -4.354099 -6.251652 -1.876452 0
M  V30 58 H -3.298635 -7.723388 -0.246575 0
M  V30 59 H -2.953234 -5.994285 0.127418 0
M  V30 60 H -4.205434 -4.903714 1.752206 0
M  V30 61 H -5.225169 -5.945505 2.851059 0
M  V30 62 H -6.722462 -4.751779 1.309459 0
M  V30 63 H -6.647067 -6.508899 0.898432 0
M  V30 64 H -5.504389 -2.693159 0.848345 0
M  V30 65 H -6.450893 -1.262014 0.135827 0
M  V30 66 H 0.578276 -0.895934 0.042004 0
M  V30 67 H 2.718203 -0.072041 -0.666576 0
M  V30 68 H 4.185567 7.325957 -0.374578 0
M  V30 69 H 5.420744 7.934914 1.948039 0
M  V30 70 H 6.220548 5.623041 3.093955 0
M  V30 71 H 5.601061 -1.525027 1.078560 0
M  V30 END ATOM
M  V30 BEGIN BOND
M  V30 1 1 1 2
M  V30 2 2 2 3
M  V30 3 1 3 4
M  V30 4 1 4 5
M  V30 5 1 5 6
M  V30 6 2 6 7
M  V30 7 1 7 8
M  V30 8 1 8 9
M  V30 9 1 9 10
M  V30 10 2 10 11
M  V30 11 1 11 12
M  V30 12 2 12 13
M  V30 13 1 13 14
M  V30 14 1 14 15
M  V30 15 2 15 16
M  V30 16 1 15 17
M  V30 17 1 17 18
M  V30 18 1 18 19
M  V30 19 1 19 20
M  V30 20 1 20 21
M  V30 21 1 21 22
M  V30 22 2 22 23
M  V30 23 1 22 24
M  V30 24 1 24 25
M  V30 25 1 25 26
M  V30 26 1 26 27
M  V30 27 1 27 28
M  V30 28 1 28 29
M  V30 29 1 21 30
M  V30 30 1 13 31
M  V30 31 2 31 32
M  V30 32 2 8 33
M  V30 33 1 33 34
M  V30 34 1 34 35
M  V30 35 2 35 36
M  V30 36 1 36 37
M  V30 37 2 37 38
M  V30 38 2 4 39
M  V30 39 1 39 40
M  V30 40 1 40 2
M  V30 41 1 38 6
M  V30 42 1 32 10
M  V30 43 1 38 34
M  V30 44 1 30 18
M  V30 45 1 29 24
M  V30 46 1 1 41
M  V30 47 1 1 42
M  V30 48 1 1 43
M  V30 49 1 3 44
M  V30 50 1 5 45
M  V30 51 1 11 46
M  V30 52 1 12 47
M  V30 53 1 14 48
M  V30 54 1 17 49
M  V30 55 1 17 50
M  V30 56 1 19 51
M  V30 57 1 19 52
M  V30 58 1 20 53
M  V30 59 1 20 54
M  V30 60 1 21 55 CFG=1
M  V30 61 1 25 56
M  V30 62 1 25 57
M  V30 63 1 26 58
M  V30 64 1 26 59
M  V30 65 1 28 60
M  V30 66 1 28 61
M  V30 67 1 29 62
M  V30 68 1 29 63
M  V30 69 1 30 64
M  V30 70 1 30 65
M  V30 71 1 31 66
M  V30 72 1 32 67
M  V30 73 1 35 68
M  V30 74 1 36 69
M  V30 75 1 37 70
M  V30 76 1 40 71
M  V30 END BOND
M  V30 END CTAB
M  END
>  <Dataset>  (28) 
ChEMBL_Kinases

>  <Ligand_Instance>  (28) 
nan

>  <PDB_ID>  (28) 
nan

>  <Standardized_SMILES>  (28) 
Cc1cc(Nc2nc(Sc3ccc(NC(=O)CN4CC[C@@H](C(=O)N5CCOCC5)C4)cc3)nn3cccc23)n[nH]1

>  <Name>  (28) 
nan

>  <Pocket>  (28) 
nan

>  <ATP_Site>  (28) 
nan

>  <Peripheral>  (28) 
nan

>  <Num_H_Atoms_ProtBoundConf>  (28) 
nan

>  <Num_Resolved_Atoms>  (28) 
nan

>  <Num_Not_Resolved_Atoms>  (28) 
nan

$$$$
CHEMBL2163391
     RDKit          3D

  0  0  0  0  0  0  0  0  0  0999 V3000
M  V30 BEGIN CTAB
M  V30 COUNTS 74 79 0 0 0
M  V30 BEGIN ATOM
M  V30 1 C 2.600927 4.427680 6.942178 0
M  V30 2 C 3.493226 3.503165 6.198626 0
M  V30 3 C 2.989976 2.281348 5.745171 0
M  V30 4 C 4.001506 1.612404 5.092393 0
M  V30 5 N 4.256869 0.397033 4.405261 0
M  V30 6 C 4.105587 0.141217 3.018699 0
M  V30 7 N 3.670540 1.076737 2.170060 0
M  V30 8 C 3.528949 0.829208 0.834842 0
M  V30 9 S 2.943365 2.089780 -0.293105 0
M  V30 10 C 1.144376 1.964824 -0.369353 0
M  V30 11 C 0.495266 0.989844 0.396923 0
M  V30 12 C -0.895704 0.929716 0.301346 0
M  V30 13 C -1.608161 1.796342 -0.516107 0
M  V30 14 N -3.049221 1.690212 -0.583549 0
M  V30 15 C -3.332364 0.757699 -1.650862 0
M  V30 16 O -2.194017 0.396599 -2.111811 0
M  V30 17 C -4.741744 0.421750 -1.985280 0
M  V30 18 N -4.878424 -0.501670 -3.046911 0
M  V30 19 C -4.512120 -0.088885 -4.348397 0
M  V30 20 C -3.378521 -0.942446 -4.782966 0
M  V30 21 C -3.489078 -2.183495 -3.965424 0 CFG=1
M  V30 22 C -2.152053 -2.661881 -3.498164 0
M  V30 23 O -1.180293 -1.930533 -3.884071 0
M  V30 24 N -2.008832 -3.823572 -2.701259 0
M  V30 25 C -3.007880 -4.766717 -2.179540 0
M  V30 26 C -2.894690 -4.881796 -0.692629 0
M  V30 27 C -1.506555 -4.844937 -0.149801 0
M  V30 28 O -1.592733 -4.456155 1.204467 0
M  V30 29 C -0.583679 -3.871816 -0.814524 0
M  V30 30 C -0.628141 -4.157528 -2.318317 0
M  V30 31 C -4.398593 -1.821601 -2.825396 0
M  V30 32 C -0.972535 2.743912 -1.260027 0
M  V30 33 C 0.404436 2.805451 -1.167064 0
M  V30 34 N 3.846424 -0.403505 0.399075 0
M  V30 35 N 4.285947 -1.362569 1.230037 0
M  V30 36 C 4.654473 -2.640291 1.015355 0
M  V30 37 C 5.035409 -3.217775 2.220243 0
M  V30 38 C 4.879694 -2.222901 3.184827 0
M  V30 39 C 4.420528 -1.102189 2.547815 0
M  V30 40 N 5.090867 2.416454 5.152283 0
M  V30 41 N 4.791296 3.527196 5.802574 0
M  V30 42 H 3.223908 5.113143 7.567796 0
M  V30 43 H 2.001686 5.050200 6.239265 0
M  V30 44 H 1.958230 3.843911 7.630812 0
M  V30 45 H 2.042106 1.747160 5.775021 0
M  V30 46 H 4.584528 -0.322114 5.067650 0
M  V30 47 H 1.038631 0.306739 1.039413 0
M  V30 48 H -1.465743 0.192394 0.871973 0
M  V30 49 H -3.815028 2.151766 -0.019776 0
M  V30 50 H -5.235379 1.369957 -2.278927 0
M  V30 51 H -5.288467 0.033272 -1.101410 0
M  V30 52 H -5.394326 -0.305048 -5.019137 0
M  V30 53 H -4.340140 0.996376 -4.464141 0
M  V30 54 H -3.518122 -1.178835 -5.878276 0
M  V30 55 H -2.379343 -0.471104 -4.708793 0
M  V30 56 H -3.892078 -2.993834 -4.599628 0
M  V30 57 H -4.022059 -4.498975 -2.468376 0
M  V30 58 H -2.685970 -5.765211 -2.596857 0
M  V30 59 H -3.313171 -5.897343 -0.431912 0
M  V30 60 H -3.568136 -4.171437 -0.172686 0
M  V30 61 H -1.006269 -5.834816 -0.133932 0
M  V30 62 H -1.981404 -3.557329 1.220727 0
M  V30 63 H -0.845279 -2.812450 -0.627706 0
M  V30 64 H 0.438139 -4.065969 -0.475256 0
M  V30 65 H 0.121411 -3.593186 -2.872958 0
M  V30 66 H -0.522547 -5.250605 -2.430472 0
M  V30 67 H -3.974478 -2.014826 -1.820525 0
M  V30 68 H -5.298456 -2.499929 -2.910271 0
M  V30 69 H -1.553743 3.402996 -1.885564 0
M  V30 70 H 0.885202 3.570619 -1.771302 0
M  V30 71 H 4.637149 -3.106143 0.017962 0
M  V30 72 H 5.379477 -4.227779 2.372380 0
M  V30 73 H 5.095009 -2.346912 4.255579 0
M  V30 74 H 5.296553 4.403798 6.083171 0
M  V30 END ATOM
M  V30 BEGIN BOND
M  V30 1 1 1 2
M  V30 2 2 2 3
M  V30 3 1 3 4
M  V30 4 1 4 5
M  V30 5 1 5 6
M  V30 6 2 6 7
M  V30 7 1 7 8
M  V30 8 1 8 9
M  V30 9 1 9 10
M  V30 10 2 10 11
M  V30 11 1 11 12
M  V30 12 2 12 13
M  V30 13 1 13 14
M  V30 14 1 14 15
M  V30 15 2 15 16
M  V30 16 1 15 17
M  V30 17 1 17 18
M  V30 18 1 18 19
M  V30 19 1 19 20
M  V30 20 1 20 21
M  V30 21 1 21 22
M  V30 22 2 22 23
M  V30 23 1 22 24
M  V30 24 1 24 25
M  V30 25 1 25 26
M  V30 26 1 26 27
M  V30 27 1 27 28
M  V30 28 1 27 29
M  V30 29 1 29 30
M  V30 30 1 21 31
M  V30 31 1 13 32
M  V30 32 2 32 33
M  V30 33 2 8 34
M  V30 34 1 34 35
M  V30 35 1 35 36
M  V30 36 2 36 37
M  V30 37 1 37 38
M  V30 38 2 38 39
M  V30 39 2 4 40
M  V30 40 1 40 41
M  V30 41 1 41 2
M  V30 42 1 39 6
M  V30 43 1 33 10
M  V30 44 1 39 35
M  V30 45 1 31 18
M  V30 46 1 30 24
M  V30 47 1 1 42
M  V30 48 1 1 43
M  V30 49 1 1 44
M  V30 50 1 3 45
M  V30 51 1 5 46
M  V30 52 1 11 47
M  V30 53 1 12 48
M  V30 54 1 14 49
M  V30 55 1 17 50
M  V30 56 1 17 51
M  V30 57 1 19 52
M  V30 58 1 19 53
M  V30 59 1 20 54
M  V30 60 1 20 55
M  V30 61 1 21 56 CFG=3
M  V30 62 1 25 57
M  V30 63 1 25 58
M  V30 64 1 26 59
M  V30 65 1 26 60
M  V30 66 1 27 61
M  V30 67 1 28 62
M  V30 68 1 29 63
M  V30 69 1 29 64
M  V30 70 1 30 65
M  V30 71 1 30 66
M  V30 72 1 31 67
M  V30 73 1 31 68
M  V30 74 1 32 69
M  V30 75 1 33 70
M  V30 76 1 36 71
M  V30 77 1 37 72
M  V30 78 1 38 73
M  V30 79 1 41 74
M  V30 END BOND
M  V30 END CTAB
M  END
>  <Dataset>  (29) 
ChEMBL_Kinases

>  <Ligand_Instance>  (29) 
nan

>  <PDB_ID>  (29) 
nan

>  <Standardized_SMILES>  (29) 
Cc1cc(Nc2nc(Sc3ccc(NC(=O)CN4CC[C@@H](C(=O)N5CCC(O)CC5)C4)cc3)nn3cccc23)n[nH]1

>  <Name>  (29) 
nan

>  <Pocket>  (29) 
nan

>  <ATP_Site>  (29) 
nan

>  <Peripheral>  (29) 
nan

>  <Num_H_Atoms_ProtBoundConf>  (29) 
nan

>  <Num_Resolved_Atoms>  (29) 
nan

>  <Num_Not_Resolved_Atoms>  (29) 
nan

$$$$
CHEMBL2163392
     RDKit          3D

  0  0  0  0  0  0  0  0  0  0999 V3000
M  V30 BEGIN CTAB
M  V30 COUNTS 79 84 0 0 0
M  V30 BEGIN ATOM
M  V30 1 C -1.392243 -3.464101 5.532806 0
M  V30 2 C -0.142776 -3.315896 4.724902 0
M  V30 3 C 0.992308 -2.616523 5.151429 0
M  V30 4 C 1.901660 -2.733883 4.100661 0
M  V30 5 N 3.180654 -2.167490 4.123600 0
M  V30 6 C 3.851086 -0.964864 3.755943 0
M  V30 7 N 4.387721 -0.846998 2.526276 0
M  V30 8 C 5.029541 0.279501 2.153704 0
M  V30 9 S 5.690766 0.305470 0.486113 0
M  V30 10 C 4.433264 0.964330 -0.627049 0
M  V30 11 C 4.696154 1.066266 -1.958383 0
M  V30 12 C 3.769250 1.566382 -2.839584 0
M  V30 13 C 2.544728 1.974688 -2.364970 0
M  V30 14 N 1.372949 2.526508 -2.990472 0
M  V30 15 C 0.513173 1.430269 -3.345816 0
M  V30 16 O 1.039426 0.342970 -3.014337 0
M  V30 17 C -0.809223 1.705125 -4.016498 0
M  V30 18 N -1.427701 0.450128 -4.228200 0
M  V30 19 C -0.818601 -0.366892 -5.196847 0
M  V30 20 C -1.861774 -1.292081 -5.740712 0
M  V30 21 C -3.041073 -1.050762 -4.794460 0 CFG=1
M  V30 22 C -2.848245 -1.907033 -3.617010 0
M  V30 23 O -1.824343 -2.625119 -3.824025 0
M  V30 24 N -3.571194 -2.030066 -2.402548 0
M  V30 25 C -2.915826 -3.043408 -1.595217 0
M  V30 26 C -3.572653 -3.253732 -0.276499 0
M  V30 27 N -3.640560 -2.159582 0.605320 0
M  V30 28 C -2.402826 -1.706504 1.148817 0
M  V30 29 C -1.865055 -0.474725 0.462246 0
M  V30 30 O -2.747270 0.189695 -0.335432 0
M  V30 31 C -4.062049 0.185168 0.022658 0
M  V30 32 C -4.620635 -1.165255 0.399412 0
M  V30 33 C -2.829091 0.430018 -4.434610 0
M  V30 34 C 2.257115 1.876904 -0.996660 0
M  V30 35 C 3.203805 1.367142 -0.105103 0
M  V30 36 N 5.111404 1.273816 3.053918 0
M  V30 37 N 4.585534 1.161415 4.261982 0
M  V30 38 C 4.590563 2.067843 5.256027 0
M  V30 39 C 3.913567 1.480578 6.316338 0
M  V30 40 C 3.486858 0.216862 5.992578 0
M  V30 41 C 3.928899 0.050208 4.688938 0
M  V30 42 N 1.339889 -3.462690 3.103364 0
M  V30 43 N 0.121927 -3.799169 3.496302 0
M  V30 44 H -1.651514 -2.541294 6.065355 0
M  V30 45 H -2.223045 -3.678403 4.820639 0
M  V30 46 H -1.282584 -4.267419 6.297688 0
M  V30 47 H 1.060945 -2.118906 6.113716 0
M  V30 48 H 3.943206 -2.764103 4.530089 0
M  V30 49 H 5.623683 0.772471 -2.419778 0
M  V30 50 H 3.808078 1.714423 -3.898891 0
M  V30 51 H 1.119271 3.524335 -3.185764 0
M  V30 52 H -0.573706 2.261547 -4.948542 0
M  V30 53 H -1.395826 2.309613 -3.307656 0
M  V30 54 H -0.504211 0.295948 -6.049077 0
M  V30 55 H 0.075057 -0.921696 -4.810682 0
M  V30 56 H -1.570838 -2.341083 -5.706400 0
M  V30 57 H -2.165600 -1.008251 -6.783536 0
M  V30 58 H -3.967594 -1.166056 -5.346757 0
M  V30 59 H -4.375586 -1.368223 -2.403527 0
M  V30 60 H -3.020904 -4.005440 -2.159954 0
M  V30 61 H -1.822074 -2.860192 -1.521188 0
M  V30 62 H -3.039347 -4.081447 0.229343 0
M  V30 63 H -4.626877 -3.586674 -0.491205 0
M  V30 64 H -2.576097 -1.454579 2.224692 0
M  V30 65 H -1.683433 -2.555273 1.166691 0
M  V30 66 H -1.421044 0.217821 1.203478 0
M  V30 67 H -1.051645 -0.865341 -0.218465 0
M  V30 68 H -4.650053 0.498683 -0.886202 0
M  V30 69 H -4.222770 0.960347 0.802429 0
M  V30 70 H -5.137147 -1.005177 1.393810 0
M  V30 71 H -5.410679 -1.530042 -0.258245 0
M  V30 72 H -3.454146 0.631090 -3.539611 0
M  V30 73 H -3.134220 1.030701 -5.304851 0
M  V30 74 H 1.354269 2.147293 -0.446411 0
M  V30 75 H 3.079585 1.253145 0.952821 0
M  V30 76 H 4.985294 3.062747 5.360782 0
M  V30 77 H 3.711957 1.910315 7.302732 0
M  V30 78 H 2.941435 -0.537773 6.534691 0
M  V30 79 H -0.570493 -4.373907 2.932685 0
M  V30 END ATOM
M  V30 BEGIN BOND
M  V30 1 1 1 2
M  V30 2 2 2 3
M  V30 3 1 3 4
M  V30 4 1 4 5
M  V30 5 1 5 6
M  V30 6 2 6 7
M  V30 7 1 7 8
M  V30 8 1 8 9
M  V30 9 1 9 10
M  V30 10 2 10 11
M  V30 11 1 11 12
M  V30 12 2 12 13
M  V30 13 1 13 14
M  V30 14 1 14 15
M  V30 15 2 15 16
M  V30 16 1 15 17
M  V30 17 1 17 18
M  V30 18 1 18 19
M  V30 19 1 19 20
M  V30 20 1 20 21
M  V30 21 1 21 22
M  V30 22 2 22 23
M  V30 23 1 22 24
M  V30 24 1 24 25
M  V30 25 1 25 26
M  V30 26 1 26 27
M  V30 27 1 27 28
M  V30 28 1 28 29
M  V30 29 1 29 30
M  V30 30 1 30 31
M  V30 31 1 31 32
M  V30 32 1 21 33
M  V30 33 1 13 34
M  V30 34 2 34 35
M  V30 35 2 8 36
M  V30 36 1 36 37
M  V30 37 1 37 38
M  V30 38 2 38 39
M  V30 39 1 39 40
M  V30 40 2 40 41
M  V30 41 2 4 42
M  V30 42 1 42 43
M  V30 43 1 43 2
M  V30 44 1 41 6
M  V30 45 1 35 10
M  V30 46 1 41 37
M  V30 47 1 33 18
M  V30 48 1 32 27
M  V30 49 1 1 44
M  V30 50 1 1 45
M  V30 51 1 1 46
M  V30 52 1 3 47
M  V30 53 1 5 48
M  V30 54 1 11 49
M  V30 55 1 12 50
M  V30 56 1 14 51
M  V30 57 1 17 52
M  V30 58 1 17 53
M  V30 59 1 19 54
M  V30 60 1 19 55
M  V30 61 1 20 56
M  V30 62 1 20 57
M  V30 63 1 21 58 CFG=3
M  V30 64 1 24 59
M  V30 65 1 25 60
M  V30 66 1 25 61
M  V30 67 1 26 62
M  V30 68 1 26 63
M  V30 69 1 28 64
M  V30 70 1 28 65
M  V30 71 1 29 66
M  V30 72 1 29 67
M  V30 73 1 31 68
M  V30 74 1 31 69
M  V30 75 1 32 70
M  V30 76 1 32 71
M  V30 77 1 33 72
M  V30 78 1 33 73
M  V30 79 1 34 74
M  V30 80 1 35 75
M  V30 81 1 38 76
M  V30 82 1 39 77
M  V30 83 1 40 78
M  V30 84 1 43 79
M  V30 END BOND
M  V30 END CTAB
M  END
>  <Dataset>  (30) 
ChEMBL_Kinases

>  <Ligand_Instance>  (30) 
nan

>  <PDB_ID>  (30) 
nan

>  <Standardized_SMILES>  (30) 
Cc1cc(Nc2nc(Sc3ccc(NC(=O)CN4CC[C@@H](C(=O)NCCN5CCOCC5)C4)cc3)nn3cccc23)n[nH]1

>  <Name>  (30) 
nan

>  <Pocket>  (30) 
nan

>  <ATP_Site>  (30) 
nan

>  <Peripheral>  (30) 
nan

>  <Num_H_Atoms_ProtBoundConf>  (30) 
nan

>  <Num_Resolved_Atoms>  (30) 
nan

>  <Num_Not_Resolved_Atoms>  (30) 
nan

$$$$
CHEMBL2163393
     RDKit          3D

  0  0  0  0  0  0  0  0  0  0999 V3000
M  V30 BEGIN CTAB
M  V30 COUNTS 70 75 0 0 0
M  V30 BEGIN ATOM
M  V30 1 C 7.567582 -2.947760 6.479161 0
M  V30 2 C 7.630569 -1.798618 5.537303 0
M  V30 3 C 6.974537 -0.620352 5.829339 0
M  V30 4 C 7.245637 0.205671 4.758066 0
M  V30 5 N 6.944052 1.528427 4.328162 0
M  V30 6 C 5.745870 1.550923 3.550937 0
M  V30 7 N 5.873161 1.365666 2.210143 0
M  V30 8 C 4.770894 1.377159 1.419308 0
M  V30 9 S 4.920725 1.131656 -0.360715 0
M  V30 10 C 3.294140 1.200644 -1.121943 0
M  V30 11 C 2.605080 -0.011661 -1.221157 0
M  V30 12 C 1.339314 0.035635 -1.814435 0
M  V30 13 C 0.827443 1.235838 -2.267788 0
M  V30 14 N -0.469855 1.063381 -2.836334 0
M  V30 15 C -1.439461 1.229929 -1.800242 0
M  V30 16 O -1.007624 1.492975 -0.621374 0
M  V30 17 C -2.896679 1.189059 -1.664401 0
M  V30 18 N -3.617721 0.876401 -2.878648 0
M  V30 19 C -5.058899 0.984489 -2.636222 0
M  V30 20 C -5.345820 -0.208181 -1.789481 0
M  V30 21 C -4.404266 -1.257672 -2.317046 0 CFG=1
M  V30 22 C -5.219103 -2.254225 -3.060326 0
M  V30 23 O -5.305906 -2.708400 -4.239574 0
M  V30 24 N -6.132657 -2.819866 -2.147063 0
M  V30 25 C -7.139345 -3.806201 -2.289300 0
M  V30 26 C -6.715076 -5.124379 -2.077812 0
M  V30 27 C -7.542440 -6.247679 -2.163870 0
M  V30 28 C -8.886779 -6.025170 -2.484524 0
M  V30 29 F -9.720668 -7.089327 -2.576353 0
M  V30 30 C -9.324601 -4.712514 -2.698698 0
M  V30 31 C -8.474313 -3.631268 -2.603884 0
M  V30 32 C -3.449394 -0.529467 -3.238870 0
M  V30 33 C 1.538627 2.410949 -2.151542 0
M  V30 34 C 2.790192 2.403059 -1.571993 0
M  V30 35 N 3.540920 1.574014 1.968618 0
M  V30 36 N 3.448429 1.752126 3.280941 0
M  V30 37 C 2.319156 1.961899 4.010763 0
M  V30 38 C 2.728078 2.090416 5.339004 0
M  V30 39 C 4.105402 1.959064 5.418220 0
M  V30 40 C 4.505002 1.750742 4.115153 0
M  V30 41 N 8.031294 -0.480874 3.883522 0
M  V30 42 N 8.275282 -1.695853 4.337324 0
M  V30 43 H 8.193251 -2.803900 7.381341 0
M  V30 44 H 6.536239 -3.171715 6.830202 0
M  V30 45 H 7.865282 -3.874967 5.910711 0
M  V30 46 H 6.368028 -0.227926 6.604031 0
M  V30 47 H 7.601343 2.314655 4.612390 0
M  V30 48 H 3.056169 -0.935699 -0.846110 0
M  V30 49 H 0.854083 -0.934207 -1.862699 0
M  V30 50 H -0.972467 0.868199 -3.715915 0
M  V30 51 H -3.234570 0.432651 -0.901281 0
M  V30 52 H -3.300603 2.156792 -1.271116 0
M  V30 53 H -5.290044 1.951030 -2.185717 0
M  V30 54 H -5.580531 0.946547 -3.614542 0
M  V30 55 H -5.210138 0.009393 -0.710702 0
M  V30 56 H -6.414380 -0.539326 -1.877703 0
M  V30 57 H -3.861503 -1.786354 -1.500555 0
M  V30 58 H -6.307988 -2.655708 -1.110721 0
M  V30 59 H -5.664861 -5.336553 -1.824891 0
M  V30 60 H -7.133045 -7.224901 -1.985556 0
M  V30 61 H -10.363264 -4.544452 -2.945570 0
M  V30 62 H -8.763069 -2.612097 -2.759170 0
M  V30 63 H -2.421641 -0.880988 -3.140916 0
M  V30 64 H -3.858419 -0.641389 -4.261807 0
M  V30 65 H 1.047897 3.287221 -2.536458 0
M  V30 66 H 3.340145 3.330897 -1.485297 0
M  V30 67 H 1.292763 2.017170 3.622405 0
M  V30 68 H 2.051103 2.265310 6.158237 0
M  V30 69 H 4.741714 2.007665 6.303878 0
M  V30 70 H 8.839499 -2.452325 3.899669 0
M  V30 END ATOM
M  V30 BEGIN BOND
M  V30 1 1 1 2
M  V30 2 2 2 3
M  V30 3 1 3 4
M  V30 4 1 4 5
M  V30 5 1 5 6
M  V30 6 2 6 7
M  V30 7 1 7 8
M  V30 8 1 8 9
M  V30 9 1 9 10
M  V30 10 2 10 11
M  V30 11 1 11 12
M  V30 12 2 12 13
M  V30 13 1 13 14
M  V30 14 1 14 15
M  V30 15 2 15 16
M  V30 16 1 15 17
M  V30 17 1 17 18
M  V30 18 1 18 19
M  V30 19 1 19 20
M  V30 20 1 20 21
M  V30 21 1 21 22
M  V30 22 2 22 23
M  V30 23 1 22 24
M  V30 24 1 24 25
M  V30 25 2 25 26
M  V30 26 1 26 27
M  V30 27 2 27 28
M  V30 28 1 28 29
M  V30 29 1 28 30
M  V30 30 2 30 31
M  V30 31 1 21 32
M  V30 32 1 13 33
M  V30 33 2 33 34
M  V30 34 2 8 35
M  V30 35 1 35 36
M  V30 36 1 36 37
M  V30 37 2 37 38
M  V30 38 1 38 39
M  V30 39 2 39 40
M  V30 40 2 4 41
M  V30 41 1 41 42
M  V30 42 1 42 2
M  V30 43 1 40 6
M  V30 44 1 34 10
M  V30 45 1 40 36
M  V30 46 1 32 18
M  V30 47 1 31 25
M  V30 48 1 1 43
M  V30 49 1 1 44
M  V30 50 1 1 45
M  V30 51 1 3 46
M  V30 52 1 5 47
M  V30 53 1 11 48
M  V30 54 1 12 49
M  V30 55 1 14 50
M  V30 56 1 17 51
M  V30 57 1 17 52
M  V30 58 1 19 53
M  V30 59 1 19 54
M  V30 60 1 20 55
M  V30 61 1 20 56
M  V30 62 1 21 57 CFG=1
M  V30 63 1 24 58
M  V30 64 1 26 59
M  V30 65 1 27 60
M  V30 66 1 30 61
M  V30 67 1 31 62
M  V30 68 1 32 63
M  V30 69 1 32 64
M  V30 70 1 33 65
M  V30 71 1 34 66
M  V30 72 1 37 67
M  V30 73 1 38 68
M  V30 74 1 39 69
M  V30 75 1 42 70
M  V30 END BOND
M  V30 END CTAB
M  END
>  <Dataset>  (31) 
ChEMBL_Kinases

>  <Ligand_Instance>  (31) 
nan

>  <PDB_ID>  (31) 
nan

>  <Standardized_SMILES>  (31) 
Cc1cc(Nc2nc(Sc3ccc(NC(=O)CN4CC[C@@H](C(=O)Nc5ccc(F)cc5)C4)cc3)nn3cccc23)n[nH]1

>  <Name>  (31) 
nan

>  <Pocket>  (31) 
nan

>  <ATP_Site>  (31) 
nan

>  <Peripheral>  (31) 
nan

>  <Num_H_Atoms_ProtBoundConf>  (31) 
nan

>  <Num_Resolved_Atoms>  (31) 
nan

>  <Num_Not_Resolved_Atoms>  (31) 
nan

$$$$
CHEMBL216260
     RDKit          3D

  0  0  0  0  0  0  0  0  0  0999 V3000
M  V30 BEGIN CTAB
M  V30 COUNTS 48 51 0 0 0
M  V30 BEGIN ATOM
M  V30 1 O -0.222375 -2.432887 3.170274 0
M  V30 2 C 0.379831 -2.967057 4.170696 0
M  V30 3 N 1.786757 -2.917468 4.050362 0
M  V30 4 C 1.987852 -2.252408 2.783449 0
M  V30 5 C 2.129297 -2.903209 1.577207 0
M  V30 6 C 2.299242 -2.159404 0.443678 0
M  V30 7 C 2.317861 -0.776285 0.586538 0
M  V30 8 C 2.178374 -0.101322 1.780592 0
M  V30 9 N 2.190462 1.312634 1.871695 0
M  V30 10 C 2.287260 2.116817 0.702641 0
M  V30 11 C 3.161542 3.092534 0.309167 0
M  V30 12 C 3.000862 3.702763 -0.911616 0
M  V30 13 N 1.985679 3.319949 -1.685073 0
M  V30 14 C 1.097993 2.365859 -1.346415 0
M  V30 15 N 0.062332 2.044303 -2.256923 0
M  V30 16 C -0.968995 1.088009 -2.100016 0
M  V30 17 C -1.146795 0.271143 -1.010317 0
M  V30 18 C -2.139362 -0.650105 -0.856376 0
M  V30 19 C -3.063488 -0.800096 -1.865564 0
M  V30 20 C -2.947484 -0.021161 -2.976966 0
M  V30 21 C -3.924287 -0.157843 -4.085416 0
M  V30 22 F -4.862679 0.841065 -3.927559 0
M  V30 23 F -3.302910 -0.133362 -5.318573 0
M  V30 24 F -4.575567 -1.388858 -3.972472 0
M  V30 25 C -1.913249 0.901204 -3.077293 0
M  V30 26 N 1.279813 1.795193 -0.160805 0
M  V30 27 C 2.006575 -0.863794 2.926447 0
M  V30 28 C -0.519951 -3.512903 5.221983 0
M  V30 29 C -1.819996 -2.776818 5.477042 0
M  V30 30 C -1.872962 -4.051586 4.718364 0
M  V30 31 H 2.257398 -3.362848 4.887354 0
M  V30 32 H 2.099621 -3.976728 1.586454 0
M  V30 33 H 2.413404 -2.642515 -0.517293 0
M  V30 34 H 2.457119 -0.241525 -0.345816 0
M  V30 35 H 2.127435 1.772626 2.792551 0
M  V30 36 H 3.923147 3.264320 1.078878 0
M  V30 37 H 3.730638 4.461100 -1.148680 0
M  V30 38 H 0.043654 2.573965 -3.176216 0
M  V30 39 H -0.478902 0.317358 -0.181577 0
M  V30 40 H -2.258452 -1.280202 0.010920 0
M  V30 41 H -3.869828 -1.514222 -1.795380 0
M  V30 42 H -1.881952 1.490200 -3.997376 0
M  V30 43 H 1.897538 -0.344494 3.860734 0
M  V30 44 H -0.118621 -4.016622 6.108934 0
M  V30 45 H -1.956267 -1.848041 4.849070 0
M  V30 46 H -2.233065 -2.772497 6.487201 0
M  V30 47 H -2.008482 -4.050454 3.601203 0
M  V30 48 H -2.271993 -4.981538 5.155014 0
M  V30 END ATOM
M  V30 BEGIN BOND
M  V30 1 2 1 2
M  V30 2 1 2 3
M  V30 3 1 3 4
M  V30 4 2 4 5
M  V30 5 1 5 6
M  V30 6 2 6 7
M  V30 7 1 7 8
M  V30 8 1 8 9
M  V30 9 1 9 10
M  V30 10 2 10 11
M  V30 11 1 11 12
M  V30 12 2 12 13
M  V30 13 1 13 14
M  V30 14 1 14 15
M  V30 15 1 15 16
M  V30 16 2 16 17
M  V30 17 1 17 18
M  V30 18 2 18 19
M  V30 19 1 19 20
M  V30 20 1 20 21
M  V30 21 1 21 22
M  V30 22 1 21 23
M  V30 23 1 21 24
M  V30 24 2 20 25
M  V30 25 2 14 26
M  V30 26 2 8 27
M  V30 27 1 2 28
M  V30 28 1 28 29
M  V30 29 1 29 30
M  V30 30 1 27 4
M  V30 31 1 30 28
M  V30 32 1 26 10
M  V30 33 1 25 16
M  V30 34 1 3 31
M  V30 35 1 5 32
M  V30 36 1 6 33
M  V30 37 1 7 34
M  V30 38 1 9 35
M  V30 39 1 11 36
M  V30 40 1 12 37
M  V30 41 1 15 38
M  V30 42 1 17 39
M  V30 43 1 18 40
M  V30 44 1 19 41
M  V30 45 1 25 42
M  V30 46 1 27 43
M  V30 47 1 28 44
M  V30 48 1 29 45
M  V30 49 1 29 46
M  V30 50 1 30 47
M  V30 51 1 30 48
M  V30 END BOND
M  V30 END CTAB
M  END
>  <Dataset>  (32) 
ChEMBL_Kinases

>  <Ligand_Instance>  (32) 
nan

>  <PDB_ID>  (32) 
nan

>  <Standardized_SMILES>  (32) 
O=C(Nc1cccc(Nc2ccnc(Nc3cccc(C(F)(F)F)c3)n2)c1)C1CC1

>  <Name>  (32) 
nan

>  <Pocket>  (32) 
nan

>  <ATP_Site>  (32) 
nan

>  <Peripheral>  (32) 
nan

>  <Num_H_Atoms_ProtBoundConf>  (32) 
nan

>  <Num_Resolved_Atoms>  (32) 
nan

>  <Num_Not_Resolved_Atoms>  (32) 
nan

$$$$
CHEMBL217126
     RDKit          3D

  0  0  0  0  0  0  0  0  0  0999 V3000
M  V30 BEGIN CTAB
M  V30 COUNTS 50 52 0 0 0
M  V30 BEGIN ATOM
M  V30 1 C 2.691742 -1.690655 2.043799 0
M  V30 2 C 3.069662 -0.294987 2.485811 0
M  V30 3 C 2.567306 0.005165 3.879206 0
M  V30 4 O 1.169581 0.007189 3.883140 0
M  V30 5 N 2.615174 0.692354 1.527470 0
M  V30 6 C 3.259780 0.790171 0.423840 0
M  V30 7 N 4.339343 -0.131819 0.359633 0
M  V30 8 C 2.842531 1.773348 -0.567683 0
M  V30 9 C 3.576474 1.823313 -1.720850 0
M  V30 10 O 4.674240 1.117688 -2.189366 0
M  V30 11 N 3.216628 2.732969 -2.659690 0
M  V30 12 S 1.772749 3.580271 -1.914609 0
M  V30 13 C 1.819757 2.629235 -0.452339 0
M  V30 14 N 0.942345 2.705407 0.684555 0
M  V30 15 C -0.273213 1.958801 0.634128 0
M  V30 16 C -1.210027 1.861261 1.653626 0
M  V30 17 C -2.358155 1.123633 1.512834 0
M  V30 18 C -2.649005 0.437023 0.352955 0
M  V30 19 O -3.789378 -0.318878 0.160009 0
M  V30 20 C -3.791972 -1.667887 -0.128167 0
M  V30 21 C -4.399544 -2.002504 -1.337915 0
M  V30 22 C -4.479705 -3.312460 -1.763046 0
M  V30 23 C -3.948651 -4.287512 -0.971627 0
M  V30 24 C -3.339375 -4.013792 0.228731 0
M  V30 25 C -2.774678 -5.087313 1.059121 0
M  V30 26 F -2.978042 -6.309038 0.423169 0
M  V30 27 F -1.407266 -4.895632 1.181436 0
M  V30 28 F -3.355385 -5.119575 2.302319 0
M  V30 29 C -3.261808 -2.704441 0.648840 0
M  V30 30 Cl -2.517238 -2.224459 2.146051 0
M  V30 31 C -1.759029 0.495117 -0.692647 0
M  V30 32 Cl -2.017773 -0.335467 -2.218198 0
M  V30 33 C -0.625389 1.242337 -0.510909 0
M  V30 34 H 2.042860 -2.215421 2.782493 0
M  V30 35 H 3.592310 -2.338491 1.940384 0
M  V30 36 H 2.104052 -1.668538 1.090356 0
M  V30 37 H 4.191166 -0.190587 2.522747 0
M  V30 38 H 2.939078 0.973082 4.227165 0
M  V30 39 H 2.899964 -0.767022 4.576702 0
M  V30 40 H 0.787046 -0.848918 3.628787 0
M  V30 41 H 5.366124 -0.063928 0.523653 0
M  V30 42 H 5.381575 -0.010493 0.538026 0
M  V30 43 H 4.629692 0.097723 -2.203747 0
M  V30 44 H 1.104309 3.255034 1.550530 0
M  V30 45 H -0.960958 2.413822 2.566509 0
M  V30 46 H -3.072403 1.070431 2.338525 0
M  V30 47 H -4.852174 -1.293334 -2.036239 0
M  V30 48 H -4.949547 -3.597031 -2.704556 0
M  V30 49 H -4.003682 -5.323540 -1.292170 0
M  V30 50 H 0.080429 1.286908 -1.343530 0
M  V30 END ATOM
M  V30 BEGIN BOND
M  V30 1 1 1 2
M  V30 2 1 2 3
M  V30 3 1 3 4
M  V30 4 1 2 5
M  V30 5 2 5 6
M  V30 6 1 6 7
M  V30 7 1 6 8
M  V30 8 1 8 9
M  V30 9 1 9 10
M  V30 10 2 9 11
M  V30 11 1 11 12
M  V30 12 1 12 13
M  V30 13 1 13 14
M  V30 14 1 14 15
M  V30 15 2 15 16
M  V30 16 1 16 17
M  V30 17 2 17 18
M  V30 18 1 18 19
M  V30 19 1 19 20
M  V30 20 2 20 21
M  V30 21 1 21 22
M  V30 22 2 22 23
M  V30 23 1 23 24
M  V30 24 1 24 25
M  V30 25 1 25 26
M  V30 26 1 25 27
M  V30 27 1 25 28
M  V30 28 2 24 29
M  V30 29 1 29 30
M  V30 30 1 18 31
M  V30 31 1 31 32
M  V30 32 2 31 33
M  V30 33 2 13 8
M  V30 34 1 33 15
M  V30 35 1 29 20
M  V30 36 1 1 34
M  V30 37 1 1 35
M  V30 38 1 1 36
M  V30 39 1 2 37
M  V30 40 1 3 38
M  V30 41 1 3 39
M  V30 42 1 4 40
M  V30 43 1 7 41
M  V30 44 1 7 42
M  V30 45 1 10 43
M  V30 46 1 14 44
M  V30 47 1 16 45
M  V30 48 1 17 46
M  V30 49 1 21 47
M  V30 50 1 22 48
M  V30 51 1 23 49
M  V30 52 1 33 50
M  V30 END BOND
M  V30 END CTAB
M  END
>  <Dataset>  (33) 
ChEMBL_Kinases

>  <Ligand_Instance>  (33) 
nan

>  <PDB_ID>  (33) 
nan

>  <Standardized_SMILES>  (33) 
CC(CO)/N=C(\N)c1c(O)nsc1Nc1ccc(Oc2cccc(C(F)(F)F)c2Cl)c(Cl)c1

>  <Name>  (33) 
nan

>  <Pocket>  (33) 
nan

>  <ATP_Site>  (33) 
nan

>  <Peripheral>  (33) 
nan

>  <Num_H_Atoms_ProtBoundConf>  (33) 
nan

>  <Num_Resolved_Atoms>  (33) 
nan

>  <Num_Not_Resolved_Atoms>  (33) 
nan

$$$$
CHEMBL217117
     RDKit          3D

  0  0  0  0  0  0  0  0  0  0999 V3000
M  V30 BEGIN CTAB
M  V30 COUNTS 49 51 0 0 0
M  V30 BEGIN ATOM
M  V30 1 C 1.926966 -2.410164 -0.912884 0
M  V30 2 C 3.332079 -1.844892 -0.956163 0
M  V30 3 C 4.262495 -2.637637 -0.076276 0
M  V30 4 O 4.234399 -3.998513 -0.379684 0
M  V30 5 N 3.344489 -0.424977 -0.661457 0
M  V30 6 C 2.790649 0.078865 0.378392 0
M  V30 7 N 2.103757 -0.669991 1.363471 0
M  V30 8 C 2.781764 1.480856 0.688156 0
M  V30 9 C 3.399386 2.338830 -0.169247 0
M  V30 10 O 4.097168 2.108326 -1.375429 0
M  V30 11 N 3.507640 3.751421 -0.070782 0
M  V30 12 S 2.567341 3.915914 1.525699 0
M  V30 13 C 2.247177 2.263512 1.731905 0
M  V30 14 N 1.540432 1.655276 2.799798 0
M  V30 15 C 0.161917 1.337528 2.509651 0
M  V30 16 C -0.328706 1.542505 1.223565 0
M  V30 17 C -1.662897 1.201776 1.005223 0
M  V30 18 C -2.452934 0.689402 2.012377 0
M  V30 19 S -4.080759 0.332312 1.475211 0
M  V30 20 O -4.546797 1.258730 0.392210 0
M  V30 21 O -5.053363 0.440266 2.612425 0
M  V30 22 C -4.181220 -1.310988 0.856915 0
M  V30 23 C -3.895285 -1.483148 -0.495330 0
M  V30 24 C -3.952462 -2.757994 -1.062464 0
M  V30 25 C -4.298931 -3.808334 -0.231037 0
M  V30 26 C -4.585170 -3.676564 1.095023 0
M  V30 27 C -4.519737 -2.410935 1.621402 0
M  V30 28 C -1.976079 0.484794 3.285669 0
M  V30 29 C -0.655447 0.818994 3.511095 0
M  V30 30 H 1.772327 -3.122352 -0.072800 0
M  V30 31 H 1.664502 -2.971972 -1.843355 0
M  V30 32 H 1.222655 -1.553479 -0.841120 0
M  V30 33 H 3.688327 -1.951240 -1.997778 0
M  V30 34 H 3.952577 -2.479785 0.997136 0
M  V30 35 H 5.300872 -2.288944 -0.149549 0
M  V30 36 H 3.833558 -4.185234 -1.274221 0
M  V30 37 H 2.176918 -1.047593 2.327019 0
M  V30 38 H 1.220091 -1.175913 1.560351 0
M  V30 39 H 3.637640 1.962507 -2.250248 0
M  V30 40 H 1.910805 1.423912 3.741635 0
M  V30 41 H 0.289261 1.939330 0.445556 0
M  V30 42 H -1.987826 1.386326 -0.027971 0
M  V30 43 H -3.620309 -0.645305 -1.154562 0
M  V30 44 H -3.728028 -2.909720 -2.125909 0
M  V30 45 H -4.331353 -4.772416 -0.709396 0
M  V30 46 H -4.858686 -4.524088 1.734187 0
M  V30 47 H -4.730943 -2.200589 2.664253 0
M  V30 48 H -2.657716 0.083725 4.008050 0
M  V30 49 H -0.269645 0.660214 4.516887 0
M  V30 END ATOM
M  V30 BEGIN BOND
M  V30 1 1 1 2
M  V30 2 1 2 3
M  V30 3 1 3 4
M  V30 4 1 2 5
M  V30 5 2 5 6
M  V30 6 1 6 7
M  V30 7 1 6 8
M  V30 8 1 8 9
M  V30 9 1 9 10
M  V30 10 2 9 11
M  V30 11 1 11 12
M  V30 12 1 12 13
M  V30 13 1 13 14
M  V30 14 1 14 15
M  V30 15 2 15 16
M  V30 16 1 16 17
M  V30 17 2 17 18
M  V30 18 1 18 19
M  V30 19 2 19 20
M  V30 20 2 19 21
M  V30 21 1 19 22
M  V30 22 2 22 23
M  V30 23 1 23 24
M  V30 24 2 24 25
M  V30 25 1 25 26
M  V30 26 2 26 27
M  V30 27 1 18 28
M  V30 28 2 28 29
M  V30 29 2 13 8
M  V30 30 1 29 15
M  V30 31 1 27 22
M  V30 32 1 1 30
M  V30 33 1 1 31
M  V30 34 1 1 32
M  V30 35 1 2 33
M  V30 36 1 3 34
M  V30 37 1 3 35
M  V30 38 1 4 36
M  V30 39 1 7 37
M  V30 40 1 7 38
M  V30 41 1 10 39
M  V30 42 1 14 40
M  V30 43 1 16 41
M  V30 44 1 17 42
M  V30 45 1 23 43
M  V30 46 1 24 44
M  V30 47 1 25 45
M  V30 48 1 26 46
M  V30 49 1 27 47
M  V30 50 1 28 48
M  V30 51 1 29 49
M  V30 END BOND
M  V30 END CTAB
M  END
>  <Dataset>  (34) 
ChEMBL_Kinases

>  <Ligand_Instance>  (34) 
nan

>  <PDB_ID>  (34) 
nan

>  <Standardized_SMILES>  (34) 
CC(CO)/N=C(\N)c1c(O)nsc1Nc1ccc(S(=O)(=O)c2ccccc2)cc1

>  <Name>  (34) 
nan

>  <Pocket>  (34) 
nan

>  <ATP_Site>  (34) 
nan

>  <Peripheral>  (34) 
nan

>  <Num_H_Atoms_ProtBoundConf>  (34) 
nan

>  <Num_Resolved_Atoms>  (34) 
nan

>  <Num_Not_Resolved_Atoms>  (34) 
nan

$$$$
CHEMBL2171145
     RDKit          3D

  0  0  0  0  0  0  0  0  0  0999 V3000
M  V30 BEGIN CTAB
M  V30 COUNTS 53 57 0 0 0
M  V30 BEGIN ATOM
M  V30 1 C -0.449025 -0.265051 6.758378 0
M  V30 2 C 0.530196 -0.696018 5.723172 0
M  V30 3 C 1.822739 -0.994686 6.112623 0
M  V30 4 C 2.775198 -1.403243 5.199353 0
M  V30 5 C 2.442469 -1.517921 3.871364 0
M  V30 6 C 3.176485 -1.903278 2.631109 0
M  V30 7 C 3.531799 -0.758672 1.803337 0
M  V30 8 O 4.519739 -0.140373 2.266707 0
M  V30 9 N 3.113212 -0.105372 0.628800 0
M  V30 10 C 3.523344 1.052510 -0.156212 0
M  V30 11 C 2.177613 1.805812 -0.231462 0
M  V30 12 C 1.321077 0.647105 -0.637710 0
M  V30 13 C 0.147538 0.483478 -1.360903 0
M  V30 14 C -0.398399 -0.793548 -1.593311 0
M  V30 15 C -1.629819 -0.643118 -2.359885 0
M  V30 16 C -1.815405 0.005612 -3.588459 0
M  V30 17 N -3.110506 -0.101486 -3.933424 0
M  V30 18 C -3.635758 0.461628 -5.164777 0
M  V30 19 C -3.797872 -0.783712 -3.007099 0
M  V30 20 N -5.089512 -1.132531 -2.906723 0
M  V30 21 C -5.501497 -1.821925 -1.836368 0
M  V30 22 N -4.681467 -2.191390 -0.838579 0
M  V30 23 C -3.381316 -1.835433 -0.949151 0
M  V30 24 N -2.514400 -2.230603 0.106521 0
M  V30 25 C -2.884358 -1.125537 -2.022122 0
M  V30 26 C 0.217439 -1.919604 -1.112723 0
M  V30 27 C 1.380747 -1.765773 -0.395488 0
M  V30 28 C 1.951977 -0.509923 -0.140829 0
M  V30 29 C 1.127761 -1.213281 3.481584 0
M  V30 30 C 0.149046 -0.798531 4.391483 0
M  V30 31 H -0.872549 -1.137791 7.287720 0
M  V30 32 H -1.295573 0.247004 6.219803 0
M  V30 33 H -0.033604 0.491672 7.449565 0
M  V30 34 H 2.190498 -0.937605 7.127385 0
M  V30 35 H 3.808308 -1.670785 5.322941 0
M  V30 36 H 2.590702 -2.632979 2.065189 0
M  V30 37 H 4.099139 -2.465582 2.982598 0
M  V30 38 H 4.222936 1.719565 0.364267 0
M  V30 39 H 3.854290 0.778528 -1.162814 0
M  V30 40 H 1.906827 2.253348 0.716831 0
M  V30 41 H 2.284189 2.542770 -1.041933 0
M  V30 42 H -0.240892 1.437941 -1.688862 0
M  V30 43 H -0.949699 0.463413 -4.041564 0
M  V30 44 H -2.900017 1.128564 -5.657768 0
M  V30 45 H -4.605535 1.001181 -4.968000 0
M  V30 46 H -3.873603 -0.393673 -5.839662 0
M  V30 47 H -6.571825 -2.060787 -1.834332 0
M  V30 48 H -2.345236 -3.275965 0.213945 0
M  V30 49 H -2.047760 -3.013228 0.607756 0
M  V30 50 H -0.268846 -2.827023 -1.355016 0
M  V30 51 H 1.828550 -2.671587 -0.051653 0
M  V30 52 H 0.671689 -1.240745 2.478672 0
M  V30 53 H -0.884970 -0.555355 4.133333 0
M  V30 END ATOM
M  V30 BEGIN BOND
M  V30 1 1 1 2
M  V30 2 2 2 3
M  V30 3 1 3 4
M  V30 4 2 4 5
M  V30 5 1 5 6
M  V30 6 1 6 7
M  V30 7 2 7 8
M  V30 8 1 7 9
M  V30 9 1 9 10
M  V30 10 1 10 11
M  V30 11 1 11 12
M  V30 12 2 12 13
M  V30 13 1 13 14
M  V30 14 1 14 15
M  V30 15 2 15 16
M  V30 16 1 16 17
M  V30 17 1 17 18
M  V30 18 1 17 19
M  V30 19 2 19 20
M  V30 20 1 20 21
M  V30 21 2 21 22
M  V30 22 1 22 23
M  V30 23 1 23 24
M  V30 24 2 23 25
M  V30 25 2 14 26
M  V30 26 1 26 27
M  V30 27 2 27 28
M  V30 28 1 5 29
M  V30 29 2 29 30
M  V30 30 1 30 2
M  V30 31 1 28 9
M  V30 32 1 28 12
M  V30 33 1 25 15
M  V30 34 1 25 19
M  V30 35 1 1 31
M  V30 36 1 1 32
M  V30 37 1 1 33
M  V30 38 1 3 34
M  V30 39 1 4 35
M  V30 40 1 6 36
M  V30 41 1 6 37
M  V30 42 1 10 38
M  V30 43 1 10 39
M  V30 44 1 11 40
M  V30 45 1 11 41
M  V30 46 1 13 42
M  V30 47 1 16 43
M  V30 48 1 18 44
M  V30 49 1 18 45
M  V30 50 1 18 46
M  V30 51 1 21 47
M  V30 52 1 24 48
M  V30 53 1 24 49
M  V30 54 1 26 50
M  V30 55 1 27 51
M  V30 56 1 29 52
M  V30 57 1 30 53
M  V30 END BOND
M  V30 END CTAB
M  END
>  <Dataset>  (35) 
ChEMBL_Kinases

>  <Ligand_Instance>  (35) 
nan

>  <PDB_ID>  (35) 
nan

>  <Standardized_SMILES>  (35) 
Cc1ccc(CC(=O)N2CCc3cc(-c4cn(C)c5ncnc(N)c45)ccc32)cc1

>  <Name>  (35) 
nan

>  <Pocket>  (35) 
nan

>  <ATP_Site>  (35) 
nan

>  <Peripheral>  (35) 
nan

>  <Num_H_Atoms_ProtBoundConf>  (35) 
nan

>  <Num_Resolved_Atoms>  (35) 
nan

>  <Num_Not_Resolved_Atoms>  (35) 
nan

$$$$
CHEMBL2171142
     RDKit          3D

  0  0  0  0  0  0  0  0  0  0999 V3000
M  V30 BEGIN CTAB
M  V30 COUNTS 50 54 0 0 0
M  V30 BEGIN ATOM
M  V30 1 C 0.311862 -7.525745 1.532010 0
M  V30 2 N 0.585384 -6.278724 0.837375 0
M  V30 3 C 0.289086 -5.017566 1.194275 0
M  V30 4 C 0.746518 -4.125932 0.212615 0
M  V30 5 C 0.516967 -2.691930 0.373676 0
M  V30 6 C -0.054481 -1.790496 -0.502565 0
M  V30 7 C -0.165395 -0.458563 -0.160797 0
M  V30 8 C 0.277856 0.035910 1.048047 0
M  V30 9 C 0.852108 -0.845195 1.940751 0
M  V30 10 C 0.964403 -2.178972 1.600694 0
M  V30 11 C 1.237327 -0.059014 3.148828 0
M  V30 12 C 1.154227 1.393086 2.732290 0
M  V30 13 N 0.256315 1.365979 1.587873 0
M  V30 14 C -0.523724 2.432492 1.058403 0
M  V30 15 O -1.241111 2.201654 0.054820 0
M  V30 16 C -0.428240 3.767456 1.748103 0
M  V30 17 C -1.290561 4.767300 1.086481 0
M  V30 18 C -0.916110 5.614605 0.039438 0
M  V30 19 C -1.841860 6.497895 -0.472957 0
M  V30 20 C -3.142547 6.602007 -0.009036 0
M  V30 21 F -3.978759 7.503788 -0.580089 0
M  V30 22 C -3.524193 5.768425 1.026883 0
M  V30 23 C -2.600223 4.880527 1.544861 0
M  V30 24 C 1.325947 -4.944977 -0.733681 0
M  V30 25 C 1.922821 -4.530834 -1.890724 0
M  V30 26 N 2.035404 -3.190368 -2.278397 0
M  V30 27 N 2.444384 -5.471643 -2.705604 0
M  V30 28 C 2.353832 -6.777511 -2.342155 0
M  V30 29 N 1.763800 -7.182542 -1.197705 0
M  V30 30 C 1.224251 -6.264248 -0.346109 0
M  V30 31 H 1.107720 -8.271192 1.363011 0
M  V30 32 H -0.679998 -7.907139 1.156094 0
M  V30 33 H 0.152685 -7.289250 2.601860 0
M  V30 34 H -0.225755 -4.834029 2.119027 0
M  V30 35 H -0.393369 -2.227129 -1.430104 0
M  V30 36 H -0.628096 0.159459 -0.920693 0
M  V30 37 H 1.432724 -2.809172 2.367879 0
M  V30 38 H 2.219204 -0.346780 3.561444 0
M  V30 39 H 0.425259 -0.220885 3.894950 0
M  V30 40 H 0.719189 2.042815 3.499610 0
M  V30 41 H 2.128724 1.800675 2.383533 0
M  V30 42 H 0.633841 4.138338 1.708187 0
M  V30 43 H -0.703713 3.724634 2.802315 0
M  V30 44 H 0.090614 5.509901 -0.294526 0
M  V30 45 H -1.481355 7.130110 -1.289888 0
M  V30 46 H -4.526452 5.833819 1.399793 0
M  V30 47 H -2.952446 4.241249 2.365507 0
M  V30 48 H 1.732063 -2.673717 -3.122449 0
M  V30 49 H 2.530819 -2.577921 -1.566099 0
M  V30 50 H 2.764573 -7.562091 -2.977788 0
M  V30 END ATOM
M  V30 BEGIN BOND
M  V30 1 1 1 2
M  V30 2 1 2 3
M  V30 3 2 3 4
M  V30 4 1 4 5
M  V30 5 2 5 6
M  V30 6 1 6 7
M  V30 7 2 7 8
M  V30 8 1 8 9
M  V30 9 2 9 10
M  V30 10 1 9 11
M  V30 11 1 11 12
M  V30 12 1 12 13
M  V30 13 1 13 14
M  V30 14 2 14 15
M  V30 15 1 14 16
M  V30 16 1 16 17
M  V30 17 2 17 18
M  V30 18 1 18 19
M  V30 19 2 19 20
M  V30 20 1 20 21
M  V30 21 1 20 22
M  V30 22 2 22 23
M  V30 23 1 4 24
M  V30 24 2 24 25
M  V30 25 1 25 26
M  V30 26 1 25 27
M  V30 27 2 27 28
M  V30 28 1 28 29
M  V30 29 2 29 30
M  V30 30 1 30 2
M  V30 31 1 10 5
M  V30 32 1 23 17
M  V30 33 1 30 24
M  V30 34 1 13 8
M  V30 35 1 1 31
M  V30 36 1 1 32
M  V30 37 1 1 33
M  V30 38 1 3 34
M  V30 39 1 6 35
M  V30 40 1 7 36
M  V30 41 1 10 37
M  V30 42 1 11 38
M  V30 43 1 11 39
M  V30 44 1 12 40
M  V30 45 1 12 41
M  V30 46 1 16 42
M  V30 47 1 16 43
M  V30 48 1 18 44
M  V30 49 1 19 45
M  V30 50 1 22 46
M  V30 51 1 23 47
M  V30 52 1 26 48
M  V30 53 1 26 49
M  V30 54 1 28 50
M  V30 END BOND
M  V30 END CTAB
M  END
>  <Dataset>  (36) 
ChEMBL_Kinases

>  <Ligand_Instance>  (36) 
nan

>  <PDB_ID>  (36) 
nan

>  <Standardized_SMILES>  (36) 
Cn1cc(-c2ccc3c(c2)CCN3C(=O)Cc2ccc(F)cc2)c2c(N)ncnc21

>  <Name>  (36) 
nan

>  <Pocket>  (36) 
nan

>  <ATP_Site>  (36) 
nan

>  <Peripheral>  (36) 
nan

>  <Num_H_Atoms_ProtBoundConf>  (36) 
nan

>  <Num_Resolved_Atoms>  (36) 
nan

>  <Num_Not_Resolved_Atoms>  (36) 
nan

$$$$
CHEMBL2171139
     RDKit          3D

  0  0  0  0  0  0  0  0  0  0999 V3000
M  V30 BEGIN CTAB
M  V30 COUNTS 50 54 0 0 0
M  V30 BEGIN ATOM
M  V30 1 C -1.612069 -1.813235 -5.710884 0
M  V30 2 N -0.711888 -2.041144 -4.587566 0
M  V30 3 C -0.718844 -1.401287 -3.419556 0
M  V30 4 C 0.309607 -1.926320 -2.624709 0
M  V30 5 C 0.518312 -1.365675 -1.295955 0
M  V30 6 C -0.589369 -1.309761 -0.469633 0
M  V30 7 C -0.528711 -0.790968 0.807196 0
M  V30 8 C 0.697468 -0.318961 1.245261 0
M  V30 9 C 1.835807 -0.348174 0.466864 0
M  V30 10 C 1.707816 -0.878608 -0.798651 0
M  V30 11 C 2.964812 0.230167 1.233638 0
M  V30 12 C 2.436590 0.256422 2.662122 0
M  V30 13 N 0.994306 0.252085 2.509247 0
M  V30 14 C 0.192174 0.772229 3.551993 0
M  V30 15 O 0.558285 1.254056 4.631608 0
M  V30 16 C -1.270653 0.908112 3.695514 0
M  V30 17 C -1.630167 1.539997 5.000564 0
M  V30 18 C -2.130257 0.853872 6.087174 0
M  V30 19 C -2.459235 1.433008 7.282445 0
M  V30 20 F -2.948792 0.722513 8.328759 0
M  V30 21 C -2.257332 2.814949 7.358771 0
M  V30 22 C -1.761717 3.569943 6.316663 0
M  V30 23 C -1.455461 2.901432 5.143905 0
M  V30 24 F -0.968805 3.660932 4.129049 0
M  V30 25 C 0.889456 -2.892206 -3.409869 0
M  V30 26 C 1.941555 -3.682748 -3.050390 0
M  V30 27 N 2.584944 -3.621064 -1.799245 0
M  V30 28 N 2.390900 -4.593091 -3.948712 0
M  V30 29 C 1.774037 -4.664812 -5.141546 0
M  V30 30 N 0.729549 -3.877042 -5.491269 0
M  V30 31 C 0.262154 -2.968044 -4.626077 0
M  V30 32 H -1.534799 -2.585526 -6.476814 0
M  V30 33 H -2.646164 -1.758619 -5.315821 0
M  V30 34 H -1.375437 -0.805135 -6.142474 0
M  V30 35 H -1.433617 -0.617582 -3.199893 0
M  V30 36 H -1.562712 -1.675088 -0.792005 0
M  V30 37 H -1.408154 -0.762945 1.421442 0
M  V30 38 H 2.579045 -0.902937 -1.428085 0
M  V30 39 H 3.257048 1.231551 0.866311 0
M  V30 40 H 3.817428 -0.481843 1.225411 0
M  V30 41 H 2.702674 -0.684423 3.208652 0
M  V30 42 H 2.777032 1.168288 3.169503 0
M  V30 43 H -1.719414 -0.124877 3.699087 0
M  V30 44 H -1.749974 1.459501 2.867876 0
M  V30 45 H -2.265517 -0.202503 5.975200 0
M  V30 46 H -2.498055 3.351129 8.285848 0
M  V30 47 H -1.623161 4.649414 6.429654 0
M  V30 48 H 3.550955 -3.222890 -1.960923 0
M  V30 49 H 2.106846 -3.937547 -0.922522 0
M  V30 50 H 2.183025 -5.415983 -5.817892 0
M  V30 END ATOM
M  V30 BEGIN BOND
M  V30 1 1 1 2
M  V30 2 1 2 3
M  V30 3 2 3 4
M  V30 4 1 4 5
M  V30 5 2 5 6
M  V30 6 1 6 7
M  V30 7 2 7 8
M  V30 8 1 8 9
M  V30 9 2 9 10
M  V30 10 1 9 11
M  V30 11 1 11 12
M  V30 12 1 12 13
M  V30 13 1 13 14
M  V30 14 2 14 15
M  V30 15 1 14 16
M  V30 16 1 16 17
M  V30 17 2 17 18
M  V30 18 1 18 19
M  V30 19 1 19 20
M  V30 20 2 19 21
M  V30 21 1 21 22
M  V30 22 2 22 23
M  V30 23 1 23 24
M  V30 24 1 4 25
M  V30 25 2 25 26
M  V30 26 1 26 27
M  V30 27 1 26 28
M  V30 28 2 28 29
M  V30 29 1 29 30
M  V30 30 2 30 31
M  V30 31 1 31 2
M  V30 32 1 10 5
M  V30 33 1 23 17
M  V30 34 1 31 25
M  V30 35 1 13 8
M  V30 36 1 1 32
M  V30 37 1 1 33
M  V30 38 1 1 34
M  V30 39 1 3 35
M  V30 40 1 6 36
M  V30 41 1 7 37
M  V30 42 1 10 38
M  V30 43 1 11 39
M  V30 44 1 11 40
M  V30 45 1 12 41
M  V30 46 1 12 42
M  V30 47 1 16 43
M  V30 48 1 16 44
M  V30 49 1 18 45
M  V30 50 1 21 46
M  V30 51 1 22 47
M  V30 52 1 27 48
M  V30 53 1 27 49
M  V30 54 1 29 50
M  V30 END BOND
M  V30 END CTAB
M  END
>  <Dataset>  (37) 
ChEMBL_Kinases

>  <Ligand_Instance>  (37) 
nan

>  <PDB_ID>  (37) 
nan

>  <Standardized_SMILES>  (37) 
Cn1cc(-c2ccc3c(c2)CCN3C(=O)Cc2cc(F)ccc2F)c2c(N)ncnc21

>  <Name>  (37) 
nan

>  <Pocket>  (37) 
nan

>  <ATP_Site>  (37) 
nan

>  <Peripheral>  (37) 
nan

>  <Num_H_Atoms_ProtBoundConf>  (37) 
nan

>  <Num_Resolved_Atoms>  (37) 
nan

>  <Num_Not_Resolved_Atoms>  (37) 
nan

$$$$
CHEMBL2171132
     RDKit          3D

  0  0  0  0  0  0  0  0  0  0999 V3000
M  V30 BEGIN CTAB
M  V30 COUNTS 57 62 0 0 0
M  V30 BEGIN ATOM
M  V30 1 C 9.179686 -2.300291 1.780811 0
M  V30 2 N 8.313021 -1.146106 1.645178 0
M  V30 3 C 6.966831 -1.141745 1.691291 0
M  V30 4 C 6.526697 0.160822 1.519526 0
M  V30 5 C 5.117772 0.537401 1.514354 0
M  V30 6 C 4.666800 1.634562 2.212061 0
M  V30 7 N 3.344550 1.803037 2.074372 0
M  V30 8 C 2.514508 1.036578 1.363492 0
M  V30 9 N 1.205518 1.583317 1.479476 0
M  V30 10 C 2.955843 -0.063807 0.662491 0
M  V30 11 C 2.124226 -0.833960 -0.059938 0
M  V30 12 C 0.688511 -0.838152 -0.300136 0
M  V30 13 C -0.209109 -0.853911 0.747398 0
M  V30 14 C -1.563928 -0.837816 0.515191 0
M  V30 15 C -1.991331 -0.806134 -0.794334 0
M  V30 16 C -1.132645 -0.790041 -1.873568 0
M  V30 17 C 0.223375 -0.806312 -1.620747 0
M  V30 18 C -1.916969 -0.756629 -3.154940 0
M  V30 19 C -3.344284 -0.486370 -2.726382 0
M  V30 20 N -3.321488 -0.783982 -1.297854 0
M  V30 21 C -4.576160 -0.991338 -0.682854 0
M  V30 22 O -5.731985 -0.967885 -1.163149 0
M  V30 23 C -4.998085 -1.303321 0.705660 0
M  V30 24 C -6.485188 -1.428202 0.782449 0
M  V30 25 C -7.324145 -0.354608 1.051671 0
M  V30 26 C -8.705717 -0.540914 1.109180 0
M  V30 27 C -9.230054 -1.810846 0.894245 0
M  V30 28 C -8.434244 -2.901308 0.624638 0
M  V30 29 C -7.077502 -2.668616 0.577981 0
M  V30 30 C 2.799534 -1.910135 -0.710680 0
M  V30 31 S 4.612602 -1.694789 -0.197841 0
M  V30 32 C 4.270701 -0.304037 0.746508 0
M  V30 33 C 7.686857 0.910721 1.371563 0
M  V30 34 N 8.760340 0.099383 1.450798 0
M  V30 35 H 9.385624 -2.776517 0.780211 0
M  V30 36 H 10.145902 -1.980572 2.202593 0
M  V30 37 H 8.722636 -3.107116 2.383872 0
M  V30 38 H 6.381163 -2.041343 1.840810 0
M  V30 39 H 5.376063 2.213405 2.765258 0
M  V30 40 H 0.682112 2.120895 0.741687 0
M  V30 41 H 0.673532 1.463626 2.367153 0
M  V30 42 H 0.086968 -0.891124 1.786987 0
M  V30 43 H -2.259044 -0.849999 1.327052 0
M  V30 44 H 0.891298 -0.793390 -2.478922 0
M  V30 45 H -1.826212 -1.749811 -3.631547 0
M  V30 46 H -1.499466 0.076211 -3.737292 0
M  V30 47 H -3.618117 0.567900 -2.851149 0
M  V30 48 H -4.065385 -1.102825 -3.280631 0
M  V30 49 H -4.578521 -2.286496 0.991613 0
M  V30 50 H -4.621773 -0.562611 1.442173 0
M  V30 51 H -6.880304 0.614578 1.212731 0
M  V30 52 H -9.369022 0.293508 1.319202 0
M  V30 53 H -10.306711 -2.006603 0.929095 0
M  V30 54 H -8.804443 -3.903183 0.452104 0
M  V30 55 H -6.415139 -3.495885 0.369418 0
M  V30 56 H 2.394285 -2.744622 -1.397933 0
M  V30 57 H 7.652031 1.983658 1.218692 0
M  V30 END ATOM
M  V30 BEGIN BOND
M  V30 1 1 1 2
M  V30 2 1 2 3
M  V30 3 2 3 4
M  V30 4 1 4 5
M  V30 5 2 5 6
M  V30 6 1 6 7
M  V30 7 2 7 8
M  V30 8 1 8 9
M  V30 9 1 8 10
M  V30 10 1 10 11
M  V30 11 1 11 12
M  V30 12 2 12 13
M  V30 13 1 13 14
M  V30 14 2 14 15
M  V30 15 1 15 16
M  V30 16 2 16 17
M  V30 17 1 16 18
M  V30 18 1 18 19
M  V30 19 1 19 20
M  V30 20 1 20 21
M  V30 21 2 21 22
M  V30 22 1 21 23
M  V30 23 1 23 24
M  V30 24 2 24 25
M  V30 25 1 25 26
M  V30 26 2 26 27
M  V30 27 1 27 28
M  V30 28 2 28 29
M  V30 29 2 11 30
M  V30 30 1 30 31
M  V30 31 1 31 32
M  V30 32 1 4 33
M  V30 33 2 33 34
M  V30 34 1 34 2
M  V30 35 1 32 5
M  V30 36 2 32 10
M  V30 37 1 17 12
M  V30 38 1 29 24
M  V30 39 1 20 15
M  V30 40 1 1 35
M  V30 41 1 1 36
M  V30 42 1 1 37
M  V30 43 1 3 38
M  V30 44 1 6 39
M  V30 45 1 9 40
M  V30 46 1 9 41
M  V30 47 1 13 42
M  V30 48 1 14 43
M  V30 49 1 17 44
M  V30 50 1 18 45
M  V30 51 1 18 46
M  V30 52 1 19 47
M  V30 53 1 19 48
M  V30 54 1 23 49
M  V30 55 1 23 50
M  V30 56 1 25 51
M  V30 57 1 26 52
M  V30 58 1 27 53
M  V30 59 1 28 54
M  V30 60 1 29 55
M  V30 61 1 30 56
M  V30 62 1 33 57
M  V30 END BOND
M  V30 END CTAB
M  END
>  <Dataset>  (38) 
ChEMBL_Kinases

>  <Ligand_Instance>  (38) 
nan

>  <PDB_ID>  (38) 
nan

>  <Standardized_SMILES>  (38) 
Cn1cc(-c2cnc(N)c3c(-c4ccc5c(c4)CCN5C(=O)Cc4ccccc4)csc23)cn1

>  <Name>  (38) 
nan

>  <Pocket>  (38) 
nan

>  <ATP_Site>  (38) 
nan

>  <Peripheral>  (38) 
nan

>  <Num_H_Atoms_ProtBoundConf>  (38) 
nan

>  <Num_Resolved_Atoms>  (38) 
nan

>  <Num_Not_Resolved_Atoms>  (38) 
nan

$$$$
CHEMBL2171128
     RDKit          3D

  0  0  0  0  0  0  0  0  0  0999 V3000
M  V30 BEGIN CTAB
M  V30 COUNTS 56 61 0 0 0
M  V30 BEGIN ATOM
M  V30 1 N 0.991465 -1.656443 3.212532 0
M  V30 2 C 2.175596 -0.901981 3.174732 0
M  V30 3 N 2.958697 -1.218308 4.188014 0
M  V30 4 C 4.169394 -0.718211 4.473944 0
M  V30 5 C 4.565478 0.228350 3.553185 0
M  V30 6 C 5.863789 0.889100 3.699296 0
M  V30 7 C 6.701232 1.058416 2.613780 0
M  V30 8 C 7.912663 1.700739 2.866018 0
M  V30 9 C 8.303198 2.161070 4.108474 0
M  V30 10 N 7.430455 1.956804 5.112298 0
M  V30 11 C 6.238578 1.347503 4.968447 0
M  V30 12 C 3.792270 0.596934 2.479823 0
M  V30 13 S 4.080676 1.731042 1.213088 0
M  V30 14 C 2.420854 1.407755 0.345921 0
M  V30 15 C 1.842715 0.447103 1.159840 0
M  V30 16 C 0.514946 0.048274 0.715948 0
M  V30 17 C 0.315087 -0.431872 -0.578171 0
M  V30 18 C -0.917299 -0.810012 -1.067043 0
M  V30 19 C -1.971669 -0.686052 -0.187265 0
M  V30 20 C -1.854791 -0.220384 1.105340 0
M  V30 21 C -0.592405 0.142135 1.533091 0
M  V30 22 C -3.184267 -0.216178 1.775178 0
M  V30 23 C -4.164848 -0.566879 0.706736 0
M  V30 24 N -3.339343 -0.998041 -0.415720 0
M  V30 25 C -3.982685 -1.627935 -1.508017 0
M  V30 26 O -5.199044 -1.883539 -1.654564 0
M  V30 27 C -3.457660 -2.166808 -2.775717 0
M  V30 28 C -4.616016 -2.729317 -3.559302 0
M  V30 29 C -5.082717 -4.026766 -3.500482 0
M  V30 30 C -6.156487 -4.383106 -4.283569 0
M  V30 31 C -6.807843 -3.517287 -5.136755 0
M  V30 32 C -6.335667 -2.216771 -5.192090 0
M  V30 33 C -5.263928 -1.839785 -4.417801 0
M  V30 34 C 2.564815 0.042823 2.252111 0
M  V30 35 H 0.462595 -2.445820 2.781455 0
M  V30 36 H 0.108951 -1.674635 3.778495 0
M  V30 37 H 4.816312 -0.969145 5.298508 0
M  V30 38 H 6.433937 0.713375 1.624084 0
M  V30 39 H 8.569098 1.828581 1.993268 0
M  V30 40 H 9.258648 2.653428 4.241157 0
M  V30 41 H 5.580700 1.213428 5.817113 0
M  V30 42 H 2.159850 1.929809 -0.544336 0
M  V30 43 H 1.193764 -0.503600 -1.220419 0
M  V30 44 H -0.997379 -1.173495 -2.080768 0
M  V30 45 H -0.535667 0.511759 2.538812 0
M  V30 46 H -3.372188 0.824488 2.111494 0
M  V30 47 H -3.188747 -0.955140 2.624400 0
M  V30 48 H -4.871323 -1.383066 1.011804 0
M  V30 49 H -4.748808 0.310672 0.336566 0
M  V30 50 H -2.958194 -1.401967 -3.421188 0
M  V30 51 H -2.699132 -2.955509 -2.593429 0
M  V30 52 H -4.545712 -4.657280 -2.826620 0
M  V30 53 H -6.499170 -5.421509 -4.210599 0
M  V30 54 H -7.655273 -3.839702 -5.740123 0
M  V30 55 H -6.856284 -1.554861 -5.863704 0
M  V30 56 H -4.947710 -0.798050 -4.514426 0
M  V30 END ATOM
M  V30 BEGIN BOND
M  V30 1 1 1 2
M  V30 2 2 2 3
M  V30 3 1 3 4
M  V30 4 2 4 5
M  V30 5 1 5 6
M  V30 6 2 6 7
M  V30 7 1 7 8
M  V30 8 2 8 9
M  V30 9 1 9 10
M  V30 10 2 10 11
M  V30 11 1 5 12
M  V30 12 1 12 13
M  V30 13 1 13 14
M  V30 14 2 14 15
M  V30 15 1 15 16
M  V30 16 2 16 17
M  V30 17 1 17 18
M  V30 18 2 18 19
M  V30 19 1 19 20
M  V30 20 2 20 21
M  V30 21 1 20 22
M  V30 22 1 22 23
M  V30 23 1 23 24
M  V30 24 1 24 25
M  V30 25 2 25 26
M  V30 26 1 25 27
M  V30 27 1 27 28
M  V30 28 2 28 29
M  V30 29 1 29 30
M  V30 30 2 30 31
M  V30 31 1 31 32
M  V30 32 2 32 33
M  V30 33 1 15 34
M  V30 34 1 34 2
M  V30 35 1 11 6
M  V30 36 2 34 12
M  V30 37 1 21 16
M  V30 38 1 33 28
M  V30 39 1 24 19
M  V30 40 1 1 35
M  V30 41 1 1 36
M  V30 42 1 4 37
M  V30 43 1 7 38
M  V30 44 1 8 39
M  V30 45 1 9 40
M  V30 46 1 11 41
M  V30 47 1 14 42
M  V30 48 1 17 43
M  V30 49 1 18 44
M  V30 50 1 21 45
M  V30 51 1 22 46
M  V30 52 1 22 47
M  V30 53 1 23 48
M  V30 54 1 23 49
M  V30 55 1 27 50
M  V30 56 1 27 51
M  V30 57 1 29 52
M  V30 58 1 30 53
M  V30 59 1 31 54
M  V30 60 1 32 55
M  V30 61 1 33 56
M  V30 END BOND
M  V30 END CTAB
M  END
>  <Dataset>  (39) 
ChEMBL_Kinases

>  <Ligand_Instance>  (39) 
nan

>  <PDB_ID>  (39) 
nan

>  <Standardized_SMILES>  (39) 
Nc1ncc(-c2cccnc2)c2scc(-c3ccc4c(c3)CCN4C(=O)Cc3ccccc3)c12

>  <Name>  (39) 
nan

>  <Pocket>  (39) 
nan

>  <ATP_Site>  (39) 
nan

>  <Peripheral>  (39) 
nan

>  <Num_H_Atoms_ProtBoundConf>  (39) 
nan

>  <Num_Resolved_Atoms>  (39) 
nan

>  <Num_Not_Resolved_Atoms>  (39) 
nan

$$$$
CHEMBL2171126
     RDKit          3D

  0  0  0  0  0  0  0  0  0  0999 V3000
M  V30 BEGIN CTAB
M  V30 COUNTS 50 54 0 0 0
M  V30 BEGIN ATOM
M  V30 1 C -0.852922 -6.991951 -1.450372 0
M  V30 2 N 0.047809 -5.867336 -1.247378 0
M  V30 3 C -0.282656 -4.621642 -0.872399 0
M  V30 4 C 0.861915 -3.820384 -0.785435 0
M  V30 5 C 0.732556 -2.419175 -0.413477 0
M  V30 6 C 0.009870 -2.182635 0.762926 0
M  V30 7 C -0.239073 -0.930871 1.287691 0
M  V30 8 C 0.254478 0.164809 0.612345 0
M  V30 9 C 0.970759 -0.030657 -0.550282 0
M  V30 10 C 1.204550 -1.292388 -1.052140 0
M  V30 11 C 1.391118 1.297722 -1.084631 0
M  V30 12 C 1.197518 2.211916 0.111034 0
M  V30 13 N 0.157608 1.567473 0.910614 0
M  V30 14 C -0.774020 2.167250 1.806871 0
M  V30 15 O -1.579168 1.388636 2.382244 0
M  V30 16 C -0.700354 3.647024 1.970692 0
M  V30 17 C -1.722078 4.136185 2.930273 0
M  V30 18 C -2.861533 4.769782 2.422209 0
M  V30 19 C -3.844618 5.242135 3.290371 0
M  V30 20 F -4.907668 5.840598 2.686952 0
M  V30 21 C -3.677860 5.076344 4.648553 0
M  V30 22 C -2.542426 4.445557 5.145484 0
M  V30 23 F -2.439066 4.313431 6.509819 0
M  V30 24 C -1.558946 3.972291 4.290400 0
M  V30 25 F -0.450316 3.355092 4.806042 0
M  V30 26 C 1.883865 -4.676602 -1.132651 0
M  V30 27 C 3.213548 -4.350193 -1.190187 0
M  V30 28 N 3.721261 -3.069978 -0.888799 0
M  V30 29 N 4.096627 -5.309012 -1.546459 0
M  V30 30 C 3.611698 -6.550137 -1.828687 0
M  V30 31 N 2.290085 -6.883145 -1.773182 0
M  V30 32 C 1.381966 -5.930507 -1.415693 0
M  V30 33 H -0.292718 -7.930449 -1.523648 0
M  V30 34 H -1.632222 -6.993581 -0.662351 0
M  V30 35 H -1.392796 -6.845587 -2.425558 0
M  V30 36 H -1.312855 -4.351450 -0.682230 0
M  V30 37 H -0.408698 -3.015003 1.344913 0
M  V30 38 H -0.801588 -0.806338 2.197242 0
M  V30 39 H 1.750405 -1.484792 -1.959846 0
M  V30 40 H 0.795986 1.606397 -1.965383 0
M  V30 41 H 2.473569 1.291454 -1.307865 0
M  V30 42 H 0.852230 3.204855 -0.248928 0
M  V30 43 H 2.097677 2.251090 0.739121 0
M  V30 44 H -0.742058 4.167671 1.004280 0
M  V30 45 H 0.323808 3.877353 2.379826 0
M  V30 46 H -2.934642 4.870429 1.330766 0
M  V30 47 H -4.477608 5.466406 5.242957 0
M  V30 48 H 3.754531 -2.784832 0.114571 0
M  V30 49 H 4.053336 -2.423141 -1.624617 0
M  V30 50 H 4.200638 -7.411551 -2.126733 0
M  V30 END ATOM
M  V30 BEGIN BOND
M  V30 1 1 1 2
M  V30 2 1 2 3
M  V30 3 2 3 4
M  V30 4 1 4 5
M  V30 5 2 5 6
M  V30 6 1 6 7
M  V30 7 2 7 8
M  V30 8 1 8 9
M  V30 9 2 9 10
M  V30 10 1 9 11
M  V30 11 1 11 12
M  V30 12 1 12 13
M  V30 13 1 13 14
M  V30 14 2 14 15
M  V30 15 1 14 16
M  V30 16 1 16 17
M  V30 17 2 17 18
M  V30 18 1 18 19
M  V30 19 1 19 20
M  V30 20 2 19 21
M  V30 21 1 21 22
M  V30 22 1 22 23
M  V30 23 2 22 24
M  V30 24 1 24 25
M  V30 25 1 4 26
M  V30 26 2 26 27
M  V30 27 1 27 28
M  V30 28 1 27 29
M  V30 29 2 29 30
M  V30 30 1 30 31
M  V30 31 2 31 32
M  V30 32 1 32 2
M  V30 33 1 10 5
M  V30 34 1 24 17
M  V30 35 1 32 26
M  V30 36 1 13 8
M  V30 37 1 1 33
M  V30 38 1 1 34
M  V30 39 1 1 35
M  V30 40 1 3 36
M  V30 41 1 6 37
M  V30 42 1 7 38
M  V30 43 1 10 39
M  V30 44 1 11 40
M  V30 45 1 11 41
M  V30 46 1 12 42
M  V30 47 1 12 43
M  V30 48 1 16 44
M  V30 49 1 16 45
M  V30 50 1 18 46
M  V30 51 1 21 47
M  V30 52 1 28 48
M  V30 53 1 28 49
M  V30 54 1 30 50
M  V30 END BOND
M  V30 END CTAB
M  END
>  <Dataset>  (40) 
ChEMBL_Kinases

>  <Ligand_Instance>  (40) 
nan

>  <PDB_ID>  (40) 
nan

>  <Standardized_SMILES>  (40) 
Cn1cc(-c2ccc3c(c2)CCN3C(=O)Cc2cc(F)cc(F)c2F)c2c(N)ncnc21

>  <Name>  (40) 
nan

>  <Pocket>  (40) 
nan

>  <ATP_Site>  (40) 
nan

>  <Peripheral>  (40) 
nan

>  <Num_H_Atoms_ProtBoundConf>  (40) 
nan

>  <Num_Resolved_Atoms>  (40) 
nan

>  <Num_Not_Resolved_Atoms>  (40) 
nan

$$$$
CHEMBL2171124
     RDKit          3D

  0  0  0  0  0  0  0  0  0  0999 V3000
M  V30 BEGIN CTAB
M  V30 COUNTS 53 57 0 0 0
M  V30 BEGIN ATOM
M  V30 1 C 6.266332 -3.400415 1.155242 0
M  V30 2 N 4.894757 -2.958573 0.913669 0
M  V30 3 C 4.405240 -1.690683 1.054787 0
M  V30 4 C 3.065850 -1.664345 0.746710 0
M  V30 5 C 2.126018 -0.557365 0.790688 0
M  V30 6 C 1.022842 -0.779321 1.608110 0
M  V30 7 C 0.028716 0.163489 1.751930 0
M  V30 8 C 0.051673 1.378179 1.108424 0
M  V30 9 C 1.167076 1.583672 0.294505 0
M  V30 10 C 2.184310 0.649834 0.129296 0
M  V30 11 C 1.130044 2.909927 -0.357951 0
M  V30 12 C 0.085284 3.638566 0.449288 0
M  V30 13 N -0.731208 2.552870 0.948540 0
M  V30 14 C -2.111587 2.597006 1.268341 0
M  V30 15 O -2.659920 3.675425 0.841093 0
M  V30 16 C -3.153436 1.830303 1.929899 0
M  V30 17 C -4.026795 1.078513 0.988179 0
M  V30 18 C -5.037324 1.532999 0.131437 0
M  V30 19 C -5.685860 0.585444 -0.611500 0
M  V30 20 C -5.475755 -0.768190 -0.627104 0
M  V30 21 C -4.467397 -1.235865 0.226283 0
M  V30 22 C -4.144530 -2.687208 0.326429 0
M  V30 23 F -3.568298 -3.087303 -0.836375 0
M  V30 24 F -3.304317 -2.864121 1.417579 0
M  V30 25 F -5.353609 -3.323510 0.591080 0
M  V30 26 C -3.798452 -0.310892 0.982293 0
M  V30 27 C 2.744036 -2.957893 0.407549 0
M  V30 28 C 1.654582 -3.679475 0.000179 0
M  V30 29 N 0.412482 -2.988985 -0.178860 0
M  V30 30 N 1.633811 -4.982658 -0.271907 0
M  V30 31 C 2.788782 -5.717066 -0.145780 0
M  V30 32 N 3.880327 -5.049505 0.248963 0
M  V30 33 C 3.860103 -3.747714 0.510291 0
M  V30 34 H 6.242549 -4.219355 1.888311 0
M  V30 35 H 6.864979 -2.573787 1.530409 0
M  V30 36 H 6.632735 -3.825378 0.196396 0
M  V30 37 H 4.954631 -0.812412 1.359665 0
M  V30 38 H 0.853724 -1.669547 2.186791 0
M  V30 39 H -0.828920 0.007450 2.379371 0
M  V30 40 H 3.048024 0.783352 -0.487008 0
M  V30 41 H 2.097206 3.408507 -0.138161 0
M  V30 42 H 0.916478 2.850819 -1.436735 0
M  V30 43 H -0.528447 4.239030 -0.257640 0
M  V30 44 H 0.512627 4.264481 1.260372 0
M  V30 45 H -3.838428 2.522509 2.506511 0
M  V30 46 H -2.771487 1.152989 2.696602 0
M  V30 47 H -5.170790 2.587374 0.171105 0
M  V30 48 H -6.474548 0.962930 -1.282795 0
M  V30 49 H -6.033302 -1.451106 -1.242584 0
M  V30 50 H -3.014892 -0.738083 1.634490 0
M  V30 51 H -0.419134 -3.190917 0.435245 0
M  V30 52 H -0.056300 -2.270633 -0.750145 0
M  V30 53 H 2.715585 -6.767345 -0.373905 0
M  V30 END ATOM
M  V30 BEGIN BOND
M  V30 1 1 1 2
M  V30 2 1 2 3
M  V30 3 2 3 4
M  V30 4 1 4 5
M  V30 5 2 5 6
M  V30 6 1 6 7
M  V30 7 2 7 8
M  V30 8 1 8 9
M  V30 9 2 9 10
M  V30 10 1 9 11
M  V30 11 1 11 12
M  V30 12 1 12 13
M  V30 13 1 13 14
M  V30 14 2 14 15
M  V30 15 1 14 16
M  V30 16 1 16 17
M  V30 17 2 17 18
M  V30 18 1 18 19
M  V30 19 2 19 20
M  V30 20 1 20 21
M  V30 21 1 21 22
M  V30 22 1 22 23
M  V30 23 1 22 24
M  V30 24 1 22 25
M  V30 25 2 21 26
M  V30 26 1 4 27
M  V30 27 2 27 28
M  V30 28 1 28 29
M  V30 29 1 28 30
M  V30 30 2 30 31
M  V30 31 1 31 32
M  V30 32 2 32 33
M  V30 33 1 33 2
M  V30 34 1 10 5
M  V30 35 1 26 17
M  V30 36 1 33 27
M  V30 37 1 13 8
M  V30 38 1 1 34
M  V30 39 1 1 35
M  V30 40 1 1 36
M  V30 41 1 3 37
M  V30 42 1 6 38
M  V30 43 1 7 39
M  V30 44 1 10 40
M  V30 45 1 11 41
M  V30 46 1 11 42
M  V30 47 1 12 43
M  V30 48 1 12 44
M  V30 49 1 16 45
M  V30 50 1 16 46
M  V30 51 1 18 47
M  V30 52 1 19 48
M  V30 53 1 20 49
M  V30 54 1 26 50
M  V30 55 1 29 51
M  V30 56 1 29 52
M  V30 57 1 31 53
M  V30 END BOND
M  V30 END CTAB
M  END
>  <Dataset>  (41) 
ChEMBL_Kinases

>  <Ligand_Instance>  (41) 
nan

>  <PDB_ID>  (41) 
nan

>  <Standardized_SMILES>  (41) 
Cn1cc(-c2ccc3c(c2)CCN3C(=O)Cc2cccc(C(F)(F)F)c2)c2c(N)ncnc21

>  <Name>  (41) 
nan

>  <Pocket>  (41) 
nan

>  <ATP_Site>  (41) 
nan

>  <Peripheral>  (41) 
nan

>  <Num_H_Atoms_ProtBoundConf>  (41) 
nan

>  <Num_Resolved_Atoms>  (41) 
nan

>  <Num_Not_Resolved_Atoms>  (41) 
nan

$$$$
CHEMBL217090
     RDKit          3D

  0  0  0  0  0  0  0  0  0  0999 V3000
M  V30 BEGIN CTAB
M  V30 COUNTS 68 73 0 0 0
M  V30 BEGIN ATOM
M  V30 1 Cl 3.330606 1.811171 4.147874 0
M  V30 2 C 3.248319 0.085127 3.809572 0
M  V30 3 C 3.221489 -0.897267 4.774741 0
M  V30 4 C 3.200546 -2.229934 4.423509 0
M  V30 5 C 3.205370 -2.651983 3.110932 0
M  V30 6 C 3.231703 -1.685304 2.096003 0
M  V30 7 C 3.251037 -0.347430 2.514104 0
M  V30 8 N 3.222706 0.522999 1.380298 0
M  V30 9 C 2.830268 0.574810 0.040627 0
M  V30 10 N 3.923397 0.522477 -0.774615 0
M  V30 11 C 3.833210 0.560667 -2.122388 0
M  V30 12 N 2.606011 0.653973 -2.653181 0
M  V30 13 C 1.513967 0.706196 -1.896324 0
M  V30 14 C 0.240960 0.788142 -2.482078 0
M  V30 15 C -0.907054 0.828578 -1.674997 0
M  V30 16 O -2.027662 0.903561 -2.429223 0
M  V30 17 C -3.359231 0.918011 -2.082052 0
M  V30 18 C -3.793212 -0.387351 -1.469930 0
M  V30 19 C -3.629060 -1.467082 -2.522063 0
M  V30 20 N -2.305404 -1.687053 -2.963986 0
M  V30 21 C -1.475354 -2.348728 -1.970449 0
M  V30 22 C -1.925731 -3.801688 -2.002819 0
M  V30 23 C -2.440493 -4.001069 -3.412962 0
M  V30 24 C -2.294907 -2.630288 -4.058118 0
M  V30 25 C -0.695851 0.784714 -0.324197 0
M  V30 26 C 0.488392 0.705763 0.353515 0
M  V30 27 O 0.702731 0.664049 1.678755 0
M  V30 28 C -0.017511 0.789219 2.811533 0
M  V30 29 C -0.623789 -0.426364 3.446535 0
M  V30 30 C -1.593573 0.142053 4.510430 0
M  V30 31 O -1.130898 1.382125 4.938592 0
M  V30 32 C -1.399267 2.404679 4.001272 0
M  V30 33 C -1.194907 1.787048 2.600370 0
M  V30 34 C 1.567210 0.669460 -0.501551 0
M  V30 35 O 3.231155 -2.388506 0.906064 0
M  V30 36 C 3.531131 -3.750306 1.168697 0
M  V30 37 O 3.190103 -3.909802 2.521976 0
M  V30 38 H 3.215642 -0.533731 5.813399 0
M  V30 39 H 3.179664 -2.924880 5.254522 0
M  V30 40 H 3.637040 1.455788 1.633823 0
M  V30 41 H 4.681727 0.518293 -2.788933 0
M  V30 42 H 0.253047 0.815783 -3.565640 0
M  V30 43 H -3.624768 1.703111 -1.330822 0
M  V30 44 H -4.034062 1.134720 -2.958296 0
M  V30 45 H -3.270782 -0.624379 -0.544409 0
M  V30 46 H -4.886186 -0.330454 -1.225402 0
M  V30 47 H -4.134088 -2.407332 -2.169593 0
M  V30 48 H -4.222101 -1.095693 -3.408113 0
M  V30 49 H -1.541482 -1.917834 -0.964603 0
M  V30 50 H -0.433466 -2.327654 -2.365498 0
M  V30 51 H -1.100433 -4.474105 -1.763261 0
M  V30 52 H -2.778859 -3.880704 -1.279217 0
M  V30 53 H -3.506959 -4.280758 -3.396070 0
M  V30 54 H -1.784431 -4.716394 -3.925055 0
M  V30 55 H -3.112971 -2.413009 -4.751660 0
M  V30 56 H -1.324893 -2.561839 -4.624534 0
M  V30 57 H -1.613335 0.829422 0.198396 0
M  V30 58 H 0.538450 1.318566 3.646597 0
M  V30 59 H -1.184380 -1.082868 2.749482 0
M  V30 60 H 0.125752 -0.999683 4.024276 0
M  V30 61 H -1.611864 -0.508935 5.410581 0
M  V30 62 H -2.580397 0.222091 4.063143 0
M  V30 63 H -2.422379 2.762748 4.083594 0
M  V30 64 H -0.632517 3.177291 4.077937 0
M  V30 65 H -0.854640 2.502032 1.862828 0
M  V30 66 H -2.072843 1.182151 2.372194 0
M  V30 67 H 2.900475 -4.391900 0.538450 0
M  V30 68 H 4.622408 -3.925379 0.972187 0
M  V30 END ATOM
M  V30 BEGIN BOND
M  V30 1 1 1 2
M  V30 2 2 2 3
M  V30 3 1 3 4
M  V30 4 2 4 5
M  V30 5 1 5 6
M  V30 6 2 6 7
M  V30 7 1 7 8
M  V30 8 1 8 9
M  V30 9 2 9 10
M  V30 10 1 10 11
M  V30 11 2 11 12
M  V30 12 1 12 13
M  V30 13 2 13 14
M  V30 14 1 14 15
M  V30 15 1 15 16
M  V30 16 1 16 17
M  V30 17 1 17 18
M  V30 18 1 18 19
M  V30 19 1 19 20
M  V30 20 1 20 21
M  V30 21 1 21 22
M  V30 22 1 22 23
M  V30 23 1 23 24
M  V30 24 2 15 25
M  V30 25 1 25 26
M  V30 26 1 26 27
M  V30 27 1 27 28
M  V30 28 1 28 29
M  V30 29 1 29 30
M  V30 30 1 30 31
M  V30 31 1 31 32
M  V30 32 1 32 33
M  V30 33 2 26 34
M  V30 34 1 6 35
M  V30 35 1 35 36
M  V30 36 1 36 37
M  V30 37 1 7 2
M  V30 38 1 34 9
M  V30 39 1 37 5
M  V30 40 1 34 13
M  V30 41 1 24 20
M  V30 42 1 33 28
M  V30 43 1 3 38
M  V30 44 1 4 39
M  V30 45 1 8 40
M  V30 46 1 11 41
M  V30 47 1 14 42
M  V30 48 1 17 43
M  V30 49 1 17 44
M  V30 50 1 18 45
M  V30 51 1 18 46
M  V30 52 1 19 47
M  V30 53 1 19 48
M  V30 54 1 21 49
M  V30 55 1 21 50
M  V30 56 1 22 51
M  V30 57 1 22 52
M  V30 58 1 23 53
M  V30 59 1 23 54
M  V30 60 1 24 55
M  V30 61 1 24 56
M  V30 62 1 25 57
M  V30 63 1 28 58
M  V30 64 1 29 59
M  V30 65 1 29 60
M  V30 66 1 30 61
M  V30 67 1 30 62
M  V30 68 1 32 63
M  V30 69 1 32 64
M  V30 70 1 33 65
M  V30 71 1 33 66
M  V30 72 1 36 67
M  V30 73 1 36 68
M  V30 END BOND
M  V30 END CTAB
M  END
>  <Dataset>  (42) 
ChEMBL_Kinases

>  <Ligand_Instance>  (42) 
nan

>  <PDB_ID>  (42) 
nan

>  <Standardized_SMILES>  (42) 
Clc1ccc2c(c1Nc1ncnc3cc(OCCCN4CCCC4)cc(OC4CCOCC4)c13)OCO2

>  <Name>  (42) 
nan

>  <Pocket>  (42) 
nan

>  <ATP_Site>  (42) 
nan

>  <Peripheral>  (42) 
nan

>  <Num_H_Atoms_ProtBoundConf>  (42) 
nan

>  <Num_Resolved_Atoms>  (42) 
nan

>  <Num_Not_Resolved_Atoms>  (42) 
nan

$$$$
CHEMBL2170597
     RDKit          3D

  0  0  0  0  0  0  0  0  0  0999 V3000
M  V30 BEGIN CTAB
M  V30 COUNTS 37 39 0 0 0
M  V30 BEGIN ATOM
M  V30 1 O -0.387814 -5.868139 2.248809 0
M  V30 2 C 0.812485 -5.449964 2.169251 0
M  V30 3 O 0.904571 -6.483336 3.044950 0
M  V30 4 C 1.235331 -4.345111 1.345990 0
M  V30 5 C 0.212300 -3.789914 0.597428 0
M  V30 6 C 0.580290 -2.734068 -0.208103 0
M  V30 7 C 1.864418 -2.302711 -0.236054 0
M  V30 8 N 2.476011 -1.204176 -0.959447 0
M  V30 9 C 2.134061 -0.030350 -0.192624 0
M  V30 10 N 2.848352 0.092359 0.962004 0
M  V30 11 C 2.698928 1.113943 1.826830 0
M  V30 12 C 1.777934 2.100872 1.551588 0
M  V30 13 C 1.045075 1.998162 0.391862 0
M  V30 14 N 0.026573 2.804202 -0.226731 0
M  V30 15 C -1.294388 2.313339 -0.062386 0
M  V30 16 C -2.150334 2.814389 -1.050679 0
M  V30 17 C -3.507196 2.459780 -1.074681 0
M  V30 18 C -3.907570 1.600933 -0.069632 0
M  V30 19 C -3.078072 1.099389 0.910320 0
M  V30 20 C -1.749855 1.460701 0.915745 0
M  V30 21 N 1.237780 0.969900 -0.420217 0
M  V30 22 C 2.912462 -2.865457 0.526849 0
M  V30 23 C 2.526277 -3.943151 1.348555 0
M  V30 24 H 1.371049 -6.452044 3.937904 0
M  V30 25 H -0.814243 -4.097664 0.586865 0
M  V30 26 H -0.088997 -2.166479 -0.875000 0
M  V30 27 H 3.043516 -1.212683 -1.847118 0
M  V30 28 H 3.229602 1.271168 2.752393 0
M  V30 29 H 1.499117 3.002207 2.102302 0
M  V30 30 H 0.321676 3.650947 -0.715024 0
M  V30 31 H -1.881651 3.492456 -1.853736 0
M  V30 32 H -4.229044 2.798511 -1.798490 0
M  V30 33 H -4.954128 1.299322 -0.055546 0
M  V30 34 H -3.402393 0.434295 1.687714 0
M  V30 35 H -0.979815 1.154320 1.614646 0
M  V30 36 H 3.951378 -2.586549 0.566887 0
M  V30 37 H 3.313963 -4.355826 1.999549 0
M  V30 END ATOM
M  V30 BEGIN BOND
M  V30 1 2 1 2
M  V30 2 1 2 3
M  V30 3 1 2 4
M  V30 4 2 4 5
M  V30 5 1 5 6
M  V30 6 2 6 7
M  V30 7 1 7 8
M  V30 8 1 8 9
M  V30 9 2 9 10
M  V30 10 1 10 11
M  V30 11 2 11 12
M  V30 12 1 12 13
M  V30 13 1 13 14
M  V30 14 1 14 15
M  V30 15 2 15 16
M  V30 16 1 16 17
M  V30 17 2 17 18
M  V30 18 1 18 19
M  V30 19 2 19 20
M  V30 20 2 13 21
M  V30 21 1 7 22
M  V30 22 2 22 23
M  V30 23 1 23 4
M  V30 24 1 21 9
M  V30 25 1 20 15
M  V30 26 1 3 24
M  V30 27 1 5 25
M  V30 28 1 6 26
M  V30 29 1 8 27
M  V30 30 1 11 28
M  V30 31 1 12 29
M  V30 32 1 14 30
M  V30 33 1 16 31
M  V30 34 1 17 32
M  V30 35 1 18 33
M  V30 36 1 19 34
M  V30 37 1 20 35
M  V30 38 1 22 36
M  V30 39 1 23 37
M  V30 END BOND
M  V30 END CTAB
M  END
>  <Dataset>  (43) 
ChEMBL_Kinases

>  <Ligand_Instance>  (43) 
nan

>  <PDB_ID>  (43) 
nan

>  <Standardized_SMILES>  (43) 
O=C(O)c1ccc(Nc2nccc(Nc3ccccc3)n2)cc1

>  <Name>  (43) 
nan

>  <Pocket>  (43) 
nan

>  <ATP_Site>  (43) 
nan

>  <Peripheral>  (43) 
nan

>  <Num_H_Atoms_ProtBoundConf>  (43) 
nan

>  <Num_Resolved_Atoms>  (43) 
nan

>  <Num_Not_Resolved_Atoms>  (43) 
nan

$$$$
CHEMBL2170591
     RDKit          3D

  0  0  0  0  0  0  0  0  0  0999 V3000
M  V30 BEGIN CTAB
M  V30 COUNTS 52 54 0 0 0
M  V30 BEGIN ATOM
M  V30 1 C 1.300263 -3.909971 5.503598 0
M  V30 2 N 2.040897 -2.929682 4.786520 0
M  V30 3 C 2.125237 -1.712730 5.455086 0
M  V30 4 C 3.056911 -3.452771 4.002446 0
M  V30 5 C 3.927299 -2.454805 3.282372 0
M  V30 6 N 3.079219 -1.651734 2.429042 0
M  V30 7 C 3.598531 -0.612011 1.621382 0
M  V30 8 O 4.828769 -0.347742 1.609767 0
M  V30 9 C 2.758974 0.216437 0.760847 0
M  V30 10 C 3.355610 1.208683 -0.009815 0
M  V30 11 C 2.619472 2.027765 -0.839460 0
M  V30 12 C 1.243827 1.914055 -0.955715 0
M  V30 13 N 0.510684 2.761747 -1.813990 0
M  V30 14 C -0.876220 2.678443 -2.137234 0
M  V30 15 N -1.412622 3.582883 -2.971020 0
M  V30 16 C -2.703693 3.557781 -3.320790 0
M  V30 17 C -3.565637 2.596888 -2.843420 0
M  V30 18 C -3.036510 1.657939 -1.985644 0
M  V30 19 N -3.575983 0.534225 -1.279853 0
M  V30 20 C -3.877513 -0.811207 -1.559842 0
M  V30 21 C -5.142310 -1.337617 -1.401270 0
M  V30 22 C -5.328441 -2.663105 -1.709425 0
M  V30 23 C -4.314978 -3.507212 -2.173628 0
M  V30 24 C -3.080848 -2.964562 -2.321655 0
M  V30 25 C -2.847570 -1.633850 -2.022901 0
M  V30 26 Cl -1.197980 -1.120117 -2.294062 0
M  V30 27 N -1.728630 1.771147 -1.697918 0
M  V30 28 C 0.713749 0.918836 -0.170508 0
M  V30 29 C 1.389834 0.071183 0.673374 0
M  V30 30 H 1.888872 -4.548293 6.196219 0
M  V30 31 H 0.730388 -4.576215 4.797367 0
M  V30 32 H 0.483266 -3.426269 6.124602 0
M  V30 33 H 1.544355 -0.869580 4.965568 0
M  V30 34 H 1.647700 -1.756731 6.479055 0
M  V30 35 H 3.129542 -1.282002 5.617027 0
M  V30 36 H 3.732561 -4.096731 4.633059 0
M  V30 37 H 2.675705 -4.143288 3.198617 0
M  V30 38 H 4.604135 -1.882706 3.929368 0
M  V30 39 H 4.576123 -3.044608 2.589628 0
M  V30 40 H 2.055202 -1.832445 2.395764 0
M  V30 41 H 4.435549 1.383413 0.008369 0
M  V30 42 H 3.133721 2.795202 -1.426820 0
M  V30 43 H 1.059960 3.540170 -2.260785 0
M  V30 44 H -3.182896 4.261625 -3.987697 0
M  V30 45 H -4.618278 2.409569 -3.000600 0
M  V30 46 H -3.837476 0.700106 -0.260973 0
M  V30 47 H -5.941774 -0.705898 -1.043099 0
M  V30 48 H -6.332741 -3.064167 -1.578514 0
M  V30 49 H -4.505567 -4.556062 -2.406747 0
M  V30 50 H -2.305906 -3.646882 -2.686566 0
M  V30 51 H -0.351104 0.744862 -0.169457 0
M  V30 52 H 0.882664 -0.688511 1.254020 0
M  V30 END ATOM
M  V30 BEGIN BOND
M  V30 1 1 1 2
M  V30 2 1 2 3
M  V30 3 1 2 4
M  V30 4 1 4 5
M  V30 5 1 5 6
M  V30 6 1 6 7
M  V30 7 2 7 8
M  V30 8 1 7 9
M  V30 9 2 9 10
M  V30 10 1 10 11
M  V30 11 2 11 12
M  V30 12 1 12 13
M  V30 13 1 13 14
M  V30 14 2 14 15
M  V30 15 1 15 16
M  V30 16 2 16 17
M  V30 17 1 17 18
M  V30 18 1 18 19
M  V30 19 1 19 20
M  V30 20 2 20 21
M  V30 21 1 21 22
M  V30 22 2 22 23
M  V30 23 1 23 24
M  V30 24 2 24 25
M  V30 25 1 25 26
M  V30 26 2 18 27
M  V30 27 1 12 28
M  V30 28 2 28 29
M  V30 29 1 29 9
M  V30 30 1 27 14
M  V30 31 1 25 20
M  V30 32 1 1 30
M  V30 33 1 1 31
M  V30 34 1 1 32
M  V30 35 1 3 33
M  V30 36 1 3 34
M  V30 37 1 3 35
M  V30 38 1 4 36
M  V30 39 1 4 37
M  V30 40 1 5 38
M  V30 41 1 5 39
M  V30 42 1 6 40
M  V30 43 1 10 41
M  V30 44 1 11 42
M  V30 45 1 13 43
M  V30 46 1 16 44
M  V30 47 1 17 45
M  V30 48 1 19 46
M  V30 49 1 21 47
M  V30 50 1 22 48
M  V30 51 1 23 49
M  V30 52 1 24 50
M  V30 53 1 28 51
M  V30 54 1 29 52
M  V30 END BOND
M  V30 END CTAB
M  END
>  <Dataset>  (44) 
ChEMBL_Kinases

>  <Ligand_Instance>  (44) 
nan

>  <PDB_ID>  (44) 
nan

>  <Standardized_SMILES>  (44) 
CN(C)CCNC(=O)c1ccc(Nc2nccc(Nc3ccccc3Cl)n2)cc1

>  <Name>  (44) 
nan

>  <Pocket>  (44) 
nan

>  <ATP_Site>  (44) 
nan

>  <Peripheral>  (44) 
nan

>  <Num_H_Atoms_ProtBoundConf>  (44) 
nan

>  <Num_Resolved_Atoms>  (44) 
nan

>  <Num_Not_Resolved_Atoms>  (44) 
nan

$$$$
CHEMBL2170427
     RDKit          3D

  0  0  0  0  0  0  0  0  0  0999 V3000
M  V30 BEGIN CTAB
M  V30 COUNTS 37 39 0 0 0
M  V30 BEGIN ATOM
M  V30 1 O 0.877579 -5.816496 3.404655 0
M  V30 2 C 0.456919 -4.840947 2.697960 0
M  V30 3 O -0.926965 -4.868640 2.611952 0
M  V30 4 C 1.220175 -3.781494 2.025109 0
M  V30 5 C 0.542667 -2.829119 1.308067 0
M  V30 6 C 1.283579 -1.851001 0.692829 0
M  V30 7 C 2.662892 -1.739012 0.731071 0
M  V30 8 N 3.339291 -0.662985 0.044622 0
M  V30 9 C 2.470736 0.135601 -0.749888 0
M  V30 10 N 2.291822 0.104786 -2.074473 0
M  V30 11 C 1.418179 0.893203 -2.719721 0
M  V30 12 C 0.664453 1.787514 -1.946312 0
M  V30 13 C 0.841796 1.829067 -0.556443 0
M  V30 14 N -0.057334 2.798083 -0.035398 0
M  V30 15 C -1.211018 2.016653 0.359142 0
M  V30 16 C -2.463701 2.186888 -0.216332 0
M  V30 17 C -3.562145 1.440943 0.179560 0
M  V30 18 C -3.340482 0.514926 1.183949 0
M  V30 19 C -2.136096 0.282384 1.807252 0
M  V30 20 C -1.051038 1.060616 1.373670 0
M  V30 21 F 0.118493 0.821866 2.005044 0
M  V30 22 N 1.744267 0.996487 -0.005440 0
M  V30 23 C 3.328447 -2.714938 1.462512 0
M  V30 24 C 2.594880 -3.724446 2.100346 0
M  V30 25 H -1.536689 -5.184667 3.382272 0
M  V30 26 H -0.512289 -2.896700 1.267832 0
M  V30 27 H 0.670215 -1.124581 0.142233 0
M  V30 28 H 4.364405 -0.588461 0.199873 0
M  V30 29 H 1.338449 0.808633 -3.792591 0
M  V30 30 H -0.013805 2.374334 -2.579771 0
M  V30 31 H -0.031013 3.827601 0.094445 0
M  V30 32 H -2.590979 2.917704 -0.996378 0
M  V30 33 H -4.539726 1.577346 -0.270370 0
M  V30 34 H -4.156041 -0.103029 1.539827 0
M  V30 35 H -2.018723 -0.454451 2.587551 0
M  V30 36 H 4.413062 -2.664099 1.517360 0
M  V30 37 H 3.103388 -4.485990 2.666954 0
M  V30 END ATOM
M  V30 BEGIN BOND
M  V30 1 2 1 2
M  V30 2 1 2 3
M  V30 3 1 2 4
M  V30 4 2 4 5
M  V30 5 1 5 6
M  V30 6 2 6 7
M  V30 7 1 7 8
M  V30 8 1 8 9
M  V30 9 2 9 10
M  V30 10 1 10 11
M  V30 11 2 11 12
M  V30 12 1 12 13
M  V30 13 1 13 14
M  V30 14 1 14 15
M  V30 15 2 15 16
M  V30 16 1 16 17
M  V30 17 2 17 18
M  V30 18 1 18 19
M  V30 19 2 19 20
M  V30 20 1 20 21
M  V30 21 2 13 22
M  V30 22 1 7 23
M  V30 23 2 23 24
M  V30 24 1 24 4
M  V30 25 1 22 9
M  V30 26 1 20 15
M  V30 27 1 3 25
M  V30 28 1 5 26
M  V30 29 1 6 27
M  V30 30 1 8 28
M  V30 31 1 11 29
M  V30 32 1 12 30
M  V30 33 1 14 31
M  V30 34 1 16 32
M  V30 35 1 17 33
M  V30 36 1 18 34
M  V30 37 1 19 35
M  V30 38 1 23 36
M  V30 39 1 24 37
M  V30 END BOND
M  V30 END CTAB
M  END
>  <Dataset>  (45) 
ChEMBL_Kinases

>  <Ligand_Instance>  (45) 
nan

>  <PDB_ID>  (45) 
nan

>  <Standardized_SMILES>  (45) 
O=C(O)c1ccc(Nc2nccc(Nc3ccccc3F)n2)cc1

>  <Name>  (45) 
nan

>  <Pocket>  (45) 
nan

>  <ATP_Site>  (45) 
nan

>  <Peripheral>  (45) 
nan

>  <Num_H_Atoms_ProtBoundConf>  (45) 
nan

>  <Num_Resolved_Atoms>  (45) 
nan

>  <Num_Not_Resolved_Atoms>  (45) 
nan

$$$$
CHEMBL2170408
     RDKit          3D

  0  0  0  0  0  0  0  0  0  0999 V3000
M  V30 BEGIN CTAB
M  V30 COUNTS 41 43 0 0 0
M  V30 BEGIN ATOM
M  V30 1 C 1.739003 -4.347624 3.843081 0
M  V30 2 O 0.431955 -4.230885 3.346007 0
M  V30 3 C 0.115650 -3.499525 2.229322 0
M  V30 4 C 1.055993 -2.795508 1.468928 0
M  V30 5 C 0.667340 -2.079576 0.355115 0
M  V30 6 N 1.673123 -1.380682 -0.364835 0
M  V30 7 C 1.452983 -0.502385 -1.460108 0
M  V30 8 N 1.433231 -0.649748 -2.795322 0
M  V30 9 C 1.190208 0.381211 -3.625047 0
M  V30 10 C 0.955357 1.623871 -3.075006 0
M  V30 11 C 0.965345 1.822179 -1.705511 0
M  V30 12 N 0.725553 3.126609 -1.126880 0
M  V30 13 C 0.722538 3.139944 0.315664 0
M  V30 14 C 1.533981 3.809749 1.206208 0
M  V30 15 C 1.338942 3.666228 2.554923 0
M  V30 16 C 0.321743 2.844780 3.054879 0
M  V30 17 C -0.488786 2.176812 2.168615 0
M  V30 18 C -0.296541 2.317862 0.800338 0
M  V30 19 Cl -1.451349 1.386548 -0.143500 0
M  V30 20 N 1.220046 0.721432 -0.946940 0
M  V30 21 C -0.639485 -2.011559 -0.073152 0
M  V30 22 C -1.593108 -2.693438 0.652427 0
M  V30 23 C -1.180176 -3.407808 1.771193 0
M  V30 24 C -2.183222 -4.128235 2.541846 0
M  V30 25 O -1.943917 -4.800914 3.564639 0
M  V30 26 O -3.553504 -4.250163 2.361559 0
M  V30 27 H 2.180805 -5.277840 3.427286 0
M  V30 28 H 2.392221 -3.480283 3.604756 0
M  V30 29 H 1.741259 -4.525739 4.956137 0
M  V30 30 H 2.080945 -2.805981 1.739460 0
M  V30 31 H 2.684840 -1.465675 -0.134426 0
M  V30 32 H 1.197570 0.160228 -4.682401 0
M  V30 33 H 0.760052 2.455077 -3.720718 0
M  V30 34 H 0.582724 3.903625 -1.795949 0
M  V30 35 H 2.272060 4.403966 0.692448 0
M  V30 36 H 2.015241 4.222125 3.186858 0
M  V30 37 H 0.207979 2.763111 4.139407 0
M  V30 38 H -1.252028 1.560285 2.632287 0
M  V30 39 H -0.886965 -1.445405 -0.939574 0
M  V30 40 H -2.624996 -2.662651 0.348158 0
M  V30 41 H -4.011774 -5.140070 2.182910 0
M  V30 END ATOM
M  V30 BEGIN BOND
M  V30 1 1 1 2
M  V30 2 1 2 3
M  V30 3 2 3 4
M  V30 4 1 4 5
M  V30 5 1 5 6
M  V30 6 1 6 7
M  V30 7 2 7 8
M  V30 8 1 8 9
M  V30 9 2 9 10
M  V30 10 1 10 11
M  V30 11 1 11 12
M  V30 12 1 12 13
M  V30 13 2 13 14
M  V30 14 1 14 15
M  V30 15 2 15 16
M  V30 16 1 16 17
M  V30 17 2 17 18
M  V30 18 1 18 19
M  V30 19 2 11 20
M  V30 20 2 5 21
M  V30 21 1 21 22
M  V30 22 2 22 23
M  V30 23 1 23 24
M  V30 24 2 24 25
M  V30 25 1 24 26
M  V30 26 1 23 3
M  V30 27 1 20 7
M  V30 28 1 18 13
M  V30 29 1 1 27
M  V30 30 1 1 28
M  V30 31 1 1 29
M  V30 32 1 4 30
M  V30 33 1 6 31
M  V30 34 1 9 32
M  V30 35 1 10 33
M  V30 36 1 12 34
M  V30 37 1 14 35
M  V30 38 1 15 36
M  V30 39 1 16 37
M  V30 40 1 17 38
M  V30 41 1 21 39
M  V30 42 1 22 40
M  V30 43 1 26 41
M  V30 END BOND
M  V30 END CTAB
M  END
>  <Dataset>  (46) 
ChEMBL_Kinases

>  <Ligand_Instance>  (46) 
nan

>  <PDB_ID>  (46) 
nan

>  <Standardized_SMILES>  (46) 
COc1cc(Nc2nccc(Nc3ccccc3Cl)n2)ccc1C(=O)O

>  <Name>  (46) 
nan

>  <Pocket>  (46) 
nan

>  <ATP_Site>  (46) 
nan

>  <Peripheral>  (46) 
nan

>  <Num_H_Atoms_ProtBoundConf>  (46) 
nan

>  <Num_Resolved_Atoms>  (46) 
nan

>  <Num_Not_Resolved_Atoms>  (46) 
nan

$$$$
CHEMBL2170406
     RDKit          3D

  0  0  0  0  0  0  0  0  0  0999 V3000
M  V30 BEGIN CTAB
M  V30 COUNTS 41 43 0 0 0
M  V30 BEGIN ATOM
M  V30 1 C -0.010363 -4.520497 2.266898 0
M  V30 2 C 0.231662 -3.799386 1.013928 0
M  V30 3 O -0.725277 -3.372140 0.318798 0
M  V30 4 N 1.567017 -3.568069 0.559318 0
M  V30 5 C 1.972762 -2.882639 -0.640452 0
M  V30 6 C 2.233469 -3.493085 -1.862878 0
M  V30 7 C 2.613817 -2.698153 -2.939025 0
M  V30 8 C 2.735331 -1.332732 -2.820926 0
M  V30 9 C 2.488105 -0.670303 -1.632354 0
M  V30 10 N 2.627223 0.730031 -1.542946 0
M  V30 11 C 2.100876 1.573234 -0.517315 0
M  V30 12 N 2.356598 2.889563 -0.487310 0
M  V30 13 C 1.860047 3.703960 0.456232 0
M  V30 14 C 1.047637 3.234533 1.462582 0
M  V30 15 C 0.773719 1.884275 1.447278 0
M  V30 16 N -0.010465 1.041942 2.316183 0
M  V30 17 C -1.352765 0.908899 2.719906 0
M  V30 18 C -1.814298 0.975063 4.000947 0
M  V30 19 C -3.167622 0.835643 4.223272 0
M  V30 20 C -4.043243 0.633534 3.184039 0
M  V30 21 C -3.581356 0.564169 1.871759 0
M  V30 22 C -2.224167 0.704612 1.653446 0
M  V30 23 Cl -1.726170 0.609643 -0.022287 0
M  V30 24 N 1.312162 1.146561 0.468067 0
M  V30 25 C 2.117055 -1.503041 -0.600585 0
M  V30 26 H -0.875266 -5.195908 2.115793 0
M  V30 27 H 0.861662 -5.072212 2.637203 0
M  V30 28 H -0.343450 -3.765589 3.025573 0
M  V30 29 H 2.374387 -3.918692 1.126134 0
M  V30 30 H 2.124066 -4.565199 -1.913136 0
M  V30 31 H 2.793892 -3.258577 -3.847497 0
M  V30 32 H 3.035467 -0.778848 -3.704204 0
M  V30 33 H 3.173941 1.208563 -2.306557 0
M  V30 34 H 2.042138 4.764286 0.513684 0
M  V30 35 H 0.560167 3.722105 2.293498 0
M  V30 36 H 0.483015 0.275454 2.837535 0
M  V30 37 H -1.079638 1.134149 4.798978 0
M  V30 38 H -3.485893 0.895239 5.274527 0
M  V30 39 H -5.093538 0.526978 3.370850 0
M  V30 40 H -4.314016 0.404275 1.070452 0
M  V30 41 H 1.914149 -1.067689 0.365676 0
M  V30 END ATOM
M  V30 BEGIN BOND
M  V30 1 1 1 2
M  V30 2 2 2 3
M  V30 3 1 2 4
M  V30 4 1 4 5
M  V30 5 2 5 6
M  V30 6 1 6 7
M  V30 7 2 7 8
M  V30 8 1 8 9
M  V30 9 1 9 10
M  V30 10 1 10 11
M  V30 11 2 11 12
M  V30 12 1 12 13
M  V30 13 2 13 14
M  V30 14 1 14 15
M  V30 15 1 15 16
M  V30 16 1 16 17
M  V30 17 2 17 18
M  V30 18 1 18 19
M  V30 19 2 19 20
M  V30 20 1 20 21
M  V30 21 2 21 22
M  V30 22 1 22 23
M  V30 23 2 15 24
M  V30 24 2 9 25
M  V30 25 1 25 5
M  V30 26 1 24 11
M  V30 27 1 22 17
M  V30 28 1 1 26
M  V30 29 1 1 27
M  V30 30 1 1 28
M  V30 31 1 4 29
M  V30 32 1 6 30
M  V30 33 1 7 31
M  V30 34 1 8 32
M  V30 35 1 10 33
M  V30 36 1 13 34
M  V30 37 1 14 35
M  V30 38 1 16 36
M  V30 39 1 18 37
M  V30 40 1 19 38
M  V30 41 1 20 39
M  V30 42 1 21 40
M  V30 43 1 25 41
M  V30 END BOND
M  V30 END CTAB
M  END
>  <Dataset>  (47) 
ChEMBL_Kinases

>  <Ligand_Instance>  (47) 
nan

>  <PDB_ID>  (47) 
nan

>  <Standardized_SMILES>  (47) 
CC(=O)Nc1cccc(Nc2nccc(Nc3ccccc3Cl)n2)c1

>  <Name>  (47) 
nan

>  <Pocket>  (47) 
nan

>  <ATP_Site>  (47) 
nan

>  <Peripheral>  (47) 
nan

>  <Num_H_Atoms_ProtBoundConf>  (47) 
nan

>  <Num_Resolved_Atoms>  (47) 
nan

>  <Num_Not_Resolved_Atoms>  (47) 
nan

$$$$
CHEMBL2163412
     RDKit          3D

  0  0  0  0  0  0  0  0  0  0999 V3000
M  V30 BEGIN CTAB
M  V30 COUNTS 69 73 0 0 0
M  V30 BEGIN ATOM
M  V30 1 C 1.693570 -1.925898 4.692203 0
M  V30 2 C 2.351999 -2.250018 3.386701 0
M  V30 3 C 3.287447 -1.524655 2.647005 0
M  V30 4 C 3.585946 -2.258160 1.504392 0
M  V30 5 N 4.542501 -1.598599 0.670993 0
M  V30 6 C 4.225303 -0.670833 -0.389711 0
M  V30 7 N 4.061059 0.645681 -0.097127 0
M  V30 8 C 3.768543 1.548698 -1.037582 0
M  V30 9 S 3.607660 3.197115 -0.316190 0
M  V30 10 C 1.876425 3.368571 0.155544 0
M  V30 11 C 0.926594 3.912250 -0.665155 0
M  V30 12 C -0.367596 4.000674 -0.270560 0
M  V30 13 C -0.760460 3.546358 0.964911 0
M  V30 14 N -2.066812 3.531296 1.582823 0
M  V30 15 C -2.571280 2.267414 1.110857 0
M  V30 16 O -1.573356 1.883028 0.405497 0
M  V30 17 C -3.936582 1.830669 1.527957 0
M  V30 18 N -4.335839 0.571322 0.993610 0
M  V30 19 C -4.547292 0.561105 -0.414740 0
M  V30 20 C -4.563821 -0.933037 -0.730312 0
M  V30 21 C -3.694573 -1.564556 0.334829 0 CFG=1
M  V30 22 O -2.565626 -2.052404 -0.320437 0
M  V30 23 C -2.400218 -3.403579 -0.304894 0
M  V30 24 C -1.110288 -3.682655 -1.094757 0
M  V30 25 C -2.102459 -3.924403 1.102833 0
M  V30 26 C -3.483445 -4.215013 -0.941789 0
M  V30 27 C -3.377642 -0.433755 1.248940 0
M  V30 28 C 0.175692 2.986639 1.829917 0
M  V30 29 C 1.491400 2.917923 1.380008 0
M  V30 30 N 3.625327 1.179206 -2.326643 0
M  V30 31 N 3.784023 -0.102242 -2.618860 0
M  V30 32 C 3.690698 -0.705928 -3.826689 0
M  V30 33 C 3.938839 -2.066902 -3.629426 0
M  V30 34 C 4.186003 -2.295157 -2.287266 0
M  V30 35 C 4.077601 -1.049733 -1.713155 0
M  V30 36 N 2.845266 -3.370830 1.584704 0
M  V30 37 N 2.128845 -3.370618 2.672882 0
M  V30 38 H 0.766228 -2.524973 4.775528 0
M  V30 39 H 2.370737 -2.205586 5.548514 0
M  V30 40 H 1.446265 -0.850216 4.722732 0
M  V30 41 H 3.593030 -0.572174 3.078754 0
M  V30 42 H 5.558934 -1.732119 0.759848 0
M  V30 43 H 1.205057 4.277250 -1.638422 0
M  V30 44 H -1.187711 4.408011 -0.835895 0
M  V30 45 H -2.610111 4.192574 2.215626 0
M  V30 46 H -4.687892 2.604977 1.259914 0
M  V30 47 H -3.928217 1.764546 2.634684 0
M  V30 48 H -3.799072 1.113634 -0.996660 0
M  V30 49 H -5.562513 0.954604 -0.623745 0
M  V30 50 H -5.585375 -1.325597 -0.762914 0
M  V30 51 H -4.138916 -1.046465 -1.759026 0
M  V30 52 H -4.300932 -2.364411 0.788231 0
M  V30 53 H -1.416787 -3.810417 -2.161818 0
M  V30 54 H -0.436966 -2.792868 -1.088863 0
M  V30 55 H -0.596168 -4.562630 -0.708975 0
M  V30 56 H -1.299299 -4.709375 1.084358 0
M  V30 57 H -1.793961 -3.090287 1.755195 0
M  V30 58 H -2.987995 -4.390396 1.552756 0
M  V30 59 H -4.281249 -4.559296 -0.257920 0
M  V30 60 H -3.899715 -3.704152 -1.828509 0
M  V30 61 H -3.014946 -5.154740 -1.329443 0
M  V30 62 H -2.313634 -0.161911 1.076893 0
M  V30 63 H -3.451558 -0.708637 2.329300 0
M  V30 64 H -0.008376 2.593125 2.825898 0
M  V30 65 H 2.247789 2.485721 2.030854 0
M  V30 66 H 3.472319 -0.295310 -4.799029 0
M  V30 67 H 3.951303 -2.872367 -4.369947 0
M  V30 68 H 4.413618 -3.198260 -1.756092 0
M  V30 69 H 1.471497 -4.117006 2.971188 0
M  V30 END ATOM
M  V30 BEGIN BOND
M  V30 1 1 1 2
M  V30 2 2 2 3
M  V30 3 1 3 4
M  V30 4 1 4 5
M  V30 5 1 5 6
M  V30 6 2 6 7
M  V30 7 1 7 8
M  V30 8 1 8 9
M  V30 9 1 9 10
M  V30 10 2 10 11
M  V30 11 1 11 12
M  V30 12 2 12 13
M  V30 13 1 13 14
M  V30 14 1 14 15
M  V30 15 2 15 16
M  V30 16 1 15 17
M  V30 17 1 17 18
M  V30 18 1 18 19
M  V30 19 1 19 20
M  V30 20 1 20 21
M  V30 21 1 21 22
M  V30 22 1 22 23
M  V30 23 1 23 24
M  V30 24 1 23 25
M  V30 25 1 23 26
M  V30 26 1 21 27
M  V30 27 1 13 28
M  V30 28 2 28 29
M  V30 29 2 8 30
M  V30 30 1 30 31
M  V30 31 1 31 32
M  V30 32 2 32 33
M  V30 33 1 33 34
M  V30 34 2 34 35
M  V30 35 2 4 36
M  V30 36 1 36 37
M  V30 37 1 37 2
M  V30 38 1 35 6
M  V30 39 1 29 10
M  V30 40 1 35 31
M  V30 41 1 27 18
M  V30 42 1 1 38
M  V30 43 1 1 39
M  V30 44 1 1 40
M  V30 45 1 3 41
M  V30 46 1 5 42
M  V30 47 1 11 43
M  V30 48 1 12 44
M  V30 49 1 14 45
M  V30 50 1 17 46
M  V30 51 1 17 47
M  V30 52 1 19 48
M  V30 53 1 19 49
M  V30 54 1 20 50
M  V30 55 1 20 51
M  V30 56 1 21 52 CFG=1
M  V30 57 1 24 53
M  V30 58 1 24 54
M  V30 59 1 24 55
M  V30 60 1 25 56
M  V30 61 1 25 57
M  V30 62 1 25 58
M  V30 63 1 26 59
M  V30 64 1 26 60
M  V30 65 1 26 61
M  V30 66 1 27 62
M  V30 67 1 27 63
M  V30 68 1 28 64
M  V30 69 1 29 65
M  V30 70 1 32 66
M  V30 71 1 33 67
M  V30 72 1 34 68
M  V30 73 1 37 69
M  V30 END BOND
M  V30 END CTAB
M  END
>  <Dataset>  (48) 
ChEMBL_Kinases

>  <Ligand_Instance>  (48) 
nan

>  <PDB_ID>  (48) 
nan

>  <Standardized_SMILES>  (48) 
Cc1cc(Nc2nc(Sc3ccc(NC(=O)CN4CC[C@@H](OC(C)(C)C)C4)cc3)nn3cccc23)n[nH]1

>  <Name>  (48) 
nan

>  <Pocket>  (48) 
nan

>  <ATP_Site>  (48) 
nan

>  <Peripheral>  (48) 
nan

>  <Num_H_Atoms_ProtBoundConf>  (48) 
nan

>  <Num_Resolved_Atoms>  (48) 
nan

>  <Num_Not_Resolved_Atoms>  (48) 
nan

$$$$
CHEMBL2163413
     RDKit          3D

  0  0  0  0  0  0  0  0  0  0999 V3000
M  V30 BEGIN CTAB
M  V30 COUNTS 69 73 0 0 0
M  V30 BEGIN ATOM
M  V30 1 C 5.054478 -1.885939 5.627849 0
M  V30 2 C 4.985948 -1.063550 4.372733 0
M  V30 3 C 5.812318 0.048992 4.248685 0
M  V30 4 C 5.564052 0.631528 3.017548 0
M  V30 5 N 6.189413 1.805140 2.460872 0
M  V30 6 C 5.769745 2.225257 1.169731 0
M  V30 7 N 4.762971 3.110111 1.006467 0
M  V30 8 C 4.353509 3.513753 -0.206931 0
M  V30 9 S 2.999840 4.702472 -0.362254 0
M  V30 10 C 1.433347 3.799769 -0.443524 0
M  V30 11 C 0.910258 3.387587 -1.651342 0
M  V30 12 C -0.288228 2.702462 -1.598695 0
M  V30 13 C -0.866051 2.483775 -0.356357 0
M  V30 14 N -2.113794 1.767182 -0.256196 0
M  V30 15 C -1.691355 0.393591 -0.117696 0
M  V30 16 O -0.438166 0.130273 -0.113476 0
M  V30 17 C -2.393922 -0.905895 0.034710 0
M  V30 18 N -3.817550 -0.637247 0.029569 0
M  V30 19 C -4.256874 -0.189605 -1.275305 0
M  V30 20 C -4.781853 -1.485980 -1.908243 0
M  V30 21 C -5.560794 -2.039190 -0.735838 0 CFG=1
M  V30 22 N -5.677077 -3.493125 -0.822493 0
M  V30 23 C -6.906303 -4.240751 -0.715419 0
M  V30 24 O -7.944234 -3.558573 -0.533080 0
M  V30 25 C -6.541456 -5.695052 -0.864884 0
M  V30 26 C -7.774316 -6.540204 -0.763925 0
M  V30 27 C -5.508648 -6.014398 0.169115 0
M  V30 28 C -4.610111 -1.754593 0.405410 0
M  V30 29 C -0.332263 2.902074 0.844539 0
M  V30 30 C 0.864159 3.586261 0.794380 0
M  V30 31 N 4.939929 3.044614 -1.319278 0
M  V30 32 N 5.946020 2.163139 -1.213191 0
M  V30 33 C 6.690665 1.549975 -2.179108 0
M  V30 34 C 7.585630 0.742259 -1.491539 0
M  V30 35 C 7.400010 0.852685 -0.139787 0
M  V30 36 C 6.348283 1.765633 -0.001539 0
M  V30 37 N 4.615371 -0.133650 2.451740 0
M  V30 38 N 4.268608 -1.132851 3.240210 0
M  V30 39 H 4.265777 -2.639330 5.638042 0
M  V30 40 H 4.915401 -1.205982 6.511079 0
M  V30 41 H 6.052583 -2.320195 5.752583 0
M  V30 42 H 6.557179 0.478919 4.928347 0
M  V30 43 H 6.916137 2.282049 3.038273 0
M  V30 44 H 1.435877 3.605819 -2.566345 0
M  V30 45 H -0.736923 2.360567 -2.513674 0
M  V30 46 H -3.149633 1.776260 -0.236633 0
M  V30 47 H -2.112590 -1.551828 -0.826025 0
M  V30 48 H -2.125741 -1.365428 0.993144 0
M  V30 49 H -5.035209 0.566015 -1.192103 0
M  V30 50 H -3.416491 0.114090 -1.939810 0
M  V30 51 H -5.484783 -1.190202 -2.691316 0
M  V30 52 H -3.971557 -2.132825 -2.234413 0
M  V30 53 H -6.535761 -1.535653 -0.604017 0
M  V30 54 H -4.680599 -3.837496 -0.978563 0
M  V30 55 H -6.058816 -5.850522 -1.875847 0
M  V30 56 H -7.647092 -7.479961 -1.347296 0
M  V30 57 H -7.886297 -6.859211 0.312223 0
M  V30 58 H -8.667134 -5.964957 -1.120179 0
M  V30 59 H -4.651834 -6.565542 -0.288432 0
M  V30 60 H -6.002223 -6.652036 0.952767 0
M  V30 61 H -5.123522 -5.099494 0.625224 0
M  V30 62 H -4.016846 -2.650968 0.690557 0
M  V30 63 H -5.191322 -1.450078 1.321260 0
M  V30 64 H -0.815903 2.712092 1.793216 0
M  V30 65 H 1.289345 3.917250 1.729478 0
M  V30 66 H 6.614734 1.657385 -3.248276 0
M  V30 67 H 8.346799 0.093532 -1.917216 0
M  V30 68 H 7.946606 0.344711 0.660410 0
M  V30 69 H 3.587120 -1.900686 3.134406 0
M  V30 END ATOM
M  V30 BEGIN BOND
M  V30 1 1 1 2
M  V30 2 2 2 3
M  V30 3 1 3 4
M  V30 4 1 4 5
M  V30 5 1 5 6
M  V30 6 2 6 7
M  V30 7 1 7 8
M  V30 8 1 8 9
M  V30 9 1 9 10
M  V30 10 2 10 11
M  V30 11 1 11 12
M  V30 12 2 12 13
M  V30 13 1 13 14
M  V30 14 1 14 15
M  V30 15 2 15 16
M  V30 16 1 15 17
M  V30 17 1 17 18
M  V30 18 1 18 19
M  V30 19 1 19 20
M  V30 20 1 20 21
M  V30 21 1 21 22
M  V30 22 1 22 23
M  V30 23 2 23 24
M  V30 24 1 23 25
M  V30 25 1 25 26
M  V30 26 1 25 27
M  V30 27 1 21 28
M  V30 28 1 13 29
M  V30 29 2 29 30
M  V30 30 2 8 31
M  V30 31 1 31 32
M  V30 32 1 32 33
M  V30 33 2 33 34
M  V30 34 1 34 35
M  V30 35 2 35 36
M  V30 36 2 4 37
M  V30 37 1 37 38
M  V30 38 1 38 2
M  V30 39 1 36 6
M  V30 40 1 30 10
M  V30 41 1 36 32
M  V30 42 1 28 18
M  V30 43 1 1 39
M  V30 44 1 1 40
M  V30 45 1 1 41
M  V30 46 1 3 42
M  V30 47 1 5 43
M  V30 48 1 11 44
M  V30 49 1 12 45
M  V30 50 1 14 46
M  V30 51 1 17 47
M  V30 52 1 17 48
M  V30 53 1 19 49
M  V30 54 1 19 50
M  V30 55 1 20 51
M  V30 56 1 20 52
M  V30 57 1 21 53 CFG=1
M  V30 58 1 22 54
M  V30 59 1 25 55
M  V30 60 1 26 56
M  V30 61 1 26 57
M  V30 62 1 26 58
M  V30 63 1 27 59
M  V30 64 1 27 60
M  V30 65 1 27 61
M  V30 66 1 28 62
M  V30 67 1 28 63
M  V30 68 1 29 64
M  V30 69 1 30 65
M  V30 70 1 33 66
M  V30 71 1 34 67
M  V30 72 1 35 68
M  V30 73 1 38 69
M  V30 END BOND
M  V30 END CTAB
M  END
>  <Dataset>  (49) 
ChEMBL_Kinases

>  <Ligand_Instance>  (49) 
nan

>  <PDB_ID>  (49) 
nan

>  <Standardized_SMILES>  (49) 
Cc1cc(Nc2nc(Sc3ccc(NC(=O)CN4CC[C@@H](NC(=O)C(C)C)C4)cc3)nn3cccc23)n[nH]1

>  <Name>  (49) 
nan

>  <Pocket>  (49) 
nan

>  <ATP_Site>  (49) 
nan

>  <Peripheral>  (49) 
nan

>  <Num_H_Atoms_ProtBoundConf>  (49) 
nan

>  <Num_Resolved_Atoms>  (49) 
nan

>  <Num_Not_Resolved_Atoms>  (49) 
nan

$$$$
CHEMBL2163608
     RDKit          3D

  0  0  0  0  0  0  0  0  0  0999 V3000
M  V30 BEGIN CTAB
M  V30 COUNTS 51 55 0 0 0
M  V30 BEGIN ATOM
M  V30 1 C 1.401327 -6.182603 4.297731 0
M  V30 2 C 1.591255 -5.390027 3.012313 0
M  V30 3 N 2.320993 -5.302346 2.123268 0
M  V30 4 C 2.290646 -4.510029 1.075113 0
M  V30 5 C 3.173485 -4.392115 -0.002209 0
M  V30 6 C 2.918750 -3.467140 -0.980538 0
M  V30 7 C 1.848606 -2.606457 -1.024297 0
M  V30 8 N 1.560045 -1.605364 -2.000611 0
M  V30 9 C 0.394312 -0.768390 -1.867110 0
M  V30 10 C 0.399619 0.184369 -0.857719 0
M  V30 11 C 1.595386 0.327593 -0.020513 0
M  V30 12 C -0.672869 1.022864 -0.644040 0
M  V30 13 N -0.811271 1.984001 0.388027 0
M  V30 14 C -0.211547 2.520746 1.551113 0 CFG=1
M  V30 15 C -0.822596 3.793300 2.101140 0
M  V30 16 C -2.275414 3.641118 2.367212 0
M  V30 17 C -2.509982 2.294819 3.009317 0
M  V30 18 N -1.304718 1.821342 3.671877 0
M  V30 19 C -0.255512 1.532663 2.709593 0
M  V30 20 N -1.732492 0.867745 -1.478335 0
M  V30 21 C -1.775897 -0.036309 -2.462333 0
M  V30 22 C -2.734942 -0.339341 -3.395855 0
M  V30 23 C -2.176612 -1.357273 -4.125020 0
M  V30 24 N -0.968669 -1.615583 -3.630375 0
M  V30 25 N -0.708161 -0.818228 -2.614796 0
M  V30 26 C 0.948768 -2.688143 0.017975 0
M  V30 27 C 1.210879 -3.629498 1.011836 0
M  V30 28 S 0.286687 -4.061072 2.572890 0
M  V30 29 H 2.415421 -6.165643 4.738423 0
M  V30 30 H 0.751347 -5.596103 4.988979 0
M  V30 31 H 1.009144 -7.183390 4.082962 0
M  V30 32 H 4.069140 -5.014371 -0.093256 0
M  V30 33 H 3.604483 -3.361209 -1.838497 0
M  V30 34 H 2.294645 -1.610021 -2.761046 0
M  V30 35 H 2.025739 1.358602 -0.091758 0
M  V30 36 H 2.449792 -0.302657 -0.423524 0
M  V30 37 H 1.504004 0.052109 1.020869 0
M  V30 38 H -1.692244 2.568791 0.317320 0
M  V30 39 H 0.859209 2.795883 1.361780 0
M  V30 40 H -0.575845 4.674385 1.467204 0
M  V30 41 H -0.323366 3.984257 3.068818 0
M  V30 42 H -2.865862 3.729516 1.459959 0
M  V30 43 H -2.606114 4.475582 3.054727 0
M  V30 44 H -2.875998 1.541293 2.314459 0
M  V30 45 H -3.257851 2.435642 3.812417 0
M  V30 46 H -1.581361 0.868813 4.064777 0
M  V30 47 H 0.689615 1.647537 3.264846 0
M  V30 48 H -0.311240 0.494747 2.346915 0
M  V30 49 H -3.672611 0.185065 -3.433264 0
M  V30 50 H -2.694519 -1.825219 -4.955490 0
M  V30 51 H 0.052101 -2.100961 0.151390 0
M  V30 END ATOM
M  V30 BEGIN BOND
M  V30 1 1 1 2
M  V30 2 2 2 3
M  V30 3 1 3 4
M  V30 4 2 4 5
M  V30 5 1 5 6
M  V30 6 2 6 7
M  V30 7 1 7 8
M  V30 8 1 8 9
M  V30 9 2 9 10
M  V30 10 1 10 11
M  V30 11 1 10 12
M  V30 12 1 12 13
M  V30 13 1 13 14
M  V30 14 1 14 15
M  V30 15 1 15 16
M  V30 16 1 16 17
M  V30 17 1 17 18
M  V30 18 1 18 19
M  V30 19 2 12 20
M  V30 20 1 20 21
M  V30 21 2 21 22
M  V30 22 1 22 23
M  V30 23 2 23 24
M  V30 24 1 24 25
M  V30 25 1 7 26
M  V30 26 2 26 27
M  V30 27 1 27 28
M  V30 28 1 28 2
M  V30 29 1 27 4
M  V30 30 1 25 9
M  V30 31 1 19 14
M  V30 32 1 25 21
M  V30 33 1 1 29
M  V30 34 1 1 30
M  V30 35 1 1 31
M  V30 36 1 5 32
M  V30 37 1 6 33
M  V30 38 1 8 34
M  V30 39 1 11 35
M  V30 40 1 11 36
M  V30 41 1 11 37
M  V30 42 1 13 38
M  V30 43 1 14 39 CFG=3
M  V30 44 1 15 40
M  V30 45 1 15 41
M  V30 46 1 16 42
M  V30 47 1 16 43
M  V30 48 1 17 44
M  V30 49 1 17 45
M  V30 50 1 18 46
M  V30 51 1 19 47
M  V30 52 1 19 48
M  V30 53 1 22 49
M  V30 54 1 23 50
M  V30 55 1 26 51
M  V30 END BOND
M  V30 END CTAB
M  END
>  <Dataset>  (50) 
ChEMBL_Kinases

>  <Ligand_Instance>  (50) 
nan

>  <PDB_ID>  (50) 
nan

>  <Standardized_SMILES>  (50) 
Cc1nc2ccc(Nc3c(C)c(N[C@H]4CCCNC4)nc4ccnn34)cc2s1

>  <Name>  (50) 
nan

>  <Pocket>  (50) 
nan

>  <ATP_Site>  (50) 
nan

>  <Peripheral>  (50) 
nan

>  <Num_H_Atoms_ProtBoundConf>  (50) 
nan

>  <Num_Resolved_Atoms>  (50) 
nan

>  <Num_Not_Resolved_Atoms>  (50) 
nan

$$$$
CHEMBL2163616
     RDKit          3D

  0  0  0  0  0  0  0  0  0  0999 V3000
M  V30 BEGIN CTAB
M  V30 COUNTS 57 60 0 0 0
M  V30 BEGIN ATOM
M  V30 1 C 0.674209 -4.442793 7.388348 0
M  V30 2 O 1.669590 -3.497686 7.133952 0
M  V30 3 C 2.092459 -3.572900 5.789909 0
M  V30 4 C 3.143225 -2.532256 5.619435 0
M  V30 5 O 3.718248 -2.410858 4.372823 0
M  V30 6 C 3.218329 -2.109611 3.159127 0
M  V30 7 C 1.960150 -1.803762 2.688349 0
M  V30 8 C 1.700015 -1.527499 1.366518 0
M  V30 9 C 2.729412 -1.551940 0.456069 0
M  V30 10 N 2.482205 -1.267654 -0.916000 0
M  V30 11 C 1.175412 -0.984399 -1.400722 0
M  V30 12 C 0.627002 0.281962 -1.415924 0
M  V30 13 C 1.412655 1.418485 -0.903171 0
M  V30 14 C -0.638542 0.492121 -1.901401 0
M  V30 15 N -1.247354 1.776629 -1.937253 0
M  V30 16 C -2.578194 1.927506 -2.463534 0 CFG=1
M  V30 17 C -3.629739 1.139206 -1.742624 0
M  V30 18 C -4.756836 0.935571 -2.757686 0
M  V30 19 C -5.100582 2.314029 -3.269519 0
M  V30 20 N -4.463739 3.382237 -2.542550 0
M  V30 21 C -3.023775 3.344504 -2.577350 0
M  V30 22 N -1.321560 -0.596018 -2.363232 0
M  V30 23 C -0.745559 -1.828817 -2.331021 0
M  V30 24 C -1.303293 -3.010586 -2.757301 0
M  V30 25 C -0.341222 -3.993204 -2.525028 0
M  V30 26 N 0.721612 -3.373106 -1.984550 0
M  V30 27 N 0.503856 -2.078726 -1.858517 0
M  V30 28 C 4.034785 -1.852856 0.852186 0
M  V30 29 C 4.249142 -2.127327 2.209010 0
M  V30 30 H 0.992990 -5.471445 7.217077 0
M  V30 31 H -0.264416 -4.190421 6.817076 0
M  V30 32 H 0.390958 -4.330861 8.446718 0
M  V30 33 H 2.483134 -4.608050 5.617068 0
M  V30 34 H 1.187329 -3.410857 5.184044 0
M  V30 35 H 2.655724 -1.538303 5.857407 0
M  V30 36 H 3.913490 -2.698077 6.416625 0
M  V30 37 H 1.218638 -1.802413 3.471470 0
M  V30 38 H 0.673116 -1.297627 1.093753 0
M  V30 39 H 3.260669 -1.260329 -1.609808 0
M  V30 40 H 2.390565 1.093266 -0.499704 0
M  V30 41 H 1.617777 2.130070 -1.725978 0
M  V30 42 H 0.886272 1.968074 -0.082848 0
M  V30 43 H -0.699673 2.581174 -1.573921 0
M  V30 44 H -2.533868 1.510542 -3.511770 0
M  V30 45 H -4.066275 1.770083 -0.924206 0
M  V30 46 H -3.287877 0.202932 -1.287438 0
M  V30 47 H -4.282463 0.385685 -3.616933 0
M  V30 48 H -5.607591 0.375885 -2.347005 0
M  V30 49 H -6.199442 2.454835 -3.102413 0
M  V30 50 H -4.946253 2.409809 -4.365903 0
M  V30 51 H -4.881093 3.507016 -1.616463 0
M  V30 52 H -2.600008 3.874069 -3.453407 0
M  V30 53 H -2.659297 3.888471 -1.662844 0
M  V30 54 H -2.285331 -3.233708 -3.198825 0
M  V30 55 H -0.362552 -5.071427 -2.713492 0
M  V30 56 H 4.803238 -1.857871 0.094780 0
M  V30 57 H 5.302344 -2.344525 2.379686 0
M  V30 END ATOM
M  V30 BEGIN BOND
M  V30 1 1 1 2
M  V30 2 1 2 3
M  V30 3 1 3 4
M  V30 4 1 4 5
M  V30 5 1 5 6
M  V30 6 2 6 7
M  V30 7 1 7 8
M  V30 8 2 8 9
M  V30 9 1 9 10
M  V30 10 1 10 11
M  V30 11 2 11 12
M  V30 12 1 12 13
M  V30 13 1 12 14
M  V30 14 1 14 15
M  V30 15 1 15 16
M  V30 16 1 16 17
M  V30 17 1 17 18
M  V30 18 1 18 19
M  V30 19 1 19 20
M  V30 20 1 20 21
M  V30 21 2 14 22
M  V30 22 1 22 23
M  V30 23 2 23 24
M  V30 24 1 24 25
M  V30 25 2 25 26
M  V30 26 1 26 27
M  V30 27 1 9 28
M  V30 28 2 28 29
M  V30 29 1 29 6
M  V30 30 1 27 11
M  V30 31 1 21 16
M  V30 32 1 27 23
M  V30 33 1 1 30
M  V30 34 1 1 31
M  V30 35 1 1 32
M  V30 36 1 3 33
M  V30 37 1 3 34
M  V30 38 1 4 35
M  V30 39 1 4 36
M  V30 40 1 7 37
M  V30 41 1 8 38
M  V30 42 1 10 39
M  V30 43 1 13 40
M  V30 44 1 13 41
M  V30 45 1 13 42
M  V30 46 1 15 43
M  V30 47 1 16 44 CFG=3
M  V30 48 1 17 45
M  V30 49 1 17 46
M  V30 50 1 18 47
M  V30 51 1 18 48
M  V30 52 1 19 49
M  V30 53 1 19 50
M  V30 54 1 20 51
M  V30 55 1 21 52
M  V30 56 1 21 53
M  V30 57 1 24 54
M  V30 58 1 25 55
M  V30 59 1 28 56
M  V30 60 1 29 57
M  V30 END BOND
M  V30 END CTAB
M  END
>  <Dataset>  (51) 
ChEMBL_Kinases

>  <Ligand_Instance>  (51) 
nan

>  <PDB_ID>  (51) 
nan

>  <Standardized_SMILES>  (51) 
COCCOc1ccc(Nc2c(C)c(N[C@H]3CCCNC3)nc3ccnn23)cc1

>  <Name>  (51) 
nan

>  <Pocket>  (51) 
nan

>  <ATP_Site>  (51) 
nan

>  <Peripheral>  (51) 
nan

>  <Num_H_Atoms_ProtBoundConf>  (51) 
nan

>  <Num_Resolved_Atoms>  (51) 
nan

>  <Num_Not_Resolved_Atoms>  (51) 
nan

$$$$
CHEMBL2163769
     RDKit          3D

  0  0  0  0  0  0  0  0  0  0999 V3000
M  V30 BEGIN CTAB
M  V30 COUNTS 48 52 0 0 0
M  V30 BEGIN ATOM
M  V30 1 C -3.880300 -5.300570 3.417843 0
M  V30 2 C -2.904383 -4.348261 2.792358 0
M  V30 3 C -1.673230 -4.264141 3.410112 0
M  V30 4 C -0.747417 -3.397568 2.863143 0
M  V30 5 O 0.481021 -3.099971 3.210450 0
M  V30 6 C 1.003376 -2.217976 2.406888 0
M  V30 7 N 2.207509 -1.619643 2.361133 0
M  V30 8 C 2.499378 -0.725265 1.406532 0
M  V30 9 C 1.649111 -0.325497 0.403841 0
M  V30 10 O 1.765365 0.547376 -0.627440 0
M  V30 11 C 2.795143 1.369330 -1.050698 0
M  V30 12 C 3.262692 2.393860 -0.119765 0
M  V30 13 C 2.472520 3.538514 -0.214822 0
M  V30 14 C 2.705751 4.683019 0.556710 0
M  V30 15 C 3.744040 4.712932 1.450976 0
M  V30 16 C 4.533578 3.575856 1.548960 0
M  V30 17 C 4.294948 2.456196 0.785021 0
M  V30 18 C 0.378359 -0.928861 0.416588 0
M  V30 19 C -0.662228 -0.615683 -0.589183 0
M  V30 20 C -1.535124 0.437015 -0.291457 0
M  V30 21 C -2.495642 0.724262 -1.240388 0
M  V30 22 C -2.553141 -0.020705 -2.414060 0
M  V30 23 C -1.666556 -1.044922 -2.650522 0
M  V30 24 C -0.680557 -1.390438 -1.750644 0
M  V30 25 C 0.081936 -1.863114 1.418509 0
M  V30 26 C -1.014736 -2.634348 1.745003 0
M  V30 27 C -2.248844 -2.763783 1.182554 0
M  V30 28 C -3.230738 -3.604905 1.664509 0
M  V30 29 O -4.493964 -3.784527 1.148149 0
M  V30 30 H -3.469126 -6.331910 3.489290 0
M  V30 31 H -4.823615 -5.310042 2.844894 0
M  V30 32 H -4.139729 -4.974381 4.453886 0
M  V30 33 H -1.414293 -4.839347 4.286601 0
M  V30 34 H 3.459324 -0.244734 1.358251 0
M  V30 35 H 2.521247 1.785125 -2.049050 0
M  V30 36 H 3.701535 0.715154 -1.262166 0
M  V30 37 H 1.604609 3.694418 -0.871607 0
M  V30 38 H 2.121134 5.578504 0.510757 0
M  V30 39 H 4.016590 5.528563 2.091088 0
M  V30 40 H 5.383116 3.486683 2.223603 0
M  V30 41 H 4.871077 1.542173 0.801164 0
M  V30 42 H -1.409587 0.955153 0.646858 0
M  V30 43 H -3.152758 1.539012 -0.983616 0
M  V30 44 H -3.320898 0.238227 -3.129583 0
M  V30 45 H -1.707861 -1.631307 -3.568721 0
M  V30 46 H 0.054355 -2.174394 -1.851347 0
M  V30 47 H -2.514366 -2.194868 0.309868 0
M  V30 48 H -5.124595 -3.017421 0.954259 0
M  V30 END ATOM
M  V30 BEGIN BOND
M  V30 1 1 1 2
M  V30 2 2 2 3
M  V30 3 1 3 4
M  V30 4 1 4 5
M  V30 5 1 5 6
M  V30 6 2 6 7
M  V30 7 1 7 8
M  V30 8 2 8 9
M  V30 9 1 9 10
M  V30 10 1 10 11
M  V30 11 1 11 12
M  V30 12 2 12 13
M  V30 13 1 13 14
M  V30 14 2 14 15
M  V30 15 1 15 16
M  V30 16 2 16 17
M  V30 17 1 9 18
M  V30 18 1 18 19
M  V30 19 2 19 20
M  V30 20 1 20 21
M  V30 21 2 21 22
M  V30 22 1 22 23
M  V30 23 2 23 24
M  V30 24 2 18 25
M  V30 25 1 25 26
M  V30 26 1 26 27
M  V30 27 2 27 28
M  V30 28 1 28 29
M  V30 29 1 28 2
M  V30 30 2 26 4
M  V30 31 1 25 6
M  V30 32 1 17 12
M  V30 33 1 24 19
M  V30 34 1 1 30
M  V30 35 1 1 31
M  V30 36 1 1 32
M  V30 37 1 3 33
M  V30 38 1 8 34
M  V30 39 1 11 35
M  V30 40 1 11 36
M  V30 41 1 13 37
M  V30 42 1 14 38
M  V30 43 1 15 39
M  V30 44 1 16 40
M  V30 45 1 17 41
M  V30 46 1 20 42
M  V30 47 1 21 43
M  V30 48 1 22 44
M  V30 49 1 23 45
M  V30 50 1 24 46
M  V30 51 1 27 47
M  V30 52 1 29 48
M  V30 END BOND
M  V30 END CTAB
M  END
>  <Dataset>  (52) 
ChEMBL_Kinases

>  <Ligand_Instance>  (52) 
nan

>  <PDB_ID>  (52) 
nan

>  <Standardized_SMILES>  (52) 
Cc1cc2oc3ncc(OCc4ccccc4)c(-c4ccccc4)c3c2cc1O

>  <Name>  (52) 
nan

>  <Pocket>  (52) 
nan

>  <ATP_Site>  (52) 
nan

>  <Peripheral>  (52) 
nan

>  <Num_H_Atoms_ProtBoundConf>  (52) 
nan

>  <Num_Resolved_Atoms>  (52) 
nan

>  <Num_Not_Resolved_Atoms>  (52) 
nan

$$$$
CHEMBL2163770
     RDKit          3D

  0  0  0  0  0  0  0  0  0  0999 V3000
M  V30 BEGIN CTAB
M  V30 COUNTS 51 56 0 0 0
M  V30 BEGIN ATOM
M  V30 1 O -2.980868 -4.831988 -0.050501 0
M  V30 2 C -1.663294 -4.405585 0.143467 0
M  V30 3 C -1.263635 -3.086600 0.078812 0
M  V30 4 C 0.027207 -2.695309 0.271613 0
M  V30 5 C 0.960581 -3.674898 0.542029 0
M  V30 6 O 2.107334 -3.054128 0.684846 0
M  V30 7 C 1.955487 -1.762427 0.523279 0
M  V30 8 N 2.831398 -0.728171 0.574074 0
M  V30 9 C 2.428749 0.537142 0.369914 0
M  V30 10 C 1.136683 0.919856 0.097068 0
M  V30 11 O 0.551791 2.097122 -0.131325 0
M  V30 12 C 0.996643 3.405518 -0.181218 0
M  V30 13 C 1.575595 3.874422 1.098180 0
M  V30 14 C 0.602390 4.332969 1.998084 0
M  V30 15 C 0.874403 4.837334 3.250610 0
M  V30 16 C 2.188187 4.906075 3.671151 0
M  V30 17 C 3.155163 4.462420 2.804801 0
M  V30 18 C 2.867585 3.963457 1.561496 0
M  V30 19 C 0.208198 -0.135734 0.038832 0
M  V30 20 C -1.227373 0.097132 -0.244475 0
M  V30 21 C -2.038156 0.323398 0.850518 0
M  V30 22 C -3.374342 0.547527 0.574855 0
M  V30 23 C -3.818668 0.534585 -0.740019 0
M  V30 24 C -2.957901 0.303637 -1.772932 0
M  V30 25 C -1.611252 0.070910 -1.590794 0
M  V30 26 C 0.629174 -1.455204 0.251709 0
M  V30 27 C 0.584583 -5.001871 0.611792 0
M  V30 28 C 1.552983 -5.965538 0.886927 0
M  V30 29 C 1.199348 -7.291673 0.960665 0
M  V30 30 C -0.122936 -7.703059 0.764301 0
M  V30 31 C -1.047898 -6.738208 0.496895 0
M  V30 32 C -0.724598 -5.397639 0.416173 0
M  V30 33 H -3.719738 -4.413186 0.489954 0
M  V30 34 H -2.021274 -2.370343 -0.132978 0
M  V30 35 H 3.130286 1.349066 0.405807 0
M  V30 36 H 1.771722 3.553033 -0.979802 0
M  V30 37 H 0.116198 4.053972 -0.469093 0
M  V30 38 H -0.465430 4.330496 1.783285 0
M  V30 39 H 0.138528 5.185891 3.935429 0
M  V30 40 H 2.564408 5.272147 4.615679 0
M  V30 41 H 4.210138 4.477156 3.046185 0
M  V30 42 H 3.582919 3.608920 0.833120 0
M  V30 43 H -1.627419 0.318745 1.833670 0
M  V30 44 H -4.070865 0.731638 1.371983 0
M  V30 45 H -4.855344 0.703510 -1.023369 0
M  V30 46 H -3.293780 0.289924 -2.821893 0
M  V30 47 H -0.857730 -0.120262 -2.341166 0
M  V30 48 H 2.573278 -5.613049 1.034805 0
M  V30 49 H 1.963004 -8.043761 1.176817 0
M  V30 50 H -0.396321 -8.749129 0.823473 0
M  V30 51 H -2.097438 -6.976947 0.331925 0
M  V30 END ATOM
M  V30 BEGIN BOND
M  V30 1 1 1 2
M  V30 2 2 2 3
M  V30 3 1 3 4
M  V30 4 2 4 5
M  V30 5 1 5 6
M  V30 6 1 6 7
M  V30 7 2 7 8
M  V30 8 1 8 9
M  V30 9 2 9 10
M  V30 10 1 10 11
M  V30 11 1 11 12
M  V30 12 1 12 13
M  V30 13 2 13 14
M  V30 14 1 14 15
M  V30 15 2 15 16
M  V30 16 1 16 17
M  V30 17 2 17 18
M  V30 18 1 10 19
M  V30 19 1 19 20
M  V30 20 2 20 21
M  V30 21 1 21 22
M  V30 22 2 22 23
M  V30 23 1 23 24
M  V30 24 2 24 25
M  V30 25 2 19 26
M  V30 26 1 5 27
M  V30 27 2 27 28
M  V30 28 1 28 29
M  V30 29 2 29 30
M  V30 30 1 30 31
M  V30 31 2 31 32
M  V30 32 1 32 2
M  V30 33 1 26 4
M  V30 34 1 32 27
M  V30 35 1 26 7
M  V30 36 1 18 13
M  V30 37 1 25 20
M  V30 38 1 1 33
M  V30 39 1 3 34
M  V30 40 1 9 35
M  V30 41 1 12 36
M  V30 42 1 12 37
M  V30 43 1 14 38
M  V30 44 1 15 39
M  V30 45 1 16 40
M  V30 46 1 17 41
M  V30 47 1 18 42
M  V30 48 1 21 43
M  V30 49 1 22 44
M  V30 50 1 23 45
M  V30 51 1 24 46
M  V30 52 1 25 47
M  V30 53 1 28 48
M  V30 54 1 29 49
M  V30 55 1 30 50
M  V30 56 1 31 51
M  V30 END BOND
M  V30 END CTAB
M  END
>  <Dataset>  (53) 
ChEMBL_Kinases

>  <Ligand_Instance>  (53) 
nan

>  <PDB_ID>  (53) 
nan

>  <Standardized_SMILES>  (53) 
Oc1cc2c(oc3ncc(OCc4ccccc4)c(-c4ccccc4)c32)c2ccccc12

>  <Name>  (53) 
nan

>  <Pocket>  (53) 
nan

>  <ATP_Site>  (53) 
nan

>  <Peripheral>  (53) 
nan

>  <Num_H_Atoms_ProtBoundConf>  (53) 
nan

>  <Num_Resolved_Atoms>  (53) 
nan

>  <Num_Not_Resolved_Atoms>  (53) 
nan

$$$$
CHEMBL2163774
     RDKit          3D

  0  0  0  0  0  0  0  0  0  0999 V3000
M  V30 BEGIN CTAB
M  V30 COUNTS 48 52 0 0 0
M  V30 BEGIN ATOM
M  V30 1 C -2.501454 -5.645332 1.026128 0
M  V30 2 O -1.371211 -5.964543 0.272085 0
M  V30 3 C -0.435380 -5.081038 -0.220257 0
M  V30 4 C 0.586825 -5.692173 -0.939359 0
M  V30 5 C 1.580498 -4.882462 -1.476886 0
M  V30 6 C 1.546072 -3.515218 -1.297743 0
M  V30 7 O 2.325310 -2.545461 -1.680812 0
M  V30 8 C 1.891984 -1.389724 -1.272831 0
M  V30 9 N 2.370766 -0.142730 -1.433402 0
M  V30 10 C 1.708696 0.889536 -0.894275 0
M  V30 11 C 0.550744 0.854926 -0.162544 0
M  V30 12 O -0.244644 1.754594 0.445203 0
M  V30 13 C -0.062804 3.122143 0.498085 0
M  V30 14 C 1.161660 3.612174 1.171607 0
M  V30 15 C 0.913640 3.620947 2.557116 0
M  V30 16 C 1.860577 4.048326 3.479660 0
M  V30 17 C 3.106770 4.488637 3.047287 0
M  V30 18 C 3.343102 4.478478 1.697370 0
M  V30 19 C 2.408974 4.057851 0.795663 0
M  V30 20 C 0.031933 -0.446165 0.016815 0
M  V30 21 C -1.190530 -0.707754 0.762090 0
M  V30 22 C -2.378366 -0.698199 0.017985 0
M  V30 23 C -3.544634 -0.930688 0.695828 0
M  V30 24 C -3.508655 -1.160916 2.057325 0
M  V30 25 C -2.310068 -1.158703 2.739187 0
M  V30 26 C -1.084689 -0.930479 2.120356 0
M  V30 27 C 0.710239 -1.540346 -0.540016 0
M  V30 28 C 0.534328 -2.908623 -0.585777 0
M  V30 29 C -0.450031 -3.710911 -0.053312 0
M  V30 30 H -3.406269 -6.134801 0.586216 0
M  V30 31 H -2.716488 -4.575930 1.138601 0
M  V30 32 H -2.396291 -6.086238 2.053522 0
M  V30 33 H 0.713386 -6.745761 -1.140861 0
M  V30 34 H 2.401473 -5.277107 -2.043337 0
M  V30 35 H 2.084752 1.876340 -1.031596 0
M  V30 36 H -0.969148 3.672788 0.857373 0
M  V30 37 H 0.031274 3.509234 -0.573730 0
M  V30 38 H 0.019565 3.321645 3.091389 0
M  V30 39 H 1.744640 4.083552 4.546853 0
M  V30 40 H 3.924884 4.843401 3.653245 0
M  V30 41 H 4.256270 4.785847 1.174027 0
M  V30 42 H 2.487805 4.023808 -0.277035 0
M  V30 43 H -2.347259 -0.512313 -1.046311 0
M  V30 44 H -4.478987 -0.936279 0.186544 0
M  V30 45 H -4.447831 -1.339563 2.553300 0
M  V30 46 H -2.309469 -1.342507 3.809884 0
M  V30 47 H -0.136383 -0.919169 2.604099 0
M  V30 48 H -1.261553 -3.290307 0.509964 0
M  V30 END ATOM
M  V30 BEGIN BOND
M  V30 1 1 1 2
M  V30 2 1 2 3
M  V30 3 2 3 4
M  V30 4 1 4 5
M  V30 5 2 5 6
M  V30 6 1 6 7
M  V30 7 1 7 8
M  V30 8 2 8 9
M  V30 9 1 9 10
M  V30 10 2 10 11
M  V30 11 1 11 12
M  V30 12 1 12 13
M  V30 13 1 13 14
M  V30 14 2 14 15
M  V30 15 1 15 16
M  V30 16 2 16 17
M  V30 17 1 17 18
M  V30 18 2 18 19
M  V30 19 1 11 20
M  V30 20 1 20 21
M  V30 21 2 21 22
M  V30 22 1 22 23
M  V30 23 2 23 24
M  V30 24 1 24 25
M  V30 25 2 25 26
M  V30 26 2 20 27
M  V30 27 1 27 28
M  V30 28 2 28 29
M  V30 29 1 29 3
M  V30 30 1 28 6
M  V30 31 1 27 8
M  V30 32 1 19 14
M  V30 33 1 26 21
M  V30 34 1 1 30
M  V30 35 1 1 31
M  V30 36 1 1 32
M  V30 37 1 4 33
M  V30 38 1 5 34
M  V30 39 1 10 35
M  V30 40 1 13 36
M  V30 41 1 13 37
M  V30 42 1 15 38
M  V30 43 1 16 39
M  V30 44 1 17 40
M  V30 45 1 18 41
M  V30 46 1 19 42
M  V30 47 1 22 43
M  V30 48 1 23 44
M  V30 49 1 24 45
M  V30 50 1 25 46
M  V30 51 1 26 47
M  V30 52 1 29 48
M  V30 END BOND
M  V30 END CTAB
M  END
>  <Dataset>  (54) 
ChEMBL_Kinases

>  <Ligand_Instance>  (54) 
nan

>  <PDB_ID>  (54) 
nan

>  <Standardized_SMILES>  (54) 
COc1ccc2oc3ncc(OCc4ccccc4)c(-c4ccccc4)c3c2c1

>  <Name>  (54) 
nan

>  <Pocket>  (54) 
nan

>  <ATP_Site>  (54) 
nan

>  <Peripheral>  (54) 
nan

>  <Num_H_Atoms_ProtBoundConf>  (54) 
nan

>  <Num_Resolved_Atoms>  (54) 
nan

>  <Num_Not_Resolved_Atoms>  (54) 
nan

$$$$
CHEMBL216388
     RDKit          3D

  0  0  0  0  0  0  0  0  0  0999 V3000
M  V30 BEGIN CTAB
M  V30 COUNTS 75 79 0 0 0
M  V30 BEGIN ATOM
M  V30 1 C 2.730191 -2.741927 -0.258262 0
M  V30 2 O 1.718055 -2.782439 0.566721 0
M  V30 3 C 0.706128 -2.802740 1.315075 0
M  V30 4 C -0.544899 -2.436561 0.837454 0
M  V30 5 C -1.704297 -2.425021 1.576703 0
M  V30 6 C -2.867011 -2.007649 0.979646 0
M  V30 7 N -3.055412 -1.631103 -0.360376 0
M  V30 8 C -2.457662 -1.697895 -1.636364 0
M  V30 9 C -1.669929 -0.877237 -2.458910 0
M  V30 10 C -1.427058 -1.619551 -3.598517 0
M  V30 11 C -0.590516 -0.991521 -4.689620 0
M  V30 12 C -1.496129 -0.040669 -5.385848 0
M  V30 13 O -2.681804 -0.027480 -4.921372 0
M  V30 14 N -1.166085 0.815318 -6.470160 0
M  V30 15 C -2.314891 1.573744 -6.838416 0
M  V30 16 C -2.338805 2.741339 -6.050284 0
M  V30 17 C -3.348544 3.702025 -6.169370 0
M  V30 18 C -4.333497 3.441927 -7.113751 0
M  V30 19 F -5.370532 4.306840 -7.323145 0
M  V30 20 C -4.311305 2.307169 -7.879275 0
M  V30 21 C -3.312623 1.352404 -7.764176 0
M  V30 22 N -2.019291 -2.818928 -3.500262 0
M  V30 23 N -2.625598 -2.857327 -2.338660 0
M  V30 24 N -3.966587 -1.991246 1.774945 0
M  V30 25 C -3.866245 -2.371967 3.056360 0
M  V30 26 N -2.713457 -2.774250 3.606782 0
M  V30 27 C -1.583435 -2.817566 2.892408 0
M  V30 28 C -0.377085 -3.193960 3.427137 0
M  V30 29 C 0.776100 -3.193767 2.666315 0
M  V30 30 O 2.005712 -3.539061 3.109816 0
M  V30 31 C 2.495933 -3.947709 4.311005 0
M  V30 32 C 2.433171 -3.069890 5.501887 0
M  V30 33 C 3.170864 -1.782242 5.406554 0
M  V30 34 N 2.741830 -0.845034 4.404618 0
M  V30 35 C 3.657665 0.302272 4.386171 0
M  V30 36 C 3.319391 1.234575 3.271326 0
M  V30 37 C 1.895407 1.764153 3.404756 0
M  V30 38 C 1.073530 1.338963 2.199373 0
M  V30 39 O 1.684514 1.874882 1.047939 0
M  V30 40 C 1.356608 1.198638 4.699887 0
M  V30 41 C 1.418535 -0.313010 4.723402 0
M  V30 42 H 3.162062 -3.768735 -0.544552 0
M  V30 43 H 3.642007 -2.281146 0.253155 0
M  V30 44 H 2.584845 -2.177478 -1.230529 0
M  V30 45 H -0.590843 -2.144031 -0.183180 0
M  V30 46 H -3.939891 -1.089609 -0.602616 0
M  V30 47 H -1.429256 0.099056 -2.065695 0
M  V30 48 H -0.280646 -1.776905 -5.404282 0
M  V30 49 H 0.263329 -0.507795 -4.186916 0
M  V30 50 H -0.180814 0.776418 -6.834238 0
M  V30 51 H -1.607577 3.037681 -5.278767 0
M  V30 52 H -3.399467 4.598715 -5.583163 0
M  V30 53 H -5.054603 2.030997 -8.642541 0
M  V30 54 H -3.157220 0.422188 -8.276518 0
M  V30 55 H -1.948070 -3.525821 -4.264454 0
M  V30 56 H -4.774561 -2.344514 3.661709 0
M  V30 57 H -0.361684 -3.485659 4.458696 0
M  V30 58 H 1.914909 -4.891638 4.599083 0
M  V30 59 H 3.548935 -4.355142 4.246059 0
M  V30 60 H 1.405595 -2.862225 5.875955 0
M  V30 61 H 2.903524 -3.613394 6.388827 0
M  V30 62 H 3.108567 -1.240369 6.398304 0
M  V30 63 H 4.268911 -1.996524 5.247569 0
M  V30 64 H 3.658172 0.847931 5.331973 0
M  V30 65 H 4.661393 -0.145853 4.170158 0
M  V30 66 H 3.966714 2.140897 3.321565 0
M  V30 67 H 3.426071 0.780284 2.277331 0
M  V30 68 H 1.842377 2.861879 3.468421 0
M  V30 69 H 0.960521 0.250280 2.117795 0
M  V30 70 H 0.062040 1.790581 2.227469 0
M  V30 71 H 1.541556 1.234221 0.280299 0
M  V30 72 H 0.262470 1.487410 4.705491 0
M  V30 73 H 1.848368 1.698808 5.532710 0
M  V30 74 H 0.727579 -0.636531 3.915427 0
M  V30 75 H 1.079862 -0.651588 5.710787 0
M  V30 END ATOM
M  V30 BEGIN BOND
M  V30 1 1 1 2
M  V30 2 1 2 3
M  V30 3 2 3 4
M  V30 4 1 4 5
M  V30 5 2 5 6
M  V30 6 1 6 7
M  V30 7 1 7 8
M  V30 8 1 8 9
M  V30 9 2 9 10
M  V30 10 1 10 11
M  V30 11 1 11 12
M  V30 12 2 12 13
M  V30 13 1 12 14
M  V30 14 1 14 15
M  V30 15 2 15 16
M  V30 16 1 16 17
M  V30 17 2 17 18
M  V30 18 1 18 19
M  V30 19 1 18 20
M  V30 20 2 20 21
M  V30 21 1 10 22
M  V30 22 1 22 23
M  V30 23 1 6 24
M  V30 24 2 24 25
M  V30 25 1 25 26
M  V30 26 2 26 27
M  V30 27 1 27 28
M  V30 28 2 28 29
M  V30 29 1 29 30
M  V30 30 1 30 31
M  V30 31 1 31 32
M  V30 32 1 32 33
M  V30 33 1 33 34
M  V30 34 1 34 35
M  V30 35 1 35 36
M  V30 36 1 36 37
M  V30 37 1 37 38
M  V30 38 1 38 39
M  V30 39 1 37 40
M  V30 40 1 40 41
M  V30 41 1 29 3
M  V30 42 1 41 34
M  V30 43 1 27 5
M  V30 44 2 23 8
M  V30 45 1 21 15
M  V30 46 1 1 42
M  V30 47 1 1 43
M  V30 48 1 1 44
M  V30 49 1 4 45
M  V30 50 1 7 46
M  V30 51 1 9 47
M  V30 52 1 11 48
M  V30 53 1 11 49
M  V30 54 1 14 50
M  V30 55 1 16 51
M  V30 56 1 17 52
M  V30 57 1 20 53
M  V30 58 1 21 54
M  V30 59 1 22 55
M  V30 60 1 25 56
M  V30 61 1 28 57
M  V30 62 1 31 58
M  V30 63 1 31 59
M  V30 64 1 32 60
M  V30 65 1 32 61
M  V30 66 1 33 62
M  V30 67 1 33 63
M  V30 68 1 35 64
M  V30 69 1 35 65
M  V30 70 1 36 66
M  V30 71 1 36 67
M  V30 72 1 37 68
M  V30 73 1 38 69
M  V30 74 1 38 70
M  V30 75 1 39 71
M  V30 76 1 40 72
M  V30 77 1 40 73
M  V30 78 1 41 74
M  V30 79 1 41 75
M  V30 END BOND
M  V30 END CTAB
M  END
>  <Dataset>  (55) 
ChEMBL_Kinases

>  <Ligand_Instance>  (55) 
nan

>  <PDB_ID>  (55) 
nan

>  <Standardized_SMILES>  (55) 
COc1cc2c(Nc3cc(CC(=O)Nc4ccc(F)cc4)[nH]n3)ncnc2cc1OCCCN1CCC(CO)CC1

>  <Name>  (55) 
nan

>  <Pocket>  (55) 
nan

>  <ATP_Site>  (55) 
nan

>  <Peripheral>  (55) 
nan

>  <Num_H_Atoms_ProtBoundConf>  (55) 
nan

>  <Num_Resolved_Atoms>  (55) 
nan

>  <Num_Not_Resolved_Atoms>  (55) 
nan

$$$$
CHEMBL217037
     RDKit          3D

  0  0  0  0  0  0  0  0  0  0999 V3000
M  V30 BEGIN CTAB
M  V30 COUNTS 76 80 0 0 0
M  V30 BEGIN ATOM
M  V30 1 C -3.742958 -1.493712 1.803703 0
M  V30 2 O -2.433694 -1.147461 2.008506 0
M  V30 3 C -1.354777 -1.931635 1.759216 0
M  V30 4 C -1.729800 -3.203654 1.316617 0
M  V30 5 C -0.719245 -4.089521 1.029219 0
M  V30 6 C -0.984914 -5.360337 0.587803 0
M  V30 7 N -2.313564 -5.873576 0.340406 0
M  V30 8 C -2.434330 -5.466230 -1.047651 0
M  V30 9 C -3.192866 -4.406571 -1.518251 0
M  V30 10 C -3.070726 -4.254987 -2.880379 0
M  V30 11 C -3.744975 -3.222980 -3.724149 0
M  V30 12 C -3.354735 -1.849559 -3.259098 0
M  V30 13 O -3.749035 -1.687780 -2.058058 0
M  V30 14 N -2.665628 -0.752089 -3.865281 0
M  V30 15 C -2.584737 0.322040 -2.941296 0
M  V30 16 C -1.625549 0.588350 -1.964946 0
M  V30 17 C -1.756648 1.712637 -1.181911 0
M  V30 18 C -2.825895 2.583320 -1.348709 0
M  V30 19 C -3.791885 2.325831 -2.324157 0
M  V30 20 C -4.890072 3.244277 -2.477944 0
M  V30 21 N -5.776097 4.002213 -2.603434 0
M  V30 22 C -3.659466 1.188971 -3.115860 0
M  V30 23 N -2.227150 -5.240678 -3.226911 0
M  V30 24 N -1.848684 -5.952392 -2.173468 0
M  V30 25 N 0.045043 -6.162956 0.333889 0
M  V30 26 C 1.332343 -5.853513 0.464883 0
M  V30 27 N 1.585193 -4.598623 0.898193 0
M  V30 28 C 0.596290 -3.736668 1.173573 0
M  V30 29 C 0.912613 -2.483039 1.607334 0
M  V30 30 C -0.001496 -1.522143 1.918853 0
M  V30 31 O -0.049788 -0.248882 2.327932 0
M  V30 32 C -0.088748 0.936729 2.708263 0
M  V30 33 C 0.889076 1.274765 3.836601 0
M  V30 34 C 2.277637 1.494368 3.448960 0
M  V30 35 N 3.071201 0.657358 2.661058 0
M  V30 36 C 2.818118 0.595059 1.251643 0
M  V30 37 C 3.920220 1.283369 0.412112 0
M  V30 38 C 4.225626 2.593314 1.048712 0
M  V30 39 C 5.120458 3.464079 0.187135 0
M  V30 40 O 6.339135 2.916263 -0.108441 0
M  V30 41 C 4.867046 2.300617 2.386828 0
M  V30 42 C 4.508636 0.887682 2.886538 0
M  V30 43 H -4.027259 -2.484924 2.241067 0
M  V30 44 H -4.410927 -0.744662 2.298808 0
M  V30 45 H -4.028224 -1.532819 0.720457 0
M  V30 46 H -2.715682 -3.575951 1.179575 0
M  V30 47 H -2.997280 -6.377604 0.930076 0
M  V30 48 H -3.824238 -3.745898 -0.932355 0
M  V30 49 H -4.826231 -3.343197 -3.646774 0
M  V30 50 H -3.427997 -3.336953 -4.794834 0
M  V30 51 H -2.386073 -1.001383 -4.838778 0
M  V30 52 H -0.845732 -0.164474 -1.935126 0
M  V30 53 H -0.981779 1.859638 -0.447089 0
M  V30 54 H -2.858915 3.447670 -0.690121 0
M  V30 55 H -4.464074 1.091473 -3.831128 0
M  V30 56 H -1.900173 -5.436673 -4.206976 0
M  V30 57 H 2.107294 -6.563144 0.241931 0
M  V30 58 H 1.911908 -2.203893 1.759305 0
M  V30 59 H -0.041273 1.802243 1.949110 0
M  V30 60 H -1.157904 1.190245 3.143936 0
M  V30 61 H 0.760634 0.520475 4.670119 0
M  V30 62 H 0.465374 2.214469 4.310831 0
M  V30 63 H 2.362685 2.592344 3.164754 0
M  V30 64 H 2.875177 1.548758 4.461537 0
M  V30 65 H 1.876008 1.002273 0.901543 0
M  V30 66 H 2.900094 -0.480078 0.907714 0
M  V30 67 H 3.488005 1.383320 -0.615000 0
M  V30 68 H 4.796126 0.627481 0.392736 0
M  V30 69 H 3.273637 3.155906 1.110603 0
M  V30 70 H 5.254289 4.427858 0.715092 0
M  V30 71 H 4.569277 3.723496 -0.754128 0
M  V30 72 H 6.190549 2.382697 -0.952257 0
M  V30 73 H 5.974532 2.246371 2.194105 0
M  V30 74 H 4.691810 3.046370 3.159741 0
M  V30 75 H 4.678254 0.812551 3.959652 0
M  V30 76 H 5.059540 0.103934 2.341294 0
M  V30 END ATOM
M  V30 BEGIN BOND
M  V30 1 1 1 2
M  V30 2 1 2 3
M  V30 3 2 3 4
M  V30 4 1 4 5
M  V30 5 2 5 6
M  V30 6 1 6 7
M  V30 7 1 7 8
M  V30 8 1 8 9
M  V30 9 2 9 10
M  V30 10 1 10 11
M  V30 11 1 11 12
M  V30 12 2 12 13
M  V30 13 1 12 14
M  V30 14 1 14 15
M  V30 15 2 15 16
M  V30 16 1 16 17
M  V30 17 2 17 18
M  V30 18 1 18 19
M  V30 19 1 19 20
M  V30 20 3 20 21
M  V30 21 2 19 22
M  V30 22 1 10 23
M  V30 23 1 23 24
M  V30 24 1 6 25
M  V30 25 2 25 26
M  V30 26 1 26 27
M  V30 27 2 27 28
M  V30 28 1 28 29
M  V30 29 2 29 30
M  V30 30 1 30 31
M  V30 31 1 31 32
M  V30 32 1 32 33
M  V30 33 1 33 34
M  V30 34 1 34 35
M  V30 35 1 35 36
M  V30 36 1 36 37
M  V30 37 1 37 38
M  V30 38 1 38 39
M  V30 39 1 39 40
M  V30 40 1 38 41
M  V30 41 1 41 42
M  V30 42 1 30 3
M  V30 43 1 42 35
M  V30 44 1 28 5
M  V30 45 2 24 8
M  V30 46 1 22 15
M  V30 47 1 1 43
M  V30 48 1 1 44
M  V30 49 1 1 45
M  V30 50 1 4 46
M  V30 51 1 7 47
M  V30 52 1 9 48
M  V30 53 1 11 49
M  V30 54 1 11 50
M  V30 55 1 14 51
M  V30 56 1 16 52
M  V30 57 1 17 53
M  V30 58 1 18 54
M  V30 59 1 22 55
M  V30 60 1 23 56
M  V30 61 1 26 57
M  V30 62 1 29 58
M  V30 63 1 32 59
M  V30 64 1 32 60
M  V30 65 1 33 61
M  V30 66 1 33 62
M  V30 67 1 34 63
M  V30 68 1 34 64
M  V30 69 1 36 65
M  V30 70 1 36 66
M  V30 71 1 37 67
M  V30 72 1 37 68
M  V30 73 1 38 69
M  V30 74 1 39 70
M  V30 75 1 39 71
M  V30 76 1 40 72
M  V30 77 1 41 73
M  V30 78 1 41 74
M  V30 79 1 42 75
M  V30 80 1 42 76
M  V30 END BOND
M  V30 END CTAB
M  END
>  <Dataset>  (56) 
ChEMBL_Kinases

>  <Ligand_Instance>  (56) 
nan

>  <PDB_ID>  (56) 
nan

>  <Standardized_SMILES>  (56) 
COc1cc2c(Nc3cc(CC(=O)Nc4cccc(C#N)c4)[nH]n3)ncnc2cc1OCCCN1CCC(CO)CC1

>  <Name>  (56) 
nan

>  <Pocket>  (56) 
nan

>  <ATP_Site>  (56) 
nan

>  <Peripheral>  (56) 
nan

>  <Num_H_Atoms_ProtBoundConf>  (56) 
nan

>  <Num_Resolved_Atoms>  (56) 
nan

>  <Num_Not_Resolved_Atoms>  (56) 
nan

$$$$
CHEMBL216449
     RDKit          3D

  0  0  0  0  0  0  0  0  0  0999 V3000
M  V30 BEGIN CTAB
M  V30 COUNTS 51 54 0 0 0
M  V30 BEGIN ATOM
M  V30 1 N 0.338161 2.575153 3.003555 0
M  V30 2 C 0.073263 2.410556 1.616949 0
M  V30 3 N 0.557593 1.297998 1.230088 0
M  V30 4 C 1.255563 0.375643 2.106579 0
M  V30 5 C 2.693554 0.388432 1.733673 0
M  V30 6 C 3.535951 -0.564553 2.558069 0
M  V30 7 C 4.826901 -0.546677 1.722945 0
M  V30 8 C 4.368651 0.040310 0.409780 0
M  V30 9 O 2.978379 0.005767 0.452419 0
M  V30 10 C -0.633324 3.250255 0.670868 0
M  V30 11 C -1.081191 4.408448 1.258088 0
M  V30 12 O -1.013901 5.001791 2.532636 0
M  V30 13 N -1.812648 5.367160 0.555901 0
M  V30 14 S -1.891662 4.571110 -1.122267 0
M  V30 15 C -0.953693 3.118155 -0.624797 0
M  V30 16 N -0.515626 1.953595 -1.341617 0
M  V30 17 C -0.876865 0.613397 -1.204819 0
M  V30 18 C -1.977434 0.219868 -0.487280 0
M  V30 19 C -2.156475 -1.130890 -0.372364 0
M  V30 20 C -1.370335 -2.132280 -0.885752 0
M  V30 21 O -1.381110 -3.478716 -0.867661 0
M  V30 22 C -2.123278 -4.439529 -0.320967 0
M  V30 23 C -3.249681 -4.551942 0.455732 0
M  V30 24 C -3.826601 -5.717389 0.901352 0
M  V30 25 Cl -5.266092 -5.555049 1.883633 0
M  V30 26 C -3.199425 -6.906340 0.523533 0
M  V30 27 C -2.062511 -6.893394 -0.255761 0
M  V30 28 C -1.531159 -5.665838 -0.673479 0
M  V30 29 Cl -0.083807 -5.943527 -1.657680 0
M  V30 30 C -0.260854 -1.682383 -1.612993 0
M  V30 31 C 0.002071 -0.310822 -1.782978 0
M  V30 32 H -0.114298 2.333883 3.913243 0
M  V30 33 H 1.170714 3.045651 3.464030 0
M  V30 34 H 1.055524 0.567003 3.162397 0
M  V30 35 H 0.840848 -0.639663 1.883284 0
M  V30 36 H 3.166451 1.402558 1.879172 0
M  V30 37 H 3.100219 -1.567266 2.638283 0
M  V30 38 H 3.686071 -0.074464 3.555007 0
M  V30 39 H 5.581788 0.097392 2.222991 0
M  V30 40 H 5.259238 -1.549144 1.619876 0
M  V30 41 H 4.748729 -0.535787 -0.467005 0
M  V30 42 H 4.756278 1.077460 0.321131 0
M  V30 43 H -1.198266 4.476227 3.385025 0
M  V30 44 H 0.187825 2.283134 -2.066527 0
M  V30 45 H -2.672968 0.906372 -0.035083 0
M  V30 46 H -3.004599 -1.480904 0.181133 0
M  V30 47 H -3.668803 -3.614359 0.699248 0
M  V30 48 H -3.674327 -7.788151 0.889759 0
M  V30 49 H -1.694985 -7.877421 -0.461008 0
M  V30 50 H 0.499190 -2.307230 -2.115147 0
M  V30 51 H 0.860658 0.039697 -2.350538 0
M  V30 END ATOM
M  V30 BEGIN BOND
M  V30 1 1 1 2
M  V30 2 2 2 3
M  V30 3 1 3 4
M  V30 4 1 4 5
M  V30 5 1 5 6
M  V30 6 1 6 7
M  V30 7 1 7 8
M  V30 8 1 8 9
M  V30 9 1 2 10
M  V30 10 1 10 11
M  V30 11 1 11 12
M  V30 12 2 11 13
M  V30 13 1 13 14
M  V30 14 1 14 15
M  V30 15 1 15 16
M  V30 16 1 16 17
M  V30 17 2 17 18
M  V30 18 1 18 19
M  V30 19 2 19 20
M  V30 20 1 20 21
M  V30 21 1 21 22
M  V30 22 2 22 23
M  V30 23 1 23 24
M  V30 24 1 24 25
M  V30 25 2 24 26
M  V30 26 1 26 27
M  V30 27 2 27 28
M  V30 28 1 28 29
M  V30 29 1 20 30
M  V30 30 2 30 31
M  V30 31 1 9 5
M  V30 32 2 15 10
M  V30 33 1 31 17
M  V30 34 1 28 22
M  V30 35 1 1 32
M  V30 36 1 1 33
M  V30 37 1 4 34
M  V30 38 1 4 35
M  V30 39 1 5 36
M  V30 40 1 6 37
M  V30 41 1 6 38
M  V30 42 1 7 39
M  V30 43 1 7 40
M  V30 44 1 8 41
M  V30 45 1 8 42
M  V30 46 1 12 43
M  V30 47 1 16 44
M  V30 48 1 18 45
M  V30 49 1 19 46
M  V30 50 1 23 47
M  V30 51 1 26 48
M  V30 52 1 27 49
M  V30 53 1 30 50
M  V30 54 1 31 51
M  V30 END BOND
M  V30 END CTAB
M  END
>  <Dataset>  (57) 
ChEMBL_Kinases

>  <Ligand_Instance>  (57) 
nan

>  <PDB_ID>  (57) 
nan

>  <Standardized_SMILES>  (57) 
N/C(=N\CC1CCCO1)c1c(O)nsc1Nc1ccc(Oc2cc(Cl)ccc2Cl)cc1

>  <Name>  (57) 
nan

>  <Pocket>  (57) 
nan

>  <ATP_Site>  (57) 
nan

>  <Peripheral>  (57) 
nan

>  <Num_H_Atoms_ProtBoundConf>  (57) 
nan

>  <Num_Resolved_Atoms>  (57) 
nan

>  <Num_Not_Resolved_Atoms>  (57) 
nan

$$$$
CHEMBL216500
     RDKit          3D

  0  0  0  0  0  0  0  0  0  0999 V3000
M  V30 BEGIN CTAB
M  V30 COUNTS 35 36 0 0 0
M  V30 BEGIN ATOM
M  V30 1 C -0.270023 -2.119804 2.429911 0
M  V30 2 C -0.662218 -2.185137 0.975975 0
M  V30 3 C -0.619692 -3.667782 0.566117 0
M  V30 4 N 0.012476 -1.354738 0.100742 0
M  V30 5 C 1.030586 -1.196772 -0.523878 0
M  V30 6 N 1.857273 -2.306329 -0.250207 0
M  V30 7 C 1.317480 -0.068161 -1.377797 0
M  V30 8 C 2.517711 -0.047362 -2.031986 0
M  V30 9 O 3.597348 -0.919235 -2.080776 0
M  V30 10 N 2.817253 1.046905 -2.855684 0
M  V30 11 S 1.340159 2.085429 -2.697832 0
M  V30 12 C 0.484152 0.974086 -1.566143 0
M  V30 13 N -0.791908 1.077536 -0.955786 0
M  V30 14 C -0.893944 1.474933 0.424725 0
M  V30 15 C 0.273584 1.737691 1.106738 0
M  V30 16 C 0.200285 2.101258 2.436172 0
M  V30 17 C -1.056458 2.179300 3.007530 0
M  V30 18 I -1.044435 2.728860 5.053642 0
M  V30 19 C -2.251483 1.930396 2.376698 0
M  V30 20 Cl -3.791928 2.058157 3.189408 0
M  V30 21 C -2.138951 1.564440 1.029510 0
M  V30 22 H -0.482091 -1.169328 2.909474 0
M  V30 23 H -0.944036 -2.866455 2.948840 0
M  V30 24 H 0.758887 -2.508833 2.605492 0
M  V30 25 H -1.752411 -1.919430 0.947834 0
M  V30 26 H 0.119975 -4.174499 1.237651 0
M  V30 27 H -0.306346 -3.704076 -0.502463 0
M  V30 28 H -1.592994 -4.159790 0.746388 0
M  V30 29 H 2.693566 -2.579638 0.309233 0
M  V30 30 H 2.410417 -3.154399 -0.101202 0
M  V30 31 H 3.454701 -1.915475 -1.977898 0
M  V30 32 H -1.661976 0.866576 -1.521434 0
M  V30 33 H 1.214483 1.652005 0.589565 0
M  V30 34 H 1.116799 2.299453 2.955009 0
M  V30 35 H -3.062080 1.368764 0.525725 0
M  V30 END ATOM
M  V30 BEGIN BOND
M  V30 1 1 1 2
M  V30 2 1 2 3
M  V30 3 1 2 4
M  V30 4 2 4 5
M  V30 5 1 5 6
M  V30 6 1 5 7
M  V30 7 1 7 8
M  V30 8 1 8 9
M  V30 9 2 8 10
M  V30 10 1 10 11
M  V30 11 1 11 12
M  V30 12 1 12 13
M  V30 13 1 13 14
M  V30 14 2 14 15
M  V30 15 1 15 16
M  V30 16 2 16 17
M  V30 17 1 17 18
M  V30 18 1 17 19
M  V30 19 1 19 20
M  V30 20 2 19 21
M  V30 21 2 12 7
M  V30 22 1 21 14
M  V30 23 1 1 22
M  V30 24 1 1 23
M  V30 25 1 1 24
M  V30 26 1 2 25
M  V30 27 1 3 26
M  V30 28 1 3 27
M  V30 29 1 3 28
M  V30 30 1 6 29
M  V30 31 1 6 30
M  V30 32 1 9 31
M  V30 33 1 13 32
M  V30 34 1 15 33
M  V30 35 1 16 34
M  V30 36 1 21 35
M  V30 END BOND
M  V30 END CTAB
M  END
>  <Dataset>  (58) 
ChEMBL_Kinases

>  <Ligand_Instance>  (58) 
nan

>  <PDB_ID>  (58) 
nan

>  <Standardized_SMILES>  (58) 
CC(C)/N=C(\N)c1c(O)nsc1Nc1ccc(I)c(Cl)c1

>  <Name>  (58) 
nan

>  <Pocket>  (58) 
nan

>  <ATP_Site>  (58) 
nan

>  <Peripheral>  (58) 
nan

>  <Num_H_Atoms_ProtBoundConf>  (58) 
nan

>  <Num_Resolved_Atoms>  (58) 
nan

>  <Num_Not_Resolved_Atoms>  (58) 
nan

$$$$
CHEMBL216668
     RDKit          3D

  0  0  0  0  0  0  0  0  0  0999 V3000
M  V30 BEGIN CTAB
M  V30 COUNTS 35 36 0 0 0
M  V30 BEGIN ATOM
M  V30 1 C 0.286123 -1.038600 3.255892 0
M  V30 2 C 0.874967 -2.068829 2.356800 0
M  V30 3 C 1.404047 -3.161303 2.949535 0
M  V30 4 C 1.958609 -4.142613 2.176018 0
M  V30 5 O 2.498986 -5.256502 2.764551 0
M  V30 6 C 2.001127 -4.064233 0.809102 0
M  V30 7 C 1.450784 -2.928823 0.202018 0
M  V30 8 C 1.500835 -2.849989 -1.264606 0
M  V30 9 C 0.888611 -1.931429 0.963191 0
M  V30 10 C 0.293665 -0.717176 0.458378 0
M  V30 11 C 0.023216 -0.074646 -0.644669 0
M  V30 12 C -0.604981 1.183880 -0.947375 0
M  V30 13 C -0.723442 1.552398 -2.268206 0
M  V30 14 N -1.305046 2.720161 -2.573739 0
M  V30 15 C -1.781923 3.554449 -1.637698 0
M  V30 16 C -1.695267 3.246367 -0.300701 0
M  V30 17 C -2.225208 4.178749 0.688326 0
M  V30 18 O -2.743945 5.237472 0.249833 0
M  V30 19 O -2.155694 3.901981 2.046284 0
M  V30 20 C -1.098193 2.048072 0.007936 0
M  V30 21 H 0.181890 -1.413114 4.292202 0
M  V30 22 H -0.760849 -0.785798 2.940935 0
M  V30 23 H 0.871395 -0.103013 3.282787 0
M  V30 24 H 1.396261 -3.272279 4.022600 0
M  V30 25 H 2.037901 -6.156436 2.592720 0
M  V30 26 H 2.448799 -4.862566 0.236432 0
M  V30 27 H 0.525569 -2.918623 -1.775967 0
M  V30 28 H 2.167811 -2.048633 -1.662270 0
M  V30 29 H 2.034767 -3.789503 -1.627015 0
M  V30 30 H -0.113399 0.006498 1.184067 0
M  V30 31 H 0.377851 -0.686224 -1.456594 0
M  V30 32 H -0.361932 0.930332 -3.077762 0
M  V30 33 H -2.224871 4.458878 -2.015428 0
M  V30 34 H -2.505156 4.575308 2.745316 0
M  V30 35 H -1.029146 1.804332 1.056397 0
M  V30 END ATOM
M  V30 BEGIN BOND
M  V30 1 1 1 2
M  V30 2 2 2 3
M  V30 3 1 3 4
M  V30 4 1 4 5
M  V30 5 2 4 6
M  V30 6 1 6 7
M  V30 7 1 7 8
M  V30 8 2 7 9
M  V30 9 1 9 10
M  V30 10 2 10 11
M  V30 11 1 11 12
M  V30 12 2 12 13
M  V30 13 1 13 14
M  V30 14 2 14 15
M  V30 15 1 15 16
M  V30 16 1 16 17
M  V30 17 2 17 18
M  V30 18 1 17 19
M  V30 19 2 16 20
M  V30 20 1 9 2
M  V30 21 1 20 12
M  V30 22 1 1 21
M  V30 23 1 1 22
M  V30 24 1 1 23
M  V30 25 1 3 24
M  V30 26 1 5 25
M  V30 27 1 6 26
M  V30 28 1 8 27
M  V30 29 1 8 28
M  V30 30 1 8 29
M  V30 31 1 10 30
M  V30 32 1 11 31
M  V30 33 1 13 32
M  V30 34 1 15 33
M  V30 35 1 19 34
M  V30 36 1 20 35
M  V30 END BOND
M  V30 END CTAB
M  END
>  <Dataset>  (59) 
ChEMBL_Kinases

>  <Ligand_Instance>  (59) 
nan

>  <PDB_ID>  (59) 
nan

>  <Standardized_SMILES>  (59) 
Cc1cc(O)cc(C)c1/C=C/c1cncc(C(=O)O)c1

>  <Name>  (59) 
nan

>  <Pocket>  (59) 
nan

>  <ATP_Site>  (59) 
nan

>  <Peripheral>  (59) 
nan

>  <Num_H_Atoms_ProtBoundConf>  (59) 
nan

>  <Num_Resolved_Atoms>  (59) 
nan

>  <Num_Not_Resolved_Atoms>  (59) 
nan

$$$$
CHEMBL216832
     RDKit          3D

  0  0  0  0  0  0  0  0  0  0999 V3000
M  V30 BEGIN CTAB
M  V30 COUNTS 56 59 0 0 0
M  V30 BEGIN ATOM
M  V30 1 N 0.631972 -0.973231 -0.433215 0
M  V30 2 C 0.767141 0.341382 0.045988 0
M  V30 3 N 1.215025 0.473690 1.214089 0
M  V30 4 C 1.617900 -0.558171 2.144263 0
M  V30 5 C 3.028409 -0.215353 2.669639 0
M  V30 6 N 2.956696 1.069075 3.251737 0
M  V30 7 C 4.292082 1.570686 3.580951 0
M  V30 8 C 4.269599 3.088281 3.537241 0
M  V30 9 N 2.924490 3.585646 3.777491 0
M  V30 10 C 1.881637 2.799826 4.394131 0
M  V30 11 O 0.894323 3.303265 4.971181 0
M  V30 12 C 2.036306 1.288417 4.313816 0
M  V30 13 C 0.397438 1.420633 -0.839104 0
M  V30 14 C 0.575393 2.668462 -0.310236 0
M  V30 15 O 1.046848 3.156925 0.904702 0
M  V30 16 N 0.273482 3.862035 -0.994523 0
M  V30 17 S -0.347747 3.171370 -2.603847 0
M  V30 18 C -0.109844 1.465685 -2.115215 0
M  V30 19 N -0.362160 0.337950 -2.875325 0
M  V30 20 C -1.422319 -0.590960 -2.752595 0
M  V30 21 C -2.358826 -0.395326 -1.765984 0
M  V30 22 C -3.399017 -1.269158 -1.556831 0
M  V30 23 C -3.482199 -2.376675 -2.383805 0
M  V30 24 O -4.421975 -3.428214 -2.403758 0
M  V30 25 C -4.114034 -4.549587 -1.606809 0
M  V30 26 C -2.926136 -4.550038 -0.864757 0
M  V30 27 C -2.650904 -5.677615 -0.087086 0
M  V30 28 Cl -1.179565 -5.755812 0.875389 0
M  V30 29 C -3.514729 -6.736390 -0.059696 0
M  V30 30 C -4.708450 -6.771562 -0.785091 0
M  V30 31 C -4.970526 -5.635216 -1.557510 0
M  V30 32 Cl -6.450821 -5.546126 -2.528091 0
M  V30 33 C -2.527953 -2.568554 -3.383987 0
M  V30 34 C -1.480222 -1.684150 -3.591495 0
M  V30 35 H 1.257794 -1.739321 -0.769948 0
M  V30 36 H 0.146504 -1.835012 -0.710430 0
M  V30 37 H 0.882256 -0.676511 2.939867 0
M  V30 38 H 1.710834 -1.562444 1.651418 0
M  V30 39 H 3.744608 -0.301188 1.828506 0
M  V30 40 H 3.247167 -1.047989 3.391923 0
M  V30 41 H 4.970922 1.237536 2.772473 0
M  V30 42 H 4.689226 1.232079 4.532360 0
M  V30 43 H 4.930255 3.521158 4.303724 0
M  V30 44 H 4.550026 3.473797 2.541256 0
M  V30 45 H 2.656797 4.566814 3.500600 0
M  V30 46 H 1.056214 0.880325 4.086385 0
M  V30 47 H 2.391679 0.894806 5.297215 0
M  V30 48 H 0.487192 2.946037 1.731566 0
M  V30 49 H 0.363993 0.216292 -3.626146 0
M  V30 50 H -2.368681 0.452521 -1.063595 0
M  V30 51 H -4.200543 -1.257099 -0.832277 0
M  V30 52 H -2.257032 -3.704228 -0.903676 0
M  V30 53 H -3.353811 -7.652457 0.534700 0
M  V30 54 H -5.433861 -7.568139 -0.811145 0
M  V30 55 H -2.498766 -3.404159 -4.095925 0
M  V30 56 H -0.730580 -1.799873 -4.357664 0
M  V30 END ATOM
M  V30 BEGIN BOND
M  V30 1 1 1 2
M  V30 2 2 2 3
M  V30 3 1 3 4
M  V30 4 1 4 5
M  V30 5 1 5 6
M  V30 6 1 6 7
M  V30 7 1 7 8
M  V30 8 1 8 9
M  V30 9 1 9 10
M  V30 10 2 10 11
M  V30 11 1 10 12
M  V30 12 1 2 13
M  V30 13 1 13 14
M  V30 14 1 14 15
M  V30 15 2 14 16
M  V30 16 1 16 17
M  V30 17 1 17 18
M  V30 18 1 18 19
M  V30 19 1 19 20
M  V30 20 2 20 21
M  V30 21 1 21 22
M  V30 22 2 22 23
M  V30 23 1 23 24
M  V30 24 1 24 25
M  V30 25 2 25 26
M  V30 26 1 26 27
M  V30 27 1 27 28
M  V30 28 2 27 29
M  V30 29 1 29 30
M  V30 30 2 30 31
M  V30 31 1 31 32
M  V30 32 1 23 33
M  V30 33 2 33 34
M  V30 34 1 12 6
M  V30 35 2 18 13
M  V30 36 1 34 20
M  V30 37 1 31 25
M  V30 38 1 1 35
M  V30 39 1 1 36
M  V30 40 1 4 37
M  V30 41 1 4 38
M  V30 42 1 5 39
M  V30 43 1 5 40
M  V30 44 1 7 41
M  V30 45 1 7 42
M  V30 46 1 8 43
M  V30 47 1 8 44
M  V30 48 1 9 45
M  V30 49 1 12 46
M  V30 50 1 12 47
M  V30 51 1 15 48
M  V30 52 1 19 49
M  V30 53 1 21 50
M  V30 54 1 22 51
M  V30 55 1 26 52
M  V30 56 1 29 53
M  V30 57 1 30 54
M  V30 58 1 33 55
M  V30 59 1 34 56
M  V30 END BOND
M  V30 END CTAB
M  END
>  <Dataset>  (60) 
ChEMBL_Kinases

>  <Ligand_Instance>  (60) 
nan

>  <PDB_ID>  (60) 
nan

>  <Standardized_SMILES>  (60) 
N/C(=N\CCN1CCNC(=O)C1)c1c(O)nsc1Nc1ccc(Oc2cc(Cl)ccc2Cl)cc1

>  <Name>  (60) 
nan

>  <Pocket>  (60) 
nan

>  <ATP_Site>  (60) 
nan

>  <Peripheral>  (60) 
nan

>  <Num_H_Atoms_ProtBoundConf>  (60) 
nan

>  <Num_Resolved_Atoms>  (60) 
nan

>  <Num_Not_Resolved_Atoms>  (60) 
nan

$$$$
CHEMBL216833
     RDKit          3D

  0  0  0  0  0  0  0  0  0  0999 V3000
M  V30 BEGIN CTAB
M  V30 COUNTS 44 46 0 0 0
M  V30 BEGIN ATOM
M  V30 1 N 4.625250 -0.056221 -0.988147 0
M  V30 2 C 3.513361 0.617660 -0.447348 0
M  V30 3 N 3.033000 0.076638 0.604694 0
M  V30 4 C 3.610066 -1.122220 1.158828 0
M  V30 5 C 3.775360 -0.951583 2.648275 0
M  V30 6 O 4.613586 0.127912 2.952132 0
M  V30 7 C 2.917341 1.818905 -0.987776 0
M  V30 8 C 3.455383 2.370319 -2.106313 0
M  V30 9 O 4.533106 1.988855 -2.889455 0
M  V30 10 N 2.888850 3.543819 -2.649079 0
M  V30 11 S 1.526492 3.894917 -1.530511 0
M  V30 12 C 1.819999 2.471130 -0.449634 0
M  V30 13 N 1.138561 1.992150 0.744202 0
M  V30 14 C 0.039472 1.108164 0.562095 0
M  V30 15 C -0.355072 0.746422 -0.707380 0
M  V30 16 C -1.442085 -0.123930 -0.852041 0
M  V30 17 C -2.078316 -0.586669 0.297249 0
M  V30 18 O -3.144557 -1.445095 0.004338 0
M  V30 19 C -3.818526 -2.090714 1.027961 0
M  V30 20 C -5.120992 -2.041316 1.448761 0
M  V30 21 C -5.564213 -2.790731 2.511113 0
M  V30 22 Cl -7.252521 -2.629055 2.940253 0
M  V30 23 C -4.656864 -3.620561 3.172192 0
M  V30 24 C -3.333026 -3.697192 2.775812 0
M  V30 25 C -2.919695 -2.919062 1.689477 0
M  V30 26 Cl -1.210770 -3.169186 1.328329 0
M  V30 27 C -1.661065 -0.206408 1.564573 0
M  V30 28 C -0.606774 0.637343 1.706071 0
M  V30 29 H 4.334460 -0.937890 -1.463304 0
M  V30 30 H 5.193271 -0.759056 -1.473129 0
M  V30 31 H 2.908633 -1.990394 1.027927 0
M  V30 32 H 4.599020 -1.385643 0.725305 0
M  V30 33 H 2.806669 -0.811406 3.153800 0
M  V30 34 H 4.218207 -1.887883 3.085365 0
M  V30 35 H 4.650577 0.696812 2.139548 0
M  V30 36 H 4.519025 1.086947 -3.383417 0
M  V30 37 H 1.456446 2.294365 1.689552 0
M  V30 38 H 0.137299 1.104140 -1.601223 0
M  V30 39 H -1.724696 -0.387554 -1.861678 0
M  V30 40 H -5.700656 -1.347450 0.830014 0
M  V30 41 H -5.050546 -4.199065 4.011909 0
M  V30 42 H -2.714733 -4.368057 3.352851 0
M  V30 43 H -2.216018 -0.606374 2.407740 0
M  V30 44 H -0.344422 0.883401 2.707660 0
M  V30 END ATOM
M  V30 BEGIN BOND
M  V30 1 1 1 2
M  V30 2 2 2 3
M  V30 3 1 3 4
M  V30 4 1 4 5
M  V30 5 1 5 6
M  V30 6 1 2 7
M  V30 7 1 7 8
M  V30 8 1 8 9
M  V30 9 2 8 10
M  V30 10 1 10 11
M  V30 11 1 11 12
M  V30 12 1 12 13
M  V30 13 1 13 14
M  V30 14 2 14 15
M  V30 15 1 15 16
M  V30 16 2 16 17
M  V30 17 1 17 18
M  V30 18 1 18 19
M  V30 19 2 19 20
M  V30 20 1 20 21
M  V30 21 1 21 22
M  V30 22 2 21 23
M  V30 23 1 23 24
M  V30 24 2 24 25
M  V30 25 1 25 26
M  V30 26 1 17 27
M  V30 27 2 27 28
M  V30 28 2 12 7
M  V30 29 1 28 14
M  V30 30 1 25 19
M  V30 31 1 1 29
M  V30 32 1 1 30
M  V30 33 1 4 31
M  V30 34 1 4 32
M  V30 35 1 5 33
M  V30 36 1 5 34
M  V30 37 1 6 35
M  V30 38 1 9 36
M  V30 39 1 13 37
M  V30 40 1 15 38
M  V30 41 1 16 39
M  V30 42 1 20 40
M  V30 43 1 23 41
M  V30 44 1 24 42
M  V30 45 1 27 43
M  V30 46 1 28 44
M  V30 END BOND
M  V30 END CTAB
M  END
>  <Dataset>  (61) 
ChEMBL_Kinases

>  <Ligand_Instance>  (61) 
nan

>  <PDB_ID>  (61) 
nan

>  <Standardized_SMILES>  (61) 
N/C(=N\CCO)c1c(O)nsc1Nc1ccc(Oc2cc(Cl)ccc2Cl)cc1

>  <Name>  (61) 
nan

>  <Pocket>  (61) 
nan

>  <ATP_Site>  (61) 
nan

>  <Peripheral>  (61) 
nan

>  <Num_H_Atoms_ProtBoundConf>  (61) 
nan

>  <Num_Resolved_Atoms>  (61) 
nan

>  <Num_Not_Resolved_Atoms>  (61) 
nan

$$$$
CHEMBL2169893
     RDKit          3D

  0  0  0  0  0  0  0  0  0  0999 V3000
M  V30 BEGIN CTAB
M  V30 COUNTS 39 42 0 0 0
M  V30 BEGIN ATOM
M  V30 1 F 1.639418 -5.262352 2.308196 0
M  V30 2 C 2.160930 -4.070486 1.920506 0
M  V30 3 C 3.475823 -3.673130 2.014810 0
M  V30 4 N 3.776407 -2.443077 1.571948 0
M  V30 5 C 2.878250 -1.602184 1.054080 0
M  V30 6 N 3.288092 -0.324082 0.590395 0
M  V30 7 C 2.450595 0.732468 0.153971 0
M  V30 8 C 1.086310 0.817567 0.425996 0
M  V30 9 C 0.325508 1.873894 -0.052499 0
M  V30 10 C 0.905181 2.861374 -0.808303 0
M  V30 11 C 0.053304 3.944541 -1.273216 0
M  V30 12 N 0.334991 5.024580 -2.046943 0
M  V30 13 N -0.750204 5.755627 -2.227279 0
M  V30 14 N -1.755547 5.185032 -1.588474 0
M  V30 15 N -1.267623 4.092435 -1.013540 0
M  V30 16 C 2.240376 2.823702 -1.102981 0
M  V30 17 C 2.940831 1.764959 -0.607413 0
M  V30 18 N 1.588891 -2.001335 0.965899 0
M  V30 19 C 1.206365 -3.242738 1.396948 0
M  V30 20 N -0.188252 -3.396898 1.193878 0
M  V30 21 C -1.420659 -3.031551 1.791286 0
M  V30 22 C -1.465172 -2.281284 2.946211 0
M  V30 23 C -2.725182 -1.962438 3.453260 0
M  V30 24 C -3.830975 -2.413403 2.774051 0
M  V30 25 C -3.768543 -3.162478 1.620509 0
M  V30 26 C -2.530406 -3.482340 1.112580 0
M  V30 27 Cl -2.418728 -4.441524 -0.361840 0
M  V30 28 H 4.167110 -4.381754 2.440371 0
M  V30 29 H 4.331623 -0.119545 0.564435 0
M  V30 30 H 0.587439 0.073721 1.019612 0
M  V30 31 H -0.730882 1.906728 0.182268 0
M  V30 32 H -1.898533 3.478221 -0.445050 0
M  V30 33 H 2.709589 3.602536 -1.700711 0
M  V30 34 H 4.009055 1.726916 -0.839225 0
M  V30 35 H -0.086310 -3.959042 0.329370 0
M  V30 36 H -0.513596 -1.992772 3.377003 0
M  V30 37 H -2.745311 -1.374750 4.358035 0
M  V30 38 H -4.813709 -2.172995 3.153673 0
M  V30 39 H -4.659491 -3.512944 1.094295 0
M  V30 END ATOM
M  V30 BEGIN BOND
M  V30 1 1 1 2
M  V30 2 2 2 3
M  V30 3 1 3 4
M  V30 4 2 4 5
M  V30 5 1 5 6
M  V30 6 1 6 7
M  V30 7 2 7 8
M  V30 8 1 8 9
M  V30 9 2 9 10
M  V30 10 1 10 11
M  V30 11 2 11 12
M  V30 12 1 12 13
M  V30 13 2 13 14
M  V30 14 1 14 15
M  V30 15 1 10 16
M  V30 16 2 16 17
M  V30 17 1 5 18
M  V30 18 2 18 19
M  V30 19 1 19 20
M  V30 20 1 20 21
M  V30 21 2 21 22
M  V30 22 1 22 23
M  V30 23 2 23 24
M  V30 24 1 24 25
M  V30 25 2 25 26
M  V30 26 1 26 27
M  V30 27 1 19 2
M  V30 28 1 26 21
M  V30 29 1 17 7
M  V30 30 1 15 11
M  V30 31 1 3 28
M  V30 32 1 6 29
M  V30 33 1 8 30
M  V30 34 1 9 31
M  V30 35 1 15 32
M  V30 36 1 16 33
M  V30 37 1 17 34
M  V30 38 1 20 35
M  V30 39 1 22 36
M  V30 40 1 23 37
M  V30 41 1 24 38
M  V30 42 1 25 39
M  V30 END BOND
M  V30 END CTAB
M  END
>  <Dataset>  (62) 
ChEMBL_Kinases

>  <Ligand_Instance>  (62) 
nan

>  <PDB_ID>  (62) 
nan

>  <Standardized_SMILES>  (62) 
Fc1cnc(Nc2ccc(-c3nnn[nH]3)cc2)nc1Nc1ccccc1Cl

>  <Name>  (62) 
nan

>  <Pocket>  (62) 
nan

>  <ATP_Site>  (62) 
nan

>  <Peripheral>  (62) 
nan

>  <Num_H_Atoms_ProtBoundConf>  (62) 
nan

>  <Num_Resolved_Atoms>  (62) 
nan

>  <Num_Not_Resolved_Atoms>  (62) 
nan

$$$$
CHEMBL2170016
     RDKit          3D

  0  0  0  0  0  0  0  0  0  0999 V3000
M  V30 BEGIN CTAB
M  V30 COUNTS 46 48 0 0 0
M  V30 BEGIN ATOM
M  V30 1 C -0.848869 -7.264615 3.424890 0
M  V30 2 N -1.369461 -7.129591 2.089507 0
M  V30 3 C -1.461254 -5.994636 1.235333 0
M  V30 4 N -1.013155 -4.808179 1.657909 0
M  V30 5 C -1.063736 -3.690669 0.913392 0
M  V30 6 N -0.563092 -2.478618 1.442153 0
M  V30 7 C -0.510426 -1.186789 0.871759 0
M  V30 8 C -0.971464 -0.863042 -0.383068 0
M  V30 9 C -0.938749 0.381572 -0.972805 0
M  V30 10 C -0.388791 1.407266 -0.231611 0
M  V30 11 C -0.292645 2.772875 -0.732203 0
M  V30 12 O -1.138935 3.620570 -1.089481 0
M  V30 13 N 1.017163 3.325098 -0.869583 0
M  V30 14 C 1.331273 4.639138 -1.338803 0
M  V30 15 C 2.033043 5.407893 -0.233426 0
M  V30 16 O 3.287045 4.826056 -0.059697 0
M  V30 17 C 3.102071 3.531364 0.403703 0
M  V30 18 C 2.296769 2.694971 -0.573445 0
M  V30 19 C 0.090527 1.144348 1.033409 0
M  V30 20 C 0.038518 -0.114276 1.584933 0
M  V30 21 O 0.537162 -0.289829 2.847845 0
M  V30 22 C 1.106221 0.715840 3.643645 0
M  V30 23 N -1.597044 -3.808503 -0.309736 0
M  V30 24 C -2.053410 -4.953432 -0.775145 0
M  V30 25 C -2.004058 -6.087665 -0.024628 0
M  V30 26 Cl -2.605184 -7.616571 -0.624512 0
M  V30 27 H 0.139912 -7.747411 3.413045 0
M  V30 28 H -1.512781 -7.909826 4.051103 0
M  V30 29 H -0.793940 -6.291343 3.970061 0
M  V30 30 H -1.728940 -8.044873 1.727915 0
M  V30 31 H -0.158251 -2.533378 2.427087 0
M  V30 32 H -1.412821 -1.613863 -1.015033 0
M  V30 33 H -1.314461 0.585120 -1.964119 0
M  V30 34 H 0.414297 5.216881 -1.594526 0
M  V30 35 H 1.967240 4.613447 -2.225307 0
M  V30 36 H 2.100769 6.488427 -0.430292 0
M  V30 37 H 1.495220 5.277436 0.731850 0
M  V30 38 H 4.103208 3.060241 0.483246 0
M  V30 39 H 2.671760 3.581373 1.406502 0
M  V30 40 H 2.932187 2.588929 -1.488947 0
M  V30 41 H 2.193127 1.686825 -0.131433 0
M  V30 42 H 0.519199 1.953687 1.605727 0
M  V30 43 H 1.760390 1.419394 3.130839 0
M  V30 44 H 1.711711 0.259424 4.454542 0
M  V30 45 H 0.265317 1.229785 4.169017 0
M  V30 46 H -2.484366 -5.047320 -1.763712 0
M  V30 END ATOM
M  V30 BEGIN BOND
M  V30 1 1 1 2
M  V30 2 1 2 3
M  V30 3 2 3 4
M  V30 4 1 4 5
M  V30 5 1 5 6
M  V30 6 1 6 7
M  V30 7 2 7 8
M  V30 8 1 8 9
M  V30 9 2 9 10
M  V30 10 1 10 11
M  V30 11 2 11 12
M  V30 12 1 11 13
M  V30 13 1 13 14
M  V30 14 1 14 15
M  V30 15 1 15 16
M  V30 16 1 16 17
M  V30 17 1 17 18
M  V30 18 1 10 19
M  V30 19 2 19 20
M  V30 20 1 20 21
M  V30 21 1 21 22
M  V30 22 2 5 23
M  V30 23 1 23 24
M  V30 24 2 24 25
M  V30 25 1 25 26
M  V30 26 1 25 3
M  V30 27 1 20 7
M  V30 28 1 18 13
M  V30 29 1 1 27
M  V30 30 1 1 28
M  V30 31 1 1 29
M  V30 32 1 2 30
M  V30 33 1 6 31
M  V30 34 1 8 32
M  V30 35 1 9 33
M  V30 36 1 14 34
M  V30 37 1 14 35
M  V30 38 1 15 36
M  V30 39 1 15 37
M  V30 40 1 17 38
M  V30 41 1 17 39
M  V30 42 1 18 40
M  V30 43 1 18 41
M  V30 44 1 19 42
M  V30 45 1 22 43
M  V30 46 1 22 44
M  V30 47 1 22 45
M  V30 48 1 24 46
M  V30 END BOND
M  V30 END CTAB
M  END
>  <Dataset>  (63) 
ChEMBL_Kinases

>  <Ligand_Instance>  (63) 
nan

>  <PDB_ID>  (63) 
nan

>  <Standardized_SMILES>  (63) 
CNc1nc(Nc2ccc(C(=O)N3CCOCC3)cc2OC)ncc1Cl

>  <Name>  (63) 
nan

>  <Pocket>  (63) 
nan

>  <ATP_Site>  (63) 
nan

>  <Peripheral>  (63) 
nan

>  <Num_H_Atoms_ProtBoundConf>  (63) 
nan

>  <Num_Resolved_Atoms>  (63) 
nan

>  <Num_Not_Resolved_Atoms>  (63) 
nan

$$$$
CHEMBL2164422
     RDKit          3D

  0  0  0  0  0  0  0  0  0  0999 V3000
M  V30 BEGIN CTAB
M  V30 COUNTS 44 47 0 0 0
M  V30 BEGIN ATOM
M  V30 1 O -1.662830 -3.095653 -4.758545 0
M  V30 2 S -2.580554 -2.716796 -3.657391 0
M  V30 3 O -3.499014 -3.907365 -3.426417 0
M  V30 4 N -3.604786 -1.401765 -4.120229 0
M  V30 5 C -2.869372 -0.180588 -4.335456 0
M  V30 6 C -3.893561 0.885990 -4.735477 0
M  V30 7 O -4.542041 0.482608 -5.900345 0
M  V30 8 C -1.763317 -2.387312 -2.155344 0
M  V30 9 C -2.257656 -2.709387 -0.908595 0
M  V30 10 C -1.502637 -2.389434 0.207665 0
M  V30 11 C -0.269074 -1.756357 0.093492 0
M  V30 12 C 0.322532 -1.531633 1.414357 0
M  V30 13 C 0.321291 -2.551399 2.374421 0
M  V30 14 C 0.878236 -2.345195 3.620635 0
M  V30 15 N 1.436584 -1.172186 3.957275 0
M  V30 16 C 1.458260 -0.162263 3.059466 0
M  V30 17 N 1.937622 1.106224 3.102413 0
M  V30 18 C 1.721862 1.746505 1.939996 0
M  V30 19 C 2.100132 3.148591 1.595503 0
M  V30 20 C 2.375408 4.135429 2.658467 0
M  V30 21 C 3.549117 3.550183 1.975201 0
M  V30 22 C 1.075584 0.842351 1.121402 0
M  V30 23 C 0.909033 -0.342976 1.809123 0
M  V30 24 C 0.212045 -1.440623 -1.160183 0
M  V30 25 C -0.545738 -1.762744 -2.262838 0
M  V30 26 H -4.385955 -1.258869 -3.468202 0
M  V30 27 H -2.289342 0.146922 -3.453046 0
M  V30 28 H -2.159691 -0.297773 -5.189558 0
M  V30 29 H -3.423662 1.869131 -4.926255 0
M  V30 30 H -4.601832 0.938022 -3.864894 0
M  V30 31 H -5.517327 0.442622 -5.810443 0
M  V30 32 H -3.222714 -3.201731 -0.870923 0
M  V30 33 H -1.997983 -2.693626 1.131026 0
M  V30 34 H -0.114353 -3.520914 2.163062 0
M  V30 35 H 0.898756 -3.111434 4.397477 0
M  V30 36 H 2.413063 1.540199 3.922792 0
M  V30 37 H 1.822137 3.469345 0.573597 0
M  V30 38 H 2.166242 3.914218 3.707462 0
M  V30 39 H 2.162656 5.206903 2.380702 0
M  V30 40 H 4.138164 4.111089 1.220374 0
M  V30 41 H 4.131816 2.787630 2.558526 0
M  V30 42 H 0.765983 1.065209 0.110860 0
M  V30 43 H 1.174514 -0.954761 -1.114687 0
M  V30 44 H -0.098097 -1.481084 -3.215970 0
M  V30 END ATOM
M  V30 BEGIN BOND
M  V30 1 2 1 2
M  V30 2 2 2 3
M  V30 3 1 2 4
M  V30 4 1 4 5
M  V30 5 1 5 6
M  V30 6 1 6 7
M  V30 7 1 2 8
M  V30 8 2 8 9
M  V30 9 1 9 10
M  V30 10 2 10 11
M  V30 11 1 11 12
M  V30 12 2 12 13
M  V30 13 1 13 14
M  V30 14 2 14 15
M  V30 15 1 15 16
M  V30 16 1 16 17
M  V30 17 1 17 18
M  V30 18 1 18 19
M  V30 19 1 19 20
M  V30 20 1 20 21
M  V30 21 2 18 22
M  V30 22 1 22 23
M  V30 23 1 11 24
M  V30 24 2 24 25
M  V30 25 1 25 8
M  V30 26 1 23 12
M  V30 27 2 23 16
M  V30 28 1 21 19
M  V30 29 1 4 26
M  V30 30 1 5 27
M  V30 31 1 5 28
M  V30 32 1 6 29
M  V30 33 1 6 30
M  V30 34 1 7 31
M  V30 35 1 9 32
M  V30 36 1 10 33
M  V30 37 1 13 34
M  V30 38 1 14 35
M  V30 39 1 17 36
M  V30 40 1 19 37
M  V30 41 1 20 38
M  V30 42 1 20 39
M  V30 43 1 21 40
M  V30 44 1 21 41
M  V30 45 1 22 42
M  V30 46 1 24 43
M  V30 47 1 25 44
M  V30 END BOND
M  V30 END CTAB
M  END
>  <Dataset>  (64) 
ChEMBL_Kinases

>  <Ligand_Instance>  (64) 
nan

>  <PDB_ID>  (64) 
nan

>  <Standardized_SMILES>  (64) 
O=S(=O)(NCCO)c1ccc(-c2ccnc3[nH]c(C4CC4)cc23)cc1

>  <Name>  (64) 
nan

>  <Pocket>  (64) 
nan

>  <ATP_Site>  (64) 
nan

>  <Peripheral>  (64) 
nan

>  <Num_H_Atoms_ProtBoundConf>  (64) 
nan

>  <Num_Resolved_Atoms>  (64) 
nan

>  <Num_Not_Resolved_Atoms>  (64) 
nan

$$$$
CHEMBL2152947
     RDKit          3D

  0  0  0  0  0  0  0  0  0  0999 V3000
M  V30 BEGIN CTAB
M  V30 COUNTS 62 66 0 0 0
M  V30 BEGIN ATOM
M  V30 1 C 5.698416 0.772941 6.314902 0
M  V30 2 C 4.471251 -0.025230 5.929664 0
M  V30 3 C 3.995431 -0.719289 7.207912 0
M  V30 4 O 4.845434 -0.921703 4.951310 0
M  V30 5 C 3.746922 -1.045970 4.090695 0
M  V30 6 C 2.903488 0.166570 4.333856 0 CFG=1
M  V30 7 C 1.456078 -0.266318 4.608225 0
M  V30 8 C 0.596572 0.936959 4.853839 0
M  V30 9 O 0.527504 1.860212 3.822134 0
M  V30 10 C 0.051350 1.668449 2.556159 0
M  V30 11 C 0.205892 2.893514 1.886076 0
M  V30 12 C -0.185985 3.054632 0.549616 0
M  V30 13 C -0.736554 1.985199 -0.124253 0
M  V30 14 C -0.890734 0.780392 0.528777 0
M  V30 15 C -0.503540 0.635118 1.837019 0
M  V30 16 C -1.428093 -0.507588 0.097830 0
M  V30 17 O -1.630769 -1.405079 0.952356 0
M  V30 18 C -1.758290 -0.836322 -1.309810 0
M  V30 19 C -2.470817 -2.014325 -1.394509 0
M  V30 20 C -2.871584 -2.485620 -2.649312 0
M  V30 21 C -2.530728 -1.740261 -3.757043 0
M  V30 22 N -2.924263 -2.196520 -5.043267 0
M  V30 23 C -3.631773 -3.380585 -5.375730 0
M  V30 24 C -4.851799 -3.438611 -6.014349 0
M  V30 25 C -5.456115 -4.665048 -6.293084 0
M  V30 26 C -4.819728 -5.851543 -5.921803 0
M  V30 27 F -5.455265 -7.023059 -6.218644 0
M  V30 28 C -3.581619 -5.793395 -5.273712 0
M  V30 29 C -3.006978 -4.555894 -5.010910 0
M  V30 30 F -1.808130 -4.711802 -4.378278 0
M  V30 31 C -1.822061 -0.560315 -3.725408 0
M  V30 32 C -1.438326 -0.117395 -2.470850 0
M  V30 33 C -0.681312 1.149963 -2.482517 0
M  V30 34 C -1.136269 2.189248 -1.523851 0
M  V30 35 O 3.457175 0.773057 5.446832 0
M  V30 36 H 5.370862 1.706326 6.828595 0
M  V30 37 H 6.332334 0.237265 7.036682 0
M  V30 38 H 6.292088 1.081802 5.437956 0
M  V30 39 H 4.811238 -0.790895 7.962953 0
M  V30 40 H 3.495918 -1.674807 6.992133 0
M  V30 41 H 3.219397 -0.056465 7.687018 0
M  V30 42 H 3.160119 -1.970960 4.355598 0
M  V30 43 H 4.040381 -1.060340 3.021826 0
M  V30 44 H 2.830915 0.854510 3.465035 0
M  V30 45 H 1.547418 -0.849268 5.577141 0
M  V30 46 H 1.084995 -0.983564 3.884207 0
M  V30 47 H -0.440266 0.574455 5.128692 0
M  V30 48 H 0.985486 1.429854 5.792373 0
M  V30 49 H 0.616037 3.856883 2.233280 0
M  V30 50 H -0.107650 3.950798 -0.045849 0
M  V30 51 H -0.582333 -0.240854 2.439338 0
M  V30 52 H -2.690145 -2.527994 -0.467497 0
M  V30 53 H -3.418554 -3.396599 -2.663701 0
M  V30 54 H -2.735829 -1.701729 -5.930888 0
M  V30 55 H -5.308600 -2.478451 -6.284277 0
M  V30 56 H -6.417715 -4.652722 -6.798244 0
M  V30 57 H -3.200496 -6.764132 -5.043148 0
M  V30 58 H -1.562746 0.012776 -4.604988 0
M  V30 59 H 0.412465 1.001233 -2.379662 0
M  V30 60 H -0.822549 1.586551 -3.509926 0
M  V30 61 H -0.789719 3.176148 -1.889448 0
M  V30 62 H -2.259016 2.253558 -1.541363 0
M  V30 END ATOM
M  V30 BEGIN BOND
M  V30 1 1 1 2
M  V30 2 1 2 3
M  V30 3 1 2 4
M  V30 4 1 4 5
M  V30 5 1 5 6
M  V30 6 1 6 7
M  V30 7 1 7 8
M  V30 8 1 8 9
M  V30 9 1 9 10
M  V30 10 2 10 11
M  V30 11 1 11 12
M  V30 12 2 12 13
M  V30 13 1 13 14
M  V30 14 2 14 15
M  V30 15 1 14 16
M  V30 16 2 16 17
M  V30 17 1 16 18
M  V30 18 2 18 19
M  V30 19 1 19 20
M  V30 20 2 20 21
M  V30 21 1 21 22
M  V30 22 1 22 23
M  V30 23 2 23 24
M  V30 24 1 24 25
M  V30 25 2 25 26
M  V30 26 1 26 27
M  V30 27 1 26 28
M  V30 28 2 28 29
M  V30 29 1 29 30
M  V30 30 1 21 31
M  V30 31 2 31 32
M  V30 32 1 32 33
M  V30 33 1 33 34
M  V30 34 1 6 35
M  V30 35 1 35 2
M  V30 36 1 15 10
M  V30 37 1 32 18
M  V30 38 1 34 13
M  V30 39 1 29 23
M  V30 40 1 1 36
M  V30 41 1 1 37
M  V30 42 1 1 38
M  V30 43 1 3 39
M  V30 44 1 3 40
M  V30 45 1 3 41
M  V30 46 1 5 42
M  V30 47 1 5 43
M  V30 48 1 6 44 CFG=3
M  V30 49 1 7 45
M  V30 50 1 7 46
M  V30 51 1 8 47
M  V30 52 1 8 48
M  V30 53 1 11 49
M  V30 54 1 12 50
M  V30 55 1 15 51
M  V30 56 1 19 52
M  V30 57 1 20 53
M  V30 58 1 22 54
M  V30 59 1 24 55
M  V30 60 1 25 56
M  V30 61 1 28 57
M  V30 62 1 31 58
M  V30 63 1 33 59
M  V30 64 1 33 60
M  V30 65 1 34 61
M  V30 66 1 34 62
M  V30 END BOND
M  V30 END CTAB
M  END
>  <Dataset>  (65) 
ChEMBL_Kinases

>  <Ligand_Instance>  (65) 
nan

>  <PDB_ID>  (65) 
nan

>  <Standardized_SMILES>  (65) 
CC1(C)OC[C@@H](CCOc2ccc3c(c2)C(=O)c2ccc(Nc4ccc(F)cc4F)cc2CC3)O1

>  <Name>  (65) 
nan

>  <Pocket>  (65) 
nan

>  <ATP_Site>  (65) 
nan

>  <Peripheral>  (65) 
nan

>  <Num_H_Atoms_ProtBoundConf>  (65) 
nan

>  <Num_Resolved_Atoms>  (65) 
nan

>  <Num_Not_Resolved_Atoms>  (65) 
nan

$$$$
CHEMBL2152946
     RDKit          3D

  0  0  0  0  0  0  0  0  0  0999 V3000
M  V30 BEGIN CTAB
M  V30 COUNTS 52 55 0 0 0
M  V30 BEGIN ATOM
M  V30 1 O -2.246067 -0.038081 2.379665 0
M  V30 2 C -1.311513 -0.106658 1.539142 0
M  V30 3 C -0.241220 0.885323 1.604932 0
M  V30 4 C -0.576669 1.916039 2.470332 0
M  V30 5 C 0.312210 2.954478 2.666531 0
M  V30 6 C 1.506282 2.902509 1.974609 0
M  V30 7 N 2.441408 3.960391 2.159358 0
M  V30 8 C 3.721803 4.171601 1.574123 0
M  V30 9 C 4.926789 4.274883 2.239186 0
M  V30 10 C 6.104831 4.481941 1.551041 0
M  V30 11 C 6.127619 4.594854 0.163618 0
M  V30 12 F 7.308718 4.798574 -0.478562 0
M  V30 13 C 4.908580 4.489428 -0.497268 0
M  V30 14 C 3.722738 4.282120 0.181571 0
M  V30 15 F 2.642437 4.209102 -0.652251 0
M  V30 16 C 1.841726 1.877044 1.112710 0
M  V30 17 C 0.953537 0.837855 0.915617 0
M  V30 18 C 1.421498 -0.208314 -0.032139 0
M  V30 19 C 0.379551 -0.562242 -1.075906 0
M  V30 20 C -0.723898 -1.394728 -0.533307 0
M  V30 21 C -0.974392 -2.483944 -1.337713 0
M  V30 22 C -1.964215 -3.374162 -0.998511 0
M  V30 23 C -2.751417 -3.257716 0.121876 0
M  V30 24 O -3.769912 -3.951653 0.704857 0
M  V30 25 C -4.300043 -5.118270 0.212542 0
M  V30 26 C -3.416151 -6.308622 0.113142 0 CFG=1
M  V30 27 O -2.887351 -6.705009 1.341030 0
M  V30 28 C -4.316573 -7.478172 -0.328496 0
M  V30 29 O -5.280335 -7.626494 0.647897 0
M  V30 30 C -2.474227 -2.136783 0.924479 0
M  V30 31 C -1.486254 -1.220186 0.614272 0
M  V30 32 H -1.522724 1.899915 2.980682 0
M  V30 33 H 0.071265 3.764513 3.334169 0
M  V30 34 H 2.249124 4.755144 2.807027 0
M  V30 35 H 4.876336 4.182570 3.321655 0
M  V30 36 H 7.042888 4.559906 2.099172 0
M  V30 37 H 5.006065 4.587448 -1.574636 0
M  V30 38 H 2.760416 1.800876 0.557015 0
M  V30 39 H 1.519979 -1.137326 0.602951 0
M  V30 40 H 2.355256 0.053739 -0.528957 0
M  V30 41 H 0.886559 -1.125198 -1.878077 0
M  V30 42 H -0.007259 0.384903 -1.521130 0
M  V30 43 H -0.441579 -2.698497 -2.235158 0
M  V30 44 H -2.233412 -4.242195 -1.574597 0
M  V30 45 H -5.244694 -5.430153 0.717708 0
M  V30 46 H -4.638749 -4.900231 -0.844691 0
M  V30 47 H -2.604590 -6.294996 -0.595829 0
M  V30 48 H -3.639950 -6.847158 1.971232 0
M  V30 49 H -4.807803 -7.101718 -1.265408 0
M  V30 50 H -3.709895 -8.376892 -0.513079 0
M  V30 51 H -5.188441 -8.561356 0.988209 0
M  V30 52 H -2.963939 -1.834946 1.857053 0
M  V30 END ATOM
M  V30 BEGIN BOND
M  V30 1 2 1 2
M  V30 2 1 2 3
M  V30 3 2 3 4
M  V30 4 1 4 5
M  V30 5 2 5 6
M  V30 6 1 6 7
M  V30 7 1 7 8
M  V30 8 2 8 9
M  V30 9 1 9 10
M  V30 10 2 10 11
M  V30 11 1 11 12
M  V30 12 1 11 13
M  V30 13 2 13 14
M  V30 14 1 14 15
M  V30 15 1 6 16
M  V30 16 2 16 17
M  V30 17 1 17 18
M  V30 18 1 18 19
M  V30 19 1 19 20
M  V30 20 2 20 21
M  V30 21 1 21 22
M  V30 22 2 22 23
M  V30 23 1 23 24
M  V30 24 1 24 25
M  V30 25 1 25 26
M  V30 26 1 26 27
M  V30 27 1 26 28
M  V30 28 1 28 29
M  V30 29 1 23 30
M  V30 30 2 30 31
M  V30 31 1 31 2
M  V30 32 1 17 3
M  V30 33 1 31 20
M  V30 34 1 14 8
M  V30 35 1 4 32
M  V30 36 1 5 33
M  V30 37 1 7 34
M  V30 38 1 9 35
M  V30 39 1 10 36
M  V30 40 1 13 37
M  V30 41 1 16 38
M  V30 42 1 18 39
M  V30 43 1 18 40
M  V30 44 1 19 41
M  V30 45 1 19 42
M  V30 46 1 21 43
M  V30 47 1 22 44
M  V30 48 1 25 45
M  V30 49 1 25 46
M  V30 50 1 26 47 CFG=3
M  V30 51 1 27 48
M  V30 52 1 28 49
M  V30 53 1 28 50
M  V30 54 1 29 51
M  V30 55 1 30 52
M  V30 END BOND
M  V30 END CTAB
M  END
>  <Dataset>  (66) 
ChEMBL_Kinases

>  <Ligand_Instance>  (66) 
nan

>  <PDB_ID>  (66) 
nan

>  <Standardized_SMILES>  (66) 
O=C1c2ccc(Nc3ccc(F)cc3F)cc2CCc2ccc(OC[C@@H](O)CO)cc21

>  <Name>  (66) 
nan

>  <Pocket>  (66) 
nan

>  <ATP_Site>  (66) 
nan

>  <Peripheral>  (66) 
nan

>  <Num_H_Atoms_ProtBoundConf>  (66) 
nan

>  <Num_Resolved_Atoms>  (66) 
nan

>  <Num_Not_Resolved_Atoms>  (66) 
nan

$$$$
CHEMBL2152945
     RDKit          3D

  0  0  0  0  0  0  0  0  0  0999 V3000
M  V30 BEGIN CTAB
M  V30 COUNTS 59 63 0 0 0
M  V30 BEGIN ATOM
M  V30 1 C 4.564849 -0.607441 2.898843 0
M  V30 2 C 4.284466 0.804503 3.346309 0
M  V30 3 C 3.265721 0.751807 4.454072 0
M  V30 4 O 5.439887 1.497086 3.694747 0
M  V30 5 C 5.766896 2.325963 2.615991 0
M  V30 6 C 4.397804 2.623014 2.032919 0 CFG=1
M  V30 7 C 4.451808 2.952917 0.583179 0
M  V30 8 O 3.234875 3.134109 0.017259 0
M  V30 9 C 2.113859 2.491816 -0.251008 0
M  V30 10 C 1.264811 3.428139 -0.872419 0
M  V30 11 C -0.030031 3.098472 -1.304657 0
M  V30 12 C -0.472563 1.807601 -1.106881 0
M  V30 13 C 0.317333 0.854419 -0.505068 0
M  V30 14 C 1.568961 1.261725 -0.113600 0
M  V30 15 C 0.113589 -0.545700 -0.177419 0
M  V30 16 O 1.078703 -1.215525 0.271278 0
M  V30 17 C -1.201420 -1.197280 -0.360192 0
M  V30 18 C -1.024821 -2.581044 -0.316966 0
M  V30 19 C -2.152681 -3.385825 -0.470630 0
M  V30 20 C -3.378057 -2.783883 -0.656281 0
M  V30 21 N -4.535060 -3.592853 -0.812710 0
M  V30 22 C -4.615332 -5.007497 -0.772522 0
M  V30 23 C -5.056417 -5.808590 -1.807448 0
M  V30 24 C -5.118109 -7.183218 -1.719488 0
M  V30 25 C -4.718444 -7.769960 -0.539806 0
M  V30 26 F -4.773178 -9.114761 -0.438761 0
M  V30 27 C -4.276462 -6.977496 0.499217 0
M  V30 28 C -4.211655 -5.583271 0.416061 0
M  V30 29 F -3.753945 -4.970153 1.534408 0
M  V30 30 C -3.579322 -1.426099 -0.702779 0
M  V30 31 C -2.460905 -0.636490 -0.550310 0
M  V30 32 C -2.705718 0.826055 -0.603919 0
M  V30 33 C -1.848836 1.552637 -1.594493 0
M  V30 34 O 3.724804 1.472731 2.273937 0
M  V30 35 H 5.299169 -1.127773 3.541842 0
M  V30 36 H 4.864149 -0.577304 1.833355 0
M  V30 37 H 3.570387 -1.141054 2.908583 0
M  V30 38 H 3.000581 -0.298258 4.726961 0
M  V30 39 H 3.577183 1.251154 5.378498 0
M  V30 40 H 2.303488 1.215654 4.148021 0
M  V30 41 H 6.195402 3.252823 3.036063 0
M  V30 42 H 6.427334 1.775718 1.943252 0
M  V30 43 H 3.969726 3.505451 2.562440 0
M  V30 44 H 5.068692 3.896729 0.400085 0
M  V30 45 H 5.087326 2.174276 0.063659 0
M  V30 46 H 1.413771 4.494327 -1.124245 0
M  V30 47 H -0.759171 3.729675 -1.787591 0
M  V30 48 H 2.219252 0.543848 0.343610 0
M  V30 49 H -0.035653 -2.992142 -0.168024 0
M  V30 50 H -1.990337 -4.448396 -0.434466 0
M  V30 51 H -5.485717 -3.241431 -0.979458 0
M  V30 52 H -5.353674 -5.288565 -2.700316 0
M  V30 53 H -5.470774 -7.759392 -2.558821 0
M  V30 54 H -3.981529 -7.511740 1.388417 0
M  V30 55 H -4.533887 -0.953547 -0.847476 0
M  V30 56 H -3.774461 1.071940 -0.715229 0
M  V30 57 H -2.426118 1.240657 0.408873 0
M  V30 58 H -2.315747 2.568712 -1.713319 0
M  V30 59 H -1.875933 1.107794 -2.606029 0
M  V30 END ATOM
M  V30 BEGIN BOND
M  V30 1 1 1 2
M  V30 2 1 2 3
M  V30 3 1 2 4
M  V30 4 1 4 5
M  V30 5 1 5 6
M  V30 6 1 6 7
M  V30 7 1 7 8
M  V30 8 1 8 9
M  V30 9 2 9 10
M  V30 10 1 10 11
M  V30 11 2 11 12
M  V30 12 1 12 13
M  V30 13 2 13 14
M  V30 14 1 13 15
M  V30 15 2 15 16
M  V30 16 1 15 17
M  V30 17 2 17 18
M  V30 18 1 18 19
M  V30 19 2 19 20
M  V30 20 1 20 21
M  V30 21 1 21 22
M  V30 22 2 22 23
M  V30 23 1 23 24
M  V30 24 2 24 25
M  V30 25 1 25 26
M  V30 26 1 25 27
M  V30 27 2 27 28
M  V30 28 1 28 29
M  V30 29 1 20 30
M  V30 30 2 30 31
M  V30 31 1 31 32
M  V30 32 1 32 33
M  V30 33 1 6 34
M  V30 34 1 34 2
M  V30 35 1 14 9
M  V30 36 1 31 17
M  V30 37 1 33 12
M  V30 38 1 28 22
M  V30 39 1 1 35
M  V30 40 1 1 36
M  V30 41 1 1 37
M  V30 42 1 3 38
M  V30 43 1 3 39
M  V30 44 1 3 40
M  V30 45 1 5 41
M  V30 46 1 5 42
M  V30 47 1 6 43 CFG=1
M  V30 48 1 7 44
M  V30 49 1 7 45
M  V30 50 1 10 46
M  V30 51 1 11 47
M  V30 52 1 14 48
M  V30 53 1 18 49
M  V30 54 1 19 50
M  V30 55 1 21 51
M  V30 56 1 23 52
M  V30 57 1 24 53
M  V30 58 1 27 54
M  V30 59 1 30 55
M  V30 60 1 32 56
M  V30 61 1 32 57
M  V30 62 1 33 58
M  V30 63 1 33 59
M  V30 END BOND
M  V30 END CTAB
M  END
>  <Dataset>  (67) 
ChEMBL_Kinases

>  <Ligand_Instance>  (67) 
nan

>  <PDB_ID>  (67) 
nan

>  <Standardized_SMILES>  (67) 
CC1(C)OC[C@@H](COc2ccc3c(c2)C(=O)c2ccc(Nc4ccc(F)cc4F)cc2CC3)O1

>  <Name>  (67) 
nan

>  <Pocket>  (67) 
nan

>  <ATP_Site>  (67) 
nan

>  <Peripheral>  (67) 
nan

>  <Num_H_Atoms_ProtBoundConf>  (67) 
nan

>  <Num_Resolved_Atoms>  (67) 
nan

>  <Num_Not_Resolved_Atoms>  (67) 
nan

$$$$
CHEMBL2152943
     RDKit          3D

  0  0  0  0  0  0  0  0  0  0999 V3000
M  V30 BEGIN CTAB
M  V30 COUNTS 59 63 0 0 0
M  V30 BEGIN ATOM
M  V30 1 C 5.795821 0.335280 5.535124 0
M  V30 2 C 4.616464 1.029660 4.934971 0
M  V30 3 C 3.815922 1.804764 5.978158 0
M  V30 4 O 3.821831 0.065834 4.308059 0
M  V30 5 C 3.317655 0.646360 3.142294 0
M  V30 6 C 3.665647 2.091958 3.324015 0 CFG=2
M  V30 7 C 3.757256 2.920735 2.094575 0
M  V30 8 O 2.578258 3.117383 1.467700 0
M  V30 9 C 1.600082 2.508179 0.838660 0
M  V30 10 C 0.666803 3.504119 0.490901 0
M  V30 11 C -0.525368 3.234049 -0.201607 0
M  V30 12 C -0.771863 1.917380 -0.547756 0
M  V30 13 C 0.099682 0.898681 -0.237664 0
M  V30 14 C 1.241882 1.250350 0.440333 0
M  V30 15 C 0.085088 -0.538349 -0.475601 0
M  V30 16 O 1.128106 -1.179853 -0.282156 0
M  V30 17 C -1.149456 -1.209216 -0.937190 0
M  V30 18 C -0.822052 -2.522761 -1.286974 0
M  V30 19 C -1.811281 -3.390137 -1.760997 0
M  V30 20 C -3.084382 -2.878982 -1.855798 0
M  V30 21 N -4.130621 -3.715192 -2.329636 0
M  V30 22 C -4.053694 -5.081413 -2.712251 0
M  V30 23 C -4.372637 -5.528132 -3.997592 0
M  V30 24 C -4.300467 -6.855880 -4.372323 0
M  V30 25 C -3.889095 -7.780874 -3.413425 0
M  V30 26 F -3.825210 -9.089837 -3.808063 0
M  V30 27 C -3.567348 -7.371319 -2.135883 0
M  V30 28 C -3.645110 -6.035977 -1.776461 0
M  V30 29 F -3.315420 -5.730505 -0.515705 0
M  V30 30 C -3.450953 -1.594335 -1.523113 0
M  V30 31 C -2.450753 -0.768533 -1.060064 0
M  V30 32 C -2.889220 0.604846 -0.712867 0
M  V30 33 C -2.037566 1.692723 -1.274200 0
M  V30 34 O 4.945485 1.946800 3.934175 0
M  V30 35 H 6.602357 0.296828 4.773123 0
M  V30 36 H 5.529926 -0.725802 5.739038 0
M  V30 37 H 6.136816 0.771357 6.487853 0
M  V30 38 H 3.932589 2.904099 5.873448 0
M  V30 39 H 4.191482 1.572908 7.003175 0
M  V30 40 H 2.717901 1.605381 5.892441 0
M  V30 41 H 3.895701 0.276718 2.265823 0
M  V30 42 H 2.220600 0.477848 3.052580 0
M  V30 43 H 2.984127 2.541936 4.099277 0
M  V30 44 H 4.236992 3.898498 2.431078 0
M  V30 45 H 4.479698 2.397569 1.406285 0
M  V30 46 H 0.670016 4.595371 0.668376 0
M  V30 47 H -1.294371 3.890204 -0.514635 0
M  V30 48 H 1.970630 0.504041 0.695858 0
M  V30 49 H 0.185787 -2.899644 -1.203255 0
M  V30 50 H -1.525375 -4.393492 -2.021908 0
M  V30 51 H -5.117682 -3.422018 -2.460227 0
M  V30 52 H -4.677310 -4.725023 -4.653107 0
M  V30 53 H -4.567663 -7.107629 -5.391769 0
M  V30 54 H -3.253045 -8.165497 -1.444388 0
M  V30 55 H -4.455635 -1.216548 -1.606019 0
M  V30 56 H -3.908858 0.731150 -1.162366 0
M  V30 57 H -2.923802 0.721700 0.389430 0
M  V30 58 H -2.622645 2.633014 -1.241495 0
M  V30 59 H -1.782858 1.524288 -2.340704 0
M  V30 END ATOM
M  V30 BEGIN BOND
M  V30 1 1 1 2
M  V30 2 1 2 3
M  V30 3 1 2 4
M  V30 4 1 4 5
M  V30 5 1 5 6
M  V30 6 1 6 7
M  V30 7 1 7 8
M  V30 8 1 8 9
M  V30 9 2 9 10
M  V30 10 1 10 11
M  V30 11 2 11 12
M  V30 12 1 12 13
M  V30 13 2 13 14
M  V30 14 1 13 15
M  V30 15 2 15 16
M  V30 16 1 15 17
M  V30 17 2 17 18
M  V30 18 1 18 19
M  V30 19 2 19 20
M  V30 20 1 20 21
M  V30 21 1 21 22
M  V30 22 2 22 23
M  V30 23 1 23 24
M  V30 24 2 24 25
M  V30 25 1 25 26
M  V30 26 1 25 27
M  V30 27 2 27 28
M  V30 28 1 28 29
M  V30 29 1 20 30
M  V30 30 2 30 31
M  V30 31 1 31 32
M  V30 32 1 32 33
M  V30 33 1 6 34
M  V30 34 1 34 2
M  V30 35 1 14 9
M  V30 36 1 31 17
M  V30 37 1 33 12
M  V30 38 1 28 22
M  V30 39 1 1 35
M  V30 40 1 1 36
M  V30 41 1 1 37
M  V30 42 1 3 38
M  V30 43 1 3 39
M  V30 44 1 3 40
M  V30 45 1 5 41
M  V30 46 1 5 42
M  V30 47 1 6 43 CFG=1
M  V30 48 1 7 44
M  V30 49 1 7 45
M  V30 50 1 10 46
M  V30 51 1 11 47
M  V30 52 1 14 48
M  V30 53 1 18 49
M  V30 54 1 19 50
M  V30 55 1 21 51
M  V30 56 1 23 52
M  V30 57 1 24 53
M  V30 58 1 27 54
M  V30 59 1 30 55
M  V30 60 1 32 56
M  V30 61 1 32 57
M  V30 62 1 33 58
M  V30 63 1 33 59
M  V30 END BOND
M  V30 END CTAB
M  END
>  <Dataset>  (68) 
ChEMBL_Kinases

>  <Ligand_Instance>  (68) 
nan

>  <PDB_ID>  (68) 
nan

>  <Standardized_SMILES>  (68) 
CC1(C)OC[C@H](COc2ccc3c(c2)C(=O)c2ccc(Nc4ccc(F)cc4F)cc2CC3)O1

>  <Name>  (68) 
nan

>  <Pocket>  (68) 
nan

>  <ATP_Site>  (68) 
nan

>  <Peripheral>  (68) 
nan

>  <Num_H_Atoms_ProtBoundConf>  (68) 
nan

>  <Num_Resolved_Atoms>  (68) 
nan

>  <Num_Not_Resolved_Atoms>  (68) 
nan

$$$$
CHEMBL2152942
     RDKit          3D

  0  0  0  0  0  0  0  0  0  0999 V3000
M  V30 BEGIN CTAB
M  V30 COUNTS 55 59 0 0 0
M  V30 BEGIN ATOM
M  V30 1 O -1.458075 -1.101114 2.143114 0
M  V30 2 C -0.764130 -0.617446 1.227398 0
M  V30 3 C 0.161848 0.490484 1.548264 0
M  V30 4 C -0.105103 0.989194 2.807054 0
M  V30 5 C 0.608497 2.030867 3.363418 0
M  V30 6 C 1.618033 2.555268 2.582882 0
M  V30 7 N 2.416151 3.633344 3.060478 0
M  V30 8 C 3.490849 4.354644 2.468046 0
M  V30 9 C 4.757610 4.405558 3.017784 0
M  V30 10 C 5.740356 5.137312 2.364161 0
M  V30 11 C 5.485048 5.809363 1.188755 0
M  V30 12 F 6.487231 6.517086 0.582312 0
M  V30 13 C 4.212522 5.734937 0.672825 0
M  V30 14 C 3.202957 5.020575 1.285981 0
M  V30 15 F 2.012425 5.052222 0.646877 0
M  V30 16 C 1.913143 2.082301 1.320702 0
M  V30 17 C 1.180130 1.038856 0.793193 0
M  V30 18 C 1.537198 0.564788 -0.571411 0
M  V30 19 C 0.324445 0.532176 -1.500921 0
M  V30 20 C -0.462391 -0.714258 -1.313904 0
M  V30 21 C -0.745299 -1.442866 -2.451013 0
M  V30 22 C -1.483518 -2.627267 -2.336671 0
M  V30 23 C -1.944432 -3.095082 -1.097584 0
M  V30 24 O -2.631132 -4.270442 -1.306457 0
M  V30 25 C -3.220508 -5.000411 -0.289674 0
M  V30 26 C -4.718938 -5.145380 -0.436416 0
M  V30 27 C -4.931901 -6.594130 -0.896169 0
M  V30 28 O -4.762179 -7.390309 0.229948 0
M  V30 29 C -3.449624 -7.276163 0.665438 0
M  V30 30 C -2.586108 -6.374152 -0.148529 0
M  V30 31 C -1.644411 -2.343350 0.017862 0
M  V30 32 C -0.926568 -1.193827 -0.102379 0
M  V30 33 H -0.910668 0.558768 3.410619 0
M  V30 34 H 0.436955 2.455013 4.343506 0
M  V30 35 H 2.236133 4.015966 4.011394 0
M  V30 36 H 4.896830 3.856793 3.943360 0
M  V30 37 H 6.722933 5.141358 2.845856 0
M  V30 38 H 4.045086 6.284245 -0.266749 0
M  V30 39 H 2.683461 2.440423 0.657094 0
M  V30 40 H 2.404145 1.056837 -1.008586 0
M  V30 41 H 1.808386 -0.522014 -0.425208 0
M  V30 42 H 0.733695 0.485889 -2.533805 0
M  V30 43 H -0.334094 1.400139 -1.351271 0
M  V30 44 H -0.367251 -1.033332 -3.355896 0
M  V30 45 H -1.616235 -3.076781 -3.332572 0
M  V30 46 H -3.057803 -4.496417 0.679781 0
M  V30 47 H -5.264332 -5.071202 0.525382 0
M  V30 48 H -5.170578 -4.504242 -1.190442 0
M  V30 49 H -5.963341 -6.657980 -1.302061 0
M  V30 50 H -4.211134 -6.907465 -1.655708 0
M  V30 51 H -3.035281 -8.325021 0.597608 0
M  V30 52 H -3.470126 -7.005766 1.735731 0
M  V30 53 H -1.638321 -6.225804 0.446281 0
M  V30 54 H -2.261582 -6.792688 -1.102371 0
M  V30 55 H -2.035918 -2.780433 0.899942 0
M  V30 END ATOM
M  V30 BEGIN BOND
M  V30 1 2 1 2
M  V30 2 1 2 3
M  V30 3 2 3 4
M  V30 4 1 4 5
M  V30 5 2 5 6
M  V30 6 1 6 7
M  V30 7 1 7 8
M  V30 8 2 8 9
M  V30 9 1 9 10
M  V30 10 2 10 11
M  V30 11 1 11 12
M  V30 12 1 11 13
M  V30 13 2 13 14
M  V30 14 1 14 15
M  V30 15 1 6 16
M  V30 16 2 16 17
M  V30 17 1 17 18
M  V30 18 1 18 19
M  V30 19 1 19 20
M  V30 20 2 20 21
M  V30 21 1 21 22
M  V30 22 2 22 23
M  V30 23 1 23 24
M  V30 24 1 24 25
M  V30 25 1 25 26
M  V30 26 1 26 27
M  V30 27 1 27 28
M  V30 28 1 28 29
M  V30 29 1 29 30
M  V30 30 1 23 31
M  V30 31 2 31 32
M  V30 32 1 32 2
M  V30 33 1 17 3
M  V30 34 1 32 20
M  V30 35 1 14 8
M  V30 36 1 30 25
M  V30 37 1 4 33
M  V30 38 1 5 34
M  V30 39 1 7 35
M  V30 40 1 9 36
M  V30 41 1 10 37
M  V30 42 1 13 38
M  V30 43 1 16 39
M  V30 44 1 18 40
M  V30 45 1 18 41
M  V30 46 1 19 42
M  V30 47 1 19 43
M  V30 48 1 21 44
M  V30 49 1 22 45
M  V30 50 1 25 46
M  V30 51 1 26 47
M  V30 52 1 26 48
M  V30 53 1 27 49
M  V30 54 1 27 50
M  V30 55 1 29 51
M  V30 56 1 29 52
M  V30 57 1 30 53
M  V30 58 1 30 54
M  V30 59 1 31 55
M  V30 END BOND
M  V30 END CTAB
M  END
>  <Dataset>  (69) 
ChEMBL_Kinases

>  <Ligand_Instance>  (69) 
nan

>  <PDB_ID>  (69) 
nan

>  <Standardized_SMILES>  (69) 
O=C1c2ccc(Nc3ccc(F)cc3F)cc2CCc2ccc(OC3CCOCC3)cc21

>  <Name>  (69) 
nan

>  <Pocket>  (69) 
nan

>  <ATP_Site>  (69) 
nan

>  <Peripheral>  (69) 
nan

>  <Num_H_Atoms_ProtBoundConf>  (69) 
nan

>  <Num_Resolved_Atoms>  (69) 
nan

>  <Num_Not_Resolved_Atoms>  (69) 
nan

$$$$
CHEMBL2152941
     RDKit          3D

  0  0  0  0  0  0  0  0  0  0999 V3000
M  V30 BEGIN CTAB
M  V30 COUNTS 51 54 0 0 0
M  V30 BEGIN ATOM
M  V30 1 O -0.464259 -2.611315 -0.780272 0
M  V30 2 C -0.459747 -1.614496 -0.014408 0
M  V30 3 C 0.793018 -0.844371 0.167122 0
M  V30 4 C 1.855805 -1.598124 -0.285779 0
M  V30 5 C 3.139245 -1.089144 -0.220639 0
M  V30 6 C 3.299643 0.177125 0.306103 0
M  V30 7 N 4.616501 0.703441 0.374515 0
M  V30 8 C 5.128499 1.925502 0.823042 0
M  V30 9 C 6.048789 2.155529 1.845665 0
M  V30 10 C 6.459142 3.429812 2.171661 0
M  V30 11 C 5.952491 4.511527 1.474729 0
M  V30 12 F 6.380010 5.741664 1.825400 0
M  V30 13 C 5.028819 4.309595 0.445149 0
M  V30 14 C 4.630907 3.026699 0.134234 0
M  V30 15 F 3.737542 3.012520 -0.882592 0
M  V30 16 C 2.262422 0.960127 0.768584 0
M  V30 17 C 0.986357 0.436089 0.696079 0
M  V30 18 C -0.106950 1.285657 1.193008 0
M  V30 19 C -1.019176 0.636873 2.177942 0
M  V30 20 C -2.016903 -0.293510 1.625228 0
M  V30 21 C -3.322794 -0.195684 2.088735 0
M  V30 22 C -4.288020 -1.075212 1.573858 0
M  V30 23 C -4.001731 -2.061581 0.603009 0
M  V30 24 O -5.177704 -2.647263 0.410089 0
M  V30 25 C -5.603245 -3.676964 -0.363723 0
M  V30 26 C -5.139895 -5.064447 -0.135060 0
M  V30 27 C -3.675194 -5.337211 -0.228355 0
M  V30 28 O -3.443253 -6.715689 -0.013036 0
M  V30 29 C -2.684562 -2.067350 0.218151 0
M  V30 30 C -1.691258 -1.240169 0.678215 0
M  V30 31 H 1.669887 -2.591727 -0.691873 0
M  V30 32 H 3.997306 -1.649758 -0.565656 0
M  V30 33 H 5.449438 0.173699 0.059914 0
M  V30 34 H 6.391551 1.265093 2.334642 0
M  V30 35 H 7.174995 3.571371 2.970988 0
M  V30 36 H 4.695496 5.218526 -0.035283 0
M  V30 37 H 2.368222 1.951878 1.184185 0
M  V30 38 H 0.364338 2.152351 1.718683 0
M  V30 39 H -0.734875 1.715550 0.387002 0
M  V30 40 H -0.352170 0.009089 2.838772 0
M  V30 41 H -1.536303 1.412587 2.777292 0
M  V30 42 H -3.391881 0.592571 2.818912 0
M  V30 43 H -5.211937 -0.777572 2.107622 0
M  V30 44 H -5.403135 -3.481290 -1.486803 0
M  V30 45 H -6.757405 -3.720730 -0.383896 0
M  V30 46 H -5.474102 -5.477875 0.856914 0
M  V30 47 H -5.676792 -5.757155 -0.864219 0
M  V30 48 H -3.140322 -4.817902 0.617594 0
M  V30 49 H -3.227665 -5.099798 -1.207932 0
M  V30 50 H -3.648121 -7.184624 -0.869794 0
M  V30 51 H -2.533322 -2.810622 -0.519056 0
M  V30 END ATOM
M  V30 BEGIN BOND
M  V30 1 2 1 2
M  V30 2 1 2 3
M  V30 3 2 3 4
M  V30 4 1 4 5
M  V30 5 2 5 6
M  V30 6 1 6 7
M  V30 7 1 7 8
M  V30 8 2 8 9
M  V30 9 1 9 10
M  V30 10 2 10 11
M  V30 11 1 11 12
M  V30 12 1 11 13
M  V30 13 2 13 14
M  V30 14 1 14 15
M  V30 15 1 6 16
M  V30 16 2 16 17
M  V30 17 1 17 18
M  V30 18 1 18 19
M  V30 19 1 19 20
M  V30 20 2 20 21
M  V30 21 1 21 22
M  V30 22 2 22 23
M  V30 23 1 23 24
M  V30 24 1 24 25
M  V30 25 1 25 26
M  V30 26 1 26 27
M  V30 27 1 27 28
M  V30 28 1 23 29
M  V30 29 2 29 30
M  V30 30 1 30 2
M  V30 31 1 17 3
M  V30 32 1 30 20
M  V30 33 1 14 8
M  V30 34 1 4 31
M  V30 35 1 5 32
M  V30 36 1 7 33
M  V30 37 1 9 34
M  V30 38 1 10 35
M  V30 39 1 13 36
M  V30 40 1 16 37
M  V30 41 1 18 38
M  V30 42 1 18 39
M  V30 43 1 19 40
M  V30 44 1 19 41
M  V30 45 1 21 42
M  V30 46 1 22 43
M  V30 47 1 25 44
M  V30 48 1 25 45
M  V30 49 1 26 46
M  V30 50 1 26 47
M  V30 51 1 27 48
M  V30 52 1 27 49
M  V30 53 1 28 50
M  V30 54 1 29 51
M  V30 END BOND
M  V30 END CTAB
M  END
>  <Dataset>  (70) 
ChEMBL_Kinases

>  <Ligand_Instance>  (70) 
nan

>  <PDB_ID>  (70) 
nan

>  <Standardized_SMILES>  (70) 
O=C1c2ccc(Nc3ccc(F)cc3F)cc2CCc2ccc(OCCCO)cc21

>  <Name>  (70) 
nan

>  <Pocket>  (70) 
nan

>  <ATP_Site>  (70) 
nan

>  <Peripheral>  (70) 
nan

>  <Num_H_Atoms_ProtBoundConf>  (70) 
nan

>  <Num_Resolved_Atoms>  (70) 
nan

>  <Num_Not_Resolved_Atoms>  (70) 
nan

$$$$
CHEMBL2152940
     RDKit          3D

  0  0  0  0  0  0  0  0  0  0999 V3000
M  V30 BEGIN CTAB
M  V30 COUNTS 48 51 0 0 0
M  V30 BEGIN ATOM
M  V30 1 O -0.789490 -1.607786 -1.146896 0
M  V30 2 C -0.672315 -1.202021 0.036834 0
M  V30 3 C 0.503987 -0.409231 0.424199 0
M  V30 4 C 1.136277 0.034258 -0.743204 0
M  V30 5 C 2.289236 0.814147 -0.592737 0
M  V30 6 C 2.725458 1.093842 0.684152 0
M  V30 7 N 3.893420 1.884847 0.855714 0
M  V30 8 C 4.713370 2.485854 -0.137859 0
M  V30 9 C 6.055529 2.245514 -0.351217 0
M  V30 10 C 6.739954 2.905929 -1.361128 0
M  V30 11 C 6.101134 3.823814 -2.184303 0
M  V30 12 F 6.837151 4.422705 -3.142274 0
M  V30 13 C 4.765245 4.058216 -1.966377 0
M  V30 14 C 4.057121 3.403591 -0.954441 0
M  V30 15 F 2.753763 3.780607 -0.910684 0
M  V30 16 C 2.117687 0.667060 1.844777 0
M  V30 17 C 0.975913 -0.105237 1.692205 0
M  V30 18 C 0.358430 -0.539470 2.938578 0
M  V30 19 C -1.110462 -0.334893 3.036248 0
M  V30 20 C -1.970555 -1.210996 2.231010 0
M  V30 21 C -3.062695 -1.651340 2.951425 0
M  V30 22 C -3.940625 -2.477850 2.304223 0
M  V30 23 C -3.847610 -2.917700 1.005391 0
M  V30 24 O -4.573243 -3.705037 0.206342 0
M  V30 25 C -5.702780 -4.446162 0.248738 0
M  V30 26 C -5.812199 -5.592150 1.186636 0
M  V30 27 O -5.694651 -5.346805 2.517594 0
M  V30 28 C -2.722962 -2.447555 0.306084 0
M  V30 29 C -1.781156 -1.597421 0.904935 0
M  V30 30 H 0.740829 -0.221761 -1.701907 0
M  V30 31 H 2.767613 1.149090 -1.494447 0
M  V30 32 H 4.315294 2.135463 1.772764 0
M  V30 33 H 6.517679 1.522702 0.311930 0
M  V30 34 H 7.793064 2.702417 -1.511363 0
M  V30 35 H 4.335635 4.783486 -2.644231 0
M  V30 36 H 2.476091 0.897698 2.826529 0
M  V30 37 H 0.599164 -1.622180 3.079682 0
M  V30 38 H 0.819607 0.002492 3.781417 0
M  V30 39 H -1.379036 -0.475612 4.103175 0
M  V30 40 H -1.338405 0.723774 2.796272 0
M  V30 41 H -3.256828 -1.384595 3.974837 0
M  V30 42 H -4.812707 -2.843493 2.811027 0
M  V30 43 H -5.851072 -4.894007 -0.788639 0
M  V30 44 H -6.585994 -3.749659 0.324441 0
M  V30 45 H -6.795430 -6.099683 0.942034 0
M  V30 46 H -5.061296 -6.402195 0.946068 0
M  V30 47 H -6.439891 -4.758575 2.807126 0
M  V30 48 H -2.443221 -2.661307 -0.725957 0
M  V30 END ATOM
M  V30 BEGIN BOND
M  V30 1 2 1 2
M  V30 2 1 2 3
M  V30 3 2 3 4
M  V30 4 1 4 5
M  V30 5 2 5 6
M  V30 6 1 6 7
M  V30 7 1 7 8
M  V30 8 2 8 9
M  V30 9 1 9 10
M  V30 10 2 10 11
M  V30 11 1 11 12
M  V30 12 1 11 13
M  V30 13 2 13 14
M  V30 14 1 14 15
M  V30 15 1 6 16
M  V30 16 2 16 17
M  V30 17 1 17 18
M  V30 18 1 18 19
M  V30 19 1 19 20
M  V30 20 2 20 21
M  V30 21 1 21 22
M  V30 22 2 22 23
M  V30 23 1 23 24
M  V30 24 1 24 25
M  V30 25 1 25 26
M  V30 26 1 26 27
M  V30 27 1 23 28
M  V30 28 2 28 29
M  V30 29 1 29 2
M  V30 30 1 17 3
M  V30 31 1 29 20
M  V30 32 1 14 8
M  V30 33 1 4 30
M  V30 34 1 5 31
M  V30 35 1 7 32
M  V30 36 1 9 33
M  V30 37 1 10 34
M  V30 38 1 13 35
M  V30 39 1 16 36
M  V30 40 1 18 37
M  V30 41 1 18 38
M  V30 42 1 19 39
M  V30 43 1 19 40
M  V30 44 1 21 41
M  V30 45 1 22 42
M  V30 46 1 25 43
M  V30 47 1 25 44
M  V30 48 1 26 45
M  V30 49 1 26 46
M  V30 50 1 27 47
M  V30 51 1 28 48
M  V30 END BOND
M  V30 END CTAB
M  END
>  <Dataset>  (71) 
ChEMBL_Kinases

>  <Ligand_Instance>  (71) 
nan

>  <PDB_ID>  (71) 
nan

>  <Standardized_SMILES>  (71) 
O=C1c2ccc(Nc3ccc(F)cc3F)cc2CCc2ccc(OCCO)cc21

>  <Name>  (71) 
nan

>  <Pocket>  (71) 
nan

>  <ATP_Site>  (71) 
nan

>  <Peripheral>  (71) 
nan

>  <Num_H_Atoms_ProtBoundConf>  (71) 
nan

>  <Num_Resolved_Atoms>  (71) 
nan

>  <Num_Not_Resolved_Atoms>  (71) 
nan

$$$$
CHEMBL2152939
     RDKit          3D

  0  0  0  0  0  0  0  0  0  0999 V3000
M  V30 BEGIN CTAB
M  V30 COUNTS 60 64 0 0 0
M  V30 BEGIN ATOM
M  V30 1 N 7.381678 4.632942 1.405514 0
M  V30 2 C 6.883474 4.070535 0.208773 0
M  V30 3 C 7.381060 4.424426 -1.001794 0
M  V30 4 C 6.969204 3.951452 -2.205984 0
M  V30 5 C 5.934606 3.020193 -2.069983 0
M  V30 6 C 5.352807 2.585240 -0.901186 0
M  V30 7 C 5.845149 3.128870 0.263462 0
M  V30 8 N 5.315154 2.752150 1.529879 0
M  V30 9 C 4.252725 1.793442 1.474896 0
M  V30 10 C 4.538557 0.448796 1.531795 0
M  V30 11 C 3.405665 -0.328468 1.465686 0
M  V30 12 C 2.092436 0.070005 1.354993 0
M  V30 13 C 1.196299 -0.965179 1.307944 0
M  V30 14 O 1.630547 -2.119548 1.546059 0
M  V30 15 C -0.145267 -0.917707 1.029122 0
M  V30 16 C -0.774749 -2.131027 0.851510 0
M  V30 17 C -2.141377 -2.263999 0.557205 0
M  V30 18 O -2.442211 -3.586430 0.442172 0
M  V30 19 C -3.654494 -4.217315 0.173454 0
M  V30 20 C -4.741418 -3.990247 1.198394 0
M  V30 21 N -5.914212 -4.693945 0.793841 0
M  V30 22 C -5.849350 -6.113955 0.813623 0
M  V30 23 C -6.067004 -6.637217 -0.587259 0
M  V30 24 O -7.359456 -6.370159 -1.034187 0
M  V30 25 C -7.772623 -5.096665 -0.743921 0
M  V30 26 C -6.613816 -4.192018 -0.329685 0
M  V30 27 C -2.829514 -1.068549 0.455479 0
M  V30 28 C -2.270558 0.176948 0.619868 0
M  V30 29 C -0.914354 0.214467 0.908254 0
M  V30 30 C -0.544525 1.536715 1.034776 0
M  V30 31 C 0.712180 2.131509 1.194408 0
M  V30 32 C 1.938272 1.467515 1.306747 0
M  V30 33 C 2.996255 2.351176 1.364315 0
M  V30 34 H 8.244138 4.290960 1.925175 0
M  V30 35 H 7.371681 5.303180 2.189814 0
M  V30 36 H 8.194794 5.162492 -1.006414 0
M  V30 37 H 7.339656 4.210585 -3.183116 0
M  V30 38 H 5.530471 2.580388 -2.979995 0
M  V30 39 H 4.558247 1.860790 -0.913253 0
M  V30 40 H 5.706222 3.172497 2.400502 0
M  V30 41 H 5.535109 0.048419 1.618121 0
M  V30 42 H 3.526127 -1.423977 1.499856 0
M  V30 43 H -0.050034 -2.959042 0.974099 0
M  V30 44 H -3.994960 -3.844072 -0.834067 0
M  V30 45 H -3.508153 -5.324070 -0.002667 0
M  V30 46 H -4.361707 -4.361692 2.191720 0
M  V30 47 H -5.011515 -2.928562 1.278868 0
M  V30 48 H -6.539560 -6.587514 1.542554 0
M  V30 49 H -4.815913 -6.429570 1.128897 0
M  V30 50 H -5.803094 -7.704392 -0.679635 0
M  V30 51 H -5.397385 -6.067955 -1.261066 0
M  V30 52 H -8.238707 -4.630409 -1.626967 0
M  V30 53 H -8.529879 -5.164105 0.065592 0
M  V30 54 H -5.963457 -4.116312 -1.218762 0
M  V30 55 H -7.085250 -3.199262 -0.106646 0
M  V30 56 H -3.851582 -1.223126 0.222430 0
M  V30 57 H -2.938821 1.006611 0.508239 0
M  V30 58 H -1.335067 2.292399 1.012933 0
M  V30 59 H 0.762250 3.209264 1.237067 0
M  V30 60 H 2.821923 3.417557 1.323421 0
M  V30 END ATOM
M  V30 BEGIN BOND
M  V30 1 1 1 2
M  V30 2 2 2 3
M  V30 3 1 3 4
M  V30 4 2 4 5
M  V30 5 1 5 6
M  V30 6 2 6 7
M  V30 7 1 7 8
M  V30 8 1 8 9
M  V30 9 2 9 10
M  V30 10 1 10 11
M  V30 11 2 11 12
M  V30 12 1 12 13
M  V30 13 2 13 14
M  V30 14 1 13 15
M  V30 15 2 15 16
M  V30 16 1 16 17
M  V30 17 1 17 18
M  V30 18 1 18 19
M  V30 19 1 19 20
M  V30 20 1 20 21
M  V30 21 1 21 22
M  V30 22 1 22 23
M  V30 23 1 23 24
M  V30 24 1 24 25
M  V30 25 1 25 26
M  V30 26 2 17 27
M  V30 27 1 27 28
M  V30 28 2 28 29
M  V30 29 1 29 30
M  V30 30 2 30 31
M  V30 31 1 31 32
M  V30 32 2 32 33
M  V30 33 1 7 2
M  V30 34 1 33 9
M  V30 35 1 32 12
M  V30 36 1 29 15
M  V30 37 1 26 21
M  V30 38 1 1 34
M  V30 39 1 1 35
M  V30 40 1 3 36
M  V30 41 1 4 37
M  V30 42 1 5 38
M  V30 43 1 6 39
M  V30 44 1 8 40
M  V30 45 1 10 41
M  V30 46 1 11 42
M  V30 47 1 16 43
M  V30 48 1 19 44
M  V30 49 1 19 45
M  V30 50 1 20 46
M  V30 51 1 20 47
M  V30 52 1 22 48
M  V30 53 1 22 49
M  V30 54 1 23 50
M  V30 55 1 23 51
M  V30 56 1 25 52
M  V30 57 1 25 53
M  V30 58 1 26 54
M  V30 59 1 26 55
M  V30 60 1 27 56
M  V30 61 1 28 57
M  V30 62 1 30 58
M  V30 63 1 31 59
M  V30 64 1 33 60
M  V30 END BOND
M  V30 END CTAB
M  END
>  <Dataset>  (72) 
ChEMBL_Kinases

>  <Ligand_Instance>  (72) 
nan

>  <PDB_ID>  (72) 
nan

>  <Standardized_SMILES>  (72) 
Nc1ccccc1Nc1ccc2c(=O)c3cc(OCCN4CCOCC4)ccc3ccc2c1

>  <Name>  (72) 
nan

>  <Pocket>  (72) 
nan

>  <ATP_Site>  (72) 
nan

>  <Peripheral>  (72) 
nan

>  <Num_H_Atoms_ProtBoundConf>  (72) 
nan

>  <Num_Resolved_Atoms>  (72) 
nan

>  <Num_Not_Resolved_Atoms>  (72) 
nan

$$$$
CHEMBL2152938
     RDKit          3D

  0  0  0  0  0  0  0  0  0  0999 V3000
M  V30 BEGIN CTAB
M  V30 COUNTS 54 57 0 0 0
M  V30 BEGIN ATOM
M  V30 1 N 4.845380 -1.691640 2.905910 0
M  V30 2 C 5.700305 -0.558469 2.767572 0
M  V30 3 C 7.034909 -0.911192 2.702927 0
M  V30 4 C 8.019472 0.047105 2.570385 0
M  V30 5 C 7.682672 1.375323 2.500402 0
M  V30 6 C 6.354184 1.712298 2.565686 0
M  V30 7 C 5.350143 0.786781 2.697210 0
M  V30 8 N 3.958267 1.030198 2.776047 0
M  V30 9 C 2.905166 0.594802 1.927561 0
M  V30 10 C 3.177634 -0.150368 0.799973 0
M  V30 11 C 2.140133 -0.573496 -0.022845 0
M  V30 12 C 0.872654 -0.190017 0.384739 0
M  V30 13 C 0.577506 0.563584 1.521802 0
M  V30 14 C 1.634714 0.965162 2.313971 0
M  V30 15 C -0.749535 1.012999 2.018350 0
M  V30 16 C -1.625592 -0.212869 2.156742 0
M  V30 17 C -2.235078 -0.561238 0.830674 0
M  V30 18 C -3.587708 -0.650218 0.938659 0
M  V30 19 C -4.258439 -0.966981 -0.217790 0
M  V30 20 C -3.723953 -1.200217 -1.448353 0
M  V30 21 O -4.153736 -1.512663 -2.659668 0
M  V30 22 C -5.271879 -1.785010 -3.361968 0
M  V30 23 C -6.089000 -2.983425 -3.020716 0 CFG=1
M  V30 24 O -5.349669 -4.166385 -3.137893 0
M  V30 25 C -6.835638 -2.904707 -1.724801 0
M  V30 26 O -7.523438 -1.685353 -1.676227 0
M  V30 27 C -2.330963 -1.094023 -1.496860 0
M  V30 28 C -1.563956 -0.774377 -0.365010 0
M  V30 29 C -0.118367 -0.696265 -0.559051 0
M  V30 30 O 0.241271 -1.128927 -1.682655 0
M  V30 31 H 4.926873 -2.437295 2.158599 0
M  V30 32 H 4.130030 -1.956695 3.609171 0
M  V30 33 H 7.443245 -1.917892 2.745708 0
M  V30 34 H 9.093270 -0.172168 2.513866 0
M  V30 35 H 8.435198 2.155858 2.395778 0
M  V30 36 H 6.023036 2.736765 2.516466 0
M  V30 37 H 3.840685 1.617615 3.613459 0
M  V30 38 H 4.177257 -0.435157 0.503769 0
M  V30 39 H 2.258644 -1.155950 -0.918575 0
M  V30 40 H 1.394428 1.539395 3.178171 0
M  V30 41 H -1.249734 1.733023 1.334948 0
M  V30 42 H -0.619253 1.465656 3.020136 0
M  V30 43 H -2.397369 -0.098820 2.913910 0
M  V30 44 H -0.973583 -1.095386 2.424813 0
M  V30 45 H -4.151062 -0.494715 1.838182 0
M  V30 46 H -5.315999 -1.031690 -0.190057 0
M  V30 47 H -4.968868 -1.878139 -4.462352 0
M  V30 48 H -6.001919 -0.918782 -3.419007 0
M  V30 49 H -6.914855 -3.067560 -3.813254 0
M  V30 50 H -4.379214 -3.960355 -3.178750 0
M  V30 51 H -6.211858 -3.081685 -0.832571 0
M  V30 52 H -7.620701 -3.710031 -1.768057 0
M  V30 53 H -8.458483 -1.820802 -1.429023 0
M  V30 54 H -1.646266 -1.229052 -2.351402 0
M  V30 END ATOM
M  V30 BEGIN BOND
M  V30 1 1 1 2
M  V30 2 2 2 3
M  V30 3 1 3 4
M  V30 4 2 4 5
M  V30 5 1 5 6
M  V30 6 2 6 7
M  V30 7 1 7 8
M  V30 8 1 8 9
M  V30 9 2 9 10
M  V30 10 1 10 11
M  V30 11 2 11 12
M  V30 12 1 12 13
M  V30 13 2 13 14
M  V30 14 1 13 15
M  V30 15 1 15 16
M  V30 16 1 16 17
M  V30 17 2 17 18
M  V30 18 1 18 19
M  V30 19 2 19 20
M  V30 20 1 20 21
M  V30 21 1 21 22
M  V30 22 1 22 23
M  V30 23 1 23 24
M  V30 24 1 23 25
M  V30 25 1 25 26
M  V30 26 1 20 27
M  V30 27 2 27 28
M  V30 28 1 28 29
M  V30 29 2 29 30
M  V30 30 1 7 2
M  V30 31 1 14 9
M  V30 32 1 28 17
M  V30 33 1 29 12
M  V30 34 1 1 31
M  V30 35 1 1 32
M  V30 36 1 3 33
M  V30 37 1 4 34
M  V30 38 1 5 35
M  V30 39 1 6 36
M  V30 40 1 8 37
M  V30 41 1 10 38
M  V30 42 1 11 39
M  V30 43 1 14 40
M  V30 44 1 15 41
M  V30 45 1 15 42
M  V30 46 1 16 43
M  V30 47 1 16 44
M  V30 48 1 18 45
M  V30 49 1 19 46
M  V30 50 1 22 47
M  V30 51 1 22 48
M  V30 52 1 23 49 CFG=3
M  V30 53 1 24 50
M  V30 54 1 25 51
M  V30 55 1 25 52
M  V30 56 1 26 53
M  V30 57 1 27 54
M  V30 END BOND
M  V30 END CTAB
M  END
>  <Dataset>  (73) 
ChEMBL_Kinases

>  <Ligand_Instance>  (73) 
nan

>  <PDB_ID>  (73) 
nan

>  <Standardized_SMILES>  (73) 
Nc1ccccc1Nc1ccc2c(c1)CCc1ccc(OC[C@@H](O)CO)cc1C2=O

>  <Name>  (73) 
nan

>  <Pocket>  (73) 
nan

>  <ATP_Site>  (73) 
nan

>  <Peripheral>  (73) 
nan

>  <Num_H_Atoms_ProtBoundConf>  (73) 
nan

>  <Num_Resolved_Atoms>  (73) 
nan

>  <Num_Not_Resolved_Atoms>  (73) 
nan

$$$$
CHEMBL2152937
     RDKit          3D

  0  0  0  0  0  0  0  0  0  0999 V3000
M  V30 BEGIN CTAB
M  V30 COUNTS 61 65 0 0 0
M  V30 BEGIN ATOM
M  V30 1 C 6.166712 3.994747 4.360475 0
M  V30 2 C 5.042963 3.366962 3.540892 0
M  V30 3 C 4.458358 2.205481 4.345816 0
M  V30 4 O 5.553784 2.819489 2.379653 0
M  V30 5 C 5.366560 3.776237 1.385925 0
M  V30 6 C 4.160121 4.529570 1.832510 0 CFG=1
M  V30 7 C 2.886435 4.057700 1.166739 0
M  V30 8 O 2.684001 2.663178 1.369669 0
M  V30 9 C 1.542036 2.108817 0.803670 0
M  V30 10 C 0.660502 2.889087 0.084919 0
M  V30 11 C -0.483582 2.397515 -0.496995 0
M  V30 12 C -0.776230 1.056354 -0.362291 0
M  V30 13 C 0.084248 0.244758 0.350876 0
M  V30 14 C 1.241144 0.760717 0.934907 0
M  V30 15 C -0.058318 -1.202889 0.601452 0
M  V30 16 O 0.674798 -1.682044 1.497629 0
M  V30 17 C -0.973631 -2.093564 -0.107012 0
M  V30 18 C -0.979372 -3.343925 0.447525 0
M  V30 19 C -1.800195 -4.294102 -0.118611 0
M  V30 20 C -2.632283 -4.121080 -1.201860 0
M  V30 21 N -3.491566 -5.085818 -1.760677 0
M  V30 22 C -4.271555 -6.123127 -1.207017 0
M  V30 23 C -4.421254 -6.437153 0.104410 0
M  V30 24 C -5.181399 -7.467268 0.610036 0
M  V30 25 C -5.864812 -8.269433 -0.275886 0
M  V30 26 C -5.743198 -7.986614 -1.633967 0
M  V30 27 C -4.965712 -6.942226 -2.055676 0
M  V30 28 N -4.916191 -6.745654 -3.479455 0
M  V30 29 C -2.569997 -2.818893 -1.712144 0
M  V30 30 C -1.773365 -1.823902 -1.195597 0
M  V30 31 C -1.889205 -0.545082 -1.910986 0
M  V30 32 C -2.019883 0.656250 -1.025614 0
M  V30 33 O 4.066108 4.281102 3.199761 0
M  V30 34 H 6.572264 3.196921 5.006891 0
M  V30 35 H 5.697986 4.823752 4.916944 0
M  V30 36 H 6.953163 4.361358 3.663028 0
M  V30 37 H 4.140133 1.371620 3.694393 0
M  V30 38 H 3.571163 2.580478 4.864777 0
M  V30 39 H 5.240052 1.775602 5.033257 0
M  V30 40 H 6.264631 4.440158 1.423061 0
M  V30 41 H 5.270432 3.334957 0.374590 0
M  V30 42 H 4.281412 5.600722 1.590847 0
M  V30 43 H 2.952008 4.333501 0.103920 0
M  V30 44 H 1.999007 4.543820 1.620755 0
M  V30 45 H 0.879278 3.953114 -0.029686 0
M  V30 46 H -1.178712 3.013674 -1.063547 0
M  V30 47 H 1.907820 0.096851 1.495718 0
M  V30 48 H -0.351561 -3.553809 1.301103 0
M  V30 49 H -1.743791 -5.260774 0.358472 0
M  V30 50 H -3.512601 -4.960627 -2.797758 0
M  V30 51 H -3.925320 -5.845641 0.855908 0
M  V30 52 H -5.258369 -7.665152 1.672594 0
M  V30 53 H -6.470220 -9.082803 0.055496 0
M  V30 54 H -6.280821 -8.617610 -2.326889 0
M  V30 55 H -4.105869 -6.632702 -4.114840 0
M  V30 56 H -5.667525 -6.670666 -4.198757 0
M  V30 57 H -3.162189 -2.525853 -2.560265 0
M  V30 58 H -2.721346 -0.589744 -2.631761 0
M  V30 59 H -0.966964 -0.406858 -2.499637 0
M  V30 60 H -2.426847 1.503594 -1.605671 0
M  V30 61 H -2.761050 0.396312 -0.240586 0
M  V30 END ATOM
M  V30 BEGIN BOND
M  V30 1 1 1 2
M  V30 2 1 2 3
M  V30 3 1 2 4
M  V30 4 1 4 5
M  V30 5 1 5 6
M  V30 6 1 6 7
M  V30 7 1 7 8
M  V30 8 1 8 9
M  V30 9 2 9 10
M  V30 10 1 10 11
M  V30 11 2 11 12
M  V30 12 1 12 13
M  V30 13 2 13 14
M  V30 14 1 13 15
M  V30 15 2 15 16
M  V30 16 1 15 17
M  V30 17 2 17 18
M  V30 18 1 18 19
M  V30 19 2 19 20
M  V30 20 1 20 21
M  V30 21 1 21 22
M  V30 22 2 22 23
M  V30 23 1 23 24
M  V30 24 2 24 25
M  V30 25 1 25 26
M  V30 26 2 26 27
M  V30 27 1 27 28
M  V30 28 1 20 29
M  V30 29 2 29 30
M  V30 30 1 30 31
M  V30 31 1 31 32
M  V30 32 1 6 33
M  V30 33 1 33 2
M  V30 34 1 14 9
M  V30 35 1 30 17
M  V30 36 1 32 12
M  V30 37 1 27 22
M  V30 38 1 1 34
M  V30 39 1 1 35
M  V30 40 1 1 36
M  V30 41 1 3 37
M  V30 42 1 3 38
M  V30 43 1 3 39
M  V30 44 1 5 40
M  V30 45 1 5 41
M  V30 46 1 6 42 CFG=1
M  V30 47 1 7 43
M  V30 48 1 7 44
M  V30 49 1 10 45
M  V30 50 1 11 46
M  V30 51 1 14 47
M  V30 52 1 18 48
M  V30 53 1 19 49
M  V30 54 1 21 50
M  V30 55 1 23 51
M  V30 56 1 24 52
M  V30 57 1 25 53
M  V30 58 1 26 54
M  V30 59 1 28 55
M  V30 60 1 28 56
M  V30 61 1 29 57
M  V30 62 1 31 58
M  V30 63 1 31 59
M  V30 64 1 32 60
M  V30 65 1 32 61
M  V30 END BOND
M  V30 END CTAB
M  END
>  <Dataset>  (74) 
ChEMBL_Kinases

>  <Ligand_Instance>  (74) 
nan

>  <PDB_ID>  (74) 
nan

>  <Standardized_SMILES>  (74) 
CC1(C)OC[C@@H](COc2ccc3c(c2)C(=O)c2ccc(Nc4ccccc4N)cc2CC3)O1

>  <Name>  (74) 
nan

>  <Pocket>  (74) 
nan

>  <ATP_Site>  (74) 
nan

>  <Peripheral>  (74) 
nan

>  <Num_H_Atoms_ProtBoundConf>  (74) 
nan

>  <Num_Resolved_Atoms>  (74) 
nan

>  <Num_Not_Resolved_Atoms>  (74) 
nan

$$$$
CHEMBL2152936
     RDKit          3D

  0  0  0  0  0  0  0  0  0  0999 V3000
M  V30 BEGIN CTAB
M  V30 COUNTS 54 57 0 0 0
M  V30 BEGIN ATOM
M  V30 1 N 5.083883 -1.877821 2.838974 0
M  V30 2 C 6.002448 -0.827549 2.563178 0
M  V30 3 C 7.307580 -1.284533 2.469008 0
M  V30 4 C 8.325015 -0.366891 2.203529 0
M  V30 5 C 7.939126 0.958111 2.051974 0
M  V30 6 C 6.638378 1.405382 2.147002 0
M  V30 7 C 5.637645 0.491203 2.409826 0
M  V30 8 N 4.270245 0.852590 2.528464 0
M  V30 9 C 3.135630 0.441056 1.778352 0
M  V30 10 C 3.300099 -0.420043 0.714053 0
M  V30 11 C 2.177385 -0.810749 -0.004044 0
M  V30 12 C 0.962068 -0.301024 0.406293 0
M  V30 13 C 0.789927 0.570187 1.481797 0
M  V30 14 C 1.928163 0.957535 2.198735 0
M  V30 15 C -0.439448 1.199223 2.037712 0
M  V30 16 C -1.449003 0.100785 2.259130 0
M  V30 17 C -2.142093 -0.310473 1.002017 0
M  V30 18 C -3.517673 -0.270879 1.092809 0
M  V30 19 C -4.267594 -0.626523 0.003758 0
M  V30 20 C -3.758343 -1.031657 -1.206994 0
M  V30 21 O -4.293127 -1.419495 -2.382202 0
M  V30 22 C -5.589318 -1.567297 -2.810758 0
M  V30 23 C -6.352249 -2.603697 -2.028354 0 CFG=2
M  V30 24 O -5.660501 -3.809952 -2.202403 0
M  V30 25 C -7.769143 -2.750767 -2.555888 0
M  V30 26 O -8.520686 -1.596408 -2.418980 0
M  V30 27 C -2.375624 -1.066131 -1.282957 0
M  V30 28 C -1.557761 -0.712989 -0.200816 0
M  V30 29 C -0.116369 -0.802167 -0.442814 0
M  V30 30 O 0.171267 -1.385125 -1.516380 0
M  V30 31 H 4.685376 -2.520515 3.557438 0
M  V30 32 H 4.359196 -2.510266 2.428835 0
M  V30 33 H 7.626000 -2.295427 2.581635 0
M  V30 34 H 9.360019 -0.628514 2.113613 0
M  V30 35 H 8.726428 1.686629 1.843776 0
M  V30 36 H 6.390498 2.452599 2.020165 0
M  V30 37 H 4.250277 1.523100 3.323577 0
M  V30 38 H 4.253046 -0.816892 0.393816 0
M  V30 39 H 2.222382 -1.479723 -0.847166 0
M  V30 40 H 1.837422 1.627038 3.033483 0
M  V30 41 H -0.820421 1.957259 1.299317 0
M  V30 42 H -0.190285 1.664093 2.996865 0
M  V30 43 H -0.897133 -0.782499 2.684725 0
M  V30 44 H -2.200740 0.395706 3.002196 0
M  V30 45 H -4.004473 0.031962 1.996836 0
M  V30 46 H -5.345286 -0.600126 0.028243 0
M  V30 47 H -6.161720 -0.593347 -2.829305 0
M  V30 48 H -5.539982 -1.921422 -3.885633 0
M  V30 49 H -6.417078 -2.416458 -0.950032 0
M  V30 50 H -5.296793 -3.827747 -3.110677 0
M  V30 51 H -8.303185 -3.582147 -2.066925 0
M  V30 52 H -7.748160 -3.004907 -3.654645 0
M  V30 53 H -8.999312 -1.665042 -1.556448 0
M  V30 54 H -1.755048 -1.350709 -2.129008 0
M  V30 END ATOM
M  V30 BEGIN BOND
M  V30 1 1 1 2
M  V30 2 2 2 3
M  V30 3 1 3 4
M  V30 4 2 4 5
M  V30 5 1 5 6
M  V30 6 2 6 7
M  V30 7 1 7 8
M  V30 8 1 8 9
M  V30 9 2 9 10
M  V30 10 1 10 11
M  V30 11 2 11 12
M  V30 12 1 12 13
M  V30 13 2 13 14
M  V30 14 1 13 15
M  V30 15 1 15 16
M  V30 16 1 16 17
M  V30 17 2 17 18
M  V30 18 1 18 19
M  V30 19 2 19 20
M  V30 20 1 20 21
M  V30 21 1 21 22
M  V30 22 1 22 23
M  V30 23 1 23 24
M  V30 24 1 23 25
M  V30 25 1 25 26
M  V30 26 1 20 27
M  V30 27 2 27 28
M  V30 28 1 28 29
M  V30 29 2 29 30
M  V30 30 1 7 2
M  V30 31 1 14 9
M  V30 32 1 28 17
M  V30 33 1 29 12
M  V30 34 1 1 31
M  V30 35 1 1 32
M  V30 36 1 3 33
M  V30 37 1 4 34
M  V30 38 1 5 35
M  V30 39 1 6 36
M  V30 40 1 8 37
M  V30 41 1 10 38
M  V30 42 1 11 39
M  V30 43 1 14 40
M  V30 44 1 15 41
M  V30 45 1 15 42
M  V30 46 1 16 43
M  V30 47 1 16 44
M  V30 48 1 18 45
M  V30 49 1 19 46
M  V30 50 1 22 47
M  V30 51 1 22 48
M  V30 52 1 23 49 CFG=1
M  V30 53 1 24 50
M  V30 54 1 25 51
M  V30 55 1 25 52
M  V30 56 1 26 53
M  V30 57 1 27 54
M  V30 END BOND
M  V30 END CTAB
M  END
>  <Dataset>  (75) 
ChEMBL_Kinases

>  <Ligand_Instance>  (75) 
nan

>  <PDB_ID>  (75) 
nan

>  <Standardized_SMILES>  (75) 
Nc1ccccc1Nc1ccc2c(c1)CCc1ccc(OC[C@H](O)CO)cc1C2=O

>  <Name>  (75) 
nan

>  <Pocket>  (75) 
nan

>  <ATP_Site>  (75) 
nan

>  <Peripheral>  (75) 
nan

>  <Num_H_Atoms_ProtBoundConf>  (75) 
nan

>  <Num_Resolved_Atoms>  (75) 
nan

>  <Num_Not_Resolved_Atoms>  (75) 
nan

$$$$
CHEMBL215289
     RDKit          3D

  0  0  0  0  0  0  0  0  0  0999 V3000
M  V30 BEGIN CTAB
M  V30 COUNTS 88 92 0 0 0
M  V30 BEGIN ATOM
M  V30 1 C -5.126086 -7.472473 -1.491436 0
M  V30 2 O -4.947081 -7.041189 -0.156023 0
M  V30 3 C -4.825756 -5.671529 0.143945 0
M  V30 4 C -4.649074 -5.295230 1.464861 0
M  V30 5 C -4.531360 -3.928186 1.714510 0
M  V30 6 C -4.596984 -3.059537 0.659822 0
M  V30 7 N -4.464948 -1.685858 0.980464 0
M  V30 8 C -4.596447 -0.678749 0.030705 0
M  V30 9 O -4.519941 0.585690 0.112692 0
M  V30 10 O -4.750542 0.200429 -1.006753 0
M  V30 11 C -4.659375 1.583256 -0.918398 0
M  V30 12 C -5.707447 2.440696 -0.662619 0
M  V30 13 C -7.047204 1.859781 -0.463064 0
M  V30 14 C -5.522871 3.791634 -0.597029 0
M  V30 15 C -4.302893 4.389087 -0.776495 0
M  V30 16 C -3.226406 3.550434 -1.034962 0
M  V30 17 C -3.406802 2.191773 -1.102363 0
M  V30 18 C -2.210132 1.332369 -1.386297 0
M  V30 19 C -4.180929 -1.097316 2.243811 0
M  V30 20 C -4.956032 -0.724665 3.310483 0
M  V30 21 C -4.332975 -0.139702 4.387112 0
M  V30 22 N -3.013884 0.036668 4.341359 0
M  V30 23 C -2.207908 -0.303745 3.332360 0
M  V30 24 N -0.806243 -0.026483 3.408155 0
M  V30 25 C 0.148083 -0.380688 2.419631 0
M  V30 26 C 1.381361 0.269503 2.542763 0
M  V30 27 C 2.384975 0.013308 1.649766 0
M  V30 28 C 2.259718 -0.864812 0.608689 0
M  V30 29 O 3.031271 -1.326629 -0.408219 0
M  V30 30 C 4.348749 -0.989194 -0.764761 0
M  V30 31 C 4.492047 0.436485 -1.194410 0
M  V30 32 C 5.862260 0.840308 -1.631760 0
M  V30 33 N 6.854101 0.733901 -0.669672 0
M  V30 34 C 7.379439 -0.459427 -0.201044 0
M  V30 35 C 8.896821 -0.524531 -0.169341 0
M  V30 36 N 9.513204 0.671452 -0.626757 0
M  V30 37 C 9.855614 0.689426 -2.010609 0
M  V30 38 C 8.953780 1.877590 -0.101849 0
M  V30 39 C 7.459658 1.949913 -0.230526 0
M  V30 40 C 1.018980 -1.513786 0.492464 0
M  V30 41 F 0.630267 -2.433120 -0.450123 0
M  V30 42 C -0.034750 -1.275696 1.391551 0
M  V30 43 N -2.866224 -0.861023 2.332449 0
M  V30 44 C -4.770298 -3.420058 -0.644279 0
M  V30 45 O -4.817181 -2.428164 -1.609341 0
M  V30 46 C -4.994717 -2.810065 -2.963499 0
M  V30 47 C -4.885961 -4.771877 -0.887470 0
M  V30 48 H -4.209752 -7.282815 -2.112294 0
M  V30 49 H -5.983569 -6.904672 -1.917595 0
M  V30 50 H -5.298722 -8.566609 -1.483887 0
M  V30 51 H -4.597249 -5.985788 2.299892 0
M  V30 52 H -4.390390 -3.499037 2.716557 0
M  V30 53 H -7.491815 2.140772 0.523242 0
M  V30 54 H -7.123963 0.799485 -0.713905 0
M  V30 55 H -7.718921 2.393380 -1.206406 0
M  V30 56 H -6.378192 4.449318 -0.394543 0
M  V30 57 H -4.198385 5.464917 -0.714335 0
M  V30 58 H -2.233921 3.966810 -1.188816 0
M  V30 59 H -1.847639 0.994381 -0.394460 0
M  V30 60 H -2.547590 0.400816 -1.906268 0
M  V30 61 H -1.452082 1.876367 -1.968476 0
M  V30 62 H -6.002735 -0.962042 3.133820 0
M  V30 63 H -4.986846 0.130368 5.198267 0
M  V30 64 H -0.485177 0.473775 4.275958 0
M  V30 65 H 1.593578 0.982060 3.320598 0
M  V30 66 H 3.353681 0.461806 1.698352 0
M  V30 67 H 4.776264 -1.693039 -1.490091 0
M  V30 68 H 4.928704 -1.145673 0.202177 0
M  V30 69 H 4.143143 1.087709 -0.353712 0
M  V30 70 H 3.737682 0.680335 -2.006688 0
M  V30 71 H 5.811963 1.857763 -2.123069 0
M  V30 72 H 6.075577 0.177752 -2.548848 0
M  V30 73 H 7.077031 -0.649189 0.869589 0
M  V30 74 H 7.012593 -1.324532 -0.784943 0
M  V30 75 H 9.213118 -1.339064 -0.860351 0
M  V30 76 H 9.264710 -0.817093 0.821670 0
M  V30 77 H 10.959907 0.775549 -2.090609 0
M  V30 78 H 9.318491 1.534586 -2.492280 0
M  V30 79 H 9.492011 -0.236127 -2.518196 0
M  V30 80 H 9.481389 2.734282 -0.575318 0
M  V30 81 H 9.210696 1.942718 0.983409 0
M  V30 82 H 7.237647 2.736415 -0.986733 0
M  V30 83 H 6.964838 2.264019 0.711020 0
M  V30 84 H -0.995560 -1.763386 1.327763 0
M  V30 85 H -6.018882 -3.210431 -3.059114 0
M  V30 86 H -4.297404 -3.674791 -3.177334 0
M  V30 87 H -4.757880 -1.980440 -3.660977 0
M  V30 88 H -5.023689 -5.092486 -1.916909 0
M  V30 END ATOM
M  V30 BEGIN BOND
M  V30 1 1 1 2
M  V30 2 1 2 3
M  V30 3 2 3 4
M  V30 4 1 4 5
M  V30 5 2 5 6
M  V30 6 1 6 7
M  V30 7 1 7 8
M  V30 8 2 8 9
M  V30 9 1 8 10
M  V30 10 1 10 11
M  V30 11 2 11 12
M  V30 12 1 12 13
M  V30 13 1 12 14
M  V30 14 2 14 15
M  V30 15 1 15 16
M  V30 16 2 16 17
M  V30 17 1 17 18
M  V30 18 1 7 19
M  V30 19 2 19 20
M  V30 20 1 20 21
M  V30 21 2 21 22
M  V30 22 1 22 23
M  V30 23 1 23 24
M  V30 24 1 24 25
M  V30 25 2 25 26
M  V30 26 1 26 27
M  V30 27 2 27 28
M  V30 28 1 28 29
M  V30 29 1 29 30
M  V30 30 1 30 31
M  V30 31 1 31 32
M  V30 32 1 32 33
M  V30 33 1 33 34
M  V30 34 1 34 35
M  V30 35 1 35 36
M  V30 36 1 36 37
M  V30 37 1 36 38
M  V30 38 1 38 39
M  V30 39 1 28 40
M  V30 40 1 40 41
M  V30 41 2 40 42
M  V30 42 2 23 43
M  V30 43 1 6 44
M  V30 44 1 44 45
M  V30 45 1 45 46
M  V30 46 2 44 47
M  V30 47 1 47 3
M  V30 48 1 17 11
M  V30 49 1 43 19
M  V30 50 1 42 25
M  V30 51 1 39 33
M  V30 52 1 1 48
M  V30 53 1 1 49
M  V30 54 1 1 50
M  V30 55 1 4 51
M  V30 56 1 5 52
M  V30 57 1 13 53
M  V30 58 1 13 54
M  V30 59 1 13 55
M  V30 60 1 14 56
M  V30 61 1 15 57
M  V30 62 1 16 58
M  V30 63 1 18 59
M  V30 64 1 18 60
M  V30 65 1 18 61
M  V30 66 1 20 62
M  V30 67 1 21 63
M  V30 68 1 24 64
M  V30 69 1 26 65
M  V30 70 1 27 66
M  V30 71 1 30 67
M  V30 72 1 30 68
M  V30 73 1 31 69
M  V30 74 1 31 70
M  V30 75 1 32 71
M  V30 76 1 32 72
M  V30 77 1 34 73
M  V30 78 1 34 74
M  V30 79 1 35 75
M  V30 80 1 35 76
M  V30 81 1 37 77
M  V30 82 1 37 78
M  V30 83 1 37 79
M  V30 84 1 38 80
M  V30 85 1 38 81
M  V30 86 1 39 82
M  V30 87 1 39 83
M  V30 88 1 42 84
M  V30 89 1 46 85
M  V30 90 1 46 86
M  V30 91 1 46 87
M  V30 92 1 47 88
M  V30 END BOND
M  V30 END CTAB
M  END
>  <Dataset>  (76) 
ChEMBL_Kinases

>  <Ligand_Instance>  (76) 
nan

>  <PDB_ID>  (76) 
nan

>  <Standardized_SMILES>  (76) 
COc1ccc(N(C(=O)Oc2c(C)cccc2C)c2ccnc(Nc3ccc(OCCCN4CCN(C)CC4)c(F)c3)n2)c(OC)c1

>  <Name>  (76) 
nan

>  <Pocket>  (76) 
nan

>  <ATP_Site>  (76) 
nan

>  <Peripheral>  (76) 
nan

>  <Num_H_Atoms_ProtBoundConf>  (76) 
nan

>  <Num_Resolved_Atoms>  (76) 
nan

>  <Num_Not_Resolved_Atoms>  (76) 
nan

$$$$
CHEMBL2152798
     RDKit          3D

  0  0  0  0  0  0  0  0  0  0999 V3000
M  V30 BEGIN CTAB
M  V30 COUNTS 61 65 0 0 0
M  V30 BEGIN ATOM
M  V30 1 C 3.189292 4.567246 5.996449 0
M  V30 2 C 2.317402 3.477798 5.362754 0
M  V30 3 C 1.254868 3.134197 6.391138 0
M  V30 4 O 3.068666 2.362328 5.043015 0
M  V30 5 C 3.429950 2.584043 3.718646 0
M  V30 6 C 2.138344 3.154043 3.169313 0 CFG=2
M  V30 7 C 2.305116 3.900825 1.898815 0
M  V30 8 O 2.662136 3.186419 0.774619 0
M  V30 9 C 2.007475 2.167267 0.129740 0
M  V30 10 C 2.791118 1.767224 -0.964010 0
M  V30 11 C 2.388272 0.738690 -1.824394 0
M  V30 12 C 1.189991 0.095233 -1.598451 0
M  V30 13 C 0.426245 0.494746 -0.521593 0
M  V30 14 C 0.816132 1.502792 0.325180 0
M  V30 15 C -0.878864 0.014302 -0.020920 0
M  V30 16 O -1.482968 0.673039 0.863389 0
M  V30 17 C -1.521937 -1.224592 -0.516433 0
M  V30 18 C -2.826716 -1.310526 -0.074718 0
M  V30 19 C -3.667606 -2.358143 -0.381000 0
M  V30 20 C -3.102531 -3.328463 -1.172421 0
M  V30 21 N -3.924429 -4.445226 -1.527955 0
M  V30 22 C -3.713506 -5.635006 -2.276823 0
M  V30 23 C -4.437913 -5.948956 -3.421958 0
M  V30 24 C -4.189398 -7.132338 -4.117883 0
M  V30 25 C -3.199789 -8.000876 -3.647492 0
M  V30 26 C -2.481985 -7.689599 -2.512474 0
M  V30 27 C -2.741449 -6.509848 -1.833157 0
M  V30 28 N -1.925668 -6.305082 -0.667876 0
M  V30 29 C -1.817894 -3.318946 -1.652346 0
M  V30 30 C -1.016163 -2.240390 -1.312808 0
M  V30 31 C 0.354141 -2.252074 -1.836120 0
M  V30 32 C 0.788184 -0.977485 -2.510568 0
M  V30 33 O 1.770436 4.009215 4.215394 0
M  V30 34 H 2.621576 5.083805 6.817696 0
M  V30 35 H 3.483896 5.348459 5.283346 0
M  V30 36 H 4.094837 4.076381 6.412276 0
M  V30 37 H 1.142409 2.011011 6.386779 0
M  V30 38 H 0.290252 3.615367 6.193090 0
M  V30 39 H 1.584994 3.429671 7.404118 0
M  V30 40 H 3.645356 1.652338 3.190694 0
M  V30 41 H 4.265157 3.322236 3.653348 0
M  V30 42 H 1.404283 2.344028 3.183855 0
M  V30 43 H 3.101907 4.673499 2.063734 0
M  V30 44 H 1.356326 4.442287 1.689834 0
M  V30 45 H 3.764134 2.160497 -1.296070 0
M  V30 46 H 2.934876 0.386081 -2.672944 0
M  V30 47 H 0.295606 1.877777 1.167746 0
M  V30 48 H -3.216772 -0.505492 0.552339 0
M  V30 49 H -4.689989 -2.403722 -0.021322 0
M  V30 50 H -4.920617 -4.530644 -1.236857 0
M  V30 51 H -5.200022 -5.220987 -3.733849 0
M  V30 52 H -4.804307 -7.303089 -5.009361 0
M  V30 53 H -3.099539 -8.892059 -4.277394 0
M  V30 54 H -1.745749 -8.441038 -2.250519 0
M  V30 55 H -2.258897 -6.378512 0.322924 0
M  V30 56 H -0.927612 -6.063347 -0.565563 0
M  V30 57 H -1.378676 -4.082949 -2.274349 0
M  V30 58 H 1.124730 -2.499787 -1.085809 0
M  V30 59 H 0.422994 -3.054735 -2.602665 0
M  V30 60 H 0.029109 -0.617895 -3.241984 0
M  V30 61 H 1.682970 -1.241655 -3.114720 0
M  V30 END ATOM
M  V30 BEGIN BOND
M  V30 1 1 1 2
M  V30 2 1 2 3
M  V30 3 1 2 4
M  V30 4 1 4 5
M  V30 5 1 5 6
M  V30 6 1 6 7
M  V30 7 1 7 8
M  V30 8 1 8 9
M  V30 9 2 9 10
M  V30 10 1 10 11
M  V30 11 2 11 12
M  V30 12 1 12 13
M  V30 13 2 13 14
M  V30 14 1 13 15
M  V30 15 2 15 16
M  V30 16 1 15 17
M  V30 17 2 17 18
M  V30 18 1 18 19
M  V30 19 2 19 20
M  V30 20 1 20 21
M  V30 21 1 21 22
M  V30 22 2 22 23
M  V30 23 1 23 24
M  V30 24 2 24 25
M  V30 25 1 25 26
M  V30 26 2 26 27
M  V30 27 1 27 28
M  V30 28 1 20 29
M  V30 29 2 29 30
M  V30 30 1 30 31
M  V30 31 1 31 32
M  V30 32 1 6 33
M  V30 33 1 33 2
M  V30 34 1 14 9
M  V30 35 1 30 17
M  V30 36 1 32 12
M  V30 37 1 27 22
M  V30 38 1 1 34
M  V30 39 1 1 35
M  V30 40 1 1 36
M  V30 41 1 3 37
M  V30 42 1 3 38
M  V30 43 1 3 39
M  V30 44 1 5 40
M  V30 45 1 5 41
M  V30 46 1 6 42 CFG=3
M  V30 47 1 7 43
M  V30 48 1 7 44
M  V30 49 1 10 45
M  V30 50 1 11 46
M  V30 51 1 14 47
M  V30 52 1 18 48
M  V30 53 1 19 49
M  V30 54 1 21 50
M  V30 55 1 23 51
M  V30 56 1 24 52
M  V30 57 1 25 53
M  V30 58 1 26 54
M  V30 59 1 28 55
M  V30 60 1 28 56
M  V30 61 1 29 57
M  V30 62 1 31 58
M  V30 63 1 31 59
M  V30 64 1 32 60
M  V30 65 1 32 61
M  V30 END BOND
M  V30 END CTAB
M  END
>  <Dataset>  (77) 
ChEMBL_Kinases

>  <Ligand_Instance>  (77) 
nan

>  <PDB_ID>  (77) 
nan

>  <Standardized_SMILES>  (77) 
CC1(C)OC[C@H](COc2ccc3c(c2)C(=O)c2ccc(Nc4ccccc4N)cc2CC3)O1

>  <Name>  (77) 
nan

>  <Pocket>  (77) 
nan

>  <ATP_Site>  (77) 
nan

>  <Peripheral>  (77) 
nan

>  <Num_H_Atoms_ProtBoundConf>  (77) 
nan

>  <Num_Resolved_Atoms>  (77) 
nan

>  <Num_Not_Resolved_Atoms>  (77) 
nan

$$$$
CHEMBL2152796
     RDKit          3D

  0  0  0  0  0  0  0  0  0  0999 V3000
M  V30 BEGIN CTAB
M  V30 COUNTS 41 44 0 0 0
M  V30 BEGIN ATOM
M  V30 1 O 0.413233 -3.523489 3.366795 0
M  V30 2 C 0.218956 -2.320293 3.080183 0
M  V30 3 C 0.533445 -1.925581 1.710729 0
M  V30 4 C 0.710930 -3.000695 0.865898 0
M  V30 5 C 1.013945 -2.829105 -0.466236 0
M  V30 6 C 1.158985 -1.581763 -1.040141 0
M  V30 7 N 1.487123 -1.427323 -2.411017 0
M  V30 8 C 1.292312 -0.345918 -3.306941 0
M  V30 9 C 0.360902 0.660507 -3.174358 0
M  V30 10 C 0.210868 1.706522 -4.053609 0
M  V30 11 C 1.038816 1.766855 -5.145446 0
M  V30 12 C 1.986955 0.782558 -5.322357 0
M  V30 13 C 2.102867 -0.246238 -4.417775 0
M  V30 14 C 0.975097 -0.529427 -0.166060 0
M  V30 15 C 0.670616 -0.661381 1.173884 0
M  V30 16 C 0.523850 0.631618 1.894910 0
M  V30 17 C -0.740036 0.718371 2.707807 0
M  V30 18 C -0.720942 -0.073855 3.953468 0
M  V30 19 C -1.178872 0.598363 5.093471 0
M  V30 20 C -1.216277 -0.023843 6.331959 0
M  V30 21 C -0.791214 -1.337808 6.440949 0
M  V30 22 O -0.837304 -1.940482 7.689526 0
M  V30 23 C -0.325834 -2.058536 5.346001 0
M  V30 24 C -0.302911 -1.401776 4.121088 0
M  V30 25 H 0.607059 -3.998982 1.270938 0
M  V30 26 H 1.141547 -3.708879 -1.079254 0
M  V30 27 H 1.958643 -2.279023 -2.816849 0
M  V30 28 H -0.309261 0.651626 -2.352426 0
M  V30 29 H -0.538814 2.472125 -3.900821 0
M  V30 30 H 0.967859 2.561649 -5.867070 0
M  V30 31 H 2.639473 0.846889 -6.200336 0
M  V30 32 H 2.875833 -0.996621 -4.615127 0
M  V30 33 H 1.069862 0.477799 -0.479854 0
M  V30 34 H 0.473222 1.450821 1.144864 0
M  V30 35 H 1.393706 0.834261 2.553644 0
M  V30 36 H -0.873934 1.795691 2.968987 0
M  V30 37 H -1.619378 0.443693 2.090363 0
M  V30 38 H -1.502542 1.620615 4.973709 0
M  V30 39 H -1.570708 0.501326 7.205940 0
M  V30 40 H -1.750399 -2.324403 7.954518 0
M  V30 41 H 0.005157 -3.081919 5.431127 0
M  V30 END ATOM
M  V30 BEGIN BOND
M  V30 1 2 1 2
M  V30 2 1 2 3
M  V30 3 2 3 4
M  V30 4 1 4 5
M  V30 5 2 5 6
M  V30 6 1 6 7
M  V30 7 1 7 8
M  V30 8 2 8 9
M  V30 9 1 9 10
M  V30 10 2 10 11
M  V30 11 1 11 12
M  V30 12 2 12 13
M  V30 13 1 6 14
M  V30 14 2 14 15
M  V30 15 1 15 16
M  V30 16 1 16 17
M  V30 17 1 17 18
M  V30 18 2 18 19
M  V30 19 1 19 20
M  V30 20 2 20 21
M  V30 21 1 21 22
M  V30 22 1 21 23
M  V30 23 2 23 24
M  V30 24 1 24 2
M  V30 25 1 15 3
M  V30 26 1 24 18
M  V30 27 1 13 8
M  V30 28 1 4 25
M  V30 29 1 5 26
M  V30 30 1 7 27
M  V30 31 1 9 28
M  V30 32 1 10 29
M  V30 33 1 11 30
M  V30 34 1 12 31
M  V30 35 1 13 32
M  V30 36 1 14 33
M  V30 37 1 16 34
M  V30 38 1 16 35
M  V30 39 1 17 36
M  V30 40 1 17 37
M  V30 41 1 19 38
M  V30 42 1 20 39
M  V30 43 1 22 40
M  V30 44 1 23 41
M  V30 END BOND
M  V30 END CTAB
M  END
>  <Dataset>  (78) 
ChEMBL_Kinases

>  <Ligand_Instance>  (78) 
nan

>  <PDB_ID>  (78) 
nan

>  <Standardized_SMILES>  (78) 
O=C1c2ccc(Nc3ccccc3)cc2CCc2ccc(O)cc21

>  <Name>  (78) 
nan

>  <Pocket>  (78) 
nan

>  <ATP_Site>  (78) 
nan

>  <Peripheral>  (78) 
nan

>  <Num_H_Atoms_ProtBoundConf>  (78) 
nan

>  <Num_Resolved_Atoms>  (78) 
nan

>  <Num_Not_Resolved_Atoms>  (78) 
nan

$$$$
CHEMBL2152795
     RDKit          3D

  0  0  0  0  0  0  0  0  0  0999 V3000
M  V30 BEGIN CTAB
M  V30 COUNTS 41 44 0 0 0
M  V30 BEGIN ATOM
M  V30 1 O 0.706130 -3.109323 3.726576 0
M  V30 2 C 0.208822 -2.725276 2.633673 0
M  V30 3 C 0.751281 -1.545885 1.967309 0
M  V30 4 C 1.629469 -0.909290 2.815906 0
M  V30 5 C 2.258922 0.233555 2.385808 0
M  V30 6 C 2.067255 0.807283 1.123145 0
M  V30 7 N 2.743604 1.971942 0.706707 0
M  V30 8 C 2.389142 3.080675 -0.093754 0
M  V30 9 C 1.174367 3.331347 -0.675796 0
M  V30 10 C 0.882342 4.422618 -1.462627 0
M  V30 11 C 1.875963 5.338572 -1.689242 0
M  V30 12 F 1.637899 6.435663 -2.460841 0
M  V30 13 C 3.112735 5.129857 -1.125183 0
M  V30 14 C 3.353692 4.022795 -0.346626 0
M  V30 15 Cl 4.987041 3.875713 0.317709 0
M  V30 16 C 1.174289 0.101149 0.347356 0
M  V30 17 C 0.503270 -1.049663 0.704372 0
M  V30 18 C -0.399635 -1.599689 -0.326603 0
M  V30 19 C -1.743186 -2.002728 0.179840 0
M  V30 20 C -1.771553 -3.209902 1.023183 0
M  V30 21 C -2.760165 -4.150842 0.723858 0
M  V30 22 C -2.898060 -5.319497 1.431087 0
M  V30 23 C -2.042816 -5.596587 2.477766 0
M  V30 24 O -2.279985 -6.812584 3.120904 0
M  V30 25 C -1.044764 -4.687079 2.809125 0
M  V30 26 C -0.917762 -3.516990 2.090080 0
M  V30 27 H 1.826413 -1.293947 3.803842 0
M  V30 28 H 2.943769 0.707520 3.081254 0
M  V30 29 H 3.715030 1.947628 1.109331 0
M  V30 30 H 0.371197 2.649773 -0.514894 0
M  V30 31 H -0.100623 4.558526 -1.892093 0
M  V30 32 H 3.886583 5.861110 -1.312649 0
M  V30 33 H 0.935981 0.413203 -0.658545 0
M  V30 34 H 0.079483 -2.538658 -0.728527 0
M  V30 35 H -0.554692 -0.879437 -1.143870 0
M  V30 36 H -2.353803 -2.241032 -0.736419 0
M  V30 37 H -2.283756 -1.146650 0.640977 0
M  V30 38 H -3.407458 -3.897168 -0.100071 0
M  V30 39 H -3.691403 -5.998031 1.135610 0
M  V30 40 H -3.005941 -6.796183 3.830222 0
M  V30 41 H -0.406244 -4.958538 3.637182 0
M  V30 END ATOM
M  V30 BEGIN BOND
M  V30 1 2 1 2
M  V30 2 1 2 3
M  V30 3 2 3 4
M  V30 4 1 4 5
M  V30 5 2 5 6
M  V30 6 1 6 7
M  V30 7 1 7 8
M  V30 8 2 8 9
M  V30 9 1 9 10
M  V30 10 2 10 11
M  V30 11 1 11 12
M  V30 12 1 11 13
M  V30 13 2 13 14
M  V30 14 1 14 15
M  V30 15 1 6 16
M  V30 16 2 16 17
M  V30 17 1 17 18
M  V30 18 1 18 19
M  V30 19 1 19 20
M  V30 20 2 20 21
M  V30 21 1 21 22
M  V30 22 2 22 23
M  V30 23 1 23 24
M  V30 24 1 23 25
M  V30 25 2 25 26
M  V30 26 1 26 2
M  V30 27 1 17 3
M  V30 28 1 26 20
M  V30 29 1 14 8
M  V30 30 1 4 27
M  V30 31 1 5 28
M  V30 32 1 7 29
M  V30 33 1 9 30
M  V30 34 1 10 31
M  V30 35 1 13 32
M  V30 36 1 16 33
M  V30 37 1 18 34
M  V30 38 1 18 35
M  V30 39 1 19 36
M  V30 40 1 19 37
M  V30 41 1 21 38
M  V30 42 1 22 39
M  V30 43 1 24 40
M  V30 44 1 25 41
M  V30 END BOND
M  V30 END CTAB
M  END
>  <Dataset>  (79) 
ChEMBL_Kinases

>  <Ligand_Instance>  (79) 
nan

>  <PDB_ID>  (79) 
nan

>  <Standardized_SMILES>  (79) 
O=C1c2ccc(Nc3ccc(F)cc3Cl)cc2CCc2ccc(O)cc21

>  <Name>  (79) 
nan

>  <Pocket>  (79) 
nan

>  <ATP_Site>  (79) 
nan

>  <Peripheral>  (79) 
nan

>  <Num_H_Atoms_ProtBoundConf>  (79) 
nan

>  <Num_Resolved_Atoms>  (79) 
nan

>  <Num_Not_Resolved_Atoms>  (79) 
nan

$$$$
CHEMBL215863
     RDKit          3D

  0  0  0  0  0  0  0  0  0  0999 V3000
M  V30 BEGIN CTAB
M  V30 COUNTS 61 65 0 0 0
M  V30 BEGIN ATOM
M  V30 1 C 1.499629 -4.037745 4.152426 0
M  V30 2 C 0.859675 -2.707335 4.232506 0
M  V30 3 C 0.868583 -1.923276 5.374728 0
M  V30 4 C 0.255102 -0.666328 5.423780 0
M  V30 5 C -0.373482 -0.214295 4.283079 0
M  V30 6 C -0.982578 1.100678 4.405277 0
M  V30 7 O -0.934764 1.728379 5.480985 0
M  V30 8 N -1.625564 1.627581 3.255047 0
M  V30 9 C -2.330214 2.802775 2.878401 0
M  V30 10 C -3.690290 2.984263 2.993344 0
M  V30 11 C -4.356479 4.122299 2.624914 0
M  V30 12 C -3.583539 5.139052 2.105780 0
M  V30 13 C -2.214062 5.072791 1.942280 0
M  V30 14 C -1.397050 6.179733 1.380368 0
M  V30 15 F -0.444105 6.601512 2.308749 0
M  V30 16 F -0.784997 5.845481 0.192168 0
M  V30 17 F -2.225037 7.297273 1.211993 0
M  V30 18 C -1.615299 3.880968 2.342149 0
M  V30 19 C -0.136632 3.744498 2.191932 0
M  V30 20 C -0.361800 -1.014872 3.177130 0
M  V30 21 C 0.233113 -2.263667 3.085777 0
M  V30 22 C 0.135595 -2.951391 1.795137 0
M  V30 23 C -0.126338 -4.269069 1.533871 0
M  V30 24 C -0.186583 -4.719829 0.232739 0
M  V30 25 C 0.010178 -3.877196 -0.835483 0
M  V30 26 N -0.050119 -4.305956 -2.111403 0
M  V30 27 C 0.149759 -3.423834 -3.133359 0
M  V30 28 N 0.112594 -3.768483 -4.505986 0
M  V30 29 C 1.131814 -4.131053 -5.427947 0
M  V30 30 C 0.850268 -4.469584 -6.751424 0
M  V30 31 C 1.937277 -4.794979 -7.542775 0
M  V30 32 C 3.241256 -4.801598 -7.104112 0
M  V30 33 C 3.537492 -4.465693 -5.784574 0
M  V30 34 C 2.444889 -4.145602 -5.013453 0
M  V30 35 N 0.409446 -2.121824 -2.931774 0
M  V30 36 C 0.488305 -1.605900 -1.667100 0
M  V30 37 C 0.283192 -2.514220 -0.650234 0
M  V30 38 C 0.329362 -2.131221 0.675328 0
M  V30 39 H 0.819882 -4.845092 4.555185 0
M  V30 40 H 1.967153 -4.278041 3.200304 0
M  V30 41 H 2.337110 -4.035074 4.913105 0
M  V30 42 H 1.371400 -2.308535 6.251952 0
M  V30 43 H 0.301379 -0.109828 6.349517 0
M  V30 44 H -1.726882 1.192942 2.313091 0
M  V30 45 H -4.251813 2.159077 3.406329 0
M  V30 46 H -5.434026 4.201039 2.742082 0
M  V30 47 H -4.109526 6.057268 1.807364 0
M  V30 48 H 0.229265 4.050087 1.191523 0
M  V30 49 H 0.145496 2.677113 2.310901 0
M  V30 50 H 0.403126 4.297210 2.990568 0
M  V30 51 H -0.863908 -0.624700 2.309339 0
M  V30 52 H -0.270818 -4.874093 2.420097 0
M  V30 53 H -0.395359 -5.769426 0.068066 0
M  V30 54 H -0.879470 -3.725152 -4.822196 0
M  V30 55 H -0.176479 -4.443920 -7.026323 0
M  V30 56 H 1.659250 -5.053079 -8.577016 0
M  V30 57 H 4.051344 -5.070902 -7.790830 0
M  V30 58 H 4.531106 -4.457755 -5.402789 0
M  V30 59 H 2.667206 -3.881829 -3.981237 0
M  V30 60 H 0.694685 -0.561165 -1.430853 0
M  V30 61 H 0.543467 -1.059093 0.816991 0
M  V30 END ATOM
M  V30 BEGIN BOND
M  V30 1 1 1 2
M  V30 2 2 2 3
M  V30 3 1 3 4
M  V30 4 2 4 5
M  V30 5 1 5 6
M  V30 6 2 6 7
M  V30 7 1 6 8
M  V30 8 1 8 9
M  V30 9 2 9 10
M  V30 10 1 10 11
M  V30 11 2 11 12
M  V30 12 1 12 13
M  V30 13 1 13 14
M  V30 14 1 14 15
M  V30 15 1 14 16
M  V30 16 1 14 17
M  V30 17 2 13 18
M  V30 18 1 18 19
M  V30 19 1 5 20
M  V30 20 2 20 21
M  V30 21 1 21 22
M  V30 22 2 22 23
M  V30 23 1 23 24
M  V30 24 2 24 25
M  V30 25 1 25 26
M  V30 26 2 26 27
M  V30 27 1 27 28
M  V30 28 1 28 29
M  V30 29 2 29 30
M  V30 30 1 30 31
M  V30 31 2 31 32
M  V30 32 1 32 33
M  V30 33 2 33 34
M  V30 34 1 27 35
M  V30 35 2 35 36
M  V30 36 1 36 37
M  V30 37 2 37 38
M  V30 38 1 21 2
M  V30 39 1 38 22
M  V30 40 1 18 9
M  V30 41 1 37 25
M  V30 42 1 34 29
M  V30 43 1 1 39
M  V30 44 1 1 40
M  V30 45 1 1 41
M  V30 46 1 3 42
M  V30 47 1 4 43
M  V30 48 1 8 44
M  V30 49 1 10 45
M  V30 50 1 11 46
M  V30 51 1 12 47
M  V30 52 1 19 48
M  V30 53 1 19 49
M  V30 54 1 19 50
M  V30 55 1 20 51
M  V30 56 1 23 52
M  V30 57 1 24 53
M  V30 58 1 28 54
M  V30 59 1 30 55
M  V30 60 1 31 56
M  V30 61 1 32 57
M  V30 62 1 33 58
M  V30 63 1 34 59
M  V30 64 1 36 60
M  V30 65 1 38 61
M  V30 END BOND
M  V30 END CTAB
M  END
>  <Dataset>  (80) 
ChEMBL_Kinases

>  <Ligand_Instance>  (80) 
nan

>  <PDB_ID>  (80) 
nan

>  <Standardized_SMILES>  (80) 
Cc1ccc(C(=O)Nc2cccc(C(F)(F)F)c2C)cc1-c1ccc2nc(Nc3ccccc3)ncc2c1

>  <Name>  (80) 
nan

>  <Pocket>  (80) 
nan

>  <ATP_Site>  (80) 
nan

>  <Peripheral>  (80) 
nan

>  <Num_H_Atoms_ProtBoundConf>  (80) 
nan

>  <Num_Resolved_Atoms>  (80) 
nan

>  <Num_Not_Resolved_Atoms>  (80) 
nan

$$$$
CHEMBL2152390
     RDKit          3D

  0  0  0  0  0  0  0  0  0  0999 V3000
M  V30 BEGIN CTAB
M  V30 COUNTS 70 74 0 0 0
M  V30 BEGIN ATOM
M  V30 1 C 3.798717 -1.496658 3.724897 0
M  V30 2 O 2.404730 -1.578899 3.526999 0
M  V30 3 C 1.731130 -2.460261 2.795936 0
M  V30 4 O 2.885545 -2.899824 2.576629 0
M  V30 5 C 0.542383 -3.016075 2.261134 0
M  V30 6 C -0.667187 -2.448617 2.573982 0
M  V30 7 C -0.928051 -1.252657 3.404366 0
M  V30 8 C -0.680581 0.031973 2.712525 0
M  V30 9 C 0.335869 0.943895 2.870257 0
M  V30 10 C 0.484246 2.111560 2.156905 0
M  V30 11 C -0.443790 2.436240 1.189650 0
M  V30 12 C -0.243634 3.666546 0.475293 0
M  V30 13 O 0.726017 4.408637 0.763525 0
M  V30 14 N -1.085749 4.129254 -0.570621 0
M  V30 15 C -0.997534 5.329897 -1.356153 0 CFG=1
M  V30 16 C -0.647068 5.039418 -2.804424 0
M  V30 17 C -1.619787 4.023151 -3.325212 0
M  V30 18 C -3.000824 4.596303 -3.218843 0 CFG=2
M  V30 19 O -3.588930 4.694461 -4.502180 0
M  V30 20 C -3.055568 5.981444 -2.635838 0
M  V30 21 C -2.264111 6.130863 -1.356849 0
M  V30 22 C -1.488453 1.561854 0.984024 0
M  V30 23 C -1.608688 0.385145 1.725849 0
M  V30 24 C -1.755493 -3.121566 1.992095 0
M  V30 25 O -2.948341 -2.726557 2.182457 0
M  V30 26 C -1.609019 -4.233710 1.192038 0
M  V30 27 C -2.720180 -4.848373 0.650476 0
M  V30 28 C -2.582037 -5.980110 -0.164069 0
M  V30 29 C -1.294996 -6.435239 -0.389104 0
M  V30 30 C -1.108531 -7.634272 -1.249532 0
M  V30 31 N -0.222917 -5.824529 0.145700 0
M  V30 32 C -0.347961 -4.724366 0.938644 0
M  V30 33 N 0.705797 -4.099897 1.482864 0
M  V30 34 C 1.989731 -4.635841 1.198506 0
M  V30 35 C 2.678934 -5.571036 1.909255 0
M  V30 36 C 3.946319 -5.994882 1.490303 0
M  V30 37 C 4.479767 -5.431191 0.325175 0
M  V30 38 C 3.794999 -4.488825 -0.398421 0
M  V30 39 C 2.551775 -4.096842 0.044476 0
M  V30 40 H 4.098810 -2.400023 4.293716 0
M  V30 41 H 4.387674 -1.435558 2.786735 0
M  V30 42 H 4.043951 -0.607596 4.372144 0
M  V30 43 H -2.030518 -1.251739 3.633315 0
M  V30 44 H -0.413930 -1.305544 4.388116 0
M  V30 45 H 1.050250 0.708968 3.625151 0
M  V30 46 H 1.334209 2.737224 2.387527 0
M  V30 47 H -1.908074 3.574099 -0.867912 0
M  V30 48 H -0.115910 5.908883 -0.965171 0
M  V30 49 H -0.855564 5.986960 -3.349740 0
M  V30 50 H 0.415471 4.790511 -2.961664 0
M  V30 51 H -1.508449 3.040709 -2.819716 0
M  V30 52 H -1.413227 3.799229 -4.412380 0
M  V30 53 H -3.608126 3.882175 -2.655362 0
M  V30 54 H -2.911072 4.469070 -5.190042 0
M  V30 55 H -2.802390 6.749778 -3.385975 0
M  V30 56 H -4.134849 6.153067 -2.362373 0
M  V30 57 H -2.892793 5.921524 -0.440992 0
M  V30 58 H -1.990268 7.209397 -1.267183 0
M  V30 59 H -2.177918 1.876514 0.214656 0
M  V30 60 H -2.489217 -0.158943 1.416824 0
M  V30 61 H -3.731125 -4.484029 0.831328 0
M  V30 62 H -3.480987 -6.455211 -0.585609 0
M  V30 63 H -0.324557 -8.292843 -0.850335 0
M  V30 64 H -0.804744 -7.352407 -2.279597 0
M  V30 65 H -2.030991 -8.230147 -1.351138 0
M  V30 66 H 2.156021 -5.927513 2.790276 0
M  V30 67 H 4.413454 -6.737748 2.121577 0
M  V30 68 H 5.456630 -5.814532 0.076534 0
M  V30 69 H 4.301245 -4.119271 -1.282682 0
M  V30 70 H 2.102235 -3.339737 -0.614238 0
M  V30 END ATOM
M  V30 BEGIN BOND
M  V30 1 1 1 2
M  V30 2 1 2 3
M  V30 3 2 3 4
M  V30 4 1 3 5
M  V30 5 2 5 6
M  V30 6 1 6 7
M  V30 7 1 7 8
M  V30 8 2 8 9
M  V30 9 1 9 10
M  V30 10 2 10 11
M  V30 11 1 11 12
M  V30 12 2 12 13
M  V30 13 1 12 14
M  V30 14 1 14 15
M  V30 15 1 15 16
M  V30 16 1 16 17
M  V30 17 1 17 18
M  V30 18 1 18 19
M  V30 19 1 18 20
M  V30 20 1 20 21
M  V30 21 1 11 22
M  V30 22 2 22 23
M  V30 23 1 6 24
M  V30 24 2 24 25
M  V30 25 1 24 26
M  V30 26 2 26 27
M  V30 27 1 27 28
M  V30 28 2 28 29
M  V30 29 1 29 30
M  V30 30 1 29 31
M  V30 31 2 31 32
M  V30 32 1 32 33
M  V30 33 1 33 34
M  V30 34 2 34 35
M  V30 35 1 35 36
M  V30 36 2 36 37
M  V30 37 1 37 38
M  V30 38 2 38 39
M  V30 39 1 33 5
M  V30 40 1 39 34
M  V30 41 1 23 8
M  V30 42 1 32 26
M  V30 43 1 21 15
M  V30 44 1 1 40
M  V30 45 1 1 41
M  V30 46 1 1 42
M  V30 47 1 7 43
M  V30 48 1 7 44
M  V30 49 1 9 45
M  V30 50 1 10 46
M  V30 51 1 14 47
M  V30 52 1 15 48 CFG=1
M  V30 53 1 16 49
M  V30 54 1 16 50
M  V30 55 1 17 51
M  V30 56 1 17 52
M  V30 57 1 18 53 CFG=1
M  V30 58 1 19 54
M  V30 59 1 20 55
M  V30 60 1 20 56
M  V30 61 1 21 57
M  V30 62 1 21 58
M  V30 63 1 22 59
M  V30 64 1 23 60
M  V30 65 1 27 61
M  V30 66 1 28 62
M  V30 67 1 30 63
M  V30 68 1 30 64
M  V30 69 1 30 65
M  V30 70 1 35 66
M  V30 71 1 36 67
M  V30 72 1 37 68
M  V30 73 1 38 69
M  V30 74 1 39 70
M  V30 END BOND
M  V30 END CTAB
M  END
>  <Dataset>  (81) 
ChEMBL_Kinases

>  <Ligand_Instance>  (81) 
nan

>  <PDB_ID>  (81) 
nan

>  <Standardized_SMILES>  (81) 
COC(=O)c1c(Cc2ccc(C(=O)N[C@H]3CC[C@H](O)CC3)cc2)c(=O)c2ccc(C)nc2n1-c1ccccc1

>  <Name>  (81) 
nan

>  <Pocket>  (81) 
nan

>  <ATP_Site>  (81) 
nan

>  <Peripheral>  (81) 
nan

>  <Num_H_Atoms_ProtBoundConf>  (81) 
nan

>  <Num_Resolved_Atoms>  (81) 
nan

>  <Num_Not_Resolved_Atoms>  (81) 
nan

$$$$
CHEMBL2152707
     RDKit          3D

  0  0  0  0  0  0  0  0  0  0999 V3000
M  V30 BEGIN CTAB
M  V30 COUNTS 45 48 0 0 0
M  V30 BEGIN ATOM
M  V30 1 C 0.442157 -6.193186 2.236872 0
M  V30 2 N 0.972575 -5.195480 1.295815 0
M  V30 3 C 0.600314 -3.883651 1.344633 0
M  V30 4 C 1.323846 -3.344966 0.310928 0
M  V30 5 C 1.262520 -1.937756 -0.043145 0
M  V30 6 C 1.818605 -1.191996 -0.938352 0
M  V30 7 C 1.980707 0.098109 -1.525412 0
M  V30 8 N 2.823661 0.260328 -2.587963 0
M  V30 9 N 2.822544 1.508044 -2.965921 0
M  V30 10 C 2.004604 2.238654 -2.204859 0
M  V30 11 C 1.660950 3.577642 -2.198839 0
M  V30 12 C 0.767303 4.043675 -1.266345 0
M  V30 13 N 0.269092 3.141054 -0.393102 0
M  V30 14 C 0.605878 1.846838 -0.404482 0
M  V30 15 O 0.045907 1.015841 0.521207 0
M  V30 16 C -0.878124 1.440248 1.502772 0
M  V30 17 C -0.251782 1.281083 2.836985 0
M  V30 18 C -1.331230 0.968844 3.850422 0
M  V30 19 C -1.847349 -0.403279 3.482235 0
M  V30 20 C -2.440186 -0.440260 2.100022 0
M  V30 21 C -2.220103 0.818494 1.318561 0
M  V30 22 C 1.488900 1.339481 -1.311634 0
M  V30 23 C 2.105125 -4.285850 -0.342446 0
M  V30 24 N 1.835145 -5.433713 0.331106 0
M  V30 25 H 0.690766 -5.806116 3.252824 0
M  V30 26 H 0.903909 -7.174205 2.033063 0
M  V30 27 H -0.665108 -6.184690 2.175457 0
M  V30 28 H -0.077027 -3.391463 2.009430 0
M  V30 29 H 0.633615 -1.272058 0.510537 0
M  V30 30 H 2.403234 -2.000538 -1.395397 0
M  V30 31 H 3.409997 1.800022 -3.760815 0
M  V30 32 H 2.126518 4.194872 -2.946090 0
M  V30 33 H 0.491109 5.101251 -1.255850 0
M  V30 34 H -0.994512 2.547245 1.305975 0
M  V30 35 H 0.496770 0.464517 2.882175 0
M  V30 36 H 0.268747 2.210671 3.142219 0
M  V30 37 H -0.830715 0.860597 4.839783 0
M  V30 38 H -2.137903 1.705406 3.840799 0
M  V30 39 H -2.525519 -0.737770 4.279007 0
M  V30 40 H -0.968635 -1.094748 3.485177 0
M  V30 41 H -3.537967 -0.565101 2.229933 0
M  V30 42 H -2.103528 -1.331583 1.526017 0
M  V30 43 H -3.028804 1.556077 1.559152 0
M  V30 44 H -2.345543 0.577639 0.241700 0
M  V30 45 H 2.758368 -4.101226 -1.184008 0
M  V30 END ATOM
M  V30 BEGIN BOND
M  V30 1 1 1 2
M  V30 2 1 2 3
M  V30 3 2 3 4
M  V30 4 1 4 5
M  V30 5 2 5 6
M  V30 6 1 6 7
M  V30 7 2 7 8
M  V30 8 1 8 9
M  V30 9 1 9 10
M  V30 10 2 10 11
M  V30 11 1 11 12
M  V30 12 2 12 13
M  V30 13 1 13 14
M  V30 14 1 14 15
M  V30 15 1 15 16
M  V30 16 1 16 17
M  V30 17 1 17 18
M  V30 18 1 18 19
M  V30 19 1 19 20
M  V30 20 1 20 21
M  V30 21 2 14 22
M  V30 22 1 4 23
M  V30 23 2 23 24
M  V30 24 1 24 2
M  V30 25 1 22 7
M  V30 26 1 22 10
M  V30 27 1 21 16
M  V30 28 1 1 25
M  V30 29 1 1 26
M  V30 30 1 1 27
M  V30 31 1 3 28
M  V30 32 1 5 29
M  V30 33 1 6 30
M  V30 34 1 9 31
M  V30 35 1 11 32
M  V30 36 1 12 33
M  V30 37 1 16 34
M  V30 38 1 17 35
M  V30 39 1 17 36
M  V30 40 1 18 37
M  V30 41 1 18 38
M  V30 42 1 19 39
M  V30 43 1 19 40
M  V30 44 1 20 41
M  V30 45 1 20 42
M  V30 46 1 21 43
M  V30 47 1 21 44
M  V30 48 1 23 45
M  V30 END BOND
M  V30 END CTAB
M  END
>  <Dataset>  (82) 
ChEMBL_Kinases

>  <Ligand_Instance>  (82) 
nan

>  <PDB_ID>  (82) 
nan

>  <Standardized_SMILES>  (82) 
Cn1cc(/C=C/c2n[nH]c3ccnc(OC4CCCCC4)c23)cn1

>  <Name>  (82) 
nan

>  <Pocket>  (82) 
nan

>  <ATP_Site>  (82) 
nan

>  <Peripheral>  (82) 
nan

>  <Num_H_Atoms_ProtBoundConf>  (82) 
nan

>  <Num_Resolved_Atoms>  (82) 
nan

>  <Num_Not_Resolved_Atoms>  (82) 
nan

$$$$
CHEMBL2152708
     RDKit          3D

  0  0  0  0  0  0  0  0  0  0999 V3000
M  V30 BEGIN CTAB
M  V30 COUNTS 53 56 0 0 0
M  V30 BEGIN ATOM
M  V30 1 C 2.296875 -3.120673 2.805964 0
M  V30 2 C 2.760694 -1.689239 2.943095 0
M  V30 3 C 2.067930 -1.078190 4.137407 0
M  V30 4 O 2.528507 -0.998099 1.754946 0
M  V30 5 C 3.598782 -0.445314 1.067687 0
M  V30 6 N 4.824090 -0.611709 1.598551 0
M  V30 7 C 5.883757 -0.089378 0.956426 0
M  V30 8 C 5.795321 0.615345 -0.227063 0
M  V30 9 C 4.526503 0.770245 -0.747851 0
M  V30 10 N 4.010408 1.359344 -1.838135 0
M  V30 11 N 2.701232 1.216809 -1.879641 0
M  V30 12 C 2.259394 0.511947 -0.800071 0
M  V30 13 C 0.863161 0.179565 -0.555861 0
M  V30 14 C 0.006932 0.267621 0.521949 0
M  V30 15 C -1.237397 -0.226501 0.172099 0
M  V30 16 C -2.229776 -0.194744 1.207128 0
M  V30 17 O -1.975487 0.231051 2.363977 0
M  V30 18 N -3.567502 -0.574595 1.215704 0
M  V30 19 C -4.480793 -0.504892 2.303126 0
M  V30 20 C -5.382195 -1.702239 2.493088 0
M  V30 21 O -6.340884 -1.127850 1.658452 0
M  V30 22 C -5.827217 0.102772 2.019267 0
M  V30 23 N -1.103300 -0.599577 -1.104301 0
M  V30 24 C -2.204632 -1.178160 -1.841641 0
M  V30 25 C -3.178231 -0.097699 -2.256616 0
M  V30 26 C -1.608900 -1.852925 -3.077258 0
M  V30 27 C 0.132549 -0.376849 -1.583287 0
M  V30 28 C 3.422826 0.245822 -0.110741 0
M  V30 29 H 2.367999 -3.607099 3.819992 0
M  V30 30 H 2.997533 -3.616921 2.085817 0
M  V30 31 H 1.245227 -3.135719 2.459351 0
M  V30 32 H 3.853867 -1.711091 3.208207 0
M  V30 33 H 2.400896 -1.682979 5.019729 0
M  V30 34 H 0.985085 -1.236438 4.032976 0
M  V30 35 H 2.369295 -0.023921 4.299064 0
M  V30 36 H 6.891565 -0.208252 1.363481 0
M  V30 37 H 6.650856 1.034498 -0.741526 0
M  V30 38 H 4.577027 1.871143 -2.569264 0
M  V30 39 H 0.466681 0.707532 1.420694 0
M  V30 40 H -3.971466 -0.954895 0.338155 0
M  V30 41 H -4.033790 -0.096435 3.226365 0
M  V30 42 H -4.989688 -2.677343 2.156478 0
M  V30 43 H -5.748060 -1.728988 3.540547 0
M  V30 44 H -6.310068 0.411855 2.982336 0
M  V30 45 H -5.859820 0.913845 1.274476 0
M  V30 46 H -2.660193 -1.995906 -1.250252 0
M  V30 47 H -3.009178 0.103918 -3.334297 0
M  V30 48 H -3.073571 0.816874 -1.638212 0
M  V30 49 H -4.196418 -0.540469 -2.172772 0
M  V30 50 H -1.294976 -1.074249 -3.803973 0
M  V30 51 H -0.709320 -2.417123 -2.753146 0
M  V30 52 H -2.323865 -2.577538 -3.488883 0
M  V30 53 H 0.417800 -0.620169 -2.604142 0
M  V30 END ATOM
M  V30 BEGIN BOND
M  V30 1 1 1 2
M  V30 2 1 2 3
M  V30 3 1 2 4
M  V30 4 1 4 5
M  V30 5 2 5 6
M  V30 6 1 6 7
M  V30 7 2 7 8
M  V30 8 1 8 9
M  V30 9 1 9 10
M  V30 10 1 10 11
M  V30 11 2 11 12
M  V30 12 1 12 13
M  V30 13 1 13 14
M  V30 14 2 14 15
M  V30 15 1 15 16
M  V30 16 2 16 17
M  V30 17 1 16 18
M  V30 18 1 18 19
M  V30 19 1 19 20
M  V30 20 1 20 21
M  V30 21 1 21 22
M  V30 22 1 15 23
M  V30 23 1 23 24
M  V30 24 1 24 25
M  V30 25 1 24 26
M  V30 26 1 23 27
M  V30 27 1 12 28
M  V30 28 1 28 5
M  V30 29 2 28 9
M  V30 30 2 27 13
M  V30 31 1 22 19
M  V30 32 1 1 29
M  V30 33 1 1 30
M  V30 34 1 1 31
M  V30 35 1 2 32
M  V30 36 1 3 33
M  V30 37 1 3 34
M  V30 38 1 3 35
M  V30 39 1 7 36
M  V30 40 1 8 37
M  V30 41 1 10 38
M  V30 42 1 14 39
M  V30 43 1 18 40
M  V30 44 1 19 41
M  V30 45 1 20 42
M  V30 46 1 20 43
M  V30 47 1 22 44
M  V30 48 1 22 45
M  V30 49 1 24 46
M  V30 50 1 25 47
M  V30 51 1 25 48
M  V30 52 1 25 49
M  V30 53 1 26 50
M  V30 54 1 26 51
M  V30 55 1 26 52
M  V30 56 1 27 53
M  V30 END BOND
M  V30 END CTAB
M  END
>  <Dataset>  (83) 
ChEMBL_Kinases

>  <Ligand_Instance>  (83) 
nan

>  <PDB_ID>  (83) 
nan

>  <Standardized_SMILES>  (83) 
CC(C)Oc1nccc2[nH]nc(-c3cc(C(=O)NC4COC4)n(C(C)C)c3)c12

>  <Name>  (83) 
nan

>  <Pocket>  (83) 
nan

>  <ATP_Site>  (83) 
nan

>  <Peripheral>  (83) 
nan

>  <Num_H_Atoms_ProtBoundConf>  (83) 
nan

>  <Num_Resolved_Atoms>  (83) 
nan

>  <Num_Not_Resolved_Atoms>  (83) 
nan

$$$$
CHEMBL2152709
     RDKit          3D

  0  0  0  0  0  0  0  0  0  0999 V3000
M  V30 BEGIN CTAB
M  V30 COUNTS 31 33 0 0 0
M  V30 BEGIN ATOM
M  V30 1 C -0.470502 -2.628514 2.442772 0
M  V30 2 C 0.945345 -2.219705 2.669387 0
M  V30 3 N 1.737111 -2.766521 3.619124 0
M  V30 4 N 2.916330 -2.160314 3.525844 0
M  V30 5 C 2.876584 -1.240358 2.530897 0
M  V30 6 C 3.827946 -0.349837 2.029555 0
M  V30 7 C 3.470370 0.478846 0.983205 0
M  V30 8 N 2.236696 0.460322 0.427337 0
M  V30 9 C 1.304463 -0.402344 0.908041 0
M  V30 10 O 0.024868 -0.448754 0.360346 0
M  V30 11 C -0.344714 0.398951 -0.711789 0
M  V30 12 C -0.896946 -0.421964 -1.856585 0
M  V30 13 C -2.408843 -0.386892 -1.739533 0
M  V30 14 C -2.615690 0.122020 -0.309032 0
M  V30 15 C -1.558054 1.209698 -0.284820 0
M  V30 16 C 1.609721 -1.249365 1.949447 0
M  V30 17 H -0.892060 -3.005058 3.419780 0
M  V30 18 H -1.079583 -1.806630 2.068814 0
M  V30 19 H -0.466109 -3.536561 1.777400 0
M  V30 20 H 1.454156 -3.520109 4.286954 0
M  V30 21 H 4.831607 -0.317238 2.463180 0
M  V30 22 H 4.177169 1.187410 0.560892 0
M  V30 23 H 0.495491 1.055311 -1.016437 0
M  V30 24 H -0.577050 0.059524 -2.807872 0
M  V30 25 H -0.544016 -1.459033 -1.860444 0
M  V30 26 H -2.875675 -1.382289 -1.891224 0
M  V30 27 H -2.829302 0.407832 -2.394009 0
M  V30 28 H -2.334242 -0.702295 0.346620 0
M  V30 29 H -3.637157 0.504824 -0.147172 0
M  V30 30 H -1.781677 1.897928 -1.124179 0
M  V30 31 H -1.441601 1.696803 0.688966 0
M  V30 END ATOM
M  V30 BEGIN BOND
M  V30 1 1 1 2
M  V30 2 1 2 3
M  V30 3 1 3 4
M  V30 4 2 4 5
M  V30 5 1 5 6
M  V30 6 2 6 7
M  V30 7 1 7 8
M  V30 8 2 8 9
M  V30 9 1 9 10
M  V30 10 1 10 11
M  V30 11 1 11 12
M  V30 12 1 12 13
M  V30 13 1 13 14
M  V30 14 1 14 15
M  V30 15 1 9 16
M  V30 16 2 16 2
M  V30 17 1 16 5
M  V30 18 1 15 11
M  V30 19 1 1 17
M  V30 20 1 1 18
M  V30 21 1 1 19
M  V30 22 1 3 20
M  V30 23 1 6 21
M  V30 24 1 7 22
M  V30 25 1 11 23
M  V30 26 1 12 24
M  V30 27 1 12 25
M  V30 28 1 13 26
M  V30 29 1 13 27
M  V30 30 1 14 28
M  V30 31 1 14 29
M  V30 32 1 15 30
M  V30 33 1 15 31
M  V30 END BOND
M  V30 END CTAB
M  END
>  <Dataset>  (84) 
ChEMBL_Kinases

>  <Ligand_Instance>  (84) 
nan

>  <PDB_ID>  (84) 
nan

>  <Standardized_SMILES>  (84) 
Cc1[nH]nc2ccnc(OC3CCCC3)c12

>  <Name>  (84) 
nan

>  <Pocket>  (84) 
nan

>  <ATP_Site>  (84) 
nan

>  <Peripheral>  (84) 
nan

>  <Num_H_Atoms_ProtBoundConf>  (84) 
nan

>  <Num_Resolved_Atoms>  (84) 
nan

>  <Num_Not_Resolved_Atoms>  (84) 
nan

$$$$
CHEMBL2152777
     RDKit          3D

  0  0  0  0  0  0  0  0  0  0999 V3000
M  V30 BEGIN CTAB
M  V30 COUNTS 46 49 0 0 0
M  V30 BEGIN ATOM
M  V30 1 C 3.612335 -6.373568 -1.949905 0
M  V30 2 O 2.239661 -6.422690 -2.290714 0
M  V30 3 C 1.429735 -5.359460 -1.910273 0
M  V30 4 C 0.087798 -5.471558 -2.277558 0
M  V30 5 C -0.819760 -4.500327 -1.968480 0
M  V30 6 C -0.457829 -3.346666 -1.271273 0
M  V30 7 C 0.895741 -3.270000 -0.920187 0
M  V30 8 C 1.828649 -4.234455 -1.219849 0
M  V30 9 C 1.559216 -2.170547 -0.182744 0
M  V30 10 O 2.780210 -2.283487 0.091103 0
M  V30 11 C 0.916965 -0.937138 0.268525 0
M  V30 12 C 1.665199 -0.302318 1.235034 0
M  V30 13 C 1.160147 0.875561 1.739793 0
M  V30 14 C -0.021714 1.478743 1.370842 0
M  V30 15 N -0.564457 2.668530 1.899693 0
M  V30 16 C -0.573270 3.235701 3.192161 0
M  V30 17 C -0.047399 2.698819 4.343084 0
M  V30 18 C -0.063826 3.291098 5.582786 0
M  V30 19 C -0.655482 4.531178 5.700331 0
M  V30 20 C -1.196882 5.108178 4.571773 0
M  V30 21 C -1.149072 4.470984 3.370961 0
M  V30 22 N -1.745733 5.167885 2.262690 0
M  V30 23 C -0.705130 0.756886 0.385113 0
M  V30 24 C -0.281520 -0.424608 -0.178039 0
M  V30 25 C -1.211128 -0.955030 -1.193284 0
M  V30 26 C -1.555182 -2.396419 -1.016846 0
M  V30 27 H 4.214707 -5.747422 -2.664050 0
M  V30 28 H 3.814331 -5.973231 -0.942735 0
M  V30 29 H 4.024027 -7.424266 -1.943726 0
M  V30 30 H -0.296189 -6.339552 -2.827729 0
M  V30 31 H -1.881230 -4.534805 -2.230156 0
M  V30 32 H 2.853059 -4.174050 -0.952877 0
M  V30 33 H 2.601618 -0.716596 1.573922 0
M  V30 34 H 1.780827 1.345203 2.479608 0
M  V30 35 H -1.041622 3.201176 1.139262 0
M  V30 36 H 0.411535 1.733634 4.303282 0
M  V30 37 H 0.371174 2.808193 6.446788 0
M  V30 38 H -0.686422 5.021417 6.649244 0
M  V30 39 H -1.656373 6.079427 4.682195 0
M  V30 40 H -2.488063 4.979563 1.576882 0
M  V30 41 H -1.333552 6.114976 2.090211 0
M  V30 42 H -1.655474 1.153039 0.023484 0
M  V30 43 H -0.742433 -0.834074 -2.208786 0
M  V30 44 H -2.144815 -0.386160 -1.202944 0
M  V30 45 H -2.016626 -2.552845 -0.007429 0
M  V30 46 H -2.367454 -2.635389 -1.731281 0
M  V30 END ATOM
M  V30 BEGIN BOND
M  V30 1 1 1 2
M  V30 2 1 2 3
M  V30 3 2 3 4
M  V30 4 1 4 5
M  V30 5 2 5 6
M  V30 6 1 6 7
M  V30 7 2 7 8
M  V30 8 1 7 9
M  V30 9 2 9 10
M  V30 10 1 9 11
M  V30 11 2 11 12
M  V30 12 1 12 13
M  V30 13 2 13 14
M  V30 14 1 14 15
M  V30 15 1 15 16
M  V30 16 2 16 17
M  V30 17 1 17 18
M  V30 18 2 18 19
M  V30 19 1 19 20
M  V30 20 2 20 21
M  V30 21 1 21 22
M  V30 22 1 14 23
M  V30 23 2 23 24
M  V30 24 1 24 25
M  V30 25 1 25 26
M  V30 26 1 8 3
M  V30 27 1 24 11
M  V30 28 1 26 6
M  V30 29 1 21 16
M  V30 30 1 1 27
M  V30 31 1 1 28
M  V30 32 1 1 29
M  V30 33 1 4 30
M  V30 34 1 5 31
M  V30 35 1 8 32
M  V30 36 1 12 33
M  V30 37 1 13 34
M  V30 38 1 15 35
M  V30 39 1 17 36
M  V30 40 1 18 37
M  V30 41 1 19 38
M  V30 42 1 20 39
M  V30 43 1 22 40
M  V30 44 1 22 41
M  V30 45 1 23 42
M  V30 46 1 25 43
M  V30 47 1 25 44
M  V30 48 1 26 45
M  V30 49 1 26 46
M  V30 END BOND
M  V30 END CTAB
M  END
>  <Dataset>  (85) 
ChEMBL_Kinases

>  <Ligand_Instance>  (85) 
nan

>  <PDB_ID>  (85) 
nan

>  <Standardized_SMILES>  (85) 
COc1ccc2c(c1)C(=O)c1ccc(Nc3ccccc3N)cc1CC2

>  <Name>  (85) 
nan

>  <Pocket>  (85) 
nan

>  <ATP_Site>  (85) 
nan

>  <Peripheral>  (85) 
nan

>  <Num_H_Atoms_ProtBoundConf>  (85) 
nan

>  <Num_Resolved_Atoms>  (85) 
nan

>  <Num_Not_Resolved_Atoms>  (85) 
nan

$$$$
CHEMBL2152778
     RDKit          3D

  0  0  0  0  0  0  0  0  0  0999 V3000
M  V30 BEGIN CTAB
M  V30 COUNTS 44 47 0 0 0
M  V30 BEGIN ATOM
M  V30 1 C -3.908236 -5.424599 -0.949579 0
M  V30 2 O -2.632814 -5.898628 -1.338740 0
M  V30 3 C -1.548997 -5.037571 -1.228498 0
M  V30 4 C -0.310276 -5.547110 -1.623495 0
M  V30 5 C 0.781217 -4.705293 -1.521254 0
M  V30 6 C 0.723685 -3.386469 -1.051104 0
M  V30 7 C -0.545081 -2.982036 -0.687539 0
M  V30 8 C -1.691294 -3.749962 -0.754381 0
M  V30 9 C -0.870986 -1.639784 -0.162291 0
M  V30 10 O -2.090368 -1.284217 -0.223082 0
M  V30 11 C 0.072071 -0.661757 0.428747 0
M  V30 12 C -0.575682 0.486010 0.842465 0
M  V30 13 C 0.107631 1.527370 1.420909 0
M  V30 14 C 1.466284 1.341835 1.554371 0
M  V30 15 N 2.254653 2.367518 2.141780 0
M  V30 16 C 1.840423 3.639592 2.622737 0
M  V30 17 C 2.033261 3.980622 3.963580 0
M  V30 18 C 1.681771 5.167492 4.547515 0
M  V30 19 C 1.079405 6.108366 3.718025 0
M  V30 20 F 0.715335 7.309445 4.275426 0
M  V30 21 C 0.866781 5.825558 2.395599 0
M  V30 22 C 1.231287 4.618615 1.829977 0
M  V30 23 F 1.023613 4.337179 0.525589 0
M  V30 24 C 2.159279 0.217979 1.158650 0
M  V30 25 C 1.437964 -0.827132 0.572451 0
M  V30 26 C 2.323468 -1.929956 0.216798 0
M  V30 27 C 1.982200 -2.670771 -1.021974 0
M  V30 28 H -3.883929 -4.927972 0.045783 0
M  V30 29 H -4.643985 -6.250222 -0.849958 0
M  V30 30 H -4.301615 -4.695931 -1.670480 0
M  V30 31 H -0.164794 -6.551743 -1.999468 0
M  V30 32 H 1.746242 -5.093236 -1.825829 0
M  V30 33 H -2.653959 -3.361844 -0.450199 0
M  V30 34 H -1.651402 0.539666 0.694786 0
M  V30 35 H -0.422193 2.408566 1.733795 0
M  V30 36 H 3.270632 2.326759 2.304724 0
M  V30 37 H 2.498255 3.251662 4.599556 0
M  V30 38 H 1.870069 5.346012 5.597830 0
M  V30 39 H 0.397918 6.552677 1.741206 0
M  V30 40 H 3.228849 0.116938 1.284039 0
M  V30 41 H 3.380489 -1.579096 0.107046 0
M  V30 42 H 2.337161 -2.656936 1.065164 0
M  V30 43 H 1.969806 -1.922668 -1.867808 0
M  V30 44 H 2.813751 -3.355749 -1.285283 0
M  V30 END ATOM
M  V30 BEGIN BOND
M  V30 1 1 1 2
M  V30 2 1 2 3
M  V30 3 2 3 4
M  V30 4 1 4 5
M  V30 5 2 5 6
M  V30 6 1 6 7
M  V30 7 2 7 8
M  V30 8 1 7 9
M  V30 9 2 9 10
M  V30 10 1 9 11
M  V30 11 2 11 12
M  V30 12 1 12 13
M  V30 13 2 13 14
M  V30 14 1 14 15
M  V30 15 1 15 16
M  V30 16 2 16 17
M  V30 17 1 17 18
M  V30 18 2 18 19
M  V30 19 1 19 20
M  V30 20 1 19 21
M  V30 21 2 21 22
M  V30 22 1 22 23
M  V30 23 1 14 24
M  V30 24 2 24 25
M  V30 25 1 25 26
M  V30 26 1 26 27
M  V30 27 1 8 3
M  V30 28 1 25 11
M  V30 29 1 27 6
M  V30 30 1 22 16
M  V30 31 1 1 28
M  V30 32 1 1 29
M  V30 33 1 1 30
M  V30 34 1 4 31
M  V30 35 1 5 32
M  V30 36 1 8 33
M  V30 37 1 12 34
M  V30 38 1 13 35
M  V30 39 1 15 36
M  V30 40 1 17 37
M  V30 41 1 18 38
M  V30 42 1 21 39
M  V30 43 1 24 40
M  V30 44 1 26 41
M  V30 45 1 26 42
M  V30 46 1 27 43
M  V30 47 1 27 44
M  V30 END BOND
M  V30 END CTAB
M  END
>  <Dataset>  (86) 
ChEMBL_Kinases

>  <Ligand_Instance>  (86) 
nan

>  <PDB_ID>  (86) 
nan

>  <Standardized_SMILES>  (86) 
COc1ccc2c(c1)C(=O)c1ccc(Nc3ccc(F)cc3F)cc1CC2

>  <Name>  (86) 
nan

>  <Pocket>  (86) 
nan

>  <ATP_Site>  (86) 
nan

>  <Peripheral>  (86) 
nan

>  <Num_H_Atoms_ProtBoundConf>  (86) 
nan

>  <Num_Resolved_Atoms>  (86) 
nan

>  <Num_Not_Resolved_Atoms>  (86) 
nan

$$$$
CHEMBL2152779
     RDKit          3D

  0  0  0  0  0  0  0  0  0  0999 V3000
M  V30 BEGIN CTAB
M  V30 COUNTS 46 49 0 0 0
M  V30 BEGIN ATOM
M  V30 1 C -3.952357 -7.103174 -0.457568 0
M  V30 2 O -4.044629 -5.710350 -0.207526 0
M  V30 3 C -2.921645 -4.917598 -0.377417 0
M  V30 4 C -1.704629 -5.425111 -0.782841 0
M  V30 5 C -0.570297 -4.661024 -0.960379 0
M  V30 6 C -0.649493 -3.303131 -0.719448 0
M  V30 7 C -1.869586 -2.752535 -0.306226 0
M  V30 8 C -3.002481 -3.551889 -0.134781 0
M  V30 9 C -2.158646 -1.333582 0.000416 0
M  V30 10 O -3.371843 -1.007672 -0.047842 0
M  V30 11 C -1.127151 -0.357221 0.338753 0
M  V30 12 C -1.722524 0.863682 0.542460 0
M  V30 13 C -0.932756 1.937747 0.874982 0
M  V30 14 C 0.458162 1.868142 1.021896 0
M  V30 15 N 1.239810 2.998058 1.346995 0
M  V30 16 C 2.396769 3.206225 2.127856 0
M  V30 17 C 3.082643 2.274434 2.866620 0
M  V30 18 C 4.220685 2.507052 3.607053 0
M  V30 19 C 4.716037 3.783667 3.609305 0
M  V30 20 F 5.830659 4.107947 4.308223 0
M  V30 21 C 4.064870 4.758414 2.884020 0
M  V30 22 C 2.934754 4.471489 2.163677 0
M  V30 23 N 2.341836 5.562879 1.447833 0
M  V30 24 C 0.963356 0.606387 0.797820 0
M  V30 25 C 0.238357 -0.517891 0.461849 0
M  V30 26 C 1.037345 -1.748753 0.279541 0
M  V30 27 C 0.630412 -2.539426 -0.935768 0
M  V30 28 H -3.018707 -7.499452 0.035874 0
M  V30 29 H -3.972990 -7.332216 -1.544806 0
M  V30 30 H -4.777437 -7.660732 0.030375 0
M  V30 31 H -1.585031 -6.466179 -0.983201 0
M  V30 32 H 0.369460 -5.058161 -1.274289 0
M  V30 33 H -3.909703 -3.061142 0.185633 0
M  V30 34 H -2.792941 1.005580 0.449270 0
M  V30 35 H -1.419502 2.910583 1.035733 0
M  V30 36 H 0.815604 3.844063 0.867034 0
M  V30 37 H 2.708179 1.264596 2.892772 0
M  V30 38 H 4.698447 1.713044 4.160668 0
M  V30 39 H 4.472991 5.765485 2.898304 0
M  V30 40 H 1.441009 6.090146 1.519417 0
M  V30 41 H 2.794640 6.039907 0.651235 0
M  V30 42 H 2.020712 0.406052 0.860543 0
M  V30 43 H 2.080798 -1.447053 0.140163 0
M  V30 44 H 0.889935 -2.404935 1.159778 0
M  V30 45 H 1.409284 -3.277463 -1.121577 0
M  V30 46 H 0.535889 -1.895359 -1.824528 0
M  V30 END ATOM
M  V30 BEGIN BOND
M  V30 1 1 1 2
M  V30 2 1 2 3
M  V30 3 2 3 4
M  V30 4 1 4 5
M  V30 5 2 5 6
M  V30 6 1 6 7
M  V30 7 2 7 8
M  V30 8 1 7 9
M  V30 9 2 9 10
M  V30 10 1 9 11
M  V30 11 2 11 12
M  V30 12 1 12 13
M  V30 13 2 13 14
M  V30 14 1 14 15
M  V30 15 1 15 16
M  V30 16 2 16 17
M  V30 17 1 17 18
M  V30 18 2 18 19
M  V30 19 1 19 20
M  V30 20 1 19 21
M  V30 21 2 21 22
M  V30 22 1 22 23
M  V30 23 1 14 24
M  V30 24 2 24 25
M  V30 25 1 25 26
M  V30 26 1 26 27
M  V30 27 1 8 3
M  V30 28 1 25 11
M  V30 29 1 27 6
M  V30 30 1 22 16
M  V30 31 1 1 28
M  V30 32 1 1 29
M  V30 33 1 1 30
M  V30 34 1 4 31
M  V30 35 1 5 32
M  V30 36 1 8 33
M  V30 37 1 12 34
M  V30 38 1 13 35
M  V30 39 1 15 36
M  V30 40 1 17 37
M  V30 41 1 18 38
M  V30 42 1 21 39
M  V30 43 1 23 40
M  V30 44 1 23 41
M  V30 45 1 24 42
M  V30 46 1 26 43
M  V30 47 1 26 44
M  V30 48 1 27 45
M  V30 49 1 27 46
M  V30 END BOND
M  V30 END CTAB
M  END
>  <Dataset>  (87) 
ChEMBL_Kinases

>  <Ligand_Instance>  (87) 
nan

>  <PDB_ID>  (87) 
nan

>  <Standardized_SMILES>  (87) 
COc1ccc2c(c1)C(=O)c1ccc(Nc3ccc(F)cc3N)cc1CC2

>  <Name>  (87) 
nan

>  <Pocket>  (87) 
nan

>  <ATP_Site>  (87) 
nan

>  <Peripheral>  (87) 
nan

>  <Num_H_Atoms_ProtBoundConf>  (87) 
nan

>  <Num_Resolved_Atoms>  (87) 
nan

>  <Num_Not_Resolved_Atoms>  (87) 
nan

$$$$
CHEMBL2152794
     RDKit          3D

  0  0  0  0  0  0  0  0  0  0999 V3000
M  V30 BEGIN CTAB
M  V30 COUNTS 41 44 0 0 0
M  V30 BEGIN ATOM
M  V30 1 O 0.294252 -4.353291 1.515761 0
M  V30 2 C -0.052876 -3.174572 1.812220 0
M  V30 3 C 0.550981 -2.048373 1.111200 0
M  V30 4 C 1.467690 -2.544792 0.214070 0
M  V30 5 C 2.161777 -1.649248 -0.562093 0
M  V30 6 C 2.005408 -0.258750 -0.508769 0
M  V30 7 N 2.769819 0.601998 -1.328263 0
M  V30 8 C 2.496291 1.825354 -1.978264 0
M  V30 9 C 1.306478 2.510514 -2.008307 0
M  V30 10 C 1.094560 3.711539 -2.645290 0
M  V30 11 C 2.142967 4.282074 -3.306862 0
M  V30 12 C 3.353697 3.636668 -3.307254 0
M  V30 13 C 3.522908 2.439880 -2.659136 0
M  V30 14 Cl 5.120350 1.729610 -2.742429 0
M  V30 15 C 1.082276 0.139775 0.403331 0
M  V30 16 C 0.345654 -0.687775 1.217388 0
M  V30 17 C -0.604170 -0.005129 2.134327 0
M  V30 18 C -0.640068 -0.576076 3.514567 0
M  V30 19 C -1.348768 -1.860536 3.638117 0
M  V30 20 C -2.366372 -1.946228 4.583735 0
M  V30 21 C -3.069343 -3.121069 4.749649 0
M  V30 22 C -2.775397 -4.228035 3.982147 0
M  V30 23 O -3.497462 -5.412059 4.162494 0
M  V30 24 C -1.772498 -4.193181 3.028528 0
M  V30 25 C -1.069139 -2.997959 2.871141 0
M  V30 26 H 1.642231 -3.608786 0.117145 0
M  V30 27 H 2.889498 -2.071458 -1.271965 0
M  V30 28 H 3.740162 0.197491 -1.441264 0
M  V30 29 H 0.458198 2.083891 -1.508005 0
M  V30 30 H 0.147525 4.196269 -2.633233 0
M  V30 31 H 1.976424 5.235002 -3.812740 0
M  V30 32 H 4.166668 4.112176 -3.839864 0
M  V30 33 H 0.861151 1.163263 0.571850 0
M  V30 34 H -1.620346 0.028907 1.668320 0
M  V30 35 H -0.279072 1.047541 2.205650 0
M  V30 36 H -1.203979 0.153593 4.140130 0
M  V30 37 H 0.397207 -0.611051 3.898602 0
M  V30 38 H -2.543695 -1.029894 5.155304 0
M  V30 39 H -3.850667 -3.127813 5.501499 0
M  V30 40 H -4.240665 -5.636413 3.513648 0
M  V30 41 H -1.506821 -5.049105 2.397996 0
M  V30 END ATOM
M  V30 BEGIN BOND
M  V30 1 2 1 2
M  V30 2 1 2 3
M  V30 3 2 3 4
M  V30 4 1 4 5
M  V30 5 2 5 6
M  V30 6 1 6 7
M  V30 7 1 7 8
M  V30 8 2 8 9
M  V30 9 1 9 10
M  V30 10 2 10 11
M  V30 11 1 11 12
M  V30 12 2 12 13
M  V30 13 1 13 14
M  V30 14 1 6 15
M  V30 15 2 15 16
M  V30 16 1 16 17
M  V30 17 1 17 18
M  V30 18 1 18 19
M  V30 19 2 19 20
M  V30 20 1 20 21
M  V30 21 2 21 22
M  V30 22 1 22 23
M  V30 23 1 22 24
M  V30 24 2 24 25
M  V30 25 1 25 2
M  V30 26 1 16 3
M  V30 27 1 25 19
M  V30 28 1 13 8
M  V30 29 1 4 26
M  V30 30 1 5 27
M  V30 31 1 7 28
M  V30 32 1 9 29
M  V30 33 1 10 30
M  V30 34 1 11 31
M  V30 35 1 12 32
M  V30 36 1 15 33
M  V30 37 1 17 34
M  V30 38 1 17 35
M  V30 39 1 18 36
M  V30 40 1 18 37
M  V30 41 1 20 38
M  V30 42 1 21 39
M  V30 43 1 23 40
M  V30 44 1 24 41
M  V30 END BOND
M  V30 END CTAB
M  END
>  <Dataset>  (88) 
ChEMBL_Kinases

>  <Ligand_Instance>  (88) 
nan

>  <PDB_ID>  (88) 
nan

>  <Standardized_SMILES>  (88) 
O=C1c2ccc(Nc3ccccc3Cl)cc2CCc2ccc(O)cc21

>  <Name>  (88) 
nan

>  <Pocket>  (88) 
nan

>  <ATP_Site>  (88) 
nan

>  <Peripheral>  (88) 
nan

>  <Num_H_Atoms_ProtBoundConf>  (88) 
nan

>  <Num_Resolved_Atoms>  (88) 
nan

>  <Num_Not_Resolved_Atoms>  (88) 
nan

$$$$
CHEMBL2152781
     RDKit          3D

  0  0  0  0  0  0  0  0  0  0999 V3000
M  V30 BEGIN CTAB
M  V30 COUNTS 44 47 0 0 0
M  V30 BEGIN ATOM
M  V30 1 C 3.901696 -7.211520 -0.231525 0
M  V30 2 O 3.875203 -5.852515 0.161733 0
M  V30 3 C 2.697262 -5.135456 0.000829 0
M  V30 4 C 1.505914 -5.600595 -0.513717 0
M  V30 5 C 0.401539 -4.783874 -0.621884 0
M  V30 6 C 0.454575 -3.465953 -0.215587 0
M  V30 7 C 1.647254 -2.997873 0.300255 0
M  V30 8 C 2.774857 -3.802553 0.419330 0
M  V30 9 C 1.973848 -1.644098 0.803765 0
M  V30 10 O 3.076644 -1.464814 1.412775 0
M  V30 11 C 1.125066 -0.456887 0.664270 0
M  V30 12 C 1.576380 0.581335 1.451281 0
M  V30 13 C 0.856619 1.754222 1.404077 0
M  V30 14 C -0.269807 1.991370 0.648437 0
M  V30 15 N -1.025046 3.183890 0.621148 0
M  V30 16 C -1.368223 4.137138 1.607144 0
M  V30 17 C -1.053033 4.097720 2.944383 0
M  V30 18 C -1.398670 5.060936 3.865261 0
M  V30 19 C -2.116069 6.154071 3.428082 0
M  V30 20 C -2.450397 6.230752 2.102838 0
M  V30 21 C -2.084910 5.247244 1.218678 0
M  V30 22 Cl -2.578154 5.472583 -0.445424 0
M  V30 23 C -0.648116 0.887931 -0.111427 0
M  V30 24 C 0.005470 -0.324866 -0.131984 0
M  V30 25 C -0.585803 -1.334384 -1.013718 0
M  V30 26 C -0.782500 -2.679106 -0.374581 0
M  V30 27 H 3.974308 -7.344277 -1.323751 0
M  V30 28 H 4.710389 -7.774323 0.316404 0
M  V30 29 H 2.956875 -7.745460 0.074391 0
M  V30 30 H 1.497793 -6.630495 -0.820672 0
M  V30 31 H -0.523614 -5.144127 -1.021184 0
M  V30 32 H 3.691082 -3.380704 0.834007 0
M  V30 33 H 2.453974 0.465677 2.070191 0
M  V30 34 H 1.256061 2.540346 2.023913 0
M  V30 35 H -1.376579 3.350898 -0.354294 0
M  V30 36 H -0.511633 3.269222 3.325535 0
M  V30 37 H -1.118586 4.969659 4.905553 0
M  V30 38 H -2.406080 6.932196 4.122678 0
M  V30 39 H -3.008998 7.091941 1.789458 0
M  V30 40 H -1.531188 0.923629 -0.768830 0
M  V30 41 H -1.522528 -0.990636 -1.479437 0
M  V30 42 H 0.117936 -1.503751 -1.877497 0
M  V30 43 H -1.216178 -2.512852 0.624374 0
M  V30 44 H -1.556748 -3.232461 -0.957690 0
M  V30 END ATOM
M  V30 BEGIN BOND
M  V30 1 1 1 2
M  V30 2 1 2 3
M  V30 3 2 3 4
M  V30 4 1 4 5
M  V30 5 2 5 6
M  V30 6 1 6 7
M  V30 7 2 7 8
M  V30 8 1 7 9
M  V30 9 2 9 10
M  V30 10 1 9 11
M  V30 11 2 11 12
M  V30 12 1 12 13
M  V30 13 2 13 14
M  V30 14 1 14 15
M  V30 15 1 15 16
M  V30 16 2 16 17
M  V30 17 1 17 18
M  V30 18 2 18 19
M  V30 19 1 19 20
M  V30 20 2 20 21
M  V30 21 1 21 22
M  V30 22 1 14 23
M  V30 23 2 23 24
M  V30 24 1 24 25
M  V30 25 1 25 26
M  V30 26 1 8 3
M  V30 27 1 24 11
M  V30 28 1 26 6
M  V30 29 1 21 16
M  V30 30 1 1 27
M  V30 31 1 1 28
M  V30 32 1 1 29
M  V30 33 1 4 30
M  V30 34 1 5 31
M  V30 35 1 8 32
M  V30 36 1 12 33
M  V30 37 1 13 34
M  V30 38 1 15 35
M  V30 39 1 17 36
M  V30 40 1 18 37
M  V30 41 1 19 38
M  V30 42 1 20 39
M  V30 43 1 23 40
M  V30 44 1 25 41
M  V30 45 1 25 42
M  V30 46 1 26 43
M  V30 47 1 26 44
M  V30 END BOND
M  V30 END CTAB
M  END
>  <Dataset>  (89) 
ChEMBL_Kinases

>  <Ligand_Instance>  (89) 
nan

>  <PDB_ID>  (89) 
nan

>  <Standardized_SMILES>  (89) 
COc1ccc2c(c1)C(=O)c1ccc(Nc3ccccc3Cl)cc1CC2

>  <Name>  (89) 
nan

>  <Pocket>  (89) 
nan

>  <ATP_Site>  (89) 
nan

>  <Peripheral>  (89) 
nan

>  <Num_H_Atoms_ProtBoundConf>  (89) 
nan

>  <Num_Resolved_Atoms>  (89) 
nan

>  <Num_Not_Resolved_Atoms>  (89) 
nan

$$$$
CHEMBL2152783
     RDKit          3D

  0  0  0  0  0  0  0  0  0  0999 V3000
M  V30 BEGIN CTAB
M  V30 COUNTS 44 47 0 0 0
M  V30 BEGIN ATOM
M  V30 1 C 4.052393 -7.115242 -0.322286 0
M  V30 2 O 4.020290 -5.734316 0.017206 0
M  V30 3 C 2.838790 -5.010117 -0.072093 0
M  V30 4 C 1.642212 -5.563701 -0.485842 0
M  V30 5 C 0.504949 -4.805754 -0.556511 0
M  V30 6 C 0.525836 -3.455800 -0.212600 0
M  V30 7 C 1.739842 -2.937474 0.196294 0
M  V30 8 C 2.913451 -3.658549 0.284567 0
M  V30 9 C 2.050086 -1.551244 0.615823 0
M  V30 10 O 3.205564 -1.301892 1.085432 0
M  V30 11 C 1.127323 -0.412246 0.538413 0
M  V30 12 C 1.602855 0.649961 1.278681 0
M  V30 13 C 0.826043 1.787289 1.289426 0
M  V30 14 C -0.373743 1.964280 0.635917 0
M  V30 15 N -1.186581 3.118043 0.667866 0
M  V30 16 C -1.490133 4.068858 1.668999 0
M  V30 17 C -1.062774 4.075292 2.975301 0
M  V30 18 C -1.373790 5.030635 3.905393 0
M  V30 19 C -2.168992 6.068513 3.533393 0
M  V30 20 C -2.623606 6.111937 2.244233 0
M  V30 21 C -2.292401 5.138486 1.338882 0
M  V30 22 F -2.804191 5.282667 0.074254 0
M  V30 23 C -0.768081 0.839562 -0.082092 0
M  V30 24 C -0.063228 -0.343021 -0.156142 0
M  V30 25 C -0.671596 -1.389919 -0.971116 0
M  V30 26 C -0.755539 -2.737676 -0.326360 0
M  V30 27 H 4.008047 -7.297009 -1.398252 0
M  V30 28 H 4.907821 -7.627190 0.196719 0
M  V30 29 H 3.143571 -7.608571 0.131753 0
M  V30 30 H 1.601618 -6.612660 -0.758672 0
M  V30 31 H -0.462988 -5.202568 -0.878363 0
M  V30 32 H 3.849546 -3.240407 0.604480 0
M  V30 33 H 2.536098 0.585960 1.818927 0
M  V30 34 H 1.238594 2.599901 1.866559 0
M  V30 35 H -1.638142 3.260117 -0.278709 0
M  V30 36 H -0.440697 3.264008 3.311623 0
M  V30 37 H -1.001019 4.970495 4.914490 0
M  V30 38 H -2.450144 6.853660 4.220505 0
M  V30 39 H -3.260420 6.943693 1.948196 0
M  V30 40 H -1.699931 0.854398 -0.642562 0
M  V30 41 H -1.654324 -1.086130 -1.342715 0
M  V30 42 H -0.031935 -1.524437 -1.886596 0
M  V30 43 H -1.134213 -2.569247 0.711266 0
M  V30 44 H -1.528572 -3.353404 -0.826102 0
M  V30 END ATOM
M  V30 BEGIN BOND
M  V30 1 1 1 2
M  V30 2 1 2 3
M  V30 3 2 3 4
M  V30 4 1 4 5
M  V30 5 2 5 6
M  V30 6 1 6 7
M  V30 7 2 7 8
M  V30 8 1 7 9
M  V30 9 2 9 10
M  V30 10 1 9 11
M  V30 11 2 11 12
M  V30 12 1 12 13
M  V30 13 2 13 14
M  V30 14 1 14 15
M  V30 15 1 15 16
M  V30 16 2 16 17
M  V30 17 1 17 18
M  V30 18 2 18 19
M  V30 19 1 19 20
M  V30 20 2 20 21
M  V30 21 1 21 22
M  V30 22 1 14 23
M  V30 23 2 23 24
M  V30 24 1 24 25
M  V30 25 1 25 26
M  V30 26 1 8 3
M  V30 27 1 24 11
M  V30 28 1 26 6
M  V30 29 1 21 16
M  V30 30 1 1 27
M  V30 31 1 1 28
M  V30 32 1 1 29
M  V30 33 1 4 30
M  V30 34 1 5 31
M  V30 35 1 8 32
M  V30 36 1 12 33
M  V30 37 1 13 34
M  V30 38 1 15 35
M  V30 39 1 17 36
M  V30 40 1 18 37
M  V30 41 1 19 38
M  V30 42 1 20 39
M  V30 43 1 23 40
M  V30 44 1 25 41
M  V30 45 1 25 42
M  V30 46 1 26 43
M  V30 47 1 26 44
M  V30 END BOND
M  V30 END CTAB
M  END
>  <Dataset>  (90) 
ChEMBL_Kinases

>  <Ligand_Instance>  (90) 
nan

>  <PDB_ID>  (90) 
nan

>  <Standardized_SMILES>  (90) 
COc1ccc2c(c1)C(=O)c1ccc(Nc3ccccc3F)cc1CC2

>  <Name>  (90) 
nan

>  <Pocket>  (90) 
nan

>  <ATP_Site>  (90) 
nan

>  <Peripheral>  (90) 
nan

>  <Num_H_Atoms_ProtBoundConf>  (90) 
nan

>  <Num_Resolved_Atoms>  (90) 
nan

>  <Num_Not_Resolved_Atoms>  (90) 
nan

$$$$
CHEMBL2152784
     RDKit          3D

  0  0  0  0  0  0  0  0  0  0999 V3000
M  V30 BEGIN CTAB
M  V30 COUNTS 44 47 0 0 0
M  V30 BEGIN ATOM
M  V30 1 C 2.239471 -7.580505 -1.571229 0
M  V30 2 O 1.520728 -6.400211 -1.505848 0
M  V30 3 C 1.841089 -5.242029 -0.826787 0
M  V30 4 C 2.993690 -5.129102 -0.088287 0
M  V30 5 C 3.263363 -3.946769 0.570546 0
M  V30 6 C 2.403213 -2.845136 0.518086 0
M  V30 7 C 1.255377 -3.038994 -0.251590 0
M  V30 8 C 0.923429 -4.192117 -0.935475 0
M  V30 9 C 0.186464 -2.032850 -0.469361 0
M  V30 10 O -0.826919 -2.357629 -1.171769 0
M  V30 11 C 0.153965 -0.665976 0.042326 0
M  V30 12 C -1.100784 -0.101485 0.021893 0
M  V30 13 C -1.259931 1.189271 0.481177 0
M  V30 14 C -0.243487 1.981288 0.971521 0
M  V30 15 N -0.383621 3.300598 1.465734 0
M  V30 16 C -1.511347 3.986712 1.975425 0
M  V30 17 C -2.642995 3.405095 2.503523 0
M  V30 18 C -3.740331 4.089168 2.978819 0
M  V30 19 C -3.729461 5.466747 2.933847 0
M  V30 20 C -2.615468 6.090268 2.413033 0
M  V30 21 C -1.556803 5.362461 1.956232 0
M  V30 22 C 0.997407 1.378536 0.974560 0
M  V30 23 C 1.201414 0.091998 0.525027 0
M  V30 24 C 2.612855 -0.339343 0.624865 0
M  V30 25 C 2.818970 -1.662064 1.264821 0
M  V30 26 H 3.242972 -7.580227 -1.130288 0
M  V30 27 H 2.317695 -7.960272 -2.629057 0
M  V30 28 H 1.661233 -8.335471 -0.961071 0
M  V30 29 H 3.702490 -5.941828 -0.005082 0
M  V30 30 H 4.159637 -3.818962 1.161629 0
M  V30 31 H 0.004064 -4.230533 -1.502820 0
M  V30 32 H -1.915724 -0.681229 -0.349908 0
M  V30 33 H -2.249614 1.565830 0.427150 0
M  V30 34 H 0.507870 3.878240 1.453894 0
M  V30 35 H -2.712937 2.340895 2.578350 0
M  V30 36 H -4.601230 3.585571 3.381956 0
M  V30 37 H -4.565500 6.028555 3.294761 0
M  V30 38 H -2.645009 7.172431 2.395108 0
M  V30 39 H -0.725584 5.956531 1.563931 0
M  V30 40 H 1.860193 1.935415 1.346561 0
M  V30 41 H 3.013305 -0.414208 -0.427903 0
M  V30 42 H 3.252776 0.388914 1.126425 0
M  V30 43 H 3.912900 -1.761718 1.450745 0
M  V30 44 H 2.378058 -1.606689 2.302117 0
M  V30 END ATOM
M  V30 BEGIN BOND
M  V30 1 1 1 2
M  V30 2 1 2 3
M  V30 3 2 3 4
M  V30 4 1 4 5
M  V30 5 2 5 6
M  V30 6 1 6 7
M  V30 7 2 7 8
M  V30 8 1 7 9
M  V30 9 2 9 10
M  V30 10 1 9 11
M  V30 11 2 11 12
M  V30 12 1 12 13
M  V30 13 2 13 14
M  V30 14 1 14 15
M  V30 15 1 15 16
M  V30 16 2 16 17
M  V30 17 1 17 18
M  V30 18 2 18 19
M  V30 19 1 19 20
M  V30 20 2 20 21
M  V30 21 1 14 22
M  V30 22 2 22 23
M  V30 23 1 23 24
M  V30 24 1 24 25
M  V30 25 1 8 3
M  V30 26 1 23 11
M  V30 27 1 25 6
M  V30 28 1 21 16
M  V30 29 1 1 26
M  V30 30 1 1 27
M  V30 31 1 1 28
M  V30 32 1 4 29
M  V30 33 1 5 30
M  V30 34 1 8 31
M  V30 35 1 12 32
M  V30 36 1 13 33
M  V30 37 1 15 34
M  V30 38 1 17 35
M  V30 39 1 18 36
M  V30 40 1 19 37
M  V30 41 1 20 38
M  V30 42 1 21 39
M  V30 43 1 22 40
M  V30 44 1 24 41
M  V30 45 1 24 42
M  V30 46 1 25 43
M  V30 47 1 25 44
M  V30 END BOND
M  V30 END CTAB
M  END
>  <Dataset>  (91) 
ChEMBL_Kinases

>  <Ligand_Instance>  (91) 
nan

>  <PDB_ID>  (91) 
nan

>  <Standardized_SMILES>  (91) 
COc1ccc2c(c1)C(=O)c1ccc(Nc3ccccc3)cc1CC2

>  <Name>  (91) 
nan

>  <Pocket>  (91) 
nan

>  <ATP_Site>  (91) 
nan

>  <Peripheral>  (91) 
nan

>  <Num_H_Atoms_ProtBoundConf>  (91) 
nan

>  <Num_Resolved_Atoms>  (91) 
nan

>  <Num_Not_Resolved_Atoms>  (91) 
nan

$$$$
CHEMBL2152785
     RDKit          3D

  0  0  0  0  0  0  0  0  0  0999 V3000
M  V30 BEGIN CTAB
M  V30 COUNTS 44 47 0 0 0
M  V30 BEGIN ATOM
M  V30 1 C -2.632181 -5.203226 -3.636720 0
M  V30 2 O -1.596967 -5.711634 -2.793228 0
M  V30 3 C -0.933740 -4.820938 -1.961653 0
M  V30 4 C 0.068667 -5.354924 -1.154895 0
M  V30 5 C 0.812610 -4.590979 -0.278479 0
M  V30 6 C 0.582684 -3.233717 -0.168011 0
M  V30 7 C -0.422561 -2.705813 -0.978843 0
M  V30 8 C -1.165377 -3.470975 -1.854493 0
M  V30 9 C -0.879334 -1.317607 -1.072327 0
M  V30 10 O -1.768009 -0.996301 -1.902822 0
M  V30 11 C -0.374611 -0.216691 -0.250796 0
M  V30 12 C -0.664536 1.037386 -0.777887 0
M  V30 13 C -0.301271 2.235455 -0.198944 0
M  V30 14 C 0.395934 2.106771 0.983557 0
M  V30 15 N 0.810184 3.297714 1.643182 0
M  V30 16 C 1.479736 3.605474 2.859367 0
M  V30 17 C 2.681939 4.277942 2.932084 0
M  V30 18 C 3.294450 4.557187 4.137018 0
M  V30 19 C 2.649484 4.131669 5.291432 0
M  V30 20 F 3.261959 4.412110 6.471497 0
M  V30 21 C 1.438876 3.452529 5.255712 0
M  V30 22 C 0.845708 3.185200 4.032599 0
M  V30 23 Cl -0.670843 2.331685 4.122192 0
M  V30 24 C 0.704888 0.892490 1.541523 0
M  V30 25 C 0.326214 -0.290674 0.936168 0
M  V30 26 C 0.726262 -1.514877 1.648680 0
M  V30 27 C 1.444097 -2.521081 0.805345 0
M  V30 28 H -3.513801 -4.977995 -2.991991 0
M  V30 29 H -2.254292 -4.314355 -4.175449 0
M  V30 30 H -2.968501 -5.961835 -4.362613 0
M  V30 31 H 0.348644 -6.412735 -1.146991 0
M  V30 32 H 1.590777 -4.990636 0.351460 0
M  V30 33 H -1.938418 -3.072895 -2.480015 0
M  V30 34 H -1.211265 1.021766 -1.701729 0
M  V30 35 H -0.534428 3.190153 -0.621135 0
M  V30 36 H 0.641103 4.246466 1.240662 0
M  V30 37 H 3.114660 4.573638 1.969555 0
M  V30 38 H 4.236960 5.087131 4.143468 0
M  V30 39 H 1.039849 3.175702 6.222286 0
M  V30 40 H 1.250020 0.749787 2.464129 0
M  V30 41 H -0.122832 -2.007255 2.168401 0
M  V30 42 H 1.444099 -1.213384 2.439508 0
M  V30 43 H 2.276473 -2.062621 0.252062 0
M  V30 44 H 1.884574 -3.275932 1.474721 0
M  V30 END ATOM
M  V30 BEGIN BOND
M  V30 1 1 1 2
M  V30 2 1 2 3
M  V30 3 2 3 4
M  V30 4 1 4 5
M  V30 5 2 5 6
M  V30 6 1 6 7
M  V30 7 2 7 8
M  V30 8 1 7 9
M  V30 9 2 9 10
M  V30 10 1 9 11
M  V30 11 2 11 12
M  V30 12 1 12 13
M  V30 13 2 13 14
M  V30 14 1 14 15
M  V30 15 1 15 16
M  V30 16 2 16 17
M  V30 17 1 17 18
M  V30 18 2 18 19
M  V30 19 1 19 20
M  V30 20 1 19 21
M  V30 21 2 21 22
M  V30 22 1 22 23
M  V30 23 1 14 24
M  V30 24 2 24 25
M  V30 25 1 25 26
M  V30 26 1 26 27
M  V30 27 1 8 3
M  V30 28 1 25 11
M  V30 29 1 27 6
M  V30 30 1 22 16
M  V30 31 1 1 28
M  V30 32 1 1 29
M  V30 33 1 1 30
M  V30 34 1 4 31
M  V30 35 1 5 32
M  V30 36 1 8 33
M  V30 37 1 12 34
M  V30 38 1 13 35
M  V30 39 1 15 36
M  V30 40 1 17 37
M  V30 41 1 18 38
M  V30 42 1 21 39
M  V30 43 1 24 40
M  V30 44 1 26 41
M  V30 45 1 26 42
M  V30 46 1 27 43
M  V30 47 1 27 44
M  V30 END BOND
M  V30 END CTAB
M  END
>  <Dataset>  (92) 
ChEMBL_Kinases

>  <Ligand_Instance>  (92) 
nan

>  <PDB_ID>  (92) 
nan

>  <Standardized_SMILES>  (92) 
COc1ccc2c(c1)C(=O)c1ccc(Nc3ccc(F)cc3Cl)cc1CC2

>  <Name>  (92) 
nan

>  <Pocket>  (92) 
nan

>  <ATP_Site>  (92) 
nan

>  <Peripheral>  (92) 
nan

>  <Num_H_Atoms_ProtBoundConf>  (92) 
nan

>  <Num_Resolved_Atoms>  (92) 
nan

>  <Num_Not_Resolved_Atoms>  (92) 
nan

$$$$
CHEMBL2152786
     RDKit          3D

  0  0  0  0  0  0  0  0  0  0999 V3000
M  V30 BEGIN CTAB
M  V30 COUNTS 47 50 0 0 0
M  V30 BEGIN ATOM
M  V30 1 C 0.255600 -5.943064 -4.717603 0
M  V30 2 O 0.761770 -4.647401 -4.458910 0
M  V30 3 C 0.430444 -4.061814 -3.234529 0
M  V30 4 C -0.368431 -4.777330 -2.350570 0
M  V30 5 C -0.679585 -4.175410 -1.150205 0
M  V30 6 C -0.255609 -2.919273 -0.767324 0
M  V30 7 C 0.543264 -2.269745 -1.715413 0
M  V30 8 C 0.897947 -2.804472 -2.936558 0
M  V30 9 C 1.140030 -0.921576 -1.584556 0
M  V30 10 O 1.874143 -0.470155 -2.500322 0
M  V30 11 C 0.961980 -0.013646 -0.454824 0
M  V30 12 C 1.916653 0.979113 -0.375434 0
M  V30 13 C 1.969150 1.957692 0.596831 0
M  V30 14 C 0.957392 1.877595 1.530938 0
M  V30 15 N 0.919502 2.841264 2.575766 0
M  V30 16 C 0.117083 3.098971 3.706502 0
M  V30 17 C -0.603663 4.256749 3.920544 0
M  V30 18 C -1.363630 4.410451 5.073358 0
M  V30 19 C -1.402651 3.405558 6.012553 0
M  V30 20 F -2.160275 3.593064 7.131937 0
M  V30 21 C -0.675132 2.235713 5.797622 0
M  V30 22 C 0.072884 2.105721 4.644465 0
M  V30 23 C 0.777044 0.780865 4.608394 0
M  V30 24 C -0.020301 0.903743 1.494445 0
M  V30 25 C -0.033105 -0.056611 0.501358 0
M  V30 26 C -1.149138 -1.027569 0.607098 0
M  V30 27 C -0.699113 -2.461613 0.554526 0
M  V30 28 H 0.687079 -6.352714 -5.651693 0
M  V30 29 H 0.504084 -6.681894 -3.927425 0
M  V30 30 H -0.850668 -5.926660 -4.837483 0
M  V30 31 H -0.754914 -5.780794 -2.561929 0
M  V30 32 H -1.304878 -4.736480 -0.459401 0
M  V30 33 H 1.509604 -2.269965 -3.626319 0
M  V30 34 H 2.660115 0.947203 -1.156931 0
M  V30 35 H 2.719149 2.713317 0.633717 0
M  V30 36 H 1.623274 3.617352 2.628457 0
M  V30 37 H -0.533063 5.015855 3.141484 0
M  V30 38 H -1.920281 5.350020 5.199265 0
M  V30 39 H -0.777538 1.516586 6.595777 0
M  V30 40 H 1.614234 0.757013 3.897488 0
M  V30 41 H 1.210737 0.521650 5.613517 0
M  V30 42 H -0.013512 0.031907 4.440843 0
M  V30 43 H -0.830741 0.803632 2.203058 0
M  V30 44 H -1.834268 -0.814410 -0.257036 0
M  V30 45 H -1.691988 -0.850621 1.533917 0
M  V30 46 H -1.613589 -3.065695 0.823431 0
M  V30 47 H 0.002998 -2.636391 1.378771 0
M  V30 END ATOM
M  V30 BEGIN BOND
M  V30 1 1 1 2
M  V30 2 1 2 3
M  V30 3 2 3 4
M  V30 4 1 4 5
M  V30 5 2 5 6
M  V30 6 1 6 7
M  V30 7 2 7 8
M  V30 8 1 7 9
M  V30 9 2 9 10
M  V30 10 1 9 11
M  V30 11 2 11 12
M  V30 12 1 12 13
M  V30 13 2 13 14
M  V30 14 1 14 15
M  V30 15 1 15 16
M  V30 16 2 16 17
M  V30 17 1 17 18
M  V30 18 2 18 19
M  V30 19 1 19 20
M  V30 20 1 19 21
M  V30 21 2 21 22
M  V30 22 1 22 23
M  V30 23 1 14 24
M  V30 24 2 24 25
M  V30 25 1 25 26
M  V30 26 1 26 27
M  V30 27 1 8 3
M  V30 28 1 25 11
M  V30 29 1 27 6
M  V30 30 1 22 16
M  V30 31 1 1 28
M  V30 32 1 1 29
M  V30 33 1 1 30
M  V30 34 1 4 31
M  V30 35 1 5 32
M  V30 36 1 8 33
M  V30 37 1 12 34
M  V30 38 1 13 35
M  V30 39 1 15 36
M  V30 40 1 17 37
M  V30 41 1 18 38
M  V30 42 1 21 39
M  V30 43 1 23 40
M  V30 44 1 23 41
M  V30 45 1 23 42
M  V30 46 1 24 43
M  V30 47 1 26 44
M  V30 48 1 26 45
M  V30 49 1 27 46
M  V30 50 1 27 47
M  V30 END BOND
M  V30 END CTAB
M  END
>  <Dataset>  (93) 
ChEMBL_Kinases

>  <Ligand_Instance>  (93) 
nan

>  <PDB_ID>  (93) 
nan

>  <Standardized_SMILES>  (93) 
COc1ccc2c(c1)C(=O)c1ccc(Nc3ccc(F)cc3C)cc1CC2

>  <Name>  (93) 
nan

>  <Pocket>  (93) 
nan

>  <ATP_Site>  (93) 
nan

>  <Peripheral>  (93) 
nan

>  <Num_H_Atoms_ProtBoundConf>  (93) 
nan

>  <Num_Resolved_Atoms>  (93) 
nan

>  <Num_Not_Resolved_Atoms>  (93) 
nan

$$$$
CHEMBL2152788
     RDKit          3D

  0  0  0  0  0  0  0  0  0  0999 V3000
M  V30 BEGIN CTAB
M  V30 COUNTS 47 50 0 0 0
M  V30 BEGIN ATOM
M  V30 1 C -0.019075 -6.479053 -4.256722 0
M  V30 2 O 0.533744 -5.218460 -3.998339 0
M  V30 3 C -0.052772 -4.312039 -3.095062 0
M  V30 4 C -1.213082 -4.671089 -2.438364 0
M  V30 5 C -1.779945 -3.755097 -1.544348 0
M  V30 6 C -1.202773 -2.517079 -1.314714 0
M  V30 7 C -0.043723 -2.211155 -1.998234 0
M  V30 8 C 0.561919 -3.092653 -2.902359 0
M  V30 9 C 0.754378 -0.966506 -1.922795 0
M  V30 10 O 1.512207 -0.694135 -2.903324 0
M  V30 11 C 0.708254 -0.051785 -0.785375 0
M  V30 12 C 1.583999 0.994953 -0.957403 0
M  V30 13 C 1.720285 1.987818 -0.014012 0
M  V30 14 C 0.977424 1.969592 1.148841 0
M  V30 15 N 1.110164 3.002800 2.110998 0
M  V30 16 C 0.844537 3.076926 3.502236 0
M  V30 17 C 0.643557 4.288431 4.125174 0
M  V30 18 C 0.403385 4.370535 5.474877 0
M  V30 19 C 0.351354 3.250319 6.271775 0
M  V30 20 F 0.113651 3.309170 7.616616 0
M  V30 21 C 0.547093 2.015204 5.690814 0
M  V30 22 C 0.493583 0.800947 6.542852 0
M  V30 23 C 0.787366 1.973292 4.323162 0
M  V30 24 C 0.113067 0.904427 1.279940 0
M  V30 25 C -0.066404 -0.117496 0.371586 0
M  V30 26 C -1.057849 -1.138496 0.760340 0
M  V30 27 C -1.899502 -1.656860 -0.357460 0
M  V30 28 H 0.312382 -7.248466 -3.511335 0
M  V30 29 H -1.113038 -6.509316 -4.298246 0
M  V30 30 H 0.362341 -6.831871 -5.230046 0
M  V30 31 H -1.709786 -5.611059 -2.570129 0
M  V30 32 H -2.687982 -3.954611 -0.987889 0
M  V30 33 H 1.473690 -2.796380 -3.410420 0
M  V30 34 H 2.183240 1.047083 -1.852175 0
M  V30 35 H 2.434120 2.787174 -0.218423 0
M  V30 36 H 1.489188 3.914475 1.704296 0
M  V30 37 H 0.667036 5.222981 3.574346 0
M  V30 38 H 0.249414 5.339663 5.934990 0
M  V30 39 H 1.503359 0.411786 6.716374 0
M  V30 40 H -0.061716 -0.029676 6.032660 0
M  V30 41 H -0.023508 1.043574 7.484006 0
M  V30 42 H 0.938095 0.976352 3.957772 0
M  V30 43 H -0.523505 0.800423 2.146305 0
M  V30 44 H -1.712315 -0.686174 1.547038 0
M  V30 45 H -0.551783 -2.009819 1.245735 0
M  V30 46 H -2.814684 -2.109870 0.059455 0
M  V30 47 H -2.249299 -0.763047 -0.933418 0
M  V30 END ATOM
M  V30 BEGIN BOND
M  V30 1 1 1 2
M  V30 2 1 2 3
M  V30 3 2 3 4
M  V30 4 1 4 5
M  V30 5 2 5 6
M  V30 6 1 6 7
M  V30 7 2 7 8
M  V30 8 1 7 9
M  V30 9 2 9 10
M  V30 10 1 9 11
M  V30 11 2 11 12
M  V30 12 1 12 13
M  V30 13 2 13 14
M  V30 14 1 14 15
M  V30 15 1 15 16
M  V30 16 2 16 17
M  V30 17 1 17 18
M  V30 18 2 18 19
M  V30 19 1 19 20
M  V30 20 1 19 21
M  V30 21 1 21 22
M  V30 22 2 21 23
M  V30 23 1 14 24
M  V30 24 2 24 25
M  V30 25 1 25 26
M  V30 26 1 26 27
M  V30 27 1 8 3
M  V30 28 1 25 11
M  V30 29 1 27 6
M  V30 30 1 23 16
M  V30 31 1 1 28
M  V30 32 1 1 29
M  V30 33 1 1 30
M  V30 34 1 4 31
M  V30 35 1 5 32
M  V30 36 1 8 33
M  V30 37 1 12 34
M  V30 38 1 13 35
M  V30 39 1 15 36
M  V30 40 1 17 37
M  V30 41 1 18 38
M  V30 42 1 22 39
M  V30 43 1 22 40
M  V30 44 1 22 41
M  V30 45 1 23 42
M  V30 46 1 24 43
M  V30 47 1 26 44
M  V30 48 1 26 45
M  V30 49 1 27 46
M  V30 50 1 27 47
M  V30 END BOND
M  V30 END CTAB
M  END
>  <Dataset>  (94) 
ChEMBL_Kinases

>  <Ligand_Instance>  (94) 
nan

>  <PDB_ID>  (94) 
nan

>  <Standardized_SMILES>  (94) 
COc1ccc2c(c1)C(=O)c1ccc(Nc3ccc(F)c(C)c3)cc1CC2

>  <Name>  (94) 
nan

>  <Pocket>  (94) 
nan

>  <ATP_Site>  (94) 
nan

>  <Peripheral>  (94) 
nan

>  <Num_H_Atoms_ProtBoundConf>  (94) 
nan

>  <Num_Resolved_Atoms>  (94) 
nan

>  <Num_Not_Resolved_Atoms>  (94) 
nan

$$$$
CHEMBL2152789
     RDKit          3D

  0  0  0  0  0  0  0  0  0  0999 V3000
M  V30 BEGIN CTAB
M  V30 COUNTS 44 47 0 0 0
M  V30 BEGIN ATOM
M  V30 1 C 5.261271 -2.876595 5.363214 0
M  V30 2 O 4.673735 -3.702006 4.375410 0
M  V30 3 C 3.803687 -3.245220 3.394290 0
M  V30 4 C 3.361690 -4.253990 2.539930 0
M  V30 5 C 2.487843 -4.011608 1.492450 0
M  V30 6 C 2.039999 -2.721486 1.290065 0
M  V30 7 C 2.474120 -1.717426 2.133005 0
M  V30 8 C 3.348281 -1.959569 3.180954 0
M  V30 9 C 2.170699 -0.289614 2.154749 0
M  V30 10 O 2.811374 0.474880 2.911723 0
M  V30 11 C 1.124999 0.331685 1.316302 0
M  V30 12 C 1.245132 1.706553 1.284995 0
M  V30 13 C 0.394924 2.529200 0.575279 0
M  V30 14 C -0.608310 1.883490 -0.119524 0
M  V30 15 N -1.533011 2.653845 -0.880431 0
M  V30 16 C -2.648437 2.295146 -1.684725 0
M  V30 17 C -2.819563 2.549357 -3.029406 0
M  V30 18 C -3.958190 2.142748 -3.690704 0
M  V30 19 F -4.090338 2.409186 -5.006061 0
M  V30 20 C -4.956117 1.469758 -3.019836 0
M  V30 21 C -4.774181 1.217671 -1.662020 0
M  V30 22 F -5.834288 0.542916 -1.107999 0
M  V30 23 C -3.637717 1.620991 -0.992038 0
M  V30 24 F -3.686902 1.265264 0.314899 0
M  V30 25 C -0.771150 0.527890 -0.121920 0
M  V30 26 C 0.101276 -0.262101 0.601560 0
M  V30 27 C -0.133986 -1.740312 0.555690 0
M  V30 28 C 1.097758 -2.503510 0.148142 0
M  V30 29 H 5.329464 -3.389476 6.345712 0
M  V30 30 H 6.279781 -2.510055 5.056804 0
M  V30 31 H 4.656262 -1.963250 5.537193 0
M  V30 32 H 3.670263 -5.300095 2.634291 0
M  V30 33 H 2.124477 -4.752201 0.815529 0
M  V30 34 H 3.727166 -1.237542 3.872384 0
M  V30 35 H 2.059430 2.174612 1.853887 0
M  V30 36 H 0.476940 3.607791 0.541551 0
M  V30 37 H -1.466426 3.681406 -0.921134 0
M  V30 38 H -1.995265 3.085665 -3.506185 0
M  V30 39 H -5.837468 1.167635 -3.581536 0
M  V30 40 H -1.523949 -0.041850 -0.635762 0
M  V30 41 H -0.416217 -2.056995 1.590375 0
M  V30 42 H -0.973942 -1.989904 -0.105036 0
M  V30 43 H 0.757896 -3.490734 -0.230424 0
M  V30 44 H 1.584873 -1.992970 -0.708054 0
M  V30 END ATOM
M  V30 BEGIN BOND
M  V30 1 1 1 2
M  V30 2 1 2 3
M  V30 3 2 3 4
M  V30 4 1 4 5
M  V30 5 2 5 6
M  V30 6 1 6 7
M  V30 7 2 7 8
M  V30 8 1 7 9
M  V30 9 2 9 10
M  V30 10 1 9 11
M  V30 11 2 11 12
M  V30 12 1 12 13
M  V30 13 2 13 14
M  V30 14 1 14 15
M  V30 15 1 15 16
M  V30 16 2 16 17
M  V30 17 1 17 18
M  V30 18 1 18 19
M  V30 19 2 18 20
M  V30 20 1 20 21
M  V30 21 1 21 22
M  V30 22 2 21 23
M  V30 23 1 23 24
M  V30 24 1 14 25
M  V30 25 2 25 26
M  V30 26 1 26 27
M  V30 27 1 27 28
M  V30 28 1 8 3
M  V30 29 1 26 11
M  V30 30 1 28 6
M  V30 31 1 23 16
M  V30 32 1 1 29
M  V30 33 1 1 30
M  V30 34 1 1 31
M  V30 35 1 4 32
M  V30 36 1 5 33
M  V30 37 1 8 34
M  V30 38 1 12 35
M  V30 39 1 13 36
M  V30 40 1 15 37
M  V30 41 1 17 38
M  V30 42 1 20 39
M  V30 43 1 25 40
M  V30 44 1 27 41
M  V30 45 1 27 42
M  V30 46 1 28 43
M  V30 47 1 28 44
M  V30 END BOND
M  V30 END CTAB
M  END
>  <Dataset>  (95) 
ChEMBL_Kinases

>  <Ligand_Instance>  (95) 
nan

>  <PDB_ID>  (95) 
nan

>  <Standardized_SMILES>  (95) 
COc1ccc2c(c1)C(=O)c1ccc(Nc3cc(F)cc(F)c3F)cc1CC2

>  <Name>  (95) 
nan

>  <Pocket>  (95) 
nan

>  <ATP_Site>  (95) 
nan

>  <Peripheral>  (95) 
nan

>  <Num_H_Atoms_ProtBoundConf>  (95) 
nan

>  <Num_Resolved_Atoms>  (95) 
nan

>  <Num_Not_Resolved_Atoms>  (95) 
nan

$$$$
CHEMBL2152793
     RDKit          3D

  0  0  0  0  0  0  0  0  0  0999 V3000
M  V30 BEGIN CTAB
M  V30 COUNTS 41 44 0 0 0
M  V30 BEGIN ATOM
M  V30 1 O 0.681063 -3.119113 3.687380 0
M  V30 2 C 0.101660 -2.702339 2.653815 0
M  V30 3 C 0.689483 -1.620083 1.871697 0
M  V30 4 C 1.879870 -1.266070 2.466047 0
M  V30 5 C 2.640994 -0.259772 1.922273 0
M  V30 6 C 2.276959 0.449575 0.772356 0
M  V30 7 N 3.081059 1.469471 0.216648 0
M  V30 8 C 2.810405 2.695220 -0.430050 0
M  V30 9 C 1.577938 3.257345 -0.652796 0
M  V30 10 C 1.341537 4.447363 -1.300212 0
M  V30 11 C 2.427690 5.140143 -1.767185 0
M  V30 12 F 2.218821 6.320167 -2.411065 0
M  V30 13 C 3.686976 4.615947 -1.567004 0
M  V30 14 C 3.853456 3.418432 -0.910526 0
M  V30 15 F 5.150230 2.989463 -0.766242 0
M  V30 16 C 1.083791 0.032862 0.248683 0
M  V30 17 C 0.265190 -0.965500 0.734490 0
M  V30 18 C -0.966303 -1.225954 -0.005957 0
M  V30 19 C -1.337024 -2.663625 -0.184052 0
M  V30 20 C -1.833653 -3.335955 1.024518 0
M  V30 21 C -3.047410 -4.021515 0.922291 0
M  V30 22 C -3.576803 -4.676151 2.012442 0
M  V30 23 C -2.927602 -4.672369 3.225086 0
M  V30 24 O -3.477594 -5.343546 4.329150 0
M  V30 25 C -1.714117 -3.999490 3.367257 0
M  V30 26 C -1.176977 -3.335453 2.261730 0
M  V30 27 H 2.244095 -1.762453 3.364130 0
M  V30 28 H 3.580959 -0.005122 2.420868 0
M  V30 29 H 4.084170 1.194478 0.341220 0
M  V30 30 H 0.695861 2.751868 -0.291170 0
M  V30 31 H 0.341405 4.829327 -1.439986 0
M  V30 32 H 4.548447 5.169664 -1.939522 0
M  V30 33 H 0.670294 0.469041 -0.647822 0
M  V30 34 H -1.809098 -0.644939 0.400529 0
M  V30 35 H -0.804553 -0.829380 -1.047287 0
M  V30 36 H -2.129821 -2.707771 -0.948883 0
M  V30 37 H -0.478640 -3.231433 -0.591411 0
M  V30 38 H -3.501872 -3.982207 -0.060474 0
M  V30 39 H -4.532908 -5.194818 1.863751 0
M  V30 40 H -3.881417 -4.798676 5.096144 0
M  V30 41 H -1.183725 -3.982684 4.314222 0
M  V30 END ATOM
M  V30 BEGIN BOND
M  V30 1 2 1 2
M  V30 2 1 2 3
M  V30 3 2 3 4
M  V30 4 1 4 5
M  V30 5 2 5 6
M  V30 6 1 6 7
M  V30 7 1 7 8
M  V30 8 2 8 9
M  V30 9 1 9 10
M  V30 10 2 10 11
M  V30 11 1 11 12
M  V30 12 1 11 13
M  V30 13 2 13 14
M  V30 14 1 14 15
M  V30 15 1 6 16
M  V30 16 2 16 17
M  V30 17 1 17 18
M  V30 18 1 18 19
M  V30 19 1 19 20
M  V30 20 2 20 21
M  V30 21 1 21 22
M  V30 22 2 22 23
M  V30 23 1 23 24
M  V30 24 1 23 25
M  V30 25 2 25 26
M  V30 26 1 26 2
M  V30 27 1 17 3
M  V30 28 1 26 20
M  V30 29 1 14 8
M  V30 30 1 4 27
M  V30 31 1 5 28
M  V30 32 1 7 29
M  V30 33 1 9 30
M  V30 34 1 10 31
M  V30 35 1 13 32
M  V30 36 1 16 33
M  V30 37 1 18 34
M  V30 38 1 18 35
M  V30 39 1 19 36
M  V30 40 1 19 37
M  V30 41 1 21 38
M  V30 42 1 22 39
M  V30 43 1 24 40
M  V30 44 1 25 41
M  V30 END BOND
M  V30 END CTAB
M  END
>  <Dataset>  (96) 
ChEMBL_Kinases

>  <Ligand_Instance>  (96) 
nan

>  <PDB_ID>  (96) 
nan

>  <Standardized_SMILES>  (96) 
O=C1c2ccc(Nc3ccc(F)cc3F)cc2CCc2ccc(O)cc21

>  <Name>  (96) 
nan

>  <Pocket>  (96) 
nan

>  <ATP_Site>  (96) 
nan

>  <Peripheral>  (96) 
nan

>  <Num_H_Atoms_ProtBoundConf>  (96) 
nan

>  <Num_Resolved_Atoms>  (96) 
nan

>  <Num_Not_Resolved_Atoms>  (96) 
nan

$$$$
CHEMBL2152780
     RDKit          3D

  0  0  0  0  0  0  0  0  0  0999 V3000
M  V30 BEGIN CTAB
M  V30 COUNTS 48 51 0 0 0
M  V30 BEGIN ATOM
M  V30 1 C 3.181390 -7.049654 -2.109727 0
M  V30 2 O 3.258542 -5.631937 -2.131816 0
M  V30 3 C 2.197815 -4.832924 -1.708380 0
M  V30 4 C 1.035668 -5.411011 -1.253083 0
M  V30 5 C 0.044184 -4.550744 -0.856582 0
M  V30 6 C 0.121023 -3.151027 -0.878627 0
M  V30 7 C 1.339677 -2.691659 -1.356966 0
M  V30 8 C 2.411523 -3.473194 -1.784724 0
M  V30 9 C 1.633573 -1.241687 -1.463685 0
M  V30 10 O 2.499808 -0.963691 -2.355250 0
M  V30 11 C 1.047761 -0.141980 -0.675024 0
M  V30 12 C 1.788648 1.004822 -0.857920 0
M  V30 13 C 1.358742 2.122621 -0.177123 0
M  V30 14 C 0.246568 2.069364 0.634944 0
M  V30 15 N -0.154391 3.251814 1.313558 0
M  V30 16 C -1.220273 3.435920 2.234966 0
M  V30 17 C -2.205225 4.333183 1.915515 0
M  V30 18 C -3.294240 4.596575 2.740309 0
M  V30 19 C -3.356770 3.902552 3.934223 0
M  V30 20 C -2.387346 3.003007 4.275448 0
M  V30 21 C -1.320379 2.762695 3.438545 0
M  V30 22 O -0.339239 1.850407 3.787700 0
M  V30 23 C -0.402747 1.136796 5.014366 0
M  V30 24 C -0.457820 0.893269 0.781052 0
M  V30 25 C -0.076324 -0.281059 0.118306 0
M  V30 26 C -1.007215 -1.339809 0.472082 0
M  V30 27 C -1.082861 -2.525405 -0.400920 0
M  V30 28 H 4.189330 -7.509764 -2.124072 0
M  V30 29 H 2.579091 -7.436499 -2.955103 0
M  V30 30 H 2.701038 -7.427475 -1.162025 0
M  V30 31 H 0.896730 -6.477229 -1.204849 0
M  V30 32 H -0.891798 -4.978944 -0.489964 0
M  V30 33 H 3.286141 -2.970663 -2.127055 0
M  V30 34 H 2.635533 0.990088 -1.493832 0
M  V30 35 H 1.893139 3.052798 -0.276080 0
M  V30 36 H 0.346378 4.155270 1.175664 0
M  V30 37 H -2.152813 4.875401 0.978992 0
M  V30 38 H -4.065305 5.307535 2.476363 0
M  V30 39 H -4.187102 4.072025 4.613511 0
M  V30 40 H -2.412405 2.439633 5.214992 0
M  V30 41 H -0.486750 1.883611 5.845801 0
M  V30 42 H 0.456635 0.466021 5.109758 0
M  V30 43 H -1.353150 0.536910 4.932825 0
M  V30 44 H -1.334356 0.877405 1.427530 0
M  V30 45 H -2.027822 -0.873756 0.595914 0
M  V30 46 H -0.760283 -1.688980 1.515110 0
M  V30 47 H -1.734631 -3.297029 0.099161 0
M  V30 48 H -1.693663 -2.240815 -1.309104 0
M  V30 END ATOM
M  V30 BEGIN BOND
M  V30 1 1 1 2
M  V30 2 1 2 3
M  V30 3 2 3 4
M  V30 4 1 4 5
M  V30 5 2 5 6
M  V30 6 1 6 7
M  V30 7 2 7 8
M  V30 8 1 7 9
M  V30 9 2 9 10
M  V30 10 1 9 11
M  V30 11 2 11 12
M  V30 12 1 12 13
M  V30 13 2 13 14
M  V30 14 1 14 15
M  V30 15 1 15 16
M  V30 16 2 16 17
M  V30 17 1 17 18
M  V30 18 2 18 19
M  V30 19 1 19 20
M  V30 20 2 20 21
M  V30 21 1 21 22
M  V30 22 1 22 23
M  V30 23 1 14 24
M  V30 24 2 24 25
M  V30 25 1 25 26
M  V30 26 1 26 27
M  V30 27 1 8 3
M  V30 28 1 25 11
M  V30 29 1 27 6
M  V30 30 1 21 16
M  V30 31 1 1 28
M  V30 32 1 1 29
M  V30 33 1 1 30
M  V30 34 1 4 31
M  V30 35 1 5 32
M  V30 36 1 8 33
M  V30 37 1 12 34
M  V30 38 1 13 35
M  V30 39 1 15 36
M  V30 40 1 17 37
M  V30 41 1 18 38
M  V30 42 1 19 39
M  V30 43 1 20 40
M  V30 44 1 23 41
M  V30 45 1 23 42
M  V30 46 1 23 43
M  V30 47 1 24 44
M  V30 48 1 26 45
M  V30 49 1 26 46
M  V30 50 1 27 47
M  V30 51 1 27 48
M  V30 END BOND
M  V30 END CTAB
M  END
>  <Dataset>  (97) 
ChEMBL_Kinases

>  <Ligand_Instance>  (97) 
nan

>  <PDB_ID>  (97) 
nan

>  <Standardized_SMILES>  (97) 
COc1ccc2c(c1)C(=O)c1ccc(Nc3ccccc3OC)cc1CC2

>  <Name>  (97) 
nan

>  <Pocket>  (97) 
nan

>  <ATP_Site>  (97) 
nan

>  <Peripheral>  (97) 
nan

>  <Num_H_Atoms_ProtBoundConf>  (97) 
nan

>  <Num_Resolved_Atoms>  (97) 
nan

>  <Num_Not_Resolved_Atoms>  (97) 
nan

$$$$
CHEMBL215858
     RDKit          3D

  0  0  0  0  0  0  0  0  0  0999 V3000
M  V30 BEGIN CTAB
M  V30 COUNTS 42 45 0 0 0
M  V30 BEGIN ATOM
M  V30 1 C -1.052094 -3.920711 1.695513 0
M  V30 2 C -0.156249 -3.847592 0.517335 0
M  V30 3 C 0.900924 -2.969754 0.580405 0
M  V30 4 C 1.790111 -2.824495 -0.463204 0
M  V30 5 C 2.952363 -1.995267 -0.641865 0
M  V30 6 N 4.274031 -2.264106 -0.855052 0
M  V30 7 C 4.877275 -1.061329 -0.949350 0
M  V30 8 O 3.974946 -0.089841 -0.802441 0
M  V30 9 C 2.778806 -0.629139 -0.611181 0
M  V30 10 C 1.733968 0.368138 -0.440441 0
M  V30 11 C 1.432342 1.158711 -1.555624 0
M  V30 12 C 0.462563 2.160226 -1.548240 0
M  V30 13 C -0.216785 2.357283 -0.365231 0
M  V30 14 N -1.199907 3.215751 0.015193 0
M  V30 15 N -1.520287 3.008426 1.278706 0
M  V30 16 C -0.727052 1.993438 1.725175 0
M  V30 17 C -0.842800 1.506889 3.145955 0
M  V30 18 C -0.502198 2.627131 4.111914 0
M  V30 19 C -2.244215 1.047095 3.467134 0
M  V30 20 N 0.065020 1.604511 0.711151 0
M  V30 21 C 0.999062 0.645220 0.691080 0
M  V30 22 C 1.576277 -3.611895 -1.603957 0
M  V30 23 C 0.499483 -4.504399 -1.665341 0
M  V30 24 C -0.377199 -4.631092 -0.605694 0
M  V30 25 F -1.435053 -5.485411 -0.622608 0
M  V30 26 H -1.877051 -3.170692 1.510873 0
M  V30 27 H -1.553058 -4.900309 1.757077 0
M  V30 28 H -0.528946 -3.592378 2.596420 0
M  V30 29 H 1.159262 -2.321787 1.403240 0
M  V30 30 H 5.948436 -0.885051 -1.120413 0
M  V30 31 H 1.942206 1.040486 -2.510878 0
M  V30 32 H 0.258929 2.749580 -2.430852 0
M  V30 33 H -0.153651 0.643601 3.266514 0
M  V30 34 H -1.313449 2.800072 4.868322 0
M  V30 35 H -0.387649 3.603225 3.580564 0
M  V30 36 H 0.379662 2.332410 4.684607 0
M  V30 37 H -2.163879 0.134788 4.097174 0
M  V30 38 H -2.783960 0.843179 2.514346 0
M  V30 39 H -2.791821 1.779500 4.099495 0
M  V30 40 H 1.219888 0.055088 1.543173 0
M  V30 41 H 2.169694 -3.630480 -2.514388 0
M  V30 42 H 0.296947 -5.131569 -2.522893 0
M  V30 END ATOM
M  V30 BEGIN BOND
M  V30 1 1 1 2
M  V30 2 2 2 3
M  V30 3 1 3 4
M  V30 4 1 4 5
M  V30 5 1 5 6
M  V30 6 2 6 7
M  V30 7 1 7 8
M  V30 8 1 8 9
M  V30 9 1 9 10
M  V30 10 1 10 11
M  V30 11 2 11 12
M  V30 12 1 12 13
M  V30 13 2 13 14
M  V30 14 1 14 15
M  V30 15 2 15 16
M  V30 16 1 16 17
M  V30 17 1 17 18
M  V30 18 1 17 19
M  V30 19 1 16 20
M  V30 20 1 20 21
M  V30 21 2 4 22
M  V30 22 1 22 23
M  V30 23 2 23 24
M  V30 24 1 24 25
M  V30 25 1 24 2
M  V30 26 2 9 5
M  V30 27 2 21 10
M  V30 28 1 20 13
M  V30 29 1 1 26
M  V30 30 1 1 27
M  V30 31 1 1 28
M  V30 32 1 3 29
M  V30 33 1 7 30
M  V30 34 1 11 31
M  V30 35 1 12 32
M  V30 36 1 17 33
M  V30 37 1 18 34
M  V30 38 1 18 35
M  V30 39 1 18 36
M  V30 40 1 19 37
M  V30 41 1 19 38
M  V30 42 1 19 39
M  V30 43 1 21 40
M  V30 44 1 22 41
M  V30 45 1 23 42
M  V30 END BOND
M  V30 END CTAB
M  END
>  <Dataset>  (98) 
ChEMBL_Kinases

>  <Ligand_Instance>  (98) 
nan

>  <PDB_ID>  (98) 
nan

>  <Standardized_SMILES>  (98) 
Cc1cc(-c2ncoc2-c2ccc3nnc(C(C)C)n3c2)ccc1F

>  <Name>  (98) 
nan

>  <Pocket>  (98) 
nan

>  <ATP_Site>  (98) 
nan

>  <Peripheral>  (98) 
nan

>  <Num_H_Atoms_ProtBoundConf>  (98) 
nan

>  <Num_Resolved_Atoms>  (98) 
nan

>  <Num_Not_Resolved_Atoms>  (98) 
nan

$$$$
CHEMBL215847
     RDKit          3D

  0  0  0  0  0  0  0  0  0  0999 V3000
M  V30 BEGIN CTAB
M  V30 COUNTS 74 78 0 0 0
M  V30 BEGIN ATOM
M  V30 1 C 7.912520 -1.000425 3.954103 0
M  V30 2 O 7.307354 -1.264591 2.695882 0
M  V30 3 C 5.935774 -1.077114 2.577330 0
M  V30 4 C 5.114785 -0.648941 3.610982 0
M  V30 5 C 3.747865 -0.491272 3.388422 0
M  V30 6 C 3.177590 -0.750958 2.158060 0
M  V30 7 N 1.771919 -0.549740 2.065401 0
M  V30 8 C 1.622775 0.801395 1.682206 0
M  V30 9 O 2.887374 0.942321 1.670146 0
M  V30 10 O 0.515152 1.615820 1.429080 0
M  V30 11 C 0.658171 2.944551 1.056982 0
M  V30 12 C 0.740611 3.999609 1.938396 0
M  V30 13 C 0.671149 3.716756 3.398696 0
M  V30 14 C 0.883331 5.325092 1.592278 0
M  V30 15 C 0.943100 5.556859 0.212279 0
M  V30 16 C 0.864977 4.534244 -0.712856 0
M  V30 17 C 0.722255 3.225652 -0.294230 0
M  V30 18 C 0.645476 2.213153 -1.375601 0
M  V30 19 C 1.022282 -1.735209 2.372690 0
M  V30 20 C 0.572493 -2.051942 3.635713 0
M  V30 21 C -0.137740 -3.215359 3.833797 0
M  V30 22 N -0.370087 -4.002646 2.793650 0
M  V30 23 C 0.043958 -3.744068 1.540371 0
M  V30 24 N -0.118466 -4.469559 0.328596 0
M  V30 25 C -1.286453 -4.116388 -0.405503 0
M  V30 26 C -2.203330 -3.198563 0.066005 0
M  V30 27 C -3.350247 -2.836227 -0.651081 0
M  V30 28 C -3.598141 -3.403591 -1.880672 0
M  V30 29 N -4.754537 -3.059315 -2.630653 0
M  V30 30 C -5.866275 -2.313006 -2.073186 0
M  V30 31 C -5.826863 -0.927489 -2.709209 0
M  V30 32 N -5.238322 -0.981175 -4.007527 0
M  V30 33 C -3.860699 -0.567737 -4.066630 0
M  V30 34 C -5.491555 -2.172001 -4.757921 0
M  V30 35 C -4.956865 -3.390297 -4.029035 0
M  V30 36 C -2.698427 -4.324338 -2.375974 0
M  V30 37 C -1.558915 -4.675606 -1.648531 0
M  V30 38 N 0.738139 -2.603761 1.356160 0
M  V30 39 C 3.992448 -1.180807 1.114793 0
M  V30 40 C 5.349795 -1.336551 1.337629 0
M  V30 41 H 8.954826 -1.328847 4.010086 0
M  V30 42 H 7.824874 0.116831 4.086433 0
M  V30 43 H 7.373592 -1.445991 4.801273 0
M  V30 44 H 5.596612 -0.454162 4.563262 0
M  V30 45 H 3.235043 -0.152845 4.283756 0
M  V30 46 H 0.194154 4.584155 3.931242 0
M  V30 47 H 1.645837 3.435766 3.824609 0
M  V30 48 H -0.025343 2.868176 3.598843 0
M  V30 49 H 0.944235 6.119092 2.323240 0
M  V30 50 H 1.053216 6.564334 -0.138798 0
M  V30 51 H 0.920223 4.791890 -1.781683 0
M  V30 52 H -0.082099 2.639285 -2.125708 0
M  V30 53 H 0.191721 1.254876 -1.046523 0
M  V30 54 H 1.600874 2.084161 -1.919382 0
M  V30 55 H 0.783141 -1.390030 4.444719 0
M  V30 56 H -0.518514 -3.522341 4.797124 0
M  V30 57 H 0.498317 -5.206055 -0.070926 0
M  V30 58 H -2.037417 -2.721874 1.046088 0
M  V30 59 H -4.000456 -2.107602 -0.188933 0
M  V30 60 H -6.826527 -2.782794 -2.435719 0
M  V30 61 H -5.849985 -2.221580 -0.979956 0
M  V30 62 H -5.302203 -0.203951 -2.055493 0
M  V30 63 H -6.867319 -0.565601 -2.822787 0
M  V30 64 H -3.764298 0.420976 -4.571577 0
M  V30 65 H -3.419425 -0.421039 -3.050425 0
M  V30 66 H -3.199674 -1.309040 -4.565256 0
M  V30 67 H -6.555065 -2.351837 -4.965535 0
M  V30 68 H -4.928665 -2.099871 -5.720379 0
M  V30 69 H -3.958008 -3.652764 -4.444532 0
M  V30 70 H -5.631083 -4.245949 -4.132860 0
M  V30 71 H -2.789306 -4.835076 -3.319517 0
M  V30 72 H -0.833688 -5.409230 -2.034246 0
M  V30 73 H 3.515432 -1.374419 0.163015 0
M  V30 74 H 5.968820 -1.678627 0.496974 0
M  V30 END ATOM
M  V30 BEGIN BOND
M  V30 1 1 1 2
M  V30 2 1 2 3
M  V30 3 2 3 4
M  V30 4 1 4 5
M  V30 5 2 5 6
M  V30 6 1 6 7
M  V30 7 1 7 8
M  V30 8 2 8 9
M  V30 9 1 8 10
M  V30 10 1 10 11
M  V30 11 2 11 12
M  V30 12 1 12 13
M  V30 13 1 12 14
M  V30 14 2 14 15
M  V30 15 1 15 16
M  V30 16 2 16 17
M  V30 17 1 17 18
M  V30 18 1 7 19
M  V30 19 2 19 20
M  V30 20 1 20 21
M  V30 21 2 21 22
M  V30 22 1 22 23
M  V30 23 1 23 24
M  V30 24 1 24 25
M  V30 25 2 25 26
M  V30 26 1 26 27
M  V30 27 2 27 28
M  V30 28 1 28 29
M  V30 29 1 29 30
M  V30 30 1 30 31
M  V30 31 1 31 32
M  V30 32 1 32 33
M  V30 33 1 32 34
M  V30 34 1 34 35
M  V30 35 1 28 36
M  V30 36 2 36 37
M  V30 37 2 23 38
M  V30 38 1 6 39
M  V30 39 2 39 40
M  V30 40 1 40 3
M  V30 41 1 17 11
M  V30 42 1 38 19
M  V30 43 1 37 25
M  V30 44 1 35 29
M  V30 45 1 1 41
M  V30 46 1 1 42
M  V30 47 1 1 43
M  V30 48 1 4 44
M  V30 49 1 5 45
M  V30 50 1 13 46
M  V30 51 1 13 47
M  V30 52 1 13 48
M  V30 53 1 14 49
M  V30 54 1 15 50
M  V30 55 1 16 51
M  V30 56 1 18 52
M  V30 57 1 18 53
M  V30 58 1 18 54
M  V30 59 1 20 55
M  V30 60 1 21 56
M  V30 61 1 24 57
M  V30 62 1 26 58
M  V30 63 1 27 59
M  V30 64 1 30 60
M  V30 65 1 30 61
M  V30 66 1 31 62
M  V30 67 1 31 63
M  V30 68 1 33 64
M  V30 69 1 33 65
M  V30 70 1 33 66
M  V30 71 1 34 67
M  V30 72 1 34 68
M  V30 73 1 35 69
M  V30 74 1 35 70
M  V30 75 1 36 71
M  V30 76 1 37 72
M  V30 77 1 39 73
M  V30 78 1 40 74
M  V30 END BOND
M  V30 END CTAB
M  END
>  <Dataset>  (99) 
ChEMBL_Kinases

>  <Ligand_Instance>  (99) 
nan

>  <PDB_ID>  (99) 
nan

>  <Standardized_SMILES>  (99) 
COc1ccc(N(C(=O)Oc2c(C)cccc2C)c2ccnc(Nc3ccc(N4CCN(C)CC4)cc3)n2)cc1

>  <Name>  (99) 
nan

>  <Pocket>  (99) 
nan

>  <ATP_Site>  (99) 
nan

>  <Peripheral>  (99) 
nan

>  <Num_H_Atoms_ProtBoundConf>  (99) 
nan

>  <Num_Resolved_Atoms>  (99) 
nan

>  <Num_Not_Resolved_Atoms>  (99) 
nan

$$$$
CHEMBL215813
     RDKit          3D

  0  0  0  0  0  0  0  0  0  0999 V3000
M  V30 BEGIN CTAB
M  V30 COUNTS 51 54 0 0 0
M  V30 BEGIN ATOM
M  V30 1 C 0.196477 -4.313544 -1.456952 0
M  V30 2 C 0.487939 -3.057472 -0.733951 0
M  V30 3 C 1.753521 -2.532365 -0.898861 0
M  V30 4 C 2.097952 -1.363204 -0.253405 0
M  V30 5 C 1.193481 -0.717595 0.551195 0
M  V30 6 C 1.367992 0.516303 1.309773 0
M  V30 7 O 0.527570 1.091220 2.040506 0
M  V30 8 N 2.633048 1.159827 1.224876 0
M  V30 9 C 3.222549 2.332067 1.772117 0
M  V30 10 C 3.879728 2.206864 2.980174 0
M  V30 11 C 4.495475 3.282935 3.613367 0
M  V30 12 C 4.401754 4.499047 2.940338 0
M  V30 13 C 3.760733 4.675643 1.739217 0
M  V30 14 C 3.674943 5.968478 1.047818 0
M  V30 15 F 2.369593 6.387081 0.861347 0
M  V30 16 F 4.339615 6.950756 1.781505 0
M  V30 17 F 4.316438 5.934726 -0.192110 0
M  V30 18 C 3.161882 3.575210 1.145934 0
M  V30 19 C 2.430529 3.610313 -0.154860 0
M  V30 20 C -0.081258 -1.266280 0.703955 0
M  V30 21 C -0.455018 -2.443680 0.064903 0
M  V30 22 C -1.792579 -3.002665 0.233521 0
M  V30 23 C -2.152249 -2.991968 1.586116 0
M  V30 24 C -3.396436 -3.480215 1.987479 0
M  V30 25 C -4.284821 -3.978169 1.057925 0
M  V30 26 N -5.508268 -4.467881 1.374604 0
M  V30 27 C -6.340825 -4.944319 0.423857 0
M  V30 28 N -7.627506 -5.461671 0.738232 0
M  V30 29 N -5.945781 -4.931507 -0.861963 0
M  V30 30 C -4.744766 -4.460950 -1.255735 0
M  V30 31 C -3.900988 -3.975439 -0.270569 0
M  V30 32 C -2.679093 -3.500011 -0.698192 0
M  V30 33 H -0.565996 -4.910264 -0.892839 0
M  V30 34 H 1.114311 -4.938480 -1.537822 0
M  V30 35 H -0.128132 -4.075847 -2.496728 0
M  V30 36 H 2.532441 -2.974605 -1.515246 0
M  V30 37 H 3.059435 -0.879045 -0.321368 0
M  V30 38 H 3.464126 0.849086 0.675732 0
M  V30 39 H 3.973085 1.266564 3.537251 0
M  V30 40 H 5.016394 3.213679 4.558430 0
M  V30 41 H 4.851672 5.409109 3.351218 0
M  V30 42 H 2.885959 2.847897 -0.845570 0
M  V30 43 H 1.347176 3.423073 -0.011397 0
M  V30 44 H 2.508471 4.597097 -0.647832 0
M  V30 45 H -0.868410 -0.822886 1.324461 0
M  V30 46 H -1.556962 -2.632179 2.422043 0
M  V30 47 H -3.716690 -3.491305 3.023966 0
M  V30 48 H -8.079817 -6.193387 0.140593 0
M  V30 49 H -8.234079 -5.195697 1.543098 0
M  V30 50 H -4.461363 -4.466614 -2.299150 0
M  V30 51 H -2.295549 -3.454442 -1.686338 0
M  V30 END ATOM
M  V30 BEGIN BOND
M  V30 1 1 1 2
M  V30 2 2 2 3
M  V30 3 1 3 4
M  V30 4 2 4 5
M  V30 5 1 5 6
M  V30 6 2 6 7
M  V30 7 1 6 8
M  V30 8 1 8 9
M  V30 9 2 9 10
M  V30 10 1 10 11
M  V30 11 2 11 12
M  V30 12 1 12 13
M  V30 13 1 13 14
M  V30 14 1 14 15
M  V30 15 1 14 16
M  V30 16 1 14 17
M  V30 17 2 13 18
M  V30 18 1 18 19
M  V30 19 1 5 20
M  V30 20 2 20 21
M  V30 21 1 21 22
M  V30 22 2 22 23
M  V30 23 1 23 24
M  V30 24 2 24 25
M  V30 25 1 25 26
M  V30 26 2 26 27
M  V30 27 1 27 28
M  V30 28 1 27 29
M  V30 29 2 29 30
M  V30 30 1 30 31
M  V30 31 2 31 32
M  V30 32 1 21 2
M  V30 33 1 32 22
M  V30 34 1 18 9
M  V30 35 1 31 25
M  V30 36 1 1 33
M  V30 37 1 1 34
M  V30 38 1 1 35
M  V30 39 1 3 36
M  V30 40 1 4 37
M  V30 41 1 8 38
M  V30 42 1 10 39
M  V30 43 1 11 40
M  V30 44 1 12 41
M  V30 45 1 19 42
M  V30 46 1 19 43
M  V30 47 1 19 44
M  V30 48 1 20 45
M  V30 49 1 23 46
M  V30 50 1 24 47
M  V30 51 1 28 48
M  V30 52 1 28 49
M  V30 53 1 30 50
M  V30 54 1 32 51
M  V30 END BOND
M  V30 END CTAB
M  END
>  <Dataset>  (100) 
ChEMBL_Kinases

>  <Ligand_Instance>  (100) 
nan

>  <PDB_ID>  (100) 
nan

>  <Standardized_SMILES>  (100) 
Cc1ccc(C(=O)Nc2cccc(C(F)(F)F)c2C)cc1-c1ccc2nc(N)ncc2c1

>  <Name>  (100) 
nan

>  <Pocket>  (100) 
nan

>  <ATP_Site>  (100) 
nan

>  <Peripheral>  (100) 
nan

>  <Num_H_Atoms_ProtBoundConf>  (100) 
nan

>  <Num_Resolved_Atoms>  (100) 
nan

>  <Num_Not_Resolved_Atoms>  (100) 
nan

$$$$
CHEMBL215730
     RDKit          3D

  0  0  0  0  0  0  0  0  0  0999 V3000
M  V30 BEGIN CTAB
M  V30 COUNTS 82 86 0 0 0
M  V30 BEGIN ATOM
M  V30 1 C 5.649423 -6.270805 5.230343 0
M  V30 2 O 5.601013 -6.308051 3.832184 0
M  V30 3 C 4.831329 -5.483835 3.044974 0
M  V30 4 C 4.779414 -5.514245 1.678807 0
M  V30 5 C 4.002816 -4.682217 0.898995 0
M  V30 6 C 3.209863 -3.737705 1.557642 0
M  V30 7 N 2.422232 -2.894822 0.703254 0
M  V30 8 C 3.225285 -1.745188 0.413422 0
M  V30 9 O 4.376354 -1.804316 0.976297 0
M  V30 10 O 2.662504 -0.789765 -0.393030 0
M  V30 11 C 3.216305 0.384519 -0.813542 0
M  V30 12 C 3.879173 0.424798 -2.046692 0
M  V30 13 C 3.936659 -0.845986 -2.836658 0
M  V30 14 C 4.474164 1.568511 -2.561383 0
M  V30 15 C 4.394360 2.730345 -1.788995 0
M  V30 16 C 3.741205 2.724688 -0.555478 0
M  V30 17 C 3.160300 1.569483 -0.073450 0
M  V30 18 C 2.465435 1.556340 1.241715 0
M  V30 19 C 1.113174 -3.075003 0.190672 0
M  V30 20 C 1.154417 -3.738755 -1.032601 0
M  V30 21 C -0.013704 -4.032417 -1.734147 0
M  V30 22 N -1.210018 -3.660565 -1.207980 0
M  V30 23 C -1.230494 -3.020144 -0.025405 0
M  V30 24 N -2.463876 -2.623387 0.545402 0
M  V30 25 C -3.107124 -1.374823 0.333449 0
M  V30 26 C -4.322877 -0.988387 0.871834 0
M  V30 27 C -4.880850 0.245162 0.616968 0
M  V30 28 C -4.256507 1.168191 -0.191836 0
M  V30 29 N -4.911520 2.417621 -0.372373 0
M  V30 30 C -6.288433 2.684173 0.035103 0
M  V30 31 C -7.113857 3.216746 -1.110422 0
M  V30 32 N -6.473108 4.225988 -1.890488 0
M  V30 33 C -7.256159 4.539043 -3.048506 0
M  V30 34 C -5.151847 3.780387 -2.275442 0
M  V30 35 C -4.402271 3.644979 -0.949543 0
M  V30 36 C -3.047248 0.763233 -0.717669 0
M  V30 37 O -2.382887 1.654106 -1.537722 0
M  V30 38 C -1.152637 1.341080 -2.118938 0
M  V30 39 C -2.465278 -0.462527 -0.480855 0
M  V30 40 N -0.094605 -2.734782 0.656842 0
M  V30 41 C 3.244329 -3.685934 2.939326 0
M  V30 42 O 2.428020 -2.720283 3.510704 0
M  V30 43 C 2.426607 -2.624084 4.930700 0
M  V30 44 C 4.030697 -4.532032 3.673184 0
M  V30 45 H 5.901198 -7.313452 5.570026 0
M  V30 46 H 4.652957 -6.065385 5.690546 0
M  V30 47 H 6.410407 -5.604965 5.658476 0
M  V30 48 H 5.402473 -6.256346 1.173206 0
M  V30 49 H 4.023759 -4.777010 -0.190428 0
M  V30 50 H 3.969593 -1.742265 -2.197535 0
M  V30 51 H 4.832299 -0.786823 -3.471042 0
M  V30 52 H 3.040314 -0.857761 -3.509425 0
M  V30 53 H 4.972777 1.527946 -3.524310 0
M  V30 54 H 4.851812 3.645703 -2.163779 0
M  V30 55 H 3.716520 3.655472 -0.008009 0
M  V30 56 H 3.167709 1.010579 1.928869 0
M  V30 57 H 2.457604 2.596337 1.643253 0
M  V30 58 H 1.455180 1.150294 1.221156 0
M  V30 59 H 2.053469 -4.089357 -1.558358 0
M  V30 60 H -0.008913 -4.549206 -2.692339 0
M  V30 61 H -2.853822 -3.379803 1.156965 0
M  V30 62 H -4.734909 -1.777390 1.492185 0
M  V30 63 H -5.801171 0.310720 1.138139 0
M  V30 64 H -6.809041 1.857225 0.494528 0
M  V30 65 H -6.250721 3.513253 0.797087 0
M  V30 66 H -7.462944 2.413478 -1.791728 0
M  V30 67 H -8.038057 3.657293 -0.668320 0
M  V30 68 H -7.383724 3.642025 -3.715225 0
M  V30 69 H -8.192144 5.053484 -2.819222 0
M  V30 70 H -6.609544 5.228518 -3.666837 0
M  V30 71 H -5.181918 2.768672 -2.730763 0
M  V30 72 H -4.642974 4.442280 -2.984250 0
M  V30 73 H -3.311220 3.650125 -1.111017 0
M  V30 74 H -4.697148 4.498706 -0.269584 0
M  V30 75 H -1.195987 0.419431 -2.737936 0
M  V30 76 H -0.391920 1.161851 -1.315632 0
M  V30 77 H -0.797382 2.232730 -2.705425 0
M  V30 78 H -1.512574 -0.686373 -0.941335 0
M  V30 79 H 2.136039 -3.556886 5.434381 0
M  V30 80 H 1.860093 -1.731721 5.267188 0
M  V30 81 H 3.500335 -2.424443 5.211658 0
M  V30 82 H 3.965420 -4.385438 4.749897 0
M  V30 END ATOM
M  V30 BEGIN BOND
M  V30 1 1 1 2
M  V30 2 1 2 3
M  V30 3 2 3 4
M  V30 4 1 4 5
M  V30 5 2 5 6
M  V30 6 1 6 7
M  V30 7 1 7 8
M  V30 8 2 8 9
M  V30 9 1 8 10
M  V30 10 1 10 11
M  V30 11 2 11 12
M  V30 12 1 12 13
M  V30 13 1 12 14
M  V30 14 2 14 15
M  V30 15 1 15 16
M  V30 16 2 16 17
M  V30 17 1 17 18
M  V30 18 1 7 19
M  V30 19 2 19 20
M  V30 20 1 20 21
M  V30 21 2 21 22
M  V30 22 1 22 23
M  V30 23 1 23 24
M  V30 24 1 24 25
M  V30 25 2 25 26
M  V30 26 1 26 27
M  V30 27 2 27 28
M  V30 28 1 28 29
M  V30 29 1 29 30
M  V30 30 1 30 31
M  V30 31 1 31 32
M  V30 32 1 32 33
M  V30 33 1 32 34
M  V30 34 1 34 35
M  V30 35 1 28 36
M  V30 36 1 36 37
M  V30 37 1 37 38
M  V30 38 2 36 39
M  V30 39 2 23 40
M  V30 40 1 6 41
M  V30 41 1 41 42
M  V30 42 1 42 43
M  V30 43 2 41 44
M  V30 44 1 44 3
M  V30 45 1 17 11
M  V30 46 1 40 19
M  V30 47 1 39 25
M  V30 48 1 35 29
M  V30 49 1 1 45
M  V30 50 1 1 46
M  V30 51 1 1 47
M  V30 52 1 4 48
M  V30 53 1 5 49
M  V30 54 1 13 50
M  V30 55 1 13 51
M  V30 56 1 13 52
M  V30 57 1 14 53
M  V30 58 1 15 54
M  V30 59 1 16 55
M  V30 60 1 18 56
M  V30 61 1 18 57
M  V30 62 1 18 58
M  V30 63 1 20 59
M  V30 64 1 21 60
M  V30 65 1 24 61
M  V30 66 1 26 62
M  V30 67 1 27 63
M  V30 68 1 30 64
M  V30 69 1 30 65
M  V30 70 1 31 66
M  V30 71 1 31 67
M  V30 72 1 33 68
M  V30 73 1 33 69
M  V30 74 1 33 70
M  V30 75 1 34 71
M  V30 76 1 34 72
M  V30 77 1 35 73
M  V30 78 1 35 74
M  V30 79 1 38 75
M  V30 80 1 38 76
M  V30 81 1 38 77
M  V30 82 1 39 78
M  V30 83 1 43 79
M  V30 84 1 43 80
M  V30 85 1 43 81
M  V30 86 1 44 82
M  V30 END BOND
M  V30 END CTAB
M  END
>  <Dataset>  (101) 
ChEMBL_Kinases

>  <Ligand_Instance>  (101) 
nan

>  <PDB_ID>  (101) 
nan

>  <Standardized_SMILES>  (101) 
COc1ccc(N(C(=O)Oc2c(C)cccc2C)c2ccnc(Nc3ccc(N4CCN(C)CC4)c(OC)c3)n2)c(OC)c1

>  <Name>  (101) 
nan

>  <Pocket>  (101) 
nan

>  <ATP_Site>  (101) 
nan

>  <Peripheral>  (101) 
nan

>  <Num_H_Atoms_ProtBoundConf>  (101) 
nan

>  <Num_Resolved_Atoms>  (101) 
nan

>  <Num_Not_Resolved_Atoms>  (101) 
nan

$$$$
CHEMBL215726
     RDKit          3D

  0  0  0  0  0  0  0  0  0  0999 V3000
M  V30 BEGIN CTAB
M  V30 COUNTS 80 85 0 0 0
M  V30 BEGIN ATOM
M  V30 1 C 1.628492 -3.953023 0.447649 0
M  V30 2 C 0.669785 -5.054857 0.596043 0
M  V30 3 C 1.188718 -6.327871 0.663927 0
M  V30 4 C 0.359956 -7.415101 0.802591 0
M  V30 5 C -1.002658 -7.216807 0.873330 0
M  V30 6 C -1.573215 -5.965740 0.810486 0
M  V30 7 C -3.022687 -5.665836 0.878703 0
M  V30 8 C -0.699122 -4.891828 0.670000 0
M  V30 9 O -1.199793 -3.615468 0.600786 0
M  V30 10 C -1.549429 -2.985954 -0.579437 0
M  V30 11 O -1.412214 -3.596510 -1.688963 0
M  V30 12 N -2.045473 -1.661939 -0.391157 0
M  V30 13 C -2.207667 -0.959189 0.848786 0
M  V30 14 C -1.282010 -0.152537 1.480482 0
M  V30 15 C -1.634164 0.437307 2.675422 0
M  V30 16 C -2.875860 0.238362 3.241700 0
M  V30 17 C -3.829356 -0.575001 2.619156 0
M  V30 18 C -5.142730 -0.780888 3.226013 0
M  V30 19 C -5.740282 -2.001305 2.987844 0
M  V30 20 C -6.994651 -2.278125 3.530707 0
M  V30 21 C -7.626254 -1.304402 4.311969 0
M  V30 22 C -7.002729 -0.083237 4.536634 0
M  V30 23 C -5.757888 0.188700 3.996659 0
M  V30 24 C -3.456905 -1.155003 1.425413 0
M  V30 25 C -2.479012 -0.773590 -1.414217 0
M  V30 26 C -3.753327 -0.653654 -1.919363 0
M  V30 27 C -3.946982 0.267555 -2.903142 0
M  V30 28 N -2.925571 1.009780 -3.340379 0
M  V30 29 C -1.668896 0.926563 -2.877535 0
M  V30 30 N -0.660102 1.765214 -3.415768 0
M  V30 31 C 0.709220 1.813475 -3.050258 0
M  V30 32 C 1.299471 1.030086 -2.086414 0
M  V30 33 C 2.632175 1.096849 -1.749630 0
M  V30 34 C 3.459186 1.984438 -2.388828 0
M  V30 35 N 4.861586 2.101897 -2.086258 0
M  V30 36 C 5.804337 3.068553 -2.637105 0
M  V30 37 C 6.262228 3.932420 -1.524668 0
M  V30 38 N 6.674794 3.332622 -0.331902 0
M  V30 39 C 6.751411 4.198610 0.794337 0
M  V30 40 C 6.285332 2.002692 -0.060990 0
M  V30 41 C 5.598168 1.281718 -1.180786 0
M  V30 42 C 2.896064 2.773913 -3.350642 0
M  V30 43 C 1.557601 2.693703 -3.675579 0
M  V30 44 N -1.544776 0.015446 -1.924796 0
M  V30 45 H 2.242766 -3.889266 1.355951 0
M  V30 46 H 1.157082 -2.967995 0.280179 0
M  V30 47 H 2.258791 -4.211972 -0.447977 0
M  V30 48 H 2.273176 -6.494063 0.608015 0
M  V30 49 H 0.774286 -8.410269 0.855126 0
M  V30 50 H -1.706671 -8.031460 0.982494 0
M  V30 51 H -3.545313 -6.638271 0.980864 0
M  V30 52 H -3.361248 -5.227792 -0.091744 0
M  V30 53 H -3.243231 -4.983586 1.723750 0
M  V30 54 H -0.337413 -0.059091 0.957060 0
M  V30 55 H -0.892471 1.060035 3.144231 0
M  V30 56 H -3.087090 0.733986 4.185753 0
M  V30 57 H -5.336757 -2.813185 2.401844 0
M  V30 58 H -7.499206 -3.217359 3.371258 0
M  V30 59 H -8.595926 -1.545373 4.719312 0
M  V30 60 H -7.519282 0.647651 5.145596 0
M  V30 61 H -5.260899 1.146303 4.168639 0
M  V30 62 H -4.234719 -1.774489 0.988274 0
M  V30 63 H -4.500320 -1.307324 -1.487992 0
M  V30 64 H -4.943643 0.376163 -3.312956 0
M  V30 65 H -0.976254 2.428005 -4.178133 0
M  V30 66 H 0.713883 0.316817 -1.549105 0
M  V30 67 H 3.007116 0.444546 -0.979433 0
M  V30 68 H 6.652875 2.515076 -3.095757 0
M  V30 69 H 5.329251 3.729350 -3.401275 0
M  V30 70 H 7.095683 4.588212 -1.904249 0
M  V30 71 H 5.416974 4.641722 -1.287464 0
M  V30 72 H 7.810263 4.118641 1.180026 0
M  V30 73 H 6.118168 3.925764 1.639266 0
M  V30 74 H 6.652548 5.253900 0.481653 0
M  V30 75 H 7.167509 1.432221 0.297452 0
M  V30 76 H 5.566081 2.021409 0.785569 0
M  V30 77 H 6.424872 0.785028 -1.774418 0
M  V30 78 H 4.984397 0.430543 -0.833054 0
M  V30 79 H 3.430155 3.510992 -3.928689 0
M  V30 80 H 1.131209 3.344545 -4.457076 0
M  V30 END ATOM
M  V30 BEGIN BOND
M  V30 1 1 1 2
M  V30 2 2 2 3
M  V30 3 1 3 4
M  V30 4 2 4 5
M  V30 5 1 5 6
M  V30 6 1 6 7
M  V30 7 2 6 8
M  V30 8 1 8 9
M  V30 9 1 9 10
M  V30 10 2 10 11
M  V30 11 1 10 12
M  V30 12 1 12 13
M  V30 13 2 13 14
M  V30 14 1 14 15
M  V30 15 2 15 16
M  V30 16 1 16 17
M  V30 17 1 17 18
M  V30 18 2 18 19
M  V30 19 1 19 20
M  V30 20 2 20 21
M  V30 21 1 21 22
M  V30 22 2 22 23
M  V30 23 2 17 24
M  V30 24 1 12 25
M  V30 25 2 25 26
M  V30 26 1 26 27
M  V30 27 2 27 28
M  V30 28 1 28 29
M  V30 29 1 29 30
M  V30 30 1 30 31
M  V30 31 2 31 32
M  V30 32 1 32 33
M  V30 33 2 33 34
M  V30 34 1 34 35
M  V30 35 1 35 36
M  V30 36 1 36 37
M  V30 37 1 37 38
M  V30 38 1 38 39
M  V30 39 1 38 40
M  V30 40 1 40 41
M  V30 41 1 34 42
M  V30 42 2 42 43
M  V30 43 2 29 44
M  V30 44 1 8 2
M  V30 45 1 24 13
M  V30 46 1 44 25
M  V30 47 1 23 18
M  V30 48 1 43 31
M  V30 49 1 41 35
M  V30 50 1 1 45
M  V30 51 1 1 46
M  V30 52 1 1 47
M  V30 53 1 3 48
M  V30 54 1 4 49
M  V30 55 1 5 50
M  V30 56 1 7 51
M  V30 57 1 7 52
M  V30 58 1 7 53
M  V30 59 1 14 54
M  V30 60 1 15 55
M  V30 61 1 16 56
M  V30 62 1 19 57
M  V30 63 1 20 58
M  V30 64 1 21 59
M  V30 65 1 22 60
M  V30 66 1 23 61
M  V30 67 1 24 62
M  V30 68 1 26 63
M  V30 69 1 27 64
M  V30 70 1 30 65
M  V30 71 1 32 66
M  V30 72 1 33 67
M  V30 73 1 36 68
M  V30 74 1 36 69
M  V30 75 1 37 70
M  V30 76 1 37 71
M  V30 77 1 39 72
M  V30 78 1 39 73
M  V30 79 1 39 74
M  V30 80 1 40 75
M  V30 81 1 40 76
M  V30 82 1 41 77
M  V30 83 1 41 78
M  V30 84 1 42 79
M  V30 85 1 43 80
M  V30 END BOND
M  V30 END CTAB
M  END
>  <Dataset>  (102) 
ChEMBL_Kinases

>  <Ligand_Instance>  (102) 
nan

>  <PDB_ID>  (102) 
nan

>  <Standardized_SMILES>  (102) 
Cc1cccc(C)c1OC(=O)N(c1cccc(-c2ccccc2)c1)c1ccnc(Nc2ccc(N3CCN(C)CC3)cc2)n1

>  <Name>  (102) 
nan

>  <Pocket>  (102) 
nan

>  <ATP_Site>  (102) 
nan

>  <Peripheral>  (102) 
nan

>  <Num_H_Atoms_ProtBoundConf>  (102) 
nan

>  <Num_Resolved_Atoms>  (102) 
nan

>  <Num_Not_Resolved_Atoms>  (102) 
nan

$$$$
CHEMBL215691
     RDKit          3D

  0  0  0  0  0  0  0  0  0  0999 V3000
M  V30 BEGIN CTAB
M  V30 COUNTS 69 73 0 0 0
M  V30 BEGIN ATOM
M  V30 1 C -0.136433 -1.930972 5.325160 0
M  V30 2 C 0.066330 -0.578950 4.747125 0
M  V30 3 C 0.081811 0.571652 5.506521 0
M  V30 4 C 0.272167 1.829426 4.923089 0
M  V30 5 C 0.449082 1.900968 3.537524 0
M  V30 6 C 0.642460 3.227795 2.981069 0
M  V30 7 O 0.646428 4.205752 3.769693 0
M  V30 8 N 0.822051 3.417999 1.584624 0
M  V30 9 C 1.024663 4.599730 0.822931 0
M  V30 10 C 2.302641 5.061788 0.582660 0
M  V30 11 C 2.466876 6.214611 -0.161306 0
M  V30 12 C 1.341785 6.860169 -0.636024 0
M  V30 13 C 0.069252 6.380497 -0.383955 0
M  V30 14 C -1.105339 7.125993 -0.924958 0
M  V30 15 F -1.874243 6.375665 -1.775050 0
M  V30 16 F -1.883352 7.507394 0.166849 0
M  V30 17 F -0.714158 8.283690 -1.544740 0
M  V30 18 C -0.130470 5.234641 0.353673 0
M  V30 19 C -1.497683 4.755749 0.600573 0
M  V30 20 C 0.428390 0.732808 2.808436 0
M  V30 21 C 0.239135 -0.529547 3.378928 0
M  V30 22 C 0.245921 -1.650147 2.446149 0
M  V30 23 C -0.496096 -1.470973 1.277700 0
M  V30 24 C -0.542728 -2.484338 0.337140 0
M  V30 25 C 0.170477 -3.629917 0.636476 0
M  V30 26 N 0.129740 -4.610307 -0.266179 0
M  V30 27 C 0.751275 -5.796712 -0.164764 0
M  V30 28 N 0.618089 -6.760709 -1.224501 0
M  V30 29 C -0.210596 -6.380726 -2.360754 0
M  V30 30 C -1.625630 -6.157028 -1.995042 0
M  V30 31 C -2.415615 -5.203786 -2.813095 0
M  V30 32 N -1.663800 -4.075221 -3.257484 0
M  V30 33 C -2.409218 -3.007484 -3.829755 0
M  V30 34 C -0.579919 -4.578764 -4.080258 0
M  V30 35 C 0.380302 -5.254211 -3.132008 0
M  V30 36 N 1.476578 -6.009196 0.946501 0
M  V30 37 C 1.565182 -5.050031 1.916356 0
M  V30 38 C 0.913211 -3.843165 1.777855 0
M  V30 39 C 0.939549 -2.815370 2.694567 0
M  V30 40 H 0.753651 -2.367546 5.790338 0
M  V30 41 H -0.909836 -1.784237 6.134842 0
M  V30 42 H -0.633650 -2.596440 4.595338 0
M  V30 43 H -0.055957 0.506876 6.574069 0
M  V30 44 H 0.273270 2.695267 5.582631 0
M  V30 45 H 0.827706 2.653185 0.897766 0
M  V30 46 H 3.138968 4.505792 0.984517 0
M  V30 47 H 3.461817 6.600037 -0.365458 0
M  V30 48 H 1.422579 7.781058 -1.234051 0
M  V30 49 H -2.042127 4.575670 -0.362209 0
M  V30 50 H -1.481999 3.751438 1.100360 0
M  V30 51 H -2.122907 5.461786 1.180170 0
M  V30 52 H 0.567947 0.831089 1.747932 0
M  V30 53 H -1.044574 -0.544901 1.084347 0
M  V30 54 H -1.102484 -2.401734 -0.588577 0
M  V30 55 H 1.126819 -7.655133 -1.090146 0
M  V30 56 H -0.160617 -7.283080 -3.039738 0
M  V30 57 H -1.721416 -5.901107 -0.904771 0
M  V30 58 H -2.153394 -7.162507 -2.060179 0
M  V30 59 H -3.350633 -4.878745 -2.278321 0
M  V30 60 H -2.820707 -5.711322 -3.737449 0
M  V30 61 H -2.078626 -2.010790 -3.418077 0
M  V30 62 H -3.484027 -3.154744 -3.566979 0
M  V30 63 H -2.289556 -2.959165 -4.928702 0
M  V30 64 H -0.065618 -3.735668 -4.582250 0
M  V30 65 H -0.948792 -5.248027 -4.882012 0
M  V30 66 H 0.860042 -4.461745 -2.518410 0
M  V30 67 H 1.225914 -5.613574 -3.794653 0
M  V30 68 H 2.145157 -5.211447 2.814410 0
M  V30 69 H 1.513774 -2.954835 3.597859 0
M  V30 END ATOM
M  V30 BEGIN BOND
M  V30 1 1 1 2
M  V30 2 2 2 3
M  V30 3 1 3 4
M  V30 4 2 4 5
M  V30 5 1 5 6
M  V30 6 2 6 7
M  V30 7 1 6 8
M  V30 8 1 8 9
M  V30 9 2 9 10
M  V30 10 1 10 11
M  V30 11 2 11 12
M  V30 12 1 12 13
M  V30 13 1 13 14
M  V30 14 1 14 15
M  V30 15 1 14 16
M  V30 16 1 14 17
M  V30 17 2 13 18
M  V30 18 1 18 19
M  V30 19 1 5 20
M  V30 20 2 20 21
M  V30 21 1 21 22
M  V30 22 2 22 23
M  V30 23 1 23 24
M  V30 24 2 24 25
M  V30 25 1 25 26
M  V30 26 2 26 27
M  V30 27 1 27 28
M  V30 28 1 28 29
M  V30 29 1 29 30
M  V30 30 1 30 31
M  V30 31 1 31 32
M  V30 32 1 32 33
M  V30 33 1 32 34
M  V30 34 1 34 35
M  V30 35 1 27 36
M  V30 36 2 36 37
M  V30 37 1 37 38
M  V30 38 2 38 39
M  V30 39 1 21 2
M  V30 40 1 39 22
M  V30 41 1 18 9
M  V30 42 1 38 25
M  V30 43 1 35 29
M  V30 44 1 1 40
M  V30 45 1 1 41
M  V30 46 1 1 42
M  V30 47 1 3 43
M  V30 48 1 4 44
M  V30 49 1 8 45
M  V30 50 1 10 46
M  V30 51 1 11 47
M  V30 52 1 12 48
M  V30 53 1 19 49
M  V30 54 1 19 50
M  V30 55 1 19 51
M  V30 56 1 20 52
M  V30 57 1 23 53
M  V30 58 1 24 54
M  V30 59 1 28 55
M  V30 60 1 29 56
M  V30 61 1 30 57
M  V30 62 1 30 58
M  V30 63 1 31 59
M  V30 64 1 31 60
M  V30 65 1 33 61
M  V30 66 1 33 62
M  V30 67 1 33 63
M  V30 68 1 34 64
M  V30 69 1 34 65
M  V30 70 1 35 66
M  V30 71 1 35 67
M  V30 72 1 37 68
M  V30 73 1 39 69
M  V30 END BOND
M  V30 END CTAB
M  END
>  <Dataset>  (103) 
ChEMBL_Kinases

>  <Ligand_Instance>  (103) 
nan

>  <PDB_ID>  (103) 
nan

>  <Standardized_SMILES>  (103) 
Cc1ccc(C(=O)Nc2cccc(C(F)(F)F)c2C)cc1-c1ccc2nc(NC3CCN(C)CC3)ncc2c1

>  <Name>  (103) 
nan

>  <Pocket>  (103) 
nan

>  <ATP_Site>  (103) 
nan

>  <Peripheral>  (103) 
nan

>  <Num_H_Atoms_ProtBoundConf>  (103) 
nan

>  <Num_Resolved_Atoms>  (103) 
nan

>  <Num_Not_Resolved_Atoms>  (103) 
nan

$$$$
CHEMBL215680
     RDKit          3D

  0  0  0  0  0  0  0  0  0  0999 V3000
M  V30 BEGIN CTAB
M  V30 COUNTS 36 39 0 0 0
M  V30 BEGIN ATOM
M  V30 1 C -0.335342 -4.152582 0.586690 0
M  V30 2 C 1.132866 -4.026747 0.228841 0
M  V30 3 C 1.762000 -3.209723 1.304465 0
M  V30 4 N 2.306359 -3.713178 2.435095 0
M  V30 5 N 2.773704 -2.689137 3.164836 0
M  V30 6 C 2.510858 -1.555490 2.471519 0
M  V30 7 C 2.787595 -0.246898 2.786926 0
M  V30 8 C 2.387439 0.718721 1.856832 0
M  V30 9 C 1.746122 0.376026 0.679711 0
M  V30 10 C 1.425592 1.515616 -0.127075 0
M  V30 11 O 2.290706 2.346636 -0.629621 0
M  V30 12 C 1.715223 3.296886 -1.326487 0
M  V30 13 N 0.379515 3.052044 -1.262878 0
M  V30 14 C 0.172904 1.937160 -0.514115 0
M  V30 15 C -1.122719 1.341500 -0.206512 0
M  V30 16 C -1.810102 0.930549 -1.333193 0
M  V30 17 C -3.062131 0.339880 -1.242157 0
M  V30 18 C -3.578963 0.187348 0.035303 0
M  V30 19 C -2.913296 0.590285 1.194007 0
M  V30 20 C -1.675599 1.169403 1.038700 0
M  V30 21 C 1.504666 -0.947903 0.434687 0
M  V30 22 N 1.886499 -1.870324 1.322376 0
M  V30 23 H -0.754660 -3.122835 0.546104 0
M  V30 24 H -0.435847 -4.479392 1.653631 0
M  V30 25 H -0.851453 -4.838117 -0.118826 0
M  V30 26 H 1.613288 -5.025957 0.168126 0
M  V30 27 H 1.236394 -3.465100 -0.706992 0
M  V30 28 H 3.293077 0.006980 3.717537 0
M  V30 29 H 2.639425 1.741941 2.171977 0
M  V30 30 H 2.271734 4.091634 -1.828193 0
M  V30 31 H -1.447953 1.027314 -2.366432 0
M  V30 32 H -3.657814 -0.005148 -2.067126 0
M  V30 33 H -4.553209 -0.266446 0.182887 0
M  V30 34 H -3.343701 0.457070 2.173199 0
M  V30 35 H -1.081115 1.514310 1.870304 0
M  V30 36 H 1.001603 -1.153198 -0.499165 0
M  V30 END ATOM
M  V30 BEGIN BOND
M  V30 1 1 1 2
M  V30 2 1 2 3
M  V30 3 2 3 4
M  V30 4 1 4 5
M  V30 5 2 5 6
M  V30 6 1 6 7
M  V30 7 2 7 8
M  V30 8 1 8 9
M  V30 9 1 9 10
M  V30 10 1 10 11
M  V30 11 1 11 12
M  V30 12 2 12 13
M  V30 13 1 13 14
M  V30 14 1 14 15
M  V30 15 2 15 16
M  V30 16 1 16 17
M  V30 17 2 17 18
M  V30 18 1 18 19
M  V30 19 2 19 20
M  V30 20 2 9 21
M  V30 21 1 21 22
M  V30 22 1 22 3
M  V30 23 1 22 6
M  V30 24 2 14 10
M  V30 25 1 20 15
M  V30 26 1 1 23
M  V30 27 1 1 24
M  V30 28 1 1 25
M  V30 29 1 2 26
M  V30 30 1 2 27
M  V30 31 1 7 28
M  V30 32 1 8 29
M  V30 33 1 12 30
M  V30 34 1 16 31
M  V30 35 1 17 32
M  V30 36 1 18 33
M  V30 37 1 19 34
M  V30 38 1 20 35
M  V30 39 1 21 36
M  V30 END BOND
M  V30 END CTAB
M  END
>  <Dataset>  (104) 
ChEMBL_Kinases

>  <Ligand_Instance>  (104) 
nan

>  <PDB_ID>  (104) 
nan

>  <Standardized_SMILES>  (104) 
CCc1nnc2ccc(-c3ocnc3-c3ccccc3)cn12

>  <Name>  (104) 
nan

>  <Pocket>  (104) 
nan

>  <ATP_Site>  (104) 
nan

>  <Peripheral>  (104) 
nan

>  <Num_H_Atoms_ProtBoundConf>  (104) 
nan

>  <Num_Resolved_Atoms>  (104) 
nan

>  <Num_Not_Resolved_Atoms>  (104) 
nan

$$$$
CHEMBL215652
     RDKit          3D

  0  0  0  0  0  0  0  0  0  0999 V3000
M  V30 BEGIN CTAB
M  V30 COUNTS 39 42 0 0 0
M  V30 BEGIN ATOM
M  V30 1 C 1.419553 -4.480920 2.305395 0
M  V30 2 C 0.427348 -3.467964 1.768908 0
M  V30 3 C -0.945640 -4.083991 1.875240 0
M  V30 4 C 0.793729 -3.169844 0.342548 0
M  V30 5 N 0.814860 -3.999022 -0.726715 0
M  V30 6 N 1.187879 -3.373194 -1.811045 0
M  V30 7 C 1.420907 -2.097988 -1.460121 0
M  V30 8 C 1.829589 -0.939973 -2.109097 0
M  V30 9 C 1.980652 0.247456 -1.466263 0
M  V30 10 C 1.722360 0.345580 -0.093672 0
M  V30 11 C 1.913304 1.659274 0.505915 0
M  V30 12 O 2.957300 2.434366 0.699758 0
M  V30 13 C 2.589019 3.546127 1.297950 0
M  V30 14 N 1.264716 3.529447 1.516532 0
M  V30 15 C 0.821231 2.360004 1.030088 0
M  V30 16 C -0.626659 2.091492 1.158839 0
M  V30 17 C -1.225973 1.154237 1.971768 0
M  V30 18 C -2.596773 1.013441 1.977786 0
M  V30 19 C -3.377984 1.811840 1.169207 0
M  V30 20 F -4.713046 1.590390 1.254671 0
M  V30 21 C -2.793217 2.760794 0.344290 0
M  V30 22 C -1.399676 2.898550 0.342438 0
M  V30 23 Cl -0.743554 4.112961 -0.721869 0
M  V30 24 C 1.319114 -0.822016 0.515935 0
M  V30 25 N 1.179960 -1.974456 -0.143308 0
M  V30 26 H 1.028538 -5.512530 2.090324 0
M  V30 27 H 2.392227 -4.366529 1.769548 0
M  V30 28 H 1.538132 -4.409140 3.397217 0
M  V30 29 H 0.508217 -2.565471 2.406670 0
M  V30 30 H -0.926062 -5.140184 2.251612 0
M  V30 31 H -1.402706 -4.112240 0.874427 0
M  V30 32 H -1.553889 -3.484949 2.602025 0
M  V30 33 H 2.020483 -1.050568 -3.168328 0
M  V30 34 H 2.306189 1.080317 -2.092988 0
M  V30 35 H 3.299214 4.337997 1.557109 0
M  V30 36 H -0.562027 0.569859 2.580784 0
M  V30 37 H -2.939691 0.252296 2.647110 0
M  V30 38 H -3.466691 3.363850 -0.274315 0
M  V30 39 H 1.126033 -0.750103 1.559737 0
M  V30 END ATOM
M  V30 BEGIN BOND
M  V30 1 1 1 2
M  V30 2 1 2 3
M  V30 3 1 2 4
M  V30 4 2 4 5
M  V30 5 1 5 6
M  V30 6 2 6 7
M  V30 7 1 7 8
M  V30 8 2 8 9
M  V30 9 1 9 10
M  V30 10 1 10 11
M  V30 11 1 11 12
M  V30 12 1 12 13
M  V30 13 2 13 14
M  V30 14 1 14 15
M  V30 15 1 15 16
M  V30 16 2 16 17
M  V30 17 1 17 18
M  V30 18 2 18 19
M  V30 19 1 19 20
M  V30 20 1 19 21
M  V30 21 2 21 22
M  V30 22 1 22 23
M  V30 23 2 10 24
M  V30 24 1 24 25
M  V30 25 1 25 4
M  V30 26 1 25 7
M  V30 27 2 15 11
M  V30 28 1 22 16
M  V30 29 1 1 26
M  V30 30 1 1 27
M  V30 31 1 1 28
M  V30 32 1 2 29
M  V30 33 1 3 30
M  V30 34 1 3 31
M  V30 35 1 3 32
M  V30 36 1 8 33
M  V30 37 1 9 34
M  V30 38 1 13 35
M  V30 39 1 17 36
M  V30 40 1 18 37
M  V30 41 1 21 38
M  V30 42 1 24 39
M  V30 END BOND
M  V30 END CTAB
M  END
>  <Dataset>  (105) 
ChEMBL_Kinases

>  <Ligand_Instance>  (105) 
nan

>  <PDB_ID>  (105) 
nan

>  <Standardized_SMILES>  (105) 
CC(C)c1nnc2ccc(-c3ocnc3-c3ccc(F)cc3Cl)cn12

>  <Name>  (105) 
nan

>  <Pocket>  (105) 
nan

>  <ATP_Site>  (105) 
nan

>  <Peripheral>  (105) 
nan

>  <Num_H_Atoms_ProtBoundConf>  (105) 
nan

>  <Num_Resolved_Atoms>  (105) 
nan

>  <Num_Not_Resolved_Atoms>  (105) 
nan

$$$$
CHEMBL215651
     RDKit          3D

  0  0  0  0  0  0  0  0  0  0999 V3000
M  V30 BEGIN CTAB
M  V30 COUNTS 52 56 0 0 0
M  V30 BEGIN ATOM
M  V30 1 O 3.654154 -4.352563 -0.495612 0
M  V30 2 C 3.139018 -3.265664 -0.123534 0
M  V30 3 N 3.942646 -2.113969 0.097474 0
M  V30 4 C 3.500218 -0.814674 0.565562 0
M  V30 5 C 2.039984 -0.746458 0.732217 0
M  V30 6 C 1.538021 0.460103 1.111262 0
M  V30 7 C 2.226331 1.718053 1.362338 0
M  V30 8 C 3.220048 2.028460 2.259206 0
M  V30 9 C 3.761082 3.287776 2.377693 0
M  V30 10 C 3.300804 4.320333 1.564050 0
M  V30 11 C 2.288259 4.045320 0.637034 0
M  V30 12 C 1.785727 2.764407 0.563979 0
M  V30 13 Cl 0.519218 2.619905 -0.665644 0
M  V30 14 N 0.192653 0.566921 1.285070 0
M  V30 15 C -0.639770 -0.478859 1.094085 0
M  V30 16 N -2.044074 -0.473076 1.250791 0
M  V30 17 N -3.192814 -0.254071 0.501542 0
M  V30 18 C -3.207056 1.052055 -0.112089 0
M  V30 19 C -4.663746 1.390391 -0.387391 0
M  V30 20 O -5.327901 1.625613 0.834199 0
M  V30 21 C -4.750739 0.927062 1.878648 0
M  V30 22 C -4.318722 -0.447349 1.395099 0
M  V30 23 N -0.127986 -1.685898 0.713680 0
M  V30 24 C 1.205510 -1.823166 0.531976 0
M  V30 25 N 1.749608 -3.067871 0.110628 0
M  V30 26 C 0.875415 -4.173027 -0.089646 0
M  V30 27 C 0.377059 -4.239321 -1.396337 0
M  V30 28 Cl 0.788912 -3.072293 -2.656074 0
M  V30 29 C -0.478954 -5.228566 -1.796323 0
M  V30 30 C -0.888157 -6.214833 -0.905817 0
M  V30 31 C -0.392682 -6.139960 0.374216 0
M  V30 32 C 0.469668 -5.153050 0.797354 0
M  V30 33 Cl 1.147578 -4.978124 2.397282 0
M  V30 34 H 4.974903 -2.136702 -0.077058 0
M  V30 35 H 3.936028 -0.739385 1.606298 0
M  V30 36 H 3.939105 0.016996 -0.011249 0
M  V30 37 H 3.539994 1.202041 2.871300 0
M  V30 38 H 4.552415 3.409908 3.134664 0
M  V30 39 H 3.778401 5.282270 1.721167 0
M  V30 40 H 1.979812 4.890669 0.040015 0
M  V30 41 H -2.068989 -0.722330 2.282862 0
M  V30 42 H -2.714903 1.833898 0.475108 0
M  V30 43 H -2.717326 0.923207 -1.111231 0
M  V30 44 H -4.792168 2.318283 -0.977250 0
M  V30 45 H -5.109952 0.549124 -0.926642 0
M  V30 46 H -5.471002 0.841735 2.706527 0
M  V30 47 H -3.849001 1.489179 2.242307 0
M  V30 48 H -4.043194 -1.069682 2.262632 0
M  V30 49 H -5.146946 -0.888696 0.819790 0
M  V30 50 H -0.883338 -5.305543 -2.807160 0
M  V30 51 H -1.562521 -7.005199 -1.194574 0
M  V30 52 H -0.666286 -6.869921 1.119266 0
M  V30 END ATOM
M  V30 BEGIN BOND
M  V30 1 2 1 2
M  V30 2 1 2 3
M  V30 3 1 3 4
M  V30 4 1 4 5
M  V30 5 2 5 6
M  V30 6 1 6 7
M  V30 7 2 7 8
M  V30 8 1 8 9
M  V30 9 2 9 10
M  V30 10 1 10 11
M  V30 11 2 11 12
M  V30 12 1 12 13
M  V30 13 1 6 14
M  V30 14 2 14 15
M  V30 15 1 15 16
M  V30 16 1 16 17
M  V30 17 1 17 18
M  V30 18 1 18 19
M  V30 19 1 19 20
M  V30 20 1 20 21
M  V30 21 1 21 22
M  V30 22 1 15 23
M  V30 23 2 23 24
M  V30 24 1 24 25
M  V30 25 1 25 26
M  V30 26 2 26 27
M  V30 27 1 27 28
M  V30 28 1 27 29
M  V30 29 2 29 30
M  V30 30 1 30 31
M  V30 31 2 31 32
M  V30 32 1 32 33
M  V30 33 1 25 2
M  V30 34 1 32 26
M  V30 35 1 24 5
M  V30 36 1 12 7
M  V30 37 1 22 17
M  V30 38 1 3 34
M  V30 39 1 4 35
M  V30 40 1 4 36
M  V30 41 1 8 37
M  V30 42 1 9 38
M  V30 43 1 10 39
M  V30 44 1 11 40
M  V30 45 1 16 41
M  V30 46 1 18 42
M  V30 47 1 18 43
M  V30 48 1 19 44
M  V30 49 1 19 45
M  V30 50 1 21 46
M  V30 51 1 21 47
M  V30 52 1 22 48
M  V30 53 1 22 49
M  V30 54 1 29 50
M  V30 55 1 30 51
M  V30 56 1 31 52
M  V30 END BOND
M  V30 END CTAB
M  END
>  <Dataset>  (106) 
ChEMBL_Kinases

>  <Ligand_Instance>  (106) 
nan

>  <PDB_ID>  (106) 
nan

>  <Standardized_SMILES>  (106) 
O=C1NCc2c(-c3ccccc3Cl)nc(NN3CCOCC3)nc2N1c1c(Cl)cccc1Cl

>  <Name>  (106) 
nan

>  <Pocket>  (106) 
nan

>  <ATP_Site>  (106) 
nan

>  <Peripheral>  (106) 
nan

>  <Num_H_Atoms_ProtBoundConf>  (106) 
nan

>  <Num_Resolved_Atoms>  (106) 
nan

>  <Num_Not_Resolved_Atoms>  (106) 
nan

$$$$
CHEMBL215636
     RDKit          3D

  0  0  0  0  0  0  0  0  0  0999 V3000
M  V30 BEGIN CTAB
M  V30 COUNTS 75 79 0 0 0
M  V30 BEGIN ATOM
M  V30 1 C 2.568922 -2.064535 -0.552336 0
M  V30 2 O 2.401587 -2.111843 0.848817 0
M  V30 3 C 1.289886 -2.732021 1.428024 0
M  V30 4 C 0.339122 -3.257083 0.583834 0
M  V30 5 C -0.815673 -3.891992 0.958907 0
M  V30 6 C -1.831697 -4.434324 0.162917 0
M  V30 7 N -1.523348 -4.291588 -1.148643 0
M  V30 8 C -1.279339 -4.178676 -2.501965 0
M  V30 9 C -0.760827 -2.940135 -2.905662 0
M  V30 10 C -0.514920 -2.946711 -4.262396 0
M  V30 11 C 0.067533 -1.791206 -5.046361 0
M  V30 12 C -0.960786 -0.728819 -5.231115 0
M  V30 13 O -2.055418 -1.092514 -5.754799 0
M  V30 14 N -0.654572 0.587617 -4.813882 0
M  V30 15 C -1.165499 1.923207 -4.719742 0
M  V30 16 C -1.107326 2.979664 -5.590716 0
M  V30 17 C -1.700133 4.169193 -5.234616 0
M  V30 18 C -2.329211 4.274302 -4.030665 0
M  V30 19 C -2.422018 3.239590 -3.104135 0
M  V30 20 Cl -3.247711 3.452868 -1.563276 0
M  V30 21 C -1.817829 2.048085 -3.483344 0
M  V30 22 N -0.888426 -4.173812 -4.638912 0
M  V30 23 N -1.328168 -4.886820 -3.637192 0
M  V30 24 N -2.858353 -4.986373 0.826889 0
M  V30 25 C -2.997988 -5.063349 2.136756 0
M  V30 26 N -2.022417 -4.542230 2.863368 0
M  V30 27 C -0.949135 -3.965837 2.351215 0
M  V30 28 C -0.027170 -3.460165 3.262885 0
M  V30 29 C 1.109130 -2.834170 2.788843 0
M  V30 30 O 2.035875 -2.332887 3.647335 0
M  V30 31 C 2.100082 -2.286878 5.010736 0
M  V30 32 C 1.129604 -1.495604 5.797097 0
M  V30 33 C 1.271631 -0.021373 5.507176 0
M  V30 34 N 1.055750 0.397573 4.160070 0
M  V30 35 C 1.460509 1.824244 4.093355 0
M  V30 36 C 1.685777 2.211220 2.653606 0
M  V30 37 C 0.370019 2.010560 1.932219 0
M  V30 38 C 0.515920 1.263164 0.627087 0
M  V30 39 O 1.375382 2.028663 -0.186127 0
M  V30 40 C -0.711369 1.519970 2.826243 0
M  V30 41 C -0.350521 0.417383 3.773786 0
M  V30 42 H 2.901105 -3.029915 -0.935806 0
M  V30 43 H 3.351616 -1.272517 -0.729277 0
M  V30 44 H 1.654269 -1.660820 -1.010369 0
M  V30 45 H 0.499202 -3.184799 -0.460147 0
M  V30 46 H -2.523037 -4.625981 -1.423258 0
M  V30 47 H -0.539103 -2.017970 -2.330352 0
M  V30 48 H 0.457144 -2.138950 -6.005357 0
M  V30 49 H 0.863840 -1.395982 -4.395501 0
M  V30 50 H 0.310779 0.759554 -4.395594 0
M  V30 51 H -0.573406 2.721966 -6.492028 0
M  V30 52 H -1.629215 4.973858 -5.950305 0
M  V30 53 H -2.807351 5.222932 -3.730340 0
M  V30 54 H -1.929942 1.273926 -2.707006 0
M  V30 55 H -0.856871 -4.575706 -5.584844 0
M  V30 56 H -3.920996 -5.559844 2.367217 0
M  V30 57 H -0.218228 -3.574771 4.320987 0
M  V30 58 H 2.144152 -3.352941 5.388917 0
M  V30 59 H 3.136036 -1.904604 5.279300 0
M  V30 60 H 0.091061 -1.813286 5.810327 0
M  V30 61 H 1.454112 -1.588779 6.884792 0
M  V30 62 H 0.559461 0.582676 6.141089 0
M  V30 63 H 2.309144 0.312841 5.812143 0
M  V30 64 H 0.659623 2.405312 4.538150 0
M  V30 65 H 2.380380 2.018736 4.657346 0
M  V30 66 H 2.039812 3.257889 2.640142 0
M  V30 67 H 2.447543 1.611318 2.147564 0
M  V30 68 H 0.061515 3.055897 1.614996 0
M  V30 69 H 0.940167 0.260412 0.850483 0
M  V30 70 H -0.447596 1.205318 0.093921 0
M  V30 71 H 2.164518 1.469026 -0.345412 0
M  V30 72 H -1.547816 1.171726 2.155746 0
M  V30 73 H -1.164198 2.409824 3.370223 0
M  V30 74 H -0.641335 -0.557226 3.372351 0
M  V30 75 H -0.927142 0.623410 4.715470 0
M  V30 END ATOM
M  V30 BEGIN BOND
M  V30 1 1 1 2
M  V30 2 1 2 3
M  V30 3 2 3 4
M  V30 4 1 4 5
M  V30 5 2 5 6
M  V30 6 1 6 7
M  V30 7 1 7 8
M  V30 8 1 8 9
M  V30 9 2 9 10
M  V30 10 1 10 11
M  V30 11 1 11 12
M  V30 12 2 12 13
M  V30 13 1 12 14
M  V30 14 1 14 15
M  V30 15 2 15 16
M  V30 16 1 16 17
M  V30 17 2 17 18
M  V30 18 1 18 19
M  V30 19 1 19 20
M  V30 20 2 19 21
M  V30 21 1 10 22
M  V30 22 1 22 23
M  V30 23 1 6 24
M  V30 24 2 24 25
M  V30 25 1 25 26
M  V30 26 2 26 27
M  V30 27 1 27 28
M  V30 28 2 28 29
M  V30 29 1 29 30
M  V30 30 1 30 31
M  V30 31 1 31 32
M  V30 32 1 32 33
M  V30 33 1 33 34
M  V30 34 1 34 35
M  V30 35 1 35 36
M  V30 36 1 36 37
M  V30 37 1 37 38
M  V30 38 1 38 39
M  V30 39 1 37 40
M  V30 40 1 40 41
M  V30 41 1 29 3
M  V30 42 1 41 34
M  V30 43 1 27 5
M  V30 44 2 23 8
M  V30 45 1 21 15
M  V30 46 1 1 42
M  V30 47 1 1 43
M  V30 48 1 1 44
M  V30 49 1 4 45
M  V30 50 1 7 46
M  V30 51 1 9 47
M  V30 52 1 11 48
M  V30 53 1 11 49
M  V30 54 1 14 50
M  V30 55 1 16 51
M  V30 56 1 17 52
M  V30 57 1 18 53
M  V30 58 1 21 54
M  V30 59 1 22 55
M  V30 60 1 25 56
M  V30 61 1 28 57
M  V30 62 1 31 58
M  V30 63 1 31 59
M  V30 64 1 32 60
M  V30 65 1 32 61
M  V30 66 1 33 62
M  V30 67 1 33 63
M  V30 68 1 35 64
M  V30 69 1 35 65
M  V30 70 1 36 66
M  V30 71 1 36 67
M  V30 72 1 37 68
M  V30 73 1 38 69
M  V30 74 1 38 70
M  V30 75 1 39 71
M  V30 76 1 40 72
M  V30 77 1 40 73
M  V30 78 1 41 74
M  V30 79 1 41 75
M  V30 END BOND
M  V30 END CTAB
M  END
>  <Dataset>  (107) 
ChEMBL_Kinases

>  <Ligand_Instance>  (107) 
nan

>  <PDB_ID>  (107) 
nan

>  <Standardized_SMILES>  (107) 
COc1cc2c(Nc3cc(CC(=O)Nc4cccc(Cl)c4)[nH]n3)ncnc2cc1OCCCN1CCC(CO)CC1

>  <Name>  (107) 
nan

>  <Pocket>  (107) 
nan

>  <ATP_Site>  (107) 
nan

>  <Peripheral>  (107) 
nan

>  <Num_H_Atoms_ProtBoundConf>  (107) 
nan

>  <Num_Resolved_Atoms>  (107) 
nan

>  <Num_Not_Resolved_Atoms>  (107) 
nan

$$$$
CHEMBL215506
     RDKit          3D

  0  0  0  0  0  0  0  0  0  0999 V3000
M  V30 BEGIN CTAB
M  V30 COUNTS 41 45 0 0 0
M  V30 BEGIN ATOM
M  V30 1 C 0.761182 -2.830588 3.970515 0
M  V30 2 S 1.888934 -1.409260 3.788602 0
M  V30 3 C 3.071972 -1.839554 2.521679 0
M  V30 4 C 4.230303 -2.465581 2.895174 0
M  V30 5 C 5.175584 -2.817782 1.948894 0
M  V30 6 C 4.913591 -2.518865 0.624072 0
M  V30 7 C 3.746201 -1.886214 0.234040 0
M  V30 8 C 2.817836 -1.544303 1.194820 0
M  V30 9 C 1.580241 -0.876623 0.804991 0
M  V30 10 C 1.553622 0.502442 0.763909 0
M  V30 11 C 0.387999 1.142723 0.396499 0
M  V30 12 N 0.099947 2.451447 0.278142 0
M  V30 13 C -1.203254 2.529396 -0.117342 0
M  V30 14 C -1.897232 3.683533 -0.354586 0
M  V30 15 C -3.233443 3.623677 -0.756721 0
M  V30 16 C -3.821547 2.361688 -0.904119 0
M  V30 17 O -5.143448 2.291966 -1.301689 0
M  V30 18 C -3.042990 1.258652 -0.642557 0
M  V30 19 C -1.739155 1.267649 -0.248980 0
M  V30 20 C -0.731749 0.410243 0.075838 0
M  V30 21 C -0.713818 -0.937775 0.113551 0
M  V30 22 C 0.435044 -1.596362 0.476337 0
M  V30 23 C 0.287514 -3.066347 0.466996 0
M  V30 24 O 1.151889 -3.914179 0.748391 0
M  V30 25 N -1.078828 -3.243214 0.058532 0
M  V30 26 C -1.671537 -1.974611 -0.150888 0
M  V30 27 O -2.850935 -1.994843 -0.506638 0
M  V30 28 H 1.155835 -3.738472 3.492768 0
M  V30 29 H 0.707180 -3.083103 5.069144 0
M  V30 30 H -0.236217 -2.598031 3.564896 0
M  V30 31 H 4.500797 -2.730156 3.915781 0
M  V30 32 H 6.106618 -3.316176 2.211350 0
M  V30 33 H 5.651147 -2.792747 -0.121557 0
M  V30 34 H 3.570446 -1.666003 -0.809850 0
M  V30 35 H 2.444931 1.073652 1.019438 0
M  V30 36 H 0.773776 3.227441 0.463083 0
M  V30 37 H -1.476526 4.653739 -0.250761 0
M  V30 38 H -3.803467 4.517792 -0.950300 0
M  V30 39 H -5.820541 2.639028 -0.624250 0
M  V30 40 H -3.558854 0.341444 -0.776383 0
M  V30 41 H -1.436210 -4.231775 -0.025735 0
M  V30 END ATOM
M  V30 BEGIN BOND
M  V30 1 1 1 2
M  V30 2 1 2 3
M  V30 3 2 3 4
M  V30 4 1 4 5
M  V30 5 2 5 6
M  V30 6 1 6 7
M  V30 7 2 7 8
M  V30 8 1 8 9
M  V30 9 2 9 10
M  V30 10 1 10 11
M  V30 11 1 11 12
M  V30 12 1 12 13
M  V30 13 2 13 14
M  V30 14 1 14 15
M  V30 15 2 15 16
M  V30 16 1 16 17
M  V30 17 1 16 18
M  V30 18 2 18 19
M  V30 19 1 19 20
M  V30 20 1 20 21
M  V30 21 2 21 22
M  V30 22 1 22 23
M  V30 23 2 23 24
M  V30 24 1 23 25
M  V30 25 1 25 26
M  V30 26 2 26 27
M  V30 27 1 8 3
M  V30 28 1 22 9
M  V30 29 2 20 11
M  V30 30 1 26 21
M  V30 31 1 19 13
M  V30 32 1 1 28
M  V30 33 1 1 29
M  V30 34 1 1 30
M  V30 35 1 4 31
M  V30 36 1 5 32
M  V30 37 1 6 33
M  V30 38 1 7 34
M  V30 39 1 10 35
M  V30 40 1 12 36
M  V30 41 1 14 37
M  V30 42 1 15 38
M  V30 43 1 17 39
M  V30 44 1 18 40
M  V30 45 1 25 41
M  V30 END BOND
M  V30 END CTAB
M  END
>  <Dataset>  (108) 
ChEMBL_Kinases

>  <Ligand_Instance>  (108) 
nan

>  <PDB_ID>  (108) 
nan

>  <Standardized_SMILES>  (108) 
CSc1ccccc1-c1cc2[nH]c3ccc(O)cc3c2c2c1C(=O)NC2=O

>  <Name>  (108) 
nan

>  <Pocket>  (108) 
nan

>  <ATP_Site>  (108) 
nan

>  <Peripheral>  (108) 
nan

>  <Num_H_Atoms_ProtBoundConf>  (108) 
nan

>  <Num_Resolved_Atoms>  (108) 
nan

>  <Num_Not_Resolved_Atoms>  (108) 
nan

$$$$
CHEMBL215495
     RDKit          3D

  0  0  0  0  0  0  0  0  0  0999 V3000
M  V30 BEGIN CTAB
M  V30 COUNTS 70 73 0 0 0
M  V30 BEGIN ATOM
M  V30 1 C 2.876171 -5.368213 1.614507 0
M  V30 2 C 1.620910 -5.033223 0.897673 0
M  V30 3 C 1.666958 -4.768268 -0.553035 0
M  V30 4 N 2.420057 -3.678389 -1.061417 0
M  V30 5 C 3.799069 -3.819936 -0.974146 0
M  V30 6 C 4.402270 -4.909892 -1.836409 0
M  V30 7 O 5.794377 -4.922191 -1.634767 0
M  V30 8 C 1.837129 -3.232964 -2.263826 0
M  V30 9 C 2.432217 -2.079404 -2.967878 0
M  V30 10 C 2.473613 -0.784679 -2.210763 0
M  V30 11 O 1.179506 -0.344469 -1.840115 0
M  V30 12 C 1.041929 0.839311 -1.132990 0
M  V30 13 C -0.223751 1.273593 -0.765575 0
M  V30 14 C -0.341477 2.452214 -0.063599 0
M  V30 15 C 0.721819 3.239607 0.303804 0
M  V30 16 C 0.448834 4.389869 1.001041 0
M  V30 17 N -0.805966 4.879217 1.407408 0
M  V30 18 C -2.164395 4.562738 1.376023 0
M  V30 19 C -2.811383 3.831857 2.381071 0
M  V30 20 C -4.163955 3.656670 2.067035 0
M  V30 21 C -5.143428 2.928211 2.913955 0
M  V30 22 C -5.011221 1.485137 2.497025 0
M  V30 23 O -4.108116 1.806527 1.661202 0
M  V30 24 N -5.595300 0.256339 2.836449 0
M  V30 25 C -5.083311 -0.855212 2.112227 0
M  V30 26 C -5.495499 -1.416238 0.908618 0
M  V30 27 C -4.833485 -2.508643 0.396983 0
M  V30 28 C -3.762791 -3.043360 1.080556 0
M  V30 29 C -3.312276 -2.526284 2.278532 0
M  V30 30 F -2.253431 -3.087923 2.915303 0
M  V30 31 C -3.989409 -1.432655 2.772645 0
M  V30 32 N -4.275072 4.289889 0.886189 0
M  V30 33 N -3.134035 4.814560 0.479166 0
M  V30 34 N 1.527488 5.118788 1.330130 0
M  V30 35 C 2.765596 4.737145 0.996021 0
M  V30 36 N 2.981210 3.602526 0.313388 0
M  V30 37 C 1.977498 2.808070 -0.061058 0
M  V30 38 C 2.138480 1.628197 -0.767622 0
M  V30 39 H 2.556939 -6.067415 2.467123 0
M  V30 40 H 3.361705 -4.519512 2.146599 0
M  V30 41 H 3.548005 -5.997048 1.022750 0
M  V30 42 H 0.926287 -5.933763 1.007164 0
M  V30 43 H 1.056899 -4.224054 1.441430 0
M  V30 44 H 2.007394 -5.750277 -1.035368 0
M  V30 45 H 0.585631 -4.726799 -0.893940 0
M  V30 46 H 4.361447 -2.856298 -1.260327 0
M  V30 47 H 4.141004 -3.975008 0.051583 0
M  V30 48 H 4.074522 -5.921387 -1.493928 0
M  V30 49 H 4.161618 -4.842684 -2.895792 0
M  V30 50 H 6.264163 -4.254945 -2.173530 0
M  V30 51 H 1.674848 -4.042636 -3.026155 0
M  V30 52 H 0.776537 -2.937617 -2.001583 0
M  V30 53 H 1.789801 -1.861777 -3.873256 0
M  V30 54 H 3.412476 -2.341004 -3.415690 0
M  V30 55 H 3.048217 -0.871997 -1.294544 0
M  V30 56 H 2.846037 -0.015578 -2.919335 0
M  V30 57 H -1.065466 0.658265 -1.051956 0
M  V30 58 H -1.351458 2.703416 0.172736 0
M  V30 59 H -0.851196 5.788165 1.915689 0
M  V30 60 H -2.346981 3.447130 3.283068 0
M  V30 61 H -4.964400 3.080672 3.983554 0
M  V30 62 H -6.162233 3.288692 2.681352 0
M  V30 63 H -6.296247 0.481160 3.574389 0
M  V30 64 H -6.353437 -0.878842 0.496427 0
M  V30 65 H -5.229350 -2.872159 -0.543039 0
M  V30 66 H -3.272862 -3.915364 0.624945 0
M  V30 67 H -3.577481 -1.074257 3.729155 0
M  V30 68 H -5.184550 4.344315 0.367975 0
M  V30 69 H 3.619310 5.350120 1.277250 0
M  V30 70 H 3.127758 1.315638 -1.039991 0
M  V30 END ATOM
M  V30 BEGIN BOND
M  V30 1 1 1 2
M  V30 2 1 2 3
M  V30 3 1 3 4
M  V30 4 1 4 5
M  V30 5 1 5 6
M  V30 6 1 6 7
M  V30 7 1 4 8
M  V30 8 1 8 9
M  V30 9 1 9 10
M  V30 10 1 10 11
M  V30 11 1 11 12
M  V30 12 2 12 13
M  V30 13 1 13 14
M  V30 14 2 14 15
M  V30 15 1 15 16
M  V30 16 1 16 17
M  V30 17 1 17 18
M  V30 18 1 18 19
M  V30 19 2 19 20
M  V30 20 1 20 21
M  V30 21 1 21 22
M  V30 22 2 22 23
M  V30 23 1 22 24
M  V30 24 1 24 25
M  V30 25 2 25 26
M  V30 26 1 26 27
M  V30 27 2 27 28
M  V30 28 1 28 29
M  V30 29 1 29 30
M  V30 30 2 29 31
M  V30 31 1 20 32
M  V30 32 1 32 33
M  V30 33 2 16 34
M  V30 34 1 34 35
M  V30 35 2 35 36
M  V30 36 1 36 37
M  V30 37 2 37 38
M  V30 38 1 38 12
M  V30 39 1 37 15
M  V30 40 2 33 18
M  V30 41 1 31 25
M  V30 42 1 1 39
M  V30 43 1 1 40
M  V30 44 1 1 41
M  V30 45 1 2 42
M  V30 46 1 2 43
M  V30 47 1 3 44
M  V30 48 1 3 45
M  V30 49 1 5 46
M  V30 50 1 5 47
M  V30 51 1 6 48
M  V30 52 1 6 49
M  V30 53 1 7 50
M  V30 54 1 8 51
M  V30 55 1 8 52
M  V30 56 1 9 53
M  V30 57 1 9 54
M  V30 58 1 10 55
M  V30 59 1 10 56
M  V30 60 1 13 57
M  V30 61 1 14 58
M  V30 62 1 17 59
M  V30 63 1 19 60
M  V30 64 1 21 61
M  V30 65 1 21 62
M  V30 66 1 24 63
M  V30 67 1 26 64
M  V30 68 1 27 65
M  V30 69 1 28 66
M  V30 70 1 31 67
M  V30 71 1 32 68
M  V30 72 1 35 69
M  V30 73 1 38 70
M  V30 END BOND
M  V30 END CTAB
M  END
>  <Dataset>  (109) 
ChEMBL_Kinases

>  <Ligand_Instance>  (109) 
nan

>  <PDB_ID>  (109) 
nan

>  <Standardized_SMILES>  (109) 
CCCN(CCO)CCCOc1ccc2c(Nc3cc(CC(=O)Nc4cccc(F)c4)[nH]n3)ncnc2c1

>  <Name>  (109) 
nan

>  <Pocket>  (109) 
nan

>  <ATP_Site>  (109) 
nan

>  <Peripheral>  (109) 
nan

>  <Num_H_Atoms_ProtBoundConf>  (109) 
nan

>  <Num_Resolved_Atoms>  (109) 
nan

>  <Num_Not_Resolved_Atoms>  (109) 
nan

$$$$
CHEMBL215411
     RDKit          3D

  0  0  0  0  0  0  0  0  0  0999 V3000
M  V30 BEGIN CTAB
M  V30 COUNTS 86 90 0 0 0
M  V30 BEGIN ATOM
M  V30 1 C -3.296766 -7.746205 0.664547 0
M  V30 2 O -2.391757 -6.670365 0.713120 0
M  V30 3 C -2.750080 -5.331037 0.837414 0
M  V30 4 C -1.696158 -4.439484 0.864554 0
M  V30 5 C -2.057305 -3.098083 0.990581 0
M  V30 6 C -3.409443 -2.741622 1.078395 0
M  V30 7 N -3.535506 -1.332765 1.195109 0
M  V30 8 C -3.625706 -0.963394 -0.188839 0
M  V30 9 O -3.744953 0.178996 -0.698211 0
M  V30 10 O -3.706981 -0.679596 -1.528704 0
M  V30 11 C -3.839425 0.588503 -2.063428 0
M  V30 12 C -2.691791 1.323767 -2.399820 0
M  V30 13 C -1.380493 0.653429 -2.149052 0
M  V30 14 C -2.780514 2.602075 -2.940367 0
M  V30 15 C -4.041756 3.162939 -3.151801 0
M  V30 16 C -5.176569 2.450826 -2.826065 0
M  V30 17 C -5.082499 1.183222 -2.289951 0
M  V30 18 C -6.316600 0.438886 -1.947904 0
M  V30 19 C -3.608348 -0.175264 2.012348 0
M  V30 20 C -4.730317 0.425027 2.523779 0
M  V30 21 C -4.502415 1.550775 3.276647 0
M  V30 22 N -3.262354 2.006156 3.480178 0
M  V30 23 C -2.160848 1.426013 2.984672 0
M  V30 24 N -0.877669 1.981236 3.227073 0
M  V30 25 C 0.371832 1.423089 2.857984 0
M  V30 26 C 1.531521 2.185033 2.899591 0
M  V30 27 C 2.773641 1.717620 2.575707 0
M  V30 28 C 2.878951 0.401286 2.182790 0
M  V30 29 O 4.126272 -0.115869 1.849445 0
M  V30 30 C 5.335413 0.578563 1.853611 0
M  V30 31 C 6.488299 -0.334079 1.431037 0
M  V30 32 C 6.226285 -0.868100 0.030881 0
M  V30 33 N 6.129060 0.152611 -0.962267 0
M  V30 34 C 7.343701 0.850209 -1.258876 0
M  V30 35 C 7.019030 2.000311 -2.163106 0
M  V30 36 C 6.622919 1.482171 -3.509486 0
M  V30 37 C 6.059346 0.101221 -3.427837 0
M  V30 38 C 5.396115 -0.220387 -2.122330 0
M  V30 39 C 1.782831 -0.456908 2.104729 0
M  V30 40 F 1.879642 -1.740487 1.722028 0
M  V30 41 C 0.582828 0.121452 2.453868 0
M  V30 42 N -2.415358 0.339507 2.261562 0
M  V30 43 C -4.437780 -3.658165 1.048048 0
M  V30 44 O -5.717178 -3.149157 1.144743 0
M  V30 45 C -6.834859 -3.999900 1.125754 0
M  V30 46 C -4.074958 -4.981524 0.923514 0
M  V30 47 H -3.944552 -7.837975 1.543631 0
M  V30 48 H -3.927128 -7.692609 -0.262863 0
M  V30 49 H -2.706979 -8.669040 0.565866 0
M  V30 50 H -0.682549 -4.761287 0.797967 0
M  V30 51 H -1.216936 -2.404857 1.007559 0
M  V30 52 H -0.691117 0.998099 -2.938635 0
M  V30 53 H -0.924556 0.971125 -1.181568 0
M  V30 54 H -1.471414 -0.446702 -2.222765 0
M  V30 55 H -1.813192 3.033083 -3.144199 0
M  V30 56 H -3.975619 4.163225 -3.575265 0
M  V30 57 H -6.112222 2.952523 -3.023280 0
M  V30 58 H -7.124241 0.593959 -2.698844 0
M  V30 59 H -6.114099 -0.651973 -1.860261 0
M  V30 60 H -6.660314 0.805445 -0.951066 0
M  V30 61 H -5.673570 -0.043509 2.286831 0
M  V30 62 H -5.369126 2.045784 3.690224 0
M  V30 63 H -0.848916 2.902044 3.731124 0
M  V30 64 H 1.416780 3.218515 3.210755 0
M  V30 65 H 3.609299 2.392866 2.640497 0
M  V30 66 H 5.348816 1.420790 1.118144 0
M  V30 67 H 5.581754 1.011208 2.839253 0
M  V30 68 H 7.421988 0.253856 1.430281 0
M  V30 69 H 6.611297 -1.172433 2.121768 0
M  V30 70 H 5.249571 -1.420411 0.046568 0
M  V30 71 H 7.007977 -1.616037 -0.205035 0
M  V30 72 H 8.071246 0.189782 -1.781399 0
M  V30 73 H 7.791073 1.253172 -0.317890 0
M  V30 74 H 6.183408 2.595195 -1.722453 0
M  V30 75 H 7.932348 2.654539 -2.242502 0
M  V30 76 H 7.515435 1.462094 -4.199202 0
M  V30 77 H 5.909351 2.210574 -3.970938 0
M  V30 78 H 5.280228 0.007616 -4.214328 0
M  V30 79 H 6.837607 -0.666713 -3.693813 0
M  V30 80 H 5.232802 -1.331656 -2.126688 0
M  V30 81 H 4.398043 0.295506 -2.127530 0
M  V30 82 H -0.260439 -0.550617 2.395636 0
M  V30 83 H -6.721203 -4.910943 0.536392 0
M  V30 84 H -7.073138 -4.288400 2.187372 0
M  V30 85 H -7.717751 -3.418052 0.770156 0
M  V30 86 H -4.883781 -5.698316 0.902215 0
M  V30 END ATOM
M  V30 BEGIN BOND
M  V30 1 1 1 2
M  V30 2 1 2 3
M  V30 3 2 3 4
M  V30 4 1 4 5
M  V30 5 2 5 6
M  V30 6 1 6 7
M  V30 7 1 7 8
M  V30 8 2 8 9
M  V30 9 1 8 10
M  V30 10 1 10 11
M  V30 11 2 11 12
M  V30 12 1 12 13
M  V30 13 1 12 14
M  V30 14 2 14 15
M  V30 15 1 15 16
M  V30 16 2 16 17
M  V30 17 1 17 18
M  V30 18 1 7 19
M  V30 19 2 19 20
M  V30 20 1 20 21
M  V30 21 2 21 22
M  V30 22 1 22 23
M  V30 23 1 23 24
M  V30 24 1 24 25
M  V30 25 2 25 26
M  V30 26 1 26 27
M  V30 27 2 27 28
M  V30 28 1 28 29
M  V30 29 1 29 30
M  V30 30 1 30 31
M  V30 31 1 31 32
M  V30 32 1 32 33
M  V30 33 1 33 34
M  V30 34 1 34 35
M  V30 35 1 35 36
M  V30 36 1 36 37
M  V30 37 1 37 38
M  V30 38 1 28 39
M  V30 39 1 39 40
M  V30 40 2 39 41
M  V30 41 2 23 42
M  V30 42 1 6 43
M  V30 43 1 43 44
M  V30 44 1 44 45
M  V30 45 2 43 46
M  V30 46 1 46 3
M  V30 47 1 17 11
M  V30 48 1 42 19
M  V30 49 1 41 25
M  V30 50 1 38 33
M  V30 51 1 1 47
M  V30 52 1 1 48
M  V30 53 1 1 49
M  V30 54 1 4 50
M  V30 55 1 5 51
M  V30 56 1 13 52
M  V30 57 1 13 53
M  V30 58 1 13 54
M  V30 59 1 14 55
M  V30 60 1 15 56
M  V30 61 1 16 57
M  V30 62 1 18 58
M  V30 63 1 18 59
M  V30 64 1 18 60
M  V30 65 1 20 61
M  V30 66 1 21 62
M  V30 67 1 24 63
M  V30 68 1 26 64
M  V30 69 1 27 65
M  V30 70 1 30 66
M  V30 71 1 30 67
M  V30 72 1 31 68
M  V30 73 1 31 69
M  V30 74 1 32 70
M  V30 75 1 32 71
M  V30 76 1 34 72
M  V30 77 1 34 73
M  V30 78 1 35 74
M  V30 79 1 35 75
M  V30 80 1 36 76
M  V30 81 1 36 77
M  V30 82 1 37 78
M  V30 83 1 37 79
M  V30 84 1 38 80
M  V30 85 1 38 81
M  V30 86 1 41 82
M  V30 87 1 45 83
M  V30 88 1 45 84
M  V30 89 1 45 85
M  V30 90 1 46 86
M  V30 END BOND
M  V30 END CTAB
M  END
>  <Dataset>  (110) 
ChEMBL_Kinases

>  <Ligand_Instance>  (110) 
nan

>  <PDB_ID>  (110) 
nan

>  <Standardized_SMILES>  (110) 
COc1ccc(N(C(=O)Oc2c(C)cccc2C)c2ccnc(Nc3ccc(OCCCN4CCCCC4)c(F)c3)n2)c(OC)c1

>  <Name>  (110) 
nan

>  <Pocket>  (110) 
nan

>  <ATP_Site>  (110) 
nan

>  <Peripheral>  (110) 
nan

>  <Num_H_Atoms_ProtBoundConf>  (110) 
nan

>  <Num_Resolved_Atoms>  (110) 
nan

>  <Num_Not_Resolved_Atoms>  (110) 
nan

$$$$
CHEMBL2153540
     RDKit          3D

  0  0  0  0  0  0  0  0  0  0999 V3000
M  V30 BEGIN CTAB
M  V30 COUNTS 33 36 0 0 0
M  V30 BEGIN ATOM
M  V30 1 O 1.507474 -6.411003 0.829478 0
M  V30 2 N 0.568813 -5.637278 1.093661 0 CHG=1 VAL=4
M  V30 3 O 0.075246 -6.261243 2.198283 0 CHG=-1 VAL=1
M  V30 4 C 0.009601 -4.442521 0.564959 0
M  V30 5 C 0.820978 -3.593834 -0.133422 0
M  V30 6 C 0.233734 -2.447064 -0.626208 0
M  V30 7 N 0.892834 -1.453181 -1.392240 0
M  V30 8 C 1.074856 -0.057399 -1.430017 0
M  V30 9 N 1.679260 0.532040 -2.507089 0
M  V30 10 C 1.809404 1.863309 -2.397469 0
M  V30 11 N 1.411330 2.611224 -1.364261 0
M  V30 12 C 0.814357 2.054355 -0.291242 0
M  V30 13 C 0.665102 0.694403 -0.371167 0
M  V30 14 S -0.113233 0.219351 1.130174 0
M  V30 15 C -0.201670 1.977104 1.821018 0
M  V30 16 C -0.731207 2.362554 3.049809 0
M  V30 17 C -0.653900 3.712391 3.282487 0
M  V30 18 C -0.081510 4.491550 2.307446 0
M  V30 19 N 0.401722 4.031159 1.151906 0
M  V30 20 C 0.387307 2.741832 0.802790 0
M  V30 21 C -1.120205 -2.180349 -0.415823 0
M  V30 22 C -1.892372 -3.081816 0.302147 0
M  V30 23 C -1.323626 -4.242877 0.808201 0
M  V30 24 O -2.067142 -5.155340 1.526196 0
M  V30 25 H 1.858821 -3.733086 -0.331562 0
M  V30 26 H 1.376335 -1.984881 -2.148549 0
M  V30 27 H 2.285383 2.354049 -3.240473 0
M  V30 28 H -1.140493 1.623988 3.691612 0
M  V30 29 H -1.036808 4.100702 4.205057 0
M  V30 30 H 0.008763 5.583228 2.434951 0
M  V30 31 H -1.737238 -1.353633 -0.735602 0
M  V30 32 H -2.963005 -2.965846 0.522415 0
M  V30 33 H -2.877930 -4.933961 2.097643 0
M  V30 END ATOM
M  V30 BEGIN BOND
M  V30 1 2 1 2
M  V30 2 1 2 3
M  V30 3 1 2 4
M  V30 4 2 4 5
M  V30 5 1 5 6
M  V30 6 1 6 7
M  V30 7 1 7 8
M  V30 8 2 8 9
M  V30 9 1 9 10
M  V30 10 2 10 11
M  V30 11 1 11 12
M  V30 12 2 12 13
M  V30 13 1 13 14
M  V30 14 1 14 15
M  V30 15 2 15 16
M  V30 16 1 16 17
M  V30 17 2 17 18
M  V30 18 1 18 19
M  V30 19 2 19 20
M  V30 20 2 6 21
M  V30 21 1 21 22
M  V30 22 2 22 23
M  V30 23 1 23 24
M  V30 24 1 23 4
M  V30 25 1 13 8
M  V30 26 1 20 15
M  V30 27 1 20 12
M  V30 28 1 5 25
M  V30 29 1 7 26
M  V30 30 1 10 27
M  V30 31 1 16 28
M  V30 32 1 17 29
M  V30 33 1 18 30
M  V30 34 1 21 31
M  V30 35 1 22 32
M  V30 36 1 24 33
M  V30 END BOND
M  V30 END CTAB
M  END
>  <Dataset>  (111) 
ChEMBL_Kinases

>  <Ligand_Instance>  (111) 
nan

>  <PDB_ID>  (111) 
nan

>  <Standardized_SMILES>  (111) 
O=[N+]([O-])c1cc(Nc2ncnc3c2sc2cccnc23)ccc1O

>  <Name>  (111) 
nan

>  <Pocket>  (111) 
nan

>  <ATP_Site>  (111) 
nan

>  <Peripheral>  (111) 
nan

>  <Num_H_Atoms_ProtBoundConf>  (111) 
nan

>  <Num_Resolved_Atoms>  (111) 
nan

>  <Num_Not_Resolved_Atoms>  (111) 
nan

$$$$
CHEMBL2153539
     RDKit          3D

  0  0  0  0  0  0  0  0  0  0999 V3000
M  V30 BEGIN CTAB
M  V30 COUNTS 30 33 0 0 0
M  V30 BEGIN ATOM
M  V30 1 F 0.585367 -3.309540 -0.121186 0
M  V30 2 C 1.743596 -2.917661 0.463956 0
M  V30 3 C 2.115097 -3.849704 1.434584 0
M  V30 4 C 3.304295 -3.598673 2.132032 0
M  V30 5 Br 3.960063 -4.768297 3.489542 0
M  V30 6 C 4.081893 -2.489024 1.883478 0
M  V30 7 C 3.689896 -1.581097 0.915625 0
M  V30 8 C 2.510005 -1.803330 0.203948 0
M  V30 9 N 2.017516 -0.979040 -0.800285 0
M  V30 10 C 0.914564 -0.166924 -1.124117 0
M  V30 11 N 0.810201 0.420419 -2.360406 0
M  V30 12 C -0.289479 1.187399 -2.546582 0
M  V30 13 N -1.239748 1.395442 -1.630367 0
M  V30 14 C -1.170354 0.835890 -0.407391 0
M  V30 15 C -0.069478 0.066101 -0.217190 0
M  V30 16 S -0.185710 -0.537973 1.419129 0
M  V30 17 C -1.823226 0.338098 1.785004 0
M  V30 18 C -2.551628 0.306485 2.972968 0
M  V30 19 C -3.709946 1.044025 2.952925 0
M  V30 20 C -3.988434 1.703879 1.779199 0
M  V30 21 N -3.232804 1.683901 0.675484 0
M  V30 22 C -2.084086 0.996740 0.588562 0
M  V30 23 H 1.592367 -4.752231 1.717268 0
M  V30 24 H 5.002490 -2.286890 2.416974 0
M  V30 25 H 4.232048 -0.680772 0.648753 0
M  V30 26 H 2.764934 -1.030691 -1.508955 0
M  V30 27 H -0.383105 1.657301 -3.521521 0
M  V30 28 H -2.170103 -0.269870 3.788679 0
M  V30 29 H -4.315144 1.060159 3.838663 0
M  V30 30 H -4.908212 2.308738 1.714132 0
M  V30 END ATOM
M  V30 BEGIN BOND
M  V30 1 1 1 2
M  V30 2 2 2 3
M  V30 3 1 3 4
M  V30 4 1 4 5
M  V30 5 2 4 6
M  V30 6 1 6 7
M  V30 7 2 7 8
M  V30 8 1 8 9
M  V30 9 1 9 10
M  V30 10 2 10 11
M  V30 11 1 11 12
M  V30 12 2 12 13
M  V30 13 1 13 14
M  V30 14 2 14 15
M  V30 15 1 15 16
M  V30 16 1 16 17
M  V30 17 2 17 18
M  V30 18 1 18 19
M  V30 19 2 19 20
M  V30 20 1 20 21
M  V30 21 2 21 22
M  V30 22 1 8 2
M  V30 23 1 15 10
M  V30 24 1 22 17
M  V30 25 1 22 14
M  V30 26 1 3 23
M  V30 27 1 6 24
M  V30 28 1 7 25
M  V30 29 1 9 26
M  V30 30 1 12 27
M  V30 31 1 18 28
M  V30 32 1 19 29
M  V30 33 1 20 30
M  V30 END BOND
M  V30 END CTAB
M  END
>  <Dataset>  (112) 
ChEMBL_Kinases

>  <Ligand_Instance>  (112) 
nan

>  <PDB_ID>  (112) 
nan

>  <Standardized_SMILES>  (112) 
Fc1cc(Br)ccc1Nc1ncnc2c1sc1cccnc12

>  <Name>  (112) 
nan

>  <Pocket>  (112) 
nan

>  <ATP_Site>  (112) 
nan

>  <Peripheral>  (112) 
nan

>  <Num_H_Atoms_ProtBoundConf>  (112) 
nan

>  <Num_Resolved_Atoms>  (112) 
nan

>  <Num_Not_Resolved_Atoms>  (112) 
nan

$$$$
CHEMBL2152948
     RDKit          3D

  0  0  0  0  0  0  0  0  0  0999 V3000
M  V30 BEGIN CTAB
M  V30 COUNTS 55 58 0 0 0
M  V30 BEGIN ATOM
M  V30 1 O -1.398455 -0.122044 3.207115 0
M  V30 2 C -0.590246 -0.217595 2.263921 0
M  V30 3 C 0.604042 0.615641 2.271081 0
M  V30 4 C 0.447554 1.667419 3.179756 0
M  V30 5 C 1.512978 2.538965 3.283366 0
M  V30 6 C 2.655629 2.364744 2.526089 0
M  V30 7 N 3.748119 3.269082 2.643209 0
M  V30 8 C 4.928721 3.221745 1.847502 0
M  V30 9 C 6.247059 3.050833 2.212321 0
M  V30 10 C 7.225725 3.043032 1.252916 0
M  V30 11 C 6.890527 3.205273 -0.066661 0
M  V30 12 F 7.883854 3.196141 -1.019125 0
M  V30 13 C 5.578147 3.380096 -0.478578 0
M  V30 14 C 4.595054 3.384819 0.517691 0
M  V30 15 F 3.350455 3.568453 -0.023274 0
M  V30 16 C 2.788171 1.318611 1.635170 0
M  V30 17 C 1.741974 0.424734 1.503522 0
M  V30 18 C 1.983075 -0.678982 0.508418 0
M  V30 19 C 0.859520 -0.777000 -0.481101 0
M  V30 20 C -0.349572 -1.427252 0.061326 0
M  V30 21 C -0.814873 -2.374555 -0.822714 0
M  V30 22 C -1.940671 -3.051434 -0.431495 0
M  V30 23 C -2.683735 -2.935567 0.706640 0
M  V30 24 O -3.747099 -3.426804 1.300212 0
M  V30 25 C -4.713656 -4.337134 1.065658 0
M  V30 26 C -5.677763 -4.132591 -0.066019 0
M  V30 27 C -5.128474 -4.075832 -1.433705 0 CFG=1
M  V30 28 O -4.481433 -5.278499 -1.712179 0
M  V30 29 C -6.256446 -4.012245 -2.488269 0
M  V30 30 O -5.669551 -4.030137 -3.729301 0
M  V30 31 C -2.150425 -1.948853 1.565817 0
M  V30 32 C -1.013454 -1.199828 1.273724 0
M  V30 33 H -0.462618 1.757842 3.745562 0
M  V30 34 H 1.410833 3.358735 3.980567 0
M  V30 35 H 3.711454 4.033038 3.353856 0
M  V30 36 H 6.353085 2.936252 3.283806 0
M  V30 37 H 8.233683 2.904863 1.608392 0
M  V30 38 H 5.409400 3.499685 -1.539972 0
M  V30 39 H 3.634537 1.103843 1.010029 0
M  V30 40 H 2.950863 -0.546501 0.029053 0
M  V30 41 H 1.999103 -1.609208 1.124712 0
M  V30 42 H 1.242462 -1.371035 -1.333152 0
M  V30 43 H 0.664005 0.249232 -0.852101 0
M  V30 44 H -0.371753 -2.618655 -1.776488 0
M  V30 45 H -2.323627 -3.807607 -1.082356 0
M  V30 46 H -4.313261 -5.395264 0.929682 0
M  V30 47 H -5.332662 -4.428473 2.034854 0
M  V30 48 H -6.454205 -4.960823 -0.063315 0
M  V30 49 H -6.231965 -3.172217 0.182517 0
M  V30 50 H -4.529526 -3.172731 -1.654887 0
M  V30 51 H -4.139302 -5.333770 -2.635099 0
M  V30 52 H -6.772837 -3.029706 -2.372558 0
M  V30 53 H -7.010144 -4.803655 -2.309818 0
M  V30 54 H -5.628336 -3.129850 -4.171592 0
M  V30 55 H -2.518861 -1.628168 2.542525 0
M  V30 END ATOM
M  V30 BEGIN BOND
M  V30 1 2 1 2
M  V30 2 1 2 3
M  V30 3 2 3 4
M  V30 4 1 4 5
M  V30 5 2 5 6
M  V30 6 1 6 7
M  V30 7 1 7 8
M  V30 8 2 8 9
M  V30 9 1 9 10
M  V30 10 2 10 11
M  V30 11 1 11 12
M  V30 12 1 11 13
M  V30 13 2 13 14
M  V30 14 1 14 15
M  V30 15 1 6 16
M  V30 16 2 16 17
M  V30 17 1 17 18
M  V30 18 1 18 19
M  V30 19 1 19 20
M  V30 20 2 20 21
M  V30 21 1 21 22
M  V30 22 2 22 23
M  V30 23 1 23 24
M  V30 24 1 24 25
M  V30 25 1 25 26
M  V30 26 1 26 27
M  V30 27 1 27 28
M  V30 28 1 27 29
M  V30 29 1 29 30
M  V30 30 1 23 31
M  V30 31 2 31 32
M  V30 32 1 32 2
M  V30 33 1 17 3
M  V30 34 1 32 20
M  V30 35 1 14 8
M  V30 36 1 4 33
M  V30 37 1 5 34
M  V30 38 1 7 35
M  V30 39 1 9 36
M  V30 40 1 10 37
M  V30 41 1 13 38
M  V30 42 1 16 39
M  V30 43 1 18 40
M  V30 44 1 18 41
M  V30 45 1 19 42
M  V30 46 1 19 43
M  V30 47 1 21 44
M  V30 48 1 22 45
M  V30 49 1 25 46
M  V30 50 1 25 47
M  V30 51 1 26 48
M  V30 52 1 26 49
M  V30 53 1 27 50 CFG=1
M  V30 54 1 28 51
M  V30 55 1 29 52
M  V30 56 1 29 53
M  V30 57 1 30 54
M  V30 58 1 31 55
M  V30 END BOND
M  V30 END CTAB
M  END
>  <Dataset>  (113) 
ChEMBL_Kinases

>  <Ligand_Instance>  (113) 
nan

>  <PDB_ID>  (113) 
nan

>  <Standardized_SMILES>  (113) 
O=C1c2ccc(Nc3ccc(F)cc3F)cc2CCc2ccc(OCC[C@@H](O)CO)cc21

>  <Name>  (113) 
nan

>  <Pocket>  (113) 
nan

>  <ATP_Site>  (113) 
nan

>  <Peripheral>  (113) 
nan

>  <Num_H_Atoms_ProtBoundConf>  (113) 
nan

>  <Num_Resolved_Atoms>  (113) 
nan

>  <Num_Not_Resolved_Atoms>  (113) 
nan

$$$$
CHEMBL2152949
     RDKit          3D

  0  0  0  0  0  0  0  0  0  0999 V3000
M  V30 BEGIN CTAB
M  V30 COUNTS 60 64 0 0 0
M  V30 BEGIN ATOM
M  V30 1 O 0.574265 -1.740412 0.237359 0
M  V30 2 C -0.126663 -1.198667 1.127050 0
M  V30 3 C 0.479362 -0.098076 1.909399 0
M  V30 4 C 1.569560 0.418510 1.228645 0
M  V30 5 C 2.234451 1.452484 1.836914 0
M  V30 6 C 1.930765 2.028412 3.049710 0
M  V30 7 N 2.602799 3.114552 3.654136 0
M  V30 8 C 3.211406 4.286272 3.150099 0
M  V30 9 C 3.257362 4.690041 1.836942 0
M  V30 10 C 3.869522 5.831791 1.379013 0
M  V30 11 C 4.491575 6.650403 2.291021 0
M  V30 12 F 5.105037 7.787087 1.862605 0
M  V30 13 C 4.464397 6.277731 3.610880 0
M  V30 14 C 3.841607 5.128388 4.025318 0
M  V30 15 F 3.880150 4.859590 5.371238 0
M  V30 16 C 0.818198 1.452321 3.675896 0
M  V30 17 C 0.098278 0.412180 3.131196 0
M  V30 18 C -1.038812 -0.065045 3.932215 0
M  V30 19 C -2.344211 -0.139878 3.215177 0
M  V30 20 C -2.474389 -1.233748 2.245130 0
M  V30 21 C -3.696889 -1.898794 2.213688 0
M  V30 22 C -3.895629 -2.946951 1.316604 0
M  V30 23 C -2.906992 -3.382612 0.418337 0
M  V30 24 O -3.452126 -4.408643 -0.286450 0
M  V30 25 C -2.822540 -5.121207 -1.302327 0
M  V30 26 C -2.450326 -4.334386 -2.524677 0
M  V30 27 N -1.798306 -5.135865 -3.543398 0
M  V30 28 C -0.499004 -5.590505 -3.212090 0
M  V30 29 C 0.628526 -4.916606 -3.971515 0
M  V30 30 O 0.299751 -4.650825 -5.284326 0
M  V30 31 C -0.783656 -3.772137 -5.272187 0
M  V30 32 C -1.985298 -4.568839 -4.836488 0
M  V30 33 C -1.721226 -2.694585 0.490874 0
M  V30 34 C -1.506260 -1.663271 1.363452 0
M  V30 35 H 1.853727 0.009382 0.277279 0
M  V30 36 H 3.084123 1.810936 1.276682 0
M  V30 37 H 2.633743 2.971362 4.692805 0
M  V30 38 H 2.779072 4.095373 1.087371 0
M  V30 39 H 3.866243 6.088545 0.319523 0
M  V30 40 H 4.957694 6.926332 4.340161 0
M  V30 41 H 0.470540 1.801994 4.626208 0
M  V30 42 H -1.176561 0.668393 4.762163 0
M  V30 43 H -0.852250 -1.037559 4.431335 0
M  V30 44 H -3.115482 -0.335704 4.010543 0
M  V30 45 H -2.643821 0.865401 2.807890 0
M  V30 46 H -4.396837 -1.502066 2.934625 0
M  V30 47 H -4.924974 -3.310104 1.476454 0
M  V30 48 H -3.513923 -5.979049 -1.578979 0
M  V30 49 H -1.877327 -5.611579 -0.914974 0
M  V30 50 H -3.373232 -3.848426 -2.979777 0
M  V30 51 H -1.768412 -3.512464 -2.292396 0
M  V30 52 H -0.415628 -6.696736 -3.428417 0
M  V30 53 H -0.307471 -5.413240 -2.131741 0
M  V30 54 H 1.523621 -5.572574 -3.887755 0
M  V30 55 H 0.852776 -3.964011 -3.408364 0
M  V30 56 H -0.613883 -2.921523 -4.585346 0
M  V30 57 H -0.888346 -3.369082 -6.282024 0
M  V30 58 H -2.145118 -5.344157 -5.630026 0
M  V30 59 H -2.907390 -3.920370 -4.799503 0
M  V30 60 H -0.998897 -3.072749 -0.198307 0
M  V30 END ATOM
M  V30 BEGIN BOND
M  V30 1 2 1 2
M  V30 2 1 2 3
M  V30 3 2 3 4
M  V30 4 1 4 5
M  V30 5 2 5 6
M  V30 6 1 6 7
M  V30 7 1 7 8
M  V30 8 2 8 9
M  V30 9 1 9 10
M  V30 10 2 10 11
M  V30 11 1 11 12
M  V30 12 1 11 13
M  V30 13 2 13 14
M  V30 14 1 14 15
M  V30 15 1 6 16
M  V30 16 2 16 17
M  V30 17 1 17 18
M  V30 18 1 18 19
M  V30 19 1 19 20
M  V30 20 2 20 21
M  V30 21 1 21 22
M  V30 22 2 22 23
M  V30 23 1 23 24
M  V30 24 1 24 25
M  V30 25 1 25 26
M  V30 26 1 26 27
M  V30 27 1 27 28
M  V30 28 1 28 29
M  V30 29 1 29 30
M  V30 30 1 30 31
M  V30 31 1 31 32
M  V30 32 1 23 33
M  V30 33 2 33 34
M  V30 34 1 34 2
M  V30 35 1 17 3
M  V30 36 1 34 20
M  V30 37 1 14 8
M  V30 38 1 32 27
M  V30 39 1 4 35
M  V30 40 1 5 36
M  V30 41 1 7 37
M  V30 42 1 9 38
M  V30 43 1 10 39
M  V30 44 1 13 40
M  V30 45 1 16 41
M  V30 46 1 18 42
M  V30 47 1 18 43
M  V30 48 1 19 44
M  V30 49 1 19 45
M  V30 50 1 21 46
M  V30 51 1 22 47
M  V30 52 1 25 48
M  V30 53 1 25 49
M  V30 54 1 26 50
M  V30 55 1 26 51
M  V30 56 1 28 52
M  V30 57 1 28 53
M  V30 58 1 29 54
M  V30 59 1 29 55
M  V30 60 1 31 56
M  V30 61 1 31 57
M  V30 62 1 32 58
M  V30 63 1 32 59
M  V30 64 1 33 60
M  V30 END BOND
M  V30 END CTAB
M  END
>  <Dataset>  (114) 
ChEMBL_Kinases

>  <Ligand_Instance>  (114) 
nan

>  <PDB_ID>  (114) 
nan

>  <Standardized_SMILES>  (114) 
O=C1c2ccc(Nc3ccc(F)cc3F)cc2CCc2ccc(OCCN3CCOCC3)cc21

>  <Name>  (114) 
nan

>  <Pocket>  (114) 
nan

>  <ATP_Site>  (114) 
nan

>  <Peripheral>  (114) 
nan

>  <Num_H_Atoms_ProtBoundConf>  (114) 
nan

>  <Num_Resolved_Atoms>  (114) 
nan

>  <Num_Not_Resolved_Atoms>  (114) 
nan

$$$$
CHEMBL2152950
     RDKit          3D

  0  0  0  0  0  0  0  0  0  0999 V3000
M  V30 BEGIN CTAB
M  V30 COUNTS 63 67 0 0 0
M  V30 BEGIN ATOM
M  V30 1 O -0.226301 -2.068145 3.012342 0
M  V30 2 C 0.354253 -1.160166 2.321052 0
M  V30 3 C 1.575901 -0.470470 2.750142 0
M  V30 4 C 2.096019 -1.188689 3.820360 0
M  V30 5 C 3.250555 -0.711706 4.351292 0
M  V30 6 C 3.848801 0.401340 3.855942 0
M  V30 7 N 5.057022 0.839582 4.453094 0
M  V30 8 C 5.881591 1.973208 4.266971 0
M  V30 9 C 7.231568 1.956678 3.866493 0
M  V30 10 C 7.925354 3.130146 3.724809 0
M  V30 11 C 7.380033 4.375954 3.950873 0
M  V30 12 F 8.024880 5.558792 3.819134 0
M  V30 13 C 6.055117 4.463348 4.345690 0
M  V30 14 C 5.380680 3.260476 4.482258 0
M  V30 15 F 4.070010 3.328154 4.869288 0
M  V30 16 C 3.286843 1.090373 2.777573 0
M  V30 17 C 2.105015 0.667395 2.175211 0
M  V30 18 C 1.692754 1.514401 1.071652 0
M  V30 19 C 0.251899 1.559761 0.709226 0
M  V30 20 C -0.391382 0.287607 0.384592 0
M  V30 21 C -1.099714 0.371777 -0.788658 0
M  V30 22 C -1.751846 -0.732755 -1.228769 0
M  V30 23 C -1.816359 -1.970852 -0.657494 0
M  V30 24 O -2.308275 -3.146584 -0.806466 0
M  V30 25 C -2.832432 -4.290808 -1.025618 0
M  V30 26 C -4.292031 -4.491063 -1.101117 0
M  V30 27 C -5.162206 -4.029798 -2.159320 0
M  V30 28 N -5.256361 -2.706580 -2.578013 0
M  V30 29 C -4.225842 -2.184808 -3.419818 0
M  V30 30 C -4.500244 -2.601611 -4.882403 0
M  V30 31 O -5.735353 -2.160948 -5.276730 0
M  V30 32 C -6.751022 -2.712241 -4.518306 0
M  V30 33 C -6.554242 -2.286416 -3.065784 0
M  V30 34 C -1.078986 -2.015180 0.541074 0
M  V30 35 C -0.374792 -0.921943 1.067699 0
M  V30 36 H 1.598583 -2.062102 4.184141 0
M  V30 37 H 3.709888 -1.237150 5.198023 0
M  V30 38 H 5.542066 0.314839 5.185994 0
M  V30 39 H 7.649379 0.976324 3.686453 0
M  V30 40 H 8.967041 3.107189 3.413252 0
M  V30 41 H 5.523588 5.385984 4.554236 0
M  V30 42 H 3.774698 1.991007 2.377385 0
M  V30 43 H 1.965303 2.566632 1.371899 0
M  V30 44 H 2.300889 1.336212 0.137268 0
M  V30 45 H 0.164304 2.236620 -0.167344 0
M  V30 46 H -0.289285 2.077887 1.535977 0
M  V30 47 H -1.148343 1.296808 -1.361313 0
M  V30 48 H -2.289270 -0.662927 -2.142203 0
M  V30 49 H -2.420603 -5.132721 -0.289410 0
M  V30 50 H -2.441037 -4.805710 -2.024335 0
M  V30 51 H -4.739543 -4.062129 -0.124109 0
M  V30 52 H -4.481788 -5.615727 -0.916782 0
M  V30 53 H -6.225999 -4.417198 -1.922484 0
M  V30 54 H -4.937317 -4.731724 -3.067390 0
M  V30 55 H -4.219391 -1.090080 -3.365443 0
M  V30 56 H -3.235275 -2.574753 -3.185961 0
M  V30 57 H -4.456771 -3.692833 -4.920608 0
M  V30 58 H -3.675895 -2.209662 -5.480949 0
M  V30 59 H -6.801993 -3.823826 -4.629103 0
M  V30 60 H -7.717403 -2.255782 -4.847467 0
M  V30 61 H -7.347088 -2.721965 -2.445244 0
M  V30 62 H -6.588847 -1.190038 -3.064967 0
M  V30 63 H -0.946264 -2.863964 1.222507 0
M  V30 END ATOM
M  V30 BEGIN BOND
M  V30 1 2 1 2
M  V30 2 1 2 3
M  V30 3 2 3 4
M  V30 4 1 4 5
M  V30 5 2 5 6
M  V30 6 1 6 7
M  V30 7 1 7 8
M  V30 8 2 8 9
M  V30 9 1 9 10
M  V30 10 2 10 11
M  V30 11 1 11 12
M  V30 12 1 11 13
M  V30 13 2 13 14
M  V30 14 1 14 15
M  V30 15 1 6 16
M  V30 16 2 16 17
M  V30 17 1 17 18
M  V30 18 1 18 19
M  V30 19 1 19 20
M  V30 20 2 20 21
M  V30 21 1 21 22
M  V30 22 2 22 23
M  V30 23 1 23 24
M  V30 24 1 24 25
M  V30 25 1 25 26
M  V30 26 1 26 27
M  V30 27 1 27 28
M  V30 28 1 28 29
M  V30 29 1 29 30
M  V30 30 1 30 31
M  V30 31 1 31 32
M  V30 32 1 32 33
M  V30 33 1 23 34
M  V30 34 2 34 35
M  V30 35 1 35 2
M  V30 36 1 17 3
M  V30 37 1 35 20
M  V30 38 1 14 8
M  V30 39 1 33 28
M  V30 40 1 4 36
M  V30 41 1 5 37
M  V30 42 1 7 38
M  V30 43 1 9 39
M  V30 44 1 10 40
M  V30 45 1 13 41
M  V30 46 1 16 42
M  V30 47 1 18 43
M  V30 48 1 18 44
M  V30 49 1 19 45
M  V30 50 1 19 46
M  V30 51 1 21 47
M  V30 52 1 22 48
M  V30 53 1 25 49
M  V30 54 1 25 50
M  V30 55 1 26 51
M  V30 56 1 26 52
M  V30 57 1 27 53
M  V30 58 1 27 54
M  V30 59 1 29 55
M  V30 60 1 29 56
M  V30 61 1 30 57
M  V30 62 1 30 58
M  V30 63 1 32 59
M  V30 64 1 32 60
M  V30 65 1 33 61
M  V30 66 1 33 62
M  V30 67 1 34 63
M  V30 END BOND
M  V30 END CTAB
M  END
>  <Dataset>  (115) 
ChEMBL_Kinases

>  <Ligand_Instance>  (115) 
nan

>  <PDB_ID>  (115) 
nan

>  <Standardized_SMILES>  (115) 
O=C1c2ccc(Nc3ccc(F)cc3F)cc2CCc2ccc(OCCCN3CCOCC3)cc21

>  <Name>  (115) 
nan

>  <Pocket>  (115) 
nan

>  <ATP_Site>  (115) 
nan

>  <Peripheral>  (115) 
nan

>  <Num_H_Atoms_ProtBoundConf>  (115) 
nan

>  <Num_Resolved_Atoms>  (115) 
nan

>  <Num_Not_Resolved_Atoms>  (115) 
nan

$$$$
CHEMBL2152952
     RDKit          3D

  0  0  0  0  0  0  0  0  0  0999 V3000
M  V30 BEGIN CTAB
M  V30 COUNTS 51 54 0 0 0
M  V30 BEGIN ATOM
M  V30 1 O 0.768269 -2.272456 0.901941 0
M  V30 2 C -0.057285 -1.336707 0.753870 0
M  V30 3 C 0.375118 0.063767 0.983456 0
M  V30 4 C 1.526467 0.031783 1.768321 0
M  V30 5 C 2.120166 1.236674 2.120735 0
M  V30 6 C 1.575476 2.447369 1.698003 0
M  V30 7 O 2.061608 3.712023 1.976438 0
M  V30 8 C 3.020983 4.377134 1.230959 0
M  V30 9 C 4.115181 4.645854 2.069476 0
M  V30 10 C 5.241745 5.304497 1.617182 0
M  V30 11 C 5.308788 5.720169 0.294913 0
M  V30 12 F 6.393461 6.367632 -0.188173 0
M  V30 13 C 4.227165 5.448179 -0.511986 0
M  V30 14 C 3.097114 4.793859 -0.081264 0
M  V30 15 F 1.993154 4.473151 -0.753661 0
M  V30 16 C 0.437594 2.408764 0.924977 0
M  V30 17 C -0.212271 1.256974 0.532140 0
M  V30 18 C -1.415112 1.306747 -0.286871 0
M  V30 19 C -2.591883 0.564964 0.260444 0
M  V30 20 C -2.564081 -0.900324 0.127919 0
M  V30 21 C -3.740772 -1.520668 -0.243777 0
M  V30 22 C -3.763879 -2.922229 -0.382629 0
M  V30 23 C -2.625657 -3.735054 -0.157376 0
M  V30 24 O -3.073991 -4.953149 -0.394279 0
M  V30 25 C -2.575767 -6.211730 -0.364451 0
M  V30 26 C -2.120995 -6.826407 0.909583 0 CFG=1
M  V30 27 O -1.681171 -8.164105 0.655730 0
M  V30 28 C -1.051345 -6.149719 1.684584 0
M  V30 29 O 0.177340 -6.092541 1.025524 0
M  V30 30 C -1.525502 -3.007938 0.203076 0
M  V30 31 C -1.431136 -1.649078 0.357501 0
M  V30 32 H 1.953703 -0.896712 2.098501 0
M  V30 33 H 3.013796 1.308422 2.725138 0
M  V30 34 H 4.229303 4.390104 3.132743 0
M  V30 35 H 6.112908 5.539911 2.210953 0
M  V30 36 H 4.199433 5.738289 -1.555239 0
M  V30 37 H -0.048867 3.307782 0.557271 0
M  V30 38 H -1.230287 0.874407 -1.296392 0
M  V30 39 H -1.704716 2.364302 -0.438085 0
M  V30 40 H -2.613679 0.763874 1.355285 0
M  V30 41 H -3.515702 1.033850 -0.133689 0
M  V30 42 H -4.520696 -0.789033 -0.381516 0
M  V30 43 H -4.803921 -3.140854 -0.679709 0
M  V30 44 H -1.707221 -6.341758 -1.124081 0
M  V30 45 H -3.320500 -6.952143 -0.826379 0
M  V30 46 H -2.981587 -6.982390 1.619549 0
M  V30 47 H -0.903586 -8.152539 0.047199 0
M  V30 48 H -1.298413 -5.150223 2.065056 0
M  V30 49 H -0.854343 -6.769962 2.625781 0
M  V30 50 H 0.934330 -6.038867 1.646329 0
M  V30 51 H -0.701038 -3.650604 0.343641 0
M  V30 END ATOM
M  V30 BEGIN BOND
M  V30 1 2 1 2
M  V30 2 1 2 3
M  V30 3 2 3 4
M  V30 4 1 4 5
M  V30 5 2 5 6
M  V30 6 1 6 7
M  V30 7 1 7 8
M  V30 8 2 8 9
M  V30 9 1 9 10
M  V30 10 2 10 11
M  V30 11 1 11 12
M  V30 12 1 11 13
M  V30 13 2 13 14
M  V30 14 1 14 15
M  V30 15 1 6 16
M  V30 16 2 16 17
M  V30 17 1 17 18
M  V30 18 1 18 19
M  V30 19 1 19 20
M  V30 20 2 20 21
M  V30 21 1 21 22
M  V30 22 2 22 23
M  V30 23 1 23 24
M  V30 24 1 24 25
M  V30 25 1 25 26
M  V30 26 1 26 27
M  V30 27 1 26 28
M  V30 28 1 28 29
M  V30 29 1 23 30
M  V30 30 2 30 31
M  V30 31 1 31 2
M  V30 32 1 17 3
M  V30 33 1 31 20
M  V30 34 1 14 8
M  V30 35 1 4 32
M  V30 36 1 5 33
M  V30 37 1 9 34
M  V30 38 1 10 35
M  V30 39 1 13 36
M  V30 40 1 16 37
M  V30 41 1 18 38
M  V30 42 1 18 39
M  V30 43 1 19 40
M  V30 44 1 19 41
M  V30 45 1 21 42
M  V30 46 1 22 43
M  V30 47 1 25 44
M  V30 48 1 25 45
M  V30 49 1 26 46 CFG=1
M  V30 50 1 27 47
M  V30 51 1 28 48
M  V30 52 1 28 49
M  V30 53 1 29 50
M  V30 54 1 30 51
M  V30 END BOND
M  V30 END CTAB
M  END
>  <Dataset>  (116) 
ChEMBL_Kinases

>  <Ligand_Instance>  (116) 
nan

>  <PDB_ID>  (116) 
nan

>  <Standardized_SMILES>  (116) 
O=C1c2ccc(Oc3ccc(F)cc3F)cc2CCc2ccc(OC[C@@H](O)CO)cc21

>  <Name>  (116) 
nan

>  <Pocket>  (116) 
nan

>  <ATP_Site>  (116) 
nan

>  <Peripheral>  (116) 
nan

>  <Num_H_Atoms_ProtBoundConf>  (116) 
nan

>  <Num_Resolved_Atoms>  (116) 
nan

>  <Num_Not_Resolved_Atoms>  (116) 
nan

$$$$
CHEMBL2152953
     RDKit          3D

  0  0  0  0  0  0  0  0  0  0999 V3000
M  V30 BEGIN CTAB
M  V30 COUNTS 59 63 0 0 0
M  V30 BEGIN ATOM
M  V30 1 O 1.283124 -2.345091 3.002561 0
M  V30 2 C 1.129742 -1.386434 2.216365 0
M  V30 3 C 2.061138 -0.260222 2.234798 0
M  V30 4 C 2.903320 -0.364663 3.312444 0
M  V30 5 C 3.848452 0.620599 3.481815 0
M  V30 6 C 3.930131 1.677666 2.579978 0
M  V30 7 O 4.820717 2.739585 2.616438 0
M  V30 8 C 4.499626 3.928727 3.259480 0
M  V30 9 C 4.528701 4.985101 2.361841 0
M  V30 10 C 4.244022 6.296216 2.744044 0
M  V30 11 C 3.919330 6.544441 4.080424 0
M  V30 12 F 3.623773 7.781443 4.567670 0
M  V30 13 C 3.896041 5.480026 4.955974 0
M  V30 14 C 4.177784 4.186009 4.575438 0
M  V30 15 F 4.183561 3.085000 5.346643 0
M  V30 16 C 3.070177 1.765174 1.497135 0
M  V30 17 C 2.114785 0.772740 1.322408 0
M  V30 18 C 1.249205 0.990055 0.112886 0
M  V30 19 C -0.227342 0.866528 0.476483 0
M  V30 20 C -0.624510 -0.571087 0.583063 0
M  V30 21 C -1.717417 -0.774158 -0.230414 0
M  V30 22 C -2.177420 -2.069424 -0.216064 0
M  V30 23 C -1.695567 -3.145856 0.485760 0
M  V30 24 O -1.963013 -4.441744 0.651396 0
M  V30 25 C -2.861988 -5.366297 0.187635 0
M  V30 26 C -2.907891 -5.674354 -1.253656 0
M  V30 27 N -3.234823 -4.768611 -2.223429 0
M  V30 28 C -4.506001 -4.259712 -2.463291 0
M  V30 29 C -4.928732 -4.421873 -3.943910 0
M  V30 30 O -4.032512 -3.836200 -4.804625 0
M  V30 31 C -2.850331 -3.447469 -4.229703 0
M  V30 32 C -2.357981 -4.600411 -3.339241 0
M  V30 33 C -0.574286 -2.848646 1.293642 0
M  V30 34 C -0.029733 -1.551668 1.346327 0
M  V30 35 H 2.833542 -1.188358 4.007437 0
M  V30 36 H 4.560806 0.637212 4.290445 0
M  V30 37 H 4.762248 4.938267 1.307885 0
M  V30 38 H 4.254886 7.147503 2.077612 0
M  V30 39 H 3.658482 5.547361 6.014419 0
M  V30 40 H 3.040105 2.525597 0.745129 0
M  V30 41 H 1.481947 0.206542 -0.653633 0
M  V30 42 H 1.425988 1.960049 -0.344816 0
M  V30 43 H -0.321630 1.330463 1.469767 0
M  V30 44 H -0.786457 1.401543 -0.315755 0
M  V30 45 H -2.230142 -0.059201 -0.850657 0
M  V30 46 H -3.025257 -2.391576 -0.789237 0
M  V30 47 H -2.567844 -6.351169 0.693985 0
M  V30 48 H -3.896311 -5.214417 0.633703 0
M  V30 49 H -1.917039 -6.159222 -1.506365 0
M  V30 50 H -3.625130 -6.567107 -1.348374 0
M  V30 51 H -4.555485 -3.169920 -2.308733 0
M  V30 52 H -5.332203 -4.689117 -1.859261 0
M  V30 53 H -5.184362 -5.452478 -4.188159 0
M  V30 54 H -5.881301 -3.833254 -4.046850 0
M  V30 55 H -2.979273 -2.545336 -3.598298 0
M  V30 56 H -2.099684 -3.258848 -4.995488 0
M  V30 57 H -1.315864 -4.399468 -3.005110 0
M  V30 58 H -2.428501 -5.509536 -3.955894 0
M  V30 59 H 0.003265 -3.505856 1.947480 0
M  V30 END ATOM
M  V30 BEGIN BOND
M  V30 1 2 1 2
M  V30 2 1 2 3
M  V30 3 2 3 4
M  V30 4 1 4 5
M  V30 5 2 5 6
M  V30 6 1 6 7
M  V30 7 1 7 8
M  V30 8 2 8 9
M  V30 9 1 9 10
M  V30 10 2 10 11
M  V30 11 1 11 12
M  V30 12 1 11 13
M  V30 13 2 13 14
M  V30 14 1 14 15
M  V30 15 1 6 16
M  V30 16 2 16 17
M  V30 17 1 17 18
M  V30 18 1 18 19
M  V30 19 1 19 20
M  V30 20 2 20 21
M  V30 21 1 21 22
M  V30 22 2 22 23
M  V30 23 1 23 24
M  V30 24 1 24 25
M  V30 25 1 25 26
M  V30 26 1 26 27
M  V30 27 1 27 28
M  V30 28 1 28 29
M  V30 29 1 29 30
M  V30 30 1 30 31
M  V30 31 1 31 32
M  V30 32 1 23 33
M  V30 33 2 33 34
M  V30 34 1 34 2
M  V30 35 1 17 3
M  V30 36 1 34 20
M  V30 37 1 14 8
M  V30 38 1 32 27
M  V30 39 1 4 35
M  V30 40 1 5 36
M  V30 41 1 9 37
M  V30 42 1 10 38
M  V30 43 1 13 39
M  V30 44 1 16 40
M  V30 45 1 18 41
M  V30 46 1 18 42
M  V30 47 1 19 43
M  V30 48 1 19 44
M  V30 49 1 21 45
M  V30 50 1 22 46
M  V30 51 1 25 47
M  V30 52 1 25 48
M  V30 53 1 26 49
M  V30 54 1 26 50
M  V30 55 1 28 51
M  V30 56 1 28 52
M  V30 57 1 29 53
M  V30 58 1 29 54
M  V30 59 1 31 55
M  V30 60 1 31 56
M  V30 61 1 32 57
M  V30 62 1 32 58
M  V30 63 1 33 59
M  V30 END BOND
M  V30 END CTAB
M  END
>  <Dataset>  (117) 
ChEMBL_Kinases

>  <Ligand_Instance>  (117) 
nan

>  <PDB_ID>  (117) 
nan

>  <Standardized_SMILES>  (117) 
O=C1c2ccc(Oc3ccc(F)cc3F)cc2CCc2ccc(OCCN3CCOCC3)cc21

>  <Name>  (117) 
nan

>  <Pocket>  (117) 
nan

>  <ATP_Site>  (117) 
nan

>  <Peripheral>  (117) 
nan

>  <Num_H_Atoms_ProtBoundConf>  (117) 
nan

>  <Num_Resolved_Atoms>  (117) 
nan

>  <Num_Not_Resolved_Atoms>  (117) 
nan

$$$$
CHEMBL2152955
     RDKit          3D

  0  0  0  0  0  0  0  0  0  0999 V3000
M  V30 BEGIN CTAB
M  V30 COUNTS 48 51 0 0 0
M  V30 BEGIN ATOM
M  V30 1 O 1.105741 -3.838005 2.243869 0
M  V30 2 C 0.554839 -2.827249 1.697486 0
M  V30 3 C 1.514050 -1.763546 1.309538 0
M  V30 4 C 2.796374 -2.257692 1.121018 0
M  V30 5 C 3.792483 -1.374368 0.756265 0
M  V30 6 C 3.488246 -0.037979 0.590955 0
M  V30 7 N 4.515027 0.856314 0.217741 0
M  V30 8 C 4.484606 2.236005 -0.013062 0
M  V30 9 C 4.838588 2.749908 -1.244607 0
M  V30 10 C 4.845461 4.089516 -1.582772 0
M  V30 11 C 4.456767 4.953489 -0.568027 0
M  V30 12 F 4.427366 6.306539 -0.795600 0
M  V30 13 C 4.084095 4.519417 0.703263 0
M  V30 14 C 4.108988 3.154507 0.947788 0
M  V30 15 F 3.746056 2.737744 2.184455 0
M  V30 16 C 2.201626 0.422998 0.786103 0
M  V30 17 C 1.157161 -0.426409 1.155330 0
M  V30 18 C -0.123604 0.252139 1.311718 0
M  V30 19 C -1.290309 -0.367336 0.639966 0
M  V30 20 C -1.651157 -1.719328 1.050571 0
M  V30 21 C -3.027845 -1.929530 0.950519 0
M  V30 22 C -3.576025 -3.150119 1.293630 0
M  V30 23 O -4.938889 -3.444512 1.223646 0
M  V30 24 C -5.826030 -2.412835 0.766012 0
M  V30 25 C -7.235327 -2.913507 0.759736 0
M  V30 26 O -7.326174 -3.996791 -0.080668 0
M  V30 27 C -2.800881 -4.213496 1.748023 0
M  V30 28 C -1.430047 -4.031681 1.856908 0
M  V30 29 C -0.914273 -2.800289 1.506133 0
M  V30 30 H 2.964174 -3.316305 1.267593 0
M  V30 31 H 4.783875 -1.783978 0.615263 0
M  V30 32 H 5.488538 0.539806 0.064170 0
M  V30 33 H 5.149071 2.081216 -2.060246 0
M  V30 34 H 5.130043 4.436056 -2.557108 0
M  V30 35 H 3.788485 5.207577 1.467649 0
M  V30 36 H 1.914043 1.458245 0.669114 0
M  V30 37 H -0.336603 0.341158 2.409329 0
M  V30 38 H -0.028442 1.283958 0.922026 0
M  V30 39 H -2.167741 0.281109 0.844401 0
M  V30 40 H -1.137488 -0.321690 -0.469131 0
M  V30 41 H -3.717263 -1.168452 0.608608 0
M  V30 42 H -5.769815 -1.592012 1.521884 0
M  V30 43 H -5.481553 -1.987243 -0.188463 0
M  V30 44 H -7.866424 -2.098308 0.310662 0
M  V30 45 H -7.536244 -3.101378 1.803242 0
M  V30 46 H -6.474331 -4.197091 -0.504204 0
M  V30 47 H -3.174449 -5.181752 2.027809 0
M  V30 48 H -0.760762 -4.822034 2.206193 0
M  V30 END ATOM
M  V30 BEGIN BOND
M  V30 1 2 1 2
M  V30 2 1 2 3
M  V30 3 2 3 4
M  V30 4 1 4 5
M  V30 5 2 5 6
M  V30 6 1 6 7
M  V30 7 1 7 8
M  V30 8 2 8 9
M  V30 9 1 9 10
M  V30 10 2 10 11
M  V30 11 1 11 12
M  V30 12 1 11 13
M  V30 13 2 13 14
M  V30 14 1 14 15
M  V30 15 1 6 16
M  V30 16 2 16 17
M  V30 17 1 17 18
M  V30 18 1 18 19
M  V30 19 1 19 20
M  V30 20 2 20 21
M  V30 21 1 21 22
M  V30 22 1 22 23
M  V30 23 1 23 24
M  V30 24 1 24 25
M  V30 25 1 25 26
M  V30 26 2 22 27
M  V30 27 1 27 28
M  V30 28 2 28 29
M  V30 29 1 29 2
M  V30 30 1 17 3
M  V30 31 1 29 20
M  V30 32 1 14 8
M  V30 33 1 4 30
M  V30 34 1 5 31
M  V30 35 1 7 32
M  V30 36 1 9 33
M  V30 37 1 10 34
M  V30 38 1 13 35
M  V30 39 1 16 36
M  V30 40 1 18 37
M  V30 41 1 18 38
M  V30 42 1 19 39
M  V30 43 1 19 40
M  V30 44 1 21 41
M  V30 45 1 24 42
M  V30 46 1 24 43
M  V30 47 1 25 44
M  V30 48 1 25 45
M  V30 49 1 26 46
M  V30 50 1 27 47
M  V30 51 1 28 48
M  V30 END BOND
M  V30 END CTAB
M  END
>  <Dataset>  (118) 
ChEMBL_Kinases

>  <Ligand_Instance>  (118) 
nan

>  <PDB_ID>  (118) 
nan

>  <Standardized_SMILES>  (118) 
O=C1c2ccc(Nc3ccc(F)cc3F)cc2CCc2cc(OCCO)ccc21

>  <Name>  (118) 
nan

>  <Pocket>  (118) 
nan

>  <ATP_Site>  (118) 
nan

>  <Peripheral>  (118) 
nan

>  <Num_H_Atoms_ProtBoundConf>  (118) 
nan

>  <Num_Resolved_Atoms>  (118) 
nan

>  <Num_Not_Resolved_Atoms>  (118) 
nan

$$$$
CHEMBL2152960
     RDKit          3D

  0  0  0  0  0  0  0  0  0  0999 V3000
M  V30 BEGIN CTAB
M  V30 COUNTS 52 55 0 0 0
M  V30 BEGIN ATOM
M  V30 1 O -1.244597 -1.064151 4.331890 0
M  V30 2 C -0.919640 -0.870328 3.133312 0
M  V30 3 C 0.254890 0.004856 2.961827 0
M  V30 4 C 0.577906 0.736387 4.086620 0
M  V30 5 C 1.660588 1.592659 4.045792 0
M  V30 6 C 2.372259 1.672764 2.866098 0
M  V30 7 N 3.484368 2.550690 2.822379 0
M  V30 8 C 4.383152 2.853857 1.762891 0
M  V30 9 C 5.749628 2.670892 1.745880 0
M  V30 10 C 6.493769 3.017296 0.634878 0
M  V30 11 C 5.906712 3.547416 -0.473007 0
M  V30 12 F 6.688922 3.869450 -1.536990 0
M  V30 13 C 4.529016 3.740626 -0.477417 0
M  V30 14 C 3.770285 3.391379 0.645569 0
M  V30 15 F 2.449272 3.660937 0.435320 0
M  V30 16 C 2.043578 0.938176 1.745036 0
M  V30 17 C 0.948450 0.064748 1.768833 0
M  V30 18 C 0.792367 -0.610693 0.459029 0
M  V30 19 C -0.615703 -0.616549 -0.065928 0
M  V30 20 C -1.562931 -1.380851 0.778657 0
M  V30 21 C -2.443362 -2.086416 -0.010404 0
M  V30 22 C -3.461356 -2.907158 0.411971 0
M  V30 23 O -4.410933 -3.672691 -0.105591 0
M  V30 24 C -4.999812 -4.164490 -1.183108 0
M  V30 25 C -4.142025 -5.058281 -2.032354 0 CFG=1
M  V30 26 O -4.957622 -5.478397 -3.122366 0
M  V30 27 C -2.907130 -4.445449 -2.594934 0
M  V30 28 O -3.177649 -3.328099 -3.365054 0
M  V30 29 C -3.596412 -3.019762 1.812501 0
M  V30 30 C -2.740107 -2.333505 2.692374 0
M  V30 31 C -1.757654 -1.541682 2.136701 0
M  V30 32 H -0.032113 0.614383 4.970309 0
M  V30 33 H 1.884539 2.149489 4.944227 0
M  V30 34 H 3.786789 3.116939 3.635729 0
M  V30 35 H 6.165842 2.245995 2.652535 0
M  V30 36 H 7.570224 2.860810 0.652126 0
M  V30 37 H 4.147312 4.165708 -1.396403 0
M  V30 38 H 2.596323 0.995343 0.818498 0
M  V30 39 H 1.106207 -1.664641 0.629993 0
M  V30 40 H 1.406965 -0.123259 -0.295380 0
M  V30 41 H -0.572800 -1.098950 -1.051819 0
M  V30 42 H -0.994704 0.404961 -0.208089 0
M  V30 43 H -2.412507 -2.040866 -1.084423 0
M  V30 44 H -5.497950 -3.377105 -1.839517 0
M  V30 45 H -5.925399 -4.757322 -0.843694 0
M  V30 46 H -3.886301 -6.009243 -1.519128 0
M  V30 47 H -5.147807 -4.643912 -3.615789 0
M  V30 48 H -2.428703 -5.219091 -3.267069 0
M  V30 49 H -2.158821 -4.253348 -1.816892 0
M  V30 50 H -2.370291 -3.071547 -3.885224 0
M  V30 51 H -4.297383 -3.585380 2.427932 0
M  V30 52 H -2.743311 -2.339138 3.765359 0
M  V30 END ATOM
M  V30 BEGIN BOND
M  V30 1 2 1 2
M  V30 2 1 2 3
M  V30 3 2 3 4
M  V30 4 1 4 5
M  V30 5 2 5 6
M  V30 6 1 6 7
M  V30 7 1 7 8
M  V30 8 2 8 9
M  V30 9 1 9 10
M  V30 10 2 10 11
M  V30 11 1 11 12
M  V30 12 1 11 13
M  V30 13 2 13 14
M  V30 14 1 14 15
M  V30 15 1 6 16
M  V30 16 2 16 17
M  V30 17 1 17 18
M  V30 18 1 18 19
M  V30 19 1 19 20
M  V30 20 2 20 21
M  V30 21 1 21 22
M  V30 22 1 22 23
M  V30 23 1 23 24
M  V30 24 1 24 25
M  V30 25 1 25 26
M  V30 26 1 25 27
M  V30 27 1 27 28
M  V30 28 2 22 29
M  V30 29 1 29 30
M  V30 30 2 30 31
M  V30 31 1 31 2
M  V30 32 1 17 3
M  V30 33 1 31 20
M  V30 34 1 14 8
M  V30 35 1 4 32
M  V30 36 1 5 33
M  V30 37 1 7 34
M  V30 38 1 9 35
M  V30 39 1 10 36
M  V30 40 1 13 37
M  V30 41 1 16 38
M  V30 42 1 18 39
M  V30 43 1 18 40
M  V30 44 1 19 41
M  V30 45 1 19 42
M  V30 46 1 21 43
M  V30 47 1 24 44
M  V30 48 1 24 45
M  V30 49 1 25 46 CFG=1
M  V30 50 1 26 47
M  V30 51 1 27 48
M  V30 52 1 27 49
M  V30 53 1 28 50
M  V30 54 1 29 51
M  V30 55 1 30 52
M  V30 END BOND
M  V30 END CTAB
M  END
>  <Dataset>  (119) 
ChEMBL_Kinases

>  <Ligand_Instance>  (119) 
nan

>  <PDB_ID>  (119) 
nan

>  <Standardized_SMILES>  (119) 
O=C1c2ccc(Nc3ccc(F)cc3F)cc2CCc2cc(OC[C@@H](O)CO)ccc21

>  <Name>  (119) 
nan

>  <Pocket>  (119) 
nan

>  <ATP_Site>  (119) 
nan

>  <Peripheral>  (119) 
nan

>  <Num_H_Atoms_ProtBoundConf>  (119) 
nan

>  <Num_Resolved_Atoms>  (119) 
nan

>  <Num_Not_Resolved_Atoms>  (119) 
nan

$$$$
CHEMBL2152964
     RDKit          3D

  0  0  0  0  0  0  0  0  0  0999 V3000
M  V30 BEGIN CTAB
M  V30 COUNTS 54 57 0 0 0
M  V30 BEGIN ATOM
M  V30 1 N 5.452302 -2.123431 1.481437 0
M  V30 2 C 6.219210 -0.947530 1.657555 0
M  V30 3 C 7.575513 -1.108542 1.466971 0
M  V30 4 C 8.388542 -0.004640 1.626247 0
M  V30 5 C 7.757654 1.169161 1.965196 0
M  V30 6 C 6.407241 1.335167 2.156197 0
M  V30 7 C 5.589820 0.231311 1.997449 0
M  V30 8 N 4.179201 0.267667 2.168352 0
M  V30 9 C 3.114926 -0.016258 1.268851 0
M  V30 10 C 3.395397 -0.349959 -0.038724 0
M  V30 11 C 2.327079 -0.626036 -0.895949 0
M  V30 12 C 1.058886 -0.541668 -0.358643 0
M  V30 13 C 0.781580 -0.201773 0.971322 0
M  V30 14 C 1.849225 0.067132 1.801810 0
M  V30 15 C -0.499275 -0.069285 1.691330 0
M  V30 16 C -1.576129 0.649182 0.940846 0
M  V30 17 C -2.073594 -0.144354 -0.210433 0
M  V30 18 C -3.443566 -0.199596 -0.221519 0
M  V30 19 C -4.216536 -0.842007 -1.132513 0
M  V30 20 O -5.516448 -1.034822 -1.346250 0
M  V30 21 C -6.707195 -0.713451 -0.779342 0
M  V30 22 C -6.988901 -1.232136 0.608453 0 CFG=2
M  V30 23 O -6.123838 -0.827954 1.589330 0
M  V30 24 C -6.997312 -2.749691 0.498371 0
M  V30 25 O -7.881829 -3.147154 -0.503791 0
M  V30 26 C -3.518252 -1.498570 -2.142013 0
M  V30 27 C -2.116151 -1.499405 -2.216189 0
M  V30 28 C -1.416957 -0.806311 -1.225229 0
M  V30 29 C 0.032717 -0.859270 -1.377436 0
M  V30 30 O 0.420862 -1.219339 -2.515425 0
M  V30 31 H 4.835113 -2.938824 1.525590 0
M  V30 32 H 5.197235 -2.914944 0.852703 0
M  V30 33 H 8.023648 -2.055997 1.200190 0
M  V30 34 H 9.456938 -0.075943 1.488751 0
M  V30 35 H 8.385221 2.038423 2.092100 0
M  V30 36 H 5.957527 2.274358 2.421132 0
M  V30 37 H 4.053991 0.565572 3.158155 0
M  V30 38 H 4.390836 -0.411870 -0.450072 0
M  V30 39 H 2.438674 -0.896770 -1.936975 0
M  V30 40 H 1.653563 0.331840 2.834583 0
M  V30 41 H -0.856873 -1.106683 1.884830 0
M  V30 42 H -0.335050 0.420208 2.650113 0
M  V30 43 H -2.395140 0.830587 1.634922 0
M  V30 44 H -1.198801 1.641768 0.583183 0
M  V30 45 H -3.978443 0.308636 0.536145 0
M  V30 46 H -6.938591 0.393424 -0.814316 0
M  V30 47 H -7.549706 -1.151255 -1.412344 0
M  V30 48 H -8.018732 -0.913191 0.948035 0
M  V30 49 H -6.573292 -0.613726 2.445099 0
M  V30 50 H -7.289760 -3.181981 1.474948 0
M  V30 51 H -5.965220 -3.049003 0.269148 0
M  V30 52 H -7.516800 -3.924200 -0.970787 0
M  V30 53 H -3.876169 -2.083915 -2.991520 0
M  V30 54 H -1.483384 -1.966404 -2.941173 0
M  V30 END ATOM
M  V30 BEGIN BOND
M  V30 1 1 1 2
M  V30 2 2 2 3
M  V30 3 1 3 4
M  V30 4 2 4 5
M  V30 5 1 5 6
M  V30 6 2 6 7
M  V30 7 1 7 8
M  V30 8 1 8 9
M  V30 9 2 9 10
M  V30 10 1 10 11
M  V30 11 2 11 12
M  V30 12 1 12 13
M  V30 13 2 13 14
M  V30 14 1 13 15
M  V30 15 1 15 16
M  V30 16 1 16 17
M  V30 17 2 17 18
M  V30 18 1 18 19
M  V30 19 1 19 20
M  V30 20 1 20 21
M  V30 21 1 21 22
M  V30 22 1 22 23
M  V30 23 1 22 24
M  V30 24 1 24 25
M  V30 25 2 19 26
M  V30 26 1 26 27
M  V30 27 2 27 28
M  V30 28 1 28 29
M  V30 29 2 29 30
M  V30 30 1 7 2
M  V30 31 1 14 9
M  V30 32 1 28 17
M  V30 33 1 29 12
M  V30 34 1 1 31
M  V30 35 1 1 32
M  V30 36 1 3 33
M  V30 37 1 4 34
M  V30 38 1 5 35
M  V30 39 1 6 36
M  V30 40 1 8 37
M  V30 41 1 10 38
M  V30 42 1 11 39
M  V30 43 1 14 40
M  V30 44 1 15 41
M  V30 45 1 15 42
M  V30 46 1 16 43
M  V30 47 1 16 44
M  V30 48 1 18 45
M  V30 49 1 21 46
M  V30 50 1 21 47
M  V30 51 1 22 48 CFG=1
M  V30 52 1 23 49
M  V30 53 1 24 50
M  V30 54 1 24 51
M  V30 55 1 25 52
M  V30 56 1 26 53
M  V30 57 1 27 54
M  V30 END BOND
M  V30 END CTAB
M  END
>  <Dataset>  (120) 
ChEMBL_Kinases

>  <Ligand_Instance>  (120) 
nan

>  <PDB_ID>  (120) 
nan

>  <Standardized_SMILES>  (120) 
Nc1ccccc1Nc1ccc2c(c1)CCc1cc(OC[C@H](O)CO)ccc1C2=O

>  <Name>  (120) 
nan

>  <Pocket>  (120) 
nan

>  <ATP_Site>  (120) 
nan

>  <Peripheral>  (120) 
nan

>  <Num_H_Atoms_ProtBoundConf>  (120) 
nan

>  <Num_Resolved_Atoms>  (120) 
nan

>  <Num_Not_Resolved_Atoms>  (120) 
nan

$$$$
CHEMBL2153534
     RDKit          3D

  0  0  0  0  0  0  0  0  0  0999 V3000
M  V30 BEGIN CTAB
M  V30 COUNTS 38 41 0 0 0
M  V30 BEGIN ATOM
M  V30 1 C 0.633765 -4.192900 5.024315 0
M  V30 2 O 0.819149 -4.089600 3.601144 0
M  V30 3 C 1.117574 -2.856799 3.037078 0
M  V30 4 C 1.246324 -1.696838 3.760664 0
M  V30 5 C 1.539260 -0.423062 3.261139 0
M  V30 6 C 1.718858 -0.318267 1.903367 0
M  V30 7 N 2.001840 1.005983 1.457015 0
M  V30 8 C 1.807916 1.407390 0.083961 0
M  V30 9 N 2.725278 1.689322 -0.867066 0
M  V30 10 C 2.215178 2.033157 -2.071536 0
M  V30 11 N 0.910498 2.124655 -2.418547 0
M  V30 12 C -0.017083 1.834804 -1.444712 0
M  V30 13 C 0.442116 1.480257 -0.209815 0
M  V30 14 S -0.996069 1.177089 0.782168 0
M  V30 15 C -2.191536 1.574894 -0.632810 0
M  V30 16 C -3.560964 1.508761 -0.456404 0
M  V30 17 C -4.249316 1.846249 -1.633793 0
M  V30 18 C -3.467360 2.177236 -2.738736 0
M  V30 19 N -2.130257 2.191987 -2.743560 0
M  V30 20 C -1.357817 1.895129 -1.699754 0
M  V30 21 C 1.607907 -1.433980 1.106472 0
M  V30 22 C 1.312833 -2.661771 1.684856 0
M  V30 23 O 1.196589 -3.791005 0.889154 0
M  V30 24 C 1.385763 -3.687782 -0.487511 0
M  V30 25 H 1.504957 -3.684860 5.537626 0
M  V30 26 H -0.281397 -3.670803 5.334709 0
M  V30 27 H 0.645152 -5.236417 5.366636 0
M  V30 28 H 1.103311 -1.760374 4.845662 0
M  V30 29 H 1.614526 0.417783 3.967784 0
M  V30 30 H 2.370207 1.769449 2.061185 0
M  V30 31 H 2.976319 2.255194 -2.807424 0
M  V30 32 H -4.011759 1.234797 0.459055 0
M  V30 33 H -5.319609 1.832435 -1.619531 0
M  V30 34 H -3.970604 2.446182 -3.682227 0
M  V30 35 H 1.760748 -1.294379 0.050847 0
M  V30 36 H 0.712847 -2.943594 -0.974888 0
M  V30 37 H 1.220303 -4.650431 -1.017001 0
M  V30 38 H 2.439274 -3.331025 -0.627342 0
M  V30 END ATOM
M  V30 BEGIN BOND
M  V30 1 1 1 2
M  V30 2 1 2 3
M  V30 3 2 3 4
M  V30 4 1 4 5
M  V30 5 2 5 6
M  V30 6 1 6 7
M  V30 7 1 7 8
M  V30 8 2 8 9
M  V30 9 1 9 10
M  V30 10 2 10 11
M  V30 11 1 11 12
M  V30 12 2 12 13
M  V30 13 1 13 14
M  V30 14 1 14 15
M  V30 15 2 15 16
M  V30 16 1 16 17
M  V30 17 2 17 18
M  V30 18 1 18 19
M  V30 19 2 19 20
M  V30 20 1 6 21
M  V30 21 2 21 22
M  V30 22 1 22 23
M  V30 23 1 23 24
M  V30 24 1 22 3
M  V30 25 1 13 8
M  V30 26 1 20 15
M  V30 27 1 20 12
M  V30 28 1 1 25
M  V30 29 1 1 26
M  V30 30 1 1 27
M  V30 31 1 4 28
M  V30 32 1 5 29
M  V30 33 1 7 30
M  V30 34 1 10 31
M  V30 35 1 16 32
M  V30 36 1 17 33
M  V30 37 1 18 34
M  V30 38 1 21 35
M  V30 39 1 24 36
M  V30 40 1 24 37
M  V30 41 1 24 38
M  V30 END BOND
M  V30 END CTAB
M  END
>  <Dataset>  (121) 
ChEMBL_Kinases

>  <Ligand_Instance>  (121) 
nan

>  <PDB_ID>  (121) 
nan

>  <Standardized_SMILES>  (121) 
COc1ccc(Nc2ncnc3c2sc2cccnc23)cc1OC

>  <Name>  (121) 
nan

>  <Pocket>  (121) 
nan

>  <ATP_Site>  (121) 
nan

>  <Peripheral>  (121) 
nan

>  <Num_H_Atoms_ProtBoundConf>  (121) 
nan

>  <Num_Resolved_Atoms>  (121) 
nan

>  <Num_Not_Resolved_Atoms>  (121) 
nan

$$$$
CHEMBL2153261
     RDKit          3D

  0  0  0  0  0  0  0  0  0  0999 V3000
M  V30 BEGIN CTAB
M  V30 COUNTS 23 25 0 0 0
M  V30 BEGIN ATOM
M  V30 1 N -0.054308 -1.335197 4.276416 0
M  V30 2 C 0.043334 -0.354366 3.247672 0
M  V30 3 N 0.238898 -0.633234 1.946484 0
M  V30 4 C 0.287213 0.483313 1.223849 0
M  V30 5 C 0.461419 0.740745 -0.106421 0
M  V30 6 C 0.649678 -0.324106 -1.089576 0
M  V30 7 C 0.690730 -1.646451 -0.935178 0
M  V30 8 C 0.875129 -2.498009 -1.963075 0
M  V30 9 C 1.022881 -1.812709 -3.249369 0
M  V30 10 S 0.872773 -0.019528 -2.784757 0
M  V30 11 N 0.457591 2.019451 -0.511840 0
M  V30 12 C 0.288187 3.031125 0.354677 0
M  V30 13 C 0.110716 2.796215 1.700627 0
M  V30 14 C 0.110149 1.491867 2.146093 0
M  V30 15 N -0.038516 0.981215 3.379794 0
M  V30 16 H -0.835755 -1.209292 4.964228 0
M  V30 17 H 0.571864 -2.171075 4.420616 0
M  V30 18 H 0.567579 -2.048528 0.079738 0
M  V30 19 H 0.917795 -3.576973 -1.902566 0
M  V30 20 H 1.195720 -2.592981 -4.218896 0
M  V30 21 H 0.296728 4.038941 -0.047334 0
M  V30 22 H -0.026332 3.615844 2.401239 0
M  V30 23 H -0.188826 1.500575 4.276691 0
M  V30 END ATOM
M  V30 BEGIN BOND
M  V30 1 1 1 2
M  V30 2 2 2 3
M  V30 3 1 3 4
M  V30 4 2 4 5
M  V30 5 1 5 6
M  V30 6 2 6 7
M  V30 7 1 7 8
M  V30 8 2 8 9
M  V30 9 1 9 10
M  V30 10 1 5 11
M  V30 11 2 11 12
M  V30 12 1 12 13
M  V30 13 2 13 14
M  V30 14 1 14 15
M  V30 15 1 15 2
M  V30 16 1 14 4
M  V30 17 1 10 6
M  V30 18 1 1 16
M  V30 19 1 1 17
M  V30 20 1 7 18
M  V30 21 1 8 19
M  V30 22 1 9 20
M  V30 23 1 12 21
M  V30 24 1 13 22
M  V30 25 1 15 23
M  V30 END BOND
M  V30 END CTAB
M  END
>  <Dataset>  (122) 
ChEMBL_Kinases

>  <Ligand_Instance>  (122) 
nan

>  <PDB_ID>  (122) 
nan

>  <Standardized_SMILES>  (122) 
Nc1nc2c(-c3cccs3)nccc2[nH]1

>  <Name>  (122) 
nan

>  <Pocket>  (122) 
nan

>  <ATP_Site>  (122) 
nan

>  <Peripheral>  (122) 
nan

>  <Num_H_Atoms_ProtBoundConf>  (122) 
nan

>  <Num_Resolved_Atoms>  (122) 
nan

>  <Num_Not_Resolved_Atoms>  (122) 
nan

$$$$
CHEMBL2153263
     RDKit          3D

  0  0  0  0  0  0  0  0  0  0999 V3000
M  V30 BEGIN CTAB
M  V30 COUNTS 23 25 0 0 0
M  V30 BEGIN ATOM
M  V30 1 N 0.340199 -1.063209 4.402078 0
M  V30 2 C 0.314958 -0.300700 3.192959 0
M  V30 3 N 0.449651 -0.768112 1.927943 0
M  V30 4 C 0.366788 0.269124 1.099758 0
M  V30 5 C 0.419628 0.493942 -0.271213 0
M  V30 6 C 0.619049 -0.683630 -1.103514 0
M  V30 7 C -0.015357 -1.864582 -0.976523 0
M  V30 8 C 0.246461 -2.897570 -1.806571 0
M  V30 9 S 1.546645 -2.267447 -2.982439 0
M  V30 10 C 1.557824 -0.572345 -2.128304 0
M  V30 11 N 0.294828 1.723042 -0.804986 0
M  V30 12 C 0.108936 2.831265 -0.051546 0
M  V30 13 C 0.054391 2.623256 1.312150 0
M  V30 14 C 0.177040 1.383037 1.905876 0
M  V30 15 N 0.143332 1.039317 3.209617 0
M  V30 16 H -0.305499 -1.881462 4.499464 0
M  V30 17 H 0.939986 -0.918889 5.251663 0
M  V30 18 H -0.762868 -2.051049 -0.210533 0
M  V30 19 H -0.107556 -3.879828 -1.901056 0
M  V30 20 H 2.198110 0.267638 -2.436435 0
M  V30 21 H 0.008995 3.819712 -0.488007 0
M  V30 22 H -0.096502 3.522173 1.925066 0
M  V30 23 H 0.015606 1.653158 4.043667 0
M  V30 END ATOM
M  V30 BEGIN BOND
M  V30 1 1 1 2
M  V30 2 2 2 3
M  V30 3 1 3 4
M  V30 4 2 4 5
M  V30 5 1 5 6
M  V30 6 1 6 7
M  V30 7 2 7 8
M  V30 8 1 8 9
M  V30 9 1 9 10
M  V30 10 1 5 11
M  V30 11 2 11 12
M  V30 12 1 12 13
M  V30 13 2 13 14
M  V30 14 1 14 15
M  V30 15 1 15 2
M  V30 16 1 14 4
M  V30 17 2 10 6
M  V30 18 1 1 16
M  V30 19 1 1 17
M  V30 20 1 7 18
M  V30 21 1 8 19
M  V30 22 1 10 20
M  V30 23 1 12 21
M  V30 24 1 13 22
M  V30 25 1 15 23
M  V30 END BOND
M  V30 END CTAB
M  END
>  <Dataset>  (123) 
ChEMBL_Kinases

>  <Ligand_Instance>  (123) 
nan

>  <PDB_ID>  (123) 
nan

>  <Standardized_SMILES>  (123) 
Nc1nc2c(-c3ccsc3)nccc2[nH]1

>  <Name>  (123) 
nan

>  <Pocket>  (123) 
nan

>  <ATP_Site>  (123) 
nan

>  <Peripheral>  (123) 
nan

>  <Num_H_Atoms_ProtBoundConf>  (123) 
nan

>  <Num_Resolved_Atoms>  (123) 
nan

>  <Num_Not_Resolved_Atoms>  (123) 
nan

$$$$
CHEMBL2153265
     RDKit          3D

  0  0  0  0  0  0  0  0  0  0999 V3000
M  V30 BEGIN CTAB
M  V30 COUNTS 25 27 0 0 0
M  V30 BEGIN ATOM
M  V30 1 N -0.768791 -2.657086 4.063548 0
M  V30 2 C 0.032994 -1.872083 3.162536 0
M  V30 3 N -0.321208 -1.162779 2.052512 0
M  V30 4 C 0.755559 -0.589995 1.529972 0
M  V30 5 C 0.920703 0.227100 0.408488 0
M  V30 6 C -0.230112 0.590149 -0.425627 0
M  V30 7 C -0.034396 0.494703 -1.808268 0
M  V30 8 C -1.087352 0.825326 -2.641922 0
M  V30 9 C -2.304233 1.240865 -2.092535 0
M  V30 10 N -2.417400 1.307970 -0.753928 0
M  V30 11 C -1.439425 1.002847 0.108856 0
M  V30 12 N 2.169788 0.654286 0.141123 0
M  V30 13 C 3.232442 0.327117 0.899814 0
M  V30 14 C 3.107456 -0.485601 2.026064 0
M  V30 15 C 1.841141 -0.942293 2.330834 0
M  V30 16 N 1.362003 -1.724270 3.316036 0
M  V30 17 H -0.533231 -3.676010 3.904031 0
M  V30 18 H -1.456311 -2.273150 4.747165 0
M  V30 19 H 0.890237 0.178102 -2.264631 0
M  V30 20 H -1.038037 0.785023 -3.725417 0
M  V30 21 H -3.165744 1.512735 -2.713043 0
M  V30 22 H -1.526986 1.055541 1.179558 0
M  V30 23 H 4.216112 0.696229 0.642570 0
M  V30 24 H 3.944393 -0.769853 2.661551 0
M  V30 25 H 1.935843 -2.149508 4.080674 0
M  V30 END ATOM
M  V30 BEGIN BOND
M  V30 1 1 1 2
M  V30 2 2 2 3
M  V30 3 1 3 4
M  V30 4 2 4 5
M  V30 5 1 5 6
M  V30 6 2 6 7
M  V30 7 1 7 8
M  V30 8 2 8 9
M  V30 9 1 9 10
M  V30 10 2 10 11
M  V30 11 1 5 12
M  V30 12 2 12 13
M  V30 13 1 13 14
M  V30 14 2 14 15
M  V30 15 1 15 16
M  V30 16 1 16 2
M  V30 17 1 15 4
M  V30 18 1 11 6
M  V30 19 1 1 17
M  V30 20 1 1 18
M  V30 21 1 7 19
M  V30 22 1 8 20
M  V30 23 1 9 21
M  V30 24 1 11 22
M  V30 25 1 13 23
M  V30 26 1 14 24
M  V30 27 1 16 25
M  V30 END BOND
M  V30 END CTAB
M  END
>  <Dataset>  (124) 
ChEMBL_Kinases

>  <Ligand_Instance>  (124) 
nan

>  <PDB_ID>  (124) 
nan

>  <Standardized_SMILES>  (124) 
Nc1nc2c(-c3cccnc3)nccc2[nH]1

>  <Name>  (124) 
nan

>  <Pocket>  (124) 
nan

>  <ATP_Site>  (124) 
nan

>  <Peripheral>  (124) 
nan

>  <Num_H_Atoms_ProtBoundConf>  (124) 
nan

>  <Num_Resolved_Atoms>  (124) 
nan

>  <Num_Not_Resolved_Atoms>  (124) 
nan

$$$$
CHEMBL2153267
     RDKit          3D

  0  0  0  0  0  0  0  0  0  0999 V3000
M  V30 BEGIN CTAB
M  V30 COUNTS 26 28 0 0 0
M  V30 BEGIN ATOM
M  V30 1 N -1.275926 -3.834777 2.660203 0
M  V30 2 C -0.735389 -2.535587 2.532299 0
M  V30 3 N -0.503541 -1.873830 1.375309 0
M  V30 4 C 0.005065 -0.691603 1.679134 0
M  V30 5 C 0.412692 0.354963 0.877978 0
M  V30 6 C 0.349899 0.344007 -0.583052 0
M  V30 7 C -0.702071 -0.078133 -1.363637 0
M  V30 8 C -0.609837 -0.026543 -2.742008 0
M  V30 9 C 0.526557 0.444643 -3.404151 0
M  V30 10 C 1.547662 0.853633 -2.570780 0
M  V30 11 C 1.502391 0.821226 -1.191098 0
M  V30 12 N 0.894534 1.441405 1.519980 0
M  V30 13 C 0.987827 1.536536 2.859527 0
M  V30 14 C 0.587734 0.504763 3.693825 0
M  V30 15 C 0.088654 -0.623005 3.054738 0
M  V30 16 N -0.370140 -1.765283 3.580429 0
M  V30 17 H -1.164910 -4.394243 3.531974 0
M  V30 18 H -1.810332 -4.313641 1.911096 0
M  V30 19 H -1.560509 -0.434370 -0.833289 0
M  V30 20 H -1.446799 -0.362568 -3.346664 0
M  V30 21 H 0.602099 0.486382 -4.482320 0
M  V30 22 H 2.443999 1.225046 -3.068778 0
M  V30 23 H 2.393542 1.180125 -0.658622 0
M  V30 24 H 1.380159 2.425940 3.331813 0
M  V30 25 H 0.677165 0.616055 4.765938 0
M  V30 26 H -0.444565 -2.038067 4.588300 0
M  V30 END ATOM
M  V30 BEGIN BOND
M  V30 1 1 1 2
M  V30 2 2 2 3
M  V30 3 1 3 4
M  V30 4 2 4 5
M  V30 5 1 5 6
M  V30 6 2 6 7
M  V30 7 1 7 8
M  V30 8 2 8 9
M  V30 9 1 9 10
M  V30 10 2 10 11
M  V30 11 1 5 12
M  V30 12 2 12 13
M  V30 13 1 13 14
M  V30 14 2 14 15
M  V30 15 1 15 16
M  V30 16 1 16 2
M  V30 17 1 15 4
M  V30 18 1 11 6
M  V30 19 1 1 17
M  V30 20 1 1 18
M  V30 21 1 7 19
M  V30 22 1 8 20
M  V30 23 1 9 21
M  V30 24 1 10 22
M  V30 25 1 11 23
M  V30 26 1 13 24
M  V30 27 1 14 25
M  V30 28 1 16 26
M  V30 END BOND
M  V30 END CTAB
M  END
>  <Dataset>  (125) 
ChEMBL_Kinases

>  <Ligand_Instance>  (125) 
nan

>  <PDB_ID>  (125) 
nan

>  <Standardized_SMILES>  (125) 
Nc1nc2c(-c3ccccc3)nccc2[nH]1

>  <Name>  (125) 
nan

>  <Pocket>  (125) 
nan

>  <ATP_Site>  (125) 
nan

>  <Peripheral>  (125) 
nan

>  <Num_H_Atoms_ProtBoundConf>  (125) 
nan

>  <Num_Resolved_Atoms>  (125) 
nan

>  <Num_Not_Resolved_Atoms>  (125) 
nan

$$$$
CHEMBL2153515
     RDKit          3D

  0  0  0  0  0  0  0  0  0  0999 V3000
M  V30 BEGIN CTAB
M  V30 COUNTS 39 42 0 0 0
M  V30 BEGIN ATOM
M  V30 1 C 1.856429 -5.684296 3.028902 0
M  V30 2 O 1.582540 -4.493070 3.744844 0
M  V30 3 C 1.575239 -3.280739 3.073973 0
M  V30 4 C 1.824781 -3.195170 1.714098 0
M  V30 5 C 1.814933 -1.977884 1.061618 0
M  V30 6 C 1.542657 -0.847993 1.842011 0
M  V30 7 N 1.511578 0.442306 1.243464 0
M  V30 8 C 1.393103 0.648094 -0.158409 0
M  V30 9 N 2.392560 0.420700 -1.033949 0
M  V30 10 C 2.081374 0.688213 -2.327211 0
M  V30 11 N 0.903822 1.139699 -2.753821 0
M  V30 12 C -0.131353 1.385512 -1.927955 0
M  V30 13 C 0.161249 1.123917 -0.635251 0
M  V30 14 S -1.252245 1.498864 0.287665 0
M  V30 15 C -2.257367 2.033576 -1.213293 0
M  V30 16 C -3.575440 2.504871 -1.303408 0
M  V30 17 C -4.037437 2.820943 -2.549676 0
M  V30 18 C -3.183482 2.655676 -3.616345 0
M  V30 19 C -1.896487 2.191455 -3.483212 0
M  V30 20 C -1.378156 1.857394 -2.252759 0
M  V30 21 C 1.291857 -0.918433 3.199565 0
M  V30 22 C 1.308747 -2.163493 3.827354 0
M  V30 23 O 1.060967 -2.257908 5.169817 0
M  V30 24 C 0.770895 -1.146910 5.997658 0
M  V30 25 H 1.676884 -6.585845 3.652684 0
M  V30 26 H 1.201814 -5.815357 2.141149 0
M  V30 27 H 2.894262 -5.664034 2.597310 0
M  V30 28 H 2.021402 -4.126043 1.213471 0
M  V30 29 H 2.009923 -1.908990 -0.010222 0
M  V30 30 H 1.566779 1.326641 1.748858 0
M  V30 31 H 2.851682 0.524722 -3.101305 0
M  V30 32 H -4.119004 2.577832 -0.356442 0
M  V30 33 H -5.057397 3.177879 -2.553456 0
M  V30 34 H -3.580489 2.913828 -4.588377 0
M  V30 35 H -1.334864 2.109364 -4.408492 0
M  V30 36 H 1.083862 0.006953 3.753232 0
M  V30 37 H 0.187975 -1.530929 6.870337 0
M  V30 38 H 1.706563 -0.692773 6.353462 0
M  V30 39 H 0.116807 -0.399377 5.498224 0
M  V30 END ATOM
M  V30 BEGIN BOND
M  V30 1 1 1 2
M  V30 2 1 2 3
M  V30 3 2 3 4
M  V30 4 1 4 5
M  V30 5 2 5 6
M  V30 6 1 6 7
M  V30 7 1 7 8
M  V30 8 2 8 9
M  V30 9 1 9 10
M  V30 10 2 10 11
M  V30 11 1 11 12
M  V30 12 2 12 13
M  V30 13 1 13 14
M  V30 14 1 14 15
M  V30 15 2 15 16
M  V30 16 1 16 17
M  V30 17 2 17 18
M  V30 18 1 18 19
M  V30 19 2 19 20
M  V30 20 1 6 21
M  V30 21 2 21 22
M  V30 22 1 22 23
M  V30 23 1 23 24
M  V30 24 1 22 3
M  V30 25 1 13 8
M  V30 26 1 20 15
M  V30 27 1 20 12
M  V30 28 1 1 25
M  V30 29 1 1 26
M  V30 30 1 1 27
M  V30 31 1 4 28
M  V30 32 1 5 29
M  V30 33 1 7 30
M  V30 34 1 10 31
M  V30 35 1 16 32
M  V30 36 1 17 33
M  V30 37 1 18 34
M  V30 38 1 19 35
M  V30 39 1 21 36
M  V30 40 1 24 37
M  V30 41 1 24 38
M  V30 42 1 24 39
M  V30 END BOND
M  V30 END CTAB
M  END
>  <Dataset>  (126) 
ChEMBL_Kinases

>  <Ligand_Instance>  (126) 
nan

>  <PDB_ID>  (126) 
nan

>  <Standardized_SMILES>  (126) 
COc1ccc(Nc2ncnc3c2sc2ccccc23)cc1OC

>  <Name>  (126) 
nan

>  <Pocket>  (126) 
nan

>  <ATP_Site>  (126) 
nan

>  <Peripheral>  (126) 
nan

>  <Num_H_Atoms_ProtBoundConf>  (126) 
nan

>  <Num_Resolved_Atoms>  (126) 
nan

>  <Num_Not_Resolved_Atoms>  (126) 
nan

$$$$
CHEMBL2153522
     RDKit          3D

  0  0  0  0  0  0  0  0  0  0999 V3000
M  V30 BEGIN CTAB
M  V30 COUNTS 30 33 0 0 0
M  V30 BEGIN ATOM
M  V30 1 C -0.222613 -4.859461 3.364847 0
M  V30 2 C 1.065316 -4.517623 3.684239 0
M  V30 3 C 1.764677 -3.585456 2.959469 0
M  V30 4 C 1.116009 -3.002725 1.890371 0
M  V30 5 N 1.815595 -2.030704 1.116843 0
M  V30 6 C 1.403862 -1.276820 -0.017639 0
M  V30 7 N 1.584496 -1.742362 -1.290300 0
M  V30 8 C 1.142645 -0.913685 -2.253854 0
M  V30 9 N 0.573275 0.263575 -2.057570 0
M  V30 10 C 0.369474 0.773067 -0.828928 0
M  V30 11 C 0.809561 -0.049501 0.168565 0
M  V30 12 S 0.469348 0.761426 1.691050 0
M  V30 13 C -0.298124 2.264234 0.848689 0
M  V30 14 N -0.820304 3.372125 1.398502 0
M  V30 15 C -1.331103 4.356810 0.637571 0
M  V30 16 C -1.255732 4.100048 -0.710583 0
M  V30 17 C -0.723608 2.970514 -1.277536 0
M  V30 18 C -0.203038 1.968190 -0.486770 0
M  V30 19 C -0.180902 -3.347981 1.570000 0
M  V30 20 C -0.885426 -4.285701 2.298512 0
M  V30 21 H -0.735156 -5.597282 3.961700 0
M  V30 22 H 1.587419 -4.964140 4.517614 0
M  V30 23 H 2.782875 -3.317052 3.214222 0
M  V30 24 H 2.777874 -1.759001 1.330210 0
M  V30 25 H 1.256943 -1.226857 -3.303634 0
M  V30 26 H -1.730526 5.211295 1.148937 0
M  V30 27 H -1.664513 4.884638 -1.365031 0
M  V30 28 H -0.733066 2.907941 -2.351749 0
M  V30 29 H -0.627557 -2.850143 0.717665 0
M  V30 30 H -1.904824 -4.524509 2.007496 0
M  V30 END ATOM
M  V30 BEGIN BOND
M  V30 1 2 1 2
M  V30 2 1 2 3
M  V30 3 2 3 4
M  V30 4 1 4 5
M  V30 5 1 5 6
M  V30 6 2 6 7
M  V30 7 1 7 8
M  V30 8 2 8 9
M  V30 9 1 9 10
M  V30 10 2 10 11
M  V30 11 1 11 12
M  V30 12 1 12 13
M  V30 13 2 13 14
M  V30 14 1 14 15
M  V30 15 2 15 16
M  V30 16 1 16 17
M  V30 17 2 17 18
M  V30 18 1 4 19
M  V30 19 2 19 20
M  V30 20 1 20 1
M  V30 21 1 11 6
M  V30 22 1 18 13
M  V30 23 1 18 10
M  V30 24 1 1 21
M  V30 25 1 2 22
M  V30 26 1 3 23
M  V30 27 1 5 24
M  V30 28 1 8 25
M  V30 29 1 15 26
M  V30 30 1 16 27
M  V30 31 1 17 28
M  V30 32 1 19 29
M  V30 33 1 20 30
M  V30 END BOND
M  V30 END CTAB
M  END
>  <Dataset>  (127) 
ChEMBL_Kinases

>  <Ligand_Instance>  (127) 
nan

>  <PDB_ID>  (127) 
nan

>  <Standardized_SMILES>  (127) 
c1ccc(Nc2ncnc3c2sc2ncccc23)cc1

>  <Name>  (127) 
nan

>  <Pocket>  (127) 
nan

>  <ATP_Site>  (127) 
nan

>  <Peripheral>  (127) 
nan

>  <Num_H_Atoms_ProtBoundConf>  (127) 
nan

>  <Num_Resolved_Atoms>  (127) 
nan

>  <Num_Not_Resolved_Atoms>  (127) 
nan

$$$$
CHEMBL2153523
     RDKit          3D

  0  0  0  0  0  0  0  0  0  0999 V3000
M  V30 BEGIN CTAB
M  V30 COUNTS 34 37 0 0 0
M  V30 BEGIN ATOM
M  V30 1 C 0.955210 -5.209776 3.314636 0
M  V30 2 O 1.427563 -3.961122 3.752375 0
M  V30 3 C 1.600891 -2.837168 2.982761 0
M  V30 4 C 1.338375 -2.764121 1.640175 0
M  V30 5 C 1.509019 -1.628899 0.865555 0
M  V30 6 C 1.974760 -0.502606 1.496457 0
M  V30 7 N 2.193599 0.792140 0.893952 0
M  V30 8 C 1.577189 0.924485 -0.405747 0
M  V30 9 N 2.210417 0.901233 -1.593700 0
M  V30 10 C 1.406433 1.039989 -2.660659 0
M  V30 11 N 0.082038 1.192509 -2.618993 0
M  V30 12 C -0.601221 1.223223 -1.464186 0
M  V30 13 C 0.199918 1.082025 -0.349217 0
M  V30 14 S -0.872236 1.139891 1.023562 0
M  V30 15 C -2.430010 1.361261 -0.006868 0
M  V30 16 N -3.691285 1.479900 0.422090 0
M  V30 17 C -4.706733 1.630499 -0.478176 0
M  V30 18 C -4.250424 1.639093 -1.769804 0
M  V30 19 C -2.976194 1.522211 -2.250944 0
M  V30 20 C -1.954731 1.367966 -1.317213 0
M  V30 21 C 2.241143 -0.589668 2.871189 0
M  V30 22 C 2.069420 -1.730104 3.647070 0
M  V30 23 H 0.286618 -5.057009 2.435780 0
M  V30 24 H 1.774181 -5.898433 3.064604 0
M  V30 25 H 0.316067 -5.639362 4.141059 0
M  V30 26 H 0.966657 -3.642025 1.110562 0
M  V30 27 H 1.315301 -1.544270 -0.190697 0
M  V30 28 H 2.756980 1.507907 1.390826 0
M  V30 29 H 1.863822 1.026363 -3.661950 0
M  V30 30 H -5.703486 1.722192 -0.106345 0
M  V30 31 H -5.036981 1.758001 -2.535455 0
M  V30 32 H -2.768327 1.547458 -3.303900 0
M  V30 33 H 2.619647 0.295086 3.414066 0
M  V30 34 H 2.304773 -1.692354 4.705379 0
M  V30 END ATOM
M  V30 BEGIN BOND
M  V30 1 1 1 2
M  V30 2 1 2 3
M  V30 3 2 3 4
M  V30 4 1 4 5
M  V30 5 2 5 6
M  V30 6 1 6 7
M  V30 7 1 7 8
M  V30 8 2 8 9
M  V30 9 1 9 10
M  V30 10 2 10 11
M  V30 11 1 11 12
M  V30 12 2 12 13
M  V30 13 1 13 14
M  V30 14 1 14 15
M  V30 15 2 15 16
M  V30 16 1 16 17
M  V30 17 2 17 18
M  V30 18 1 18 19
M  V30 19 2 19 20
M  V30 20 1 6 21
M  V30 21 2 21 22
M  V30 22 1 22 3
M  V30 23 1 13 8
M  V30 24 1 20 15
M  V30 25 1 20 12
M  V30 26 1 1 23
M  V30 27 1 1 24
M  V30 28 1 1 25
M  V30 29 1 4 26
M  V30 30 1 5 27
M  V30 31 1 7 28
M  V30 32 1 10 29
M  V30 33 1 17 30
M  V30 34 1 18 31
M  V30 35 1 19 32
M  V30 36 1 21 33
M  V30 37 1 22 34
M  V30 END BOND
M  V30 END CTAB
M  END
>  <Dataset>  (128) 
ChEMBL_Kinases

>  <Ligand_Instance>  (128) 
nan

>  <PDB_ID>  (128) 
nan

>  <Standardized_SMILES>  (128) 
COc1ccc(Nc2ncnc3c2sc2ncccc23)cc1

>  <Name>  (128) 
nan

>  <Pocket>  (128) 
nan

>  <ATP_Site>  (128) 
nan

>  <Peripheral>  (128) 
nan

>  <Num_H_Atoms_ProtBoundConf>  (128) 
nan

>  <Num_Resolved_Atoms>  (128) 
nan

>  <Num_Not_Resolved_Atoms>  (128) 
nan

$$$$
CHEMBL2153527
     RDKit          3D

  0  0  0  0  0  0  0  0  0  0999 V3000
M  V30 BEGIN CTAB
M  V30 COUNTS 33 37 0 0 0
M  V30 BEGIN ATOM
M  V30 1 C -2.337919 -5.323232 1.984299 0
M  V30 2 C -1.511007 -5.248551 3.057474 0
M  V30 3 N -0.530630 -4.342530 2.924822 0
M  V30 4 C -0.441133 -3.613544 1.801610 0
M  V30 5 S 0.802841 -2.311932 1.370052 0
M  V30 6 C 0.051587 -1.957558 -0.332187 0
M  V30 7 C 0.480733 -1.047877 -1.277558 0
M  V30 8 N 1.627010 -0.284744 -0.921645 0
M  V30 9 C 1.688181 0.988702 -0.293132 0
M  V30 10 C 2.892279 1.608169 0.035790 0
M  V30 11 C 2.826541 2.845862 0.637917 0
M  V30 12 C 1.632577 3.489516 0.925160 0
M  V30 13 C 0.457552 2.816196 0.570792 0
M  V30 14 C 0.467311 1.573926 -0.034842 0
M  V30 15 O -0.591674 3.668805 0.963185 0
M  V30 16 C -0.086258 4.558534 1.970551 0
M  V30 17 O 1.255268 4.703321 1.508576 0
M  V30 18 N -0.252137 -1.017729 -2.399140 0
M  V30 19 C -1.298968 -1.854673 -2.480354 0
M  V30 20 N -1.660157 -2.704178 -1.539659 0
M  V30 21 C -1.026649 -2.847651 -0.367564 0
M  V30 22 C -1.274116 -3.668942 0.685958 0
M  V30 23 C -2.278816 -4.597167 0.821839 0
M  V30 24 H -3.160419 -6.058256 2.052711 0
M  V30 25 H -1.575469 -5.826895 3.958921 0
M  V30 26 H 2.391231 -0.913689 -1.247106 0
M  V30 27 H 3.821230 1.117754 -0.182524 0
M  V30 28 H 3.744167 3.326076 0.892531 0
M  V30 29 H -0.483279 1.111810 -0.281691 0
M  V30 30 H -0.636549 5.496009 2.035631 0
M  V30 31 H -0.117906 3.963900 2.919065 0
M  V30 32 H -1.916935 -1.856837 -3.378084 0
M  V30 33 H -3.017507 -4.774668 0.053708 0
M  V30 END ATOM
M  V30 BEGIN BOND
M  V30 1 2 1 2
M  V30 2 1 2 3
M  V30 3 2 3 4
M  V30 4 1 4 5
M  V30 5 1 5 6
M  V30 6 2 6 7
M  V30 7 1 7 8
M  V30 8 1 8 9
M  V30 9 2 9 10
M  V30 10 1 10 11
M  V30 11 2 11 12
M  V30 12 1 12 13
M  V30 13 2 13 14
M  V30 14 1 13 15
M  V30 15 1 15 16
M  V30 16 1 16 17
M  V30 17 1 7 18
M  V30 18 2 18 19
M  V30 19 1 19 20
M  V30 20 2 20 21
M  V30 21 1 21 22
M  V30 22 2 22 23
M  V30 23 1 23 1
M  V30 24 1 22 4
M  V30 25 1 21 6
M  V30 26 1 14 9
M  V30 27 1 17 12
M  V30 28 1 1 24
M  V30 29 1 2 25
M  V30 30 1 8 26
M  V30 31 1 10 27
M  V30 32 1 11 28
M  V30 33 1 14 29
M  V30 34 1 16 30
M  V30 35 1 16 31
M  V30 36 1 19 32
M  V30 37 1 23 33
M  V30 END BOND
M  V30 END CTAB
M  END
>  <Dataset>  (129) 
ChEMBL_Kinases

>  <Ligand_Instance>  (129) 
nan

>  <PDB_ID>  (129) 
nan

>  <Standardized_SMILES>  (129) 
c1cnc2sc3c(Nc4ccc5c(c4)OCO5)ncnc3c2c1

>  <Name>  (129) 
nan

>  <Pocket>  (129) 
nan

>  <ATP_Site>  (129) 
nan

>  <Peripheral>  (129) 
nan

>  <Num_H_Atoms_ProtBoundConf>  (129) 
nan

>  <Num_Resolved_Atoms>  (129) 
nan

>  <Num_Not_Resolved_Atoms>  (129) 
nan

$$$$
CHEMBL215322
     RDKit          3D

  0  0  0  0  0  0  0  0  0  0999 V3000
M  V30 BEGIN CTAB
M  V30 COUNTS 67 70 0 0 0
M  V30 BEGIN ATOM
M  V30 1 C 5.910789 -3.490719 1.441427 0
M  V30 2 C 5.789593 -4.111898 0.084726 0
M  V30 3 N 4.613657 -3.999334 -0.633605 0
M  V30 4 C 3.461656 -4.678849 -0.320494 0
M  V30 5 C 2.710978 -4.316293 0.905442 0
M  V30 6 O 3.356327 -4.457822 2.107988 0
M  V30 7 C 4.575382 -2.874757 -1.493602 0
M  V30 8 C 3.305807 -2.681743 -2.270948 0
M  V30 9 C 3.310213 -1.490290 -3.171733 0
M  V30 10 O 3.507457 -0.259151 -2.578560 0
M  V30 11 C 2.782806 0.403241 -1.628479 0
M  V30 12 C 1.635212 0.156330 -0.910097 0
M  V30 13 C 1.124694 1.039225 0.014392 0
M  V30 14 C 1.769942 2.236846 0.254619 0
M  V30 15 C 1.193147 3.071162 1.198282 0
M  V30 16 N 0.006853 2.709899 1.889511 0
M  V30 17 C -1.387319 2.836379 1.642196 0
M  V30 18 C -2.383979 2.406090 2.500341 0
M  V30 19 C -3.527602 2.749025 1.810458 0
M  V30 20 C -4.918985 2.503602 2.298685 0
M  V30 21 C -5.365555 1.160403 1.849030 0
M  V30 22 O -4.507030 0.555934 1.185356 0
M  V30 23 N -6.621448 0.574438 2.115516 0
M  V30 24 C -7.101810 -0.693151 1.716107 0
M  V30 25 C -6.437119 -1.634053 0.971726 0
M  V30 26 C -6.969084 -2.852382 0.620743 0
M  V30 27 C -8.239408 -3.174129 1.024642 0
M  V30 28 C -8.926448 -2.255750 1.767454 0
M  V30 29 F -10.174298 -2.516825 2.188380 0
M  V30 30 C -8.372778 -1.040120 2.107938 0
M  V30 31 F -9.116011 -0.159994 2.858164 0
M  V30 32 N -3.267508 3.339582 0.629505 0
M  V30 33 N -1.958603 3.377557 0.557397 0
M  V30 34 N 1.815620 4.232801 1.431952 0
M  V30 35 C 2.958518 4.560336 0.763921 0
M  V30 36 N 3.480016 3.717455 -0.142400 0
M  V30 37 C 2.919192 2.532807 -0.436192 0
M  V30 38 C 3.427382 1.623812 -1.374240 0
M  V30 39 H 5.961808 -4.206985 2.283602 0
M  V30 40 H 5.220938 -2.666129 1.645425 0
M  V30 41 H 6.936615 -2.979494 1.497039 0
M  V30 42 H 6.712355 -3.797820 -0.526469 0
M  V30 43 H 6.073239 -5.218305 0.271829 0
M  V30 44 H 3.731085 -5.803564 -0.169051 0
M  V30 45 H 2.696536 -4.695683 -1.170525 0
M  V30 46 H 1.757342 -4.931588 1.004271 0
M  V30 47 H 2.285450 -3.261238 0.831361 0
M  V30 48 H 2.797641 -4.810827 2.832416 0
M  V30 49 H 5.441765 -2.941962 -2.184099 0
M  V30 50 H 4.762864 -1.969393 -0.873614 0
M  V30 51 H 2.408276 -2.755390 -1.636455 0
M  V30 52 H 3.232080 -3.587134 -2.948880 0
M  V30 53 H 2.344361 -1.546960 -3.757150 0
M  V30 54 H 4.092678 -1.591251 -3.981695 0
M  V30 55 H 1.214247 -0.786793 -1.172865 0
M  V30 56 H 0.218413 0.688572 0.488356 0
M  V30 57 H 0.365542 2.258229 2.758133 0
M  V30 58 H -2.316448 1.924741 3.464659 0
M  V30 59 H -5.575153 3.302346 1.921543 0
M  V30 60 H -4.888360 2.474396 3.413580 0
M  V30 61 H -7.206594 1.222353 2.681863 0
M  V30 62 H -5.449849 -1.431289 0.636069 0
M  V30 63 H -6.420874 -3.562018 0.039638 0
M  V30 64 H -8.643928 -4.135275 0.739460 0
M  V30 65 H -3.975652 3.680060 -0.053786 0
M  V30 66 H 3.512315 5.497842 0.912300 0
M  V30 67 H 4.341818 2.030677 -1.817728 0
M  V30 END ATOM
M  V30 BEGIN BOND
M  V30 1 1 1 2
M  V30 2 1 2 3
M  V30 3 1 3 4
M  V30 4 1 4 5
M  V30 5 1 5 6
M  V30 6 1 3 7
M  V30 7 1 7 8
M  V30 8 1 8 9
M  V30 9 1 9 10
M  V30 10 1 10 11
M  V30 11 2 11 12
M  V30 12 1 12 13
M  V30 13 2 13 14
M  V30 14 1 14 15
M  V30 15 1 15 16
M  V30 16 1 16 17
M  V30 17 1 17 18
M  V30 18 2 18 19
M  V30 19 1 19 20
M  V30 20 1 20 21
M  V30 21 2 21 22
M  V30 22 1 21 23
M  V30 23 1 23 24
M  V30 24 2 24 25
M  V30 25 1 25 26
M  V30 26 2 26 27
M  V30 27 1 27 28
M  V30 28 1 28 29
M  V30 29 2 28 30
M  V30 30 1 30 31
M  V30 31 1 19 32
M  V30 32 1 32 33
M  V30 33 2 15 34
M  V30 34 1 34 35
M  V30 35 2 35 36
M  V30 36 1 36 37
M  V30 37 2 37 38
M  V30 38 1 38 11
M  V30 39 1 37 14
M  V30 40 2 33 17
M  V30 41 1 30 24
M  V30 42 1 1 39
M  V30 43 1 1 40
M  V30 44 1 1 41
M  V30 45 1 2 42
M  V30 46 1 2 43
M  V30 47 1 4 44
M  V30 48 1 4 45
M  V30 49 1 5 46
M  V30 50 1 5 47
M  V30 51 1 6 48
M  V30 52 1 7 49
M  V30 53 1 7 50
M  V30 54 1 8 51
M  V30 55 1 8 52
M  V30 56 1 9 53
M  V30 57 1 9 54
M  V30 58 1 12 55
M  V30 59 1 13 56
M  V30 60 1 16 57
M  V30 61 1 18 58
M  V30 62 1 20 59
M  V30 63 1 20 60
M  V30 64 1 23 61
M  V30 65 1 25 62
M  V30 66 1 26 63
M  V30 67 1 27 64
M  V30 68 1 32 65
M  V30 69 1 35 66
M  V30 70 1 38 67
M  V30 END BOND
M  V30 END CTAB
M  END
>  <Dataset>  (130) 
ChEMBL_Kinases

>  <Ligand_Instance>  (130) 
nan

>  <PDB_ID>  (130) 
nan

>  <Standardized_SMILES>  (130) 
CCN(CCO)CCCOc1ccc2c(Nc3cc(CC(=O)Nc4cccc(F)c4F)[nH]n3)ncnc2c1

>  <Name>  (130) 
nan

>  <Pocket>  (130) 
nan

>  <ATP_Site>  (130) 
nan

>  <Peripheral>  (130) 
nan

>  <Num_H_Atoms_ProtBoundConf>  (130) 
nan

>  <Num_Resolved_Atoms>  (130) 
nan

>  <Num_Not_Resolved_Atoms>  (130) 
nan

$$$$
CHEMBL1360895
     RDKit          3D

  0  0  0  0  0  0  0  0  0  0999 V3000
M  V30 BEGIN CTAB
M  V30 COUNTS 58 62 0 0 0
M  V30 BEGIN ATOM
M  V30 1 C 5.531434 -4.547870 1.543384 0
M  V30 2 N 4.597359 -3.870557 0.667821 0
M  V30 3 C 4.012047 -2.710036 1.019606 0
M  V30 4 O 4.251811 -2.166997 2.121227 0
M  V30 5 C 3.141788 -2.144305 0.124047 0
M  V30 6 C 2.833597 -2.680139 -1.093556 0
M  V30 7 N 1.947508 -1.867758 -1.716474 0
M  V30 8 C 1.697321 -0.821576 -0.893383 0
M  V30 9 S 0.547870 0.381226 -1.520001 0
M  V30 10 C 0.289520 1.714352 -0.359474 0
M  V30 11 N 1.044592 2.852126 -0.333420 0
M  V30 12 C 0.550266 3.613904 0.671639 0
M  V30 13 C 0.872638 4.848801 1.191245 0
M  V30 14 C 0.207997 5.437690 2.247480 0
M  V30 15 C -0.846392 4.716044 2.799303 0
M  V30 16 C -1.194446 3.475049 2.300937 0
M  V30 17 C -0.501450 2.912686 1.234726 0
M  V30 18 N -0.672719 1.743507 0.610702 0
M  V30 19 C -1.625336 0.690383 0.837131 0
M  V30 20 C -2.876659 0.790293 0.100607 0
M  V30 21 O -3.391506 1.585539 -0.728121 0
M  V30 22 N -3.776591 -0.288554 0.373010 0
M  V30 23 C -5.078490 -0.332780 -0.289782 0
M  V30 24 C -5.709270 -1.686619 -0.063536 0
M  V30 25 C -4.749699 -2.800378 -0.314711 0
M  V30 26 C -3.441115 -2.641596 0.407741 0
M  V30 27 C -3.558260 -1.417305 1.275889 0
M  V30 28 N 2.441415 -1.008316 0.235728 0
M  V30 29 C 2.332665 -0.012716 1.254998 0
M  V30 30 N 3.440082 -3.839299 -1.405040 0
M  V30 31 C 3.124364 -4.426690 -2.699482 0
M  V30 32 C 4.298899 -4.411998 -0.538917 0
M  V30 33 O 4.831875 -5.494936 -0.891236 0
M  V30 34 H 5.011101 -5.221560 2.246953 0
M  V30 35 H 6.261639 -5.118561 0.921941 0
M  V30 36 H 6.084187 -3.785620 2.133164 0
M  V30 37 H 1.702210 5.372567 0.727156 0
M  V30 38 H 0.554547 6.412081 2.566290 0
M  V30 39 H -1.362991 5.199503 3.637677 0
M  V30 40 H -2.035706 2.942093 2.770312 0
M  V30 41 H -1.749741 0.623139 1.938111 0
M  V30 42 H -1.138773 -0.271805 0.553146 0
M  V30 43 H -4.876886 -0.284237 -1.391300 0
M  V30 44 H -5.731351 0.472716 0.055998 0
M  V30 45 H -6.245476 -1.751447 0.896163 0
M  V30 46 H -6.509747 -1.773333 -0.852422 0
M  V30 47 H -4.608633 -2.886611 -1.422300 0
M  V30 48 H -5.229689 -3.755256 -0.006162 0
M  V30 49 H -2.647419 -2.490296 -0.381530 0
M  V30 50 H -3.146597 -3.550675 0.949172 0
M  V30 51 H -4.475854 -1.533709 1.887405 0
M  V30 52 H -2.725499 -1.267895 1.966540 0
M  V30 53 H 1.265017 -0.005184 1.615395 0
M  V30 54 H 2.914984 -0.258573 2.166501 0
M  V30 55 H 2.692062 0.979234 0.933748 0
M  V30 56 H 3.651340 -3.864015 -3.524739 0
M  V30 57 H 3.482228 -5.481338 -2.731330 0
M  V30 58 H 2.036541 -4.330247 -2.938712 0
M  V30 END ATOM
M  V30 BEGIN BOND
M  V30 1 1 1 2
M  V30 2 1 2 3
M  V30 3 2 3 4
M  V30 4 1 3 5
M  V30 5 2 5 6
M  V30 6 1 6 7
M  V30 7 2 7 8
M  V30 8 1 8 9
M  V30 9 1 9 10
M  V30 10 2 10 11
M  V30 11 1 11 12
M  V30 12 2 12 13
M  V30 13 1 13 14
M  V30 14 2 14 15
M  V30 15 1 15 16
M  V30 16 2 16 17
M  V30 17 1 17 18
M  V30 18 1 18 19
M  V30 19 1 19 20
M  V30 20 2 20 21
M  V30 21 1 20 22
M  V30 22 1 22 23
M  V30 23 1 23 24
M  V30 24 1 24 25
M  V30 25 1 25 26
M  V30 26 1 26 27
M  V30 27 1 8 28
M  V30 28 1 28 29
M  V30 29 1 6 30
M  V30 30 1 30 31
M  V30 31 1 30 32
M  V30 32 2 32 33
M  V30 33 1 32 2
M  V30 34 1 28 5
M  V30 35 1 18 10
M  V30 36 1 27 22
M  V30 37 1 17 12
M  V30 38 1 1 34
M  V30 39 1 1 35
M  V30 40 1 1 36
M  V30 41 1 13 37
M  V30 42 1 14 38
M  V30 43 1 15 39
M  V30 44 1 16 40
M  V30 45 1 19 41
M  V30 46 1 19 42
M  V30 47 1 23 43
M  V30 48 1 23 44
M  V30 49 1 24 45
M  V30 50 1 24 46
M  V30 51 1 25 47
M  V30 52 1 25 48
M  V30 53 1 26 49
M  V30 54 1 26 50
M  V30 55 1 27 51
M  V30 56 1 27 52
M  V30 57 1 29 53
M  V30 58 1 29 54
M  V30 59 1 29 55
M  V30 60 1 31 56
M  V30 61 1 31 57
M  V30 62 1 31 58
M  V30 END BOND
M  V30 END CTAB
M  END
>  <Dataset>  (131) 
ChEMBL_Kinases

>  <Ligand_Instance>  (131) 
nan

>  <PDB_ID>  (131) 
nan

>  <Standardized_SMILES>  (131) 
Cn1c(=O)c2c(nc(Sc3nc4ccccc4n3CC(=O)N3CCCCC3)n2C)n(C)c1=O

>  <Name>  (131) 
nan

>  <Pocket>  (131) 
nan

>  <ATP_Site>  (131) 
nan

>  <Peripheral>  (131) 
nan

>  <Num_H_Atoms_ProtBoundConf>  (131) 
nan

>  <Num_Resolved_Atoms>  (131) 
nan

>  <Num_Not_Resolved_Atoms>  (131) 
nan

$$$$
CHEMBL1360890
     RDKit          3D

  0  0  0  0  0  0  0  0  0  0999 V3000
M  V30 BEGIN CTAB
M  V30 COUNTS 35 37 0 0 0
M  V30 BEGIN ATOM
M  V30 1 C 2.732392 -3.228150 3.594494 0
M  V30 2 C 2.086781 -3.849003 4.674336 0
M  V30 3 S 0.311819 -3.457746 4.113106 0
M  V30 4 C 0.876149 -2.546047 2.548377 0
M  V30 5 C -0.205400 -2.014145 1.711680 0
M  V30 6 N -0.544090 -0.685313 2.102432 0
M  V30 7 C 0.631527 0.151201 1.950577 0
M  V30 8 C 0.704114 0.363042 0.430361 0
M  V30 9 C -0.734275 0.414370 -0.010207 0 CFG=2
M  V30 10 C -1.063478 -0.329102 -1.256836 0
M  V30 11 C -0.026267 -0.082349 -2.314086 0
M  V30 12 C 0.166215 1.419623 -2.389186 0
M  V30 13 N -0.852592 2.156823 -1.726069 0
M  V30 14 C -1.016433 1.887309 -0.336166 0
M  V30 15 C -1.481208 -0.044642 1.198405 0
M  V30 16 N 2.155412 -2.605094 2.577782 0
M  V30 17 H 3.823213 -3.156160 3.413724 0
M  V30 18 H 2.746053 -4.315350 5.422883 0
M  V30 19 H -1.107740 -2.627042 1.782641 0
M  V30 20 H 0.170859 -1.939747 0.650358 0
M  V30 21 H 0.441891 1.120346 2.464729 0
M  V30 22 H 1.558799 -0.317059 2.332213 0
M  V30 23 H 1.326066 -0.376520 -0.071973 0
M  V30 24 H 1.238655 1.332709 0.341926 0
M  V30 25 H -1.335138 -1.390537 -1.135258 0
M  V30 26 H -2.009205 0.130291 -1.670556 0
M  V30 27 H -0.450513 -0.488139 -3.261160 0
M  V30 28 H 0.913964 -0.639947 -2.148303 0
M  V30 29 H 1.208909 1.725619 -2.091322 0
M  V30 30 H 0.116111 1.684842 -3.467232 0
M  V30 31 H -1.713656 2.137498 -2.300150 0
M  V30 32 H -2.117184 2.002956 -0.117957 0
M  V30 33 H -0.461643 2.576050 0.304606 0
M  V30 34 H -2.325829 -0.726008 0.971786 0
M  V30 35 H -1.870117 0.843963 1.739337 0
M  V30 END ATOM
M  V30 BEGIN BOND
M  V30 1 2 1 2
M  V30 2 1 2 3
M  V30 3 1 3 4
M  V30 4 1 4 5
M  V30 5 1 5 6
M  V30 6 1 6 7
M  V30 7 1 7 8
M  V30 8 1 9 8 CFG=1
M  V30 9 1 9 10
M  V30 10 1 10 11
M  V30 11 1 11 12
M  V30 12 1 12 13
M  V30 13 1 13 14
M  V30 14 1 9 15
M  V30 15 2 4 16
M  V30 16 1 16 1
M  V30 17 1 15 6
M  V30 18 1 14 9
M  V30 19 1 1 17
M  V30 20 1 2 18
M  V30 21 1 5 19
M  V30 22 1 5 20
M  V30 23 1 7 21
M  V30 24 1 7 22
M  V30 25 1 8 23
M  V30 26 1 8 24
M  V30 27 1 10 25
M  V30 28 1 10 26
M  V30 29 1 11 27
M  V30 30 1 11 28
M  V30 31 1 12 29
M  V30 32 1 12 30
M  V30 33 1 13 31
M  V30 34 1 14 32
M  V30 35 1 14 33
M  V30 36 1 15 34
M  V30 37 1 15 35
M  V30 END BOND
M  V30 END CTAB
M  END
>  <Dataset>  (132) 
ChEMBL_Kinases

>  <Ligand_Instance>  (132) 
nan

>  <PDB_ID>  (132) 
nan

>  <Standardized_SMILES>  (132) 
c1csc(CN2CC[C@@]3(CCCNC3)C2)n1

>  <Name>  (132) 
nan

>  <Pocket>  (132) 
nan

>  <ATP_Site>  (132) 
nan

>  <Peripheral>  (132) 
nan

>  <Num_H_Atoms_ProtBoundConf>  (132) 
nan

>  <Num_Resolved_Atoms>  (132) 
nan

>  <Num_Not_Resolved_Atoms>  (132) 
nan

$$$$
CHEMBL1360857
     RDKit          3D

  0  0  0  0  0  0  0  0  0  0999 V3000
M  V30 BEGIN CTAB
M  V30 COUNTS 47 50 0 0 0
M  V30 BEGIN ATOM
M  V30 1 C 4.290225 -5.205159 4.150320 0
M  V30 2 C 3.800816 -5.421155 2.763521 0
M  V30 3 O 3.584104 -6.622176 2.392302 0
M  V30 4 C 3.570278 -4.293827 1.840231 0
M  V30 5 C 3.810856 -2.995892 2.260000 0
M  V30 6 C 3.584889 -1.950471 1.368165 0
M  V30 7 C 3.128579 -2.264605 0.100089 0
M  V30 8 N 2.925246 -1.112647 -0.748819 0
M  V30 9 C 1.609832 -0.627930 -0.611762 0
M  V30 10 O 0.785780 -1.179788 0.165238 0
M  V30 11 C 1.101075 0.551820 -1.360364 0
M  V30 12 C -0.329132 0.816230 -0.998458 0
M  V30 13 N -0.503870 1.087203 0.413025 0
M  V30 14 C -1.683875 1.341729 1.162417 0
M  V30 15 C -1.598421 0.967654 2.506786 0
M  V30 16 C -2.627110 1.125443 3.410243 0
M  V30 17 C -3.800955 1.684673 2.950185 0
M  V30 18 C -3.903628 2.062724 1.615837 0
M  V30 19 C -5.128444 2.603698 1.304639 0
M  V30 20 C -5.369406 3.023227 0.013910 0
M  V30 21 C -4.390322 2.899327 -0.948840 0
M  V30 22 C -3.179322 2.348914 -0.580137 0
M  V30 23 C -2.871312 1.903581 0.712419 0
M  V30 24 N -2.311890 2.317552 -1.735944 0
M  V30 25 C -0.968492 1.854674 -1.806336 0
M  V30 26 O -0.273190 2.444186 -2.695458 0
M  V30 27 C 2.882534 -3.544959 -0.339566 0
M  V30 28 C 3.120936 -4.562236 0.582524 0
M  V30 29 H 5.051674 -4.405983 4.201125 0
M  V30 30 H 4.798906 -6.127427 4.508598 0
M  V30 31 H 3.450889 -4.952446 4.840215 0
M  V30 32 H 4.167959 -2.772657 3.257340 0
M  V30 33 H 3.772817 -0.937144 1.696187 0
M  V30 34 H 3.548285 -0.582520 -1.427426 0
M  V30 35 H 1.103770 0.299817 -2.449334 0
M  V30 36 H 1.785034 1.378629 -1.162648 0
M  V30 37 H -0.871677 -0.150994 -1.212303 0
M  V30 38 H 0.359337 1.107832 1.017935 0
M  V30 39 H -0.666220 0.536019 2.823078 0
M  V30 40 H -2.457601 0.802770 4.427962 0
M  V30 41 H -4.593669 1.798415 3.677161 0
M  V30 42 H -5.939367 2.731287 2.004044 0
M  V30 43 H -6.315391 3.450063 -0.261898 0
M  V30 44 H -4.560764 3.222720 -1.966359 0
M  V30 45 H -2.749301 2.686260 -2.616145 0
M  V30 46 H 2.525478 -3.705868 -1.350459 0
M  V30 47 H 2.924148 -5.574829 0.228356 0
M  V30 END ATOM
M  V30 BEGIN BOND
M  V30 1 1 1 2
M  V30 2 2 2 3
M  V30 3 1 2 4
M  V30 4 2 4 5
M  V30 5 1 5 6
M  V30 6 2 6 7
M  V30 7 1 7 8
M  V30 8 1 8 9
M  V30 9 2 9 10
M  V30 10 1 9 11
M  V30 11 1 11 12
M  V30 12 1 12 13
M  V30 13 1 13 14
M  V30 14 1 14 15
M  V30 15 2 15 16
M  V30 16 1 16 17
M  V30 17 2 17 18
M  V30 18 1 18 19
M  V30 19 2 19 20
M  V30 20 1 20 21
M  V30 21 2 21 22
M  V30 22 1 22 23
M  V30 23 1 22 24
M  V30 24 1 24 25
M  V30 25 2 25 26
M  V30 26 1 7 27
M  V30 27 2 27 28
M  V30 28 1 28 4
M  V30 29 1 25 12
M  V30 30 2 23 14
M  V30 31 1 23 18
M  V30 32 1 1 29
M  V30 33 1 1 30
M  V30 34 1 1 31
M  V30 35 1 5 32
M  V30 36 1 6 33
M  V30 37 1 8 34
M  V30 38 1 11 35
M  V30 39 1 11 36
M  V30 40 1 12 37
M  V30 41 1 13 38
M  V30 42 1 15 39
M  V30 43 1 16 40
M  V30 44 1 17 41
M  V30 45 1 19 42
M  V30 46 1 20 43
M  V30 47 1 21 44
M  V30 48 1 24 45
M  V30 49 1 27 46
M  V30 50 1 28 47
M  V30 END BOND
M  V30 END CTAB
M  END
>  <Dataset>  (133) 
ChEMBL_Kinases

>  <Ligand_Instance>  (133) 
nan

>  <PDB_ID>  (133) 
nan

>  <Standardized_SMILES>  (133) 
CC(=O)c1ccc(NC(=O)CC2Nc3cccc4cccc(c34)NC2=O)cc1

>  <Name>  (133) 
nan

>  <Pocket>  (133) 
nan

>  <ATP_Site>  (133) 
nan

>  <Peripheral>  (133) 
nan

>  <Num_H_Atoms_ProtBoundConf>  (133) 
nan

>  <Num_Resolved_Atoms>  (133) 
nan

>  <Num_Not_Resolved_Atoms>  (133) 
nan

$$$$
CHEMBL1360657
     RDKit          3D

  0  0  0  0  0  0  0  0  0  0999 V3000
M  V30 BEGIN CTAB
M  V30 COUNTS 36 38 0 0 0
M  V30 BEGIN ATOM
M  V30 1 C 2.685054 -5.686667 0.402753 0
M  V30 2 C 3.144776 -4.582933 1.271824 0
M  V30 3 C 3.985369 -4.876277 2.307414 0
M  V30 4 C 4.381330 -3.794375 3.087347 0
M  V30 5 N 3.928713 -2.573890 2.784134 0
M  V30 6 C 3.104124 -2.301349 1.764619 0
M  V30 7 N 2.532525 -1.166191 1.284458 0
M  V30 8 C 1.782039 -1.531530 0.209705 0
M  V30 9 C 0.922039 -0.864862 -0.762033 0
M  V30 10 O 0.275573 -1.347070 -1.727922 0
M  V30 11 O 0.675420 0.480507 -0.764365 0
M  V30 12 C -0.177046 1.026903 -1.754972 0
M  V30 13 C -0.346069 2.497913 -1.625189 0
M  V30 14 O -0.878366 2.983676 -0.453058 0
M  V30 15 C -2.084345 2.768602 0.115141 0
M  V30 16 C -2.119165 3.495206 1.315868 0
M  V30 17 C -3.235699 3.496576 2.164926 0
M  V30 18 C -4.359122 2.745264 1.802741 0
M  V30 19 Cl -5.819043 2.653666 2.762415 0
M  V30 20 C -4.337404 2.029629 0.629341 0
M  V30 21 C -3.225285 2.056342 -0.171290 0
M  V30 22 N 1.922602 -2.870443 0.074044 0
M  V30 23 N 2.712566 -3.348795 0.998726 0
M  V30 24 H 1.585253 -5.594661 0.292379 0
M  V30 25 H 2.888333 -6.675736 0.837761 0
M  V30 26 H 3.141763 -5.607440 -0.603905 0
M  V30 27 H 4.310145 -5.894165 2.490951 0
M  V30 28 H 5.056640 -3.986252 3.929799 0
M  V30 29 H 0.364565 0.855238 -2.724646 0
M  V30 30 H -1.148797 0.539062 -1.846913 0
M  V30 31 H 0.605224 3.060719 -1.851414 0
M  V30 32 H -1.063847 2.794970 -2.451895 0
M  V30 33 H -1.362898 4.134121 1.774854 0
M  V30 34 H -3.359660 4.007494 3.084674 0
M  V30 35 H -5.148488 1.414476 0.250259 0
M  V30 36 H -3.125151 1.535400 -1.103545 0
M  V30 END ATOM
M  V30 BEGIN BOND
M  V30 1 1 1 2
M  V30 2 2 2 3
M  V30 3 1 3 4
M  V30 4 2 4 5
M  V30 5 1 5 6
M  V30 6 2 6 7
M  V30 7 1 7 8
M  V30 8 1 8 9
M  V30 9 2 9 10
M  V30 10 1 9 11
M  V30 11 1 11 12
M  V30 12 1 12 13
M  V30 13 1 13 14
M  V30 14 1 14 15
M  V30 15 2 15 16
M  V30 16 1 16 17
M  V30 17 2 17 18
M  V30 18 1 18 19
M  V30 19 1 18 20
M  V30 20 2 20 21
M  V30 21 2 8 22
M  V30 22 1 22 23
M  V30 23 1 23 2
M  V30 24 1 23 6
M  V30 25 1 21 15
M  V30 26 1 1 24
M  V30 27 1 1 25
M  V30 28 1 1 26
M  V30 29 1 3 27
M  V30 30 1 4 28
M  V30 31 1 12 29
M  V30 32 1 12 30
M  V30 33 1 13 31
M  V30 34 1 13 32
M  V30 35 1 16 33
M  V30 36 1 17 34
M  V30 37 1 20 35
M  V30 38 1 21 36
M  V30 END BOND
M  V30 END CTAB
M  END
>  <Dataset>  (134) 
ChEMBL_Kinases

>  <Ligand_Instance>  (134) 
nan

>  <PDB_ID>  (134) 
nan

>  <Standardized_SMILES>  (134) 
Cc1ccnc2nc(C(=O)OCCOc3ccc(Cl)cc3)nn12

>  <Name>  (134) 
nan

>  <Pocket>  (134) 
nan

>  <ATP_Site>  (134) 
nan

>  <Peripheral>  (134) 
nan

>  <Num_H_Atoms_ProtBoundConf>  (134) 
nan

>  <Num_Resolved_Atoms>  (134) 
nan

>  <Num_Not_Resolved_Atoms>  (134) 
nan

$$$$
CHEMBL1360631
     RDKit          3D

  0  0  0  0  0  0  0  0  0  0999 V3000
M  V30 BEGIN CTAB
M  V30 COUNTS 35 37 0 0 0
M  V30 BEGIN ATOM
M  V30 1 C -0.728536 -5.224036 3.840723 0
M  V30 2 O -0.056536 -4.077729 4.354848 0
M  V30 3 C 0.614854 -3.272518 3.444772 0
M  V30 4 C 0.661883 -3.523499 2.094051 0
M  V30 5 C 1.346268 -2.688171 1.227178 0
M  V30 6 C 2.004914 -1.575676 1.683746 0
M  V30 7 C 2.772343 -0.585763 0.896982 0
M  V30 8 O 2.052226 0.512359 0.449546 0
M  V30 9 C 0.965572 0.562971 -0.366196 0
M  V30 10 O 0.482519 -0.501024 -0.824366 0
M  V30 11 C 0.360483 1.855443 -0.709245 0
M  V30 12 N 0.737759 3.088431 -0.316085 0
M  V30 13 N -0.064514 4.008455 -0.840689 0
M  V30 14 C -1.013203 3.432938 -1.607301 0
M  V30 15 C -2.083781 3.852015 -2.378445 0
M  V30 16 C -2.888277 2.945425 -3.065335 0
M  V30 17 C -2.580453 1.589773 -2.952214 0
M  V30 18 C -1.507857 1.147886 -2.181553 0
M  V30 19 C -0.735676 2.084585 -1.516404 0
M  V30 20 C 1.941435 -1.345402 3.053253 0
M  V30 21 C 1.261761 -2.163473 3.962920 0
M  V30 22 F 1.251884 -1.863983 5.280384 0
M  V30 23 H -1.425695 -4.926417 3.021683 0
M  V30 24 H -1.222995 -5.797261 4.648090 0
M  V30 25 H 0.027039 -5.895040 3.374757 0
M  V30 26 H 0.149423 -4.392392 1.724042 0
M  V30 27 H 1.394678 -2.870261 0.180177 0
M  V30 28 H 3.612893 -0.201823 1.511696 0
M  V30 29 H 3.191529 -1.093997 0.002295 0
M  V30 30 H 1.555733 3.310091 0.320756 0
M  V30 31 H -2.278702 4.926476 -2.431083 0
M  V30 32 H -3.726531 3.295383 -3.667212 0
M  V30 33 H -3.233489 0.923283 -3.503681 0
M  V30 34 H -1.383623 0.072739 -2.182333 0
M  V30 35 H 2.438834 -0.481241 3.499532 0
M  V30 END ATOM
M  V30 BEGIN BOND
M  V30 1 1 1 2
M  V30 2 1 2 3
M  V30 3 2 3 4
M  V30 4 1 4 5
M  V30 5 2 5 6
M  V30 6 1 6 7
M  V30 7 1 7 8
M  V30 8 1 8 9
M  V30 9 2 9 10
M  V30 10 1 9 11
M  V30 11 1 11 12
M  V30 12 1 12 13
M  V30 13 2 13 14
M  V30 14 1 14 15
M  V30 15 2 15 16
M  V30 16 1 16 17
M  V30 17 2 17 18
M  V30 18 1 18 19
M  V30 19 1 6 20
M  V30 20 2 20 21
M  V30 21 1 21 22
M  V30 22 1 21 3
M  V30 23 2 19 11
M  V30 24 1 19 14
M  V30 25 1 1 23
M  V30 26 1 1 24
M  V30 27 1 1 25
M  V30 28 1 4 26
M  V30 29 1 5 27
M  V30 30 1 7 28
M  V30 31 1 7 29
M  V30 32 1 12 30
M  V30 33 1 15 31
M  V30 34 1 16 32
M  V30 35 1 17 33
M  V30 36 1 18 34
M  V30 37 1 20 35
M  V30 END BOND
M  V30 END CTAB
M  END
>  <Dataset>  (135) 
ChEMBL_Kinases

>  <Ligand_Instance>  (135) 
nan

>  <PDB_ID>  (135) 
nan

>  <Standardized_SMILES>  (135) 
COc1ccc(COC(=O)c2[nH]nc3ccccc23)cc1F

>  <Name>  (135) 
nan

>  <Pocket>  (135) 
nan

>  <ATP_Site>  (135) 
nan

>  <Peripheral>  (135) 
nan

>  <Num_H_Atoms_ProtBoundConf>  (135) 
nan

>  <Num_Resolved_Atoms>  (135) 
nan

>  <Num_Not_Resolved_Atoms>  (135) 
nan

$$$$
CHEMBL1360489
     RDKit          3D

  0  0  0  0  0  0  0  0  0  0999 V3000
M  V30 BEGIN CTAB
M  V30 COUNTS 63 67 0 0 0
M  V30 BEGIN ATOM
M  V30 1 O -2.921903 -1.013905 3.311640 0
M  V30 2 C -1.833403 -1.242033 2.667466 0
M  V30 3 C -1.099732 -0.027231 2.201917 0
M  V30 4 C 0.196566 0.065551 2.928703 0
M  V30 5 C 1.209334 1.010207 2.281467 0
M  V30 6 C 1.441915 0.462077 0.892516 0
M  V30 7 C 2.627810 1.024851 0.196961 0
M  V30 8 N 2.672889 2.409045 -0.073254 0
M  V30 9 C 3.127791 3.440042 0.653712 0
M  V30 10 S 3.763653 3.090462 2.113556 0
M  V30 11 N 3.145039 4.736387 0.319970 0
M  V30 12 C 2.667297 5.136715 -0.871183 0
M  V30 13 C 2.694491 6.463084 -1.192719 0
M  V30 14 C 2.210251 6.887958 -2.409422 0
M  V30 15 C 1.709981 5.926004 -3.261600 0
M  V30 16 C 1.693692 4.592369 -2.913131 0
M  V30 17 C 2.175157 4.140233 -1.694530 0
M  V30 18 C 2.188716 2.823592 -1.285435 0
M  V30 19 O 1.696447 2.082226 -2.190349 0
M  V30 20 C 0.173748 0.557825 0.076196 0
M  V30 21 C -1.066597 0.105429 0.733461 0
M  V30 22 N -1.472611 -2.621645 2.484153 0
M  V30 23 C -0.390883 -3.317106 1.810386 0
M  V30 24 C -0.963839 -4.003628 0.594885 0
M  V30 25 N -2.123152 -4.761810 0.995907 0
M  V30 26 C -2.644817 -5.691858 0.057781 0
M  V30 27 C -2.082106 -5.933864 -1.177969 0
M  V30 28 C -2.572132 -6.829289 -2.106031 0
M  V30 29 C -3.700033 -7.549945 -1.813967 0
M  V30 30 C -4.315422 -7.361235 -0.601043 0
M  V30 31 C -3.786436 -6.459679 0.283279 0
M  V30 32 C -2.831612 -4.687618 2.256868 0
M  V30 33 C -2.366765 -3.591888 3.141028 0
M  V30 34 H -1.704477 0.851875 2.579487 0
M  V30 35 H 0.672389 -0.904671 3.065002 0
M  V30 36 H 0.060399 0.487336 3.967458 0
M  V30 37 H 2.163665 0.788937 2.835921 0
M  V30 38 H 0.930791 2.057962 2.329824 0
M  V30 39 H 1.651949 -0.622588 1.040242 0
M  V30 40 H 3.526100 0.720084 0.823785 0
M  V30 41 H 2.830901 0.482901 -0.775271 0
M  V30 42 H 3.523083 5.467085 0.961530 0
M  V30 43 H 3.076589 7.253617 -0.560438 0
M  V30 44 H 2.154739 7.883085 -2.823747 0
M  V30 45 H 1.300449 6.157638 -4.255797 0
M  V30 46 H 1.297409 3.853291 -3.595324 0
M  V30 47 H 0.037587 1.668641 -0.104944 0
M  V30 48 H 0.336115 0.112828 -0.923051 0
M  V30 49 H -1.314903 -0.910417 0.306702 0
M  V30 50 H -1.942281 0.731417 0.372876 0
M  V30 51 H 0.460781 -2.651807 1.537031 0
M  V30 52 H -0.023482 -4.111363 2.519133 0
M  V30 53 H -1.343674 -3.220001 -0.099892 0
M  V30 54 H -0.192925 -4.639575 0.102367 0
M  V30 55 H -1.190674 -5.405706 -1.481883 0
M  V30 56 H -2.091528 -6.980066 -3.058746 0
M  V30 57 H -4.071096 -8.244267 -2.546881 0
M  V30 58 H -5.205542 -7.919178 -0.352215 0
M  V30 59 H -4.315264 -6.345349 1.234757 0
M  V30 60 H -3.925048 -4.548114 2.101763 0
M  V30 61 H -2.682376 -5.667527 2.783005 0
M  V30 62 H -1.710014 -4.041455 3.943435 0
M  V30 63 H -3.188462 -3.098511 3.682946 0
M  V30 END ATOM
M  V30 BEGIN BOND
M  V30 1 2 1 2
M  V30 2 1 2 3
M  V30 3 1 3 4
M  V30 4 1 4 5
M  V30 5 1 5 6
M  V30 6 1 6 7
M  V30 7 1 7 8
M  V30 8 1 8 9
M  V30 9 2 9 10
M  V30 10 1 9 11
M  V30 11 1 11 12
M  V30 12 2 12 13
M  V30 13 1 13 14
M  V30 14 2 14 15
M  V30 15 1 15 16
M  V30 16 2 16 17
M  V30 17 1 17 18
M  V30 18 2 18 19
M  V30 19 1 6 20
M  V30 20 1 20 21
M  V30 21 1 2 22
M  V30 22 1 22 23
M  V30 23 1 23 24
M  V30 24 1 24 25
M  V30 25 1 25 26
M  V30 26 2 26 27
M  V30 27 1 27 28
M  V30 28 2 28 29
M  V30 29 1 29 30
M  V30 30 2 30 31
M  V30 31 1 25 32
M  V30 32 1 32 33
M  V30 33 1 21 3
M  V30 34 1 33 22
M  V30 35 1 18 8
M  V30 36 1 31 26
M  V30 37 1 17 12
M  V30 38 1 3 34
M  V30 39 1 4 35
M  V30 40 1 4 36
M  V30 41 1 5 37
M  V30 42 1 5 38
M  V30 43 1 6 39
M  V30 44 1 7 40
M  V30 45 1 7 41
M  V30 46 1 11 42
M  V30 47 1 13 43
M  V30 48 1 14 44
M  V30 49 1 15 45
M  V30 50 1 16 46
M  V30 51 1 20 47
M  V30 52 1 20 48
M  V30 53 1 21 49
M  V30 54 1 21 50
M  V30 55 1 23 51
M  V30 56 1 23 52
M  V30 57 1 24 53
M  V30 58 1 24 54
M  V30 59 1 27 55
M  V30 60 1 28 56
M  V30 61 1 29 57
M  V30 62 1 30 58
M  V30 63 1 31 59
M  V30 64 1 32 60
M  V30 65 1 32 61
M  V30 66 1 33 62
M  V30 67 1 33 63
M  V30 END BOND
M  V30 END CTAB
M  END
>  <Dataset>  (136) 
ChEMBL_Kinases

>  <Ligand_Instance>  (136) 
nan

>  <PDB_ID>  (136) 
nan

>  <Standardized_SMILES>  (136) 
O=C(C1CCC(Cn2c(=S)[nH]c3ccccc3c2=O)CC1)N1CCN(c2ccccc2)CC1

>  <Name>  (136) 
nan

>  <Pocket>  (136) 
nan

>  <ATP_Site>  (136) 
nan

>  <Peripheral>  (136) 
nan

>  <Num_H_Atoms_ProtBoundConf>  (136) 
nan

>  <Num_Resolved_Atoms>  (136) 
nan

>  <Num_Not_Resolved_Atoms>  (136) 
nan

$$$$
CHEMBL1360310
     RDKit          3D

  0  0  0  0  0  0  0  0  0  0999 V3000
M  V30 BEGIN CTAB
M  V30 COUNTS 50 53 0 0 0
M  V30 BEGIN ATOM
M  V30 1 C 4.832558 -5.184470 3.118819 0
M  V30 2 C 4.651910 -4.065784 2.155031 0
M  V30 3 C 4.291918 -4.305785 0.825111 0
M  V30 4 N 4.121390 -3.298667 -0.072526 0
M  V30 5 C 4.323097 -2.039469 0.404057 0
M  V30 6 C 4.156783 -0.898100 -0.508287 0
M  V30 7 N 2.804425 -0.364736 -0.536164 0
M  V30 8 C 2.517573 0.738742 -1.380013 0
M  V30 9 N 3.482785 1.280071 -2.140750 0
M  V30 10 C 3.252922 2.325875 -2.953965 0
M  V30 11 N 2.046218 2.907790 -3.068333 0
M  V30 12 C 1.020294 2.404909 -2.321106 0
M  V30 13 C -0.231191 2.964012 -2.402052 0
M  V30 14 C -1.281497 2.459140 -1.645400 0
M  V30 15 C -1.038807 1.371810 -0.801025 0
M  V30 16 C -2.132494 0.830182 0.000332 0
M  V30 17 C -1.840005 0.264497 1.235670 0
M  V30 18 C -2.821674 -0.278818 2.071382 0
M  V30 19 C -4.137663 -0.259541 1.666445 0
M  V30 20 N -5.111190 -0.817917 2.535179 0
M  V30 21 C -4.649259 -1.371298 3.791833 0
M  V30 22 C -6.526402 -0.855584 2.219630 0
M  V30 23 C -4.416745 0.302458 0.442309 0
M  V30 24 C -3.453223 0.840079 -0.386822 0
M  V30 25 C 0.234618 0.851223 -0.759567 0
M  V30 26 C 1.284239 1.336525 -1.499480 0
M  V30 27 C 4.683727 -1.763837 1.727816 0
M  V30 28 N 4.837504 -2.810039 2.570254 0
M  V30 29 H 4.481343 -4.844084 4.113307 0
M  V30 30 H 5.883819 -5.510040 3.163266 0
M  V30 31 H 4.147751 -5.990463 2.798323 0
M  V30 32 H 4.163998 -5.369529 0.586117 0
M  V30 33 H 4.389396 -1.258154 -1.547531 0
M  V30 34 H 4.889910 -0.127762 -0.250520 0
M  V30 35 H 2.143372 -0.862741 0.092262 0
M  V30 36 H 4.136696 2.661460 -3.515060 0
M  V30 37 H -0.388126 3.802011 -3.062163 0
M  V30 38 H -2.241608 2.927518 -1.741036 0
M  V30 39 H -0.797966 0.237615 1.579900 0
M  V30 40 H -2.506975 -0.693582 3.004975 0
M  V30 41 H -5.468190 -1.917553 4.287258 0
M  V30 42 H -4.366211 -0.534113 4.464084 0
M  V30 43 H -3.827255 -2.102681 3.669201 0
M  V30 44 H -7.069001 -0.692018 3.182303 0
M  V30 45 H -6.806697 0.004044 1.582743 0
M  V30 46 H -6.804360 -1.841526 1.785828 0
M  V30 47 H -5.440818 0.328827 0.103848 0
M  V30 48 H -3.696917 1.276312 -1.344495 0
M  V30 49 H 0.352264 0.024390 -0.096547 0
M  V30 50 H 4.825288 -0.722636 2.024819 0
M  V30 END ATOM
M  V30 BEGIN BOND
M  V30 1 1 1 2
M  V30 2 2 2 3
M  V30 3 1 3 4
M  V30 4 2 4 5
M  V30 5 1 5 6
M  V30 6 1 6 7
M  V30 7 1 7 8
M  V30 8 2 8 9
M  V30 9 1 9 10
M  V30 10 2 10 11
M  V30 11 1 11 12
M  V30 12 2 12 13
M  V30 13 1 13 14
M  V30 14 2 14 15
M  V30 15 1 15 16
M  V30 16 2 16 17
M  V30 17 1 17 18
M  V30 18 2 18 19
M  V30 19 1 19 20
M  V30 20 1 20 21
M  V30 21 1 20 22
M  V30 22 1 19 23
M  V30 23 2 23 24
M  V30 24 1 15 25
M  V30 25 2 25 26
M  V30 26 1 5 27
M  V30 27 2 27 28
M  V30 28 1 28 2
M  V30 29 1 26 8
M  V30 30 1 26 12
M  V30 31 1 24 16
M  V30 32 1 1 29
M  V30 33 1 1 30
M  V30 34 1 1 31
M  V30 35 1 3 32
M  V30 36 1 6 33
M  V30 37 1 6 34
M  V30 38 1 7 35
M  V30 39 1 10 36
M  V30 40 1 13 37
M  V30 41 1 14 38
M  V30 42 1 17 39
M  V30 43 1 18 40
M  V30 44 1 21 41
M  V30 45 1 21 42
M  V30 46 1 21 43
M  V30 47 1 22 44
M  V30 48 1 22 45
M  V30 49 1 22 46
M  V30 50 1 23 47
M  V30 51 1 24 48
M  V30 52 1 25 49
M  V30 53 1 27 50
M  V30 END BOND
M  V30 END CTAB
M  END
>  <Dataset>  (137) 
ChEMBL_Kinases

>  <Ligand_Instance>  (137) 
nan

>  <PDB_ID>  (137) 
nan

>  <Standardized_SMILES>  (137) 
Cc1cnc(CNc2ncnc3ccc(-c4ccc(N(C)C)cc4)cc23)cn1

>  <Name>  (137) 
nan

>  <Pocket>  (137) 
nan

>  <ATP_Site>  (137) 
nan

>  <Peripheral>  (137) 
nan

>  <Num_H_Atoms_ProtBoundConf>  (137) 
nan

>  <Num_Resolved_Atoms>  (137) 
nan

>  <Num_Not_Resolved_Atoms>  (137) 
nan

$$$$
CHEMBL1360308
     RDKit          3D

  0  0  0  0  0  0  0  0  0  0999 V3000
M  V30 BEGIN CTAB
M  V30 COUNTS 49 52 0 0 0
M  V30 BEGIN ATOM
M  V30 1 C -0.783210 -5.893363 -0.368518 0
M  V30 2 C -0.297508 -5.341704 0.947361 0
M  V30 3 C -0.725923 -3.935881 1.074264 0
M  V30 4 C 0.123632 -2.879528 0.859107 0
M  V30 5 C -0.318918 -1.580954 0.989206 0
M  V30 6 C 0.570707 -0.560520 0.763189 0
M  V30 7 O 1.746800 -0.806457 0.448853 0
M  V30 8 C 0.088559 0.743551 0.903817 0
M  V30 9 C 1.070932 1.797039 0.653535 0
M  V30 10 C 1.193702 2.271117 -0.637971 0
M  V30 11 C 2.095734 3.264178 -0.959558 0
M  V30 12 C 2.895886 3.799132 0.028496 0
M  V30 13 C 2.760018 3.308827 1.331667 0
M  V30 14 C 1.863192 2.316533 1.670191 0
M  V30 15 O 3.525487 3.791862 2.383424 0
M  V30 16 C 4.657339 4.605989 2.205366 0
M  V30 17 C 5.049710 4.692404 0.753759 0
M  V30 18 O 3.867136 4.786838 -0.018629 0
M  V30 19 C -1.237482 0.918183 1.257278 0
M  V30 20 C -1.687812 2.328138 1.390532 0
M  V30 21 O -2.016808 -0.117678 1.453899 0
M  V30 22 C -1.633896 -1.367184 1.340062 0
M  V30 23 C -2.491953 -2.437079 1.557354 0
M  V30 24 C -2.044800 -3.756885 1.425993 0
M  V30 25 O -3.056939 -4.652122 1.688140 0
M  V30 26 S -4.175091 -5.300324 0.638034 0
M  V30 27 C -4.110179 -4.696213 -1.006578 0
M  V30 28 O -4.026617 -6.803754 0.622870 0
M  V30 29 O -5.584362 -5.011207 1.151489 0
M  V30 30 H -1.245837 -5.064670 -0.975184 0
M  V30 31 H -1.444295 -6.772578 -0.264142 0
M  V30 32 H 0.134086 -6.155438 -0.975597 0
M  V30 33 H -0.714404 -5.941674 1.786487 0
M  V30 34 H 0.792581 -5.469971 1.009227 0
M  V30 35 H 1.141996 -3.127534 0.586381 0
M  V30 36 H 0.613279 1.915210 -1.473354 0
M  V30 37 H 2.290145 3.719817 -1.917340 0
M  V30 38 H 1.756993 1.938067 2.670724 0
M  V30 39 H 4.502394 5.652704 2.562217 0
M  V30 40 H 5.511323 4.121970 2.741801 0
M  V30 41 H 5.698021 5.567636 0.566060 0
M  V30 42 H 5.564046 3.742810 0.459645 0
M  V30 43 H -1.784931 2.814517 0.397932 0
M  V30 44 H -0.956441 2.923797 1.963301 0
M  V30 45 H -2.652728 2.400650 1.959847 0
M  V30 46 H -3.486194 -2.128467 1.824085 0
M  V30 47 H -3.809179 -3.629932 -1.079750 0
M  V30 48 H -5.134394 -4.748233 -1.442626 0
M  V30 49 H -3.500894 -5.349071 -1.700746 0
M  V30 END ATOM
M  V30 BEGIN BOND
M  V30 1 1 1 2
M  V30 2 1 2 3
M  V30 3 2 3 4
M  V30 4 1 4 5
M  V30 5 1 5 6
M  V30 6 2 6 7
M  V30 7 1 6 8
M  V30 8 1 8 9
M  V30 9 2 9 10
M  V30 10 1 10 11
M  V30 11 2 11 12
M  V30 12 1 12 13
M  V30 13 2 13 14
M  V30 14 1 13 15
M  V30 15 1 15 16
M  V30 16 1 16 17
M  V30 17 1 17 18
M  V30 18 2 8 19
M  V30 19 1 19 20
M  V30 20 1 19 21
M  V30 21 1 21 22
M  V30 22 1 22 23
M  V30 23 2 23 24
M  V30 24 1 24 25
M  V30 25 1 25 26
M  V30 26 1 26 27
M  V30 27 2 26 28
M  V30 28 2 26 29
M  V30 29 1 24 3
M  V30 30 2 22 5
M  V30 31 1 14 9
M  V30 32 1 18 12
M  V30 33 1 1 30
M  V30 34 1 1 31
M  V30 35 1 1 32
M  V30 36 1 2 33
M  V30 37 1 2 34
M  V30 38 1 4 35
M  V30 39 1 10 36
M  V30 40 1 11 37
M  V30 41 1 14 38
M  V30 42 1 16 39
M  V30 43 1 16 40
M  V30 44 1 17 41
M  V30 45 1 17 42
M  V30 46 1 20 43
M  V30 47 1 20 44
M  V30 48 1 20 45
M  V30 49 1 23 46
M  V30 50 1 27 47
M  V30 51 1 27 48
M  V30 52 1 27 49
M  V30 END BOND
M  V30 END CTAB
M  END
>  <Dataset>  (138) 
ChEMBL_Kinases

>  <Ligand_Instance>  (138) 
nan

>  <PDB_ID>  (138) 
nan

>  <Standardized_SMILES>  (138) 
CCc1cc2c(=O)c(-c3ccc4c(c3)OCCO4)c(C)oc2cc1OS(C)(=O)=O

>  <Name>  (138) 
nan

>  <Pocket>  (138) 
nan

>  <ATP_Site>  (138) 
nan

>  <Peripheral>  (138) 
nan

>  <Num_H_Atoms_ProtBoundConf>  (138) 
nan

>  <Num_Resolved_Atoms>  (138) 
nan

>  <Num_Not_Resolved_Atoms>  (138) 
nan

$$$$
CHEMBL1360263
     RDKit          3D

  0  0  0  0  0  0  0  0  0  0999 V3000
M  V30 BEGIN CTAB
M  V30 COUNTS 35 35 0 0 0
M  V30 BEGIN ATOM
M  V30 1 C -1.162267 -0.911018 2.726019 0
M  V30 2 C -1.576790 -2.328091 2.511800 0
M  V30 3 C -1.181465 -2.890393 1.221559 0
M  V30 4 C 0.181449 -3.031819 0.779726 0
M  V30 5 C 1.140440 -1.971775 0.504966 0
M  V30 6 N 0.870226 -1.029589 -0.519337 0
M  V30 7 C 0.803816 -1.682585 -1.795875 0
M  V30 8 C 0.581474 -1.052291 -2.954169 0
M  V30 9 C 0.384650 0.404671 -2.984212 0
M  V30 10 C 0.434850 1.063613 -1.845319 0
M  V30 11 C 0.678346 0.369681 -0.592084 0
M  V30 12 C 0.800922 0.963638 0.559961 0
M  V30 13 C 0.633246 2.405186 0.673098 0
M  V30 14 C 0.755168 3.029490 1.836339 0
M  V30 15 C 0.614933 4.434864 2.078780 0
M  V30 16 N 0.505084 5.569271 2.254453 0
M  V30 17 C 1.063120 2.223156 3.010444 0
M  V30 18 N 1.328829 1.569946 3.954125 0
M  V30 19 H -1.359051 -0.294938 1.830304 0
M  V30 20 H -1.810346 -0.417302 3.523443 0
M  V30 21 H -0.132894 -0.782437 3.052366 0
M  V30 22 H -2.715807 -2.302081 2.522202 0
M  V30 23 H -1.354236 -2.973594 3.397123 0
M  V30 24 H -1.775094 -2.316028 0.425621 0
M  V30 25 H -1.680684 -3.923012 1.117766 0
M  V30 26 H 0.713940 -3.727000 1.537387 0
M  V30 27 H 0.182513 -3.740250 -0.126397 0
M  V30 28 H 2.105843 -2.496104 0.178703 0
M  V30 29 H 1.477398 -1.440753 1.421380 0
M  V30 30 H 0.919719 -2.741306 -1.996494 0
M  V30 31 H 0.525168 -1.502795 -3.925718 0
M  V30 32 H 0.199760 0.977487 -3.886745 0
M  V30 33 H 0.294476 2.131772 -1.832749 0
M  V30 34 H 1.039003 0.448754 1.472212 0
M  V30 35 H 0.408422 3.092178 -0.101393 0
M  V30 END ATOM
M  V30 BEGIN BOND
M  V30 1 1 1 2
M  V30 2 1 2 3
M  V30 3 1 3 4
M  V30 4 1 4 5
M  V30 5 1 5 6
M  V30 6 1 6 7
M  V30 7 2 7 8
M  V30 8 1 8 9
M  V30 9 2 9 10
M  V30 10 1 10 11
M  V30 11 2 11 12
M  V30 12 1 12 13
M  V30 13 2 13 14
M  V30 14 1 14 15
M  V30 15 3 15 16
M  V30 16 1 14 17
M  V30 17 3 17 18
M  V30 18 1 11 6
M  V30 19 1 1 19
M  V30 20 1 1 20
M  V30 21 1 1 21
M  V30 22 1 2 22
M  V30 23 1 2 23
M  V30 24 1 3 24
M  V30 25 1 3 25
M  V30 26 1 4 26
M  V30 27 1 4 27
M  V30 28 1 5 28
M  V30 29 1 5 29
M  V30 30 1 7 30
M  V30 31 1 8 31
M  V30 32 1 9 32
M  V30 33 1 10 33
M  V30 34 1 12 34
M  V30 35 1 13 35
M  V30 END BOND
M  V30 END CTAB
M  END
>  <Dataset>  (139) 
ChEMBL_Kinases

>  <Ligand_Instance>  (139) 
nan

>  <PDB_ID>  (139) 
nan

>  <Standardized_SMILES>  (139) 
CCCCCN1C=CC=C/C1=C\C=C(C#N)C#N

>  <Name>  (139) 
nan

>  <Pocket>  (139) 
nan

>  <ATP_Site>  (139) 
nan

>  <Peripheral>  (139) 
nan

>  <Num_H_Atoms_ProtBoundConf>  (139) 
nan

>  <Num_Resolved_Atoms>  (139) 
nan

>  <Num_Not_Resolved_Atoms>  (139) 
nan

$$$$
CHEMBL1360208
     RDKit          3D

  0  0  0  0  0  0  0  0  0  0999 V3000
M  V30 BEGIN CTAB
M  V30 COUNTS 55 58 0 0 0
M  V30 BEGIN ATOM
M  V30 1 C 2.832190 -2.984156 2.815163 0
M  V30 2 C 3.906625 -2.567704 3.791321 0
M  V30 3 C 3.881023 -1.050119 3.965813 0
M  V30 4 C 4.960459 -0.628190 4.928597 0
M  V30 5 S 6.115925 0.168497 3.748318 0
M  V30 6 C 4.929678 0.321318 2.425800 0
M  V30 7 N 5.060653 1.075299 1.194803 0
M  V30 8 C 3.874560 1.636615 0.594780 0
M  V30 9 C 3.801090 2.965355 0.196084 0
M  V30 10 C 2.655804 3.493753 -0.351072 0
M  V30 11 C 1.607155 2.642680 -0.483280 0
M  V30 12 C 0.366106 3.077443 -1.097157 0
M  V30 13 O 0.417872 4.196459 -1.647002 0
M  V30 14 C -0.914941 2.453478 -1.180331 0
M  V30 15 C -2.120265 2.307351 -1.504369 0
M  V30 16 C -2.971533 1.179327 -1.151586 0
M  V30 17 C -4.224476 1.195783 -1.702130 0
M  V30 18 C -5.115397 0.172604 -1.386072 0
M  V30 19 C -4.728693 -0.828662 -0.535934 0
M  V30 20 O -5.407505 -1.949645 -0.060151 0
M  V30 21 C -5.196306 -3.188526 -0.638415 0
M  V30 22 C -5.761559 -4.391494 -0.247416 0
M  V30 23 C -5.459910 -5.557614 -0.911239 0
M  V30 24 C -4.586689 -5.594714 -1.994384 0
M  V30 25 C -3.989123 -4.436554 -2.439839 0
M  V30 26 C -4.317354 -3.286888 -1.745944 0
M  V30 27 C -3.445981 -0.812955 0.004081 0
M  V30 28 C -2.526423 0.203508 -0.294913 0
M  V30 29 C 1.577213 1.298263 -0.122492 0
M  V30 30 C 2.778758 0.793847 0.443650 0
M  V30 31 N 3.926217 -0.354698 2.757867 0
M  V30 32 H 3.261574 -3.697715 2.054353 0
M  V30 33 H 1.973479 -3.480946 3.301184 0
M  V30 34 H 2.429669 -2.110513 2.261015 0
M  V30 35 H 4.885749 -2.821143 3.357074 0
M  V30 36 H 3.719531 -3.013806 4.783736 0
M  V30 37 H 2.913562 -0.790048 4.480335 0
M  V30 38 H 5.439461 -1.540990 5.344956 0
M  V30 39 H 4.613268 0.061438 5.699998 0
M  V30 40 H 6.038670 1.180736 0.790789 0
M  V30 41 H 4.645828 3.603811 0.313467 0
M  V30 42 H 2.529471 4.500844 -0.680538 0
M  V30 43 H -0.630933 1.581538 -0.559972 0
M  V30 44 H -2.233806 3.227495 -2.057638 0
M  V30 45 H -4.554222 1.968089 -2.375095 0
M  V30 46 H -6.117727 0.065199 -1.739477 0
M  V30 47 H -6.438863 -4.287364 0.596211 0
M  V30 48 H -5.962272 -6.432931 -0.514928 0
M  V30 49 H -4.412880 -6.575890 -2.452137 0
M  V30 50 H -3.318797 -4.404501 -3.263213 0
M  V30 51 H -3.873547 -2.354700 -2.053849 0
M  V30 52 H -3.051268 -1.563660 0.693276 0
M  V30 53 H -1.561232 0.148804 0.161865 0
M  V30 54 H 0.857675 0.505730 -0.154932 0
M  V30 55 H 2.867519 -0.260075 0.748219 0
M  V30 END ATOM
M  V30 BEGIN BOND
M  V30 1 1 1 2
M  V30 2 1 2 3
M  V30 3 1 3 4
M  V30 4 1 4 5
M  V30 5 1 5 6
M  V30 6 1 6 7
M  V30 7 1 7 8
M  V30 8 2 8 9
M  V30 9 1 9 10
M  V30 10 2 10 11
M  V30 11 1 11 12
M  V30 12 2 12 13
M  V30 13 1 12 14
M  V30 14 2 14 15
M  V30 15 1 15 16
M  V30 16 2 16 17
M  V30 17 1 17 18
M  V30 18 2 18 19
M  V30 19 1 19 20
M  V30 20 1 20 21
M  V30 21 2 21 22
M  V30 22 1 22 23
M  V30 23 2 23 24
M  V30 24 1 24 25
M  V30 25 2 25 26
M  V30 26 1 19 27
M  V30 27 2 27 28
M  V30 28 1 11 29
M  V30 29 2 29 30
M  V30 30 2 6 31
M  V30 31 1 31 3
M  V30 32 1 30 8
M  V30 33 1 28 16
M  V30 34 1 26 21
M  V30 35 1 1 32
M  V30 36 1 1 33
M  V30 37 1 1 34
M  V30 38 1 2 35
M  V30 39 1 2 36
M  V30 40 1 3 37
M  V30 41 1 4 38
M  V30 42 1 4 39
M  V30 43 1 7 40
M  V30 44 1 9 41
M  V30 45 1 10 42
M  V30 46 1 14 43
M  V30 47 1 15 44
M  V30 48 1 17 45
M  V30 49 1 18 46
M  V30 50 1 22 47
M  V30 51 1 23 48
M  V30 52 1 24 49
M  V30 53 1 25 50
M  V30 54 1 26 51
M  V30 55 1 27 52
M  V30 56 1 28 53
M  V30 57 1 29 54
M  V30 58 1 30 55
M  V30 END BOND
M  V30 END CTAB
M  END
>  <Dataset>  (140) 
ChEMBL_Kinases

>  <Ligand_Instance>  (140) 
nan

>  <PDB_ID>  (140) 
nan

>  <Standardized_SMILES>  (140) 
CCC1CSC(Nc2ccc(C(=O)/C=C/c3ccc(Oc4ccccc4)cc3)cc2)=N1

>  <Name>  (140) 
nan

>  <Pocket>  (140) 
nan

>  <ATP_Site>  (140) 
nan

>  <Peripheral>  (140) 
nan

>  <Num_H_Atoms_ProtBoundConf>  (140) 
nan

>  <Num_Resolved_Atoms>  (140) 
nan

>  <Num_Not_Resolved_Atoms>  (140) 
nan

$$$$
CHEMBL1360154
     RDKit          3D

  0  0  0  0  0  0  0  0  0  0999 V3000
M  V30 BEGIN CTAB
M  V30 COUNTS 35 37 0 0 0
M  V30 BEGIN ATOM
M  V30 1 O -0.574220 1.383981 4.015316 0
M  V30 2 C -1.248515 1.493782 2.965260 0
M  V30 3 N -0.838783 0.841714 1.790703 0
M  V30 4 C 0.299503 0.023598 1.603929 0
M  V30 5 C 1.246188 -0.303045 2.544007 0
M  V30 6 C 2.348504 -1.101758 2.343254 0
M  V30 7 C 2.545864 -1.637900 1.090079 0
M  V30 8 C 1.632145 -1.348267 0.103409 0
M  V30 9 N 1.817498 -1.891278 -1.195871 0
M  V30 10 C 2.879948 -2.752810 -1.672571 0
M  V30 11 C 2.145007 -3.883764 -2.382204 0
M  V30 12 C 0.859515 -3.198479 -2.851942 0
M  V30 13 C 1.021406 -1.748109 -2.396584 0
M  V30 14 C 0.555742 -0.543394 0.376600 0
M  V30 15 C -2.440139 2.259075 2.878577 0
M  V30 16 C -2.965615 2.939654 3.902885 0
M  V30 17 C -4.081974 3.688840 3.921518 0
M  V30 18 C -4.740516 3.693549 2.578481 0
M  V30 19 S -3.588688 2.581838 1.510312 0
M  V30 20 H -1.443949 0.965286 0.925789 0
M  V30 21 H 1.161148 0.076850 3.544949 0
M  V30 22 H 3.057791 -1.321432 3.125157 0
M  V30 23 H 3.414457 -2.264115 0.941011 0
M  V30 24 H 3.538902 -3.140554 -0.885499 0
M  V30 25 H 3.524963 -2.229666 -2.427624 0
M  V30 26 H 2.702414 -4.265290 -3.263428 0
M  V30 27 H 1.890423 -4.663903 -1.650875 0
M  V30 28 H -0.026322 -3.659882 -2.368007 0
M  V30 29 H 0.744719 -3.271923 -3.949104 0
M  V30 30 H 0.041020 -1.295349 -2.252724 0
M  V30 31 H 1.612644 -1.249374 -3.193787 0
M  V30 32 H -0.117378 -0.363582 -0.454924 0
M  V30 33 H -2.688607 3.089387 4.937659 0
M  V30 34 H -4.882605 4.319214 4.223111 0
M  V30 35 H -5.508328 3.905654 1.652428 0
M  V30 END ATOM
M  V30 BEGIN BOND
M  V30 1 2 1 2
M  V30 2 1 2 3
M  V30 3 1 3 4
M  V30 4 2 4 5
M  V30 5 1 5 6
M  V30 6 2 6 7
M  V30 7 1 7 8
M  V30 8 1 8 9
M  V30 9 1 9 10
M  V30 10 1 10 11
M  V30 11 1 11 12
M  V30 12 1 12 13
M  V30 13 2 8 14
M  V30 14 1 2 15
M  V30 15 2 15 16
M  V30 16 1 16 17
M  V30 17 2 17 18
M  V30 18 1 18 19
M  V30 19 1 14 4
M  V30 20 1 19 15
M  V30 21 1 13 9
M  V30 22 1 3 20
M  V30 23 1 5 21
M  V30 24 1 6 22
M  V30 25 1 7 23
M  V30 26 1 10 24
M  V30 27 1 10 25
M  V30 28 1 11 26
M  V30 29 1 11 27
M  V30 30 1 12 28
M  V30 31 1 12 29
M  V30 32 1 13 30
M  V30 33 1 13 31
M  V30 34 1 14 32
M  V30 35 1 16 33
M  V30 36 1 17 34
M  V30 37 1 18 35
M  V30 END BOND
M  V30 END CTAB
M  END
>  <Dataset>  (141) 
ChEMBL_Kinases

>  <Ligand_Instance>  (141) 
nan

>  <PDB_ID>  (141) 
nan

>  <Standardized_SMILES>  (141) 
O=C(Nc1cccc(N2CCCC2)c1)c1cccs1

>  <Name>  (141) 
nan

>  <Pocket>  (141) 
nan

>  <ATP_Site>  (141) 
nan

>  <Peripheral>  (141) 
nan

>  <Num_H_Atoms_ProtBoundConf>  (141) 
nan

>  <Num_Resolved_Atoms>  (141) 
nan

>  <Num_Not_Resolved_Atoms>  (141) 
nan

$$$$
CHEMBL1360011
     RDKit          3D

  0  0  0  0  0  0  0  0  0  0999 V3000
M  V30 BEGIN CTAB
M  V30 COUNTS 31 34 0 0 0
M  V30 BEGIN ATOM
M  V30 1 C -1.431504 -3.895027 5.185012 0
M  V30 2 C -1.831203 -4.719566 4.152067 0
M  V30 3 C -1.612157 -4.281706 2.861591 0
M  V30 4 C -1.024659 -3.083771 2.525348 0
M  V30 5 C -0.817436 -2.670245 1.148629 0
M  V30 6 C -1.217340 -3.494811 0.051811 0
M  V30 7 S -0.691015 -2.429383 -1.424819 0
M  V30 8 C -0.061077 -1.134383 -0.267104 0
M  V30 9 C 0.546570 0.103014 -0.889293 0
M  V30 10 N 0.696114 0.400822 -2.166268 0
M  V30 11 C 1.291832 1.617808 -2.297940 0
M  V30 12 C 1.653057 2.349453 -3.409100 0
M  V30 13 C 2.246746 3.564821 -3.136102 0
M  V30 14 C 2.485665 4.061025 -1.871901 0
M  V30 15 C 2.090762 3.260284 -0.799670 0
M  V30 16 C 1.486090 2.022976 -0.985601 0
M  V30 17 N 1.025469 1.086679 -0.120805 0
M  V30 18 N -0.260587 -1.535057 0.764189 0
M  V30 19 C -0.658495 -2.327339 3.614955 0
M  V30 20 C -0.829960 -2.667725 4.939685 0
M  V30 21 H -1.555280 -4.139903 6.235357 0
M  V30 22 H -2.295480 -5.666478 4.372383 0
M  V30 23 H -1.947016 -4.971718 2.102232 0
M  V30 24 H -1.746785 -4.576141 0.139424 0
M  V30 25 H 1.480950 1.991431 -4.415328 0
M  V30 26 H 2.550035 4.179681 -3.971849 0
M  V30 27 H 2.953513 5.018535 -1.696602 0
M  V30 28 H 2.271645 3.636199 0.199959 0
M  V30 29 H 1.046956 1.136935 0.915391 0
M  V30 30 H -0.183219 -1.357717 3.431220 0
M  V30 31 H -0.507554 -2.003006 5.728595 0
M  V30 END ATOM
M  V30 BEGIN BOND
M  V30 1 2 1 2
M  V30 2 1 2 3
M  V30 3 2 3 4
M  V30 4 1 4 5
M  V30 5 2 5 6
M  V30 6 1 6 7
M  V30 7 1 7 8
M  V30 8 1 8 9
M  V30 9 2 9 10
M  V30 10 1 10 11
M  V30 11 2 11 12
M  V30 12 1 12 13
M  V30 13 2 13 14
M  V30 14 1 14 15
M  V30 15 2 15 16
M  V30 16 1 16 17
M  V30 17 2 8 18
M  V30 18 1 4 19
M  V30 19 2 19 20
M  V30 20 1 20 1
M  V30 21 1 18 5
M  V30 22 1 17 9
M  V30 23 1 16 11
M  V30 24 1 1 21
M  V30 25 1 2 22
M  V30 26 1 3 23
M  V30 27 1 6 24
M  V30 28 1 12 25
M  V30 29 1 13 26
M  V30 30 1 14 27
M  V30 31 1 15 28
M  V30 32 1 17 29
M  V30 33 1 19 30
M  V30 34 1 20 31
M  V30 END BOND
M  V30 END CTAB
M  END
>  <Dataset>  (142) 
ChEMBL_Kinases

>  <Ligand_Instance>  (142) 
nan

>  <PDB_ID>  (142) 
nan

>  <Standardized_SMILES>  (142) 
c1ccc(-c2csc(-c3nc4ccccc4[nH]3)n2)cc1

>  <Name>  (142) 
nan

>  <Pocket>  (142) 
nan

>  <ATP_Site>  (142) 
nan

>  <Peripheral>  (142) 
nan

>  <Num_H_Atoms_ProtBoundConf>  (142) 
nan

>  <Num_Resolved_Atoms>  (142) 
nan

>  <Num_Not_Resolved_Atoms>  (142) 
nan

$$$$
CHEMBL1359848
     RDKit          3D

  0  0  0  0  0  0  0  0  0  0999 V3000
M  V30 BEGIN CTAB
M  V30 COUNTS 53 56 0 0 0
M  V30 BEGIN ATOM
M  V30 1 C 0.599332 -5.070532 3.832227 0
M  V30 2 C 0.934506 -3.599461 3.709490 0
M  V30 3 C 2.072774 -3.359780 2.747111 0
M  V30 4 N 1.763439 -3.834271 1.412088 0
M  V30 5 C 1.174070 -3.037937 0.498808 0
M  V30 6 N 0.726757 -1.683914 0.521446 0
M  V30 7 C 1.618636 -0.646011 0.139183 0
M  V30 8 O 2.791761 -0.927365 -0.214998 0
M  V30 9 C 1.240878 0.766178 0.133905 0
M  V30 10 C 2.197792 1.681003 -0.260035 0
M  V30 11 C 1.899855 3.048343 -0.287065 0
M  V30 12 C 0.668655 3.501181 0.072150 0
M  V30 13 C -0.298501 2.594096 0.468757 0
M  V30 14 S -1.894873 3.063233 0.945503 0
M  V30 15 O -2.438762 2.091040 1.972998 0
M  V30 16 O -1.853099 4.400631 1.614608 0
M  V30 17 N -3.006386 3.114072 -0.340301 0
M  V30 18 C -2.700654 4.047850 -1.382535 0
M  V30 19 C -3.915283 4.891404 -1.654923 0
M  V30 20 C -5.029117 4.082501 -1.024775 0
M  V30 21 C -4.304956 3.506637 0.198846 0
M  V30 22 C 0.011629 1.248952 0.489789 0
M  V30 23 N 1.006348 -3.734306 -0.644884 0
M  V30 24 C 1.480952 -4.985610 -0.493763 0
M  V30 25 C 1.561108 -6.087165 -1.321021 0
M  V30 26 C 2.129748 -7.240110 -0.808699 0
M  V30 27 C 2.594341 -7.265885 0.487647 0
M  V30 28 C 2.516914 -6.163369 1.323692 0
M  V30 29 C 1.950473 -5.019544 0.808762 0
M  V30 30 H -0.249062 -5.130018 4.565213 0
M  V30 31 H 0.188557 -5.418968 2.881954 0
M  V30 32 H 1.461196 -5.668742 4.184366 0
M  V30 33 H 0.007890 -3.103852 3.416924 0
M  V30 34 H 1.272761 -3.270939 4.712960 0
M  V30 35 H 2.321659 -2.287775 2.720573 0
M  V30 36 H 2.966257 -3.894732 3.117107 0
M  V30 37 H -0.243930 -1.453261 0.814701 0
M  V30 38 H 3.208656 1.415263 -0.564388 0
M  V30 39 H 2.660437 3.761377 -0.598953 0
M  V30 40 H 0.392008 4.533613 0.068499 0
M  V30 41 H -2.454757 3.515528 -2.333788 0
M  V30 42 H -1.807181 4.669554 -1.133677 0
M  V30 43 H -4.091973 5.028540 -2.749618 0
M  V30 44 H -3.854029 5.890215 -1.173159 0
M  V30 45 H -5.886476 4.703291 -0.765726 0
M  V30 46 H -5.311824 3.246143 -1.713271 0
M  V30 47 H -4.173263 4.374271 0.890758 0
M  V30 48 H -4.856099 2.689977 0.665171 0
M  V30 49 H -0.732894 0.527202 0.797241 0
M  V30 50 H 1.181975 -6.015393 -2.329473 0
M  V30 51 H 2.169148 -8.075944 -1.497447 0
M  V30 52 H 3.026875 -8.213032 0.810293 0
M  V30 53 H 2.891796 -6.218163 2.337333 0
M  V30 END ATOM
M  V30 BEGIN BOND
M  V30 1 1 1 2
M  V30 2 1 2 3
M  V30 3 1 3 4
M  V30 4 1 4 5
M  V30 5 1 5 6
M  V30 6 1 6 7
M  V30 7 2 7 8
M  V30 8 1 7 9
M  V30 9 2 9 10
M  V30 10 1 10 11
M  V30 11 2 11 12
M  V30 12 1 12 13
M  V30 13 1 13 14
M  V30 14 2 14 15
M  V30 15 2 14 16
M  V30 16 1 14 17
M  V30 17 1 17 18
M  V30 18 1 18 19
M  V30 19 1 19 20
M  V30 20 1 20 21
M  V30 21 2 13 22
M  V30 22 2 5 23
M  V30 23 1 23 24
M  V30 24 2 24 25
M  V30 25 1 25 26
M  V30 26 2 26 27
M  V30 27 1 27 28
M  V30 28 2 28 29
M  V30 29 1 29 4
M  V30 30 1 22 9
M  V30 31 1 29 24
M  V30 32 1 21 17
M  V30 33 1 1 30
M  V30 34 1 1 31
M  V30 35 1 1 32
M  V30 36 1 2 33
M  V30 37 1 2 34
M  V30 38 1 3 35
M  V30 39 1 3 36
M  V30 40 1 6 37
M  V30 41 1 10 38
M  V30 42 1 11 39
M  V30 43 1 12 40
M  V30 44 1 18 41
M  V30 45 1 18 42
M  V30 46 1 19 43
M  V30 47 1 19 44
M  V30 48 1 20 45
M  V30 49 1 20 46
M  V30 50 1 21 47
M  V30 51 1 21 48
M  V30 52 1 22 49
M  V30 53 1 25 50
M  V30 54 1 26 51
M  V30 55 1 27 52
M  V30 56 1 28 53
M  V30 END BOND
M  V30 END CTAB
M  END
>  <Dataset>  (143) 
ChEMBL_Kinases

>  <Ligand_Instance>  (143) 
nan

>  <PDB_ID>  (143) 
nan

>  <Standardized_SMILES>  (143) 
CCCn1c(NC(=O)c2cccc(S(=O)(=O)N3CCCC3)c2)nc2ccccc21

>  <Name>  (143) 
nan

>  <Pocket>  (143) 
nan

>  <ATP_Site>  (143) 
nan

>  <Peripheral>  (143) 
nan

>  <Num_H_Atoms_ProtBoundConf>  (143) 
nan

>  <Num_Resolved_Atoms>  (143) 
nan

>  <Num_Not_Resolved_Atoms>  (143) 
nan

$$$$
CHEMBL1359780
     RDKit          3D

  0  0  0  0  0  0  0  0  0  0999 V3000
M  V30 BEGIN CTAB
M  V30 COUNTS 58 61 0 0 0
M  V30 BEGIN ATOM
M  V30 1 C 4.903554 -3.057828 4.197725 0
M  V30 2 O 4.386132 -1.943103 3.499356 0
M  V30 3 C 4.740036 -0.636648 3.687465 0
M  V30 4 O 5.586483 -0.196525 4.513103 0
M  V30 5 C 4.097002 0.393353 2.869292 0
M  V30 6 C 4.408019 1.731810 3.008002 0
M  V30 7 C 3.789808 2.706617 2.223557 0
M  V30 8 C 2.835100 2.343251 1.273653 0
M  V30 9 C 2.525811 1.005022 1.136722 0
M  V30 10 C 1.557739 0.525322 0.189089 0
M  V30 11 C 0.732326 0.115118 -0.594705 0
M  V30 12 C -0.265924 -0.403867 -1.533729 0
M  V30 13 N -1.616966 -0.209249 -0.983855 0
M  V30 14 P -1.796606 -1.043466 0.532456 0
M  V30 15 O -0.693566 -0.659305 1.512235 0
M  V30 16 C -3.329842 -0.530580 1.279577 0
M  V30 17 C -3.710968 0.779386 1.193110 0
M  V30 18 C -4.917299 1.169959 1.783931 0
M  V30 19 C -5.716506 0.242280 2.448453 0
M  V30 20 C -5.339041 -1.085753 2.541144 0
M  V30 21 C -4.149865 -1.437445 1.951054 0
M  V30 22 C -1.706624 -2.814145 0.312135 0
M  V30 23 C -0.541004 -3.515440 0.633959 0
M  V30 24 C -0.360493 -4.876192 0.504948 0
M  V30 25 C -1.403976 -5.600920 0.023659 0
M  V30 26 C -2.588433 -4.970112 -0.315051 0
M  V30 27 C -2.753506 -3.587720 -0.177363 0
M  V30 28 C -0.141256 0.339443 -2.797447 0
M  V30 29 C -0.573056 1.633961 -2.995872 0
M  V30 30 C -0.409419 2.246072 -4.224724 0
M  V30 31 C 0.179831 1.598594 -5.277375 0
M  V30 32 C 0.621242 0.317452 -5.124430 0
M  V30 33 C 0.444687 -0.268054 -3.887174 0
M  V30 34 C 3.147820 0.070179 1.919555 0
M  V30 35 H 5.827557 -2.749594 4.688934 0
M  V30 36 H 5.095042 -3.919119 3.494577 0
M  V30 37 H 4.110409 -3.432934 4.876476 0
M  V30 38 H 5.149353 2.036735 3.742397 0
M  V30 39 H 4.039568 3.759102 2.338078 0
M  V30 40 H 2.328291 3.061751 0.641855 0
M  V30 41 H -0.147611 -1.480557 -1.723207 0
M  V30 42 H -1.654676 0.822361 -0.747317 0
M  V30 43 H -3.103847 1.505737 0.683325 0
M  V30 44 H -5.224935 2.207707 1.718669 0
M  V30 45 H -6.633349 0.622136 2.878378 0
M  V30 46 H -5.977177 -1.767327 3.058127 0
M  V30 47 H -3.868915 -2.485358 2.033712 0
M  V30 48 H 0.277196 -2.914172 1.016059 0
M  V30 49 H 0.591320 -5.308332 0.787816 0
M  V30 50 H -1.288282 -6.665849 -0.086574 0
M  V30 51 H -3.441609 -5.512063 -0.701335 0
M  V30 52 H -3.661860 -3.072646 -0.432641 0
M  V30 53 H -1.039059 2.151924 -2.170363 0
M  V30 54 H -0.740649 3.267582 -4.410696 0
M  V30 55 H 0.343301 2.017944 -6.277727 0
M  V30 56 H 1.104191 -0.276835 -5.911937 0
M  V30 57 H 0.798888 -1.299111 -3.760908 0
M  V30 58 H 2.920220 -0.988398 1.829114 0
M  V30 END ATOM
M  V30 BEGIN BOND
M  V30 1 1 1 2
M  V30 2 1 2 3
M  V30 3 2 3 4
M  V30 4 1 3 5
M  V30 5 2 5 6
M  V30 6 1 6 7
M  V30 7 2 7 8
M  V30 8 1 8 9
M  V30 9 1 9 10
M  V30 10 3 10 11
M  V30 11 1 11 12
M  V30 12 1 12 13
M  V30 13 1 13 14
M  V30 14 2 14 15
M  V30 15 1 14 16
M  V30 16 2 16 17
M  V30 17 1 17 18
M  V30 18 2 18 19
M  V30 19 1 19 20
M  V30 20 2 20 21
M  V30 21 1 14 22
M  V30 22 2 22 23
M  V30 23 1 23 24
M  V30 24 2 24 25
M  V30 25 1 25 26
M  V30 26 2 26 27
M  V30 27 1 12 28
M  V30 28 2 28 29
M  V30 29 1 29 30
M  V30 30 2 30 31
M  V30 31 1 31 32
M  V30 32 2 32 33
M  V30 33 2 9 34
M  V30 34 1 34 5
M  V30 35 1 21 16
M  V30 36 1 27 22
M  V30 37 1 33 28
M  V30 38 1 1 35
M  V30 39 1 1 36
M  V30 40 1 1 37
M  V30 41 1 6 38
M  V30 42 1 7 39
M  V30 43 1 8 40
M  V30 44 1 12 41
M  V30 45 1 13 42
M  V30 46 1 17 43
M  V30 47 1 18 44
M  V30 48 1 19 45
M  V30 49 1 20 46
M  V30 50 1 21 47
M  V30 51 1 23 48
M  V30 52 1 24 49
M  V30 53 1 25 50
M  V30 54 1 26 51
M  V30 55 1 27 52
M  V30 56 1 29 53
M  V30 57 1 30 54
M  V30 58 1 31 55
M  V30 59 1 32 56
M  V30 60 1 33 57
M  V30 61 1 34 58
M  V30 END BOND
M  V30 END CTAB
M  END
>  <Dataset>  (144) 
ChEMBL_Kinases

>  <Ligand_Instance>  (144) 
nan

>  <PDB_ID>  (144) 
nan

>  <Standardized_SMILES>  (144) 
COC(=O)c1cccc(C#CC(NP(=O)(c2ccccc2)c2ccccc2)c2ccccc2)c1

>  <Name>  (144) 
nan

>  <Pocket>  (144) 
nan

>  <ATP_Site>  (144) 
nan

>  <Peripheral>  (144) 
nan

>  <Num_H_Atoms_ProtBoundConf>  (144) 
nan

>  <Num_Resolved_Atoms>  (144) 
nan

>  <Num_Not_Resolved_Atoms>  (144) 
nan

$$$$
CHEMBL1359771
     RDKit          3D

  0  0  0  0  0  0  0  0  0  0999 V3000
M  V30 BEGIN CTAB
M  V30 COUNTS 35 36 0 0 0
M  V30 BEGIN ATOM
M  V30 1 C -2.002632 -3.398957 3.493999 0
M  V30 2 O -0.816296 -3.066253 4.089919 0
M  V30 3 C -0.080372 -2.074154 3.498826 0
M  V30 4 C 0.466200 -2.353760 2.178100 0
M  V30 5 O 1.097294 -1.292672 1.824246 0
M  V30 6 N 0.589273 -3.274176 1.159744 0
M  V30 7 C 1.059058 -3.634174 -0.109043 0
M  V30 8 C 0.526087 -2.875203 -1.264927 0
M  V30 9 C 0.818495 -1.395209 -1.249763 0
M  V30 10 N 0.465069 -0.360479 -0.941228 0
M  V30 11 C 1.006541 0.826343 -1.088146 0
M  V30 12 C 0.388633 2.060833 -0.616255 0
M  V30 13 C 0.983006 3.293905 -0.785671 0
M  V30 14 C 0.493601 4.517970 -0.382980 0
M  V30 15 C -0.725605 4.511635 0.261067 0
M  V30 16 C -1.392971 3.323319 0.474349 0
M  V30 17 C -0.823800 2.147512 0.035142 0
M  V30 18 C 2.241044 0.849587 -1.738367 0
M  V30 19 S 2.488131 -0.980814 -2.084168 0
M  V30 20 H -2.710439 -2.517172 3.437753 0
M  V30 21 H -1.948197 -3.928602 2.559403 0
M  V30 22 H -2.531318 -4.084242 4.225139 0
M  V30 23 H 0.729076 -1.701605 4.195409 0
M  V30 24 H -0.798483 -1.203133 3.360636 0
M  V30 25 H 0.079644 -4.111419 1.587666 0
M  V30 26 H 2.195988 -3.468602 -0.151037 0
M  V30 27 H 0.883608 -4.725878 -0.348986 0
M  V30 28 H 0.871841 -3.314639 -2.238197 0
M  V30 29 H -0.601290 -2.943601 -1.323063 0
M  V30 30 H 1.955062 3.342049 -1.294087 0
M  V30 31 H 1.032950 5.431582 -0.560831 0
M  V30 32 H -1.196004 5.418462 0.616431 0
M  V30 33 H -2.368176 3.270151 0.983846 0
M  V30 34 H -1.367302 1.207554 0.212098 0
M  V30 35 H 2.886446 1.632387 -1.987734 0
M  V30 END ATOM
M  V30 BEGIN BOND
M  V30 1 1 1 2
M  V30 2 1 2 3
M  V30 3 1 3 4
M  V30 4 2 4 5
M  V30 5 1 4 6
M  V30 6 1 6 7
M  V30 7 1 7 8
M  V30 8 1 8 9
M  V30 9 2 9 10
M  V30 10 1 10 11
M  V30 11 1 11 12
M  V30 12 2 12 13
M  V30 13 1 13 14
M  V30 14 2 14 15
M  V30 15 1 15 16
M  V30 16 2 16 17
M  V30 17 2 11 18
M  V30 18 1 18 19
M  V30 19 1 19 9
M  V30 20 1 17 12
M  V30 21 1 1 20
M  V30 22 1 1 21
M  V30 23 1 1 22
M  V30 24 1 3 23
M  V30 25 1 3 24
M  V30 26 1 6 25
M  V30 27 1 7 26
M  V30 28 1 7 27
M  V30 29 1 8 28
M  V30 30 1 8 29
M  V30 31 1 13 30
M  V30 32 1 14 31
M  V30 33 1 15 32
M  V30 34 1 16 33
M  V30 35 1 17 34
M  V30 36 1 18 35
M  V30 END BOND
M  V30 END CTAB
M  END
>  <Dataset>  (145) 
ChEMBL_Kinases

>  <Ligand_Instance>  (145) 
nan

>  <PDB_ID>  (145) 
nan

>  <Standardized_SMILES>  (145) 
COCC(=O)NCCc1nc(-c2ccccc2)cs1

>  <Name>  (145) 
nan

>  <Pocket>  (145) 
nan

>  <ATP_Site>  (145) 
nan

>  <Peripheral>  (145) 
nan

>  <Num_H_Atoms_ProtBoundConf>  (145) 
nan

>  <Num_Resolved_Atoms>  (145) 
nan

>  <Num_Not_Resolved_Atoms>  (145) 
nan

$$$$
CHEMBL1650541
     RDKit          3D

  0  0  0  0  0  0  0  0  0  0999 V3000
M  V30 BEGIN CTAB
M  V30 COUNTS 53 57 0 0 0
M  V30 BEGIN ATOM
M  V30 1 C 0.626660 4.654769 1.591424 0
M  V30 2 C 1.313577 3.439283 1.100047 0
M  V30 3 C 2.202189 2.727178 1.874126 0
M  V30 4 N 2.852030 1.635604 1.494006 0
M  V30 5 C 3.725075 0.873517 2.165201 0
M  V30 6 C 4.291865 0.913625 3.490432 0
M  V30 7 C 5.206854 -0.054623 3.918897 0
M  V30 8 N 5.585215 0.213654 5.204331 0
M  V30 9 N 4.966668 1.295483 5.624900 0
M  V30 10 C 4.201702 1.703938 4.601949 0
M  V30 11 C 4.046715 -0.108604 1.251625 0
M  V30 12 N 3.376061 0.094756 0.104550 0
M  V30 13 C 2.614276 1.198654 0.245925 0
M  V30 14 C 1.719142 1.885274 -0.584768 0
M  V30 15 N 1.600173 1.277688 -1.866492 0
M  V30 16 C 0.697899 0.111631 -1.911391 0
M  V30 17 C -0.012895 -0.390185 -0.841142 0
M  V30 18 C -0.759506 -1.487616 -1.154138 0
M  V30 19 C -1.630983 -2.236497 -0.202568 0
M  V30 20 N -2.997085 -1.775642 -0.194483 0
M  V30 21 C -3.829081 -2.410997 0.800352 0
M  V30 22 C -3.840217 -3.889326 0.613614 0
M  V30 23 C -4.355082 -4.302212 -0.747851 0
M  V30 24 C -3.895081 -5.722354 -0.996287 0
M  V30 25 F -4.382062 -6.589706 -0.037048 0
M  V30 26 F -4.273948 -6.170713 -2.254209 0
M  V30 27 F -2.534725 -5.755869 -0.911636 0
M  V30 28 C -3.776163 -3.446780 -1.848088 0
M  V30 29 C -3.646312 -1.997955 -1.480343 0
M  V30 30 N -0.765515 -2.042976 -2.538168 0
M  V30 31 S 0.400565 -0.837832 -3.334680 0
M  V30 32 N 1.081530 2.984283 -0.164728 0
M  V30 33 H -0.352286 4.825014 1.106651 0
M  V30 34 H 0.520749 4.607537 2.701007 0
M  V30 35 H 1.257980 5.526866 1.289876 0
M  V30 36 H 2.348808 3.121603 2.848611 0
M  V30 37 H 5.638116 -0.911562 3.457440 0
M  V30 38 H 5.055764 1.741687 6.563000 0
M  V30 39 H 3.585638 2.575826 4.677282 0
M  V30 40 H 4.695211 -0.972990 1.257012 0
M  V30 41 H 2.065490 1.559739 -2.748490 0
M  V30 42 H -0.010595 0.006952 0.146844 0
M  V30 43 H -1.508019 -3.314031 -0.416912 0
M  V30 44 H -1.244248 -2.024865 0.830468 0
M  V30 45 H -4.847609 -1.988037 0.659040 0
M  V30 46 H -3.493337 -2.209763 1.837586 0
M  V30 47 H -2.830901 -4.307323 0.815469 0
M  V30 48 H -4.528790 -4.319418 1.373216 0
M  V30 49 H -5.471510 -4.321178 -0.760053 0
M  V30 50 H -2.827439 -3.857685 -2.185223 0
M  V30 51 H -4.495539 -3.491124 -2.691338 0
M  V30 52 H -4.661377 -1.563703 -1.406522 0
M  V30 53 H -3.119579 -1.486976 -2.300718 0
M  V30 END ATOM
M  V30 BEGIN BOND
M  V30 1 1 1 2
M  V30 2 2 2 3
M  V30 3 1 3 4
M  V30 4 1 4 5
M  V30 5 1 5 6
M  V30 6 1 6 7
M  V30 7 2 7 8
M  V30 8 1 8 9
M  V30 9 1 9 10
M  V30 10 2 5 11
M  V30 11 1 11 12
M  V30 12 2 12 13
M  V30 13 1 13 14
M  V30 14 1 14 15
M  V30 15 1 15 16
M  V30 16 2 16 17
M  V30 17 1 17 18
M  V30 18 1 18 19
M  V30 19 1 19 20
M  V30 20 1 20 21
M  V30 21 1 21 22
M  V30 22 1 22 23
M  V30 23 1 23 24
M  V30 24 1 24 25
M  V30 25 1 24 26
M  V30 26 1 24 27
M  V30 27 1 23 28
M  V30 28 1 28 29
M  V30 29 2 18 30
M  V30 30 1 30 31
M  V30 31 2 14 32
M  V30 32 1 32 2
M  V30 33 1 13 4
M  V30 34 1 31 16
M  V30 35 2 10 6
M  V30 36 1 29 20
M  V30 37 1 1 33
M  V30 38 1 1 34
M  V30 39 1 1 35
M  V30 40 1 3 36
M  V30 41 1 7 37
M  V30 42 1 9 38
M  V30 43 1 10 39
M  V30 44 1 11 40
M  V30 45 1 15 41
M  V30 46 1 17 42
M  V30 47 1 19 43
M  V30 48 1 19 44
M  V30 49 1 21 45
M  V30 50 1 21 46
M  V30 51 1 22 47
M  V30 52 1 22 48
M  V30 53 1 23 49
M  V30 54 1 28 50
M  V30 55 1 28 51
M  V30 56 1 29 52
M  V30 57 1 29 53
M  V30 END BOND
M  V30 END CTAB
M  END
>  <Dataset>  (146) 
ChEMBL_Kinases

>  <Ligand_Instance>  (146) 
nan

>  <PDB_ID>  (146) 
nan

>  <Standardized_SMILES>  (146) 
Cc1cn2c(-c3cn[nH]c3)cnc2c(Nc2cc(CN3CCC(C(F)(F)F)CC3)ns2)n1

>  <Name>  (146) 
nan

>  <Pocket>  (146) 
nan

>  <ATP_Site>  (146) 
nan

>  <Peripheral>  (146) 
nan

>  <Num_H_Atoms_ProtBoundConf>  (146) 
nan

>  <Num_Resolved_Atoms>  (146) 
nan

>  <Num_Not_Resolved_Atoms>  (146) 
nan

$$$$
CHEMBL1359463
     RDKit          3D

  0  0  0  0  0  0  0  0  0  0999 V3000
M  V30 BEGIN CTAB
M  V30 COUNTS 39 41 0 0 0
M  V30 BEGIN ATOM
M  V30 1 C 1.449805 -5.060523 2.075648 0
M  V30 2 O 0.676947 -4.041535 1.514579 0
M  V30 3 C 1.357638 -3.318182 0.563865 0
M  V30 4 C 0.557144 -2.204583 -0.069017 0
M  V30 5 N 0.090423 -1.217033 0.850976 0
M  V30 6 C 0.822487 -0.109983 1.171064 0
M  V30 7 S 2.436734 0.435011 0.620676 0
M  V30 8 C 2.230781 1.447760 -0.841080 0
M  V30 9 C 2.242227 0.890327 -2.104007 0
M  V30 10 C 2.073919 1.758321 -3.188528 0
M  V30 11 C 1.901813 3.131312 -2.995822 0
M  V30 12 C 1.900610 3.625830 -1.693868 0
M  V30 13 C 2.065458 2.793860 -0.582815 0
M  V30 14 N 0.148919 0.669235 2.067840 0
M  V30 15 C -1.037612 0.068808 2.340032 0
M  V30 16 C -1.019766 -1.075535 1.571599 0
M  V30 17 C -2.117391 -1.909520 1.637261 0
M  V30 18 O -2.168233 -2.970057 0.962433 0
M  V30 19 N -3.165340 -1.607687 2.427998 0
M  V30 20 C -3.145498 -0.465554 3.173977 0
M  V30 21 O -4.166460 -0.252415 3.890777 0
M  V30 22 N -2.085678 0.367900 3.129075 0
M  V30 23 C -2.087002 1.566258 3.924186 0
M  V30 24 H 0.873431 -5.626865 2.839497 0
M  V30 25 H 2.392955 -4.691596 2.528458 0
M  V30 26 H 1.647992 -5.769839 1.223061 0
M  V30 27 H 1.618864 -4.018025 -0.281894 0
M  V30 28 H 2.304595 -2.929797 0.989793 0
M  V30 29 H -0.288912 -2.601796 -0.662322 0
M  V30 30 H 1.246072 -1.735600 -0.825957 0
M  V30 31 H 2.375299 -0.171724 -2.253767 0
M  V30 32 H 2.079711 1.339992 -4.192637 0
M  V30 33 H 1.773084 3.786849 -3.847355 0
M  V30 34 H 1.764503 4.694643 -1.587871 0
M  V30 35 H 2.057672 3.220125 0.402596 0
M  V30 36 H -3.978839 -2.261146 2.453253 0
M  V30 37 H -2.529868 1.306036 4.928825 0
M  V30 38 H -2.642069 2.390568 3.442616 0
M  V30 39 H -1.069452 1.905356 4.142966 0
M  V30 END ATOM
M  V30 BEGIN BOND
M  V30 1 1 1 2
M  V30 2 1 2 3
M  V30 3 1 3 4
M  V30 4 1 4 5
M  V30 5 1 5 6
M  V30 6 1 6 7
M  V30 7 1 7 8
M  V30 8 2 8 9
M  V30 9 1 9 10
M  V30 10 2 10 11
M  V30 11 1 11 12
M  V30 12 2 12 13
M  V30 13 2 6 14
M  V30 14 1 14 15
M  V30 15 2 15 16
M  V30 16 1 16 17
M  V30 17 2 17 18
M  V30 18 1 17 19
M  V30 19 1 19 20
M  V30 20 2 20 21
M  V30 21 1 20 22
M  V30 22 1 22 23
M  V30 23 1 16 5
M  V30 24 1 13 8
M  V30 25 1 22 15
M  V30 26 1 1 24
M  V30 27 1 1 25
M  V30 28 1 1 26
M  V30 29 1 3 27
M  V30 30 1 3 28
M  V30 31 1 4 29
M  V30 32 1 4 30
M  V30 33 1 9 31
M  V30 34 1 10 32
M  V30 35 1 11 33
M  V30 36 1 12 34
M  V30 37 1 13 35
M  V30 38 1 19 36
M  V30 39 1 23 37
M  V30 40 1 23 38
M  V30 41 1 23 39
M  V30 END BOND
M  V30 END CTAB
M  END
>  <Dataset>  (147) 
ChEMBL_Kinases

>  <Ligand_Instance>  (147) 
nan

>  <PDB_ID>  (147) 
nan

>  <Standardized_SMILES>  (147) 
COCCn1c(Sc2ccccc2)nc2c1c(=O)[nH]c(=O)n2C

>  <Name>  (147) 
nan

>  <Pocket>  (147) 
nan

>  <ATP_Site>  (147) 
nan

>  <Peripheral>  (147) 
nan

>  <Num_H_Atoms_ProtBoundConf>  (147) 
nan

>  <Num_Resolved_Atoms>  (147) 
nan

>  <Num_Not_Resolved_Atoms>  (147) 
nan

$$$$
CHEMBL1359368
     RDKit          3D

  0  0  0  0  0  0  0  0  0  0999 V3000
M  V30 BEGIN CTAB
M  V30 COUNTS 45 47 0 0 0
M  V30 BEGIN ATOM
M  V30 1 C -1.168122 -5.020021 3.232318 0
M  V30 2 C -0.711111 -4.406948 1.955591 0
M  V30 3 N 0.045678 -3.340182 1.865904 0
M  V30 4 C 0.453095 -2.782094 0.982296 0
M  V30 5 N 1.323607 -1.557053 0.841927 0
M  V30 6 C 0.514915 -0.424318 0.801645 0
M  V30 7 O -0.732584 -0.499379 0.878391 0
M  V30 8 C 1.142205 0.888493 0.664564 0
M  V30 9 C 2.359067 1.448093 0.549653 0
M  V30 10 C 2.458038 2.807612 0.437367 0
M  V30 11 C 1.321673 3.613385 0.441002 0
M  V30 12 S -0.073629 2.340725 0.621560 0
M  V30 13 C 0.955348 4.973519 0.359388 0
M  V30 14 C 2.022725 5.850772 0.937391 0
M  V30 15 C 2.767359 5.000419 1.956639 0
M  V30 16 C 4.044366 4.539855 1.323464 0
M  V30 17 C 3.775617 3.484505 0.303196 0
M  V30 18 S -0.273295 -3.838544 -0.435690 0
M  V30 19 C -1.069112 -4.938069 0.754198 0
M  V30 20 C -1.895615 -6.115628 0.343846 0
M  V30 21 O -1.557794 -7.304654 0.618080 0
M  V30 22 N -3.076034 -5.722996 -0.374010 0
M  V30 23 C -3.475382 -4.343858 -0.696500 0
M  V30 24 C -4.066001 -6.660590 -0.895187 0
M  V30 25 H -1.528324 -6.047333 3.122017 0
M  V30 26 H -2.011102 -4.440704 3.696457 0
M  V30 27 H -0.358308 -5.032399 4.001243 0
M  V30 28 H 2.334819 -1.447985 0.776922 0
M  V30 29 H 3.200503 0.778025 0.553250 0
M  V30 30 H 0.017289 5.178335 0.953727 0
M  V30 31 H 0.695198 5.350568 -0.664673 0
M  V30 32 H 1.606083 6.773649 1.368900 0
M  V30 33 H 2.683695 6.135897 0.073201 0
M  V30 34 H 2.204113 4.077017 2.237425 0
M  V30 35 H 2.916331 5.538987 2.911108 0
M  V30 36 H 4.524728 5.458651 0.874180 0
M  V30 37 H 4.698388 4.192619 2.155093 0
M  V30 38 H 3.855269 3.909909 -0.736921 0
M  V30 39 H 4.612562 2.759601 0.358884 0
M  V30 40 H -2.911076 -3.662731 0.007417 0
M  V30 41 H -4.532678 -4.216103 -0.384255 0
M  V30 42 H -3.277217 -4.092799 -1.745391 0
M  V30 43 H -5.095684 -6.308381 -0.636241 0
M  V30 44 H -4.022673 -6.569789 -2.019637 0
M  V30 45 H -3.868093 -7.701080 -0.649594 0
M  V30 END ATOM
M  V30 BEGIN BOND
M  V30 1 1 1 2
M  V30 2 1 2 3
M  V30 3 2 3 4
M  V30 4 1 4 5
M  V30 5 1 5 6
M  V30 6 2 6 7
M  V30 7 1 6 8
M  V30 8 2 8 9
M  V30 9 1 9 10
M  V30 10 2 10 11
M  V30 11 1 11 12
M  V30 12 1 11 13
M  V30 13 1 13 14
M  V30 14 1 14 15
M  V30 15 1 15 16
M  V30 16 1 16 17
M  V30 17 1 4 18
M  V30 18 1 18 19
M  V30 19 1 19 20
M  V30 20 2 20 21
M  V30 21 1 20 22
M  V30 22 1 22 23
M  V30 23 1 22 24
M  V30 24 2 19 2
M  V30 25 1 12 8
M  V30 26 1 17 10
M  V30 27 1 1 25
M  V30 28 1 1 26
M  V30 29 1 1 27
M  V30 30 1 5 28
M  V30 31 1 9 29
M  V30 32 1 13 30
M  V30 33 1 13 31
M  V30 34 1 14 32
M  V30 35 1 14 33
M  V30 36 1 15 34
M  V30 37 1 15 35
M  V30 38 1 16 36
M  V30 39 1 16 37
M  V30 40 1 17 38
M  V30 41 1 17 39
M  V30 42 1 23 40
M  V30 43 1 23 41
M  V30 44 1 23 42
M  V30 45 1 24 43
M  V30 46 1 24 44
M  V30 47 1 24 45
M  V30 END BOND
M  V30 END CTAB
M  END
>  <Dataset>  (148) 
ChEMBL_Kinases

>  <Ligand_Instance>  (148) 
nan

>  <PDB_ID>  (148) 
nan

>  <Standardized_SMILES>  (148) 
Cc1nc(NC(=O)c2cc3c(s2)CCCCC3)sc1C(=O)N(C)C

>  <Name>  (148) 
nan

>  <Pocket>  (148) 
nan

>  <ATP_Site>  (148) 
nan

>  <Peripheral>  (148) 
nan

>  <Num_H_Atoms_ProtBoundConf>  (148) 
nan

>  <Num_Resolved_Atoms>  (148) 
nan

>  <Num_Not_Resolved_Atoms>  (148) 
nan

$$$$
CHEMBL1359223
     RDKit          3D

  0  0  0  0  0  0  0  0  0  0999 V3000
M  V30 BEGIN CTAB
M  V30 COUNTS 42 44 0 0 0
M  V30 BEGIN ATOM
M  V30 1 O -0.202220 -1.450896 -0.494760 0
M  V30 2 C 0.501265 -2.449668 -0.247414 0
M  V30 3 C 1.640118 -3.297913 -0.014723 0
M  V30 4 C 3.025764 -2.821290 -0.073655 0
M  V30 5 S 3.560400 -1.566415 0.997806 0
M  V30 6 O 3.450620 -2.038045 2.439323 0
M  V30 7 O 5.074482 -1.413216 0.793362 0
M  V30 8 C 2.890577 0.005312 0.800390 0
M  V30 9 C 2.154307 0.631324 -0.171856 0
M  V30 10 C 1.736550 1.931882 -0.190608 0
M  V30 11 C 2.085290 2.705110 0.869844 0
M  V30 12 C 2.826015 2.172023 1.899417 0
M  V30 13 N 3.258264 2.787552 3.019907 0
M  V30 14 O 3.914246 1.875861 3.685230 0
M  V30 15 N 3.922686 0.737842 3.062164 0
M  V30 16 C 3.236335 0.832439 1.884145 0
M  V30 17 N -0.709839 -3.266348 -0.120543 0
M  V30 18 C -2.092478 -2.957626 -0.220237 0
M  V30 19 C -2.742881 -2.088033 0.770956 0
M  V30 20 C -2.328121 -0.731722 1.011822 0
M  V30 21 C -2.896874 0.200931 0.133054 0
M  V30 22 C -2.672720 1.559903 0.200248 0
M  V30 23 C -1.844627 2.066074 1.178335 0
M  V30 24 C -1.258507 1.193229 2.069658 0
M  V30 25 C -1.492967 -0.161382 1.988567 0
M  V30 26 H 1.519402 -3.841655 0.988239 0
M  V30 27 H 1.598109 -4.186457 -0.743042 0
M  V30 28 H 3.675781 -3.735637 0.150075 0
M  V30 29 H 3.308069 -2.622547 -1.149936 0
M  V30 30 H 1.961018 -0.064344 -0.976080 0
M  V30 31 H 1.170180 2.236301 -1.035938 0
M  V30 32 H 1.775494 3.738955 0.895052 0
M  V30 33 H -0.622199 -4.337601 0.097743 0
M  V30 34 H -2.343516 -2.540826 -1.254179 0
M  V30 35 H -2.690475 -3.919914 -0.235575 0
M  V30 36 H -3.863172 -2.121753 0.513112 0
M  V30 37 H -2.731076 -2.609714 1.783233 0
M  V30 38 H -3.574138 -0.073083 -0.689525 0
M  V30 39 H -3.106114 2.268949 -0.469112 0
M  V30 40 H -1.575407 3.091801 1.357091 0
M  V30 41 H -0.591160 1.413476 2.888226 0
M  V30 42 H -1.081588 -0.945425 2.641896 0
M  V30 END ATOM
M  V30 BEGIN BOND
M  V30 1 2 1 2
M  V30 2 1 2 3
M  V30 3 1 3 4
M  V30 4 1 4 5
M  V30 5 2 5 6
M  V30 6 2 5 7
M  V30 7 1 5 8
M  V30 8 2 8 9
M  V30 9 1 9 10
M  V30 10 2 10 11
M  V30 11 1 11 12
M  V30 12 2 12 13
M  V30 13 1 13 14
M  V30 14 1 14 15
M  V30 15 2 15 16
M  V30 16 1 2 17
M  V30 17 1 17 18
M  V30 18 1 18 19
M  V30 19 1 19 20
M  V30 20 2 20 21
M  V30 21 1 21 22
M  V30 22 2 22 23
M  V30 23 1 23 24
M  V30 24 2 24 25
M  V30 25 1 16 8
M  V30 26 1 25 20
M  V30 27 1 16 12
M  V30 28 1 3 26
M  V30 29 1 3 27
M  V30 30 1 4 28
M  V30 31 1 4 29
M  V30 32 1 9 30
M  V30 33 1 10 31
M  V30 34 1 11 32
M  V30 35 1 17 33
M  V30 36 1 18 34
M  V30 37 1 18 35
M  V30 38 1 19 36
M  V30 39 1 19 37
M  V30 40 1 21 38
M  V30 41 1 22 39
M  V30 42 1 23 40
M  V30 43 1 24 41
M  V30 44 1 25 42
M  V30 END BOND
M  V30 END CTAB
M  END
>  <Dataset>  (149) 
ChEMBL_Kinases

>  <Ligand_Instance>  (149) 
nan

>  <PDB_ID>  (149) 
nan

>  <Standardized_SMILES>  (149) 
O=C(CCS(=O)(=O)c1cccc2nonc12)NCCc1ccccc1

>  <Name>  (149) 
nan

>  <Pocket>  (149) 
nan

>  <ATP_Site>  (149) 
nan

>  <Peripheral>  (149) 
nan

>  <Num_H_Atoms_ProtBoundConf>  (149) 
nan

>  <Num_Resolved_Atoms>  (149) 
nan

>  <Num_Not_Resolved_Atoms>  (149) 
nan

$$$$
CHEMBL1359028
     RDKit          3D

  0  0  0  0  0  0  0  0  0  0999 V3000
M  V30 BEGIN CTAB
M  V30 COUNTS 48 50 0 0 0
M  V30 BEGIN ATOM
M  V30 1 C 1.010382 -4.450453 3.879117 0
M  V30 2 C 0.965012 -4.840251 2.396211 0
M  V30 3 N 0.489852 -3.669648 1.639242 0
M  V30 4 C 1.397541 -2.783139 1.181782 0
M  V30 5 C 0.933930 -1.684479 0.478817 0
M  V30 6 C 1.855162 -0.654333 -0.047517 0
M  V30 7 O 2.081426 -0.344263 -1.242133 0
M  V30 8 N 2.517078 0.006815 1.034271 0
M  V30 9 C 3.490696 1.078952 0.889931 0
M  V30 10 C 2.805275 2.342157 0.575098 0
M  V30 11 C 2.391169 3.043282 1.680109 0
M  V30 12 C 1.734008 4.260159 1.554103 0
M  V30 13 C 1.525306 4.713882 0.274833 0
M  V30 14 N 1.944771 4.001009 -0.781822 0
M  V30 15 C 2.582070 2.824590 -0.708768 0
M  V30 16 C -0.433722 -1.533923 0.269741 0
M  V30 17 C -0.865489 -0.423950 -0.435462 0
M  V30 18 C -2.215053 -0.240666 -0.659262 0
M  V30 19 O -2.761151 0.832456 -1.351986 0
M  V30 20 C -1.891238 1.825780 -1.889986 0
M  V30 21 C -3.104985 -1.196352 -0.158108 0
M  V30 22 O -4.462933 -1.015720 -0.381845 0
M  V30 23 C -5.383588 -1.967033 0.111920 0
M  V30 24 C -2.713807 -2.314427 0.547775 0
M  V30 25 C -1.349363 -2.445404 0.741336 0
M  V30 26 C -0.840617 -3.530554 1.440653 0
M  V30 27 O -1.659311 -4.361197 1.871806 0
M  V30 28 H 2.081486 -4.375598 4.150323 0
M  V30 29 H 0.437800 -5.116351 4.521070 0
M  V30 30 H 0.613760 -3.416099 3.991879 0
M  V30 31 H 0.216347 -5.639375 2.299599 0
M  V30 32 H 1.937912 -5.194925 2.046866 0
M  V30 33 H 2.468469 -2.887234 1.334947 0
M  V30 34 H 2.363698 -0.218014 2.063459 0
M  V30 35 H 4.147927 1.207036 1.758578 0
M  V30 36 H 4.164107 0.850106 0.025522 0
M  V30 37 H 2.537483 2.719114 2.710244 0
M  V30 38 H 1.400892 4.820283 2.425419 0
M  V30 39 H 1.016521 5.661499 0.133604 0
M  V30 40 H 2.929662 2.239856 -1.543267 0
M  V30 41 H -0.181659 0.299185 -0.814364 0
M  V30 42 H -2.423792 2.379459 -2.707089 0
M  V30 43 H -1.027510 1.335271 -2.358626 0
M  V30 44 H -1.577477 2.482969 -1.071106 0
M  V30 45 H -5.186505 -2.984709 -0.307609 0
M  V30 46 H -6.421001 -1.716757 -0.209805 0
M  V30 47 H -5.405031 -2.036478 1.200838 0
M  V30 48 H -3.391486 -3.049737 0.934388 0
M  V30 END ATOM
M  V30 BEGIN BOND
M  V30 1 1 1 2
M  V30 2 1 2 3
M  V30 3 1 3 4
M  V30 4 2 4 5
M  V30 5 1 5 6
M  V30 6 2 6 7
M  V30 7 1 6 8
M  V30 8 1 8 9
M  V30 9 1 9 10
M  V30 10 2 10 11
M  V30 11 1 11 12
M  V30 12 2 12 13
M  V30 13 1 13 14
M  V30 14 2 14 15
M  V30 15 1 5 16
M  V30 16 2 16 17
M  V30 17 1 17 18
M  V30 18 1 18 19
M  V30 19 1 19 20
M  V30 20 2 18 21
M  V30 21 1 21 22
M  V30 22 1 22 23
M  V30 23 1 21 24
M  V30 24 2 24 25
M  V30 25 1 25 26
M  V30 26 2 26 27
M  V30 27 1 26 3
M  V30 28 1 15 10
M  V30 29 1 25 16
M  V30 30 1 1 28
M  V30 31 1 1 29
M  V30 32 1 1 30
M  V30 33 1 2 31
M  V30 34 1 2 32
M  V30 35 1 4 33
M  V30 36 1 8 34
M  V30 37 1 9 35
M  V30 38 1 9 36
M  V30 39 1 11 37
M  V30 40 1 12 38
M  V30 41 1 13 39
M  V30 42 1 15 40
M  V30 43 1 17 41
M  V30 44 1 20 42
M  V30 45 1 20 43
M  V30 46 1 20 44
M  V30 47 1 23 45
M  V30 48 1 23 46
M  V30 49 1 23 47
M  V30 50 1 24 48
M  V30 END BOND
M  V30 END CTAB
M  END
>  <Dataset>  (150) 
ChEMBL_Kinases

>  <Ligand_Instance>  (150) 
nan

>  <PDB_ID>  (150) 
nan

>  <Standardized_SMILES>  (150) 
CCn1cc(C(=O)NCc2cccnc2)c2cc(OC)c(OC)cc2c1=O

>  <Name>  (150) 
nan

>  <Pocket>  (150) 
nan

>  <ATP_Site>  (150) 
nan

>  <Peripheral>  (150) 
nan

>  <Num_H_Atoms_ProtBoundConf>  (150) 
nan

>  <Num_Resolved_Atoms>  (150) 
nan

>  <Num_Not_Resolved_Atoms>  (150) 
nan

$$$$
CHEMBL1358614
     RDKit          3D

  0  0  0  0  0  0  0  0  0  0999 V3000
M  V30 BEGIN CTAB
M  V30 COUNTS 36 38 0 0 0
M  V30 BEGIN ATOM
M  V30 1 C 0.994078 -2.164200 4.301809 0
M  V30 2 O 0.990582 -3.086161 3.252041 0
M  V30 3 C 1.181107 -2.794222 1.926503 0
M  V30 4 C 1.163879 -3.773579 0.929543 0
M  V30 5 C 1.355880 -3.468841 -0.393513 0
M  V30 6 C 1.570827 -2.170391 -0.753965 0
M  V30 7 C 1.598244 -1.150153 0.201885 0
M  V30 8 C 1.836684 0.196720 -0.304505 0
M  V30 9 C 2.851112 0.392711 -1.226939 0
M  V30 10 N 3.099925 1.624079 -1.717561 0
M  V30 11 C 2.377379 2.699833 -1.331975 0
M  V30 12 N 1.375816 2.533982 -0.427350 0
M  V30 13 C 1.109297 1.306888 0.077604 0
M  V30 14 N 0.054230 1.144621 1.029541 0
M  V30 15 C -1.208560 0.822701 0.443306 0
M  V30 16 C -1.342186 0.705361 -0.943104 0
M  V30 17 C -2.594303 0.387164 -1.479770 0
M  V30 18 C -3.698995 0.185743 -0.688260 0
M  V30 19 C -3.590269 0.297520 0.699940 0
M  V30 20 C -2.347159 0.610532 1.184968 0
M  V30 21 C 1.402069 -1.506799 1.501013 0
M  V30 22 H 1.781847 -1.384084 4.128767 0
M  V30 23 H 0.046110 -1.608521 4.439103 0
M  V30 24 H 1.191564 -2.674142 5.270342 0
M  V30 25 H 0.987131 -4.786684 1.286540 0
M  V30 26 H 1.319946 -4.301291 -1.050674 0
M  V30 27 H 1.723854 -1.936366 -1.818296 0
M  V30 28 H 3.489909 -0.377651 -1.607499 0
M  V30 29 H 2.508229 3.717747 -1.672691 0
M  V30 30 H 0.068432 1.226246 2.069296 0
M  V30 31 H -0.505387 0.854056 -1.604274 0
M  V30 32 H -2.660299 0.304680 -2.556611 0
M  V30 33 H -4.607322 -0.051857 -1.184630 0
M  V30 34 H -4.457089 0.139398 1.325321 0
M  V30 35 H -2.276268 0.693648 2.259006 0
M  V30 36 H 1.423372 -0.735560 2.230076 0
M  V30 END ATOM
M  V30 BEGIN BOND
M  V30 1 1 1 2
M  V30 2 1 2 3
M  V30 3 2 3 4
M  V30 4 1 4 5
M  V30 5 2 5 6
M  V30 6 1 6 7
M  V30 7 1 7 8
M  V30 8 2 8 9
M  V30 9 1 9 10
M  V30 10 2 10 11
M  V30 11 1 11 12
M  V30 12 2 12 13
M  V30 13 1 13 14
M  V30 14 1 14 15
M  V30 15 2 15 16
M  V30 16 1 16 17
M  V30 17 2 17 18
M  V30 18 1 18 19
M  V30 19 2 19 20
M  V30 20 2 7 21
M  V30 21 1 21 3
M  V30 22 1 13 8
M  V30 23 1 20 15
M  V30 24 1 1 22
M  V30 25 1 1 23
M  V30 26 1 1 24
M  V30 27 1 4 25
M  V30 28 1 5 26
M  V30 29 1 6 27
M  V30 30 1 9 28
M  V30 31 1 11 29
M  V30 32 1 14 30
M  V30 33 1 16 31
M  V30 34 1 17 32
M  V30 35 1 18 33
M  V30 36 1 19 34
M  V30 37 1 20 35
M  V30 38 1 21 36
M  V30 END BOND
M  V30 END CTAB
M  END
>  <Dataset>  (151) 
ChEMBL_Kinases

>  <Ligand_Instance>  (151) 
nan

>  <PDB_ID>  (151) 
nan

>  <Standardized_SMILES>  (151) 
COc1cccc(-c2cncnc2Nc2ccccc2)c1

>  <Name>  (151) 
nan

>  <Pocket>  (151) 
nan

>  <ATP_Site>  (151) 
nan

>  <Peripheral>  (151) 
nan

>  <Num_H_Atoms_ProtBoundConf>  (151) 
nan

>  <Num_Resolved_Atoms>  (151) 
nan

>  <Num_Not_Resolved_Atoms>  (151) 
nan

$$$$
CHEMBL1358562
     RDKit          3D

  0  0  0  0  0  0  0  0  0  0999 V3000
M  V30 BEGIN CTAB
M  V30 COUNTS 55 59 0 0 0
M  V30 BEGIN ATOM
M  V30 1 O 2.276729 -1.377499 1.532950 0
M  V30 2 C 2.702768 -0.529475 0.661824 0
M  V30 3 C 2.916112 -1.323415 -0.516948 0
M  V30 4 C 4.097784 -1.772246 -1.062951 0
M  V30 5 C 4.053889 -2.505128 -2.218112 0
M  V30 6 C 2.826535 -2.759777 -2.783105 0
M  V30 7 C 1.592818 -2.352156 -2.311632 0
M  V30 8 F 0.412671 -2.624278 -2.906508 0
M  V30 9 C 1.678475 -1.602407 -1.122980 0
M  V30 10 N 2.705068 0.712076 1.396237 0
M  V30 11 C 2.233558 0.579875 2.759620 0
M  V30 12 C 1.199781 1.622180 3.015654 0
M  V30 13 C 0.924353 2.425116 1.819064 0
M  V30 14 C 2.175061 3.152401 1.455977 0
M  V30 15 C 3.126624 2.046520 0.940172 0
M  V30 16 C -0.410418 3.149499 1.833772 0
M  V30 17 N -0.970579 1.864524 1.306122 0
M  V30 18 C -1.736427 0.674236 0.980469 0
M  V30 19 C -2.371195 0.516549 -0.259115 0
M  V30 20 C -3.006297 -0.684323 -0.509392 0
M  V30 21 C -2.950057 -1.615886 0.503930 0
M  V30 22 C -3.629064 -2.905638 0.225731 0
M  V30 23 C -4.763974 -3.077838 -0.526752 0
M  V30 24 C -5.236680 -4.361815 -0.705440 0
M  V30 25 C -4.597698 -5.453224 -0.151845 0
M  V30 26 C -3.443326 -5.270725 0.610697 0
M  V30 27 C -2.974503 -4.001392 0.790111 0
M  V30 28 C -2.324354 -1.462394 1.738311 0
M  V30 29 C -1.681129 -0.253695 1.994488 0
M  V30 30 C 0.315412 1.881206 0.571653 0
M  V30 31 H 4.983991 -1.503388 -0.520044 0
M  V30 32 H 4.978845 -2.858234 -2.656662 0
M  V30 33 H 2.811394 -3.339263 -3.693154 0
M  V30 34 H 0.704676 -1.279537 -0.752611 0
M  V30 35 H 3.088960 0.597737 3.488257 0
M  V30 36 H 1.732844 -0.403849 2.968706 0
M  V30 37 H 0.330189 1.278045 3.608802 0
M  V30 38 H 1.709755 2.341719 3.755775 0
M  V30 39 H 2.635809 3.639303 2.349186 0
M  V30 40 H 2.038912 3.876967 0.628574 0
M  V30 41 H 4.112067 2.241013 1.381038 0
M  V30 42 H 3.090057 2.017244 -0.164942 0
M  V30 43 H -0.506839 3.964906 1.108157 0
M  V30 44 H -0.744914 3.327958 2.862725 0
M  V30 45 H -2.340950 1.314649 -0.964682 0
M  V30 46 H -3.514685 -0.878837 -1.436036 0
M  V30 47 H -5.141683 -2.151797 -0.878384 0
M  V30 48 H -6.131688 -4.377249 -1.305613 0
M  V30 49 H -5.125534 -6.364730 -0.409070 0
M  V30 50 H -3.044006 -6.206251 0.990157 0
M  V30 51 H -2.079232 -4.028112 1.397701 0
M  V30 52 H -2.382481 -2.312102 2.426763 0
M  V30 53 H -1.251243 -0.266967 2.957543 0
M  V30 54 H 0.663939 1.010917 0.089742 0
M  V30 55 H 0.184961 2.728050 -0.186684 0
M  V30 END ATOM
M  V30 BEGIN BOND
M  V30 1 2 1 2
M  V30 2 1 2 3
M  V30 3 2 3 4
M  V30 4 1 4 5
M  V30 5 2 5 6
M  V30 6 1 6 7
M  V30 7 1 7 8
M  V30 8 2 7 9
M  V30 9 1 2 10
M  V30 10 1 10 11
M  V30 11 1 11 12
M  V30 12 1 12 13
M  V30 13 1 13 14
M  V30 14 1 14 15
M  V30 15 1 13 16
M  V30 16 1 16 17
M  V30 17 1 17 18
M  V30 18 2 18 19
M  V30 19 1 19 20
M  V30 20 2 20 21
M  V30 21 1 21 22
M  V30 22 2 22 23
M  V30 23 1 23 24
M  V30 24 2 24 25
M  V30 25 1 25 26
M  V30 26 2 26 27
M  V30 27 1 21 28
M  V30 28 2 28 29
M  V30 29 1 17 30
M  V30 30 1 9 3
M  V30 31 1 15 10
M  V30 32 1 29 18
M  V30 33 1 30 13
M  V30 34 1 27 22
M  V30 35 1 4 31
M  V30 36 1 5 32
M  V30 37 1 6 33
M  V30 38 1 9 34
M  V30 39 1 11 35
M  V30 40 1 11 36
M  V30 41 1 12 37
M  V30 42 1 12 38
M  V30 43 1 14 39
M  V30 44 1 14 40
M  V30 45 1 15 41
M  V30 46 1 15 42
M  V30 47 1 16 43
M  V30 48 1 16 44
M  V30 49 1 19 45
M  V30 50 1 20 46
M  V30 51 1 23 47
M  V30 52 1 24 48
M  V30 53 1 25 49
M  V30 54 1 26 50
M  V30 55 1 27 51
M  V30 56 1 28 52
M  V30 57 1 29 53
M  V30 58 1 30 54
M  V30 59 1 30 55
M  V30 END BOND
M  V30 END CTAB
M  END
>  <Dataset>  (152) 
ChEMBL_Kinases

>  <Ligand_Instance>  (152) 
nan

>  <PDB_ID>  (152) 
nan

>  <Standardized_SMILES>  (152) 
O=C(c1cccc(F)c1)N1CCC2(CC1)CN(c1ccc(-c3ccccc3)cc1)C2

>  <Name>  (152) 
nan

>  <Pocket>  (152) 
nan

>  <ATP_Site>  (152) 
nan

>  <Peripheral>  (152) 
nan

>  <Num_H_Atoms_ProtBoundConf>  (152) 
nan

>  <Num_Resolved_Atoms>  (152) 
nan

>  <Num_Not_Resolved_Atoms>  (152) 
nan

$$$$
CHEMBL1358244
     RDKit          3D

  0  0  0  0  0  0  0  0  0  0999 V3000
M  V30 BEGIN CTAB
M  V30 COUNTS 37 39 0 0 0
M  V30 BEGIN ATOM
M  V30 1 C -1.392416 -1.667616 3.411551 0
M  V30 2 N -1.189267 -2.761114 2.460144 0
M  V30 3 C -2.072354 -3.901167 2.436521 0
M  V30 4 C -0.106219 -2.718131 1.547039 0
M  V30 5 N 0.882898 -3.614099 1.595375 0
M  V30 6 C 1.943361 -3.621648 0.762528 0
M  V30 7 C 2.022928 -2.644898 -0.206537 0
M  V30 8 N 3.091510 -2.634708 -1.056905 0
M  V30 9 C 3.116405 -1.657024 -1.977238 0
M  V30 10 C 2.117892 -0.689529 -2.081738 0
M  V30 11 O 2.120944 0.233760 -2.933839 0
M  V30 12 N 1.074790 -0.747579 -1.207316 0
M  V30 13 C 0.021578 0.274599 -1.298448 0
M  V30 14 C 0.463826 1.390952 -0.384169 0 CFG=1
M  V30 15 C -0.537535 2.552108 -0.365638 0
M  V30 16 C 0.135310 3.363501 0.752506 0
M  V30 17 C 0.588043 2.225558 1.645175 0
M  V30 18 O 0.458343 1.047476 0.941262 0
M  V30 19 C 1.010670 -1.712285 -0.269978 0
M  V30 20 N -0.016855 -1.768196 0.595311 0
M  V30 21 H -0.493654 -1.057225 3.567448 0
M  V30 22 H -1.779956 -2.057684 4.360242 0
M  V30 23 H -2.211881 -1.025533 2.973525 0
M  V30 24 H -1.530515 -4.850427 2.650244 0
M  V30 25 H -2.858241 -3.836881 3.215835 0
M  V30 26 H -2.525228 -3.984973 1.447275 0
M  V30 27 H 2.725003 -4.370178 0.837600 0
M  V30 28 H 3.892510 -1.516354 -2.715487 0
M  V30 29 H -0.915544 -0.201033 -0.970829 0
M  V30 30 H -0.026231 0.595689 -2.351580 0
M  V30 31 H 1.455677 1.787060 -0.651937 0
M  V30 32 H -0.568908 3.066462 -1.314927 0
M  V30 33 H -1.490899 2.122207 -0.002033 0
M  V30 34 H -0.522216 4.088772 1.221516 0
M  V30 35 H 1.058677 3.804588 0.276916 0
M  V30 36 H 1.662016 2.323847 1.931411 0
M  V30 37 H -0.006815 2.205280 2.602143 0
M  V30 END ATOM
M  V30 BEGIN BOND
M  V30 1 1 1 2
M  V30 2 1 2 3
M  V30 3 1 2 4
M  V30 4 2 4 5
M  V30 5 1 5 6
M  V30 6 2 6 7
M  V30 7 1 7 8
M  V30 8 2 8 9
M  V30 9 1 9 10
M  V30 10 2 10 11
M  V30 11 1 10 12
M  V30 12 1 12 13
M  V30 13 1 13 14
M  V30 14 1 14 15
M  V30 15 1 15 16
M  V30 16 1 16 17
M  V30 17 1 17 18
M  V30 18 1 12 19
M  V30 19 2 19 20
M  V30 20 1 20 4
M  V30 21 1 19 7
M  V30 22 1 18 14
M  V30 23 1 1 21
M  V30 24 1 1 22
M  V30 25 1 1 23
M  V30 26 1 3 24
M  V30 27 1 3 25
M  V30 28 1 3 26
M  V30 29 1 6 27
M  V30 30 1 9 28
M  V30 31 1 13 29
M  V30 32 1 13 30
M  V30 33 1 14 31 CFG=3
M  V30 34 1 15 32
M  V30 35 1 15 33
M  V30 36 1 16 34
M  V30 37 1 16 35
M  V30 38 1 17 36
M  V30 39 1 17 37
M  V30 END BOND
M  V30 END CTAB
M  END
>  <Dataset>  (153) 
ChEMBL_Kinases

>  <Ligand_Instance>  (153) 
nan

>  <PDB_ID>  (153) 
nan

>  <Standardized_SMILES>  (153) 
CN(C)c1ncc2ncc(=O)n(C[C@H]3CCCO3)c2n1

>  <Name>  (153) 
nan

>  <Pocket>  (153) 
nan

>  <ATP_Site>  (153) 
nan

>  <Peripheral>  (153) 
nan

>  <Num_H_Atoms_ProtBoundConf>  (153) 
nan

>  <Num_Resolved_Atoms>  (153) 
nan

>  <Num_Not_Resolved_Atoms>  (153) 
nan

$$$$
CHEMBL1358234
     RDKit          3D

  0  0  0  0  0  0  0  0  0  0999 V3000
M  V30 BEGIN CTAB
M  V30 COUNTS 42 44 0 0 0
M  V30 BEGIN ATOM
M  V30 1 C -0.998899 -6.519634 2.058783 0
M  V30 2 O -0.117894 -6.369348 0.960949 0
M  V30 3 C 0.519465 -5.162924 0.719125 0
M  V30 4 C 1.362514 -5.149516 -0.396330 0
M  V30 5 C 2.002514 -3.929816 -0.635478 0
M  V30 6 C 1.884125 -2.761033 0.109011 0
M  V30 7 C 2.628492 -1.556904 -0.283507 0
M  V30 8 N 1.801430 -0.566365 -0.940364 0
M  V30 9 C 0.673028 0.260966 -0.735186 0
M  V30 10 C 0.805775 1.546123 -0.252641 0
M  V30 11 C -0.251131 2.403307 -0.031220 0
M  V30 12 C -0.095152 3.762503 0.476557 0
M  V30 13 C 1.130817 4.313057 0.786405 0
M  V30 14 C 1.108754 5.627965 1.257996 0
M  V30 15 C -0.031964 6.385176 1.427166 0
M  V30 16 N -1.222078 5.796075 1.106572 0
M  V30 17 C -1.242765 4.510926 0.641742 0
M  V30 18 N -1.454937 1.881100 -0.328106 0
M  V30 19 C -1.638743 0.635458 -0.800657 0
M  V30 20 N -0.571628 -0.176555 -1.004643 0
M  V30 21 C 1.028090 -2.839370 1.209488 0
M  V30 22 O 0.870464 -1.723748 1.980282 0
M  V30 23 C 0.023343 -1.711788 3.115104 0
M  V30 24 C 0.372992 -4.020916 1.488022 0
M  V30 25 H -1.616618 -5.602307 2.214861 0
M  V30 26 H -1.638425 -7.407552 1.857124 0
M  V30 27 H -0.406992 -6.699675 2.978883 0
M  V30 28 H 1.563152 -5.961100 -1.070497 0
M  V30 29 H 2.673994 -3.879259 -1.502546 0
M  V30 30 H 3.173490 -1.094774 0.584688 0
M  V30 31 H 3.434050 -1.856276 -0.983561 0
M  V30 32 H 1.997329 -0.261981 -1.921075 0
M  V30 33 H 1.807893 1.864380 -0.048097 0
M  V30 34 H 2.032532 3.750973 0.666726 0
M  V30 35 H 2.089980 6.054124 1.500640 0
M  V30 36 H 0.050227 7.397976 1.799388 0
M  V30 37 H -2.245879 4.163584 0.424963 0
M  V30 38 H -2.658380 0.279593 -1.019760 0
M  V30 39 H -0.929774 -2.215042 2.902632 0
M  V30 40 H 0.458622 -2.240810 3.989273 0
M  V30 41 H -0.223306 -0.653055 3.388658 0
M  V30 42 H -0.283616 -4.066086 2.340343 0
M  V30 END ATOM
M  V30 BEGIN BOND
M  V30 1 1 1 2
M  V30 2 1 2 3
M  V30 3 2 3 4
M  V30 4 1 4 5
M  V30 5 2 5 6
M  V30 6 1 6 7
M  V30 7 1 7 8
M  V30 8 1 8 9
M  V30 9 2 9 10
M  V30 10 1 10 11
M  V30 11 1 11 12
M  V30 12 2 12 13
M  V30 13 1 13 14
M  V30 14 2 14 15
M  V30 15 1 15 16
M  V30 16 2 16 17
M  V30 17 2 11 18
M  V30 18 1 18 19
M  V30 19 2 19 20
M  V30 20 1 6 21
M  V30 21 1 21 22
M  V30 22 1 22 23
M  V30 23 2 21 24
M  V30 24 1 24 3
M  V30 25 1 20 9
M  V30 26 1 17 12
M  V30 27 1 1 25
M  V30 28 1 1 26
M  V30 29 1 1 27
M  V30 30 1 4 28
M  V30 31 1 5 29
M  V30 32 1 7 30
M  V30 33 1 7 31
M  V30 34 1 8 32
M  V30 35 1 10 33
M  V30 36 1 13 34
M  V30 37 1 14 35
M  V30 38 1 15 36
M  V30 39 1 17 37
M  V30 40 1 19 38
M  V30 41 1 23 39
M  V30 42 1 23 40
M  V30 43 1 23 41
M  V30 44 1 24 42
M  V30 END BOND
M  V30 END CTAB
M  END
>  <Dataset>  (154) 
ChEMBL_Kinases

>  <Ligand_Instance>  (154) 
nan

>  <PDB_ID>  (154) 
nan

>  <Standardized_SMILES>  (154) 
COc1ccc(CNc2cc(-c3cccnc3)ncn2)c(OC)c1

>  <Name>  (154) 
nan

>  <Pocket>  (154) 
nan

>  <ATP_Site>  (154) 
nan

>  <Peripheral>  (154) 
nan

>  <Num_H_Atoms_ProtBoundConf>  (154) 
nan

>  <Num_Resolved_Atoms>  (154) 
nan

>  <Num_Not_Resolved_Atoms>  (154) 
nan

$$$$
CHEMBL1358007
     RDKit          3D

  0  0  0  0  0  0  0  0  0  0999 V3000
M  V30 BEGIN CTAB
M  V30 COUNTS 43 47 0 0 0
M  V30 BEGIN ATOM
M  V30 1 O 0.410507 -2.973791 1.010837 0 CHG=-1 VAL=1
M  V30 2 N 0.022714 -1.669937 1.222133 0 CHG=1 VAL=4
M  V30 3 C -0.158931 -0.801001 0.185432 0
M  V30 4 C 0.057812 -1.242404 -1.196733 0
M  V30 5 N 1.413216 -1.049435 -1.651676 0
M  V30 6 C 1.848416 0.302478 -1.631369 0
M  V30 7 C 1.375877 1.115016 -2.811047 0
M  V30 8 C 1.223533 0.309092 -4.068333 0
M  V30 9 C 2.142081 -0.881406 -3.984703 0
M  V30 10 C 1.727708 -1.776140 -2.837629 0
M  V30 11 N -0.544036 0.491997 0.403204 0
M  V30 12 C -0.742733 0.898838 1.660421 0
M  V30 13 C -1.133221 2.194351 1.949738 0
M  V30 14 C -1.312575 2.516035 3.284887 0
M  V30 15 C -1.115991 1.595366 4.319989 0
M  V30 16 C -0.723031 0.296163 4.008997 0
M  V30 17 C -0.557103 0.020028 2.679400 0
M  V30 18 C -0.169670 -1.289727 2.499632 0
M  V30 19 C -0.089235 -1.870954 3.822791 0
M  V30 20 C 0.252792 -3.150915 4.208172 0
M  V30 21 C 0.246087 -3.438707 5.576659 0
M  V30 22 C -0.096296 -2.453332 6.492291 0
M  V30 23 C -0.438746 -1.172178 6.108181 0
M  V30 24 C -0.430296 -0.894880 4.759104 0
M  V30 25 H -0.272790 -2.280824 -1.345375 0
M  V30 26 H -0.580021 -0.612479 -1.875282 0
M  V30 27 H 2.975387 0.279815 -1.701027 0
M  V30 28 H 1.594639 0.776454 -0.687175 0
M  V30 29 H 2.106506 1.936606 -2.972677 0
M  V30 30 H 0.397328 1.604952 -2.631120 0
M  V30 31 H 1.535575 0.942122 -4.933631 0
M  V30 32 H 0.183463 -0.062183 -4.172607 0
M  V30 33 H 2.072515 -1.471845 -4.921303 0
M  V30 34 H 3.200681 -0.551204 -3.892977 0
M  V30 35 H 2.591548 -2.449678 -2.606603 0
M  V30 36 H 0.914265 -2.470044 -3.186227 0
M  V30 37 H -1.289748 2.919274 1.161536 0
M  V30 38 H -1.622947 3.532741 3.571965 0
M  V30 39 H -1.255345 1.845577 5.356126 0
M  V30 40 H 0.510693 -3.877605 3.450013 0
M  V30 41 H 0.515604 -4.449479 5.889521 0
M  V30 42 H -0.103524 -2.672413 7.566530 0
M  V30 43 H -0.707741 -0.393725 6.808727 0
M  V30 END ATOM
M  V30 BEGIN BOND
M  V30 1 1 1 2
M  V30 2 2 2 3
M  V30 3 1 3 4
M  V30 4 1 4 5
M  V30 5 1 5 6
M  V30 6 1 6 7
M  V30 7 1 7 8
M  V30 8 1 8 9
M  V30 9 1 9 10
M  V30 10 1 3 11
M  V30 11 2 11 12
M  V30 12 1 12 13
M  V30 13 2 13 14
M  V30 14 1 14 15
M  V30 15 2 15 16
M  V30 16 1 16 17
M  V30 17 2 17 18
M  V30 18 1 18 19
M  V30 19 2 19 20
M  V30 20 1 20 21
M  V30 21 2 21 22
M  V30 22 1 22 23
M  V30 23 2 23 24
M  V30 24 1 18 2
M  V30 25 1 24 19
M  V30 26 1 10 5
M  V30 27 1 17 12
M  V30 28 1 24 16
M  V30 29 1 4 25
M  V30 30 1 4 26
M  V30 31 1 6 27
M  V30 32 1 6 28
M  V30 33 1 7 29
M  V30 34 1 7 30
M  V30 35 1 8 31
M  V30 36 1 8 32
M  V30 37 1 9 33
M  V30 38 1 9 34
M  V30 39 1 10 35
M  V30 40 1 10 36
M  V30 41 1 13 37
M  V30 42 1 14 38
M  V30 43 1 15 39
M  V30 44 1 20 40
M  V30 45 1 21 41
M  V30 46 1 22 42
M  V30 47 1 23 43
M  V30 END BOND
M  V30 END CTAB
M  END
>  <Dataset>  (155) 
ChEMBL_Kinases

>  <Ligand_Instance>  (155) 
nan

>  <PDB_ID>  (155) 
nan

>  <Standardized_SMILES>  (155) 
[O-][n+]1c(CN2CCCCC2)nc2cccc3c2c1-c1ccccc1-3

>  <Name>  (155) 
nan

>  <Pocket>  (155) 
nan

>  <ATP_Site>  (155) 
nan

>  <Peripheral>  (155) 
nan

>  <Num_H_Atoms_ProtBoundConf>  (155) 
nan

>  <Num_Resolved_Atoms>  (155) 
nan

>  <Num_Not_Resolved_Atoms>  (155) 
nan

$$$$
CHEMBL1357553
     RDKit          3D

  0  0  0  0  0  0  0  0  0  0999 V3000
M  V30 BEGIN CTAB
M  V30 COUNTS 40 43 0 0 0
M  V30 BEGIN ATOM
M  V30 1 C -0.210050 -3.815427 -0.340594 0
M  V30 2 C 1.099031 -3.786342 0.342682 0
M  V30 3 N 1.700529 -4.772536 1.037094 0
M  V30 4 O 2.833644 -4.346907 1.476024 0
M  V30 5 C 3.051263 -3.097888 1.116027 0
M  V30 6 C 4.205704 -2.211861 1.391302 0
M  V30 7 C 1.949803 -2.685112 0.374696 0
M  V30 8 C 1.670231 -1.400291 -0.262076 0
M  V30 9 C 2.083696 -1.217484 -1.566982 0
M  V30 10 C 1.887915 -0.058808 -2.290885 0
M  V30 11 C 1.227571 0.950550 -1.608997 0
M  V30 12 N 0.993379 2.105034 -2.223764 0
M  V30 13 C 0.353312 3.127625 -1.608986 0
M  V30 14 N -0.067473 2.993827 -0.337267 0
M  V30 15 C 0.148821 1.847927 0.316387 0
M  V30 16 N -0.322437 1.780316 1.655356 0
M  V30 17 C -1.568396 1.372949 2.188975 0
M  V30 18 C -2.550797 0.963408 1.315022 0
M  V30 19 C -3.764342 0.569640 1.870371 0
M  V30 20 C -3.908799 0.613533 3.260322 0
M  V30 21 F -5.070632 0.243233 3.886844 0
M  V30 22 C -2.883804 1.036812 4.114632 0
M  V30 23 C -1.663258 1.432807 3.555217 0
M  V30 24 C 0.794269 0.815320 -0.302189 0
M  V30 25 C 1.016430 -0.366260 0.375610 0
M  V30 26 H -0.730539 -2.849146 -0.297079 0
M  V30 27 H -0.126963 -4.152767 -1.402685 0
M  V30 28 H -0.864424 -4.538961 0.218089 0
M  V30 29 H 4.917465 -2.800527 2.016142 0
M  V30 30 H 4.745762 -1.877886 0.492708 0
M  V30 31 H 3.922380 -1.344270 2.056685 0
M  V30 32 H 2.604654 -2.045190 -2.070697 0
M  V30 33 H 2.235427 0.024852 -3.312070 0
M  V30 34 H 0.220224 4.019044 -2.211791 0
M  V30 35 H 0.499675 2.116431 2.191279 0
M  V30 36 H -2.420854 0.936280 0.245675 0
M  V30 37 H -4.602925 0.231761 1.294087 0
M  V30 38 H -3.035111 1.056364 5.185354 0
M  V30 39 H -0.855764 1.763641 4.187391 0
M  V30 40 H 0.688862 -0.482133 1.377917 0
M  V30 END ATOM
M  V30 BEGIN BOND
M  V30 1 1 1 2
M  V30 2 2 2 3
M  V30 3 1 3 4
M  V30 4 1 4 5
M  V30 5 1 5 6
M  V30 6 2 5 7
M  V30 7 1 7 8
M  V30 8 2 8 9
M  V30 9 1 9 10
M  V30 10 2 10 11
M  V30 11 1 11 12
M  V30 12 2 12 13
M  V30 13 1 13 14
M  V30 14 2 14 15
M  V30 15 1 15 16
M  V30 16 1 16 17
M  V30 17 2 17 18
M  V30 18 1 18 19
M  V30 19 2 19 20
M  V30 20 1 20 21
M  V30 21 1 20 22
M  V30 22 2 22 23
M  V30 23 1 15 24
M  V30 24 2 24 25
M  V30 25 1 7 2
M  V30 26 1 25 8
M  V30 27 1 24 11
M  V30 28 1 23 17
M  V30 29 1 1 26
M  V30 30 1 1 27
M  V30 31 1 1 28
M  V30 32 1 6 29
M  V30 33 1 6 30
M  V30 34 1 6 31
M  V30 35 1 9 32
M  V30 36 1 10 33
M  V30 37 1 13 34
M  V30 38 1 16 35
M  V30 39 1 18 36
M  V30 40 1 19 37
M  V30 41 1 22 38
M  V30 42 1 23 39
M  V30 43 1 25 40
M  V30 END BOND
M  V30 END CTAB
M  END
>  <Dataset>  (156) 
ChEMBL_Kinases

>  <Ligand_Instance>  (156) 
nan

>  <PDB_ID>  (156) 
nan

>  <Standardized_SMILES>  (156) 
Cc1noc(C)c1-c1ccc2ncnc(Nc3ccc(F)cc3)c2c1

>  <Name>  (156) 
nan

>  <Pocket>  (156) 
nan

>  <ATP_Site>  (156) 
nan

>  <Peripheral>  (156) 
nan

>  <Num_H_Atoms_ProtBoundConf>  (156) 
nan

>  <Num_Resolved_Atoms>  (156) 
nan

>  <Num_Not_Resolved_Atoms>  (156) 
nan

$$$$
CHEMBL1357491
     RDKit          3D

  0  0  0  0  0  0  0  0  0  0999 V3000
M  V30 BEGIN CTAB
M  V30 COUNTS 37 40 0 0 0
M  V30 BEGIN ATOM
M  V30 1 C -2.925716 -2.319147 2.090656 0
M  V30 2 N -1.626208 -2.672000 1.874507 0
M  V30 3 C -0.748260 -1.795506 1.345460 0
M  V30 4 N 0.562382 -2.346392 1.200336 0
M  V30 5 C 1.890326 -2.044865 1.734378 0
M  V30 6 C 2.874308 -2.357238 0.614771 0
M  V30 7 N 2.987011 -3.794556 0.457762 0
M  V30 8 C 1.698240 -4.406299 0.704486 0
M  V30 9 C 0.562041 -3.486329 0.294517 0
M  V30 10 C -1.195514 -0.530300 1.026739 0
M  V30 11 C -0.226205 0.290282 0.491779 0
M  V30 12 C -0.609513 1.582118 0.146269 0
M  V30 13 C 0.350934 2.523005 -0.427823 0
M  V30 14 C 0.252730 3.884517 -0.208626 0
M  V30 15 C 1.311426 4.449565 -0.893524 0
M  V30 16 O 2.010041 3.503796 -1.490683 0
M  V30 17 C 1.457924 2.324607 -1.230880 0
M  V30 18 C -1.926064 1.965218 0.356640 0
M  V30 19 C -2.871325 1.101856 0.899944 0
M  V30 20 C -2.508461 -0.192790 1.251727 0
M  V30 21 N -3.353512 -1.083206 1.777111 0
M  V30 22 H -3.646981 -2.999818 2.511561 0
M  V30 23 H 2.108707 -2.821204 2.519385 0
M  V30 24 H 1.996022 -1.032827 2.114724 0
M  V30 25 H 2.426057 -1.950038 -0.315053 0
M  V30 26 H 3.845563 -1.873050 0.772372 0
M  V30 27 H 3.684132 -4.232184 1.085735 0
M  V30 28 H 1.588094 -4.647166 1.781815 0
M  V30 29 H 1.614606 -5.395498 0.182692 0
M  V30 30 H 0.706588 -3.154883 -0.757859 0
M  V30 31 H -0.357105 -4.073305 0.305592 0
M  V30 32 H 0.778114 -0.008925 0.332350 0
M  V30 33 H -0.422445 4.511938 0.336863 0
M  V30 34 H 1.700363 5.447637 -1.058059 0
M  V30 35 H 1.769528 1.342283 -1.558940 0
M  V30 36 H -2.255465 2.956526 0.100853 0
M  V30 37 H -3.904716 1.377754 1.073394 0
M  V30 END ATOM
M  V30 BEGIN BOND
M  V30 1 2 1 2
M  V30 2 1 2 3
M  V30 3 1 3 4
M  V30 4 1 4 5
M  V30 5 1 5 6
M  V30 6 1 6 7
M  V30 7 1 7 8
M  V30 8 1 8 9
M  V30 9 2 3 10
M  V30 10 1 10 11
M  V30 11 2 11 12
M  V30 12 1 12 13
M  V30 13 1 13 14
M  V30 14 2 14 15
M  V30 15 1 15 16
M  V30 16 1 16 17
M  V30 17 1 12 18
M  V30 18 2 18 19
M  V30 19 1 19 20
M  V30 20 2 20 21
M  V30 21 1 21 1
M  V30 22 1 9 4
M  V30 23 1 20 10
M  V30 24 2 17 13
M  V30 25 1 1 22
M  V30 26 1 5 23
M  V30 27 1 5 24
M  V30 28 1 6 25
M  V30 29 1 6 26
M  V30 30 1 7 27
M  V30 31 1 8 28
M  V30 32 1 8 29
M  V30 33 1 9 30
M  V30 34 1 9 31
M  V30 35 1 11 32
M  V30 36 1 14 33
M  V30 37 1 15 34
M  V30 38 1 17 35
M  V30 39 1 18 36
M  V30 40 1 19 37
M  V30 END BOND
M  V30 END CTAB
M  END
>  <Dataset>  (157) 
ChEMBL_Kinases

>  <Ligand_Instance>  (157) 
nan

>  <PDB_ID>  (157) 
nan

>  <Standardized_SMILES>  (157) 
c1nc(N2CCNCC2)c2cc(-c3ccoc3)ccc2n1

>  <Name>  (157) 
nan

>  <Pocket>  (157) 
nan

>  <ATP_Site>  (157) 
nan

>  <Peripheral>  (157) 
nan

>  <Num_H_Atoms_ProtBoundConf>  (157) 
nan

>  <Num_Resolved_Atoms>  (157) 
nan

>  <Num_Not_Resolved_Atoms>  (157) 
nan

$$$$
CHEMBL1357294
     RDKit          3D

  0  0  0  0  0  0  0  0  0  0999 V3000
M  V30 BEGIN CTAB
M  V30 COUNTS 51 55 0 0 0
M  V30 BEGIN ATOM
M  V30 1 O 1.906110 -1.228582 -1.001617 0
M  V30 2 C 1.170317 -1.064737 0.012002 0
M  V30 3 C 1.657462 -1.213032 1.293785 0
M  V30 4 C 3.094881 -1.575595 1.418596 0
M  V30 5 C 3.873568 -0.313472 1.129958 0
M  V30 6 C 5.330974 -0.464253 1.204258 0
M  V30 7 C 5.928325 -0.829251 -0.009275 0
M  V30 8 C 7.296013 -1.000519 -0.063029 0
M  V30 9 C 8.013962 -0.802832 1.087715 0
M  V30 10 C 7.487714 -0.443647 2.310755 0
M  V30 11 C 6.110545 -0.278818 2.334064 0
M  V30 12 N 0.806547 -1.020794 2.325856 0
M  V30 13 C -0.489947 -0.691914 2.137198 0
M  V30 14 C -1.323941 -0.505030 3.221680 0
M  V30 15 N -2.615764 -0.175768 2.961185 0
M  V30 16 C -3.051653 -0.040577 1.695563 0
M  V30 17 N -4.384057 0.300742 1.328780 0
M  V30 18 C -4.858005 0.447978 -0.035008 0
M  V30 19 C -5.770361 -0.730228 -0.312933 0
M  V30 20 O -6.315375 -1.211456 0.874763 0
M  V30 21 C -6.665044 -0.176074 1.741252 0
M  V30 22 C -5.460006 0.549952 2.274116 0
M  V30 23 N -2.207686 -0.230833 0.650593 0
M  V30 24 C -0.912233 -0.559334 0.829210 0
M  V30 25 N -0.120073 -0.735965 -0.244765 0
M  V30 26 C -0.587996 -0.591186 -1.606289 0
M  V30 27 C -1.777270 -1.486268 -1.968320 0
M  V30 28 C -0.408818 -1.710560 -2.584787 0
M  V30 29 H 3.336153 -2.320593 0.654553 0
M  V30 30 H 3.301122 -1.963608 2.432121 0
M  V30 31 H 3.537782 0.063242 0.151112 0
M  V30 32 H 3.541038 0.443556 1.879338 0
M  V30 33 H 5.400933 -0.994866 -0.938123 0
M  V30 34 H 7.783147 -1.282214 -0.986767 0
M  V30 35 H 9.103721 -0.940696 1.039926 0
M  V30 36 H 8.089962 -0.297192 3.195028 0
M  V30 37 H 5.588256 0.002265 3.237847 0
M  V30 38 H -0.993078 -0.609379 4.243755 0
M  V30 39 H -4.028111 0.439854 -0.769655 0
M  V30 40 H -5.414692 1.392659 -0.192428 0
M  V30 41 H -5.145822 -1.521783 -0.782021 0
M  V30 42 H -6.564178 -0.494378 -1.054182 0
M  V30 43 H -7.202140 -0.636517 2.595341 0
M  V30 44 H -7.384480 0.488511 1.235340 0
M  V30 45 H -5.711702 1.629855 2.322283 0
M  V30 46 H -5.205870 0.160385 3.265558 0
M  V30 47 H -0.575602 0.439683 -2.017653 0
M  V30 48 H -2.144344 -2.194495 -1.208771 0
M  V30 49 H -2.555342 -1.036618 -2.650821 0
M  V30 50 H 0.063427 -2.657625 -2.272968 0
M  V30 51 H -0.300663 -1.454703 -3.659459 0
M  V30 END ATOM
M  V30 BEGIN BOND
M  V30 1 2 1 2
M  V30 2 1 2 3
M  V30 3 1 3 4
M  V30 4 1 4 5
M  V30 5 1 5 6
M  V30 6 2 6 7
M  V30 7 1 7 8
M  V30 8 2 8 9
M  V30 9 1 9 10
M  V30 10 2 10 11
M  V30 11 2 3 12
M  V30 12 1 12 13
M  V30 13 2 13 14
M  V30 14 1 14 15
M  V30 15 2 15 16
M  V30 16 1 16 17
M  V30 17 1 17 18
M  V30 18 1 18 19
M  V30 19 1 19 20
M  V30 20 1 20 21
M  V30 21 1 21 22
M  V30 22 1 16 23
M  V30 23 2 23 24
M  V30 24 1 24 25
M  V30 25 1 25 26
M  V30 26 1 26 27
M  V30 27 1 27 28
M  V30 28 1 25 2
M  V30 29 1 28 26
M  V30 30 1 11 6
M  V30 31 1 24 13
M  V30 32 1 22 17
M  V30 33 1 4 29
M  V30 34 1 4 30
M  V30 35 1 5 31
M  V30 36 1 5 32
M  V30 37 1 7 33
M  V30 38 1 8 34
M  V30 39 1 9 35
M  V30 40 1 10 36
M  V30 41 1 11 37
M  V30 42 1 14 38
M  V30 43 1 18 39
M  V30 44 1 18 40
M  V30 45 1 19 41
M  V30 46 1 19 42
M  V30 47 1 21 43
M  V30 48 1 21 44
M  V30 49 1 22 45
M  V30 50 1 22 46
M  V30 51 1 26 47
M  V30 52 1 27 48
M  V30 53 1 27 49
M  V30 54 1 28 50
M  V30 55 1 28 51
M  V30 END BOND
M  V30 END CTAB
M  END
>  <Dataset>  (158) 
ChEMBL_Kinases

>  <Ligand_Instance>  (158) 
nan

>  <PDB_ID>  (158) 
nan

>  <Standardized_SMILES>  (158) 
O=c1c(CCc2ccccc2)nc2cnc(N3CCOCC3)nc2n1C1CC1

>  <Name>  (158) 
nan

>  <Pocket>  (158) 
nan

>  <ATP_Site>  (158) 
nan

>  <Peripheral>  (158) 
nan

>  <Num_H_Atoms_ProtBoundConf>  (158) 
nan

>  <Num_Resolved_Atoms>  (158) 
nan

>  <Num_Not_Resolved_Atoms>  (158) 
nan

$$$$
CHEMBL1357293
     RDKit          3D

  0  0  0  0  0  0  0  0  0  0999 V3000
M  V30 BEGIN CTAB
M  V30 COUNTS 39 42 0 0 0
M  V30 BEGIN ATOM
M  V30 1 C 1.192679 -5.515752 3.449517 0
M  V30 2 O 2.421636 -4.849632 3.678418 0
M  V30 3 C 2.534230 -3.553981 3.186787 0
M  V30 4 C 3.730751 -2.881751 3.399803 0
M  V30 5 C 3.981189 -1.593325 2.967865 0
M  V30 6 C 2.932714 -0.975859 2.280271 0
M  V30 7 C 1.741004 -1.631345 2.062280 0
M  V30 8 C 0.652915 -0.976615 1.342918 0
M  V30 9 N 0.826021 0.266738 0.897709 0
M  V30 10 C -0.116547 0.951773 0.225220 0
M  V30 11 N 0.147936 2.252257 -0.199522 0
M  V30 12 C -0.211560 3.444593 -0.892896 0
M  V30 13 C -0.351254 3.313202 -2.405670 0
M  V30 14 C 0.710198 4.178811 -1.806929 0
M  V30 15 C -1.288693 0.252567 0.035042 0
M  V30 16 C -2.324212 0.872582 -0.629620 0
M  V30 17 C -3.555194 0.311652 -0.887722 0
M  V30 18 C -3.775735 -0.994561 -0.438939 0
M  V30 19 C -2.757029 -1.663739 0.240824 0
M  V30 20 C -1.552718 -1.031052 0.459282 0
M  V30 21 N -0.520365 -1.577189 1.109843 0
M  V30 22 C 1.521155 -2.913591 2.504234 0
M  V30 23 H 1.014770 -5.616374 2.349922 0
M  V30 24 H 0.372566 -4.842262 3.800916 0
M  V30 25 H 1.155942 -6.513284 3.884898 0
M  V30 26 H 4.543400 -3.379217 3.940588 0
M  V30 27 H 4.922713 -1.097601 3.149284 0
M  V30 28 H 3.049465 0.039627 1.906668 0
M  V30 29 H 1.079952 2.644926 0.135286 0
M  V30 30 H -0.982632 4.087055 -0.378659 0
M  V30 31 H 0.004378 2.364246 -2.858207 0
M  V30 32 H -1.250604 3.745426 -2.891768 0
M  V30 33 H 1.774424 3.882672 -1.906080 0
M  V30 34 H 0.552156 5.260691 -1.902371 0
M  V30 35 H -2.233597 1.880595 -0.988940 0
M  V30 36 H -4.346300 0.822463 -1.411329 0
M  V30 37 H -4.712595 -1.514022 -0.598005 0
M  V30 38 H -2.885497 -2.672879 0.604525 0
M  V30 39 H 0.589303 -3.418653 2.330667 0
M  V30 END ATOM
M  V30 BEGIN BOND
M  V30 1 1 1 2
M  V30 2 1 2 3
M  V30 3 2 3 4
M  V30 4 1 4 5
M  V30 5 2 5 6
M  V30 6 1 6 7
M  V30 7 1 7 8
M  V30 8 2 8 9
M  V30 9 1 9 10
M  V30 10 1 10 11
M  V30 11 1 11 12
M  V30 12 1 12 13
M  V30 13 1 13 14
M  V30 14 2 10 15
M  V30 15 1 15 16
M  V30 16 2 16 17
M  V30 17 1 17 18
M  V30 18 2 18 19
M  V30 19 1 19 20
M  V30 20 2 20 21
M  V30 21 2 7 22
M  V30 22 1 22 3
M  V30 23 1 21 8
M  V30 24 1 14 12
M  V30 25 1 20 15
M  V30 26 1 1 23
M  V30 27 1 1 24
M  V30 28 1 1 25
M  V30 29 1 4 26
M  V30 30 1 5 27
M  V30 31 1 6 28
M  V30 32 1 11 29
M  V30 33 1 12 30
M  V30 34 1 13 31
M  V30 35 1 13 32
M  V30 36 1 14 33
M  V30 37 1 14 34
M  V30 38 1 16 35
M  V30 39 1 17 36
M  V30 40 1 18 37
M  V30 41 1 19 38
M  V30 42 1 22 39
M  V30 END BOND
M  V30 END CTAB
M  END
>  <Dataset>  (159) 
ChEMBL_Kinases

>  <Ligand_Instance>  (159) 
nan

>  <PDB_ID>  (159) 
nan

>  <Standardized_SMILES>  (159) 
COc1cccc(-c2nc(NC3CC3)c3ccccc3n2)c1

>  <Name>  (159) 
nan

>  <Pocket>  (159) 
nan

>  <ATP_Site>  (159) 
nan

>  <Peripheral>  (159) 
nan

>  <Num_H_Atoms_ProtBoundConf>  (159) 
nan

>  <Num_Resolved_Atoms>  (159) 
nan

>  <Num_Not_Resolved_Atoms>  (159) 
nan

$$$$
CHEMBL1357199
     RDKit          3D

  0  0  0  0  0  0  0  0  0  0999 V3000
M  V30 BEGIN CTAB
M  V30 COUNTS 35 37 0 0 0
M  V30 BEGIN ATOM
M  V30 1 C 1.469433 -2.935415 4.765402 0
M  V30 2 N 1.148137 -2.253745 3.516245 0
M  V30 3 C 0.595911 -2.872084 2.358525 0
M  V30 4 N 0.375247 -4.202064 2.494384 0
M  V30 5 C -0.139993 -4.952583 1.510144 0
M  V30 6 N -0.449393 -4.356912 0.340844 0
M  V30 7 C -0.259015 -3.041802 0.130978 0
M  V30 8 C -0.556144 -2.377582 -1.042924 0
M  V30 9 C -0.328546 -1.011578 -1.179924 0
M  V30 10 C 0.209590 -0.298515 -0.112818 0
M  V30 11 C 0.431884 1.150951 -0.310476 0
M  V30 12 C 1.651951 1.625125 0.134354 0
M  V30 13 C 1.910351 2.989127 -0.029779 0
M  V30 14 C 0.958628 3.797756 -0.617726 0
M  V30 15 C -0.260128 3.322082 -1.061669 0
M  V30 16 C -0.515377 1.971714 -0.898925 0
M  V30 17 O -1.667544 1.326521 -1.278642 0
M  V30 18 C -2.786816 1.897459 -1.892391 0
M  V30 19 C 0.527531 -0.912912 1.090081 0
M  V30 20 C 0.270864 -2.265559 1.140742 0
M  V30 21 H 2.574184 -2.917296 4.862639 0
M  V30 22 H 1.153112 -4.011139 4.715734 0
M  V30 23 H 1.044240 -2.467626 5.651497 0
M  V30 24 H 1.407776 -1.260838 3.672507 0
M  V30 25 H -0.306636 -6.019833 1.647572 0
M  V30 26 H -0.973936 -2.982879 -1.842818 0
M  V30 27 H -0.589158 -0.584526 -2.123568 0
M  V30 28 H 2.414911 1.012709 0.598353 0
M  V30 29 H 2.849186 3.383514 0.306479 0
M  V30 30 H 1.146404 4.848788 -0.749231 0
M  V30 31 H -1.029174 3.925154 -1.526479 0
M  V30 32 H -2.614241 2.908228 -2.316527 0
M  V30 33 H -3.098909 1.182092 -2.692036 0
M  V30 34 H -3.607808 1.877889 -1.132457 0
M  V30 35 H 0.937639 -0.365674 1.901200 0
M  V30 END ATOM
M  V30 BEGIN BOND
M  V30 1 1 1 2
M  V30 2 1 2 3
M  V30 3 2 3 4
M  V30 4 1 4 5
M  V30 5 2 5 6
M  V30 6 1 6 7
M  V30 7 2 7 8
M  V30 8 1 8 9
M  V30 9 2 9 10
M  V30 10 1 10 11
M  V30 11 2 11 12
M  V30 12 1 12 13
M  V30 13 2 13 14
M  V30 14 1 14 15
M  V30 15 2 15 16
M  V30 16 1 16 17
M  V30 17 1 17 18
M  V30 18 1 10 19
M  V30 19 2 19 20
M  V30 20 1 20 3
M  V30 21 1 20 7
M  V30 22 1 16 11
M  V30 23 1 1 21
M  V30 24 1 1 22
M  V30 25 1 1 23
M  V30 26 1 2 24
M  V30 27 1 5 25
M  V30 28 1 8 26
M  V30 29 1 9 27
M  V30 30 1 12 28
M  V30 31 1 13 29
M  V30 32 1 14 30
M  V30 33 1 15 31
M  V30 34 1 18 32
M  V30 35 1 18 33
M  V30 36 1 18 34
M  V30 37 1 19 35
M  V30 END BOND
M  V30 END CTAB
M  END
>  <Dataset>  (160) 
ChEMBL_Kinases

>  <Ligand_Instance>  (160) 
nan

>  <PDB_ID>  (160) 
nan

>  <Standardized_SMILES>  (160) 
CNc1ncnc2ccc(-c3ccccc3OC)cc12

>  <Name>  (160) 
nan

>  <Pocket>  (160) 
nan

>  <ATP_Site>  (160) 
nan

>  <Peripheral>  (160) 
nan

>  <Num_H_Atoms_ProtBoundConf>  (160) 
nan

>  <Num_Resolved_Atoms>  (160) 
nan

>  <Num_Not_Resolved_Atoms>  (160) 
nan

$$$$
CHEMBL1357067
     RDKit          3D

  0  0  0  0  0  0  0  0  0  0999 V3000
M  V30 BEGIN CTAB
M  V30 COUNTS 39 42 0 0 0
M  V30 BEGIN ATOM
M  V30 1 C -0.747800 -7.083815 4.365071 0
M  V30 2 C -0.603369 -5.817965 3.598089 0
M  V30 3 C -1.610687 -4.868782 3.611393 0
M  V30 4 N -1.566062 -3.685027 2.941842 0
M  V30 5 C -0.462990 -3.421014 2.215952 0
M  V30 6 C -0.275021 -2.176677 1.437711 0
M  V30 7 N -0.766182 -2.284470 0.073684 0
M  V30 8 C -0.668336 -1.182333 -0.822439 0
M  V30 9 C -0.096214 -0.019719 -0.354516 0
M  V30 10 C -0.035387 1.004116 -1.277540 0
M  V30 11 C 0.538303 2.305064 -0.954427 0
M  V30 12 C 0.563119 3.278719 -1.931789 0
M  V30 13 C 1.089882 4.559280 -1.728116 0
M  V30 14 C 1.602080 4.836514 -0.484110 0
M  V30 15 C 1.601549 3.898031 0.528444 0
M  V30 16 C 1.068611 2.650388 0.270585 0
M  V30 17 O 2.183400 4.481956 1.650948 0
M  V30 18 C 2.890879 5.641963 1.230113 0
M  V30 19 O 2.189887 5.988594 0.042380 0
M  V30 20 N -0.506339 0.848385 -2.528582 0
M  V30 21 C -1.063119 -0.331469 -2.931637 0
M  V30 22 N -1.144965 -1.358983 -2.067987 0
M  V30 23 C 0.561515 -4.358431 2.187163 0
M  V30 24 N 0.506657 -5.539760 2.860788 0
M  V30 25 H -1.104492 -6.878113 5.389443 0
M  V30 26 H -1.564166 -7.652136 3.847017 0
M  V30 27 H 0.185421 -7.644221 4.323989 0
M  V30 28 H -2.492150 -5.100785 4.202925 0
M  V30 29 H -0.769791 -1.321909 1.928986 0
M  V30 30 H 0.799324 -1.905642 1.367006 0
M  V30 31 H -1.183662 -3.202439 -0.192681 0
M  V30 32 H 0.273095 0.097062 0.632296 0
M  V30 33 H 0.171148 3.124225 -2.946114 0
M  V30 34 H 1.096473 5.295291 -2.503621 0
M  V30 35 H 1.066502 1.927141 1.045767 0
M  V30 36 H 2.836386 6.435161 1.989625 0
M  V30 37 H 3.972701 5.441571 1.046929 0
M  V30 38 H -1.424559 -0.397077 -3.950019 0
M  V30 39 H 1.475324 -4.223498 1.631544 0
M  V30 END ATOM
M  V30 BEGIN BOND
M  V30 1 1 1 2
M  V30 2 2 2 3
M  V30 3 1 3 4
M  V30 4 2 4 5
M  V30 5 1 5 6
M  V30 6 1 6 7
M  V30 7 1 7 8
M  V30 8 2 8 9
M  V30 9 1 9 10
M  V30 10 1 10 11
M  V30 11 2 11 12
M  V30 12 1 12 13
M  V30 13 2 13 14
M  V30 14 1 14 15
M  V30 15 2 15 16
M  V30 16 1 15 17
M  V30 17 1 17 18
M  V30 18 1 18 19
M  V30 19 2 10 20
M  V30 20 1 20 21
M  V30 21 2 21 22
M  V30 22 1 5 23
M  V30 23 2 23 24
M  V30 24 1 24 2
M  V30 25 1 22 8
M  V30 26 1 16 11
M  V30 27 1 19 14
M  V30 28 1 1 25
M  V30 29 1 1 26
M  V30 30 1 1 27
M  V30 31 1 3 28
M  V30 32 1 6 29
M  V30 33 1 6 30
M  V30 34 1 7 31
M  V30 35 1 9 32
M  V30 36 1 12 33
M  V30 37 1 13 34
M  V30 38 1 16 35
M  V30 39 1 18 36
M  V30 40 1 18 37
M  V30 41 1 21 38
M  V30 42 1 23 39
M  V30 END BOND
M  V30 END CTAB
M  END
>  <Dataset>  (161) 
ChEMBL_Kinases

>  <Ligand_Instance>  (161) 
nan

>  <PDB_ID>  (161) 
nan

>  <Standardized_SMILES>  (161) 
Cc1cnc(CNc2cc(-c3ccc4c(c3)OCO4)ncn2)cn1

>  <Name>  (161) 
nan

>  <Pocket>  (161) 
nan

>  <ATP_Site>  (161) 
nan

>  <Peripheral>  (161) 
nan

>  <Num_H_Atoms_ProtBoundConf>  (161) 
nan

>  <Num_Resolved_Atoms>  (161) 
nan

>  <Num_Not_Resolved_Atoms>  (161) 
nan

$$$$
CHEMBL1359715
     RDKit          3D

  0  0  0  0  0  0  0  0  0  0999 V3000
M  V30 BEGIN CTAB
M  V30 COUNTS 40 42 0 0 0
M  V30 BEGIN ATOM
M  V30 1 C -4.271247 -4.714234 1.323102 0
M  V30 2 O -3.109814 -4.730001 0.484651 0
M  V30 3 C -1.941669 -4.097007 0.865089 0
M  V30 4 C -0.816233 -4.104573 0.067548 0
M  V30 5 C 0.328801 -3.457917 0.489211 0
M  V30 6 C 0.422265 -2.774319 1.712307 0
M  V30 7 C 1.742719 -2.198429 1.918897 0
M  V30 8 C 2.004316 -0.864036 1.309867 0
M  V30 9 C 1.161018 0.248297 1.760896 0
M  V30 10 O 0.465180 0.030436 2.782800 0
M  V30 11 N 1.021669 1.560070 1.193952 0
M  V30 12 C 0.187265 2.631763 1.684570 0
M  V30 13 C -0.146204 3.455925 0.475506 0
M  V30 14 C 1.008671 3.239038 -0.431555 0
M  V30 15 C 1.461722 3.923160 -1.539685 0
M  V30 16 C 2.586398 3.513948 -2.229502 0
M  V30 17 C 3.251142 2.396142 -1.780482 0
M  V30 18 C 2.763022 1.743379 -0.669031 0
M  V30 19 C 1.648036 2.116368 0.046717 0
M  V30 20 C -0.735852 -2.808732 2.454918 0
M  V30 21 C -1.882480 -3.439975 2.062738 0
M  V30 22 H -4.997803 -5.474697 1.022626 0
M  V30 23 H -3.883174 -4.988544 2.344072 0
M  V30 24 H -4.728285 -3.725658 1.413167 0
M  V30 25 H -0.911201 -4.631766 -0.859698 0
M  V30 26 H 1.128656 -3.547914 -0.236764 0
M  V30 27 H 2.549422 -2.909204 1.568840 0
M  V30 28 H 1.997150 -2.097836 3.022414 0
M  V30 29 H 1.928440 -0.978620 0.186607 0
M  V30 30 H 3.103302 -0.608257 1.445291 0
M  V30 31 H 0.872890 3.274202 2.308298 0
M  V30 32 H -0.687521 2.297222 2.269838 0
M  V30 33 H -1.113920 3.218489 0.015552 0
M  V30 34 H -0.155671 4.545890 0.705861 0
M  V30 35 H 0.919240 4.801978 -1.873318 0
M  V30 36 H 2.937146 4.052032 -3.095947 0
M  V30 37 H 4.134976 2.052188 -2.300848 0
M  V30 38 H 3.328211 0.876196 -0.368163 0
M  V30 39 H -0.659793 -2.298679 3.395466 0
M  V30 40 H -2.707312 -3.374769 2.760022 0
M  V30 END ATOM
M  V30 BEGIN BOND
M  V30 1 1 1 2
M  V30 2 1 2 3
M  V30 3 2 3 4
M  V30 4 1 4 5
M  V30 5 2 5 6
M  V30 6 1 6 7
M  V30 7 1 7 8
M  V30 8 1 8 9
M  V30 9 2 9 10
M  V30 10 1 9 11
M  V30 11 1 11 12
M  V30 12 1 12 13
M  V30 13 1 13 14
M  V30 14 2 14 15
M  V30 15 1 15 16
M  V30 16 2 16 17
M  V30 17 1 17 18
M  V30 18 2 18 19
M  V30 19 1 6 20
M  V30 20 2 20 21
M  V30 21 1 21 3
M  V30 22 1 19 11
M  V30 23 1 19 14
M  V30 24 1 1 22
M  V30 25 1 1 23
M  V30 26 1 1 24
M  V30 27 1 4 25
M  V30 28 1 5 26
M  V30 29 1 7 27
M  V30 30 1 7 28
M  V30 31 1 8 29
M  V30 32 1 8 30
M  V30 33 1 12 31
M  V30 34 1 12 32
M  V30 35 1 13 33
M  V30 36 1 13 34
M  V30 37 1 15 35
M  V30 38 1 16 36
M  V30 39 1 17 37
M  V30 40 1 18 38
M  V30 41 1 20 39
M  V30 42 1 21 40
M  V30 END BOND
M  V30 END CTAB
M  END
>  <Dataset>  (162) 
ChEMBL_Kinases

>  <Ligand_Instance>  (162) 
nan

>  <PDB_ID>  (162) 
nan

>  <Standardized_SMILES>  (162) 
COc1ccc(CCC(=O)N2CCc3ccccc32)cc1

>  <Name>  (162) 
nan

>  <Pocket>  (162) 
nan

>  <ATP_Site>  (162) 
nan

>  <Peripheral>  (162) 
nan

>  <Num_H_Atoms_ProtBoundConf>  (162) 
nan

>  <Num_Resolved_Atoms>  (162) 
nan

>  <Num_Not_Resolved_Atoms>  (162) 
nan

$$$$
CHEMBL1364131
     RDKit          3D

  0  0  0  0  0  0  0  0  0  0999 V3000
M  V30 BEGIN CTAB
M  V30 COUNTS 32 35 0 0 0
M  V30 BEGIN ATOM
M  V30 1 F 1.994062 -3.223060 4.615680 0
M  V30 2 C 1.902001 -2.248302 3.661277 0
M  V30 3 C 1.958655 -0.931819 4.051255 0
M  V30 4 C 1.872695 0.114062 3.164666 0
M  V30 5 C 1.720207 -0.197390 1.816047 0
M  V30 6 C 1.658739 -1.514370 1.383928 0
M  V30 7 N 1.485540 -1.889154 -0.000934 0
M  V30 8 C 1.309543 -0.747652 -0.797276 0
M  V30 9 N 2.435765 -0.326480 -1.375723 0
M  V30 10 C 2.535816 0.744569 -2.172957 0
M  V30 11 N 1.386436 1.412816 -2.373572 0
M  V30 12 C 0.252130 0.994951 -1.794477 0
M  V30 13 S -1.360371 1.674893 -1.877858 0
M  V30 14 C -2.147095 0.484100 -0.825951 0
M  V30 15 C -1.131209 -0.365861 -0.470314 0
M  V30 16 C 0.108010 -0.078251 -0.986428 0
M  V30 17 C -1.813956 -1.352555 0.416353 0
M  V30 18 C -3.005773 -0.612689 0.992717 0
M  V30 19 C -3.467081 0.125107 -0.241886 0
M  V30 20 C 1.752995 -2.546369 2.332626 0
M  V30 21 H 2.073420 -0.595389 5.091758 0
M  V30 22 H 1.909024 1.183616 3.414966 0
M  V30 23 H 1.652718 0.601174 1.101500 0
M  V30 24 H 1.509883 -2.892988 -0.265297 0
M  V30 25 H 3.397824 1.149627 -2.672659 0
M  V30 26 H -2.166310 -2.216947 -0.189604 0
M  V30 27 H -1.189131 -1.701798 1.239231 0
M  V30 28 H -2.731757 0.089836 1.775922 0
M  V30 29 H -3.789842 -1.335419 1.277415 0
M  V30 30 H -4.054538 -0.585953 -0.842066 0
M  V30 31 H -4.066895 1.007562 -0.043003 0
M  V30 32 H 1.706381 -3.564163 2.002039 0
M  V30 END ATOM
M  V30 BEGIN BOND
M  V30 1 1 1 2
M  V30 2 2 2 3
M  V30 3 1 3 4
M  V30 4 2 4 5
M  V30 5 1 5 6
M  V30 6 1 6 7
M  V30 7 1 7 8
M  V30 8 2 8 9
M  V30 9 1 9 10
M  V30 10 2 10 11
M  V30 11 1 11 12
M  V30 12 1 12 13
M  V30 13 1 13 14
M  V30 14 2 14 15
M  V30 15 1 15 16
M  V30 16 1 15 17
M  V30 17 1 17 18
M  V30 18 1 18 19
M  V30 19 2 6 20
M  V30 20 1 20 2
M  V30 21 1 16 8
M  V30 22 2 16 12
M  V30 23 1 19 14
M  V30 24 1 3 21
M  V30 25 1 4 22
M  V30 26 1 5 23
M  V30 27 1 7 24
M  V30 28 1 10 25
M  V30 29 1 17 26
M  V30 30 1 17 27
M  V30 31 1 18 28
M  V30 32 1 18 29
M  V30 33 1 19 30
M  V30 34 1 19 31
M  V30 35 1 20 32
M  V30 END BOND
M  V30 END CTAB
M  END
>  <Dataset>  (163) 
ChEMBL_Kinases

>  <Ligand_Instance>  (163) 
nan

>  <PDB_ID>  (163) 
nan

>  <Standardized_SMILES>  (163) 
Fc1cccc(Nc2ncnc3sc4c(c23)CCC4)c1

>  <Name>  (163) 
nan

>  <Pocket>  (163) 
nan

>  <ATP_Site>  (163) 
nan

>  <Peripheral>  (163) 
nan

>  <Num_H_Atoms_ProtBoundConf>  (163) 
nan

>  <Num_Resolved_Atoms>  (163) 
nan

>  <Num_Not_Resolved_Atoms>  (163) 
nan

$$$$
CHEMBL1364121
     RDKit          3D

  0  0  0  0  0  0  0  0  0  0999 V3000
M  V30 BEGIN CTAB
M  V30 COUNTS 24 23 0 0 0
M  V30 BEGIN ATOM
M  V30 1 C 1.949186 1.160828 -0.829743 0
M  V30 2 C 1.369224 1.315704 0.534986 0
M  V30 3 N 0.411255 0.306970 0.926062 0
M  V30 4 C 1.065125 -0.978716 1.119469 0
M  V30 5 C 1.802985 -0.941075 2.431481 0
M  V30 6 O 2.466743 -2.165488 2.656736 0
M  V30 7 C -0.795641 0.260479 0.199853 0
M  V30 8 C -1.923680 -0.423556 0.935673 0
M  V30 9 O -1.652755 -1.721654 1.259556 0
M  V30 10 H 2.947176 0.683461 -0.869526 0
M  V30 11 H 1.222365 0.705258 -1.529644 0
M  V30 12 H 2.100999 2.209717 -1.233555 0
M  V30 13 H 2.196189 1.296236 1.268025 0
M  V30 14 H 0.854576 2.297319 0.645347 0
M  V30 15 H 0.462797 -1.860041 1.043023 0
M  V30 16 H 1.882279 -1.104345 0.326621 0
M  V30 17 H 2.506963 -0.126923 2.497067 0
M  V30 18 H 1.020756 -0.802537 3.243864 0
M  V30 19 H 1.895565 -2.944229 2.446732 0
M  V30 20 H -0.715119 -0.245464 -0.792177 0
M  V30 21 H -1.144267 1.300515 0.022073 0
M  V30 22 H -2.185503 0.154195 1.862509 0
M  V30 23 H -2.865970 -0.362231 0.305972 0
M  V30 24 H -2.019110 -2.422676 0.683608 0
M  V30 END ATOM
M  V30 BEGIN BOND
M  V30 1 1 1 2
M  V30 2 1 2 3
M  V30 3 1 3 4
M  V30 4 1 4 5
M  V30 5 1 5 6
M  V30 6 1 3 7
M  V30 7 1 7 8
M  V30 8 1 8 9
M  V30 9 1 1 10
M  V30 10 1 1 11
M  V30 11 1 1 12
M  V30 12 1 2 13
M  V30 13 1 2 14
M  V30 14 1 4 15
M  V30 15 1 4 16
M  V30 16 1 5 17
M  V30 17 1 5 18
M  V30 18 1 6 19
M  V30 19 1 7 20
M  V30 20 1 7 21
M  V30 21 1 8 22
M  V30 22 1 8 23
M  V30 23 1 9 24
M  V30 END BOND
M  V30 END CTAB
M  END
>  <Dataset>  (164) 
ChEMBL_Kinases

>  <Ligand_Instance>  (164) 
nan

>  <PDB_ID>  (164) 
nan

>  <Standardized_SMILES>  (164) 
CCN(CCO)CCO

>  <Name>  (164) 
nan

>  <Pocket>  (164) 
nan

>  <ATP_Site>  (164) 
nan

>  <Peripheral>  (164) 
nan

>  <Num_H_Atoms_ProtBoundConf>  (164) 
nan

>  <Num_Resolved_Atoms>  (164) 
nan

>  <Num_Not_Resolved_Atoms>  (164) 
nan

$$$$
CHEMBL1364081
     RDKit          3D

  0  0  0  0  0  0  0  0  0  0999 V3000
M  V30 BEGIN CTAB
M  V30 COUNTS 53 55 0 0 0
M  V30 BEGIN ATOM
M  V30 1 C -3.802559 2.897780 -5.602246 0
M  V30 2 C -3.941180 1.588510 -4.832898 0
M  V30 3 C -5.271509 1.630957 -4.126632 0
M  V30 4 C -5.595228 0.427518 -3.313614 0
M  V30 5 C -4.637194 0.105787 -2.219645 0
M  V30 6 C -4.451707 1.195631 -1.191640 0
M  V30 7 C -3.460030 0.635711 -0.202964 0
M  V30 8 O -3.832364 -0.479119 0.303566 0
M  V30 9 O -2.276962 1.279374 0.105552 0
M  V30 10 C -1.328511 0.814399 1.002904 0
M  V30 11 C -1.407769 1.348567 2.284006 0
M  V30 12 C -0.486382 0.923554 3.227161 0
M  V30 13 C 0.468504 -0.017729 2.832471 0
M  V30 14 C 0.560803 -0.556542 1.568197 0
M  V30 15 N 1.552030 -1.510553 1.221954 0
M  V30 16 C 2.600285 -2.083268 1.992101 0
M  V30 17 O 2.759890 -1.913971 3.226910 0
M  V30 18 C 3.501009 -2.918361 1.155609 0
M  V30 19 C 4.957748 -2.596492 1.395377 0
M  V30 20 C 5.772022 -2.578531 0.136027 0
M  V30 21 C 5.339005 -1.480304 -0.795550 0
M  V30 22 C 3.866001 -1.219466 -0.555801 0
M  V30 23 C 3.119658 -2.496501 -0.240840 0
M  V30 24 C 1.695536 -2.121884 -0.054199 0
M  V30 25 O 0.817974 -2.342449 -0.928741 0
M  V30 26 C -0.357231 -0.114843 0.679220 0
M  V30 27 H -3.129803 3.607470 -5.067803 0
M  V30 28 H -3.424280 2.727614 -6.638556 0
M  V30 29 H -4.777212 3.412636 -5.667225 0
M  V30 30 H -3.898192 0.788060 -5.598146 0
M  V30 31 H -3.100262 1.444381 -4.123954 0
M  V30 32 H -6.040860 1.656568 -4.954560 0
M  V30 33 H -5.362353 2.577655 -3.561155 0
M  V30 34 H -5.554593 -0.450945 -4.026559 0
M  V30 35 H -6.648664 0.494393 -3.012828 0
M  V30 36 H -4.909404 -0.853494 -1.763414 0
M  V30 37 H -3.642591 -0.030663 -2.699347 0
M  V30 38 H -4.003565 2.099084 -1.613314 0
M  V30 39 H -5.410657 1.351130 -0.679746 0
M  V30 40 H -2.144345 2.079208 2.587211 0
M  V30 41 H -0.524001 1.323169 4.232615 0
M  V30 42 H 1.139456 -0.291875 3.622234 0
M  V30 43 H 3.281868 -4.004260 1.257751 0
M  V30 44 H 5.081678 -1.660417 2.001359 0
M  V30 45 H 5.357953 -3.402204 2.046263 0
M  V30 46 H 6.827564 -2.412983 0.444156 0
M  V30 47 H 5.605960 -3.538858 -0.377167 0
M  V30 48 H 5.435962 -1.775287 -1.844017 0
M  V30 49 H 5.967286 -0.593908 -0.589809 0
M  V30 50 H 3.800826 -0.609042 0.376490 0
M  V30 51 H 3.385622 -0.620040 -1.355839 0
M  V30 52 H 3.271425 -3.295834 -0.987342 0
M  V30 53 H -0.403881 -0.443873 -0.343173 0
M  V30 END ATOM
M  V30 BEGIN BOND
M  V30 1 1 1 2
M  V30 2 1 2 3
M  V30 3 1 3 4
M  V30 4 1 4 5
M  V30 5 1 5 6
M  V30 6 1 6 7
M  V30 7 2 7 8
M  V30 8 1 7 9
M  V30 9 1 9 10
M  V30 10 2 10 11
M  V30 11 1 11 12
M  V30 12 2 12 13
M  V30 13 1 13 14
M  V30 14 1 14 15
M  V30 15 1 15 16
M  V30 16 2 16 17
M  V30 17 1 16 18
M  V30 18 1 18 19
M  V30 19 1 19 20
M  V30 20 1 20 21
M  V30 21 1 21 22
M  V30 22 1 22 23
M  V30 23 1 23 24
M  V30 24 2 24 25
M  V30 25 2 14 26
M  V30 26 1 26 10
M  V30 27 1 24 15
M  V30 28 1 23 18
M  V30 29 1 1 27
M  V30 30 1 1 28
M  V30 31 1 1 29
M  V30 32 1 2 30
M  V30 33 1 2 31
M  V30 34 1 3 32
M  V30 35 1 3 33
M  V30 36 1 4 34
M  V30 37 1 4 35
M  V30 38 1 5 36
M  V30 39 1 5 37
M  V30 40 1 6 38
M  V30 41 1 6 39
M  V30 42 1 11 40
M  V30 43 1 12 41
M  V30 44 1 13 42
M  V30 45 1 18 43
M  V30 46 1 19 44
M  V30 47 1 19 45
M  V30 48 1 20 46
M  V30 49 1 20 47
M  V30 50 1 21 48
M  V30 51 1 21 49
M  V30 52 1 22 50
M  V30 53 1 22 51
M  V30 54 1 23 52
M  V30 55 1 26 53
M  V30 END BOND
M  V30 END CTAB
M  END
>  <Dataset>  (165) 
ChEMBL_Kinases

>  <Ligand_Instance>  (165) 
nan

>  <PDB_ID>  (165) 
nan

>  <Standardized_SMILES>  (165) 
CCCCCCC(=O)Oc1cccc(N2C(=O)C3CCCCC3C2=O)c1

>  <Name>  (165) 
nan

>  <Pocket>  (165) 
nan

>  <ATP_Site>  (165) 
nan

>  <Peripheral>  (165) 
nan

>  <Num_H_Atoms_ProtBoundConf>  (165) 
nan

>  <Num_Resolved_Atoms>  (165) 
nan

>  <Num_Not_Resolved_Atoms>  (165) 
nan

$$$$
CHEMBL1364051
     RDKit          3D

  0  0  0  0  0  0  0  0  0  0999 V3000
M  V30 BEGIN CTAB
M  V30 COUNTS 51 53 0 0 0
M  V30 BEGIN ATOM
M  V30 1 C 5.170157 0.194899 8.129321 0
M  V30 2 C 3.681021 0.291045 7.986048 0
M  V30 3 O 3.225649 0.266741 6.678446 0
M  V30 4 C 3.496507 1.128823 5.653672 0
M  V30 5 O 4.271970 2.054649 5.998104 0
M  V30 6 C 2.861148 0.839590 4.370150 0
M  V30 7 C 2.016663 -0.226579 4.148604 0
M  V30 8 C 1.499143 -0.353250 2.869586 0
M  V30 9 C 1.815296 0.552434 1.851255 0
M  V30 10 N 1.144259 0.202019 0.617903 0
M  V30 11 C -0.092939 0.875506 0.613596 0
M  V30 12 O -0.314608 1.593637 1.640304 0
M  V30 13 C -1.126529 0.844413 -0.412215 0
M  V30 14 C -2.250515 1.616610 -0.195148 0
M  V30 15 C -3.264844 1.616499 -1.153437 0
M  V30 16 C -3.152563 0.862022 -2.297257 0
M  V30 17 C -2.012756 0.101252 -2.480460 0
M  V30 18 S -1.944039 -0.835803 -3.967005 0
M  V30 19 O -0.512148 -1.043311 -4.396261 0
M  V30 20 O -2.665102 -0.103329 -5.035986 0
M  V30 21 N -2.706708 -2.339783 -3.650548 0
M  V30 22 C -1.995114 -3.025498 -2.629310 0
M  V30 23 C -2.317503 -4.499691 -2.555887 0
M  V30 24 O -2.445741 -5.113379 -3.782047 0
M  V30 25 C -3.467086 -4.498872 -4.505336 0
M  V30 26 C -2.974018 -3.102133 -4.824209 0
M  V30 27 C -0.973946 0.061530 -1.564880 0
M  V30 28 C 2.669600 1.615375 2.106602 0
M  V30 29 C 3.190135 1.751914 3.375762 0
M  V30 30 H 5.466473 -0.876092 8.133146 0
M  V30 31 H 5.498432 0.629350 9.097118 0
M  V30 32 H 5.641811 0.674110 7.256873 0
M  V30 33 H 3.253285 -0.634520 8.477879 0
M  V30 34 H 3.279418 1.121947 8.598158 0
M  V30 35 H 1.804185 -0.898176 4.969670 0
M  V30 36 H 0.835136 -1.220958 2.759895 0
M  V30 37 H 1.344077 -0.393661 -0.218506 0
M  V30 38 H -2.406450 2.229287 0.671724 0
M  V30 39 H -4.161714 2.233234 -0.978307 0
M  V30 40 H -3.976782 0.911299 -2.993033 0
M  V30 41 H -0.893772 -2.954511 -2.858805 0
M  V30 42 H -2.229620 -2.558377 -1.653401 0
M  V30 43 H -3.212298 -4.649935 -1.902695 0
M  V30 44 H -1.483482 -4.986789 -2.002576 0
M  V30 45 H -4.410509 -4.481116 -3.917449 0
M  V30 46 H -3.604005 -5.030342 -5.462962 0
M  V30 47 H -2.097713 -3.230677 -5.482137 0
M  V30 48 H -3.804096 -2.621217 -5.395910 0
M  V30 49 H -0.092169 -0.539737 -1.728314 0
M  V30 50 H 2.824438 2.227053 1.245019 0
M  V30 51 H 3.847668 2.595789 3.519905 0
M  V30 END ATOM
M  V30 BEGIN BOND
M  V30 1 1 1 2
M  V30 2 1 2 3
M  V30 3 1 3 4
M  V30 4 2 4 5
M  V30 5 1 4 6
M  V30 6 2 6 7
M  V30 7 1 7 8
M  V30 8 2 8 9
M  V30 9 1 9 10
M  V30 10 1 10 11
M  V30 11 2 11 12
M  V30 12 1 11 13
M  V30 13 2 13 14
M  V30 14 1 14 15
M  V30 15 2 15 16
M  V30 16 1 16 17
M  V30 17 1 17 18
M  V30 18 2 18 19
M  V30 19 2 18 20
M  V30 20 1 18 21
M  V30 21 1 21 22
M  V30 22 1 22 23
M  V30 23 1 23 24
M  V30 24 1 24 25
M  V30 25 1 25 26
M  V30 26 2 17 27
M  V30 27 1 9 28
M  V30 28 2 28 29
M  V30 29 1 29 6
M  V30 30 1 27 13
M  V30 31 1 26 21
M  V30 32 1 1 30
M  V30 33 1 1 31
M  V30 34 1 1 32
M  V30 35 1 2 33
M  V30 36 1 2 34
M  V30 37 1 7 35
M  V30 38 1 8 36
M  V30 39 1 10 37
M  V30 40 1 14 38
M  V30 41 1 15 39
M  V30 42 1 16 40
M  V30 43 1 22 41
M  V30 44 1 22 42
M  V30 45 1 23 43
M  V30 46 1 23 44
M  V30 47 1 25 45
M  V30 48 1 25 46
M  V30 49 1 26 47
M  V30 50 1 26 48
M  V30 51 1 27 49
M  V30 52 1 28 50
M  V30 53 1 29 51
M  V30 END BOND
M  V30 END CTAB
M  END
>  <Dataset>  (166) 
ChEMBL_Kinases

>  <Ligand_Instance>  (166) 
nan

>  <PDB_ID>  (166) 
nan

>  <Standardized_SMILES>  (166) 
CCOC(=O)c1ccc(NC(=O)c2cccc(S(=O)(=O)N3CCOCC3)c2)cc1

>  <Name>  (166) 
nan

>  <Pocket>  (166) 
nan

>  <ATP_Site>  (166) 
nan

>  <Peripheral>  (166) 
nan

>  <Num_H_Atoms_ProtBoundConf>  (166) 
nan

>  <Num_Resolved_Atoms>  (166) 
nan

>  <Num_Not_Resolved_Atoms>  (166) 
nan

$$$$
CHEMBL1363989
     RDKit          3D

  0  0  0  0  0  0  0  0  0  0999 V3000
M  V30 BEGIN CTAB
M  V30 COUNTS 36 39 0 0 0
M  V30 BEGIN ATOM
M  V30 1 O -1.747524 -1.389515 1.824620 0
M  V30 2 C -0.577336 -1.714484 2.234388 0
M  V30 3 C 0.443887 -0.909701 1.626366 0
M  V30 4 C 1.771549 -0.915000 1.768877 0
M  V30 5 O 2.660397 -1.648217 2.511662 0
M  V30 6 C 2.418342 0.100605 0.934952 0
M  V30 7 O 3.569668 0.483257 0.714961 0
M  V30 8 N 1.321285 0.709876 0.280527 0
M  V30 9 C 1.311364 1.770960 -0.661889 0
M  V30 10 N 2.501091 2.291617 -1.000287 0
M  V30 11 C 2.657045 3.296030 -1.875206 0
M  V30 12 C 1.562434 3.862562 -2.491487 0
M  V30 13 C 0.338922 3.331233 -2.147130 0
M  V30 14 N 0.270380 2.338985 -1.273925 0
M  V30 15 C 0.050103 0.160140 0.636297 0
M  V30 16 C -0.625235 -0.443122 -0.502087 0
M  V30 17 C -1.911840 -0.401910 -0.983177 0
M  V30 18 C -2.231398 -1.106110 -2.116312 0
M  V30 19 C -1.275044 -1.844156 -2.762393 0
M  V30 20 S 0.257964 -1.514472 -1.651740 0
M  V30 21 C -0.664904 -2.797862 3.186483 0
M  V30 22 C 0.304949 -3.473664 3.886732 0
M  V30 23 C -0.195733 -4.454311 4.704805 0
M  V30 24 C -1.541622 -4.323348 4.448911 0
M  V30 25 O -1.745619 -3.387898 3.597794 0
M  V30 26 H 3.297130 -2.318783 2.076538 0
M  V30 27 H 3.648027 3.650138 -2.086479 0
M  V30 28 H 1.624369 4.663148 -3.195330 0
M  V30 29 H -0.603301 3.682093 -2.556250 0
M  V30 30 H -0.632426 0.888306 1.112200 0
M  V30 31 H -2.594462 0.204559 -0.408991 0
M  V30 32 H -3.230810 -1.101180 -2.528444 0
M  V30 33 H -1.302756 -2.432684 -3.609025 0
M  V30 34 H 1.375305 -3.374689 3.910023 0
M  V30 35 H 0.168461 -5.185593 5.391410 0
M  V30 36 H -2.458997 -4.823683 4.797590 0
M  V30 END ATOM
M  V30 BEGIN BOND
M  V30 1 2 1 2
M  V30 2 1 2 3
M  V30 3 2 3 4
M  V30 4 1 4 5
M  V30 5 1 4 6
M  V30 6 2 6 7
M  V30 7 1 6 8
M  V30 8 1 8 9
M  V30 9 2 9 10
M  V30 10 1 10 11
M  V30 11 2 11 12
M  V30 12 1 12 13
M  V30 13 2 13 14
M  V30 14 1 8 15
M  V30 15 1 15 16
M  V30 16 2 16 17
M  V30 17 1 17 18
M  V30 18 2 18 19
M  V30 19 1 19 20
M  V30 20 1 2 21
M  V30 21 2 21 22
M  V30 22 1 22 23
M  V30 23 2 23 24
M  V30 24 1 24 25
M  V30 25 1 15 3
M  V30 26 1 20 16
M  V30 27 1 25 21
M  V30 28 1 14 9
M  V30 29 1 5 26
M  V30 30 1 11 27
M  V30 31 1 12 28
M  V30 32 1 13 29
M  V30 33 1 15 30
M  V30 34 1 17 31
M  V30 35 1 18 32
M  V30 36 1 19 33
M  V30 37 1 22 34
M  V30 38 1 23 35
M  V30 39 1 24 36
M  V30 END BOND
M  V30 END CTAB
M  END
>  <Dataset>  (167) 
ChEMBL_Kinases

>  <Ligand_Instance>  (167) 
nan

>  <PDB_ID>  (167) 
nan

>  <Standardized_SMILES>  (167) 
O=C(C1=C(O)C(=O)N(c2ncccn2)C1c1cccs1)c1ccco1

>  <Name>  (167) 
nan

>  <Pocket>  (167) 
nan

>  <ATP_Site>  (167) 
nan

>  <Peripheral>  (167) 
nan

>  <Num_H_Atoms_ProtBoundConf>  (167) 
nan

>  <Num_Resolved_Atoms>  (167) 
nan

>  <Num_Not_Resolved_Atoms>  (167) 
nan

$$$$
CHEMBL1363982
     RDKit          3D

  0  0  0  0  0  0  0  0  0  0999 V3000
M  V30 BEGIN CTAB
M  V30 COUNTS 33 36 0 0 0
M  V30 BEGIN ATOM
M  V30 1 Br 0.973372 -1.866734 1.980867 0
M  V30 2 C 2.331152 -2.540240 0.837938 0
M  V30 3 C 2.785331 -3.768825 1.254018 0
M  V30 4 C 3.774314 -4.394784 0.529204 0
M  V30 5 C 4.265678 -3.772169 -0.573879 0
M  V30 6 C 3.760357 -2.542422 -0.927642 0
M  V30 7 C 2.775666 -1.849993 -0.261031 0
M  V30 8 C 2.284976 -0.552542 -0.686822 0
M  V30 9 N 2.883213 -0.092638 -1.793446 0
M  V30 10 N 2.431536 1.081591 -2.169311 0
M  V30 11 C 1.455370 1.398416 -1.213341 0
M  V30 12 S 0.146183 2.538113 -0.500315 0
M  V30 13 C -0.223331 1.428304 0.840676 0
M  V30 14 C -1.234283 1.617661 1.940846 0
M  V30 15 C -2.568768 1.050373 1.543948 0
M  V30 16 C -2.898809 -0.264174 1.815815 0
M  V30 17 C -4.144418 -0.712363 1.419749 0
M  V30 18 C -5.041661 0.123279 0.769399 0
M  V30 19 C -4.694961 1.420673 0.510122 0
M  V30 20 C -3.460772 1.903804 0.890251 0
M  V30 21 N 0.542801 0.494941 0.635534 0
M  V30 22 N 1.390490 0.369056 -0.313467 0
M  V30 23 H 2.436981 -4.313009 2.117838 0
M  V30 24 H 4.178230 -5.360390 0.798158 0
M  V30 25 H 5.031297 -4.246603 -1.143060 0
M  V30 26 H 4.232000 -2.133338 -1.836403 0
M  V30 27 H -0.862497 1.064569 2.799952 0
M  V30 28 H -1.340282 2.708599 2.131015 0
M  V30 29 H -2.213381 -0.916908 2.317161 0
M  V30 30 H -4.481824 -1.727237 1.594008 0
M  V30 31 H -6.022274 -0.164605 0.437124 0
M  V30 32 H -5.377334 2.106143 -0.000219 0
M  V30 33 H -3.173375 2.931381 0.690419 0
M  V30 END ATOM
M  V30 BEGIN BOND
M  V30 1 1 1 2
M  V30 2 2 2 3
M  V30 3 1 3 4
M  V30 4 2 4 5
M  V30 5 1 5 6
M  V30 6 2 6 7
M  V30 7 1 7 8
M  V30 8 2 8 9
M  V30 9 1 9 10
M  V30 10 2 10 11
M  V30 11 1 11 12
M  V30 12 1 12 13
M  V30 13 1 13 14
M  V30 14 1 14 15
M  V30 15 2 15 16
M  V30 16 1 16 17
M  V30 17 2 17 18
M  V30 18 1 18 19
M  V30 19 2 19 20
M  V30 20 2 13 21
M  V30 21 1 21 22
M  V30 22 1 7 2
M  V30 23 1 22 8
M  V30 24 1 22 11
M  V30 25 1 20 15
M  V30 26 1 3 23
M  V30 27 1 4 24
M  V30 28 1 5 25
M  V30 29 1 6 26
M  V30 30 1 14 27
M  V30 31 1 14 28
M  V30 32 1 16 29
M  V30 33 1 17 30
M  V30 34 1 18 31
M  V30 35 1 19 32
M  V30 36 1 20 33
M  V30 END BOND
M  V30 END CTAB
M  END
>  <Dataset>  (168) 
ChEMBL_Kinases

>  <Ligand_Instance>  (168) 
nan

>  <PDB_ID>  (168) 
nan

>  <Standardized_SMILES>  (168) 
Brc1ccccc1-c1nnc2sc(Cc3ccccc3)nn12

>  <Name>  (168) 
nan

>  <Pocket>  (168) 
nan

>  <ATP_Site>  (168) 
nan

>  <Peripheral>  (168) 
nan

>  <Num_H_Atoms_ProtBoundConf>  (168) 
nan

>  <Num_Resolved_Atoms>  (168) 
nan

>  <Num_Not_Resolved_Atoms>  (168) 
nan

$$$$
CHEMBL1363915
     RDKit          3D

  0  0  0  0  0  0  0  0  0  0999 V3000
M  V30 BEGIN CTAB
M  V30 COUNTS 47 50 0 0 0
M  V30 BEGIN ATOM
M  V30 1 C -3.054957 -4.878643 1.736160 0
M  V30 2 C -2.242966 -4.104623 0.746072 0
M  V30 3 C -2.807848 -3.236114 -0.155613 0
M  V30 4 C -1.962769 -2.552307 -1.044851 0
M  V30 5 C -0.594646 -2.831792 -0.922042 0
M  V30 6 C 0.183922 -2.034639 -1.909622 0
M  V30 7 N 0.738538 -1.916872 -3.125335 0
M  V30 8 O 1.329241 -0.767058 -3.267967 0
M  V30 9 C 1.190922 -0.066683 -2.149954 0
M  V30 10 C 1.654375 1.316310 -1.734537 0
M  V30 11 C 2.820250 1.120825 -0.844313 0
M  V30 12 C 2.837124 1.767100 0.476788 0
M  V30 13 C 1.626644 2.578345 0.849635 0
M  V30 14 N 0.485358 1.837269 0.351287 0
M  V30 15 C -0.376674 1.151531 1.229648 0
M  V30 16 O -1.404939 0.472770 0.882110 0
M  V30 17 C -0.194136 1.133052 2.658518 0
M  V30 18 C 0.318746 -0.122472 3.016996 0
M  V30 19 F 0.628267 -1.177334 2.224189 0
M  V30 20 C 0.581935 -0.418791 4.361519 0
M  V30 21 C 0.329876 0.543603 5.331227 0
M  V30 22 C -0.177635 1.784433 4.974190 0
M  V30 23 C -0.436483 2.071926 3.638183 0
M  V30 24 F -0.923475 3.214798 3.109800 0
M  V30 25 C 0.444645 1.932627 -1.094861 0
M  V30 26 N 0.484966 -0.854981 -1.319703 0
M  V30 27 C -0.030275 -3.705301 -0.016405 0
M  V30 28 C -0.891291 -4.365297 0.850812 0
M  V30 29 H -2.828265 -4.520063 2.782082 0
M  V30 30 H -2.805306 -5.948609 1.752259 0
M  V30 31 H -4.139491 -4.671690 1.582465 0
M  V30 32 H -3.878344 -3.077746 -0.180712 0
M  V30 33 H -2.405902 -1.875786 -1.749311 0
M  V30 34 H 1.906791 1.843144 -2.661550 0
M  V30 35 H 3.731468 1.470513 -1.415705 0
M  V30 36 H 3.051960 0.030196 -0.687479 0
M  V30 37 H 2.985382 1.018324 1.313864 0
M  V30 38 H 3.718899 2.468255 0.615001 0
M  V30 39 H 1.603083 2.652897 1.967352 0
M  V30 40 H 1.599549 3.592032 0.397275 0
M  V30 41 H 0.974020 -1.351281 4.737845 0
M  V30 42 H 0.517302 0.365316 6.389362 0
M  V30 43 H -0.412506 2.596144 5.648108 0
M  V30 44 H -0.519407 1.439675 -1.396517 0
M  V30 45 H 0.332596 3.000180 -1.348481 0
M  V30 46 H 1.039338 -3.820199 -0.034845 0
M  V30 47 H -0.437791 -5.047254 1.558649 0
M  V30 END ATOM
M  V30 BEGIN BOND
M  V30 1 1 1 2
M  V30 2 2 2 3
M  V30 3 1 3 4
M  V30 4 2 4 5
M  V30 5 1 5 6
M  V30 6 2 6 7
M  V30 7 1 7 8
M  V30 8 1 8 9
M  V30 9 1 9 10
M  V30 10 1 10 11
M  V30 11 1 11 12
M  V30 12 1 12 13
M  V30 13 1 13 14
M  V30 14 1 14 15
M  V30 15 2 15 16
M  V30 16 1 15 17
M  V30 17 2 17 18
M  V30 18 1 18 19
M  V30 19 1 18 20
M  V30 20 2 20 21
M  V30 21 1 21 22
M  V30 22 2 22 23
M  V30 23 1 23 24
M  V30 24 1 14 25
M  V30 25 2 9 26
M  V30 26 1 5 27
M  V30 27 2 27 28
M  V30 28 1 28 2
M  V30 29 1 26 6
M  V30 30 1 25 10
M  V30 31 1 23 17
M  V30 32 1 1 29
M  V30 33 1 1 30
M  V30 34 1 1 31
M  V30 35 1 3 32
M  V30 36 1 4 33
M  V30 37 1 10 34
M  V30 38 1 11 35
M  V30 39 1 11 36
M  V30 40 1 12 37
M  V30 41 1 12 38
M  V30 42 1 13 39
M  V30 43 1 13 40
M  V30 44 1 20 41
M  V30 45 1 21 42
M  V30 46 1 22 43
M  V30 47 1 25 44
M  V30 48 1 25 45
M  V30 49 1 27 46
M  V30 50 1 28 47
M  V30 END BOND
M  V30 END CTAB
M  END
>  <Dataset>  (169) 
ChEMBL_Kinases

>  <Ligand_Instance>  (169) 
nan

>  <PDB_ID>  (169) 
nan

>  <Standardized_SMILES>  (169) 
Cc1ccc(-c2noc(C3CCCN(C(=O)c4c(F)cccc4F)C3)n2)cc1

>  <Name>  (169) 
nan

>  <Pocket>  (169) 
nan

>  <ATP_Site>  (169) 
nan

>  <Peripheral>  (169) 
nan

>  <Num_H_Atoms_ProtBoundConf>  (169) 
nan

>  <Num_Resolved_Atoms>  (169) 
nan

>  <Num_Not_Resolved_Atoms>  (169) 
nan

$$$$
CHEMBL1363831
     RDKit          3D

  0  0  0  0  0  0  0  0  0  0999 V3000
M  V30 BEGIN CTAB
M  V30 COUNTS 37 39 0 0 0
M  V30 BEGIN ATOM
M  V30 1 C -2.979122 -1.469142 4.702295 0
M  V30 2 C -1.833059 -1.148634 3.810837 0
M  V30 3 C -1.785273 -1.687225 2.549157 0
M  V30 4 C -0.696961 -1.355291 1.763560 0
M  V30 5 N -0.669403 -1.937825 0.468263 0
M  V30 6 C 0.146931 -1.859719 -0.687702 0
M  V30 7 C 0.864757 -2.892160 -1.248559 0
M  V30 8 C 1.631216 -2.752961 -2.381774 0
M  V30 9 C 1.658531 -1.504169 -2.957446 0
M  V30 10 C 0.957831 -0.446911 -2.431875 0
M  V30 11 C 1.091891 0.850949 -3.179427 0
M  V30 12 C 0.185261 -0.603814 -1.282956 0
M  V30 13 C -0.500870 0.641890 -0.880712 0
M  V30 14 N 0.303971 -0.547240 2.156778 0
M  V30 15 N 1.411598 -0.080949 1.654902 0
M  V30 16 C 2.049876 0.712416 2.530061 0
M  V30 17 C 3.337185 1.344978 2.147099 0
M  V30 18 N 1.294097 0.739375 3.638616 0
M  V30 19 C 0.211004 -0.038362 3.415777 0
M  V30 20 N -0.829676 -0.339855 4.201795 0
M  V30 21 H -3.149203 -0.662294 5.432405 0
M  V30 22 H -2.827262 -2.453047 5.174228 0
M  V30 23 H -3.910895 -1.536750 4.069498 0
M  V30 24 H -2.557623 -2.334360 2.194375 0
M  V30 25 H -1.376193 -2.625395 0.135597 0
M  V30 26 H 0.776904 -3.842435 -0.716577 0
M  V30 27 H 2.168649 -3.604287 -2.767749 0
M  V30 28 H 2.267929 -1.398530 -3.855867 0
M  V30 29 H 0.890599 1.703822 -2.485337 0
M  V30 30 H 0.370853 0.922817 -4.010807 0
M  V30 31 H 2.133963 0.937162 -3.531636 0
M  V30 32 H -1.261723 0.377617 -0.120600 0
M  V30 33 H -0.993023 1.156017 -1.743348 0
M  V30 34 H 0.251847 1.356798 -0.459658 0
M  V30 35 H 3.580220 2.167690 2.850244 0
M  V30 36 H 4.091812 0.526816 2.177577 0
M  V30 37 H 3.291010 1.726584 1.111939 0
M  V30 END ATOM
M  V30 BEGIN BOND
M  V30 1 1 1 2
M  V30 2 1 2 3
M  V30 3 2 3 4
M  V30 4 1 4 5
M  V30 5 1 5 6
M  V30 6 2 6 7
M  V30 7 1 7 8
M  V30 8 2 8 9
M  V30 9 1 9 10
M  V30 10 1 10 11
M  V30 11 2 10 12
M  V30 12 1 12 13
M  V30 13 1 4 14
M  V30 14 1 14 15
M  V30 15 2 15 16
M  V30 16 1 16 17
M  V30 17 1 16 18
M  V30 18 2 18 19
M  V30 19 1 19 20
M  V30 20 2 20 2
M  V30 21 1 12 6
M  V30 22 1 19 14
M  V30 23 1 1 21
M  V30 24 1 1 22
M  V30 25 1 1 23
M  V30 26 1 3 24
M  V30 27 1 5 25
M  V30 28 1 7 26
M  V30 29 1 8 27
M  V30 30 1 9 28
M  V30 31 1 11 29
M  V30 32 1 11 30
M  V30 33 1 11 31
M  V30 34 1 13 32
M  V30 35 1 13 33
M  V30 36 1 13 34
M  V30 37 1 17 35
M  V30 38 1 17 36
M  V30 39 1 17 37
M  V30 END BOND
M  V30 END CTAB
M  END
>  <Dataset>  (170) 
ChEMBL_Kinases

>  <Ligand_Instance>  (170) 
nan

>  <PDB_ID>  (170) 
nan

>  <Standardized_SMILES>  (170) 
Cc1cc(Nc2cccc(C)c2C)n2nc(C)nc2n1

>  <Name>  (170) 
nan

>  <Pocket>  (170) 
nan

>  <ATP_Site>  (170) 
nan

>  <Peripheral>  (170) 
nan

>  <Num_H_Atoms_ProtBoundConf>  (170) 
nan

>  <Num_Resolved_Atoms>  (170) 
nan

>  <Num_Not_Resolved_Atoms>  (170) 
nan

$$$$
CHEMBL1363700
     RDKit          3D

  0  0  0  0  0  0  0  0  0  0999 V3000
M  V30 BEGIN CTAB
M  V30 COUNTS 41 42 0 0 0
M  V30 BEGIN ATOM
M  V30 1 O 2.156932 -3.820111 2.171051 0
M  V30 2 C 2.155102 -2.756977 1.498981 0
M  V30 3 O 2.553108 -2.752581 0.181460 0
M  V30 4 C 1.715187 -1.500352 2.150317 0
M  V30 5 C 0.193558 -1.403883 2.182809 0
M  V30 6 C -0.275066 -1.436800 0.739856 0
M  V30 7 C 0.288369 -0.305540 -0.038892 0
M  V30 8 O 1.049230 0.714151 0.091466 0
M  V30 9 N -0.114894 -0.279981 -1.425528 0
M  V30 10 C 0.446164 0.829283 -2.161526 0
M  V30 11 C 1.671800 0.543670 -2.746124 0
M  V30 12 C 2.337988 1.502493 -3.484869 0
M  V30 13 C 1.758186 2.749379 -3.628434 0
M  V30 14 Br 2.606589 4.137758 -4.632641 0
M  V30 15 C 0.538203 3.021766 -3.041964 0
M  V30 16 C -0.151359 2.068006 -2.291923 0
M  V30 17 C -0.241209 -0.101402 2.778323 0
M  V30 18 C -0.623137 -0.227849 4.237081 0
M  V30 19 C -1.739355 -1.209257 4.452213 0
M  V30 20 C -1.760036 -2.317533 3.441757 0
M  V30 21 C -0.331081 -2.559734 2.976549 0
M  V30 22 H 2.675397 -3.621303 -0.353143 0
M  V30 23 H 2.185421 -0.660596 1.598059 0
M  V30 24 H 2.110460 -1.439531 3.185723 0
M  V30 25 H -1.369977 -1.412379 0.707945 0
M  V30 26 H 0.062740 -2.377914 0.230664 0
M  V30 27 H -0.752432 -0.965504 -1.929936 0
M  V30 28 H 2.159334 -0.423532 -2.656592 0
M  V30 29 H 3.293958 1.281468 -3.941253 0
M  V30 30 H 0.034790 3.990953 -3.124132 0
M  V30 31 H -1.099846 2.206238 -1.808431 0
M  V30 32 H 0.643114 0.583712 2.752161 0
M  V30 33 H -1.094010 0.285633 2.211823 0
M  V30 34 H -0.976857 0.771362 4.566039 0
M  V30 35 H 0.293719 -0.454680 4.812763 0
M  V30 36 H -1.662088 -1.609092 5.476449 0
M  V30 37 H -2.745448 -0.694779 4.428833 0
M  V30 38 H -2.081866 -3.233024 3.971434 0
M  V30 39 H -2.423978 -2.069138 2.586645 0
M  V30 40 H -0.210419 -3.528531 2.469306 0
M  V30 41 H 0.276543 -2.619920 3.920763 0
M  V30 END ATOM
M  V30 BEGIN BOND
M  V30 1 2 1 2
M  V30 2 1 2 3
M  V30 3 1 2 4
M  V30 4 1 4 5
M  V30 5 1 5 6
M  V30 6 1 6 7
M  V30 7 2 7 8
M  V30 8 1 7 9
M  V30 9 1 9 10
M  V30 10 2 10 11
M  V30 11 1 11 12
M  V30 12 2 12 13
M  V30 13 1 13 14
M  V30 14 1 13 15
M  V30 15 2 15 16
M  V30 16 1 5 17
M  V30 17 1 17 18
M  V30 18 1 18 19
M  V30 19 1 19 20
M  V30 20 1 20 21
M  V30 21 1 21 5
M  V30 22 1 16 10
M  V30 23 1 3 22
M  V30 24 1 4 23
M  V30 25 1 4 24
M  V30 26 1 6 25
M  V30 27 1 6 26
M  V30 28 1 9 27
M  V30 29 1 11 28
M  V30 30 1 12 29
M  V30 31 1 15 30
M  V30 32 1 16 31
M  V30 33 1 17 32
M  V30 34 1 17 33
M  V30 35 1 18 34
M  V30 36 1 18 35
M  V30 37 1 19 36
M  V30 38 1 19 37
M  V30 39 1 20 38
M  V30 40 1 20 39
M  V30 41 1 21 40
M  V30 42 1 21 41
M  V30 END BOND
M  V30 END CTAB
M  END
>  <Dataset>  (171) 
ChEMBL_Kinases

>  <Ligand_Instance>  (171) 
nan

>  <PDB_ID>  (171) 
nan

>  <Standardized_SMILES>  (171) 
O=C(O)CC1(CC(=O)Nc2ccc(Br)cc2)CCCCC1

>  <Name>  (171) 
nan

>  <Pocket>  (171) 
nan

>  <ATP_Site>  (171) 
nan

>  <Peripheral>  (171) 
nan

>  <Num_H_Atoms_ProtBoundConf>  (171) 
nan

>  <Num_Resolved_Atoms>  (171) 
nan

>  <Num_Not_Resolved_Atoms>  (171) 
nan

$$$$
CHEMBL1363697
     RDKit          3D

  0  0  0  0  0  0  0  0  0  0999 V3000
M  V30 BEGIN CTAB
M  V30 COUNTS 56 60 0 0 0
M  V30 BEGIN ATOM
M  V30 1 C 5.716870 -3.410310 3.969706 0
M  V30 2 O 6.394320 -2.151889 3.999611 0
M  V30 3 C 5.776413 -0.981121 3.602438 0
M  V30 4 C 6.404067 0.264720 3.617392 0
M  V30 5 C 5.741007 1.419112 3.207458 0
M  V30 6 C 4.436344 1.368251 2.771344 0
M  V30 7 O 3.748432 2.484537 2.359027 0
M  V30 8 C 4.407565 3.748086 2.381875 0
M  V30 9 C 3.795324 0.172771 2.743804 0
M  V30 10 N 2.452784 -0.047415 2.321815 0
M  V30 11 C 1.166907 -0.065183 2.910400 0
M  V30 12 O 1.058417 0.163499 4.143333 0
M  V30 13 C 0.093373 -0.360044 1.962293 0
M  V30 14 C 0.077835 -0.625529 0.605402 0
M  V30 15 C -1.248131 -0.834282 0.233703 0
M  V30 16 N -1.998163 -0.692034 1.362050 0
M  V30 17 N -1.190681 -0.413178 2.368597 0
M  V30 18 C -3.454690 -0.856665 1.286388 0
M  V30 19 C -4.056641 0.283546 2.103629 0
M  V30 20 F -3.628891 0.217814 3.412407 0
M  V30 21 F -5.415919 0.194112 1.988449 0
M  V30 22 F -3.553665 1.447999 1.528073 0
M  V30 23 C -3.934115 -0.784893 -0.122936 0
M  V30 24 C -3.152210 -1.705589 -1.003596 0
M  V30 25 C -3.732894 -1.970851 -2.315955 0
M  V30 26 C -4.386267 -3.183304 -2.520131 0
M  V30 27 C -4.955601 -3.496544 -3.732809 0
M  V30 28 C -4.841617 -2.545987 -4.726072 0
M  V30 29 C -4.200293 -1.318523 -4.577686 0
M  V30 30 C -3.633706 -1.035742 -3.330562 0
M  V30 31 O -4.292798 -0.637560 -5.793605 0
M  V30 32 C -4.674119 -1.614108 -6.771762 0
M  V30 33 O -5.332792 -2.630537 -6.030782 0
M  V30 34 N -1.795953 -1.143255 -1.065118 0
M  V30 35 C 4.460216 -0.979465 3.154018 0
M  V30 36 H 4.974515 -3.489078 4.798713 0
M  V30 37 H 5.213536 -3.594034 2.996612 0
M  V30 38 H 6.453458 -4.222790 4.088925 0
M  V30 39 H 7.426537 0.262718 3.965859 0
M  V30 40 H 6.275722 2.362237 3.239063 0
M  V30 41 H 3.792410 4.525180 1.874050 0
M  V30 42 H 4.465589 4.063972 3.464562 0
M  V30 43 H 5.378497 3.753239 1.883233 0
M  V30 44 H 2.640630 -0.228196 1.293206 0
M  V30 45 H 0.988149 -0.644640 0.025386 0
M  V30 46 H -3.749553 -1.804187 1.777255 0
M  V30 47 H -4.018866 0.246363 -0.498179 0
M  V30 48 H -4.985425 -1.191710 -0.113276 0
M  V30 49 H -3.036124 -2.664791 -0.419003 0
M  V30 50 H -4.465810 -3.927106 -1.714972 0
M  V30 51 H -5.465844 -4.433820 -3.905593 0
M  V30 52 H -3.132500 -0.077328 -3.213387 0
M  V30 53 H -5.390642 -1.096907 -7.442552 0
M  V30 54 H -3.782089 -2.015973 -7.281529 0
M  V30 55 H -1.188151 -0.940274 -1.885701 0
M  V30 56 H 3.978740 -1.969182 3.147974 0
M  V30 END ATOM
M  V30 BEGIN BOND
M  V30 1 1 1 2
M  V30 2 1 2 3
M  V30 3 2 3 4
M  V30 4 1 4 5
M  V30 5 2 5 6
M  V30 6 1 6 7
M  V30 7 1 7 8
M  V30 8 1 6 9
M  V30 9 1 9 10
M  V30 10 1 10 11
M  V30 11 2 11 12
M  V30 12 1 11 13
M  V30 13 1 13 14
M  V30 14 2 14 15
M  V30 15 1 15 16
M  V30 16 1 16 17
M  V30 17 1 16 18
M  V30 18 1 18 19
M  V30 19 1 19 20
M  V30 20 1 19 21
M  V30 21 1 19 22
M  V30 22 1 18 23
M  V30 23 1 23 24
M  V30 24 1 24 25
M  V30 25 2 25 26
M  V30 26 1 26 27
M  V30 27 2 27 28
M  V30 28 1 28 29
M  V30 29 2 29 30
M  V30 30 1 29 31
M  V30 31 1 31 32
M  V30 32 1 32 33
M  V30 33 1 24 34
M  V30 34 2 9 35
M  V30 35 1 35 3
M  V30 36 2 17 13
M  V30 37 1 30 25
M  V30 38 1 34 15
M  V30 39 1 33 28
M  V30 40 1 1 36
M  V30 41 1 1 37
M  V30 42 1 1 38
M  V30 43 1 4 39
M  V30 44 1 5 40
M  V30 45 1 8 41
M  V30 46 1 8 42
M  V30 47 1 8 43
M  V30 48 1 10 44
M  V30 49 1 14 45
M  V30 50 1 18 46
M  V30 51 1 23 47
M  V30 52 1 23 48
M  V30 53 1 24 49
M  V30 54 1 26 50
M  V30 55 1 27 51
M  V30 56 1 30 52
M  V30 57 1 32 53
M  V30 58 1 32 54
M  V30 59 1 34 55
M  V30 60 1 35 56
M  V30 END BOND
M  V30 END CTAB
M  END
>  <Dataset>  (172) 
ChEMBL_Kinases

>  <Ligand_Instance>  (172) 
nan

>  <PDB_ID>  (172) 
nan

>  <Standardized_SMILES>  (172) 
COc1ccc(OC)c(NC(=O)c2cc3n(n2)C(C(F)(F)F)CC(c2ccc4c(c2)OCO4)N3)c1

>  <Name>  (172) 
nan

>  <Pocket>  (172) 
nan

>  <ATP_Site>  (172) 
nan

>  <Peripheral>  (172) 
nan

>  <Num_H_Atoms_ProtBoundConf>  (172) 
nan

>  <Num_Resolved_Atoms>  (172) 
nan

>  <Num_Not_Resolved_Atoms>  (172) 
nan

$$$$
CHEMBL1363641
     RDKit          3D

  0  0  0  0  0  0  0  0  0  0999 V3000
M  V30 BEGIN CTAB
M  V30 COUNTS 46 48 0 0 0
M  V30 BEGIN ATOM
M  V30 1 C -6.709501 -5.275490 -1.145089 0
M  V30 2 C -5.554353 -4.683138 -0.438071 0
M  V30 3 C -4.252751 -4.989403 -0.791157 0
M  V30 4 C -3.188354 -4.414709 -0.105601 0
M  V30 5 C -3.424533 -3.534826 0.931775 0
M  V30 6 N -2.185156 -3.061172 1.499082 0
M  V30 7 C -1.705483 -1.890540 0.878455 0
M  V30 8 O -2.503256 -1.529633 -0.053282 0
M  V30 9 C -0.441327 -1.280266 1.348888 0
M  V30 10 C -0.059938 -0.051732 0.602247 0
M  V30 11 N 0.142768 -0.216237 -0.803178 0
M  V30 12 S 0.580860 1.250851 -1.592065 0
M  V30 13 O -0.498670 2.292508 -1.488590 0
M  V30 14 O 0.707121 0.948657 -3.074607 0
M  V30 15 C 2.078978 1.916946 -1.006990 0
M  V30 16 C 3.234659 1.504600 -1.659270 0
M  V30 17 C 4.464194 2.001165 -1.238884 0
M  V30 18 C 4.501384 2.889506 -0.185616 0
M  V30 19 C 3.359942 3.311928 0.476688 0
M  V30 20 C 2.150484 2.808077 0.044821 0
M  V30 21 O 3.754066 4.134522 1.401890 0
M  V30 22 C 5.067355 4.264116 1.373366 0
M  V30 23 O 5.751134 4.979719 2.130740 0
M  V30 24 N 5.579642 3.494234 0.384708 0
M  V30 25 C 6.957632 3.310045 -0.026726 0
M  V30 26 C -4.724226 -3.218452 1.296814 0
M  V30 27 C -5.747285 -3.806801 0.595406 0
M  V30 28 H -7.019620 -4.541727 -1.923882 0
M  V30 29 H -7.560316 -5.496858 -0.494139 0
M  V30 30 H -6.446921 -6.206459 -1.685355 0
M  V30 31 H -4.129734 -5.679621 -1.605324 0
M  V30 32 H -2.221809 -4.735379 -0.477893 0
M  V30 33 H -1.712637 -3.553609 2.288091 0
M  V30 34 H -0.604448 -0.978458 2.405839 0
M  V30 35 H 0.334832 -2.056303 1.310749 0
M  V30 36 H -0.778423 0.763198 0.818288 0
M  V30 37 H 0.912521 0.292878 1.035659 0
M  V30 38 H -0.763495 -0.507487 -1.233959 0
M  V30 39 H 3.209015 0.805229 -2.488999 0
M  V30 40 H 5.356020 1.663368 -1.765592 0
M  V30 41 H 1.234235 3.112434 0.535080 0
M  V30 42 H 7.587860 4.104874 0.382118 0
M  V30 43 H 7.280864 2.321231 0.361771 0
M  V30 44 H 6.995883 3.265940 -1.125899 0
M  V30 45 H -4.767266 -2.529845 2.109605 0
M  V30 46 H -6.735418 -3.515241 0.933177 0
M  V30 END ATOM
M  V30 BEGIN BOND
M  V30 1 1 1 2
M  V30 2 2 2 3
M  V30 3 1 3 4
M  V30 4 2 4 5
M  V30 5 1 5 6
M  V30 6 1 6 7
M  V30 7 2 7 8
M  V30 8 1 7 9
M  V30 9 1 9 10
M  V30 10 1 10 11
M  V30 11 1 11 12
M  V30 12 2 12 13
M  V30 13 2 12 14
M  V30 14 1 12 15
M  V30 15 2 15 16
M  V30 16 1 16 17
M  V30 17 2 17 18
M  V30 18 1 18 19
M  V30 19 2 19 20
M  V30 20 1 19 21
M  V30 21 1 21 22
M  V30 22 2 22 23
M  V30 23 1 22 24
M  V30 24 1 24 25
M  V30 25 1 5 26
M  V30 26 2 26 27
M  V30 27 1 27 2
M  V30 28 1 20 15
M  V30 29 1 24 18
M  V30 30 1 1 28
M  V30 31 1 1 29
M  V30 32 1 1 30
M  V30 33 1 3 31
M  V30 34 1 4 32
M  V30 35 1 6 33
M  V30 36 1 9 34
M  V30 37 1 9 35
M  V30 38 1 10 36
M  V30 39 1 10 37
M  V30 40 1 11 38
M  V30 41 1 16 39
M  V30 42 1 17 40
M  V30 43 1 20 41
M  V30 44 1 25 42
M  V30 45 1 25 43
M  V30 46 1 25 44
M  V30 47 1 26 45
M  V30 48 1 27 46
M  V30 END BOND
M  V30 END CTAB
M  END
>  <Dataset>  (173) 
ChEMBL_Kinases

>  <Ligand_Instance>  (173) 
nan

>  <PDB_ID>  (173) 
nan

>  <Standardized_SMILES>  (173) 
Cc1ccc(NC(=O)CCNS(=O)(=O)c2ccc3c(c2)oc(=O)n3C)cc1

>  <Name>  (173) 
nan

>  <Pocket>  (173) 
nan

>  <ATP_Site>  (173) 
nan

>  <Peripheral>  (173) 
nan

>  <Num_H_Atoms_ProtBoundConf>  (173) 
nan

>  <Num_Resolved_Atoms>  (173) 
nan

>  <Num_Not_Resolved_Atoms>  (173) 
nan

$$$$
CHEMBL1363631
     RDKit          3D

  0  0  0  0  0  0  0  0  0  0999 V3000
M  V30 BEGIN CTAB
M  V30 COUNTS 59 62 0 0 0
M  V30 BEGIN ATOM
M  V30 1 C -0.009414 -0.159513 5.416029 0
M  V30 2 O 0.700076 0.286114 4.270593 0
M  V30 3 C 2.066163 0.171474 4.234323 0
M  V30 4 O 2.755706 -0.314096 5.169897 0
M  V30 5 C 2.821188 0.623236 3.065411 0
M  V30 6 N 4.168973 0.549345 2.941872 0
M  V30 7 C 4.575742 1.042658 1.754916 0
M  V30 8 C 5.792629 1.208513 1.124592 0
M  V30 9 C 5.811629 1.777298 -0.147920 0
M  V30 10 C 4.658966 2.181782 -0.803243 0
M  V30 11 C 4.754848 2.787442 -2.174564 0
M  V30 12 C 3.428589 2.022178 -0.183952 0
M  V30 13 C 3.446788 1.456308 1.074081 0
M  V30 14 C 2.359198 1.197865 1.882995 0
M  V30 15 N 0.937193 1.404092 1.728115 0
M  V30 16 C 0.148297 0.355737 1.138125 0
M  V30 17 O 0.950260 -0.573728 0.872852 0
M  V30 18 C -1.273519 0.699049 1.042810 0
M  V30 19 N -2.088918 -0.357510 0.444150 0
M  V30 20 C -3.450297 0.054625 0.391574 0
M  V30 21 C -4.281057 -0.542052 -0.694989 0
M  V30 22 N -3.715856 -1.786729 -1.168946 0
M  V30 23 C -3.676529 -2.833905 -0.199302 0
M  V30 24 C -3.085155 -4.106703 -0.728360 0
M  V30 25 C -3.904343 -5.069432 -1.328269 0
M  V30 26 C -3.355987 -6.238549 -1.813201 0
M  V30 27 C -2.010950 -6.506906 -1.732048 0
M  V30 28 C -1.200916 -5.573169 -1.147757 0
M  V30 29 C -1.746592 -4.408883 -0.664773 0
M  V30 30 C -2.423636 -1.478896 -1.734681 0
M  V30 31 C -1.523910 -0.699444 -0.833932 0
M  V30 32 H -0.644534 -1.049375 5.170116 0
M  V30 33 H 0.684227 -0.483429 6.202797 0
M  V30 34 H -0.619526 0.695956 5.759466 0
M  V30 35 H 4.865235 0.176314 3.624683 0
M  V30 36 H 6.700517 0.901931 1.614047 0
M  V30 37 H 6.802893 1.883986 -0.598124 0
M  V30 38 H 4.992046 3.862394 -2.060714 0
M  V30 39 H 3.750136 2.736604 -2.644080 0
M  V30 40 H 5.427326 2.233850 -2.831219 0
M  V30 41 H 2.512505 2.324754 -0.662652 0
M  V30 42 H 0.647802 2.361423 2.093409 0
M  V30 43 H -1.686075 0.989829 2.032825 0
M  V30 44 H -1.371059 1.591436 0.389904 0
M  V30 45 H -3.582198 1.159431 0.398331 0
M  V30 46 H -3.926765 -0.275829 1.361359 0
M  V30 47 H -5.348053 -0.660276 -0.418489 0
M  V30 48 H -4.263354 0.146059 -1.581345 0
M  V30 49 H -4.695837 -3.043803 0.169781 0
M  V30 50 H -3.090599 -2.499841 0.694795 0
M  V30 51 H -4.974648 -4.912876 -1.420716 0
M  V30 52 H -3.952651 -7.016417 -2.287675 0
M  V30 53 H -1.507354 -7.397286 -2.087815 0
M  V30 54 H -0.133438 -5.721535 -1.051754 0
M  V30 55 H -1.082898 -3.685580 -0.206240 0
M  V30 56 H -2.653916 -0.919593 -2.689604 0
M  V30 57 H -1.962497 -2.434256 -2.123190 0
M  V30 58 H -1.200341 0.219061 -1.398146 0
M  V30 59 H -0.647235 -1.366069 -0.636600 0
M  V30 END ATOM
M  V30 BEGIN BOND
M  V30 1 1 1 2
M  V30 2 1 2 3
M  V30 3 2 3 4
M  V30 4 1 3 5
M  V30 5 1 5 6
M  V30 6 1 6 7
M  V30 7 2 7 8
M  V30 8 1 8 9
M  V30 9 2 9 10
M  V30 10 1 10 11
M  V30 11 1 10 12
M  V30 12 2 12 13
M  V30 13 1 13 14
M  V30 14 1 14 15
M  V30 15 1 15 16
M  V30 16 2 16 17
M  V30 17 1 16 18
M  V30 18 1 18 19
M  V30 19 1 19 20
M  V30 20 1 20 21
M  V30 21 1 21 22
M  V30 22 1 22 23
M  V30 23 1 23 24
M  V30 24 2 24 25
M  V30 25 1 25 26
M  V30 26 2 26 27
M  V30 27 1 27 28
M  V30 28 2 28 29
M  V30 29 1 22 30
M  V30 30 1 30 31
M  V30 31 2 14 5
M  V30 32 1 31 19
M  V30 33 1 13 7
M  V30 34 1 29 24
M  V30 35 1 1 32
M  V30 36 1 1 33
M  V30 37 1 1 34
M  V30 38 1 6 35
M  V30 39 1 8 36
M  V30 40 1 9 37
M  V30 41 1 11 38
M  V30 42 1 11 39
M  V30 43 1 11 40
M  V30 44 1 12 41
M  V30 45 1 15 42
M  V30 46 1 18 43
M  V30 47 1 18 44
M  V30 48 1 20 45
M  V30 49 1 20 46
M  V30 50 1 21 47
M  V30 51 1 21 48
M  V30 52 1 23 49
M  V30 53 1 23 50
M  V30 54 1 25 51
M  V30 55 1 26 52
M  V30 56 1 27 53
M  V30 57 1 28 54
M  V30 58 1 29 55
M  V30 59 1 30 56
M  V30 60 1 30 57
M  V30 61 1 31 58
M  V30 62 1 31 59
M  V30 END BOND
M  V30 END CTAB
M  END
>  <Dataset>  (174) 
ChEMBL_Kinases

>  <Ligand_Instance>  (174) 
nan

>  <PDB_ID>  (174) 
nan

>  <Standardized_SMILES>  (174) 
COC(=O)c1[nH]c2ccc(C)cc2c1NC(=O)CN1CCN(Cc2ccccc2)CC1

>  <Name>  (174) 
nan

>  <Pocket>  (174) 
nan

>  <ATP_Site>  (174) 
nan

>  <Peripheral>  (174) 
nan

>  <Num_H_Atoms_ProtBoundConf>  (174) 
nan

>  <Num_Resolved_Atoms>  (174) 
nan

>  <Num_Not_Resolved_Atoms>  (174) 
nan

$$$$
CHEMBL1363615
     RDKit          3D

  0  0  0  0  0  0  0  0  0  0999 V3000
M  V30 BEGIN CTAB
M  V30 COUNTS 42 44 0 0 0
M  V30 BEGIN ATOM
M  V30 1 C -0.139223 -5.723533 0.196601 0
M  V30 2 C 0.072988 -4.494919 1.051025 0
M  V30 3 C 0.964369 -4.860347 2.238114 0
M  V30 4 C -1.221502 -3.986635 1.636328 0
M  V30 5 C 0.716019 -3.395434 0.313231 0
M  V30 6 C 0.939194 -2.249957 1.046632 0
M  V30 7 C 1.533090 -1.146259 0.478365 0
M  V30 8 C 1.931636 -1.127262 -0.839148 0
M  V30 9 O 2.529523 -0.216599 -1.669666 0
M  V30 10 C 2.942852 1.088450 -1.391720 0
M  V30 11 C 1.840443 1.994700 -0.979522 0
M  V30 12 N 1.275786 2.381790 0.174994 0
M  V30 13 C 0.274175 3.251241 -0.021366 0
M  V30 14 C -0.395510 3.723518 1.186163 0
M  V30 15 C -0.207172 5.062297 1.531196 0
M  V30 16 C -0.825135 5.560614 2.674560 0
M  V30 17 C -1.599322 4.702696 3.417399 0
M  V30 18 C -1.792055 3.359943 3.076999 0
M  V30 19 N -1.172017 2.927832 1.961376 0
M  V30 20 N 0.232318 3.395684 -1.356738 0
M  V30 21 O 1.151784 2.655935 -1.893368 0
M  V30 22 C 1.704610 -2.294214 -1.586735 0
M  V30 23 Br 2.138540 -2.594240 -3.435356 0
M  V30 24 C 1.100996 -3.425531 -1.021061 0
M  V30 25 H -0.839597 -6.415881 0.723493 0
M  V30 26 H -0.659901 -5.416795 -0.728282 0
M  V30 27 H 0.784840 -6.248961 -0.039675 0
M  V30 28 H 2.042023 -4.817362 1.953333 0
M  V30 29 H 0.753171 -4.186502 3.097862 0
M  V30 30 H 0.724595 -5.916764 2.486409 0
M  V30 31 H -1.514941 -4.521737 2.573960 0
M  V30 32 H -2.006387 -4.111799 0.850347 0
M  V30 33 H -1.115231 -2.892921 1.782805 0
M  V30 34 H 0.709277 -2.042887 2.090601 0
M  V30 35 H 1.759759 -0.212211 0.947241 0
M  V30 36 H 3.407748 1.480782 -2.340922 0
M  V30 37 H 3.783738 1.122182 -0.658727 0
M  V30 38 H 0.389536 5.782973 0.986307 0
M  V30 39 H -0.735736 6.590669 3.021901 0
M  V30 40 H -2.095638 5.078947 4.324537 0
M  V30 41 H -2.409011 2.692667 3.676599 0
M  V30 42 H 0.890263 -4.346719 -1.504379 0
M  V30 END ATOM
M  V30 BEGIN BOND
M  V30 1 1 1 2
M  V30 2 1 2 3
M  V30 3 1 2 4
M  V30 4 1 2 5
M  V30 5 2 5 6
M  V30 6 1 6 7
M  V30 7 2 7 8
M  V30 8 1 8 9
M  V30 9 1 9 10
M  V30 10 1 10 11
M  V30 11 2 11 12
M  V30 12 1 12 13
M  V30 13 1 13 14
M  V30 14 2 14 15
M  V30 15 1 15 16
M  V30 16 2 16 17
M  V30 17 1 17 18
M  V30 18 2 18 19
M  V30 19 2 13 20
M  V30 20 1 20 21
M  V30 21 1 8 22
M  V30 22 1 22 23
M  V30 23 2 22 24
M  V30 24 1 24 5
M  V30 25 1 21 11
M  V30 26 1 19 14
M  V30 27 1 1 25
M  V30 28 1 1 26
M  V30 29 1 1 27
M  V30 30 1 3 28
M  V30 31 1 3 29
M  V30 32 1 3 30
M  V30 33 1 4 31
M  V30 34 1 4 32
M  V30 35 1 4 33
M  V30 36 1 6 34
M  V30 37 1 7 35
M  V30 38 1 10 36
M  V30 39 1 10 37
M  V30 40 1 15 38
M  V30 41 1 16 39
M  V30 42 1 17 40
M  V30 43 1 18 41
M  V30 44 1 24 42
M  V30 END BOND
M  V30 END CTAB
M  END
>  <Dataset>  (175) 
ChEMBL_Kinases

>  <Ligand_Instance>  (175) 
nan

>  <PDB_ID>  (175) 
nan

>  <Standardized_SMILES>  (175) 
CC(C)(C)c1ccc(OCc2nc(-c3ccccn3)no2)c(Br)c1

>  <Name>  (175) 
nan

>  <Pocket>  (175) 
nan

>  <ATP_Site>  (175) 
nan

>  <Peripheral>  (175) 
nan

>  <Num_H_Atoms_ProtBoundConf>  (175) 
nan

>  <Num_Resolved_Atoms>  (175) 
nan

>  <Num_Not_Resolved_Atoms>  (175) 
nan

$$$$
CHEMBL1363603
     RDKit          3D

  0  0  0  0  0  0  0  0  0  0999 V3000
M  V30 BEGIN CTAB
M  V30 COUNTS 63 66 0 0 0
M  V30 BEGIN ATOM
M  V30 1 C -0.688133 -1.679942 4.958361 0
M  V30 2 C 0.528195 -1.915594 4.148857 0
M  V30 3 C 1.277470 -3.069546 4.339279 0
M  V30 4 C 2.413516 -3.310149 3.596991 0
M  V30 5 C 2.750755 -2.346011 2.669026 0
M  V30 6 C 2.052128 -1.161346 2.417577 0
M  V30 7 N 2.547957 -0.275645 1.429208 0
M  V30 8 C 3.028276 1.068311 1.670097 0
M  V30 9 C 3.287442 1.821932 0.398421 0
M  V30 10 N 2.529719 1.211185 -0.669521 0
M  V30 11 C 1.507773 1.969256 -1.260851 0
M  V30 12 O 1.523348 3.060116 -0.633020 0
M  V30 13 C 0.591159 1.633457 -2.363354 0
M  V30 14 C -0.430654 2.715106 -2.613561 0
M  V30 15 N -1.278911 2.959763 -1.467643 0
M  V30 16 C -1.952698 1.758154 -1.204481 0
M  V30 17 O -2.043805 0.562012 -1.648855 0
M  V30 18 C -2.942080 1.104429 -0.302251 0
M  V30 19 N -3.153271 -0.282388 -0.720466 0
M  V30 20 C -4.154230 -0.429096 -1.629199 0
M  V30 21 C -4.414617 -1.727199 -2.079029 0
M  V30 22 C -3.671976 -2.786434 -1.602598 0
M  V30 23 C -3.958777 -4.072595 -2.074360 0
M  V30 24 C -3.213711 -5.129816 -1.595608 0
M  V30 25 C -2.209566 -4.925280 -0.673776 0
M  V30 26 C -1.890196 -3.669611 -0.178325 0
M  V30 27 C -2.655277 -2.625465 -0.677208 0
M  V30 28 C -2.439851 -1.326102 -0.267074 0
M  V30 29 O -1.537935 -1.118881 0.564661 0
M  V30 30 C 2.929824 -0.131136 -0.993820 0
M  V30 31 C 2.465520 -1.006956 0.173441 0
M  V30 32 C 0.936880 -1.019435 3.210497 0
M  V30 33 C 0.104539 0.196898 3.034910 0
M  V30 34 H -0.824799 -0.621735 5.261090 0
M  V30 35 H -0.586064 -2.272405 5.894818 0
M  V30 36 H -1.589709 -2.093281 4.418753 0
M  V30 37 H 0.975726 -3.803238 5.081843 0
M  V30 38 H 3.016361 -4.185013 3.713300 0
M  V30 39 H 3.652876 -2.546096 2.086509 0
M  V30 40 H 3.994974 1.051108 2.245162 0
M  V30 41 H 2.246602 1.619947 2.214972 0
M  V30 42 H 4.369329 1.689032 0.118443 0
M  V30 43 H 3.076601 2.911075 0.498064 0
M  V30 44 H 0.199796 0.626987 -2.267620 0
M  V30 45 H 1.229672 1.613938 -3.295370 0
M  V30 46 H 0.126040 3.659919 -2.785933 0
M  V30 47 H -1.044058 2.526293 -3.502831 0
M  V30 48 H -1.677789 3.564130 -0.702430 0
M  V30 49 H -3.878520 1.679080 -0.297275 0
M  V30 50 H -2.534115 1.104674 0.723183 0
M  V30 51 H -4.765465 0.356798 -2.035551 0
M  V30 52 H -5.206195 -1.874346 -2.803353 0
M  V30 53 H -4.755363 -4.166496 -2.794102 0
M  V30 54 H -3.473129 -6.107706 -1.990416 0
M  V30 55 H -1.643717 -5.788175 -0.320649 0
M  V30 56 H -1.107744 -3.495975 0.541785 0
M  V30 57 H 4.032164 -0.170605 -1.097456 0
M  V30 58 H 2.457384 -0.544412 -1.904941 0
M  V30 59 H 3.119525 -1.881790 0.234047 0
M  V30 60 H 1.438297 -1.347260 -0.028064 0
M  V30 61 H -0.973048 -0.020992 3.219358 0
M  V30 62 H 0.173022 0.498414 1.973291 0
M  V30 63 H 0.457066 1.033570 3.665341 0
M  V30 END ATOM
M  V30 BEGIN BOND
M  V30 1 1 1 2
M  V30 2 2 2 3
M  V30 3 1 3 4
M  V30 4 2 4 5
M  V30 5 1 5 6
M  V30 6 1 6 7
M  V30 7 1 7 8
M  V30 8 1 8 9
M  V30 9 1 9 10
M  V30 10 1 10 11
M  V30 11 2 11 12
M  V30 12 1 11 13
M  V30 13 1 13 14
M  V30 14 1 14 15
M  V30 15 1 15 16
M  V30 16 2 16 17
M  V30 17 1 16 18
M  V30 18 1 18 19
M  V30 19 1 19 20
M  V30 20 2 20 21
M  V30 21 1 21 22
M  V30 22 2 22 23
M  V30 23 1 23 24
M  V30 24 2 24 25
M  V30 25 1 25 26
M  V30 26 2 26 27
M  V30 27 1 27 28
M  V30 28 2 28 29
M  V30 29 1 10 30
M  V30 30 1 30 31
M  V30 31 2 6 32
M  V30 32 1 32 33
M  V30 33 1 32 2
M  V30 34 1 31 7
M  V30 35 1 28 19
M  V30 36 1 27 22
M  V30 37 1 1 34
M  V30 38 1 1 35
M  V30 39 1 1 36
M  V30 40 1 3 37
M  V30 41 1 4 38
M  V30 42 1 5 39
M  V30 43 1 8 40
M  V30 44 1 8 41
M  V30 45 1 9 42
M  V30 46 1 9 43
M  V30 47 1 13 44
M  V30 48 1 13 45
M  V30 49 1 14 46
M  V30 50 1 14 47
M  V30 51 1 15 48
M  V30 52 1 18 49
M  V30 53 1 18 50
M  V30 54 1 20 51
M  V30 55 1 21 52
M  V30 56 1 23 53
M  V30 57 1 24 54
M  V30 58 1 25 55
M  V30 59 1 26 56
M  V30 60 1 30 57
M  V30 61 1 30 58
M  V30 62 1 31 59
M  V30 63 1 31 60
M  V30 64 1 33 61
M  V30 65 1 33 62
M  V30 66 1 33 63
M  V30 END BOND
M  V30 END CTAB
M  END
>  <Dataset>  (176) 
ChEMBL_Kinases

>  <Ligand_Instance>  (176) 
nan

>  <PDB_ID>  (176) 
nan

>  <Standardized_SMILES>  (176) 
Cc1cccc(N2CCN(C(=O)CCNC(=O)Cn3ccc4ccccc4c3=O)CC2)c1C

>  <Name>  (176) 
nan

>  <Pocket>  (176) 
nan

>  <ATP_Site>  (176) 
nan

>  <Peripheral>  (176) 
nan

>  <Num_H_Atoms_ProtBoundConf>  (176) 
nan

>  <Num_Resolved_Atoms>  (176) 
nan

>  <Num_Not_Resolved_Atoms>  (176) 
nan

$$$$
CHEMBL1363544
     RDKit          3D

  0  0  0  0  0  0  0  0  0  0999 V3000
M  V30 BEGIN CTAB
M  V30 COUNTS 37 39 0 0 0
M  V30 BEGIN ATOM
M  V30 1 C -1.883298 -3.052430 4.497045 0
M  V30 2 C -1.294703 -2.694943 3.177900 0
M  V30 3 C -2.118087 -2.311873 2.112483 0
M  V30 4 C -1.525826 -1.978875 0.889765 0
M  V30 5 C -0.136092 -2.023417 0.721125 0
M  V30 6 N 0.140203 -1.629245 -0.618556 0
M  V30 7 C 0.951549 -0.474653 -0.915057 0
M  V30 8 C 2.289713 -0.426045 -1.236617 0
M  V30 9 C 2.868148 0.797762 -1.472677 0
M  V30 10 C 4.308356 0.844993 -1.818745 0
M  V30 11 N 2.150236 1.928415 -1.394094 0
M  V30 12 C 0.843791 1.888234 -1.080419 0
M  V30 13 N -0.040087 2.895708 -0.950549 0
M  V30 14 C -1.205181 2.312876 -0.625242 0
M  V30 15 C -2.503376 2.946071 -0.361426 0
M  V30 16 N -1.007535 0.989153 -0.565843 0
M  V30 17 N 0.242814 0.690668 -0.840524 0
M  V30 18 C 0.656822 -2.401536 1.776258 0
M  V30 19 C 2.082060 -2.395779 1.425246 0
M  V30 20 C 0.065336 -2.725650 2.969578 0
M  V30 21 H -1.074295 -2.978119 5.267645 0
M  V30 22 H -2.400953 -4.017360 4.497458 0
M  V30 23 H -2.600190 -2.232034 4.795209 0
M  V30 24 H -3.171510 -2.308663 2.335167 0
M  V30 25 H -2.305523 -1.712114 0.187181 0
M  V30 26 H -0.244681 -2.174166 -1.418679 0
M  V30 27 H 2.770133 -1.377879 -1.273590 0
M  V30 28 H 4.496350 1.384815 -2.771173 0
M  V30 29 H 4.893705 1.363841 -1.043016 0
M  V30 30 H 4.739626 -0.181992 -1.927801 0
M  V30 31 H -3.264193 2.253220 0.008115 0
M  V30 32 H -2.865299 3.472764 -1.276445 0
M  V30 33 H -2.418540 3.743315 0.434346 0
M  V30 34 H 2.527730 -1.405182 1.497761 0
M  V30 35 H 2.601691 -3.016217 2.209999 0
M  V30 36 H 2.268403 -2.933722 0.478269 0
M  V30 37 H 0.760348 -3.016369 3.752872 0
M  V30 END ATOM
M  V30 BEGIN BOND
M  V30 1 1 1 2
M  V30 2 2 2 3
M  V30 3 1 3 4
M  V30 4 2 4 5
M  V30 5 1 5 6
M  V30 6 1 6 7
M  V30 7 2 7 8
M  V30 8 1 8 9
M  V30 9 1 9 10
M  V30 10 2 9 11
M  V30 11 1 11 12
M  V30 12 2 12 13
M  V30 13 1 13 14
M  V30 14 1 14 15
M  V30 15 2 14 16
M  V30 16 1 16 17
M  V30 17 1 5 18
M  V30 18 1 18 19
M  V30 19 2 18 20
M  V30 20 1 20 2
M  V30 21 1 17 7
M  V30 22 1 17 12
M  V30 23 1 1 21
M  V30 24 1 1 22
M  V30 25 1 1 23
M  V30 26 1 3 24
M  V30 27 1 4 25
M  V30 28 1 6 26
M  V30 29 1 8 27
M  V30 30 1 10 28
M  V30 31 1 10 29
M  V30 32 1 10 30
M  V30 33 1 15 31
M  V30 34 1 15 32
M  V30 35 1 15 33
M  V30 36 1 19 34
M  V30 37 1 19 35
M  V30 38 1 19 36
M  V30 39 1 20 37
M  V30 END BOND
M  V30 END CTAB
M  END
>  <Dataset>  (177) 
ChEMBL_Kinases

>  <Ligand_Instance>  (177) 
nan

>  <PDB_ID>  (177) 
nan

>  <Standardized_SMILES>  (177) 
Cc1ccc(Nc2cc(C)nc3nc(C)nn23)c(C)c1

>  <Name>  (177) 
nan

>  <Pocket>  (177) 
nan

>  <ATP_Site>  (177) 
nan

>  <Peripheral>  (177) 
nan

>  <Num_H_Atoms_ProtBoundConf>  (177) 
nan

>  <Num_Resolved_Atoms>  (177) 
nan

>  <Num_Not_Resolved_Atoms>  (177) 
nan

$$$$
CHEMBL1361262
     RDKit          3D

  0  0  0  0  0  0  0  0  0  0999 V3000
M  V30 BEGIN CTAB
M  V30 COUNTS 47 49 0 0 0
M  V30 BEGIN ATOM
M  V30 1 C -2.693922 -5.155691 0.505436 0
M  V30 2 C -1.388354 -4.440791 0.351332 0
M  V30 3 O -1.364173 -3.461689 -0.650452 0
M  V30 4 C -2.243610 -2.392385 -0.586440 0
M  V30 5 O -3.077345 -2.264007 0.343531 0
M  V30 6 N -2.094981 -1.468542 -1.679756 0
M  V30 7 C -1.258235 -1.332917 -2.865594 0
M  V30 8 C -0.393290 -0.090751 -2.797889 0
M  V30 9 N -0.802960 0.672649 -1.630871 0
M  V30 10 C 0.013516 1.123472 -0.533487 0
M  V30 11 C 0.094772 2.450745 -0.103476 0
M  V30 12 C 0.901663 2.798285 0.974227 0
M  V30 13 C 1.638159 1.840179 1.641106 0
M  V30 14 C 2.504720 2.160499 2.769571 0
M  V30 15 O 2.911009 3.359158 2.661399 0
M  V30 16 C 2.889054 1.305175 3.877270 0
M  V30 17 C 2.179211 0.206395 4.308082 0
M  V30 18 C 2.506579 -0.645085 5.335782 0
M  V30 19 C 3.691331 -0.357827 6.013936 0
M  V30 20 C 4.460513 0.745114 5.627412 0
M  V30 21 C 4.037964 1.550103 4.566128 0
M  V30 22 C 1.538939 0.540162 1.194152 0
M  V30 23 C 0.754485 0.135367 0.130099 0
M  V30 24 F 0.679259 -1.155149 -0.290285 0
M  V30 25 C -2.242085 0.973202 -1.683226 0
M  V30 26 C -2.996402 -0.321072 -1.667964 0
M  V30 27 H -2.716948 -6.078387 -0.130236 0
M  V30 28 H -2.852272 -5.516259 1.556160 0
M  V30 29 H -3.583836 -4.541669 0.267362 0
M  V30 30 H -1.109147 -4.018030 1.356940 0
M  V30 31 H -0.576443 -5.183394 0.104745 0
M  V30 32 H -1.936367 -1.337067 -3.739426 0
M  V30 33 H -0.602031 -2.207994 -2.983435 0
M  V30 34 H -0.626539 0.528970 -3.685001 0
M  V30 35 H 0.682460 -0.333832 -2.802747 0
M  V30 36 H -0.494729 3.182317 -0.646636 0
M  V30 37 H 0.938868 3.839617 1.282606 0
M  V30 38 H 1.246140 -0.050609 3.818301 0
M  V30 39 H 1.900866 -1.491577 5.620410 0
M  V30 40 H 4.027713 -0.979782 6.843585 0
M  V30 41 H 5.369699 0.907303 6.201186 0
M  V30 42 H 4.715859 2.372302 4.359660 0
M  V30 43 H 2.082676 -0.298916 1.639268 0
M  V30 44 H -2.376121 1.554691 -2.611994 0
M  V30 45 H -2.461118 1.623061 -0.808225 0
M  V30 46 H -3.646689 -0.297583 -0.762702 0
M  V30 47 H -3.637770 -0.392031 -2.568249 0
M  V30 END ATOM
M  V30 BEGIN BOND
M  V30 1 1 1 2
M  V30 2 1 2 3
M  V30 3 1 3 4
M  V30 4 2 4 5
M  V30 5 1 4 6
M  V30 6 1 6 7
M  V30 7 1 7 8
M  V30 8 1 8 9
M  V30 9 1 9 10
M  V30 10 2 10 11
M  V30 11 1 11 12
M  V30 12 2 12 13
M  V30 13 1 13 14
M  V30 14 2 14 15
M  V30 15 1 14 16
M  V30 16 2 16 17
M  V30 17 1 17 18
M  V30 18 2 18 19
M  V30 19 1 19 20
M  V30 20 2 20 21
M  V30 21 1 13 22
M  V30 22 2 22 23
M  V30 23 1 23 24
M  V30 24 1 9 25
M  V30 25 1 25 26
M  V30 26 1 26 6
M  V30 27 1 23 10
M  V30 28 1 21 16
M  V30 29 1 1 27
M  V30 30 1 1 28
M  V30 31 1 1 29
M  V30 32 1 2 30
M  V30 33 1 2 31
M  V30 34 1 7 32
M  V30 35 1 7 33
M  V30 36 1 8 34
M  V30 37 1 8 35
M  V30 38 1 11 36
M  V30 39 1 12 37
M  V30 40 1 17 38
M  V30 41 1 18 39
M  V30 42 1 19 40
M  V30 43 1 20 41
M  V30 44 1 21 42
M  V30 45 1 22 43
M  V30 46 1 25 44
M  V30 47 1 25 45
M  V30 48 1 26 46
M  V30 49 1 26 47
M  V30 END BOND
M  V30 END CTAB
M  END
>  <Dataset>  (178) 
ChEMBL_Kinases

>  <Ligand_Instance>  (178) 
nan

>  <PDB_ID>  (178) 
nan

>  <Standardized_SMILES>  (178) 
CCOC(=O)N1CCN(c2ccc(C(=O)c3ccccc3)cc2F)CC1

>  <Name>  (178) 
nan

>  <Pocket>  (178) 
nan

>  <ATP_Site>  (178) 
nan

>  <Peripheral>  (178) 
nan

>  <Num_H_Atoms_ProtBoundConf>  (178) 
nan

>  <Num_Resolved_Atoms>  (178) 
nan

>  <Num_Not_Resolved_Atoms>  (178) 
nan

$$$$
CHEMBL1361294
     RDKit          3D

  0  0  0  0  0  0  0  0  0  0999 V3000
M  V30 BEGIN CTAB
M  V30 COUNTS 44 48 0 0 0
M  V30 BEGIN ATOM
M  V30 1 C -2.033810 -5.659274 -2.275454 0
M  V30 2 C -1.842483 -4.643356 -1.207447 0
M  V30 3 N -1.975028 -4.947316 0.095127 0
M  V30 4 C -1.805588 -4.035671 1.075356 0
M  V30 5 C -1.944273 -4.363779 2.421900 0
M  V30 6 C -1.757054 -3.384231 3.388033 0
M  V30 7 C -1.434615 -2.079046 3.078941 0
M  V30 8 C -1.289878 -1.726731 1.734629 0
M  V30 9 C -1.482760 -2.722305 0.800292 0
M  V30 10 C -1.340281 -2.386367 -0.540716 0
M  V30 11 O -1.047332 -1.270839 -1.165865 0
M  V30 12 C -1.025472 -1.438767 -2.473404 0
M  V30 13 C -0.713265 -0.277629 -3.296780 0
M  V30 14 O -1.285382 0.043307 -4.382174 0
M  V30 15 N 0.309362 0.642480 -2.938002 0
M  V30 16 C 0.588033 1.784385 -3.783823 0
M  V30 17 C 0.288258 3.078470 -3.049663 0
M  V30 18 C 0.479904 2.938888 -1.590687 0
M  V30 19 C 0.208326 4.052446 -0.821524 0
M  V30 20 C 0.356873 4.019868 0.564284 0
M  V30 21 C 0.780110 2.872013 1.203201 0
M  V30 22 C 1.054951 1.752770 0.444472 0
M  V30 23 C 0.896305 1.822792 -0.921475 0
M  V30 24 C 1.185866 0.626003 -1.776102 0
M  V30 25 C -1.324260 -2.757506 -2.747868 0
M  V30 26 C -1.519865 -3.340093 -1.512868 0
M  V30 27 H -1.532501 -5.380145 -3.213373 0
M  V30 28 H -3.112133 -5.808178 -2.511826 0
M  V30 29 H -1.611329 -6.616835 -1.878495 0
M  V30 30 H -2.197103 -5.381741 2.714971 0
M  V30 31 H -1.859344 -3.609201 4.457549 0
M  V30 32 H -1.298108 -1.349230 3.876705 0
M  V30 33 H -1.036438 -0.712435 1.455088 0
M  V30 34 H -0.032886 1.778941 -4.703858 0
M  V30 35 H 1.670857 1.776356 -4.005472 0
M  V30 36 H 0.921896 3.862307 -3.494638 0
M  V30 37 H -0.810441 3.262261 -3.195044 0
M  V30 38 H -0.128496 5.022903 -1.158223 0
M  V30 39 H 0.166038 4.842460 1.242231 0
M  V30 40 H 0.924247 2.751680 2.268993 0
M  V30 41 H 1.393215 0.804795 0.854630 0
M  V30 42 H 2.218724 0.718018 -2.132495 0
M  V30 43 H 1.086936 -0.311920 -1.183273 0
M  V30 44 H -1.363129 -3.121591 -3.748791 0
M  V30 END ATOM
M  V30 BEGIN BOND
M  V30 1 1 1 2
M  V30 2 2 2 3
M  V30 3 1 3 4
M  V30 4 2 4 5
M  V30 5 1 5 6
M  V30 6 2 6 7
M  V30 7 1 7 8
M  V30 8 2 8 9
M  V30 9 1 9 10
M  V30 10 1 10 11
M  V30 11 1 11 12
M  V30 12 1 12 13
M  V30 13 2 13 14
M  V30 14 1 13 15
M  V30 15 1 15 16
M  V30 16 1 16 17
M  V30 17 1 17 18
M  V30 18 2 18 19
M  V30 19 1 19 20
M  V30 20 2 20 21
M  V30 21 1 21 22
M  V30 22 2 22 23
M  V30 23 1 23 24
M  V30 24 2 12 25
M  V30 25 1 25 26
M  V30 26 1 26 2
M  V30 27 1 9 4
M  V30 28 2 26 10
M  V30 29 1 24 15
M  V30 30 1 23 18
M  V30 31 1 1 27
M  V30 32 1 1 28
M  V30 33 1 1 29
M  V30 34 1 5 30
M  V30 35 1 6 31
M  V30 36 1 7 32
M  V30 37 1 8 33
M  V30 38 1 16 34
M  V30 39 1 16 35
M  V30 40 1 17 36
M  V30 41 1 17 37
M  V30 42 1 19 38
M  V30 43 1 20 39
M  V30 44 1 21 40
M  V30 45 1 22 41
M  V30 46 1 24 42
M  V30 47 1 24 43
M  V30 48 1 25 44
M  V30 END BOND
M  V30 END CTAB
M  END
>  <Dataset>  (179) 
ChEMBL_Kinases

>  <Ligand_Instance>  (179) 
nan

>  <PDB_ID>  (179) 
nan

>  <Standardized_SMILES>  (179) 
Cc1nc2ccccc2c2oc(C(=O)N3CCc4ccccc4C3)cc12

>  <Name>  (179) 
nan

>  <Pocket>  (179) 
nan

>  <ATP_Site>  (179) 
nan

>  <Peripheral>  (179) 
nan

>  <Num_H_Atoms_ProtBoundConf>  (179) 
nan

>  <Num_Resolved_Atoms>  (179) 
nan

>  <Num_Not_Resolved_Atoms>  (179) 
nan

$$$$
CHEMBL1361654
     RDKit          3D

  0  0  0  0  0  0  0  0  0  0999 V3000
M  V30 BEGIN CTAB
M  V30 COUNTS 45 46 0 0 0
M  V30 BEGIN ATOM
M  V30 1 C 0.593718 -5.002194 -1.101509 0
M  V30 2 C 1.862810 -4.218050 -0.862043 0
M  V30 3 N 1.751687 -3.306357 0.243073 0
M  V30 4 C 2.109287 -3.765618 1.583388 0
M  V30 5 C 0.930088 -4.360650 2.314778 0
M  V30 6 C 1.286015 -2.023380 -0.142768 0
M  V30 7 O 1.129614 -2.157317 -1.385296 0
M  V30 8 C 1.031813 -0.805397 0.666952 0
M  V30 9 C 2.295333 -0.368074 1.336391 0
M  V30 10 C 2.647336 1.071309 1.033614 0
M  V30 11 C 1.470674 1.994000 1.182184 0
M  V30 12 N 0.295990 1.466882 0.562893 0
M  V30 13 C -0.973947 2.065245 0.784636 0
M  V30 14 C -0.965016 3.162693 1.619709 0
M  V30 15 C -2.177478 3.809196 1.888681 0
M  V30 16 C -3.338239 3.316585 1.302038 0
M  V30 17 N -4.579418 3.966958 1.568694 0 CHG=1 VAL=4
M  V30 18 O -4.640678 4.964020 2.314776 0
M  V30 19 O -5.718352 3.447303 0.965419 0 CHG=-1 VAL=1
M  V30 20 C -3.337023 2.217651 0.467689 0
M  V30 21 C -2.132191 1.586234 0.208779 0
M  V30 22 C 0.606424 0.315131 -0.258675 0
M  V30 23 H 0.752556 -5.564809 -2.045834 0
M  V30 24 H 0.417097 -5.770317 -0.324980 0
M  V30 25 H -0.272198 -4.332307 -1.266871 0
M  V30 26 H 2.159229 -3.737488 -1.793641 0
M  V30 27 H 2.640350 -4.985074 -0.593347 0
M  V30 28 H 2.472108 -2.913475 2.193769 0
M  V30 29 H 2.979055 -4.464688 1.538530 0
M  V30 30 H 0.686375 -3.792540 3.254121 0
M  V30 31 H -0.008365 -4.342277 1.732031 0
M  V30 32 H 1.139970 -5.408624 2.663157 0
M  V30 33 H 0.277058 -0.981514 1.459958 0
M  V30 34 H 2.269580 -0.538910 2.452775 0
M  V30 35 H 3.143081 -0.971965 0.954513 0
M  V30 36 H 3.416483 1.383971 1.780035 0
M  V30 37 H 3.117347 1.178939 0.043918 0
M  V30 38 H 1.730379 2.949281 0.679290 0
M  V30 39 H 1.328460 2.224070 2.260784 0
M  V30 40 H -0.144685 3.627189 2.122593 0
M  V30 41 H -2.268341 4.673594 2.528497 0
M  V30 42 H -4.235453 1.823666 0.003961 0
M  V30 43 H -2.111294 0.730309 -0.437393 0
M  V30 44 H -0.270980 -0.053088 -0.831953 0
M  V30 45 H 1.462571 0.516881 -0.947168 0
M  V30 END ATOM
M  V30 BEGIN BOND
M  V30 1 1 1 2
M  V30 2 1 2 3
M  V30 3 1 3 4
M  V30 4 1 4 5
M  V30 5 1 3 6
M  V30 6 2 6 7
M  V30 7 1 6 8
M  V30 8 1 8 9
M  V30 9 1 9 10
M  V30 10 1 10 11
M  V30 11 1 11 12
M  V30 12 1 12 13
M  V30 13 2 13 14
M  V30 14 1 14 15
M  V30 15 2 15 16
M  V30 16 1 16 17
M  V30 17 2 17 18
M  V30 18 1 17 19
M  V30 19 1 16 20
M  V30 20 2 20 21
M  V30 21 1 12 22
M  V30 22 1 22 8
M  V30 23 1 21 13
M  V30 24 1 1 23
M  V30 25 1 1 24
M  V30 26 1 1 25
M  V30 27 1 2 26
M  V30 28 1 2 27
M  V30 29 1 4 28
M  V30 30 1 4 29
M  V30 31 1 5 30
M  V30 32 1 5 31
M  V30 33 1 5 32
M  V30 34 1 8 33
M  V30 35 1 9 34
M  V30 36 1 9 35
M  V30 37 1 10 36
M  V30 38 1 10 37
M  V30 39 1 11 38
M  V30 40 1 11 39
M  V30 41 1 14 40
M  V30 42 1 15 41
M  V30 43 1 20 42
M  V30 44 1 21 43
M  V30 45 1 22 44
M  V30 46 1 22 45
M  V30 END BOND
M  V30 END CTAB
M  END
>  <Dataset>  (180) 
ChEMBL_Kinases

>  <Ligand_Instance>  (180) 
nan

>  <PDB_ID>  (180) 
nan

>  <Standardized_SMILES>  (180) 
CCN(CC)C(=O)C1CCCN(c2ccc([N+](=O)[O-])cc2)C1

>  <Name>  (180) 
nan

>  <Pocket>  (180) 
nan

>  <ATP_Site>  (180) 
nan

>  <Peripheral>  (180) 
nan

>  <Num_H_Atoms_ProtBoundConf>  (180) 
nan

>  <Num_Resolved_Atoms>  (180) 
nan

>  <Num_Not_Resolved_Atoms>  (180) 
nan

$$$$
CHEMBL1362027
     RDKit          3D

  0  0  0  0  0  0  0  0  0  0999 V3000
M  V30 BEGIN CTAB
M  V30 COUNTS 58 61 0 0 0
M  V30 BEGIN ATOM
M  V30 1 C 6.110646 -3.441907 4.278704 0
M  V30 2 O 4.884203 -2.867971 3.885435 0
M  V30 3 C 4.787025 -1.756009 3.080373 0
M  V30 4 O 5.774878 -1.141597 2.615857 0
M  V30 5 N 3.447948 -1.375662 2.829992 0
M  V30 6 C 2.968715 -0.288720 2.050210 0
M  V30 7 C 2.716999 0.980975 2.525767 0
M  V30 8 C 2.253206 1.958603 1.680290 0
M  V30 9 C 2.011277 1.758626 0.342306 0
M  V30 10 S 1.423835 2.970232 -0.768232 0
M  V30 11 O 1.961526 2.633176 -2.135940 0
M  V30 12 O 1.956257 4.325512 -0.399598 0
M  V30 13 N -0.306353 2.955867 -0.757899 0
M  V30 14 C -0.778519 3.276119 0.540311 0
M  V30 15 C -1.556929 2.174193 1.211488 0
M  V30 16 C -2.632804 1.610732 0.320012 0
M  V30 17 C -2.193845 1.369599 -1.077470 0
M  V30 18 C -2.363203 -0.083260 -1.437663 0
M  V30 19 O -1.356581 -0.756664 -1.789039 0
M  V30 20 N -3.591796 -0.796377 -1.419477 0
M  V30 21 C -3.261722 -2.139838 -1.835082 0
M  V30 22 C -3.278922 -2.567497 -3.145847 0
M  V30 23 C -2.930581 -3.897054 -3.401883 0
M  V30 24 C -2.587297 -4.712890 -2.325749 0
M  V30 25 C -2.574655 -4.268163 -1.012272 0
M  V30 26 C -2.923279 -2.940693 -0.765139 0
M  V30 27 O -2.897178 -2.543489 0.552225 0
M  V30 28 C -2.862940 -3.543283 1.578292 0
M  V30 29 C -1.755629 -4.541637 1.219566 0
M  V30 30 O -2.216264 -5.159214 0.006273 0
M  V30 31 C -0.788351 1.786761 -1.379285 0
M  V30 32 C 2.264790 0.478059 -0.139540 0
M  V30 33 C 2.736993 -0.539453 0.693168 0
M  V30 34 H 6.813054 -3.313030 3.410958 0
M  V30 35 H 6.549810 -2.872192 5.101673 0
M  V30 36 H 6.038487 -4.532497 4.465895 0
M  V30 37 H 2.579247 -1.826177 3.173687 0
M  V30 38 H 2.902942 1.145786 3.569379 0
M  V30 39 H 2.069302 2.926559 2.076175 0
M  V30 40 H -1.527510 4.112121 0.399240 0
M  V30 41 H -0.033375 3.704523 1.233123 0
M  V30 42 H -2.015319 2.549258 2.147019 0
M  V30 43 H -0.824365 1.396053 1.510185 0
M  V30 44 H -3.539569 2.270487 0.364183 0
M  V30 45 H -2.948246 0.642955 0.758239 0
M  V30 46 H -2.863704 1.930044 -1.759828 0
M  V30 47 H -4.432940 -0.249748 -1.130212 0
M  V30 48 H -3.561789 -1.852349 -3.913932 0
M  V30 49 H -2.940184 -4.243420 -4.423524 0
M  V30 50 H -2.319128 -5.736994 -2.519087 0
M  V30 51 H -2.680705 -3.061580 2.542191 0
M  V30 52 H -3.788879 -4.154029 1.597233 0
M  V30 53 H -1.679326 -5.265784 2.051069 0
M  V30 54 H -0.798146 -3.982953 1.039074 0
M  V30 55 H -0.627905 1.903000 -2.480132 0
M  V30 56 H -0.128670 0.938205 -1.078846 0
M  V30 57 H 2.126298 0.164774 -1.168606 0
M  V30 58 H 2.933780 -1.547943 0.301956 0
M  V30 END ATOM
M  V30 BEGIN BOND
M  V30 1 1 1 2
M  V30 2 1 2 3
M  V30 3 2 3 4
M  V30 4 1 3 5
M  V30 5 1 5 6
M  V30 6 2 6 7
M  V30 7 1 7 8
M  V30 8 2 8 9
M  V30 9 1 9 10
M  V30 10 2 10 11
M  V30 11 2 10 12
M  V30 12 1 10 13
M  V30 13 1 13 14
M  V30 14 1 14 15
M  V30 15 1 15 16
M  V30 16 1 16 17
M  V30 17 1 17 18
M  V30 18 2 18 19
M  V30 19 1 18 20
M  V30 20 1 20 21
M  V30 21 2 21 22
M  V30 22 1 22 23
M  V30 23 2 23 24
M  V30 24 1 24 25
M  V30 25 2 25 26
M  V30 26 1 26 27
M  V30 27 1 27 28
M  V30 28 1 28 29
M  V30 29 1 29 30
M  V30 30 1 17 31
M  V30 31 1 9 32
M  V30 32 2 32 33
M  V30 33 1 33 6
M  V30 34 1 31 13
M  V30 35 1 26 21
M  V30 36 1 30 25
M  V30 37 1 1 34
M  V30 38 1 1 35
M  V30 39 1 1 36
M  V30 40 1 5 37
M  V30 41 1 7 38
M  V30 42 1 8 39
M  V30 43 1 14 40
M  V30 44 1 14 41
M  V30 45 1 15 42
M  V30 46 1 15 43
M  V30 47 1 16 44
M  V30 48 1 16 45
M  V30 49 1 17 46
M  V30 50 1 20 47
M  V30 51 1 22 48
M  V30 52 1 23 49
M  V30 53 1 24 50
M  V30 54 1 28 51
M  V30 55 1 28 52
M  V30 56 1 29 53
M  V30 57 1 29 54
M  V30 58 1 31 55
M  V30 59 1 31 56
M  V30 60 1 32 57
M  V30 61 1 33 58
M  V30 END BOND
M  V30 END CTAB
M  END
>  <Dataset>  (181) 
ChEMBL_Kinases

>  <Ligand_Instance>  (181) 
nan

>  <PDB_ID>  (181) 
nan

>  <Standardized_SMILES>  (181) 
COC(=O)Nc1ccc(S(=O)(=O)N2CCCC(C(=O)Nc3cccc4c3OCCO4)C2)cc1

>  <Name>  (181) 
nan

>  <Pocket>  (181) 
nan

>  <ATP_Site>  (181) 
nan

>  <Peripheral>  (181) 
nan

>  <Num_H_Atoms_ProtBoundConf>  (181) 
nan

>  <Num_Resolved_Atoms>  (181) 
nan

>  <Num_Not_Resolved_Atoms>  (181) 
nan

$$$$
CHEMBL1362051
     RDKit          3D

  0  0  0  0  0  0  0  0  0  0999 V3000
M  V30 BEGIN CTAB
M  V30 COUNTS 48 51 0 0 0
M  V30 BEGIN ATOM
M  V30 1 C 0.266962 -6.313971 1.405136 0
M  V30 2 O -0.580576 -5.203400 1.404993 0
M  V30 3 C -0.421523 -4.100599 0.588588 0
M  V30 4 C 0.600810 -3.983819 -0.318059 0
M  V30 5 C 0.739008 -2.855366 -1.133398 0
M  V30 6 C -0.139304 -1.817460 -1.063153 0
M  V30 7 C -0.001236 -0.642815 -1.911833 0
M  V30 8 N 0.989996 -0.594469 -2.763809 0
M  V30 9 O 0.983001 0.561764 -3.481421 0
M  V30 10 C 0.298868 1.510838 -2.672031 0 CFG=2
M  V30 11 C 1.152582 1.877399 -1.485899 0
M  V30 12 O 2.329163 2.282724 -1.608633 0
M  V30 13 N 0.347069 1.661976 -0.309458 0
M  V30 14 C 0.845838 1.843642 1.035365 0
M  V30 15 C 0.080295 2.858897 1.837664 0
M  V30 16 C 0.899551 3.067975 3.110797 0
M  V30 17 C 1.052425 1.795695 3.893082 0
M  V30 18 C 1.716115 0.749501 3.013095 0
M  V30 19 C 0.783810 0.553086 1.817380 0
M  V30 20 C -0.946099 1.264325 -0.743077 0
M  V30 21 O -1.915789 1.530242 0.035887 0
M  V30 22 C -0.762539 0.615401 -2.063231 0 CFG=2
M  V30 23 C -1.146387 -1.959553 -0.153297 0
M  V30 24 C -1.320406 -3.062097 0.675172 0
M  V30 25 O -2.347230 -3.159785 1.573564 0
M  V30 26 C -3.321076 -2.170117 1.751600 0
M  V30 27 H 0.723594 -6.539031 0.440753 0
M  V30 28 H -0.367757 -7.207348 1.675292 0
M  V30 29 H 1.024018 -6.277658 2.230154 0
M  V30 30 H 1.324634 -4.785118 -0.409542 0
M  V30 31 H 1.579408 -2.857732 -1.817450 0
M  V30 32 H -0.090850 2.370115 -3.210677 0
M  V30 33 H 1.904853 2.163512 1.048364 0
M  V30 34 H -0.924078 2.470578 2.124100 0
M  V30 35 H -0.017904 3.829757 1.341932 0
M  V30 36 H 1.924171 3.351648 2.745271 0
M  V30 37 H 0.527485 3.902416 3.701679 0
M  V30 38 H 0.087138 1.409784 4.225502 0
M  V30 39 H 1.750207 2.018404 4.724409 0
M  V30 40 H 2.650637 1.177038 2.560088 0
M  V30 41 H 1.884807 -0.193866 3.546737 0
M  V30 42 H -0.256107 0.360037 2.181773 0
M  V30 43 H 1.199354 -0.254049 1.199296 0
M  V30 44 H -1.676523 0.526776 -2.649361 0
M  V30 45 H -1.897865 -1.198141 -0.017386 0
M  V30 46 H -2.845205 -1.195338 1.980366 0
M  V30 47 H -3.957825 -2.101267 0.843185 0
M  V30 48 H -3.985497 -2.447739 2.595217 0
M  V30 END ATOM
M  V30 BEGIN BOND
M  V30 1 1 1 2
M  V30 2 1 2 3
M  V30 3 2 3 4
M  V30 4 1 4 5
M  V30 5 2 5 6
M  V30 6 1 6 7
M  V30 7 2 7 8
M  V30 8 1 8 9
M  V30 9 1 9 10
M  V30 10 1 10 11
M  V30 11 2 11 12
M  V30 12 1 11 13
M  V30 13 1 13 14
M  V30 14 1 14 15
M  V30 15 1 15 16
M  V30 16 1 16 17
M  V30 17 1 17 18
M  V30 18 1 18 19
M  V30 19 1 13 20
M  V30 20 2 20 21
M  V30 21 1 20 22
M  V30 22 1 6 23
M  V30 23 2 23 24
M  V30 24 1 24 25
M  V30 25 1 25 26
M  V30 26 1 24 3
M  V30 27 1 22 7
M  V30 28 1 22 10
M  V30 29 1 19 14
M  V30 30 1 1 27
M  V30 31 1 1 28
M  V30 32 1 1 29
M  V30 33 1 4 30
M  V30 34 1 5 31
M  V30 35 1 10 32 CFG=3
M  V30 36 1 14 33
M  V30 37 1 15 34
M  V30 38 1 15 35
M  V30 39 1 16 36
M  V30 40 1 16 37
M  V30 41 1 17 38
M  V30 42 1 17 39
M  V30 43 1 18 40
M  V30 44 1 18 41
M  V30 45 1 19 42
M  V30 46 1 19 43
M  V30 47 1 22 44 CFG=3
M  V30 48 1 23 45
M  V30 49 1 26 46
M  V30 50 1 26 47
M  V30 51 1 26 48
M  V30 END BOND
M  V30 END CTAB
M  END
>  <Dataset>  (182) 
ChEMBL_Kinases

>  <Ligand_Instance>  (182) 
nan

>  <PDB_ID>  (182) 
nan

>  <Standardized_SMILES>  (182) 
COc1ccc(C2=NO[C@@H]3C(=O)N(C4CCCCC4)C(=O)[C@H]23)cc1OC

>  <Name>  (182) 
nan

>  <Pocket>  (182) 
nan

>  <ATP_Site>  (182) 
nan

>  <Peripheral>  (182) 
nan

>  <Num_H_Atoms_ProtBoundConf>  (182) 
nan

>  <Num_Resolved_Atoms>  (182) 
nan

>  <Num_Not_Resolved_Atoms>  (182) 
nan

$$$$
CHEMBL1362068
     RDKit          3D

  0  0  0  0  0  0  0  0  0  0999 V3000
M  V30 BEGIN CTAB
M  V30 COUNTS 48 51 0 0 0
M  V30 BEGIN ATOM
M  V30 1 C -1.312509 -7.592927 3.422441 0
M  V30 2 O -1.975374 -6.932090 2.366014 0
M  V30 3 C -1.289893 -6.098349 1.501989 0
M  V30 4 C 0.062699 -5.777191 1.504507 0
M  V30 5 C 0.514080 -4.916669 0.533832 0
M  V30 6 C -0.315434 -4.372117 -0.423966 0
M  V30 7 O 0.363582 -3.534268 -1.295273 0
M  V30 8 C 0.541098 -2.174906 -1.110151 0
M  V30 9 N 1.240008 -1.576685 -2.102614 0
M  V30 10 C 1.498435 -0.254387 -2.070885 0
M  V30 11 C 1.019228 0.452126 -0.986064 0
M  V30 12 N 1.249261 1.781412 -0.902683 0
M  V30 13 C 0.789750 2.509539 0.155891 0
M  V30 14 C 1.114217 3.933127 0.110073 0
M  V30 15 C 0.233380 4.959098 0.385984 0
M  V30 16 C 0.669088 6.287125 0.306381 0
M  V30 17 C 1.976656 6.596121 -0.046430 0
M  V30 18 C 2.869133 5.562183 -0.325815 0
M  V30 19 C 4.226030 5.857020 -0.692742 0
M  V30 20 N 5.331746 6.090260 -0.996388 0
M  V30 21 C 2.422984 4.259457 -0.242534 0
M  V30 22 C 0.079889 1.876269 1.154603 0
M  V30 23 O -0.299055 2.605822 2.074307 0
M  V30 24 N -0.166067 0.561923 1.104181 0
M  V30 25 C -0.919942 -0.085703 2.173833 0
M  V30 26 C -2.405275 -0.075442 1.877135 0
M  V30 27 C -3.119391 -0.731781 2.969511 0
M  V30 28 N -3.686472 -1.230999 3.838035 0
M  V30 29 C 0.296834 -0.132563 0.051923 0
M  V30 30 N 0.077579 -1.468163 -0.052388 0
M  V30 31 C -1.655398 -4.688923 -0.428206 0
M  V30 32 C -2.125979 -5.560100 0.550295 0
M  V30 33 H -0.302292 -7.890619 3.067213 0
M  V30 34 H -1.208742 -6.924618 4.313592 0
M  V30 35 H -1.857858 -8.532862 3.696367 0
M  V30 36 H 0.622333 -6.248754 2.285032 0
M  V30 37 H 1.592574 -4.725504 0.619548 0
M  V30 38 H 2.056477 0.239450 -2.857443 0
M  V30 39 H -0.779921 4.682746 0.658254 0
M  V30 40 H -0.054540 7.060287 0.530888 0
M  V30 41 H 2.259503 7.625703 -0.092916 0
M  V30 42 H 3.136272 3.468134 -0.464738 0
M  V30 43 H -0.524959 -1.115902 2.261425 0
M  V30 44 H -0.698279 0.499228 3.089597 0
M  V30 45 H -2.728957 0.997520 1.855208 0
M  V30 46 H -2.639273 -0.469185 0.886046 0
M  V30 47 H -2.233031 -4.221705 -1.208682 0
M  V30 48 H -3.200171 -5.739351 0.450539 0
M  V30 END ATOM
M  V30 BEGIN BOND
M  V30 1 1 1 2
M  V30 2 1 2 3
M  V30 3 2 3 4
M  V30 4 1 4 5
M  V30 5 2 5 6
M  V30 6 1 6 7
M  V30 7 1 7 8
M  V30 8 2 8 9
M  V30 9 1 9 10
M  V30 10 2 10 11
M  V30 11 1 11 12
M  V30 12 2 12 13
M  V30 13 1 13 14
M  V30 14 2 14 15
M  V30 15 1 15 16
M  V30 16 2 16 17
M  V30 17 1 17 18
M  V30 18 1 18 19
M  V30 19 3 19 20
M  V30 20 2 18 21
M  V30 21 1 13 22
M  V30 22 2 22 23
M  V30 23 1 22 24
M  V30 24 1 24 25
M  V30 25 1 25 26
M  V30 26 1 26 27
M  V30 27 3 27 28
M  V30 28 1 24 29
M  V30 29 2 29 30
M  V30 30 1 6 31
M  V30 31 2 31 32
M  V30 32 1 32 3
M  V30 33 1 30 8
M  V30 34 1 29 11
M  V30 35 1 21 14
M  V30 36 1 1 33
M  V30 37 1 1 34
M  V30 38 1 1 35
M  V30 39 1 4 36
M  V30 40 1 5 37
M  V30 41 1 10 38
M  V30 42 1 15 39
M  V30 43 1 16 40
M  V30 44 1 17 41
M  V30 45 1 21 42
M  V30 46 1 25 43
M  V30 47 1 25 44
M  V30 48 1 26 45
M  V30 49 1 26 46
M  V30 50 1 31 47
M  V30 51 1 32 48
M  V30 END BOND
M  V30 END CTAB
M  END
>  <Dataset>  (183) 
ChEMBL_Kinases

>  <Ligand_Instance>  (183) 
nan

>  <PDB_ID>  (183) 
nan

>  <Standardized_SMILES>  (183) 
COc1ccc(Oc2ncc3nc(-c4cccc(C#N)c4)c(=O)n(CCC#N)c3n2)cc1

>  <Name>  (183) 
nan

>  <Pocket>  (183) 
nan

>  <ATP_Site>  (183) 
nan

>  <Peripheral>  (183) 
nan

>  <Num_H_Atoms_ProtBoundConf>  (183) 
nan

>  <Num_Resolved_Atoms>  (183) 
nan

>  <Num_Not_Resolved_Atoms>  (183) 
nan

$$$$
CHEMBL1362196
     RDKit          3D

  0  0  0  0  0  0  0  0  0  0999 V3000
M  V30 BEGIN CTAB
M  V30 COUNTS 38 39 0 0 0
M  V30 BEGIN ATOM
M  V30 1 C -2.836353 -7.198336 2.644630 0
M  V30 2 C -2.590300 -6.270452 1.509204 0
M  V30 3 C -1.369355 -5.634283 1.349550 0
M  V30 4 C -1.480476 -4.850437 0.202795 0
M  V30 5 N -0.589295 -3.958679 -0.503366 0
M  V30 6 C -0.639365 -2.601147 -0.081773 0
M  V30 7 O -1.409446 -2.203656 0.845384 0
M  V30 8 C 0.262943 -1.666106 -0.788081 0
M  V30 9 C 0.121049 -0.243330 -0.251086 0
M  V30 10 C 1.050883 0.691572 -0.986862 0
M  V30 11 C 0.850757 2.044590 -0.406238 0
M  V30 12 O 0.015224 2.164613 0.515808 0
M  V30 13 N 1.568661 3.166337 -0.865700 0
M  V30 14 C 1.421932 4.523823 -0.339904 0
M  V30 15 C 1.752107 4.547667 1.060403 0
M  V30 16 C 2.972914 4.764256 1.701328 0
M  V30 17 C 3.080498 4.748693 3.058650 0
M  V30 18 C 1.738144 4.473255 3.752201 0
M  V30 19 S 0.558287 4.285525 2.321130 0
M  V30 20 N -2.745019 -5.054119 -0.259857 0
M  V30 21 O -3.373114 -5.884438 0.516293 0
M  V30 22 H -2.330762 -8.170743 2.476889 0
M  V30 23 H -2.434183 -6.801543 3.611853 0
M  V30 24 H -3.933627 -7.296308 2.830433 0
M  V30 25 H -0.444613 -5.628419 1.885288 0
M  V30 26 H 0.049985 -4.289202 -1.273144 0
M  V30 27 H 0.182175 -1.711173 -1.884870 0
M  V30 28 H 1.313575 -1.966974 -0.556162 0
M  V30 29 H 0.299671 -0.276796 0.827995 0
M  V30 30 H -0.942909 0.017659 -0.417392 0
M  V30 31 H 0.706487 0.718278 -2.054334 0
M  V30 32 H 2.089002 0.364565 -0.941233 0
M  V30 33 H 2.246838 2.968339 -1.642084 0
M  V30 34 H 0.375444 4.868334 -0.465779 0
M  V30 35 H 2.125366 5.193588 -0.908356 0
M  V30 36 H 3.816604 4.942924 1.055830 0
M  V30 37 H 4.015243 4.914258 3.560538 0
M  V30 38 H 1.979745 4.486732 4.982204 0
M  V30 END ATOM
M  V30 BEGIN BOND
M  V30 1 1 1 2
M  V30 2 2 2 3
M  V30 3 1 3 4
M  V30 4 1 4 5
M  V30 5 1 5 6
M  V30 6 2 6 7
M  V30 7 1 6 8
M  V30 8 1 8 9
M  V30 9 1 9 10
M  V30 10 1 10 11
M  V30 11 2 11 12
M  V30 12 1 11 13
M  V30 13 1 13 14
M  V30 14 1 14 15
M  V30 15 2 15 16
M  V30 16 1 16 17
M  V30 17 2 17 18
M  V30 18 1 18 19
M  V30 19 2 4 20
M  V30 20 1 20 21
M  V30 21 1 21 2
M  V30 22 1 19 15
M  V30 23 1 1 22
M  V30 24 1 1 23
M  V30 25 1 1 24
M  V30 26 1 3 25
M  V30 27 1 5 26
M  V30 28 1 8 27
M  V30 29 1 8 28
M  V30 30 1 9 29
M  V30 31 1 9 30
M  V30 32 1 10 31
M  V30 33 1 10 32
M  V30 34 1 13 33
M  V30 35 1 14 34
M  V30 36 1 14 35
M  V30 37 1 16 36
M  V30 38 1 17 37
M  V30 39 1 18 38
M  V30 END BOND
M  V30 END CTAB
M  END
>  <Dataset>  (184) 
ChEMBL_Kinases

>  <Ligand_Instance>  (184) 
nan

>  <PDB_ID>  (184) 
nan

>  <Standardized_SMILES>  (184) 
Cc1cc(NC(=O)CCCC(=O)NCc2cccs2)no1

>  <Name>  (184) 
nan

>  <Pocket>  (184) 
nan

>  <ATP_Site>  (184) 
nan

>  <Peripheral>  (184) 
nan

>  <Num_H_Atoms_ProtBoundConf>  (184) 
nan

>  <Num_Resolved_Atoms>  (184) 
nan

>  <Num_Not_Resolved_Atoms>  (184) 
nan

$$$$
CHEMBL1362206
     RDKit          3D

  0  0  0  0  0  0  0  0  0  0999 V3000
M  V30 BEGIN CTAB
M  V30 COUNTS 39 41 0 0 0
M  V30 BEGIN ATOM
M  V30 1 C 1.795223 -5.441717 0.963673 0
M  V30 2 O 0.917934 -4.691197 0.140411 0
M  V30 3 C 1.128020 -3.336127 -0.137056 0
M  V30 4 O 2.141522 -2.839362 0.392253 0
M  V30 5 C 0.068530 -2.825644 -1.009805 0
M  V30 6 C -1.056110 -3.292735 -1.623094 0
M  V30 7 C -1.593385 -2.228313 -2.313483 0
M  V30 8 C -0.772680 -1.157647 -2.092608 0
M  V30 9 C -0.970295 0.217345 -2.649130 0
M  V30 10 S -1.976603 1.199538 -1.471418 0
M  V30 11 C -0.998640 1.433680 0.025172 0
M  V30 12 N -0.200996 2.509573 0.116741 0
M  V30 13 C 0.559968 2.731022 1.218191 0
M  V30 14 C 1.423658 3.922189 1.288167 0
M  V30 15 F 1.075661 4.721711 2.355517 0
M  V30 16 F 1.216221 4.714130 0.155591 0
M  V30 17 F 2.754384 3.602914 1.356687 0
M  V30 18 C 0.536333 1.851082 2.283380 0
M  V30 19 C -0.297456 0.742893 2.167305 0
M  V30 20 C -1.078782 0.501996 1.053497 0
M  V30 21 C -1.916589 -0.643775 0.976579 0
M  V30 22 N -2.602527 -1.550876 0.921985 0
M  V30 23 C -0.168129 -0.061492 3.417768 0
M  V30 24 C 1.282744 0.269117 3.784745 0
M  V30 25 C 1.226399 1.792574 3.602410 0
M  V30 26 O 0.209842 -1.552174 -1.308884 0
M  V30 27 H 1.878922 -6.495787 0.680969 0
M  V30 28 H 2.828424 -5.018798 0.991306 0
M  V30 29 H 1.367568 -5.360432 2.000262 0
M  V30 30 H -1.316260 -4.319270 -1.480469 0
M  V30 31 H -2.498231 -2.323060 -2.893006 0
M  V30 32 H -1.478941 0.126875 -3.617394 0
M  V30 33 H -0.018863 0.740659 -2.771082 0
M  V30 34 H -0.299840 -1.136136 3.214454 0
M  V30 35 H -0.829715 0.270113 4.221066 0
M  V30 36 H 1.969142 -0.104440 3.018750 0
M  V30 37 H 1.524549 -0.021731 4.806786 0
M  V30 38 H 2.221973 2.241378 3.596313 0
M  V30 39 H 0.533987 2.171118 4.363564 0
M  V30 END ATOM
M  V30 BEGIN BOND
M  V30 1 1 1 2
M  V30 2 1 2 3
M  V30 3 2 3 4
M  V30 4 1 3 5
M  V30 5 2 5 6
M  V30 6 1 6 7
M  V30 7 2 7 8
M  V30 8 1 8 9
M  V30 9 1 9 10
M  V30 10 1 10 11
M  V30 11 2 11 12
M  V30 12 1 12 13
M  V30 13 1 13 14
M  V30 14 1 14 15
M  V30 15 1 14 16
M  V30 16 1 14 17
M  V30 17 2 13 18
M  V30 18 1 18 19
M  V30 19 2 19 20
M  V30 20 1 20 21
M  V30 21 3 21 22
M  V30 22 1 19 23
M  V30 23 1 23 24
M  V30 24 1 24 25
M  V30 25 1 8 26
M  V30 26 1 26 5
M  V30 27 1 20 11
M  V30 28 1 25 18
M  V30 29 1 1 27
M  V30 30 1 1 28
M  V30 31 1 1 29
M  V30 32 1 6 30
M  V30 33 1 7 31
M  V30 34 1 9 32
M  V30 35 1 9 33
M  V30 36 1 23 34
M  V30 37 1 23 35
M  V30 38 1 24 36
M  V30 39 1 24 37
M  V30 40 1 25 38
M  V30 41 1 25 39
M  V30 END BOND
M  V30 END CTAB
M  END
>  <Dataset>  (185) 
ChEMBL_Kinases

>  <Ligand_Instance>  (185) 
nan

>  <PDB_ID>  (185) 
nan

>  <Standardized_SMILES>  (185) 
COC(=O)c1ccc(CSc2nc(C(F)(F)F)c3c(c2C#N)CCC3)o1

>  <Name>  (185) 
nan

>  <Pocket>  (185) 
nan

>  <ATP_Site>  (185) 
nan

>  <Peripheral>  (185) 
nan

>  <Num_H_Atoms_ProtBoundConf>  (185) 
nan

>  <Num_Resolved_Atoms>  (185) 
nan

>  <Num_Not_Resolved_Atoms>  (185) 
nan

$$$$
CHEMBL1363327
     RDKit          3D

  0  0  0  0  0  0  0  0  0  0999 V3000
M  V30 BEGIN CTAB
M  V30 COUNTS 31 32 0 0 0
M  V30 BEGIN ATOM
M  V30 1 C -1.587098 -5.036461 3.327503 0
M  V30 2 C -1.254969 -3.563228 3.029038 0
M  V30 3 O -0.675590 -3.465945 1.758098 0
M  V30 4 C -0.258790 -2.304096 1.156103 0
M  V30 5 O -0.681512 -1.890121 2.218881 0
M  V30 6 C 0.302843 -2.509486 -0.158062 0
M  V30 7 N 0.484334 -3.626332 -0.880666 0
M  V30 8 C 1.039145 -3.187678 -1.997097 0
M  V30 9 N 1.203431 -1.857228 -1.987245 0
M  V30 10 C 0.730555 -1.375499 -0.793063 0
M  V30 11 C 0.855128 0.061850 -0.664150 0
M  V30 12 O 1.341189 0.883980 -1.517945 0
M  V30 13 N 0.481531 0.896878 0.407970 0
M  V30 14 C 0.707180 2.298896 0.300909 0
M  V30 15 C 1.884872 2.886762 0.720401 0
M  V30 16 C 2.128036 4.242091 0.627658 0
M  V30 17 N 1.160731 5.038544 0.097155 0
M  V30 18 C 0.006107 4.484732 -0.317398 0
M  V30 19 C -0.253897 3.143850 -0.233975 0
M  V30 20 H -1.931729 -5.539214 2.408934 0
M  V30 21 H -2.400472 -5.123365 4.078749 0
M  V30 22 H -0.634951 -5.473787 3.697766 0
M  V30 23 H -0.570304 -3.182594 3.842309 0
M  V30 24 H -2.233976 -3.051447 3.027704 0
M  V30 25 H 0.204926 -4.565127 -0.521997 0
M  V30 26 H 1.287589 -3.911580 -2.758005 0
M  V30 27 H 0.050973 0.455771 1.245657 0
M  V30 28 H 2.632998 2.198046 1.141272 0
M  V30 29 H 3.076669 4.672713 0.971797 0
M  V30 30 H -0.751421 5.155839 -0.739737 0
M  V30 31 H -1.188890 2.718923 -0.573100 0
M  V30 END ATOM
M  V30 BEGIN BOND
M  V30 1 1 1 2
M  V30 2 1 2 3
M  V30 3 1 3 4
M  V30 4 2 4 5
M  V30 5 1 4 6
M  V30 6 1 6 7
M  V30 7 1 7 8
M  V30 8 2 8 9
M  V30 9 1 9 10
M  V30 10 1 10 11
M  V30 11 2 11 12
M  V30 12 1 11 13
M  V30 13 1 13 14
M  V30 14 2 14 15
M  V30 15 1 15 16
M  V30 16 2 16 17
M  V30 17 1 17 18
M  V30 18 2 18 19
M  V30 19 2 10 6
M  V30 20 1 19 14
M  V30 21 1 1 20
M  V30 22 1 1 21
M  V30 23 1 1 22
M  V30 24 1 2 23
M  V30 25 1 2 24
M  V30 26 1 7 25
M  V30 27 1 8 26
M  V30 28 1 13 27
M  V30 29 1 15 28
M  V30 30 1 16 29
M  V30 31 1 18 30
M  V30 32 1 19 31
M  V30 END BOND
M  V30 END CTAB
M  END
>  <Dataset>  (186) 
ChEMBL_Kinases

>  <Ligand_Instance>  (186) 
nan

>  <PDB_ID>  (186) 
nan

>  <Standardized_SMILES>  (186) 
CCOC(=O)c1[nH]cnc1C(=O)Nc1ccncc1

>  <Name>  (186) 
nan

>  <Pocket>  (186) 
nan

>  <ATP_Site>  (186) 
nan

>  <Peripheral>  (186) 
nan

>  <Num_H_Atoms_ProtBoundConf>  (186) 
nan

>  <Num_Resolved_Atoms>  (186) 
nan

>  <Num_Not_Resolved_Atoms>  (186) 
nan

$$$$
CHEMBL1362475
     RDKit          3D

  0  0  0  0  0  0  0  0  0  0999 V3000
M  V30 BEGIN CTAB
M  V30 COUNTS 55 55 0 0 0
M  V30 BEGIN ATOM
M  V30 1 C 1.248135 -2.324301 3.351821 0
M  V30 2 C -0.066001 -2.390724 2.617524 0
M  V30 3 C -0.877890 -1.173070 2.958244 0
M  V30 4 C 0.137895 -2.543468 1.121207 0
M  V30 5 N 0.882813 -1.431058 0.572314 0
M  V30 6 C 2.158909 -1.553087 -0.033301 0
M  V30 7 O 2.733298 -2.676075 -0.134239 0
M  V30 8 C 3.025134 -0.511397 -0.627322 0
M  V30 9 N 2.455428 0.815529 -0.523467 0
M  V30 10 C 2.222510 1.358002 0.787054 0
M  V30 11 O 2.467554 0.805364 1.886637 0
M  V30 12 O 1.671907 2.617774 0.808135 0
M  V30 13 C 1.357697 3.346804 1.954716 0
M  V30 14 C 2.529085 3.636964 2.848485 0
M  V30 15 C 0.405951 2.484778 2.783015 0
M  V30 16 C 0.614354 4.619427 1.659171 0
M  V30 17 C -1.213276 -2.682800 0.520657 0
M  V30 18 O -1.936688 -3.625553 0.930249 0
M  V30 19 N -1.633202 -1.751982 -0.486023 0
M  V30 20 C -2.925697 -1.776047 -1.154010 0
M  V30 21 C -2.998931 -2.849504 -2.188863 0
M  V30 22 C -3.431645 -4.142795 -1.990120 0
M  V30 23 C -3.444512 -5.039904 -3.045447 0
M  V30 24 C -3.010908 -4.580310 -4.278034 0
M  V30 25 C -2.575899 -3.291431 -4.492064 0
M  V30 26 C -2.568011 -2.399517 -3.422914 0
M  V30 27 H 2.060242 -2.862698 2.793502 0
M  V30 28 H 1.554086 -1.293595 3.619074 0
M  V30 29 H 1.116698 -2.882559 4.318473 0
M  V30 30 H -0.622865 -3.286534 2.948378 0
M  V30 31 H -1.695570 -1.441380 3.673585 0
M  V30 32 H -0.249543 -0.436302 3.510379 0
M  V30 33 H -1.367867 -0.695292 2.083752 0
M  V30 34 H 0.706312 -3.500633 0.987194 0
M  V30 35 H 0.487655 -0.471856 0.596622 0
M  V30 36 H 4.008591 -0.515420 -0.080118 0
M  V30 37 H 3.246927 -0.744121 -1.685274 0
M  V30 38 H 2.224515 1.352997 -1.384785 0
M  V30 39 H 2.760993 2.786264 3.518777 0
M  V30 40 H 3.413852 4.033169 2.321821 0
M  V30 41 H 2.181085 4.467174 3.530031 0
M  V30 42 H -0.165196 1.824241 2.104421 0
M  V30 43 H -0.275552 3.127316 3.379350 0
M  V30 44 H 1.024084 1.833297 3.409269 0
M  V30 45 H 0.320800 5.096849 2.622487 0
M  V30 46 H -0.358579 4.431707 1.142303 0
M  V30 47 H 1.181763 5.313813 1.020719 0
M  V30 48 H -0.950755 -1.009578 -0.747688 0
M  V30 49 H -3.143940 -0.784007 -1.543652 0
M  V30 50 H -3.696024 -2.043231 -0.379533 0
M  V30 51 H -3.743663 -4.379123 -0.989998 0
M  V30 52 H -3.788830 -6.056930 -2.873055 0
M  V30 53 H -3.046653 -5.331695 -5.057308 0
M  V30 54 H -2.251781 -3.002986 -5.482323 0
M  V30 55 H -2.213713 -1.411440 -3.672579 0
M  V30 END ATOM
M  V30 BEGIN BOND
M  V30 1 1 1 2
M  V30 2 1 2 3
M  V30 3 1 2 4
M  V30 4 1 4 5
M  V30 5 1 5 6
M  V30 6 2 6 7
M  V30 7 1 6 8
M  V30 8 1 8 9
M  V30 9 1 9 10
M  V30 10 2 10 11
M  V30 11 1 10 12
M  V30 12 1 12 13
M  V30 13 1 13 14
M  V30 14 1 13 15
M  V30 15 1 13 16
M  V30 16 1 4 17
M  V30 17 2 17 18
M  V30 18 1 17 19
M  V30 19 1 19 20
M  V30 20 1 20 21
M  V30 21 2 21 22
M  V30 22 1 22 23
M  V30 23 2 23 24
M  V30 24 1 24 25
M  V30 25 2 25 26
M  V30 26 1 26 21
M  V30 27 1 1 27
M  V30 28 1 1 28
M  V30 29 1 1 29
M  V30 30 1 2 30
M  V30 31 1 3 31
M  V30 32 1 3 32
M  V30 33 1 3 33
M  V30 34 1 4 34
M  V30 35 1 5 35
M  V30 36 1 8 36
M  V30 37 1 8 37
M  V30 38 1 9 38
M  V30 39 1 14 39
M  V30 40 1 14 40
M  V30 41 1 14 41
M  V30 42 1 15 42
M  V30 43 1 15 43
M  V30 44 1 15 44
M  V30 45 1 16 45
M  V30 46 1 16 46
M  V30 47 1 16 47
M  V30 48 1 19 48
M  V30 49 1 20 49
M  V30 50 1 20 50
M  V30 51 1 22 51
M  V30 52 1 23 52
M  V30 53 1 24 53
M  V30 54 1 25 54
M  V30 55 1 26 55
M  V30 END BOND
M  V30 END CTAB
M  END
>  <Dataset>  (187) 
ChEMBL_Kinases

>  <Ligand_Instance>  (187) 
nan

>  <PDB_ID>  (187) 
nan

>  <Standardized_SMILES>  (187) 
CC(C)C(NC(=O)CNC(=O)OC(C)(C)C)C(=O)NCc1ccccc1

>  <Name>  (187) 
nan

>  <Pocket>  (187) 
nan

>  <ATP_Site>  (187) 
nan

>  <Peripheral>  (187) 
nan

>  <Num_H_Atoms_ProtBoundConf>  (187) 
nan

>  <Num_Resolved_Atoms>  (187) 
nan

>  <Num_Not_Resolved_Atoms>  (187) 
nan

$$$$
CHEMBL1362496
     RDKit          3D

  0  0  0  0  0  0  0  0  0  0999 V3000
M  V30 BEGIN CTAB
M  V30 COUNTS 34 36 0 0 0
M  V30 BEGIN ATOM
M  V30 1 C -0.538800 0.241850 5.859072 0
M  V30 2 S 0.590887 0.580328 4.496577 0
M  V30 3 C -0.029669 -0.101395 2.957799 0
M  V30 4 N -1.207676 -0.780246 2.875284 0
M  V30 5 C -1.631077 -1.276294 1.682721 0
M  V30 6 C -0.934637 -1.140002 0.508666 0
M  V30 7 C 0.262881 -0.444529 0.617369 0
M  V30 8 C 1.062570 -0.257592 -0.590248 0
M  V30 9 C 2.052875 -1.094099 -1.080901 0
M  V30 10 C 2.715404 -0.764343 -2.245960 0
M  V30 11 C 2.440755 0.379732 -2.968035 0
M  V30 12 O 3.157223 0.632986 -4.130717 0
M  V30 13 C 1.442410 1.227850 -2.477933 0
M  V30 14 C 0.778862 0.889773 -1.303730 0
M  V30 15 C 0.735732 0.082443 1.824590 0
M  V30 16 C 1.986159 0.782963 1.819577 0
M  V30 17 N 3.005055 1.340056 1.803645 0
M  V30 18 C -1.679293 -1.792635 -0.574733 0
M  V30 19 C -2.766860 -2.561759 0.118434 0
M  V30 20 C -2.903608 -2.028677 1.505633 0
M  V30 21 H -0.418277 0.997924 6.647415 0
M  V30 22 H -0.349875 -0.761283 6.289662 0
M  V30 23 H -1.602237 0.254745 5.541419 0
M  V30 24 H 2.234097 -1.975164 -0.485729 0
M  V30 25 H 3.490360 -1.445064 -2.605351 0
M  V30 26 H 3.045343 1.500222 -4.639231 0
M  V30 27 H 1.227811 2.124711 -3.044903 0
M  V30 28 H 0.027047 1.613238 -1.014415 0
M  V30 29 H -1.001866 -2.536676 -1.053993 0
M  V30 30 H -2.098767 -1.079959 -1.306898 0
M  V30 31 H -3.714829 -2.406154 -0.462624 0
M  V30 32 H -2.602139 -3.667054 0.104035 0
M  V30 33 H -3.740364 -1.281528 1.505357 0
M  V30 34 H -3.037103 -2.797851 2.286390 0
M  V30 END ATOM
M  V30 BEGIN BOND
M  V30 1 1 1 2
M  V30 2 1 2 3
M  V30 3 2 3 4
M  V30 4 1 4 5
M  V30 5 2 5 6
M  V30 6 1 6 7
M  V30 7 1 7 8
M  V30 8 2 8 9
M  V30 9 1 9 10
M  V30 10 2 10 11
M  V30 11 1 11 12
M  V30 12 1 11 13
M  V30 13 2 13 14
M  V30 14 2 7 15
M  V30 15 1 15 16
M  V30 16 3 16 17
M  V30 17 1 6 18
M  V30 18 1 18 19
M  V30 19 1 19 20
M  V30 20 1 15 3
M  V30 21 1 20 5
M  V30 22 1 14 8
M  V30 23 1 1 21
M  V30 24 1 1 22
M  V30 25 1 1 23
M  V30 26 1 9 24
M  V30 27 1 10 25
M  V30 28 1 12 26
M  V30 29 1 13 27
M  V30 30 1 14 28
M  V30 31 1 18 29
M  V30 32 1 18 30
M  V30 33 1 19 31
M  V30 34 1 19 32
M  V30 35 1 20 33
M  V30 36 1 20 34
M  V30 END BOND
M  V30 END CTAB
M  END
>  <Dataset>  (188) 
ChEMBL_Kinases

>  <Ligand_Instance>  (188) 
nan

>  <PDB_ID>  (188) 
nan

>  <Standardized_SMILES>  (188) 
CSc1nc2c(c(-c3ccc(O)cc3)c1C#N)CCC2

>  <Name>  (188) 
nan

>  <Pocket>  (188) 
nan

>  <ATP_Site>  (188) 
nan

>  <Peripheral>  (188) 
nan

>  <Num_H_Atoms_ProtBoundConf>  (188) 
nan

>  <Num_Resolved_Atoms>  (188) 
nan

>  <Num_Not_Resolved_Atoms>  (188) 
nan

$$$$
CHEMBL1362587
     RDKit          3D

  0  0  0  0  0  0  0  0  0  0999 V3000
M  V30 BEGIN CTAB
M  V30 COUNTS 32 31 0 0 0
M  V30 BEGIN ATOM
M  V30 1 C -0.581446 2.060164 2.231179 0
M  V30 2 C -0.322911 0.544798 2.229008 0
M  V30 3 C -1.634107 -0.129836 2.270494 0
M  V30 4 C 0.607028 0.267145 1.112639 0
M  V30 5 N 1.024149 -1.036055 0.851495 0
M  V30 6 C 1.885587 -1.514356 1.918598 0
M  V30 7 C 3.149298 -0.813738 1.939750 0
M  V30 8 N 4.180938 -0.254353 1.946274 0
M  V30 9 C 0.241185 -2.027685 0.278852 0
M  V30 10 C -0.196631 -1.938732 -1.135618 0
M  V30 11 C 0.934038 -1.868810 -2.146699 0
M  V30 12 C -1.329419 -1.003852 -1.430374 0
M  V30 13 H -1.210277 2.325091 1.342028 0
M  V30 14 H 0.344845 2.635790 2.280522 0
M  V30 15 H -1.201560 2.324741 3.110271 0
M  V30 16 H 0.164686 0.366077 3.232499 0
M  V30 17 H -2.215660 0.406435 3.086860 0
M  V30 18 H -1.592520 -1.174675 2.681171 0
M  V30 19 H -2.281308 -0.034646 1.401071 0
M  V30 20 H 1.573387 0.774539 1.485050 0
M  V30 21 H 0.415941 0.922248 0.217501 0
M  V30 22 H 1.403129 -1.439753 2.904210 0
M  V30 23 H 2.069257 -2.610373 1.756991 0
M  V30 24 H 0.899958 -2.959836 0.325525 0
M  V30 25 H -0.649687 -2.392804 0.863913 0
M  V30 26 H -0.665316 -2.958646 -1.363603 0
M  V30 27 H 0.811619 -2.580189 -2.989868 0
M  V30 28 H 1.896735 -2.094289 -1.672284 0
M  V30 29 H 0.933819 -0.859297 -2.645058 0
M  V30 30 H -2.345472 -1.503760 -1.359002 0
M  V30 31 H -1.192531 -0.658033 -2.497232 0
M  V30 32 H -1.418870 -0.117603 -0.818787 0
M  V30 END ATOM
M  V30 BEGIN BOND
M  V30 1 1 1 2
M  V30 2 1 2 3
M  V30 3 1 2 4
M  V30 4 1 4 5
M  V30 5 1 5 6
M  V30 6 1 6 7
M  V30 7 3 7 8
M  V30 8 1 5 9
M  V30 9 1 9 10
M  V30 10 1 10 11
M  V30 11 1 10 12
M  V30 12 1 1 13
M  V30 13 1 1 14
M  V30 14 1 1 15
M  V30 15 1 2 16
M  V30 16 1 3 17
M  V30 17 1 3 18
M  V30 18 1 3 19
M  V30 19 1 4 20
M  V30 20 1 4 21
M  V30 21 1 6 22
M  V30 22 1 6 23
M  V30 23 1 9 24
M  V30 24 1 9 25
M  V30 25 1 10 26
M  V30 26 1 11 27
M  V30 27 1 11 28
M  V30 28 1 11 29
M  V30 29 1 12 30
M  V30 30 1 12 31
M  V30 31 1 12 32
M  V30 END BOND
M  V30 END CTAB
M  END
>  <Dataset>  (189) 
ChEMBL_Kinases

>  <Ligand_Instance>  (189) 
nan

>  <PDB_ID>  (189) 
nan

>  <Standardized_SMILES>  (189) 
CC(C)CN(CC#N)CC(C)C

>  <Name>  (189) 
nan

>  <Pocket>  (189) 
nan

>  <ATP_Site>  (189) 
nan

>  <Peripheral>  (189) 
nan

>  <Num_H_Atoms_ProtBoundConf>  (189) 
nan

>  <Num_Resolved_Atoms>  (189) 
nan

>  <Num_Not_Resolved_Atoms>  (189) 
nan

$$$$
CHEMBL1362853
     RDKit          3D

  0  0  0  0  0  0  0  0  0  0999 V3000
M  V30 BEGIN CTAB
M  V30 COUNTS 44 46 0 0 0
M  V30 BEGIN ATOM
M  V30 1 C 4.543522 -3.588576 3.273227 0
M  V30 2 C 3.222155 -2.808835 3.192700 0
M  V30 3 C 3.380258 -1.829914 2.105387 0
M  V30 4 O 4.538919 -2.032700 1.667322 0
M  V30 5 N 2.541840 -0.840723 1.562300 0
M  V30 6 N 2.993300 -0.109058 0.559026 0
M  V30 7 C 2.048019 0.774103 0.185696 0
M  V30 8 C 2.200888 1.744285 -0.893998 0
M  V30 9 C 1.992790 1.553744 -2.245618 0
M  V30 10 C 2.192524 2.605821 -3.118335 0
M  V30 11 C 2.596704 3.840930 -2.652791 0
M  V30 12 N 2.805312 4.043215 -1.326204 0
M  V30 13 C 2.610467 3.009603 -0.456572 0
M  V30 14 N 1.019481 0.529157 1.014792 0
M  V30 15 C 1.294527 -0.463333 1.876918 0
M  V30 16 N 0.483177 -1.016110 2.903375 0
M  V30 17 C -0.855241 -0.597260 3.215668 0
M  V30 18 C -1.816575 -0.762717 2.102938 0
M  V30 19 C -2.167287 0.155167 1.136295 0
M  V30 20 C -3.080438 -0.143361 0.149405 0
M  V30 21 C -3.692594 -1.383427 0.079959 0
M  V30 22 O -4.616743 -1.710129 -0.904820 0
M  V30 23 C -4.965246 -0.753862 -1.890850 0
M  V30 24 C -3.361146 -2.323542 1.035173 0
M  V30 25 C -2.443977 -2.001704 2.013711 0
M  V30 26 H 4.571323 -4.267742 2.375347 0
M  V30 27 H 5.393836 -2.887659 3.165018 0
M  V30 28 H 4.601721 -4.225765 4.166179 0
M  V30 29 H 2.409142 -3.539720 2.973740 0
M  V30 30 H 3.107959 -2.301732 4.172358 0
M  V30 31 H 1.681551 0.565181 -2.510518 0
M  V30 32 H 2.023598 2.431856 -4.167045 0
M  V30 33 H 2.759333 4.680316 -3.320385 0
M  V30 34 H 2.798875 3.260966 0.570318 0
M  V30 35 H 0.880513 -1.790279 3.485721 0
M  V30 36 H -0.876814 0.500236 3.475365 0
M  V30 37 H -1.243169 -1.144586 4.085202 0
M  V30 38 H -1.688326 1.107865 1.207792 0
M  V30 39 H -3.315453 0.618456 -0.582153 0
M  V30 40 H -5.616180 0.046065 -1.485304 0
M  V30 41 H -4.042131 -0.254522 -2.278276 0
M  V30 42 H -5.438850 -1.253927 -2.763727 0
M  V30 43 H -3.832027 -3.304750 0.997509 0
M  V30 44 H -2.241653 -2.801854 2.725739 0
M  V30 END ATOM
M  V30 BEGIN BOND
M  V30 1 1 1 2
M  V30 2 1 2 3
M  V30 3 2 3 4
M  V30 4 1 3 5
M  V30 5 1 5 6
M  V30 6 2 6 7
M  V30 7 1 7 8
M  V30 8 2 8 9
M  V30 9 1 9 10
M  V30 10 2 10 11
M  V30 11 1 11 12
M  V30 12 2 12 13
M  V30 13 1 7 14
M  V30 14 2 14 15
M  V30 15 1 15 16
M  V30 16 1 16 17
M  V30 17 1 17 18
M  V30 18 2 18 19
M  V30 19 1 19 20
M  V30 20 2 20 21
M  V30 21 1 21 22
M  V30 22 1 22 23
M  V30 23 1 21 24
M  V30 24 2 24 25
M  V30 25 1 15 5
M  V30 26 1 25 18
M  V30 27 1 13 8
M  V30 28 1 1 26
M  V30 29 1 1 27
M  V30 30 1 1 28
M  V30 31 1 2 29
M  V30 32 1 2 30
M  V30 33 1 9 31
M  V30 34 1 10 32
M  V30 35 1 11 33
M  V30 36 1 13 34
M  V30 37 1 16 35
M  V30 38 1 17 36
M  V30 39 1 17 37
M  V30 40 1 19 38
M  V30 41 1 20 39
M  V30 42 1 23 40
M  V30 43 1 23 41
M  V30 44 1 23 42
M  V30 45 1 24 43
M  V30 46 1 25 44
M  V30 END BOND
M  V30 END CTAB
M  END
>  <Dataset>  (190) 
ChEMBL_Kinases

>  <Ligand_Instance>  (190) 
nan

>  <PDB_ID>  (190) 
nan

>  <Standardized_SMILES>  (190) 
CCC(=O)n1nc(-c2cccnc2)nc1NCc1ccc(OC)cc1

>  <Name>  (190) 
nan

>  <Pocket>  (190) 
nan

>  <ATP_Site>  (190) 
nan

>  <Peripheral>  (190) 
nan

>  <Num_H_Atoms_ProtBoundConf>  (190) 
nan

>  <Num_Resolved_Atoms>  (190) 
nan

>  <Num_Not_Resolved_Atoms>  (190) 
nan

$$$$
CHEMBL136296
     RDKit          3D

  0  0  0  0  0  0  0  0  0  0999 V3000
M  V30 BEGIN CTAB
M  V30 COUNTS 67 67 0 0 0
M  V30 BEGIN ATOM
M  V30 1 C 1.920410 -2.906784 4.939934 0
M  V30 2 C 1.839685 -2.575997 3.446747 0
M  V30 3 C 2.201288 -1.145663 3.249027 0
M  V30 4 C 2.153275 -0.708497 1.776024 0
M  V30 5 C 2.536365 0.728153 1.667985 0
M  V30 6 C 2.551219 1.308013 0.297016 0
M  V30 7 C 3.481694 0.633828 -0.649269 0
M  V30 8 C 3.460677 1.316483 -1.977501 0
M  V30 9 C 2.117718 1.348051 -2.674349 0
M  V30 10 C 1.539117 0.025936 -2.987797 0
M  V30 11 C 0.266584 -0.103571 -3.686588 0
M  V30 12 C -1.071928 0.197330 -3.271399 0
M  V30 13 C -1.655027 1.431259 -2.762597 0
M  V30 14 C -1.308177 1.930531 -1.407510 0
M  V30 15 O -1.667596 0.931812 -0.432483 0
M  V30 16 C -1.467965 1.072849 0.918316 0
M  V30 17 O -0.943627 2.100463 1.418137 0
M  V30 18 C -1.948160 -0.133452 1.689854 0
M  V30 19 C -2.682121 -1.116139 0.840417 0
M  V30 20 C -3.140834 -2.312590 1.623244 0
M  V30 21 C -4.056624 -1.851683 2.726809 0
M  V30 22 O -5.083682 -1.133939 2.132552 0
M  V30 23 C -2.013894 -3.179390 2.083363 0
M  V30 24 C -2.252090 -4.546138 1.528898 0
M  V30 25 C -3.585187 -4.462063 0.925690 0
M  V30 26 O -4.269536 -5.507887 0.661164 0
M  V30 27 O -3.889280 -3.132439 0.733881 0
M  V30 28 H 2.947507 -3.168334 5.248282 0
M  V30 29 H 1.527316 -2.103096 5.575821 0
M  V30 30 H 1.281003 -3.808713 5.108087 0
M  V30 31 H 0.862816 -2.836503 3.042613 0
M  V30 32 H 2.572206 -3.266684 2.963976 0
M  V30 33 H 3.287934 -1.041555 3.539046 0
M  V30 34 H 1.582654 -0.490035 3.861029 0
M  V30 35 H 1.199282 -0.961132 1.319813 0
M  V30 36 H 2.942520 -1.316267 1.268620 0
M  V30 37 H 1.761328 1.317175 2.245121 0
M  V30 38 H 3.482085 0.953265 2.194676 0
M  V30 39 H 1.542403 1.350371 -0.145601 0
M  V30 40 H 2.893663 2.363130 0.397701 0
M  V30 41 H 4.540836 0.680641 -0.287811 0
M  V30 42 H 3.278957 -0.450098 -0.776129 0
M  V30 43 H 4.247437 0.944258 -2.674115 0
M  V30 44 H 3.730136 2.394527 -1.810242 0
M  V30 45 H 2.378915 1.804800 -3.704341 0
M  V30 46 H 1.489433 2.049337 -2.175809 0
M  V30 47 H 2.321636 -0.568091 -3.574220 0
M  V30 48 H 1.457677 -0.614667 -2.046171 0
M  V30 49 H 0.394231 0.286173 -4.788895 0
M  V30 50 H 0.231108 -1.251648 -3.970278 0
M  V30 51 H -1.744881 -0.090200 -4.200721 0
M  V30 52 H -1.451812 -0.676404 -2.574743 0
M  V30 53 H -2.800791 1.350993 -2.763443 0
M  V30 54 H -1.525874 2.274065 -3.535430 0
M  V30 55 H -0.330491 2.327299 -1.316781 0
M  V30 56 H -1.997341 2.807647 -1.127987 0
M  V30 57 H -2.624232 0.218804 2.502550 0
M  V30 58 H -1.117243 -0.651070 2.193734 0
M  V30 59 H -3.603675 -0.659744 0.404796 0
M  V30 60 H -2.075045 -1.491992 -0.004208 0
M  V30 61 H -4.490792 -2.767917 3.198660 0
M  V30 62 H -3.524424 -1.302206 3.517850 0
M  V30 63 H -4.994176 -0.154897 2.334953 0
M  V30 64 H -1.949320 -3.232612 3.208651 0
M  V30 65 H -1.058679 -2.800204 1.635252 0
M  V30 66 H -1.534950 -4.796240 0.704493 0
M  V30 67 H -2.150896 -5.330871 2.306412 0
M  V30 END ATOM
M  V30 BEGIN BOND
M  V30 1 1 1 2
M  V30 2 1 2 3
M  V30 3 1 3 4
M  V30 4 1 4 5
M  V30 5 1 5 6
M  V30 6 1 6 7
M  V30 7 1 7 8
M  V30 8 1 8 9
M  V30 9 1 9 10
M  V30 10 1 10 11
M  V30 11 1 11 12
M  V30 12 1 12 13
M  V30 13 1 13 14
M  V30 14 1 14 15
M  V30 15 1 15 16
M  V30 16 2 16 17
M  V30 17 1 16 18
M  V30 18 1 18 19
M  V30 19 1 19 20
M  V30 20 1 20 21
M  V30 21 1 21 22
M  V30 22 1 20 23
M  V30 23 1 23 24
M  V30 24 1 24 25
M  V30 25 2 25 26
M  V30 26 1 25 27
M  V30 27 1 27 20
M  V30 28 1 1 28
M  V30 29 1 1 29
M  V30 30 1 1 30
M  V30 31 1 2 31
M  V30 32 1 2 32
M  V30 33 1 3 33
M  V30 34 1 3 34
M  V30 35 1 4 35
M  V30 36 1 4 36
M  V30 37 1 5 37
M  V30 38 1 5 38
M  V30 39 1 6 39
M  V30 40 1 6 40
M  V30 41 1 7 41
M  V30 42 1 7 42
M  V30 43 1 8 43
M  V30 44 1 8 44
M  V30 45 1 9 45
M  V30 46 1 9 46
M  V30 47 1 10 47
M  V30 48 1 10 48
M  V30 49 1 11 49
M  V30 50 1 11 50
M  V30 51 1 12 51
M  V30 52 1 12 52
M  V30 53 1 13 53
M  V30 54 1 13 54
M  V30 55 1 14 55
M  V30 56 1 14 56
M  V30 57 1 18 57
M  V30 58 1 18 58
M  V30 59 1 19 59
M  V30 60 1 19 60
M  V30 61 1 21 61
M  V30 62 1 21 62
M  V30 63 1 22 63
M  V30 64 1 23 64
M  V30 65 1 23 65
M  V30 66 1 24 66
M  V30 67 1 24 67
M  V30 END BOND
M  V30 END CTAB
M  END
>  <Dataset>  (191) 
ChEMBL_Kinases

>  <Ligand_Instance>  (191) 
nan

>  <PDB_ID>  (191) 
nan

>  <Standardized_SMILES>  (191) 
CCCCCCCCCCCCCCOC(=O)CCC1(CO)CCC(=O)O1

>  <Name>  (191) 
nan

>  <Pocket>  (191) 
nan

>  <ATP_Site>  (191) 
nan

>  <Peripheral>  (191) 
nan

>  <Num_H_Atoms_ProtBoundConf>  (191) 
nan

>  <Num_Resolved_Atoms>  (191) 
nan

>  <Num_Not_Resolved_Atoms>  (191) 
nan

$$$$
CHEMBL1363035
     RDKit          3D

  0  0  0  0  0  0  0  0  0  0999 V3000
M  V30 BEGIN CTAB
M  V30 COUNTS 50 52 0 0 0
M  V30 BEGIN ATOM
M  V30 1 C -2.100983 -9.931812 0.545657 0
M  V30 2 C -1.735256 -8.786522 0.390895 0
M  V30 3 C -1.285597 -7.432032 0.222315 0
M  V30 4 C -1.740614 -6.488739 1.116292 0
M  V30 5 C -1.349450 -5.145034 1.018146 0
M  V30 6 C -0.493952 -4.891660 -0.032528 0
M  V30 7 C -0.091407 -3.468507 -0.139765 0
M  V30 8 O -0.574617 -2.615896 0.690930 0
M  V30 9 N 0.791186 -2.816837 -1.050479 0
M  V30 10 C 0.701660 -1.465236 -0.573755 0
M  V30 11 C 1.563149 -1.040159 0.404035 0
M  V30 12 C 1.434701 0.268301 0.849101 0
M  V30 13 C 0.457358 1.083206 0.297198 0
M  V30 14 N 0.480219 2.374892 0.829819 0
M  V30 15 C 0.965170 3.656105 0.327328 0
M  V30 16 C 0.892743 4.713605 1.396321 0
M  V30 17 C 1.350528 4.266395 2.750075 0
M  V30 18 C 2.857323 4.425925 2.769331 0
M  V30 19 C 0.925567 2.872560 3.124736 0
M  V30 20 C -0.107022 2.422485 2.119267 0
M  V30 21 C -0.380109 0.606347 -0.681201 0
M  V30 22 C -1.423861 1.437989 -1.230930 0
M  V30 23 N -2.243004 1.039132 -2.314278 0
M  V30 24 O -1.867795 2.580572 -0.975241 0
M  V30 25 C -0.296527 -0.682545 -1.159215 0
M  V30 26 C 0.009417 -5.764804 -0.968089 0
M  V30 27 C -0.427033 -7.069607 -0.797856 0
M  V30 28 H -2.409477 -10.947054 0.682369 0
M  V30 29 H -2.414512 -6.798856 1.909438 0
M  V30 30 H -1.713380 -4.422501 1.725955 0
M  V30 31 H 1.205021 -3.478498 -1.740979 0
M  V30 32 H 2.293356 -1.749232 0.775991 0
M  V30 33 H 2.169253 0.493206 1.618446 0
M  V30 34 H 0.341812 3.962508 -0.513362 0
M  V30 35 H 2.039809 3.599367 0.042280 0
M  V30 36 H 1.444142 5.630325 1.079396 0
M  V30 37 H -0.183488 4.998884 1.470592 0
M  V30 38 H 0.945089 4.966482 3.502866 0
M  V30 39 H 3.335771 3.956442 3.629200 0
M  V30 40 H 3.046900 5.518042 2.852066 0
M  V30 41 H 3.315721 4.142938 1.800468 0
M  V30 42 H 1.789204 2.180478 3.219629 0
M  V30 43 H 0.365570 2.926586 4.106380 0
M  V30 44 H -0.688552 1.552937 2.457378 0
M  V30 45 H -0.891684 3.240391 2.157545 0
M  V30 46 H -3.146053 0.582537 -2.071679 0
M  V30 47 H -1.889302 1.229888 -3.301032 0
M  V30 48 H -0.947817 -1.068525 -1.927480 0
M  V30 49 H 0.671267 -5.459972 -1.749157 0
M  V30 50 H -0.088924 -7.845932 -1.485157 0
M  V30 END ATOM
M  V30 BEGIN BOND
M  V30 1 3 1 2
M  V30 2 1 2 3
M  V30 3 2 3 4
M  V30 4 1 4 5
M  V30 5 2 5 6
M  V30 6 1 6 7
M  V30 7 2 7 8
M  V30 8 1 7 9
M  V30 9 1 9 10
M  V30 10 2 10 11
M  V30 11 1 11 12
M  V30 12 2 12 13
M  V30 13 1 13 14
M  V30 14 1 14 15
M  V30 15 1 15 16
M  V30 16 1 16 17
M  V30 17 1 17 18
M  V30 18 1 17 19
M  V30 19 1 19 20
M  V30 20 1 13 21
M  V30 21 1 21 22
M  V30 22 1 22 23
M  V30 23 2 22 24
M  V30 24 2 21 25
M  V30 25 1 6 26
M  V30 26 2 26 27
M  V30 27 1 27 3
M  V30 28 1 25 10
M  V30 29 1 20 14
M  V30 30 1 1 28
M  V30 31 1 4 29
M  V30 32 1 5 30
M  V30 33 1 9 31
M  V30 34 1 11 32
M  V30 35 1 12 33
M  V30 36 1 15 34
M  V30 37 1 15 35
M  V30 38 1 16 36
M  V30 39 1 16 37
M  V30 40 1 17 38
M  V30 41 1 18 39
M  V30 42 1 18 40
M  V30 43 1 18 41
M  V30 44 1 19 42
M  V30 45 1 19 43
M  V30 46 1 20 44
M  V30 47 1 20 45
M  V30 48 1 23 46
M  V30 49 1 23 47
M  V30 50 1 25 48
M  V30 51 1 26 49
M  V30 52 1 27 50
M  V30 END BOND
M  V30 END CTAB
M  END
>  <Dataset>  (192) 
ChEMBL_Kinases

>  <Ligand_Instance>  (192) 
nan

>  <PDB_ID>  (192) 
nan

>  <Standardized_SMILES>  (192) 
C#Cc1ccc(C(=O)Nc2ccc(N3CCC(C)CC3)c(C(N)=O)c2)cc1

>  <Name>  (192) 
nan

>  <Pocket>  (192) 
nan

>  <ATP_Site>  (192) 
nan

>  <Peripheral>  (192) 
nan

>  <Num_H_Atoms_ProtBoundConf>  (192) 
nan

>  <Num_Resolved_Atoms>  (192) 
nan

>  <Num_Not_Resolved_Atoms>  (192) 
nan

$$$$
CHEMBL1363149
     RDKit          3D

  0  0  0  0  0  0  0  0  0  0999 V3000
M  V30 BEGIN CTAB
M  V30 COUNTS 85 89 0 0 0
M  V30 BEGIN ATOM
M  V30 1 C -5.838465 -7.687477 -0.318719 0
M  V30 2 O -5.185633 -6.527378 0.156419 0
M  V30 3 C -4.672947 -5.530148 -0.662397 0
M  V30 4 O -4.826206 -5.720288 -1.902869 0
M  V30 5 C -4.014772 -4.372705 -0.027828 0
M  V30 6 C -3.909940 -4.280867 1.339887 0
M  V30 7 C -3.280138 -3.166691 1.847837 0
M  V30 8 C -2.756447 -2.150636 1.041948 0
M  V30 9 C -2.081984 -0.946099 1.612473 0
M  V30 10 N -2.486721 0.255655 0.952686 0
M  V30 11 C -3.424184 1.208707 1.471619 0
M  V30 12 O -3.959371 1.020844 2.579528 0
M  V30 13 O -3.726340 2.329293 0.734929 0
M  V30 14 C -4.611164 3.352100 1.079239 0
M  V30 15 C -4.296142 4.073493 2.313336 0
M  V30 16 C -3.418130 5.158924 2.234449 0
M  V30 17 C -3.103149 5.874471 3.377589 0
M  V30 18 C -3.627912 5.560402 4.627088 0
M  V30 19 C -4.493831 4.494732 4.721295 0
M  V30 20 C -4.794483 3.791731 3.557588 0
M  V30 21 C -0.623202 -1.141694 1.710590 0
M  V30 22 C -0.138797 -2.254459 1.213977 0
M  V30 23 C 1.207022 -2.837428 1.112433 0 CFG=1
M  V30 24 C 1.155106 -4.321416 1.593605 0
M  V30 25 C 1.535443 -2.975601 -0.332043 0
M  V30 26 O 0.714493 -2.609642 -1.211890 0
M  V30 27 N 2.784723 -3.525537 -0.732360 0
M  V30 28 C 3.267142 -3.735452 -2.091924 0
M  V30 29 C 3.699390 -2.437485 -2.675712 0
M  V30 30 C 5.015474 -2.029169 -2.479356 0
M  V30 31 C 5.597384 -0.864424 -2.948406 0
M  V30 32 C 4.738928 -0.043317 -3.690459 0
M  V30 33 C 5.340362 1.190821 -4.190336 0
M  V30 34 C 6.347171 1.851971 -3.483577 0
M  V30 35 C 6.898227 3.023103 -3.990008 0
M  V30 36 C 6.461652 3.546464 -5.190563 0
M  V30 37 C 5.452431 2.870985 -5.884911 0
M  V30 38 C 4.894489 1.705165 -5.394114 0
M  V30 39 C 3.424250 -0.394282 -3.918567 0
M  V30 40 C 2.915319 -1.575851 -3.416381 0
M  V30 41 C 0.269176 -0.138949 2.211255 0
M  V30 42 C 1.579258 0.207781 2.123466 0
M  V30 43 C 2.213798 1.177822 2.820826 0
M  V30 44 C 1.526867 1.936794 3.731376 0
M  V30 45 N 0.219445 1.643158 3.863765 0
M  V30 46 C -0.356920 0.674028 3.150720 0
M  V30 47 C -2.886015 -2.286015 -0.345649 0
M  V30 48 C -3.515524 -3.398736 -0.866248 0
M  V30 49 H -6.893467 -7.554111 -0.565616 0
M  V30 50 H -5.292567 -8.175075 -1.149307 0
M  V30 51 H -5.772548 -8.434175 0.526883 0
M  V30 52 H -4.304374 -5.049093 1.989532 0
M  V30 53 H -3.155630 -3.016228 2.910449 0
M  V30 54 H -2.485393 -0.886564 2.666325 0
M  V30 55 H -2.072090 0.466612 0.016616 0
M  V30 56 H -4.575272 4.103657 0.239165 0
M  V30 57 H -5.681753 2.999119 1.082982 0
M  V30 58 H -2.973261 5.463117 1.312102 0
M  V30 59 H -2.427680 6.737617 3.416716 0
M  V30 60 H -3.393534 6.106908 5.527574 0
M  V30 61 H -4.910617 4.237292 5.684840 0
M  V30 62 H -5.481230 2.972062 3.680197 0
M  V30 63 H -0.818422 -2.982271 0.741775 0
M  V30 64 H 1.963132 -2.414000 1.747944 0
M  V30 65 H 2.184127 -4.698761 1.427058 0
M  V30 66 H 0.477580 -4.912707 0.966160 0
M  V30 67 H 0.963320 -4.372656 2.679946 0
M  V30 68 H 3.421456 -3.807650 0.073466 0
M  V30 69 H 4.135485 -4.394064 -2.057125 0
M  V30 70 H 2.477916 -4.215637 -2.714822 0
M  V30 71 H 5.663991 -2.682376 -1.899982 0
M  V30 72 H 6.629810 -0.650913 -2.734245 0
M  V30 73 H 6.705008 1.453980 -2.533004 0
M  V30 74 H 7.688718 3.545590 -3.437962 0
M  V30 75 H 6.869805 4.466331 -5.622880 0
M  V30 76 H 5.132636 3.312595 -6.828921 0
M  V30 77 H 4.112168 1.226046 -5.981934 0
M  V30 78 H 2.787969 0.271663 -4.501331 0
M  V30 79 H 1.887762 -1.877577 -3.580808 0
M  V30 80 H 2.121484 -0.344408 1.377142 0
M  V30 81 H 3.265416 1.327608 2.634882 0
M  V30 82 H 2.092587 2.691407 4.252346 0
M  V30 83 H -1.410718 0.650836 3.461080 0
M  V30 84 H -2.491934 -1.517336 -1.010951 0
M  V30 85 H -3.612614 -3.496892 -1.959157 0
M  V30 END ATOM
M  V30 BEGIN BOND
M  V30 1 1 1 2
M  V30 2 1 2 3
M  V30 3 2 3 4
M  V30 4 1 3 5
M  V30 5 2 5 6
M  V30 6 1 6 7
M  V30 7 2 7 8
M  V30 8 1 8 9
M  V30 9 1 9 10
M  V30 10 1 10 11
M  V30 11 2 11 12
M  V30 12 1 11 13
M  V30 13 1 13 14
M  V30 14 1 14 15
M  V30 15 2 15 16
M  V30 16 1 16 17
M  V30 17 2 17 18
M  V30 18 1 18 19
M  V30 19 2 19 20
M  V30 20 1 9 21
M  V30 21 2 21 22
M  V30 22 1 22 23
M  V30 23 1 23 24
M  V30 24 1 23 25
M  V30 25 2 25 26
M  V30 26 1 25 27
M  V30 27 1 27 28
M  V30 28 1 28 29
M  V30 29 2 29 30
M  V30 30 1 30 31
M  V30 31 2 31 32
M  V30 32 1 32 33
M  V30 33 2 33 34
M  V30 34 1 34 35
M  V30 35 2 35 36
M  V30 36 1 36 37
M  V30 37 2 37 38
M  V30 38 1 32 39
M  V30 39 2 39 40
M  V30 40 1 21 41
M  V30 41 2 41 42
M  V30 42 1 42 43
M  V30 43 2 43 44
M  V30 44 1 44 45
M  V30 45 2 45 46
M  V30 46 1 8 47
M  V30 47 2 47 48
M  V30 48 1 48 5
M  V30 49 1 20 15
M  V30 50 1 40 29
M  V30 51 1 46 41
M  V30 52 1 38 33
M  V30 53 1 1 49
M  V30 54 1 1 50
M  V30 55 1 1 51
M  V30 56 1 6 52
M  V30 57 1 7 53
M  V30 58 1 9 54
M  V30 59 1 10 55
M  V30 60 1 14 56
M  V30 61 1 14 57
M  V30 62 1 16 58
M  V30 63 1 17 59
M  V30 64 1 18 60
M  V30 65 1 19 61
M  V30 66 1 20 62
M  V30 67 1 22 63
M  V30 68 1 23 64 CFG=1
M  V30 69 1 24 65
M  V30 70 1 24 66
M  V30 71 1 24 67
M  V30 72 1 27 68
M  V30 73 1 28 69
M  V30 74 1 28 70
M  V30 75 1 30 71
M  V30 76 1 31 72
M  V30 77 1 34 73
M  V30 78 1 35 74
M  V30 79 1 36 75
M  V30 80 1 37 76
M  V30 81 1 38 77
M  V30 82 1 39 78
M  V30 83 1 40 79
M  V30 84 1 42 80
M  V30 85 1 43 81
M  V30 86 1 44 82
M  V30 87 1 46 83
M  V30 88 1 47 84
M  V30 89 1 48 85
M  V30 END BOND
M  V30 END CTAB
M  END
>  <Dataset>  (193) 
ChEMBL_Kinases

>  <Ligand_Instance>  (193) 
nan

>  <PDB_ID>  (193) 
nan

>  <Standardized_SMILES>  (193) 
COC(=O)c1ccc(C(NC(=O)OCc2ccccc2)/C(=C/[C@@H](C)C(=O)NCc2ccc(-c3ccccc3)cc2)c2cccnc2)cc1

>  <Name>  (193) 
nan

>  <Pocket>  (193) 
nan

>  <ATP_Site>  (193) 
nan

>  <Peripheral>  (193) 
nan

>  <Num_H_Atoms_ProtBoundConf>  (193) 
nan

>  <Num_Resolved_Atoms>  (193) 
nan

>  <Num_Not_Resolved_Atoms>  (193) 
nan

$$$$
CHEMBL1363237
     RDKit          3D

  0  0  0  0  0  0  0  0  0  0999 V3000
M  V30 BEGIN CTAB
M  V30 COUNTS 39 41 0 0 0
M  V30 BEGIN ATOM
M  V30 1 C 0.085155 -7.279784 1.845337 0
M  V30 2 C -0.193691 -6.007829 1.137127 0
M  V30 3 C -1.435946 -5.450327 0.919410 0
M  V30 4 C -1.676988 -4.268373 0.259819 0
M  V30 5 C -0.615977 -3.545071 -0.243836 0
M  V30 6 N -0.636211 -2.397469 -0.901951 0
M  V30 7 C 0.266322 -1.789341 -1.326274 0
M  V30 8 N 0.255952 -0.531529 -2.048554 0
M  V30 9 C 0.344368 0.584119 -1.206426 0
M  V30 10 O 0.416539 0.305209 0.015054 0
M  V30 11 C 0.344883 1.942508 -1.808365 0
M  V30 12 C 0.448808 3.008032 -0.705228 0
M  V30 13 N 1.679219 2.750614 -0.024445 0
M  V30 14 S 2.035085 3.811850 1.264447 0
M  V30 15 O 2.223460 5.229552 0.813017 0
M  V30 16 O 3.345365 3.371882 1.850965 0
M  V30 17 C 0.850031 3.748176 2.534835 0
M  V30 18 C 0.911691 3.440391 3.836656 0
M  V30 19 C -0.206961 3.475008 4.619557 0
M  V30 20 C -1.424590 3.857269 3.956561 0
M  V30 21 Br -3.152405 3.985696 4.836304 0
M  V30 22 S -0.889391 4.163515 2.162582 0
M  V30 23 S 1.753504 -2.897096 -0.812471 0
M  V30 24 C 0.649072 -4.115373 -0.020646 0
M  V30 25 C 0.883685 -5.304260 0.643464 0
M  V30 26 H -0.891286 -7.751484 2.089956 0
M  V30 27 H 0.736817 -7.147234 2.723064 0
M  V30 28 H 0.554564 -8.000370 1.113544 0
M  V30 29 H -2.275875 -6.037451 1.326486 0
M  V30 30 H -2.721530 -3.976832 0.178640 0
M  V30 31 H 0.188761 -0.480782 -3.091865 0
M  V30 32 H -0.552817 2.137261 -2.441780 0
M  V30 33 H 1.217193 2.020554 -2.488242 0
M  V30 34 H -0.422503 2.939538 -0.023815 0
M  V30 35 H 0.488465 4.018374 -1.145617 0
M  V30 36 H 2.452971 2.717561 -0.696205 0
M  V30 37 H 1.882311 3.168797 4.219496 0
M  V30 38 H -0.238907 3.242412 5.669133 0
M  V30 39 H 1.907823 -5.578516 0.716381 0
M  V30 END ATOM
M  V30 BEGIN BOND
M  V30 1 1 1 2
M  V30 2 2 2 3
M  V30 3 1 3 4
M  V30 4 2 4 5
M  V30 5 1 5 6
M  V30 6 2 6 7
M  V30 7 1 7 8
M  V30 8 1 8 9
M  V30 9 2 9 10
M  V30 10 1 9 11
M  V30 11 1 11 12
M  V30 12 1 12 13
M  V30 13 1 13 14
M  V30 14 2 14 15
M  V30 15 2 14 16
M  V30 16 1 14 17
M  V30 17 2 17 18
M  V30 18 1 18 19
M  V30 19 2 19 20
M  V30 20 1 20 21
M  V30 21 1 20 22
M  V30 22 1 7 23
M  V30 23 1 23 24
M  V30 24 2 24 25
M  V30 25 1 25 2
M  V30 26 1 24 5
M  V30 27 1 22 17
M  V30 28 1 1 26
M  V30 29 1 1 27
M  V30 30 1 1 28
M  V30 31 1 3 29
M  V30 32 1 4 30
M  V30 33 1 8 31
M  V30 34 1 11 32
M  V30 35 1 11 33
M  V30 36 1 12 34
M  V30 37 1 12 35
M  V30 38 1 13 36
M  V30 39 1 18 37
M  V30 40 1 19 38
M  V30 41 1 25 39
M  V30 END BOND
M  V30 END CTAB
M  END
>  <Dataset>  (194) 
ChEMBL_Kinases

>  <Ligand_Instance>  (194) 
nan

>  <PDB_ID>  (194) 
nan

>  <Standardized_SMILES>  (194) 
Cc1ccc2nc(NC(=O)CCNS(=O)(=O)c3ccc(Br)s3)sc2c1

>  <Name>  (194) 
nan

>  <Pocket>  (194) 
nan

>  <ATP_Site>  (194) 
nan

>  <Peripheral>  (194) 
nan

>  <Num_H_Atoms_ProtBoundConf>  (194) 
nan

>  <Num_Resolved_Atoms>  (194) 
nan

>  <Num_Not_Resolved_Atoms>  (194) 
nan

$$$$
CHEMBL1362267
     RDKit          3D

  0  0  0  0  0  0  0  0  0  0999 V3000
M  V30 BEGIN CTAB
M  V30 COUNTS 58 62 0 0 0
M  V30 BEGIN ATOM
M  V30 1 C 2.414349 1.486061 5.031561 0
M  V30 2 C 3.011614 0.353570 4.282074 0
M  V30 3 C 3.995457 -0.468710 4.792371 0
M  V30 4 C 4.530836 -1.558248 4.096539 0
M  V30 5 C 4.077343 -1.853847 2.836918 0
M  V30 6 C 4.653050 -2.996196 2.084040 0
M  V30 7 C 3.101556 -1.010700 2.372306 0
M  V30 8 N 2.612722 -1.256302 1.128744 0
M  V30 9 C 1.658093 -0.514172 0.559992 0
M  V30 10 O 1.300864 -0.942472 -0.747360 0
M  V30 11 C 1.033040 0.592833 1.134573 0
M  V30 12 C -0.093357 1.288913 0.512659 0
M  V30 13 N -1.379525 1.052756 0.961184 0
M  V30 14 C -2.239043 2.193384 0.682285 0
M  V30 15 C -2.363462 2.452126 -0.793378 0
M  V30 16 C -3.288299 2.038399 -1.765213 0
M  V30 17 C -2.895224 2.587159 -2.958817 0
M  V30 18 C -1.741309 3.317921 -2.664179 0
M  V30 19 O -1.475488 3.206061 -1.393108 0
M  V30 20 S -2.171970 -0.342589 1.199639 0
M  V30 21 O -1.560304 -1.224557 2.316332 0
M  V30 22 O -3.536602 0.035851 1.875971 0
M  V30 23 C -2.499239 -1.462509 -0.076217 0
M  V30 24 C -3.697810 -1.495497 -0.815571 0
M  V30 25 C -3.801337 -2.479251 -1.765938 0
M  V30 26 C -2.906718 -3.441481 -2.108051 0
M  V30 27 C -1.738541 -3.367343 -1.351499 0
M  V30 28 C -1.551183 -2.411467 -0.373495 0
M  V30 29 O -0.723069 -4.290255 -1.589697 0
M  V30 30 C -0.568151 -4.782983 -2.918692 0
M  V30 31 C -1.866978 -5.111857 -3.574559 0
M  V30 32 O -2.989358 -4.432006 -3.050101 0
M  V30 33 C 1.544594 0.813688 2.373300 0
M  V30 34 C 2.523202 0.066851 2.976009 0
M  V30 35 H 2.501068 2.459157 4.546592 0
M  V30 36 H 1.356351 1.235727 5.324374 0
M  V30 37 H 2.943787 1.537250 6.013414 0
M  V30 38 H 4.382321 -0.271174 5.799272 0
M  V30 39 H 5.291262 -2.111297 4.616999 0
M  V30 40 H 5.631184 -2.705719 1.608919 0
M  V30 41 H 4.859094 -3.836990 2.764181 0
M  V30 42 H 3.954447 -3.351274 1.290100 0
M  V30 43 H 1.818275 -0.585866 -1.544767 0
M  V30 44 H 0.140599 2.408495 0.598363 0
M  V30 45 H 0.031910 1.150510 -0.620218 0
M  V30 46 H -1.797382 3.090419 1.174441 0
M  V30 47 H -3.247294 2.060163 1.109507 0
M  V30 48 H -4.059630 1.410468 -1.350722 0
M  V30 49 H -3.518266 2.336675 -3.794978 0
M  V30 50 H -1.350624 3.795394 -3.557417 0
M  V30 51 H -4.453822 -0.788425 -0.601131 0
M  V30 52 H -4.740555 -2.505325 -2.334730 0
M  V30 53 H -0.644629 -2.401881 0.209097 0
M  V30 54 H 0.118991 -5.642819 -2.870127 0
M  V30 55 H -0.093717 -3.975739 -3.496771 0
M  V30 56 H -2.052328 -6.224048 -3.548110 0
M  V30 57 H -1.854221 -4.814098 -4.666561 0
M  V30 58 H 1.158033 1.649418 2.946919 0
M  V30 END ATOM
M  V30 BEGIN BOND
M  V30 1 1 1 2
M  V30 2 2 2 3
M  V30 3 1 3 4
M  V30 4 2 4 5
M  V30 5 1 5 6
M  V30 6 1 5 7
M  V30 7 2 7 8
M  V30 8 1 8 9
M  V30 9 1 9 10
M  V30 10 2 9 11
M  V30 11 1 11 12
M  V30 12 1 12 13
M  V30 13 1 13 14
M  V30 14 1 14 15
M  V30 15 2 15 16
M  V30 16 1 16 17
M  V30 17 2 17 18
M  V30 18 1 18 19
M  V30 19 1 13 20
M  V30 20 2 20 21
M  V30 21 2 20 22
M  V30 22 1 20 23
M  V30 23 2 23 24
M  V30 24 1 24 25
M  V30 25 2 25 26
M  V30 26 1 26 27
M  V30 27 2 27 28
M  V30 28 1 27 29
M  V30 29 1 29 30
M  V30 30 1 30 31
M  V30 31 1 31 32
M  V30 32 1 11 33
M  V30 33 2 33 34
M  V30 34 1 34 2
M  V30 35 1 34 7
M  V30 36 1 19 15
M  V30 37 1 28 23
M  V30 38 1 32 26
M  V30 39 1 1 35
M  V30 40 1 1 36
M  V30 41 1 1 37
M  V30 42 1 3 38
M  V30 43 1 4 39
M  V30 44 1 6 40
M  V30 45 1 6 41
M  V30 46 1 6 42
M  V30 47 1 10 43
M  V30 48 1 12 44
M  V30 49 1 12 45
M  V30 50 1 14 46
M  V30 51 1 14 47
M  V30 52 1 16 48
M  V30 53 1 17 49
M  V30 54 1 18 50
M  V30 55 1 24 51
M  V30 56 1 25 52
M  V30 57 1 28 53
M  V30 58 1 30 54
M  V30 59 1 30 55
M  V30 60 1 31 56
M  V30 61 1 31 57
M  V30 62 1 33 58
M  V30 END BOND
M  V30 END CTAB
M  END
>  <Dataset>  (195) 
ChEMBL_Kinases

>  <Ligand_Instance>  (195) 
nan

>  <PDB_ID>  (195) 
nan

>  <Standardized_SMILES>  (195) 
Cc1ccc(C)c2nc(O)c(CN(Cc3ccco3)S(=O)(=O)c3ccc4c(c3)OCCO4)cc12

>  <Name>  (195) 
nan

>  <Pocket>  (195) 
nan

>  <ATP_Site>  (195) 
nan

>  <Peripheral>  (195) 
nan

>  <Num_H_Atoms_ProtBoundConf>  (195) 
nan

>  <Num_Resolved_Atoms>  (195) 
nan

>  <Num_Not_Resolved_Atoms>  (195) 
nan

$$$$
CHEMBL1353251
     RDKit          3D

  0  0  0  0  0  0  0  0  0  0999 V3000
M  V30 BEGIN CTAB
M  V30 COUNTS 43 44 0 0 0
M  V30 BEGIN ATOM
M  V30 1 C -0.179521 -5.382449 0.138263 0
M  V30 2 C 0.453258 -4.292733 -0.715310 0
M  V30 3 O 0.083852 -3.053910 -0.135416 0
M  V30 4 C 0.403521 -2.683384 1.145564 0
M  V30 5 O 1.027221 -3.713651 1.475547 0
M  V30 6 C 0.023832 -1.412569 1.741507 0
M  V30 7 C -0.673585 -0.524780 1.055337 0
M  V30 8 N -1.154744 -0.602213 -0.296843 0
M  V30 9 C -0.216847 -0.076613 -1.221220 0
M  V30 10 O 0.841725 0.451247 -1.632322 0
M  V30 11 C -0.287978 0.039366 -2.671466 0
M  V30 12 S 1.160218 0.938172 -3.275584 0
M  V30 13 C 1.140721 2.655889 -2.837077 0
M  V30 14 N 0.465368 3.321528 -3.821069 0
M  V30 15 N 0.430666 4.613338 -3.549878 0
M  V30 16 N 1.073621 4.772661 -2.409246 0
M  V30 17 N 1.507645 3.607266 -1.966328 0
M  V30 18 C 2.249595 3.111854 -0.844562 0
M  V30 19 S -0.921252 0.847201 2.141544 0
M  V30 20 C 0.020977 0.029933 3.548916 0
M  V30 21 C 0.213640 0.693015 4.875927 0
M  V30 22 C -0.682156 0.119920 5.931770 0
M  V30 23 C 0.416438 -1.195219 3.029417 0
M  V30 24 C 1.200367 -2.031270 3.977591 0
M  V30 25 H 0.600825 -5.923386 0.733567 0
M  V30 26 H -0.905132 -4.993854 0.869715 0
M  V30 27 H -0.755327 -6.114132 -0.495527 0
M  V30 28 H 0.077571 -4.402868 -1.737708 0
M  V30 29 H 1.550969 -4.428806 -0.740972 0
M  V30 30 H -2.026921 -0.957155 -0.720092 0
M  V30 31 H -1.174587 0.609218 -3.034189 0
M  V30 32 H -0.391079 -0.953810 -3.201215 0
M  V30 33 H 3.074918 2.394683 -1.131768 0
M  V30 34 H 1.591154 2.637151 -0.066490 0
M  V30 35 H 2.783065 3.926890 -0.322404 0
M  V30 36 H -0.001124 1.771327 4.730852 0
M  V30 37 H 1.271141 0.507393 5.155572 0
M  V30 38 H -0.985234 -0.897390 5.634224 0
M  V30 39 H -0.147748 0.154377 6.894428 0
M  V30 40 H -1.614804 0.744314 5.958104 0
M  V30 41 H 0.606493 -2.514158 4.753509 0
M  V30 42 H 1.977280 -1.411049 4.520802 0
M  V30 43 H 1.846924 -2.760722 3.403321 0
M  V30 END ATOM
M  V30 BEGIN BOND
M  V30 1 1 1 2
M  V30 2 1 2 3
M  V30 3 1 3 4
M  V30 4 2 4 5
M  V30 5 1 4 6
M  V30 6 2 6 7
M  V30 7 1 7 8
M  V30 8 1 8 9
M  V30 9 2 9 10
M  V30 10 1 9 11
M  V30 11 1 11 12
M  V30 12 1 12 13
M  V30 13 2 13 14
M  V30 14 1 14 15
M  V30 15 2 15 16
M  V30 16 1 16 17
M  V30 17 1 17 18
M  V30 18 1 7 19
M  V30 19 1 19 20
M  V30 20 1 20 21
M  V30 21 1 21 22
M  V30 22 2 20 23
M  V30 23 1 23 24
M  V30 24 1 23 6
M  V30 25 1 17 13
M  V30 26 1 1 25
M  V30 27 1 1 26
M  V30 28 1 1 27
M  V30 29 1 2 28
M  V30 30 1 2 29
M  V30 31 1 8 30
M  V30 32 1 11 31
M  V30 33 1 11 32
M  V30 34 1 18 33
M  V30 35 1 18 34
M  V30 36 1 18 35
M  V30 37 1 21 36
M  V30 38 1 21 37
M  V30 39 1 22 38
M  V30 40 1 22 39
M  V30 41 1 22 40
M  V30 42 1 24 41
M  V30 43 1 24 42
M  V30 44 1 24 43
M  V30 END BOND
M  V30 END CTAB
M  END
>  <Dataset>  (196) 
ChEMBL_Kinases

>  <Ligand_Instance>  (196) 
nan

>  <PDB_ID>  (196) 
nan

>  <Standardized_SMILES>  (196) 
CCOC(=O)c1c(NC(=O)CSc2nnnn2C)sc(CC)c1C

>  <Name>  (196) 
nan

>  <Pocket>  (196) 
nan

>  <ATP_Site>  (196) 
nan

>  <Peripheral>  (196) 
nan

>  <Num_H_Atoms_ProtBoundConf>  (196) 
nan

>  <Num_Resolved_Atoms>  (196) 
nan

>  <Num_Not_Resolved_Atoms>  (196) 
nan

$$$$
CHEMBL1353112
     RDKit          3D

  0  0  0  0  0  0  0  0  0  0999 V3000
M  V30 BEGIN CTAB
M  V30 COUNTS 44 46 0 0 0
M  V30 BEGIN ATOM
M  V30 1 C -1.046456 -7.085036 -0.785868 0
M  V30 2 C -1.125161 -6.391610 0.549713 0
M  V30 3 C 0.211323 -6.232266 1.194494 0
M  V30 4 C 1.132180 -5.400973 0.396794 0
M  V30 5 N 0.673404 -4.024204 0.166094 0
M  V30 6 C 0.997758 -2.996560 1.130630 0
M  V30 7 O 1.660648 -3.168613 2.214671 0
M  V30 8 C 0.512992 -1.669069 0.806089 0
M  V30 9 C 0.952070 -0.507874 1.188213 0
M  V30 10 C 0.265620 0.690406 0.703082 0
M  V30 11 C 0.668465 1.913448 1.058992 0
M  V30 12 O 1.745424 2.059157 1.894955 0
M  V30 13 C 1.987195 3.382588 2.130449 0
M  V30 14 C 2.905451 4.104144 2.865384 0
M  V30 15 C 2.828844 5.486152 2.857466 0
M  V30 16 C 1.867205 6.169950 2.141092 0
M  V30 17 C 0.947634 5.453975 1.405362 0
M  V30 18 C 1.036132 4.081553 1.422820 0
M  V30 19 N 0.162099 3.214725 0.716600 0
M  V30 20 C -0.972873 3.253490 -0.158839 0
M  V30 21 C -1.488969 4.602387 -0.514116 0
M  V30 22 S -0.884955 -2.066333 -0.289958 0
M  V30 23 C -0.073680 -3.551830 -0.950668 0
M  V30 24 S -0.147981 -4.198005 -2.445771 0
M  V30 25 H -1.458184 -8.132038 -0.725545 0
M  V30 26 H -1.694596 -6.598302 -1.557142 0
M  V30 27 H -0.020567 -7.188405 -1.186679 0
M  V30 28 H -1.789795 -7.012921 1.194335 0
M  V30 29 H -1.607638 -5.403908 0.349111 0
M  V30 30 H 0.651368 -7.275967 1.229871 0
M  V30 31 H 0.148900 -5.951651 2.267509 0
M  V30 32 H 1.382081 -5.896366 -0.553715 0
M  V30 33 H 2.111517 -5.367652 0.958428 0
M  V30 34 H 1.802280 -0.419338 1.847568 0
M  V30 35 H -0.586444 0.623279 0.043561 0
M  V30 36 H 3.634013 3.519248 3.405625 0
M  V30 37 H 3.554268 6.023582 3.436834 0
M  V30 38 H 1.855808 7.265401 2.172839 0
M  V30 39 H 0.212738 6.017104 0.859285 0
M  V30 40 H -0.724033 2.645971 -1.079177 0
M  V30 41 H -1.778278 2.631251 0.344095 0
M  V30 42 H -0.788053 5.211812 -1.094524 0
M  V30 43 H -2.436359 4.427010 -1.130246 0
M  V30 44 H -1.885509 5.091466 0.397873 0
M  V30 END ATOM
M  V30 BEGIN BOND
M  V30 1 1 1 2
M  V30 2 1 2 3
M  V30 3 1 3 4
M  V30 4 1 4 5
M  V30 5 1 5 6
M  V30 6 2 6 7
M  V30 7 1 6 8
M  V30 8 2 8 9
M  V30 9 1 9 10
M  V30 10 2 10 11
M  V30 11 1 11 12
M  V30 12 1 12 13
M  V30 13 2 13 14
M  V30 14 1 14 15
M  V30 15 2 15 16
M  V30 16 1 16 17
M  V30 17 2 17 18
M  V30 18 1 18 19
M  V30 19 1 19 20
M  V30 20 1 20 21
M  V30 21 1 8 22
M  V30 22 1 22 23
M  V30 23 2 23 24
M  V30 24 1 23 5
M  V30 25 1 19 11
M  V30 26 1 18 13
M  V30 27 1 1 25
M  V30 28 1 1 26
M  V30 29 1 1 27
M  V30 30 1 2 28
M  V30 31 1 2 29
M  V30 32 1 3 30
M  V30 33 1 3 31
M  V30 34 1 4 32
M  V30 35 1 4 33
M  V30 36 1 9 34
M  V30 37 1 10 35
M  V30 38 1 14 36
M  V30 39 1 15 37
M  V30 40 1 16 38
M  V30 41 1 17 39
M  V30 42 1 20 40
M  V30 43 1 20 41
M  V30 44 1 21 42
M  V30 45 1 21 43
M  V30 46 1 21 44
M  V30 END BOND
M  V30 END CTAB
M  END
>  <Dataset>  (197) 
ChEMBL_Kinases

>  <Ligand_Instance>  (197) 
nan

>  <PDB_ID>  (197) 
nan

>  <Standardized_SMILES>  (197) 
CCCCN1C(=O)/C(=C/C=C2\Oc3ccccc3N2CC)SC1=S

>  <Name>  (197) 
nan

>  <Pocket>  (197) 
nan

>  <ATP_Site>  (197) 
nan

>  <Peripheral>  (197) 
nan

>  <Num_H_Atoms_ProtBoundConf>  (197) 
nan

>  <Num_Resolved_Atoms>  (197) 
nan

>  <Num_Not_Resolved_Atoms>  (197) 
nan

$$$$
CHEMBL1353014
     RDKit          3D

  0  0  0  0  0  0  0  0  0  0999 V3000
M  V30 BEGIN CTAB
M  V30 COUNTS 37 38 0 0 0
M  V30 BEGIN ATOM
M  V30 1 N 1.740128 -6.268183 2.761681 0
M  V30 2 C 1.416059 -4.905760 2.523691 0
M  V30 3 O 0.328859 -4.526273 3.056738 0
M  V30 4 N 2.178331 -3.948584 1.761357 0
M  V30 5 C 1.763441 -2.594074 1.580514 0
M  V30 6 O 0.682648 -2.349757 2.152609 0
M  V30 7 C 2.807908 -1.914005 0.736682 0
M  V30 8 O 2.499849 -0.567014 0.493177 0
M  V30 9 C 1.416683 -0.039401 -0.131798 0
M  V30 10 O 1.341287 -1.264992 -0.107056 0
M  V30 11 C 1.310772 1.387145 -0.267207 0
M  V30 12 C 2.288368 2.214005 0.216786 0
M  V30 13 C 2.080567 3.557744 0.020707 0
M  V30 14 C 0.944915 3.992506 -0.627122 0
M  V30 15 C -0.031196 3.109780 -1.106730 0
M  V30 16 C 0.156957 1.729539 -0.918999 0
M  V30 17 O -0.922660 1.092638 -1.470203 0
M  V30 18 C -1.748653 0.309221 -0.694418 0
M  V30 19 C -2.635527 1.171046 -0.030074 0
M  V30 20 C -3.616155 0.685286 0.845772 0
M  V30 21 C -3.719196 -0.672112 1.066074 0
M  V30 22 C -2.841849 -1.508377 0.406846 0
M  V30 23 C -1.880778 -1.038290 -0.451326 0
M  V30 24 H 0.994110 -6.995767 2.721279 0
M  V30 25 H 2.705934 -6.650759 2.987938 0
M  V30 26 H 3.030107 -4.456668 1.410696 0
M  V30 27 H 3.020676 -2.495611 -0.186297 0
M  V30 28 H 3.758216 -1.956751 1.357653 0
M  V30 29 H 3.124318 1.735954 0.703342 0
M  V30 30 H 2.851449 4.226904 0.401316 0
M  V30 31 H 0.902498 5.059448 -0.715920 0
M  V30 32 H -0.854371 3.657506 -1.590616 0
M  V30 33 H -2.712786 2.268920 -0.072626 0
M  V30 34 H -4.325595 1.274303 1.387071 0
M  V30 35 H -4.459135 -1.102425 1.733540 0
M  V30 36 H -2.841328 -2.589654 0.512508 0
M  V30 37 H -1.157204 -1.583914 -1.024616 0
M  V30 END ATOM
M  V30 BEGIN BOND
M  V30 1 1 1 2
M  V30 2 2 2 3
M  V30 3 1 2 4
M  V30 4 1 4 5
M  V30 5 2 5 6
M  V30 6 1 5 7
M  V30 7 1 7 8
M  V30 8 1 8 9
M  V30 9 2 9 10
M  V30 10 1 9 11
M  V30 11 2 11 12
M  V30 12 1 12 13
M  V30 13 2 13 14
M  V30 14 1 14 15
M  V30 15 2 15 16
M  V30 16 1 16 17
M  V30 17 1 17 18
M  V30 18 2 18 19
M  V30 19 1 19 20
M  V30 20 2 20 21
M  V30 21 1 21 22
M  V30 22 2 22 23
M  V30 23 1 16 11
M  V30 24 1 23 18
M  V30 25 1 1 24
M  V30 26 1 1 25
M  V30 27 1 4 26
M  V30 28 1 7 27
M  V30 29 1 7 28
M  V30 30 1 12 29
M  V30 31 1 13 30
M  V30 32 1 14 31
M  V30 33 1 15 32
M  V30 34 1 19 33
M  V30 35 1 20 34
M  V30 36 1 21 35
M  V30 37 1 22 36
M  V30 38 1 23 37
M  V30 END BOND
M  V30 END CTAB
M  END
>  <Dataset>  (198) 
ChEMBL_Kinases

>  <Ligand_Instance>  (198) 
nan

>  <PDB_ID>  (198) 
nan

>  <Standardized_SMILES>  (198) 
NC(=O)NC(=O)COC(=O)c1ccccc1Oc1ccccc1

>  <Name>  (198) 
nan

>  <Pocket>  (198) 
nan

>  <ATP_Site>  (198) 
nan

>  <Peripheral>  (198) 
nan

>  <Num_H_Atoms_ProtBoundConf>  (198) 
nan

>  <Num_Resolved_Atoms>  (198) 
nan

>  <Num_Not_Resolved_Atoms>  (198) 
nan

$$$$
CHEMBL1352869
     RDKit          3D

  0  0  0  0  0  0  0  0  0  0999 V3000
M  V30 BEGIN CTAB
M  V30 COUNTS 46 48 0 0 0
M  V30 BEGIN ATOM
M  V30 1 C 0.511404 -5.986155 0.263967 0
M  V30 2 C -0.150363 -5.608119 -1.043154 0
M  V30 3 N 0.099386 -4.223138 -1.396406 0
M  V30 4 N 1.117226 -3.759573 -2.121004 0
M  V30 5 C 1.003554 -2.423102 -2.231691 0
M  V30 6 C -0.126176 -2.011763 -1.555226 0
M  V30 7 C -0.624338 -0.663165 -1.417965 0
M  V30 8 N -1.790258 -0.327964 -0.961856 0
M  V30 9 O -1.902880 1.062031 -0.982692 0
M  V30 10 C -0.572411 1.573877 -0.885233 0
M  V30 11 C -0.110669 1.253408 0.492242 0
M  V30 12 O -0.887757 0.643897 1.273702 0
M  V30 13 N 1.169271 1.585703 1.017198 0
M  V30 14 C 1.324809 1.149997 2.365569 0
M  V30 15 C 1.836990 -0.120857 2.572835 0
M  V30 16 C 1.975416 -0.513130 3.890520 0
M  V30 17 C 1.626222 0.306991 4.946783 0
M  V30 18 C 1.117127 1.571282 4.712305 0
M  V30 19 C 0.969146 1.986773 3.403512 0
M  V30 20 C 0.429413 3.326027 3.188636 0
M  V30 21 O 0.099843 4.102511 4.121803 0
M  V30 22 O 0.244416 3.832365 1.895514 0
M  V30 23 C -0.286786 5.150102 1.692735 0
M  V30 24 C 0.142618 0.567059 -1.787358 0
M  V30 25 C -0.680863 -3.163101 -1.036306 0
M  V30 26 C -1.929611 -3.200395 -0.220695 0
M  V30 27 H 0.769493 -7.061937 0.298370 0
M  V30 28 H 1.394114 -5.343728 0.491850 0
M  V30 29 H -0.196897 -5.816371 1.126686 0
M  V30 30 H -1.245048 -5.709235 -0.899677 0
M  V30 31 H 0.154996 -6.322588 -1.825921 0
M  V30 32 H 1.679260 -1.744032 -2.763992 0
M  V30 33 H -0.459701 2.604919 -1.188556 0
M  V30 34 H 1.805585 2.093853 0.352826 0
M  V30 35 H 2.098052 -0.731471 1.718047 0
M  V30 36 H 2.370920 -1.495897 4.087026 0
M  V30 37 H 1.765463 -0.075607 5.961798 0
M  V30 38 H 0.839136 2.224761 5.537609 0
M  V30 39 H -1.404300 5.138131 1.727796 0
M  V30 40 H 0.098517 5.753395 2.565807 0
M  V30 41 H 0.108783 5.619179 0.772715 0
M  V30 42 H 0.036446 0.807360 -2.861827 0
M  V30 43 H 1.187421 0.542886 -1.426164 0
M  V30 44 H -2.843201 -3.089636 -0.839951 0
M  V30 45 H -1.945250 -2.390998 0.530035 0
M  V30 46 H -1.930219 -4.161014 0.325687 0
M  V30 END ATOM
M  V30 BEGIN BOND
M  V30 1 1 1 2
M  V30 2 1 2 3
M  V30 3 1 3 4
M  V30 4 2 4 5
M  V30 5 1 5 6
M  V30 6 1 6 7
M  V30 7 2 7 8
M  V30 8 1 8 9
M  V30 9 1 9 10
M  V30 10 1 10 11
M  V30 11 2 11 12
M  V30 12 1 11 13
M  V30 13 1 13 14
M  V30 14 2 14 15
M  V30 15 1 15 16
M  V30 16 2 16 17
M  V30 17 1 17 18
M  V30 18 2 18 19
M  V30 19 1 19 20
M  V30 20 2 20 21
M  V30 21 1 20 22
M  V30 22 1 22 23
M  V30 23 1 10 24
M  V30 24 2 6 25
M  V30 25 1 25 26
M  V30 26 1 25 3
M  V30 27 1 24 7
M  V30 28 1 19 14
M  V30 29 1 1 27
M  V30 30 1 1 28
M  V30 31 1 1 29
M  V30 32 1 2 30
M  V30 33 1 2 31
M  V30 34 1 5 32
M  V30 35 1 10 33
M  V30 36 1 13 34
M  V30 37 1 15 35
M  V30 38 1 16 36
M  V30 39 1 17 37
M  V30 40 1 18 38
M  V30 41 1 23 39
M  V30 42 1 23 40
M  V30 43 1 23 41
M  V30 44 1 24 42
M  V30 45 1 24 43
M  V30 46 1 26 44
M  V30 47 1 26 45
M  V30 48 1 26 46
M  V30 END BOND
M  V30 END CTAB
M  END
>  <Dataset>  (199) 
ChEMBL_Kinases

>  <Ligand_Instance>  (199) 
nan

>  <PDB_ID>  (199) 
nan

>  <Standardized_SMILES>  (199) 
CCn1ncc(C2=NOC(C(=O)Nc3ccccc3C(=O)OC)C2)c1C

>  <Name>  (199) 
nan

>  <Pocket>  (199) 
nan

>  <ATP_Site>  (199) 
nan

>  <Peripheral>  (199) 
nan

>  <Num_H_Atoms_ProtBoundConf>  (199) 
nan

>  <Num_Resolved_Atoms>  (199) 
nan

>  <Num_Not_Resolved_Atoms>  (199) 
nan

$$$$
CHEMBL1352672
     RDKit          3D

  0  0  0  0  0  0  0  0  0  0999 V3000
M  V30 BEGIN CTAB
M  V30 COUNTS 31 32 0 0 0
M  V30 BEGIN ATOM
M  V30 1 C -2.109667 -4.814748 4.277829 0
M  V30 2 C -1.068834 -3.818602 3.914505 0
M  V30 3 C -0.357616 -3.772626 2.718113 0
M  V30 4 C 0.483093 -2.675036 2.862279 0
M  V30 5 N 1.446193 -2.160691 1.917470 0
M  V30 6 C 0.911373 -1.190020 1.031000 0
M  V30 7 O -0.265062 -0.757043 0.993042 0
M  V30 8 C 1.828501 -0.604060 0.023274 0
M  V30 9 N 1.141431 0.371030 -0.810198 0
M  V30 10 C 1.103910 1.680963 -0.449804 0
M  V30 11 C 0.425799 2.511568 -1.315047 0
M  V30 12 C 0.375545 3.945746 -0.935839 0
M  V30 13 F -0.093711 4.666424 -2.040096 0
M  V30 14 F 1.596920 4.445257 -0.562608 0
M  V30 15 F -0.568481 4.077429 0.072534 0
M  V30 16 C -0.172400 2.032125 -2.469852 0
M  V30 17 C -0.108545 0.708833 -2.790536 0
M  V30 18 Cl -0.854394 0.051643 -4.249566 0
M  V30 19 C 0.567351 -0.117511 -1.927626 0
M  V30 20 O 0.629504 -1.339459 -2.218429 0
M  V30 21 N 0.246360 -2.132711 4.093493 0
M  V30 22 O -0.675172 -2.832244 4.687699 0
M  V30 23 H -2.390164 -5.414959 3.375166 0
M  V30 24 H -1.796558 -5.529030 5.050579 0
M  V30 25 H -3.028627 -4.272646 4.582189 0
M  V30 26 H -0.419387 -4.411751 1.873270 0
M  V30 27 H 2.423353 -2.468073 1.890307 0
M  V30 28 H 2.350977 -1.351467 -0.596012 0
M  V30 29 H 2.643795 -0.067939 0.585105 0
M  V30 30 H 1.592284 1.989848 0.466328 0
M  V30 31 H -0.703135 2.725439 -3.133105 0
M  V30 END ATOM
M  V30 BEGIN BOND
M  V30 1 1 1 2
M  V30 2 2 2 3
M  V30 3 1 3 4
M  V30 4 1 4 5
M  V30 5 1 5 6
M  V30 6 2 6 7
M  V30 7 1 6 8
M  V30 8 1 8 9
M  V30 9 1 9 10
M  V30 10 2 10 11
M  V30 11 1 11 12
M  V30 12 1 12 13
M  V30 13 1 12 14
M  V30 14 1 12 15
M  V30 15 1 11 16
M  V30 16 2 16 17
M  V30 17 1 17 18
M  V30 18 1 17 19
M  V30 19 2 19 20
M  V30 20 2 4 21
M  V30 21 1 21 22
M  V30 22 1 22 2
M  V30 23 1 19 9
M  V30 24 1 1 23
M  V30 25 1 1 24
M  V30 26 1 1 25
M  V30 27 1 3 26
M  V30 28 1 5 27
M  V30 29 1 8 28
M  V30 30 1 8 29
M  V30 31 1 10 30
M  V30 32 1 16 31
M  V30 END BOND
M  V30 END CTAB
M  END
>  <Dataset>  (200) 
ChEMBL_Kinases

>  <Ligand_Instance>  (200) 
nan

>  <PDB_ID>  (200) 
nan

>  <Standardized_SMILES>  (200) 
Cc1cc(NC(=O)Cn2cc(C(F)(F)F)cc(Cl)c2=O)no1

>  <Name>  (200) 
nan

>  <Pocket>  (200) 
nan

>  <ATP_Site>  (200) 
nan

>  <Peripheral>  (200) 
nan

>  <Num_H_Atoms_ProtBoundConf>  (200) 
nan

>  <Num_Resolved_Atoms>  (200) 
nan

>  <Num_Not_Resolved_Atoms>  (200) 
nan

$$$$
CHEMBL1352671
     RDKit          3D

  0  0  0  0  0  0  0  0  0  0999 V3000
M  V30 BEGIN CTAB
M  V30 COUNTS 46 49 0 0 0
M  V30 BEGIN ATOM
M  V30 1 C 0.508995 -3.275170 2.095769 0
M  V30 2 C -0.280648 -3.408841 0.811452 0
M  V30 3 N -1.678576 -3.029255 0.954155 0
M  V30 4 C -2.172542 -1.720656 1.182541 0
M  V30 5 C -1.543686 -0.558520 1.122405 0
M  V30 6 C -0.149191 -0.464073 0.781487 0
M  V30 7 C 0.537459 0.683203 0.709864 0
M  V30 8 C 1.959166 0.943257 0.378706 0
M  V30 9 O 2.748569 -0.005392 0.105356 0
M  V30 10 N 2.260279 2.325529 0.416676 0
M  V30 11 C 3.521910 2.861793 0.156392 0
M  V30 12 C 4.654510 2.125341 -0.099568 0
M  V30 13 C 5.907291 2.629267 -0.370568 0
M  V30 14 C 6.094225 3.997373 -0.399003 0
M  V30 15 C 4.973862 4.785331 -0.145496 0
M  V30 16 C 3.756901 4.212931 0.117042 0
M  V30 17 C 1.043455 2.951559 0.769201 0
M  V30 18 S 0.800116 4.556920 0.967760 0
M  V30 19 N -0.014873 1.976438 0.951516 0
M  V30 20 C -1.362739 2.327959 1.308132 0
M  V30 21 S -3.953771 -1.870037 1.537248 0
M  V30 22 C -3.987049 -3.597026 1.108595 0
M  V30 23 C -5.138951 -4.326401 1.064999 0
M  V30 24 C -5.036377 -5.670846 0.795110 0
M  V30 25 C -3.784965 -6.187052 0.588144 0
M  V30 26 C -2.691481 -5.365677 0.653141 0
M  V30 27 C -2.711512 -3.989069 0.921053 0
M  V30 28 H 1.560583 -3.034418 1.807707 0
M  V30 29 H 0.580917 -4.218353 2.673141 0
M  V30 30 H 0.084969 -2.523904 2.796338 0
M  V30 31 H -0.233734 -4.544484 0.637668 0
M  V30 32 H 0.204954 -3.067837 -0.111793 0
M  V30 33 H -2.289475 0.153355 1.376947 0
M  V30 34 H 0.567295 -1.188082 0.520397 0
M  V30 35 H 4.660375 1.052694 -0.107404 0
M  V30 36 H 6.778602 2.021481 -0.567555 0
M  V30 37 H 7.070875 4.407299 -0.610385 0
M  V30 38 H 5.172708 5.844862 -0.179199 0
M  V30 39 H 3.040798 4.970252 0.278589 0
M  V30 40 H -1.686978 2.045237 2.305307 0
M  V30 41 H -2.019065 2.092390 0.450639 0
M  V30 42 H -1.438838 3.465740 1.336960 0
M  V30 43 H -6.127466 -3.959451 1.218862 0
M  V30 44 H -5.877321 -6.340889 0.735840 0
M  V30 45 H -3.687191 -7.247972 0.374288 0
M  V30 46 H -1.734089 -5.883275 0.469446 0
M  V30 END ATOM
M  V30 BEGIN BOND
M  V30 1 1 1 2
M  V30 2 1 2 3
M  V30 3 1 3 4
M  V30 4 2 4 5
M  V30 5 1 5 6
M  V30 6 2 6 7
M  V30 7 1 7 8
M  V30 8 2 8 9
M  V30 9 1 8 10
M  V30 10 1 10 11
M  V30 11 2 11 12
M  V30 12 1 12 13
M  V30 13 2 13 14
M  V30 14 1 14 15
M  V30 15 2 15 16
M  V30 16 1 10 17
M  V30 17 2 17 18
M  V30 18 1 17 19
M  V30 19 1 19 20
M  V30 20 1 4 21
M  V30 21 1 21 22
M  V30 22 2 22 23
M  V30 23 1 23 24
M  V30 24 2 24 25
M  V30 25 1 25 26
M  V30 26 2 26 27
M  V30 27 1 27 3
M  V30 28 1 19 7
M  V30 29 1 27 22
M  V30 30 1 16 11
M  V30 31 1 1 28
M  V30 32 1 1 29
M  V30 33 1 1 30
M  V30 34 1 2 31
M  V30 35 1 2 32
M  V30 36 1 5 33
M  V30 37 1 6 34
M  V30 38 1 12 35
M  V30 39 1 13 36
M  V30 40 1 14 37
M  V30 41 1 15 38
M  V30 42 1 16 39
M  V30 43 1 20 40
M  V30 44 1 20 41
M  V30 45 1 20 42
M  V30 46 1 23 43
M  V30 47 1 24 44
M  V30 48 1 25 45
M  V30 49 1 26 46
M  V30 END BOND
M  V30 END CTAB
M  END
>  <Dataset>  (201) 
ChEMBL_Kinases

>  <Ligand_Instance>  (201) 
nan

>  <PDB_ID>  (201) 
nan

>  <Standardized_SMILES>  (201) 
CCN1/C(=C\C=C2\C(=O)N(c3ccccc3)C(=S)N2C)Sc2ccccc21

>  <Name>  (201) 
nan

>  <Pocket>  (201) 
nan

>  <ATP_Site>  (201) 
nan

>  <Peripheral>  (201) 
nan

>  <Num_H_Atoms_ProtBoundConf>  (201) 
nan

>  <Num_Resolved_Atoms>  (201) 
nan

>  <Num_Not_Resolved_Atoms>  (201) 
nan

$$$$
CHEMBL1352591
     RDKit          3D

  0  0  0  0  0  0  0  0  0  0999 V3000
M  V30 BEGIN CTAB
M  V30 COUNTS 44 45 0 0 0
M  V30 BEGIN ATOM
M  V30 1 C -0.988027 -3.951991 -0.621330 0
M  V30 2 N -0.729322 -4.234295 -2.018257 0
M  V30 3 C -1.907983 -4.006405 -2.818189 0
M  V30 4 S 0.614441 -3.297749 -2.587004 0
M  V30 5 O 1.799644 -3.584875 -1.709656 0
M  V30 6 O 0.943177 -3.666695 -3.983542 0
M  V30 7 C 0.284957 -1.566586 -2.467978 0
M  V30 8 C -0.306360 -0.872154 -3.518013 0
M  V30 9 C -0.549282 0.479938 -3.390681 0
M  V30 10 C -0.223344 1.178680 -2.245495 0
M  V30 11 C 0.365775 0.504632 -1.190044 0
M  V30 12 N 0.772612 1.036885 0.061215 0
M  V30 13 C 2.086894 1.532319 0.177950 0
M  V30 14 O 2.839767 1.481362 -0.840651 0
M  V30 15 C 2.887486 2.148050 1.263842 0
M  V30 16 O 2.217806 2.284206 2.479038 0
M  V30 17 C 1.717819 1.259205 3.247968 0
M  V30 18 O 1.831785 0.054349 2.904478 0
M  V30 19 C 1.027977 1.559330 4.509362 0
M  V30 20 C 0.787502 2.805389 5.082541 0
M  V30 21 C 0.108554 2.663204 6.272866 0
M  V30 22 C -0.069899 1.297427 6.430401 0
M  V30 23 N 0.486578 0.687520 5.369860 0
M  V30 24 C 0.491667 -0.752848 5.192410 0
M  V30 25 C 0.617484 -0.863535 -1.304774 0
M  V30 26 H -1.513993 -4.814448 -0.168368 0
M  V30 27 H -0.016823 -3.859711 -0.078157 0
M  V30 28 H -1.642639 -3.072572 -0.468776 0
M  V30 29 H -2.810634 -4.160027 -2.166540 0
M  V30 30 H -1.930638 -3.001223 -3.287455 0
M  V30 31 H -2.011627 -4.794633 -3.609480 0
M  V30 32 H -0.575880 -1.379630 -4.428142 0
M  V30 33 H -1.013044 1.060133 -4.195586 0
M  V30 34 H -0.383087 2.235187 -2.074092 0
M  V30 35 H 0.270833 1.154261 0.981775 0
M  V30 36 H 3.302377 3.130094 0.975548 0
M  V30 37 H 3.746184 1.439055 1.459768 0
M  V30 38 H 1.090124 3.753711 4.655468 0
M  V30 39 H -0.237758 3.409227 6.975725 0
M  V30 40 H -0.565452 0.801102 7.253291 0
M  V30 41 H 1.548103 -1.089754 5.221558 0
M  V30 42 H 0.108254 -0.925941 4.147507 0
M  V30 43 H -0.147761 -1.266333 5.916237 0
M  V30 44 H 1.073641 -1.464679 -0.529010 0
M  V30 END ATOM
M  V30 BEGIN BOND
M  V30 1 1 1 2
M  V30 2 1 2 3
M  V30 3 1 2 4
M  V30 4 2 4 5
M  V30 5 2 4 6
M  V30 6 1 4 7
M  V30 7 2 7 8
M  V30 8 1 8 9
M  V30 9 2 9 10
M  V30 10 1 10 11
M  V30 11 1 11 12
M  V30 12 1 12 13
M  V30 13 2 13 14
M  V30 14 1 13 15
M  V30 15 1 15 16
M  V30 16 1 16 17
M  V30 17 2 17 18
M  V30 18 1 17 19
M  V30 19 2 19 20
M  V30 20 1 20 21
M  V30 21 2 21 22
M  V30 22 1 22 23
M  V30 23 1 23 24
M  V30 24 2 11 25
M  V30 25 1 25 7
M  V30 26 1 23 19
M  V30 27 1 1 26
M  V30 28 1 1 27
M  V30 29 1 1 28
M  V30 30 1 3 29
M  V30 31 1 3 30
M  V30 32 1 3 31
M  V30 33 1 8 32
M  V30 34 1 9 33
M  V30 35 1 10 34
M  V30 36 1 12 35
M  V30 37 1 15 36
M  V30 38 1 15 37
M  V30 39 1 20 38
M  V30 40 1 21 39
M  V30 41 1 22 40
M  V30 42 1 24 41
M  V30 43 1 24 42
M  V30 44 1 24 43
M  V30 45 1 25 44
M  V30 END BOND
M  V30 END CTAB
M  END
>  <Dataset>  (202) 
ChEMBL_Kinases

>  <Ligand_Instance>  (202) 
nan

>  <PDB_ID>  (202) 
nan

>  <Standardized_SMILES>  (202) 
CN(C)S(=O)(=O)c1cccc(NC(=O)COC(=O)c2cccn2C)c1

>  <Name>  (202) 
nan

>  <Pocket>  (202) 
nan

>  <ATP_Site>  (202) 
nan

>  <Peripheral>  (202) 
nan

>  <Num_H_Atoms_ProtBoundConf>  (202) 
nan

>  <Num_Resolved_Atoms>  (202) 
nan

>  <Num_Not_Resolved_Atoms>  (202) 
nan

$$$$
CHEMBL1352447
     RDKit          3D

  0  0  0  0  0  0  0  0  0  0999 V3000
M  V30 BEGIN CTAB
M  V30 COUNTS 46 49 0 0 0
M  V30 BEGIN ATOM
M  V30 1 C 3.225947 -7.225991 -0.179600 0
M  V30 2 O 2.817846 -6.534411 -1.317624 0
M  V30 3 C 2.343522 -5.249924 -1.369381 0
M  V30 4 C 1.992066 -4.752264 -2.608423 0
M  V30 5 C 1.497141 -3.460514 -2.790387 0
M  V30 6 C 1.381514 -2.707924 -1.640576 0
M  V30 7 C 1.717513 -3.153642 -0.377338 0
M  V30 8 C 2.204540 -4.439123 -0.235846 0
M  V30 9 C 1.620129 -2.402795 0.874712 0
M  V30 10 C 1.080112 -1.009279 0.767695 0
M  V30 11 C 0.751946 -0.607787 -0.609696 0
M  V30 12 C 0.253033 0.641491 -0.917981 0
M  V30 13 C -0.118459 1.901909 -0.283955 0
M  V30 14 O -0.591756 2.953801 -0.837253 0
M  V30 15 N -0.004242 2.159943 1.105695 0
M  V30 16 C -0.432778 3.464387 1.472589 0
M  V30 17 C -0.298932 3.714957 2.976542 0
M  V30 18 C -1.131675 2.729836 3.761907 0
M  V30 19 N -2.525866 2.805412 3.447920 0
M  V30 20 C -3.220921 2.130945 2.499629 0
M  V30 21 C -4.549182 2.473015 2.500770 0
M  V30 22 N -4.660430 3.398208 3.497657 0
M  V30 23 C -3.446012 3.588136 4.055496 0
M  V30 24 N 0.084882 0.596499 -2.275941 0
M  V30 25 O 0.442893 -0.550058 -2.729353 0
M  V30 26 C 0.863498 -1.344147 -1.773649 0
M  V30 27 H 4.342100 -7.240144 -0.053060 0
M  V30 28 H 2.972959 -8.313424 -0.350259 0
M  V30 29 H 2.762083 -6.895346 0.769313 0
M  V30 30 H 2.084822 -5.348193 -3.510096 0
M  V30 31 H 1.218782 -3.060097 -3.755130 0
M  V30 32 H 2.493604 -4.873975 0.715636 0
M  V30 33 H 1.028790 -2.939677 1.651602 0
M  V30 34 H 2.662543 -2.387481 1.304143 0
M  V30 35 H 0.173345 -0.884144 1.400977 0
M  V30 36 H 1.843136 -0.308574 1.158770 0
M  V30 37 H 0.359958 1.446738 1.759813 0
M  V30 38 H 0.057771 4.295191 0.959012 0
M  V30 39 H -1.530036 3.550241 1.253309 0
M  V30 40 H -0.609384 4.747520 3.231417 0
M  V30 41 H 0.760436 3.617076 3.289626 0
M  V30 42 H -1.021259 2.973055 4.838886 0
M  V30 43 H -0.755251 1.702069 3.654140 0
M  V30 44 H -2.761694 1.416742 1.836597 0
M  V30 45 H -5.300708 2.073360 1.841892 0
M  V30 46 H -3.190028 4.261912 4.877705 0
M  V30 END ATOM
M  V30 BEGIN BOND
M  V30 1 1 1 2
M  V30 2 1 2 3
M  V30 3 2 3 4
M  V30 4 1 4 5
M  V30 5 2 5 6
M  V30 6 1 6 7
M  V30 7 2 7 8
M  V30 8 1 7 9
M  V30 9 1 9 10
M  V30 10 1 10 11
M  V30 11 1 11 12
M  V30 12 1 12 13
M  V30 13 2 13 14
M  V30 14 1 13 15
M  V30 15 1 15 16
M  V30 16 1 16 17
M  V30 17 1 17 18
M  V30 18 1 18 19
M  V30 19 1 19 20
M  V30 20 2 20 21
M  V30 21 1 21 22
M  V30 22 2 22 23
M  V30 23 2 12 24
M  V30 24 1 24 25
M  V30 25 1 25 26
M  V30 26 1 8 3
M  V30 27 2 26 11
M  V30 28 1 26 6
M  V30 29 1 23 19
M  V30 30 1 1 27
M  V30 31 1 1 28
M  V30 32 1 1 29
M  V30 33 1 4 30
M  V30 34 1 5 31
M  V30 35 1 8 32
M  V30 36 1 9 33
M  V30 37 1 9 34
M  V30 38 1 10 35
M  V30 39 1 10 36
M  V30 40 1 15 37
M  V30 41 1 16 38
M  V30 42 1 16 39
M  V30 43 1 17 40
M  V30 44 1 17 41
M  V30 45 1 18 42
M  V30 46 1 18 43
M  V30 47 1 20 44
M  V30 48 1 21 45
M  V30 49 1 23 46
M  V30 END BOND
M  V30 END CTAB
M  END
>  <Dataset>  (203) 
ChEMBL_Kinases

>  <Ligand_Instance>  (203) 
nan

>  <PDB_ID>  (203) 
nan

>  <Standardized_SMILES>  (203) 
COc1ccc2c(c1)CCc1c(C(=O)NCCCn3ccnc3)noc1-2

>  <Name>  (203) 
nan

>  <Pocket>  (203) 
nan

>  <ATP_Site>  (203) 
nan

>  <Peripheral>  (203) 
nan

>  <Num_H_Atoms_ProtBoundConf>  (203) 
nan

>  <Num_Resolved_Atoms>  (203) 
nan

>  <Num_Not_Resolved_Atoms>  (203) 
nan

$$$$
CHEMBL1352344
     RDKit          3D

  0  0  0  0  0  0  0  0  0  0999 V3000
M  V30 BEGIN CTAB
M  V30 COUNTS 43 44 0 0 0
M  V30 BEGIN ATOM
M  V30 1 C -2.870551 -4.951719 2.310160 0
M  V30 2 C -2.089664 -5.057783 0.986473 0
M  V30 3 C -2.545037 -6.275459 0.271850 0
M  V30 4 C -2.324223 -3.828875 0.191757 0
M  V30 5 C -1.299959 -3.035944 -0.159595 0
M  V30 6 C 0.157081 -3.150859 0.107070 0
M  V30 7 C 0.789442 -1.835992 -0.246865 0
M  V30 8 C -0.322507 -0.897953 -0.470634 0
M  V30 9 C -0.431521 0.434557 -0.342028 0
M  V30 10 C 0.680845 1.272962 0.095065 0
M  V30 11 C 2.011528 1.277244 -0.324458 0
M  V30 12 C 2.851832 2.187668 0.279158 0
M  V30 13 C 2.434912 3.073791 1.261105 0
M  V30 14 N 3.351653 4.008089 1.823178 0
M  V30 15 C 2.879475 4.887149 2.904138 0
M  V30 16 C 4.719044 4.145032 1.365010 0
M  V30 17 C 1.106172 3.073599 1.685191 0
M  V30 18 C 0.262166 2.158610 1.077840 0
M  V30 19 C -1.421111 -1.766360 -0.910539 0
M  V30 20 O -2.319565 -1.491212 -1.775888 0
M  V30 21 H -2.167490 -4.831766 3.159157 0
M  V30 22 H -3.537726 -5.803914 2.476853 0
M  V30 23 H -3.514996 -4.041354 2.251250 0
M  V30 24 H -0.998044 -5.136292 1.208687 0
M  V30 25 H -2.761833 -7.087120 1.028815 0
M  V30 26 H -3.564970 -6.078176 -0.171801 0
M  V30 27 H -1.819907 -6.644699 -0.464372 0
M  V30 28 H -3.331443 -3.548098 -0.122075 0
M  V30 29 H 0.340589 -3.386565 1.174811 0
M  V30 30 H 0.636505 -3.955659 -0.506169 0
M  V30 31 H 1.331987 -1.940171 -1.216169 0
M  V30 32 H 1.490018 -1.516118 0.545517 0
M  V30 33 H -1.399465 0.914180 -0.587034 0
M  V30 34 H 2.204459 0.556952 -1.077506 0
M  V30 35 H 3.866301 2.140169 -0.086228 0
M  V30 36 H 2.236607 5.704608 2.538528 0
M  V30 37 H 3.786292 5.238061 3.455797 0
M  V30 38 H 2.345535 4.250470 3.671295 0
M  V30 39 H 5.404041 3.411381 1.816818 0
M  V30 40 H 4.676270 3.939010 0.259663 0
M  V30 41 H 5.080692 5.192782 1.470842 0
M  V30 42 H 0.803827 3.770287 2.450089 0
M  V30 43 H -0.752293 2.246103 1.484033 0
M  V30 END ATOM
M  V30 BEGIN BOND
M  V30 1 1 1 2
M  V30 2 1 2 3
M  V30 3 1 2 4
M  V30 4 2 4 5
M  V30 5 1 5 6
M  V30 6 1 6 7
M  V30 7 1 7 8
M  V30 8 2 8 9
M  V30 9 1 9 10
M  V30 10 2 10 11
M  V30 11 1 11 12
M  V30 12 2 12 13
M  V30 13 1 13 14
M  V30 14 1 14 15
M  V30 15 1 14 16
M  V30 16 1 13 17
M  V30 17 2 17 18
M  V30 18 1 8 19
M  V30 19 2 19 20
M  V30 20 1 19 5
M  V30 21 1 18 10
M  V30 22 1 1 21
M  V30 23 1 1 22
M  V30 24 1 1 23
M  V30 25 1 2 24
M  V30 26 1 3 25
M  V30 27 1 3 26
M  V30 28 1 3 27
M  V30 29 1 4 28
M  V30 30 1 6 29
M  V30 31 1 6 30
M  V30 32 1 7 31
M  V30 33 1 7 32
M  V30 34 1 9 33
M  V30 35 1 11 34
M  V30 36 1 12 35
M  V30 37 1 15 36
M  V30 38 1 15 37
M  V30 39 1 15 38
M  V30 40 1 16 39
M  V30 41 1 16 40
M  V30 42 1 16 41
M  V30 43 1 17 42
M  V30 44 1 18 43
M  V30 END BOND
M  V30 END CTAB
M  END
>  <Dataset>  (204) 
ChEMBL_Kinases

>  <Ligand_Instance>  (204) 
nan

>  <PDB_ID>  (204) 
nan

>  <Standardized_SMILES>  (204) 
CC(C)/C=C1\CC/C(=C\c2ccc(N(C)C)cc2)C1=O

>  <Name>  (204) 
nan

>  <Pocket>  (204) 
nan

>  <ATP_Site>  (204) 
nan

>  <Peripheral>  (204) 
nan

>  <Num_H_Atoms_ProtBoundConf>  (204) 
nan

>  <Num_Resolved_Atoms>  (204) 
nan

>  <Num_Not_Resolved_Atoms>  (204) 
nan

$$$$
CHEMBL1352208
     RDKit          3D

  0  0  0  0  0  0  0  0  0  0999 V3000
M  V30 BEGIN CTAB
M  V30 COUNTS 57 61 0 0 0
M  V30 BEGIN ATOM
M  V30 1 C 5.494350 -5.668997 4.436969 0
M  V30 2 C 4.304933 -4.854408 4.023088 0
M  V30 3 C 4.387646 -3.509450 4.327140 0
M  V30 4 C 3.332375 -2.698611 3.967962 0
M  V30 5 C 2.270411 -3.305351 3.328173 0
M  V30 6 N 1.110474 -2.553966 2.900315 0
M  V30 7 C 1.580583 -2.107688 1.629810 0
M  V30 8 O 2.766598 -2.580725 1.505900 0
M  V30 9 C 0.936479 -1.274273 0.587647 0
M  V30 10 C 0.293994 -0.093577 0.889752 0
M  V30 11 N -0.280749 0.689148 -0.067652 0
M  V30 12 C -0.210875 0.278880 -1.375596 0
M  V30 13 N -0.923722 1.232654 -2.150362 0
M  V30 14 C -0.575210 2.664288 -2.006375 0
M  V30 15 C -1.767745 3.424343 -1.517326 0
M  V30 16 N -2.943407 2.595644 -1.351536 0
M  V30 17 C -4.056552 2.604536 -0.462004 0
M  V30 18 C -3.869943 1.859562 0.700083 0
M  V30 19 C -4.899575 1.784843 1.646935 0
M  V30 20 C -6.081966 2.461167 1.395520 0
M  V30 21 C -6.243696 3.201752 0.224401 0
M  V30 22 N -5.243047 3.252050 -0.658113 0
M  V30 23 C -3.250216 1.444872 -2.185159 0
M  V30 24 C -2.038328 1.148368 -3.106684 0
M  V30 25 C 0.429652 -0.896846 -1.678618 0
M  V30 26 C 0.407027 -1.143998 -3.027928 0
M  V30 27 C 1.052636 -2.336961 -3.406291 0
M  V30 28 C 1.660679 -3.194946 -2.495670 0
M  V30 29 C 1.618031 -2.840581 -1.165044 0
M  V30 30 C 1.012356 -1.697642 -0.726043 0
M  V30 31 C 2.164260 -4.660926 3.012625 0
M  V30 32 Br 0.654497 -5.408601 2.136895 0
M  V30 33 C 3.250846 -5.453259 3.389755 0
M  V30 34 H 6.303776 -5.475581 3.666758 0
M  V30 35 H 5.901601 -5.362627 5.410135 0
M  V30 36 H 5.281084 -6.760252 4.360741 0
M  V30 37 H 5.212104 -3.054576 4.819562 0
M  V30 38 H 3.248364 -1.630812 4.136848 0
M  V30 39 H 0.123918 -2.218817 3.116531 0
M  V30 40 H 0.293746 0.136530 1.953294 0
M  V30 41 H 0.342663 2.806995 -1.425096 0
M  V30 42 H -0.358102 3.051302 -3.045281 0
M  V30 43 H -1.512706 3.825070 -0.499343 0
M  V30 44 H -2.059355 4.290891 -2.134511 0
M  V30 45 H -2.962284 1.298747 0.959577 0
M  V30 46 H -4.858046 1.231017 2.581466 0
M  V30 47 H -6.901062 2.434884 2.096644 0
M  V30 48 H -7.156959 3.738339 0.001695 0
M  V30 49 H -3.319373 0.511726 -1.540731 0
M  V30 50 H -4.146351 1.543882 -2.794208 0
M  V30 51 H -2.031523 1.915677 -3.866776 0
M  V30 52 H -2.211641 0.133535 -3.487047 0
M  V30 53 H -0.023946 -0.532887 -3.786918 0
M  V30 54 H 1.115308 -2.656341 -4.428526 0
M  V30 55 H 2.147806 -4.111329 -2.839174 0
M  V30 56 H 2.073671 -3.487616 -0.454078 0
M  V30 57 H 3.216525 -6.502810 3.166957 0
M  V30 END ATOM
M  V30 BEGIN BOND
M  V30 1 1 1 2
M  V30 2 2 2 3
M  V30 3 1 3 4
M  V30 4 2 4 5
M  V30 5 1 5 6
M  V30 6 1 6 7
M  V30 7 2 7 8
M  V30 8 1 7 9
M  V30 9 2 9 10
M  V30 10 1 10 11
M  V30 11 2 11 12
M  V30 12 1 12 13
M  V30 13 1 13 14
M  V30 14 1 14 15
M  V30 15 1 15 16
M  V30 16 1 16 17
M  V30 17 2 17 18
M  V30 18 1 18 19
M  V30 19 2 19 20
M  V30 20 1 20 21
M  V30 21 2 21 22
M  V30 22 1 16 23
M  V30 23 1 23 24
M  V30 24 1 12 25
M  V30 25 2 25 26
M  V30 26 1 26 27
M  V30 27 2 27 28
M  V30 28 1 28 29
M  V30 29 2 29 30
M  V30 30 1 5 31
M  V30 31 1 31 32
M  V30 32 2 31 33
M  V30 33 1 33 2
M  V30 34 1 30 9
M  V30 35 1 24 13
M  V30 36 1 30 25
M  V30 37 1 22 17
M  V30 38 1 1 34
M  V30 39 1 1 35
M  V30 40 1 1 36
M  V30 41 1 3 37
M  V30 42 1 4 38
M  V30 43 1 6 39
M  V30 44 1 10 40
M  V30 45 1 14 41
M  V30 46 1 14 42
M  V30 47 1 15 43
M  V30 48 1 15 44
M  V30 49 1 18 45
M  V30 50 1 19 46
M  V30 51 1 20 47
M  V30 52 1 21 48
M  V30 53 1 23 49
M  V30 54 1 23 50
M  V30 55 1 24 51
M  V30 56 1 24 52
M  V30 57 1 26 53
M  V30 58 1 27 54
M  V30 59 1 28 55
M  V30 60 1 29 56
M  V30 61 1 33 57
M  V30 END BOND
M  V30 END CTAB
M  END
>  <Dataset>  (205) 
ChEMBL_Kinases

>  <Ligand_Instance>  (205) 
nan

>  <PDB_ID>  (205) 
nan

>  <Standardized_SMILES>  (205) 
Cc1ccc(NC(=O)c2cnc(N3CCN(c4ccccn4)CC3)c3ccccc23)c(Br)c1

>  <Name>  (205) 
nan

>  <Pocket>  (205) 
nan

>  <ATP_Site>  (205) 
nan

>  <Peripheral>  (205) 
nan

>  <Num_H_Atoms_ProtBoundConf>  (205) 
nan

>  <Num_Resolved_Atoms>  (205) 
nan

>  <Num_Not_Resolved_Atoms>  (205) 
nan

$$$$
CHEMBL1352100
     RDKit          3D

  0  0  0  0  0  0  0  0  0  0999 V3000
M  V30 BEGIN CTAB
M  V30 COUNTS 48 49 0 0 0
M  V30 BEGIN ATOM
M  V30 1 C -0.205073 -5.834746 2.658128 0
M  V30 2 O -0.890026 -4.611317 2.568754 0
M  V30 3 C -0.307836 -3.587990 1.811192 0
M  V30 4 C 0.895125 -3.723300 1.154800 0
M  V30 5 C 1.469172 -2.716829 0.408933 0
M  V30 6 C 0.782997 -1.521696 0.331879 0
M  V30 7 N 1.373713 -0.480908 -0.437395 0
M  V30 8 C 2.201836 0.291796 0.391592 0
M  V30 9 O 2.355573 0.043515 1.633403 0
M  V30 10 C 3.026582 1.488927 0.030117 0
M  V30 11 C 3.703085 1.895914 1.333547 0
M  V30 12 N 4.552228 3.048793 1.183029 0
M  V30 13 C 3.999588 4.285778 0.738430 0
M  V30 14 C 4.850104 5.504993 0.570130 0
M  V30 15 O 2.779310 4.466652 0.453055 0
M  V30 16 C -0.416482 -1.392197 0.988614 0
M  V30 17 C -1.015766 -2.381317 1.742141 0
M  V30 18 N -2.258185 -2.127817 2.382564 0
M  V30 19 S -3.379544 -0.863010 2.094658 0
M  V30 20 O -2.662664 0.441512 2.323935 0
M  V30 21 O -4.521646 -1.001516 3.055212 0
M  V30 22 C -3.954420 -0.993070 0.453960 0
M  V30 23 C -3.491661 -0.381738 -0.685547 0
M  V30 24 C -4.076289 -0.612636 -1.908480 0
M  V30 25 C -5.150033 -1.465772 -2.043907 0
M  V30 26 F -5.719403 -1.684207 -3.266239 0
M  V30 27 C -5.652125 -2.103871 -0.930206 0
M  V30 28 C -5.046157 -1.855289 0.291266 0
M  V30 29 H -0.765400 -6.564997 3.244419 0
M  V30 30 H -0.033632 -6.234712 1.617199 0
M  V30 31 H 0.806615 -5.727452 3.091942 0
M  V30 32 H 1.365307 -4.694413 1.269028 0
M  V30 33 H 2.413189 -2.952562 -0.054011 0
M  V30 34 H 1.350419 -0.154721 -1.427238 0
M  V30 35 H 2.349813 2.289259 -0.331653 0
M  V30 36 H 3.754292 1.298091 -0.766325 0
M  V30 37 H 4.259183 1.046015 1.750884 0
M  V30 38 H 2.926832 2.180106 2.072952 0
M  V30 39 H 5.578456 3.046517 1.382183 0
M  V30 40 H 4.571974 6.272377 1.348316 0
M  V30 41 H 4.626773 5.912877 -0.440335 0
M  V30 42 H 5.917990 5.249624 0.589679 0
M  V30 43 H -0.860663 -0.423179 0.865554 0
M  V30 44 H -2.456522 -2.846621 3.120519 0
M  V30 45 H -2.658800 0.271531 -0.516338 0
M  V30 46 H -3.651744 -0.094426 -2.744809 0
M  V30 47 H -6.492242 -2.772917 -1.027633 0
M  V30 48 H -5.499819 -2.396265 1.122828 0
M  V30 END ATOM
M  V30 BEGIN BOND
M  V30 1 1 1 2
M  V30 2 1 2 3
M  V30 3 2 3 4
M  V30 4 1 4 5
M  V30 5 2 5 6
M  V30 6 1 6 7
M  V30 7 1 7 8
M  V30 8 2 8 9
M  V30 9 1 8 10
M  V30 10 1 10 11
M  V30 11 1 11 12
M  V30 12 1 12 13
M  V30 13 1 13 14
M  V30 14 2 13 15
M  V30 15 1 6 16
M  V30 16 2 16 17
M  V30 17 1 17 18
M  V30 18 1 18 19
M  V30 19 2 19 20
M  V30 20 2 19 21
M  V30 21 1 19 22
M  V30 22 2 22 23
M  V30 23 1 23 24
M  V30 24 2 24 25
M  V30 25 1 25 26
M  V30 26 1 25 27
M  V30 27 2 27 28
M  V30 28 1 17 3
M  V30 29 1 28 22
M  V30 30 1 1 29
M  V30 31 1 1 30
M  V30 32 1 1 31
M  V30 33 1 4 32
M  V30 34 1 5 33
M  V30 35 1 7 34
M  V30 36 1 10 35
M  V30 37 1 10 36
M  V30 38 1 11 37
M  V30 39 1 11 38
M  V30 40 1 12 39
M  V30 41 1 14 40
M  V30 42 1 14 41
M  V30 43 1 14 42
M  V30 44 1 16 43
M  V30 45 1 18 44
M  V30 46 1 23 45
M  V30 47 1 24 46
M  V30 48 1 27 47
M  V30 49 1 28 48
M  V30 END BOND
M  V30 END CTAB
M  END
>  <Dataset>  (206) 
ChEMBL_Kinases

>  <Ligand_Instance>  (206) 
nan

>  <PDB_ID>  (206) 
nan

>  <Standardized_SMILES>  (206) 
COc1ccc(NC(=O)CCNC(C)=O)cc1NS(=O)(=O)c1ccc(F)cc1

>  <Name>  (206) 
nan

>  <Pocket>  (206) 
nan

>  <ATP_Site>  (206) 
nan

>  <Peripheral>  (206) 
nan

>  <Num_H_Atoms_ProtBoundConf>  (206) 
nan

>  <Num_Resolved_Atoms>  (206) 
nan

>  <Num_Not_Resolved_Atoms>  (206) 
nan

$$$$
CHEMBL1352007
     RDKit          3D

  0  0  0  0  0  0  0  0  0  0999 V3000
M  V30 BEGIN CTAB
M  V30 COUNTS 35 38 0 0 0
M  V30 BEGIN ATOM
M  V30 1 C 0.408757 -3.818128 0.963379 0
M  V30 2 C -0.398010 -2.901388 1.814024 0
M  V30 3 N -1.519701 -3.200387 2.477945 0
M  V30 4 N -1.952137 -2.105245 3.127607 0
M  V30 5 C -1.064396 -1.116940 2.845944 0
M  V30 6 C -0.065651 -1.569254 2.021318 0
M  V30 7 C 1.000795 -0.624477 1.607985 0
M  V30 8 C 1.150110 -0.585538 0.142135 0
M  V30 9 C 2.197469 -1.158160 -0.579037 0
M  V30 10 N 2.008081 -0.933931 -1.898555 0
M  V30 11 C 0.866649 -0.233272 -2.029572 0
M  V30 12 C 0.200565 0.265322 -3.153748 0
M  V30 13 C -0.994880 0.978207 -3.001617 0
M  V30 14 C -1.565754 1.220573 -1.759300 0
M  V30 15 C -0.863470 0.705415 -0.704012 0
M  V30 16 C 0.306537 0.000695 -0.774071 0
M  V30 17 C 0.717321 0.682155 2.223095 0
M  V30 18 C 1.696196 1.719702 1.902905 0
M  V30 19 N 2.480267 2.556867 1.625068 0
M  V30 20 C -0.245075 1.122876 3.017673 0
M  V30 21 N -0.333742 2.474951 3.515080 0
M  V30 22 O -1.218084 0.164507 3.367076 0
M  V30 23 H 1.458789 -3.537664 0.934119 0
M  V30 24 H 0.255487 -4.875844 1.327703 0
M  V30 25 H -0.043806 -3.819187 -0.064187 0
M  V30 26 H -2.826304 -2.233971 3.679693 0
M  V30 27 H 1.959649 -1.008773 2.068099 0
M  V30 28 H 3.018457 -1.695176 -0.089154 0
M  V30 29 H 2.647377 -1.255823 -2.679715 0
M  V30 30 H 0.642606 0.077100 -4.110329 0
M  V30 31 H -1.514066 1.368273 -3.891688 0
M  V30 32 H -2.476120 1.761288 -1.610876 0
M  V30 33 H -1.294816 0.883728 0.287789 0
M  V30 34 H -0.596250 2.539099 4.526174 0
M  V30 35 H -0.148687 3.280947 2.900340 0
M  V30 END ATOM
M  V30 BEGIN BOND
M  V30 1 1 1 2
M  V30 2 2 2 3
M  V30 3 1 3 4
M  V30 4 1 4 5
M  V30 5 2 5 6
M  V30 6 1 6 7
M  V30 7 1 7 8
M  V30 8 2 8 9
M  V30 9 1 9 10
M  V30 10 1 10 11
M  V30 11 2 11 12
M  V30 12 1 12 13
M  V30 13 2 13 14
M  V30 14 1 14 15
M  V30 15 2 15 16
M  V30 16 1 7 17
M  V30 17 1 17 18
M  V30 18 3 18 19
M  V30 19 2 17 20
M  V30 20 1 20 21
M  V30 21 1 20 22
M  V30 22 1 6 2
M  V30 23 1 16 8
M  V30 24 1 22 5
M  V30 25 1 16 11
M  V30 26 1 1 23
M  V30 27 1 1 24
M  V30 28 1 1 25
M  V30 29 1 4 26
M  V30 30 1 7 27
M  V30 31 1 9 28
M  V30 32 1 10 29
M  V30 33 1 12 30
M  V30 34 1 13 31
M  V30 35 1 14 32
M  V30 36 1 15 33
M  V30 37 1 21 34
M  V30 38 1 21 35
M  V30 END BOND
M  V30 END CTAB
M  END
>  <Dataset>  (207) 
ChEMBL_Kinases

>  <Ligand_Instance>  (207) 
nan

>  <PDB_ID>  (207) 
nan

>  <Standardized_SMILES>  (207) 
Cc1n[nH]c2c1C(c1c[nH]c3ccccc13)C(C#N)=C(N)O2

>  <Name>  (207) 
nan

>  <Pocket>  (207) 
nan

>  <ATP_Site>  (207) 
nan

>  <Peripheral>  (207) 
nan

>  <Num_H_Atoms_ProtBoundConf>  (207) 
nan

>  <Num_Resolved_Atoms>  (207) 
nan

>  <Num_Not_Resolved_Atoms>  (207) 
nan

$$$$
CHEMBL1351893
     RDKit          3D

  0  0  0  0  0  0  0  0  0  0999 V3000
M  V30 BEGIN CTAB
M  V30 COUNTS 45 47 0 0 0
M  V30 BEGIN ATOM
M  V30 1 C 0.414148 -3.173681 2.968771 0
M  V30 2 C 0.020864 -1.862197 2.272207 0
M  V30 3 C -0.601109 -2.257577 0.977901 0
M  V30 4 C -1.058448 -1.153976 0.131616 0
M  V30 5 C -0.150549 -0.413825 -0.588454 0
M  V30 6 C 1.298273 -0.414974 -0.773824 0
M  V30 7 O 1.896908 -1.444499 -1.229344 0
M  V30 8 N 2.026455 0.759173 -0.434987 0
M  V30 9 C 3.271592 1.396971 -0.360834 0
M  V30 10 C 3.708215 2.102704 -1.459032 0
M  V30 11 C 4.941788 2.766077 -1.460841 0
M  V30 12 C 5.643343 2.636772 -0.280831 0
M  V30 13 F 6.857361 3.268264 -0.233051 0
M  V30 14 C 5.294872 1.960366 0.859470 0
M  V30 15 C 4.046139 1.325181 0.776771 0
M  V30 16 C 3.556766 0.561532 1.944177 0
M  V30 17 C -0.892507 0.547253 -1.279776 0
M  V30 18 N -2.182987 0.365536 -0.967616 0
M  V30 19 N -2.300304 -0.663438 -0.111866 0
M  V30 20 C -3.421056 -1.270327 0.526744 0
M  V30 21 C -3.763719 -0.699625 1.736277 0
M  V30 22 C -4.844161 -1.202505 2.462091 0
M  V30 23 C -5.555714 -2.273542 1.948208 0
M  V30 24 C -5.180833 -2.814002 0.737493 0
M  V30 25 C -4.118976 -2.340468 -0.003658 0
M  V30 26 H -0.301125 -3.970278 2.714106 0
M  V30 27 H 1.470785 -3.426867 2.705887 0
M  V30 28 H 0.415743 -3.067505 4.073220 0
M  V30 29 H -0.677888 -1.384343 2.979198 0
M  V30 30 H 0.952224 -1.298420 2.164703 0
M  V30 31 H 0.189820 -2.853950 0.431737 0
M  V30 32 H -1.397732 -3.002177 1.211110 0
M  V30 33 H 1.467979 1.584430 -0.057855 0
M  V30 34 H 3.116216 2.180854 -2.382358 0
M  V30 35 H 5.349525 3.337626 -2.282910 0
M  V30 36 H 5.923902 1.928827 1.721099 0
M  V30 37 H 3.866813 -0.500378 1.935316 0
M  V30 38 H 2.449520 0.659092 2.035046 0
M  V30 39 H 3.998766 1.031494 2.850581 0
M  V30 40 H -0.662309 1.366089 -1.978672 0
M  V30 41 H -3.233619 0.138863 2.174273 0
M  V30 42 H -5.142556 -0.770429 3.428032 0
M  V30 43 H -6.395846 -2.675445 2.497741 0
M  V30 44 H -5.709498 -3.656769 0.293715 0
M  V30 45 H -3.758248 -2.698912 -0.951436 0
M  V30 END ATOM
M  V30 BEGIN BOND
M  V30 1 1 1 2
M  V30 2 1 2 3
M  V30 3 1 3 4
M  V30 4 2 4 5
M  V30 5 1 5 6
M  V30 6 2 6 7
M  V30 7 1 6 8
M  V30 8 1 8 9
M  V30 9 2 9 10
M  V30 10 1 10 11
M  V30 11 2 11 12
M  V30 12 1 12 13
M  V30 13 1 12 14
M  V30 14 2 14 15
M  V30 15 1 15 16
M  V30 16 1 5 17
M  V30 17 2 17 18
M  V30 18 1 18 19
M  V30 19 1 19 20
M  V30 20 2 20 21
M  V30 21 1 21 22
M  V30 22 2 22 23
M  V30 23 1 23 24
M  V30 24 2 24 25
M  V30 25 1 19 4
M  V30 26 1 25 20
M  V30 27 1 15 9
M  V30 28 1 1 26
M  V30 29 1 1 27
M  V30 30 1 1 28
M  V30 31 1 2 29
M  V30 32 1 2 30
M  V30 33 1 3 31
M  V30 34 1 3 32
M  V30 35 1 8 33
M  V30 36 1 10 34
M  V30 37 1 11 35
M  V30 38 1 14 36
M  V30 39 1 16 37
M  V30 40 1 16 38
M  V30 41 1 16 39
M  V30 42 1 17 40
M  V30 43 1 21 41
M  V30 44 1 22 42
M  V30 45 1 23 43
M  V30 46 1 24 44
M  V30 47 1 25 45
M  V30 END BOND
M  V30 END CTAB
M  END
>  <Dataset>  (208) 
ChEMBL_Kinases

>  <Ligand_Instance>  (208) 
nan

>  <PDB_ID>  (208) 
nan

>  <Standardized_SMILES>  (208) 
CCCc1c(C(=O)Nc2ccc(F)cc2C)cnn1-c1ccccc1

>  <Name>  (208) 
nan

>  <Pocket>  (208) 
nan

>  <ATP_Site>  (208) 
nan

>  <Peripheral>  (208) 
nan

>  <Num_H_Atoms_ProtBoundConf>  (208) 
nan

>  <Num_Resolved_Atoms>  (208) 
nan

>  <Num_Not_Resolved_Atoms>  (208) 
nan

$$$$
CHEMBL1351780
     RDKit          3D

  0  0  0  0  0  0  0  0  0  0999 V3000
M  V30 BEGIN CTAB
M  V30 COUNTS 27 28 0 0 0
M  V30 BEGIN ATOM
M  V30 1 C -1.318179 -3.925872 3.200986 0
M  V30 2 C -0.300246 -3.109840 2.454443 0
M  V30 3 C 1.057295 -3.198036 2.713465 0
M  V30 4 Cl 1.502779 -4.329664 3.972053 0
M  V30 5 C 1.983180 -2.436277 2.015449 0
M  V30 6 N 1.545967 -1.581531 1.052663 0
M  V30 7 C 0.225529 -1.458109 0.760612 0
M  V30 8 N -0.131449 -0.536144 -0.260670 0
M  V30 9 C -0.316422 -0.508886 -1.645733 0
M  V30 10 O -0.179933 -1.488096 -2.439212 0
M  V30 11 C -0.701160 0.702131 -2.342795 0
M  V30 12 S -0.935059 2.180646 -1.435977 0
M  V30 13 C 0.334184 2.962788 -0.657325 0
M  V30 14 N 1.088297 3.885509 -1.226702 0
M  V30 15 N 2.023396 4.507530 -0.752248 0
M  V30 16 C 2.372898 4.210937 0.621748 0
M  V30 17 S 1.089807 2.871093 1.070576 0
M  V30 18 C -0.713785 -2.220400 1.457547 0
M  V30 19 Cl -2.414640 -2.037710 1.056315 0
M  V30 20 H -1.298690 -4.939409 2.772444 0
M  V30 21 H -1.062978 -3.983702 4.280049 0
M  V30 22 H -2.302165 -3.435171 3.090254 0
M  V30 23 H 3.027432 -2.561209 2.275053 0
M  V30 24 H -0.256539 0.294535 0.355643 0
M  V30 25 H -1.648372 0.477328 -2.916582 0
M  V30 26 H 0.056571 0.879735 -3.159040 0
M  V30 27 H 3.117943 4.633463 1.165222 0
M  V30 END ATOM
M  V30 BEGIN BOND
M  V30 1 1 1 2
M  V30 2 2 2 3
M  V30 3 1 3 4
M  V30 4 1 3 5
M  V30 5 2 5 6
M  V30 6 1 6 7
M  V30 7 1 7 8
M  V30 8 1 8 9
M  V30 9 2 9 10
M  V30 10 1 9 11
M  V30 11 1 11 12
M  V30 12 1 12 13
M  V30 13 2 13 14
M  V30 14 1 14 15
M  V30 15 2 15 16
M  V30 16 1 16 17
M  V30 17 2 7 18
M  V30 18 1 18 19
M  V30 19 1 18 2
M  V30 20 1 17 13
M  V30 21 1 1 20
M  V30 22 1 1 21
M  V30 23 1 1 22
M  V30 24 1 5 23
M  V30 25 1 8 24
M  V30 26 1 11 25
M  V30 27 1 11 26
M  V30 28 1 16 27
M  V30 END BOND
M  V30 END CTAB
M  END
>  <Dataset>  (209) 
ChEMBL_Kinases

>  <Ligand_Instance>  (209) 
nan

>  <PDB_ID>  (209) 
nan

>  <Standardized_SMILES>  (209) 
Cc1c(Cl)cnc(NC(=O)CSc2nncs2)c1Cl

>  <Name>  (209) 
nan

>  <Pocket>  (209) 
nan

>  <ATP_Site>  (209) 
nan

>  <Peripheral>  (209) 
nan

>  <Num_H_Atoms_ProtBoundConf>  (209) 
nan

>  <Num_Resolved_Atoms>  (209) 
nan

>  <Num_Not_Resolved_Atoms>  (209) 
nan

$$$$
CHEMBL1351750
     RDKit          3D

  0  0  0  0  0  0  0  0  0  0999 V3000
M  V30 BEGIN CTAB
M  V30 COUNTS 44 47 0 0 0
M  V30 BEGIN ATOM
M  V30 1 O 2.184181 -2.323612 2.456459 0
M  V30 2 C 2.056683 -1.924416 1.250100 0
M  V30 3 N 1.161276 -0.851079 1.074340 0
M  V30 4 C 0.332496 -0.057538 1.900092 0
M  V30 5 C -0.342111 0.862251 1.226780 0
M  V30 6 N -0.331669 1.125270 -0.122303 0
M  V30 7 C -0.652853 0.714382 -1.428578 0
M  V30 8 C -2.017889 0.784321 -1.635094 0
M  V30 9 C -2.595625 0.434645 -2.854708 0
M  V30 10 C -1.769968 0.010798 -3.874776 0
M  V30 11 Cl -2.306139 -0.453214 -5.468529 0
M  V30 12 C -0.425471 -0.043665 -3.633958 0
M  V30 13 C 0.158949 0.293512 -2.443303 0
M  V30 14 C -1.215281 1.718784 2.015077 0
M  V30 15 O -1.907356 2.632186 1.460044 0
M  V30 16 C -1.395384 1.640424 3.453860 0
M  V30 17 C -2.245104 2.486050 4.144374 0
M  V30 18 C -2.308330 2.282537 5.517818 0
M  V30 19 C -1.589601 1.315787 6.172255 0
M  V30 20 C -0.760245 0.500411 5.433403 0
M  V30 21 C -0.639574 0.642906 4.045267 0
M  V30 22 C 0.277878 -0.287047 3.353839 0
M  V30 23 O 0.872736 -1.115396 4.018905 0
M  V30 24 C 2.875531 -2.670857 0.329027 0
M  V30 25 C 3.624641 -3.724898 0.869962 0
M  V30 26 C 4.419931 -4.437358 -0.050458 0
M  V30 27 C 4.484280 -4.151444 -1.383229 0
M  V30 28 C 3.746904 -3.124679 -1.875049 0
M  V30 29 C 2.949265 -2.393305 -1.018862 0
M  V30 30 H 1.216231 -0.705231 0.040087 0
M  V30 31 H 0.114452 2.054567 -0.321455 0
M  V30 32 H -2.785664 1.099878 -0.937202 0
M  V30 33 H -3.648733 0.454346 -3.101059 0
M  V30 34 H 0.348807 -0.357225 -4.340192 0
M  V30 35 H 1.198308 0.297946 -2.149503 0
M  V30 36 H -2.793413 3.232677 3.588323 0
M  V30 37 H -2.956153 2.928141 6.087381 0
M  V30 38 H -1.667169 1.187563 7.248476 0
M  V30 39 H -0.204760 -0.257885 6.005547 0
M  V30 40 H 3.671975 -4.065935 1.890404 0
M  V30 41 H 5.020021 -5.263408 0.315422 0
M  V30 42 H 5.120079 -4.742124 -2.039161 0
M  V30 43 H 3.754390 -2.841420 -2.933413 0
M  V30 44 H 2.367364 -1.578465 -1.408823 0
M  V30 END ATOM
M  V30 BEGIN BOND
M  V30 1 2 1 2
M  V30 2 1 2 3
M  V30 3 1 3 4
M  V30 4 2 4 5
M  V30 5 1 5 6
M  V30 6 1 6 7
M  V30 7 2 7 8
M  V30 8 1 8 9
M  V30 9 2 9 10
M  V30 10 1 10 11
M  V30 11 1 10 12
M  V30 12 2 12 13
M  V30 13 1 5 14
M  V30 14 2 14 15
M  V30 15 1 14 16
M  V30 16 2 16 17
M  V30 17 1 17 18
M  V30 18 2 18 19
M  V30 19 1 19 20
M  V30 20 2 20 21
M  V30 21 1 21 22
M  V30 22 2 22 23
M  V30 23 1 2 24
M  V30 24 2 24 25
M  V30 25 1 25 26
M  V30 26 2 26 27
M  V30 27 1 27 28
M  V30 28 2 28 29
M  V30 29 1 22 4
M  V30 30 1 29 24
M  V30 31 1 13 7
M  V30 32 1 21 16
M  V30 33 1 3 30
M  V30 34 1 6 31
M  V30 35 1 8 32
M  V30 36 1 9 33
M  V30 37 1 12 34
M  V30 38 1 13 35
M  V30 39 1 17 36
M  V30 40 1 18 37
M  V30 41 1 19 38
M  V30 42 1 20 39
M  V30 43 1 25 40
M  V30 44 1 26 41
M  V30 45 1 27 42
M  V30 46 1 28 43
M  V30 47 1 29 44
M  V30 END BOND
M  V30 END CTAB
M  END
>  <Dataset>  (210) 
ChEMBL_Kinases

>  <Ligand_Instance>  (210) 
nan

>  <PDB_ID>  (210) 
nan

>  <Standardized_SMILES>  (210) 
O=C(NC1=C(Nc2ccc(Cl)cc2)C(=O)c2ccccc2C1=O)c1ccccc1

>  <Name>  (210) 
nan

>  <Pocket>  (210) 
nan

>  <ATP_Site>  (210) 
nan

>  <Peripheral>  (210) 
nan

>  <Num_H_Atoms_ProtBoundConf>  (210) 
nan

>  <Num_Resolved_Atoms>  (210) 
nan

>  <Num_Not_Resolved_Atoms>  (210) 
nan

$$$$
CHEMBL1357018
     RDKit          3D

  0  0  0  0  0  0  0  0  0  0999 V3000
M  V30 BEGIN CTAB
M  V30 COUNTS 37 40 0 0 0
M  V30 BEGIN ATOM
M  V30 1 C 0.870692 -2.987566 3.086010 0
M  V30 2 C -0.135895 -3.533772 2.307190 0
M  V30 3 N 0.129137 -3.622593 0.997892 0
M  V30 4 C 1.302249 -3.206980 0.459985 0
M  V30 5 C 2.329272 -2.652009 1.233743 0
M  V30 6 C 3.609637 -2.173821 0.627587 0
M  V30 7 N 3.641416 -0.752483 0.444797 0
M  V30 8 C 2.846831 0.245976 -0.142689 0
M  V30 9 C 3.258214 1.296119 -0.918689 0
M  V30 10 C 2.504382 2.279115 -1.487082 0
M  V30 11 N 1.172172 2.150241 -1.212597 0
M  V30 12 C 0.688266 1.139167 -0.453460 0
M  V30 13 C -0.749889 1.020403 -0.145219 0
M  V30 14 C -1.596390 1.931668 -0.735797 0
M  V30 15 C -2.932252 1.792790 -0.436777 0
M  V30 16 C -3.447345 0.810091 0.403870 0
M  V30 17 C -2.516956 -0.078866 0.964899 0
M  V30 18 C -1.145620 -0.002579 0.708076 0
M  V30 19 O -3.234932 -0.990631 1.782154 0
M  V30 20 C -4.565722 -1.012508 1.217245 0
M  V30 21 O -4.676366 0.382812 0.912929 0
M  V30 22 N 1.523846 0.217032 0.061480 0
M  V30 23 C 2.073822 -2.553939 2.581047 0
M  V30 24 H 0.763891 -2.862468 4.174023 0
M  V30 25 H -1.024084 -3.829865 2.842290 0
M  V30 26 H 1.439154 -3.319860 -0.606578 0
M  V30 27 H 3.709314 -2.679760 -0.363598 0
M  V30 28 H 4.432530 -2.530157 1.249311 0
M  V30 29 H 4.455457 -0.226807 0.835531 0
M  V30 30 H 4.343308 1.365661 -1.103707 0
M  V30 31 H 2.930206 3.063355 -2.083443 0
M  V30 32 H -1.264350 2.716487 -1.397246 0
M  V30 33 H -3.694331 2.449959 -0.835166 0
M  V30 34 H -0.441477 -0.680805 1.144884 0
M  V30 35 H -4.519368 -1.600320 0.256112 0
M  V30 36 H -5.324764 -1.392297 1.883831 0
M  V30 37 H 2.843592 -2.127215 3.190135 0
M  V30 END ATOM
M  V30 BEGIN BOND
M  V30 1 2 1 2
M  V30 2 1 2 3
M  V30 3 2 3 4
M  V30 4 1 4 5
M  V30 5 1 5 6
M  V30 6 1 6 7
M  V30 7 1 7 8
M  V30 8 2 8 9
M  V30 9 1 9 10
M  V30 10 2 10 11
M  V30 11 1 11 12
M  V30 12 1 12 13
M  V30 13 2 13 14
M  V30 14 1 14 15
M  V30 15 2 15 16
M  V30 16 1 16 17
M  V30 17 2 17 18
M  V30 18 1 17 19
M  V30 19 1 19 20
M  V30 20 1 20 21
M  V30 21 2 12 22
M  V30 22 2 5 23
M  V30 23 1 23 1
M  V30 24 1 22 8
M  V30 25 1 18 13
M  V30 26 1 21 16
M  V30 27 1 1 24
M  V30 28 1 2 25
M  V30 29 1 4 26
M  V30 30 1 6 27
M  V30 31 1 6 28
M  V30 32 1 7 29
M  V30 33 1 9 30
M  V30 34 1 10 31
M  V30 35 1 14 32
M  V30 36 1 15 33
M  V30 37 1 18 34
M  V30 38 1 20 35
M  V30 39 1 20 36
M  V30 40 1 23 37
M  V30 END BOND
M  V30 END CTAB
M  END
>  <Dataset>  (211) 
ChEMBL_Kinases

>  <Ligand_Instance>  (211) 
nan

>  <PDB_ID>  (211) 
nan

>  <Standardized_SMILES>  (211) 
c1cncc(CNc2ccnc(-c3ccc4c(c3)OCO4)n2)c1

>  <Name>  (211) 
nan

>  <Pocket>  (211) 
nan

>  <ATP_Site>  (211) 
nan

>  <Peripheral>  (211) 
nan

>  <Num_H_Atoms_ProtBoundConf>  (211) 
nan

>  <Num_Resolved_Atoms>  (211) 
nan

>  <Num_Not_Resolved_Atoms>  (211) 
nan

$$$$
CHEMBL1350339
     RDKit          3D

  0  0  0  0  0  0  0  0  0  0999 V3000
M  V30 BEGIN CTAB
M  V30 COUNTS 46 48 0 0 0
M  V30 BEGIN ATOM
M  V30 1 C 0.858609 -4.651173 0.929550 0
M  V30 2 C 0.492788 -4.720394 -0.555354 0
M  V30 3 C -1.014629 -4.814911 -0.615688 0
M  V30 4 C 1.153813 -5.914203 -1.211634 0
M  V30 5 N 1.004812 -3.539630 -1.175072 0
M  V30 6 N 2.053414 -3.387717 -1.959218 0
M  V30 7 C 2.160487 -2.074545 -2.318946 0
M  V30 8 C 1.115733 -1.355732 -1.725303 0
M  V30 9 C 0.743375 -0.029053 -1.745576 0
M  V30 10 O 1.396173 0.825265 -2.397364 0
M  V30 11 N -0.338666 0.379698 -1.059445 0
M  V30 12 C -0.827963 1.741082 -1.014232 0
M  V30 13 C -0.235858 2.528546 0.080632 0
M  V30 14 O -0.702760 3.687032 0.069547 0
M  V30 15 N 0.697923 2.222795 1.066059 0
M  V30 16 C 1.451416 2.688133 2.202711 0
M  V30 17 C 0.510616 3.104366 3.269017 0
M  V30 18 C 0.195884 2.084584 4.167677 0
M  V30 19 C -0.696971 2.224719 5.207349 0
M  V30 20 C -1.346329 3.422053 5.418548 0
M  V30 21 C -1.041629 4.448548 4.530718 0
M  V30 22 C -0.145711 4.275903 3.504724 0
M  V30 23 Cl 0.249984 5.604507 2.461376 0
M  V30 24 C -1.002903 -0.596610 -0.372665 0
M  V30 25 N -0.647703 -1.898763 -0.345521 0
M  V30 26 C 0.435620 -2.331157 -1.027812 0
M  V30 27 H 0.713096 -5.638255 1.421601 0
M  V30 28 H 1.889648 -4.283023 1.088245 0
M  V30 29 H 0.176386 -3.933026 1.430595 0
M  V30 30 H -1.472766 -4.109780 0.094698 0
M  V30 31 H -1.372592 -4.604827 -1.647662 0
M  V30 32 H -1.336812 -5.835398 -0.316292 0
M  V30 33 H 1.943110 -6.292436 -0.525556 0
M  V30 34 H 1.660982 -5.617072 -2.154345 0
M  V30 35 H 0.406493 -6.709858 -1.413476 0
M  V30 36 H 2.931291 -1.647075 -2.963140 0
M  V30 37 H -0.589137 2.186036 -2.008542 0
M  V30 38 H -1.937932 1.652471 -0.907607 0
M  V30 39 H 0.925969 1.204328 0.853022 0
M  V30 40 H 2.129466 1.924510 2.583507 0
M  V30 41 H 2.057694 3.612539 1.882992 0
M  V30 42 H 0.630539 1.092070 4.122588 0
M  V30 43 H -0.941071 1.442317 5.900423 0
M  V30 44 H -2.049760 3.553690 6.223576 0
M  V30 45 H -1.504549 5.421228 4.621035 0
M  V30 46 H -1.891280 -0.388251 0.218161 0
M  V30 END ATOM
M  V30 BEGIN BOND
M  V30 1 1 1 2
M  V30 2 1 2 3
M  V30 3 1 2 4
M  V30 4 1 2 5
M  V30 5 1 5 6
M  V30 6 2 6 7
M  V30 7 1 7 8
M  V30 8 1 8 9
M  V30 9 2 9 10
M  V30 10 1 9 11
M  V30 11 1 11 12
M  V30 12 1 12 13
M  V30 13 2 13 14
M  V30 14 1 13 15
M  V30 15 1 15 16
M  V30 16 1 16 17
M  V30 17 2 17 18
M  V30 18 1 18 19
M  V30 19 2 19 20
M  V30 20 1 20 21
M  V30 21 2 21 22
M  V30 22 1 22 23
M  V30 23 1 11 24
M  V30 24 2 24 25
M  V30 25 1 25 26
M  V30 26 1 26 5
M  V30 27 2 26 8
M  V30 28 1 22 17
M  V30 29 1 1 27
M  V30 30 1 1 28
M  V30 31 1 1 29
M  V30 32 1 3 30
M  V30 33 1 3 31
M  V30 34 1 3 32
M  V30 35 1 4 33
M  V30 36 1 4 34
M  V30 37 1 4 35
M  V30 38 1 7 36
M  V30 39 1 12 37
M  V30 40 1 12 38
M  V30 41 1 15 39
M  V30 42 1 16 40
M  V30 43 1 16 41
M  V30 44 1 18 42
M  V30 45 1 19 43
M  V30 46 1 20 44
M  V30 47 1 21 45
M  V30 48 1 24 46
M  V30 END BOND
M  V30 END CTAB
M  END
>  <Dataset>  (212) 
ChEMBL_Kinases

>  <Ligand_Instance>  (212) 
nan

>  <PDB_ID>  (212) 
nan

>  <Standardized_SMILES>  (212) 
CC(C)(C)n1ncc2c(=O)n(CC(=O)NCc3ccccc3Cl)cnc21

>  <Name>  (212) 
nan

>  <Pocket>  (212) 
nan

>  <ATP_Site>  (212) 
nan

>  <Peripheral>  (212) 
nan

>  <Num_H_Atoms_ProtBoundConf>  (212) 
nan

>  <Num_Resolved_Atoms>  (212) 
nan

>  <Num_Not_Resolved_Atoms>  (212) 
nan

$$$$
CHEMBL1350359
     RDKit          3D

  0  0  0  0  0  0  0  0  0  0999 V3000
M  V30 BEGIN CTAB
M  V30 COUNTS 52 54 0 0 0
M  V30 BEGIN ATOM
M  V30 1 C -0.881631 0.432674 3.918239 0
M  V30 2 C -0.447301 -1.018086 3.757453 0
M  V30 3 O 0.838307 -0.992046 3.181893 0
M  V30 4 C 1.596166 -2.101689 2.868434 0
M  V30 5 O 0.874287 -3.087668 3.213766 0
M  V30 6 N 2.859656 -1.710432 2.294562 0
M  V30 7 C 3.365707 -0.379850 2.038324 0
M  V30 8 C 3.815788 -0.322813 0.598185 0
M  V30 9 N 3.302932 -1.447362 -0.150469 0
M  V30 10 C 2.294149 -1.511988 -1.192536 0
M  V30 11 O 2.202431 -2.729650 -1.525806 0
M  V30 12 C 1.795789 -0.151608 -1.433890 0
M  V30 13 C 0.723272 -0.033513 -2.458087 0
M  V30 14 N -0.490079 -0.739272 -2.216637 0
M  V30 15 N -1.352925 -0.110166 -1.427997 0
M  V30 16 C -2.535890 -0.587671 -1.044248 0
M  V30 17 C -3.395570 0.207625 -0.170828 0
M  V30 18 C -2.949968 1.456933 0.241211 0
M  V30 19 C -3.708250 2.283978 1.077038 0
M  V30 20 C -4.946079 1.851045 1.513427 0
M  V30 21 Cl -5.966279 2.809173 2.557577 0
M  V30 22 C -5.412704 0.595497 1.109397 0
M  V30 23 C -4.621352 -0.174265 0.285692 0
M  V30 24 C -2.972571 -1.808088 -1.446121 0
M  V30 25 C -2.120217 -2.509559 -2.267575 0
M  V30 26 C -0.918520 -1.944256 -2.616210 0
M  V30 27 O -0.141726 -2.580753 -3.368831 0
M  V30 28 C 4.052314 -2.579492 0.387841 0
M  V30 29 C 3.859838 -2.702706 1.869260 0
M  V30 30 H -1.911668 0.469494 4.300925 0
M  V30 31 H -0.784848 0.912350 2.932748 0
M  V30 32 H -0.195401 0.981662 4.598626 0
M  V30 33 H -1.178717 -1.486731 3.054421 0
M  V30 34 H -0.453532 -1.526517 4.744425 0
M  V30 35 H 2.610583 0.396364 2.273314 0
M  V30 36 H 4.297086 -0.233307 2.647960 0
M  V30 37 H 3.397915 0.608523 0.117362 0
M  V30 38 H 4.915852 -0.228823 0.478637 0
M  V30 39 H 1.481474 0.291519 -0.453913 0
M  V30 40 H 2.673759 0.486341 -1.750838 0
M  V30 41 H 0.478053 1.059949 -2.599685 0
M  V30 42 H 1.168189 -0.343333 -3.437860 0
M  V30 43 H -1.988648 1.833973 -0.076568 0
M  V30 44 H -3.377714 3.251751 1.404049 0
M  V30 45 H -6.386178 0.251561 1.450760 0
M  V30 46 H -5.015288 -1.117708 0.005303 0
M  V30 47 H -3.887418 -2.284660 -1.204687 0
M  V30 48 H -2.352565 -3.489000 -2.653282 0
M  V30 49 H 3.715002 -3.525137 -0.086445 0
M  V30 50 H 5.104538 -2.441312 0.105696 0
M  V30 51 H 3.528475 -3.724518 2.162251 0
M  V30 52 H 4.805821 -2.452977 2.377426 0
M  V30 END ATOM
M  V30 BEGIN BOND
M  V30 1 1 1 2
M  V30 2 1 2 3
M  V30 3 1 3 4
M  V30 4 2 4 5
M  V30 5 1 4 6
M  V30 6 1 6 7
M  V30 7 1 7 8
M  V30 8 1 8 9
M  V30 9 1 9 10
M  V30 10 2 10 11
M  V30 11 1 10 12
M  V30 12 1 12 13
M  V30 13 1 13 14
M  V30 14 1 14 15
M  V30 15 2 15 16
M  V30 16 1 16 17
M  V30 17 2 17 18
M  V30 18 1 18 19
M  V30 19 2 19 20
M  V30 20 1 20 21
M  V30 21 1 20 22
M  V30 22 2 22 23
M  V30 23 1 16 24
M  V30 24 2 24 25
M  V30 25 1 25 26
M  V30 26 2 26 27
M  V30 27 1 9 28
M  V30 28 1 28 29
M  V30 29 1 29 6
M  V30 30 1 26 14
M  V30 31 1 23 17
M  V30 32 1 1 30
M  V30 33 1 1 31
M  V30 34 1 1 32
M  V30 35 1 2 33
M  V30 36 1 2 34
M  V30 37 1 7 35
M  V30 38 1 7 36
M  V30 39 1 8 37
M  V30 40 1 8 38
M  V30 41 1 12 39
M  V30 42 1 12 40
M  V30 43 1 13 41
M  V30 44 1 13 42
M  V30 45 1 18 43
M  V30 46 1 19 44
M  V30 47 1 22 45
M  V30 48 1 23 46
M  V30 49 1 24 47
M  V30 50 1 25 48
M  V30 51 1 28 49
M  V30 52 1 28 50
M  V30 53 1 29 51
M  V30 54 1 29 52
M  V30 END BOND
M  V30 END CTAB
M  END
>  <Dataset>  (213) 
ChEMBL_Kinases

>  <Ligand_Instance>  (213) 
nan

>  <PDB_ID>  (213) 
nan

>  <Standardized_SMILES>  (213) 
CCOC(=O)N1CCN(C(=O)CCn2nc(-c3ccc(Cl)cc3)ccc2=O)CC1

>  <Name>  (213) 
nan

>  <Pocket>  (213) 
nan

>  <ATP_Site>  (213) 
nan

>  <Peripheral>  (213) 
nan

>  <Num_H_Atoms_ProtBoundConf>  (213) 
nan

>  <Num_Resolved_Atoms>  (213) 
nan

>  <Num_Not_Resolved_Atoms>  (213) 
nan

$$$$
CHEMBL1350412
     RDKit          3D

  0  0  0  0  0  0  0  0  0  0999 V3000
M  V30 BEGIN CTAB
M  V30 COUNTS 38 40 0 0 0
M  V30 BEGIN ATOM
M  V30 1 C 1.548791 -1.740714 4.804271 0
M  V30 2 C 1.765290 -2.027898 3.355653 0
M  V30 3 O 1.331085 -0.978342 2.513032 0
M  V30 4 C 1.443373 -1.047683 1.131703 0
M  V30 5 C 2.007623 -2.206776 0.592038 0
M  V30 6 C 2.159415 -2.364694 -0.769417 0
M  V30 7 C 1.736283 -1.339924 -1.589415 0
M  V30 8 C 1.845355 -1.397252 -2.962187 0
M  V30 9 C 1.438768 -0.396108 -3.833947 0
M  V30 10 C 0.890384 0.717979 -3.209633 0
M  V30 11 C 0.761857 0.818138 -1.841732 0
M  V30 12 C 1.184200 -0.210081 -1.027817 0
M  V30 13 C 1.006913 0.005523 0.313218 0
M  V30 14 C 0.449205 1.146707 1.029390 0
M  V30 15 N -0.892772 0.924008 1.559307 0
M  V30 16 C -2.046440 0.616368 0.799798 0
M  V30 17 N -2.205301 0.460721 -0.525041 0
M  V30 18 N -3.438372 0.176659 -0.858972 0
M  V30 19 N -4.097839 0.148438 0.296348 0
M  V30 20 N -3.260357 0.412013 1.284217 0
M  V30 21 C -3.637222 0.463942 2.683016 0
M  V30 22 H 2.482280 -1.678697 5.405256 0
M  V30 23 H 0.937146 -2.553037 5.271981 0
M  V30 24 H 0.945807 -0.805412 4.976952 0
M  V30 25 H 1.307758 -3.003525 3.094547 0
M  V30 26 H 2.870024 -2.205363 3.209934 0
M  V30 27 H 2.344680 -3.016604 1.197074 0
M  V30 28 H 2.576651 -3.207512 -1.281022 0
M  V30 29 H 2.274971 -2.272356 -3.436295 0
M  V30 30 H 1.547248 -0.491200 -4.906820 0
M  V30 31 H 0.559468 1.526965 -3.872045 0
M  V30 32 H 0.322157 1.722032 -1.464915 0
M  V30 33 H 0.387670 2.096156 0.466550 0
M  V30 34 H 1.155137 1.388287 1.876309 0
M  V30 35 H -0.997338 1.003352 2.615632 0
M  V30 36 H -3.026123 1.237734 3.200406 0
M  V30 37 H -3.495162 -0.486067 3.208183 0
M  V30 38 H -4.707894 0.743089 2.776622 0
M  V30 END ATOM
M  V30 BEGIN BOND
M  V30 1 1 1 2
M  V30 2 1 2 3
M  V30 3 1 3 4
M  V30 4 2 4 5
M  V30 5 1 5 6
M  V30 6 2 6 7
M  V30 7 1 7 8
M  V30 8 2 8 9
M  V30 9 1 9 10
M  V30 10 2 10 11
M  V30 11 1 11 12
M  V30 12 2 12 13
M  V30 13 1 13 14
M  V30 14 1 14 15
M  V30 15 1 15 16
M  V30 16 2 16 17
M  V30 17 1 17 18
M  V30 18 2 18 19
M  V30 19 1 19 20
M  V30 20 1 20 21
M  V30 21 1 13 4
M  V30 22 1 20 16
M  V30 23 1 12 7
M  V30 24 1 1 22
M  V30 25 1 1 23
M  V30 26 1 1 24
M  V30 27 1 2 25
M  V30 28 1 2 26
M  V30 29 1 5 27
M  V30 30 1 6 28
M  V30 31 1 8 29
M  V30 32 1 9 30
M  V30 33 1 10 31
M  V30 34 1 11 32
M  V30 35 1 14 33
M  V30 36 1 14 34
M  V30 37 1 15 35
M  V30 38 1 21 36
M  V30 39 1 21 37
M  V30 40 1 21 38
M  V30 END BOND
M  V30 END CTAB
M  END
>  <Dataset>  (214) 
ChEMBL_Kinases

>  <Ligand_Instance>  (214) 
nan

>  <PDB_ID>  (214) 
nan

>  <Standardized_SMILES>  (214) 
CCOc1ccc2ccccc2c1CNc1nnnn1C

>  <Name>  (214) 
nan

>  <Pocket>  (214) 
nan

>  <ATP_Site>  (214) 
nan

>  <Peripheral>  (214) 
nan

>  <Num_H_Atoms_ProtBoundConf>  (214) 
nan

>  <Num_Resolved_Atoms>  (214) 
nan

>  <Num_Not_Resolved_Atoms>  (214) 
nan

$$$$
CHEMBL1350593
     RDKit          3D

  0  0  0  0  0  0  0  0  0  0999 V3000
M  V30 BEGIN CTAB
M  V30 COUNTS 57 61 0 0 0
M  V30 BEGIN ATOM
M  V30 1 C 1.803465 -5.998324 5.051437 0
M  V30 2 O 2.746764 -5.218324 4.336444 0
M  V30 3 C 2.415532 -3.950453 3.881005 0
M  V30 4 C 1.138208 -3.431206 4.127184 0
M  V30 5 C 0.890772 -2.164695 3.640462 0
M  V30 6 C 1.756752 -1.354361 2.940616 0
M  V30 7 C 1.452511 -0.018861 2.443715 0
M  V30 8 N 0.907648 0.078253 1.134035 0
M  V30 9 C 1.764170 0.199598 0.075135 0
M  V30 10 O 2.993343 0.227676 0.215315 0
M  V30 11 N 1.179767 0.289216 -1.157744 0
M  V30 12 C 2.143064 0.415285 -2.263969 0
M  V30 13 C 2.359255 1.874043 -2.452205 0
M  V30 14 C 3.307121 2.657664 -1.839182 0
M  V30 15 C 3.165201 3.951173 -2.292685 0
M  V30 16 C 2.116050 3.908049 -3.182474 0
M  V30 17 O 1.688084 2.669934 -3.232557 0
M  V30 18 C -0.136460 0.271010 -1.433895 0
M  V30 19 N -0.608056 0.367261 -2.624186 0
M  V30 20 C -0.995756 0.148260 -0.358751 0
M  V30 21 C -2.342791 0.110153 -0.398281 0
M  V30 22 C -3.062334 -0.016616 0.799682 0
M  V30 23 S -1.745107 -0.086437 2.065068 0
M  V30 24 C -0.386577 0.059027 0.876782 0
M  V30 25 C -4.518251 -0.068051 0.827653 0
M  V30 26 O -5.064004 -0.913659 -0.127925 0
M  V30 27 C -4.220408 -1.097237 -1.218665 0
M  V30 28 C -5.038328 -1.476069 -2.412939 0
M  V30 29 C -3.230587 -2.197279 -0.906571 0
M  V30 30 C -3.383619 0.169738 -1.454790 0
M  V30 31 C 2.994228 -1.931645 2.736327 0
M  V30 32 C 3.347492 -3.206617 3.186836 0
M  V30 33 H 2.116661 -7.052684 5.114066 0
M  V30 34 H 0.833680 -5.985333 4.475793 0
M  V30 35 H 1.539671 -5.564287 6.040103 0
M  V30 36 H 0.403528 -4.002963 4.667970 0
M  V30 37 H -0.105581 -1.807662 3.857296 0
M  V30 38 H 0.722540 0.463036 3.155084 0
M  V30 39 H 2.381758 0.610894 2.541685 0
M  V30 40 H 3.134124 0.007030 -1.941934 0
M  V30 41 H 1.768090 -0.067120 -3.167387 0
M  V30 42 H 4.059688 2.383606 -1.122873 0
M  V30 43 H 3.664190 4.888688 -2.104587 0
M  V30 44 H 1.576287 4.591590 -3.821006 0
M  V30 45 H -0.122856 0.466967 -3.507490 0
M  V30 46 H -4.857358 -0.426506 1.820358 0
M  V30 47 H -4.958006 0.936511 0.678852 0
M  V30 48 H -4.375425 -1.977779 -3.130282 0
M  V30 49 H -5.486425 -0.576092 -2.869617 0
M  V30 50 H -5.848650 -2.145516 -2.030610 0
M  V30 51 H -2.176908 -1.921448 -1.095699 0
M  V30 52 H -3.432235 -3.127018 -1.495771 0
M  V30 53 H -3.263190 -2.483397 0.172507 0
M  V30 54 H -2.966600 0.100852 -2.469601 0
M  V30 55 H -4.081139 1.011243 -1.299917 0
M  V30 56 H 3.796813 -1.452016 2.214464 0
M  V30 57 H 4.302208 -3.650854 3.028808 0
M  V30 END ATOM
M  V30 BEGIN BOND
M  V30 1 1 1 2
M  V30 2 1 2 3
M  V30 3 2 3 4
M  V30 4 1 4 5
M  V30 5 2 5 6
M  V30 6 1 6 7
M  V30 7 1 7 8
M  V30 8 1 8 9
M  V30 9 2 9 10
M  V30 10 1 9 11
M  V30 11 1 11 12
M  V30 12 1 12 13
M  V30 13 2 13 14
M  V30 14 1 14 15
M  V30 15 2 15 16
M  V30 16 1 16 17
M  V30 17 1 11 18
M  V30 18 2 18 19 CFG=2
M  V30 19 1 18 20
M  V30 20 1 20 21
M  V30 21 2 21 22
M  V30 22 1 22 23
M  V30 23 1 23 24
M  V30 24 1 22 25
M  V30 25 1 25 26
M  V30 26 1 26 27
M  V30 27 1 27 28
M  V30 28 1 27 29
M  V30 29 1 27 30
M  V30 30 1 6 31
M  V30 31 2 31 32
M  V30 32 1 32 3
M  V30 33 1 24 8
M  V30 34 1 17 13
M  V30 35 2 24 20
M  V30 36 1 30 21
M  V30 37 1 1 33
M  V30 38 1 1 34
M  V30 39 1 1 35
M  V30 40 1 4 36
M  V30 41 1 5 37
M  V30 42 1 7 38
M  V30 43 1 7 39
M  V30 44 1 12 40
M  V30 45 1 12 41
M  V30 46 1 14 42
M  V30 47 1 15 43
M  V30 48 1 16 44
M  V30 49 1 19 45
M  V30 50 1 25 46
M  V30 51 1 25 47
M  V30 52 1 28 48
M  V30 53 1 28 49
M  V30 54 1 28 50
M  V30 55 1 29 51
M  V30 56 1 29 52
M  V30 57 1 29 53
M  V30 58 1 30 54
M  V30 59 1 30 55
M  V30 60 1 31 56
M  V30 61 1 32 57
M  V30 END BOND
M  V30 END CTAB
M  END
>  <Dataset>  (215) 
ChEMBL_Kinases

>  <Ligand_Instance>  (215) 
nan

>  <PDB_ID>  (215) 
nan

>  <Standardized_SMILES>  (215) 
COc1ccc(Cn2c(=O)n(Cc3ccco3)c(=N)c3c4c(sc32)COC(C)(C)C4)cc1

>  <Name>  (215) 
nan

>  <Pocket>  (215) 
nan

>  <ATP_Site>  (215) 
nan

>  <Peripheral>  (215) 
nan

>  <Num_H_Atoms_ProtBoundConf>  (215) 
nan

>  <Num_Resolved_Atoms>  (215) 
nan

>  <Num_Not_Resolved_Atoms>  (215) 
nan

$$$$
CHEMBL1350659
     RDKit          3D

  0  0  0  0  0  0  0  0  0  0999 V3000
M  V30 BEGIN CTAB
M  V30 COUNTS 59 61 0 0 0
M  V30 BEGIN ATOM
M  V30 1 C 7.537531 -3.193243 2.787245 0
M  V30 2 O 6.348015 -2.667803 2.861877 0
M  V30 3 C 5.211845 -2.121024 2.882221 0
M  V30 4 C 5.076403 -1.188097 1.899106 0
M  V30 5 C 3.853134 -0.556962 1.841256 0
M  V30 6 C 3.423796 0.624882 1.017101 0
M  V30 7 C 2.313690 1.224963 0.613369 0
M  V30 8 C 2.291435 2.426758 -0.224911 0
M  V30 9 O 2.754355 3.381972 -0.867715 0
M  V30 10 O 1.058358 2.769779 -0.531332 0
M  V30 11 C 0.244857 3.638273 -1.167691 0
M  V30 12 C -1.149512 3.023019 -1.236878 0
M  V30 13 O -2.004568 3.747889 -1.815980 0
M  V30 14 N -1.315837 1.702696 -0.650730 0
M  V30 15 C -2.478383 0.931485 -0.622819 0
M  V30 16 C -3.624785 0.656722 0.039568 0
M  V30 17 C -3.967604 1.388595 1.276380 0
M  V30 18 N -4.390671 -0.286597 -0.490354 0
M  V30 19 C -5.641006 -0.896812 -0.164927 0
M  V30 20 N -3.737974 -0.715588 -1.623717 0
M  V30 21 C -4.070487 -1.721841 -2.589303 0
M  V30 22 C -4.336938 -3.048260 -2.199420 0
M  V30 23 C -4.616940 -3.908571 -3.271177 0
M  V30 24 C -4.634614 -3.508274 -4.590674 0
M  V30 25 C -4.368314 -2.187738 -4.961007 0
M  V30 26 C -4.082945 -1.313506 -3.906144 0
M  V30 27 C -2.585548 0.015127 -1.702674 0
M  V30 28 O -1.770133 -0.176302 -2.673212 0
M  V30 29 C 2.672065 -0.611305 2.532794 0
M  V30 30 C 2.902248 -1.636563 3.578012 0
M  V30 31 C 4.125471 -2.372046 3.756364 0
M  V30 32 O 4.610243 -3.363337 4.629109 0
M  V30 33 C 3.864602 -3.912577 5.668702 0
M  V30 34 C 3.499360 -2.901705 6.631437 0
M  V30 35 N 3.217491 -2.058884 7.434955 0
M  V30 36 H 8.277190 -2.854356 3.593227 0
M  V30 37 H 7.587241 -4.323060 2.860948 0
M  V30 38 H 8.143384 -2.923261 1.828621 0
M  V30 39 H 5.695558 -0.777486 1.117062 0
M  V30 40 H 4.338065 1.102328 0.692390 0
M  V30 41 H 1.501155 0.657892 0.992170 0
M  V30 42 H 0.072064 4.523361 -0.483041 0
M  V30 43 H 0.512416 3.969240 -2.177019 0
M  V30 44 H -0.510900 1.252300 -0.179488 0
M  V30 45 H -4.807423 2.126815 1.098096 0
M  V30 46 H -4.326965 0.679620 2.078113 0
M  V30 47 H -3.093790 1.881904 1.688897 0
M  V30 48 H -5.578163 -1.922601 0.245440 0
M  V30 49 H -6.272770 -0.235761 0.508071 0
M  V30 50 H -6.255760 -0.976930 -1.111989 0
M  V30 51 H -4.318308 -3.347770 -1.191645 0
M  V30 52 H -4.827477 -4.939138 -3.091247 0
M  V30 53 H -4.850301 -4.141138 -5.448743 0
M  V30 54 H -4.395749 -1.765560 -5.950551 0
M  V30 55 H -3.877158 -0.266384 -4.140621 0
M  V30 56 H 1.771945 -0.656122 3.064129 0
M  V30 57 H 2.373306 -2.136481 4.427063 0
M  V30 58 H 2.892978 -4.344764 5.292953 0
M  V30 59 H 4.389690 -4.782711 6.137881 0
M  V30 END ATOM
M  V30 BEGIN BOND
M  V30 1 1 1 2
M  V30 2 1 2 3
M  V30 3 2 3 4
M  V30 4 1 4 5
M  V30 5 1 5 6
M  V30 6 2 6 7
M  V30 7 1 7 8
M  V30 8 2 8 9
M  V30 9 1 8 10
M  V30 10 1 10 11
M  V30 11 1 11 12
M  V30 12 2 12 13
M  V30 13 1 12 14
M  V30 14 1 14 15
M  V30 15 2 15 16
M  V30 16 1 16 17
M  V30 17 1 16 18
M  V30 18 1 18 19
M  V30 19 1 18 20
M  V30 20 1 20 21
M  V30 21 2 21 22
M  V30 22 1 22 23
M  V30 23 2 23 24
M  V30 24 1 24 25
M  V30 25 2 25 26
M  V30 26 1 20 27
M  V30 27 2 27 28
M  V30 28 2 5 29
M  V30 29 1 29 30
M  V30 30 2 30 31
M  V30 31 1 31 32
M  V30 32 1 32 33
M  V30 33 1 33 34
M  V30 34 3 34 35
M  V30 35 1 31 3
M  V30 36 1 27 15
M  V30 37 1 26 21
M  V30 38 1 1 36
M  V30 39 1 1 37
M  V30 40 1 1 38
M  V30 41 1 4 39
M  V30 42 1 6 40
M  V30 43 1 7 41
M  V30 44 1 11 42
M  V30 45 1 11 43
M  V30 46 1 14 44
M  V30 47 1 17 45
M  V30 48 1 17 46
M  V30 49 1 17 47
M  V30 50 1 19 48
M  V30 51 1 19 49
M  V30 52 1 19 50
M  V30 53 1 22 51
M  V30 54 1 23 52
M  V30 55 1 24 53
M  V30 56 1 25 54
M  V30 57 1 26 55
M  V30 58 1 29 56
M  V30 59 1 30 57
M  V30 60 1 33 58
M  V30 61 1 33 59
M  V30 END BOND
M  V30 END CTAB
M  END
>  <Dataset>  (216) 
ChEMBL_Kinases

>  <Ligand_Instance>  (216) 
nan

>  <PDB_ID>  (216) 
nan

>  <Standardized_SMILES>  (216) 
COc1cc(/C=C/C(=O)OCC(=O)Nc2c(C)n(C)n(-c3ccccc3)c2=O)ccc1OCC#N

>  <Name>  (216) 
nan

>  <Pocket>  (216) 
nan

>  <ATP_Site>  (216) 
nan

>  <Peripheral>  (216) 
nan

>  <Num_H_Atoms_ProtBoundConf>  (216) 
nan

>  <Num_Resolved_Atoms>  (216) 
nan

>  <Num_Not_Resolved_Atoms>  (216) 
nan

$$$$
CHEMBL1350753
     RDKit          3D

  0  0  0  0  0  0  0  0  0  0999 V3000
M  V30 BEGIN CTAB
M  V30 COUNTS 53 57 0 0 0
M  V30 BEGIN ATOM
M  V30 1 C 2.218271 -4.067782 0.870502 0
M  V30 2 N 1.948995 -2.741146 1.323507 0
M  V30 3 C 2.828690 -2.088268 2.147289 0
M  V30 4 O 3.892628 -2.697265 2.490237 0
M  V30 5 C 2.705536 -0.809923 2.672093 0
M  V30 6 C 1.549443 -0.102406 2.320712 0
M  V30 7 N 1.493259 1.199741 2.887489 0
M  V30 8 C 1.519936 2.481941 2.269029 0
M  V30 9 C 1.915064 2.776460 0.978283 0
M  V30 10 C 1.900773 4.055690 0.467168 0
M  V30 11 C 1.481236 5.115225 1.244236 0
M  V30 12 C 1.094805 4.815558 2.511633 0
M  V30 13 C 1.104092 3.546394 3.033144 0
M  V30 14 C 0.627255 -0.705264 1.498056 0
M  V30 15 C -0.501359 0.004796 1.190736 0
M  V30 16 O -0.721569 1.149919 1.603051 0
M  V30 17 N -1.397963 -0.598522 0.402658 0
M  V30 18 C -2.583197 0.140570 0.075834 0
M  V30 19 C -2.655870 1.160371 -0.870759 0
M  V30 20 C -3.875426 1.782658 -1.075634 0
M  V30 21 C -4.980071 1.384021 -0.346247 0
M  V30 22 C -4.927579 0.368244 0.602920 0
M  V30 23 C -3.706732 -0.245157 0.798937 0
M  V30 24 C -1.164003 -1.865930 -0.054636 0
M  V30 25 O -2.124730 -2.274176 -0.789193 0
M  V30 26 N -0.025308 -2.560777 0.267371 0
M  V30 27 C -0.098825 -3.826462 -0.366169 0
M  V30 28 C 0.155664 -3.652004 -1.751036 0
M  V30 29 C 0.110582 -4.696363 -2.651313 0
M  V30 30 C -0.187687 -5.953208 -2.218760 0
M  V30 31 C -0.439009 -6.164960 -0.896728 0
M  V30 32 C -0.399965 -5.142606 0.016632 0
M  V30 33 C 0.884550 -1.976210 1.054971 0
M  V30 34 H 3.341493 -4.188745 1.115237 0
M  V30 35 H 2.274729 -4.270968 -0.186895 0
M  V30 36 H 1.841946 -4.860852 1.551358 0
M  V30 37 H 3.460586 -0.405526 3.306560 0
M  V30 38 H 1.421910 1.122035 3.915595 0
M  V30 39 H 2.241788 1.906327 0.392587 0
M  V30 40 H 2.245670 4.110526 -0.572043 0
M  V30 41 H 1.497030 6.089876 0.776229 0
M  V30 42 H 0.759603 5.658947 3.133880 0
M  V30 43 H 0.771532 3.437889 4.059276 0
M  V30 44 H -1.740093 1.401128 -1.390129 0
M  V30 45 H -3.924173 2.577013 -1.815458 0
M  V30 46 H -5.919017 1.886907 -0.526593 0
M  V30 47 H -5.836998 0.107698 1.139090 0
M  V30 48 H -3.685902 -1.032714 1.541151 0
M  V30 49 H 0.409449 -2.707571 -2.260626 0
M  V30 50 H 0.298236 -4.601614 -3.710089 0
M  V30 51 H -0.254808 -6.858945 -2.825398 0
M  V30 52 H -0.691808 -7.096839 -0.379760 0
M  V30 53 H -0.566590 -5.101712 1.097617 0
M  V30 END ATOM
M  V30 BEGIN BOND
M  V30 1 1 1 2
M  V30 2 1 2 3
M  V30 3 2 3 4
M  V30 4 1 3 5
M  V30 5 2 5 6
M  V30 6 1 6 7
M  V30 7 1 7 8
M  V30 8 2 8 9
M  V30 9 1 9 10
M  V30 10 2 10 11
M  V30 11 1 11 12
M  V30 12 2 12 13
M  V30 13 1 6 14
M  V30 14 1 14 15
M  V30 15 2 15 16
M  V30 16 1 15 17
M  V30 17 1 17 18
M  V30 18 2 18 19
M  V30 19 1 19 20
M  V30 20 2 20 21
M  V30 21 1 21 22
M  V30 22 2 22 23
M  V30 23 1 17 24
M  V30 24 2 24 25
M  V30 25 1 24 26
M  V30 26 1 26 27
M  V30 27 2 27 28
M  V30 28 1 28 29
M  V30 29 2 29 30
M  V30 30 1 30 31
M  V30 31 2 31 32
M  V30 32 1 26 33
M  V30 33 1 33 2
M  V30 34 1 13 8
M  V30 35 2 33 14
M  V30 36 1 23 18
M  V30 37 1 32 27
M  V30 38 1 1 34
M  V30 39 1 1 35
M  V30 40 1 1 36
M  V30 41 1 5 37
M  V30 42 1 7 38
M  V30 43 1 9 39
M  V30 44 1 10 40
M  V30 45 1 11 41
M  V30 46 1 12 42
M  V30 47 1 13 43
M  V30 48 1 19 44
M  V30 49 1 20 45
M  V30 50 1 21 46
M  V30 51 1 22 47
M  V30 52 1 23 48
M  V30 53 1 28 49
M  V30 54 1 29 50
M  V30 55 1 30 51
M  V30 56 1 31 52
M  V30 57 1 32 53
M  V30 END BOND
M  V30 END CTAB
M  END
>  <Dataset>  (217) 
ChEMBL_Kinases

>  <Ligand_Instance>  (217) 
nan

>  <PDB_ID>  (217) 
nan

>  <Standardized_SMILES>  (217) 
Cn1c(=O)cc(Nc2ccccc2)c2c(=O)n(-c3ccccc3)c(=O)n(-c3ccccc3)c21

>  <Name>  (217) 
nan

>  <Pocket>  (217) 
nan

>  <ATP_Site>  (217) 
nan

>  <Peripheral>  (217) 
nan

>  <Num_H_Atoms_ProtBoundConf>  (217) 
nan

>  <Num_Resolved_Atoms>  (217) 
nan

>  <Num_Not_Resolved_Atoms>  (217) 
nan

$$$$
CHEMBL1350910
     RDKit          3D

  0  0  0  0  0  0  0  0  0  0999 V3000
M  V30 BEGIN CTAB
M  V30 COUNTS 45 48 0 0 0
M  V30 BEGIN ATOM
M  V30 1 C 2.158768 -6.392300 0.833178 0
M  V30 2 C 1.905951 -6.236305 -0.637297 0
M  V30 3 C 2.100511 -7.300952 -1.491727 0
M  V30 4 C 1.852394 -7.102149 -2.838812 0
M  V30 5 N 1.437680 -5.894794 -3.250480 0
M  V30 6 C 1.249144 -4.856222 -2.408010 0
M  V30 7 N 0.848936 -3.579390 -2.570317 0
M  V30 8 C 0.836990 -2.964645 -1.362714 0
M  V30 9 C 0.514019 -1.640377 -0.875719 0
M  V30 10 O 0.559460 -1.227157 0.316566 0
M  V30 11 N 0.079834 -0.590238 -1.756459 0
M  V30 12 C -0.168560 0.614584 -0.989955 0
M  V30 13 C 0.825633 1.548964 -0.762880 0
M  V30 14 C 0.509568 2.673759 -0.021239 0
M  V30 15 C -0.785388 2.836599 0.472809 0
M  V30 16 S -1.284198 4.223642 1.421168 0
M  V30 17 O -2.689977 4.619159 1.090876 0
M  V30 18 O -0.419559 5.402854 1.034541 0
M  V30 19 N -1.059545 3.980896 3.107324 0
M  V30 20 C -1.806448 2.902604 3.662774 0
M  V30 21 C -1.148926 2.655061 4.989995 0
M  V30 22 C 0.306981 3.000612 4.734180 0
M  V30 23 C 0.294171 3.857273 3.503770 0
M  V30 24 C -1.754282 1.882043 0.226357 0
M  V30 25 C -1.471317 0.739982 -0.514921 0
M  V30 26 N 1.243083 -3.913203 -0.468294 0
M  V30 27 N 1.487070 -5.036811 -1.095148 0
M  V30 28 H 3.249922 -6.242163 1.039486 0
M  V30 29 H 1.954037 -7.448698 1.157917 0
M  V30 30 H 1.574361 -5.711012 1.452111 0
M  V30 31 H 2.438099 -8.268071 -1.123570 0
M  V30 32 H 2.007246 -7.940725 -3.500374 0
M  V30 33 H -0.012927 -0.769347 -2.792974 0
M  V30 34 H 1.815212 1.394898 -1.157370 0
M  V30 35 H 1.233527 3.441394 0.194035 0
M  V30 36 H -1.736381 2.040818 2.958021 0
M  V30 37 H -2.860682 3.256286 3.760867 0
M  V30 38 H -1.580993 3.329037 5.742032 0
M  V30 39 H -1.224482 1.582669 5.268985 0
M  V30 40 H 0.742028 3.602566 5.563250 0
M  V30 41 H 0.906870 2.062039 4.573043 0
M  V30 42 H 0.861217 3.309484 2.695620 0
M  V30 43 H 0.832287 4.810148 3.651950 0
M  V30 44 H -2.760536 1.975966 0.591593 0
M  V30 45 H -2.231966 -0.001782 -0.704042 0
M  V30 END ATOM
M  V30 BEGIN BOND
M  V30 1 1 1 2
M  V30 2 2 2 3
M  V30 3 1 3 4
M  V30 4 2 4 5
M  V30 5 1 5 6
M  V30 6 2 6 7
M  V30 7 1 7 8
M  V30 8 1 8 9
M  V30 9 2 9 10
M  V30 10 1 9 11
M  V30 11 1 11 12
M  V30 12 2 12 13
M  V30 13 1 13 14
M  V30 14 2 14 15
M  V30 15 1 15 16
M  V30 16 2 16 17
M  V30 17 2 16 18
M  V30 18 1 16 19
M  V30 19 1 19 20
M  V30 20 1 20 21
M  V30 21 1 21 22
M  V30 22 1 22 23
M  V30 23 1 15 24
M  V30 24 2 24 25
M  V30 25 2 8 26
M  V30 26 1 26 27
M  V30 27 1 27 2
M  V30 28 1 27 6
M  V30 29 1 25 12
M  V30 30 1 23 19
M  V30 31 1 1 28
M  V30 32 1 1 29
M  V30 33 1 1 30
M  V30 34 1 3 31
M  V30 35 1 4 32
M  V30 36 1 11 33
M  V30 37 1 13 34
M  V30 38 1 14 35
M  V30 39 1 20 36
M  V30 40 1 20 37
M  V30 41 1 21 38
M  V30 42 1 21 39
M  V30 43 1 22 40
M  V30 44 1 22 41
M  V30 45 1 23 42
M  V30 46 1 23 43
M  V30 47 1 24 44
M  V30 48 1 25 45
M  V30 END BOND
M  V30 END CTAB
M  END
>  <Dataset>  (218) 
ChEMBL_Kinases

>  <Ligand_Instance>  (218) 
nan

>  <PDB_ID>  (218) 
nan

>  <Standardized_SMILES>  (218) 
Cc1ccnc2nc(C(=O)Nc3ccc(S(=O)(=O)N4CCCC4)cc3)nn12

>  <Name>  (218) 
nan

>  <Pocket>  (218) 
nan

>  <ATP_Site>  (218) 
nan

>  <Peripheral>  (218) 
nan

>  <Num_H_Atoms_ProtBoundConf>  (218) 
nan

>  <Num_Resolved_Atoms>  (218) 
nan

>  <Num_Not_Resolved_Atoms>  (218) 
nan

$$$$
CHEMBL1351746
     RDKit          3D

  0  0  0  0  0  0  0  0  0  0999 V3000
M  V30 BEGIN CTAB
M  V30 COUNTS 27 28 0 0 0
M  V30 BEGIN ATOM
M  V30 1 C -0.186998 -2.549443 3.116872 0
M  V30 2 C -0.462717 -1.049260 3.129402 0
M  V30 3 C 0.436953 -0.438722 2.228113 0
M  V30 4 C 1.673563 0.021114 2.705557 0
M  V30 5 C 2.663271 0.570139 1.918474 0
M  V30 6 O 3.756151 0.967655 2.397787 0
M  V30 7 O 2.434118 0.669311 0.635148 0
M  V30 8 C 1.319199 0.276098 0.076650 0
M  V30 9 C 1.154079 0.421123 -1.290785 0
M  V30 10 C -0.019100 0.017589 -1.900113 0
M  V30 11 C -0.198698 0.175850 -3.366793 0
M  V30 12 C -1.001620 -0.526691 -1.096205 0
M  V30 13 C -0.818841 -0.663614 0.262366 0
M  V30 14 O -1.844463 -1.203919 0.967272 0
M  V30 15 C 0.344388 -0.265652 0.861940 0
M  V30 16 H -0.671202 -3.070194 3.980059 0
M  V30 17 H 0.904750 -2.749510 3.228558 0
M  V30 18 H -0.544813 -3.064652 2.217932 0
M  V30 19 H -0.138930 -0.765782 4.182167 0
M  V30 20 H -1.519397 -0.987951 3.179395 0
M  V30 21 H 1.927430 -0.030016 3.766007 0
M  V30 22 H 1.977928 0.858789 -1.834447 0
M  V30 23 H -0.496748 1.220476 -3.632904 0
M  V30 24 H 0.741339 0.005739 -3.929389 0
M  V30 25 H -0.983714 -0.472467 -3.773726 0
M  V30 26 H -1.900235 -0.827266 -1.624784 0
M  V30 27 H -2.700032 -0.683104 1.073682 0
M  V30 END ATOM
M  V30 BEGIN BOND
M  V30 1 1 1 2
M  V30 2 1 2 3
M  V30 3 2 3 4
M  V30 4 1 4 5
M  V30 5 2 5 6
M  V30 6 1 5 7
M  V30 7 1 7 8
M  V30 8 2 8 9
M  V30 9 1 9 10
M  V30 10 1 10 11
M  V30 11 2 10 12
M  V30 12 1 12 13
M  V30 13 1 13 14
M  V30 14 2 13 15
M  V30 15 1 15 3
M  V30 16 1 15 8
M  V30 17 1 1 16
M  V30 18 1 1 17
M  V30 19 1 1 18
M  V30 20 1 2 19
M  V30 21 1 2 20
M  V30 22 1 4 21
M  V30 23 1 9 22
M  V30 24 1 11 23
M  V30 25 1 11 24
M  V30 26 1 11 25
M  V30 27 1 12 26
M  V30 28 1 14 27
M  V30 END BOND
M  V30 END CTAB
M  END
>  <Dataset>  (219) 
ChEMBL_Kinases

>  <Ligand_Instance>  (219) 
nan

>  <PDB_ID>  (219) 
nan

>  <Standardized_SMILES>  (219) 
CCc1cc(=O)oc2cc(C)cc(O)c12

>  <Name>  (219) 
nan

>  <Pocket>  (219) 
nan

>  <ATP_Site>  (219) 
nan

>  <Peripheral>  (219) 
nan

>  <Num_H_Atoms_ProtBoundConf>  (219) 
nan

>  <Num_Resolved_Atoms>  (219) 
nan

>  <Num_Not_Resolved_Atoms>  (219) 
nan

$$$$
CHEMBL1351330
     RDKit          3D

  0  0  0  0  0  0  0  0  0  0999 V3000
M  V30 BEGIN CTAB
M  V30 COUNTS 44 47 0 0 0
M  V30 BEGIN ATOM
M  V30 1 O 3.977064 1.900280 0.868878 0
M  V30 2 C 3.233957 0.835326 0.890206 0
M  V30 3 C 3.480955 -0.421750 0.207880 0
M  V30 4 C 3.796943 -1.755890 0.392811 0
M  V30 5 C 3.787570 -2.309909 -0.903773 0
M  V30 6 C 4.051771 -3.640218 -1.111795 0
M  V30 7 C 4.006877 -4.085686 -2.407678 0
M  V30 8 C 3.695072 -3.146776 -3.402536 0
M  V30 9 C 3.450592 -1.843897 -3.083969 0
M  V30 10 N 3.481022 -1.340878 -1.802642 0
M  V30 11 N 3.296516 -0.203792 -1.133044 0
M  V30 12 N 2.103840 1.112449 1.709277 0
M  V30 13 C 1.457193 2.083516 2.505402 0
M  V30 14 C -0.006382 2.265961 2.277167 0
M  V30 15 N -0.739334 1.156116 1.757217 0
M  V30 16 C -2.068630 0.762355 2.064568 0
M  V30 17 C -2.816197 1.304892 3.083586 0
M  V30 18 C -4.106501 0.884809 3.319423 0
M  V30 19 C -4.675224 -0.091350 2.535000 0
M  V30 20 C -3.971321 -0.681338 1.487788 0
M  V30 21 C -4.547513 -1.751313 0.592987 0
M  V30 22 F -5.894450 -1.836093 0.705223 0
M  V30 23 F -4.125395 -1.468469 -0.711098 0
M  V30 24 F -3.929212 -2.947814 0.936682 0
M  V30 25 C -2.676099 -0.209312 1.306662 0
M  V30 26 C 0.073364 0.412279 0.830234 0
M  V30 27 C 1.236685 -0.048164 1.738269 0
M  V30 28 H 3.951372 -2.000973 1.410146 0
M  V30 29 H 4.288776 -4.355186 -0.342527 0
M  V30 30 H 4.190246 -5.086168 -2.763481 0
M  V30 31 H 3.640593 -3.416101 -4.460802 0
M  V30 32 H 3.205439 -1.066243 -3.816098 0
M  V30 33 H 1.566959 1.789630 3.590073 0
M  V30 34 H 1.989828 3.058934 2.442120 0
M  V30 35 H -0.110823 3.083054 1.491630 0
M  V30 36 H -0.530261 2.662813 3.162730 0
M  V30 37 H -2.379225 2.089848 3.726469 0
M  V30 38 H -4.683354 1.312156 4.126066 0
M  V30 39 H -5.711264 -0.446935 2.707780 0
M  V30 40 H -2.227801 -0.739485 0.457853 0
M  V30 41 H 0.446740 1.170136 0.071612 0
M  V30 42 H -0.382816 -0.438970 0.335544 0
M  V30 43 H 1.683777 -0.973191 1.321924 0
M  V30 44 H 0.886534 -0.249474 2.763822 0
M  V30 END ATOM
M  V30 BEGIN BOND
M  V30 1 2 1 2
M  V30 2 1 2 3
M  V30 3 1 3 4
M  V30 4 2 4 5
M  V30 5 1 5 6
M  V30 6 2 6 7
M  V30 7 1 7 8
M  V30 8 2 8 9
M  V30 9 1 9 10
M  V30 10 1 10 11
M  V30 11 1 2 12
M  V30 12 1 12 13
M  V30 13 1 13 14
M  V30 14 1 14 15
M  V30 15 1 15 16
M  V30 16 2 16 17
M  V30 17 1 17 18
M  V30 18 2 18 19
M  V30 19 1 19 20
M  V30 20 1 20 21
M  V30 21 1 21 22
M  V30 22 1 21 23
M  V30 23 1 21 24
M  V30 24 2 20 25
M  V30 25 1 15 26
M  V30 26 1 26 27
M  V30 27 2 11 3
M  V30 28 1 27 12
M  V30 29 1 10 5
M  V30 30 1 25 16
M  V30 31 1 4 28
M  V30 32 1 6 29
M  V30 33 1 7 30
M  V30 34 1 8 31
M  V30 35 1 9 32
M  V30 36 1 13 33
M  V30 37 1 13 34
M  V30 38 1 14 35
M  V30 39 1 14 36
M  V30 40 1 17 37
M  V30 41 1 18 38
M  V30 42 1 19 39
M  V30 43 1 25 40
M  V30 44 1 26 41
M  V30 45 1 26 42
M  V30 46 1 27 43
M  V30 47 1 27 44
M  V30 END BOND
M  V30 END CTAB
M  END
>  <Dataset>  (220) 
ChEMBL_Kinases

>  <Ligand_Instance>  (220) 
nan

>  <PDB_ID>  (220) 
nan

>  <Standardized_SMILES>  (220) 
O=C(c1cc2ccccn2n1)N1CCN(c2cccc(C(F)(F)F)c2)CC1

>  <Name>  (220) 
nan

>  <Pocket>  (220) 
nan

>  <ATP_Site>  (220) 
nan

>  <Peripheral>  (220) 
nan

>  <Num_H_Atoms_ProtBoundConf>  (220) 
nan

>  <Num_Resolved_Atoms>  (220) 
nan

>  <Num_Not_Resolved_Atoms>  (220) 
nan

$$$$
CHEMBL1351344
     RDKit          3D

  0  0  0  0  0  0  0  0  0  0999 V3000
M  V30 BEGIN CTAB
M  V30 COUNTS 46 48 0 0 0
M  V30 BEGIN ATOM
M  V30 1 C -2.561782 -6.655487 2.436509 0
M  V30 2 C -1.617773 -5.566939 2.074291 0
M  V30 3 C -0.417793 -5.925848 1.501656 0
M  V30 4 C 0.479162 -4.943233 1.153165 0
M  V30 5 C 0.207842 -3.585840 1.363598 0
M  V30 6 N 1.158443 -2.595109 1.011681 0
M  V30 7 C 1.053821 -1.272213 0.515845 0
M  V30 8 C 2.174066 -0.478869 0.388142 0
M  V30 9 C 2.051453 0.797474 -0.114529 0
M  V30 10 O 3.120246 1.427846 -0.188692 0
M  V30 11 N 0.916645 1.358522 -0.502150 0
M  V30 12 C 0.770337 2.676327 -1.024670 0
M  V30 13 C 1.896560 3.369538 -1.631935 0
M  V30 14 C 2.540552 4.486053 -0.868835 0
M  V30 15 C 2.372419 4.461523 0.608464 0
M  V30 16 C 1.021914 4.058106 1.082144 0
M  V30 17 C 0.108518 3.539005 0.038222 0
M  V30 18 C -0.178405 0.567240 -0.371732 0
M  V30 19 O -1.297724 1.052471 -0.728807 0
M  V30 20 N -0.085339 -0.681734 0.115667 0
M  V30 21 C -1.011458 -3.297482 1.941318 0
M  V30 22 C -1.943363 -4.246371 2.307697 0
M  V30 23 C -3.252244 -3.917417 2.929354 0
M  V30 24 H -2.113475 -7.352257 3.159351 0
M  V30 25 H -3.525824 -6.211963 2.753617 0
M  V30 26 H -2.815796 -7.222331 1.494426 0
M  V30 27 H -0.143558 -6.952027 1.310827 0
M  V30 28 H 1.426730 -5.213495 0.702003 0
M  V30 29 H 2.131817 -2.948607 1.165313 0
M  V30 30 H 3.129000 -0.891018 0.692071 0
M  V30 31 H -0.052587 2.565371 -1.801667 0
M  V30 32 H 1.516510 3.874754 -2.576673 0
M  V30 33 H 2.668458 2.677950 -2.088228 0
M  V30 34 H 2.229919 5.513539 -1.222902 0
M  V30 35 H 3.652283 4.505408 -1.060780 0
M  V30 36 H 3.177549 3.847262 1.115720 0
M  V30 37 H 2.582704 5.485301 0.996010 0
M  V30 38 H 0.486007 4.925971 1.570196 0
M  V30 39 H 1.144137 3.332880 1.922370 0
M  V30 40 H -0.634879 2.885688 0.541053 0
M  V30 41 H -0.515345 4.342145 -0.432834 0
M  V30 42 H -0.984899 -1.192282 0.157647 0
M  V30 43 H -1.322628 -2.300730 2.162271 0
M  V30 44 H -3.427563 -4.496299 3.858788 0
M  V30 45 H -3.188360 -2.848236 3.258449 0
M  V30 46 H -4.038000 -4.001059 2.174469 0
M  V30 END ATOM
M  V30 BEGIN BOND
M  V30 1 1 1 2
M  V30 2 2 2 3
M  V30 3 1 3 4
M  V30 4 2 4 5
M  V30 5 1 5 6
M  V30 6 1 6 7
M  V30 7 2 7 8
M  V30 8 1 8 9
M  V30 9 2 9 10
M  V30 10 1 9 11
M  V30 11 1 11 12
M  V30 12 1 12 13
M  V30 13 1 13 14
M  V30 14 1 14 15
M  V30 15 1 15 16
M  V30 16 1 16 17
M  V30 17 1 11 18
M  V30 18 2 18 19
M  V30 19 1 18 20
M  V30 20 1 5 21
M  V30 21 2 21 22
M  V30 22 1 22 23
M  V30 23 1 22 2
M  V30 24 1 20 7
M  V30 25 1 17 12
M  V30 26 1 1 24
M  V30 27 1 1 25
M  V30 28 1 1 26
M  V30 29 1 3 27
M  V30 30 1 4 28
M  V30 31 1 6 29
M  V30 32 1 8 30
M  V30 33 1 12 31
M  V30 34 1 13 32
M  V30 35 1 13 33
M  V30 36 1 14 34
M  V30 37 1 14 35
M  V30 38 1 15 36
M  V30 39 1 15 37
M  V30 40 1 16 38
M  V30 41 1 16 39
M  V30 42 1 17 40
M  V30 43 1 17 41
M  V30 44 1 20 42
M  V30 45 1 21 43
M  V30 46 1 23 44
M  V30 47 1 23 45
M  V30 48 1 23 46
M  V30 END BOND
M  V30 END CTAB
M  END
>  <Dataset>  (221) 
ChEMBL_Kinases

>  <Ligand_Instance>  (221) 
nan

>  <PDB_ID>  (221) 
nan

>  <Standardized_SMILES>  (221) 
Cc1ccc(Nc2cc(=O)n(C3CCCCC3)c(=O)[nH]2)cc1C

>  <Name>  (221) 
nan

>  <Pocket>  (221) 
nan

>  <ATP_Site>  (221) 
nan

>  <Peripheral>  (221) 
nan

>  <Num_H_Atoms_ProtBoundConf>  (221) 
nan

>  <Num_Resolved_Atoms>  (221) 
nan

>  <Num_Not_Resolved_Atoms>  (221) 
nan

$$$$
CHEMBL1351392
     RDKit          3D

  0  0  0  0  0  0  0  0  0  0999 V3000
M  V30 BEGIN CTAB
M  V30 COUNTS 41 43 0 0 0
M  V30 BEGIN ATOM
M  V30 1 C 0.875024 -7.196723 2.869045 0
M  V30 2 C 1.183956 -5.929784 3.642897 0
M  V30 3 O 0.867263 -4.838945 2.763871 0
M  V30 4 C 1.035744 -3.513602 3.145788 0
M  V30 5 O 1.482692 -3.582018 4.318687 0
M  V30 6 N 0.662246 -2.565428 2.125304 0
M  V30 7 C 0.144639 -2.882067 0.801851 0
M  V30 8 C -1.151043 -2.122527 0.567610 0
M  V30 9 N -1.016184 -0.727162 0.844244 0
M  V30 10 C -1.355055 0.438434 -0.046667 0
M  V30 11 N -0.578794 1.300324 -0.240513 0
M  V30 12 C -0.731931 2.372304 -0.979866 0
M  V30 13 C 0.255149 3.425484 -1.189132 0
M  V30 14 C 0.037098 4.527055 -1.979352 0
M  V30 15 C 0.912052 5.562887 -2.219585 0
M  V30 16 C 2.139755 5.423586 -1.559840 0
M  V30 17 F 3.079328 6.399586 -1.730134 0
M  V30 18 C 2.439830 4.351420 -0.749849 0
M  V30 19 C 1.504367 3.354629 -0.562815 0
M  V30 20 C -2.010510 2.449266 -1.599402 0
M  V30 21 S -2.830655 0.857235 -0.968336 0
M  V30 22 C -0.489071 -0.402420 2.146637 0
M  V30 23 C 0.806767 -1.157845 2.418338 0
M  V30 24 H 1.393348 -8.076987 3.301061 0
M  V30 25 H -0.225158 -7.336637 2.895613 0
M  V30 26 H 1.243869 -7.078023 1.823220 0
M  V30 27 H 2.226100 -5.901327 3.986704 0
M  V30 28 H 0.550892 -5.893969 4.555358 0
M  V30 29 H 0.877950 -2.699520 -0.007637 0
M  V30 30 H -0.119758 -3.961944 0.785050 0
M  V30 31 H -1.932396 -2.583753 1.213842 0
M  V30 32 H -1.425798 -2.340662 -0.484898 0
M  V30 33 H -0.920393 4.636577 -2.495455 0
M  V30 34 H 0.676098 6.388050 -2.845057 0
M  V30 35 H 3.400757 4.257867 -0.243499 0
M  V30 36 H 1.740627 2.511987 0.073972 0
M  V30 37 H -2.425714 3.300582 -2.317816 0
M  V30 38 H -0.284200 0.648660 2.333455 0
M  V30 39 H -1.218118 -0.747358 2.908939 0
M  V30 40 H 1.643425 -0.764654 1.786323 0
M  V30 41 H 1.088636 -0.998628 3.467121 0
M  V30 END ATOM
M  V30 BEGIN BOND
M  V30 1 1 1 2
M  V30 2 1 2 3
M  V30 3 1 3 4
M  V30 4 2 4 5
M  V30 5 1 4 6
M  V30 6 1 6 7
M  V30 7 1 7 8
M  V30 8 1 8 9
M  V30 9 1 9 10
M  V30 10 2 10 11
M  V30 11 1 11 12
M  V30 12 1 12 13
M  V30 13 2 13 14
M  V30 14 1 14 15
M  V30 15 2 15 16
M  V30 16 1 16 17
M  V30 17 1 16 18
M  V30 18 2 18 19
M  V30 19 2 12 20
M  V30 20 1 20 21
M  V30 21 1 9 22
M  V30 22 1 22 23
M  V30 23 1 23 6
M  V30 24 1 21 10
M  V30 25 1 19 13
M  V30 26 1 1 24
M  V30 27 1 1 25
M  V30 28 1 1 26
M  V30 29 1 2 27
M  V30 30 1 2 28
M  V30 31 1 7 29
M  V30 32 1 7 30
M  V30 33 1 8 31
M  V30 34 1 8 32
M  V30 35 1 14 33
M  V30 36 1 15 34
M  V30 37 1 18 35
M  V30 38 1 19 36
M  V30 39 1 20 37
M  V30 40 1 22 38
M  V30 41 1 22 39
M  V30 42 1 23 40
M  V30 43 1 23 41
M  V30 END BOND
M  V30 END CTAB
M  END
>  <Dataset>  (222) 
ChEMBL_Kinases

>  <Ligand_Instance>  (222) 
nan

>  <PDB_ID>  (222) 
nan

>  <Standardized_SMILES>  (222) 
CCOC(=O)N1CCN(c2nc(-c3ccc(F)cc3)cs2)CC1

>  <Name>  (222) 
nan

>  <Pocket>  (222) 
nan

>  <ATP_Site>  (222) 
nan

>  <Peripheral>  (222) 
nan

>  <Num_H_Atoms_ProtBoundConf>  (222) 
nan

>  <Num_Resolved_Atoms>  (222) 
nan

>  <Num_Not_Resolved_Atoms>  (222) 
nan

$$$$
CHEMBL1351418
     RDKit          3D

  0  0  0  0  0  0  0  0  0  0999 V3000
M  V30 BEGIN CTAB
M  V30 COUNTS 36 38 0 0 0
M  V30 BEGIN ATOM
M  V30 1 N -0.531734 -2.285257 4.220639 0
M  V30 2 C 0.851599 -2.068623 4.017992 0
M  V30 3 O 1.063949 -3.142432 4.690659 0
M  V30 4 C 2.188469 -1.596965 3.655724 0
M  V30 5 S 2.221516 -0.132794 2.737079 0
M  V30 6 C 1.765133 -0.066569 1.064963 0
M  V30 7 O 1.973127 1.208392 0.723614 0
M  V30 8 C 1.686769 1.439303 -0.509805 0
M  V30 9 C 1.756824 2.665061 -1.310257 0
M  V30 10 C 2.158250 3.861436 -0.908307 0
M  V30 11 C 2.176664 4.938187 -1.750238 0
M  V30 12 C 1.704448 4.608063 -3.130571 0
M  V30 13 S 1.300452 2.775566 -3.005933 0
M  V30 14 N 1.258979 0.254030 -1.037125 0
M  V30 15 C 1.307479 -0.665812 -0.065955 0
M  V30 16 S 0.835531 -2.337327 -0.035896 0
M  V30 17 O 1.429238 -3.115177 1.063160 0
M  V30 18 O 1.338712 -2.991980 -1.322848 0
M  V30 19 C -0.926175 -2.429664 -0.088990 0
M  V30 20 C -1.811096 -2.035262 0.883602 0
M  V30 21 C -3.179605 -2.137761 0.831888 0
M  V30 22 C -3.727652 -2.695715 -0.320569 0
M  V30 23 C -2.933947 -3.116400 -1.341480 0
M  V30 24 C -1.569844 -2.978163 -1.210148 0
M  V30 25 H -1.154342 -2.903007 3.679678 0
M  V30 26 H -1.040491 -1.781079 4.995622 0
M  V30 27 H 2.707201 -1.393273 4.669185 0
M  V30 28 H 2.835967 -2.433312 3.256854 0
M  V30 29 H 2.491871 4.042823 0.108800 0
M  V30 30 H 2.474266 5.956113 -1.562119 0
M  V30 31 H 1.683487 5.468733 -3.927782 0
M  V30 32 H -1.356331 -1.585767 1.748464 0
M  V30 33 H -3.766285 -1.792025 1.660665 0
M  V30 34 H -4.805255 -2.796839 -0.406804 0
M  V30 35 H -3.285086 -3.560585 -2.269812 0
M  V30 36 H -0.908422 -3.302793 -2.008966 0
M  V30 END ATOM
M  V30 BEGIN BOND
M  V30 1 1 1 2
M  V30 2 2 2 3
M  V30 3 1 2 4
M  V30 4 1 4 5
M  V30 5 1 5 6
M  V30 6 1 6 7
M  V30 7 1 7 8
M  V30 8 1 8 9
M  V30 9 2 9 10
M  V30 10 1 10 11
M  V30 11 2 11 12
M  V30 12 1 12 13
M  V30 13 2 8 14
M  V30 14 1 14 15
M  V30 15 1 15 16
M  V30 16 2 16 17
M  V30 17 2 16 18
M  V30 18 1 16 19
M  V30 19 2 19 20
M  V30 20 1 20 21
M  V30 21 2 21 22
M  V30 22 1 22 23
M  V30 23 2 23 24
M  V30 24 2 15 6
M  V30 25 1 24 19
M  V30 26 1 13 9
M  V30 27 1 1 25
M  V30 28 1 1 26
M  V30 29 1 4 27
M  V30 30 1 4 28
M  V30 31 1 10 29
M  V30 32 1 11 30
M  V30 33 1 12 31
M  V30 34 1 20 32
M  V30 35 1 21 33
M  V30 36 1 22 34
M  V30 37 1 23 35
M  V30 38 1 24 36
M  V30 END BOND
M  V30 END CTAB
M  END
>  <Dataset>  (223) 
ChEMBL_Kinases

>  <Ligand_Instance>  (223) 
nan

>  <PDB_ID>  (223) 
nan

>  <Standardized_SMILES>  (223) 
NC(=O)CSc1oc(-c2cccs2)nc1S(=O)(=O)c1ccccc1

>  <Name>  (223) 
nan

>  <Pocket>  (223) 
nan

>  <ATP_Site>  (223) 
nan

>  <Peripheral>  (223) 
nan

>  <Num_H_Atoms_ProtBoundConf>  (223) 
nan

>  <Num_Resolved_Atoms>  (223) 
nan

>  <Num_Not_Resolved_Atoms>  (223) 
nan

$$$$
CHEMBL1351420
     RDKit          3D

  0  0  0  0  0  0  0  0  0  0999 V3000
M  V30 BEGIN CTAB
M  V30 COUNTS 60 63 0 0 0
M  V30 BEGIN ATOM
M  V30 1 C 0.111575 -3.926838 4.267227 0
M  V30 2 C 1.093757 -2.940457 3.812332 0
M  V30 3 S 1.551971 -1.626283 4.931715 0
M  V30 4 C 2.712948 -0.831498 3.815670 0
M  V30 5 N 3.499065 0.263170 3.927498 0
M  V30 6 C 4.298758 0.656270 2.917921 0
M  V30 7 N 4.243120 -0.119162 1.821771 0
M  V30 8 C 5.128235 0.340834 0.739982 0
M  V30 9 C 4.407627 1.279772 -0.122308 0
M  V30 10 O 4.852158 1.877319 -1.152057 0
M  V30 11 N 3.036725 1.616936 0.160299 0
M  V30 12 C 2.169447 2.512339 -0.566150 0
M  V30 13 C 0.798920 2.618152 0.023516 0
M  V30 14 C 0.062317 1.314249 0.072973 0
M  V30 15 C -0.152027 0.680330 -1.230163 0
M  V30 16 O 0.259332 1.204408 -2.319836 0
M  V30 17 N -0.831861 -0.547222 -1.303416 0
M  V30 18 C -1.333613 -1.210574 -0.099337 0
M  V30 19 C -2.403013 -2.236230 -0.471183 0
M  V30 20 N -3.205228 -1.619331 -1.511350 0
M  V30 21 C -4.601268 -1.454095 -1.290103 0
M  V30 22 N -5.146049 -1.868173 -0.131630 0
M  V30 23 C -6.468995 -1.740574 0.143020 0
M  V30 24 C -7.288621 -1.154051 -0.823697 0
M  V30 25 C -6.722066 -0.724477 -2.026105 0
M  V30 26 N -5.388977 -0.887685 -2.225279 0
M  V30 27 C -2.600013 -1.180323 -2.749190 0
M  V30 28 C -1.077429 -1.231867 -2.580316 0
M  V30 29 C 3.491962 -1.216334 1.635119 0
M  V30 30 O 3.606367 -1.775811 0.530627 0
M  V30 31 C 2.673477 -1.616781 2.671398 0
M  V30 32 C 1.833514 -2.693782 2.696268 0
M  V30 33 C 1.590393 -3.695068 1.628585 0
M  V30 34 H 0.484086 -4.642034 4.999313 0
M  V30 35 H -0.748662 -3.388833 4.716452 0
M  V30 36 H -0.294879 -4.410976 3.356380 0
M  V30 37 H 4.909341 1.532197 3.044771 0
M  V30 38 H 6.045791 0.795422 1.163622 0
M  V30 39 H 5.507478 -0.554190 0.168973 0
M  V30 40 H 2.610272 1.146624 1.011606 0
M  V30 41 H 2.199078 2.333071 -1.649916 0
M  V30 42 H 2.633474 3.532626 -0.436905 0
M  V30 43 H 0.901997 2.979405 1.061757 0
M  V30 44 H 0.249296 3.374528 -0.588274 0
M  V30 45 H 0.591727 0.663404 0.798379 0
M  V30 46 H -0.925901 1.530960 0.558806 0
M  V30 47 H -0.508207 -1.799350 0.372894 0
M  V30 48 H -1.769307 -0.484630 0.602415 0
M  V30 49 H -1.924594 -3.161298 -0.901484 0
M  V30 50 H -3.012645 -2.497101 0.392415 0
M  V30 51 H -6.833991 -2.103898 1.111607 0
M  V30 52 H -8.340769 -1.064202 -0.579228 0
M  V30 53 H -7.381932 -0.274956 -2.753666 0
M  V30 54 H -2.948906 -1.718718 -3.634744 0
M  V30 55 H -2.822512 -0.089392 -2.934546 0
M  V30 56 H -0.819018 -2.305029 -2.454285 0
M  V30 57 H -0.563933 -0.744884 -3.410844 0
M  V30 58 H 2.182095 -3.577827 0.725991 0
M  V30 59 H 1.815820 -4.740405 1.991750 0
M  V30 60 H 0.518968 -3.742641 1.337829 0
M  V30 END ATOM
M  V30 BEGIN BOND
M  V30 1 1 1 2
M  V30 2 1 2 3
M  V30 3 1 3 4
M  V30 4 1 4 5
M  V30 5 2 5 6
M  V30 6 1 6 7
M  V30 7 1 7 8
M  V30 8 1 8 9
M  V30 9 2 9 10
M  V30 10 1 9 11
M  V30 11 1 11 12
M  V30 12 1 12 13
M  V30 13 1 13 14
M  V30 14 1 14 15
M  V30 15 2 15 16
M  V30 16 1 15 17
M  V30 17 1 17 18
M  V30 18 1 18 19
M  V30 19 1 19 20
M  V30 20 1 20 21
M  V30 21 2 21 22
M  V30 22 1 22 23
M  V30 23 2 23 24
M  V30 24 1 24 25
M  V30 25 2 25 26
M  V30 26 1 20 27
M  V30 27 1 27 28
M  V30 28 1 7 29
M  V30 29 2 29 30
M  V30 30 1 29 31
M  V30 31 1 31 32
M  V30 32 1 32 33
M  V30 33 2 32 2
M  V30 34 2 31 4
M  V30 35 1 28 17
M  V30 36 1 26 21
M  V30 37 1 1 34
M  V30 38 1 1 35
M  V30 39 1 1 36
M  V30 40 1 6 37
M  V30 41 1 8 38
M  V30 42 1 8 39
M  V30 43 1 11 40
M  V30 44 1 12 41
M  V30 45 1 12 42
M  V30 46 1 13 43
M  V30 47 1 13 44
M  V30 48 1 14 45
M  V30 49 1 14 46
M  V30 50 1 18 47
M  V30 51 1 18 48
M  V30 52 1 19 49
M  V30 53 1 19 50
M  V30 54 1 23 51
M  V30 55 1 24 52
M  V30 56 1 25 53
M  V30 57 1 27 54
M  V30 58 1 27 55
M  V30 59 1 28 56
M  V30 60 1 28 57
M  V30 61 1 33 58
M  V30 62 1 33 59
M  V30 63 1 33 60
M  V30 END BOND
M  V30 END CTAB
M  END
>  <Dataset>  (224) 
ChEMBL_Kinases

>  <Ligand_Instance>  (224) 
nan

>  <PDB_ID>  (224) 
nan

>  <Standardized_SMILES>  (224) 
Cc1sc2ncn(CC(=O)NCCCC(=O)N3CCN(c4ncccn4)CC3)c(=O)c2c1C

>  <Name>  (224) 
nan

>  <Pocket>  (224) 
nan

>  <ATP_Site>  (224) 
nan

>  <Peripheral>  (224) 
nan

>  <Num_H_Atoms_ProtBoundConf>  (224) 
nan

>  <Num_Resolved_Atoms>  (224) 
nan

>  <Num_Not_Resolved_Atoms>  (224) 
nan

$$$$
CHEMBL1351464
     RDKit          3D

  0  0  0  0  0  0  0  0  0  0999 V3000
M  V30 BEGIN CTAB
M  V30 COUNTS 55 58 0 0 0
M  V30 BEGIN ATOM
M  V30 1 C 0.474971 2.074005 -1.258599 0
M  V30 2 C 1.323220 1.375359 -0.241554 0
M  V30 3 O 2.542391 1.086920 -0.464562 0
M  V30 4 N 0.692647 1.047358 0.997368 0
M  V30 5 C 1.179512 0.390875 2.186118 0 CFG=1
M  V30 6 C 1.156218 1.347704 3.332864 0
M  V30 7 C 2.022441 2.504322 3.027631 0
M  V30 8 C 3.351820 2.586945 3.475440 0
M  V30 9 N 3.962728 3.704885 3.055179 0
M  V30 10 C 3.077301 4.399148 2.323420 0
M  V30 11 C 3.150504 5.610148 1.658075 0
M  V30 12 C 2.011044 6.042687 0.993848 0
M  V30 13 C 0.825298 5.327752 0.969105 0
M  V30 14 C 0.801958 4.127982 1.645600 0
M  V30 15 C 1.911035 3.666304 2.313877 0
M  V30 16 C 0.450664 -0.849503 2.431703 0
M  V30 17 O 0.570126 -1.699582 3.349853 0
M  V30 18 O -0.558927 -1.635376 1.923936 0
M  V30 19 C -0.958027 -2.854375 2.549870 0
M  V30 20 C -2.057370 -3.384425 1.708237 0
M  V30 21 O -2.444808 -4.462712 2.221441 0
M  V30 22 N -2.628053 -2.864214 0.548534 0
M  V30 23 C -3.704072 -3.446978 -0.219231 0
M  V30 24 C -3.136763 -4.572664 -1.004660 0
M  V30 25 C -3.080936 -5.885638 -0.618173 0
M  V30 26 C -2.545619 -6.901105 -1.360483 0
M  V30 27 C -2.009074 -6.626150 -2.602077 0
M  V30 28 C -2.044992 -5.313517 -3.031144 0
M  V30 29 C -2.593448 -4.295075 -2.261823 0
M  V30 30 O -1.450923 -5.280016 -4.302132 0
M  V30 31 C -0.768272 -6.508388 -4.532339 0
M  V30 32 O -1.394467 -7.378311 -3.614045 0
M  V30 33 H 1.086812 2.777857 -1.848661 0
M  V30 34 H -0.041172 1.303020 -1.866872 0
M  V30 35 H -0.272382 2.720929 -0.716558 0
M  V30 36 H -0.297352 1.249094 1.242603 0
M  V30 37 H 2.268410 0.098845 2.020834 0
M  V30 38 H 1.528684 0.870379 4.277243 0
M  V30 39 H 0.113104 1.731291 3.477290 0
M  V30 40 H 3.872608 1.850092 4.098202 0
M  V30 41 H 4.945995 3.983720 3.259092 0
M  V30 42 H 4.075207 6.142853 1.692011 0
M  V30 43 H 2.152312 7.008185 0.493162 0
M  V30 44 H -0.011766 5.764682 0.413571 0
M  V30 45 H -0.125190 3.590538 1.626772 0
M  V30 46 H -0.135748 -3.580126 2.594593 0
M  V30 47 H -1.319158 -2.700146 3.577187 0
M  V30 48 H -2.209846 -1.965050 0.236434 0
M  V30 49 H -4.092190 -2.717337 -0.945719 0
M  V30 50 H -4.508323 -3.834794 0.456428 0
M  V30 51 H -3.494642 -6.142989 0.345471 0
M  V30 52 H -2.513516 -7.930523 -1.033097 0
M  V30 53 H -2.598151 -3.276565 -2.644339 0
M  V30 54 H -0.917610 -6.840503 -5.562205 0
M  V30 55 H 0.310869 -6.378756 -4.287472 0
M  V30 END ATOM
M  V30 BEGIN BOND
M  V30 1 1 1 2
M  V30 2 2 2 3
M  V30 3 1 2 4
M  V30 4 1 4 5
M  V30 5 1 5 6
M  V30 6 1 6 7
M  V30 7 2 7 8
M  V30 8 1 8 9
M  V30 9 1 9 10
M  V30 10 2 10 11
M  V30 11 1 11 12
M  V30 12 2 12 13
M  V30 13 1 13 14
M  V30 14 2 14 15
M  V30 15 1 5 16
M  V30 16 2 16 17
M  V30 17 1 16 18
M  V30 18 1 18 19
M  V30 19 1 19 20
M  V30 20 2 20 21
M  V30 21 1 20 22
M  V30 22 1 22 23
M  V30 23 1 23 24
M  V30 24 2 24 25
M  V30 25 1 25 26
M  V30 26 2 26 27
M  V30 27 1 27 28
M  V30 28 2 28 29
M  V30 29 1 28 30
M  V30 30 1 30 31
M  V30 31 1 31 32
M  V30 32 1 15 7
M  V30 33 1 29 24
M  V30 34 1 15 10
M  V30 35 1 32 27
M  V30 36 1 1 33
M  V30 37 1 1 34
M  V30 38 1 1 35
M  V30 39 1 4 36
M  V30 40 1 5 37 CFG=3
M  V30 41 1 6 38
M  V30 42 1 6 39
M  V30 43 1 8 40
M  V30 44 1 9 41
M  V30 45 1 11 42
M  V30 46 1 12 43
M  V30 47 1 13 44
M  V30 48 1 14 45
M  V30 49 1 19 46
M  V30 50 1 19 47
M  V30 51 1 22 48
M  V30 52 1 23 49
M  V30 53 1 23 50
M  V30 54 1 25 51
M  V30 55 1 26 52
M  V30 56 1 29 53
M  V30 57 1 31 54
M  V30 58 1 31 55
M  V30 END BOND
M  V30 END CTAB
M  END
>  <Dataset>  (225) 
ChEMBL_Kinases

>  <Ligand_Instance>  (225) 
nan

>  <PDB_ID>  (225) 
nan

>  <Standardized_SMILES>  (225) 
CC(=O)N[C@@H](Cc1c[nH]c2ccccc12)C(=O)OCC(=O)NCc1ccc2c(c1)OCO2

>  <Name>  (225) 
nan

>  <Pocket>  (225) 
nan

>  <ATP_Site>  (225) 
nan

>  <Peripheral>  (225) 
nan

>  <Num_H_Atoms_ProtBoundConf>  (225) 
nan

>  <Num_Resolved_Atoms>  (225) 
nan

>  <Num_Not_Resolved_Atoms>  (225) 
nan

$$$$
CHEMBL1351631
     RDKit          3D

  0  0  0  0  0  0  0  0  0  0999 V3000
M  V30 BEGIN CTAB
M  V30 COUNTS 35 36 0 0 0
M  V30 BEGIN ATOM
M  V30 1 C -0.990759 -4.378784 4.260902 0
M  V30 2 O 0.275035 -3.943958 3.849482 0
M  V30 3 C 0.507607 -2.712163 3.242863 0
M  V30 4 C -0.609984 -1.894390 3.052132 0
M  V30 5 C -0.466582 -0.640111 2.450010 0
M  V30 6 C 0.792715 -0.234077 2.052947 0
M  V30 7 C 0.993974 1.065210 1.420429 0
M  V30 8 S 1.198494 2.552813 2.006161 0
M  V30 9 N 1.011615 0.992434 -0.005937 0
M  V30 10 C 0.844138 -0.262505 -0.755601 0
M  V30 11 C 0.160452 -0.006904 -2.080414 0
M  V30 12 N -0.778282 1.056841 -1.848423 0
M  V30 13 C -1.891369 1.085857 -2.760021 0
M  V30 14 C -0.035744 2.299903 -1.800619 0
M  V30 15 C 1.186553 2.065715 -0.968078 0
M  V30 16 C 1.891412 -1.052864 2.247293 0
M  V30 17 C 1.784218 -2.312026 2.845634 0
M  V30 18 Br 3.257745 -3.466723 3.132363 0
M  V30 19 H -1.745871 -4.343449 3.449383 0
M  V30 20 H -0.867968 -5.423089 4.625395 0
M  V30 21 H -1.314090 -3.763201 5.137708 0
M  V30 22 H -1.604811 -2.192586 3.355400 0
M  V30 23 H -1.271408 0.050696 2.265687 0
M  V30 24 H 1.788103 -0.793765 -0.869631 0
M  V30 25 H 0.131513 -0.867576 -0.151560 0
M  V30 26 H -0.421045 -0.917466 -2.336879 0
M  V30 27 H 0.893415 0.196899 -2.883752 0
M  V30 28 H -2.809997 1.004853 -2.108796 0
M  V30 29 H -1.890310 0.163618 -3.360613 0
M  V30 30 H -1.980370 1.989805 -3.361137 0
M  V30 31 H 0.189711 2.695359 -2.808591 0
M  V30 32 H -0.698834 3.025415 -1.288838 0
M  V30 33 H 1.356122 2.987319 -0.362250 0
M  V30 34 H 2.100748 1.896786 -1.572503 0
M  V30 35 H 2.908016 -0.795338 1.959145 0
M  V30 END ATOM
M  V30 BEGIN BOND
M  V30 1 1 1 2
M  V30 2 1 2 3
M  V30 3 2 3 4
M  V30 4 1 4 5
M  V30 5 2 5 6
M  V30 6 1 6 7
M  V30 7 2 7 8
M  V30 8 1 7 9
M  V30 9 1 9 10
M  V30 10 1 10 11
M  V30 11 1 11 12
M  V30 12 1 12 13
M  V30 13 1 12 14
M  V30 14 1 14 15
M  V30 15 1 6 16
M  V30 16 2 16 17
M  V30 17 1 17 18
M  V30 18 1 17 3
M  V30 19 1 15 9
M  V30 20 1 1 19
M  V30 21 1 1 20
M  V30 22 1 1 21
M  V30 23 1 4 22
M  V30 24 1 5 23
M  V30 25 1 10 24
M  V30 26 1 10 25
M  V30 27 1 11 26
M  V30 28 1 11 27
M  V30 29 1 13 28
M  V30 30 1 13 29
M  V30 31 1 13 30
M  V30 32 1 14 31
M  V30 33 1 14 32
M  V30 34 1 15 33
M  V30 35 1 15 34
M  V30 36 1 16 35
M  V30 END BOND
M  V30 END CTAB
M  END
>  <Dataset>  (226) 
ChEMBL_Kinases

>  <Ligand_Instance>  (226) 
nan

>  <PDB_ID>  (226) 
nan

>  <Standardized_SMILES>  (226) 
COc1ccc(C(=S)N2CCN(C)CC2)cc1Br

>  <Name>  (226) 
nan

>  <Pocket>  (226) 
nan

>  <ATP_Site>  (226) 
nan

>  <Peripheral>  (226) 
nan

>  <Num_H_Atoms_ProtBoundConf>  (226) 
nan

>  <Num_Resolved_Atoms>  (226) 
nan

>  <Num_Not_Resolved_Atoms>  (226) 
nan

$$$$
CHEMBL1351658
     RDKit          3D

  0  0  0  0  0  0  0  0  0  0999 V3000
M  V30 BEGIN CTAB
M  V30 COUNTS 46 48 0 0 0
M  V30 BEGIN ATOM
M  V30 1 C 2.731347 -4.053915 1.378540 0
M  V30 2 C 3.181136 -3.484732 0.014801 0
M  V30 3 O 3.007416 -2.169807 -0.125186 0
M  V30 4 C 3.069288 -1.034699 -0.749212 0
M  V30 5 O 3.395257 -2.185105 -1.015425 0
M  V30 6 C 2.518630 0.166222 -0.019773 0
M  V30 7 C 3.351466 0.205582 1.303232 0
M  V30 8 O 1.196071 -0.070488 0.333040 0
M  V30 9 C 0.305060 0.918414 0.658060 0
M  V30 10 C 0.767950 2.203655 0.699405 0
M  V30 11 C 0.096382 3.407072 0.991868 0
M  V30 12 C 0.564906 4.800787 1.088101 0
M  V30 13 C -1.257035 3.108676 1.253051 0
M  V30 14 C -1.808142 1.854555 1.236661 0
M  V30 15 O -3.069098 1.576392 1.469006 0
M  V30 16 C -3.519392 0.285482 1.417348 0
M  V30 17 O -4.749411 0.422946 1.674184 0
M  V30 18 C -2.687984 -0.740247 1.143205 0
M  V30 19 C -1.311030 -0.567499 0.880878 0
M  V30 20 C -1.073979 0.715811 0.953835 0
M  V30 21 C -0.648356 -1.821215 0.698407 0
M  V30 22 C -1.405760 -2.719282 -0.257813 0
M  V30 23 C -2.789892 -3.000547 0.183812 0
M  V30 24 C -3.463090 -2.042664 1.106191 0
M  V30 25 H 2.561622 -3.186795 2.071575 0
M  V30 26 H 1.754030 -4.545760 1.212741 0
M  V30 27 H 3.500824 -4.709202 1.805900 0
M  V30 28 H 2.672852 -4.075863 -0.811207 0
M  V30 29 H 4.268726 -3.850698 -0.101862 0
M  V30 30 H 2.663385 1.098845 -0.517368 0
M  V30 31 H 3.211898 -0.810637 1.717103 0
M  V30 32 H 2.745733 0.887377 1.945177 0
M  V30 33 H 4.382104 0.447639 1.162389 0
M  V30 34 H 1.790043 2.552641 0.516454 0
M  V30 35 H -0.305517 5.476658 0.865447 0
M  V30 36 H 1.437584 4.981613 0.404564 0
M  V30 37 H 0.829283 4.991256 2.160375 0
M  V30 38 H -1.986895 3.890910 1.526327 0
M  V30 39 H -0.926893 -2.374278 1.704262 0
M  V30 40 H 0.401546 -1.986848 0.768374 0
M  V30 41 H -0.860550 -3.723713 -0.316452 0
M  V30 42 H -1.395588 -2.341824 -1.291210 0
M  V30 43 H -3.421840 -3.227317 -0.750012 0
M  V30 44 H -2.822208 -4.018055 0.705508 0
M  V30 45 H -4.461048 -1.820928 0.662221 0
M  V30 46 H -3.552536 -2.476886 2.131377 0
M  V30 END ATOM
M  V30 BEGIN BOND
M  V30 1 1 1 2
M  V30 2 1 2 3
M  V30 3 1 3 4
M  V30 4 2 4 5
M  V30 5 1 4 6
M  V30 6 1 6 7
M  V30 7 1 6 8
M  V30 8 1 8 9
M  V30 9 2 9 10
M  V30 10 1 10 11
M  V30 11 1 11 12
M  V30 12 2 11 13
M  V30 13 1 13 14
M  V30 14 1 14 15
M  V30 15 1 15 16
M  V30 16 2 16 17
M  V30 17 1 16 18
M  V30 18 2 18 19
M  V30 19 1 19 20
M  V30 20 1 19 21
M  V30 21 1 21 22
M  V30 22 1 22 23
M  V30 23 1 23 24
M  V30 24 1 20 9
M  V30 25 2 20 14
M  V30 26 1 24 18
M  V30 27 1 1 25
M  V30 28 1 1 26
M  V30 29 1 1 27
M  V30 30 1 2 28
M  V30 31 1 2 29
M  V30 32 1 6 30
M  V30 33 1 7 31
M  V30 34 1 7 32
M  V30 35 1 7 33
M  V30 36 1 10 34
M  V30 37 1 12 35
M  V30 38 1 12 36
M  V30 39 1 12 37
M  V30 40 1 13 38
M  V30 41 1 21 39
M  V30 42 1 21 40
M  V30 43 1 22 41
M  V30 44 1 22 42
M  V30 45 1 23 43
M  V30 46 1 23 44
M  V30 47 1 24 45
M  V30 48 1 24 46
M  V30 END BOND
M  V30 END CTAB
M  END
>  <Dataset>  (227) 
ChEMBL_Kinases

>  <Ligand_Instance>  (227) 
nan

>  <PDB_ID>  (227) 
nan

>  <Standardized_SMILES>  (227) 
CCOC(=O)C(C)Oc1cc(C)cc2oc(=O)c3c(c12)CCCC3

>  <Name>  (227) 
nan

>  <Pocket>  (227) 
nan

>  <ATP_Site>  (227) 
nan

>  <Peripheral>  (227) 
nan

>  <Num_H_Atoms_ProtBoundConf>  (227) 
nan

>  <Num_Resolved_Atoms>  (227) 
nan

>  <Num_Not_Resolved_Atoms>  (227) 
nan

$$$$
CHEMBL1351008
     RDKit          3D

  0  0  0  0  0  0  0  0  0  0999 V3000
M  V30 BEGIN CTAB
M  V30 COUNTS 35 36 0 0 0
M  V30 BEGIN ATOM
M  V30 1 C -0.350127 -4.168442 4.439183 0
M  V30 2 C -1.167071 -4.006354 3.181772 0
M  V30 3 N -0.343304 -3.617299 2.051478 0
M  V30 4 C 0.261769 -4.473430 1.204183 0
M  V30 5 C 0.926039 -3.672372 0.299982 0
M  V30 6 Br 1.970320 -4.368497 -1.150636 0
M  V30 7 C 0.714392 -2.343742 0.611718 0
M  V30 8 C 1.241657 -1.180015 -0.098137 0
M  V30 9 O 1.967346 -1.336682 -1.101388 0
M  V30 10 N 0.900395 0.119877 0.391949 0
M  V30 11 C 1.428223 1.252167 -0.319175 0
M  V30 12 C 2.180163 2.217619 0.557388 0
M  V30 13 C 0.258331 1.995296 -0.865280 0
M  V30 14 C 0.255414 2.455278 -2.166061 0
M  V30 15 C -0.842879 3.136964 -2.633472 0
M  V30 16 C -1.947553 3.388097 -1.871158 0
M  V30 17 C -1.979227 2.940288 -0.558728 0
M  V30 18 C -0.863338 2.250403 -0.091554 0
M  V30 19 N -0.071158 -2.358565 1.694927 0
M  V30 20 H 0.711619 -4.284256 4.140126 0
M  V30 21 H -0.498151 -3.312929 5.143278 0
M  V30 22 H -0.643518 -5.099245 4.991602 0
M  V30 23 H -1.942081 -3.235492 3.354946 0
M  V30 24 H -1.628381 -4.984395 2.946385 0
M  V30 25 H 0.229916 -5.551484 1.232014 0
M  V30 26 H 0.293098 0.256909 1.231620 0
M  V30 27 H 2.038751 0.925601 -1.166087 0
M  V30 28 H 3.261926 1.996471 0.620533 0
M  V30 29 H 2.103447 3.217072 0.080587 0
M  V30 30 H 1.668746 2.276737 1.526582 0
M  V30 31 H 1.143474 2.246846 -2.760304 0
M  V30 32 H -0.821137 3.484512 -3.648278 0
M  V30 33 H -2.803688 3.929529 -2.264026 0
M  V30 34 H -2.838687 3.116433 0.088957 0
M  V30 35 H -0.920569 1.915645 0.934365 0
M  V30 END ATOM
M  V30 BEGIN BOND
M  V30 1 1 1 2
M  V30 2 1 2 3
M  V30 3 1 3 4
M  V30 4 2 4 5
M  V30 5 1 5 6
M  V30 6 1 5 7
M  V30 7 1 7 8
M  V30 8 2 8 9
M  V30 9 1 8 10
M  V30 10 1 10 11
M  V30 11 1 11 12
M  V30 12 1 11 13
M  V30 13 2 13 14
M  V30 14 1 14 15
M  V30 15 2 15 16
M  V30 16 1 16 17
M  V30 17 2 17 18
M  V30 18 2 7 19
M  V30 19 1 19 3
M  V30 20 1 18 13
M  V30 21 1 1 20
M  V30 22 1 1 21
M  V30 23 1 1 22
M  V30 24 1 2 23
M  V30 25 1 2 24
M  V30 26 1 4 25
M  V30 27 1 10 26
M  V30 28 1 11 27
M  V30 29 1 12 28
M  V30 30 1 12 29
M  V30 31 1 12 30
M  V30 32 1 14 31
M  V30 33 1 15 32
M  V30 34 1 16 33
M  V30 35 1 17 34
M  V30 36 1 18 35
M  V30 END BOND
M  V30 END CTAB
M  END
>  <Dataset>  (228) 
ChEMBL_Kinases

>  <Ligand_Instance>  (228) 
nan

>  <PDB_ID>  (228) 
nan

>  <Standardized_SMILES>  (228) 
CCn1cc(Br)c(C(=O)NC(C)c2ccccc2)n1

>  <Name>  (228) 
nan

>  <Pocket>  (228) 
nan

>  <ATP_Site>  (228) 
nan

>  <Peripheral>  (228) 
nan

>  <Num_H_Atoms_ProtBoundConf>  (228) 
nan

>  <Num_Resolved_Atoms>  (228) 
nan

>  <Num_Not_Resolved_Atoms>  (228) 
nan

$$$$
CHEMBL1356808
     RDKit          3D

  0  0  0  0  0  0  0  0  0  0999 V3000
M  V30 BEGIN CTAB
M  V30 COUNTS 26 28 0 0 0
M  V30 BEGIN ATOM
M  V30 1 C -0.773343 -3.899503 3.248732 0
M  V30 2 C -0.891890 -4.702648 2.132321 0
M  V30 3 N -0.705346 -4.194297 0.912553 0
M  V30 4 C -0.398367 -2.901278 0.703773 0
M  V30 5 C -0.264463 -2.042306 1.774840 0
M  V30 6 C 0.064781 -0.623850 1.675678 0
M  V30 7 C 0.280076 0.016239 0.478479 0
M  V30 8 C 0.592684 1.349649 0.331637 0
M  V30 9 N 0.801581 1.940301 -0.949959 0
M  V30 10 C 0.311398 1.430825 -2.096984 0
M  V30 11 C 0.717308 2.270796 -3.128706 0
M  V30 12 N 1.444163 3.262718 -2.548590 0
M  V30 13 C 1.495475 3.060468 -1.217169 0
M  V30 14 N 0.690762 2.072464 1.485048 0
M  V30 15 C 0.483556 1.465347 2.672471 0
M  V30 16 N 0.179472 0.159608 2.781059 0
M  V30 17 C -0.458671 -2.575113 3.030659 0
M  V30 18 H -0.927141 -4.320795 4.245788 0
M  V30 19 H -1.133741 -5.750184 2.183159 0
M  V30 20 H -0.251565 -2.506552 -0.277152 0
M  V30 21 H 0.209406 -0.528841 -0.448175 0
M  V30 22 H -0.293623 0.519362 -2.173174 0
M  V30 23 H 0.427749 2.041886 -4.147732 0
M  V30 24 H 1.990819 3.663929 -0.478102 0
M  V30 25 H 0.550765 2.001091 3.622151 0
M  V30 26 H -0.365890 -1.946241 3.905541 0
M  V30 END ATOM
M  V30 BEGIN BOND
M  V30 1 2 1 2
M  V30 2 1 2 3
M  V30 3 2 3 4
M  V30 4 1 4 5
M  V30 5 1 5 6
M  V30 6 2 6 7
M  V30 7 1 7 8
M  V30 8 1 8 9
M  V30 9 1 9 10
M  V30 10 2 10 11
M  V30 11 1 11 12
M  V30 12 2 12 13
M  V30 13 2 8 14
M  V30 14 1 14 15
M  V30 15 2 15 16
M  V30 16 2 5 17
M  V30 17 1 17 1
M  V30 18 1 16 6
M  V30 19 1 13 9
M  V30 20 1 1 18
M  V30 21 1 2 19
M  V30 22 1 4 20
M  V30 23 1 7 21
M  V30 24 1 10 22
M  V30 25 1 11 23
M  V30 26 1 13 24
M  V30 27 1 15 25
M  V30 28 1 17 26
M  V30 END BOND
M  V30 END CTAB
M  END
>  <Dataset>  (229) 
ChEMBL_Kinases

>  <Ligand_Instance>  (229) 
nan

>  <PDB_ID>  (229) 
nan

>  <Standardized_SMILES>  (229) 
c1cncc(-c2cc(-n3ccnc3)ncn2)c1

>  <Name>  (229) 
nan

>  <Pocket>  (229) 
nan

>  <ATP_Site>  (229) 
nan

>  <Peripheral>  (229) 
nan

>  <Num_H_Atoms_ProtBoundConf>  (229) 
nan

>  <Num_Resolved_Atoms>  (229) 
nan

>  <Num_Not_Resolved_Atoms>  (229) 
nan

$$$$
CHEMBL1356794
     RDKit          3D

  0  0  0  0  0  0  0  0  0  0999 V3000
M  V30 BEGIN CTAB
M  V30 COUNTS 40 43 0 0 0
M  V30 BEGIN ATOM
M  V30 1 C -4.119701 -2.054955 0.723022 0
M  V30 2 C -3.129823 -2.937873 1.394876 0
M  V30 3 N -3.267459 -4.237285 1.710122 0
M  V30 4 O -2.198221 -4.680608 2.287289 0
M  V30 5 C -1.314444 -3.707302 2.378935 0
M  V30 6 C 0.066553 -3.693921 2.956013 0
M  V30 7 C -1.862156 -2.550046 1.815966 0
M  V30 8 C -1.245760 -1.236287 1.698496 0
M  V30 9 N -0.577330 -1.020454 0.575282 0
M  V30 10 C 0.059107 0.107705 0.261761 0
M  V30 11 N 0.807543 0.534728 -0.860183 0
M  V30 12 C 1.542960 0.909326 -1.999613 0
M  V30 13 C 2.740872 0.067466 -2.175420 0
M  V30 14 C 3.915083 0.449805 -1.579348 0
M  V30 15 C 5.126741 -0.118036 -1.574094 0
M  V30 16 C 5.047754 -1.419178 -2.421926 0
M  V30 17 S 3.188926 -1.404099 -2.972287 0
M  V30 18 C 0.018591 1.151415 1.197607 0
M  V30 19 C 0.596075 2.398673 1.095881 0
M  V30 20 C 0.507334 3.364064 2.058956 0
M  V30 21 C -0.198263 3.098636 3.213894 0
M  V30 22 C -0.820227 1.866056 3.413771 0
M  V30 23 C -0.675815 0.960155 2.391184 0
M  V30 24 N -1.256012 -0.217710 2.554645 0
M  V30 25 H -4.854336 -1.665727 1.465222 0
M  V30 26 H -3.608993 -1.177460 0.282033 0
M  V30 27 H -4.695469 -2.633110 -0.021408 0
M  V30 28 H 0.076520 -4.404129 3.800860 0
M  V30 29 H 0.275618 -2.673004 3.383553 0
M  V30 30 H 0.802175 -3.987413 2.179494 0
M  V30 31 H 0.660421 -0.393685 -1.361830 0
M  V30 32 H 0.991486 0.858165 -2.987223 0
M  V30 33 H 1.893321 1.992691 -1.929259 0
M  V30 34 H 4.200360 1.285582 -0.957913 0
M  V30 35 H 6.096625 -0.580437 -1.574850 0
M  V30 36 H 4.950496 -2.475336 -3.119971 0
M  V30 37 H 1.146383 2.611620 0.204462 0
M  V30 38 H 0.994022 4.314321 1.892085 0
M  V30 39 H -0.296779 3.834640 4.006780 0
M  V30 40 H -1.380700 1.614559 4.298961 0
M  V30 END ATOM
M  V30 BEGIN BOND
M  V30 1 1 1 2
M  V30 2 2 2 3
M  V30 3 1 3 4
M  V30 4 1 4 5
M  V30 5 1 5 6
M  V30 6 2 5 7
M  V30 7 1 7 8
M  V30 8 2 8 9
M  V30 9 1 9 10
M  V30 10 1 10 11
M  V30 11 1 11 12
M  V30 12 1 12 13
M  V30 13 2 13 14
M  V30 14 1 14 15
M  V30 15 2 15 16
M  V30 16 1 16 17
M  V30 17 2 10 18
M  V30 18 1 18 19
M  V30 19 2 19 20
M  V30 20 1 20 21
M  V30 21 2 21 22
M  V30 22 1 22 23
M  V30 23 2 23 24
M  V30 24 1 7 2
M  V30 25 1 24 8
M  V30 26 1 17 13
M  V30 27 1 23 18
M  V30 28 1 1 25
M  V30 29 1 1 26
M  V30 30 1 1 27
M  V30 31 1 6 28
M  V30 32 1 6 29
M  V30 33 1 6 30
M  V30 34 1 11 31
M  V30 35 1 12 32
M  V30 36 1 12 33
M  V30 37 1 14 34
M  V30 38 1 15 35
M  V30 39 1 16 36
M  V30 40 1 19 37
M  V30 41 1 20 38
M  V30 42 1 21 39
M  V30 43 1 22 40
M  V30 END BOND
M  V30 END CTAB
M  END
>  <Dataset>  (230) 
ChEMBL_Kinases

>  <Ligand_Instance>  (230) 
nan

>  <PDB_ID>  (230) 
nan

>  <Standardized_SMILES>  (230) 
Cc1noc(C)c1-c1nc(NCc2cccs2)c2ccccc2n1

>  <Name>  (230) 
nan

>  <Pocket>  (230) 
nan

>  <ATP_Site>  (230) 
nan

>  <Peripheral>  (230) 
nan

>  <Num_H_Atoms_ProtBoundConf>  (230) 
nan

>  <Num_Resolved_Atoms>  (230) 
nan

>  <Num_Not_Resolved_Atoms>  (230) 
nan

$$$$
CHEMBL1356652
     RDKit          3D

  0  0  0  0  0  0  0  0  0  0999 V3000
M  V30 BEGIN CTAB
M  V30 COUNTS 30 33 0 0 0
M  V30 BEGIN ATOM
M  V30 1 C -2.090176 -1.747672 3.813377 0
M  V30 2 C -0.795229 -1.617422 3.315529 0
M  V30 3 N -0.634689 -2.512889 2.308290 0
M  V30 4 C 0.474245 -2.801107 1.466236 0
M  V30 5 N 1.123162 -3.996295 1.423992 0
M  V30 6 C 2.169697 -4.224772 0.610159 0
M  V30 7 N 2.634133 -3.250659 -0.222916 0
M  V30 8 C 2.014605 -2.057201 -0.205632 0
M  V30 9 C 2.484054 -1.074518 -1.046045 0
M  V30 10 C 1.871837 0.150352 -1.048183 0
M  V30 11 C 0.797959 0.400877 -0.220430 0
M  V30 12 C 0.163363 1.735633 -0.249670 0
M  V30 13 C -0.017459 2.677755 -1.244430 0
M  V30 14 C -0.687856 3.736133 -0.665870 0
M  V30 15 O -0.915791 3.476335 0.617067 0
M  V30 16 C -0.416666 2.280919 0.900451 0
M  V30 17 C 0.325863 -0.565399 0.615250 0
M  V30 18 C 0.927611 -1.805722 0.633413 0
M  V30 19 C -1.796391 -3.186474 2.177479 0
M  V30 20 N -2.659825 -2.728430 3.074632 0
M  V30 21 H -2.375815 -1.089917 4.634972 0
M  V30 22 H 0.061776 -0.981333 3.556589 0
M  V30 23 H 2.669487 -5.183383 0.594612 0
M  V30 24 H 3.322587 -1.207384 -1.720230 0
M  V30 25 H 2.218828 0.941873 -1.698274 0
M  V30 26 H 0.350881 2.479325 -2.232177 0
M  V30 27 H -0.962184 4.623801 -1.225592 0
M  V30 28 H -0.461026 1.809453 1.887820 0
M  V30 29 H -0.514282 -0.317938 1.240396 0
M  V30 30 H -2.079825 -3.981079 1.492089 0
M  V30 END ATOM
M  V30 BEGIN BOND
M  V30 1 2 1 2
M  V30 2 1 2 3
M  V30 3 1 3 4
M  V30 4 2 4 5
M  V30 5 1 5 6
M  V30 6 2 6 7
M  V30 7 1 7 8
M  V30 8 2 8 9
M  V30 9 1 9 10
M  V30 10 2 10 11
M  V30 11 1 11 12
M  V30 12 1 12 13
M  V30 13 2 13 14
M  V30 14 1 14 15
M  V30 15 1 15 16
M  V30 16 1 11 17
M  V30 17 2 17 18
M  V30 18 1 3 19
M  V30 19 2 19 20
M  V30 20 1 20 1
M  V30 21 1 18 4
M  V30 22 1 18 8
M  V30 23 2 16 12
M  V30 24 1 1 21
M  V30 25 1 2 22
M  V30 26 1 6 23
M  V30 27 1 9 24
M  V30 28 1 10 25
M  V30 29 1 13 26
M  V30 30 1 14 27
M  V30 31 1 16 28
M  V30 32 1 17 29
M  V30 33 1 19 30
M  V30 END BOND
M  V30 END CTAB
M  END
>  <Dataset>  (231) 
ChEMBL_Kinases

>  <Ligand_Instance>  (231) 
nan

>  <PDB_ID>  (231) 
nan

>  <Standardized_SMILES>  (231) 
c1cn(-c2ncnc3ccc(-c4ccoc4)cc23)cn1

>  <Name>  (231) 
nan

>  <Pocket>  (231) 
nan

>  <ATP_Site>  (231) 
nan

>  <Peripheral>  (231) 
nan

>  <Num_H_Atoms_ProtBoundConf>  (231) 
nan

>  <Num_Resolved_Atoms>  (231) 
nan

>  <Num_Not_Resolved_Atoms>  (231) 
nan

$$$$
CHEMBL1356390
     RDKit          3D

  0  0  0  0  0  0  0  0  0  0999 V3000
M  V30 BEGIN CTAB
M  V30 COUNTS 38 40 0 0 0
M  V30 BEGIN ATOM
M  V30 1 C 2.860852 -1.412556 1.418690 0
M  V30 2 C 1.756221 -0.663840 1.545675 0
M  V30 3 C 1.503635 0.467908 2.429460 0
M  V30 4 O 2.189331 0.575413 3.503741 0
M  V30 5 O 0.493110 1.165521 1.781221 0
M  V30 6 C -0.397594 0.157867 1.298015 0 CFG=2
M  V30 7 C 0.509868 -0.876340 0.748204 0 CFG=2
M  V30 8 C 0.054897 -2.293381 1.001313 0
M  V30 9 C -1.181853 -2.652437 0.166827 0
M  V30 10 C -0.903146 -2.503393 -1.273537 0
M  V30 11 C 0.174549 -3.302540 -1.876103 0
M  V30 12 C -1.607944 -1.666379 -2.014881 0
M  V30 13 C -2.709836 -0.791133 -1.617042 0
M  V30 14 C -2.367320 0.693992 -1.827082 0
M  V30 15 C -1.147602 1.021608 -0.948780 0 CFG=1
M  V30 16 C 0.042498 1.423957 -1.718881 0
M  V30 17 O -1.412364 2.100674 0.042684 0
M  V30 18 C -1.411513 0.702759 0.350124 0 CFG=2
M  V30 19 H 3.007589 -2.256892 0.738983 0
M  V30 20 H 3.700923 -1.153058 2.059723 0
M  V30 21 H -0.833547 -0.279108 2.221879 0
M  V30 22 H 0.732661 -0.781020 -0.325691 0
M  V30 23 H 0.874856 -2.992540 0.841254 0
M  V30 24 H -0.300196 -2.323110 2.071714 0
M  V30 25 H -1.341413 -3.734243 0.357095 0
M  V30 26 H -2.009314 -2.100770 0.578564 0
M  V30 27 H 1.183721 -2.852609 -1.653907 0
M  V30 28 H 0.107177 -3.265373 -2.995164 0
M  V30 29 H 0.159923 -4.357480 -1.551663 0
M  V30 30 H -1.348282 -1.604822 -3.068245 0
M  V30 31 H -3.169534 -0.965006 -0.648625 0
M  V30 32 H -3.547714 -0.968844 -2.357133 0
M  V30 33 H -2.182900 0.849162 -2.891600 0
M  V30 34 H -3.263082 1.242696 -1.466459 0
M  V30 35 H 0.510318 0.595301 -2.310700 0
M  V30 36 H -0.319818 2.135406 -2.518502 0
M  V30 37 H 0.800960 2.031859 -1.163795 0
M  V30 38 H -2.450233 0.474057 0.677895 0
M  V30 END ATOM
M  V30 BEGIN BOND
M  V30 1 2 1 2
M  V30 2 1 2 3
M  V30 3 2 3 4
M  V30 4 1 3 5
M  V30 5 1 5 6
M  V30 6 1 6 7
M  V30 7 1 7 8
M  V30 8 1 8 9
M  V30 9 1 9 10
M  V30 10 1 10 11
M  V30 11 2 10 12
M  V30 12 1 12 13
M  V30 13 1 13 14
M  V30 14 1 14 15
M  V30 15 1 15 16 CFG=3
M  V30 16 1 15 17
M  V30 17 1 17 18
M  V30 18 1 7 2
M  V30 19 1 18 15
M  V30 20 1 18 6
M  V30 21 1 1 19
M  V30 22 1 1 20
M  V30 23 1 6 21 CFG=1
M  V30 24 1 7 22 CFG=3
M  V30 25 1 8 23
M  V30 26 1 8 24
M  V30 27 1 9 25
M  V30 28 1 9 26
M  V30 29 1 11 27
M  V30 30 1 11 28
M  V30 31 1 11 29
M  V30 32 1 12 30
M  V30 33 1 13 31
M  V30 34 1 13 32
M  V30 35 1 14 33
M  V30 36 1 14 34
M  V30 37 1 16 35
M  V30 38 1 16 36
M  V30 39 1 16 37
M  V30 40 1 18 38 CFG=3
M  V30 END BOND
M  V30 END CTAB
M  END
>  <Dataset>  (232) 
ChEMBL_Kinases

>  <Ligand_Instance>  (232) 
nan

>  <PDB_ID>  (232) 
nan

>  <Standardized_SMILES>  (232) 
C=C1C(=O)O[C@@H]2[C@@H]1CC/C(C)=C\CC[C@@]1(C)O[C@H]21

>  <Name>  (232) 
nan

>  <Pocket>  (232) 
nan

>  <ATP_Site>  (232) 
nan

>  <Peripheral>  (232) 
nan

>  <Num_H_Atoms_ProtBoundConf>  (232) 
nan

>  <Num_Resolved_Atoms>  (232) 
nan

>  <Num_Not_Resolved_Atoms>  (232) 
nan

$$$$
CHEMBL1356135
     RDKit          3D

  0  0  0  0  0  0  0  0  0  0999 V3000
M  V30 BEGIN CTAB
M  V30 COUNTS 40 42 0 0 0
M  V30 BEGIN ATOM
M  V30 1 C 1.176654 -4.983949 3.008529 0
M  V30 2 N 1.334086 -4.836630 1.554017 0
M  V30 3 C 1.610774 -5.987523 0.745580 0
M  V30 4 C 1.205468 -3.539194 0.985927 0
M  V30 5 C 0.941514 -2.446549 1.785097 0
M  V30 6 C 0.828596 -1.220668 1.164785 0
M  V30 7 C 0.957824 -0.997237 -0.188841 0
M  V30 8 C 0.839031 0.301128 -0.839508 0
M  V30 9 N 1.016228 0.294455 -2.185416 0
M  V30 10 C 0.933732 1.425779 -2.910313 0
M  V30 11 C 0.664414 2.548864 -2.198605 0
M  V30 12 C 0.470921 2.635666 -0.825035 0
M  V30 13 N 0.201630 3.862741 -0.207320 0
M  V30 14 C -0.041978 4.111162 1.176390 0
M  V30 15 C -1.241066 3.426030 1.722348 0
M  V30 16 C -1.442705 2.163053 2.341551 0
M  V30 17 C -2.724925 1.870080 2.721716 0
M  V30 18 C -3.734620 2.788775 2.492751 0
M  V30 19 S -2.893509 4.180571 1.691890 0
M  V30 20 N 0.575579 1.449597 -0.203668 0
M  V30 21 C 1.221143 -2.122659 -0.940160 0
M  V30 22 C 1.346548 -3.384889 -0.376989 0
M  V30 23 H 0.221445 -4.476695 3.316807 0
M  V30 24 H 2.009885 -4.484534 3.530129 0
M  V30 25 H 1.115878 -6.057193 3.282066 0
M  V30 26 H 1.314794 -6.903881 1.299134 0
M  V30 27 H 2.650673 -6.032185 0.370475 0
M  V30 28 H 0.961731 -6.002178 -0.176445 0
M  V30 29 H 0.827521 -2.539009 2.846592 0
M  V30 30 H 0.624935 -0.383964 1.803005 0
M  V30 31 H 1.073366 1.427808 -3.979889 0
M  V30 32 H 0.593942 3.483462 -2.779230 0
M  V30 33 H 0.172753 4.717267 -0.831587 0
M  V30 34 H -0.182288 5.183612 1.404997 0
M  V30 35 H 0.853939 3.807656 1.766137 0
M  V30 36 H -0.536322 1.595619 2.430909 0
M  V30 37 H -2.900755 0.914138 3.194636 0
M  V30 38 H -4.739680 2.667439 2.741099 0
M  V30 39 H 1.344965 -2.073047 -2.028121 0
M  V30 40 H 1.551361 -4.231361 -0.999615 0
M  V30 END ATOM
M  V30 BEGIN BOND
M  V30 1 1 1 2
M  V30 2 1 2 3
M  V30 3 1 2 4
M  V30 4 2 4 5
M  V30 5 1 5 6
M  V30 6 2 6 7
M  V30 7 1 7 8
M  V30 8 2 8 9
M  V30 9 1 9 10
M  V30 10 2 10 11
M  V30 11 1 11 12
M  V30 12 1 12 13
M  V30 13 1 13 14
M  V30 14 1 14 15
M  V30 15 2 15 16
M  V30 16 1 16 17
M  V30 17 2 17 18
M  V30 18 1 18 19
M  V30 19 2 12 20
M  V30 20 1 7 21
M  V30 21 2 21 22
M  V30 22 1 22 4
M  V30 23 1 20 8
M  V30 24 1 19 15
M  V30 25 1 1 23
M  V30 26 1 1 24
M  V30 27 1 1 25
M  V30 28 1 3 26
M  V30 29 1 3 27
M  V30 30 1 3 28
M  V30 31 1 5 29
M  V30 32 1 6 30
M  V30 33 1 10 31
M  V30 34 1 11 32
M  V30 35 1 13 33
M  V30 36 1 14 34
M  V30 37 1 14 35
M  V30 38 1 16 36
M  V30 39 1 17 37
M  V30 40 1 18 38
M  V30 41 1 21 39
M  V30 42 1 22 40
M  V30 END BOND
M  V30 END CTAB
M  END
>  <Dataset>  (233) 
ChEMBL_Kinases

>  <Ligand_Instance>  (233) 
nan

>  <PDB_ID>  (233) 
nan

>  <Standardized_SMILES>  (233) 
CN(C)c1ccc(-c2nccc(NCc3cccs3)n2)cc1

>  <Name>  (233) 
nan

>  <Pocket>  (233) 
nan

>  <ATP_Site>  (233) 
nan

>  <Peripheral>  (233) 
nan

>  <Num_H_Atoms_ProtBoundConf>  (233) 
nan

>  <Num_Resolved_Atoms>  (233) 
nan

>  <Num_Not_Resolved_Atoms>  (233) 
nan

$$$$
CHEMBL1356069
     RDKit          3D

  0  0  0  0  0  0  0  0  0  0999 V3000
M  V30 BEGIN CTAB
M  V30 COUNTS 81 84 0 0 0
M  V30 BEGIN ATOM
M  V30 1 C 1.320963 -6.458020 -0.305194 0
M  V30 2 C 1.996100 -5.356072 -1.065915 0
M  V30 3 O 3.061757 -4.888278 -0.661333 0
M  V30 4 O 1.285171 -4.998999 -2.180068 0
M  V30 5 C 1.633130 -4.012079 -3.088549 0
M  V30 6 C 1.678661 -2.620209 -2.522739 0
M  V30 7 O 2.611657 -2.552739 -1.526275 0
M  V30 8 C 2.534156 -1.313129 -0.916283 0
M  V30 9 O 1.221312 -0.962555 -0.524969 0
M  V30 10 C 0.815498 -0.642265 0.742377 0
M  V30 11 C 1.568000 -0.592291 1.896596 0
M  V30 12 C 1.072828 -0.260000 3.122760 0
M  V30 13 O 1.912769 -0.238086 4.224697 0
M  V30 14 C 2.583268 0.951526 4.565495 0
M  V30 15 C 3.511158 1.098190 5.725487 0
M  V30 16 O 2.294969 1.872315 3.761833 0
M  V30 17 C -0.265696 0.041783 3.194417 0
M  V30 18 C -0.763463 0.379984 4.446911 0
M  V30 19 O -0.015900 0.402163 5.442888 0
M  V30 20 C -2.126885 0.681751 4.485671 0
M  V30 21 C -2.918868 0.645101 3.357898 0
M  V30 22 C -4.339000 0.964504 3.425532 0
M  V30 23 C -5.007823 1.322447 4.576445 0
M  V30 24 C -6.375715 1.616305 4.564035 0
M  V30 25 C -7.105025 1.557933 3.397037 0
M  V30 26 O -8.451792 1.877769 3.549802 0
M  V30 27 C -9.397078 0.911912 3.856359 0
M  V30 28 C -10.830367 0.747384 4.103802 0
M  V30 29 O -8.824554 -0.204953 3.955447 0
M  V30 30 C -6.458988 1.202139 2.231481 0
M  V30 31 C -5.110046 0.918736 2.277140 0
M  V30 32 O -2.376559 0.315489 2.205355 0
M  V30 33 C -1.103640 0.021006 2.098462 0
M  V30 34 C -0.539417 -0.324305 0.882197 0
M  V30 35 C 3.031063 -0.263659 -1.864883 0 CFG=1
M  V30 36 O 4.417699 0.022075 -1.650106 0
M  V30 37 C 4.853644 1.248058 -1.148733 0
M  V30 38 C 6.306736 1.485052 -0.946863 0
M  V30 39 O 3.995196 2.143553 -0.872809 0
M  V30 40 C 2.683945 -0.449558 -3.292665 0
M  V30 41 O 3.917375 -0.342732 -4.025868 0
M  V30 42 C 4.152239 0.618841 -4.975778 0
M  V30 43 C 5.489251 0.546501 -5.608683 0
M  V30 44 O 3.286257 1.490352 -5.275625 0
M  V30 45 C 1.973787 -1.691445 -3.677370 0
M  V30 46 O 0.742509 -1.449564 -4.338942 0
M  V30 47 C 0.504660 -1.878365 -5.638713 0
M  V30 48 C -0.730111 -1.684933 -6.424494 0
M  V30 49 O 1.412434 -2.497340 -6.237131 0
M  V30 50 H 1.249952 -7.312940 -1.033236 0
M  V30 51 H 1.920511 -6.702551 0.581573 0
M  V30 52 H 0.302274 -6.131096 -0.060202 0
M  V30 53 H 2.685842 -4.276144 -3.434466 0
M  V30 54 H 0.964545 -4.084673 -3.974886 0
M  V30 55 H 0.645571 -2.419612 -2.130005 0
M  V30 56 H 3.236797 -1.309383 -0.052094 0
M  V30 57 H 2.599314 -0.833311 1.801516 0
M  V30 58 H 3.405047 2.086927 6.209173 0
M  V30 59 H 3.277685 0.356087 6.511904 0
M  V30 60 H 4.520586 0.896714 5.356106 0
M  V30 61 H -2.499677 0.941433 5.464690 0
M  V30 62 H -4.471298 1.376514 5.497718 0
M  V30 63 H -6.813294 1.887202 5.518896 0
M  V30 64 H -11.013590 0.392461 5.143680 0
M  V30 65 H -11.310981 0.010918 3.426872 0
M  V30 66 H -11.400824 1.706392 3.971700 0
M  V30 67 H -7.069232 1.172162 1.352701 0
M  V30 68 H -4.685170 0.650843 1.330276 0
M  V30 69 H -1.228392 -0.328303 0.053787 0
M  V30 70 H 2.541438 0.703477 -1.534519 0
M  V30 71 H 6.571514 1.006952 0.017553 0
M  V30 72 H 6.513923 2.572821 -0.844126 0
M  V30 73 H 6.928180 1.029652 -1.716123 0
M  V30 74 H 2.075804 0.406738 -3.712859 0
M  V30 75 H 5.541993 -0.251623 -6.396082 0
M  V30 76 H 6.288427 0.359489 -4.842558 0
M  V30 77 H 5.777958 1.492093 -6.096697 0
M  V30 78 H 2.586562 -2.257529 -4.438711 0
M  V30 79 H -1.309428 -0.842528 -6.028944 0
M  V30 80 H -0.483848 -1.500790 -7.494738 0
M  V30 81 H -1.314973 -2.626615 -6.336858 0
M  V30 END ATOM
M  V30 BEGIN BOND
M  V30 1 1 1 2
M  V30 2 2 2 3
M  V30 3 1 2 4
M  V30 4 1 4 5
M  V30 5 1 5 6
M  V30 6 1 6 7
M  V30 7 1 7 8
M  V30 8 1 8 9
M  V30 9 1 9 10
M  V30 10 2 10 11
M  V30 11 1 11 12
M  V30 12 1 12 13
M  V30 13 1 13 14
M  V30 14 1 14 15
M  V30 15 2 14 16
M  V30 16 2 12 17
M  V30 17 1 17 18
M  V30 18 2 18 19
M  V30 19 1 18 20
M  V30 20 2 20 21
M  V30 21 1 21 22
M  V30 22 2 22 23
M  V30 23 1 23 24
M  V30 24 2 24 25
M  V30 25 1 25 26
M  V30 26 1 26 27
M  V30 27 1 27 28
M  V30 28 2 27 29
M  V30 29 1 25 30
M  V30 30 2 30 31
M  V30 31 1 21 32
M  V30 32 1 32 33
M  V30 33 2 33 34
M  V30 34 1 8 35
M  V30 35 1 35 36
M  V30 36 1 36 37
M  V30 37 1 37 38
M  V30 38 2 37 39
M  V30 39 1 35 40
M  V30 40 1 40 41
M  V30 41 1 41 42
M  V30 42 1 42 43
M  V30 43 2 42 44
M  V30 44 1 40 45
M  V30 45 1 45 46
M  V30 46 1 46 47
M  V30 47 1 47 48
M  V30 48 2 47 49
M  V30 49 1 45 6
M  V30 50 1 34 10
M  V30 51 1 33 17
M  V30 52 1 31 22
M  V30 53 1 1 50
M  V30 54 1 1 51
M  V30 55 1 1 52
M  V30 56 1 5 53
M  V30 57 1 5 54
M  V30 58 1 6 55
M  V30 59 1 8 56
M  V30 60 1 11 57
M  V30 61 1 15 58
M  V30 62 1 15 59
M  V30 63 1 15 60
M  V30 64 1 20 61
M  V30 65 1 23 62
M  V30 66 1 24 63
M  V30 67 1 28 64
M  V30 68 1 28 65
M  V30 69 1 28 66
M  V30 70 1 30 67
M  V30 71 1 31 68
M  V30 72 1 34 69
M  V30 73 1 35 70 CFG=1
M  V30 74 1 38 71
M  V30 75 1 38 72
M  V30 76 1 38 73
M  V30 77 1 40 74
M  V30 78 1 43 75
M  V30 79 1 43 76
M  V30 80 1 43 77
M  V30 81 1 45 78
M  V30 82 1 48 79
M  V30 83 1 48 80
M  V30 84 1 48 81
M  V30 END BOND
M  V30 END CTAB
M  END
>  <Dataset>  (234) 
ChEMBL_Kinases

>  <Ligand_Instance>  (234) 
nan

>  <PDB_ID>  (234) 
nan

>  <Standardized_SMILES>  (234) 
CC(=O)OCC1OC(Oc2cc(OC(C)=O)c3c(=O)cc(-c4ccc(OC(C)=O)cc4)oc3c2)[C@@H](OC(C)=O)C(OC(C)=O)C1OC(C)=O

>  <Name>  (234) 
nan

>  <Pocket>  (234) 
nan

>  <ATP_Site>  (234) 
nan

>  <Peripheral>  (234) 
nan

>  <Num_H_Atoms_ProtBoundConf>  (234) 
nan

>  <Num_Resolved_Atoms>  (234) 
nan

>  <Num_Not_Resolved_Atoms>  (234) 
nan

$$$$
CHEMBL1356041
     RDKit          3D

  0  0  0  0  0  0  0  0  0  0999 V3000
M  V30 BEGIN CTAB
M  V30 COUNTS 62 66 0 0 0
M  V30 BEGIN ATOM
M  V30 1 C 2.689955 0.843209 7.325026 0
M  V30 2 O 2.072048 1.571024 6.287478 0
M  V30 3 C 2.460185 1.388040 4.978092 0
M  V30 4 C 3.446194 0.521304 4.522294 0
M  V30 5 C 3.767102 0.405354 3.190736 0
M  V30 6 C 3.086604 1.174622 2.288357 0
M  V30 7 N 3.226961 1.231110 0.957280 0
M  V30 8 C 2.330020 2.139149 0.531379 0
M  V30 9 C 1.597525 2.679983 1.598257 0
M  V30 10 C 0.527649 3.697906 1.476905 0
M  V30 11 C -0.851870 3.112329 1.605982 0
M  V30 12 N -1.136060 2.114240 0.607065 0
M  V30 13 C -1.167711 2.452932 -0.770638 0
M  V30 14 N -0.950087 3.704798 -1.175951 0
M  V30 15 C -0.972261 4.097352 -2.451636 0
M  V30 16 N -1.226047 3.206471 -3.422492 0
M  V30 17 C -1.459184 1.917105 -3.120982 0
M  V30 18 C -1.722512 0.967839 -4.100038 0
M  V30 19 C -1.957101 -0.363604 -3.753956 0
M  V30 20 C -1.928113 -0.753471 -2.407190 0
M  V30 21 C -2.166478 -2.141351 -2.019956 0
M  V30 22 C -3.003388 -2.998775 -2.702543 0
M  V30 23 C -3.161494 -4.300025 -2.257788 0
M  V30 24 C -2.475249 -4.715242 -1.135065 0
M  V30 25 C -2.583563 -6.067672 -0.599785 0
M  V30 26 O -3.791405 -6.246646 -0.277199 0
M  V30 27 N -1.487628 -6.968386 -0.489323 0
M  V30 28 C -0.100699 -6.690405 -0.885711 0
M  V30 29 C -1.752029 -8.277466 0.059643 0
M  V30 30 C -1.632010 -3.864935 -0.440775 0
M  V30 31 C -1.463226 -2.548375 -0.878754 0
M  V30 32 C -1.661218 0.241480 -1.488811 0
M  V30 33 C -1.425168 1.563147 -1.790673 0
M  V30 34 C 2.101076 2.048116 2.695002 0
M  V30 35 C 1.794615 2.149111 4.034649 0
M  V30 36 H 2.918250 -0.209873 7.049314 0
M  V30 37 H 3.631199 1.362293 7.581968 0
M  V30 38 H 2.007134 0.787775 8.214850 0
M  V30 39 H 3.941327 -0.052471 5.277941 0
M  V30 40 H 4.553719 -0.293962 2.897794 0
M  V30 41 H 3.852329 0.733482 0.288030 0
M  V30 42 H 2.154025 2.451784 -0.499861 0
M  V30 43 H 0.654916 4.482394 2.236868 0
M  V30 44 H 0.640592 4.194019 0.498436 0
M  V30 45 H -1.556851 3.964128 1.360207 0
M  V30 46 H -1.137048 2.833768 2.635551 0
M  V30 47 H -1.301793 1.175919 1.022678 0
M  V30 48 H -0.774991 5.149037 -2.591271 0
M  V30 49 H -1.746607 1.272174 -5.153461 0
M  V30 50 H -2.164295 -1.122211 -4.504025 0
M  V30 51 H -3.521562 -2.633218 -3.574635 0
M  V30 52 H -3.809503 -5.002826 -2.765134 0
M  V30 53 H 0.466996 -6.537275 0.057096 0
M  V30 54 H -0.017780 -5.797651 -1.518747 0
M  V30 55 H 0.307298 -7.602344 -1.349113 0
M  V30 56 H -1.928885 -9.019848 -0.769132 0
M  V30 57 H -2.635444 -8.231360 0.711121 0
M  V30 58 H -0.840376 -8.619187 0.603510 0
M  V30 59 H -1.093580 -4.201222 0.447325 0
M  V30 60 H -0.795289 -1.938403 -0.297039 0
M  V30 61 H -1.649679 -0.098727 -0.483934 0
M  V30 62 H 1.019282 2.841294 4.318490 0
M  V30 END ATOM
M  V30 BEGIN BOND
M  V30 1 1 1 2
M  V30 2 1 2 3
M  V30 3 2 3 4
M  V30 4 1 4 5
M  V30 5 2 5 6
M  V30 6 1 6 7
M  V30 7 1 7 8
M  V30 8 2 8 9
M  V30 9 1 9 10
M  V30 10 1 10 11
M  V30 11 1 11 12
M  V30 12 1 12 13
M  V30 13 2 13 14
M  V30 14 1 14 15
M  V30 15 2 15 16
M  V30 16 1 16 17
M  V30 17 2 17 18
M  V30 18 1 18 19
M  V30 19 2 19 20
M  V30 20 1 20 21
M  V30 21 2 21 22
M  V30 22 1 22 23
M  V30 23 2 23 24
M  V30 24 1 24 25
M  V30 25 2 25 26
M  V30 26 1 25 27
M  V30 27 1 27 28
M  V30 28 1 27 29
M  V30 29 1 24 30
M  V30 30 2 30 31
M  V30 31 1 20 32
M  V30 32 2 32 33
M  V30 33 1 9 34
M  V30 34 2 34 35
M  V30 35 1 35 3
M  V30 36 1 34 6
M  V30 37 1 33 13
M  V30 38 1 33 17
M  V30 39 1 31 21
M  V30 40 1 1 36
M  V30 41 1 1 37
M  V30 42 1 1 38
M  V30 43 1 4 39
M  V30 44 1 5 40
M  V30 45 1 7 41
M  V30 46 1 8 42
M  V30 47 1 10 43
M  V30 48 1 10 44
M  V30 49 1 11 45
M  V30 50 1 11 46
M  V30 51 1 12 47
M  V30 52 1 15 48
M  V30 53 1 18 49
M  V30 54 1 19 50
M  V30 55 1 22 51
M  V30 56 1 23 52
M  V30 57 1 28 53
M  V30 58 1 28 54
M  V30 59 1 28 55
M  V30 60 1 29 56
M  V30 61 1 29 57
M  V30 62 1 29 58
M  V30 63 1 30 59
M  V30 64 1 31 60
M  V30 65 1 32 61
M  V30 66 1 35 62
M  V30 END BOND
M  V30 END CTAB
M  END
>  <Dataset>  (235) 
ChEMBL_Kinases

>  <Ligand_Instance>  (235) 
nan

>  <PDB_ID>  (235) 
nan

>  <Standardized_SMILES>  (235) 
COc1ccc2[nH]cc(CCNc3ncnc4ccc(-c5ccc(C(=O)N(C)C)cc5)cc34)c2c1

>  <Name>  (235) 
nan

>  <Pocket>  (235) 
nan

>  <ATP_Site>  (235) 
nan

>  <Peripheral>  (235) 
nan

>  <Num_H_Atoms_ProtBoundConf>  (235) 
nan

>  <Num_Resolved_Atoms>  (235) 
nan

>  <Num_Not_Resolved_Atoms>  (235) 
nan

$$$$
CHEMBL1355974
     RDKit          3D

  0  0  0  0  0  0  0  0  0  0999 V3000
M  V30 BEGIN CTAB
M  V30 COUNTS 44 47 0 0 0
M  V30 BEGIN ATOM
M  V30 1 C 0.951026 -6.051876 -1.194130 0
M  V30 2 C 0.750855 -4.976589 -0.179769 0
M  V30 3 C 0.680565 -5.082661 1.199122 0
M  V30 4 C 0.490849 -3.970085 1.964717 0
M  V30 5 C 0.370800 -2.744083 1.347713 0
M  V30 6 C 0.434577 -2.589183 -0.028302 0
M  V30 7 C 0.294491 -1.240668 -0.577515 0
M  V30 8 C -0.280866 -1.074867 -1.824564 0
M  V30 9 C -0.404653 0.219514 -2.330297 0
M  V30 10 C 0.038087 1.313737 -1.601093 0
M  V30 11 N -0.052502 2.583750 -2.032245 0
M  V30 12 C 0.389557 3.619708 -1.293489 0
M  V30 13 N 0.948588 3.399516 -0.070627 0
M  V30 14 C 1.059311 2.126398 0.403583 0
M  V30 15 N 1.663297 2.052273 1.693141 0
M  V30 16 C 2.881179 1.348147 2.030128 0
M  V30 17 C 0.974691 2.754824 2.745912 0
M  V30 18 C -0.420248 2.234997 2.938528 0
M  V30 19 C -1.639957 2.574150 2.393874 0
M  V30 20 C -2.584488 1.731072 2.965660 0
M  V30 21 C -1.878050 0.908303 3.843908 0
M  V30 22 O -0.623333 1.243879 3.789163 0
M  V30 23 C 0.601336 1.073020 -0.365446 0
M  V30 24 C 0.754153 -0.180695 0.193987 0
M  V30 25 C 0.625573 -3.718916 -0.780007 0
M  V30 26 H 0.066250 -6.008701 -1.869253 0
M  V30 27 H 1.805700 -5.718680 -1.838839 0
M  V30 28 H 1.105856 -7.028134 -0.731218 0
M  V30 29 H 0.789995 -6.096302 1.544571 0
M  V30 30 H 0.444211 -4.114896 3.041481 0
M  V30 31 H 0.222317 -1.909644 2.029501 0
M  V30 32 H -0.631086 -1.930951 -2.402473 0
M  V30 33 H -0.849524 0.389975 -3.303020 0
M  V30 34 H 0.320872 4.644778 -1.632165 0
M  V30 35 H 2.662060 0.599596 2.820926 0
M  V30 36 H 3.357783 0.850640 1.185613 0
M  V30 37 H 3.549480 2.115140 2.510688 0
M  V30 38 H 0.864142 3.825704 2.457951 0
M  V30 39 H 1.538402 2.749741 3.693369 0
M  V30 40 H -1.722396 3.360235 1.670998 0
M  V30 41 H -3.646899 1.772353 2.719615 0
M  V30 42 H -2.370562 0.141931 4.435754 0
M  V30 43 H 1.199728 -0.340026 1.166107 0
M  V30 44 H 0.666721 -3.527245 -1.853972 0
M  V30 END ATOM
M  V30 BEGIN BOND
M  V30 1 1 1 2
M  V30 2 2 2 3
M  V30 3 1 3 4
M  V30 4 2 4 5
M  V30 5 1 5 6
M  V30 6 1 6 7
M  V30 7 2 7 8
M  V30 8 1 8 9
M  V30 9 2 9 10
M  V30 10 1 10 11
M  V30 11 2 11 12
M  V30 12 1 12 13
M  V30 13 2 13 14
M  V30 14 1 14 15
M  V30 15 1 15 16
M  V30 16 1 15 17
M  V30 17 1 17 18
M  V30 18 2 18 19
M  V30 19 1 19 20
M  V30 20 2 20 21
M  V30 21 1 21 22
M  V30 22 1 14 23
M  V30 23 2 23 24
M  V30 24 2 6 25
M  V30 25 1 25 2
M  V30 26 1 24 7
M  V30 27 1 23 10
M  V30 28 1 22 18
M  V30 29 1 1 26
M  V30 30 1 1 27
M  V30 31 1 1 28
M  V30 32 1 3 29
M  V30 33 1 4 30
M  V30 34 1 5 31
M  V30 35 1 8 32
M  V30 36 1 9 33
M  V30 37 1 12 34
M  V30 38 1 16 35
M  V30 39 1 16 36
M  V30 40 1 16 37
M  V30 41 1 17 38
M  V30 42 1 17 39
M  V30 43 1 19 40
M  V30 44 1 20 41
M  V30 45 1 21 42
M  V30 46 1 24 43
M  V30 47 1 25 44
M  V30 END BOND
M  V30 END CTAB
M  END
>  <Dataset>  (236) 
ChEMBL_Kinases

>  <Ligand_Instance>  (236) 
nan

>  <PDB_ID>  (236) 
nan

>  <Standardized_SMILES>  (236) 
Cc1cccc(-c2ccc3ncnc(N(C)Cc4ccco4)c3c2)c1

>  <Name>  (236) 
nan

>  <Pocket>  (236) 
nan

>  <ATP_Site>  (236) 
nan

>  <Peripheral>  (236) 
nan

>  <Num_H_Atoms_ProtBoundConf>  (236) 
nan

>  <Num_Resolved_Atoms>  (236) 
nan

>  <Num_Not_Resolved_Atoms>  (236) 
nan

$$$$
CHEMBL1355970
     RDKit          3D

  0  0  0  0  0  0  0  0  0  0999 V3000
M  V30 BEGIN CTAB
M  V30 COUNTS 52 56 0 0 0
M  V30 BEGIN ATOM
M  V30 1 C 1.476254 -4.558644 4.221966 0
M  V30 2 N 1.367346 -5.329405 2.994535 0
M  V30 3 C 2.610708 -5.343614 2.255213 0
M  V30 4 C 2.851930 -4.040750 1.530071 0
M  V30 5 N 1.612298 -3.449745 1.061230 0
M  V30 6 C 1.484847 -2.052165 0.826290 0
M  V30 7 N 2.563106 -1.278406 1.049713 0
M  V30 8 C 2.510137 0.073959 0.845164 0
M  V30 9 C 1.299895 0.568875 0.404487 0
M  V30 10 N 1.162796 1.892111 0.178368 0
M  V30 11 C 0.015747 2.452974 -0.251792 0
M  V30 12 C 0.051330 3.903431 -0.442560 0
M  V30 13 C 1.114132 4.540916 -1.089042 0
M  V30 14 C 1.014845 5.928649 -1.199975 0
M  V30 15 F 2.088855 6.482850 -1.842659 0
M  V30 16 C -0.057882 6.655619 -0.709672 0
M  V30 17 C -1.092772 5.991109 -0.074952 0
M  V30 18 F -2.093166 6.789552 0.368132 0
M  V30 19 C -1.019941 4.620528 0.048118 0
M  V30 20 C -1.087427 1.651040 -0.479089 0
M  V30 21 O -2.141781 2.211493 -0.880745 0
M  V30 22 N -0.993253 0.322794 -0.265583 0
M  V30 23 C -2.111186 -0.484965 -0.497127 0
M  V30 24 C -2.981069 -0.689706 0.559097 0
M  V30 25 C -4.099829 -1.497413 0.325651 0
M  V30 26 C -4.331676 -2.076029 -0.925261 0
M  V30 27 C -3.412022 -1.820163 -1.926720 0
M  V30 28 C -2.281107 -1.025628 -1.754836 0
M  V30 29 C 0.165103 -0.209799 0.164272 0
M  V30 30 N 0.314335 -1.543980 0.395941 0
M  V30 31 C 0.551939 -4.418795 0.866645 0
M  V30 32 C 0.214847 -4.987434 2.224886 0
M  V30 33 H 0.684033 -3.792204 4.304739 0
M  V30 34 H 1.338689 -5.272269 5.059137 0
M  V30 35 H 2.477874 -4.117975 4.343092 0
M  V30 36 H 2.665215 -6.205905 1.572794 0
M  V30 37 H 3.431994 -5.469923 2.988360 0
M  V30 38 H 3.547850 -4.243992 0.690668 0
M  V30 39 H 3.375458 -3.361319 2.233983 0
M  V30 40 H 3.352058 0.727449 1.012673 0
M  V30 41 H 1.919014 3.951308 -1.451558 0
M  V30 42 H 0.002653 7.743229 -0.871046 0
M  V30 43 H -1.869981 4.151939 0.560297 0
M  V30 44 H -2.815423 -0.249244 1.532070 0
M  V30 45 H -4.825762 -1.703945 1.102000 0
M  V30 46 H -5.197498 -2.700534 -1.104938 0
M  V30 47 H -3.552163 -2.247815 -2.910561 0
M  V30 48 H -1.583982 -0.848523 -2.562712 0
M  V30 49 H 0.866616 -5.257221 0.216474 0
M  V30 50 H -0.374846 -3.964439 0.461816 0
M  V30 51 H -0.339493 -5.951862 2.036588 0
M  V30 52 H -0.505303 -4.362552 2.790050 0
M  V30 END ATOM
M  V30 BEGIN BOND
M  V30 1 1 1 2
M  V30 2 1 2 3
M  V30 3 1 3 4
M  V30 4 1 4 5
M  V30 5 1 5 6
M  V30 6 2 6 7
M  V30 7 1 7 8
M  V30 8 2 8 9
M  V30 9 1 9 10
M  V30 10 2 10 11
M  V30 11 1 11 12
M  V30 12 2 12 13
M  V30 13 1 13 14
M  V30 14 1 14 15
M  V30 15 2 14 16
M  V30 16 1 16 17
M  V30 17 1 17 18
M  V30 18 2 17 19
M  V30 19 1 11 20
M  V30 20 2 20 21
M  V30 21 1 20 22
M  V30 22 1 22 23
M  V30 23 2 23 24
M  V30 24 1 24 25
M  V30 25 2 25 26
M  V30 26 1 26 27
M  V30 27 2 27 28
M  V30 28 1 22 29
M  V30 29 2 29 30
M  V30 30 1 5 31
M  V30 31 1 31 32
M  V30 32 1 32 2
M  V30 33 1 30 6
M  V30 34 1 29 9
M  V30 35 1 19 12
M  V30 36 1 28 23
M  V30 37 1 1 33
M  V30 38 1 1 34
M  V30 39 1 1 35
M  V30 40 1 3 36
M  V30 41 1 3 37
M  V30 42 1 4 38
M  V30 43 1 4 39
M  V30 44 1 8 40
M  V30 45 1 13 41
M  V30 46 1 16 42
M  V30 47 1 19 43
M  V30 48 1 24 44
M  V30 49 1 25 45
M  V30 50 1 26 46
M  V30 51 1 27 47
M  V30 52 1 28 48
M  V30 53 1 31 49
M  V30 54 1 31 50
M  V30 55 1 32 51
M  V30 56 1 32 52
M  V30 END BOND
M  V30 END CTAB
M  END
>  <Dataset>  (237) 
ChEMBL_Kinases

>  <Ligand_Instance>  (237) 
nan

>  <PDB_ID>  (237) 
nan

>  <Standardized_SMILES>  (237) 
CN1CCN(c2ncc3nc(-c4cc(F)cc(F)c4)c(=O)n(-c4ccccc4)c3n2)CC1

>  <Name>  (237) 
nan

>  <Pocket>  (237) 
nan

>  <ATP_Site>  (237) 
nan

>  <Peripheral>  (237) 
nan

>  <Num_H_Atoms_ProtBoundConf>  (237) 
nan

>  <Num_Resolved_Atoms>  (237) 
nan

>  <Num_Not_Resolved_Atoms>  (237) 
nan

$$$$
CHEMBL1355881
     RDKit          3D

  0  0  0  0  0  0  0  0  0  0999 V3000
M  V30 BEGIN CTAB
M  V30 COUNTS 41 43 0 0 0
M  V30 BEGIN ATOM
M  V30 1 C -0.444357 -5.164164 1.401452 0
M  V30 2 N -0.790163 -4.503061 2.657572 0
M  V30 3 C -0.596366 -3.106619 2.819897 0
M  V30 4 N -0.064644 -2.382257 1.807043 0
M  V30 5 C 0.176238 -1.067550 1.867060 0
M  V30 6 C 0.737120 -0.363366 0.691004 0
M  V30 7 C 1.158036 0.941982 0.819535 0
M  V30 8 C 1.705997 1.564064 -0.277057 0
M  V30 9 C 1.830979 0.901151 -1.480549 0
M  V30 10 C 2.349472 1.346300 -2.753679 0
M  V30 11 O 3.222290 0.954467 -3.572047 0
M  V30 12 N 1.800288 2.540266 -3.345631 0
M  V30 13 C 2.193753 3.107234 -4.619899 0
M  V30 14 C 0.761410 3.245007 -2.602595 0
M  V30 15 C 1.394668 -0.425985 -1.583424 0
M  V30 16 C 0.838871 -1.076873 -0.486573 0
M  V30 17 N -0.119686 -0.372770 3.003759 0
M  V30 18 C -0.658470 -1.022666 4.068455 0
M  V30 19 C -0.979721 -0.344322 5.234877 0
M  V30 20 C -1.539285 -1.041182 6.309436 0
M  V30 21 C -1.755038 -2.386442 6.172975 0
M  V30 22 C -1.431050 -3.045153 5.007223 0
M  V30 23 C -0.880685 -2.369212 3.945891 0
M  V30 24 H -0.809841 -4.561803 0.560380 0
M  V30 25 H -0.921880 -6.179347 1.343697 0
M  V30 26 H 0.655965 -5.318458 1.375544 0
M  V30 27 H -1.165919 -5.131980 3.389773 0
M  V30 28 H 1.091054 1.516167 1.739699 0
M  V30 29 H 2.086067 2.574102 -0.316635 0
M  V30 30 H 3.083934 3.762208 -4.570796 0
M  V30 31 H 2.415119 2.319066 -5.391394 0
M  V30 32 H 1.307913 3.696789 -5.018058 0
M  V30 33 H -0.011598 3.698941 -3.254122 0
M  V30 34 H 0.218484 2.494742 -1.995427 0
M  V30 35 H 1.205922 4.043540 -1.966072 0
M  V30 36 H 1.425452 -1.071870 -2.469484 0
M  V30 37 H 0.481979 -2.095373 -0.511184 0
M  V30 38 H -0.788452 0.729932 5.289297 0
M  V30 39 H -1.799329 -0.530734 7.221380 0
M  V30 40 H -2.193033 -2.891091 7.029657 0
M  V30 41 H -1.638661 -4.079732 5.014099 0
M  V30 END ATOM
M  V30 BEGIN BOND
M  V30 1 1 1 2
M  V30 2 1 2 3
M  V30 3 2 3 4
M  V30 4 1 4 5
M  V30 5 1 5 6
M  V30 6 2 6 7
M  V30 7 1 7 8
M  V30 8 2 8 9
M  V30 9 1 9 10
M  V30 10 2 10 11
M  V30 11 1 10 12
M  V30 12 1 12 13
M  V30 13 1 12 14
M  V30 14 1 9 15
M  V30 15 2 15 16
M  V30 16 2 5 17
M  V30 17 1 17 18
M  V30 18 2 18 19
M  V30 19 1 19 20
M  V30 20 2 20 21
M  V30 21 1 21 22
M  V30 22 2 22 23
M  V30 23 1 23 3
M  V30 24 1 16 6
M  V30 25 1 23 18
M  V30 26 1 1 24
M  V30 27 1 1 25
M  V30 28 1 1 26
M  V30 29 1 2 27
M  V30 30 1 7 28
M  V30 31 1 8 29
M  V30 32 1 13 30
M  V30 33 1 13 31
M  V30 34 1 13 32
M  V30 35 1 14 33
M  V30 36 1 14 34
M  V30 37 1 14 35
M  V30 38 1 15 36
M  V30 39 1 16 37
M  V30 40 1 19 38
M  V30 41 1 20 39
M  V30 42 1 21 40
M  V30 43 1 22 41
M  V30 END BOND
M  V30 END CTAB
M  END
>  <Dataset>  (238) 
ChEMBL_Kinases

>  <Ligand_Instance>  (238) 
nan

>  <PDB_ID>  (238) 
nan

>  <Standardized_SMILES>  (238) 
CNc1nc(-c2ccc(C(=O)N(C)C)cc2)nc2ccccc12

>  <Name>  (238) 
nan

>  <Pocket>  (238) 
nan

>  <ATP_Site>  (238) 
nan

>  <Peripheral>  (238) 
nan

>  <Num_H_Atoms_ProtBoundConf>  (238) 
nan

>  <Num_Resolved_Atoms>  (238) 
nan

>  <Num_Not_Resolved_Atoms>  (238) 
nan

$$$$
CHEMBL1355783
     RDKit          3D

  0  0  0  0  0  0  0  0  0  0999 V3000
M  V30 BEGIN CTAB
M  V30 COUNTS 48 53 0 0 0
M  V30 BEGIN ATOM
M  V30 1 O -0.452289 -4.210024 -1.368601 0
M  V30 2 C 0.028934 -3.138525 -0.915885 0
M  V30 3 C 0.254416 -2.102545 -1.906939 0
M  V30 4 C 0.049170 -2.163693 -3.263209 0
M  V30 5 C 0.348281 -1.111422 -4.102555 0
M  V30 6 C 0.875449 0.040702 -3.529071 0
M  V30 7 C 1.091219 0.122167 -2.147623 0
M  V30 8 C 0.774277 -0.968821 -1.320369 0
M  V30 9 C 1.099320 -0.546691 0.090015 0 CFG=1
M  V30 10 C 0.280838 0.686420 0.490693 0 CFG=2
M  V30 11 C 0.771098 1.224506 1.811484 0
M  V30 12 C 2.124373 1.582060 1.681200 0
M  V30 13 C 2.839740 2.091183 2.746213 0
M  V30 14 C 2.236809 2.262632 3.975347 0
M  V30 15 C 0.909016 1.910188 4.094238 0
M  V30 16 C 0.187925 1.405520 3.048586 0
M  V30 17 C -1.216563 1.031447 3.029329 0
M  V30 18 O -1.818598 1.166162 4.136078 0
M  V30 19 C -1.863091 0.541410 1.819552 0
M  V30 20 C -3.206065 0.286710 1.995044 0
M  V30 21 C -3.963940 -0.135220 0.926541 0
M  V30 22 Br -5.822224 -0.498475 1.128049 0
M  V30 23 C -3.350595 -0.290771 -0.297109 0
M  V30 24 C -2.015661 -0.016947 -0.382976 0
M  V30 25 C -1.170854 0.404587 0.611729 0
M  V30 26 C 0.882259 -1.710274 0.947474 0
M  V30 27 C 1.149256 -1.794230 2.291679 0
M  V30 28 C 0.946140 -2.867974 3.128750 0
M  V30 29 C 0.415404 -4.018888 2.605696 0
M  V30 30 Br 0.104724 -5.543986 3.702376 0
M  V30 31 C 0.113239 -4.038894 1.262072 0
M  V30 32 C 0.347097 -2.920839 0.489620 0
M  V30 33 H -0.361912 -3.111298 -3.567348 0
M  V30 34 H 0.160816 -1.228792 -5.160799 0
M  V30 35 H 1.075487 0.803669 -4.269040 0
M  V30 36 H 1.504639 1.099761 -1.940342 0
M  V30 37 H 2.165064 -0.279125 0.144569 0
M  V30 38 H 0.485220 1.489034 -0.246288 0
M  V30 39 H 2.783801 1.528522 0.800933 0
M  V30 40 H 3.878255 2.392286 2.741215 0
M  V30 41 H 2.647307 2.640045 4.890293 0
M  V30 42 H 0.307593 1.990676 4.999111 0
M  V30 43 H -3.729408 0.394663 2.933372 0
M  V30 44 H -3.955158 -0.618404 -1.115082 0
M  V30 45 H -1.630973 -0.142722 -1.379048 0
M  V30 46 H 1.589107 -0.968435 2.813053 0
M  V30 47 H 1.177397 -2.870745 4.182805 0
M  V30 48 H -0.302314 -4.963822 0.889893 0
M  V30 END ATOM
M  V30 BEGIN BOND
M  V30 1 2 1 2
M  V30 2 1 2 3
M  V30 3 2 3 4
M  V30 4 1 4 5
M  V30 5 2 5 6
M  V30 6 1 6 7
M  V30 7 2 7 8
M  V30 8 1 8 9
M  V30 9 1 9 10
M  V30 10 1 10 11
M  V30 11 2 11 12
M  V30 12 1 12 13
M  V30 13 2 13 14
M  V30 14 1 14 15
M  V30 15 2 15 16
M  V30 16 1 16 17
M  V30 17 2 17 18
M  V30 18 1 17 19
M  V30 19 2 19 20
M  V30 20 1 20 21
M  V30 21 1 21 22
M  V30 22 2 21 23
M  V30 23 1 23 24
M  V30 24 2 24 25
M  V30 25 1 9 26
M  V30 26 2 26 27
M  V30 27 1 27 28
M  V30 28 2 28 29
M  V30 29 1 29 30
M  V30 30 1 29 31
M  V30 31 2 31 32
M  V30 32 1 32 2
M  V30 33 1 8 3
M  V30 34 1 25 10
M  V30 35 1 32 26
M  V30 36 1 16 11
M  V30 37 1 25 19
M  V30 38 1 4 33
M  V30 39 1 5 34
M  V30 40 1 6 35
M  V30 41 1 7 36
M  V30 42 1 9 37 CFG=3
M  V30 43 1 10 38 CFG=3
M  V30 44 1 12 39
M  V30 45 1 13 40
M  V30 46 1 14 41
M  V30 47 1 15 42
M  V30 48 1 20 43
M  V30 49 1 23 44
M  V30 50 1 24 45
M  V30 51 1 27 46
M  V30 52 1 28 47
M  V30 53 1 31 48
M  V30 END BOND
M  V30 END CTAB
M  END
>  <Dataset>  (239) 
ChEMBL_Kinases

>  <Ligand_Instance>  (239) 
nan

>  <PDB_ID>  (239) 
nan

>  <Standardized_SMILES>  (239) 
O=C1c2ccccc2[C@@H]([C@@H]2c3ccccc3C(=O)c3cc(Br)ccc32)c2ccc(Br)cc21

>  <Name>  (239) 
nan

>  <Pocket>  (239) 
nan

>  <ATP_Site>  (239) 
nan

>  <Peripheral>  (239) 
nan

>  <Num_H_Atoms_ProtBoundConf>  (239) 
nan

>  <Num_Resolved_Atoms>  (239) 
nan

>  <Num_Not_Resolved_Atoms>  (239) 
nan

$$$$
CHEMBL1355701
     RDKit          3D

  0  0  0  0  0  0  0  0  0  0999 V3000
M  V30 BEGIN CTAB
M  V30 COUNTS 37 39 0 0 0
M  V30 BEGIN ATOM
M  V30 1 C 0.722125 -1.197161 4.777160 0
M  V30 2 C 0.958659 -2.208737 3.700454 0
M  V30 3 N 0.813568 -3.525175 3.753012 0
M  V30 4 O 1.120382 -4.034480 2.608237 0
M  V30 5 C 1.477798 -3.138701 1.742050 0
M  V30 6 C 1.902221 -3.302899 0.328050 0
M  V30 7 C 1.389102 -1.932070 2.405516 0
M  V30 8 C 1.688705 -0.618618 1.856227 0
M  V30 9 N 2.913178 -0.081793 1.922694 0
M  V30 10 C 3.126787 1.131076 1.398861 0
M  V30 11 C 2.113443 1.837563 0.793344 0
M  V30 12 C 0.830874 1.293040 0.715218 0
M  V30 13 N -0.224907 2.007690 0.096854 0
M  V30 14 C -1.607780 1.623581 -0.092476 0
M  V30 15 C -1.637546 0.399427 -0.930647 0
M  V30 16 C -1.647133 0.728708 -2.285246 0
M  V30 17 C -1.680603 -0.255562 -3.279321 0
M  V30 18 C -1.704414 -1.574037 -2.904764 0
M  V30 19 C -1.694626 -1.874232 -1.574977 0
M  V30 20 C -1.662201 -0.925958 -0.593047 0
M  V30 21 N 0.721740 0.095474 1.259314 0
M  V30 22 H 1.388675 -0.344493 4.634828 0
M  V30 23 H -0.321955 -0.829474 4.740282 0
M  V30 24 H 0.880619 -1.648367 5.758609 0
M  V30 25 H 0.987797 -3.306093 -0.287343 0
M  V30 26 H 2.576399 -2.470684 0.052815 0
M  V30 27 H 2.395558 -4.277302 0.218894 0
M  V30 28 H 4.105231 1.596823 1.434354 0
M  V30 29 H 2.293454 2.829287 0.366440 0
M  V30 30 H 0.015381 2.969711 -0.291524 0
M  V30 31 H -2.230365 2.425125 -0.479349 0
M  V30 32 H -1.992465 1.373587 0.927045 0
M  V30 33 H -1.630778 1.733562 -2.716180 0
M  V30 34 H -1.688949 -0.042176 -4.330685 0
M  V30 35 H -1.730939 -2.427115 -3.572051 0
M  V30 36 H -1.711925 -2.901588 -1.179181 0
M  V30 37 H -1.657463 -1.084365 0.469504 0
M  V30 END ATOM
M  V30 BEGIN BOND
M  V30 1 1 1 2
M  V30 2 2 2 3
M  V30 3 1 3 4
M  V30 4 1 4 5
M  V30 5 1 5 6
M  V30 6 2 5 7
M  V30 7 1 7 8
M  V30 8 2 8 9
M  V30 9 1 9 10
M  V30 10 2 10 11
M  V30 11 1 11 12
M  V30 12 1 12 13
M  V30 13 1 13 14
M  V30 14 1 14 15
M  V30 15 2 15 16
M  V30 16 1 16 17
M  V30 17 2 17 18
M  V30 18 1 18 19
M  V30 19 2 19 20
M  V30 20 2 12 21
M  V30 21 1 7 2
M  V30 22 1 21 8
M  V30 23 1 20 15
M  V30 24 1 1 22
M  V30 25 1 1 23
M  V30 26 1 1 24
M  V30 27 1 6 25
M  V30 28 1 6 26
M  V30 29 1 6 27
M  V30 30 1 10 28
M  V30 31 1 11 29
M  V30 32 1 13 30
M  V30 33 1 14 31
M  V30 34 1 14 32
M  V30 35 1 16 33
M  V30 36 1 17 34
M  V30 37 1 18 35
M  V30 38 1 19 36
M  V30 39 1 20 37
M  V30 END BOND
M  V30 END CTAB
M  END
>  <Dataset>  (240) 
ChEMBL_Kinases

>  <Ligand_Instance>  (240) 
nan

>  <PDB_ID>  (240) 
nan

>  <Standardized_SMILES>  (240) 
Cc1noc(C)c1-c1nccc(NCc2ccccc2)n1

>  <Name>  (240) 
nan

>  <Pocket>  (240) 
nan

>  <ATP_Site>  (240) 
nan

>  <Peripheral>  (240) 
nan

>  <Num_H_Atoms_ProtBoundConf>  (240) 
nan

>  <Num_Resolved_Atoms>  (240) 
nan

>  <Num_Not_Resolved_Atoms>  (240) 
nan

$$$$
CHEMBL1355677
     RDKit          3D

  0  0  0  0  0  0  0  0  0  0999 V3000
M  V30 BEGIN CTAB
M  V30 COUNTS 38 40 0 0 0
M  V30 BEGIN ATOM
M  V30 1 C -0.541858 -4.513234 1.362104 0
M  V30 2 C 0.443768 -3.578944 1.753001 0
M  V30 3 O 0.512068 -2.685878 2.723746 0
M  V30 4 N 1.706518 -3.365934 1.225087 0
M  V30 5 C 3.023619 -3.084812 0.742269 0
M  V30 6 C 3.045476 -1.400235 0.622174 0
M  V30 7 N 1.855897 -1.093667 -0.002987 0
M  V30 8 C 1.531314 0.227590 -0.221170 0
M  V30 9 N 2.661605 0.460103 -1.067289 0
M  V30 10 C 2.761004 1.595484 -1.828945 0
M  V30 11 N 1.836073 2.647828 -1.870731 0
M  V30 12 C 0.744942 2.505561 -1.033392 0
M  V30 13 C -0.356046 3.286087 -0.769747 0
M  V30 14 C -1.367687 3.009322 0.084539 0
M  V30 15 C -1.344836 1.823440 0.802905 0
M  V30 16 C -2.276168 1.077855 1.709141 0
M  V30 17 C -2.490370 -0.133937 2.269870 0
M  V30 18 C -3.611647 -0.362274 2.945649 0
M  V30 19 O -4.139454 0.757279 2.819871 0
M  V30 20 C -3.452629 1.656272 2.129256 0
M  V30 21 C -0.190578 1.037065 0.512448 0
M  V30 22 C 0.871157 1.348142 -0.447450 0
M  V30 23 H -0.723680 -4.522281 0.285392 0
M  V30 24 H -1.532028 -4.306100 1.847416 0
M  V30 25 H -0.288525 -5.585889 1.651590 0
M  V30 26 H 1.705731 -4.121106 0.478707 0
M  V30 27 H 3.349570 -3.390227 -0.282032 0
M  V30 28 H 3.848860 -3.293704 1.438273 0
M  V30 29 H 3.065378 -1.143814 1.684675 0
M  V30 30 H 4.017787 -1.137627 0.048763 0
M  V30 31 H 1.032203 -1.607572 -0.428134 0
M  V30 32 H 3.610070 1.810980 -2.536816 0
M  V30 33 H -0.336594 4.192440 -1.330550 0
M  V30 34 H -2.254706 3.589732 0.257580 0
M  V30 35 H -1.574217 -0.757613 2.013537 0
M  V30 36 H -3.429220 -1.425713 3.232939 0
M  V30 37 H -4.022271 2.544706 2.129558 0
M  V30 38 H -0.215806 0.119540 1.130931 0
M  V30 END ATOM
M  V30 BEGIN BOND
M  V30 1 1 1 2
M  V30 2 2 2 3
M  V30 3 1 2 4
M  V30 4 1 4 5
M  V30 5 1 5 6
M  V30 6 1 6 7
M  V30 7 1 7 8
M  V30 8 2 8 9
M  V30 9 1 9 10
M  V30 10 2 10 11
M  V30 11 1 11 12
M  V30 12 2 12 13
M  V30 13 1 13 14
M  V30 14 2 14 15
M  V30 15 1 15 16
M  V30 16 1 16 17
M  V30 17 2 17 18
M  V30 18 1 18 19
M  V30 19 1 19 20
M  V30 20 1 15 21
M  V30 21 2 21 22
M  V30 22 1 22 8
M  V30 23 1 22 12
M  V30 24 2 20 16
M  V30 25 1 1 23
M  V30 26 1 1 24
M  V30 27 1 1 25
M  V30 28 1 4 26
M  V30 29 1 5 27
M  V30 30 1 5 28
M  V30 31 1 6 29
M  V30 32 1 6 30
M  V30 33 1 7 31
M  V30 34 1 10 32
M  V30 35 1 13 33
M  V30 36 1 14 34
M  V30 37 1 17 35
M  V30 38 1 18 36
M  V30 39 1 20 37
M  V30 40 1 21 38
M  V30 END BOND
M  V30 END CTAB
M  END
>  <Dataset>  (241) 
ChEMBL_Kinases

>  <Ligand_Instance>  (241) 
nan

>  <PDB_ID>  (241) 
nan

>  <Standardized_SMILES>  (241) 
CC(=O)NCCNc1ncnc2ccc(-c3ccoc3)cc12

>  <Name>  (241) 
nan

>  <Pocket>  (241) 
nan

>  <ATP_Site>  (241) 
nan

>  <Peripheral>  (241) 
nan

>  <Num_H_Atoms_ProtBoundConf>  (241) 
nan

>  <Num_Resolved_Atoms>  (241) 
nan

>  <Num_Not_Resolved_Atoms>  (241) 
nan

$$$$
CHEMBL1355644
     RDKit          3D

  0  0  0  0  0  0  0  0  0  0999 V3000
M  V30 BEGIN CTAB
M  V30 COUNTS 39 42 0 0 0
M  V30 BEGIN ATOM
M  V30 1 C 2.844006 -4.369510 3.081694 0
M  V30 2 C 2.294456 -5.500500 2.493779 0
M  V30 3 N 1.955210 -5.486549 1.186893 0
M  V30 4 C 2.150520 -4.369467 0.447510 0
M  V30 5 C 2.699302 -3.215213 1.001548 0
M  V30 6 C 2.931055 -1.971056 0.232135 0
M  V30 7 N 1.754405 -1.135940 0.308959 0
M  V30 8 C 1.792218 0.114791 -0.373324 0
M  V30 9 N 2.882477 0.499296 -1.058241 0
M  V30 10 C 3.015083 1.646592 -1.726004 0
M  V30 11 N 1.973557 2.503665 -1.721789 0
M  V30 12 C 0.825504 2.239431 -1.075232 0
M  V30 13 C -0.253094 3.111131 -1.063169 0
M  V30 14 C -1.423154 2.810296 -0.388026 0
M  V30 15 C -1.472221 1.605614 0.273352 0
M  V30 16 C -2.710140 1.268589 0.995636 0
M  V30 17 C -2.626849 0.478909 2.148751 0
M  V30 18 C -3.741938 0.118478 2.880995 0
M  V30 19 C -4.975959 0.577577 2.422396 0
M  V30 20 N -5.066031 1.339206 1.311889 0
M  V30 21 C -3.969262 1.690267 0.596792 0
M  V30 22 C -0.401530 0.741769 0.260511 0
M  V30 23 C 0.765671 1.034843 -0.409148 0
M  V30 24 C 3.049791 -3.220227 2.339377 0
M  V30 25 H 3.102892 -4.428598 4.143331 0
M  V30 26 H 2.102116 -6.434730 3.001199 0
M  V30 27 H 1.893501 -4.308979 -0.608688 0
M  V30 28 H 3.829496 -1.434256 0.643178 0
M  V30 29 H 3.098905 -2.174266 -0.849946 0
M  V30 30 H 0.940443 -1.482524 0.853758 0
M  V30 31 H 3.944669 1.876719 -2.258326 0
M  V30 32 H -0.119666 4.050287 -1.620512 0
M  V30 33 H -2.258680 3.515103 -0.394340 0
M  V30 34 H -1.675870 0.125507 2.501957 0
M  V30 35 H -3.623716 -0.498270 3.772687 0
M  V30 36 H -5.843498 0.282338 3.013690 0
M  V30 37 H -4.036849 2.302855 -0.297043 0
M  V30 38 H -0.545828 -0.174864 0.811075 0
M  V30 39 H 3.485970 -2.369118 2.866807 0
M  V30 END ATOM
M  V30 BEGIN BOND
M  V30 1 2 1 2
M  V30 2 1 2 3
M  V30 3 2 3 4
M  V30 4 1 4 5
M  V30 5 1 5 6
M  V30 6 1 6 7
M  V30 7 1 7 8
M  V30 8 2 8 9
M  V30 9 1 9 10
M  V30 10 2 10 11
M  V30 11 1 11 12
M  V30 12 2 12 13
M  V30 13 1 13 14
M  V30 14 2 14 15
M  V30 15 1 15 16
M  V30 16 2 16 17
M  V30 17 1 17 18
M  V30 18 2 18 19
M  V30 19 1 19 20
M  V30 20 2 20 21
M  V30 21 1 15 22
M  V30 22 2 22 23
M  V30 23 2 5 24
M  V30 24 1 24 1
M  V30 25 1 23 8
M  V30 26 1 23 12
M  V30 27 1 21 16
M  V30 28 1 1 25
M  V30 29 1 2 26
M  V30 30 1 4 27
M  V30 31 1 6 28
M  V30 32 1 6 29
M  V30 33 1 7 30
M  V30 34 1 10 31
M  V30 35 1 13 32
M  V30 36 1 14 33
M  V30 37 1 17 34
M  V30 38 1 18 35
M  V30 39 1 19 36
M  V30 40 1 21 37
M  V30 41 1 22 38
M  V30 42 1 24 39
M  V30 END BOND
M  V30 END CTAB
M  END
>  <Dataset>  (242) 
ChEMBL_Kinases

>  <Ligand_Instance>  (242) 
nan

>  <PDB_ID>  (242) 
nan

>  <Standardized_SMILES>  (242) 
c1cncc(CNc2ncnc3ccc(-c4cccnc4)cc23)c1

>  <Name>  (242) 
nan

>  <Pocket>  (242) 
nan

>  <ATP_Site>  (242) 
nan

>  <Peripheral>  (242) 
nan

>  <Num_H_Atoms_ProtBoundConf>  (242) 
nan

>  <Num_Resolved_Atoms>  (242) 
nan

>  <Num_Not_Resolved_Atoms>  (242) 
nan

$$$$
CHEMBL1353362
     RDKit          3D

  0  0  0  0  0  0  0  0  0  0999 V3000
M  V30 BEGIN CTAB
M  V30 COUNTS 36 37 0 0 0
M  V30 BEGIN ATOM
M  V30 1 C -2.572636 -5.361403 1.658812 0
M  V30 2 C -1.172819 -4.954133 1.323757 0
M  V30 3 C -0.051140 -5.575884 1.853119 0
M  V30 4 C 1.228313 -5.194570 1.539259 0
M  V30 5 C 1.430417 -4.156286 0.666643 0
M  V30 6 C 0.314316 -3.511027 0.117528 0
M  V30 7 N 0.456257 -2.407910 -0.809981 0
M  V30 8 C 0.512468 -1.117006 -0.246980 0
M  V30 9 O 0.435246 -1.034879 1.000802 0
M  V30 10 N 0.646681 0.109575 -0.924092 0
M  V30 11 C 0.711963 1.441215 -0.452909 0
M  V30 12 C 0.656781 1.877217 0.849596 0
M  V30 13 C 0.723436 3.170666 1.258460 0
M  V30 14 C 0.654226 3.538590 2.696964 0
M  V30 15 C 0.858699 4.143528 0.289167 0
M  V30 16 C 0.913899 3.704916 -1.016486 0
M  V30 17 C 1.060248 4.739714 -2.084948 0
M  V30 18 N 0.842550 2.410062 -1.356464 0
M  V30 19 C -0.969589 -3.909107 0.445473 0
M  V30 20 H -3.179954 -5.554880 0.772213 0
M  V30 21 H -3.064491 -4.589621 2.320293 0
M  V30 22 H -2.486073 -6.252640 2.331051 0
M  V30 23 H -0.197432 -6.408655 2.553097 0
M  V30 24 H 2.098903 -5.691117 1.961877 0
M  V30 25 H 2.421408 -3.785815 0.360331 0
M  V30 26 H 0.521774 -2.463777 -1.853381 0
M  V30 27 H 0.699954 -0.091611 -1.942264 0
M  V30 28 H 0.551414 1.142509 1.629887 0
M  V30 29 H 1.614767 3.427892 3.233110 0
M  V30 30 H -0.061661 2.835625 3.175044 0
M  V30 31 H 0.246158 4.563321 2.793432 0
M  V30 32 H 0.916352 5.186291 0.560063 0
M  V30 33 H 0.380133 5.603491 -1.846941 0
M  V30 34 H 2.119540 5.087870 -2.015715 0
M  V30 35 H 0.774114 4.371440 -3.074449 0
M  V30 36 H -1.820558 -3.420473 0.029614 0
M  V30 END ATOM
M  V30 BEGIN BOND
M  V30 1 1 1 2
M  V30 2 2 2 3
M  V30 3 1 3 4
M  V30 4 2 4 5
M  V30 5 1 5 6
M  V30 6 1 6 7
M  V30 7 1 7 8
M  V30 8 2 8 9
M  V30 9 1 8 10
M  V30 10 1 10 11
M  V30 11 2 11 12
M  V30 12 1 12 13
M  V30 13 1 13 14
M  V30 14 2 13 15
M  V30 15 1 15 16
M  V30 16 1 16 17
M  V30 17 2 16 18
M  V30 18 2 6 19
M  V30 19 1 19 2
M  V30 20 1 18 11
M  V30 21 1 1 20
M  V30 22 1 1 21
M  V30 23 1 1 22
M  V30 24 1 3 23
M  V30 25 1 4 24
M  V30 26 1 5 25
M  V30 27 1 7 26
M  V30 28 1 10 27
M  V30 29 1 12 28
M  V30 30 1 14 29
M  V30 31 1 14 30
M  V30 32 1 14 31
M  V30 33 1 15 32
M  V30 34 1 17 33
M  V30 35 1 17 34
M  V30 36 1 17 35
M  V30 37 1 19 36
M  V30 END BOND
M  V30 END CTAB
M  END
>  <Dataset>  (243) 
ChEMBL_Kinases

>  <Ligand_Instance>  (243) 
nan

>  <PDB_ID>  (243) 
nan

>  <Standardized_SMILES>  (243) 
Cc1cccc(NC(=O)Nc2cc(C)cc(C)n2)c1

>  <Name>  (243) 
nan

>  <Pocket>  (243) 
nan

>  <ATP_Site>  (243) 
nan

>  <Peripheral>  (243) 
nan

>  <Num_H_Atoms_ProtBoundConf>  (243) 
nan

>  <Num_Resolved_Atoms>  (243) 
nan

>  <Num_Not_Resolved_Atoms>  (243) 
nan

$$$$
CHEMBL1353439
     RDKit          3D

  0  0  0  0  0  0  0  0  0  0999 V3000
M  V30 BEGIN CTAB
M  V30 COUNTS 52 55 0 0 0
M  V30 BEGIN ATOM
M  V30 1 C 5.621166 -2.156349 -0.928434 0
M  V30 2 C 5.778038 -1.433437 0.354246 0
M  V30 3 C 6.909674 -1.582393 1.120195 0
M  V30 4 C 7.041029 -0.893288 2.326470 0
M  V30 5 C 6.004924 -0.057659 2.731255 0
M  V30 6 C 4.856304 0.116439 1.990105 0
M  V30 7 C 4.772666 -0.591155 0.796808 0
M  V30 8 N 3.564702 -0.378298 0.064846 0
M  V30 9 C 2.477560 0.462616 0.433761 0
M  V30 10 N 2.355119 1.770956 0.099519 0
M  V30 11 C 1.272963 2.485485 0.504421 0
M  V30 12 N 1.155789 3.857246 0.147526 0
M  V30 13 N 0.320323 1.890825 1.239753 0
M  V30 14 C 0.407652 0.580339 1.594972 0
M  V30 15 C -0.630055 -0.126662 2.413769 0
M  V30 16 N -1.576922 -0.681198 1.548680 0
M  V30 17 C -2.302281 0.139314 0.698498 0
M  V30 18 C -2.709056 -0.673226 -0.536118 0
M  V30 19 N -3.607015 -1.674115 0.006409 0
M  V30 20 C -5.003979 -1.759234 -0.242756 0
M  V30 21 C -5.637407 -0.855929 -1.051110 0
M  V30 22 C -7.003074 -0.948620 -1.287767 0
M  V30 23 C -7.702445 -1.988660 -0.676210 0
M  V30 24 C -7.027465 -2.879742 0.132410 0
M  V30 25 N -5.683169 -2.759498 0.343948 0
M  V30 26 C -2.922803 -2.622587 0.864365 0
M  V30 27 C -1.753809 -2.077317 1.570478 0
M  V30 28 N 1.499678 -0.106651 1.175834 0
M  V30 29 H 4.573867 -2.506632 -1.034854 0
M  V30 30 H 6.228803 -3.101352 -0.853494 0
M  V30 31 H 5.920290 -1.576373 -1.804262 0
M  V30 32 H 7.699955 -2.236893 0.784566 0
M  V30 33 H 7.922886 -0.985215 2.961499 0
M  V30 34 H 6.105953 0.470607 3.656377 0
M  V30 35 H 4.056077 0.777689 2.327756 0
M  V30 36 H 3.371157 -0.851899 -0.855928 0
M  V30 37 H 0.329894 3.899073 -0.506609 0
M  V30 38 H 1.626702 4.753173 0.342598 0
M  V30 39 H -0.086360 -0.894812 2.998775 0
M  V30 40 H -1.093898 0.553960 3.160407 0
M  V30 41 H -3.228068 0.504467 1.232227 0
M  V30 42 H -1.750324 1.047107 0.425463 0
M  V30 43 H -3.122947 -0.049548 -1.320722 0
M  V30 44 H -1.760515 -1.162700 -0.874343 0
M  V30 45 H -5.145280 -0.052983 -1.533756 0
M  V30 46 H -7.506364 -0.236811 -1.925811 0
M  V30 47 H -8.766373 -2.075156 -0.850178 0
M  V30 48 H -7.549142 -3.705644 0.625718 0
M  V30 49 H -3.658389 -3.100736 1.571415 0
M  V30 50 H -2.639536 -3.475197 0.180940 0
M  V30 51 H -0.832121 -2.563800 1.183687 0
M  V30 52 H -1.810030 -2.384069 2.656344 0
M  V30 END ATOM
M  V30 BEGIN BOND
M  V30 1 1 1 2
M  V30 2 2 2 3
M  V30 3 1 3 4
M  V30 4 2 4 5
M  V30 5 1 5 6
M  V30 6 2 6 7
M  V30 7 1 7 8
M  V30 8 1 8 9
M  V30 9 2 9 10
M  V30 10 1 10 11
M  V30 11 1 11 12
M  V30 12 2 11 13
M  V30 13 1 13 14
M  V30 14 1 14 15
M  V30 15 1 15 16
M  V30 16 1 16 17
M  V30 17 1 17 18
M  V30 18 1 18 19
M  V30 19 1 19 20
M  V30 20 2 20 21
M  V30 21 1 21 22
M  V30 22 2 22 23
M  V30 23 1 23 24
M  V30 24 2 24 25
M  V30 25 1 19 26
M  V30 26 1 26 27
M  V30 27 2 14 28
M  V30 28 1 7 2
M  V30 29 1 28 9
M  V30 30 1 27 16
M  V30 31 1 25 20
M  V30 32 1 1 29
M  V30 33 1 1 30
M  V30 34 1 1 31
M  V30 35 1 3 32
M  V30 36 1 4 33
M  V30 37 1 5 34
M  V30 38 1 6 35
M  V30 39 1 8 36
M  V30 40 1 12 37
M  V30 41 1 12 38
M  V30 42 1 15 39
M  V30 43 1 15 40
M  V30 44 1 17 41
M  V30 45 1 17 42
M  V30 46 1 18 43
M  V30 47 1 18 44
M  V30 48 1 21 45
M  V30 49 1 22 46
M  V30 50 1 23 47
M  V30 51 1 24 48
M  V30 52 1 26 49
M  V30 53 1 26 50
M  V30 54 1 27 51
M  V30 55 1 27 52
M  V30 END BOND
M  V30 END CTAB
M  END
>  <Dataset>  (244) 
ChEMBL_Kinases

>  <Ligand_Instance>  (244) 
nan

>  <PDB_ID>  (244) 
nan

>  <Standardized_SMILES>  (244) 
Cc1ccccc1Nc1nc(N)nc(CN2CCN(c3ccccn3)CC2)n1

>  <Name>  (244) 
nan

>  <Pocket>  (244) 
nan

>  <ATP_Site>  (244) 
nan

>  <Peripheral>  (244) 
nan

>  <Num_H_Atoms_ProtBoundConf>  (244) 
nan

>  <Num_Resolved_Atoms>  (244) 
nan

>  <Num_Not_Resolved_Atoms>  (244) 
nan

$$$$
CHEMBL1353604
     RDKit          3D

  0  0  0  0  0  0  0  0  0  0999 V3000
M  V30 BEGIN CTAB
M  V30 COUNTS 46 48 0 0 0
M  V30 BEGIN ATOM
M  V30 1 O -1.226500 -2.512931 2.118136 0
M  V30 2 C -1.409488 -2.542111 0.857813 0
M  V30 3 N -0.474301 -2.781961 -0.181658 0
M  V30 4 C 0.816088 -3.009621 0.366184 0
M  V30 5 C 1.098706 -4.341704 0.652331 0
M  V30 6 C 2.328027 -4.645638 1.186745 0
M  V30 7 C 3.315232 -3.732156 1.466268 0
M  V30 8 C 2.971769 -2.436761 1.160347 0
M  V30 9 C 1.770637 -2.055055 0.627089 0
M  V30 10 C 1.356506 -0.713505 0.288648 0
M  V30 11 O 0.202113 -0.554862 -0.174457 0
M  V30 12 N 1.729626 0.648416 0.248681 0
M  V30 13 C 0.786684 1.624425 -0.230651 0
M  V30 14 C 0.581407 2.804275 0.681292 0
M  V30 15 C 1.713889 3.785338 0.498078 0
M  V30 16 C 2.639048 3.546552 1.675631 0
M  V30 17 C 2.904545 2.079925 1.884035 0
M  V30 18 C 2.976914 1.290858 0.622908 0
M  V30 19 C -2.833570 -2.267137 0.699738 0
M  V30 20 C -3.281447 -1.138250 0.021007 0
M  V30 21 C -4.625737 -0.845322 -0.147349 0
M  V30 22 C -5.587782 -1.707020 0.378909 0
M  V30 23 C -5.147683 -2.826629 1.052081 0
M  V30 24 C -3.807154 -3.100638 1.209022 0
M  V30 25 Cl -3.344631 -4.561156 2.087837 0
M  V30 26 H -0.844686 -2.759475 -1.154145 0
M  V30 27 H 0.385805 -5.126831 0.466730 0
M  V30 28 H 2.521636 -5.690431 1.399532 0
M  V30 29 H 4.278835 -3.979900 1.886381 0
M  V30 30 H 3.716275 -1.703830 1.368501 0
M  V30 31 H -0.192058 1.159533 -0.380477 0
M  V30 32 H 1.133555 2.039507 -1.208587 0
M  V30 33 H 0.423204 2.531340 1.738149 0
M  V30 34 H -0.348140 3.316504 0.307877 0
M  V30 35 H 1.382330 4.848011 0.554005 0
M  V30 36 H 2.187552 3.618689 -0.474931 0
M  V30 37 H 2.094330 3.901741 2.580319 0
M  V30 38 H 3.540442 4.168964 1.595568 0
M  V30 39 H 3.889923 2.022272 2.389645 0
M  V30 40 H 2.184241 1.595212 2.567617 0
M  V30 41 H 3.748713 0.511210 0.765409 0
M  V30 42 H 3.408709 1.918903 -0.218145 0
M  V30 43 H -2.562085 -0.449574 -0.399715 0
M  V30 44 H -4.955432 0.039165 -0.678875 0
M  V30 45 H -6.643103 -1.517930 0.271659 0
M  V30 46 H -5.914647 -3.496881 1.462718 0
M  V30 END ATOM
M  V30 BEGIN BOND
M  V30 1 2 1 2
M  V30 2 1 2 3
M  V30 3 1 3 4
M  V30 4 2 4 5
M  V30 5 1 5 6
M  V30 6 2 6 7
M  V30 7 1 7 8
M  V30 8 2 8 9
M  V30 9 1 9 10
M  V30 10 2 10 11
M  V30 11 1 10 12
M  V30 12 1 12 13
M  V30 13 1 13 14
M  V30 14 1 14 15
M  V30 15 1 15 16
M  V30 16 1 16 17
M  V30 17 1 17 18
M  V30 18 1 2 19
M  V30 19 2 19 20
M  V30 20 1 20 21
M  V30 21 2 21 22
M  V30 22 1 22 23
M  V30 23 2 23 24
M  V30 24 1 24 25
M  V30 25 1 9 4
M  V30 26 1 18 12
M  V30 27 1 24 19
M  V30 28 1 3 26
M  V30 29 1 5 27
M  V30 30 1 6 28
M  V30 31 1 7 29
M  V30 32 1 8 30
M  V30 33 1 13 31
M  V30 34 1 13 32
M  V30 35 1 14 33
M  V30 36 1 14 34
M  V30 37 1 15 35
M  V30 38 1 15 36
M  V30 39 1 16 37
M  V30 40 1 16 38
M  V30 41 1 17 39
M  V30 42 1 17 40
M  V30 43 1 18 41
M  V30 44 1 18 42
M  V30 45 1 20 43
M  V30 46 1 21 44
M  V30 47 1 22 45
M  V30 48 1 23 46
M  V30 END BOND
M  V30 END CTAB
M  END
>  <Dataset>  (245) 
ChEMBL_Kinases

>  <Ligand_Instance>  (245) 
nan

>  <PDB_ID>  (245) 
nan

>  <Standardized_SMILES>  (245) 
O=C(Nc1ccccc1C(=O)N1CCCCCC1)c1ccccc1Cl

>  <Name>  (245) 
nan

>  <Pocket>  (245) 
nan

>  <ATP_Site>  (245) 
nan

>  <Peripheral>  (245) 
nan

>  <Num_H_Atoms_ProtBoundConf>  (245) 
nan

>  <Num_Resolved_Atoms>  (245) 
nan

>  <Num_Not_Resolved_Atoms>  (245) 
nan

$$$$
CHEMBL1353620
     RDKit          3D

  0  0  0  0  0  0  0  0  0  0999 V3000
M  V30 BEGIN CTAB
M  V30 COUNTS 56 59 0 0 0
M  V30 BEGIN ATOM
M  V30 1 C 0.180603 -2.272311 4.376527 0
M  V30 2 C 0.482697 -2.720521 2.970488 0
M  V30 3 C 0.277586 -1.644832 1.976848 0
M  V30 4 O 0.952345 -0.637901 2.318388 0
M  V30 5 N -0.516185 -1.619483 0.795924 0
M  V30 6 C -0.492208 -0.402647 0.047495 0
M  V30 7 C -1.327071 0.681989 0.188117 0
M  V30 8 C -1.168727 1.788980 -0.621554 0
M  V30 9 C -0.177449 1.859988 -1.599041 0
M  V30 10 S 0.032556 3.256222 -2.630018 0
M  V30 11 O 0.691159 2.737734 -3.900218 0
M  V30 12 O -1.275866 3.837844 -3.010794 0
M  V30 13 N 1.109019 4.426384 -1.972408 0
M  V30 14 C 0.629025 4.958298 -0.712665 0
M  V30 15 C 1.696539 5.590962 0.120584 0
M  V30 16 O 2.795812 4.806259 0.356042 0
M  V30 17 C 2.609230 3.587285 -0.320297 0
M  V30 18 C 2.431804 3.934696 -1.772942 0
M  V30 19 C 0.636240 0.747658 -1.703165 0
M  V30 20 C 0.525313 -0.392518 -0.918431 0
M  V30 21 N -0.285031 -3.891566 2.597910 0
M  V30 22 C -1.720447 -3.983387 2.519647 0
M  V30 23 O -2.509197 -3.085943 2.922104 0
M  V30 24 C -2.073586 -5.304149 1.890318 0
M  V30 25 C -3.212261 -5.218583 0.957822 0
M  V30 26 C -2.865538 -5.206694 -0.484737 0
M  V30 27 C -1.618775 -5.296979 -0.922779 0
M  V30 28 C -0.453757 -5.417722 -0.033449 0
M  V30 29 C -0.778471 -5.813344 1.358178 0
M  V30 30 C 0.262766 -5.175700 2.238892 0
M  V30 31 O 1.396289 -5.553414 2.653423 0
M  V30 32 H 0.792137 -1.386282 4.590163 0
M  V30 33 H -0.894800 -2.146895 4.498451 0
M  V30 34 H 0.549609 -3.083908 5.040062 0
M  V30 35 H 1.566118 -2.966000 2.936753 0
M  V30 36 H -1.016552 -2.526078 0.645601 0
M  V30 37 H -2.070093 0.590854 0.943419 0
M  V30 38 H -1.839857 2.634255 -0.492617 0
M  V30 39 H 0.001480 4.224986 -0.163188 0
M  V30 40 H -0.064085 5.801336 -1.003602 0
M  V30 41 H 2.013809 6.536571 -0.334536 0
M  V30 42 H 1.228611 5.804543 1.112044 0
M  V30 43 H 1.701445 3.136334 0.131724 0
M  V30 44 H 3.506191 2.936210 -0.186877 0
M  V30 45 H 2.716292 3.111593 -2.453462 0
M  V30 46 H 3.150355 4.764797 -2.019379 0
M  V30 47 H 1.412559 0.820821 -2.479215 0
M  V30 48 H 1.219859 -1.213285 -1.084061 0
M  V30 49 H -2.355680 -5.961714 2.753391 0
M  V30 50 H -3.887679 -6.114735 1.081365 0
M  V30 51 H -3.881647 -4.351367 1.141481 0
M  V30 52 H -3.730728 -5.116985 -1.146992 0
M  V30 53 H -1.477381 -5.278553 -1.995573 0
M  V30 54 H 0.222453 -6.203060 -0.480012 0
M  V30 55 H 0.178892 -4.487451 -0.084985 0
M  V30 56 H -0.652215 -6.908457 1.486677 0
M  V30 END ATOM
M  V30 BEGIN BOND
M  V30 1 1 1 2
M  V30 2 1 2 3
M  V30 3 2 3 4
M  V30 4 1 3 5
M  V30 5 1 5 6
M  V30 6 2 6 7
M  V30 7 1 7 8
M  V30 8 2 8 9
M  V30 9 1 9 10
M  V30 10 2 10 11
M  V30 11 2 10 12
M  V30 12 1 10 13
M  V30 13 1 13 14
M  V30 14 1 14 15
M  V30 15 1 15 16
M  V30 16 1 16 17
M  V30 17 1 17 18
M  V30 18 1 9 19
M  V30 19 2 19 20
M  V30 20 1 2 21
M  V30 21 1 21 22
M  V30 22 2 22 23
M  V30 23 1 22 24
M  V30 24 1 24 25
M  V30 25 1 25 26
M  V30 26 2 26 27
M  V30 27 1 27 28
M  V30 28 1 28 29
M  V30 29 1 29 30
M  V30 30 2 30 31
M  V30 31 1 20 6
M  V30 32 1 30 21
M  V30 33 1 18 13
M  V30 34 1 29 24
M  V30 35 1 1 32
M  V30 36 1 1 33
M  V30 37 1 1 34
M  V30 38 1 2 35
M  V30 39 1 5 36
M  V30 40 1 7 37
M  V30 41 1 8 38
M  V30 42 1 14 39
M  V30 43 1 14 40
M  V30 44 1 15 41
M  V30 45 1 15 42
M  V30 46 1 17 43
M  V30 47 1 17 44
M  V30 48 1 18 45
M  V30 49 1 18 46
M  V30 50 1 19 47
M  V30 51 1 20 48
M  V30 52 1 24 49
M  V30 53 1 25 50
M  V30 54 1 25 51
M  V30 55 1 26 52
M  V30 56 1 27 53
M  V30 57 1 28 54
M  V30 58 1 28 55
M  V30 59 1 29 56
M  V30 END BOND
M  V30 END CTAB
M  END
>  <Dataset>  (246) 
ChEMBL_Kinases

>  <Ligand_Instance>  (246) 
nan

>  <PDB_ID>  (246) 
nan

>  <Standardized_SMILES>  (246) 
CC(C(=O)Nc1ccc(S(=O)(=O)N2CCOCC2)cc1)N1C(=O)C2CC=CCC2C1=O

>  <Name>  (246) 
nan

>  <Pocket>  (246) 
nan

>  <ATP_Site>  (246) 
nan

>  <Peripheral>  (246) 
nan

>  <Num_H_Atoms_ProtBoundConf>  (246) 
nan

>  <Num_Resolved_Atoms>  (246) 
nan

>  <Num_Not_Resolved_Atoms>  (246) 
nan

$$$$
CHEMBL1353855
     RDKit          3D

  0  0  0  0  0  0  0  0  0  0999 V3000
M  V30 BEGIN CTAB
M  V30 COUNTS 58 61 0 0 0
M  V30 BEGIN ATOM
M  V30 1 O 0.416889 -1.748981 -0.380201 0
M  V30 2 C -0.074193 -1.923639 0.758186 0
M  V30 3 C -0.132868 -1.409629 2.138875 0
M  V30 4 N -0.480791 -0.037744 2.299813 0
M  V30 5 C 0.260241 1.066818 2.450403 0
M  V30 6 C 1.733706 0.995883 2.447391 0
M  V30 7 N 2.284651 1.617271 1.296675 0
M  V30 8 C 1.743277 1.375534 0.037123 0
M  V30 9 C 2.608036 0.787636 -1.022636 0
M  V30 10 C 4.026330 0.540044 -0.569356 0
M  V30 11 C 4.478126 1.803093 0.148592 0
M  V30 12 C 3.695562 1.885269 1.406267 0
M  V30 13 N -0.239663 2.317538 2.599345 0
M  V30 14 C -1.574568 2.542434 2.605026 0
M  V30 15 C -2.024467 3.835024 2.758449 0
M  V30 16 C -3.387277 4.032695 2.759997 0
M  V30 17 C -4.261239 2.947659 2.610124 0
M  V30 18 C -3.737843 1.690288 2.461588 0
M  V30 19 C -2.396773 1.419598 2.449940 0
M  V30 20 C -1.828290 0.166075 2.303345 0
M  V30 21 O -2.687066 -0.760515 2.174546 0
M  V30 22 N -0.862724 -3.118353 0.443053 0
M  V30 23 C -1.027931 -3.847841 -0.787022 0
M  V30 24 C -2.455158 -4.106480 -1.182079 0
M  V30 25 C -2.461036 -4.551031 -2.624229 0
M  V30 26 C -1.081155 -4.711235 -3.169371 0
M  V30 27 C -0.216019 -5.572237 -2.279732 0
M  V30 28 C -0.267521 -5.156862 -0.826466 0
M  V30 29 H -0.869766 -2.046631 2.704269 0
M  V30 30 H 0.839386 -1.668119 2.646385 0
M  V30 31 H 2.031431 -0.063470 2.477285 0
M  V30 32 H 2.144752 1.456293 3.395371 0
M  V30 33 H 0.829023 0.758211 0.151552 0
M  V30 34 H 1.297782 2.373400 -0.322611 0
M  V30 35 H 2.704549 1.561294 -1.848149 0
M  V30 36 H 2.219334 -0.100960 -1.538332 0
M  V30 37 H 4.692644 0.357629 -1.429058 0
M  V30 38 H 4.115554 -0.281707 0.159923 0
M  V30 39 H 4.379214 2.691778 -0.515795 0
M  V30 40 H 5.547971 1.648296 0.413124 0
M  V30 41 H 3.814002 2.852683 1.958044 0
M  V30 42 H 4.105134 1.099308 2.103002 0
M  V30 43 H -1.268495 4.608018 2.865560 0
M  V30 44 H -3.665359 5.087124 2.890561 0
M  V30 45 H -5.306013 3.180403 2.625340 0
M  V30 46 H -4.404200 0.841352 2.347592 0
M  V30 47 H -1.441950 -3.573519 1.217665 0
M  V30 48 H -0.580336 -3.185821 -1.584071 0
M  V30 49 H -3.094211 -3.200829 -1.066222 0
M  V30 50 H -2.862009 -4.935578 -0.557488 0
M  V30 51 H -3.030527 -3.869366 -3.293335 0
M  V30 52 H -2.998329 -5.535111 -2.717455 0
M  V30 53 H -0.587262 -3.783389 -3.496463 0
M  V30 54 H -1.165606 -5.313082 -4.129544 0
M  V30 55 H -0.519905 -6.629238 -2.418429 0
M  V30 56 H 0.825887 -5.496719 -2.693782 0
M  V30 57 H -0.842304 -5.914948 -0.280476 0
M  V30 58 H 0.783979 -5.033460 -0.484848 0
M  V30 END ATOM
M  V30 BEGIN BOND
M  V30 1 2 1 2
M  V30 2 1 2 3
M  V30 3 1 3 4
M  V30 4 1 4 5
M  V30 5 1 5 6
M  V30 6 1 6 7
M  V30 7 1 7 8
M  V30 8 1 8 9
M  V30 9 1 9 10
M  V30 10 1 10 11
M  V30 11 1 11 12
M  V30 12 2 5 13
M  V30 13 1 13 14
M  V30 14 2 14 15
M  V30 15 1 15 16
M  V30 16 2 16 17
M  V30 17 1 17 18
M  V30 18 2 18 19
M  V30 19 1 19 20
M  V30 20 2 20 21
M  V30 21 1 2 22
M  V30 22 1 22 23
M  V30 23 1 23 24
M  V30 24 1 24 25
M  V30 25 1 25 26
M  V30 26 1 26 27
M  V30 27 1 27 28
M  V30 28 1 20 4
M  V30 29 1 28 23
M  V30 30 1 12 7
M  V30 31 1 19 14
M  V30 32 1 3 29
M  V30 33 1 3 30
M  V30 34 1 6 31
M  V30 35 1 6 32
M  V30 36 1 8 33
M  V30 37 1 8 34
M  V30 38 1 9 35
M  V30 39 1 9 36
M  V30 40 1 10 37
M  V30 41 1 10 38
M  V30 42 1 11 39
M  V30 43 1 11 40
M  V30 44 1 12 41
M  V30 45 1 12 42
M  V30 46 1 15 43
M  V30 47 1 16 44
M  V30 48 1 17 45
M  V30 49 1 18 46
M  V30 50 1 22 47
M  V30 51 1 23 48
M  V30 52 1 24 49
M  V30 53 1 24 50
M  V30 54 1 25 51
M  V30 55 1 25 52
M  V30 56 1 26 53
M  V30 57 1 26 54
M  V30 58 1 27 55
M  V30 59 1 27 56
M  V30 60 1 28 57
M  V30 61 1 28 58
M  V30 END BOND
M  V30 END CTAB
M  END
>  <Dataset>  (247) 
ChEMBL_Kinases

>  <Ligand_Instance>  (247) 
nan

>  <PDB_ID>  (247) 
nan

>  <Standardized_SMILES>  (247) 
O=C(Cn1c(CN2CCCCC2)nc2ccccc2c1=O)NC1CCCCC1

>  <Name>  (247) 
nan

>  <Pocket>  (247) 
nan

>  <ATP_Site>  (247) 
nan

>  <Peripheral>  (247) 
nan

>  <Num_H_Atoms_ProtBoundConf>  (247) 
nan

>  <Num_Resolved_Atoms>  (247) 
nan

>  <Num_Not_Resolved_Atoms>  (247) 
nan

$$$$
CHEMBL1354013
     RDKit          3D

  0  0  0  0  0  0  0  0  0  0999 V3000
M  V30 BEGIN CTAB
M  V30 COUNTS 33 34 0 0 0
M  V30 BEGIN ATOM
M  V30 1 C -3.854323 -2.607677 3.988038 0
M  V30 2 O -2.522433 -3.026426 4.067166 0
M  V30 3 C -1.657094 -2.820521 2.996709 0
M  V30 4 C -0.343366 -3.201715 3.000016 0
M  V30 5 C 0.532658 -3.011178 1.958380 0
M  V30 6 C 0.062986 -2.384976 0.807279 0
M  V30 7 C 0.876932 -2.101469 -0.410461 0
M  V30 8 C 1.526327 -0.758187 -0.315426 0
M  V30 9 O 1.336811 -0.050665 0.706648 0
M  V30 10 N 2.334050 -0.348877 -1.401638 0
M  V30 11 C 3.016517 0.931194 -1.428667 0
M  V30 12 C 1.982638 2.028633 -1.342633 0
M  V30 13 C 1.319757 2.664342 -2.310293 0
M  V30 14 C 0.425080 3.627682 -2.081443 0
M  V30 15 C 0.273195 3.879567 -0.755283 0
M  V30 16 S 1.417280 2.728993 0.136939 0
M  V30 17 C -1.259662 -1.993805 0.786609 0
M  V30 18 C -2.114539 -2.199544 1.849576 0
M  V30 19 H -3.916199 -1.539565 3.634772 0
M  V30 20 H -4.465286 -3.274465 3.360228 0
M  V30 21 H -4.255685 -2.587804 5.032629 0
M  V30 22 H 0.046653 -3.693219 3.889016 0
M  V30 23 H 1.556256 -3.299632 1.940875 0
M  V30 24 H 0.228086 -2.141203 -1.292817 0
M  V30 25 H 1.651204 -2.900064 -0.493419 0
M  V30 26 H 2.457363 -0.976750 -2.225697 0
M  V30 27 H 3.598365 1.077956 -2.336212 0
M  V30 28 H 3.650852 1.045121 -0.516460 0
M  V30 29 H 1.536467 2.363171 -3.353984 0
M  V30 30 H -0.156098 4.194028 -2.798776 0
M  V30 31 H -0.530462 4.760283 -0.325694 0
M  V30 32 H -1.660367 -1.504489 -0.090003 0
M  V30 33 H -3.152983 -1.860810 1.759136 0
M  V30 END ATOM
M  V30 BEGIN BOND
M  V30 1 1 1 2
M  V30 2 1 2 3
M  V30 3 2 3 4
M  V30 4 1 4 5
M  V30 5 2 5 6
M  V30 6 1 6 7
M  V30 7 1 7 8
M  V30 8 2 8 9
M  V30 9 1 8 10
M  V30 10 1 10 11
M  V30 11 1 11 12
M  V30 12 2 12 13
M  V30 13 1 13 14
M  V30 14 2 14 15
M  V30 15 1 15 16
M  V30 16 1 6 17
M  V30 17 2 17 18
M  V30 18 1 18 3
M  V30 19 1 16 12
M  V30 20 1 1 19
M  V30 21 1 1 20
M  V30 22 1 1 21
M  V30 23 1 4 22
M  V30 24 1 5 23
M  V30 25 1 7 24
M  V30 26 1 7 25
M  V30 27 1 10 26
M  V30 28 1 11 27
M  V30 29 1 11 28
M  V30 30 1 13 29
M  V30 31 1 14 30
M  V30 32 1 15 31
M  V30 33 1 17 32
M  V30 34 1 18 33
M  V30 END BOND
M  V30 END CTAB
M  END
>  <Dataset>  (248) 
ChEMBL_Kinases

>  <Ligand_Instance>  (248) 
nan

>  <PDB_ID>  (248) 
nan

>  <Standardized_SMILES>  (248) 
COc1ccc(CC(=O)NCc2cccs2)cc1

>  <Name>  (248) 
nan

>  <Pocket>  (248) 
nan

>  <ATP_Site>  (248) 
nan

>  <Peripheral>  (248) 
nan

>  <Num_H_Atoms_ProtBoundConf>  (248) 
nan

>  <Num_Resolved_Atoms>  (248) 
nan

>  <Num_Not_Resolved_Atoms>  (248) 
nan

$$$$
CHEMBL1354041
     RDKit          3D

  0  0  0  0  0  0  0  0  0  0999 V3000
M  V30 BEGIN CTAB
M  V30 COUNTS 63 66 0 0 0
M  V30 BEGIN ATOM
M  V30 1 C 3.601593 -3.662366 4.906675 0
M  V30 2 O 3.987458 -2.318926 4.668281 0
M  V30 3 C 3.339339 -1.490359 3.737784 0
M  V30 4 C 2.280012 -1.964648 3.005130 0
M  V30 5 C 1.684401 -1.106963 2.108400 0
M  V30 6 C 2.134797 0.176569 1.953498 0
M  V30 7 N 1.608984 1.184762 1.059891 0
M  V30 8 C 1.808202 1.632005 -0.294588 0
M  V30 9 O 2.671152 1.026582 -0.981805 0
M  V30 10 C 0.891835 2.757036 -0.546329 0
M  V30 11 C 1.391394 4.017099 -0.855963 0
M  V30 12 N 0.293865 4.804363 -1.010754 0
M  V30 13 N -0.813860 4.075077 -0.809314 0
M  V30 14 C -2.134357 4.354868 -0.834105 0
M  V30 15 O -2.514452 5.656383 -1.128793 0
M  V30 16 C -3.079905 3.386792 -0.576869 0
M  V30 17 C -2.711232 2.094999 -0.284207 0
M  V30 18 C -3.653971 0.961690 0.028214 0
M  V30 19 C -3.890777 0.134540 -1.199504 0
M  V30 20 C -3.065754 -1.092333 -1.336806 0
M  V30 21 N -2.622386 -1.652340 -0.098044 0
M  V30 22 C -1.580694 -2.618847 -0.149513 0
M  V30 23 O -1.033258 -3.228566 0.776075 0
M  V30 24 O -0.999929 -3.036648 -1.317796 0
M  V30 25 C 0.019738 -3.971210 -1.471590 0
M  V30 26 C -0.357663 -5.344232 -0.923456 0
M  V30 27 C 0.236555 -4.123906 -2.984240 0
M  V30 28 C 1.337227 -3.603883 -0.867312 0
M  V30 29 C -3.218019 -1.251277 1.160835 0
M  V30 30 C -3.184567 0.238568 1.232102 0
M  V30 31 N -1.371546 1.829173 -0.263053 0
M  V30 32 C -0.483941 2.803705 -0.520033 0
M  V30 33 C 3.220731 0.602793 2.730370 0
M  V30 34 C 3.872642 -0.217913 3.660810 0
M  V30 35 Cl 5.222700 0.363559 4.608102 0
M  V30 36 H 3.543045 -4.251644 3.962366 0
M  V30 37 H 2.632950 -3.720298 5.410165 0
M  V30 38 H 4.408378 -4.073898 5.571330 0
M  V30 39 H 1.899677 -2.952453 3.095352 0
M  V30 40 H 0.844395 -1.343083 1.466773 0
M  V30 41 H 0.925670 1.569231 1.782857 0
M  V30 42 H 2.438253 4.304043 -0.952625 0
M  V30 43 H -3.444411 5.972040 -0.812281 0
M  V30 44 H -4.148663 3.590725 -0.591539 0
M  V30 45 H -4.627022 1.456084 0.255053 0
M  V30 46 H -4.988629 -0.076280 -1.311713 0
M  V30 47 H -3.659243 0.795807 -2.066741 0
M  V30 48 H -3.736316 -1.877727 -1.795011 0
M  V30 49 H -2.238741 -1.001109 -2.094798 0
M  V30 50 H -1.422208 -5.558261 -1.008590 0
M  V30 51 H -0.094034 -5.343612 0.147888 0
M  V30 52 H 0.238038 -6.127203 -1.408703 0
M  V30 53 H -0.720507 -4.271936 -3.527520 0
M  V30 54 H 0.961816 -4.939040 -3.157650 0
M  V30 55 H 0.679452 -3.183492 -3.366643 0
M  V30 56 H 2.113073 -4.240974 -1.386902 0
M  V30 57 H 1.346911 -3.954038 0.175753 0
M  V30 58 H 1.667790 -2.570321 -1.031347 0
M  V30 59 H -2.651529 -1.664385 2.020786 0
M  V30 60 H -4.288331 -1.575496 1.185899 0
M  V30 61 H -3.726603 0.545257 2.175817 0
M  V30 62 H -2.114739 0.519934 1.456747 0
M  V30 63 H 3.619747 1.623416 2.643477 0
M  V30 END ATOM
M  V30 BEGIN BOND
M  V30 1 1 1 2
M  V30 2 1 2 3
M  V30 3 2 3 4
M  V30 4 1 4 5
M  V30 5 2 5 6
M  V30 6 1 6 7
M  V30 7 1 7 8
M  V30 8 2 8 9
M  V30 9 1 8 10
M  V30 10 1 10 11
M  V30 11 2 11 12
M  V30 12 1 12 13
M  V30 13 1 13 14
M  V30 14 1 14 15
M  V30 15 2 14 16
M  V30 16 1 16 17
M  V30 17 1 17 18
M  V30 18 1 18 19
M  V30 19 1 19 20
M  V30 20 1 20 21
M  V30 21 1 21 22
M  V30 22 2 22 23
M  V30 23 1 22 24
M  V30 24 1 24 25
M  V30 25 1 25 26
M  V30 26 1 25 27
M  V30 27 1 25 28
M  V30 28 1 21 29
M  V30 29 1 29 30
M  V30 30 2 17 31
M  V30 31 1 31 32
M  V30 32 1 6 33
M  V30 33 2 33 34
M  V30 34 1 34 35
M  V30 35 1 34 3
M  V30 36 2 32 10
M  V30 37 1 32 13
M  V30 38 1 30 18
M  V30 39 1 1 36
M  V30 40 1 1 37
M  V30 41 1 1 38
M  V30 42 1 4 39
M  V30 43 1 5 40
M  V30 44 1 7 41
M  V30 45 1 11 42
M  V30 46 1 15 43
M  V30 47 1 16 44
M  V30 48 1 18 45
M  V30 49 1 19 46
M  V30 50 1 19 47
M  V30 51 1 20 48
M  V30 52 1 20 49
M  V30 53 1 26 50
M  V30 54 1 26 51
M  V30 55 1 26 52
M  V30 56 1 27 53
M  V30 57 1 27 54
M  V30 58 1 27 55
M  V30 59 1 28 56
M  V30 60 1 28 57
M  V30 61 1 28 58
M  V30 62 1 29 59
M  V30 63 1 29 60
M  V30 64 1 30 61
M  V30 65 1 30 62
M  V30 66 1 33 63
M  V30 END BOND
M  V30 END CTAB
M  END
>  <Dataset>  (249) 
ChEMBL_Kinases

>  <Ligand_Instance>  (249) 
nan

>  <PDB_ID>  (249) 
nan

>  <Standardized_SMILES>  (249) 
COc1ccc(NC(=O)c2cnn3c(O)cc(C4CCN(C(=O)OC(C)(C)C)CC4)nc23)cc1Cl

>  <Name>  (249) 
nan

>  <Pocket>  (249) 
nan

>  <ATP_Site>  (249) 
nan

>  <Peripheral>  (249) 
nan

>  <Num_H_Atoms_ProtBoundConf>  (249) 
nan

>  <Num_Resolved_Atoms>  (249) 
nan

>  <Num_Not_Resolved_Atoms>  (249) 
nan

$$$$
CHEMBL1354211
     RDKit          3D

  0  0  0  0  0  0  0  0  0  0999 V3000
M  V30 BEGIN CTAB
M  V30 COUNTS 53 57 0 0 0
M  V30 BEGIN ATOM
M  V30 1 C -3.793303 -1.273942 1.611029 0
M  V30 2 N -2.782277 -2.122273 1.107993 0
M  V30 3 C -1.463206 -2.146562 1.512444 0
M  V30 4 C -0.899335 -1.264470 2.561260 0
M  V30 5 O -1.024240 -1.117753 3.810322 0
M  V30 6 N 0.058980 -0.271818 2.136676 0
M  V30 7 C 0.641028 0.621141 3.121340 0
M  V30 8 C 2.136124 0.688129 2.920940 0
M  V30 9 N 2.540183 0.908814 1.550518 0
M  V30 10 C 3.326505 1.981300 1.135509 0
M  V30 11 C 4.025584 1.834851 -0.072323 0
M  V30 12 C 4.793613 2.901627 -0.484099 0
M  V30 13 C 4.923937 4.090414 0.195483 0
M  V30 14 N 5.760562 5.157178 -0.314103 0 CHG=1 VAL=4
M  V30 15 O 6.413759 4.925988 -1.350617 0
M  V30 16 O 5.684928 6.303219 0.476799 0 CHG=-1 VAL=1
M  V30 17 C 4.233216 4.261530 1.407436 0
M  V30 18 C 3.461098 3.160430 1.801144 0
M  V30 19 C 2.008041 -0.125573 0.651479 0
M  V30 20 C 0.472439 -0.121834 0.754046 0
M  V30 21 C -0.684708 -3.071637 0.859396 0
M  V30 22 C -1.541279 -3.687100 -0.022147 0
M  V30 23 C -1.311337 -4.693056 -0.933798 0
M  V30 24 O -0.036311 -5.227490 -1.044861 0
M  V30 25 N -2.339344 -5.125314 -1.692145 0
M  V30 26 C -3.577197 -4.588988 -1.569015 0
M  V30 27 C -4.557598 -5.103686 -2.389577 0
M  V30 28 C -5.810079 -4.541197 -2.243730 0
M  V30 29 C -6.049894 -3.522332 -1.322673 0
M  V30 30 C -5.023222 -3.051872 -0.530205 0
M  V30 31 C -3.761310 -3.583240 -0.642903 0
M  V30 32 C -2.766492 -3.084385 0.170427 0
M  V30 33 H -4.172508 -0.482487 0.948218 0
M  V30 34 H -3.314786 -0.639348 2.428205 0
M  V30 35 H -4.583678 -1.780121 2.238803 0
M  V30 36 H 0.495073 0.236494 4.156030 0
M  V30 37 H 0.249229 1.650991 2.979212 0
M  V30 38 H 2.540094 -0.313733 3.246168 0
M  V30 39 H 2.554553 1.438577 3.617420 0
M  V30 40 H 4.014482 0.960788 -0.706332 0
M  V30 41 H 5.352386 2.831374 -1.413532 0
M  V30 42 H 4.291939 5.164552 1.986383 0
M  V30 43 H 2.894893 3.202964 2.726750 0
M  V30 44 H 2.236713 0.026926 -0.396248 0
M  V30 45 H 2.436776 -1.083126 1.015277 0
M  V30 46 H 0.091231 -0.881011 0.076444 0
M  V30 47 H 0.192383 0.930965 0.486328 0
M  V30 48 H 0.348189 -3.263257 1.007599 0
M  V30 49 H 0.311488 -5.819566 -0.297844 0
M  V30 50 H -4.352862 -5.895499 -3.096291 0
M  V30 51 H -6.590858 -4.938427 -2.888534 0
M  V30 52 H -7.093388 -3.175264 -1.319038 0
M  V30 53 H -5.374146 -2.295873 0.100540 0
M  V30 END ATOM
M  V30 BEGIN BOND
M  V30 1 1 1 2
M  V30 2 1 2 3
M  V30 3 1 3 4
M  V30 4 2 4 5
M  V30 5 1 4 6
M  V30 6 1 6 7
M  V30 7 1 7 8
M  V30 8 1 8 9
M  V30 9 1 9 10
M  V30 10 2 10 11
M  V30 11 1 11 12
M  V30 12 2 12 13
M  V30 13 1 13 14
M  V30 14 2 14 15
M  V30 15 1 14 16
M  V30 16 1 13 17
M  V30 17 2 17 18
M  V30 18 1 9 19
M  V30 19 1 19 20
M  V30 20 2 3 21
M  V30 21 1 21 22
M  V30 22 2 22 23
M  V30 23 1 23 24
M  V30 24 1 23 25
M  V30 25 2 25 26
M  V30 26 1 26 27
M  V30 27 2 27 28
M  V30 28 1 28 29
M  V30 29 2 29 30
M  V30 30 1 30 31
M  V30 31 2 31 32
M  V30 32 1 32 2
M  V30 33 1 20 6
M  V30 34 1 32 22
M  V30 35 1 18 10
M  V30 36 1 31 26
M  V30 37 1 1 33
M  V30 38 1 1 34
M  V30 39 1 1 35
M  V30 40 1 7 36
M  V30 41 1 7 37
M  V30 42 1 8 38
M  V30 43 1 8 39
M  V30 44 1 11 40
M  V30 45 1 12 41
M  V30 46 1 17 42
M  V30 47 1 18 43
M  V30 48 1 19 44
M  V30 49 1 19 45
M  V30 50 1 20 46
M  V30 51 1 20 47
M  V30 52 1 21 48
M  V30 53 1 24 49
M  V30 54 1 27 50
M  V30 55 1 28 51
M  V30 56 1 29 52
M  V30 57 1 30 53
M  V30 END BOND
M  V30 END CTAB
M  END
>  <Dataset>  (250) 
ChEMBL_Kinases

>  <Ligand_Instance>  (250) 
nan

>  <PDB_ID>  (250) 
nan

>  <Standardized_SMILES>  (250) 
Cn1c(C(=O)N2CCN(c3ccc([N+](=O)[O-])cc3)CC2)cc2c(O)nc3ccccc3c21

>  <Name>  (250) 
nan

>  <Pocket>  (250) 
nan

>  <ATP_Site>  (250) 
nan

>  <Peripheral>  (250) 
nan

>  <Num_H_Atoms_ProtBoundConf>  (250) 
nan

>  <Num_Resolved_Atoms>  (250) 
nan

>  <Num_Not_Resolved_Atoms>  (250) 
nan

$$$$
CHEMBL1355408
     RDKit          3D

  0  0  0  0  0  0  0  0  0  0999 V3000
M  V30 BEGIN CTAB
M  V30 COUNTS 30 33 0 0 0
M  V30 BEGIN ATOM
M  V30 1 C -1.805865 -5.612791 2.057962 0
M  V30 2 C -1.000557 -4.514991 2.240565 0
M  V30 3 N -0.407343 -4.251173 1.040998 0
M  V30 4 C 0.480080 -3.129984 1.025401 0
M  V30 5 C 1.836903 -3.308929 1.312699 0
M  V30 6 C 2.722678 -2.225479 1.302987 0
M  V30 7 N 2.227181 -0.999672 1.007344 0
M  V30 8 C 0.922349 -0.825929 0.730783 0
M  V30 9 C 0.478942 0.532004 0.423330 0
M  V30 10 C -0.831893 0.839055 0.123667 0
M  V30 11 C -1.289254 2.106405 -0.171558 0
M  V30 12 C -0.307966 3.101529 -0.148545 0
M  V30 13 C 1.038376 2.859597 0.147166 0
M  V30 14 C 1.413736 1.546243 0.434363 0
M  V30 15 O 1.693151 4.091209 0.069243 0
M  V30 16 C 0.705370 5.122034 0.210630 0
M  V30 17 O -0.417192 4.480019 -0.395853 0
M  V30 18 N 0.078977 -1.866113 0.741443 0
M  V30 19 C -0.843795 -5.167082 0.156224 0
M  V30 20 N -1.699291 -6.002254 0.772802 0
M  V30 21 H -2.480593 -6.215829 2.680533 0
M  V30 22 H -0.991623 -4.091963 3.248553 0
M  V30 23 H 2.231812 -4.303900 1.551278 0
M  V30 24 H 3.778220 -2.342168 1.522786 0
M  V30 25 H -1.584243 0.043975 0.111300 0
M  V30 26 H -2.305992 2.352673 -0.405321 0
M  V30 27 H 2.452563 1.373412 0.660257 0
M  V30 28 H 0.506934 5.348512 1.277131 0
M  V30 29 H 0.992885 6.041208 -0.311933 0
M  V30 30 H -0.391674 -4.996761 -0.833331 0
M  V30 END ATOM
M  V30 BEGIN BOND
M  V30 1 2 1 2
M  V30 2 1 2 3
M  V30 3 1 3 4
M  V30 4 2 4 5
M  V30 5 1 5 6
M  V30 6 2 6 7
M  V30 7 1 7 8
M  V30 8 1 8 9
M  V30 9 2 9 10
M  V30 10 1 10 11
M  V30 11 2 11 12
M  V30 12 1 12 13
M  V30 13 2 13 14
M  V30 14 1 13 15
M  V30 15 1 15 16
M  V30 16 1 16 17
M  V30 17 2 8 18
M  V30 18 1 3 19
M  V30 19 2 19 20
M  V30 20 1 20 1
M  V30 21 1 18 4
M  V30 22 1 14 9
M  V30 23 1 17 12
M  V30 24 1 1 21
M  V30 25 1 2 22
M  V30 26 1 5 23
M  V30 27 1 6 24
M  V30 28 1 10 25
M  V30 29 1 11 26
M  V30 30 1 14 27
M  V30 31 1 16 28
M  V30 32 1 16 29
M  V30 33 1 19 30
M  V30 END BOND
M  V30 END CTAB
M  END
>  <Dataset>  (251) 
ChEMBL_Kinases

>  <Ligand_Instance>  (251) 
nan

>  <PDB_ID>  (251) 
nan

>  <Standardized_SMILES>  (251) 
c1cn(-c2ccnc(-c3ccc4c(c3)OCO4)n2)cn1

>  <Name>  (251) 
nan

>  <Pocket>  (251) 
nan

>  <ATP_Site>  (251) 
nan

>  <Peripheral>  (251) 
nan

>  <Num_H_Atoms_ProtBoundConf>  (251) 
nan

>  <Num_Resolved_Atoms>  (251) 
nan

>  <Num_Not_Resolved_Atoms>  (251) 
nan

$$$$
CHEMBL1354522
     RDKit          3D

  0  0  0  0  0  0  0  0  0  0999 V3000
M  V30 BEGIN CTAB
M  V30 COUNTS 30 32 0 0 0
M  V30 BEGIN ATOM
M  V30 1 F -1.850684 -2.368578 1.277804 0
M  V30 2 C -0.514523 -2.272205 1.596385 0
M  V30 3 C -0.297296 -1.577525 2.746511 0
M  V30 4 C 1.000962 -1.423159 3.185780 0
M  V30 5 C 2.026531 -1.992402 2.419874 0
M  V30 6 C 1.769902 -2.677620 1.277419 0
M  V30 7 Cl 2.975554 -3.430133 0.244198 0
M  V30 8 C 0.490625 -2.851396 0.808633 0
M  V30 9 C -0.032462 -3.512308 -0.418011 0
M  V30 10 N -0.267454 -2.484818 -1.453537 0
M  V30 11 C -1.052716 -1.314561 -1.156449 0
M  V30 12 N -0.135171 -0.529716 -0.512224 0
M  V30 13 C -0.740621 0.644195 -0.152730 0
M  V30 14 C -0.070182 1.743329 0.583542 0
M  V30 15 C 1.319194 1.905416 0.496396 0
M  V30 16 C 1.627216 3.003942 1.287811 0
M  V30 17 C 0.423213 3.443846 1.805817 0
M  V30 18 O -0.551364 2.662232 1.357968 0
M  V30 19 N -1.995130 0.562741 -0.575836 0
M  V30 20 N -2.202065 -0.615915 -1.185968 0
M  V30 21 H -1.085099 -1.130811 3.348802 0
M  V30 22 H 1.248804 -0.878751 4.100748 0
M  V30 23 H 3.068396 -1.899086 2.726711 0
M  V30 24 H 0.738672 -4.200140 -0.760086 0
M  V30 25 H -0.979118 -3.994931 -0.200822 0
M  V30 26 H 0.132421 -2.592482 -2.415646 0
M  V30 27 H 2.032288 1.326468 -0.055225 0
M  V30 28 H 2.651723 3.364934 1.411239 0
M  V30 29 H 0.351027 4.302344 2.471924 0
M  V30 30 H -2.879768 -1.230053 -1.678122 0
M  V30 END ATOM
M  V30 BEGIN BOND
M  V30 1 1 1 2
M  V30 2 2 2 3
M  V30 3 1 3 4
M  V30 4 2 4 5
M  V30 5 1 5 6
M  V30 6 1 6 7
M  V30 7 2 6 8
M  V30 8 1 8 9
M  V30 9 1 9 10
M  V30 10 1 10 11
M  V30 11 2 11 12
M  V30 12 1 12 13
M  V30 13 1 13 14
M  V30 14 2 14 15
M  V30 15 1 15 16
M  V30 16 2 16 17
M  V30 17 1 17 18
M  V30 18 2 13 19
M  V30 19 1 19 20
M  V30 20 1 8 2
M  V30 21 1 20 11
M  V30 22 1 18 14
M  V30 23 1 3 21
M  V30 24 1 4 22
M  V30 25 1 5 23
M  V30 26 1 9 24
M  V30 27 1 9 25
M  V30 28 1 10 26
M  V30 29 1 15 27
M  V30 30 1 16 28
M  V30 31 1 17 29
M  V30 32 1 20 30
M  V30 END BOND
M  V30 END CTAB
M  END
>  <Dataset>  (252) 
ChEMBL_Kinases

>  <Ligand_Instance>  (252) 
nan

>  <PDB_ID>  (252) 
nan

>  <Standardized_SMILES>  (252) 
Fc1cccc(Cl)c1CNc1nc(-c2ccco2)n[nH]1

>  <Name>  (252) 
nan

>  <Pocket>  (252) 
nan

>  <ATP_Site>  (252) 
nan

>  <Peripheral>  (252) 
nan

>  <Num_H_Atoms_ProtBoundConf>  (252) 
nan

>  <Num_Resolved_Atoms>  (252) 
nan

>  <Num_Not_Resolved_Atoms>  (252) 
nan

$$$$
CHEMBL1354547
     RDKit          3D

  0  0  0  0  0  0  0  0  0  0999 V3000
M  V30 BEGIN CTAB
M  V30 COUNTS 33 35 0 0 0
M  V30 BEGIN ATOM
M  V30 1 C -3.103656 -3.748390 4.157324 0
M  V30 2 C -2.213452 -3.356205 3.039547 0
M  V30 3 C -0.909746 -3.030491 3.406953 0
M  V30 4 N -0.013232 -2.657006 2.454329 0
M  V30 5 C -0.348725 -2.590479 1.147707 0
M  V30 6 C 0.606451 -2.186070 0.080405 0
M  V30 7 N 0.570371 -0.771790 -0.127024 0
M  V30 8 C 1.408989 -0.212866 -1.099457 0
M  V30 9 N 2.252603 -0.953797 -1.837372 0
M  V30 10 C 3.081515 -0.483379 -2.771956 0
M  V30 11 N 3.073924 0.840704 -2.995622 0
M  V30 12 C 2.252361 1.616218 -2.286647 0
M  V30 13 C 1.373523 1.150232 -1.301771 0
M  V30 14 C 0.528381 2.098639 -0.612788 0
M  V30 15 C 1.115904 3.262954 -0.112193 0
M  V30 16 C 0.118724 4.021453 0.500245 0
M  V30 17 O -0.993356 3.336627 0.364764 0
M  V30 18 C -0.792171 2.215047 -0.276758 0
M  V30 19 C -1.649732 -2.919265 0.811270 0
M  V30 20 N -2.566861 -3.295663 1.740045 0
M  V30 21 H -2.923031 -3.119154 5.071348 0
M  V30 22 H -4.143613 -3.498519 3.855614 0
M  V30 23 H -2.958160 -4.799790 4.428920 0
M  V30 24 H -0.470065 -3.028018 4.396514 0
M  V30 25 H 1.621087 -2.511408 0.434259 0
M  V30 26 H 0.354790 -2.773272 -0.823788 0
M  V30 27 H -0.076509 -0.198408 0.452885 0
M  V30 28 H 3.672517 -1.260031 -3.243890 0
M  V30 29 H 2.321427 2.680602 -2.543713 0
M  V30 30 H 2.115827 3.662544 -0.106023 0
M  V30 31 H 0.050730 4.965886 1.019345 0
M  V30 32 H -1.483298 1.431138 -0.553118 0
M  V30 33 H -1.932537 -2.870114 -0.234247 0
M  V30 END ATOM
M  V30 BEGIN BOND
M  V30 1 1 1 2
M  V30 2 2 2 3
M  V30 3 1 3 4
M  V30 4 2 4 5
M  V30 5 1 5 6
M  V30 6 1 6 7
M  V30 7 1 7 8
M  V30 8 2 8 9
M  V30 9 1 9 10
M  V30 10 2 10 11
M  V30 11 1 11 12
M  V30 12 2 12 13
M  V30 13 1 13 14
M  V30 14 1 14 15
M  V30 15 2 15 16
M  V30 16 1 16 17
M  V30 17 1 17 18
M  V30 18 1 5 19
M  V30 19 2 19 20
M  V30 20 1 20 2
M  V30 21 1 13 8
M  V30 22 2 18 14
M  V30 23 1 1 21
M  V30 24 1 1 22
M  V30 25 1 1 23
M  V30 26 1 3 24
M  V30 27 1 6 25
M  V30 28 1 6 26
M  V30 29 1 7 27
M  V30 30 1 10 28
M  V30 31 1 12 29
M  V30 32 1 15 30
M  V30 33 1 16 31
M  V30 34 1 18 32
M  V30 35 1 19 33
M  V30 END BOND
M  V30 END CTAB
M  END
>  <Dataset>  (253) 
ChEMBL_Kinases

>  <Ligand_Instance>  (253) 
nan

>  <PDB_ID>  (253) 
nan

>  <Standardized_SMILES>  (253) 
Cc1cnc(CNc2ncncc2-c2ccoc2)cn1

>  <Name>  (253) 
nan

>  <Pocket>  (253) 
nan

>  <ATP_Site>  (253) 
nan

>  <Peripheral>  (253) 
nan

>  <Num_H_Atoms_ProtBoundConf>  (253) 
nan

>  <Num_Resolved_Atoms>  (253) 
nan

>  <Num_Not_Resolved_Atoms>  (253) 
nan

$$$$
CHEMBL1354563
     RDKit          3D

  0  0  0  0  0  0  0  0  0  0999 V3000
M  V30 BEGIN CTAB
M  V30 COUNTS 39 42 0 0 0
M  V30 BEGIN ATOM
M  V30 1 N 1.977574 -5.132678 4.053457 0
M  V30 2 C 2.542564 -4.264522 3.524191 0
M  V30 3 C 3.262829 -3.191735 2.874911 0
M  V30 4 C 4.639231 -3.059583 3.085328 0
M  V30 5 C 5.291390 -2.023955 2.448683 0
M  V30 6 C 4.649463 -1.117658 1.618120 0
M  V30 7 C 3.290817 -1.245090 1.408091 0
M  V30 8 C 2.478200 -0.359150 0.552499 0
M  V30 9 C 3.030250 0.235561 -0.585392 0
M  V30 10 C 2.241935 1.051605 -1.354982 0
M  V30 11 C 0.924603 1.294517 -1.029143 0
M  V30 12 N 0.215488 2.101249 -1.826969 0
M  V30 13 C -1.064540 2.341154 -1.517229 0
M  V30 14 N -1.576244 1.766458 -0.428475 0
M  V30 15 C -0.955053 0.955171 0.421106 0
M  V30 16 N -1.562052 0.384194 1.567175 0
M  V30 17 C -2.950261 0.588550 1.977913 0
M  V30 18 C -3.812371 0.021698 0.912291 0
M  V30 19 C -4.435953 0.445984 -0.196376 0
M  V30 20 C -5.162526 -0.380885 -0.974627 0
M  V30 21 C -5.210278 -1.743842 -0.515693 0
M  V30 22 S -4.176805 -1.680355 1.024181 0
M  V30 23 C 0.363617 0.717062 0.088943 0
M  V30 24 C 1.157843 -0.094586 0.848751 0
M  V30 25 C 2.636467 -2.285801 2.048057 0
M  V30 26 H 5.153091 -3.762901 3.733497 0
M  V30 27 H 6.358092 -1.912199 2.604652 0
M  V30 28 H 5.143672 -0.300264 1.111151 0
M  V30 29 H 4.078584 0.047413 -0.851196 0
M  V30 30 H 2.699978 1.487361 -2.215725 0
M  V30 31 H -1.734267 2.982519 -2.097545 0
M  V30 32 H -1.073156 -0.233939 2.221341 0
M  V30 33 H -3.194344 0.177256 2.954615 0
M  V30 34 H -3.174638 1.684282 2.029803 0
M  V30 35 H -4.315953 1.500807 -0.407009 0
M  V30 36 H -5.677279 -0.072111 -1.874573 0
M  V30 37 H -5.835157 -2.521381 -1.158491 0
M  V30 38 H 0.796995 -0.581754 1.733683 0
M  V30 39 H 1.565156 -2.459257 1.937097 0
M  V30 END ATOM
M  V30 BEGIN BOND
M  V30 1 3 1 2
M  V30 2 1 2 3
M  V30 3 2 3 4
M  V30 4 1 4 5
M  V30 5 2 5 6
M  V30 6 1 6 7
M  V30 7 1 7 8
M  V30 8 2 8 9
M  V30 9 1 9 10
M  V30 10 2 10 11
M  V30 11 1 11 12
M  V30 12 2 12 13
M  V30 13 1 13 14
M  V30 14 2 14 15
M  V30 15 1 15 16
M  V30 16 1 16 17
M  V30 17 1 17 18
M  V30 18 2 18 19
M  V30 19 1 19 20
M  V30 20 2 20 21
M  V30 21 1 21 22
M  V30 22 1 15 23
M  V30 23 2 23 24
M  V30 24 2 7 25
M  V30 25 1 25 3
M  V30 26 1 24 8
M  V30 27 1 23 11
M  V30 28 1 22 18
M  V30 29 1 4 26
M  V30 30 1 5 27
M  V30 31 1 6 28
M  V30 32 1 9 29
M  V30 33 1 10 30
M  V30 34 1 13 31
M  V30 35 1 16 32
M  V30 36 1 17 33
M  V30 37 1 17 34
M  V30 38 1 19 35
M  V30 39 1 20 36
M  V30 40 1 21 37
M  V30 41 1 24 38
M  V30 42 1 25 39
M  V30 END BOND
M  V30 END CTAB
M  END
>  <Dataset>  (254) 
ChEMBL_Kinases

>  <Ligand_Instance>  (254) 
nan

>  <PDB_ID>  (254) 
nan

>  <Standardized_SMILES>  (254) 
N#Cc1cccc(-c2ccc3ncnc(NCc4cccs4)c3c2)c1

>  <Name>  (254) 
nan

>  <Pocket>  (254) 
nan

>  <ATP_Site>  (254) 
nan

>  <Peripheral>  (254) 
nan

>  <Num_H_Atoms_ProtBoundConf>  (254) 
nan

>  <Num_Resolved_Atoms>  (254) 
nan

>  <Num_Not_Resolved_Atoms>  (254) 
nan

$$$$
CHEMBL1354786
     RDKit          3D

  0  0  0  0  0  0  0  0  0  0999 V3000
M  V30 BEGIN CTAB
M  V30 COUNTS 80 84 0 0 0
M  V30 BEGIN ATOM
M  V30 1 C 1.441179 -5.640834 2.805651 0
M  V30 2 C 2.258962 -4.402238 2.580856 0
M  V30 3 O 3.303838 -4.570304 3.275422 0
M  V30 4 O 1.805680 -3.385788 1.750364 0
M  V30 5 C 2.491746 -2.232625 1.497723 0
M  V30 6 C 1.679074 -1.186600 2.293399 0
M  V30 7 O 1.841842 -1.572996 3.466777 0
M  V30 8 C 0.827109 -0.004337 2.480451 0 CFG=2
M  V30 9 C 1.487630 0.869236 3.527810 0
M  V30 10 C -0.479893 -0.465802 3.095256 0
M  V30 11 O -0.117400 -1.173683 4.262190 0
M  V30 12 C -1.349143 0.693671 3.439901 0
M  V30 13 C -1.123883 1.941606 2.685997 0
M  V30 14 O -2.292960 2.320439 2.016138 0
M  V30 15 C -1.896431 1.348820 1.061467 0
M  V30 16 C -0.500458 1.767555 1.339409 0 CFG=1
M  V30 17 O -0.283957 2.926361 0.587683 0
M  V30 18 C 0.476754 4.009689 0.904587 0
M  V30 19 C 0.527169 5.109180 -0.092750 0
M  V30 20 O 1.092044 4.065228 1.974135 0
M  V30 21 C 0.638377 0.830899 1.239417 0
M  V30 22 C 0.723022 0.021655 -0.028865 0 CFG=1
M  V30 23 O -0.455868 0.130833 -0.811521 0
M  V30 24 C -1.364588 -0.933347 -0.994992 0
M  V30 25 O -1.125980 -2.056267 -0.432244 0
M  V30 26 C -2.550045 -0.732416 -1.817584 0
M  V30 27 C -2.908078 0.447783 -2.478410 0
M  V30 28 C -4.080434 0.469015 -3.226481 0
M  V30 29 C -4.915751 -0.609813 -3.356489 0
M  V30 30 C -4.579161 -1.777104 -2.713941 0
M  V30 31 C -3.419042 -1.792881 -1.975620 0
M  V30 32 C 1.961637 0.241239 -0.849994 0 CFG=2
M  V30 33 O 2.125170 1.580302 -1.103472 0
M  V30 34 C 1.702119 -0.552716 -2.131746 0
M  V30 35 C 2.038460 -1.983168 -2.087864 0
M  V30 36 O 0.986803 -2.808073 -2.561340 0
M  V30 37 C 2.420953 -2.556098 -0.786028 0
M  V30 38 C 2.502780 -3.992228 -0.489291 0
M  V30 39 C 2.714070 -1.706644 0.186145 0
M  V30 40 C 3.213305 -0.351638 -0.270556 0
M  V30 41 C 4.255787 -0.507264 -1.369345 0
M  V30 42 C 3.894761 0.385666 0.821478 0
M  V30 43 H 1.925319 -6.535680 2.336502 0
M  V30 44 H 1.225218 -5.797461 3.886374 0
M  V30 45 H 0.479520 -5.508093 2.303931 0
M  V30 46 H 3.491108 -2.290442 2.033031 0
M  V30 47 H 0.813699 1.174450 4.350689 0
M  V30 48 H 2.024036 1.732292 3.082176 0
M  V30 49 H 2.313407 0.312468 4.063443 0
M  V30 50 H -0.959224 -1.256142 2.469894 0
M  V30 51 H -0.985291 -1.400278 4.702585 0
M  V30 52 H -2.411984 0.305680 3.423197 0
M  V30 53 H -1.232871 0.874990 4.552693 0
M  V30 54 H -0.690894 2.734013 3.328149 0
M  V30 55 H -2.295700 0.408501 1.394309 0
M  V30 56 H -2.347243 1.668256 0.088733 0
M  V30 57 H 0.830558 6.081405 0.340651 0
M  V30 58 H -0.457324 5.194045 -0.588803 0
M  V30 59 H 1.246656 4.894913 -0.930011 0
M  V30 60 H 1.549050 1.468504 1.196952 0
M  V30 61 H 0.695340 -1.027014 0.317739 0
M  V30 62 H -2.229090 1.270853 -2.352896 0
M  V30 63 H -4.254041 1.445507 -3.695797 0
M  V30 64 H -5.798891 -0.488071 -3.958991 0
M  V30 65 H -5.227415 -2.633002 -2.807950 0
M  V30 66 H -3.180361 -2.743032 -1.474901 0
M  V30 67 H 2.860664 1.775633 -1.711303 0
M  V30 68 H 2.101681 -0.005534 -3.040596 0
M  V30 69 H 0.599786 -0.485512 -2.382010 0
M  V30 70 H 2.832969 -2.159686 -2.874015 0
M  V30 71 H 0.790845 -2.509474 -3.498166 0
M  V30 72 H 2.702121 -4.434398 -1.528372 0
M  V30 73 H 3.427851 -4.298909 0.028102 0
M  V30 74 H 1.579961 -4.501827 -0.220283 0
M  V30 75 H 5.228285 0.016816 -1.126172 0
M  V30 76 H 4.581986 -1.589604 -1.344728 0
M  V30 77 H 3.990234 -0.128359 -2.338447 0
M  V30 78 H 5.017002 0.202562 0.763995 0
M  V30 79 H 3.698682 0.087659 1.845940 0
M  V30 80 H 3.872841 1.494750 0.660795 0
M  V30 END ATOM
M  V30 BEGIN BOND
M  V30 1 1 1 2
M  V30 2 2 2 3
M  V30 3 1 2 4
M  V30 4 1 4 5
M  V30 5 1 5 6
M  V30 6 2 6 7
M  V30 7 1 6 8
M  V30 8 1 8 9 CFG=1
M  V30 9 1 8 10
M  V30 10 1 10 11
M  V30 11 1 10 12
M  V30 12 1 12 13
M  V30 13 1 13 14
M  V30 14 1 14 15
M  V30 15 1 15 16
M  V30 16 1 16 17 CFG=3
M  V30 17 1 17 18
M  V30 18 1 18 19
M  V30 19 2 18 20
M  V30 20 1 16 21
M  V30 21 1 21 22
M  V30 22 1 22 23
M  V30 23 1 23 24
M  V30 24 2 24 25
M  V30 25 1 24 26
M  V30 26 2 26 27
M  V30 27 1 27 28
M  V30 28 2 28 29
M  V30 29 1 29 30
M  V30 30 2 30 31
M  V30 31 1 22 32
M  V30 32 1 32 33 CFG=3
M  V30 33 1 32 34
M  V30 34 1 34 35
M  V30 35 1 35 36
M  V30 36 1 35 37
M  V30 37 1 37 38
M  V30 38 2 37 39
M  V30 39 1 39 40
M  V30 40 1 40 41
M  V30 41 1 40 42
M  V30 42 1 39 5
M  V30 43 1 21 8
M  V30 44 1 31 26
M  V30 45 1 40 32
M  V30 46 1 16 13
M  V30 47 1 1 43
M  V30 48 1 1 44
M  V30 49 1 1 45
M  V30 50 1 5 46
M  V30 51 1 9 47
M  V30 52 1 9 48
M  V30 53 1 9 49
M  V30 54 1 10 50
M  V30 55 1 11 51
M  V30 56 1 12 52
M  V30 57 1 12 53
M  V30 58 1 13 54
M  V30 59 1 15 55
M  V30 60 1 15 56
M  V30 61 1 19 57
M  V30 62 1 19 58
M  V30 63 1 19 59
M  V30 64 1 21 60
M  V30 65 1 22 61 CFG=1
M  V30 66 1 27 62
M  V30 67 1 28 63
M  V30 68 1 29 64
M  V30 69 1 30 65
M  V30 70 1 31 66
M  V30 71 1 33 67
M  V30 72 1 34 68
M  V30 73 1 34 69
M  V30 74 1 35 70
M  V30 75 1 36 71
M  V30 76 1 38 72
M  V30 77 1 38 73
M  V30 78 1 38 74
M  V30 79 1 41 75
M  V30 80 1 41 76
M  V30 81 1 41 77
M  V30 82 1 42 78
M  V30 83 1 42 79
M  V30 84 1 42 80
M  V30 END BOND
M  V30 END CTAB
M  END
>  <Dataset>  (255) 
ChEMBL_Kinases

>  <Ligand_Instance>  (255) 
nan

>  <PDB_ID>  (255) 
nan

>  <Standardized_SMILES>  (255) 
CC(=O)OC1C(=O)[C@]2(C)C(O)CC3OC[C@]3(OC(C)=O)C2[C@@H](OC(=O)c2ccccc2)[C@]2(O)CC(O)C(C)=C1C2(C)C

>  <Name>  (255) 
nan

>  <Pocket>  (255) 
nan

>  <ATP_Site>  (255) 
nan

>  <Peripheral>  (255) 
nan

>  <Num_H_Atoms_ProtBoundConf>  (255) 
nan

>  <Num_Resolved_Atoms>  (255) 
nan

>  <Num_Not_Resolved_Atoms>  (255) 
nan

$$$$
CHEMBL1354961
     RDKit          3D

  0  0  0  0  0  0  0  0  0  0999 V3000
M  V30 BEGIN CTAB
M  V30 COUNTS 31 33 0 0 0
M  V30 BEGIN ATOM
M  V30 1 N 2.058075 -3.531220 2.242649 0
M  V30 2 S 0.375611 -3.806042 2.616016 0
M  V30 3 O 0.001495 -5.211511 2.249473 0
M  V30 4 O 0.155349 -3.631975 4.096520 0
M  V30 5 C -0.607195 -2.671735 1.731062 0
M  V30 6 C -1.026086 -3.089249 0.473756 0
M  V30 7 C -1.809743 -2.267857 -0.313033 0
M  V30 8 C -2.131700 -1.052825 0.220976 0
M  V30 9 N -2.949776 -0.209312 -0.613982 0
M  V30 10 N -2.366079 0.759224 -1.234678 0
M  V30 11 C -0.943473 0.871464 -1.005888 0
M  V30 12 N -0.567232 1.840738 -0.126196 0
M  V30 13 C 0.786248 1.825836 -0.014621 0
M  V30 14 C 1.788312 2.505119 0.669837 0
M  V30 15 S 1.206168 3.807596 1.751833 0
M  V30 16 N 3.074316 2.172840 0.498492 0
M  V30 17 C 3.417704 1.187728 -0.328777 0
M  V30 18 N 2.515344 0.481971 -1.027142 0
M  V30 19 C 1.208226 0.810884 -0.860676 0
M  V30 20 N 0.153581 0.229449 -1.464665 0
M  V30 21 C -1.757844 -0.564600 1.456025 0
M  V30 22 C -0.978355 -1.439864 2.181736 0
M  V30 23 H 2.176030 -3.344377 1.226306 0
M  V30 24 H 2.377912 -2.696174 2.798009 0
M  V30 25 H -0.761629 -4.066611 0.055296 0
M  V30 26 H -2.136775 -2.575976 -1.277198 0
M  V30 27 H 0.035359 3.452621 2.444290 0
M  V30 28 H 4.498221 1.013757 -0.381005 0
M  V30 29 H 0.014960 -0.536290 -2.145034 0
M  V30 30 H -2.035965 0.397581 1.831916 0
M  V30 31 H -0.616421 -1.185501 3.164166 0
M  V30 END ATOM
M  V30 BEGIN BOND
M  V30 1 1 1 2
M  V30 2 2 2 3
M  V30 3 2 2 4
M  V30 4 1 2 5
M  V30 5 2 5 6
M  V30 6 1 6 7
M  V30 7 2 7 8
M  V30 8 1 8 9
M  V30 9 2 9 10
M  V30 10 1 10 11
M  V30 11 2 11 12
M  V30 12 1 12 13
M  V30 13 2 13 14
M  V30 14 1 14 15
M  V30 15 1 14 16
M  V30 16 2 16 17
M  V30 17 1 17 18
M  V30 18 2 18 19
M  V30 19 1 19 20
M  V30 20 1 8 21
M  V30 21 2 21 22
M  V30 22 1 22 5
M  V30 23 1 20 11
M  V30 24 1 19 13
M  V30 25 1 1 23
M  V30 26 1 1 24
M  V30 27 1 6 25
M  V30 28 1 7 26
M  V30 29 1 15 27
M  V30 30 1 17 28
M  V30 31 1 20 29
M  V30 32 1 21 30
M  V30 33 1 22 31
M  V30 END BOND
M  V30 END CTAB
M  END
>  <Dataset>  (256) 
ChEMBL_Kinases

>  <Ligand_Instance>  (256) 
nan

>  <PDB_ID>  (256) 
nan

>  <Standardized_SMILES>  (256) 
NS(=O)(=O)c1ccc(/N=N\c2nc3c(S)ncnc3[nH]2)cc1

>  <Name>  (256) 
nan

>  <Pocket>  (256) 
nan

>  <ATP_Site>  (256) 
nan

>  <Peripheral>  (256) 
nan

>  <Num_H_Atoms_ProtBoundConf>  (256) 
nan

>  <Num_Resolved_Atoms>  (256) 
nan

>  <Num_Not_Resolved_Atoms>  (256) 
nan

$$$$
CHEMBL1355090
     RDKit          3D

  0  0  0  0  0  0  0  0  0  0999 V3000
M  V30 BEGIN CTAB
M  V30 COUNTS 33 33 0 0 0
M  V30 BEGIN ATOM
M  V30 1 C -1.975933 -3.357142 2.155937 0
M  V30 2 C -0.602892 -3.159991 2.765484 0
M  V30 3 C -0.720224 -2.060990 3.798652 0
M  V30 4 N 0.423632 -2.863034 1.814634 0
M  V30 5 C 0.148826 -1.667297 1.091355 0
M  V30 6 C 1.235665 -1.339060 0.073891 0 CFG=2
M  V30 7 O 2.464185 -1.163743 0.668853 0
M  V30 8 C 0.865041 -0.101078 -0.664941 0
M  V30 9 C 0.345169 -0.248473 -1.951975 0
M  V30 10 C -0.013495 0.872738 -2.676998 0
M  V30 11 C 0.177554 2.089885 -2.049091 0
M  V30 12 N -0.186147 3.260241 -2.779809 0
M  V30 13 C 0.688644 2.274655 -0.778482 0
M  V30 14 C 0.838778 3.596911 -0.236296 0
M  V30 15 N 0.953477 4.667131 0.188444 0
M  V30 16 C 1.042530 1.132812 -0.067858 0
M  V30 17 H -2.497020 -2.396182 1.986607 0
M  V30 18 H -1.970313 -4.021152 1.274183 0
M  V30 19 H -2.573273 -3.878933 2.939639 0
M  V30 20 H -0.358581 -4.129575 3.287181 0
M  V30 21 H 0.195548 -1.425991 3.747837 0
M  V30 22 H -0.791221 -2.531952 4.818183 0
M  V30 23 H -1.591902 -1.407264 3.605418 0
M  V30 24 H 0.487540 -3.639652 1.119445 0
M  V30 25 H 0.162855 -0.815946 1.801535 0
M  V30 26 H -0.803891 -1.662880 0.549563 0
M  V30 27 H 1.344939 -2.193873 -0.635038 0
M  V30 28 H 2.433548 -0.991321 1.650172 0
M  V30 29 H 0.226223 -1.237004 -2.373702 0
M  V30 30 H -0.421074 0.820125 -3.677645 0
M  V30 31 H 0.157331 3.993697 -3.441170 0
M  V30 32 H -1.189282 3.360154 -2.496123 0
M  V30 33 H 1.444744 1.242111 0.927223 0
M  V30 END ATOM
M  V30 BEGIN BOND
M  V30 1 1 1 2
M  V30 2 1 2 3
M  V30 3 1 2 4
M  V30 4 1 4 5
M  V30 5 1 5 6
M  V30 6 1 6 7
M  V30 7 1 6 8
M  V30 8 2 8 9
M  V30 9 1 9 10
M  V30 10 2 10 11
M  V30 11 1 11 12
M  V30 12 1 11 13
M  V30 13 1 13 14
M  V30 14 3 14 15
M  V30 15 2 13 16
M  V30 16 1 16 8
M  V30 17 1 1 17
M  V30 18 1 1 18
M  V30 19 1 1 19
M  V30 20 1 2 20
M  V30 21 1 3 21
M  V30 22 1 3 22
M  V30 23 1 3 23
M  V30 24 1 4 24
M  V30 25 1 5 25
M  V30 26 1 5 26
M  V30 27 1 6 27 CFG=3
M  V30 28 1 7 28
M  V30 29 1 9 29
M  V30 30 1 10 30
M  V30 31 1 12 31
M  V30 32 1 12 32
M  V30 33 1 16 33
M  V30 END BOND
M  V30 END CTAB
M  END
>  <Dataset>  (257) 
ChEMBL_Kinases

>  <Ligand_Instance>  (257) 
nan

>  <PDB_ID>  (257) 
nan

>  <Standardized_SMILES>  (257) 
CC(C)NC[C@H](O)c1ccc(N)c(C#N)c1

>  <Name>  (257) 
nan

>  <Pocket>  (257) 
nan

>  <ATP_Site>  (257) 
nan

>  <Peripheral>  (257) 
nan

>  <Num_H_Atoms_ProtBoundConf>  (257) 
nan

>  <Num_Resolved_Atoms>  (257) 
nan

>  <Num_Not_Resolved_Atoms>  (257) 
nan

$$$$
CHEMBL1355139
     RDKit          3D

  0  0  0  0  0  0  0  0  0  0999 V3000
M  V30 BEGIN CTAB
M  V30 COUNTS 38 41 0 0 0
M  V30 BEGIN ATOM
M  V30 1 C -0.676862 -3.927369 4.285681 0
M  V30 2 C -0.170308 -4.472575 3.130468 0
M  V30 3 C 0.740178 -3.720771 2.410117 0
M  V30 4 C 1.131622 -2.464360 2.831147 0
M  V30 5 C 2.098999 -1.580083 2.132713 0
M  V30 6 N 1.470646 -0.697725 1.170748 0
M  V30 7 C 2.283546 0.193668 0.439493 0
M  V30 8 N 3.604826 0.251044 0.631390 0
M  V30 9 C 4.399073 1.117322 -0.053448 0
M  V30 10 N 3.812795 1.934518 -0.949206 0
M  V30 11 C 2.473374 1.898552 -1.165510 0
M  V30 12 C 1.646037 1.011058 -0.466965 0
M  V30 13 C 0.230444 1.053330 -0.800204 0
M  V30 14 C -0.293482 2.352754 -0.765733 0
M  V30 15 C -1.618282 2.620761 -1.058633 0
M  V30 16 C -2.469299 1.599366 -1.397110 0
M  V30 17 C -1.950104 0.332400 -1.428859 0
M  V30 18 C -0.641431 0.044420 -1.142631 0
M  V30 19 O -2.961845 -0.547263 -1.789101 0
M  V30 20 C -4.093578 0.194003 -2.208083 0
M  V30 21 O -3.807528 1.483052 -1.741576 0
M  V30 22 C 0.587639 -1.955627 4.011617 0
M  V30 23 C -0.327425 -2.678564 4.761151 0
M  V30 24 H -1.385367 -4.503468 4.853220 0
M  V30 25 H -0.463752 -5.442405 2.792932 0
M  V30 26 H 1.195850 -4.076881 1.476099 0
M  V30 27 H 2.815368 -2.251888 1.576585 0
M  V30 28 H 2.751036 -1.030175 2.844310 0
M  V30 29 H 0.438235 -0.797467 1.103500 0
M  V30 30 H 5.453023 1.077466 0.181971 0
M  V30 31 H 2.165468 2.617781 -1.914870 0
M  V30 32 H 0.285073 3.236432 -0.511778 0
M  V30 33 H -2.026070 3.624616 -1.032750 0
M  V30 34 H -0.197775 -0.918958 -1.162207 0
M  V30 35 H -4.988279 -0.254545 -1.731417 0
M  V30 36 H -4.128171 0.125447 -3.315888 0
M  V30 37 H 0.841419 -0.983126 4.408266 0
M  V30 38 H -0.750375 -2.285872 5.676740 0
M  V30 END ATOM
M  V30 BEGIN BOND
M  V30 1 2 1 2
M  V30 2 1 2 3
M  V30 3 2 3 4
M  V30 4 1 4 5
M  V30 5 1 5 6
M  V30 6 1 6 7
M  V30 7 2 7 8
M  V30 8 1 8 9
M  V30 9 2 9 10
M  V30 10 1 10 11
M  V30 11 2 11 12
M  V30 12 1 12 13
M  V30 13 2 13 14
M  V30 14 1 14 15
M  V30 15 2 15 16
M  V30 16 1 16 17
M  V30 17 2 17 18
M  V30 18 1 17 19
M  V30 19 1 19 20
M  V30 20 1 20 21
M  V30 21 1 4 22
M  V30 22 2 22 23
M  V30 23 1 23 1
M  V30 24 1 12 7
M  V30 25 1 18 13
M  V30 26 1 21 16
M  V30 27 1 1 24
M  V30 28 1 2 25
M  V30 29 1 3 26
M  V30 30 1 5 27
M  V30 31 1 5 28
M  V30 32 1 6 29
M  V30 33 1 9 30
M  V30 34 1 11 31
M  V30 35 1 14 32
M  V30 36 1 15 33
M  V30 37 1 18 34
M  V30 38 1 20 35
M  V30 39 1 20 36
M  V30 40 1 22 37
M  V30 41 1 23 38
M  V30 END BOND
M  V30 END CTAB
M  END
>  <Dataset>  (258) 
ChEMBL_Kinases

>  <Ligand_Instance>  (258) 
nan

>  <PDB_ID>  (258) 
nan

>  <Standardized_SMILES>  (258) 
c1ccc(CNc2ncncc2-c2ccc3c(c2)OCO3)cc1

>  <Name>  (258) 
nan

>  <Pocket>  (258) 
nan

>  <ATP_Site>  (258) 
nan

>  <Peripheral>  (258) 
nan

>  <Num_H_Atoms_ProtBoundConf>  (258) 
nan

>  <Num_Resolved_Atoms>  (258) 
nan

>  <Num_Not_Resolved_Atoms>  (258) 
nan

$$$$
CHEMBL1355256
     RDKit          3D

  0  0  0  0  0  0  0  0  0  0999 V3000
M  V30 BEGIN CTAB
M  V30 COUNTS 42 44 0 0 0
M  V30 BEGIN ATOM
M  V30 1 C -0.672052 -3.566849 0.848431 0
M  V30 2 O 0.341690 -2.680418 0.508876 0
M  V30 3 C 1.656321 -2.882783 0.817553 0
M  V30 4 C 2.134110 -3.982030 1.497315 0
M  V30 5 C 3.450841 -4.204390 1.820029 0
M  V30 6 C 4.355313 -3.237802 1.423045 0
M  V30 7 C 3.893133 -2.148139 0.750080 0
M  V30 8 C 2.573130 -1.917999 0.422174 0
M  V30 9 C 2.297920 -0.691975 -0.302244 0
M  V30 10 C 1.118804 -0.229918 -0.822833 0
M  V30 11 C 0.887002 0.915847 -1.513225 0
M  V30 12 N -0.441016 1.237371 -1.977235 0
M  V30 13 C -1.224235 2.145823 -1.134040 0
M  V30 14 C -1.347153 1.689423 0.253568 0
M  V30 15 C -0.312900 2.187315 1.060993 0
M  V30 16 C -0.206336 1.900189 2.405162 0
M  V30 17 C -1.138909 1.091706 3.019232 0
M  V30 18 C -2.147372 0.611681 2.214532 0
M  V30 19 C -3.158598 -0.258283 2.856080 0
M  V30 20 C -2.269006 0.886837 0.875187 0
M  V30 21 N 1.972295 1.720950 -1.719146 0
M  V30 22 C 3.185954 1.321899 -1.225865 0
M  V30 23 N 3.314650 0.169301 -0.554739 0
M  V30 24 H -0.425604 -4.295844 1.614335 0
M  V30 25 H -1.597723 -3.040400 1.218105 0
M  V30 26 H -1.038375 -4.074544 -0.085832 0
M  V30 27 H 1.474360 -4.782347 1.834874 0
M  V30 28 H 3.795692 -5.069445 2.349977 0
M  V30 29 H 5.392069 -3.389976 1.665728 0
M  V30 30 H 4.702027 -1.446468 0.485423 0
M  V30 31 H 0.259504 -0.843353 -0.677557 0
M  V30 32 H -0.636099 0.748959 -2.876039 0
M  V30 33 H -0.839038 3.169910 -1.218621 0
M  V30 34 H -2.264088 2.175682 -1.581090 0
M  V30 35 H 0.495744 2.841243 0.709992 0
M  V30 36 H 0.586426 2.280836 3.034437 0
M  V30 37 H -1.071492 0.856133 4.072277 0
M  V30 38 H -3.953576 0.364819 3.327126 0
M  V30 39 H -2.685524 -0.873067 3.675143 0
M  V30 40 H -3.597546 -0.986876 2.139909 0
M  V30 41 H -3.039023 0.533384 0.211079 0
M  V30 42 H 4.043571 1.961053 -1.390485 0
M  V30 END ATOM
M  V30 BEGIN BOND
M  V30 1 1 1 2
M  V30 2 1 2 3
M  V30 3 2 3 4
M  V30 4 1 4 5
M  V30 5 2 5 6
M  V30 6 1 6 7
M  V30 7 2 7 8
M  V30 8 1 8 9
M  V30 9 2 9 10
M  V30 10 1 10 11
M  V30 11 1 11 12
M  V30 12 1 12 13
M  V30 13 1 13 14
M  V30 14 2 14 15
M  V30 15 1 15 16
M  V30 16 2 16 17
M  V30 17 1 17 18
M  V30 18 1 18 19
M  V30 19 2 18 20
M  V30 20 2 11 21
M  V30 21 1 21 22
M  V30 22 2 22 23
M  V30 23 1 8 3
M  V30 24 1 23 9
M  V30 25 1 20 14
M  V30 26 1 1 24
M  V30 27 1 1 25
M  V30 28 1 1 26
M  V30 29 1 4 27
M  V30 30 1 5 28
M  V30 31 1 6 29
M  V30 32 1 7 30
M  V30 33 1 10 31
M  V30 34 1 12 32
M  V30 35 1 13 33
M  V30 36 1 13 34
M  V30 37 1 15 35
M  V30 38 1 16 36
M  V30 39 1 17 37
M  V30 40 1 19 38
M  V30 41 1 19 39
M  V30 42 1 19 40
M  V30 43 1 20 41
M  V30 44 1 22 42
M  V30 END BOND
M  V30 END CTAB
M  END
>  <Dataset>  (259) 
ChEMBL_Kinases

>  <Ligand_Instance>  (259) 
nan

>  <PDB_ID>  (259) 
nan

>  <Standardized_SMILES>  (259) 
COc1ccccc1-c1cc(NCc2cccc(C)c2)ncn1

>  <Name>  (259) 
nan

>  <Pocket>  (259) 
nan

>  <ATP_Site>  (259) 
nan

>  <Peripheral>  (259) 
nan

>  <Num_H_Atoms_ProtBoundConf>  (259) 
nan

>  <Num_Resolved_Atoms>  (259) 
nan

>  <Num_Not_Resolved_Atoms>  (259) 
nan

$$$$
CHEMBL1354445
     RDKit          3D

  0  0  0  0  0  0  0  0  0  0999 V3000
M  V30 BEGIN CTAB
M  V30 COUNTS 26 26 0 0 0
M  V30 BEGIN ATOM
M  V30 1 N -1.153758 -2.941257 3.283802 0
M  V30 2 C -0.315860 -3.376275 2.402530 0
M  V30 3 N -1.275615 -4.379976 2.007366 0
M  V30 4 N 1.002926 -2.983950 2.022702 0
M  V30 5 N 1.307382 -1.910338 2.815039 0
M  V30 6 C 1.205667 -0.705756 2.382653 0
M  V30 7 C 0.790360 -0.193745 1.089825 0
M  V30 8 C 0.392496 -0.885671 -0.021966 0
M  V30 9 C 0.019421 -0.311373 -1.195505 0
M  V30 10 C 0.025069 1.045374 -1.324017 0
M  V30 11 O -0.343979 1.684955 -2.492550 0
M  V30 12 C 0.424379 1.759153 -0.210271 0
M  V30 13 C 0.450979 3.210403 -0.286491 0
M  V30 14 O 0.782026 4.009585 0.614653 0
M  V30 15 O 0.087579 3.870274 -1.440419 0
M  V30 16 C 0.802620 1.174796 0.979753 0
M  V30 17 H -0.879851 -2.127992 3.889241 0
M  V30 18 H -1.432115 -5.346027 2.342619 0
M  V30 19 H -2.034294 -4.337815 1.278659 0
M  V30 20 H 1.238714 -3.695399 1.265282 0
M  V30 21 H 1.501670 -0.058352 3.195513 0
M  V30 22 H 0.368009 -1.942808 0.018343 0
M  V30 23 H -0.285922 -0.902431 -2.042327 0
M  V30 24 H 0.306506 1.974498 -3.206198 0
M  V30 25 H -0.312128 4.807704 -1.457487 0
M  V30 26 H 1.103677 1.825494 1.807396 0
M  V30 END ATOM
M  V30 BEGIN BOND
M  V30 1 2 1 2 CFG=2
M  V30 2 1 2 3
M  V30 3 1 2 4
M  V30 4 1 4 5
M  V30 5 2 5 6
M  V30 6 1 6 7
M  V30 7 2 7 8
M  V30 8 1 8 9
M  V30 9 2 9 10
M  V30 10 1 10 11
M  V30 11 1 10 12
M  V30 12 1 12 13
M  V30 13 2 13 14
M  V30 14 1 13 15
M  V30 15 2 12 16
M  V30 16 1 16 7
M  V30 17 1 1 17
M  V30 18 1 3 18
M  V30 19 1 3 19
M  V30 20 1 4 20
M  V30 21 1 6 21
M  V30 22 1 8 22
M  V30 23 1 9 23
M  V30 24 1 11 24
M  V30 25 1 15 25
M  V30 26 1 16 26
M  V30 END BOND
M  V30 END CTAB
M  END
>  <Dataset>  (260) 
ChEMBL_Kinases

>  <Ligand_Instance>  (260) 
nan

>  <PDB_ID>  (260) 
nan

>  <Standardized_SMILES>  (260) 
N=C(N)N/N=C\c1ccc(O)c(C(=O)O)c1

>  <Name>  (260) 
nan

>  <Pocket>  (260) 
nan

>  <ATP_Site>  (260) 
nan

>  <Peripheral>  (260) 
nan

>  <Num_H_Atoms_ProtBoundConf>  (260) 
nan

>  <Num_Resolved_Atoms>  (260) 
nan

>  <Num_Not_Resolved_Atoms>  (260) 
nan

$$$$
CHEMBL1372379
     RDKit          3D

  0  0  0  0  0  0  0  0  0  0999 V3000
M  V30 BEGIN CTAB
M  V30 COUNTS 58 62 0 0 0
M  V30 BEGIN ATOM
M  V30 1 C -4.991143 -3.606324 -1.908615 0
M  V30 2 C -4.439103 -2.759020 -0.816533 0
M  V30 3 O -4.947494 -2.911580 0.347277 0
M  V30 4 O -3.409290 -1.883054 -1.214463 0
M  V30 5 C -2.880867 -1.072026 -0.181754 0 CFG=1
M  V30 6 C -3.957116 -0.198760 0.395396 0
M  V30 7 C -5.393400 -0.038485 0.059140 0
M  V30 8 O -3.675663 0.562794 1.333074 0
M  V30 9 C -2.329882 -1.918746 0.909782 0
M  V30 10 C -1.417582 -0.930221 1.644412 0
M  V30 11 C -1.015184 0.091082 0.636624 0
M  V30 12 C 0.470154 0.269537 0.469925 0
M  V30 13 C 1.207432 -1.022480 0.468305 0
M  V30 14 C 2.405631 -1.080376 -0.096148 0
M  V30 15 Cl 3.408496 -2.482171 -0.196249 0
M  V30 16 C 2.936985 0.141537 -0.689647 0
M  V30 17 C 4.213132 0.212616 -1.107882 0
M  V30 18 C 4.729963 1.463271 -1.707421 0
M  V30 19 O 5.919191 1.780535 -1.361898 0
M  V30 20 C 3.822145 2.187650 -2.622591 0
M  V30 21 C 3.099188 3.407375 -2.259935 0
M  V30 22 C 2.435907 2.098067 -2.175671 0
M  V30 23 C 2.162463 1.394196 -0.887392 0 CFG=2
M  V30 24 C 2.515746 2.263081 0.321351 0
M  V30 25 C 0.700406 1.002860 -0.821204 0
M  V30 26 C 0.256411 0.156708 -1.958847 0
M  V30 27 C -0.819541 -0.839969 -1.594788 0
M  V30 28 C -1.758191 -0.207861 -0.614385 0 CFG=1
M  V30 29 C -2.352727 1.005560 -1.286917 0
M  V30 30 H -4.265412 -4.424906 -2.067528 0
M  V30 31 H -5.095818 -2.955252 -2.802438 0
M  V30 32 H -5.981060 -3.994427 -1.628812 0
M  V30 33 H -5.666519 1.056204 -0.014752 0
M  V30 34 H -6.019450 -0.440681 0.881101 0
M  V30 35 H -5.702288 -0.576764 -0.863303 0
M  V30 36 H -3.108713 -2.263912 1.640385 0
M  V30 37 H -1.798548 -2.805657 0.551996 0
M  V30 38 H -0.624211 -1.530421 2.081778 0
M  V30 39 H -1.975627 -0.498398 2.527383 0
M  V30 40 H -1.428254 1.075379 1.010711 0
M  V30 41 H 0.806592 0.868408 1.336952 0
M  V30 42 H 0.934181 -2.013189 0.872571 0
M  V30 43 H 4.857744 -0.674679 -0.992678 0
M  V30 44 H 4.097641 2.047296 -3.709585 0
M  V30 45 H 3.478387 3.990725 -1.421047 0
M  V30 46 H 2.819152 4.090318 -3.116010 0
M  V30 47 H 1.681834 1.885203 -2.989457 0
M  V30 48 H 2.701345 1.593437 1.212449 0
M  V30 49 H 1.767366 3.036704 0.501602 0
M  V30 50 H 3.551697 2.668691 0.122074 0
M  V30 51 H 0.166896 1.968207 -0.732469 0
M  V30 52 H 1.125855 -0.487545 -2.287559 0
M  V30 53 H 0.009490 0.721094 -2.897718 0
M  V30 54 H -0.446013 -1.786049 -1.184867 0
M  V30 55 H -1.396741 -1.128469 -2.513887 0
M  V30 56 H -3.364607 0.764409 -1.677380 0
M  V30 57 H -2.509287 1.850639 -0.571072 0
M  V30 58 H -1.798900 1.333026 -2.191634 0
M  V30 END ATOM
M  V30 BEGIN BOND
M  V30 1 1 1 2
M  V30 2 2 2 3
M  V30 3 1 2 4
M  V30 4 1 5 4 CFG=3
M  V30 5 1 5 6
M  V30 6 1 6 7
M  V30 7 2 6 8
M  V30 8 1 5 9
M  V30 9 1 9 10
M  V30 10 1 10 11
M  V30 11 1 11 12
M  V30 12 1 12 13
M  V30 13 2 13 14
M  V30 14 1 14 15
M  V30 15 1 14 16
M  V30 16 2 16 17
M  V30 17 1 17 18
M  V30 18 2 18 19
M  V30 19 1 18 20
M  V30 20 1 20 21
M  V30 21 1 21 22
M  V30 22 1 22 23
M  V30 23 1 23 24 CFG=1
M  V30 24 1 23 25
M  V30 25 1 25 26
M  V30 26 1 26 27
M  V30 27 1 27 28
M  V30 28 1 28 29 CFG=3
M  V30 29 1 28 5
M  V30 30 1 28 11
M  V30 31 1 25 12
M  V30 32 1 23 16
M  V30 33 1 22 20
M  V30 34 1 1 30
M  V30 35 1 1 31
M  V30 36 1 1 32
M  V30 37 1 7 33
M  V30 38 1 7 34
M  V30 39 1 7 35
M  V30 40 1 9 36
M  V30 41 1 9 37
M  V30 42 1 10 38
M  V30 43 1 10 39
M  V30 44 1 11 40
M  V30 45 1 12 41
M  V30 46 1 13 42
M  V30 47 1 17 43
M  V30 48 1 20 44
M  V30 49 1 21 45
M  V30 50 1 21 46
M  V30 51 1 22 47
M  V30 52 1 24 48
M  V30 53 1 24 49
M  V30 54 1 24 50
M  V30 55 1 25 51
M  V30 56 1 26 52
M  V30 57 1 26 53
M  V30 58 1 27 54
M  V30 59 1 27 55
M  V30 60 1 29 56
M  V30 61 1 29 57
M  V30 62 1 29 58
M  V30 END BOND
M  V30 END CTAB
M  END
>  <Dataset>  (261) 
ChEMBL_Kinases

>  <Ligand_Instance>  (261) 
nan

>  <PDB_ID>  (261) 
nan

>  <Standardized_SMILES>  (261) 
CC(=O)O[C@@]1(C(C)=O)CCC2C3C=C(Cl)C4=CC(=O)C5CC5[C@@]4(C)C3CC[C@]21C

>  <Name>  (261) 
nan

>  <Pocket>  (261) 
nan

>  <ATP_Site>  (261) 
nan

>  <Peripheral>  (261) 
nan

>  <Num_H_Atoms_ProtBoundConf>  (261) 
nan

>  <Num_Resolved_Atoms>  (261) 
nan

>  <Num_Not_Resolved_Atoms>  (261) 
nan

$$$$
CHEMBL1372193
     RDKit          3D

  0  0  0  0  0  0  0  0  0  0999 V3000
M  V30 BEGIN CTAB
M  V30 COUNTS 52 55 0 0 0
M  V30 BEGIN ATOM
M  V30 1 C -0.101137 -1.468717 3.679345 0
M  V30 2 C -0.326709 -0.969532 2.268478 0
M  V30 3 C 0.797341 -1.505064 1.411539 0
M  V30 4 C 2.142702 -1.086009 1.837609 0
M  V30 5 N 2.870772 -1.731941 2.803593 0
M  V30 6 N 4.038397 -1.168674 3.001755 0
M  V30 7 N 4.096305 -0.153323 2.178190 0
M  V30 8 N 2.956035 -0.085658 1.464102 0
M  V30 9 C 2.768352 0.960130 0.537620 0
M  V30 10 C 2.256717 2.225820 1.166911 0
M  V30 11 C 0.960027 2.657861 1.341643 0
M  V30 12 C 0.632341 3.849282 1.944111 0
M  V30 13 C 1.621770 4.686956 2.412672 0
M  V30 14 C 2.950097 4.347370 2.286914 0
M  V30 15 C 3.197139 3.138765 1.672927 0
M  V30 16 N 0.517181 -1.698104 0.065402 0
M  V30 17 C -0.085624 -0.798157 -0.794608 0
M  V30 18 C -1.321292 -1.320842 -1.509963 0
M  V30 19 N -1.174488 -2.732315 -1.680930 0
M  V30 20 C -2.297907 -3.590837 -1.709507 0
M  V30 21 O -2.143524 -4.849917 -1.866123 0
M  V30 22 C -3.653519 -3.078837 -1.563177 0
M  V30 23 C -4.279413 -3.556107 -0.405286 0
M  V30 24 C -5.560747 -3.004802 -0.369216 0
M  V30 25 C -5.621824 -2.220761 -1.524879 0
M  V30 26 O -4.495986 -2.286268 -2.196398 0
M  V30 27 C 0.175336 -3.234310 -1.816332 0
M  V30 28 C 0.958266 -2.889680 -0.570503 0
M  V30 29 H 0.337951 -2.491351 3.684736 0
M  V30 30 H -1.076738 -1.578843 4.232245 0
M  V30 31 H 0.530258 -0.812602 4.292684 0
M  V30 32 H -1.275334 -1.454308 1.932603 0
M  V30 33 H -0.493903 0.092654 2.241692 0
M  V30 34 H 0.759841 -2.613415 1.792242 0
M  V30 35 H 3.784328 1.263911 0.132573 0
M  V30 36 H 2.220860 0.731729 -0.391274 0
M  V30 37 H 0.206136 1.986798 0.967894 0
M  V30 38 H -0.425050 4.068355 2.017878 0
M  V30 39 H 1.362697 5.619371 2.884238 0
M  V30 40 H 3.777831 4.952084 2.629504 0
M  V30 41 H 4.248503 2.861979 1.569505 0
M  V30 42 H -0.348798 0.187672 -0.424591 0
M  V30 43 H 0.658495 -0.592358 -1.626813 0
M  V30 44 H -2.254778 -1.025837 -0.994145 0
M  V30 45 H -1.346515 -0.846268 -2.507400 0
M  V30 46 H -4.039614 -4.209620 0.427665 0
M  V30 47 H -6.410885 -3.057725 0.294997 0
M  V30 48 H -6.412362 -1.605011 -1.922898 0
M  V30 49 H 0.110766 -4.336337 -1.878558 0
M  V30 50 H 0.679075 -2.895074 -2.732823 0
M  V30 51 H 2.043689 -2.844477 -0.841816 0
M  V30 52 H 0.851278 -3.734202 0.137661 0
M  V30 END ATOM
M  V30 BEGIN BOND
M  V30 1 1 1 2
M  V30 2 1 2 3
M  V30 3 1 3 4
M  V30 4 2 4 5
M  V30 5 1 5 6
M  V30 6 2 6 7
M  V30 7 1 7 8
M  V30 8 1 8 9
M  V30 9 1 9 10
M  V30 10 2 10 11
M  V30 11 1 11 12
M  V30 12 2 12 13
M  V30 13 1 13 14
M  V30 14 2 14 15
M  V30 15 1 3 16
M  V30 16 1 16 17
M  V30 17 1 17 18
M  V30 18 1 18 19
M  V30 19 1 19 20
M  V30 20 2 20 21
M  V30 21 1 20 22
M  V30 22 2 22 23
M  V30 23 1 23 24
M  V30 24 2 24 25
M  V30 25 1 25 26
M  V30 26 1 19 27
M  V30 27 1 27 28
M  V30 28 1 8 4
M  V30 29 1 15 10
M  V30 30 1 28 16
M  V30 31 1 26 22
M  V30 32 1 1 29
M  V30 33 1 1 30
M  V30 34 1 1 31
M  V30 35 1 2 32
M  V30 36 1 2 33
M  V30 37 1 3 34
M  V30 38 1 9 35
M  V30 39 1 9 36
M  V30 40 1 11 37
M  V30 41 1 12 38
M  V30 42 1 13 39
M  V30 43 1 14 40
M  V30 44 1 15 41
M  V30 45 1 17 42
M  V30 46 1 17 43
M  V30 47 1 18 44
M  V30 48 1 18 45
M  V30 49 1 23 46
M  V30 50 1 24 47
M  V30 51 1 25 48
M  V30 52 1 27 49
M  V30 53 1 27 50
M  V30 54 1 28 51
M  V30 55 1 28 52
M  V30 END BOND
M  V30 END CTAB
M  END
>  <Dataset>  (262) 
ChEMBL_Kinases

>  <Ligand_Instance>  (262) 
nan

>  <PDB_ID>  (262) 
nan

>  <Standardized_SMILES>  (262) 
CCC(c1nnnn1Cc1ccccc1)N1CCN(C(=O)c2ccco2)CC1

>  <Name>  (262) 
nan

>  <Pocket>  (262) 
nan

>  <ATP_Site>  (262) 
nan

>  <Peripheral>  (262) 
nan

>  <Num_H_Atoms_ProtBoundConf>  (262) 
nan

>  <Num_Resolved_Atoms>  (262) 
nan

>  <Num_Not_Resolved_Atoms>  (262) 
nan

$$$$
CHEMBL1372127
     RDKit          3D

  0  0  0  0  0  0  0  0  0  0999 V3000
M  V30 BEGIN CTAB
M  V30 COUNTS 35 36 0 0 0
M  V30 BEGIN ATOM
M  V30 1 C 1.045331 -2.492712 3.455376 0
M  V30 2 O 0.660229 -1.731635 2.363949 0
M  V30 3 C 0.651249 -2.241908 1.017657 0
M  V30 4 C 0.975653 -3.447760 0.523013 0
M  V30 5 C 0.852736 -3.605678 -0.845374 0
M  V30 6 S 1.332598 -5.267690 -1.251512 0
M  V30 7 C 3.115961 -5.310509 -1.582513 0
M  V30 8 C 0.399445 -2.471790 -1.548915 0
M  V30 9 C 0.115195 -1.285709 -0.787477 0
M  V30 10 C 0.212484 -1.006560 0.691481 0
M  V30 11 C -0.244338 0.279582 0.351713 0
M  V30 12 O -0.160968 0.336914 1.633488 0
M  V30 13 N -0.670247 1.381721 -0.366095 0
M  V30 14 C -0.989319 2.521994 0.422682 0
M  V30 15 C -0.040772 3.451909 0.786609 0
M  V30 16 C -0.287038 4.578604 1.530870 0
M  V30 17 C -1.614999 4.716020 1.902806 0
M  V30 18 C -2.606609 3.835970 1.577894 0
M  V30 19 C -2.316994 2.717005 0.829151 0
M  V30 20 C -3.295619 1.748031 0.442780 0
M  V30 21 N -4.089034 0.950000 0.131776 0
M  V30 22 H 1.711948 -3.327597 3.211447 0
M  V30 23 H 0.133240 -2.819738 3.995684 0
M  V30 24 H 1.652197 -1.832329 4.134744 0
M  V30 25 H 1.271256 -4.033875 1.381935 0
M  V30 26 H 3.619257 -4.345360 -1.294065 0
M  V30 27 H 3.341283 -5.438280 -2.659689 0
M  V30 28 H 3.622854 -6.098177 -0.972238 0
M  V30 29 H 0.407733 -2.897519 -2.566116 0
M  V30 30 H -0.166475 -0.810539 -1.797427 0
M  V30 31 H -0.610943 0.981440 -1.320392 0
M  V30 32 H 1.001149 3.307691 0.472035 0
M  V30 33 H 0.451491 5.305107 1.815891 0
M  V30 34 H -1.932475 5.562929 2.493161 0
M  V30 35 H -3.653296 3.918993 1.854962 0
M  V30 END ATOM
M  V30 BEGIN BOND
M  V30 1 1 1 2
M  V30 2 1 2 3
M  V30 3 2 3 4
M  V30 4 1 4 5
M  V30 5 1 5 6
M  V30 6 1 6 7
M  V30 7 2 5 8
M  V30 8 1 8 9
M  V30 9 2 9 10
M  V30 10 1 10 11
M  V30 11 2 11 12
M  V30 12 1 11 13
M  V30 13 1 13 14
M  V30 14 2 14 15
M  V30 15 1 15 16
M  V30 16 2 16 17
M  V30 17 1 17 18
M  V30 18 2 18 19
M  V30 19 1 19 20
M  V30 20 3 20 21
M  V30 21 1 10 3
M  V30 22 1 19 14
M  V30 23 1 1 22
M  V30 24 1 1 23
M  V30 25 1 1 24
M  V30 26 1 4 25
M  V30 27 1 7 26
M  V30 28 1 7 27
M  V30 29 1 7 28
M  V30 30 1 8 29
M  V30 31 1 9 30
M  V30 32 1 13 31
M  V30 33 1 15 32
M  V30 34 1 16 33
M  V30 35 1 17 34
M  V30 36 1 18 35
M  V30 END BOND
M  V30 END CTAB
M  END
>  <Dataset>  (263) 
ChEMBL_Kinases

>  <Ligand_Instance>  (263) 
nan

>  <PDB_ID>  (263) 
nan

>  <Standardized_SMILES>  (263) 
COc1cc(SC)ccc1C(=O)Nc1ccccc1C#N

>  <Name>  (263) 
nan

>  <Pocket>  (263) 
nan

>  <ATP_Site>  (263) 
nan

>  <Peripheral>  (263) 
nan

>  <Num_H_Atoms_ProtBoundConf>  (263) 
nan

>  <Num_Resolved_Atoms>  (263) 
nan

>  <Num_Not_Resolved_Atoms>  (263) 
nan

$$$$
CHEMBL1372111
     RDKit          3D

  0  0  0  0  0  0  0  0  0  0999 V3000
M  V30 BEGIN CTAB
M  V30 COUNTS 23 24 0 0 0
M  V30 BEGIN ATOM
M  V30 1 O 0.375808 -0.483267 3.023702 0
M  V30 2 C 0.540785 -1.400416 2.019295 0
M  V30 3 C 0.708642 -2.734169 2.328853 0
M  V30 4 C 0.880186 -3.714559 1.373421 0
M  V30 5 C 0.875892 -3.287981 0.061074 0
M  V30 6 C 0.707670 -1.944445 -0.272061 0
M  V30 7 C 0.538330 -0.987015 0.705530 0
M  V30 8 C 0.367923 0.398343 0.287554 0
M  V30 9 C 0.180805 1.572260 0.980646 0
M  V30 10 C 0.071308 2.638803 0.126565 0
M  V30 11 C -0.136398 4.059061 0.507151 0
M  V30 12 F -1.086025 4.166804 1.493587 0
M  V30 13 F -0.601718 4.738329 -0.591896 0
M  V30 14 F 1.092484 4.571503 0.909913 0
M  V30 15 N 0.195812 2.086454 -1.093775 0
M  V30 16 N 0.369396 0.776495 -1.003536 0
M  V30 17 H -0.298905 -0.713906 3.755139 0
M  V30 18 H 0.708044 -3.041371 3.364567 0
M  V30 19 H 1.012863 -4.763557 1.600901 0
M  V30 20 H 1.009742 -4.040764 -0.725092 0
M  V30 21 H 0.721121 -1.725493 -1.330240 0
M  V30 22 H 0.130841 1.617204 2.056837 0
M  V30 23 H 0.150039 2.688530 -1.969023 0
M  V30 END ATOM
M  V30 BEGIN BOND
M  V30 1 1 1 2
M  V30 2 2 2 3
M  V30 3 1 3 4
M  V30 4 2 4 5
M  V30 5 1 5 6
M  V30 6 2 6 7
M  V30 7 1 7 8
M  V30 8 1 8 9
M  V30 9 2 9 10
M  V30 10 1 10 11
M  V30 11 1 11 12
M  V30 12 1 11 13
M  V30 13 1 11 14
M  V30 14 1 10 15
M  V30 15 1 15 16
M  V30 16 1 7 2
M  V30 17 2 16 8
M  V30 18 1 1 17
M  V30 19 1 3 18
M  V30 20 1 4 19
M  V30 21 1 5 20
M  V30 22 1 6 21
M  V30 23 1 9 22
M  V30 24 1 15 23
M  V30 END BOND
M  V30 END CTAB
M  END
>  <Dataset>  (264) 
ChEMBL_Kinases

>  <Ligand_Instance>  (264) 
nan

>  <PDB_ID>  (264) 
nan

>  <Standardized_SMILES>  (264) 
Oc1ccccc1-c1cc(C(F)(F)F)[nH]n1

>  <Name>  (264) 
nan

>  <Pocket>  (264) 
nan

>  <ATP_Site>  (264) 
nan

>  <Peripheral>  (264) 
nan

>  <Num_H_Atoms_ProtBoundConf>  (264) 
nan

>  <Num_Resolved_Atoms>  (264) 
nan

>  <Num_Not_Resolved_Atoms>  (264) 
nan

$$$$
CHEMBL1372085
     RDKit          3D

  0  0  0  0  0  0  0  0  0  0999 V3000
M  V30 BEGIN CTAB
M  V30 COUNTS 29 32 0 0 0
M  V30 BEGIN ATOM
M  V30 1 O -0.570892 0.781207 4.452133 0
M  V30 2 N -1.396934 0.359207 3.625096 0
M  V30 3 C -1.054740 -0.334694 2.446722 0
M  V30 4 C 0.034893 -0.061092 1.646791 0
M  V30 5 N 1.010318 0.861561 1.736462 0
M  V30 6 C 1.934825 0.824535 0.737734 0
M  V30 7 C 2.942596 1.766257 0.816681 0
M  V30 8 C 3.929323 1.812572 -0.147203 0
M  V30 9 C 3.911724 0.913741 -1.197664 0
M  V30 10 C 2.895124 -0.040187 -1.282004 0
M  V30 11 C 1.906528 -0.081183 -0.309867 0
M  V30 12 N 0.916569 -1.000862 -0.380998 0 CHG=1 VAL=4
M  V30 13 O 0.882977 -1.902978 -1.418844 0 CHG=-1 VAL=1
M  V30 14 C -0.042298 -1.041601 0.560754 0
M  V30 15 C -1.171055 -1.827624 0.791862 0
M  V30 16 C -1.652408 -2.880374 0.037308 0
M  V30 17 C -2.812685 -3.533240 0.459283 0
M  V30 18 C -3.386205 -3.055442 1.619602 0
M  V30 19 C -2.944095 -2.010323 2.405610 0
M  V30 20 C -1.791773 -1.390883 1.952106 0
M  V30 21 H 1.074200 1.560104 2.501008 0
M  V30 22 H 3.074298 2.521687 1.578821 0
M  V30 23 H 4.775082 2.485984 -0.219948 0
M  V30 24 H 4.618597 0.841536 -2.013461 0
M  V30 25 H 2.839496 -0.768829 -2.090851 0
M  V30 26 H -1.172197 -3.220511 -0.862982 0
M  V30 27 H -3.264266 -4.364645 -0.062862 0
M  V30 28 H -4.299478 -3.549696 1.975066 0
M  V30 29 H -3.464628 -1.716626 3.292338 0
M  V30 END ATOM
M  V30 BEGIN BOND
M  V30 1 2 1 2
M  V30 2 1 2 3
M  V30 3 2 3 4
M  V30 4 1 4 5
M  V30 5 1 5 6
M  V30 6 2 6 7
M  V30 7 1 7 8
M  V30 8 2 8 9
M  V30 9 1 9 10
M  V30 10 2 10 11
M  V30 11 1 11 12
M  V30 12 1 12 13
M  V30 13 2 12 14
M  V30 14 1 14 15
M  V30 15 2 15 16
M  V30 16 1 16 17
M  V30 17 2 17 18
M  V30 18 1 18 19
M  V30 19 2 19 20
M  V30 20 1 20 3
M  V30 21 1 14 4
M  V30 22 1 20 15
M  V30 23 1 11 6
M  V30 24 1 5 21
M  V30 25 1 7 22
M  V30 26 1 8 23
M  V30 27 1 9 24
M  V30 28 1 10 25
M  V30 29 1 16 26
M  V30 30 1 17 27
M  V30 31 1 18 28
M  V30 32 1 19 29
M  V30 END BOND
M  V30 END CTAB
M  END
>  <Dataset>  (265) 
ChEMBL_Kinases

>  <Ligand_Instance>  (265) 
nan

>  <PDB_ID>  (265) 
nan

>  <Standardized_SMILES>  (265) 
O=Nc1c2[nH]c3ccccc3[n+]([O-])c-2c2ccccc12

>  <Name>  (265) 
nan

>  <Pocket>  (265) 
nan

>  <ATP_Site>  (265) 
nan

>  <Peripheral>  (265) 
nan

>  <Num_H_Atoms_ProtBoundConf>  (265) 
nan

>  <Num_Resolved_Atoms>  (265) 
nan

>  <Num_Not_Resolved_Atoms>  (265) 
nan

$$$$
CHEMBL1372049
     RDKit          3D

  0  0  0  0  0  0  0  0  0  0999 V3000
M  V30 BEGIN CTAB
M  V30 COUNTS 36 37 0 0 0
M  V30 BEGIN ATOM
M  V30 1 C -1.135633 -2.897724 4.362514 0
M  V30 2 C -0.028106 -3.540921 3.526406 0
M  V30 3 O 0.015596 -2.826957 2.298428 0
M  V30 4 C 0.896677 -3.115690 1.273177 0
M  V30 5 O 1.682444 -4.074388 1.492223 0
M  V30 6 C 0.724710 -2.216986 0.111769 0
M  V30 7 C -0.045745 -2.261896 -1.031908 0
M  V30 8 C -0.944089 -3.391752 -1.291198 0
M  V30 9 N 0.216091 -1.137454 -1.749081 0
M  V30 10 N 1.108964 -0.382443 -1.124537 0
M  V30 11 C 1.667414 0.892641 -1.534319 0
M  V30 12 C 0.796878 1.962374 -0.984722 0
M  V30 13 C -0.253148 2.372607 -1.794751 0
M  V30 14 C -1.149487 3.357810 -1.423392 0
M  V30 15 C -0.949330 3.933683 -0.174252 0
M  V30 16 C 0.075249 3.563960 0.667316 0
M  V30 17 C 0.931156 2.577683 0.236529 0
M  V30 18 C 1.443018 -1.019358 0.025751 0
M  V30 19 N 2.391906 -0.514426 0.986048 0
M  V30 20 H -0.721460 -2.089370 5.002989 0
M  V30 21 H -1.895683 -2.399887 3.723401 0
M  V30 22 H -1.681484 -3.661434 4.958955 0
M  V30 23 H 0.936432 -3.545473 4.064998 0
M  V30 24 H -0.299290 -4.608600 3.395620 0
M  V30 25 H -0.416680 -4.270073 -1.748244 0
M  V30 26 H -1.421375 -3.734584 -0.350595 0
M  V30 27 H -1.761075 -3.088011 -1.981053 0
M  V30 28 H 1.740361 0.997375 -2.633703 0
M  V30 29 H 2.658028 1.035657 -1.033892 0
M  V30 30 H -0.433496 1.937716 -2.779678 0
M  V30 31 H -1.962092 3.656906 -2.081002 0
M  V30 32 H -1.664758 4.714370 0.112675 0
M  V30 33 H 0.207433 4.030960 1.637315 0
M  V30 34 H 1.761458 2.238431 0.852204 0
M  V30 35 H 2.287437 0.063597 1.835637 0
M  V30 36 H 3.435347 -0.685215 0.947354 0
M  V30 END ATOM
M  V30 BEGIN BOND
M  V30 1 1 1 2
M  V30 2 1 2 3
M  V30 3 1 3 4
M  V30 4 2 4 5
M  V30 5 1 4 6
M  V30 6 1 6 7
M  V30 7 1 7 8
M  V30 8 2 7 9
M  V30 9 1 9 10
M  V30 10 1 10 11
M  V30 11 1 11 12
M  V30 12 2 12 13
M  V30 13 1 13 14
M  V30 14 2 14 15
M  V30 15 1 15 16
M  V30 16 2 16 17
M  V30 17 1 10 18
M  V30 18 1 18 19
M  V30 19 2 18 6
M  V30 20 1 17 12
M  V30 21 1 1 20
M  V30 22 1 1 21
M  V30 23 1 1 22
M  V30 24 1 2 23
M  V30 25 1 2 24
M  V30 26 1 8 25
M  V30 27 1 8 26
M  V30 28 1 8 27
M  V30 29 1 11 28
M  V30 30 1 11 29
M  V30 31 1 13 30
M  V30 32 1 14 31
M  V30 33 1 15 32
M  V30 34 1 16 33
M  V30 35 1 17 34
M  V30 36 1 19 35
M  V30 37 1 19 36
M  V30 END BOND
M  V30 END CTAB
M  END
>  <Dataset>  (266) 
ChEMBL_Kinases

>  <Ligand_Instance>  (266) 
nan

>  <PDB_ID>  (266) 
nan

>  <Standardized_SMILES>  (266) 
CCOC(=O)c1c(C)nn(Cc2ccccc2)c1N

>  <Name>  (266) 
nan

>  <Pocket>  (266) 
nan

>  <ATP_Site>  (266) 
nan

>  <Peripheral>  (266) 
nan

>  <Num_H_Atoms_ProtBoundConf>  (266) 
nan

>  <Num_Resolved_Atoms>  (266) 
nan

>  <Num_Not_Resolved_Atoms>  (266) 
nan

$$$$
CHEMBL1372025
     RDKit          3D

  0  0  0  0  0  0  0  0  0  0999 V3000
M  V30 BEGIN CTAB
M  V30 COUNTS 37 39 0 0 0
M  V30 BEGIN ATOM
M  V30 1 C -1.631865 -6.215897 0.988007 0
M  V30 2 N -1.844810 -5.102451 1.894673 0
M  V30 3 C -1.087293 -3.905028 1.815992 0
M  V30 4 C -0.104423 -3.728220 0.868512 0
M  V30 5 C 0.602446 -2.546009 0.827167 0
M  V30 6 C 0.376212 -1.482877 1.714264 0
M  V30 7 C 1.149969 -0.257569 1.554604 0
M  V30 8 C 1.358569 0.413459 0.407576 0
M  V30 9 C 0.788077 -0.047356 -0.896715 0
M  V30 10 S -0.089965 1.360027 -1.690535 0
M  V30 11 C 0.949905 2.809044 -1.429258 0
M  V30 12 C 0.701426 3.874922 -2.256434 0
M  V30 13 C 1.526799 4.962536 -2.063761 0
M  V30 14 C 2.548215 5.025280 -1.117254 0
M  V30 15 C 2.753964 3.902713 -0.298865 0
M  V30 16 C 1.947685 2.787311 -0.456995 0
M  V30 17 C 2.157570 1.633383 0.438535 0
M  V30 18 O 3.102205 1.714576 1.293543 0
M  V30 19 C -0.612701 -1.694290 2.648965 0
M  V30 20 C -1.336297 -2.864706 2.715867 0
M  V30 21 N -2.309590 -2.926920 3.716978 0 CHG=1 VAL=4
M  V30 22 O -2.867584 -3.740410 4.472596 0
M  V30 23 O -2.950692 -1.764249 4.096202 0 CHG=-1 VAL=1
M  V30 24 H -2.555032 -6.817294 0.950211 0
M  V30 25 H -0.773556 -6.846320 1.320005 0
M  V30 26 H -1.408264 -5.897459 -0.052716 0
M  V30 27 H -2.588975 -5.189794 2.638855 0
M  V30 28 H 0.076719 -4.540924 0.180945 0
M  V30 29 H 1.354740 -2.537526 0.047269 0
M  V30 30 H 1.586254 0.115082 2.497218 0
M  V30 31 H 1.566156 -0.391084 -1.572352 0
M  V30 32 H 0.019407 -0.816915 -0.786945 0
M  V30 33 H -0.082481 3.867109 -2.997909 0
M  V30 34 H 1.347327 5.822995 -2.710881 0
M  V30 35 H 3.133904 5.941162 -1.059496 0
M  V30 36 H 3.556020 3.984078 0.424267 0
M  V30 37 H -0.762392 -0.856805 3.320834 0
M  V30 END ATOM
M  V30 BEGIN BOND
M  V30 1 1 1 2
M  V30 2 1 2 3
M  V30 3 2 3 4
M  V30 4 1 4 5
M  V30 5 2 5 6
M  V30 6 1 6 7
M  V30 7 2 7 8
M  V30 8 1 8 9
M  V30 9 1 9 10
M  V30 10 1 10 11
M  V30 11 2 11 12
M  V30 12 1 12 13
M  V30 13 2 13 14
M  V30 14 1 14 15
M  V30 15 2 15 16
M  V30 16 1 16 17
M  V30 17 2 17 18
M  V30 18 1 6 19
M  V30 19 2 19 20
M  V30 20 1 20 21
M  V30 21 2 21 22
M  V30 22 1 21 23
M  V30 23 1 20 3
M  V30 24 1 17 8
M  V30 25 1 16 11
M  V30 26 1 1 24
M  V30 27 1 1 25
M  V30 28 1 1 26
M  V30 29 1 2 27
M  V30 30 1 4 28
M  V30 31 1 5 29
M  V30 32 1 7 30
M  V30 33 1 9 31
M  V30 34 1 9 32
M  V30 35 1 12 33
M  V30 36 1 13 34
M  V30 37 1 14 35
M  V30 38 1 15 36
M  V30 39 1 19 37
M  V30 END BOND
M  V30 END CTAB
M  END
>  <Dataset>  (267) 
ChEMBL_Kinases

>  <Ligand_Instance>  (267) 
nan

>  <PDB_ID>  (267) 
nan

>  <Standardized_SMILES>  (267) 
CNc1ccc(/C=C2\CSc3ccccc3C2=O)cc1[N+](=O)[O-]

>  <Name>  (267) 
nan

>  <Pocket>  (267) 
nan

>  <ATP_Site>  (267) 
nan

>  <Peripheral>  (267) 
nan

>  <Num_H_Atoms_ProtBoundConf>  (267) 
nan

>  <Num_Resolved_Atoms>  (267) 
nan

>  <Num_Not_Resolved_Atoms>  (267) 
nan

$$$$
CHEMBL1371770
     RDKit          3D

  0  0  0  0  0  0  0  0  0  0999 V3000
M  V30 BEGIN CTAB
M  V30 COUNTS 40 43 0 0 0
M  V30 BEGIN ATOM
M  V30 1 C 1.441522 -3.140079 5.643000 0
M  V30 2 C 1.678384 -4.032966 4.619007 0
M  V30 3 N 1.075524 -3.711359 3.452188 0
M  V30 4 C 0.313960 -2.616556 3.309789 0
M  V30 5 N -0.267078 -2.387315 2.028932 0
M  V30 6 C -0.006824 -3.338465 0.962823 0
M  V30 7 C -0.382545 -2.803268 -0.387301 0
M  V30 8 N -0.441474 -1.413066 -0.551959 0
M  V30 9 C 0.237255 -0.893673 -1.706682 0
M  V30 10 C 0.119389 0.573929 -1.793497 0
M  V30 11 C -0.892855 1.245826 -2.448586 0
M  V30 12 C -0.909119 2.637995 -2.469539 0
M  V30 13 C 0.088588 3.349348 -1.834226 0
M  V30 14 C 1.113771 2.693641 -1.170949 0
M  V30 15 C 1.128553 1.297718 -1.150922 0
M  V30 16 O 1.930785 3.698809 -0.653878 0
M  V30 17 C 1.262479 4.949893 -0.683021 0
M  V30 18 O 0.306766 4.721670 -1.704485 0
M  V30 19 C -0.357492 -0.576470 0.599961 0
M  V30 20 C -1.114079 -1.239058 1.734726 0
M  V30 21 N 0.108464 -1.770812 4.335680 0
M  V30 22 C 0.666964 -1.993313 5.562539 0
M  V30 23 H 1.901547 -3.339473 6.622316 0
M  V30 24 H 2.296587 -4.903072 4.770584 0
M  V30 25 H 1.070913 -3.651160 1.025410 0
M  V30 26 H -0.579148 -4.256839 1.190275 0
M  V30 27 H -1.372057 -3.230755 -0.654176 0
M  V30 28 H 0.340679 -3.274955 -1.111803 0
M  V30 29 H -0.179637 -1.319357 -2.630223 0
M  V30 30 H 1.295573 -1.202189 -1.630994 0
M  V30 31 H -1.651471 0.651644 -2.931258 0
M  V30 32 H -1.720773 3.123463 -2.994421 0
M  V30 33 H 1.969813 0.900680 -0.607733 0
M  V30 34 H 0.688104 5.125172 0.254175 0
M  V30 35 H 1.938356 5.792221 -0.921796 0
M  V30 36 H -0.837885 0.394814 0.416729 0
M  V30 37 H 0.704339 -0.450274 0.919711 0
M  V30 38 H -1.211561 -0.559501 2.578976 0
M  V30 39 H -2.084667 -1.554962 1.297658 0
M  V30 40 H 0.533831 -1.346331 6.418797 0
M  V30 END ATOM
M  V30 BEGIN BOND
M  V30 1 2 1 2
M  V30 2 1 2 3
M  V30 3 2 3 4
M  V30 4 1 4 5
M  V30 5 1 5 6
M  V30 6 1 6 7
M  V30 7 1 7 8
M  V30 8 1 8 9
M  V30 9 1 9 10
M  V30 10 2 10 11
M  V30 11 1 11 12
M  V30 12 2 12 13
M  V30 13 1 13 14
M  V30 14 2 14 15
M  V30 15 1 14 16
M  V30 16 1 16 17
M  V30 17 1 17 18
M  V30 18 1 8 19
M  V30 19 1 19 20
M  V30 20 1 4 21
M  V30 21 2 21 22
M  V30 22 1 22 1
M  V30 23 1 20 5
M  V30 24 1 15 10
M  V30 25 1 18 13
M  V30 26 1 1 23
M  V30 27 1 2 24
M  V30 28 1 6 25
M  V30 29 1 6 26
M  V30 30 1 7 27
M  V30 31 1 7 28
M  V30 32 1 9 29
M  V30 33 1 9 30
M  V30 34 1 11 31
M  V30 35 1 12 32
M  V30 36 1 15 33
M  V30 37 1 17 34
M  V30 38 1 17 35
M  V30 39 1 19 36
M  V30 40 1 19 37
M  V30 41 1 20 38
M  V30 42 1 20 39
M  V30 43 1 22 40
M  V30 END BOND
M  V30 END CTAB
M  END
>  <Dataset>  (268) 
ChEMBL_Kinases

>  <Ligand_Instance>  (268) 
nan

>  <PDB_ID>  (268) 
nan

>  <Standardized_SMILES>  (268) 
c1cnc(N2CCN(Cc3ccc4c(c3)OCO4)CC2)nc1

>  <Name>  (268) 
PIRIBEDIL

>  <Pocket>  (268) 
nan

>  <ATP_Site>  (268) 
nan

>  <Peripheral>  (268) 
nan

>  <Num_H_Atoms_ProtBoundConf>  (268) 
nan

>  <Num_Resolved_Atoms>  (268) 
nan

>  <Num_Not_Resolved_Atoms>  (268) 
nan

$$$$
CHEMBL1371738
     RDKit          3D

  0  0  0  0  0  0  0  0  0  0999 V3000
M  V30 BEGIN CTAB
M  V30 COUNTS 41 43 0 0 0
M  V30 BEGIN ATOM
M  V30 1 O 2.074007 -2.674886 0.879563 0
M  V30 2 C 1.121334 -1.833287 0.903444 0
M  V30 3 N -0.039115 -2.052539 0.111278 0
M  V30 4 C -0.189675 -3.202942 -0.731956 0
M  V30 5 C 0.885550 -3.309758 -1.799657 0
M  V30 6 C 0.884005 -2.113756 -2.713437 0
M  V30 7 N 1.912845 -2.211413 -3.738643 0
M  V30 8 C 1.704126 -2.782406 -4.938247 0
M  V30 9 C 2.882896 -2.694513 -5.636819 0
M  V30 10 N 3.770616 -2.076151 -4.847383 0
M  V30 11 C 3.183831 -1.772928 -3.672980 0
M  V30 12 C 1.219668 -0.644178 1.743067 0
M  V30 13 C 0.321326 0.388035 1.923066 0
M  V30 14 N 0.815930 1.288097 2.792982 0
M  V30 15 C 0.122440 2.494353 3.202149 0
M  V30 16 C -0.729577 2.281296 4.402466 0
M  V30 17 C -2.029120 1.890955 4.066770 0
M  V30 18 C -2.974786 1.644425 5.064575 0
M  V30 19 C -2.559910 1.805324 6.373036 0
M  V30 20 F -3.469031 1.569509 7.371084 0
M  V30 21 C -1.279957 2.190132 6.715377 0
M  V30 22 C -0.350485 2.432011 5.720378 0
M  V30 23 N 2.015010 0.825973 3.156983 0
M  V30 24 N 2.261708 -0.326638 2.533975 0
M  V30 25 H -0.796566 -1.310094 0.178663 0
M  V30 26 H -1.153460 -3.118338 -1.274901 0
M  V30 27 H -0.189121 -4.152470 -0.163087 0
M  V30 28 H 1.861615 -3.421373 -1.328124 0
M  V30 29 H 0.606743 -4.208470 -2.411129 0
M  V30 30 H 1.043223 -1.177558 -2.132461 0
M  V30 31 H -0.101079 -2.028471 -3.208702 0
M  V30 32 H 0.813482 -3.247240 -5.359665 0
M  V30 33 H 3.079189 -3.052962 -6.641984 0
M  V30 34 H 3.640492 -1.272906 -2.833461 0
M  V30 35 H -0.628798 0.450372 1.434135 0
M  V30 36 H -0.432741 2.972485 2.376090 0
M  V30 37 H 0.922733 3.210012 3.533348 0
M  V30 38 H -2.403556 1.751027 3.061123 0
M  V30 39 H -3.987413 1.340844 4.822274 0
M  V30 40 H -0.952180 2.317227 7.747979 0
M  V30 41 H 0.676635 2.737149 5.873913 0
M  V30 END ATOM
M  V30 BEGIN BOND
M  V30 1 2 1 2
M  V30 2 1 2 3
M  V30 3 1 3 4
M  V30 4 1 4 5
M  V30 5 1 5 6
M  V30 6 1 6 7
M  V30 7 1 7 8
M  V30 8 2 8 9
M  V30 9 1 9 10
M  V30 10 2 10 11
M  V30 11 1 2 12
M  V30 12 2 12 13
M  V30 13 1 13 14
M  V30 14 1 14 15
M  V30 15 1 15 16
M  V30 16 2 16 17
M  V30 17 1 17 18
M  V30 18 2 18 19
M  V30 19 1 19 20
M  V30 20 1 19 21
M  V30 21 2 21 22
M  V30 22 1 14 23
M  V30 23 2 23 24
M  V30 24 1 11 7
M  V30 25 1 24 12
M  V30 26 1 22 16
M  V30 27 1 3 25
M  V30 28 1 4 26
M  V30 29 1 4 27
M  V30 30 1 5 28
M  V30 31 1 5 29
M  V30 32 1 6 30
M  V30 33 1 6 31
M  V30 34 1 8 32
M  V30 35 1 9 33
M  V30 36 1 11 34
M  V30 37 1 13 35
M  V30 38 1 15 36
M  V30 39 1 15 37
M  V30 40 1 17 38
M  V30 41 1 18 39
M  V30 42 1 21 40
M  V30 43 1 22 41
M  V30 END BOND
M  V30 END CTAB
M  END
>  <Dataset>  (269) 
ChEMBL_Kinases

>  <Ligand_Instance>  (269) 
nan

>  <PDB_ID>  (269) 
nan

>  <Standardized_SMILES>  (269) 
O=C(NCCCn1ccnc1)c1cn(Cc2ccc(F)cc2)nn1

>  <Name>  (269) 
nan

>  <Pocket>  (269) 
nan

>  <ATP_Site>  (269) 
nan

>  <Peripheral>  (269) 
nan

>  <Num_H_Atoms_ProtBoundConf>  (269) 
nan

>  <Num_Resolved_Atoms>  (269) 
nan

>  <Num_Not_Resolved_Atoms>  (269) 
nan

$$$$
CHEMBL1371555
     RDKit          3D

  0  0  0  0  0  0  0  0  0  0999 V3000
M  V30 BEGIN CTAB
M  V30 COUNTS 47 50 0 0 0
M  V30 BEGIN ATOM
M  V30 1 C 2.696063 -3.682600 1.512010 0
M  V30 2 C 1.528763 -3.237004 0.653182 0
M  V30 3 O 1.620263 -1.899275 0.295435 0
M  V30 4 C 2.598783 -1.266315 -0.412574 0
M  V30 5 C 3.715172 -1.905216 -0.909988 0
M  V30 6 C 4.699275 -1.229952 -1.630861 0
M  V30 7 C 4.534125 0.140531 -1.848234 0
M  V30 8 C 3.420444 0.786868 -1.354076 0
M  V30 9 C 2.441133 0.105974 -0.634676 0
M  V30 10 N 1.318301 0.877643 -0.163738 0
M  V30 11 C 1.115877 0.903671 1.290597 0
M  V30 12 C -0.199643 1.561622 1.547462 0
M  V30 13 N -1.147476 1.263255 0.536212 0
M  V30 14 S -2.762748 1.142162 0.971585 0
M  V30 15 O -3.557613 0.826473 -0.290391 0
M  V30 16 O -3.334244 2.475436 1.441707 0
M  V30 17 C -3.151624 -0.114524 2.108645 0
M  V30 18 C -2.076369 -0.905291 2.455616 0
M  V30 19 C -2.237956 -1.950644 3.339763 0
M  V30 20 C -3.487818 -2.185238 3.863980 0
M  V30 21 C -4.509986 -1.367770 3.480910 0
M  V30 22 N -5.915053 -1.460554 3.932849 0
M  V30 23 S -6.800238 -0.271083 3.214085 0
M  V30 24 N -5.427159 0.493867 2.230228 0
M  V30 25 C -4.433576 -0.335301 2.630156 0
M  V30 26 C -0.864740 1.825956 -0.738935 0
M  V30 27 C 0.547464 1.520567 -1.212059 0
M  V30 28 H 3.216490 -4.559079 1.063142 0
M  V30 29 H 2.371289 -4.013840 2.529828 0
M  V30 30 H 3.389332 -2.816878 1.663144 0
M  V30 31 H 1.357837 -3.936898 -0.186938 0
M  V30 32 H 0.607681 -3.343011 1.294379 0
M  V30 33 H 3.825805 -2.982418 -0.728087 0
M  V30 34 H 5.578586 -1.755128 -2.017631 0
M  V30 35 H 5.316815 0.661066 -2.417801 0
M  V30 36 H 3.335818 1.847186 -1.547108 0
M  V30 37 H 1.174223 -0.105632 1.726080 0
M  V30 38 H 1.947943 1.486377 1.772992 0
M  V30 39 H -0.616698 1.418978 2.559024 0
M  V30 40 H 0.000950 2.677047 1.465818 0
M  V30 41 H -1.045940 -0.861855 2.134830 0
M  V30 42 H -1.465952 -2.641770 3.688384 0
M  V30 43 H -3.729093 -2.965632 4.556418 0
M  V30 44 H -1.634936 1.616783 -1.506316 0
M  V30 45 H -0.901359 2.935756 -0.604480 0
M  V30 46 H 0.455413 0.848646 -2.077906 0
M  V30 47 H 1.076460 2.432773 -1.555065 0
M  V30 END ATOM
M  V30 BEGIN BOND
M  V30 1 1 1 2
M  V30 2 1 2 3
M  V30 3 1 3 4
M  V30 4 2 4 5
M  V30 5 1 5 6
M  V30 6 2 6 7
M  V30 7 1 7 8
M  V30 8 2 8 9
M  V30 9 1 9 10
M  V30 10 1 10 11
M  V30 11 1 11 12
M  V30 12 1 12 13
M  V30 13 1 13 14
M  V30 14 2 14 15
M  V30 15 2 14 16
M  V30 16 1 14 17
M  V30 17 2 17 18
M  V30 18 1 18 19
M  V30 19 2 19 20
M  V30 20 1 20 21
M  V30 21 2 21 22
M  V30 22 1 22 23
M  V30 23 1 23 24
M  V30 24 2 24 25
M  V30 25 1 13 26
M  V30 26 1 26 27
M  V30 27 1 9 4
M  V30 28 1 27 10
M  V30 29 1 25 17
M  V30 30 1 25 21
M  V30 31 1 1 28
M  V30 32 1 1 29
M  V30 33 1 1 30
M  V30 34 1 2 31
M  V30 35 1 2 32
M  V30 36 1 5 33
M  V30 37 1 6 34
M  V30 38 1 7 35
M  V30 39 1 8 36
M  V30 40 1 11 37
M  V30 41 1 11 38
M  V30 42 1 12 39
M  V30 43 1 12 40
M  V30 44 1 18 41
M  V30 45 1 19 42
M  V30 46 1 20 43
M  V30 47 1 26 44
M  V30 48 1 26 45
M  V30 49 1 27 46
M  V30 50 1 27 47
M  V30 END BOND
M  V30 END CTAB
M  END
>  <Dataset>  (270) 
ChEMBL_Kinases

>  <Ligand_Instance>  (270) 
nan

>  <PDB_ID>  (270) 
nan

>  <Standardized_SMILES>  (270) 
CCOc1ccccc1N1CCN(S(=O)(=O)c2cccc3nsnc23)CC1

>  <Name>  (270) 
nan

>  <Pocket>  (270) 
nan

>  <ATP_Site>  (270) 
nan

>  <Peripheral>  (270) 
nan

>  <Num_H_Atoms_ProtBoundConf>  (270) 
nan

>  <Num_Resolved_Atoms>  (270) 
nan

>  <Num_Not_Resolved_Atoms>  (270) 
nan

$$$$
CHEMBL1371501
     RDKit          3D

  0  0  0  0  0  0  0  0  0  0999 V3000
M  V30 BEGIN CTAB
M  V30 COUNTS 55 58 0 0 0
M  V30 BEGIN ATOM
M  V30 1 C 3.541099 -3.143024 6.128141 0
M  V30 2 C 2.615659 -3.741997 5.094092 0
M  V30 3 C 3.208218 -3.845952 3.728342 0
M  V30 4 N 3.613485 -2.619338 3.123640 0
M  V30 5 C 4.859435 -1.878683 3.098563 0
M  V30 6 C 4.519778 -0.712433 2.251671 0
M  V30 7 C 5.426224 0.297007 1.935152 0
M  V30 8 C 4.994592 1.343606 1.132188 0
M  V30 9 C 3.704804 1.400243 0.650158 0
M  V30 10 C 2.870715 0.384141 0.995499 0
M  V30 11 C 1.501863 0.406862 0.509311 0
M  V30 12 O 0.454645 -0.264931 0.685723 0
M  V30 13 N 1.050450 1.402257 -0.438286 0
M  V30 14 C -0.344751 1.050080 -0.636557 0
M  V30 15 C -1.351585 1.570891 0.154714 0
M  V30 16 C -2.648903 1.144832 -0.127575 0
M  V30 17 C -2.890843 0.233658 -1.167227 0
M  V30 18 C -4.315702 -0.134264 -1.336583 0
M  V30 19 N -5.081764 0.721611 -2.174948 0
M  V30 20 C -6.447560 0.241984 -2.220891 0
M  V30 21 C -6.385330 -0.906573 -3.185262 0
M  V30 22 C -5.330399 -0.518116 -4.162391 0
M  V30 23 C -4.662478 0.703393 -3.555646 0
M  V30 24 C -1.854049 -0.261190 -1.932701 0
M  V30 25 C -0.540808 0.153796 -1.666293 0
M  V30 26 C 3.223813 -0.686166 1.786676 0
M  V30 27 C 2.635226 -1.898955 2.337782 0
M  V30 28 O 1.431316 -2.199976 2.109800 0
M  V30 29 H 3.776182 -2.086927 5.901697 0
M  V30 30 H 4.440412 -3.781975 6.289190 0
M  V30 31 H 2.934203 -3.095807 7.080463 0
M  V30 32 H 2.341595 -4.784039 5.434316 0
M  V30 33 H 1.676098 -3.178068 5.154310 0
M  V30 34 H 2.579575 -4.463318 3.041948 0
M  V30 35 H 4.145847 -4.470866 3.852750 0
M  V30 36 H 5.592626 -2.556446 2.567681 0
M  V30 37 H 5.240199 -1.592635 4.089423 0
M  V30 38 H 6.469419 0.335538 2.273315 0
M  V30 39 H 5.711446 2.134532 0.884300 0
M  V30 40 H 3.484683 2.253313 0.044255 0
M  V30 41 H 1.692027 2.162398 -0.826699 0
M  V30 42 H -1.117338 2.273309 0.945369 0
M  V30 43 H -3.415320 1.573108 0.510716 0
M  V30 44 H -4.433344 -1.173263 -1.720928 0
M  V30 45 H -4.803116 -0.180003 -0.320905 0
M  V30 46 H -6.666045 -0.149702 -1.209406 0
M  V30 47 H -7.157242 1.032791 -2.533940 0
M  V30 48 H -6.131151 -1.829133 -2.588642 0
M  V30 49 H -7.390213 -1.028620 -3.657425 0
M  V30 50 H -4.586043 -1.334387 -4.353074 0
M  V30 51 H -5.802194 -0.267355 -5.134349 0
M  V30 52 H -3.581106 0.587269 -3.684154 0
M  V30 53 H -5.066488 1.631646 -4.060790 0
M  V30 54 H -2.061068 -0.954698 -2.714690 0
M  V30 55 H 0.274285 -0.240365 -2.274574 0
M  V30 END ATOM
M  V30 BEGIN BOND
M  V30 1 1 1 2
M  V30 2 1 2 3
M  V30 3 1 3 4
M  V30 4 1 4 5
M  V30 5 1 5 6
M  V30 6 2 6 7
M  V30 7 1 7 8
M  V30 8 2 8 9
M  V30 9 1 9 10
M  V30 10 1 10 11
M  V30 11 2 11 12
M  V30 12 1 11 13
M  V30 13 1 13 14
M  V30 14 2 14 15
M  V30 15 1 15 16
M  V30 16 2 16 17
M  V30 17 1 17 18
M  V30 18 1 18 19
M  V30 19 1 19 20
M  V30 20 1 20 21
M  V30 21 1 21 22
M  V30 22 1 22 23
M  V30 23 1 17 24
M  V30 24 2 24 25
M  V30 25 2 10 26
M  V30 26 1 26 27
M  V30 27 2 27 28
M  V30 28 1 27 4
M  V30 29 1 26 6
M  V30 30 1 25 14
M  V30 31 1 23 19
M  V30 32 1 1 29
M  V30 33 1 1 30
M  V30 34 1 1 31
M  V30 35 1 2 32
M  V30 36 1 2 33
M  V30 37 1 3 34
M  V30 38 1 3 35
M  V30 39 1 5 36
M  V30 40 1 5 37
M  V30 41 1 7 38
M  V30 42 1 8 39
M  V30 43 1 9 40
M  V30 44 1 13 41
M  V30 45 1 15 42
M  V30 46 1 16 43
M  V30 47 1 18 44
M  V30 48 1 18 45
M  V30 49 1 20 46
M  V30 50 1 20 47
M  V30 51 1 21 48
M  V30 52 1 21 49
M  V30 53 1 22 50
M  V30 54 1 22 51
M  V30 55 1 23 52
M  V30 56 1 23 53
M  V30 57 1 24 54
M  V30 58 1 25 55
M  V30 END BOND
M  V30 END CTAB
M  END
>  <Dataset>  (271) 
ChEMBL_Kinases

>  <Ligand_Instance>  (271) 
nan

>  <PDB_ID>  (271) 
nan

>  <Standardized_SMILES>  (271) 
CCCN1Cc2cccc(C(=O)Nc3ccc(CN4CCCC4)cc3)c2C1=O

>  <Name>  (271) 
nan

>  <Pocket>  (271) 
nan

>  <ATP_Site>  (271) 
nan

>  <Peripheral>  (271) 
nan

>  <Num_H_Atoms_ProtBoundConf>  (271) 
nan

>  <Num_Resolved_Atoms>  (271) 
nan

>  <Num_Not_Resolved_Atoms>  (271) 
nan

$$$$
CHEMBL1371350
     RDKit          3D

  0  0  0  0  0  0  0  0  0  0999 V3000
M  V30 BEGIN CTAB
M  V30 COUNTS 31 30 0 0 0
M  V30 BEGIN ATOM
M  V30 1 C -1.417831 0.892722 3.125384 0
M  V30 2 C -0.282970 -0.089828 3.223881 0
M  V30 3 C -0.404354 -1.227285 2.263128 0
M  V30 4 N -0.430189 -0.848347 0.887232 0
M  V30 5 C -1.657867 -0.567651 0.182517 0
M  V30 6 C -2.286516 -1.769640 -0.461753 0
M  V30 7 C -1.382880 -2.401091 -1.466650 0
M  V30 8 C 0.827285 -0.758263 0.200629 0
M  V30 9 O 0.869059 -0.421503 -1.019088 0
M  V30 10 S 2.363933 -1.110313 1.019473 0
M  V30 11 C 3.761416 -0.911622 -0.114200 0
M  V30 12 C 3.880620 0.549413 -0.498707 0
M  V30 13 H -1.360774 1.528268 2.224433 0
M  V30 14 H -1.381616 1.615684 3.986500 0
M  V30 15 H -2.394097 0.365237 3.170774 0
M  V30 16 H -0.172509 -0.444018 4.268110 0
M  V30 17 H 0.678542 0.468546 3.027373 0
M  V30 18 H 0.432185 -1.939891 2.419051 0
M  V30 19 H -1.330110 -1.812083 2.535557 0
M  V30 20 H -1.482970 0.163950 -0.640014 0
M  V30 21 H -2.433755 -0.086228 0.821446 0
M  V30 22 H -2.543757 -2.516935 0.316494 0
M  V30 23 H -3.188958 -1.409913 -1.006367 0
M  V30 24 H -1.183802 -1.691808 -2.315823 0
M  V30 25 H -1.944097 -3.262691 -1.909216 0
M  V30 26 H -0.457210 -2.820687 -1.046801 0
M  V30 27 H 3.686763 -1.568449 -0.996497 0
M  V30 28 H 4.655172 -1.255642 0.443083 0
M  V30 29 H 4.757861 0.738011 -1.143092 0
M  V30 30 H 4.002956 1.153249 0.419194 0
M  V30 31 H 2.975108 0.914497 -1.000587 0
M  V30 END ATOM
M  V30 BEGIN BOND
M  V30 1 1 1 2
M  V30 2 1 2 3
M  V30 3 1 3 4
M  V30 4 1 4 5
M  V30 5 1 5 6
M  V30 6 1 6 7
M  V30 7 1 4 8
M  V30 8 2 8 9
M  V30 9 1 8 10
M  V30 10 1 10 11
M  V30 11 1 11 12
M  V30 12 1 1 13
M  V30 13 1 1 14
M  V30 14 1 1 15
M  V30 15 1 2 16
M  V30 16 1 2 17
M  V30 17 1 3 18
M  V30 18 1 3 19
M  V30 19 1 5 20
M  V30 20 1 5 21
M  V30 21 1 6 22
M  V30 22 1 6 23
M  V30 23 1 7 24
M  V30 24 1 7 25
M  V30 25 1 7 26
M  V30 26 1 11 27
M  V30 27 1 11 28
M  V30 28 1 12 29
M  V30 29 1 12 30
M  V30 30 1 12 31
M  V30 END BOND
M  V30 END CTAB
M  END
>  <Dataset>  (272) 
ChEMBL_Kinases

>  <Ligand_Instance>  (272) 
nan

>  <PDB_ID>  (272) 
nan

>  <Standardized_SMILES>  (272) 
CCCN(CCC)C(=O)SCC

>  <Name>  (272) 
S-ETHYL DIPROPYLCARBAMOTHIOATE

>  <Pocket>  (272) 
nan

>  <ATP_Site>  (272) 
nan

>  <Peripheral>  (272) 
nan

>  <Num_H_Atoms_ProtBoundConf>  (272) 
nan

>  <Num_Resolved_Atoms>  (272) 
nan

>  <Num_Not_Resolved_Atoms>  (272) 
nan

$$$$
CHEMBL1371340
     RDKit          3D

  0  0  0  0  0  0  0  0  0  0999 V3000
M  V30 BEGIN CTAB
M  V30 COUNTS 43 45 0 0 0
M  V30 BEGIN ATOM
M  V30 1 C 1.740142 -6.194899 -0.762664 0
M  V30 2 N 2.130062 -4.782975 -0.885351 0
M  V30 3 C 3.317636 -4.201383 -1.118273 0
M  V30 4 O 4.376388 -4.858599 -1.281383 0
M  V30 5 N 3.132613 -2.867199 -1.135973 0
M  V30 6 C 4.203060 -1.905080 -1.362507 0
M  V30 7 C 1.834946 -2.568158 -0.916873 0
M  V30 8 C 1.184897 -1.354625 -0.847439 0
M  V30 9 C -0.164766 -1.329873 -0.608724 0
M  V30 10 S -1.173138 0.098705 -0.483928 0
M  V30 11 O -0.489659 1.216193 -1.249925 0
M  V30 12 O -2.557783 -0.153162 -0.967556 0
M  V30 13 N -1.166020 0.564274 1.192670 0
M  V30 14 C 0.165384 0.893135 1.634959 0
M  V30 15 C 0.178239 1.299197 3.093699 0
M  V30 16 C -0.670966 2.477303 3.321680 0
M  V30 17 C -0.233757 3.786274 3.245435 0
M  V30 18 C -1.107195 4.852975 3.477024 0
M  V30 19 C -2.436768 4.605496 3.789268 0
M  V30 20 C -2.903929 3.306902 3.872895 0
M  V30 21 C -2.014724 2.285300 3.638511 0
M  V30 22 C -0.812868 -2.560114 -0.447004 0
M  V30 23 C -0.138792 -3.778553 -0.520518 0
M  V30 24 C 1.216581 -3.792927 -0.760653 0
M  V30 25 H 1.672876 -6.515666 0.286615 0
M  V30 26 H 2.519681 -6.775589 -1.271809 0
M  V30 27 H 0.724958 -6.332514 -1.235255 0
M  V30 28 H 4.795496 -2.212499 -2.261164 0
M  V30 29 H 3.776601 -0.901422 -1.638318 0
M  V30 30 H 4.818862 -1.712210 -0.471871 0
M  V30 31 H 1.654228 -0.401791 -0.966903 0
M  V30 32 H -1.859931 1.287903 1.390358 0
M  V30 33 H 0.898473 0.123576 1.409537 0
M  V30 34 H 0.475102 1.800074 1.048921 0
M  V30 35 H -0.258564 0.421931 3.644474 0
M  V30 36 H 1.198967 1.430656 3.453496 0
M  V30 37 H 0.808877 3.953891 3.000002 0
M  V30 38 H -0.752122 5.872054 3.414157 0
M  V30 39 H -3.121271 5.424952 3.970404 0
M  V30 40 H -3.940652 3.130721 4.116731 0
M  V30 41 H -2.446286 1.293059 3.720245 0
M  V30 42 H -1.895180 -2.599413 -0.253311 0
M  V30 43 H -0.704733 -4.705298 -0.384888 0
M  V30 END ATOM
M  V30 BEGIN BOND
M  V30 1 1 1 2
M  V30 2 1 2 3
M  V30 3 2 3 4
M  V30 4 1 3 5
M  V30 5 1 5 6
M  V30 6 1 5 7
M  V30 7 2 7 8
M  V30 8 1 8 9
M  V30 9 1 9 10
M  V30 10 2 10 11
M  V30 11 2 10 12
M  V30 12 1 10 13
M  V30 13 1 13 14
M  V30 14 1 14 15
M  V30 15 1 15 16
M  V30 16 2 16 17
M  V30 17 1 17 18
M  V30 18 2 18 19
M  V30 19 1 19 20
M  V30 20 2 20 21
M  V30 21 2 9 22
M  V30 22 1 22 23
M  V30 23 2 23 24
M  V30 24 1 24 2
M  V30 25 1 24 7
M  V30 26 1 21 16
M  V30 27 1 1 25
M  V30 28 1 1 26
M  V30 29 1 1 27
M  V30 30 1 6 28
M  V30 31 1 6 29
M  V30 32 1 6 30
M  V30 33 1 8 31
M  V30 34 1 13 32
M  V30 35 1 14 33
M  V30 36 1 14 34
M  V30 37 1 15 35
M  V30 38 1 15 36
M  V30 39 1 17 37
M  V30 40 1 18 38
M  V30 41 1 19 39
M  V30 42 1 20 40
M  V30 43 1 21 41
M  V30 44 1 22 42
M  V30 45 1 23 43
M  V30 END BOND
M  V30 END CTAB
M  END
>  <Dataset>  (273) 
ChEMBL_Kinases

>  <Ligand_Instance>  (273) 
nan

>  <PDB_ID>  (273) 
nan

>  <Standardized_SMILES>  (273) 
Cn1c(=O)n(C)c2cc(S(=O)(=O)NCCc3ccccc3)ccc21

>  <Name>  (273) 
nan

>  <Pocket>  (273) 
nan

>  <ATP_Site>  (273) 
nan

>  <Peripheral>  (273) 
nan

>  <Num_H_Atoms_ProtBoundConf>  (273) 
nan

>  <Num_Resolved_Atoms>  (273) 
nan

>  <Num_Not_Resolved_Atoms>  (273) 
nan

$$$$
CHEMBL1371286
     RDKit          3D

  0  0  0  0  0  0  0  0  0  0999 V3000
M  V30 BEGIN CTAB
M  V30 COUNTS 45 46 0 0 0
M  V30 BEGIN ATOM
M  V30 1 C -3.288715 -4.140385 0.212940 0
M  V30 2 C -3.027166 -3.168682 -0.913930 0
M  V30 3 O -1.739462 -2.620082 -0.743905 0
M  V30 4 C -0.650687 -3.472507 -0.768669 0
M  V30 5 C -0.587374 -4.836167 -0.946967 0
M  V30 6 C 0.599151 -5.527598 -0.943043 0
M  V30 7 C 1.816183 -4.891796 -0.758690 0
M  V30 8 C 1.726546 -3.529147 -0.583154 0
M  V30 9 C 0.563527 -2.793605 -0.578967 0
M  V30 10 N 0.645069 -1.377304 -0.381882 0
M  V30 11 C 0.779250 -0.205034 -1.188022 0
M  V30 12 O 0.856263 -0.341250 -2.436968 0
M  V30 13 C 0.799267 0.981492 -0.327125 0
M  V30 14 C 1.777214 1.263026 0.605388 0
M  V30 15 C 1.445293 2.470974 1.224103 0
M  V30 16 C 2.330008 3.033100 2.288980 0
M  V30 17 C 1.879433 2.499796 3.642513 0
M  V30 18 C 0.464941 2.881671 3.953334 0
M  V30 19 C 2.830910 2.870286 4.736513 0
M  V30 20 O 0.324719 2.883471 0.682748 0
M  V30 21 C -0.085074 2.036904 -0.230513 0
M  V30 22 C -1.312576 2.174572 -1.049154 0
M  V30 23 H -4.073856 -3.643943 0.860426 0
M  V30 24 H -2.397427 -4.221851 0.833635 0
M  V30 25 H -3.709434 -5.109129 -0.142413 0
M  V30 26 H -3.813758 -2.378393 -0.974441 0
M  V30 27 H -3.090442 -3.748829 -1.870447 0
M  V30 28 H -1.539383 -5.309232 -1.094313 0
M  V30 29 H 0.563292 -6.596728 -1.089910 0
M  V30 30 H 2.761023 -5.411629 -0.751405 0
M  V30 31 H 2.694809 -3.025836 -0.435978 0
M  V30 32 H 0.567922 -1.437876 0.677322 0
M  V30 33 H 2.636764 0.625425 0.790140 0
M  V30 34 H 2.255694 4.148141 2.276661 0
M  V30 35 H 3.384128 2.792261 2.118075 0
M  V30 36 H 1.878477 1.379099 3.568621 0
M  V30 37 H 0.184532 2.375767 4.899046 0
M  V30 38 H -0.193018 2.440664 3.176669 0
M  V30 39 H 0.293492 3.963441 4.090331 0
M  V30 40 H 2.843576 3.964791 4.880895 0
M  V30 41 H 2.443313 2.363205 5.666031 0
M  V30 42 H 3.852567 2.479992 4.568164 0
M  V30 43 H -2.222395 2.351108 -0.409083 0
M  V30 44 H -1.433971 1.330641 -1.740638 0
M  V30 45 H -1.203790 3.104172 -1.672774 0
M  V30 END ATOM
M  V30 BEGIN BOND
M  V30 1 1 1 2
M  V30 2 1 2 3
M  V30 3 1 3 4
M  V30 4 2 4 5
M  V30 5 1 5 6
M  V30 6 2 6 7
M  V30 7 1 7 8
M  V30 8 2 8 9
M  V30 9 1 9 10
M  V30 10 1 10 11
M  V30 11 2 11 12
M  V30 12 1 11 13
M  V30 13 1 13 14
M  V30 14 2 14 15
M  V30 15 1 15 16
M  V30 16 1 16 17
M  V30 17 1 17 18
M  V30 18 1 17 19
M  V30 19 1 15 20
M  V30 20 1 20 21
M  V30 21 1 21 22
M  V30 22 1 9 4
M  V30 23 2 21 13
M  V30 24 1 1 23
M  V30 25 1 1 24
M  V30 26 1 1 25
M  V30 27 1 2 26
M  V30 28 1 2 27
M  V30 29 1 5 28
M  V30 30 1 6 29
M  V30 31 1 7 30
M  V30 32 1 8 31
M  V30 33 1 10 32
M  V30 34 1 14 33
M  V30 35 1 16 34
M  V30 36 1 16 35
M  V30 37 1 17 36
M  V30 38 1 18 37
M  V30 39 1 18 38
M  V30 40 1 18 39
M  V30 41 1 19 40
M  V30 42 1 19 41
M  V30 43 1 19 42
M  V30 44 1 22 43
M  V30 45 1 22 44
M  V30 46 1 22 45
M  V30 END BOND
M  V30 END CTAB
M  END
>  <Dataset>  (274) 
ChEMBL_Kinases

>  <Ligand_Instance>  (274) 
nan

>  <PDB_ID>  (274) 
nan

>  <Standardized_SMILES>  (274) 
CCOc1ccccc1NC(=O)c1cc(CC(C)C)oc1C

>  <Name>  (274) 
nan

>  <Pocket>  (274) 
nan

>  <ATP_Site>  (274) 
nan

>  <Peripheral>  (274) 
nan

>  <Num_H_Atoms_ProtBoundConf>  (274) 
nan

>  <Num_Resolved_Atoms>  (274) 
nan

>  <Num_Not_Resolved_Atoms>  (274) 
nan

$$$$
CHEMBL1371140
     RDKit          3D

  0  0  0  0  0  0  0  0  0  0999 V3000
M  V30 BEGIN CTAB
M  V30 COUNTS 48 51 0 0 0
M  V30 BEGIN ATOM
M  V30 1 N -1.656130 -5.803212 1.368901 0
M  V30 2 C -1.169887 -5.289897 0.443506 0
M  V30 3 C -0.584825 -4.636537 -0.708596 0
M  V30 4 C 0.151129 -5.382044 -1.609399 0
M  V30 5 C 0.687592 -4.709202 -2.692211 0
M  V30 6 C 0.536849 -3.365217 -2.924578 0
M  V30 7 C -0.205865 -2.662169 -1.998241 0
M  V30 8 C -0.446637 -1.211366 -2.128314 0
M  V30 9 C -0.543024 -0.635866 -3.393616 0
M  V30 10 C -0.771995 0.740121 -3.484915 0
M  V30 11 C -0.902419 1.525881 -2.341247 0
M  V30 12 N -1.125467 2.865221 -2.436012 0
M  V30 13 C -1.241018 3.562923 -1.297951 0
M  V30 14 N -1.144112 2.983581 -0.077959 0
M  V30 15 C -0.925148 1.668213 0.089302 0
M  V30 16 N -0.830608 1.111985 1.393655 0
M  V30 17 C -0.976944 1.991972 2.535952 0
M  V30 18 C -0.855065 1.273153 3.830691 0
M  V30 19 N 0.343001 0.600022 4.101514 0
M  V30 20 C 1.529544 1.320186 4.312260 0
M  V30 21 C 2.788035 0.574365 3.920441 0
M  V30 22 O 2.686055 -0.729780 4.367861 0
M  V30 23 C 1.712497 -1.356223 3.562533 0
M  V30 24 C 0.384186 -0.807557 4.079268 0
M  V30 25 C -0.807545 0.958450 -1.088161 0
M  V30 26 C -0.583327 -0.388297 -1.024122 0
M  V30 27 C -0.762641 -3.268741 -0.906818 0
M  V30 28 H 0.313311 -6.463541 -1.487078 0
M  V30 29 H 1.256406 -5.320425 -3.376478 0
M  V30 30 H 0.963334 -2.852525 -3.776806 0
M  V30 31 H -0.443213 -1.234449 -4.270400 0
M  V30 32 H -0.844562 1.177246 -4.475630 0
M  V30 33 H -1.418725 4.628231 -1.315827 0
M  V30 34 H -0.662760 0.111466 1.616394 0
M  V30 35 H -0.346523 2.895004 2.458407 0
M  V30 36 H -2.032204 2.383094 2.469554 0
M  V30 37 H -1.006921 2.042262 4.644733 0
M  V30 38 H -1.700973 0.568072 3.957478 0
M  V30 39 H 1.641754 1.536051 5.410140 0
M  V30 40 H 1.466251 2.307093 3.786058 0
M  V30 41 H 2.988544 0.557785 2.846030 0
M  V30 42 H 3.641899 1.074485 4.421526 0
M  V30 43 H 1.878816 -1.002578 2.525133 0
M  V30 44 H 1.742070 -2.435424 3.693808 0
M  V30 45 H 0.351189 -1.155209 5.153682 0
M  V30 46 H -0.484331 -1.247293 3.576319 0
M  V30 47 H -0.496806 -0.900702 -0.098137 0
M  V30 48 H -1.348761 -2.765821 -0.157926 0
M  V30 END ATOM
M  V30 BEGIN BOND
M  V30 1 3 1 2
M  V30 2 1 2 3
M  V30 3 2 3 4
M  V30 4 1 4 5
M  V30 5 2 5 6
M  V30 6 1 6 7
M  V30 7 1 7 8
M  V30 8 2 8 9
M  V30 9 1 9 10
M  V30 10 2 10 11
M  V30 11 1 11 12
M  V30 12 2 12 13
M  V30 13 1 13 14
M  V30 14 2 14 15
M  V30 15 1 15 16
M  V30 16 1 16 17
M  V30 17 1 17 18
M  V30 18 1 18 19
M  V30 19 1 19 20
M  V30 20 1 20 21
M  V30 21 1 21 22
M  V30 22 1 22 23
M  V30 23 1 23 24
M  V30 24 1 15 25
M  V30 25 2 25 26
M  V30 26 2 7 27
M  V30 27 1 27 3
M  V30 28 1 26 8
M  V30 29 1 25 11
M  V30 30 1 24 19
M  V30 31 1 4 28
M  V30 32 1 5 29
M  V30 33 1 6 30
M  V30 34 1 9 31
M  V30 35 1 10 32
M  V30 36 1 13 33
M  V30 37 1 16 34
M  V30 38 1 17 35
M  V30 39 1 17 36
M  V30 40 1 18 37
M  V30 41 1 18 38
M  V30 42 1 20 39
M  V30 43 1 20 40
M  V30 44 1 21 41
M  V30 45 1 21 42
M  V30 46 1 23 43
M  V30 47 1 23 44
M  V30 48 1 24 45
M  V30 49 1 24 46
M  V30 50 1 26 47
M  V30 51 1 27 48
M  V30 END BOND
M  V30 END CTAB
M  END
>  <Dataset>  (275) 
ChEMBL_Kinases

>  <Ligand_Instance>  (275) 
nan

>  <PDB_ID>  (275) 
nan

>  <Standardized_SMILES>  (275) 
N#Cc1cccc(-c2ccc3ncnc(NCCN4CCOCC4)c3c2)c1

>  <Name>  (275) 
nan

>  <Pocket>  (275) 
nan

>  <ATP_Site>  (275) 
nan

>  <Peripheral>  (275) 
nan

>  <Num_H_Atoms_ProtBoundConf>  (275) 
nan

>  <Num_Resolved_Atoms>  (275) 
nan

>  <Num_Not_Resolved_Atoms>  (275) 
nan

$$$$
CHEMBL1364282
     RDKit          3D

  0  0  0  0  0  0  0  0  0  0999 V3000
M  V30 BEGIN CTAB
M  V30 COUNTS 54 57 0 0 0
M  V30 BEGIN ATOM
M  V30 1 C 1.851368 0.418408 -1.018534 0
M  V30 2 C 0.823932 -0.131052 -0.120918 0
M  V30 3 N -0.173157 0.646521 0.429856 0
M  V30 4 C 0.143060 1.614653 1.407452 0
M  V30 5 C 1.097317 2.636597 0.920566 0
M  V30 6 N 2.441033 2.479989 1.094474 0
M  V30 7 C 3.311316 3.430512 0.641829 0
M  V30 8 O 4.659390 3.184332 0.864500 0
M  V30 9 C 2.801331 4.546988 0.007744 0
M  V30 10 C 3.745290 5.473655 -0.426775 0
M  V30 11 C 3.294851 6.608942 -1.066484 0
M  V30 12 C 1.932104 6.798128 -1.259159 0
M  V30 13 C 1.031531 5.855518 -0.813233 0
M  V30 14 C 1.429278 4.703911 -0.168305 0
M  V30 15 N 0.585739 3.737189 0.294856 0
M  V30 16 C -1.528725 0.238781 0.316872 0
M  V30 17 C -1.791979 -1.093919 0.950684 0
M  V30 18 N -2.174508 -1.291808 2.230152 0
M  V30 19 C -2.381318 -2.537998 2.695615 0
M  V30 20 O -2.773027 -2.745608 4.005321 0
M  V30 21 C -2.204484 -3.629444 1.869030 0
M  V30 22 C -2.397691 -4.933273 2.276925 0
M  V30 23 C -2.211632 -6.002582 1.425884 0
M  V30 24 O -2.414327 -7.303592 1.863281 0
M  V30 25 C -2.817318 -7.652719 3.171831 0
M  V30 26 C -1.820395 -5.821205 0.115343 0
M  V30 27 O -1.648087 -6.924427 -0.693457 0
M  V30 28 C -1.257102 -6.899054 -2.035656 0
M  V30 29 C -1.633727 -4.509664 -0.269720 0
M  V30 30 C -1.812452 -3.423353 0.558913 0
M  V30 31 N -1.618307 -2.160187 0.140278 0
M  V30 32 H 2.891140 0.344099 -0.620383 0
M  V30 33 H 1.920296 -0.192947 -1.973200 0
M  V30 34 H 1.725650 1.449536 -1.379795 0
M  V30 35 H 0.337809 -1.021712 -0.627408 0
M  V30 36 H 1.376894 -0.638781 0.732824 0
M  V30 37 H -0.774742 2.097693 1.812252 0
M  V30 38 H 0.659680 1.120605 2.284360 0
M  V30 39 H 5.150378 2.649545 0.160746 0
M  V30 40 H 4.804652 5.320389 -0.273473 0
M  V30 41 H 3.959283 7.377048 -1.434230 0
M  V30 42 H 1.479257 7.646049 -1.744918 0
M  V30 43 H -0.051412 5.935471 -0.928874 0
M  V30 44 H -2.111360 0.958065 0.958968 0
M  V30 45 H -1.978542 0.329095 -0.680658 0
M  V30 46 H -3.722783 -2.776247 4.343469 0
M  V30 47 H -2.701393 -5.036474 3.305505 0
M  V30 48 H -1.970598 -7.803869 3.870457 0
M  V30 49 H -3.484575 -6.874799 3.643726 0
M  V30 50 H -3.359614 -8.634003 3.162664 0
M  V30 51 H -0.547325 -7.725967 -2.284335 0
M  V30 52 H -0.741798 -5.959848 -2.317833 0
M  V30 53 H -2.130897 -7.086626 -2.727196 0
M  V30 54 H -1.328347 -4.314013 -1.283133 0
M  V30 END ATOM
M  V30 BEGIN BOND
M  V30 1 1 1 2
M  V30 2 1 2 3
M  V30 3 1 3 4
M  V30 4 1 4 5
M  V30 5 2 5 6
M  V30 6 1 6 7
M  V30 7 1 7 8
M  V30 8 2 7 9
M  V30 9 1 9 10
M  V30 10 2 10 11
M  V30 11 1 11 12
M  V30 12 2 12 13
M  V30 13 1 13 14
M  V30 14 2 14 15
M  V30 15 1 3 16
M  V30 16 1 16 17
M  V30 17 2 17 18
M  V30 18 1 18 19
M  V30 19 1 19 20
M  V30 20 2 19 21
M  V30 21 1 21 22
M  V30 22 2 22 23
M  V30 23 1 23 24
M  V30 24 1 24 25
M  V30 25 1 23 26
M  V30 26 1 26 27
M  V30 27 1 27 28
M  V30 28 2 26 29
M  V30 29 1 29 30
M  V30 30 2 30 31
M  V30 31 1 15 5
M  V30 32 1 31 17
M  V30 33 1 14 9
M  V30 34 1 30 21
M  V30 35 1 1 32
M  V30 36 1 1 33
M  V30 37 1 1 34
M  V30 38 1 2 35
M  V30 39 1 2 36
M  V30 40 1 4 37
M  V30 41 1 4 38
M  V30 42 1 8 39
M  V30 43 1 10 40
M  V30 44 1 11 41
M  V30 45 1 12 42
M  V30 46 1 13 43
M  V30 47 1 16 44
M  V30 48 1 16 45
M  V30 49 1 20 46
M  V30 50 1 22 47
M  V30 51 1 25 48
M  V30 52 1 25 49
M  V30 53 1 25 50
M  V30 54 1 28 51
M  V30 55 1 28 52
M  V30 56 1 28 53
M  V30 57 1 29 54
M  V30 END BOND
M  V30 END CTAB
M  END
>  <Dataset>  (276) 
ChEMBL_Kinases

>  <Ligand_Instance>  (276) 
nan

>  <PDB_ID>  (276) 
nan

>  <Standardized_SMILES>  (276) 
CCN(Cc1nc(O)c2ccccc2n1)Cc1nc(O)c2cc(OC)c(OC)cc2n1

>  <Name>  (276) 
nan

>  <Pocket>  (276) 
nan

>  <ATP_Site>  (276) 
nan

>  <Peripheral>  (276) 
nan

>  <Num_H_Atoms_ProtBoundConf>  (276) 
nan

>  <Num_Resolved_Atoms>  (276) 
nan

>  <Num_Not_Resolved_Atoms>  (276) 
nan

$$$$
CHEMBL1370015
     RDKit          3D

  0  0  0  0  0  0  0  0  0  0999 V3000
M  V30 BEGIN CTAB
M  V30 COUNTS 47 49 0 0 0
M  V30 BEGIN ATOM
M  V30 1 C -1.132846 -5.895462 1.160839 0
M  V30 2 C -0.160723 -5.200863 2.084422 0
M  V30 3 C -0.885762 -4.355443 3.110607 0
M  V30 4 C -1.705058 -3.339076 2.354641 0
M  V30 5 C -1.480470 -2.071706 1.890591 0
M  V30 6 C -2.495698 -1.458610 1.228821 0
M  V30 7 C -2.250943 -0.125172 0.728428 0
M  V30 8 O -2.966771 0.624206 1.490832 0
M  V30 9 N -1.540275 0.564993 -0.254189 0
M  V30 10 C -0.674605 -0.156597 -1.155851 0
M  V30 11 C 0.602765 0.586790 -1.376275 0
M  V30 12 N 0.790905 1.677318 -0.418114 0
M  V30 13 C 1.997230 2.104773 0.243506 0
M  V30 14 C 2.466829 3.310495 -0.247269 0
M  V30 15 C 3.638047 3.822989 0.296290 0
M  V30 16 C 4.318521 3.161352 1.291174 0
M  V30 17 C 3.802536 1.981854 1.728542 0
M  V30 18 C 2.650975 1.388955 1.259025 0
M  V30 19 C 1.963780 0.153269 1.647131 0
M  V30 20 C -0.276062 2.540294 0.044626 0
M  V30 21 C -1.628710 1.994336 -0.441498 0
M  V30 22 C -3.699510 -2.118360 1.048762 0
M  V30 23 S -3.325937 -3.752060 1.903954 0
M  V30 24 H -1.279321 -5.319766 0.218365 0
M  V30 25 H -2.111673 -5.982867 1.722037 0
M  V30 26 H -0.788331 -6.937247 1.000802 0
M  V30 27 H 0.549985 -4.588617 1.502644 0
M  V30 28 H 0.444699 -5.952031 2.642664 0
M  V30 29 H -1.558007 -4.946933 3.758199 0
M  V30 30 H -0.186040 -3.748824 3.714403 0
M  V30 31 H -0.487432 -1.732593 2.123579 0
M  V30 32 H -0.460987 -1.187228 -0.791588 0
M  V30 33 H -1.256667 -0.285687 -2.099480 0
M  V30 34 H 0.499433 1.086374 -2.387089 0
M  V30 35 H 1.488800 -0.072801 -1.448903 0
M  V30 36 H 2.023136 3.910049 -1.015529 0
M  V30 37 H 4.078563 4.759653 -0.031004 0
M  V30 38 H 5.248462 3.504719 1.774949 0
M  V30 39 H 4.266686 1.368072 2.522218 0
M  V30 40 H 2.260827 -0.672210 0.999524 0
M  V30 41 H 2.261661 -0.141197 2.700144 0
M  V30 42 H 0.860186 0.276355 1.714707 0
M  V30 43 H -0.180064 3.537709 -0.422072 0
M  V30 44 H -0.285947 2.658947 1.143752 0
M  V30 45 H -2.421586 2.484567 0.148947 0
M  V30 46 H -1.803894 2.272674 -1.499509 0
M  V30 47 H -4.580622 -1.673662 0.510840 0
M  V30 END ATOM
M  V30 BEGIN BOND
M  V30 1 1 1 2
M  V30 2 1 2 3
M  V30 3 1 3 4
M  V30 4 2 4 5
M  V30 5 1 5 6
M  V30 6 1 6 7
M  V30 7 2 7 8
M  V30 8 1 7 9
M  V30 9 1 9 10
M  V30 10 1 10 11
M  V30 11 1 11 12
M  V30 12 1 12 13
M  V30 13 2 13 14
M  V30 14 1 14 15
M  V30 15 2 15 16
M  V30 16 1 16 17
M  V30 17 2 17 18
M  V30 18 1 18 19
M  V30 19 1 12 20
M  V30 20 1 20 21
M  V30 21 2 6 22
M  V30 22 1 22 23
M  V30 23 1 23 4
M  V30 24 1 21 9
M  V30 25 1 18 13
M  V30 26 1 1 24
M  V30 27 1 1 25
M  V30 28 1 1 26
M  V30 29 1 2 27
M  V30 30 1 2 28
M  V30 31 1 3 29
M  V30 32 1 3 30
M  V30 33 1 5 31
M  V30 34 1 10 32
M  V30 35 1 10 33
M  V30 36 1 11 34
M  V30 37 1 11 35
M  V30 38 1 14 36
M  V30 39 1 15 37
M  V30 40 1 16 38
M  V30 41 1 17 39
M  V30 42 1 19 40
M  V30 43 1 19 41
M  V30 44 1 19 42
M  V30 45 1 20 43
M  V30 46 1 20 44
M  V30 47 1 21 45
M  V30 48 1 21 46
M  V30 49 1 22 47
M  V30 END BOND
M  V30 END CTAB
M  END
>  <Dataset>  (277) 
ChEMBL_Kinases

>  <Ligand_Instance>  (277) 
nan

>  <PDB_ID>  (277) 
nan

>  <Standardized_SMILES>  (277) 
CCCc1cc(C(=O)N2CCN(c3ccccc3C)CC2)cs1

>  <Name>  (277) 
nan

>  <Pocket>  (277) 
nan

>  <ATP_Site>  (277) 
nan

>  <Peripheral>  (277) 
nan

>  <Num_H_Atoms_ProtBoundConf>  (277) 
nan

>  <Num_Resolved_Atoms>  (277) 
nan

>  <Num_Not_Resolved_Atoms>  (277) 
nan

$$$$
CHEMBL1370036
     RDKit          3D

  0  0  0  0  0  0  0  0  0  0999 V3000
M  V30 BEGIN CTAB
M  V30 COUNTS 55 59 0 0 0
M  V30 BEGIN ATOM
M  V30 1 C -0.058451 -4.537298 6.108060 0
M  V30 2 C 0.739882 -3.478463 5.432202 0
M  V30 3 C 1.164113 -2.251843 5.935262 0
M  V30 4 C 1.859452 -1.672167 4.901618 0
M  V30 5 C 1.835021 -2.554478 3.818697 0
M  V30 6 C 2.487038 -2.271767 2.510859 0
M  V30 7 N 1.468957 -1.590507 1.695241 0
M  V30 8 C 1.922238 -1.232277 0.369510 0
M  V30 9 O 3.135270 -1.625958 0.274375 0
M  V30 10 C 0.879345 -0.550805 -0.424394 0
M  V30 11 C 0.813458 0.809041 -0.204102 0
M  V30 12 N -0.092444 1.554238 -0.861891 0
M  V30 13 C -0.333146 2.982607 -0.783639 0
M  V30 14 C 0.403963 3.565935 0.423436 0
M  V30 15 C -0.393398 4.786338 0.825242 0
M  V30 16 C -1.818798 4.449635 0.452480 0
M  V30 17 C -1.787708 3.313601 -0.530267 0
M  V30 18 C -0.928689 0.935569 -1.737392 0
M  V30 19 O -1.815925 1.519020 -2.411637 0
M  V30 20 C -0.879158 -0.428555 -1.973182 0
M  V30 21 C 0.044820 -1.206469 -1.305915 0
M  V30 22 C -0.035215 -2.540048 -1.651594 0
M  V30 23 C 0.661340 -3.659787 -1.258047 0
M  V30 24 C 0.271274 -4.849169 -1.851634 0
M  V30 25 C -0.751812 -4.917826 -2.781639 0
M  V30 26 C -1.426143 -3.769562 -3.149353 0
M  V30 27 C -1.076649 -2.543804 -2.584660 0
M  V30 28 N -1.552082 -1.296853 -2.753992 0
M  V30 29 C -2.640149 -0.940531 -3.654589 0
M  V30 30 O 1.161804 -3.596706 4.194727 0
M  V30 31 H 0.575198 -5.439044 6.232738 0
M  V30 32 H -0.963194 -4.837873 5.525328 0
M  V30 33 H -0.459012 -4.189255 7.084178 0
M  V30 34 H 0.951833 -1.899054 6.938848 0
M  V30 35 H 2.316014 -0.684338 5.011557 0
M  V30 36 H 2.823759 -3.193266 2.001093 0
M  V30 37 H 3.365013 -1.641233 2.682890 0
M  V30 38 H 0.488748 -1.380107 2.046892 0
M  V30 39 H 1.434929 1.382207 0.469364 0
M  V30 40 H 0.021866 3.478008 -1.709743 0
M  V30 41 H 0.239701 2.831126 1.256801 0
M  V30 42 H 1.462619 3.749184 0.241979 0
M  V30 43 H -0.380471 4.928315 1.938183 0
M  V30 44 H -0.026144 5.718919 0.377230 0
M  V30 45 H -2.294004 5.351087 0.019396 0
M  V30 46 H -2.438521 4.211515 1.361774 0
M  V30 47 H -2.329090 2.460951 -0.059927 0
M  V30 48 H -2.263545 3.609023 -1.471816 0
M  V30 49 H 1.448573 -3.633592 -0.547747 0
M  V30 50 H 0.793947 -5.777636 -1.574672 0
M  V30 51 H -0.979588 -5.901087 -3.187518 0
M  V30 52 H -2.230400 -3.827738 -3.881314 0
M  V30 53 H -3.325830 -1.824206 -3.816115 0
M  V30 54 H -2.273008 -0.676245 -4.659480 0
M  V30 55 H -3.272518 -0.157708 -3.196454 0
M  V30 END ATOM
M  V30 BEGIN BOND
M  V30 1 1 1 2
M  V30 2 2 2 3
M  V30 3 1 3 4
M  V30 4 2 4 5
M  V30 5 1 5 6
M  V30 6 1 6 7
M  V30 7 1 7 8
M  V30 8 2 8 9
M  V30 9 1 8 10
M  V30 10 2 10 11
M  V30 11 1 11 12
M  V30 12 1 12 13
M  V30 13 1 13 14
M  V30 14 1 14 15
M  V30 15 1 15 16
M  V30 16 1 16 17
M  V30 17 1 12 18
M  V30 18 2 18 19
M  V30 19 1 18 20
M  V30 20 2 20 21
M  V30 21 1 21 22
M  V30 22 2 22 23
M  V30 23 1 23 24
M  V30 24 2 24 25
M  V30 25 1 25 26
M  V30 26 2 26 27
M  V30 27 1 27 28
M  V30 28 1 28 29
M  V30 29 1 5 30
M  V30 30 1 30 2
M  V30 31 1 21 10
M  V30 32 1 27 22
M  V30 33 1 17 13
M  V30 34 1 28 20
M  V30 35 1 1 31
M  V30 36 1 1 32
M  V30 37 1 1 33
M  V30 38 1 3 34
M  V30 39 1 4 35
M  V30 40 1 6 36
M  V30 41 1 6 37
M  V30 42 1 7 38
M  V30 43 1 11 39
M  V30 44 1 13 40
M  V30 45 1 14 41
M  V30 46 1 14 42
M  V30 47 1 15 43
M  V30 48 1 15 44
M  V30 49 1 16 45
M  V30 50 1 16 46
M  V30 51 1 17 47
M  V30 52 1 17 48
M  V30 53 1 23 49
M  V30 54 1 24 50
M  V30 55 1 25 51
M  V30 56 1 26 52
M  V30 57 1 29 53
M  V30 58 1 29 54
M  V30 59 1 29 55
M  V30 END BOND
M  V30 END CTAB
M  END
>  <Dataset>  (278) 
ChEMBL_Kinases

>  <Ligand_Instance>  (278) 
nan

>  <PDB_ID>  (278) 
nan

>  <Standardized_SMILES>  (278) 
Cc1ccc(CNC(=O)c2cn(C3CCCC3)c(=O)c3c2c2ccccc2n3C)o1

>  <Name>  (278) 
nan

>  <Pocket>  (278) 
nan

>  <ATP_Site>  (278) 
nan

>  <Peripheral>  (278) 
nan

>  <Num_H_Atoms_ProtBoundConf>  (278) 
nan

>  <Num_Resolved_Atoms>  (278) 
nan

>  <Num_Not_Resolved_Atoms>  (278) 
nan

$$$$
CHEMBL1370122
     RDKit          3D

  0  0  0  0  0  0  0  0  0  0999 V3000
M  V30 BEGIN CTAB
M  V30 COUNTS 45 48 0 0 0
M  V30 BEGIN ATOM
M  V30 1 C 0.077491 -0.418393 2.789093 0
M  V30 2 N 0.326366 0.915688 2.260574 0
M  V30 3 C 1.547641 1.513322 2.112839 0
M  V30 4 C 2.792186 0.820784 2.502830 0
M  V30 5 O 3.385451 0.042447 1.529203 0
M  V30 6 C 3.882454 0.354866 0.308582 0
M  V30 7 C 3.995373 1.520495 -0.419711 0
M  V30 8 C 4.559492 1.556868 -1.675887 0
M  V30 9 C 5.040397 0.405979 -2.259744 0
M  V30 10 C 4.953427 -0.787735 -1.576946 0
M  V30 11 C 4.377021 -0.801453 -0.303075 0
M  V30 12 N 1.273432 2.723151 1.593768 0
M  V30 13 N -0.022942 2.842510 1.440907 0
M  V30 14 C -0.653443 1.728083 1.848372 0
M  V30 15 S -2.423798 1.506315 1.797037 0
M  V30 16 C -2.855578 0.771640 0.193980 0
M  V30 17 C -2.287266 -0.575585 0.156061 0
M  V30 18 C -1.151006 -0.899053 -0.559010 0
M  V30 19 C -0.646721 -2.172833 -0.570892 0
M  V30 20 O 0.486863 -2.462693 -1.292943 0
M  V30 21 N -1.269865 -3.159772 0.136088 0
M  V30 22 C -2.383818 -2.888070 0.849579 0
M  V30 23 C -3.037108 -3.863159 1.574025 0
M  V30 24 C -4.184960 -3.640749 2.323602 0
M  V30 25 C -4.660416 -2.327914 2.303984 0
M  V30 26 C -4.012709 -1.354919 1.584309 0
M  V30 27 C -2.864582 -1.598274 0.840251 0
M  V30 28 H 0.692712 -0.614531 3.696716 0
M  V30 29 H -0.972424 -0.513157 3.128387 0
M  V30 30 H 0.256302 -1.216838 2.042393 0
M  V30 31 H 3.513040 1.582034 2.931208 0
M  V30 32 H 2.578677 0.146807 3.385594 0
M  V30 33 H 3.592559 2.360581 0.126922 0
M  V30 34 H 4.593769 2.533846 -2.154240 0
M  V30 35 H 5.482753 0.453280 -3.252489 0
M  V30 36 H 5.346917 -1.642551 -2.092379 0
M  V30 37 H 4.387422 -1.823379 0.094932 0
M  V30 38 H -3.903496 0.877788 -0.078394 0
M  V30 39 H -2.286142 1.388676 -0.563496 0
M  V30 40 H -0.648436 -0.119369 -1.125144 0
M  V30 41 H 1.276090 -2.897802 -0.822371 0
M  V30 42 H -2.659079 -4.892820 1.586354 0
M  V30 43 H -4.707202 -4.372909 2.890022 0
M  V30 44 H -5.555150 -2.037317 2.856025 0
M  V30 45 H -4.402860 -0.336890 1.583231 0
M  V30 END ATOM
M  V30 BEGIN BOND
M  V30 1 1 1 2
M  V30 2 1 2 3
M  V30 3 1 3 4
M  V30 4 1 4 5
M  V30 5 1 5 6
M  V30 6 2 6 7
M  V30 7 1 7 8
M  V30 8 2 8 9
M  V30 9 1 9 10
M  V30 10 2 10 11
M  V30 11 2 3 12
M  V30 12 1 12 13
M  V30 13 2 13 14
M  V30 14 1 14 15
M  V30 15 1 15 16
M  V30 16 1 16 17
M  V30 17 2 17 18
M  V30 18 1 18 19
M  V30 19 1 19 20
M  V30 20 2 19 21
M  V30 21 1 21 22
M  V30 22 2 22 23
M  V30 23 1 23 24
M  V30 24 2 24 25
M  V30 25 1 25 26
M  V30 26 2 26 27
M  V30 27 1 14 2
M  V30 28 1 27 17
M  V30 29 1 11 6
M  V30 30 1 27 22
M  V30 31 1 1 28
M  V30 32 1 1 29
M  V30 33 1 1 30
M  V30 34 1 4 31
M  V30 35 1 4 32
M  V30 36 1 7 33
M  V30 37 1 8 34
M  V30 38 1 9 35
M  V30 39 1 10 36
M  V30 40 1 11 37
M  V30 41 1 16 38
M  V30 42 1 16 39
M  V30 43 1 18 40
M  V30 44 1 20 41
M  V30 45 1 23 42
M  V30 46 1 24 43
M  V30 47 1 25 44
M  V30 48 1 26 45
M  V30 END BOND
M  V30 END CTAB
M  END
>  <Dataset>  (279) 
ChEMBL_Kinases

>  <Ligand_Instance>  (279) 
nan

>  <PDB_ID>  (279) 
nan

>  <Standardized_SMILES>  (279) 
Cn1c(COc2ccccc2)nnc1SCc1cc(O)nc2ccccc12

>  <Name>  (279) 
nan

>  <Pocket>  (279) 
nan

>  <ATP_Site>  (279) 
nan

>  <Peripheral>  (279) 
nan

>  <Num_H_Atoms_ProtBoundConf>  (279) 
nan

>  <Num_Resolved_Atoms>  (279) 
nan

>  <Num_Not_Resolved_Atoms>  (279) 
nan

$$$$
CHEMBL1370284
     RDKit          3D

  0  0  0  0  0  0  0  0  0  0999 V3000
M  V30 BEGIN CTAB
M  V30 COUNTS 56 57 0 0 0
M  V30 BEGIN ATOM
M  V30 1 C 2.761895 -4.030181 2.698386 0
M  V30 2 C 1.729303 -3.903455 1.869894 0
M  V30 3 C 1.874468 -2.795749 0.824720 0 CFG=2
M  V30 4 C 3.165090 -3.141624 0.080881 0
M  V30 5 O 1.982665 -1.661532 1.575688 0
M  V30 6 C 0.678588 -2.909754 -0.070278 0
M  V30 7 C 0.499295 -2.012953 -1.189387 0
M  V30 8 C 0.341663 -0.574934 -1.174116 0
M  V30 9 C 1.454977 0.212930 -0.607807 0
M  V30 10 C 2.704848 0.007540 -1.059697 0
M  V30 11 C 1.346456 1.261141 0.428515 0
M  V30 12 C 0.009268 1.470666 1.029892 0
M  V30 13 O -0.502639 2.743507 0.843444 0
M  V30 14 C -0.922021 0.350411 0.691449 0
M  V30 15 C -2.252704 0.411467 1.366553 0
M  V30 16 C -1.955583 0.564804 2.864671 0
M  V30 17 C -3.184792 1.488382 0.998324 0
M  V30 18 C -2.920018 -0.908710 1.198858 0
M  V30 19 C -2.992611 -1.436773 -0.193674 0
M  V30 20 C -2.187856 -0.702059 -1.210964 0
M  V30 21 C -0.992172 0.012857 -0.773557 0
M  V30 22 C -1.033441 1.396775 -1.444758 0
M  V30 23 H 3.604644 -3.370350 2.586803 0
M  V30 24 H 2.734814 -4.797920 3.472455 0
M  V30 25 H 0.856796 -4.549390 1.947025 0
M  V30 26 H 2.920390 -3.351515 -0.965243 0
M  V30 27 H 3.908270 -2.315075 0.189885 0
M  V30 28 H 3.674013 -4.032542 0.496528 0
M  V30 29 H 2.148276 -1.769637 2.530453 0
M  V30 30 H -0.194985 -3.074919 0.596197 0
M  V30 31 H 0.802505 -3.954710 -0.518191 0
M  V30 32 H -0.212216 -2.493620 -1.950862 0
M  V30 33 H 1.473364 -2.161961 -1.800018 0
M  V30 34 H 0.409439 -0.311627 -2.293522 0
M  V30 35 H 3.595933 0.519177 -0.725162 0
M  V30 36 H 2.918010 -0.715270 -1.823101 0
M  V30 37 H 2.149389 1.037249 1.181574 0
M  V30 38 H 1.689108 2.260896 0.017229 0
M  V30 39 H 0.146254 1.399923 2.151418 0
M  V30 40 H 0.162041 3.350161 0.440907 0
M  V30 41 H -0.443065 -0.539512 1.159352 0
M  V30 42 H -1.823546 1.633457 3.098140 0
M  V30 43 H -2.776205 0.088216 3.470092 0
M  V30 44 H -1.015099 0.027780 3.118267 0
M  V30 45 H -4.006107 1.460182 1.779442 0
M  V30 46 H -3.777676 1.309586 0.052655 0
M  V30 47 H -2.812630 2.527962 1.079608 0
M  V30 48 H -3.927352 -0.812089 1.678053 0
M  V30 49 H -2.385419 -1.613691 1.902604 0
M  V30 50 H -2.664358 -2.500124 -0.151197 0
M  V30 51 H -4.069332 -1.510972 -0.459715 0
M  V30 52 H -1.922649 -1.411799 -2.022909 0
M  V30 53 H -2.945362 -0.044766 -1.742592 0
M  V30 54 H -1.387758 1.179328 -2.496796 0
M  V30 55 H -0.033175 1.825446 -1.591885 0
M  V30 56 H -1.777487 2.063505 -1.031685 0
M  V30 END ATOM
M  V30 BEGIN BOND
M  V30 1 2 1 2
M  V30 2 1 2 3
M  V30 3 1 3 4
M  V30 4 1 3 5 CFG=1
M  V30 5 1 3 6
M  V30 6 1 6 7
M  V30 7 1 7 8
M  V30 8 1 8 9
M  V30 9 2 9 10
M  V30 10 1 9 11
M  V30 11 1 11 12
M  V30 12 1 12 13
M  V30 13 1 12 14
M  V30 14 1 14 15
M  V30 15 1 15 16
M  V30 16 1 15 17
M  V30 17 1 15 18
M  V30 18 1 18 19
M  V30 19 1 19 20
M  V30 20 1 20 21
M  V30 21 1 21 22
M  V30 22 1 21 8
M  V30 23 1 21 14
M  V30 24 1 1 23
M  V30 25 1 1 24
M  V30 26 1 2 25
M  V30 27 1 4 26
M  V30 28 1 4 27
M  V30 29 1 4 28
M  V30 30 1 5 29
M  V30 31 1 6 30
M  V30 32 1 6 31
M  V30 33 1 7 32
M  V30 34 1 7 33
M  V30 35 1 8 34
M  V30 36 1 10 35
M  V30 37 1 10 36
M  V30 38 1 11 37
M  V30 39 1 11 38
M  V30 40 1 12 39
M  V30 41 1 13 40
M  V30 42 1 14 41
M  V30 43 1 16 42
M  V30 44 1 16 43
M  V30 45 1 16 44
M  V30 46 1 17 45
M  V30 47 1 17 46
M  V30 48 1 17 47
M  V30 49 1 18 48
M  V30 50 1 18 49
M  V30 51 1 19 50
M  V30 52 1 19 51
M  V30 53 1 20 52
M  V30 54 1 20 53
M  V30 55 1 22 54
M  V30 56 1 22 55
M  V30 57 1 22 56
M  V30 END BOND
M  V30 END CTAB
M  END
>  <Dataset>  (280) 
ChEMBL_Kinases

>  <Ligand_Instance>  (280) 
nan

>  <PDB_ID>  (280) 
nan

>  <Standardized_SMILES>  (280) 
C=C[C@](C)(O)CCC1C(=C)CC(O)C2C(C)(C)CCCC12C

>  <Name>  (280) 
nan

>  <Pocket>  (280) 
nan

>  <ATP_Site>  (280) 
nan

>  <Peripheral>  (280) 
nan

>  <Num_H_Atoms_ProtBoundConf>  (280) 
nan

>  <Num_Resolved_Atoms>  (280) 
nan

>  <Num_Not_Resolved_Atoms>  (280) 
nan

$$$$
CHEMBL1370293
     RDKit          3D

  0  0  0  0  0  0  0  0  0  0999 V3000
M  V30 BEGIN CTAB
M  V30 COUNTS 29 31 0 0 0
M  V30 BEGIN ATOM
M  V30 1 C -1.764878 -2.198359 5.400221 0
M  V30 2 N -1.209260 -1.761140 4.137049 0
M  V30 3 C -0.722093 -2.734883 3.219699 0
M  V30 4 C -0.214140 -2.315163 2.062096 0
M  V30 5 C -0.119020 -0.918791 1.660644 0
M  V30 6 C 0.386262 -0.529063 0.513028 0
M  V30 7 C 0.932479 -1.355013 -0.552755 0
M  V30 8 O 1.045615 -2.582719 -0.625385 0
M  V30 9 C 1.393005 -0.500388 -1.668767 0
M  V30 10 C 1.982766 -0.782094 -2.905068 0
M  V30 11 C 2.324609 0.223985 -3.785600 0
M  V30 12 C 2.081396 1.538603 -3.443775 0
M  V30 13 C 1.501812 1.821948 -2.229726 0
M  V30 14 C 1.143800 0.823888 -1.315334 0
M  V30 15 C 0.527925 0.831438 0.015864 0
M  V30 16 O 0.216946 1.905707 0.537971 0
M  V30 17 C -0.640387 0.003119 2.659234 0
M  V30 18 C -1.156773 -0.372999 3.828970 0
M  V30 19 H -1.337188 -3.178449 5.642761 0
M  V30 20 H -1.590323 -1.454171 6.205734 0
M  V30 21 H -2.867962 -2.317446 5.352970 0
M  V30 22 H -0.777132 -3.780670 3.485307 0
M  V30 23 H 0.129607 -3.108941 1.429776 0
M  V30 24 H 2.182322 -1.817588 -3.191565 0
M  V30 25 H 2.781568 -0.067555 -4.733221 0
M  V30 26 H 2.359007 2.312663 -4.152842 0
M  V30 27 H 1.311258 2.864325 -1.963647 0
M  V30 28 H -0.639886 1.060245 2.509991 0
M  V30 29 H -1.538442 0.337113 4.555062 0
M  V30 END ATOM
M  V30 BEGIN BOND
M  V30 1 1 1 2
M  V30 2 1 2 3
M  V30 3 2 3 4
M  V30 4 1 4 5
M  V30 5 2 5 6 CFG=2
M  V30 6 1 6 7
M  V30 7 2 7 8
M  V30 8 1 7 9
M  V30 9 2 9 10
M  V30 10 1 10 11
M  V30 11 2 11 12
M  V30 12 1 12 13
M  V30 13 2 13 14
M  V30 14 1 14 15
M  V30 15 2 15 16
M  V30 16 1 5 17
M  V30 17 2 17 18
M  V30 18 1 18 2
M  V30 19 1 15 6
M  V30 20 1 14 9
M  V30 21 1 1 19
M  V30 22 1 1 20
M  V30 23 1 1 21
M  V30 24 1 3 22
M  V30 25 1 4 23
M  V30 26 1 10 24
M  V30 27 1 11 25
M  V30 28 1 12 26
M  V30 29 1 13 27
M  V30 30 1 17 28
M  V30 31 1 18 29
M  V30 END BOND
M  V30 END CTAB
M  END
>  <Dataset>  (281) 
ChEMBL_Kinases

>  <Ligand_Instance>  (281) 
nan

>  <PDB_ID>  (281) 
nan

>  <Standardized_SMILES>  (281) 
CN1C=CC(=C2C(=O)c3ccccc3C2=O)C=C1

>  <Name>  (281) 
nan

>  <Pocket>  (281) 
nan

>  <ATP_Site>  (281) 
nan

>  <Peripheral>  (281) 
nan

>  <Num_H_Atoms_ProtBoundConf>  (281) 
nan

>  <Num_Resolved_Atoms>  (281) 
nan

>  <Num_Not_Resolved_Atoms>  (281) 
nan

$$$$
CHEMBL1370296
     RDKit          3D

  0  0  0  0  0  0  0  0  0  0999 V3000
M  V30 BEGIN CTAB
M  V30 COUNTS 41 44 0 0 0
M  V30 BEGIN ATOM
M  V30 1 C 1.201370 -6.088737 0.558711 0
M  V30 2 C 0.209336 -5.092388 0.084413 0
M  V30 3 C -1.123610 -5.447045 0.203196 0
M  V30 4 C -2.097107 -4.551679 -0.224945 0
M  V30 5 C -1.685644 -3.345075 -0.750966 0
M  V30 6 C -0.365435 -2.967106 -0.880446 0
M  V30 7 C 0.092139 -1.685498 -1.437551 0
M  V30 8 N 0.235134 -0.632668 -0.437786 0
M  V30 9 C 0.674684 0.660046 -0.833606 0
M  V30 10 N 0.953871 0.891590 -2.126287 0
M  V30 11 C 1.375755 2.084097 -2.584920 0
M  V30 12 N 1.529288 3.101244 -1.717098 0
M  V30 13 C 1.271099 2.950611 -0.409072 0
M  V30 14 C 1.430185 3.995964 0.476951 0
M  V30 15 C 1.157986 3.815083 1.817674 0
M  V30 16 C 0.720222 2.571488 2.281691 0
M  V30 17 C 0.425541 2.355117 3.694315 0
M  V30 18 C -0.445087 1.566092 4.419095 0
M  V30 19 C -0.214942 1.841370 5.772178 0
M  V30 20 O 0.732574 2.738925 5.886190 0
M  V30 21 C 1.126992 3.058333 4.677497 0
M  V30 22 C 0.570453 1.543083 1.369762 0
M  V30 23 C 0.838657 1.715479 0.038101 0
M  V30 24 C 0.600048 -3.878324 -0.445510 0
M  V30 25 H 1.114152 -6.190380 1.675569 0
M  V30 26 H 0.992138 -7.087676 0.135610 0
M  V30 27 H 2.248664 -5.757667 0.348222 0
M  V30 28 H -1.414089 -6.400081 0.619869 0
M  V30 29 H -3.143068 -4.805707 -0.142250 0
M  V30 30 H -2.395949 -2.605552 -1.101845 0
M  V30 31 H -0.563170 -1.314808 -2.252489 0
M  V30 32 H 1.083866 -1.857659 -1.922641 0
M  V30 33 H -0.011260 -0.942616 0.523545 0
M  V30 34 H 1.562902 2.127394 -3.649878 0
M  V30 35 H 1.762620 4.953202 0.145667 0
M  V30 36 H 1.270436 4.605739 2.535294 0
M  V30 37 H -1.117882 0.908670 3.878536 0
M  V30 38 H -0.858798 1.263344 6.430021 0
M  V30 39 H 1.924992 3.809809 4.671814 0
M  V30 40 H 0.235400 0.610082 1.761578 0
M  V30 41 H 1.648372 -3.612148 -0.533130 0
M  V30 END ATOM
M  V30 BEGIN BOND
M  V30 1 1 1 2
M  V30 2 2 2 3
M  V30 3 1 3 4
M  V30 4 2 4 5
M  V30 5 1 5 6
M  V30 6 1 6 7
M  V30 7 1 7 8
M  V30 8 1 8 9
M  V30 9 2 9 10
M  V30 10 1 10 11
M  V30 11 2 11 12
M  V30 12 1 12 13
M  V30 13 2 13 14
M  V30 14 1 14 15
M  V30 15 2 15 16
M  V30 16 1 16 17
M  V30 17 1 17 18
M  V30 18 2 18 19
M  V30 19 1 19 20
M  V30 20 1 20 21
M  V30 21 1 16 22
M  V30 22 2 22 23
M  V30 23 2 6 24
M  V30 24 1 24 2
M  V30 25 1 23 9
M  V30 26 1 23 13
M  V30 27 2 21 17
M  V30 28 1 1 25
M  V30 29 1 1 26
M  V30 30 1 1 27
M  V30 31 1 3 28
M  V30 32 1 4 29
M  V30 33 1 5 30
M  V30 34 1 7 31
M  V30 35 1 7 32
M  V30 36 1 8 33
M  V30 37 1 11 34
M  V30 38 1 14 35
M  V30 39 1 15 36
M  V30 40 1 18 37
M  V30 41 1 19 38
M  V30 42 1 21 39
M  V30 43 1 22 40
M  V30 44 1 24 41
M  V30 END BOND
M  V30 END CTAB
M  END
>  <Dataset>  (282) 
ChEMBL_Kinases

>  <Ligand_Instance>  (282) 
nan

>  <PDB_ID>  (282) 
nan

>  <Standardized_SMILES>  (282) 
Cc1cccc(CNc2ncnc3ccc(-c4ccoc4)cc23)c1

>  <Name>  (282) 
nan

>  <Pocket>  (282) 
nan

>  <ATP_Site>  (282) 
nan

>  <Peripheral>  (282) 
nan

>  <Num_H_Atoms_ProtBoundConf>  (282) 
nan

>  <Num_Resolved_Atoms>  (282) 
nan

>  <Num_Not_Resolved_Atoms>  (282) 
nan

$$$$
CHEMBL1370309
     RDKit          3D

  0  0  0  0  0  0  0  0  0  0999 V3000
M  V30 BEGIN CTAB
M  V30 COUNTS 57 60 0 0 0
M  V30 BEGIN ATOM
M  V30 1 C 4.390237 -4.195472 1.647840 0
M  V30 2 O 5.527451 -3.378749 1.416756 0
M  V30 3 C 5.277396 -2.077779 0.975452 0
M  V30 4 C 6.369914 -1.266716 0.744772 0
M  V30 5 C 6.222845 0.033386 0.307356 0
M  V30 6 O 7.250749 0.931887 0.045562 0
M  V30 7 C 8.577476 0.480813 0.243639 0
M  V30 8 C 4.950447 0.557708 0.087679 0
M  V30 9 C 3.854105 -0.258471 0.320035 0
M  V30 10 C 2.438017 0.087890 0.157473 0
M  V30 11 N 2.000812 0.861935 1.173485 0
M  V30 12 C 0.682582 1.158022 0.981106 0
M  V30 13 N -0.202245 1.881053 1.689397 0
M  V30 14 C -1.475853 2.026323 1.278677 0
M  V30 15 C -2.292403 2.853168 2.193785 0
M  V30 16 C -1.859661 1.401039 0.086132 0
M  V30 17 C -3.271729 1.603521 -0.314279 0
M  V30 18 C -4.253797 0.812222 0.504220 0
M  V30 19 C -4.054600 -0.657778 0.437194 0
M  V30 20 O -3.390669 -1.617973 -0.028867 0
M  V30 21 N -5.049503 -1.304823 1.264553 0
M  V30 22 C -5.021738 -2.760971 1.331891 0
M  V30 23 C -5.221712 -3.417991 0.037519 0
M  V30 24 C -6.540682 -3.711156 -0.325098 0
M  V30 25 C -6.514722 -4.324966 -1.570839 0
M  V30 26 C -5.187090 -4.374303 -1.902443 0
M  V30 27 O -4.462919 -3.838700 -0.945792 0
M  V30 28 C -0.928558 0.675939 -0.602463 0
M  V30 29 C -1.274495 0.009233 -1.852996 0
M  V30 30 N 0.346345 0.545229 -0.167740 0
M  V30 31 N 1.399052 -0.104929 -0.675093 0
M  V30 32 C 4.017815 -1.544759 0.753458 0
M  V30 33 H 4.683453 -5.237286 1.908421 0
M  V30 34 H 3.733852 -4.259655 0.751804 0
M  V30 35 H 3.727456 -3.768373 2.447825 0
M  V30 36 H 7.384973 -1.610408 0.895197 0
M  V30 37 H 8.619464 -0.017036 1.232574 0
M  V30 38 H 9.291801 1.328965 0.265207 0
M  V30 39 H 8.866986 -0.285849 -0.495475 0
M  V30 40 H 4.678796 1.542443 -0.249427 0
M  V30 41 H -1.658060 3.705669 2.578564 0
M  V30 42 H -3.176765 3.312557 1.765521 0
M  V30 43 H -2.495456 2.215968 3.079508 0
M  V30 44 H -3.454105 1.503022 -1.404494 0
M  V30 45 H -3.513237 2.686028 -0.103179 0
M  V30 46 H -5.274211 0.989868 0.096038 0
M  V30 47 H -4.204928 1.165826 1.558120 0
M  V30 48 H -5.819740 -0.851888 1.846345 0
M  V30 49 H -5.658438 -3.163350 2.142916 0
M  V30 50 H -3.953715 -2.995191 1.625485 0
M  V30 51 H -7.504716 -3.546831 0.175085 0
M  V30 52 H -7.274709 -4.713253 -2.223257 0
M  V30 53 H -4.623630 -4.752101 -2.764787 0
M  V30 54 H -1.312870 -1.109689 -1.746145 0
M  V30 55 H -2.131772 0.373083 -2.402909 0
M  V30 56 H -0.391978 0.160969 -2.546711 0
M  V30 57 H 3.220694 -2.271072 0.966493 0
M  V30 END ATOM
M  V30 BEGIN BOND
M  V30 1 1 1 2
M  V30 2 1 2 3
M  V30 3 2 3 4
M  V30 4 1 4 5
M  V30 5 1 5 6
M  V30 6 1 6 7
M  V30 7 2 5 8
M  V30 8 1 8 9
M  V30 9 1 9 10
M  V30 10 1 10 11
M  V30 11 2 11 12
M  V30 12 1 12 13
M  V30 13 2 13 14
M  V30 14 1 14 15
M  V30 15 1 14 16
M  V30 16 1 16 17
M  V30 17 1 17 18
M  V30 18 1 18 19
M  V30 19 2 19 20
M  V30 20 1 19 21
M  V30 21 1 21 22
M  V30 22 1 22 23
M  V30 23 2 23 24
M  V30 24 1 24 25
M  V30 25 2 25 26
M  V30 26 1 26 27
M  V30 27 2 16 28
M  V30 28 1 28 29
M  V30 29 1 28 30
M  V30 30 1 30 31
M  V30 31 2 9 32
M  V30 32 1 32 3
M  V30 33 2 31 10
M  V30 34 1 30 12
M  V30 35 1 27 23
M  V30 36 1 1 33
M  V30 37 1 1 34
M  V30 38 1 1 35
M  V30 39 1 4 36
M  V30 40 1 7 37
M  V30 41 1 7 38
M  V30 42 1 7 39
M  V30 43 1 8 40
M  V30 44 1 15 41
M  V30 45 1 15 42
M  V30 46 1 15 43
M  V30 47 1 17 44
M  V30 48 1 17 45
M  V30 49 1 18 46
M  V30 50 1 18 47
M  V30 51 1 21 48
M  V30 52 1 22 49
M  V30 53 1 22 50
M  V30 54 1 24 51
M  V30 55 1 25 52
M  V30 56 1 26 53
M  V30 57 1 29 54
M  V30 58 1 29 55
M  V30 59 1 29 56
M  V30 60 1 32 57
M  V30 END BOND
M  V30 END CTAB
M  END
>  <Dataset>  (283) 
ChEMBL_Kinases

>  <Ligand_Instance>  (283) 
nan

>  <PDB_ID>  (283) 
nan

>  <Standardized_SMILES>  (283) 
COc1cc(OC)cc(-c2nc3nc(C)c(CCC(=O)NCc4ccco4)c(C)n3n2)c1

>  <Name>  (283) 
nan

>  <Pocket>  (283) 
nan

>  <ATP_Site>  (283) 
nan

>  <Peripheral>  (283) 
nan

>  <Num_H_Atoms_ProtBoundConf>  (283) 
nan

>  <Num_Resolved_Atoms>  (283) 
nan

>  <Num_Not_Resolved_Atoms>  (283) 
nan

$$$$
CHEMBL1371099
     RDKit          3D

  0  0  0  0  0  0  0  0  0  0999 V3000
M  V30 BEGIN CTAB
M  V30 COUNTS 38 40 0 0 0
M  V30 BEGIN ATOM
M  V30 1 C -2.211504 -3.329695 5.339514 0
M  V30 2 C -1.319254 -3.249284 4.163905 0
M  V30 3 C -1.107620 -4.366702 3.389827 0
M  V30 4 C -0.272132 -4.254619 2.305355 0
M  V30 5 C 0.382473 -3.092154 1.923455 0
M  V30 6 N 1.243914 -3.047130 0.804921 0
M  V30 7 C 1.564290 -2.058861 -0.149280 0
M  V30 8 C 0.971717 -0.831924 -0.290789 0
M  V30 9 C 1.300414 0.134776 -1.215552 0
M  V30 10 N 0.637379 1.390844 -1.302509 0
M  V30 11 N -0.682140 1.632519 -1.366427 0
M  V30 12 C -0.917568 2.933331 -1.440323 0
M  V30 13 C -2.230143 3.633160 -1.527481 0
M  V30 14 C 0.326548 3.560260 -1.422578 0
M  V30 15 C 1.298901 2.576795 -1.335414 0
M  V30 16 C 2.763609 2.853800 -1.291870 0
M  V30 17 N 2.325233 -0.185541 -2.068170 0
M  V30 18 C 2.926206 -1.405469 -1.940743 0
M  V30 19 N 2.557867 -2.305905 -1.015472 0
M  V30 20 C 0.114313 -2.025490 2.753050 0
M  V30 21 C -0.709079 -2.051985 3.858186 0
M  V30 22 H -2.390645 -4.389864 5.607187 0
M  V30 23 H -1.689353 -2.872364 6.201538 0
M  V30 24 H -3.169210 -2.790552 5.171236 0
M  V30 25 H -1.594544 -5.271979 3.656596 0
M  V30 26 H -0.115076 -5.152819 1.701970 0
M  V30 27 H 1.737379 -3.984761 0.703688 0
M  V30 28 H 0.165368 -0.563997 0.352821 0
M  V30 29 H -2.511792 3.863497 -2.570589 0
M  V30 30 H -2.996396 2.900502 -1.167226 0
M  V30 31 H -2.255210 4.500371 -0.860898 0
M  V30 32 H 0.543409 4.619533 -1.467206 0
M  V30 33 H 3.028765 3.529166 -2.117705 0
M  V30 34 H 3.024627 3.315210 -0.319022 0
M  V30 35 H 3.310481 1.897235 -1.415247 0
M  V30 36 H 3.747215 -1.663746 -2.623815 0
M  V30 37 H 0.568124 -1.064129 2.580515 0
M  V30 38 H -0.891845 -1.203159 4.476731 0
M  V30 END ATOM
M  V30 BEGIN BOND
M  V30 1 1 1 2
M  V30 2 2 2 3
M  V30 3 1 3 4
M  V30 4 2 4 5
M  V30 5 1 5 6
M  V30 6 1 6 7
M  V30 7 2 7 8
M  V30 8 1 8 9
M  V30 9 1 9 10
M  V30 10 1 10 11
M  V30 11 2 11 12
M  V30 12 1 12 13
M  V30 13 1 12 14
M  V30 14 2 14 15
M  V30 15 1 15 16
M  V30 16 2 9 17
M  V30 17 1 17 18
M  V30 18 2 18 19
M  V30 19 1 5 20
M  V30 20 2 20 21
M  V30 21 1 21 2
M  V30 22 1 19 7
M  V30 23 1 15 10
M  V30 24 1 1 22
M  V30 25 1 1 23
M  V30 26 1 1 24
M  V30 27 1 3 25
M  V30 28 1 4 26
M  V30 29 1 6 27
M  V30 30 1 8 28
M  V30 31 1 13 29
M  V30 32 1 13 30
M  V30 33 1 13 31
M  V30 34 1 14 32
M  V30 35 1 16 33
M  V30 36 1 16 34
M  V30 37 1 16 35
M  V30 38 1 18 36
M  V30 39 1 20 37
M  V30 40 1 21 38
M  V30 END BOND
M  V30 END CTAB
M  END
>  <Dataset>  (284) 
ChEMBL_Kinases

>  <Ligand_Instance>  (284) 
nan

>  <PDB_ID>  (284) 
nan

>  <Standardized_SMILES>  (284) 
Cc1ccc(Nc2cc(-n3nc(C)cc3C)ncn2)cc1

>  <Name>  (284) 
nan

>  <Pocket>  (284) 
nan

>  <ATP_Site>  (284) 
nan

>  <Peripheral>  (284) 
nan

>  <Num_H_Atoms_ProtBoundConf>  (284) 
nan

>  <Num_Resolved_Atoms>  (284) 
nan

>  <Num_Not_Resolved_Atoms>  (284) 
nan

$$$$
CHEMBL1370390
     RDKit          3D

  0  0  0  0  0  0  0  0  0  0999 V3000
M  V30 BEGIN CTAB
M  V30 COUNTS 29 31 0 0 0
M  V30 BEGIN ATOM
M  V30 1 C -2.893735 -2.178790 2.649703 0
M  V30 2 N -1.678241 -2.399417 1.975650 0
M  V30 3 C -0.454654 -2.621531 1.297109 0
M  V30 4 C 0.129736 -3.850604 1.052861 0
M  V30 5 C 1.329818 -4.017562 0.408081 0
M  V30 6 C 1.901210 -2.827732 0.023879 0
M  V30 7 C 1.397893 -1.564555 0.221617 0
M  V30 8 C 0.168854 -1.465070 0.886185 0
M  V30 9 C -0.248893 -0.086940 1.021189 0
M  V30 10 O -1.332597 0.113349 1.597234 0
M  V30 11 C 0.457298 1.083633 0.557557 0
M  V30 12 C -0.035411 2.333796 0.743529 0
M  V30 13 C 0.585336 3.490613 0.328342 0
M  V30 14 C 1.802997 3.296405 -0.323035 0
M  V30 15 C 2.327506 2.032000 -0.525337 0
M  V30 16 C 1.666781 0.914614 -0.090867 0
M  V30 17 C 2.172250 -0.437045 -0.276240 0
M  V30 18 O 3.267999 -0.614780 -0.862238 0
M  V30 19 H -3.093740 -2.808443 3.577727 0
M  V30 20 H -2.980363 -1.142350 3.108823 0
M  V30 21 H -3.822558 -2.213178 2.005996 0
M  V30 22 H -1.988065 -3.413430 2.111155 0
M  V30 23 H -0.360272 -4.765109 1.376227 0
M  V30 24 H 1.742790 -4.988763 0.241846 0
M  V30 25 H 2.842346 -2.929560 -0.482779 0
M  V30 26 H -0.993532 2.502809 1.254877 0
M  V30 27 H 0.205997 4.481400 0.469434 0
M  V30 28 H 2.347062 4.148665 -0.676839 0
M  V30 29 H 3.259084 1.875175 -1.022992 0
M  V30 END ATOM
M  V30 BEGIN BOND
M  V30 1 1 1 2
M  V30 2 1 2 3
M  V30 3 2 3 4
M  V30 4 1 4 5
M  V30 5 2 5 6
M  V30 6 1 6 7
M  V30 7 2 7 8
M  V30 8 1 8 9
M  V30 9 2 9 10
M  V30 10 1 9 11
M  V30 11 2 11 12
M  V30 12 1 12 13
M  V30 13 2 13 14
M  V30 14 1 14 15
M  V30 15 2 15 16
M  V30 16 1 16 17
M  V30 17 2 17 18
M  V30 18 1 8 3
M  V30 19 1 16 11
M  V30 20 1 17 7
M  V30 21 1 1 19
M  V30 22 1 1 20
M  V30 23 1 1 21
M  V30 24 1 2 22
M  V30 25 1 4 23
M  V30 26 1 5 24
M  V30 27 1 6 25
M  V30 28 1 12 26
M  V30 29 1 13 27
M  V30 30 1 14 28
M  V30 31 1 15 29
M  V30 END BOND
M  V30 END CTAB
M  END
>  <Dataset>  (285) 
ChEMBL_Kinases

>  <Ligand_Instance>  (285) 
nan

>  <PDB_ID>  (285) 
nan

>  <Standardized_SMILES>  (285) 
CNc1cccc2c1C(=O)c1ccccc1C2=O

>  <Name>  (285) 
nan

>  <Pocket>  (285) 
nan

>  <ATP_Site>  (285) 
nan

>  <Peripheral>  (285) 
nan

>  <Num_H_Atoms_ProtBoundConf>  (285) 
nan

>  <Num_Resolved_Atoms>  (285) 
nan

>  <Num_Not_Resolved_Atoms>  (285) 
nan

$$$$
CHEMBL1370536
     RDKit          3D

  0  0  0  0  0  0  0  0  0  0999 V3000
M  V30 BEGIN CTAB
M  V30 COUNTS 47 49 0 0 0
M  V30 BEGIN ATOM
M  V30 1 C 5.621388 -3.842503 2.126256 0
M  V30 2 C 4.167401 -4.047140 1.847336 0
M  V30 3 N 3.655934 -3.249769 0.744411 0
M  V30 4 C 4.299964 -3.837451 -0.389051 0
M  V30 5 C 4.036002 -3.197029 -1.720771 0
M  V30 6 C 2.770568 -2.181362 1.018360 0
M  V30 7 C 2.542045 -1.887151 2.338210 0
M  V30 8 C 1.670370 -0.882260 2.703265 0
M  V30 9 C 0.994386 -0.132813 1.755527 0
M  V30 10 C 0.109223 0.884370 2.056183 0
M  V30 11 C -0.557338 1.620676 1.089376 0
M  V30 12 S -1.661456 2.887699 1.579242 0
M  V30 13 O -1.632269 3.079717 3.057020 0
M  V30 14 O -1.152882 4.163305 0.965901 0
M  V30 15 C -3.290606 2.595046 1.008664 0
M  V30 16 C -4.060195 1.854607 1.914574 0
M  V30 17 C -5.366951 1.551068 1.591991 0
M  V30 18 C -5.968566 1.939834 0.412218 0
M  V30 19 C -7.369556 1.640682 0.018868 0
M  V30 20 C -5.168987 2.677817 -0.468524 0
M  V30 21 C -3.860315 2.999873 -0.180389 0
M  V30 22 C -0.269366 1.261062 -0.209670 0
M  V30 23 O -0.862658 1.916016 -1.111543 0
M  V30 24 O 0.570458 0.295582 -0.494684 0
M  V30 25 C 1.197419 -0.397798 0.419599 0
M  V30 26 C 2.078777 -1.412310 0.122355 0
M  V30 27 H 6.285149 -4.615463 1.643500 0
M  V30 28 H 6.032123 -2.868868 1.869473 0
M  V30 29 H 5.830902 -3.984324 3.227198 0
M  V30 30 H 4.073901 -5.161162 1.598274 0
M  V30 31 H 3.578833 -3.951359 2.770635 0
M  V30 32 H 5.411907 -3.955002 -0.252617 0
M  V30 33 H 3.949859 -4.920393 -0.466562 0
M  V30 34 H 4.263171 -2.126568 -1.695989 0
M  V30 35 H 3.018411 -3.355624 -2.106514 0
M  V30 36 H 4.760145 -3.709607 -2.448312 0
M  V30 37 H 2.936317 -2.295852 3.242775 0
M  V30 38 H 1.414670 -0.564427 3.709675 0
M  V30 39 H -0.074505 1.118722 3.093064 0
M  V30 40 H -3.704098 1.484541 2.885522 0
M  V30 41 H -5.997456 0.973966 2.276055 0
M  V30 42 H -7.380569 0.941104 -0.838834 0
M  V30 43 H -7.879331 1.141916 0.871603 0
M  V30 44 H -7.871045 2.582096 -0.278537 0
M  V30 45 H -5.547257 3.035513 -1.432079 0
M  V30 46 H -3.190497 3.562325 -0.809349 0
M  V30 47 H 2.186666 -1.575569 -0.932108 0
M  V30 END ATOM
M  V30 BEGIN BOND
M  V30 1 1 1 2
M  V30 2 1 2 3
M  V30 3 1 3 4
M  V30 4 1 4 5
M  V30 5 1 3 6
M  V30 6 2 6 7
M  V30 7 1 7 8
M  V30 8 2 8 9
M  V30 9 1 9 10
M  V30 10 2 10 11
M  V30 11 1 11 12
M  V30 12 2 12 13
M  V30 13 2 12 14
M  V30 14 1 12 15
M  V30 15 2 15 16
M  V30 16 1 16 17
M  V30 17 2 17 18
M  V30 18 1 18 19
M  V30 19 1 18 20
M  V30 20 2 20 21
M  V30 21 1 11 22
M  V30 22 2 22 23
M  V30 23 1 22 24
M  V30 24 1 24 25
M  V30 25 2 25 26
M  V30 26 1 26 6
M  V30 27 1 25 9
M  V30 28 1 21 15
M  V30 29 1 1 27
M  V30 30 1 1 28
M  V30 31 1 1 29
M  V30 32 1 2 30
M  V30 33 1 2 31
M  V30 34 1 4 32
M  V30 35 1 4 33
M  V30 36 1 5 34
M  V30 37 1 5 35
M  V30 38 1 5 36
M  V30 39 1 7 37
M  V30 40 1 8 38
M  V30 41 1 10 39
M  V30 42 1 16 40
M  V30 43 1 17 41
M  V30 44 1 19 42
M  V30 45 1 19 43
M  V30 46 1 19 44
M  V30 47 1 20 45
M  V30 48 1 21 46
M  V30 49 1 26 47
M  V30 END BOND
M  V30 END CTAB
M  END
>  <Dataset>  (286) 
ChEMBL_Kinases

>  <Ligand_Instance>  (286) 
nan

>  <PDB_ID>  (286) 
nan

>  <Standardized_SMILES>  (286) 
CCN(CC)c1ccc2cc(S(=O)(=O)c3ccc(C)cc3)c(=O)oc2c1

>  <Name>  (286) 
nan

>  <Pocket>  (286) 
nan

>  <ATP_Site>  (286) 
nan

>  <Peripheral>  (286) 
nan

>  <Num_H_Atoms_ProtBoundConf>  (286) 
nan

>  <Num_Resolved_Atoms>  (286) 
nan

>  <Num_Not_Resolved_Atoms>  (286) 
nan

$$$$
CHEMBL1370698
     RDKit          3D

  0  0  0  0  0  0  0  0  0  0999 V3000
M  V30 BEGIN CTAB
M  V30 COUNTS 58 62 0 0 0
M  V30 BEGIN ATOM
M  V30 1 O -0.251319 -3.803392 1.467131 0
M  V30 2 C 0.287593 -2.713232 1.765401 0
M  V30 3 C 1.454967 -2.820867 2.613383 0
M  V30 4 C 1.938965 -4.043003 3.057252 0
M  V30 5 C 3.046714 -4.130756 3.860642 0
M  V30 6 C 3.699071 -2.966252 4.238368 0
M  V30 7 C 3.217264 -1.760627 3.797373 0
M  V30 8 C 2.102937 -1.637155 2.986459 0
M  V30 9 C 1.572664 -0.375842 2.506413 0
M  V30 10 O 2.237764 0.604880 2.907914 0
M  V30 11 C 0.403893 -0.245361 1.655559 0
M  V30 12 C -0.048208 0.986826 1.248351 0
M  V30 13 N 0.572740 2.209898 1.623556 0
M  V30 14 C 0.030701 3.442442 1.086201 0
M  V30 15 C 0.633918 4.696613 1.686642 0
M  V30 16 C -0.001518 5.869439 0.970492 0
M  V30 17 C -1.179484 5.491862 0.118914 0
M  V30 18 C -0.740166 4.497429 -0.943765 0
M  V30 19 C 0.304654 3.555140 -0.406147 0
M  V30 20 C -1.170646 1.015609 0.453363 0
M  V30 21 C -1.785814 -0.160250 0.100770 0
M  V30 22 C -1.314807 -1.410363 0.521293 0
M  V30 23 N -2.061817 -2.527015 0.067463 0
M  V30 24 C -1.775058 -3.628023 -0.783558 0
M  V30 25 C -2.623499 -4.710405 -0.759101 0
M  V30 26 C -2.344080 -5.759160 -1.603817 0
M  V30 27 C -1.284573 -5.815073 -2.472430 0
M  V30 28 S -0.944758 -7.150811 -3.535637 0
M  V30 29 O -1.452448 -8.411455 -2.934159 0
M  V30 30 O 0.517747 -7.239382 -3.856883 0
M  V30 31 O -1.743680 -6.866365 -4.990319 0
M  V30 32 C -0.428910 -4.734244 -2.503523 0
M  V30 33 C -0.688440 -3.671220 -1.665984 0
M  V30 34 C -0.194535 -1.433013 1.317285 0
M  V30 35 H 1.452156 -4.963288 2.779398 0
M  V30 36 H 3.404749 -5.081427 4.192647 0
M  V30 37 H 4.573487 -3.027443 4.871899 0
M  V30 38 H 3.733970 -0.865791 4.098713 0
M  V30 39 H 1.369686 2.470941 2.224698 0
M  V30 40 H -1.040484 3.456690 1.280641 0
M  V30 41 H 0.460791 4.755615 2.784462 0
M  V30 42 H 1.728629 4.743418 1.555422 0
M  V30 43 H 0.749195 6.351453 0.282173 0
M  V30 44 H -0.268299 6.610986 1.731174 0
M  V30 45 H -1.508141 6.407124 -0.409567 0
M  V30 46 H -2.048325 5.144793 0.696607 0
M  V30 47 H -1.605408 3.919578 -1.294119 0
M  V30 48 H -0.378186 5.084344 -1.808188 0
M  V30 49 H 0.387070 2.599330 -0.898897 0
M  V30 50 H 1.284265 4.079987 -0.557226 0
M  V30 51 H -1.642020 1.933701 0.067417 0
M  V30 52 H -2.684314 -0.113695 -0.537733 0
M  V30 53 H -3.014502 -2.455303 0.492280 0
M  V30 54 H -3.485245 -4.770254 -0.115340 0
M  V30 55 H -3.007973 -6.632456 -1.600354 0
M  V30 56 H -1.125098 -6.566398 -5.714592 0
M  V30 57 H 0.438031 -4.663393 -3.144846 0
M  V30 58 H -0.017262 -2.813237 -1.684307 0
M  V30 END ATOM
M  V30 BEGIN BOND
M  V30 1 2 1 2
M  V30 2 1 2 3
M  V30 3 2 3 4
M  V30 4 1 4 5
M  V30 5 2 5 6
M  V30 6 1 6 7
M  V30 7 2 7 8
M  V30 8 1 8 9
M  V30 9 2 9 10
M  V30 10 1 9 11
M  V30 11 2 11 12
M  V30 12 1 12 13
M  V30 13 1 13 14
M  V30 14 1 14 15
M  V30 15 1 15 16
M  V30 16 1 16 17
M  V30 17 1 17 18
M  V30 18 1 18 19
M  V30 19 1 12 20
M  V30 20 2 20 21
M  V30 21 1 21 22
M  V30 22 1 22 23
M  V30 23 1 23 24
M  V30 24 2 24 25
M  V30 25 1 25 26
M  V30 26 2 26 27
M  V30 27 1 27 28
M  V30 28 2 28 29
M  V30 29 2 28 30
M  V30 30 1 28 31
M  V30 31 1 27 32
M  V30 32 2 32 33
M  V30 33 2 22 34
M  V30 34 1 34 2
M  V30 35 1 8 3
M  V30 36 1 34 11
M  V30 37 1 19 14
M  V30 38 1 33 24
M  V30 39 1 4 35
M  V30 40 1 5 36
M  V30 41 1 6 37
M  V30 42 1 7 38
M  V30 43 1 13 39
M  V30 44 1 14 40
M  V30 45 1 15 41
M  V30 46 1 15 42
M  V30 47 1 16 43
M  V30 48 1 16 44
M  V30 49 1 17 45
M  V30 50 1 17 46
M  V30 51 1 18 47
M  V30 52 1 18 48
M  V30 53 1 19 49
M  V30 54 1 19 50
M  V30 55 1 20 51
M  V30 56 1 21 52
M  V30 57 1 23 53
M  V30 58 1 25 54
M  V30 59 1 26 55
M  V30 60 1 31 56
M  V30 61 1 32 57
M  V30 62 1 33 58
M  V30 END BOND
M  V30 END CTAB
M  END
>  <Dataset>  (287) 
ChEMBL_Kinases

>  <Ligand_Instance>  (287) 
nan

>  <PDB_ID>  (287) 
nan

>  <Standardized_SMILES>  (287) 
O=C1c2ccccc2C(=O)c2c(NC3CCCCC3)ccc(Nc3ccc(S(=O)(=O)O)cc3)c21

>  <Name>  (287) 
nan

>  <Pocket>  (287) 
nan

>  <ATP_Site>  (287) 
nan

>  <Peripheral>  (287) 
nan

>  <Num_H_Atoms_ProtBoundConf>  (287) 
nan

>  <Num_Resolved_Atoms>  (287) 
nan

>  <Num_Not_Resolved_Atoms>  (287) 
nan

$$$$
CHEMBL1370702
     RDKit          3D

  0  0  0  0  0  0  0  0  0  0999 V3000
M  V30 BEGIN CTAB
M  V30 COUNTS 63 66 0 0 0
M  V30 BEGIN ATOM
M  V30 1 C 0.848084 -3.048867 7.234323 0
M  V30 2 C 1.762614 -2.765120 6.108187 0
M  V30 3 C 2.365279 -3.753062 5.320870 0
M  V30 4 C 3.113353 -3.026211 4.418941 0
M  V30 5 C 2.962866 -1.675324 4.657977 0
M  V30 6 C 3.549602 -0.499043 3.973537 0
M  V30 7 N 2.738259 -0.013137 2.897219 0
M  V30 8 C 2.495054 -0.944933 1.849221 0
M  V30 9 C 3.360277 -0.557959 0.662814 0
M  V30 10 C 2.710756 0.635700 0.017639 0
M  V30 11 N 1.543017 0.260458 -0.654263 0
M  V30 12 C 0.720064 1.308642 -1.182208 0
M  V30 13 C -0.526419 0.660016 -1.759123 0
M  V30 14 C -0.859519 -0.560401 -0.937867 0
M  V30 15 C -2.148792 -1.168866 -1.339855 0
M  V30 16 O -2.247806 -2.362445 -1.762657 0
M  V30 17 N -3.279667 -0.315323 -1.218564 0
M  V30 18 C -4.596344 -0.798473 -1.582538 0
M  V30 19 C -4.585387 -1.198015 -3.042093 0
M  V30 20 C -6.015441 -1.476133 -3.523045 0
M  V30 21 C -6.570768 -0.056229 -3.571922 0
M  V30 22 C -5.339498 0.731684 -3.888081 0
M  V30 23 O -4.260238 -0.112968 -3.818008 0
M  V30 24 C 0.224158 -1.604971 -1.239845 0
M  V30 25 C 1.538845 -0.857492 -1.503984 0
M  V30 26 C 2.532887 1.665522 1.082458 0
M  V30 27 C 3.138045 1.260664 2.402349 0
M  V30 28 O 2.141882 -1.583661 5.682200 0
M  V30 29 H 1.117292 -2.424662 8.132326 0
M  V30 30 H -0.212753 -2.852063 7.031604 0
M  V30 31 H 0.905123 -4.118991 7.524175 0
M  V30 32 H 2.266278 -4.833323 5.402318 0
M  V30 33 H 3.722026 -3.448070 3.647342 0
M  V30 34 H 3.791914 0.331433 4.657917 0
M  V30 35 H 4.512872 -0.822042 3.526700 0
M  V30 36 H 2.646967 -1.998477 2.076139 0
M  V30 37 H 1.403906 -0.861226 1.590051 0
M  V30 38 H 4.348058 -0.251605 1.128154 0
M  V30 39 H 3.490325 -1.441289 0.038530 0
M  V30 40 H 3.432874 1.019429 -0.731712 0
M  V30 41 H 1.274438 1.780420 -2.018641 0
M  V30 42 H 0.424450 2.073539 -0.480802 0
M  V30 43 H -0.402912 0.329555 -2.810654 0
M  V30 44 H -1.370022 1.386627 -1.786321 0
M  V30 45 H -0.913725 -0.313904 0.125748 0
M  V30 46 H -3.198603 0.683718 -0.864503 0
M  V30 47 H -4.843276 -1.702918 -1.002760 0
M  V30 48 H -5.363775 -0.020345 -1.416005 0
M  V30 49 H -4.025090 -2.105868 -3.252022 0
M  V30 50 H -6.572503 -2.105812 -2.806196 0
M  V30 51 H -5.953062 -1.877130 -4.542092 0
M  V30 52 H -7.041156 0.190057 -2.597628 0
M  V30 53 H -7.322857 0.030140 -4.394481 0
M  V30 54 H -5.391813 1.074776 -4.962875 0
M  V30 55 H -5.228729 1.671377 -3.309355 0
M  V30 56 H -0.097753 -2.112882 -2.170033 0
M  V30 57 H 0.308819 -2.328428 -0.426018 0
M  V30 58 H 2.367908 -1.529958 -1.506843 0
M  V30 59 H 1.459333 -0.452782 -2.563417 0
M  V30 60 H 3.029541 2.601700 0.763045 0
M  V30 61 H 1.478674 1.935219 1.276914 0
M  V30 62 H 2.749004 2.026752 3.141179 0
M  V30 63 H 4.237601 1.390410 2.316827 0
M  V30 END ATOM
M  V30 BEGIN BOND
M  V30 1 1 1 2
M  V30 2 2 2 3
M  V30 3 1 3 4
M  V30 4 2 4 5
M  V30 5 1 5 6
M  V30 6 1 6 7
M  V30 7 1 7 8
M  V30 8 1 8 9
M  V30 9 1 9 10
M  V30 10 1 10 11
M  V30 11 1 11 12
M  V30 12 1 12 13
M  V30 13 1 13 14
M  V30 14 1 14 15
M  V30 15 2 15 16
M  V30 16 1 15 17
M  V30 17 1 17 18
M  V30 18 1 18 19
M  V30 19 1 19 20
M  V30 20 1 20 21
M  V30 21 1 21 22
M  V30 22 1 22 23
M  V30 23 1 14 24
M  V30 24 1 24 25
M  V30 25 1 10 26
M  V30 26 1 26 27
M  V30 27 1 5 28
M  V30 28 1 28 2
M  V30 29 1 27 7
M  V30 30 1 25 11
M  V30 31 1 23 19
M  V30 32 1 1 29
M  V30 33 1 1 30
M  V30 34 1 1 31
M  V30 35 1 3 32
M  V30 36 1 4 33
M  V30 37 1 6 34
M  V30 38 1 6 35
M  V30 39 1 8 36
M  V30 40 1 8 37
M  V30 41 1 9 38
M  V30 42 1 9 39
M  V30 43 1 10 40
M  V30 44 1 12 41
M  V30 45 1 12 42
M  V30 46 1 13 43
M  V30 47 1 13 44
M  V30 48 1 14 45
M  V30 49 1 17 46
M  V30 50 1 18 47
M  V30 51 1 18 48
M  V30 52 1 19 49
M  V30 53 1 20 50
M  V30 54 1 20 51
M  V30 55 1 21 52
M  V30 56 1 21 53
M  V30 57 1 22 54
M  V30 58 1 22 55
M  V30 59 1 24 56
M  V30 60 1 24 57
M  V30 61 1 25 58
M  V30 62 1 25 59
M  V30 63 1 26 60
M  V30 64 1 26 61
M  V30 65 1 27 62
M  V30 66 1 27 63
M  V30 END BOND
M  V30 END CTAB
M  END
>  <Dataset>  (288) 
ChEMBL_Kinases

>  <Ligand_Instance>  (288) 
nan

>  <PDB_ID>  (288) 
nan

>  <Standardized_SMILES>  (288) 
Cc1ccc(CN2CCC(N3CCC(C(=O)NCC4CCCO4)CC3)CC2)o1

>  <Name>  (288) 
nan

>  <Pocket>  (288) 
nan

>  <ATP_Site>  (288) 
nan

>  <Peripheral>  (288) 
nan

>  <Num_H_Atoms_ProtBoundConf>  (288) 
nan

>  <Num_Resolved_Atoms>  (288) 
nan

>  <Num_Not_Resolved_Atoms>  (288) 
nan

$$$$
CHEMBL1370770
     RDKit          3D

  0  0  0  0  0  0  0  0  0  0999 V3000
M  V30 BEGIN CTAB
M  V30 COUNTS 50 53 0 0 0
M  V30 BEGIN ATOM
M  V30 1 C -1.329197 -1.356310 3.353115 0
M  V30 2 O -0.649695 -1.243058 2.153823 0
M  V30 3 C 0.628266 -1.767241 2.331038 0
M  V30 4 C 1.342149 -1.628329 1.005360 0
M  V30 5 N 1.437674 -0.242711 0.579421 0
M  V30 6 C 2.493530 0.514542 0.932401 0
M  V30 7 O 3.417166 0.026391 1.641165 0
M  V30 8 C 2.648806 1.836032 0.563622 0
M  V30 9 C 3.810740 2.620012 0.969213 0
M  V30 10 C 4.272862 2.568347 2.289488 0
M  V30 11 C 5.377093 3.344716 2.575035 0
M  V30 12 C 6.060109 4.154228 1.701658 0
M  V30 13 C 5.559665 4.169717 0.400912 0
M  V30 14 C 4.461200 3.420913 0.041888 0
M  V30 15 N 1.669996 2.381469 -0.197260 0
M  V30 16 C 0.599587 1.653964 -0.569076 0
M  V30 17 C -0.423257 2.190769 -1.352652 0
M  V30 18 N -1.478501 1.426153 -1.702710 0
M  V30 19 C -1.568181 0.125864 -1.303016 0
M  V30 20 O -2.705826 -0.547064 -1.733032 0
M  V30 21 C -3.004658 -1.855824 -1.452433 0
M  V30 22 C -3.738284 -2.094545 -0.300472 0
M  V30 23 C -4.044752 -3.419842 -0.010069 0
M  V30 24 C -3.670199 -4.508027 -0.786615 0
M  V30 25 O -4.032432 -5.796277 -0.400058 0
M  V30 26 C -4.780962 -5.916747 0.794469 0
M  V30 27 C -2.939862 -4.247717 -1.929883 0
M  V30 28 C -2.632793 -2.927587 -2.222064 0
M  V30 29 N -0.588690 -0.410316 -0.544960 0
M  V30 30 C 0.483189 0.333016 -0.177794 0
M  V30 31 H -0.787718 -0.785969 4.150991 0
M  V30 32 H -2.335868 -0.859318 3.247197 0
M  V30 33 H -1.434882 -2.430240 3.608200 0
M  V30 34 H 1.190581 -1.327604 3.155489 0
M  V30 35 H 0.494796 -2.864933 2.493465 0
M  V30 36 H 0.765598 -2.175557 0.234958 0
M  V30 37 H 2.344067 -2.112524 1.092662 0
M  V30 38 H 3.792465 1.956840 3.038119 0
M  V30 39 H 5.736156 3.306825 3.593676 0
M  V30 40 H 6.916734 4.717888 2.046320 0
M  V30 41 H 6.079241 4.804894 -0.325256 0
M  V30 42 H 4.147119 3.497603 -0.988008 0
M  V30 43 H -0.350676 3.217645 -1.667276 0
M  V30 44 H -4.047050 -1.294852 0.324519 0
M  V30 45 H -4.623955 -3.582199 0.903461 0
M  V30 46 H -4.166455 -5.443424 1.607510 0
M  V30 47 H -5.077500 -6.940069 1.031476 0
M  V30 48 H -5.708586 -5.309567 0.626473 0
M  V30 49 H -2.657185 -5.086498 -2.518670 0
M  V30 50 H -2.050101 -2.734914 -3.136554 0
M  V30 END ATOM
M  V30 BEGIN BOND
M  V30 1 1 1 2
M  V30 2 1 2 3
M  V30 3 1 3 4
M  V30 4 1 4 5
M  V30 5 1 5 6
M  V30 6 2 6 7
M  V30 7 1 6 8
M  V30 8 1 8 9
M  V30 9 2 9 10
M  V30 10 1 10 11
M  V30 11 2 11 12
M  V30 12 1 12 13
M  V30 13 2 13 14
M  V30 14 2 8 15
M  V30 15 1 15 16
M  V30 16 2 16 17
M  V30 17 1 17 18
M  V30 18 2 18 19
M  V30 19 1 19 20
M  V30 20 1 20 21
M  V30 21 2 21 22
M  V30 22 1 22 23
M  V30 23 2 23 24
M  V30 24 1 24 25
M  V30 25 1 25 26
M  V30 26 1 24 27
M  V30 27 2 27 28
M  V30 28 1 19 29
M  V30 29 2 29 30
M  V30 30 1 30 5
M  V30 31 1 14 9
M  V30 32 1 30 16
M  V30 33 1 28 21
M  V30 34 1 1 31
M  V30 35 1 1 32
M  V30 36 1 1 33
M  V30 37 1 3 34
M  V30 38 1 3 35
M  V30 39 1 4 36
M  V30 40 1 4 37
M  V30 41 1 10 38
M  V30 42 1 11 39
M  V30 43 1 12 40
M  V30 44 1 13 41
M  V30 45 1 14 42
M  V30 46 1 17 43
M  V30 47 1 22 44
M  V30 48 1 23 45
M  V30 49 1 26 46
M  V30 50 1 26 47
M  V30 51 1 26 48
M  V30 52 1 27 49
M  V30 53 1 28 50
M  V30 END BOND
M  V30 END CTAB
M  END
>  <Dataset>  (289) 
ChEMBL_Kinases

>  <Ligand_Instance>  (289) 
nan

>  <PDB_ID>  (289) 
nan

>  <Standardized_SMILES>  (289) 
COCCn1c(=O)c(-c2ccccc2)nc2cnc(Oc3ccc(OC)cc3)nc21

>  <Name>  (289) 
nan

>  <Pocket>  (289) 
nan

>  <ATP_Site>  (289) 
nan

>  <Peripheral>  (289) 
nan

>  <Num_H_Atoms_ProtBoundConf>  (289) 
nan

>  <Num_Resolved_Atoms>  (289) 
nan

>  <Num_Not_Resolved_Atoms>  (289) 
nan

$$$$
CHEMBL1370831
     RDKit          3D

  0  0  0  0  0  0  0  0  0  0999 V3000
M  V30 BEGIN CTAB
M  V30 COUNTS 43 44 0 0 0
M  V30 BEGIN ATOM
M  V30 1 C 0.724988 -4.248408 3.935748 0
M  V30 2 C 1.258581 -4.084238 2.569670 0
M  V30 3 C 2.031204 -5.030035 1.940999 0
M  V30 4 C 2.553476 -4.936670 0.679216 0
M  V30 5 C 2.254332 -3.751936 -0.012150 0
M  V30 6 Cl 2.916949 -3.614985 -1.635334 0
M  V30 7 C 1.476701 -2.734264 0.547252 0
M  V30 8 O 1.277190 -1.709018 -0.179328 0
M  V30 9 C 0.983732 -0.593706 -0.801160 0
M  V30 10 C -0.534065 -0.397704 -0.994988 0
M  V30 11 C -0.826281 0.875427 -1.694899 0
M  V30 12 N -0.410267 2.099876 -1.147589 0
M  V30 13 C -0.653423 3.174678 -2.157775 0
M  V30 14 C -0.902555 2.585429 0.076572 0
M  V30 15 C -0.537828 1.864547 1.269499 0
M  V30 16 C 0.732402 2.221606 1.743737 0
M  V30 17 C 1.300947 1.711396 2.889746 0
M  V30 18 C 0.593815 0.776802 3.650650 0
M  V30 19 C -0.644349 0.390065 3.242101 0
M  V30 20 C -1.147604 0.935841 2.096373 0
M  V30 21 C 1.000771 -2.945957 1.841127 0
M  V30 22 H 1.448600 -4.839690 4.571366 0
M  V30 23 H 0.654647 -3.260035 4.415215 0
M  V30 24 H -0.239998 -4.759195 3.944753 0
M  V30 25 H 2.252446 -5.932614 2.482251 0
M  V30 26 H 3.147025 -5.724602 0.265961 0
M  V30 27 H 1.465389 -0.561858 -1.838413 0
M  V30 28 H 1.407142 0.345158 -0.340796 0
M  V30 29 H -0.785147 -1.272481 -1.710371 0
M  V30 30 H -1.113007 -0.649349 -0.112693 0
M  V30 31 H -1.968407 0.936235 -1.765669 0
M  V30 32 H -0.558428 0.781372 -2.800003 0
M  V30 33 H -0.024568 4.029499 -1.896848 0
M  V30 34 H -1.718819 3.437136 -2.060128 0
M  V30 35 H -0.371165 2.744015 -3.138849 0
M  V30 36 H -0.690412 3.677849 0.237164 0
M  V30 37 H -2.042588 2.581848 0.022818 0
M  V30 38 H 1.409847 2.942174 1.260156 0
M  V30 39 H 2.264644 1.956572 3.279382 0
M  V30 40 H 1.007329 0.355832 4.551958 0
M  V30 41 H -1.279647 -0.324381 3.748951 0
M  V30 42 H -2.136260 0.691185 1.681407 0
M  V30 43 H 0.397625 -2.122795 2.231711 0
M  V30 END ATOM
M  V30 BEGIN BOND
M  V30 1 1 1 2
M  V30 2 2 2 3
M  V30 3 1 3 4
M  V30 4 2 4 5
M  V30 5 1 5 6
M  V30 6 1 5 7
M  V30 7 1 7 8
M  V30 8 1 8 9
M  V30 9 1 9 10
M  V30 10 1 10 11
M  V30 11 1 11 12
M  V30 12 1 12 13
M  V30 13 1 12 14
M  V30 14 1 14 15
M  V30 15 2 15 16
M  V30 16 1 16 17
M  V30 17 2 17 18
M  V30 18 1 18 19
M  V30 19 2 19 20
M  V30 20 2 7 21
M  V30 21 1 21 2
M  V30 22 1 20 15
M  V30 23 1 1 22
M  V30 24 1 1 23
M  V30 25 1 1 24
M  V30 26 1 3 25
M  V30 27 1 4 26
M  V30 28 1 9 27
M  V30 29 1 9 28
M  V30 30 1 10 29
M  V30 31 1 10 30
M  V30 32 1 11 31
M  V30 33 1 11 32
M  V30 34 1 13 33
M  V30 35 1 13 34
M  V30 36 1 13 35
M  V30 37 1 14 36
M  V30 38 1 14 37
M  V30 39 1 16 38
M  V30 40 1 17 39
M  V30 41 1 18 40
M  V30 42 1 19 41
M  V30 43 1 20 42
M  V30 44 1 21 43
M  V30 END BOND
M  V30 END CTAB
M  END
>  <Dataset>  (290) 
ChEMBL_Kinases

>  <Ligand_Instance>  (290) 
nan

>  <PDB_ID>  (290) 
nan

>  <Standardized_SMILES>  (290) 
Cc1ccc(Cl)c(OCCCN(C)Cc2ccccc2)c1

>  <Name>  (290) 
nan

>  <Pocket>  (290) 
nan

>  <ATP_Site>  (290) 
nan

>  <Peripheral>  (290) 
nan

>  <Num_H_Atoms_ProtBoundConf>  (290) 
nan

>  <Num_Resolved_Atoms>  (290) 
nan

>  <Num_Not_Resolved_Atoms>  (290) 
nan

$$$$
CHEMBL1370891
     RDKit          3D

  0  0  0  0  0  0  0  0  0  0999 V3000
M  V30 BEGIN CTAB
M  V30 COUNTS 65 69 0 0 0
M  V30 BEGIN ATOM
M  V30 1 C -0.795922 -2.263203 4.050682 0
M  V30 2 C -0.424777 -1.857771 2.664821 0 CFG=2
M  V30 3 C 0.883222 -2.465855 2.297847 0
M  V30 4 C 1.724824 -1.384104 1.674104 0
M  V30 5 C 1.945378 -0.234497 2.638984 0
M  V30 6 C 2.828600 0.725518 1.927835 0
M  V30 7 C 4.190917 0.423003 1.918945 0
M  V30 8 C 5.126017 1.222095 1.296911 0
M  V30 9 C 4.730154 2.374174 0.648400 0
M  V30 10 O 5.547866 3.264915 -0.013028 0
M  V30 11 C 3.387519 2.687727 0.647731 0
M  V30 12 C 2.459693 1.882286 1.272656 0
M  V30 13 C 0.984548 2.132014 1.330984 0
M  V30 14 C 0.523904 1.835072 2.736647 0
M  V30 15 C 0.648650 0.375037 3.112032 0
M  V30 16 C -0.460118 -0.356435 2.455017 0
M  V30 17 C -1.846075 -0.090723 2.924313 0
M  V30 18 C -2.611906 -1.230674 2.284887 0
M  V30 19 C -1.555008 -2.168020 1.663551 0
M  V30 20 O -1.255714 -1.576416 0.462048 0
M  V30 21 C -1.237692 -1.979937 -0.824516 0
M  V30 22 O -1.607262 -3.068183 -0.334473 0
M  V30 23 C -0.820328 -0.875060 -1.718428 0
M  V30 24 C -0.737573 -1.162042 -3.154414 0
M  V30 25 C -1.911743 -1.580849 -3.921091 0
M  V30 26 C -2.606509 -2.840088 -3.539586 0
M  V30 27 C -3.906102 -2.453816 -2.880920 0
M  V30 28 C -4.136631 -0.990939 -3.186797 0
M  V30 29 C -2.988893 -0.523605 -4.060045 0
M  V30 30 H -1.855343 -2.415698 4.252816 0
M  V30 31 H -0.406228 -1.560903 4.813518 0
M  V30 32 H -0.302406 -3.246940 4.261240 0
M  V30 33 H 1.444997 -2.768241 3.225686 0
M  V30 34 H 0.858370 -3.356828 1.674937 0
M  V30 35 H 1.345966 -1.063791 0.694013 0
M  V30 36 H 2.730124 -1.831084 1.508187 0
M  V30 37 H 2.509889 -0.659290 3.494170 0
M  V30 38 H 4.613359 -0.439851 2.386692 0
M  V30 39 H 6.183588 1.008829 1.276811 0
M  V30 40 H 5.779006 3.171469 -1.013517 0
M  V30 41 H 2.888857 3.547785 0.192529 0
M  V30 42 H 0.449201 1.582795 0.560927 0
M  V30 43 H 0.834406 3.206691 1.174874 0
M  V30 44 H -0.561148 2.084156 2.790465 0
M  V30 45 H 1.106829 2.503264 3.397690 0
M  V30 46 H 0.585244 0.313941 4.228907 0
M  V30 47 H -0.415055 -0.122426 1.385488 0
M  V30 48 H -2.246883 0.901157 2.651041 0
M  V30 49 H -1.882730 -0.122010 4.040311 0
M  V30 50 H -3.241615 -0.772985 1.496748 0
M  V30 51 H -3.289473 -1.752626 2.962626 0
M  V30 52 H -1.860910 -3.200315 1.708683 0
M  V30 53 H -1.379298 0.062840 -1.471372 0
M  V30 54 H 0.233647 -0.606966 -1.394420 0
M  V30 55 H -0.303414 -0.254185 -3.654954 0
M  V30 56 H 0.054867 -1.943461 -3.293853 0
M  V30 57 H -1.553638 -1.732327 -4.984365 0
M  V30 58 H -2.924704 -3.438432 -4.455951 0
M  V30 59 H -2.065438 -3.550271 -2.929969 0
M  V30 60 H -4.779863 -3.058224 -3.248456 0
M  V30 61 H -3.885098 -2.631443 -1.791737 0
M  V30 62 H -4.188571 -0.434822 -2.217659 0
M  V30 63 H -5.129531 -0.871200 -3.663582 0
M  V30 64 H -2.703418 0.474784 -3.742213 0
M  V30 65 H -3.403689 -0.450825 -5.086614 0
M  V30 END ATOM
M  V30 BEGIN BOND
M  V30 1 1 2 1 CFG=1
M  V30 2 1 2 3
M  V30 3 1 3 4
M  V30 4 1 4 5
M  V30 5 1 5 6
M  V30 6 2 6 7
M  V30 7 1 7 8
M  V30 8 2 8 9
M  V30 9 1 9 10
M  V30 10 1 9 11
M  V30 11 2 11 12
M  V30 12 1 12 13
M  V30 13 1 13 14
M  V30 14 1 14 15
M  V30 15 1 15 16
M  V30 16 1 16 17
M  V30 17 1 17 18
M  V30 18 1 18 19
M  V30 19 1 19 20
M  V30 20 1 20 21
M  V30 21 2 21 22
M  V30 22 1 21 23
M  V30 23 1 23 24
M  V30 24 1 24 25
M  V30 25 1 25 26
M  V30 26 1 26 27
M  V30 27 1 27 28
M  V30 28 1 28 29
M  V30 29 1 16 2
M  V30 30 1 29 25
M  V30 31 1 19 2
M  V30 32 1 15 5
M  V30 33 1 12 6
M  V30 34 1 1 30
M  V30 35 1 1 31
M  V30 36 1 1 32
M  V30 37 1 3 33
M  V30 38 1 3 34
M  V30 39 1 4 35
M  V30 40 1 4 36
M  V30 41 1 5 37
M  V30 42 1 7 38
M  V30 43 1 8 39
M  V30 44 1 10 40
M  V30 45 1 11 41
M  V30 46 1 13 42
M  V30 47 1 13 43
M  V30 48 1 14 44
M  V30 49 1 14 45
M  V30 50 1 15 46
M  V30 51 1 16 47
M  V30 52 1 17 48
M  V30 53 1 17 49
M  V30 54 1 18 50
M  V30 55 1 18 51
M  V30 56 1 19 52
M  V30 57 1 23 53
M  V30 58 1 23 54
M  V30 59 1 24 55
M  V30 60 1 24 56
M  V30 61 1 25 57
M  V30 62 1 26 58
M  V30 63 1 26 59
M  V30 64 1 27 60
M  V30 65 1 27 61
M  V30 66 1 28 62
M  V30 67 1 28 63
M  V30 68 1 29 64
M  V30 69 1 29 65
M  V30 END BOND
M  V30 END CTAB
M  END
>  <Dataset>  (291) 
ChEMBL_Kinases

>  <Ligand_Instance>  (291) 
nan

>  <PDB_ID>  (291) 
nan

>  <Standardized_SMILES>  (291) 
C[C@]12CCC3c4ccc(O)cc4CCC3C1CCC2OC(=O)CCC1CCCC1

>  <Name>  (291) 
nan

>  <Pocket>  (291) 
nan

>  <ATP_Site>  (291) 
nan

>  <Peripheral>  (291) 
nan

>  <Num_H_Atoms_ProtBoundConf>  (291) 
nan

>  <Num_Resolved_Atoms>  (291) 
nan

>  <Num_Not_Resolved_Atoms>  (291) 
nan

$$$$
CHEMBL1371028
     RDKit          3D

  0  0  0  0  0  0  0  0  0  0999 V3000
M  V30 BEGIN CTAB
M  V30 COUNTS 43 44 0 0 0
M  V30 BEGIN ATOM
M  V30 1 C -1.953501 -5.865814 -2.308760 0
M  V30 2 C -1.826816 -5.922633 -0.810785 0
M  V30 3 C -3.096035 -5.612113 -0.087977 0
M  V30 4 C -3.628982 -4.245870 -0.340324 0
M  V30 5 N -2.741434 -3.168705 0.048517 0
M  V30 6 C -1.771554 -2.507060 -0.711123 0
M  V30 7 O -1.475145 -2.716968 -1.928200 0
M  V30 8 C -1.013629 -1.472188 -0.070985 0
M  V30 9 C -0.202526 -0.544789 -0.478372 0
M  V30 10 C 0.453714 0.403428 0.398810 0
M  V30 11 C 1.249670 1.298659 -0.102932 0
M  V30 12 C 1.935985 2.279485 0.749134 0
M  V30 13 C 2.734379 3.165942 0.178924 0
M  V30 14 N 3.418385 4.132801 0.964225 0
M  V30 15 C 3.721935 4.102800 2.354571 0
M  V30 16 C 4.907554 3.529308 2.809929 0
M  V30 17 C 5.292231 3.453220 4.136833 0
M  V30 18 C 4.444296 3.981781 5.081433 0
M  V30 19 C 3.263451 4.555837 4.659001 0
M  V30 20 C 2.889327 4.627957 3.348124 0
M  V30 21 S -1.391702 -1.640073 1.693355 0
M  V30 22 C -2.839315 -2.694469 1.411396 0
M  V30 23 S -3.957169 -2.973075 2.550722 0
M  V30 24 H -2.147864 -6.895175 -2.696742 0
M  V30 25 H -0.955197 -5.543905 -2.711474 0
M  V30 26 H -2.724322 -5.184370 -2.677491 0
M  V30 27 H -1.008333 -5.224027 -0.490474 0
M  V30 28 H -1.451315 -6.939255 -0.561382 0
M  V30 29 H -3.846728 -6.376035 -0.429395 0
M  V30 30 H -2.929536 -5.826209 0.994881 0
M  V30 31 H -3.896684 -4.150849 -1.426069 0
M  V30 32 H -4.622579 -4.145513 0.188688 0
M  V30 33 H -0.036043 -0.516351 -1.565985 0
M  V30 34 H 0.263621 0.343165 1.461084 0
M  V30 35 H 1.398804 1.306516 -1.182505 0
M  V30 36 H 1.767476 2.245752 1.811338 0
M  V30 37 H 2.922480 3.223677 -0.882246 0
M  V30 38 H 3.796267 5.026740 0.583217 0
M  V30 39 H 5.545694 3.124414 2.030039 0
M  V30 40 H 6.238573 2.984257 4.378963 0
M  V30 41 H 4.706971 3.943155 6.130209 0
M  V30 42 H 2.577706 4.981642 5.402153 0
M  V30 43 H 1.962858 5.075527 2.986464 0
M  V30 END ATOM
M  V30 BEGIN BOND
M  V30 1 1 1 2
M  V30 2 1 2 3
M  V30 3 1 3 4
M  V30 4 1 4 5
M  V30 5 1 5 6
M  V30 6 2 6 7
M  V30 7 1 6 8
M  V30 8 2 8 9
M  V30 9 1 9 10
M  V30 10 2 10 11
M  V30 11 1 11 12
M  V30 12 2 12 13
M  V30 13 1 13 14
M  V30 14 1 14 15
M  V30 15 2 15 16
M  V30 16 1 16 17
M  V30 17 2 17 18
M  V30 18 1 18 19
M  V30 19 2 19 20
M  V30 20 1 8 21
M  V30 21 1 21 22
M  V30 22 2 22 23
M  V30 23 1 22 5
M  V30 24 1 20 15
M  V30 25 1 1 24
M  V30 26 1 1 25
M  V30 27 1 1 26
M  V30 28 1 2 27
M  V30 29 1 2 28
M  V30 30 1 3 29
M  V30 31 1 3 30
M  V30 32 1 4 31
M  V30 33 1 4 32
M  V30 34 1 9 33
M  V30 35 1 10 34
M  V30 36 1 11 35
M  V30 37 1 12 36
M  V30 38 1 13 37
M  V30 39 1 14 38
M  V30 40 1 16 39
M  V30 41 1 17 40
M  V30 42 1 18 41
M  V30 43 1 19 42
M  V30 44 1 20 43
M  V30 END BOND
M  V30 END CTAB
M  END
>  <Dataset>  (292) 
ChEMBL_Kinases

>  <Ligand_Instance>  (292) 
nan

>  <PDB_ID>  (292) 
nan

>  <Standardized_SMILES>  (292) 
CCCCN1C(=O)/C(=C/C=C/C=C/Nc2ccccc2)SC1=S

>  <Name>  (292) 
nan

>  <Pocket>  (292) 
nan

>  <ATP_Site>  (292) 
nan

>  <Peripheral>  (292) 
nan

>  <Num_H_Atoms_ProtBoundConf>  (292) 
nan

>  <Num_Resolved_Atoms>  (292) 
nan

>  <Num_Not_Resolved_Atoms>  (292) 
nan

$$$$
CHEMBL1370380
     RDKit          3D

  0  0  0  0  0  0  0  0  0  0999 V3000
M  V30 BEGIN CTAB
M  V30 COUNTS 48 50 0 0 0
M  V30 BEGIN ATOM
M  V30 1 C -1.521278 -3.708959 5.242178 0
M  V30 2 O -1.577006 -3.314648 3.899099 0
M  V30 3 C -0.408205 -3.071654 3.198353 0
M  V30 4 C 0.866568 -3.176802 3.689374 0
M  V30 5 C 1.977733 -2.915824 2.921584 0
M  V30 6 C 1.868459 -2.529182 1.598942 0
M  V30 7 C 2.999647 -2.233741 0.716583 0
M  V30 8 C 3.453856 -0.813807 0.711486 0
M  V30 9 N 2.411378 0.098644 0.289543 0
M  V30 10 C 2.887375 1.438716 0.299602 0
M  V30 11 O 4.055992 1.763489 0.632546 0
M  V30 12 C 2.082033 2.629062 -0.076856 0
M  V30 13 N 0.727527 2.298747 -0.467542 0
M  V30 14 C -0.444903 2.198478 0.312276 0
M  V30 15 O -0.364378 2.422789 1.568121 0
M  V30 16 C -1.624847 1.846379 -0.415696 0
M  V30 17 C -2.919179 1.672957 0.067572 0
M  V30 18 C -3.908894 1.329838 -0.830711 0
M  V30 19 C -3.722351 1.141623 -2.184355 0
M  V30 20 C -2.434389 1.317722 -2.643983 0
M  V30 21 C -1.439014 1.660889 -1.752126 0
M  V30 22 S 0.259422 1.933617 -2.114371 0
M  V30 23 O 0.948812 0.743852 -2.651389 0
M  V30 24 O 0.452909 3.181214 -2.916711 0
M  V30 25 C 0.556453 -2.430753 1.126777 0
M  V30 26 C -0.584550 -2.689709 1.884550 0
M  V30 27 O -1.836357 -2.556203 1.299770 0
M  V30 28 C -1.891678 -2.159283 -0.052123 0
M  V30 29 H -0.723160 -4.452568 5.445044 0
M  V30 30 H -1.342969 -2.799543 5.868890 0
M  V30 31 H -2.470315 -4.192009 5.572879 0
M  V30 32 H 0.938720 -3.481522 4.730266 0
M  V30 33 H 2.977043 -3.008497 3.341218 0
M  V30 34 H 2.652127 -2.464958 -0.326226 0
M  V30 35 H 3.844587 -2.899091 0.914356 0
M  V30 36 H 4.275568 -0.738060 -0.028895 0
M  V30 37 H 3.871608 -0.473634 1.674088 0
M  V30 38 H 1.429204 0.057164 -0.014319 0
M  V30 39 H 2.082619 3.283002 0.831241 0
M  V30 40 H 2.552697 3.154804 -0.930408 0
M  V30 41 H -3.171380 1.799408 1.126714 0
M  V30 42 H -4.925485 1.197688 -0.426792 0
M  V30 43 H -4.584143 0.873732 -2.780711 0
M  V30 44 H -2.253685 1.179095 -3.692106 0
M  V30 45 H 0.444577 -2.129060 0.091867 0
M  V30 46 H -2.939979 -2.217100 -0.411256 0
M  V30 47 H -1.488789 -1.126821 -0.114950 0
M  V30 48 H -1.295958 -2.806690 -0.728667 0
M  V30 END ATOM
M  V30 BEGIN BOND
M  V30 1 1 1 2
M  V30 2 1 2 3
M  V30 3 2 3 4
M  V30 4 1 4 5
M  V30 5 2 5 6
M  V30 6 1 6 7
M  V30 7 1 7 8
M  V30 8 1 8 9
M  V30 9 1 9 10
M  V30 10 2 10 11
M  V30 11 1 10 12
M  V30 12 1 12 13
M  V30 13 1 13 14
M  V30 14 2 14 15
M  V30 15 1 14 16
M  V30 16 2 16 17
M  V30 17 1 17 18
M  V30 18 2 18 19
M  V30 19 1 19 20
M  V30 20 2 20 21
M  V30 21 1 21 22
M  V30 22 2 22 23
M  V30 23 2 22 24
M  V30 24 1 6 25
M  V30 25 2 25 26
M  V30 26 1 26 27
M  V30 27 1 27 28
M  V30 28 1 26 3
M  V30 29 1 22 13
M  V30 30 1 21 16
M  V30 31 1 1 29
M  V30 32 1 1 30
M  V30 33 1 1 31
M  V30 34 1 4 32
M  V30 35 1 5 33
M  V30 36 1 7 34
M  V30 37 1 7 35
M  V30 38 1 8 36
M  V30 39 1 8 37
M  V30 40 1 9 38
M  V30 41 1 12 39
M  V30 42 1 12 40
M  V30 43 1 17 41
M  V30 44 1 18 42
M  V30 45 1 19 43
M  V30 46 1 20 44
M  V30 47 1 25 45
M  V30 48 1 28 46
M  V30 49 1 28 47
M  V30 50 1 28 48
M  V30 END BOND
M  V30 END CTAB
M  END
>  <Dataset>  (293) 
ChEMBL_Kinases

>  <Ligand_Instance>  (293) 
nan

>  <PDB_ID>  (293) 
nan

>  <Standardized_SMILES>  (293) 
COc1ccc(CCNC(=O)CN2C(=O)c3ccccc3S2(=O)=O)cc1OC

>  <Name>  (293) 
nan

>  <Pocket>  (293) 
nan

>  <ATP_Site>  (293) 
nan

>  <Peripheral>  (293) 
nan

>  <Num_H_Atoms_ProtBoundConf>  (293) 
nan

>  <Num_Resolved_Atoms>  (293) 
nan

>  <Num_Not_Resolved_Atoms>  (293) 
nan

$$$$
CHEMBL1374544
     RDKit          3D

  0  0  0  0  0  0  0  0  0  0999 V3000
M  V30 BEGIN CTAB
M  V30 COUNTS 44 48 0 0 0
M  V30 BEGIN ATOM
M  V30 1 C 1.729706 -1.136123 -2.260829 0
M  V30 2 N 2.127714 0.167495 -1.747242 0
M  V30 3 C 3.556368 0.186458 -1.431722 0
M  V30 4 C 3.755102 -0.863270 -0.395657 0
M  V30 5 C 3.648433 -0.549324 0.965954 0
M  V30 6 C 3.868852 -1.663226 1.720055 0
M  V30 7 C 4.107775 -2.640917 0.774073 0
M  V30 8 O 4.034344 -2.144468 -0.435326 0
M  V30 9 C 1.411560 1.394644 -1.499474 0
M  V30 10 N 1.832776 2.475879 -2.172361 0
M  V30 11 C 1.227268 3.665398 -2.006866 0
M  V30 12 N 0.183334 3.779738 -1.155681 0
M  V30 13 C -0.252173 2.691499 -0.468587 0
M  V30 14 C -1.315429 2.750975 0.415806 0
M  V30 15 C -1.751777 1.632559 1.113140 0
M  V30 16 C -1.093894 0.437218 0.904735 0
M  V30 17 C -1.611606 -0.696831 1.676976 0
M  V30 18 C -1.507185 -1.962093 1.094214 0
M  V30 19 C -2.002129 -3.034815 1.836810 0
M  V30 20 C -2.570831 -2.836512 3.098679 0
M  V30 21 C -2.661762 -1.575198 3.651630 0
M  V30 22 C -2.174483 -0.510267 2.923138 0
M  V30 23 O -3.266999 -1.722092 4.892272 0
M  V30 24 C -3.267205 -3.090868 5.278325 0
M  V30 25 O -3.120626 -3.722994 4.010801 0
M  V30 26 C -0.027435 0.314314 0.036136 0
M  V30 27 C 0.347608 1.464613 -0.618371 0
M  V30 28 H 2.268797 -1.399245 -3.206047 0
M  V30 29 H 1.982105 -1.961647 -1.574559 0
M  V30 30 H 0.647754 -1.132717 -2.543669 0
M  V30 31 H 3.900749 1.166480 -1.059002 0
M  V30 32 H 4.145162 -0.048079 -2.357830 0
M  V30 33 H 3.421811 0.438085 1.400072 0
M  V30 34 H 3.880511 -1.853374 2.770423 0
M  V30 35 H 4.336185 -3.702674 0.845575 0
M  V30 36 H 1.517874 4.579312 -2.520321 0
M  V30 37 H -1.829401 3.696470 0.574944 0
M  V30 38 H -2.593521 1.767103 1.787933 0
M  V30 39 H -1.080433 -2.171331 0.129897 0
M  V30 40 H -1.972264 -4.053857 1.482157 0
M  V30 41 H -2.240486 0.480828 3.345687 0
M  V30 42 H -2.414340 -3.291299 5.960916 0
M  V30 43 H -4.239662 -3.356964 5.738925 0
M  V30 44 H 0.459739 -0.639704 -0.098143 0
M  V30 END ATOM
M  V30 BEGIN BOND
M  V30 1 1 1 2
M  V30 2 1 2 3
M  V30 3 1 3 4
M  V30 4 2 4 5
M  V30 5 1 5 6
M  V30 6 2 6 7
M  V30 7 1 7 8
M  V30 8 1 2 9
M  V30 9 2 9 10
M  V30 10 1 10 11
M  V30 11 2 11 12
M  V30 12 1 12 13
M  V30 13 2 13 14
M  V30 14 1 14 15
M  V30 15 2 15 16
M  V30 16 1 16 17
M  V30 17 2 17 18
M  V30 18 1 18 19
M  V30 19 2 19 20
M  V30 20 1 20 21
M  V30 21 2 21 22
M  V30 22 1 21 23
M  V30 23 1 23 24
M  V30 24 1 24 25
M  V30 25 1 16 26
M  V30 26 2 26 27
M  V30 27 1 8 4
M  V30 28 1 27 9
M  V30 29 1 27 13
M  V30 30 1 22 17
M  V30 31 1 25 20
M  V30 32 1 1 28
M  V30 33 1 1 29
M  V30 34 1 1 30
M  V30 35 1 3 31
M  V30 36 1 3 32
M  V30 37 1 5 33
M  V30 38 1 6 34
M  V30 39 1 7 35
M  V30 40 1 11 36
M  V30 41 1 14 37
M  V30 42 1 15 38
M  V30 43 1 18 39
M  V30 44 1 19 40
M  V30 45 1 22 41
M  V30 46 1 24 42
M  V30 47 1 24 43
M  V30 48 1 26 44
M  V30 END BOND
M  V30 END CTAB
M  END
>  <Dataset>  (294) 
ChEMBL_Kinases

>  <Ligand_Instance>  (294) 
nan

>  <PDB_ID>  (294) 
nan

>  <Standardized_SMILES>  (294) 
CN(Cc1ccco1)c1ncnc2ccc(-c3ccc4c(c3)OCO4)cc12

>  <Name>  (294) 
nan

>  <Pocket>  (294) 
nan

>  <ATP_Site>  (294) 
nan

>  <Peripheral>  (294) 
nan

>  <Num_H_Atoms_ProtBoundConf>  (294) 
nan

>  <Num_Resolved_Atoms>  (294) 
nan

>  <Num_Not_Resolved_Atoms>  (294) 
nan

$$$$
CHEMBL1374491
     RDKit          3D

  0  0  0  0  0  0  0  0  0  0999 V3000
M  V30 BEGIN CTAB
M  V30 COUNTS 44 46 0 0 0
M  V30 BEGIN ATOM
M  V30 1 C 0.595579 -8.083281 1.388366 0
M  V30 2 O 0.546839 -6.794705 1.933514 0
M  V30 3 C 0.599313 -5.658621 1.140407 0
M  V30 4 C 0.705505 -5.716484 -0.251139 0
M  V30 5 C 0.754235 -4.574532 -0.999769 0
M  V30 6 C 0.704053 -3.312366 -0.459480 0
M  V30 7 N 0.735895 -2.134421 -1.245135 0
M  V30 8 C 1.093727 -0.803293 -0.946720 0
M  V30 9 C 0.607113 0.244144 -1.696046 0
M  V30 10 C 0.935138 1.553413 -1.454282 0
M  V30 11 C 1.781792 1.875112 -0.430369 0
M  V30 12 N 2.170830 3.228742 -0.111894 0
M  V30 13 C 1.495721 4.080063 0.839058 0
M  V30 14 S 1.719542 5.826324 0.432340 0
M  V30 15 N 0.922620 3.345111 1.714283 0
M  V30 16 C 0.145576 3.773702 2.834089 0
M  V30 17 C -1.291251 3.481338 2.526739 0
M  V30 18 C -2.172541 4.356260 1.898071 0
M  V30 19 C -3.349847 3.598970 1.863029 0
M  V30 20 C -3.135996 2.370801 2.439615 0
M  V30 21 O -1.880494 2.343406 2.825901 0
M  V30 22 C 2.313830 0.871195 0.370503 0
M  V30 23 C 1.943965 -0.423973 0.073440 0
M  V30 24 C 0.597949 -3.264834 0.928132 0
M  V30 25 C 0.547248 -4.402715 1.701257 0
M  V30 26 H 0.194244 -8.856553 2.077074 0
M  V30 27 H -0.027410 -8.099209 0.471446 0
M  V30 28 H 1.657882 -8.303676 1.124136 0
M  V30 29 H 0.750557 -6.669544 -0.747907 0
M  V30 30 H 0.836562 -4.652706 -2.069700 0
M  V30 31 H 0.431667 -2.301672 -2.243055 0
M  V30 32 H -0.067056 0.014394 -2.516843 0
M  V30 33 H 0.561692 2.368842 -2.031140 0
M  V30 34 H 3.022816 3.415755 -0.721300 0
M  V30 35 H 1.994621 6.549690 1.613353 0
M  V30 36 H 0.208616 4.852606 3.056109 0
M  V30 37 H 0.433255 3.241287 3.777318 0
M  V30 38 H -2.007304 5.354727 1.530347 0
M  V30 39 H -4.295296 3.896288 1.457051 0
M  V30 40 H -3.756593 1.505758 2.615545 0
M  V30 41 H 2.982912 1.119550 1.180385 0
M  V30 42 H 2.388621 -1.159286 0.710636 0
M  V30 43 H 0.537835 -2.347334 1.488171 0
M  V30 44 H 0.463927 -4.379092 2.792051 0
M  V30 END ATOM
M  V30 BEGIN BOND
M  V30 1 1 1 2
M  V30 2 1 2 3
M  V30 3 2 3 4
M  V30 4 1 4 5
M  V30 5 2 5 6
M  V30 6 1 6 7
M  V30 7 1 7 8
M  V30 8 2 8 9
M  V30 9 1 9 10
M  V30 10 2 10 11
M  V30 11 1 11 12
M  V30 12 1 12 13
M  V30 13 1 13 14
M  V30 14 2 13 15 CFG=2
M  V30 15 1 15 16
M  V30 16 1 16 17
M  V30 17 2 17 18
M  V30 18 1 18 19
M  V30 19 2 19 20
M  V30 20 1 20 21
M  V30 21 1 11 22
M  V30 22 2 22 23
M  V30 23 1 6 24
M  V30 24 2 24 25
M  V30 25 1 25 3
M  V30 26 1 23 8
M  V30 27 1 21 17
M  V30 28 1 1 26
M  V30 29 1 1 27
M  V30 30 1 1 28
M  V30 31 1 4 29
M  V30 32 1 5 30
M  V30 33 1 7 31
M  V30 34 1 9 32
M  V30 35 1 10 33
M  V30 36 1 12 34
M  V30 37 1 14 35
M  V30 38 1 16 36
M  V30 39 1 16 37
M  V30 40 1 18 38
M  V30 41 1 19 39
M  V30 42 1 20 40
M  V30 43 1 22 41
M  V30 44 1 23 42
M  V30 45 1 24 43
M  V30 46 1 25 44
M  V30 END BOND
M  V30 END CTAB
M  END
>  <Dataset>  (295) 
ChEMBL_Kinases

>  <Ligand_Instance>  (295) 
nan

>  <PDB_ID>  (295) 
nan

>  <Standardized_SMILES>  (295) 
COc1ccc(Nc2ccc(NC(S)=NCc3ccco3)cc2)cc1

>  <Name>  (295) 
nan

>  <Pocket>  (295) 
nan

>  <ATP_Site>  (295) 
nan

>  <Peripheral>  (295) 
nan

>  <Num_H_Atoms_ProtBoundConf>  (295) 
nan

>  <Num_Resolved_Atoms>  (295) 
nan

>  <Num_Not_Resolved_Atoms>  (295) 
nan

$$$$
CHEMBL1374465
     RDKit          3D

  0  0  0  0  0  0  0  0  0  0999 V3000
M  V30 BEGIN CTAB
M  V30 COUNTS 47 51 0 0 0
M  V30 BEGIN ATOM
M  V30 1 C 2.557100 -3.642276 0.364421 0
M  V30 2 C 1.290229 -2.828106 0.344841 0
M  V30 3 C 0.261240 -3.323224 1.299319 0
M  V30 4 C 0.791422 -2.802576 -1.088477 0
M  V30 5 C -0.549971 -2.085690 -1.016408 0
M  V30 6 O -1.505938 -2.705659 -1.525938 0
M  V30 7 C -0.406705 -0.781126 -0.338519 0
M  V30 8 C 0.606242 -0.441005 0.450852 0
M  V30 9 C 1.712783 -1.375614 0.730767 0
M  V30 10 C 0.430657 0.877641 1.016596 0
M  V30 11 C -0.642915 1.707703 0.806605 0
M  V30 12 C -0.822515 2.967804 1.331046 0
M  V30 13 C 0.152162 3.483813 2.154270 0
M  V30 14 C 1.278342 2.686510 2.406375 0
M  V30 15 C 2.220650 3.303218 3.203448 0
M  V30 16 C 3.363476 2.563474 3.424630 0
M  V30 17 C 3.553034 1.289836 2.882873 0
M  V30 18 C 2.502957 0.799295 2.094861 0
M  V30 19 C 1.346018 1.449549 1.827290 0
M  V30 20 N -1.699704 1.282633 -0.019554 0
M  V30 21 C -1.582995 0.035494 -0.695464 0
M  V30 22 C -2.856753 -0.715387 -0.380674 0
M  V30 23 C -3.850677 -1.361967 -1.092123 0
M  V30 24 C -4.769691 -1.865269 -0.216585 0
M  V30 25 C -4.308777 -1.508424 1.030183 0
M  V30 26 O -3.197276 -0.843538 0.880734 0
M  V30 27 H 3.080403 -3.427011 -0.612479 0
M  V30 28 H 3.215427 -3.378012 1.220334 0
M  V30 29 H 2.273202 -4.702891 0.366456 0
M  V30 30 H 0.780687 -3.908109 2.095631 0
M  V30 31 H -0.533973 -3.923522 0.833721 0
M  V30 32 H -0.199333 -2.463465 1.848211 0
M  V30 33 H 0.648282 -3.831202 -1.379348 0
M  V30 34 H 1.488329 -2.305002 -1.756439 0
M  V30 35 H 1.820210 -1.590202 1.829899 0
M  V30 36 H 2.597218 -1.296148 0.118304 0
M  V30 37 H -1.687243 3.586004 1.137673 0
M  V30 38 H 0.034838 4.469556 2.580902 0
M  V30 39 H 2.084324 4.284616 3.624677 0
M  V30 40 H 4.105723 3.069153 4.065075 0
M  V30 41 H 4.503207 0.908389 3.181753 0
M  V30 42 H 2.912772 -0.094902 1.792370 0
M  V30 43 H -2.585351 1.799146 -0.194334 0
M  V30 44 H -1.598066 0.233521 -1.777830 0
M  V30 45 H -3.772359 -1.374233 -2.170635 0
M  V30 46 H -5.642045 -2.413354 -0.521008 0
M  V30 47 H -4.808560 -1.753707 1.963293 0
M  V30 END ATOM
M  V30 BEGIN BOND
M  V30 1 1 1 2
M  V30 2 1 2 3
M  V30 3 1 2 4
M  V30 4 1 4 5
M  V30 5 2 5 6
M  V30 6 1 5 7
M  V30 7 2 7 8
M  V30 8 1 8 9
M  V30 9 1 8 10
M  V30 10 2 10 11
M  V30 11 1 11 12
M  V30 12 2 12 13
M  V30 13 1 13 14
M  V30 14 2 14 15
M  V30 15 1 15 16
M  V30 16 2 16 17
M  V30 17 1 17 18
M  V30 18 2 18 19
M  V30 19 1 11 20
M  V30 20 1 20 21
M  V30 21 1 21 22
M  V30 22 2 22 23
M  V30 23 1 23 24
M  V30 24 2 24 25
M  V30 25 1 25 26
M  V30 26 1 9 2
M  V30 27 1 19 10
M  V30 28 1 26 22
M  V30 29 1 21 7
M  V30 30 1 19 14
M  V30 31 1 1 27
M  V30 32 1 1 28
M  V30 33 1 1 29
M  V30 34 1 3 30
M  V30 35 1 3 31
M  V30 36 1 3 32
M  V30 37 1 4 33
M  V30 38 1 4 34
M  V30 39 1 9 35
M  V30 40 1 9 36
M  V30 41 1 12 37
M  V30 42 1 13 38
M  V30 43 1 15 39
M  V30 44 1 16 40
M  V30 45 1 17 41
M  V30 46 1 18 42
M  V30 47 1 20 43
M  V30 48 1 21 44
M  V30 49 1 23 45
M  V30 50 1 24 46
M  V30 51 1 25 47
M  V30 END BOND
M  V30 END CTAB
M  END
>  <Dataset>  (296) 
ChEMBL_Kinases

>  <Ligand_Instance>  (296) 
nan

>  <PDB_ID>  (296) 
nan

>  <Standardized_SMILES>  (296) 
CC1(C)CC(=O)C2=C(C1)c1c(ccc3ccccc13)NC2c1ccco1

>  <Name>  (296) 
nan

>  <Pocket>  (296) 
nan

>  <ATP_Site>  (296) 
nan

>  <Peripheral>  (296) 
nan

>  <Num_H_Atoms_ProtBoundConf>  (296) 
nan

>  <Num_Resolved_Atoms>  (296) 
nan

>  <Num_Not_Resolved_Atoms>  (296) 
nan

$$$$
CHEMBL1374335
     RDKit          3D

  0  0  0  0  0  0  0  0  0  0999 V3000
M  V30 BEGIN CTAB
M  V30 COUNTS 31 34 0 0 0
M  V30 BEGIN ATOM
M  V30 1 C -1.292278 -1.536527 3.133765 0
M  V30 2 C -0.313625 -2.114321 3.922205 0
M  V30 3 C 0.680163 -2.742827 3.198343 0
M  V30 4 C 0.653701 -2.763650 1.840967 0
M  V30 5 S 1.755175 -3.480877 0.603169 0
M  V30 6 C 0.649082 -2.846514 -0.811760 0
M  V30 7 S 1.020414 -3.202943 -2.676496 0
M  V30 8 C -0.284696 -2.338965 -3.543492 0
M  V30 9 S -0.049848 -0.574774 -3.614114 0
M  V30 10 C -0.072909 0.214677 -2.023196 0
M  V30 11 N 0.852373 0.411296 -1.357870 0
M  V30 12 C 0.948580 0.992454 -0.179182 0
M  V30 13 C 2.046861 1.251705 0.650934 0
M  V30 14 C 1.877170 1.881707 1.839805 0
M  V30 15 C 0.678823 2.324703 2.359159 0
M  V30 16 C -0.423090 2.086538 1.567559 0
M  V30 17 C -0.277799 1.434833 0.330011 0
M  V30 18 S -1.452105 0.978451 -0.922620 0
M  V30 19 N -0.280696 -2.255118 -0.241984 0
M  V30 20 C -0.308722 -2.195640 1.069184 0
M  V30 21 C -1.342133 -1.543836 1.756319 0
M  V30 22 H -2.091189 -1.032312 3.705612 0
M  V30 23 H -0.285324 -2.102845 4.993336 0
M  V30 24 H 1.508316 -3.239491 3.631987 0
M  V30 25 H -0.497224 -2.792175 -4.543162 0
M  V30 26 H -1.272439 -2.496720 -2.995273 0
M  V30 27 H 3.036795 0.946000 0.343949 0
M  V30 28 H 2.766527 2.056014 2.440973 0
M  V30 29 H 0.554261 2.823992 3.299355 0
M  V30 30 H -1.436586 2.365529 1.816576 0
M  V30 31 H -2.192942 -1.032676 1.321403 0
M  V30 END ATOM
M  V30 BEGIN BOND
M  V30 1 2 1 2
M  V30 2 1 2 3
M  V30 3 2 3 4
M  V30 4 1 4 5
M  V30 5 1 5 6
M  V30 6 1 6 7
M  V30 7 1 7 8
M  V30 8 1 8 9
M  V30 9 1 9 10
M  V30 10 2 10 11
M  V30 11 1 11 12
M  V30 12 2 12 13
M  V30 13 1 13 14
M  V30 14 2 14 15
M  V30 15 1 15 16
M  V30 16 2 16 17
M  V30 17 1 17 18
M  V30 18 2 6 19
M  V30 19 1 19 20
M  V30 20 2 20 21
M  V30 21 1 21 1
M  V30 22 1 20 4
M  V30 23 1 18 10
M  V30 24 1 17 12
M  V30 25 1 1 22
M  V30 26 1 2 23
M  V30 27 1 3 24
M  V30 28 1 8 25
M  V30 29 1 8 26
M  V30 30 1 13 27
M  V30 31 1 14 28
M  V30 32 1 15 29
M  V30 33 1 16 30
M  V30 34 1 21 31
M  V30 END BOND
M  V30 END CTAB
M  END
>  <Dataset>  (297) 
ChEMBL_Kinases

>  <Ligand_Instance>  (297) 
nan

>  <PDB_ID>  (297) 
nan

>  <Standardized_SMILES>  (297) 
c1ccc2sc(SCSc3nc4ccccc4s3)nc2c1

>  <Name>  (297) 
nan

>  <Pocket>  (297) 
nan

>  <ATP_Site>  (297) 
nan

>  <Peripheral>  (297) 
nan

>  <Num_H_Atoms_ProtBoundConf>  (297) 
nan

>  <Num_Resolved_Atoms>  (297) 
nan

>  <Num_Not_Resolved_Atoms>  (297) 
nan

$$$$
CHEMBL1374185
     RDKit          3D

  0  0  0  0  0  0  0  0  0  0999 V3000
M  V30 BEGIN CTAB
M  V30 COUNTS 36 39 0 0 0
M  V30 BEGIN ATOM
M  V30 1 C 0.606431 -6.125013 0.086911 0
M  V30 2 O 0.289191 -4.928975 -0.564963 0
M  V30 3 C 0.509543 -3.710155 0.060197 0
M  V30 4 C 1.040562 -3.594263 1.329441 0
M  V30 5 C 1.265073 -2.388507 1.961667 0
M  V30 6 C 0.932069 -1.247673 1.265934 0
M  V30 7 C 0.390774 -1.339271 -0.022051 0
M  V30 8 C 0.171167 -2.550419 -0.644821 0
M  V30 9 O -0.363982 -2.624128 -1.920330 0
M  V30 10 C -1.762978 -2.703459 -2.144958 0
M  V30 11 C 0.076453 0.005921 -0.552214 0
M  V30 12 O -0.406701 0.378305 -1.639728 0
M  V30 13 N 0.452887 0.898746 0.485236 0
M  V30 14 C 0.344721 2.324286 0.664983 0
M  V30 15 C 0.296425 3.141498 -0.444158 0
M  V30 16 C 0.182918 4.505660 -0.263567 0
M  V30 17 C 0.121691 4.999424 1.044628 0
M  V30 18 C 0.170747 4.171510 2.163156 0
M  V30 19 Cl 0.089856 4.845439 3.782716 0
M  V30 20 C 0.284222 2.809732 1.978172 0
M  V30 21 C 0.342376 1.911413 3.152702 0
M  V30 22 O 0.288238 2.338014 4.325516 0
M  V30 23 O 0.462628 0.552684 2.824341 0
M  V30 24 C 1.059388 0.182896 1.594019 0
M  V30 25 H 0.343995 -6.136770 1.164481 0
M  V30 26 H 0.034313 -6.978767 -0.371391 0
M  V30 27 H 1.708212 -6.301616 -0.058832 0
M  V30 28 H 1.305229 -4.487000 1.883498 0
M  V30 29 H 1.681093 -2.300043 2.955908 0
M  V30 30 H -1.994430 -2.412003 -3.191567 0
M  V30 31 H -2.244453 -2.042044 -1.409030 0
M  V30 32 H -2.113395 -3.764461 -2.022835 0
M  V30 33 H 0.348985 2.682786 -1.443861 0
M  V30 34 H 0.142569 5.173272 -1.113284 0
M  V30 35 H 0.031265 6.075626 1.237858 0
M  V30 36 H 2.126583 0.510481 1.641210 0
M  V30 END ATOM
M  V30 BEGIN BOND
M  V30 1 1 1 2
M  V30 2 1 2 3
M  V30 3 2 3 4
M  V30 4 1 4 5
M  V30 5 2 5 6
M  V30 6 1 6 7
M  V30 7 2 7 8
M  V30 8 1 8 9
M  V30 9 1 9 10
M  V30 10 1 7 11
M  V30 11 2 11 12
M  V30 12 1 11 13
M  V30 13 1 13 14
M  V30 14 2 14 15
M  V30 15 1 15 16
M  V30 16 2 16 17
M  V30 17 1 17 18
M  V30 18 1 18 19
M  V30 19 2 18 20
M  V30 20 1 20 21
M  V30 21 2 21 22
M  V30 22 1 21 23
M  V30 23 1 23 24
M  V30 24 1 8 3
M  V30 25 1 24 13
M  V30 26 1 24 6
M  V30 27 1 20 14
M  V30 28 1 1 25
M  V30 29 1 1 26
M  V30 30 1 1 27
M  V30 31 1 4 28
M  V30 32 1 5 29
M  V30 33 1 10 30
M  V30 34 1 10 31
M  V30 35 1 10 32
M  V30 36 1 15 33
M  V30 37 1 16 34
M  V30 38 1 17 35
M  V30 39 1 24 36
M  V30 END BOND
M  V30 END CTAB
M  END
>  <Dataset>  (298) 
ChEMBL_Kinases

>  <Ligand_Instance>  (298) 
nan

>  <PDB_ID>  (298) 
nan

>  <Standardized_SMILES>  (298) 
COc1ccc2c(c1OC)C(=O)N1c3cccc(Cl)c3C(=O)OC21

>  <Name>  (298) 
nan

>  <Pocket>  (298) 
nan

>  <ATP_Site>  (298) 
nan

>  <Peripheral>  (298) 
nan

>  <Num_H_Atoms_ProtBoundConf>  (298) 
nan

>  <Num_Resolved_Atoms>  (298) 
nan

>  <Num_Not_Resolved_Atoms>  (298) 
nan

$$$$
CHEMBL1374176
     RDKit          3D

  0  0  0  0  0  0  0  0  0  0999 V3000
M  V30 BEGIN CTAB
M  V30 COUNTS 40 42 0 0 0
M  V30 BEGIN ATOM
M  V30 1 N 1.992237 -5.492759 1.574091 0
M  V30 2 S 1.920528 -5.182000 -0.116322 0
M  V30 3 O 2.826592 -6.160213 -0.806150 0
M  V30 4 O 0.507340 -5.352761 -0.585546 0
M  V30 5 C 2.413323 -3.527417 -0.452046 0
M  V30 6 C 3.714719 -3.201625 -0.779615 0
M  V30 7 C 4.071891 -1.894390 -1.036691 0
M  V30 8 C 3.166518 -0.862356 -0.982329 0
M  V30 9 C 1.853628 -1.164088 -0.654941 0
M  V30 10 N 0.829269 -0.192746 -0.565610 0
M  V30 11 C -0.141776 0.399164 -1.367042 0
M  V30 12 O -0.325985 0.104902 -2.594117 0
M  V30 13 C -1.132389 1.435048 -1.037552 0
M  V30 14 N -0.993663 1.862932 0.336139 0
M  V30 15 C 0.112430 2.635056 0.919223 0
M  V30 16 C 0.148207 2.169119 2.336265 0
M  V30 17 C -1.265934 1.809955 2.656963 0
M  V30 18 C -1.896322 1.659210 3.875943 0
M  V30 19 C -3.239259 1.316495 3.872601 0
M  V30 20 C -3.897414 1.139003 2.658893 0
M  V30 21 C -3.211731 1.304884 1.475796 0
M  V30 22 C -1.877707 1.644428 1.428943 0
M  V30 23 C 1.498185 -2.483226 -0.396379 0
M  V30 24 H 1.142850 -5.942070 1.955212 0
M  V30 25 H 2.377037 -4.707127 2.135807 0
M  V30 26 H 4.444912 -4.012846 -0.824344 0
M  V30 27 H 5.106829 -1.645599 -1.295427 0
M  V30 28 H 3.410309 0.181652 -1.179908 0
M  V30 29 H 0.863337 0.132250 0.420421 0
M  V30 30 H -1.009931 2.340783 -1.701362 0
M  V30 31 H -2.161416 1.011726 -1.159937 0
M  V30 32 H 1.060990 2.499095 0.372667 0
M  V30 33 H -0.208906 3.720604 0.901889 0
M  V30 34 H 0.474201 2.977479 3.047679 0
M  V30 35 H 0.824246 1.305142 2.498740 0
M  V30 36 H -1.289558 1.821441 4.781210 0
M  V30 37 H -3.674090 1.214664 4.863352 0
M  V30 38 H -4.961401 0.868664 2.725889 0
M  V30 39 H -3.739747 1.163584 0.540468 0
M  V30 40 H 0.471133 -2.744504 -0.137043 0
M  V30 END ATOM
M  V30 BEGIN BOND
M  V30 1 1 1 2
M  V30 2 2 2 3
M  V30 3 2 2 4
M  V30 4 1 2 5
M  V30 5 2 5 6
M  V30 6 1 6 7
M  V30 7 2 7 8
M  V30 8 1 8 9
M  V30 9 1 9 10
M  V30 10 1 10 11
M  V30 11 2 11 12
M  V30 12 1 11 13
M  V30 13 1 13 14
M  V30 14 1 14 15
M  V30 15 1 15 16
M  V30 16 1 16 17
M  V30 17 2 17 18
M  V30 18 1 18 19
M  V30 19 2 19 20
M  V30 20 1 20 21
M  V30 21 2 21 22
M  V30 22 2 9 23
M  V30 23 1 23 5
M  V30 24 1 22 14
M  V30 25 1 22 17
M  V30 26 1 1 24
M  V30 27 1 1 25
M  V30 28 1 6 26
M  V30 29 1 7 27
M  V30 30 1 8 28
M  V30 31 1 10 29
M  V30 32 1 13 30
M  V30 33 1 13 31
M  V30 34 1 15 32
M  V30 35 1 15 33
M  V30 36 1 16 34
M  V30 37 1 16 35
M  V30 38 1 18 36
M  V30 39 1 19 37
M  V30 40 1 20 38
M  V30 41 1 21 39
M  V30 42 1 23 40
M  V30 END BOND
M  V30 END CTAB
M  END
>  <Dataset>  (299) 
ChEMBL_Kinases

>  <Ligand_Instance>  (299) 
nan

>  <PDB_ID>  (299) 
nan

>  <Standardized_SMILES>  (299) 
NS(=O)(=O)c1cccc(NC(=O)CN2CCc3ccccc32)c1

>  <Name>  (299) 
nan

>  <Pocket>  (299) 
nan

>  <ATP_Site>  (299) 
nan

>  <Peripheral>  (299) 
nan

>  <Num_H_Atoms_ProtBoundConf>  (299) 
nan

>  <Num_Resolved_Atoms>  (299) 
nan

>  <Num_Not_Resolved_Atoms>  (299) 
nan

$$$$
CHEMBL1374152
     RDKit          3D

  0  0  0  0  0  0  0  0  0  0999 V3000
M  V30 BEGIN CTAB
M  V30 COUNTS 59 62 0 0 0
M  V30 BEGIN ATOM
M  V30 1 C 4.150033 -4.062567 4.684306 0
M  V30 2 O 3.798676 -4.118011 3.307367 0
M  V30 3 C 3.671805 -2.909699 2.639063 0
M  V30 4 C 3.878837 -1.720061 3.304827 0
M  V30 5 C 3.751349 -0.521819 2.636452 0
M  V30 6 C 3.419707 -0.424575 1.302204 0
M  V30 7 C 3.258528 0.831134 0.524434 0
M  V30 8 C 3.055896 2.050130 1.396315 0
M  V30 9 C 2.167009 3.079063 0.736791 0
M  V30 10 C 2.868859 3.698341 -0.422228 0
M  V30 11 F 4.020694 4.300137 0.076528 0
M  V30 12 F 2.109429 4.711905 -0.976634 0
M  V30 13 F 3.216125 2.743008 -1.343862 0
M  V30 14 N 0.851142 2.569592 0.456293 0
M  V30 15 N -0.411938 2.911643 0.538001 0
M  V30 16 C -1.235594 1.947965 0.090897 0
M  V30 17 C -2.698988 1.955057 0.020842 0
M  V30 18 O -3.297786 3.003209 0.436253 0
M  V30 19 N -3.392734 0.834466 -0.490031 0
M  V30 20 C -4.826717 0.811844 -0.571567 0
M  V30 21 C -5.277916 -0.509691 -1.154207 0
M  V30 22 C -4.838428 -1.663319 -0.307210 0
M  V30 23 N -5.250221 -2.958416 -0.830263 0
M  V30 24 C -6.373080 -3.693714 -0.617321 0
M  V30 25 C -6.298255 -4.870623 -1.350375 0
M  V30 26 N -5.131644 -4.860305 -2.013635 0
M  V30 27 C -4.504147 -3.694512 -1.689998 0
M  V30 28 C -0.423093 0.905396 -0.308506 0
M  V30 29 C 0.855530 1.325824 -0.067943 0
M  V30 30 N 2.059578 0.616878 -0.308004 0
M  V30 31 C 3.219843 -1.631903 0.666046 0
M  V30 32 C 3.338256 -2.854085 1.301587 0
M  V30 33 O 3.141642 -4.081768 0.682389 0
M  V30 34 C 2.793770 -4.099646 -0.700671 0
M  V30 35 H 5.202336 -3.668918 4.691959 0
M  V30 36 H 4.218202 -5.094567 5.061268 0
M  V30 37 H 3.457444 -3.426937 5.276773 0
M  V30 38 H 4.145110 -1.723107 4.365565 0
M  V30 39 H 3.921386 0.397244 3.178871 0
M  V30 40 H 4.100196 0.970942 -0.188675 0
M  V30 41 H 2.681220 1.785036 2.410721 0
M  V30 42 H 4.047364 2.522392 1.545758 0
M  V30 43 H 2.022461 3.889333 1.498008 0
M  V30 44 H -2.804058 0.039708 -0.799994 0
M  V30 45 H -5.129878 1.596403 -1.321239 0
M  V30 46 H -5.322242 1.004981 0.401543 0
M  V30 47 H -4.750121 -0.596409 -2.138235 0
M  V30 48 H -6.374083 -0.494329 -1.318104 0
M  V30 49 H -5.291806 -1.512594 0.715024 0
M  V30 50 H -3.743836 -1.664797 -0.237969 0
M  V30 51 H -7.141833 -3.330270 0.037144 0
M  V30 52 H -7.061213 -5.633276 -1.359927 0
M  V30 53 H -3.544555 -3.402991 -2.069865 0
M  V30 54 H -0.767328 -0.043632 -0.725702 0
M  V30 55 H 2.090548 -0.068178 -1.093785 0
M  V30 56 H 2.955733 -1.753969 -0.375360 0
M  V30 57 H 2.599649 -5.166488 -0.972339 0
M  V30 58 H 1.857431 -3.498667 -0.885895 0
M  V30 59 H 3.634573 -3.762724 -1.334135 0
M  V30 END ATOM
M  V30 BEGIN BOND
M  V30 1 1 1 2
M  V30 2 1 2 3
M  V30 3 2 3 4
M  V30 4 1 4 5
M  V30 5 2 5 6
M  V30 6 1 6 7
M  V30 7 1 7 8
M  V30 8 1 8 9
M  V30 9 1 9 10
M  V30 10 1 10 11
M  V30 11 1 10 12
M  V30 12 1 10 13
M  V30 13 1 9 14
M  V30 14 1 14 15
M  V30 15 2 15 16
M  V30 16 1 16 17
M  V30 17 2 17 18
M  V30 18 1 17 19
M  V30 19 1 19 20
M  V30 20 1 20 21
M  V30 21 1 21 22
M  V30 22 1 22 23
M  V30 23 1 23 24
M  V30 24 2 24 25
M  V30 25 1 25 26
M  V30 26 2 26 27
M  V30 27 1 16 28
M  V30 28 2 28 29
M  V30 29 1 29 30
M  V30 30 1 6 31
M  V30 31 2 31 32
M  V30 32 1 32 33
M  V30 33 1 33 34
M  V30 34 1 32 3
M  V30 35 1 30 7
M  V30 36 1 29 14
M  V30 37 1 27 23
M  V30 38 1 1 35
M  V30 39 1 1 36
M  V30 40 1 1 37
M  V30 41 1 4 38
M  V30 42 1 5 39
M  V30 43 1 7 40
M  V30 44 1 8 41
M  V30 45 1 8 42
M  V30 46 1 9 43
M  V30 47 1 19 44
M  V30 48 1 20 45
M  V30 49 1 20 46
M  V30 50 1 21 47
M  V30 51 1 21 48
M  V30 52 1 22 49
M  V30 53 1 22 50
M  V30 54 1 24 51
M  V30 55 1 25 52
M  V30 56 1 27 53
M  V30 57 1 28 54
M  V30 58 1 30 55
M  V30 59 1 31 56
M  V30 60 1 34 57
M  V30 61 1 34 58
M  V30 62 1 34 59
M  V30 END BOND
M  V30 END CTAB
M  END
>  <Dataset>  (300) 
ChEMBL_Kinases

>  <Ligand_Instance>  (300) 
nan

>  <PDB_ID>  (300) 
nan

>  <Standardized_SMILES>  (300) 
COc1ccc(C2CC(C(F)(F)F)n3nc(C(=O)NCCCn4ccnc4)cc3N2)cc1OC

>  <Name>  (300) 
nan

>  <Pocket>  (300) 
nan

>  <ATP_Site>  (300) 
nan

>  <Peripheral>  (300) 
nan

>  <Num_H_Atoms_ProtBoundConf>  (300) 
nan

>  <Num_Resolved_Atoms>  (300) 
nan

>  <Num_Not_Resolved_Atoms>  (300) 
nan

$$$$
CHEMBL1374082
     RDKit          3D

  0  0  0  0  0  0  0  0  0  0999 V3000
M  V30 BEGIN CTAB
M  V30 COUNTS 42 42 0 0 0
M  V30 BEGIN ATOM
M  V30 1 C -1.442319 -5.192244 0.975074 0
M  V30 2 C -1.284252 -3.714226 0.799330 0
M  V30 3 C 0.038628 -3.282034 1.365492 0
M  V30 4 C 0.185325 -3.583846 2.838805 0
M  V30 5 C -0.854048 -2.906724 3.685144 0
M  V30 6 C 0.346269 -1.863584 1.100425 0
M  V30 7 O 0.537122 -1.015757 2.038789 0
M  V30 8 N 0.448944 -1.354362 -0.216837 0
M  V30 9 C 0.757165 0.058764 -0.210226 0
M  V30 10 C 2.078133 0.455229 -0.214723 0
M  V30 11 C 2.459218 1.786156 -0.208955 0
M  V30 12 O 3.769453 2.228956 -0.213127 0
M  V30 13 C 4.895948 1.403099 -0.223746 0
M  V30 14 C 1.447675 2.712248 -0.198371 0
M  V30 15 O 1.772528 4.057578 -0.192236 0
M  V30 16 C 0.871806 5.112540 -0.181479 0
M  V30 17 C 0.106733 2.378343 -0.193409 0
M  V30 18 C -0.217435 1.038251 -0.199522 0
M  V30 19 C -1.621667 0.644781 -0.194525 0
M  V30 20 O -2.533909 1.514169 -0.184861 0
M  V30 21 O -1.985411 -0.694387 -0.200297 0
M  V30 22 H -2.501768 -5.458859 0.727226 0
M  V30 23 H -1.198872 -5.543991 1.994195 0
M  V30 24 H -0.826011 -5.784669 0.270281 0
M  V30 25 H -2.147927 -3.158226 1.167027 0
M  V30 26 H -1.228433 -3.523901 -0.295829 0
M  V30 27 H 0.818848 -3.889743 0.846728 0
M  V30 28 H 1.178461 -3.128617 3.126815 0
M  V30 29 H 0.314107 -4.659944 3.055463 0
M  V30 30 H -1.293880 -3.633656 4.425767 0
M  V30 31 H -0.424755 -2.084515 4.319679 0
M  V30 32 H -1.677286 -2.441942 3.124255 0
M  V30 33 H 0.298363 -2.021739 -1.012260 0
M  V30 34 H 2.858710 -0.298037 -0.223116 0
M  V30 35 H 5.686407 1.929600 0.371338 0
M  V30 36 H 4.740854 0.392624 0.194262 0
M  V30 37 H 5.250583 1.253569 -1.274734 0
M  V30 38 H 1.425808 6.058668 -0.193344 0
M  V30 39 H 0.278778 5.126870 0.779121 0
M  V30 40 H 0.137533 5.146372 -0.991922 0
M  V30 41 H -0.641342 3.149179 -0.185089 0
M  V30 42 H -2.959191 -1.004538 -0.164896 0
M  V30 END ATOM
M  V30 BEGIN BOND
M  V30 1 1 1 2
M  V30 2 1 2 3
M  V30 3 1 3 4
M  V30 4 1 4 5
M  V30 5 1 3 6
M  V30 6 2 6 7
M  V30 7 1 6 8
M  V30 8 1 8 9
M  V30 9 2 9 10
M  V30 10 1 10 11
M  V30 11 1 11 12
M  V30 12 1 12 13
M  V30 13 2 11 14
M  V30 14 1 14 15
M  V30 15 1 15 16
M  V30 16 1 14 17
M  V30 17 2 17 18
M  V30 18 1 18 19
M  V30 19 2 19 20
M  V30 20 1 19 21
M  V30 21 1 18 9
M  V30 22 1 1 22
M  V30 23 1 1 23
M  V30 24 1 1 24
M  V30 25 1 2 25
M  V30 26 1 2 26
M  V30 27 1 3 27
M  V30 28 1 4 28
M  V30 29 1 4 29
M  V30 30 1 5 30
M  V30 31 1 5 31
M  V30 32 1 5 32
M  V30 33 1 8 33
M  V30 34 1 10 34
M  V30 35 1 13 35
M  V30 36 1 13 36
M  V30 37 1 13 37
M  V30 38 1 16 38
M  V30 39 1 16 39
M  V30 40 1 16 40
M  V30 41 1 17 41
M  V30 42 1 21 42
M  V30 END BOND
M  V30 END CTAB
M  END
>  <Dataset>  (301) 
ChEMBL_Kinases

>  <Ligand_Instance>  (301) 
nan

>  <PDB_ID>  (301) 
nan

>  <Standardized_SMILES>  (301) 
CCC(CC)C(=O)Nc1cc(OC)c(OC)cc1C(=O)O

>  <Name>  (301) 
nan

>  <Pocket>  (301) 
nan

>  <ATP_Site>  (301) 
nan

>  <Peripheral>  (301) 
nan

>  <Num_H_Atoms_ProtBoundConf>  (301) 
nan

>  <Num_Resolved_Atoms>  (301) 
nan

>  <Num_Not_Resolved_Atoms>  (301) 
nan

$$$$
CHEMBL1374054
     RDKit          3D

  0  0  0  0  0  0  0  0  0  0999 V3000
M  V30 BEGIN CTAB
M  V30 COUNTS 22 23 0 0 0
M  V30 BEGIN ATOM
M  V30 1 C -0.758539 -1.702512 2.839343 0
M  V30 2 O -0.398926 -0.582615 2.051010 0
M  V30 3 C 0.473611 -0.725012 0.978497 0
M  V30 4 C 0.999826 -1.983617 0.676263 0
M  V30 5 C 1.868198 -2.082218 -0.403789 0
M  V30 6 C 2.232107 -1.004176 -1.185305 0
M  V30 7 Cl 3.331378 -1.251277 -2.516591 0
M  V30 8 C 1.716137 0.242781 -0.892736 0
M  V30 9 C 0.852966 0.344778 0.179673 0
M  V30 10 C 0.294500 1.642004 0.511754 0
M  V30 11 N 0.517680 2.818787 -0.118974 0
M  V30 12 N -0.176106 3.765195 0.488978 0
M  V30 13 C -0.833942 3.181556 1.500527 0
M  V30 14 S -1.939562 3.904786 2.699974 0
M  V30 15 O -0.534215 1.914686 1.489946 0
M  V30 16 H -1.280088 -1.378362 3.752447 0
M  V30 17 H -1.347502 -2.446491 2.235935 0
M  V30 18 H 0.145883 -2.263547 3.160819 0
M  V30 19 H 0.749217 -2.862991 1.254705 0
M  V30 20 H 2.277458 -3.043183 -0.644127 0
M  V30 21 H 1.976057 1.111785 -1.480028 0
M  V30 22 H -1.279614 3.892060 3.937937 0
M  V30 END ATOM
M  V30 BEGIN BOND
M  V30 1 1 1 2
M  V30 2 1 2 3
M  V30 3 2 3 4
M  V30 4 1 4 5
M  V30 5 2 5 6
M  V30 6 1 6 7
M  V30 7 1 6 8
M  V30 8 2 8 9
M  V30 9 1 9 10
M  V30 10 2 10 11
M  V30 11 1 11 12
M  V30 12 2 12 13
M  V30 13 1 13 14
M  V30 14 1 13 15
M  V30 15 1 9 3
M  V30 16 1 15 10
M  V30 17 1 1 16
M  V30 18 1 1 17
M  V30 19 1 1 18
M  V30 20 1 4 19
M  V30 21 1 5 20
M  V30 22 1 8 21
M  V30 23 1 14 22
M  V30 END BOND
M  V30 END CTAB
M  END
>  <Dataset>  (302) 
ChEMBL_Kinases

>  <Ligand_Instance>  (302) 
nan

>  <PDB_ID>  (302) 
nan

>  <Standardized_SMILES>  (302) 
COc1ccc(Cl)cc1-c1nnc(S)o1

>  <Name>  (302) 
nan

>  <Pocket>  (302) 
nan

>  <ATP_Site>  (302) 
nan

>  <Peripheral>  (302) 
nan

>  <Num_H_Atoms_ProtBoundConf>  (302) 
nan

>  <Num_Resolved_Atoms>  (302) 
nan

>  <Num_Not_Resolved_Atoms>  (302) 
nan

$$$$
CHEMBL1374043
     RDKit          3D

  0  0  0  0  0  0  0  0  0  0999 V3000
M  V30 BEGIN CTAB
M  V30 COUNTS 46 49 0 0 0
M  V30 BEGIN ATOM
M  V30 1 C 1.290305 -7.248988 -1.627427 0
M  V30 2 O 2.290917 -6.324311 -1.280705 0
M  V30 3 C 2.086853 -4.974784 -1.049821 0
M  V30 4 C 3.293987 -4.367353 -0.735987 0
M  V30 5 C 3.343387 -2.993187 -0.458708 0
M  V30 6 C 2.173014 -2.271635 -0.506937 0
M  V30 7 C 0.970318 -2.866434 -0.819322 0
M  V30 8 C 0.920034 -4.213747 -1.090591 0
M  V30 9 C -0.353690 -2.240936 -0.919819 0
M  V30 10 C -0.435284 -0.802917 -0.573294 0
M  V30 11 C 0.851320 -0.167256 -0.272031 0
M  V30 12 C 1.164827 1.139228 0.044018 0
M  V30 13 C 0.181575 2.228191 0.115657 0
M  V30 14 O -0.245767 2.780891 -0.943102 0
M  V30 15 N -0.265208 2.629857 1.407107 0
M  V30 16 C 0.284883 1.941083 2.540100 0
M  V30 17 C -0.206086 2.524750 3.846238 0
M  V30 18 C -1.608090 2.035101 4.167043 0
M  V30 19 C -2.499316 2.061925 2.969267 0
M  V30 20 C -2.493473 3.344890 2.222053 0
M  V30 21 C -1.240054 3.696958 1.506108 0
M  V30 22 N 2.511493 1.219350 0.265479 0
M  V30 23 O 3.027775 0.035418 0.101439 0
M  V30 24 C 2.077059 -0.842392 -0.224530 0
M  V30 25 H 1.286273 -8.041844 -0.829804 0
M  V30 26 H 0.304283 -6.796325 -1.721793 0
M  V30 27 H 1.604554 -7.801122 -2.560549 0
M  V30 28 H 4.282615 -4.822275 -0.664401 0
M  V30 29 H 4.224252 -2.419060 -0.204566 0
M  V30 30 H 0.068152 -4.803740 -1.345829 0
M  V30 31 H -1.060674 -2.809870 -0.248309 0
M  V30 32 H -0.750971 -2.450452 -1.951296 0
M  V30 33 H -0.930922 -0.260601 -1.396204 0
M  V30 34 H -1.126504 -0.632873 0.311984 0
M  V30 35 H 1.386690 2.003360 2.530209 0
M  V30 36 H -0.003539 0.867209 2.568791 0
M  V30 37 H -0.196769 3.636544 3.861866 0
M  V30 38 H 0.460281 2.156984 4.648872 0
M  V30 39 H -2.032148 2.692581 4.951273 0
M  V30 40 H -1.582562 0.995769 4.560934 0
M  V30 41 H -3.549557 1.933264 3.369636 0
M  V30 42 H -2.344140 1.157517 2.346363 0
M  V30 43 H -3.326380 3.265377 1.456818 0
M  V30 44 H -2.820279 4.145906 2.940804 0
M  V30 45 H -1.383641 4.097571 0.475007 0
M  V30 46 H -0.741497 4.515910 2.105861 0
M  V30 END ATOM
M  V30 BEGIN BOND
M  V30 1 1 1 2
M  V30 2 1 2 3
M  V30 3 2 3 4
M  V30 4 1 4 5
M  V30 5 2 5 6
M  V30 6 1 6 7
M  V30 7 2 7 8
M  V30 8 1 7 9
M  V30 9 1 9 10
M  V30 10 1 10 11
M  V30 11 1 11 12
M  V30 12 1 12 13
M  V30 13 2 13 14
M  V30 14 1 13 15
M  V30 15 1 15 16
M  V30 16 1 16 17
M  V30 17 1 17 18
M  V30 18 1 18 19
M  V30 19 1 19 20
M  V30 20 1 20 21
M  V30 21 2 12 22
M  V30 22 1 22 23
M  V30 23 1 23 24
M  V30 24 1 8 3
M  V30 25 2 24 11
M  V30 26 1 24 6
M  V30 27 1 21 15
M  V30 28 1 1 25
M  V30 29 1 1 26
M  V30 30 1 1 27
M  V30 31 1 4 28
M  V30 32 1 5 29
M  V30 33 1 8 30
M  V30 34 1 9 31
M  V30 35 1 9 32
M  V30 36 1 10 33
M  V30 37 1 10 34
M  V30 38 1 16 35
M  V30 39 1 16 36
M  V30 40 1 17 37
M  V30 41 1 17 38
M  V30 42 1 18 39
M  V30 43 1 18 40
M  V30 44 1 19 41
M  V30 45 1 19 42
M  V30 46 1 20 43
M  V30 47 1 20 44
M  V30 48 1 21 45
M  V30 49 1 21 46
M  V30 END BOND
M  V30 END CTAB
M  END
>  <Dataset>  (303) 
ChEMBL_Kinases

>  <Ligand_Instance>  (303) 
nan

>  <PDB_ID>  (303) 
nan

>  <Standardized_SMILES>  (303) 
COc1ccc2c(c1)CCc1c(C(=O)N3CCCCCC3)noc1-2

>  <Name>  (303) 
nan

>  <Pocket>  (303) 
nan

>  <ATP_Site>  (303) 
nan

>  <Peripheral>  (303) 
nan

>  <Num_H_Atoms_ProtBoundConf>  (303) 
nan

>  <Num_Resolved_Atoms>  (303) 
nan

>  <Num_Not_Resolved_Atoms>  (303) 
nan

$$$$
CHEMBL1373893
     RDKit          3D

  0  0  0  0  0  0  0  0  0  0999 V3000
M  V30 BEGIN CTAB
M  V30 COUNTS 23 24 0 0 0
M  V30 BEGIN ATOM
M  V30 1 C 0.419923 -0.319896 4.068044 0
M  V30 2 C -0.209088 -0.998209 2.865159 0
M  V30 3 C 0.754799 -1.525674 1.894008 0
M  V30 4 C 1.072101 -1.145039 0.679986 0
M  V30 5 O 1.981665 -1.672885 -0.209707 0
M  V30 6 C 1.994449 -0.945829 -1.388791 0
M  V30 7 O 2.741691 -1.236129 -2.349873 0
M  V30 8 C 1.015201 0.119333 -1.216855 0
M  V30 9 C 0.636790 1.132504 -2.068983 0
M  V30 10 C -0.312739 2.042190 -1.663000 0
M  V30 11 C -0.880818 1.924609 -0.387516 0
M  V30 12 C -0.474164 0.896063 0.432924 0
M  V30 13 C 0.464707 -0.007651 0.033245 0
M  V30 14 H 1.031760 -1.038313 4.649348 0
M  V30 15 H -0.391035 0.091094 4.673588 0
M  V30 16 H 1.108443 0.493391 3.781639 0
M  V30 17 H -0.581441 -1.996854 3.399057 0
M  V30 18 H -1.158973 -0.631043 2.542156 0
M  V30 19 H 1.352846 -2.404215 2.199543 0
M  V30 20 H 1.105447 1.178014 -3.039957 0
M  V30 21 H -0.547654 2.793908 -2.384388 0
M  V30 22 H -1.606492 2.720255 -0.231719 0
M  V30 23 H -1.002775 1.007218 1.331206 0
M  V30 END ATOM
M  V30 BEGIN BOND
M  V30 1 1 1 2
M  V30 2 1 2 3
M  V30 3 2 3 4
M  V30 4 1 4 5
M  V30 5 1 5 6
M  V30 6 2 6 7
M  V30 7 1 6 8
M  V30 8 2 8 9
M  V30 9 1 9 10
M  V30 10 2 10 11
M  V30 11 1 11 12
M  V30 12 2 12 13
M  V30 13 1 13 4
M  V30 14 1 13 8
M  V30 15 1 1 14
M  V30 16 1 1 15
M  V30 17 1 1 16
M  V30 18 1 2 17
M  V30 19 1 2 18
M  V30 20 1 3 19
M  V30 21 1 9 20
M  V30 22 1 10 21
M  V30 23 1 11 22
M  V30 24 1 12 23
M  V30 END BOND
M  V30 END CTAB
M  END
>  <Dataset>  (304) 
ChEMBL_Kinases

>  <Ligand_Instance>  (304) 
nan

>  <PDB_ID>  (304) 
nan

>  <Standardized_SMILES>  (304) 
CC/C=C1/OC(=O)c2ccccc21

>  <Name>  (304) 
nan

>  <Pocket>  (304) 
nan

>  <ATP_Site>  (304) 
nan

>  <Peripheral>  (304) 
nan

>  <Num_H_Atoms_ProtBoundConf>  (304) 
nan

>  <Num_Resolved_Atoms>  (304) 
nan

>  <Num_Not_Resolved_Atoms>  (304) 
nan

$$$$
CHEMBL1373621
     RDKit          3D

  0  0  0  0  0  0  0  0  0  0999 V3000
M  V30 BEGIN CTAB
M  V30 COUNTS 44 47 0 0 0
M  V30 BEGIN ATOM
M  V30 1 O 0.567356 -2.886180 5.156344 0
M  V30 2 C 1.175403 -2.657361 4.085783 0
M  V30 3 C 2.179471 -3.538464 3.706594 0
M  V30 4 N 2.852126 -3.321477 2.562206 0
M  V30 5 C 2.547942 -2.257146 1.797681 0
M  V30 6 C 3.212712 -1.996152 0.616702 0
M  V30 7 N 2.896649 -0.912374 -0.151940 0
M  V30 8 C 1.922911 -0.065863 0.224754 0
M  V30 9 N 1.657367 1.039112 -0.634235 0
M  V30 10 C 2.439470 1.164826 -1.847657 0
M  V30 11 C 1.663742 1.827640 -2.959470 0
M  V30 12 O 0.915960 2.920614 -2.542507 0
M  V30 13 C -0.079713 2.419653 -1.680818 0
M  V30 14 C 0.663155 2.061704 -0.399877 0
M  V30 15 N 1.262618 -0.302638 1.372927 0
M  V30 16 C 1.547187 -1.367237 2.162717 0
M  V30 17 N 0.883101 -1.598286 3.310963 0
M  V30 18 C -0.159249 -0.734022 3.756145 0
M  V30 19 C -1.518654 -1.073636 3.302073 0
M  V30 20 C -1.778787 -1.102333 1.873913 0
M  V30 21 C -2.204171 0.037228 1.221347 0
M  V30 22 C -2.465731 0.059150 -0.142178 0
M  V30 23 C -2.267795 -1.151549 -0.803198 0
M  V30 24 C -1.843261 -2.325746 -0.204302 0
M  V30 25 C -1.594714 -2.288829 1.173269 0
M  V30 26 H 2.488054 -4.410422 4.253160 0
M  V30 27 H 4.015005 -2.660454 0.269791 0
M  V30 28 H 3.298172 1.832344 -1.626235 0
M  V30 29 H 2.774218 0.183578 -2.256868 0
M  V30 30 H 2.370528 2.198220 -3.730575 0
M  V30 31 H 0.965046 1.135150 -3.479586 0
M  V30 32 H -0.547903 1.532266 -2.153089 0
M  V30 33 H -0.798995 3.211356 -1.411248 0
M  V30 34 H -0.089779 1.817863 0.352398 0
M  V30 35 H 1.210369 2.982984 -0.113337 0
M  V30 36 H -0.175282 -0.706908 4.865215 0
M  V30 37 H 0.084694 0.315132 3.452720 0
M  V30 38 H -2.214358 -0.323352 3.771591 0
M  V30 39 H -1.848024 -2.052206 3.735195 0
M  V30 40 H -2.367740 1.003465 1.719033 0
M  V30 41 H -2.797694 0.909424 -0.706625 0
M  V30 42 H -2.459112 -1.185693 -1.871584 0
M  V30 43 H -1.722243 -3.211079 -0.814084 0
M  V30 44 H -1.262166 -3.193121 1.664477 0
M  V30 END ATOM
M  V30 BEGIN BOND
M  V30 1 2 1 2
M  V30 2 1 2 3
M  V30 3 2 3 4
M  V30 4 1 4 5
M  V30 5 2 5 6
M  V30 6 1 6 7
M  V30 7 2 7 8
M  V30 8 1 8 9
M  V30 9 1 9 10
M  V30 10 1 10 11
M  V30 11 1 11 12
M  V30 12 1 12 13
M  V30 13 1 13 14
M  V30 14 1 8 15
M  V30 15 2 15 16
M  V30 16 1 16 17
M  V30 17 1 17 18
M  V30 18 1 18 19
M  V30 19 1 19 20
M  V30 20 2 20 21
M  V30 21 1 21 22
M  V30 22 2 22 23
M  V30 23 1 23 24
M  V30 24 2 24 25
M  V30 25 1 17 2
M  V30 26 1 25 20
M  V30 27 1 16 5
M  V30 28 1 14 9
M  V30 29 1 3 26
M  V30 30 1 6 27
M  V30 31 1 10 28
M  V30 32 1 10 29
M  V30 33 1 11 30
M  V30 34 1 11 31
M  V30 35 1 13 32
M  V30 36 1 13 33
M  V30 37 1 14 34
M  V30 38 1 14 35
M  V30 39 1 18 36
M  V30 40 1 18 37
M  V30 41 1 19 38
M  V30 42 1 19 39
M  V30 43 1 21 40
M  V30 44 1 22 41
M  V30 45 1 23 42
M  V30 46 1 24 43
M  V30 47 1 25 44
M  V30 END BOND
M  V30 END CTAB
M  END
>  <Dataset>  (305) 
ChEMBL_Kinases

>  <Ligand_Instance>  (305) 
nan

>  <PDB_ID>  (305) 
nan

>  <Standardized_SMILES>  (305) 
O=c1cnc2cnc(N3CCOCC3)nc2n1CCc1ccccc1

>  <Name>  (305) 
nan

>  <Pocket>  (305) 
nan

>  <ATP_Site>  (305) 
nan

>  <Peripheral>  (305) 
nan

>  <Num_H_Atoms_ProtBoundConf>  (305) 
nan

>  <Num_Resolved_Atoms>  (305) 
nan

>  <Num_Not_Resolved_Atoms>  (305) 
nan

$$$$
CHEMBL1373514
     RDKit          3D

  0  0  0  0  0  0  0  0  0  0999 V3000
M  V30 BEGIN CTAB
M  V30 COUNTS 48 50 0 0 0
M  V30 BEGIN ATOM
M  V30 1 C 1.424915 -4.427782 1.945667 0
M  V30 2 C 1.018621 -4.673650 0.492542 0
M  V30 3 C -0.357637 -5.319997 0.488359 0
M  V30 4 C 1.051466 -3.413519 -0.263451 0
M  V30 5 O 2.161465 -3.043012 -0.901921 0
M  V30 6 N 2.004756 -1.918829 -1.506146 0
M  V30 7 C 0.782439 -1.398595 -1.351290 0
M  V30 8 C 0.105666 -0.211529 -1.793494 0
M  V30 9 O -0.945614 -0.431508 -2.483303 0
M  V30 10 N 0.523123 1.095987 -1.516369 0
M  V30 11 C 1.712429 1.445798 -0.741065 0
M  V30 12 C 1.272924 2.303250 0.398424 0
M  V30 13 N -0.050254 2.725297 0.393716 0
M  V30 14 C -0.709081 2.834816 1.615412 0
M  V30 15 C -0.812720 1.619233 2.450772 0
M  V30 16 C 0.114191 1.295033 3.422541 0
M  V30 17 C 0.064242 0.169374 4.226614 0
M  V30 18 C -0.995432 -0.698615 4.043637 0
M  V30 19 C -1.946516 -0.413086 3.082534 0
M  V30 20 C -1.878304 0.729578 2.279743 0
M  V30 21 C -0.787881 2.922118 -0.766793 0
M  V30 22 C -0.244024 2.244931 -2.004416 0
M  V30 23 C 0.221518 -2.375847 -0.562665 0
M  V30 24 N -1.097303 -2.345223 -0.080095 0 CHG=1 VAL=4
M  V30 25 O -2.079697 -2.548411 -0.818237 0
M  V30 26 O -2.323222 -2.297579 0.459423 0 CHG=-1 VAL=1
M  V30 27 H 1.649667 -5.380658 2.460034 0
M  V30 28 H 2.270817 -3.711701 1.970739 0
M  V30 29 H 0.568608 -3.980973 2.479417 0
M  V30 30 H 1.768196 -5.408939 0.094693 0
M  V30 31 H -0.633399 -5.632570 -0.526739 0
M  V30 32 H -1.074929 -4.651216 0.985677 0
M  V30 33 H -0.332534 -6.258557 1.114372 0
M  V30 34 H 2.400230 1.975275 -1.437360 0
M  V30 35 H 2.222086 0.546461 -0.368661 0
M  V30 36 H 1.927463 3.230632 0.342217 0
M  V30 37 H 1.621457 1.814126 1.336365 0
M  V30 38 H -1.726996 3.295739 1.483248 0
M  V30 39 H -0.138481 3.574138 2.253544 0
M  V30 40 H 0.959064 1.932473 3.617632 0
M  V30 41 H 0.813729 -0.043913 4.974576 0
M  V30 42 H -1.076681 -1.604010 4.656686 0
M  V30 43 H -2.760473 -1.127886 2.980522 0
M  V30 44 H -2.661095 0.904900 1.531521 0
M  V30 45 H -0.746212 4.024722 -1.020304 0
M  V30 46 H -1.865077 2.702606 -0.719694 0
M  V30 47 H 0.406237 2.894529 -2.613868 0
M  V30 48 H -1.077723 1.869374 -2.610031 0
M  V30 END ATOM
M  V30 BEGIN BOND
M  V30 1 1 1 2
M  V30 2 1 2 3
M  V30 3 1 2 4
M  V30 4 1 4 5
M  V30 5 1 5 6
M  V30 6 2 6 7
M  V30 7 1 7 8
M  V30 8 2 8 9
M  V30 9 1 8 10
M  V30 10 1 10 11
M  V30 11 1 11 12
M  V30 12 1 12 13
M  V30 13 1 13 14
M  V30 14 1 14 15
M  V30 15 2 15 16
M  V30 16 1 16 17
M  V30 17 2 17 18
M  V30 18 1 18 19
M  V30 19 2 19 20
M  V30 20 1 13 21
M  V30 21 1 21 22
M  V30 22 1 7 23
M  V30 23 1 23 24
M  V30 24 2 24 25
M  V30 25 1 24 26
M  V30 26 2 23 4
M  V30 27 1 22 10
M  V30 28 1 20 15
M  V30 29 1 1 27
M  V30 30 1 1 28
M  V30 31 1 1 29
M  V30 32 1 2 30
M  V30 33 1 3 31
M  V30 34 1 3 32
M  V30 35 1 3 33
M  V30 36 1 11 34
M  V30 37 1 11 35
M  V30 38 1 12 36
M  V30 39 1 12 37
M  V30 40 1 14 38
M  V30 41 1 14 39
M  V30 42 1 16 40
M  V30 43 1 17 41
M  V30 44 1 18 42
M  V30 45 1 19 43
M  V30 46 1 20 44
M  V30 47 1 21 45
M  V30 48 1 21 46
M  V30 49 1 22 47
M  V30 50 1 22 48
M  V30 END BOND
M  V30 END CTAB
M  END
>  <Dataset>  (306) 
ChEMBL_Kinases

>  <Ligand_Instance>  (306) 
nan

>  <PDB_ID>  (306) 
nan

>  <Standardized_SMILES>  (306) 
CC(C)c1onc(C(=O)N2CCN(Cc3ccccc3)CC2)c1[N+](=O)[O-]

>  <Name>  (306) 
nan

>  <Pocket>  (306) 
nan

>  <ATP_Site>  (306) 
nan

>  <Peripheral>  (306) 
nan

>  <Num_H_Atoms_ProtBoundConf>  (306) 
nan

>  <Num_Resolved_Atoms>  (306) 
nan

>  <Num_Not_Resolved_Atoms>  (306) 
nan

$$$$
CHEMBL1373416
     RDKit          3D

  0  0  0  0  0  0  0  0  0  0999 V3000
M  V30 BEGIN CTAB
M  V30 COUNTS 59 62 0 0 0
M  V30 BEGIN ATOM
M  V30 1 C 2.365068 -7.204578 0.012461 0
M  V30 2 O 2.780734 -6.379908 1.066323 0
M  V30 3 C 3.132248 -5.053168 0.922515 0
M  V30 4 C 3.127940 -4.357231 -0.254235 0
M  V30 5 C 3.503973 -3.036521 -0.240296 0
M  V30 6 C 3.887698 -2.393784 0.940283 0
M  V30 7 C 4.286491 -0.991275 0.959786 0
M  V30 8 N 5.293472 -0.167197 1.308041 0
M  V30 9 N 4.931254 1.086008 1.012170 0
M  V30 10 C 3.685102 1.096473 0.467727 0
M  V30 11 S 3.191426 2.761402 0.073829 0
M  V30 12 C 1.538891 2.728666 -0.669117 0
M  V30 13 C 0.570375 2.232809 0.367239 0
M  V30 14 C -0.817931 2.147088 -0.090731 0
M  V30 15 O -1.154555 2.463845 -1.277886 0
M  V30 16 N -1.764949 1.685314 0.881749 0
M  V30 17 C -3.155474 1.578687 0.481355 0
M  V30 18 C -3.967855 1.081860 1.647471 0
M  V30 19 N -3.532580 -0.206930 2.110301 0
M  V30 20 C -3.784664 -1.272605 1.181664 0
M  V30 21 C -5.281716 -1.366354 0.981959 0
M  V30 22 O -5.943622 -1.671798 2.139457 0
M  V30 23 C -5.578984 -0.985018 3.262669 0
M  V30 24 C -4.155491 -0.554467 3.347330 0
M  V30 25 C 1.560696 1.945889 -1.880662 0
M  V30 26 C 1.358931 2.278049 -3.187161 0
M  V30 27 C 1.416409 1.368756 -4.200862 0
M  V30 28 C 1.707036 0.014679 -3.806060 0
M  V30 29 S 1.881908 0.143643 -1.966211 0
M  V30 30 N 3.343067 -0.188606 0.460073 0
M  V30 31 C 3.892899 -3.087361 2.116322 0
M  V30 32 C 3.511462 -4.410895 2.075757 0
M  V30 33 H 1.683119 -7.984958 0.439715 0
M  V30 34 H 3.221925 -7.727815 -0.453994 0
M  V30 35 H 1.830337 -6.603262 -0.759303 0
M  V30 36 H 2.826382 -4.876026 -1.162531 0
M  V30 37 H 3.510960 -2.454439 -1.164692 0
M  V30 38 H 5.729261 1.724316 1.290079 0
M  V30 39 H 1.222888 3.777060 -0.952111 0
M  V30 40 H 0.914070 1.283922 0.816624 0
M  V30 41 H 0.583845 2.999935 1.185327 0
M  V30 42 H -1.470301 1.429505 1.856439 0
M  V30 43 H -3.570905 2.560286 0.174385 0
M  V30 44 H -3.216279 0.914845 -0.400048 0
M  V30 45 H -5.062076 1.136241 1.432126 0
M  V30 46 H -3.806039 1.808332 2.468432 0
M  V30 47 H -3.446171 -2.213815 1.650369 0
M  V30 48 H -3.269047 -1.146765 0.217741 0
M  V30 49 H -5.421555 -2.251727 0.293396 0
M  V30 50 H -5.690268 -0.511331 0.409418 0
M  V30 51 H -6.264285 -0.125785 3.512930 0
M  V30 52 H -5.741885 -1.689550 4.132257 0
M  V30 53 H -4.120417 0.367525 3.998591 0
M  V30 54 H -3.517887 -1.289480 3.919788 0
M  V30 55 H 1.143912 3.320912 -3.399694 0
M  V30 56 H 1.264195 1.583233 -5.245338 0
M  V30 57 H 1.779706 -0.831182 -4.571467 0
M  V30 58 H 4.191738 -2.581663 3.026181 0
M  V30 59 H 3.534386 -4.918720 3.051671 0
M  V30 END ATOM
M  V30 BEGIN BOND
M  V30 1 1 1 2
M  V30 2 1 2 3
M  V30 3 2 3 4
M  V30 4 1 4 5
M  V30 5 2 5 6
M  V30 6 1 6 7
M  V30 7 2 7 8
M  V30 8 1 8 9
M  V30 9 1 9 10
M  V30 10 1 10 11
M  V30 11 1 11 12
M  V30 12 1 12 13
M  V30 13 1 13 14
M  V30 14 2 14 15
M  V30 15 1 14 16
M  V30 16 1 16 17
M  V30 17 1 17 18
M  V30 18 1 18 19
M  V30 19 1 19 20
M  V30 20 1 20 21
M  V30 21 1 21 22
M  V30 22 1 22 23
M  V30 23 1 23 24
M  V30 24 1 12 25
M  V30 25 2 25 26
M  V30 26 1 26 27
M  V30 27 2 27 28
M  V30 28 1 28 29
M  V30 29 2 10 30
M  V30 30 1 6 31
M  V30 31 2 31 32
M  V30 32 1 32 3
M  V30 33 1 30 7
M  V30 34 1 24 19
M  V30 35 1 29 25
M  V30 36 1 1 33
M  V30 37 1 1 34
M  V30 38 1 1 35
M  V30 39 1 4 36
M  V30 40 1 5 37
M  V30 41 1 9 38
M  V30 42 1 12 39
M  V30 43 1 13 40
M  V30 44 1 13 41
M  V30 45 1 16 42
M  V30 46 1 17 43
M  V30 47 1 17 44
M  V30 48 1 18 45
M  V30 49 1 18 46
M  V30 50 1 20 47
M  V30 51 1 20 48
M  V30 52 1 21 49
M  V30 53 1 21 50
M  V30 54 1 23 51
M  V30 55 1 23 52
M  V30 56 1 24 53
M  V30 57 1 24 54
M  V30 58 1 26 55
M  V30 59 1 27 56
M  V30 60 1 28 57
M  V30 61 1 31 58
M  V30 62 1 32 59
M  V30 END BOND
M  V30 END CTAB
M  END
>  <Dataset>  (307) 
ChEMBL_Kinases

>  <Ligand_Instance>  (307) 
nan

>  <PDB_ID>  (307) 
nan

>  <Standardized_SMILES>  (307) 
COc1ccc(-c2n[nH]c(SC(CC(=O)NCCN3CCOCC3)c3cccs3)n2)cc1

>  <Name>  (307) 
nan

>  <Pocket>  (307) 
nan

>  <ATP_Site>  (307) 
nan

>  <Peripheral>  (307) 
nan

>  <Num_H_Atoms_ProtBoundConf>  (307) 
nan

>  <Num_Resolved_Atoms>  (307) 
nan

>  <Num_Not_Resolved_Atoms>  (307) 
nan

$$$$
CHEMBL1372420
     RDKit          3D

  0  0  0  0  0  0  0  0  0  0999 V3000
M  V30 BEGIN CTAB
M  V30 COUNTS 60 63 0 0 0
M  V30 BEGIN ATOM
M  V30 1 C 3.002084 -2.705965 6.616507 0
M  V30 2 C 2.583892 -1.802735 5.509303 0
M  V30 3 C 3.546936 -1.231129 4.672996 0
M  V30 4 C 3.120911 -0.394885 3.646922 0
M  V30 5 C 1.783348 -0.110886 3.426310 0
M  V30 6 N 1.551972 0.785411 2.313426 0
M  V30 7 C 1.413512 0.199669 0.989352 0
M  V30 8 O 1.562004 -1.021392 1.320907 0
M  V30 9 C 1.187822 1.286923 0.021304 0
M  V30 10 C 1.094378 0.924498 -1.405638 0
M  V30 11 C 0.846671 2.268040 -2.080593 0
M  V30 12 O 1.585955 3.074619 -2.706564 0
M  V30 13 N -0.561388 2.564287 -1.891968 0
M  V30 14 C -1.618805 1.658876 -1.520383 0
M  V30 15 C -2.925052 2.199193 -2.075284 0
M  V30 16 C -3.973272 1.142684 -2.198077 0
M  V30 17 C -3.635694 -0.049019 -1.353087 0
M  V30 18 C -2.322352 -0.719897 -1.800641 0
M  V30 19 C -1.298405 0.304356 -2.119335 0
M  V30 20 N 0.066342 -0.003155 -1.799694 0
M  V30 21 C 0.493574 -1.354857 -1.888553 0
M  V30 22 O 1.682424 -1.741938 -1.638542 0
M  V30 23 C -0.031327 -2.670121 -2.217851 0
M  V30 24 C -0.241967 -3.682845 -1.272099 0
M  V30 25 C -0.738542 -4.933152 -1.523080 0
M  V30 26 C -1.035876 -5.151424 -2.844252 0
M  V30 27 F -1.534216 -6.373248 -3.215569 0
M  V30 28 C -0.872965 -4.237713 -3.860569 0
M  V30 29 C -0.367680 -3.001343 -3.520706 0
M  V30 30 C 0.839608 -0.680973 4.257818 0
M  V30 31 C 1.252385 -1.509225 5.276092 0
M  V30 32 C 0.173067 -2.063692 6.132118 0
M  V30 33 H 2.694349 -3.732328 6.330901 0
M  V30 34 H 4.089095 -2.635349 6.780315 0
M  V30 35 H 2.473935 -2.503696 7.570874 0
M  V30 36 H 4.581697 -1.474539 4.872983 0
M  V30 37 H 3.951059 -0.013138 3.066610 0
M  V30 38 H 1.531137 1.770181 2.733069 0
M  V30 39 H 0.360854 1.924031 0.346467 0
M  V30 40 H 2.112859 1.938502 0.102894 0
M  V30 41 H 2.084914 0.576073 -1.814101 0
M  V30 42 H -0.828042 3.584252 -2.050455 0
M  V30 43 H -1.780698 1.522601 -0.447706 0
M  V30 44 H -2.770143 2.628511 -3.091811 0
M  V30 45 H -3.293915 3.028651 -1.444703 0
M  V30 46 H -4.939550 1.542106 -1.790383 0
M  V30 47 H -4.173989 0.874825 -3.256731 0
M  V30 48 H -4.491962 -0.760147 -1.452718 0
M  V30 49 H -3.571541 0.265407 -0.307084 0
M  V30 50 H -2.615042 -1.265604 -2.749667 0
M  V30 51 H -2.077084 -1.469321 -1.049371 0
M  V30 52 H -1.302875 0.490523 -3.239950 0
M  V30 53 H 0.046827 -3.347106 -0.273209 0
M  V30 54 H -0.864544 -5.646683 -0.735204 0
M  V30 55 H -1.126120 -4.473350 -4.887183 0
M  V30 56 H -0.238947 -2.278163 -4.327109 0
M  V30 57 H -0.167432 -0.413072 4.018261 0
M  V30 58 H -0.152031 -1.200502 6.775492 0
M  V30 59 H -0.718176 -2.379208 5.553556 0
M  V30 60 H 0.512695 -2.867381 6.780264 0
M  V30 END ATOM
M  V30 BEGIN BOND
M  V30 1 1 1 2
M  V30 2 2 2 3
M  V30 3 1 3 4
M  V30 4 2 4 5
M  V30 5 1 5 6
M  V30 6 1 6 7
M  V30 7 2 7 8
M  V30 8 1 7 9
M  V30 9 1 9 10
M  V30 10 1 10 11
M  V30 11 2 11 12
M  V30 12 1 11 13
M  V30 13 1 13 14
M  V30 14 1 14 15
M  V30 15 1 15 16
M  V30 16 1 16 17
M  V30 17 1 17 18
M  V30 18 1 18 19
M  V30 19 1 19 20
M  V30 20 1 20 21
M  V30 21 2 21 22
M  V30 22 1 21 23
M  V30 23 2 23 24
M  V30 24 1 24 25
M  V30 25 2 25 26
M  V30 26 1 26 27
M  V30 27 1 26 28
M  V30 28 2 28 29
M  V30 29 1 5 30
M  V30 30 2 30 31
M  V30 31 1 31 32
M  V30 32 1 31 2
M  V30 33 1 20 10
M  V30 34 1 29 23
M  V30 35 1 19 14
M  V30 36 1 1 33
M  V30 37 1 1 34
M  V30 38 1 1 35
M  V30 39 1 3 36
M  V30 40 1 4 37
M  V30 41 1 6 38
M  V30 42 1 9 39
M  V30 43 1 9 40
M  V30 44 1 10 41
M  V30 45 1 13 42
M  V30 46 1 14 43
M  V30 47 1 15 44
M  V30 48 1 15 45
M  V30 49 1 16 46
M  V30 50 1 16 47
M  V30 51 1 17 48
M  V30 52 1 17 49
M  V30 53 1 18 50
M  V30 54 1 18 51
M  V30 55 1 19 52
M  V30 56 1 24 53
M  V30 57 1 25 54
M  V30 58 1 28 55
M  V30 59 1 29 56
M  V30 60 1 30 57
M  V30 61 1 32 58
M  V30 62 1 32 59
M  V30 63 1 32 60
M  V30 END BOND
M  V30 END CTAB
M  END
>  <Dataset>  (308) 
ChEMBL_Kinases

>  <Ligand_Instance>  (308) 
nan

>  <PDB_ID>  (308) 
nan

>  <Standardized_SMILES>  (308) 
Cc1ccc(NC(=O)CC2C(=O)NC3CCCCC3N2C(=O)c2ccc(F)cc2)cc1C

>  <Name>  (308) 
nan

>  <Pocket>  (308) 
nan

>  <ATP_Site>  (308) 
nan

>  <Peripheral>  (308) 
nan

>  <Num_H_Atoms_ProtBoundConf>  (308) 
nan

>  <Num_Resolved_Atoms>  (308) 
nan

>  <Num_Not_Resolved_Atoms>  (308) 
nan

$$$$
CHEMBL1372519
     RDKit          3D

  0  0  0  0  0  0  0  0  0  0999 V3000
M  V30 BEGIN CTAB
M  V30 COUNTS 42 44 0 0 0
M  V30 BEGIN ATOM
M  V30 1 C -0.953251 -5.542464 0.142132 0
M  V30 2 C 0.414406 -5.826801 -0.363052 0
M  V30 3 O 1.046446 -6.917517 -0.223241 0
M  V30 4 C 1.130621 -4.782400 -1.091924 0
M  V30 5 C 2.397755 -4.989621 -1.581792 0
M  V30 6 C 3.071416 -4.003098 -2.268985 0
M  V30 7 C 2.492589 -2.768934 -2.488637 0
M  V30 8 C 1.219605 -2.521788 -2.011672 0
M  V30 9 N 0.455152 -1.321737 -2.134456 0
M  V30 10 C 0.601049 -0.364725 -1.106843 0
M  V30 11 O 1.391712 -0.656862 -0.176298 0
M  V30 12 N -0.053456 0.910503 -1.002198 0
M  V30 13 C 0.267854 1.712293 0.155328 0
M  V30 14 C 1.341638 2.592592 0.033264 0
M  V30 15 C 1.686262 3.387828 1.131242 0
M  V30 16 C 0.937554 3.253995 2.280882 0
M  V30 17 C -0.128315 2.391992 2.428192 0
M  V30 18 C -0.463773 1.608562 1.338713 0
M  V30 19 N -0.876493 2.284652 3.634197 0
M  V30 20 C -1.991614 1.326868 3.664358 0
M  V30 21 C -0.580368 3.054284 4.767710 0
M  V30 22 O -1.531887 3.412426 5.509104 0
M  V30 23 C 0.818074 3.472347 5.140583 0
M  V30 24 S 1.447505 4.306742 3.632486 0
M  V30 25 C 0.553550 -3.539846 -1.315630 0
M  V30 26 H -1.292988 -6.447571 0.693340 0
M  V30 27 H -1.640568 -5.321492 -0.720626 0
M  V30 28 H -0.967886 -4.662992 0.834208 0
M  V30 29 H 2.875952 -5.953885 -1.421861 0
M  V30 30 H 4.079570 -4.137735 -2.670488 0
M  V30 31 H 2.928208 -1.927143 -3.012356 0
M  V30 32 H -0.221134 -1.043787 -2.906605 0
M  V30 33 H -0.709894 1.115406 -1.806664 0
M  V30 34 H 1.903342 2.669974 -0.880282 0
M  V30 35 H 2.519100 4.070674 1.036744 0
M  V30 36 H -1.294176 0.903941 1.380201 0
M  V30 37 H -2.810138 1.631851 2.983972 0
M  V30 38 H -2.357994 1.174753 4.695488 0
M  V30 39 H -1.557256 0.352952 3.332974 0
M  V30 40 H 0.781302 4.185088 5.959871 0
M  V30 41 H 1.387467 2.540432 5.348960 0
M  V30 42 H -0.452047 -3.422301 -0.908625 0
M  V30 END ATOM
M  V30 BEGIN BOND
M  V30 1 1 1 2
M  V30 2 2 2 3
M  V30 3 1 2 4
M  V30 4 2 4 5
M  V30 5 1 5 6
M  V30 6 2 6 7
M  V30 7 1 7 8
M  V30 8 1 8 9
M  V30 9 1 9 10
M  V30 10 2 10 11
M  V30 11 1 10 12
M  V30 12 1 12 13
M  V30 13 2 13 14
M  V30 14 1 14 15
M  V30 15 2 15 16
M  V30 16 1 16 17
M  V30 17 2 17 18
M  V30 18 1 17 19
M  V30 19 1 19 20
M  V30 20 1 19 21
M  V30 21 2 21 22
M  V30 22 1 21 23
M  V30 23 1 23 24
M  V30 24 2 8 25
M  V30 25 1 25 4
M  V30 26 1 18 13
M  V30 27 1 24 16
M  V30 28 1 1 26
M  V30 29 1 1 27
M  V30 30 1 1 28
M  V30 31 1 5 29
M  V30 32 1 6 30
M  V30 33 1 7 31
M  V30 34 1 9 32
M  V30 35 1 12 33
M  V30 36 1 14 34
M  V30 37 1 15 35
M  V30 38 1 18 36
M  V30 39 1 20 37
M  V30 40 1 20 38
M  V30 41 1 20 39
M  V30 42 1 23 40
M  V30 43 1 23 41
M  V30 44 1 25 42
M  V30 END BOND
M  V30 END CTAB
M  END
>  <Dataset>  (309) 
ChEMBL_Kinases

>  <Ligand_Instance>  (309) 
nan

>  <PDB_ID>  (309) 
nan

>  <Standardized_SMILES>  (309) 
CC(=O)c1cccc(NC(=O)Nc2ccc3c(c2)N(C)C(=O)CS3)c1

>  <Name>  (309) 
nan

>  <Pocket>  (309) 
nan

>  <ATP_Site>  (309) 
nan

>  <Peripheral>  (309) 
nan

>  <Num_H_Atoms_ProtBoundConf>  (309) 
nan

>  <Num_Resolved_Atoms>  (309) 
nan

>  <Num_Not_Resolved_Atoms>  (309) 
nan

$$$$
CHEMBL1372644
     RDKit          3D

  0  0  0  0  0  0  0  0  0  0999 V3000
M  V30 BEGIN CTAB
M  V30 COUNTS 66 69 0 0 0
M  V30 BEGIN ATOM
M  V30 1 C 2.830573 -4.526955 3.531201 0
M  V30 2 O 2.764185 -3.783373 2.344795 0
M  V30 3 C 2.885022 -2.417479 2.236390 0
M  V30 4 C 3.095563 -1.668100 3.396090 0
M  V30 5 C 3.220064 -0.279774 3.351052 0
M  V30 6 C 3.137162 0.378019 2.159834 0
M  V30 7 C 3.242758 1.841938 1.906821 0
M  V30 8 C 2.045196 2.506035 2.550516 0
M  V30 9 O 1.871173 2.804196 3.744322 0
M  V30 10 N 0.985481 2.813277 1.629111 0
M  V30 11 C -0.203988 3.447984 2.109668 0
M  V30 12 C -1.028804 4.118885 1.064416 0
M  V30 13 C -2.019298 3.094027 0.514227 0
M  V30 14 N -1.370886 1.794666 0.412548 0
M  V30 15 C -2.260684 0.910169 -0.371201 0
M  V30 16 C -1.606013 -0.426621 -0.534382 0
M  V30 17 O -0.473346 -0.716050 -0.087464 0
M  V30 18 N -2.413373 -1.376646 -1.262341 0
M  V30 19 C -3.699482 -1.084218 -1.880373 0
M  V30 20 C -4.001508 -2.057930 -2.973283 0
M  V30 21 C -2.749074 -2.586548 -3.577981 0
M  V30 22 C -2.053882 -3.432569 -2.582869 0
M  V30 23 C -1.552168 -4.714314 -2.630831 0
M  V30 24 C -0.925417 -5.288327 -1.550529 0
M  V30 25 C -0.782094 -4.576246 -0.368444 0
M  V30 26 C -1.270120 -3.292022 -0.279432 0
M  V30 27 C -1.908067 -2.719007 -1.390978 0
M  V30 28 C -1.329053 1.251653 1.784430 0
M  V30 29 C -1.039255 2.323189 2.781896 0
M  V30 30 C 2.928147 -0.433636 1.045719 0
M  V30 31 C 2.796086 -1.806969 1.013640 0
M  V30 32 O 2.590119 -2.508559 -0.159073 0
M  V30 33 C 2.499338 -1.902712 -1.412672 0
M  V30 34 H 3.168405 -5.565597 3.247401 0
M  V30 35 H 3.519430 -4.101128 4.273315 0
M  V30 36 H 1.835669 -4.638020 4.004626 0
M  V30 37 H 3.174938 -2.096083 4.400497 0
M  V30 38 H 3.382244 0.349383 4.216781 0
M  V30 39 H 3.279677 2.021355 0.833461 0
M  V30 40 H 4.190983 2.160771 2.386557 0
M  V30 41 H 1.037190 2.598017 0.608718 0
M  V30 42 H 0.003181 4.129493 2.949693 0
M  V30 43 H -0.431123 4.564260 0.243195 0
M  V30 44 H -1.651870 4.948476 1.463962 0
M  V30 45 H -2.422140 3.383527 -0.464124 0
M  V30 46 H -2.821599 3.004305 1.269891 0
M  V30 47 H -2.551135 1.359908 -1.307344 0
M  V30 48 H -3.156728 0.749865 0.276275 0
M  V30 49 H -3.640090 -0.041938 -2.263993 0
M  V30 50 H -4.531084 -1.175505 -1.137484 0
M  V30 51 H -4.589224 -1.493543 -3.757876 0
M  V30 52 H -4.611163 -2.898420 -2.581274 0
M  V30 53 H -2.031952 -1.808201 -3.882669 0
M  V30 54 H -2.990707 -3.197590 -4.497249 0
M  V30 55 H -1.733972 -5.148962 -3.614416 0
M  V30 56 H -0.568243 -6.300138 -1.694366 0
M  V30 57 H -0.276852 -5.081679 0.454199 0
M  V30 58 H -1.160870 -2.724920 0.655329 0
M  V30 59 H -2.372443 0.887325 1.978603 0
M  V30 60 H -0.602447 0.431181 1.861637 0
M  V30 61 H -0.369811 1.926641 3.570513 0
M  V30 62 H -1.926626 2.760262 3.271954 0
M  V30 63 H 2.854571 0.032054 0.048906 0
M  V30 64 H 1.904497 -0.977882 -1.426728 0
M  V30 65 H 1.974187 -2.620912 -2.086601 0
M  V30 66 H 3.467534 -1.696591 -1.898976 0
M  V30 END ATOM
M  V30 BEGIN BOND
M  V30 1 1 1 2
M  V30 2 1 2 3
M  V30 3 2 3 4
M  V30 4 1 4 5
M  V30 5 2 5 6
M  V30 6 1 6 7
M  V30 7 1 7 8
M  V30 8 2 8 9
M  V30 9 1 8 10
M  V30 10 1 10 11
M  V30 11 1 11 12
M  V30 12 1 12 13
M  V30 13 1 13 14
M  V30 14 1 14 15
M  V30 15 1 15 16
M  V30 16 2 16 17
M  V30 17 1 16 18
M  V30 18 1 18 19
M  V30 19 1 19 20
M  V30 20 1 20 21
M  V30 21 1 21 22
M  V30 22 2 22 23
M  V30 23 1 23 24
M  V30 24 2 24 25
M  V30 25 1 25 26
M  V30 26 2 26 27
M  V30 27 1 14 28
M  V30 28 1 28 29
M  V30 29 1 6 30
M  V30 30 2 30 31
M  V30 31 1 31 32
M  V30 32 1 32 33
M  V30 33 1 31 3
M  V30 34 1 29 11
M  V30 35 1 27 18
M  V30 36 1 27 22
M  V30 37 1 1 34
M  V30 38 1 1 35
M  V30 39 1 1 36
M  V30 40 1 4 37
M  V30 41 1 5 38
M  V30 42 1 7 39
M  V30 43 1 7 40
M  V30 44 1 10 41
M  V30 45 1 11 42
M  V30 46 1 12 43
M  V30 47 1 12 44
M  V30 48 1 13 45
M  V30 49 1 13 46
M  V30 50 1 15 47
M  V30 51 1 15 48
M  V30 52 1 19 49
M  V30 53 1 19 50
M  V30 54 1 20 51
M  V30 55 1 20 52
M  V30 56 1 21 53
M  V30 57 1 21 54
M  V30 58 1 23 55
M  V30 59 1 24 56
M  V30 60 1 25 57
M  V30 61 1 26 58
M  V30 62 1 28 59
M  V30 63 1 28 60
M  V30 64 1 29 61
M  V30 65 1 29 62
M  V30 66 1 30 63
M  V30 67 1 33 64
M  V30 68 1 33 65
M  V30 69 1 33 66
M  V30 END BOND
M  V30 END CTAB
M  END
>  <Dataset>  (310) 
ChEMBL_Kinases

>  <Ligand_Instance>  (310) 
nan

>  <PDB_ID>  (310) 
nan

>  <Standardized_SMILES>  (310) 
COc1ccc(CC(=O)NC2CCN(CC(=O)N3CCCc4ccccc43)CC2)cc1OC

>  <Name>  (310) 
nan

>  <Pocket>  (310) 
nan

>  <ATP_Site>  (310) 
nan

>  <Peripheral>  (310) 
nan

>  <Num_H_Atoms_ProtBoundConf>  (310) 
nan

>  <Num_Resolved_Atoms>  (310) 
nan

>  <Num_Not_Resolved_Atoms>  (310) 
nan

$$$$
CHEMBL1372650
     RDKit          3D

  0  0  0  0  0  0  0  0  0  0999 V3000
M  V30 BEGIN CTAB
M  V30 COUNTS 35 37 0 0 0
M  V30 BEGIN ATOM
M  V30 1 N -2.189392 -2.313615 4.968595 0
M  V30 2 C -1.487905 -2.317669 4.040839 0
M  V30 3 C -0.633087 -2.299641 2.892375 0
M  V30 4 C -0.609307 -3.263668 1.913487 0
M  V30 5 C 0.267064 -3.136353 0.856398 0
M  V30 6 C 1.140591 -2.085410 0.712144 0
M  V30 7 C 2.046678 -1.994145 -0.426211 0
M  V30 8 C 2.958133 -0.954214 -0.617289 0
M  V30 9 C 3.607661 -1.270934 -1.819122 0
M  V30 10 C 3.059952 -2.452306 -2.263838 0
M  V30 11 O 2.134654 -2.864052 -1.421305 0
M  V30 12 N 1.104437 -1.153473 1.675676 0
M  V30 13 C 0.252290 -1.259685 2.720084 0
M  V30 14 S 0.315209 0.068894 3.922590 0
M  V30 15 C -0.871937 1.370799 3.386294 0
M  V30 16 C -0.356923 1.907434 2.113267 0
M  V30 17 O 0.628772 2.697887 2.320116 0
M  V30 18 C -0.822673 1.645420 0.772599 0
M  V30 19 C -1.916176 0.853267 0.428903 0
M  V30 20 C -2.333875 0.613131 -0.850839 0
M  V30 21 C -1.643559 1.181613 -1.886208 0
M  V30 22 Cl -2.118142 0.917988 -3.559847 0
M  V30 23 C -0.543298 1.980224 -1.577256 0
M  V30 24 C -0.141889 2.207594 -0.285633 0
M  V30 25 H -1.298386 -4.093109 2.028145 0
M  V30 26 H 0.215319 -3.928978 0.151134 0
M  V30 27 H 3.126361 -0.092318 0.018181 0
M  V30 28 H 4.376590 -0.643601 -2.240448 0
M  V30 29 H 3.342409 -2.975164 -3.174639 0
M  V30 30 H -1.904323 0.957565 3.309182 0
M  V30 31 H -0.907537 2.148897 4.177936 0
M  V30 32 H -2.470424 0.401574 1.252365 0
M  V30 33 H -3.183219 -0.002907 -1.075729 0
M  V30 34 H 0.041149 2.451304 -2.357917 0
M  V30 35 H 0.708945 2.826199 -0.074738 0
M  V30 END ATOM
M  V30 BEGIN BOND
M  V30 1 3 1 2
M  V30 2 1 2 3
M  V30 3 2 3 4
M  V30 4 1 4 5
M  V30 5 2 5 6
M  V30 6 1 6 7
M  V30 7 2 7 8
M  V30 8 1 8 9
M  V30 9 2 9 10
M  V30 10 1 10 11
M  V30 11 1 6 12
M  V30 12 2 12 13
M  V30 13 1 13 14
M  V30 14 1 14 15
M  V30 15 1 15 16
M  V30 16 2 16 17
M  V30 17 1 16 18
M  V30 18 2 18 19
M  V30 19 1 19 20
M  V30 20 2 20 21
M  V30 21 1 21 22
M  V30 22 1 21 23
M  V30 23 2 23 24
M  V30 24 1 13 3
M  V30 25 1 24 18
M  V30 26 1 11 7
M  V30 27 1 4 25
M  V30 28 1 5 26
M  V30 29 1 8 27
M  V30 30 1 9 28
M  V30 31 1 10 29
M  V30 32 1 15 30
M  V30 33 1 15 31
M  V30 34 1 19 32
M  V30 35 1 20 33
M  V30 36 1 23 34
M  V30 37 1 24 35
M  V30 END BOND
M  V30 END CTAB
M  END
>  <Dataset>  (311) 
ChEMBL_Kinases

>  <Ligand_Instance>  (311) 
nan

>  <PDB_ID>  (311) 
nan

>  <Standardized_SMILES>  (311) 
N#Cc1ccc(-c2ccco2)nc1SCC(=O)c1ccc(Cl)cc1

>  <Name>  (311) 
nan

>  <Pocket>  (311) 
nan

>  <ATP_Site>  (311) 
nan

>  <Peripheral>  (311) 
nan

>  <Num_H_Atoms_ProtBoundConf>  (311) 
nan

>  <Num_Resolved_Atoms>  (311) 
nan

>  <Num_Not_Resolved_Atoms>  (311) 
nan

$$$$
CHEMBL1372768
     RDKit          3D

  0  0  0  0  0  0  0  0  0  0999 V3000
M  V30 BEGIN CTAB
M  V30 COUNTS 40 41 0 0 0
M  V30 BEGIN ATOM
M  V30 1 C -0.105165 -4.528797 2.012082 0
M  V30 2 O 0.663085 -3.588074 1.332239 0
M  V30 3 C 2.040071 -3.711631 1.215878 0
M  V30 4 O 2.701473 -4.667605 1.705728 0
M  V30 5 C 2.740209 -2.627761 0.459021 0
M  V30 6 N 1.829714 -1.626450 -0.016206 0
M  V30 7 C 2.080362 -0.439538 -0.770160 0
M  V30 8 O 3.315990 -0.265008 -1.056192 0
M  V30 9 C 0.986392 0.479563 -1.166926 0
M  V30 10 C -0.235653 -0.235297 -1.699416 0
M  V30 11 C 1.482615 1.299429 -2.307833 0
M  V30 12 C 1.739960 2.530802 -1.910265 0
M  V30 13 C 1.447968 2.688965 -0.454112 0
M  V30 14 N 0.680210 1.469629 -0.154003 0
M  V30 15 C -0.119109 1.564595 1.005745 0
M  V30 16 O 0.270683 2.738154 1.215011 0
M  V30 17 C -1.049517 0.862713 1.840540 0
M  V30 18 C -1.579451 -0.401335 1.715008 0
M  V30 19 C -2.463252 -0.968345 2.584511 0
M  V30 20 C -2.807920 -0.170537 3.637246 0
M  V30 21 C -2.345710 1.100190 3.863783 0
M  V30 22 C -1.458895 1.610512 2.950117 0
M  V30 23 H -1.087358 -4.602072 1.458261 0
M  V30 24 H -0.399294 -4.083429 3.007629 0
M  V30 25 H 0.361674 -5.522230 2.133330 0
M  V30 26 H 3.423260 -2.154994 1.220299 0
M  V30 27 H 3.374860 -3.037201 -0.361349 0
M  V30 28 H 0.843263 -1.778310 0.215917 0
M  V30 29 H -0.241716 -1.319695 -1.473942 0
M  V30 30 H -1.161094 0.237995 -1.259704 0
M  V30 31 H -0.365724 -0.132776 -2.795942 0
M  V30 32 H 1.650119 1.045657 -3.348145 0
M  V30 33 H 2.108925 3.386122 -2.465694 0
M  V30 34 H 0.882554 3.621718 -0.266352 0
M  V30 35 H 2.374741 2.586534 0.131323 0
M  V30 36 H -1.257259 -0.944723 0.864014 0
M  V30 37 H -2.822211 -1.964666 2.402937 0
M  V30 38 H -3.507980 -0.571746 4.363014 0
M  V30 39 H -2.674782 1.646449 4.717336 0
M  V30 40 H -1.112560 2.624748 3.161096 0
M  V30 END ATOM
M  V30 BEGIN BOND
M  V30 1 1 1 2
M  V30 2 1 2 3
M  V30 3 2 3 4
M  V30 4 1 3 5
M  V30 5 1 5 6
M  V30 6 1 6 7
M  V30 7 2 7 8
M  V30 8 1 7 9
M  V30 9 1 9 10
M  V30 10 1 9 11
M  V30 11 2 11 12
M  V30 12 1 12 13
M  V30 13 1 13 14
M  V30 14 1 14 15
M  V30 15 2 15 16
M  V30 16 1 15 17
M  V30 17 2 17 18
M  V30 18 1 18 19
M  V30 19 2 19 20
M  V30 20 1 20 21
M  V30 21 2 21 22
M  V30 22 1 14 9
M  V30 23 1 22 17
M  V30 24 1 1 23
M  V30 25 1 1 24
M  V30 26 1 1 25
M  V30 27 1 5 26
M  V30 28 1 5 27
M  V30 29 1 6 28
M  V30 30 1 10 29
M  V30 31 1 10 30
M  V30 32 1 10 31
M  V30 33 1 11 32
M  V30 34 1 12 33
M  V30 35 1 13 34
M  V30 36 1 13 35
M  V30 37 1 18 36
M  V30 38 1 19 37
M  V30 39 1 20 38
M  V30 40 1 21 39
M  V30 41 1 22 40
M  V30 END BOND
M  V30 END CTAB
M  END
>  <Dataset>  (312) 
ChEMBL_Kinases

>  <Ligand_Instance>  (312) 
nan

>  <PDB_ID>  (312) 
nan

>  <Standardized_SMILES>  (312) 
COC(=O)CNC(=O)C1(C)C=CCN1C(=O)c1ccccc1

>  <Name>  (312) 
nan

>  <Pocket>  (312) 
nan

>  <ATP_Site>  (312) 
nan

>  <Peripheral>  (312) 
nan

>  <Num_H_Atoms_ProtBoundConf>  (312) 
nan

>  <Num_Resolved_Atoms>  (312) 
nan

>  <Num_Not_Resolved_Atoms>  (312) 
nan

$$$$
CHEMBL1372852
     RDKit          3D

  0  0  0  0  0  0  0  0  0  0999 V3000
M  V30 BEGIN CTAB
M  V30 COUNTS 39 41 0 0 0
M  V30 BEGIN ATOM
M  V30 1 C -0.461371 -5.381554 -1.684778 0
M  V30 2 C 0.365119 -4.450115 -0.849104 0
M  V30 3 C 1.290654 -4.995631 0.016908 0
M  V30 4 C 2.032019 -4.104712 0.768961 0
M  V30 5 C 3.069270 -4.543029 1.747093 0
M  V30 6 N 1.842240 -2.783101 0.644561 0
M  V30 7 C 0.924474 -2.259578 -0.214945 0
M  V30 8 N 0.652008 -0.893295 -0.416903 0
M  V30 9 C -0.227752 -0.436117 -1.242845 0
M  V30 10 N -1.074800 -1.239920 -2.092778 0
M  V30 11 N -0.349946 0.982794 -1.300206 0
M  V30 12 C -0.309930 1.820877 -0.183105 0
M  V30 13 C -0.372266 3.215367 -0.331788 0
M  V30 14 C -0.342106 4.099844 0.724543 0
M  V30 15 C -0.246820 3.638914 2.006680 0
M  V30 16 C -0.182351 2.277967 2.212841 0
M  V30 17 C -0.216902 1.441530 1.115204 0
M  V30 18 O -0.086889 1.849610 3.518491 0
M  V30 19 C -0.301413 2.642381 4.645231 0
M  V30 20 C -0.573765 4.086525 4.385163 0
M  V30 21 O -0.214675 4.500689 3.080617 0
M  V30 22 N 0.201948 -3.127589 -0.947877 0
M  V30 23 H -1.123549 -4.788800 -2.325033 0
M  V30 24 H -1.060622 -5.963506 -0.940045 0
M  V30 25 H 0.239937 -6.006056 -2.251081 0
M  V30 26 H 1.456667 -6.049539 0.130214 0
M  V30 27 H 3.989250 -3.966592 1.465117 0
M  V30 28 H 3.253530 -5.630087 1.675782 0
M  V30 29 H 2.799007 -4.191845 2.748943 0
M  V30 30 H -2.000781 -1.701746 -1.884360 0
M  V30 31 H -0.483166 -1.210415 -2.950613 0
M  V30 32 H -0.483478 1.434084 -2.257141 0
M  V30 33 H -0.449809 3.661323 -1.330375 0
M  V30 34 H -0.393977 5.165450 0.540757 0
M  V30 35 H -0.165366 0.399587 1.359703 0
M  V30 36 H -1.205791 2.211928 5.166791 0
M  V30 37 H 0.518306 2.574895 5.405626 0
M  V30 38 H -0.053255 4.764034 5.093660 0
M  V30 39 H -1.666688 4.314624 4.496202 0
M  V30 END ATOM
M  V30 BEGIN BOND
M  V30 1 1 1 2
M  V30 2 2 2 3
M  V30 3 1 3 4
M  V30 4 1 4 5
M  V30 5 2 4 6
M  V30 6 1 6 7
M  V30 7 1 7 8
M  V30 8 2 8 9 CFG=2
M  V30 9 1 9 10
M  V30 10 1 9 11
M  V30 11 1 11 12
M  V30 12 2 12 13
M  V30 13 1 13 14
M  V30 14 2 14 15
M  V30 15 1 15 16
M  V30 16 2 16 17
M  V30 17 1 16 18
M  V30 18 1 18 19
M  V30 19 1 19 20
M  V30 20 1 20 21
M  V30 21 2 7 22
M  V30 22 1 22 2
M  V30 23 1 17 12
M  V30 24 1 21 15
M  V30 25 1 1 23
M  V30 26 1 1 24
M  V30 27 1 1 25
M  V30 28 1 3 26
M  V30 29 1 5 27
M  V30 30 1 5 28
M  V30 31 1 5 29
M  V30 32 1 10 30
M  V30 33 1 10 31
M  V30 34 1 11 32
M  V30 35 1 13 33
M  V30 36 1 14 34
M  V30 37 1 17 35
M  V30 38 1 19 36
M  V30 39 1 19 37
M  V30 40 1 20 38
M  V30 41 1 20 39
M  V30 END BOND
M  V30 END CTAB
M  END
>  <Dataset>  (313) 
ChEMBL_Kinases

>  <Ligand_Instance>  (313) 
nan

>  <PDB_ID>  (313) 
nan

>  <Standardized_SMILES>  (313) 
Cc1cc(C)nc(N=C(N)Nc2ccc3c(c2)OCCO3)n1

>  <Name>  (313) 
nan

>  <Pocket>  (313) 
nan

>  <ATP_Site>  (313) 
nan

>  <Peripheral>  (313) 
nan

>  <Num_H_Atoms_ProtBoundConf>  (313) 
nan

>  <Num_Resolved_Atoms>  (313) 
nan

>  <Num_Not_Resolved_Atoms>  (313) 
nan

$$$$
CHEMBL1372854
     RDKit          3D

  0  0  0  0  0  0  0  0  0  0999 V3000
M  V30 BEGIN CTAB
M  V30 COUNTS 44 47 0 0 0
M  V30 BEGIN ATOM
M  V30 1 C 3.144006 -2.396410 1.201806 0
M  V30 2 C 2.509027 -2.497643 -0.139902 0
M  V30 3 N 1.735660 -3.564326 -0.452725 0
M  V30 4 N 1.268941 -3.460039 -1.665379 0
M  V30 5 C 0.392714 -4.340876 -2.444629 0
M  V30 6 C 1.742758 -2.303091 -2.163044 0
M  V30 7 C 2.532978 -1.645508 -1.252243 0
M  V30 8 C 3.337005 -0.427704 -1.078940 0
M  V30 9 N 2.700793 0.515353 -0.152520 0
M  V30 10 C 1.429491 0.883806 -0.634838 0
M  V30 11 O 1.068891 0.361293 -1.747348 0
M  V30 12 C 0.305212 1.719144 -0.271175 0
M  V30 13 C -0.227279 2.851741 -0.838276 0
M  V30 14 N -1.298483 3.196354 -0.064821 0
M  V30 15 N -1.446817 2.356564 0.918822 0
M  V30 16 C -2.334462 2.261812 1.925885 0
M  V30 17 C -3.440491 3.272014 2.007363 0
M  V30 18 F -3.125323 4.462366 1.439138 0
M  V30 19 F -4.477317 2.687288 1.261856 0
M  V30 20 C -2.306677 1.263782 2.875660 0
M  V30 21 C -1.300110 0.302553 2.779011 0
M  V30 22 C -1.117173 -0.865815 3.707296 0
M  V30 23 C -0.329360 -1.976122 3.145569 0
M  V30 24 C 0.322906 -1.097611 4.178319 0
M  V30 25 N -0.455079 0.464552 1.750856 0
M  V30 26 C -0.496091 1.438142 0.839695 0
M  V30 27 H 3.835107 -3.270689 1.313653 0
M  V30 28 H 3.745898 -1.472080 1.321810 0
M  V30 29 H 2.395336 -2.500208 2.013149 0
M  V30 30 H -0.659003 -3.961494 -2.315943 0
M  V30 31 H 0.614167 -4.222202 -3.514490 0
M  V30 32 H 0.417424 -5.366533 -2.076751 0
M  V30 33 H 1.602153 -1.846162 -3.135442 0
M  V30 34 H 4.331390 -0.668188 -0.670529 0
M  V30 35 H 3.526969 0.077902 -2.058074 0
M  V30 36 H 2.810122 1.049956 0.764795 0
M  V30 37 H 0.215036 3.287050 -1.725378 0
M  V30 38 H -3.781948 3.310754 3.044480 0
M  V30 39 H -2.997469 1.144064 3.692390 0
M  V30 40 H -1.913546 -0.972880 4.460958 0
M  V30 41 H -0.513215 -3.022645 3.466240 0
M  V30 42 H 0.094357 -1.859188 2.107855 0
M  V30 43 H 0.457641 -1.464281 5.223717 0
M  V30 44 H 1.081746 -0.375612 3.839712 0
M  V30 END ATOM
M  V30 BEGIN BOND
M  V30 1 1 1 2
M  V30 2 2 2 3
M  V30 3 1 3 4
M  V30 4 1 4 5
M  V30 5 1 4 6
M  V30 6 2 6 7
M  V30 7 1 7 8
M  V30 8 1 8 9
M  V30 9 1 9 10
M  V30 10 2 10 11
M  V30 11 1 10 12
M  V30 12 1 12 13
M  V30 13 2 13 14
M  V30 14 1 14 15
M  V30 15 1 15 16
M  V30 16 1 16 17
M  V30 17 1 17 18
M  V30 18 1 17 19
M  V30 19 2 16 20
M  V30 20 1 20 21
M  V30 21 1 21 22
M  V30 22 1 22 23
M  V30 23 1 23 24
M  V30 24 2 21 25
M  V30 25 1 25 26
M  V30 26 1 7 2
M  V30 27 2 26 12
M  V30 28 1 26 15
M  V30 29 1 24 22
M  V30 30 1 1 27
M  V30 31 1 1 28
M  V30 32 1 1 29
M  V30 33 1 5 30
M  V30 34 1 5 31
M  V30 35 1 5 32
M  V30 36 1 6 33
M  V30 37 1 8 34
M  V30 38 1 8 35
M  V30 39 1 9 36
M  V30 40 1 13 37
M  V30 41 1 17 38
M  V30 42 1 20 39
M  V30 43 1 22 40
M  V30 44 1 23 41
M  V30 45 1 23 42
M  V30 46 1 24 43
M  V30 47 1 24 44
M  V30 END BOND
M  V30 END CTAB
M  END
>  <Dataset>  (314) 
ChEMBL_Kinases

>  <Ligand_Instance>  (314) 
nan

>  <PDB_ID>  (314) 
nan

>  <Standardized_SMILES>  (314) 
Cc1nn(C)cc1CNC(=O)c1cnn2c(C(F)F)cc(C3CC3)nc12

>  <Name>  (314) 
nan

>  <Pocket>  (314) 
nan

>  <ATP_Site>  (314) 
nan

>  <Peripheral>  (314) 
nan

>  <Num_H_Atoms_ProtBoundConf>  (314) 
nan

>  <Num_Resolved_Atoms>  (314) 
nan

>  <Num_Not_Resolved_Atoms>  (314) 
nan

$$$$
CHEMBL1372889
     RDKit          3D

  0  0  0  0  0  0  0  0  0  0999 V3000
M  V30 BEGIN CTAB
M  V30 COUNTS 35 37 0 0 0
M  V30 BEGIN ATOM
M  V30 1 C -1.466038 -4.545406 2.862371 0
M  V30 2 C -0.018947 -4.634970 3.313202 0
M  V30 3 C 0.912404 -4.373113 2.146692 0
M  V30 4 N 0.752492 -3.087778 1.545529 0
M  V30 5 C 1.123996 -1.931807 2.282223 0
M  V30 6 C 0.996596 -0.716367 1.772617 0
M  V30 7 C 0.472506 -0.472038 0.433071 0
M  V30 8 C 0.325692 0.717481 -0.117878 0
M  V30 9 C -0.175796 1.115017 -1.425558 0
M  V30 10 O -0.584617 0.329887 -2.318466 0
M  V30 11 C -0.140627 2.583013 -1.566728 0
M  V30 12 C -0.529856 3.359680 -2.656479 0
M  V30 13 C -0.392789 4.745456 -2.533330 0
M  V30 14 C 0.103189 5.319136 -1.390671 0
M  V30 15 C 0.463538 4.478014 -0.362011 0
M  V30 16 C 0.364027 3.094311 -0.391635 0
M  V30 17 C 0.657936 1.989901 0.509864 0
M  V30 18 O 1.128706 2.271684 1.636431 0
M  V30 19 C 0.112830 -1.701338 -0.263645 0
M  V30 20 C 0.233600 -2.921718 0.231616 0
M  V30 21 H -1.845161 -3.525310 3.082658 0
M  V30 22 H -2.102048 -5.299299 3.354738 0
M  V30 23 H -1.486211 -4.721433 1.764967 0
M  V30 24 H 0.176287 -3.844017 4.067236 0
M  V30 25 H 0.187821 -5.659086 3.673748 0
M  V30 26 H 0.697524 -5.142959 1.380595 0
M  V30 27 H 1.956450 -4.523276 2.518840 0
M  V30 28 H 1.526538 -2.036676 3.295938 0
M  V30 29 H 1.300201 0.112698 2.391948 0
M  V30 30 H -0.923936 2.937630 -3.569947 0
M  V30 31 H -0.676490 5.413533 -3.343471 0
M  V30 32 H 0.216301 6.382634 -1.277500 0
M  V30 33 H 0.853191 4.940900 0.534979 0
M  V30 34 H -0.290907 -1.702811 -1.264958 0
M  V30 35 H -0.034239 -3.823026 -0.287698 0
M  V30 END ATOM
M  V30 BEGIN BOND
M  V30 1 1 1 2
M  V30 2 1 2 3
M  V30 3 1 3 4
M  V30 4 1 4 5
M  V30 5 2 5 6
M  V30 6 1 6 7
M  V30 7 2 7 8 CFG=2
M  V30 8 1 8 9
M  V30 9 2 9 10
M  V30 10 1 9 11
M  V30 11 2 11 12
M  V30 12 1 12 13
M  V30 13 2 13 14
M  V30 14 1 14 15
M  V30 15 2 15 16
M  V30 16 1 16 17
M  V30 17 2 17 18
M  V30 18 1 7 19
M  V30 19 2 19 20
M  V30 20 1 20 4
M  V30 21 1 17 8
M  V30 22 1 16 11
M  V30 23 1 1 21
M  V30 24 1 1 22
M  V30 25 1 1 23
M  V30 26 1 2 24
M  V30 27 1 2 25
M  V30 28 1 3 26
M  V30 29 1 3 27
M  V30 30 1 5 28
M  V30 31 1 6 29
M  V30 32 1 12 30
M  V30 33 1 13 31
M  V30 34 1 14 32
M  V30 35 1 15 33
M  V30 36 1 19 34
M  V30 37 1 20 35
M  V30 END BOND
M  V30 END CTAB
M  END
>  <Dataset>  (315) 
ChEMBL_Kinases

>  <Ligand_Instance>  (315) 
nan

>  <PDB_ID>  (315) 
nan

>  <Standardized_SMILES>  (315) 
CCCN1C=CC(=C2C(=O)c3ccccc3C2=O)C=C1

>  <Name>  (315) 
nan

>  <Pocket>  (315) 
nan

>  <ATP_Site>  (315) 
nan

>  <Peripheral>  (315) 
nan

>  <Num_H_Atoms_ProtBoundConf>  (315) 
nan

>  <Num_Resolved_Atoms>  (315) 
nan

>  <Num_Not_Resolved_Atoms>  (315) 
nan

$$$$
CHEMBL1373294
     RDKit          3D

  0  0  0  0  0  0  0  0  0  0999 V3000
M  V30 BEGIN CTAB
M  V30 COUNTS 38 40 0 0 0
M  V30 BEGIN ATOM
M  V30 1 C 2.986371 -6.495181 0.541872 0
M  V30 2 C 2.291327 -5.196887 0.116915 0
M  V30 3 C 3.351789 -4.152604 -0.096777 0
M  V30 4 N 2.821442 -2.863483 -0.506620 0
M  V30 5 C 1.914153 -2.144342 0.318789 0
M  V30 6 N 1.478556 -2.576559 1.515759 0
M  V30 7 C 0.620673 -1.886064 2.286667 0
M  V30 8 N 0.132015 -0.694348 1.904207 0
M  V30 9 C 0.514226 -0.184662 0.719710 0
M  V30 10 C 1.390889 -0.902983 -0.054994 0
M  V30 11 C 1.627482 -0.179037 -1.208530 0
M  V30 12 N 0.890051 0.952939 -1.099938 0
M  V30 13 N 0.227830 0.960729 0.035626 0
M  V30 14 C -0.646989 1.990386 0.486789 0
M  V30 15 C -1.956077 1.577504 0.725014 0
M  V30 16 C -2.875669 2.509400 1.165607 0
M  V30 17 C -2.520424 3.829357 1.371075 0
M  V30 18 O -3.395631 4.811302 1.811647 0
M  V30 19 C -4.745016 4.622111 2.110058 0
M  V30 20 C -1.216130 4.210069 1.126869 0
M  V30 21 C -0.262289 3.309531 0.684638 0
M  V30 22 H 2.271557 -7.180949 1.053918 0
M  V30 23 H 3.336655 -7.048562 -0.366924 0
M  V30 24 H 3.865835 -6.305532 1.162902 0
M  V30 25 H 1.734223 -5.431777 -0.805783 0
M  V30 26 H 1.644461 -4.878047 0.949335 0
M  V30 27 H 4.149003 -4.503410 -0.752953 0
M  V30 28 H 3.844410 -4.019111 0.911337 0
M  V30 29 H 3.082726 -2.421848 -1.410644 0
M  V30 30 H 0.395269 -2.393259 3.197828 0
M  V30 31 H 2.271744 -0.466484 -2.025296 0
M  V30 32 H -2.287487 0.558405 0.580813 0
M  V30 33 H -3.897340 2.212635 1.357220 0
M  V30 34 H -5.067494 5.319185 2.936289 0
M  V30 35 H -5.027766 3.580095 2.365619 0
M  V30 36 H -5.405291 4.899780 1.242181 0
M  V30 37 H -0.840086 5.221739 1.258144 0
M  V30 38 H 0.775722 3.538827 0.473810 0
M  V30 END ATOM
M  V30 BEGIN BOND
M  V30 1 1 1 2
M  V30 2 1 2 3
M  V30 3 1 3 4
M  V30 4 1 4 5
M  V30 5 2 5 6
M  V30 6 1 6 7
M  V30 7 2 7 8
M  V30 8 1 8 9
M  V30 9 2 9 10
M  V30 10 1 10 11
M  V30 11 2 11 12
M  V30 12 1 12 13
M  V30 13 1 13 14
M  V30 14 2 14 15
M  V30 15 1 15 16
M  V30 16 2 16 17
M  V30 17 1 17 18
M  V30 18 1 18 19
M  V30 19 1 17 20
M  V30 20 2 20 21
M  V30 21 1 10 5
M  V30 22 1 21 14
M  V30 23 1 13 9
M  V30 24 1 1 22
M  V30 25 1 1 23
M  V30 26 1 1 24
M  V30 27 1 2 25
M  V30 28 1 2 26
M  V30 29 1 3 27
M  V30 30 1 3 28
M  V30 31 1 4 29
M  V30 32 1 7 30
M  V30 33 1 11 31
M  V30 34 1 15 32
M  V30 35 1 16 33
M  V30 36 1 19 34
M  V30 37 1 19 35
M  V30 38 1 19 36
M  V30 39 1 20 37
M  V30 40 1 21 38
M  V30 END BOND
M  V30 END CTAB
M  END
>  <Dataset>  (316) 
ChEMBL_Kinases

>  <Ligand_Instance>  (316) 
nan

>  <PDB_ID>  (316) 
nan

>  <Standardized_SMILES>  (316) 
CCCNc1ncnc2c1cnn2-c1ccc(OC)cc1

>  <Name>  (316) 
nan

>  <Pocket>  (316) 
nan

>  <ATP_Site>  (316) 
nan

>  <Peripheral>  (316) 
nan

>  <Num_H_Atoms_ProtBoundConf>  (316) 
nan

>  <Num_Resolved_Atoms>  (316) 
nan

>  <Num_Not_Resolved_Atoms>  (316) 
nan

$$$$
CHEMBL1372925
     RDKit          3D

  0  0  0  0  0  0  0  0  0  0999 V3000
M  V30 BEGIN CTAB
M  V30 COUNTS 43 46 0 0 0
M  V30 BEGIN ATOM
M  V30 1 C -0.182339 -6.163241 0.864413 0
M  V30 2 O 1.188905 -5.792823 1.002881 0
M  V30 3 C 1.512782 -4.477099 0.650641 0
M  V30 4 C 2.870697 -4.192507 0.813521 0
M  V30 5 C 3.268811 -2.903918 0.483562 0
M  V30 6 C 2.388517 -1.947661 0.020445 0
M  V30 7 C 1.052193 -2.255173 -0.131242 0
M  V30 8 C -0.043305 -1.371386 -0.611588 0
M  V30 9 C 0.322862 0.082307 -0.621368 0
M  V30 10 C 0.398318 0.609204 0.777735 0
M  V30 11 C 0.908024 2.006324 0.806654 0
M  V30 12 C 1.719193 2.509784 1.827644 0
M  V30 13 C 2.152374 3.819991 1.782587 0
M  V30 14 C 1.819848 4.682669 0.758052 0
M  V30 15 Cl 2.370029 6.344237 0.702244 0
M  V30 16 C 1.011420 4.198193 -0.269287 0
M  V30 17 C 0.587850 2.886394 -0.207849 0
M  V30 18 N -0.883079 0.495378 1.449775 0
M  V30 19 N -1.506375 1.265366 2.325931 0
M  V30 20 C -2.674557 0.725391 2.648329 0
M  V30 21 N -3.593941 1.315172 3.577352 0
M  V30 22 N -2.757140 -0.419589 1.934564 0
M  V30 23 C -1.635887 -0.560341 1.186545 0
M  V30 24 N -1.182839 -1.544438 0.267247 0
M  V30 25 C 0.617303 -3.535285 0.189232 0
M  V30 26 H -0.774284 -5.451080 1.452662 0
M  V30 27 H -0.464484 -6.194814 -0.223135 0
M  V30 28 H -0.316330 -7.211742 1.259173 0
M  V30 29 H 3.594531 -4.909536 1.172618 0
M  V30 30 H 4.309137 -2.608427 0.584067 0
M  V30 31 H 2.644402 -0.942377 -0.247150 0
M  V30 32 H -0.362623 -1.716711 -1.613836 0
M  V30 33 H -0.462966 0.612947 -1.194271 0
M  V30 34 H 1.285072 0.296558 -1.129573 0
M  V30 35 H 1.079337 -0.077021 1.353171 0
M  V30 36 H 1.987952 1.850992 2.633903 0
M  V30 37 H 2.784148 4.240450 2.561694 0
M  V30 38 H 0.749814 4.870880 -1.071904 0
M  V30 39 H -0.031688 2.601157 -1.043940 0
M  V30 40 H -4.161501 2.159321 3.344491 0
M  V30 41 H -3.511536 0.703731 4.432335 0
M  V30 42 H -1.733117 -2.433626 0.255569 0
M  V30 43 H -0.370562 -3.947031 0.134895 0
M  V30 END ATOM
M  V30 BEGIN BOND
M  V30 1 1 1 2
M  V30 2 1 2 3
M  V30 3 2 3 4
M  V30 4 1 4 5
M  V30 5 2 5 6
M  V30 6 1 6 7
M  V30 7 1 7 8
M  V30 8 1 8 9
M  V30 9 1 9 10
M  V30 10 1 10 11
M  V30 11 2 11 12
M  V30 12 1 12 13
M  V30 13 2 13 14
M  V30 14 1 14 15
M  V30 15 1 14 16
M  V30 16 2 16 17
M  V30 17 1 10 18
M  V30 18 1 18 19
M  V30 19 2 19 20
M  V30 20 1 20 21
M  V30 21 1 20 22
M  V30 22 2 22 23
M  V30 23 1 23 24
M  V30 24 2 7 25
M  V30 25 1 25 3
M  V30 26 1 24 8
M  V30 27 1 17 11
M  V30 28 1 23 18
M  V30 29 1 1 26
M  V30 30 1 1 27
M  V30 31 1 1 28
M  V30 32 1 4 29
M  V30 33 1 5 30
M  V30 34 1 6 31
M  V30 35 1 8 32
M  V30 36 1 9 33
M  V30 37 1 9 34
M  V30 38 1 10 35
M  V30 39 1 12 36
M  V30 40 1 13 37
M  V30 41 1 16 38
M  V30 42 1 17 39
M  V30 43 1 21 40
M  V30 44 1 21 41
M  V30 45 1 24 42
M  V30 46 1 25 43
M  V30 END BOND
M  V30 END CTAB
M  END
>  <Dataset>  (317) 
ChEMBL_Kinases

>  <Ligand_Instance>  (317) 
nan

>  <PDB_ID>  (317) 
nan

>  <Standardized_SMILES>  (317) 
COc1cccc(C2CC(c3ccc(Cl)cc3)n3nc(N)nc3N2)c1

>  <Name>  (317) 
nan

>  <Pocket>  (317) 
nan

>  <ATP_Site>  (317) 
nan

>  <Peripheral>  (317) 
nan

>  <Num_H_Atoms_ProtBoundConf>  (317) 
nan

>  <Num_Resolved_Atoms>  (317) 
nan

>  <Num_Not_Resolved_Atoms>  (317) 
nan

$$$$
CHEMBL1372954
     RDKit          3D

  0  0  0  0  0  0  0  0  0  0999 V3000
M  V30 BEGIN CTAB
M  V30 COUNTS 43 47 0 0 0
M  V30 BEGIN ATOM
M  V30 1 C -0.292858 -3.311351 2.320236 0
M  V30 2 C -0.959532 -4.430270 1.818858 0
M  V30 3 N -0.890246 -4.695180 0.501403 0
M  V30 4 C -0.208544 -3.938452 -0.378022 0
M  V30 5 C 0.470791 -2.819046 0.057600 0
M  V30 6 C 1.245182 -1.918531 -0.789724 0
M  V30 7 C 1.902281 -2.394134 -1.904394 0
M  V30 8 C 2.645753 -1.534525 -2.723305 0
M  V30 9 C 2.653060 -0.218809 -2.317941 0
M  V30 10 N 3.359057 0.592846 -3.100744 0
M  V30 11 C 3.481743 1.891112 -2.873326 0
M  V30 12 N 2.876986 2.421212 -1.817687 0
M  V30 13 C 2.137464 1.715102 -0.952433 0
M  V30 14 N 1.433607 2.169575 0.224780 0
M  V30 15 C 0.774044 2.595691 1.327987 0
M  V30 16 C 0.012276 1.625130 2.160721 0
M  V30 17 C 0.681506 0.966902 3.205992 0
M  V30 18 C -0.011467 0.077111 3.974526 0
M  V30 19 C -1.344920 -0.232923 3.801562 0
M  V30 20 C -1.963753 0.435015 2.764835 0
M  V30 21 C -1.341605 1.345040 1.943986 0
M  V30 22 O -3.280043 -0.009945 2.757593 0
M  V30 23 C -3.431035 -1.141723 3.587616 0
M  V30 24 O -2.275234 -1.059221 4.399583 0
M  V30 25 C 2.037923 0.359745 -1.231992 0
M  V30 26 C 1.343765 -0.576319 -0.509542 0
M  V30 27 C 0.417999 -2.516832 1.422550 0
M  V30 28 H -0.331098 -3.072155 3.379727 0
M  V30 29 H -1.531756 -5.087238 2.479033 0
M  V30 30 H -0.152968 -4.151417 -1.438344 0
M  V30 31 H 1.830096 -3.447546 -2.132988 0
M  V30 32 H 3.165799 -1.888495 -3.598958 0
M  V30 33 H 4.040220 2.596946 -3.474186 0
M  V30 34 H 1.751352 3.192263 0.085566 0
M  V30 35 H -0.039047 3.358441 1.089789 0
M  V30 36 H 1.397457 3.142921 2.108206 0
M  V30 37 H 1.732341 1.192337 3.363961 0
M  V30 38 H 0.526453 -0.414009 4.770266 0
M  V30 39 H -1.859328 1.839846 1.152792 0
M  V30 40 H -3.404311 -2.094185 3.043802 0
M  V30 41 H -4.359555 -1.025259 4.174673 0
M  V30 42 H 0.813402 -0.260463 0.367588 0
M  V30 43 H 0.921711 -1.658588 1.847142 0
M  V30 END ATOM
M  V30 BEGIN BOND
M  V30 1 2 1 2
M  V30 2 1 2 3
M  V30 3 2 3 4
M  V30 4 1 4 5
M  V30 5 1 5 6
M  V30 6 2 6 7
M  V30 7 1 7 8
M  V30 8 2 8 9
M  V30 9 1 9 10
M  V30 10 2 10 11
M  V30 11 1 11 12
M  V30 12 2 12 13
M  V30 13 1 13 14
M  V30 14 1 14 15
M  V30 15 1 15 16
M  V30 16 2 16 17
M  V30 17 1 17 18
M  V30 18 2 18 19
M  V30 19 1 19 20
M  V30 20 2 20 21
M  V30 21 1 20 22
M  V30 22 1 22 23
M  V30 23 1 23 24
M  V30 24 1 13 25
M  V30 25 2 25 26
M  V30 26 2 5 27
M  V30 27 1 27 1
M  V30 28 1 26 6
M  V30 29 1 25 9
M  V30 30 1 21 16
M  V30 31 1 24 19
M  V30 32 1 1 28
M  V30 33 1 2 29
M  V30 34 1 4 30
M  V30 35 1 7 31
M  V30 36 1 8 32
M  V30 37 1 11 33
M  V30 38 1 14 34
M  V30 39 1 15 35
M  V30 40 1 15 36
M  V30 41 1 17 37
M  V30 42 1 18 38
M  V30 43 1 21 39
M  V30 44 1 23 40
M  V30 45 1 23 41
M  V30 46 1 26 42
M  V30 47 1 27 43
M  V30 END BOND
M  V30 END CTAB
M  END
>  <Dataset>  (318) 
ChEMBL_Kinases

>  <Ligand_Instance>  (318) 
nan

>  <PDB_ID>  (318) 
nan

>  <Standardized_SMILES>  (318) 
c1cncc(-c2ccc3ncnc(NCc4ccc5c(c4)OCO5)c3c2)c1

>  <Name>  (318) 
nan

>  <Pocket>  (318) 
nan

>  <ATP_Site>  (318) 
nan

>  <Peripheral>  (318) 
nan

>  <Num_H_Atoms_ProtBoundConf>  (318) 
nan

>  <Num_Resolved_Atoms>  (318) 
nan

>  <Num_Not_Resolved_Atoms>  (318) 
nan

$$$$
CHEMBL1373004
     RDKit          3D

  0  0  0  0  0  0  0  0  0  0999 V3000
M  V30 BEGIN CTAB
M  V30 COUNTS 37 40 0 0 0
M  V30 BEGIN ATOM
M  V30 1 C 0.251216 -5.187874 1.985235 0
M  V30 2 C -0.258519 -4.322105 2.946586 0
M  V30 3 C 0.221361 -3.031841 3.001418 0
M  V30 4 C 1.206223 -2.665571 2.073826 0
M  V30 5 N 1.732203 -1.344442 2.125483 0
M  V30 6 C 2.581078 -0.709469 1.161870 0
M  V30 7 N 3.905374 -0.889660 1.041876 0
M  V30 8 C 4.572167 -0.196759 0.074355 0
M  V30 9 N 3.924652 0.655449 -0.751101 0
M  V30 10 C 2.609421 0.857820 -0.658361 0
M  V30 11 C 1.926067 1.727781 -1.481131 0
M  V30 12 C 0.561401 1.936821 -1.369667 0
M  V30 13 C -0.150932 1.256124 -0.405867 0
M  V30 14 C -1.605189 1.423663 -0.218687 0
M  V30 15 C -2.506026 1.704736 -1.248713 0
M  V30 16 C -3.865771 1.848411 -0.965841 0
M  V30 17 C -4.257290 1.701605 0.347662 0
M  V30 18 N -3.407193 1.431667 1.351912 0
M  V30 19 C -2.084135 1.290125 1.088806 0
M  V30 20 C 0.516005 0.376759 0.430981 0
M  V30 21 C 1.901382 0.171664 0.311236 0
M  V30 22 C 1.691080 -3.547411 1.132151 0
M  V30 23 C 1.224897 -4.842843 1.059759 0
M  V30 24 H -0.180211 -6.201426 2.005267 0
M  V30 25 H -1.027914 -4.662461 3.646586 0
M  V30 26 H -0.159867 -2.332741 3.742275 0
M  V30 27 H 1.560285 -0.666848 2.882762 0
M  V30 28 H 5.633578 -0.372750 0.012928 0
M  V30 29 H 2.498482 2.262744 -2.240451 0
M  V30 30 H 0.007792 2.614216 -2.004147 0
M  V30 31 H -2.078515 1.797156 -2.252196 0
M  V30 32 H -4.538484 2.063142 -1.769056 0
M  V30 33 H -5.325634 1.826093 0.485772 0
M  V30 34 H -1.469651 1.073215 1.960398 0
M  V30 35 H -0.041169 -0.160387 1.187483 0
M  V30 36 H 2.462145 -3.256152 0.408386 0
M  V30 37 H 1.567335 -5.584877 0.343173 0
M  V30 END ATOM
M  V30 BEGIN BOND
M  V30 1 2 1 2
M  V30 2 1 2 3
M  V30 3 2 3 4
M  V30 4 1 4 5
M  V30 5 1 5 6
M  V30 6 2 6 7
M  V30 7 1 7 8
M  V30 8 2 8 9
M  V30 9 1 9 10
M  V30 10 2 10 11
M  V30 11 1 11 12
M  V30 12 2 12 13
M  V30 13 1 13 14
M  V30 14 2 14 15
M  V30 15 1 15 16
M  V30 16 2 16 17
M  V30 17 1 17 18
M  V30 18 2 18 19
M  V30 19 1 13 20
M  V30 20 2 20 21
M  V30 21 1 4 22
M  V30 22 2 22 23
M  V30 23 1 23 1
M  V30 24 1 21 6
M  V30 25 1 21 10
M  V30 26 1 19 14
M  V30 27 1 1 24
M  V30 28 1 2 25
M  V30 29 1 3 26
M  V30 30 1 5 27
M  V30 31 1 8 28
M  V30 32 1 11 29
M  V30 33 1 12 30
M  V30 34 1 15 31
M  V30 35 1 16 32
M  V30 36 1 17 33
M  V30 37 1 19 34
M  V30 38 1 20 35
M  V30 39 1 22 36
M  V30 40 1 23 37
M  V30 END BOND
M  V30 END CTAB
M  END
>  <Dataset>  (319) 
ChEMBL_Kinases

>  <Ligand_Instance>  (319) 
nan

>  <PDB_ID>  (319) 
nan

>  <Standardized_SMILES>  (319) 
c1ccc(Nc2ncnc3ccc(-c4cccnc4)cc23)cc1

>  <Name>  (319) 
nan

>  <Pocket>  (319) 
nan

>  <ATP_Site>  (319) 
nan

>  <Peripheral>  (319) 
nan

>  <Num_H_Atoms_ProtBoundConf>  (319) 
nan

>  <Num_Resolved_Atoms>  (319) 
nan

>  <Num_Not_Resolved_Atoms>  (319) 
nan

$$$$
CHEMBL1373029
     RDKit          3D

  0  0  0  0  0  0  0  0  0  0999 V3000
M  V30 BEGIN CTAB
M  V30 COUNTS 64 67 0 0 0
M  V30 BEGIN ATOM
M  V30 1 C 1.039363 -1.097215 5.008931 0
M  V30 2 O 0.899860 -2.311136 4.336094 0
M  V30 3 C 1.504250 -2.680602 3.166036 0
M  V30 4 C 2.327750 -1.709132 2.640833 0
M  V30 5 C 3.013316 -1.918513 1.466094 0
M  V30 6 C 3.927512 -1.054218 0.694303 0
M  V30 7 N 3.338172 -0.320881 -0.374084 0
M  V30 8 C 2.407552 0.704459 -0.543005 0
M  V30 9 C 2.009071 1.214795 -1.784848 0
M  V30 10 C 1.095172 2.234549 -1.859164 0
M  V30 11 C 0.537595 2.793444 -0.739146 0
M  V30 12 N -0.402774 3.860343 -0.869065 0
M  V30 13 C -1.203766 4.451689 0.195806 0
M  V30 14 C -2.621621 3.945420 -0.024731 0
M  V30 15 N -2.801086 3.596552 -1.409708 0
M  V30 16 C -3.779815 2.620466 -1.711744 0
M  V30 17 C -4.097739 2.142327 -3.068052 0
M  V30 18 O -4.445576 2.105524 -0.749555 0
M  V30 19 C -2.072569 4.148641 -2.542694 0
M  V30 20 C -0.666785 4.504797 -2.140584 0
M  V30 21 C 0.894789 2.328345 0.505247 0
M  V30 22 C 1.816128 1.302405 0.548912 0
M  V30 23 C 2.833908 -3.145232 0.845946 0
M  V30 24 C 2.006545 -4.103239 1.386639 0
M  V30 25 C 1.306581 -3.927691 2.557737 0
M  V30 26 O 0.460162 -4.692768 3.264012 0
M  V30 27 C -0.060696 -5.953805 3.111182 0
M  V30 28 C -0.874437 -6.186325 1.893802 0
M  V30 29 C -2.233643 -5.846610 1.944398 0
M  V30 30 C -3.153213 -5.999560 0.927183 0
M  V30 31 C -2.699415 -6.537049 -0.254874 0
M  V30 32 F -3.534991 -6.718535 -1.295684 0
M  V30 33 C -1.372571 -6.891986 -0.367549 0
M  V30 34 C -0.502816 -6.715810 0.682073 0
M  V30 35 H 2.081839 -0.711957 5.061979 0
M  V30 36 H 0.392763 -0.333468 4.503742 0
M  V30 37 H 0.663139 -1.165814 6.069588 0
M  V30 38 H 2.516069 -0.742813 3.076188 0
M  V30 39 H 4.335843 -0.319738 1.447583 0
M  V30 40 H 4.809274 -1.642974 0.394710 0
M  V30 41 H 3.718870 -0.655838 -1.315285 0
M  V30 42 H 2.460291 0.761589 -2.675166 0
M  V30 43 H 0.878919 2.525987 -2.866955 0
M  V30 44 H -0.815360 4.184993 1.180245 0
M  V30 45 H -1.266821 5.563518 0.082494 0
M  V30 46 H -2.671701 2.974654 0.550115 0
M  V30 47 H -3.391152 4.637899 0.356496 0
M  V30 48 H -3.386624 1.343255 -3.348858 0
M  V30 49 H -5.102514 1.689373 -3.109713 0
M  V30 50 H -4.017977 2.910011 -3.860504 0
M  V30 51 H -2.639894 5.056852 -2.849206 0
M  V30 52 H -2.103902 3.461823 -3.412552 0
M  V30 53 H -0.655741 5.621331 -1.948301 0
M  V30 54 H 0.073473 4.348588 -2.915312 0
M  V30 55 H 0.504689 2.711062 1.436589 0
M  V30 56 H 2.097167 0.944739 1.511839 0
M  V30 57 H 3.299139 -3.475845 -0.086946 0
M  V30 58 H 1.840245 -5.070500 0.942490 0
M  V30 59 H 0.694543 -6.772069 3.251358 0
M  V30 60 H -0.764257 -6.120249 3.985516 0
M  V30 61 H -2.627244 -5.420232 2.860802 0
M  V30 62 H -4.168774 -5.715645 1.046846 0
M  V30 63 H -0.965867 -7.319570 -1.277182 0
M  V30 64 H 0.527822 -6.997795 0.600377 0
M  V30 END ATOM
M  V30 BEGIN BOND
M  V30 1 1 1 2
M  V30 2 1 2 3
M  V30 3 2 3 4
M  V30 4 1 4 5
M  V30 5 1 5 6
M  V30 6 1 6 7
M  V30 7 1 7 8
M  V30 8 2 8 9
M  V30 9 1 9 10
M  V30 10 2 10 11
M  V30 11 1 11 12
M  V30 12 1 12 13
M  V30 13 1 13 14
M  V30 14 1 14 15
M  V30 15 1 15 16
M  V30 16 1 16 17
M  V30 17 2 16 18
M  V30 18 1 15 19
M  V30 19 1 19 20
M  V30 20 1 11 21
M  V30 21 2 21 22
M  V30 22 2 5 23
M  V30 23 1 23 24
M  V30 24 2 24 25
M  V30 25 1 25 26
M  V30 26 1 26 27
M  V30 27 1 27 28
M  V30 28 2 28 29
M  V30 29 1 29 30
M  V30 30 2 30 31
M  V30 31 1 31 32
M  V30 32 1 31 33
M  V30 33 2 33 34
M  V30 34 1 25 3
M  V30 35 1 34 28
M  V30 36 1 22 8
M  V30 37 1 20 12
M  V30 38 1 1 35
M  V30 39 1 1 36
M  V30 40 1 1 37
M  V30 41 1 4 38
M  V30 42 1 6 39
M  V30 43 1 6 40
M  V30 44 1 7 41
M  V30 45 1 9 42
M  V30 46 1 10 43
M  V30 47 1 13 44
M  V30 48 1 13 45
M  V30 49 1 14 46
M  V30 50 1 14 47
M  V30 51 1 17 48
M  V30 52 1 17 49
M  V30 53 1 17 50
M  V30 54 1 19 51
M  V30 55 1 19 52
M  V30 56 1 20 53
M  V30 57 1 20 54
M  V30 58 1 21 55
M  V30 59 1 22 56
M  V30 60 1 23 57
M  V30 61 1 24 58
M  V30 62 1 27 59
M  V30 63 1 27 60
M  V30 64 1 29 61
M  V30 65 1 30 62
M  V30 66 1 33 63
M  V30 67 1 34 64
M  V30 END BOND
M  V30 END CTAB
M  END
>  <Dataset>  (320) 
ChEMBL_Kinases

>  <Ligand_Instance>  (320) 
nan

>  <PDB_ID>  (320) 
nan

>  <Standardized_SMILES>  (320) 
COc1cc(CNc2ccc(N3CCN(C(C)=O)CC3)cc2)ccc1OCc1ccc(F)cc1

>  <Name>  (320) 
nan

>  <Pocket>  (320) 
nan

>  <ATP_Site>  (320) 
nan

>  <Peripheral>  (320) 
nan

>  <Num_H_Atoms_ProtBoundConf>  (320) 
nan

>  <Num_Resolved_Atoms>  (320) 
nan

>  <Num_Not_Resolved_Atoms>  (320) 
nan

$$$$
CHEMBL1373114
     RDKit          3D

  0  0  0  0  0  0  0  0  0  0999 V3000
M  V30 BEGIN CTAB
M  V30 COUNTS 51 54 0 0 0
M  V30 BEGIN ATOM
M  V30 1 C 0.236196 -5.628660 4.145630 0
M  V30 2 C 1.633952 -5.195314 3.678745 0
M  V30 3 C 1.597798 -3.805702 3.152038 0
M  V30 4 C 1.822300 -2.740544 3.998022 0
M  V30 5 C 1.793656 -1.430841 3.568470 0
M  V30 6 C 1.530192 -1.179068 2.240864 0
M  V30 7 N 1.414581 0.020205 1.465191 0
M  V30 8 C 2.479602 0.456526 0.770053 0
M  V30 9 O 3.596291 -0.118520 0.770182 0
M  V30 10 C 2.258549 1.589325 0.050356 0
M  V30 11 C 3.251341 2.169700 -0.726461 0
M  V30 12 C 3.078275 3.307630 -1.472652 0
M  V30 13 C 1.827490 3.933568 -1.459263 0
M  V30 14 C 0.794063 3.397852 -0.699096 0
M  V30 15 C 1.057154 2.265266 0.009647 0
M  V30 16 N 0.010849 1.810857 0.710856 0
M  V30 17 C -1.337371 2.302836 0.819718 0
M  V30 18 C -2.144992 1.602067 -0.245031 0
M  V30 19 O -1.605174 1.715586 -1.369382 0
M  V30 20 N -3.348978 0.915563 0.037308 0
M  V30 21 C -4.103774 0.245098 -0.990580 0
M  V30 22 C -3.296220 -0.827257 -1.625138 0
M  V30 23 C -2.481208 -0.833532 -2.742849 0
M  V30 24 C -1.952501 -2.119100 -2.895206 0
M  V30 25 C -2.501889 -2.810196 -1.830838 0
M  V30 26 O -3.264490 -2.035002 -1.129057 0
M  V30 27 C 0.212860 0.671395 1.442783 0
M  V30 28 O -0.710530 0.142707 2.153240 0
M  V30 29 C 1.297708 -2.238149 1.354448 0
M  V30 30 C 1.329185 -3.565630 1.802689 0
M  V30 31 H -0.419288 -5.878570 3.307068 0
M  V30 32 H -0.195515 -4.717002 4.627368 0
M  V30 33 H 0.274241 -6.412818 4.915768 0
M  V30 34 H 1.872862 -5.899901 2.848705 0
M  V30 35 H 2.360258 -5.337174 4.491540 0
M  V30 36 H 2.035358 -2.844901 5.054096 0
M  V30 37 H 1.942845 -0.511795 4.087006 0
M  V30 38 H 4.213245 1.641796 -0.703515 0
M  V30 39 H 3.927913 3.661802 -2.035355 0
M  V30 40 H 1.738220 4.835451 -2.067932 0
M  V30 41 H -0.128157 3.923009 -0.736067 0
M  V30 42 H -1.406095 3.387195 0.652335 0
M  V30 43 H -1.805075 2.059603 1.793520 0
M  V30 44 H -3.619790 0.953867 1.064471 0
M  V30 45 H -4.357974 1.041768 -1.747215 0
M  V30 46 H -5.029468 -0.128489 -0.554508 0
M  V30 47 H -2.303000 0.012465 -3.370373 0
M  V30 48 H -1.271620 -2.403809 -3.704070 0
M  V30 49 H -2.293106 -3.847620 -1.653748 0
M  V30 50 H 1.076432 -2.234120 0.284265 0
M  V30 51 H 1.160503 -4.446131 1.186617 0
M  V30 END ATOM
M  V30 BEGIN BOND
M  V30 1 1 1 2
M  V30 2 1 2 3
M  V30 3 2 3 4
M  V30 4 1 4 5
M  V30 5 2 5 6
M  V30 6 1 6 7
M  V30 7 1 7 8
M  V30 8 2 8 9
M  V30 9 1 8 10
M  V30 10 2 10 11
M  V30 11 1 11 12
M  V30 12 2 12 13
M  V30 13 1 13 14
M  V30 14 2 14 15
M  V30 15 1 15 16
M  V30 16 1 16 17
M  V30 17 1 17 18
M  V30 18 2 18 19
M  V30 19 1 18 20
M  V30 20 1 20 21
M  V30 21 1 21 22
M  V30 22 2 22 23
M  V30 23 1 23 24
M  V30 24 2 24 25
M  V30 25 1 25 26
M  V30 26 1 16 27
M  V30 27 2 27 28
M  V30 28 1 6 29
M  V30 29 2 29 30
M  V30 30 1 30 3
M  V30 31 1 27 7
M  V30 32 1 15 10
M  V30 33 1 26 22
M  V30 34 1 1 31
M  V30 35 1 1 32
M  V30 36 1 1 33
M  V30 37 1 2 34
M  V30 38 1 2 35
M  V30 39 1 4 36
M  V30 40 1 5 37
M  V30 41 1 11 38
M  V30 42 1 12 39
M  V30 43 1 13 40
M  V30 44 1 14 41
M  V30 45 1 17 42
M  V30 46 1 17 43
M  V30 47 1 20 44
M  V30 48 1 21 45
M  V30 49 1 21 46
M  V30 50 1 23 47
M  V30 51 1 24 48
M  V30 52 1 25 49
M  V30 53 1 29 50
M  V30 54 1 30 51
M  V30 END BOND
M  V30 END CTAB
M  END
>  <Dataset>  (321) 
ChEMBL_Kinases

>  <Ligand_Instance>  (321) 
nan

>  <PDB_ID>  (321) 
nan

>  <Standardized_SMILES>  (321) 
CCc1ccc(-n2c(=O)c3ccccc3n(CC(=O)NCc3ccco3)c2=O)cc1

>  <Name>  (321) 
nan

>  <Pocket>  (321) 
nan

>  <ATP_Site>  (321) 
nan

>  <Peripheral>  (321) 
nan

>  <Num_H_Atoms_ProtBoundConf>  (321) 
nan

>  <Num_Resolved_Atoms>  (321) 
nan

>  <Num_Not_Resolved_Atoms>  (321) 
nan

$$$$
CHEMBL1373222
     RDKit          3D

  0  0  0  0  0  0  0  0  0  0999 V3000
M  V30 BEGIN CTAB
M  V30 COUNTS 63 66 0 0 0
M  V30 BEGIN ATOM
M  V30 1 C 0.861427 -1.954976 6.557756 0
M  V30 2 C 1.262406 -1.894822 5.107882 0
M  V30 3 S 2.812160 -1.029683 4.597277 0
M  V30 4 C 2.620680 -1.365151 2.862552 0
M  V30 5 N 3.378508 -1.040489 1.833002 0
M  V30 6 C 3.041083 -1.401444 0.583000 0
M  V30 7 S 4.163416 -0.898120 -0.700303 0
M  V30 8 C 3.787956 0.732889 -1.332026 0
M  V30 9 C 2.508710 0.848674 -2.056277 0
M  V30 10 O 2.625402 0.655981 -3.274497 0
M  V30 11 C 1.252126 1.158856 -1.386386 0
M  V30 12 C 1.116020 1.363668 -0.030603 0
M  V30 13 C -0.245834 1.623821 0.154462 0
M  V30 14 C -0.824750 1.902845 1.498534 0
M  V30 15 N -0.904602 1.578161 -1.040636 0
M  V30 16 C -2.334455 1.810633 -1.162498 0
M  V30 17 C -3.149258 0.561366 -1.032523 0
M  V30 18 C -4.641238 0.791558 -1.158336 0
M  V30 19 C -5.170047 -0.544867 -0.619967 0
M  V30 20 C -3.931672 -1.112899 0.046719 0
M  V30 21 O -3.080554 -0.000545 0.240312 0
M  V30 22 C 0.025472 1.292093 -1.977415 0
M  V30 23 C -0.351139 1.166190 -3.407898 0
M  V30 24 N 1.900052 -2.100875 0.477924 0
M  V30 25 C 1.541937 -2.508983 -0.876413 0
M  V30 26 C 0.087685 -2.135667 -1.174653 0
M  V30 27 C 1.763935 -3.973962 -1.096906 0
M  V30 28 C 1.101028 -2.451034 1.498059 0
M  V30 29 O 0.067945 -3.110684 1.192052 0
M  V30 30 C 1.451953 -2.077236 2.779692 0
M  V30 31 C 0.733436 -2.365630 3.902244 0
M  V30 32 C -0.532008 -3.097305 4.119834 0
M  V30 33 H 0.277251 -2.896046 6.653761 0
M  V30 34 H 0.196966 -1.126334 6.842282 0
M  V30 35 H 1.767731 -1.964439 7.201031 0
M  V30 36 H 3.675718 1.413489 -0.435434 0
M  V30 37 H 4.636951 1.152287 -1.913514 0
M  V30 38 H 1.895226 1.326359 0.700317 0
M  V30 39 H -1.690903 2.593256 1.446587 0
M  V30 40 H -0.064879 2.436153 2.106311 0
M  V30 41 H -1.062449 0.973585 2.056182 0
M  V30 42 H -2.651211 2.506018 -0.350683 0
M  V30 43 H -2.586496 2.343272 -2.102399 0
M  V30 44 H -2.878593 -0.195926 -1.812143 0
M  V30 45 H -4.960519 1.549725 -0.407558 0
M  V30 46 H -4.989097 1.002748 -2.166960 0
M  V30 47 H -5.474843 -1.149723 -1.503219 0
M  V30 48 H -5.996103 -0.395063 0.080640 0
M  V30 49 H -3.457659 -1.816742 -0.672551 0
M  V30 50 H -4.150543 -1.661089 0.960767 0
M  V30 51 H -0.872323 0.198331 -3.614196 0
M  V30 52 H 0.514208 1.204325 -4.100349 0
M  V30 53 H -0.979903 2.043770 -3.705196 0
M  V30 54 H 2.133238 -1.950221 -1.619161 0
M  V30 55 H -0.141798 -1.262734 -0.532140 0
M  V30 56 H -0.600426 -2.991243 -1.039196 0
M  V30 57 H -0.026915 -1.783104 -2.241303 0
M  V30 58 H 0.825758 -4.534123 -1.285079 0
M  V30 59 H 2.351749 -4.380781 -0.264558 0
M  V30 60 H 2.369099 -4.106267 -2.014022 0
M  V30 61 H -0.388317 -3.967611 4.808219 0
M  V30 62 H -1.296566 -2.425168 4.609644 0
M  V30 63 H -0.967596 -3.491637 3.210244 0
M  V30 END ATOM
M  V30 BEGIN BOND
M  V30 1 1 1 2
M  V30 2 1 2 3
M  V30 3 1 3 4
M  V30 4 1 4 5
M  V30 5 2 5 6
M  V30 6 1 6 7
M  V30 7 1 7 8
M  V30 8 1 8 9
M  V30 9 2 9 10
M  V30 10 1 9 11
M  V30 11 1 11 12
M  V30 12 2 12 13
M  V30 13 1 13 14
M  V30 14 1 13 15
M  V30 15 1 15 16
M  V30 16 1 16 17
M  V30 17 1 17 18
M  V30 18 1 18 19
M  V30 19 1 19 20
M  V30 20 1 20 21
M  V30 21 1 15 22
M  V30 22 1 22 23
M  V30 23 1 6 24
M  V30 24 1 24 25
M  V30 25 1 25 26
M  V30 26 1 25 27
M  V30 27 1 24 28
M  V30 28 2 28 29
M  V30 29 1 28 30
M  V30 30 1 30 31
M  V30 31 1 31 32
M  V30 32 2 31 2
M  V30 33 2 30 4
M  V30 34 2 22 11
M  V30 35 1 21 17
M  V30 36 1 1 33
M  V30 37 1 1 34
M  V30 38 1 1 35
M  V30 39 1 8 36
M  V30 40 1 8 37
M  V30 41 1 12 38
M  V30 42 1 14 39
M  V30 43 1 14 40
M  V30 44 1 14 41
M  V30 45 1 16 42
M  V30 46 1 16 43
M  V30 47 1 17 44
M  V30 48 1 18 45
M  V30 49 1 18 46
M  V30 50 1 19 47
M  V30 51 1 19 48
M  V30 52 1 20 49
M  V30 53 1 20 50
M  V30 54 1 23 51
M  V30 55 1 23 52
M  V30 56 1 23 53
M  V30 57 1 25 54
M  V30 58 1 26 55
M  V30 59 1 26 56
M  V30 60 1 26 57
M  V30 61 1 27 58
M  V30 62 1 27 59
M  V30 63 1 27 60
M  V30 64 1 32 61
M  V30 65 1 32 62
M  V30 66 1 32 63
M  V30 END BOND
M  V30 END CTAB
M  END
>  <Dataset>  (322) 
ChEMBL_Kinases

>  <Ligand_Instance>  (322) 
nan

>  <PDB_ID>  (322) 
nan

>  <Standardized_SMILES>  (322) 
Cc1sc2nc(SCC(=O)c3cc(C)n(CC4CCCO4)c3C)n(C(C)C)c(=O)c2c1C

>  <Name>  (322) 
nan

>  <Pocket>  (322) 
nan

>  <ATP_Site>  (322) 
nan

>  <Peripheral>  (322) 
nan

>  <Num_H_Atoms_ProtBoundConf>  (322) 
nan

>  <Num_Resolved_Atoms>  (322) 
nan

>  <Num_Not_Resolved_Atoms>  (322) 
nan

$$$$
CHEMBL1373261
     RDKit          3D

  0  0  0  0  0  0  0  0  0  0999 V3000
M  V30 BEGIN CTAB
M  V30 COUNTS 46 50 0 0 0
M  V30 BEGIN ATOM
M  V30 1 C -3.156186 -1.209326 4.408791 0
M  V30 2 C -1.930580 -0.538695 3.889174 0
M  V30 3 N -1.338412 0.558655 4.445446 0
M  V30 4 N -0.262073 0.881685 3.711506 0
M  V30 5 C -0.170557 0.013460 2.714033 0
M  V30 6 N 0.654440 -0.209318 1.660423 0
M  V30 7 C 1.764548 0.723730 1.529708 0
M  V30 8 C 1.370855 1.894834 0.683738 0
M  V30 9 C 2.451962 2.879570 0.511263 0
M  V30 10 C 3.342141 2.783340 -0.535325 0
M  V30 11 C 4.338531 3.707710 -0.677545 0
M  V30 12 C 4.513136 4.761169 0.186556 0
M  V30 13 C 3.622173 4.865941 1.242503 0
M  V30 14 C 2.605934 3.938927 1.403281 0
M  V30 15 C 0.549888 -1.179137 0.752012 0
M  V30 16 O 1.412070 -1.254613 -0.184824 0
M  V30 17 C -0.500966 -2.066055 0.871908 0
M  V30 18 C -0.786588 -3.126717 0.048860 0
M  V30 19 C -1.890249 -3.897569 0.342475 0
M  V30 20 S -2.577990 -3.150705 1.806618 0
M  V30 21 C -1.331165 -1.848185 1.925571 0
M  V30 22 N -1.183689 -0.848120 2.822839 0
M  V30 23 C -2.303763 -5.063819 -0.463440 0
M  V30 24 C -2.375011 -4.543689 -1.904927 0
M  V30 25 C -1.118579 -3.823959 -2.285471 0
M  V30 26 C -0.134782 -3.671095 -1.168191 0
M  V30 27 H -3.079956 -2.288517 4.153400 0
M  V30 28 H -3.166693 -1.175197 5.521617 0
M  V30 29 H -4.079818 -0.786887 3.981146 0
M  V30 30 H 2.087411 1.105337 2.524157 0
M  V30 31 H 2.607909 0.200823 1.055297 0
M  V30 32 H 1.049292 1.548342 -0.321732 0
M  V30 33 H 0.475686 2.382697 1.126786 0
M  V30 34 H 3.203210 1.961382 -1.206657 0
M  V30 35 H 5.018628 3.591777 -1.519438 0
M  V30 36 H 5.320359 5.469421 0.030825 0
M  V30 37 H 3.714258 5.674575 1.950579 0
M  V30 38 H 1.916596 4.046203 2.246413 0
M  V30 39 H -3.340273 -5.314530 -0.163615 0
M  V30 40 H -1.625554 -5.929566 -0.367276 0
M  V30 41 H -3.266047 -3.875951 -1.952760 0
M  V30 42 H -2.553549 -5.395152 -2.560308 0
M  V30 43 H -1.404811 -2.840428 -2.711187 0
M  V30 44 H -0.621999 -4.391331 -3.098133 0
M  V30 45 H 0.665592 -2.986821 -1.570093 0
M  V30 46 H 0.402968 -4.620666 -0.968102 0
M  V30 END ATOM
M  V30 BEGIN BOND
M  V30 1 1 1 2
M  V30 2 2 2 3
M  V30 3 1 3 4
M  V30 4 2 4 5
M  V30 5 1 5 6
M  V30 6 1 6 7
M  V30 7 1 7 8
M  V30 8 1 8 9
M  V30 9 2 9 10
M  V30 10 1 10 11
M  V30 11 2 11 12
M  V30 12 1 12 13
M  V30 13 2 13 14
M  V30 14 1 6 15
M  V30 15 2 15 16
M  V30 16 1 15 17
M  V30 17 1 17 18
M  V30 18 2 18 19
M  V30 19 1 19 20
M  V30 20 1 20 21
M  V30 21 1 21 22
M  V30 22 1 19 23
M  V30 23 1 23 24
M  V30 24 1 24 25
M  V30 25 1 25 26
M  V30 26 1 22 2
M  V30 27 1 22 5
M  V30 28 1 14 9
M  V30 29 2 21 17
M  V30 30 1 26 18
M  V30 31 1 1 27
M  V30 32 1 1 28
M  V30 33 1 1 29
M  V30 34 1 7 30
M  V30 35 1 7 31
M  V30 36 1 8 32
M  V30 37 1 8 33
M  V30 38 1 10 34
M  V30 39 1 11 35
M  V30 40 1 12 36
M  V30 41 1 13 37
M  V30 42 1 14 38
M  V30 43 1 23 39
M  V30 44 1 23 40
M  V30 45 1 24 41
M  V30 46 1 24 42
M  V30 47 1 25 43
M  V30 48 1 25 44
M  V30 49 1 26 45
M  V30 50 1 26 46
M  V30 END BOND
M  V30 END CTAB
M  END
>  <Dataset>  (323) 
ChEMBL_Kinases

>  <Ligand_Instance>  (323) 
nan

>  <PDB_ID>  (323) 
nan

>  <Standardized_SMILES>  (323) 
Cc1nnc2n(CCc3ccccc3)c(=O)c3c4c(sc3n12)CCCC4

>  <Name>  (323) 
nan

>  <Pocket>  (323) 
nan

>  <ATP_Site>  (323) 
nan

>  <Peripheral>  (323) 
nan

>  <Num_H_Atoms_ProtBoundConf>  (323) 
nan

>  <Num_Resolved_Atoms>  (323) 
nan

>  <Num_Not_Resolved_Atoms>  (323) 
nan

$$$$
CHEMBL1373287
     RDKit          3D

  0  0  0  0  0  0  0  0  0  0999 V3000
M  V30 BEGIN CTAB
M  V30 COUNTS 36 37 0 0 0
M  V30 BEGIN ATOM
M  V30 1 C 1.845540 -2.616240 5.485896 0
M  V30 2 O 2.356052 -1.589061 4.655055 0
M  V30 3 C 1.697514 -1.315915 3.463800 0
M  V30 4 N 2.148778 -0.352911 2.651452 0
M  V30 5 C 1.589541 -0.007568 1.479275 0
M  V30 6 N 2.164064 1.032290 0.708692 0
M  V30 7 C 1.727842 1.538395 -0.540835 0
M  V30 8 C 0.648490 1.108388 -1.250563 0
M  V30 9 C 0.243204 1.615255 -2.463363 0
M  V30 10 C 0.970128 2.640320 -3.026732 0
M  V30 11 O 0.598583 3.180365 -4.245286 0
M  V30 12 C 2.068243 3.110661 -2.351190 0
M  V30 13 C 2.427588 2.566273 -1.141387 0
M  V30 14 N 0.500678 -0.714632 1.150312 0
M  V30 15 C -0.023108 -1.694770 1.898329 0
M  V30 16 O -1.152436 -2.416675 1.540944 0
M  V30 17 C -1.882303 -2.214449 0.362946 0
M  V30 18 C -3.319003 -1.939897 0.794583 0
M  V30 19 F -3.745807 -3.054954 1.491024 0
M  V30 20 F -3.339129 -0.869033 1.695789 0
M  V30 21 F -4.137215 -1.689370 -0.294035 0
M  V30 22 C -1.946501 -3.472566 -0.510264 0
M  V30 23 F -2.693780 -3.120286 -1.628761 0
M  V30 24 F -2.621945 -4.481740 0.146572 0
M  V30 25 F -0.703469 -3.860774 -0.943228 0
M  V30 26 N 0.583433 -1.993056 3.061661 0
M  V30 27 H 2.498768 -3.510286 5.501177 0
M  V30 28 H 1.656799 -2.224848 6.522905 0
M  V30 29 H 0.848498 -2.963443 5.123437 0
M  V30 30 H 3.031011 1.490703 1.118656 0
M  V30 31 H 0.042149 0.322153 -0.878058 0
M  V30 32 H -0.615811 1.252869 -2.999670 0
M  V30 33 H 0.280790 2.619774 -5.035667 0
M  V30 34 H 2.659278 3.925828 -2.783369 0
M  V30 35 H 3.307578 2.991249 -0.668080 0
M  V30 36 H -1.500377 -1.418922 -0.297031 0
M  V30 END ATOM
M  V30 BEGIN BOND
M  V30 1 1 1 2
M  V30 2 1 2 3
M  V30 3 2 3 4
M  V30 4 1 4 5
M  V30 5 1 5 6
M  V30 6 1 6 7
M  V30 7 2 7 8
M  V30 8 1 8 9
M  V30 9 2 9 10
M  V30 10 1 10 11
M  V30 11 1 10 12
M  V30 12 2 12 13
M  V30 13 2 5 14
M  V30 14 1 14 15
M  V30 15 1 15 16
M  V30 16 1 16 17
M  V30 17 1 17 18
M  V30 18 1 18 19
M  V30 19 1 18 20
M  V30 20 1 18 21
M  V30 21 1 17 22
M  V30 22 1 22 23
M  V30 23 1 22 24
M  V30 24 1 22 25
M  V30 25 2 15 26
M  V30 26 1 26 3
M  V30 27 1 13 7
M  V30 28 1 1 27
M  V30 29 1 1 28
M  V30 30 1 1 29
M  V30 31 1 6 30
M  V30 32 1 8 31
M  V30 33 1 9 32
M  V30 34 1 11 33
M  V30 35 1 12 34
M  V30 36 1 13 35
M  V30 37 1 17 36
M  V30 END BOND
M  V30 END CTAB
M  END
>  <Dataset>  (324) 
ChEMBL_Kinases

>  <Ligand_Instance>  (324) 
nan

>  <PDB_ID>  (324) 
nan

>  <Standardized_SMILES>  (324) 
COc1nc(Nc2ccc(O)cc2)nc(OC(C(F)(F)F)C(F)(F)F)n1

>  <Name>  (324) 
nan

>  <Pocket>  (324) 
nan

>  <ATP_Site>  (324) 
nan

>  <Peripheral>  (324) 
nan

>  <Num_H_Atoms_ProtBoundConf>  (324) 
nan

>  <Num_Resolved_Atoms>  (324) 
nan

>  <Num_Not_Resolved_Atoms>  (324) 
nan

$$$$
CHEMBL1372916
     RDKit          3D

  0  0  0  0  0  0  0  0  0  0999 V3000
M  V30 BEGIN CTAB
M  V30 COUNTS 31 33 0 0 0
M  V30 BEGIN ATOM
M  V30 1 O -1.741824 -0.233054 1.638521 0
M  V30 2 C -0.928136 -1.023398 2.215629 0
M  V30 3 N 0.256960 -0.311511 2.554407 0
M  V30 4 C 0.375122 1.120726 2.218117 0
M  V30 5 C 0.670967 1.293458 0.771700 0
M  V30 6 N 1.988801 1.330613 0.422187 0
M  V30 7 C 2.099494 1.492009 -0.901941 0
M  V30 8 C 3.158322 1.603786 -1.813706 0
M  V30 9 C 2.799717 1.769920 -3.133336 0
M  V30 10 Br 4.298926 1.920144 -4.319319 0
M  V30 11 C 1.503381 1.829837 -3.589112 0
M  V30 12 N 0.446257 1.725896 -2.733075 0
M  V30 13 C 0.741345 1.561468 -1.426064 0
M  V30 14 N -0.050806 1.433371 -0.353662 0
M  V30 15 C -1.104908 -2.431997 2.516377 0
M  V30 16 C -0.219303 -3.296513 3.130420 0
M  V30 17 C -0.596304 -4.616212 3.317212 0
M  V30 18 C -1.833223 -5.080275 2.903827 0
M  V30 19 C -2.713284 -4.226569 2.294913 0
M  V30 20 C -2.351237 -2.914671 2.103564 0
M  V30 21 H 1.057560 -0.798522 3.047285 0
M  V30 22 H 1.063836 1.656983 2.870598 0
M  V30 23 H -0.655009 1.532092 2.393520 0
M  V30 24 H 4.153384 1.550372 -1.396121 0
M  V30 25 H 1.315188 1.962539 -4.654519 0
M  V30 26 H -0.534446 1.764894 -3.039906 0
M  V30 27 H 0.717173 -2.837516 3.415954 0
M  V30 28 H 0.137361 -5.239793 3.801147 0
M  V30 29 H -2.102346 -6.111280 3.062035 0
M  V30 30 H -3.665954 -4.632191 1.992394 0
M  V30 31 H -3.132379 -2.318918 1.606418 0
M  V30 END ATOM
M  V30 BEGIN BOND
M  V30 1 2 1 2
M  V30 2 1 2 3
M  V30 3 1 3 4
M  V30 4 1 4 5
M  V30 5 2 5 6
M  V30 6 1 6 7
M  V30 7 2 7 8
M  V30 8 1 8 9
M  V30 9 1 9 10
M  V30 10 2 9 11
M  V30 11 1 11 12
M  V30 12 1 12 13
M  V30 13 2 13 14
M  V30 14 1 2 15
M  V30 15 2 15 16
M  V30 16 1 16 17
M  V30 17 2 17 18
M  V30 18 1 18 19
M  V30 19 2 19 20
M  V30 20 1 14 5
M  V30 21 1 20 15
M  V30 22 1 13 7
M  V30 23 1 3 21
M  V30 24 1 4 22
M  V30 25 1 4 23
M  V30 26 1 8 24
M  V30 27 1 11 25
M  V30 28 1 12 26
M  V30 29 1 16 27
M  V30 30 1 17 28
M  V30 31 1 18 29
M  V30 32 1 19 30
M  V30 33 1 20 31
M  V30 END BOND
M  V30 END CTAB
M  END
>  <Dataset>  (325) 
ChEMBL_Kinases

>  <Ligand_Instance>  (325) 
nan

>  <PDB_ID>  (325) 
nan

>  <Standardized_SMILES>  (325) 
O=C(NCc1nc2cc(Br)c[nH]c-2n1)c1ccccc1

>  <Name>  (325) 
nan

>  <Pocket>  (325) 
nan

>  <ATP_Site>  (325) 
nan

>  <Peripheral>  (325) 
nan

>  <Num_H_Atoms_ProtBoundConf>  (325) 
nan

>  <Num_Resolved_Atoms>  (325) 
nan

>  <Num_Not_Resolved_Atoms>  (325) 
nan

$$$$
CHEMBL1367377
     RDKit          3D

  0  0  0  0  0  0  0  0  0  0999 V3000
M  V30 BEGIN CTAB
M  V30 COUNTS 39 41 0 0 0
M  V30 BEGIN ATOM
M  V30 1 C 1.285794 -4.858696 2.475568 0
M  V30 2 C 0.677872 -3.670763 1.846900 0
M  V30 3 O -0.563305 -3.806877 1.749540 0
M  V30 4 N 1.509385 -2.595832 1.456560 0
M  V30 5 C 1.303360 -1.329199 0.843354 0
M  V30 6 C 1.331558 -1.190882 -0.534681 0
M  V30 7 C 1.098618 0.152301 -0.758494 0
M  V30 8 C 1.031287 0.805818 -2.061545 0
M  V30 9 C 1.203986 0.096085 -3.232388 0
M  V30 10 C 1.143513 0.699594 -4.478907 0
M  V30 11 C 0.897230 2.074994 -4.504174 0
M  V30 12 C 0.718448 2.822959 -3.353797 0
M  V30 13 C 0.789917 2.162874 -2.128775 0
M  V30 14 N 0.949125 0.724688 0.450386 0
M  V30 15 N 1.071360 -0.164086 1.426619 0
M  V30 16 C 0.962691 0.136821 2.830779 0
M  V30 17 C -0.438221 0.012531 3.309245 0
M  V30 18 C -1.051131 -1.101033 3.844174 0
M  V30 19 C -2.366818 -1.062272 4.243821 0
M  V30 20 C -3.149113 0.080498 4.136404 0
M  V30 21 Cl -4.796837 -0.008237 4.679185 0
M  V30 22 C -2.554751 1.187789 3.609264 0
M  V30 23 C -1.246690 1.143362 3.213728 0
M  V30 24 H 1.154609 -5.725770 1.774395 0
M  V30 25 H 0.756731 -5.133812 3.403268 0
M  V30 26 H 2.371772 -4.787192 2.631780 0
M  V30 27 H 2.554511 -2.687803 1.634372 0
M  V30 28 H 1.494351 -1.926908 -1.324684 0
M  V30 29 H 1.392834 -0.968201 -3.168231 0
M  V30 30 H 1.280624 0.132821 -5.393422 0
M  V30 31 H 0.855713 2.520666 -5.505920 0
M  V30 32 H 0.529762 3.892441 -3.446325 0
M  V30 33 H 0.644500 2.780477 -1.236456 0
M  V30 34 H 1.289162 1.199516 2.977149 0
M  V30 35 H 1.666591 -0.460610 3.440990 0
M  V30 36 H -0.421205 -1.976743 3.918153 0
M  V30 37 H -2.801686 -1.964903 4.658010 0
M  V30 38 H -3.144139 2.088171 3.516231 0
M  V30 39 H -0.844442 2.064610 2.804037 0
M  V30 END ATOM
M  V30 BEGIN BOND
M  V30 1 1 1 2
M  V30 2 2 2 3
M  V30 3 1 2 4
M  V30 4 1 4 5
M  V30 5 2 5 6
M  V30 6 1 6 7
M  V30 7 1 7 8
M  V30 8 2 8 9
M  V30 9 1 9 10
M  V30 10 2 10 11
M  V30 11 1 11 12
M  V30 12 2 12 13
M  V30 13 2 7 14
M  V30 14 1 14 15
M  V30 15 1 15 16
M  V30 16 1 16 17
M  V30 17 2 17 18
M  V30 18 1 18 19
M  V30 19 2 19 20
M  V30 20 1 20 21
M  V30 21 1 20 22
M  V30 22 2 22 23
M  V30 23 1 15 5
M  V30 24 1 23 17
M  V30 25 1 13 8
M  V30 26 1 1 24
M  V30 27 1 1 25
M  V30 28 1 1 26
M  V30 29 1 4 27
M  V30 30 1 6 28
M  V30 31 1 9 29
M  V30 32 1 10 30
M  V30 33 1 11 31
M  V30 34 1 12 32
M  V30 35 1 13 33
M  V30 36 1 16 34
M  V30 37 1 16 35
M  V30 38 1 18 36
M  V30 39 1 19 37
M  V30 40 1 22 38
M  V30 41 1 23 39
M  V30 END BOND
M  V30 END CTAB
M  END
>  <Dataset>  (326) 
ChEMBL_Kinases

>  <Ligand_Instance>  (326) 
nan

>  <PDB_ID>  (326) 
nan

>  <Standardized_SMILES>  (326) 
CC(=O)Nc1cc(-c2ccccc2)nn1Cc1ccc(Cl)cc1

>  <Name>  (326) 
nan

>  <Pocket>  (326) 
nan

>  <ATP_Site>  (326) 
nan

>  <Peripheral>  (326) 
nan

>  <Num_H_Atoms_ProtBoundConf>  (326) 
nan

>  <Num_Resolved_Atoms>  (326) 
nan

>  <Num_Not_Resolved_Atoms>  (326) 
nan

$$$$
CHEMBL1367159
     RDKit          3D

  0  0  0  0  0  0  0  0  0  0999 V3000
M  V30 BEGIN CTAB
M  V30 COUNTS 34 36 0 0 0
M  V30 BEGIN ATOM
M  V30 1 O 1.229826 -3.277470 4.022370 0
M  V30 2 C 0.601460 -3.047746 2.803062 0
M  V30 3 C 0.717028 -3.920796 1.740111 0
M  V30 4 C 0.053071 -3.600484 0.571940 0
M  V30 5 C -0.706148 -2.445267 0.458524 0
M  V30 6 C -0.814316 -1.574712 1.536162 0
M  V30 7 C -0.152395 -1.894981 2.699295 0
M  V30 8 O -1.596793 -0.415557 1.370527 0
M  V30 9 C -1.614462 0.113229 0.052177 0
M  V30 10 C -0.363288 0.846182 -0.159455 0
M  V30 11 C 0.474849 0.810143 -1.254216 0
M  V30 12 C 1.631862 1.557880 -1.323494 0
M  V30 13 C 1.975557 2.379683 -0.259730 0
M  V30 14 O 3.156042 3.099354 -0.408580 0
M  V30 15 C 1.144341 2.430098 0.852530 0
M  V30 16 O 1.579124 3.285282 1.864755 0
M  V30 17 C -0.010586 1.674834 0.905627 0
M  V30 18 C -1.980900 -0.872840 -0.983183 0
M  V30 19 O -3.381050 -1.048542 -0.895802 0
M  V30 20 C -1.366917 -2.221525 -0.851265 0
M  V30 21 H 1.828257 -2.535841 4.407356 0
M  V30 22 H 1.312219 -4.825244 1.830852 0
M  V30 23 H 0.164759 -4.306528 -0.241960 0
M  V30 24 H -0.234653 -1.218160 3.541735 0
M  V30 25 H -2.425019 0.898568 0.091203 0
M  V30 26 H 0.163195 0.163768 -2.040135 0
M  V30 27 H 2.216016 1.450808 -2.234697 0
M  V30 28 H 3.884150 3.141895 0.294947 0
M  V30 29 H 1.059731 3.263239 2.736639 0
M  V30 30 H -0.540179 1.834821 1.845496 0
M  V30 31 H -1.789690 -0.422079 -1.973619 0
M  V30 32 H -3.525909 -1.371889 0.043290 0
M  V30 33 H -0.581073 -2.449963 -1.629773 0
M  V30 34 H -2.109717 -3.043642 -0.954447 0
M  V30 END ATOM
M  V30 BEGIN BOND
M  V30 1 1 1 2
M  V30 2 2 2 3
M  V30 3 1 3 4
M  V30 4 2 4 5
M  V30 5 1 5 6
M  V30 6 2 6 7
M  V30 7 1 6 8
M  V30 8 1 8 9
M  V30 9 1 9 10
M  V30 10 2 10 11
M  V30 11 1 11 12
M  V30 12 2 12 13
M  V30 13 1 13 14
M  V30 14 1 13 15
M  V30 15 1 15 16
M  V30 16 2 15 17
M  V30 17 1 9 18
M  V30 18 1 18 19
M  V30 19 1 18 20
M  V30 20 1 7 2
M  V30 21 1 17 10
M  V30 22 1 20 5
M  V30 23 1 1 21
M  V30 24 1 3 22
M  V30 25 1 4 23
M  V30 26 1 7 24
M  V30 27 1 9 25
M  V30 28 1 11 26
M  V30 29 1 12 27
M  V30 30 1 14 28
M  V30 31 1 16 29
M  V30 32 1 17 30
M  V30 33 1 18 31
M  V30 34 1 19 32
M  V30 35 1 20 33
M  V30 36 1 20 34
M  V30 END BOND
M  V30 END CTAB
M  END
>  <Dataset>  (327) 
ChEMBL_Kinases

>  <Ligand_Instance>  (327) 
nan

>  <PDB_ID>  (327) 
nan

>  <Standardized_SMILES>  (327) 
Oc1ccc2c(c1)OC(c1ccc(O)c(O)c1)C(O)C2

>  <Name>  (327) 
nan

>  <Pocket>  (327) 
nan

>  <ATP_Site>  (327) 
nan

>  <Peripheral>  (327) 
nan

>  <Num_H_Atoms_ProtBoundConf>  (327) 
nan

>  <Num_Resolved_Atoms>  (327) 
nan

>  <Num_Not_Resolved_Atoms>  (327) 
nan

$$$$
CHEMBL1367149
     RDKit          3D

  0  0  0  0  0  0  0  0  0  0999 V3000
M  V30 BEGIN CTAB
M  V30 COUNTS 42 44 0 0 0
M  V30 BEGIN ATOM
M  V30 1 C -1.201093 -5.210072 1.100619 0
M  V30 2 N -0.302023 -4.127513 0.710121 0
M  V30 3 C -0.606607 -3.377803 -0.392059 0
M  V30 4 N -1.811164 -3.730906 -1.080398 0
M  V30 5 C 0.265501 -2.369137 -0.723400 0
M  V30 6 C -0.044150 -1.582509 -1.904597 0
M  V30 7 O -1.043253 -2.072645 -2.549387 0
M  V30 8 C 0.288783 -0.436694 -2.717276 0
M  V30 9 S 1.544341 0.685462 -2.040769 0
M  V30 10 C 0.873919 1.550396 -0.595614 0
M  V30 11 C -0.417337 1.323818 -0.168749 0
M  V30 12 C -0.958000 1.962618 0.927718 0
M  V30 13 C -0.143856 2.867250 1.611166 0
M  V30 14 C 1.155095 3.085677 1.168816 0
M  V30 15 C 1.701321 2.447176 0.069541 0
M  V30 16 O 1.800755 4.011841 1.971918 0
M  V30 17 C 1.725607 3.952008 3.387859 0
M  V30 18 C 0.312350 3.711525 3.855565 0
M  V30 19 O -0.525211 3.592675 2.725867 0
M  V30 20 C 1.367926 -2.188095 0.064159 0
M  V30 21 O 2.207037 -1.289815 -0.180857 0
M  V30 22 N 1.680422 -2.913088 1.146275 0
M  V30 23 C 2.848277 -2.710318 1.969599 0
M  V30 24 C 0.800402 -3.885457 1.431820 0
M  V30 25 O 0.995235 -4.625113 2.423796 0
M  V30 26 H -2.160977 -5.160255 0.579203 0
M  V30 27 H -0.654133 -6.152270 0.910608 0
M  V30 28 H -1.365161 -5.152794 2.199175 0
M  V30 29 H -2.773770 -3.324759 -0.978937 0
M  V30 30 H -1.527879 -4.506772 -1.731545 0
M  V30 31 H -0.629680 0.221596 -2.826374 0
M  V30 32 H 0.562702 -0.698695 -3.775612 0
M  V30 33 H -1.041668 0.618436 -0.710091 0
M  V30 34 H -1.972249 1.801428 1.284221 0
M  V30 35 H 2.699590 2.669659 -0.205721 0
M  V30 36 H 2.428565 3.175502 3.765607 0
M  V30 37 H 2.059573 4.915666 3.835677 0
M  V30 38 H 0.301172 2.738357 4.402209 0
M  V30 39 H -0.037940 4.526284 4.521395 0
M  V30 40 H 3.571506 -2.017885 1.518517 0
M  V30 41 H 2.524471 -2.407218 2.992364 0
M  V30 42 H 3.366493 -3.710106 2.039285 0
M  V30 END ATOM
M  V30 BEGIN BOND
M  V30 1 1 1 2
M  V30 2 1 2 3
M  V30 3 1 3 4
M  V30 4 2 3 5
M  V30 5 1 5 6
M  V30 6 2 6 7
M  V30 7 1 6 8
M  V30 8 1 8 9
M  V30 9 1 9 10
M  V30 10 2 10 11
M  V30 11 1 11 12
M  V30 12 2 12 13
M  V30 13 1 13 14
M  V30 14 2 14 15
M  V30 15 1 14 16
M  V30 16 1 16 17
M  V30 17 1 17 18
M  V30 18 1 18 19
M  V30 19 1 5 20
M  V30 20 2 20 21
M  V30 21 1 20 22
M  V30 22 1 22 23
M  V30 23 1 22 24
M  V30 24 2 24 25
M  V30 25 1 24 2
M  V30 26 1 15 10
M  V30 27 1 19 13
M  V30 28 1 1 26
M  V30 29 1 1 27
M  V30 30 1 1 28
M  V30 31 1 4 29
M  V30 32 1 4 30
M  V30 33 1 8 31
M  V30 34 1 8 32
M  V30 35 1 11 33
M  V30 36 1 12 34
M  V30 37 1 15 35
M  V30 38 1 17 36
M  V30 39 1 17 37
M  V30 40 1 18 38
M  V30 41 1 18 39
M  V30 42 1 23 40
M  V30 43 1 23 41
M  V30 44 1 23 42
M  V30 END BOND
M  V30 END CTAB
M  END
>  <Dataset>  (328) 
ChEMBL_Kinases

>  <Ligand_Instance>  (328) 
nan

>  <PDB_ID>  (328) 
nan

>  <Standardized_SMILES>  (328) 
Cn1c(N)c(C(=O)CSc2ccc3c(c2)OCCO3)c(=O)n(C)c1=O

>  <Name>  (328) 
nan

>  <Pocket>  (328) 
nan

>  <ATP_Site>  (328) 
nan

>  <Peripheral>  (328) 
nan

>  <Num_H_Atoms_ProtBoundConf>  (328) 
nan

>  <Num_Resolved_Atoms>  (328) 
nan

>  <Num_Not_Resolved_Atoms>  (328) 
nan

$$$$
CHEMBL1367116
     RDKit          3D

  0  0  0  0  0  0  0  0  0  0999 V3000
M  V30 BEGIN CTAB
M  V30 COUNTS 64 67 0 0 0
M  V30 BEGIN ATOM
M  V30 1 C 2.446541 -0.021280 6.769815 0
M  V30 2 C 2.664060 -1.459355 6.418235 0
M  V30 3 O 2.248319 -1.833703 5.144127 0
M  V30 4 C 2.725217 -1.305398 3.982568 0
M  V30 5 C 3.692910 -0.323417 3.953924 0
M  V30 6 C 4.107449 0.146470 2.725468 0
M  V30 7 C 3.627029 -0.290747 1.485469 0
M  V30 8 C 4.196368 0.338520 0.277947 0
M  V30 9 C 3.483912 1.567508 -0.183639 0
M  V30 10 N 2.105943 1.268893 -0.504917 0
M  V30 11 C 1.394028 2.424928 -0.946869 0
M  V30 12 O 2.179881 3.440078 -0.939314 0
M  V30 13 C -0.015794 2.508419 -1.359633 0
M  V30 14 C -0.893901 2.082355 -0.233827 0
M  V30 15 C -1.470861 0.737042 -0.490128 0
M  V30 16 N -2.280347 0.810839 -1.690008 0
M  V30 17 C -3.514945 0.164443 -1.698942 0
M  V30 18 N -4.731274 0.133778 -1.507185 0
M  V30 19 N -5.508633 -0.847245 -1.704173 0
M  V30 20 C -5.149595 -1.964502 -2.135004 0
M  V30 21 N -5.670493 -3.265096 -2.483113 0
M  V30 22 C -6.260306 -4.273584 -1.823520 0
M  V30 23 C -6.515686 -5.254996 -2.761552 0
M  V30 24 C -6.086593 -4.857978 -3.994936 0
M  V30 25 C -5.549434 -3.581668 -3.791309 0
M  V30 26 S -3.280286 -1.634362 -2.335750 0
M  V30 27 C -1.789220 1.538841 -2.840317 0
M  V30 28 C -0.322378 1.882565 -2.691185 0
M  V30 29 C 2.659707 -1.274942 1.558885 0
M  V30 30 C 2.207147 -1.782288 2.772618 0
M  V30 31 O 1.260598 -2.743371 2.812557 0
M  V30 32 C 0.585449 -3.384449 1.795859 0
M  V30 33 C -0.226048 -2.429229 0.922980 0
M  V30 34 H 1.690546 0.086358 7.601230 0
M  V30 35 H 3.405243 0.408186 7.107188 0
M  V30 36 H 2.067251 0.596259 5.928846 0
M  V30 37 H 3.733502 -1.769499 6.608709 0
M  V30 38 H 2.075936 -2.082542 7.139471 0
M  V30 39 H 4.127652 0.076960 4.843084 0
M  V30 40 H 4.881124 0.929014 2.737312 0
M  V30 41 H 4.298266 -0.393618 -0.554550 0
M  V30 42 H 5.252913 0.647482 0.515584 0
M  V30 43 H 3.552454 2.386770 0.568968 0
M  V30 44 H 3.955543 1.918459 -1.119345 0
M  V30 45 H 1.569379 0.376687 -0.467650 0
M  V30 46 H -0.218922 3.624097 -1.462345 0
M  V30 47 H -0.357586 2.068084 0.738112 0
M  V30 48 H -1.768023 2.775894 -0.075637 0
M  V30 49 H -2.122986 0.488838 0.401839 0
M  V30 50 H -0.746528 -0.072200 -0.670478 0
M  V30 51 H -6.431153 -4.185390 -0.777312 0
M  V30 52 H -6.990239 -6.195096 -2.516491 0
M  V30 53 H -6.162359 -5.439383 -4.922501 0
M  V30 54 H -5.141359 -3.072113 -4.667007 0
M  V30 55 H -2.421639 2.423146 -3.046685 0
M  V30 56 H -1.878569 0.863007 -3.715721 0
M  V30 57 H 0.298254 0.996754 -2.936856 0
M  V30 58 H -0.098487 2.628892 -3.482721 0
M  V30 59 H 2.286554 -1.620479 0.605468 0
M  V30 60 H 1.376898 -3.800030 1.106887 0
M  V30 61 H -0.012252 -4.246468 2.085795 0
M  V30 62 H -1.329650 -2.637259 1.006081 0
M  V30 63 H 0.016053 -2.519022 -0.153392 0
M  V30 64 H -0.016115 -1.364238 1.202700 0
M  V30 END ATOM
M  V30 BEGIN BOND
M  V30 1 1 1 2
M  V30 2 1 2 3
M  V30 3 1 3 4
M  V30 4 2 4 5
M  V30 5 1 5 6
M  V30 6 2 6 7
M  V30 7 1 7 8
M  V30 8 1 8 9
M  V30 9 1 9 10
M  V30 10 1 10 11
M  V30 11 2 11 12
M  V30 12 1 11 13
M  V30 13 1 13 14
M  V30 14 1 14 15
M  V30 15 1 15 16
M  V30 16 1 16 17
M  V30 17 2 17 18
M  V30 18 1 18 19
M  V30 19 2 19 20
M  V30 20 1 20 21
M  V30 21 1 21 22
M  V30 22 2 22 23
M  V30 23 1 23 24
M  V30 24 2 24 25
M  V30 25 1 20 26
M  V30 26 1 16 27
M  V30 27 1 27 28
M  V30 28 1 7 29
M  V30 29 2 29 30
M  V30 30 1 30 31
M  V30 31 1 31 32
M  V30 32 1 32 33
M  V30 33 1 30 4
M  V30 34 1 28 13
M  V30 35 1 26 17
M  V30 36 1 25 21
M  V30 37 1 1 34
M  V30 38 1 1 35
M  V30 39 1 1 36
M  V30 40 1 2 37
M  V30 41 1 2 38
M  V30 42 1 5 39
M  V30 43 1 6 40
M  V30 44 1 8 41
M  V30 45 1 8 42
M  V30 46 1 9 43
M  V30 47 1 9 44
M  V30 48 1 10 45
M  V30 49 1 13 46
M  V30 50 1 14 47
M  V30 51 1 14 48
M  V30 52 1 15 49
M  V30 53 1 15 50
M  V30 54 1 22 51
M  V30 55 1 23 52
M  V30 56 1 24 53
M  V30 57 1 25 54
M  V30 58 1 27 55
M  V30 59 1 27 56
M  V30 60 1 28 57
M  V30 61 1 28 58
M  V30 62 1 29 59
M  V30 63 1 32 60
M  V30 64 1 32 61
M  V30 65 1 33 62
M  V30 66 1 33 63
M  V30 67 1 33 64
M  V30 END BOND
M  V30 END CTAB
M  END
>  <Dataset>  (329) 
ChEMBL_Kinases

>  <Ligand_Instance>  (329) 
nan

>  <PDB_ID>  (329) 
nan

>  <Standardized_SMILES>  (329) 
CCOc1ccc(CCNC(=O)C2CCN(c3nnc(-n4cccc4)s3)CC2)cc1OCC

>  <Name>  (329) 
nan

>  <Pocket>  (329) 
nan

>  <ATP_Site>  (329) 
nan

>  <Peripheral>  (329) 
nan

>  <Num_H_Atoms_ProtBoundConf>  (329) 
nan

>  <Num_Resolved_Atoms>  (329) 
nan

>  <Num_Not_Resolved_Atoms>  (329) 
nan

$$$$
CHEMBL1367112
     RDKit          3D

  0  0  0  0  0  0  0  0  0  0999 V3000
M  V30 BEGIN CTAB
M  V30 COUNTS 49 51 0 0 0
M  V30 BEGIN ATOM
M  V30 1 C 4.052137 -5.824494 1.710126 0
M  V30 2 N 4.276016 -4.517736 1.078305 0
M  V30 3 C 5.407120 -3.776659 1.151547 0
M  V30 4 O 6.422474 -4.148333 1.795010 0
M  V30 5 O 5.247484 -2.670283 0.466528 0
M  V30 6 C 4.033666 -2.634843 -0.074903 0
M  V30 7 C 3.370320 -1.712296 -0.873992 0
M  V30 8 C 2.076939 -1.974077 -1.284017 0
M  V30 9 S 1.223406 -0.804282 -2.302479 0
M  V30 10 O 2.202486 -0.077621 -3.142461 0
M  V30 11 O 0.212030 -1.590907 -3.068727 0
M  V30 12 N 0.414198 0.261200 -1.178741 0
M  V30 13 C 1.384140 0.942671 -0.344184 0
M  V30 14 C 0.683772 1.855519 0.618279 0
M  V30 15 C -0.231255 1.058505 1.482502 0
M  V30 16 O -0.169251 -0.151428 1.172079 0
M  V30 17 N -1.041344 1.594731 2.495160 0
M  V30 18 C -1.898458 0.772905 3.289835 0
M  V30 19 C -2.897061 0.062569 2.443281 0
M  V30 20 C -3.780419 0.957828 1.679329 0
M  V30 21 C -3.596457 1.470919 0.412573 0
M  V30 22 C -4.534767 2.303103 -0.156013 0
M  V30 23 C -5.695953 2.671867 0.487630 0
M  V30 24 C -5.926077 2.183612 1.759182 0
M  V30 25 C -4.966593 1.345401 2.314661 0
M  V30 26 C 1.462398 -3.149080 -0.893499 0
M  V30 27 C 2.091009 -4.090613 -0.098765 0
M  V30 28 C 3.398525 -3.816136 0.310272 0
M  V30 29 H 4.450964 -5.813265 2.742102 0
M  V30 30 H 4.449223 -6.634340 1.091104 0
M  V30 31 H 2.962686 -5.965878 1.756240 0
M  V30 32 H 3.873604 -0.798983 -1.166598 0
M  V30 33 H -0.169550 0.901815 -1.725262 0
M  V30 34 H 2.002780 1.574294 -1.018553 0
M  V30 35 H 2.036478 0.230374 0.178417 0
M  V30 36 H 0.139718 2.649885 0.097497 0
M  V30 37 H 1.448883 2.333072 1.280200 0
M  V30 38 H -0.965810 2.624443 2.615941 0
M  V30 39 H -1.248943 -0.024623 3.754802 0
M  V30 40 H -2.345011 1.340767 4.108719 0
M  V30 41 H -3.522657 -0.606184 3.092717 0
M  V30 42 H -2.388304 -0.628276 1.742510 0
M  V30 43 H -2.678106 1.163737 -0.065577 0
M  V30 44 H -4.303186 2.661852 -1.165251 0
M  V30 45 H -6.418405 3.323040 0.028504 0
M  V30 46 H -6.811135 2.432530 2.315011 0
M  V30 47 H -5.191736 0.980259 3.329459 0
M  V30 48 H 0.457384 -3.382535 -1.195386 0
M  V30 49 H 1.593541 -5.011478 0.200484 0
M  V30 END ATOM
M  V30 BEGIN BOND
M  V30 1 1 1 2
M  V30 2 1 2 3
M  V30 3 2 3 4
M  V30 4 1 3 5
M  V30 5 1 5 6
M  V30 6 2 6 7
M  V30 7 1 7 8
M  V30 8 1 8 9
M  V30 9 2 9 10
M  V30 10 2 9 11
M  V30 11 1 9 12
M  V30 12 1 12 13
M  V30 13 1 13 14
M  V30 14 1 14 15
M  V30 15 2 15 16
M  V30 16 1 15 17
M  V30 17 1 17 18
M  V30 18 1 18 19
M  V30 19 1 19 20
M  V30 20 2 20 21
M  V30 21 1 21 22
M  V30 22 2 22 23
M  V30 23 1 23 24
M  V30 24 2 24 25
M  V30 25 2 8 26
M  V30 26 1 26 27
M  V30 27 2 27 28
M  V30 28 1 28 2
M  V30 29 1 28 6
M  V30 30 1 25 20
M  V30 31 1 1 29
M  V30 32 1 1 30
M  V30 33 1 1 31
M  V30 34 1 7 32
M  V30 35 1 12 33
M  V30 36 1 13 34
M  V30 37 1 13 35
M  V30 38 1 14 36
M  V30 39 1 14 37
M  V30 40 1 17 38
M  V30 41 1 18 39
M  V30 42 1 18 40
M  V30 43 1 19 41
M  V30 44 1 19 42
M  V30 45 1 21 43
M  V30 46 1 22 44
M  V30 47 1 23 45
M  V30 48 1 24 46
M  V30 49 1 25 47
M  V30 50 1 26 48
M  V30 51 1 27 49
M  V30 END BOND
M  V30 END CTAB
M  END
>  <Dataset>  (330) 
ChEMBL_Kinases

>  <Ligand_Instance>  (330) 
nan

>  <PDB_ID>  (330) 
nan

>  <Standardized_SMILES>  (330) 
Cn1c(=O)oc2cc(S(=O)(=O)NCCC(=O)NCCc3ccccc3)ccc21

>  <Name>  (330) 
nan

>  <Pocket>  (330) 
nan

>  <ATP_Site>  (330) 
nan

>  <Peripheral>  (330) 
nan

>  <Num_H_Atoms_ProtBoundConf>  (330) 
nan

>  <Num_Resolved_Atoms>  (330) 
nan

>  <Num_Not_Resolved_Atoms>  (330) 
nan

$$$$
CHEMBL1367073
     RDKit          3D

  0  0  0  0  0  0  0  0  0  0999 V3000
M  V30 BEGIN CTAB
M  V30 COUNTS 54 56 0 0 0
M  V30 BEGIN ATOM
M  V30 1 C -1.720678 -3.671414 2.224867 0
M  V30 2 O -1.512627 -4.432535 1.045276 0
M  V30 3 C -0.635443 -4.045874 0.054632 0
M  V30 4 C 0.156397 -2.919201 0.021692 0
M  V30 5 C 0.994401 -2.673650 -1.061875 0
M  V30 6 N 1.744621 -1.449727 -0.919742 0
M  V30 7 C 1.231509 -0.234381 -1.396895 0
M  V30 8 O 0.094195 -0.146825 -1.972049 0
M  V30 9 C 2.040782 0.954172 -1.219190 0
M  V30 10 C 2.327743 1.376993 0.169265 0
M  V30 11 C 1.284870 2.437151 0.415287 0
M  V30 12 C 0.953334 2.924701 1.750378 0
M  V30 13 C 1.703793 3.821567 2.486699 0
M  V30 14 C 1.310766 4.227944 3.747030 0
M  V30 15 C 0.118563 3.690894 4.245154 0
M  V30 16 C -0.652050 2.785245 3.517806 0
M  V30 17 O -1.820259 2.307795 4.097566 0
M  V30 18 C -2.137654 2.783821 5.393150 0
M  V30 19 C -0.236674 2.392475 2.254782 0
M  V30 20 O -1.067099 1.499079 1.626064 0
M  V30 21 C -2.120178 1.975696 0.807455 0
M  V30 22 N 0.780830 2.798557 -0.726661 0
M  V30 23 O 1.365904 2.096287 -1.762351 0
M  V30 24 C 1.054023 -3.545806 -2.124336 0
M  V30 25 C 0.256626 -4.668594 -2.078103 0
M  V30 26 O 0.319968 -5.545829 -3.152210 0
M  V30 27 C 1.176064 -5.278027 -4.240393 0
M  V30 28 C -0.583469 -4.936608 -1.016034 0
M  V30 29 O -1.340946 -6.109301 -1.089652 0
M  V30 30 C -2.624801 -6.117869 -1.676229 0
M  V30 31 H -2.703458 -3.877121 2.681034 0
M  V30 32 H -0.856248 -3.894364 2.884722 0
M  V30 33 H -1.628579 -2.582429 1.958638 0
M  V30 34 H 0.072265 -2.270552 0.876245 0
M  V30 35 H 2.666209 -1.535017 -0.451036 0
M  V30 36 H 2.971174 0.852768 -1.816035 0
M  V30 37 H 3.318599 1.880232 0.205892 0
M  V30 38 H 2.303648 0.623191 0.946104 0
M  V30 39 H 2.613739 4.187008 2.022970 0
M  V30 40 H 1.901368 4.929537 4.318571 0
M  V30 41 H -0.149305 4.044877 5.248830 0
M  V30 42 H -3.033619 2.199074 5.742869 0
M  V30 43 H -2.317849 3.871032 5.435807 0
M  V30 44 H -1.336888 2.550671 6.135113 0
M  V30 45 H -3.017161 2.283033 1.420444 0
M  V30 46 H -2.495801 1.141784 0.153640 0
M  V30 47 H -1.853618 2.885717 0.229350 0
M  V30 48 H 1.728702 -3.273013 -2.913530 0
M  V30 49 H 2.210738 -5.077842 -3.868610 0
M  V30 50 H 0.763287 -4.381992 -4.758727 0
M  V30 51 H 1.164990 -6.089359 -4.969265 0
M  V30 52 H -2.566587 -6.405761 -2.750201 0
M  V30 53 H -3.318820 -6.803282 -1.118241 0
M  V30 54 H -3.008339 -5.078380 -1.627265 0
M  V30 END ATOM
M  V30 BEGIN BOND
M  V30 1 1 1 2
M  V30 2 1 2 3
M  V30 3 2 3 4
M  V30 4 1 4 5
M  V30 5 1 5 6
M  V30 6 1 6 7
M  V30 7 2 7 8
M  V30 8 1 7 9
M  V30 9 1 9 10
M  V30 10 1 10 11
M  V30 11 1 11 12
M  V30 12 2 12 13
M  V30 13 1 13 14
M  V30 14 2 14 15
M  V30 15 1 15 16
M  V30 16 1 16 17
M  V30 17 1 17 18
M  V30 18 2 16 19
M  V30 19 1 19 20
M  V30 20 1 20 21
M  V30 21 2 11 22
M  V30 22 1 22 23
M  V30 23 2 5 24
M  V30 24 1 24 25
M  V30 25 1 25 26
M  V30 26 1 26 27
M  V30 27 2 25 28
M  V30 28 1 28 29
M  V30 29 1 29 30
M  V30 30 1 28 3
M  V30 31 1 23 9
M  V30 32 1 19 12
M  V30 33 1 1 31
M  V30 34 1 1 32
M  V30 35 1 1 33
M  V30 36 1 4 34
M  V30 37 1 6 35
M  V30 38 1 9 36
M  V30 39 1 10 37
M  V30 40 1 10 38
M  V30 41 1 13 39
M  V30 42 1 14 40
M  V30 43 1 15 41
M  V30 44 1 18 42
M  V30 45 1 18 43
M  V30 46 1 18 44
M  V30 47 1 21 45
M  V30 48 1 21 46
M  V30 49 1 21 47
M  V30 50 1 24 48
M  V30 51 1 27 49
M  V30 52 1 27 50
M  V30 53 1 27 51
M  V30 54 1 30 52
M  V30 55 1 30 53
M  V30 56 1 30 54
M  V30 END BOND
M  V30 END CTAB
M  END
>  <Dataset>  (331) 
ChEMBL_Kinases

>  <Ligand_Instance>  (331) 
nan

>  <PDB_ID>  (331) 
nan

>  <Standardized_SMILES>  (331) 
COc1cc(NC(=O)C2CC(c3cccc(OC)c3OC)=NO2)cc(OC)c1OC

>  <Name>  (331) 
nan

>  <Pocket>  (331) 
nan

>  <ATP_Site>  (331) 
nan

>  <Peripheral>  (331) 
nan

>  <Num_H_Atoms_ProtBoundConf>  (331) 
nan

>  <Num_Resolved_Atoms>  (331) 
nan

>  <Num_Not_Resolved_Atoms>  (331) 
nan

$$$$
CHEMBL1367007
     RDKit          3D

  0  0  0  0  0  0  0  0  0  0999 V3000
M  V30 BEGIN CTAB
M  V30 COUNTS 47 50 0 0 0
M  V30 BEGIN ATOM
M  V30 1 C 1.984166 -4.468110 1.808336 0
M  V30 2 C 1.492014 -4.380101 0.378318 0
M  V30 3 C 2.363841 -3.531628 -0.485327 0
M  V30 4 N 2.490605 -2.160664 -0.059136 0
M  V30 5 C 3.463611 -1.767282 0.783424 0
M  V30 6 O 4.307279 -2.582852 1.234457 0
M  V30 7 C 3.518528 -0.432278 1.147981 0
M  V30 8 C 4.548055 -0.080272 2.023814 0
M  V30 9 C 4.587266 1.251223 2.375323 0
M  V30 10 C 3.680984 2.189788 1.905613 0
M  V30 11 C 2.687404 1.765217 1.039805 0
M  V30 12 C 2.589262 0.453394 0.647791 0
M  V30 13 N 1.620293 0.060690 -0.191620 0
M  V30 14 C 0.626439 0.733755 -0.792868 0
M  V30 15 S 0.173551 2.441915 -0.734582 0
M  V30 16 C -0.968525 2.882022 0.555095 0
M  V30 17 C -2.325289 2.351126 0.448738 0
M  V30 18 O -3.037403 2.712317 1.450500 0
M  V30 19 N -2.944864 1.541371 -0.538647 0
M  V30 20 C -4.322932 1.102564 -0.477731 0
M  V30 21 C -4.671032 0.307029 0.659544 0
M  V30 22 C -5.151039 0.432007 1.947988 0
M  V30 23 C -5.341791 -0.675041 2.726763 0
M  V30 24 C -5.040824 -1.945185 2.193610 0
M  V30 25 S -4.446090 -1.563197 0.473384 0
M  V30 26 N 0.001907 -0.220114 -1.503075 0
M  V30 27 N 0.576242 -1.400817 -1.346726 0
M  V30 28 C 1.616255 -1.243115 -0.509486 0
M  V30 29 H 2.988206 -4.909117 1.852569 0
M  V30 30 H 1.336406 -5.141673 2.409260 0
M  V30 31 H 1.954108 -3.487037 2.323027 0
M  V30 32 H 1.561732 -5.415399 -0.022361 0
M  V30 33 H 0.421670 -4.114458 0.326414 0
M  V30 34 H 3.374686 -4.034962 -0.495865 0
M  V30 35 H 1.985590 -3.619362 -1.524859 0
M  V30 36 H 5.261694 -0.798417 2.398937 0
M  V30 37 H 5.384757 1.530378 3.055245 0
M  V30 38 H 3.820757 3.207576 2.258687 0
M  V30 39 H 2.054180 2.551737 0.743165 0
M  V30 40 H -0.571070 2.581874 1.571375 0
M  V30 41 H -1.000125 3.990242 0.610382 0
M  V30 42 H -2.307204 1.300389 -1.309529 0
M  V30 43 H -4.967236 2.029225 -0.465770 0
M  V30 44 H -4.576169 0.623097 -1.450369 0
M  V30 45 H -5.342249 1.451290 2.234369 0
M  V30 46 H -5.716565 -0.587855 3.735121 0
M  V30 47 H -5.150995 -2.875561 2.710512 0
M  V30 END ATOM
M  V30 BEGIN BOND
M  V30 1 1 1 2
M  V30 2 1 2 3
M  V30 3 1 3 4
M  V30 4 1 4 5
M  V30 5 2 5 6
M  V30 6 1 5 7
M  V30 7 2 7 8
M  V30 8 1 8 9
M  V30 9 2 9 10
M  V30 10 1 10 11
M  V30 11 2 11 12
M  V30 12 1 12 13
M  V30 13 1 13 14
M  V30 14 1 14 15
M  V30 15 1 15 16
M  V30 16 1 16 17
M  V30 17 2 17 18
M  V30 18 1 17 19
M  V30 19 1 19 20
M  V30 20 1 20 21
M  V30 21 2 21 22
M  V30 22 1 22 23
M  V30 23 2 23 24
M  V30 24 1 24 25
M  V30 25 2 14 26
M  V30 26 1 26 27
M  V30 27 2 27 28
M  V30 28 1 28 4
M  V30 29 1 12 7
M  V30 30 1 28 13
M  V30 31 1 25 21
M  V30 32 1 1 29
M  V30 33 1 1 30
M  V30 34 1 1 31
M  V30 35 1 2 32
M  V30 36 1 2 33
M  V30 37 1 3 34
M  V30 38 1 3 35
M  V30 39 1 8 36
M  V30 40 1 9 37
M  V30 41 1 10 38
M  V30 42 1 11 39
M  V30 43 1 16 40
M  V30 44 1 16 41
M  V30 45 1 19 42
M  V30 46 1 20 43
M  V30 47 1 20 44
M  V30 48 1 22 45
M  V30 49 1 23 46
M  V30 50 1 24 47
M  V30 END BOND
M  V30 END CTAB
M  END
>  <Dataset>  (332) 
ChEMBL_Kinases

>  <Ligand_Instance>  (332) 
nan

>  <PDB_ID>  (332) 
nan

>  <Standardized_SMILES>  (332) 
CCCn1c(=O)c2ccccc2n2c(SCC(=O)NCc3cccs3)nnc12

>  <Name>  (332) 
nan

>  <Pocket>  (332) 
nan

>  <ATP_Site>  (332) 
nan

>  <Peripheral>  (332) 
nan

>  <Num_H_Atoms_ProtBoundConf>  (332) 
nan

>  <Num_Resolved_Atoms>  (332) 
nan

>  <Num_Not_Resolved_Atoms>  (332) 
nan

$$$$
CHEMBL1366970
     RDKit          3D

  0  0  0  0  0  0  0  0  0  0999 V3000
M  V30 BEGIN CTAB
M  V30 COUNTS 51 54 0 0 0
M  V30 BEGIN ATOM
M  V30 1 C 1.897408 -4.163124 2.664918 0
M  V30 2 C 2.617874 -2.877941 3.011910 0
M  V30 3 O 3.352884 -2.351010 1.919365 0
M  V30 4 C 4.058117 -1.187374 2.086838 0
M  V30 5 O 3.697085 -1.080217 3.300786 0
M  V30 6 C 4.856849 -0.534742 1.046979 0
M  V30 7 C 5.520690 0.724495 1.557911 0
M  V30 8 C 4.382677 1.685387 1.885202 0
M  V30 9 C 3.672596 1.976491 0.571041 0
M  V30 10 N 3.060999 0.805464 -0.005815 0
M  V30 11 C 1.686668 0.658991 -0.321074 0
M  V30 12 C 0.728551 1.603662 -0.040099 0
M  V30 13 C -0.608619 1.465437 -0.347347 0
M  V30 14 C -1.051556 0.320882 -0.976671 0
M  V30 15 N -2.433311 0.175542 -1.293376 0
M  V30 16 C -3.316960 -0.430711 -0.359390 0
M  V30 17 O -2.739040 -0.792712 0.708568 0
M  V30 18 C -4.744613 -0.562295 -0.728077 0
M  V30 19 S -5.459603 -0.052309 -2.182628 0
M  V30 20 N -7.189270 -0.619438 -1.740066 0
M  V30 21 C -6.914304 -1.156661 -0.430077 0
M  V30 22 C -7.990216 -1.690869 0.240711 0
M  V30 23 O -9.308928 -1.779561 -0.177734 0
M  V30 24 N -7.802797 -2.206763 1.458663 0
M  V30 25 C -6.573462 -2.194175 2.002375 0
M  V30 26 N -5.585795 -1.664758 1.301420 0
M  V30 27 C -5.660782 -1.122718 0.078602 0
M  V30 28 C -0.120033 -0.655944 -1.277834 0
M  V30 29 C 1.206069 -0.466277 -0.947815 0
M  V30 30 C 4.081954 -0.171326 -0.194430 0
M  V30 31 H 1.060678 -3.954208 1.957216 0
M  V30 32 H 2.573253 -4.899954 2.211684 0
M  V30 33 H 1.486812 -4.537991 3.642025 0
M  V30 34 H 3.318757 -3.119836 3.840341 0
M  V30 35 H 1.852777 -2.178202 3.404601 0
M  V30 36 H 5.655197 -1.238710 0.735330 0
M  V30 37 H 6.147959 1.124928 0.736272 0
M  V30 38 H 6.107783 0.450098 2.447943 0
M  V30 39 H 4.775098 2.657290 2.245642 0
M  V30 40 H 3.733594 1.171180 2.615272 0
M  V30 41 H 4.491700 2.311780 -0.119794 0
M  V30 42 H 2.920499 2.748262 0.724586 0
M  V30 43 H 0.963591 2.526296 0.446283 0
M  V30 44 H -1.344202 2.218673 -0.118305 0
M  V30 45 H -2.830784 0.505857 -2.210591 0
M  V30 46 H -9.487415 -2.321423 -1.013626 0
M  V30 47 H -6.376374 -2.605949 2.995578 0
M  V30 48 H -0.506188 -1.529185 -1.766467 0
M  V30 49 H 1.818432 -1.300225 -1.238234 0
M  V30 50 H 3.727428 -1.080410 -0.712077 0
M  V30 51 H 4.837977 0.269591 -0.911878 0
M  V30 END ATOM
M  V30 BEGIN BOND
M  V30 1 1 1 2
M  V30 2 1 2 3
M  V30 3 1 3 4
M  V30 4 2 4 5
M  V30 5 1 4 6
M  V30 6 1 6 7
M  V30 7 1 7 8
M  V30 8 1 8 9
M  V30 9 1 9 10
M  V30 10 1 10 11
M  V30 11 2 11 12
M  V30 12 1 12 13
M  V30 13 2 13 14
M  V30 14 1 14 15
M  V30 15 1 15 16
M  V30 16 2 16 17
M  V30 17 1 16 18
M  V30 18 1 18 19
M  V30 19 1 19 20
M  V30 20 2 20 21
M  V30 21 1 21 22
M  V30 22 1 22 23
M  V30 23 2 22 24
M  V30 24 1 24 25
M  V30 25 2 25 26
M  V30 26 1 26 27
M  V30 27 1 14 28
M  V30 28 2 28 29
M  V30 29 1 10 30
M  V30 30 1 30 6
M  V30 31 1 29 11
M  V30 32 2 27 18
M  V30 33 1 27 21
M  V30 34 1 1 31
M  V30 35 1 1 32
M  V30 36 1 1 33
M  V30 37 1 2 34
M  V30 38 1 2 35
M  V30 39 1 6 36
M  V30 40 1 7 37
M  V30 41 1 7 38
M  V30 42 1 8 39
M  V30 43 1 8 40
M  V30 44 1 9 41
M  V30 45 1 9 42
M  V30 46 1 12 43
M  V30 47 1 13 44
M  V30 48 1 15 45
M  V30 49 1 23 46
M  V30 50 1 25 47
M  V30 51 1 28 48
M  V30 52 1 29 49
M  V30 53 1 30 50
M  V30 54 1 30 51
M  V30 END BOND
M  V30 END CTAB
M  END
>  <Dataset>  (333) 
ChEMBL_Kinases

>  <Ligand_Instance>  (333) 
nan

>  <PDB_ID>  (333) 
nan

>  <Standardized_SMILES>  (333) 
CCOC(=O)C1CCCN(c2ccc(NC(=O)c3snc4c(O)ncnc34)cc2)C1

>  <Name>  (333) 
nan

>  <Pocket>  (333) 
nan

>  <ATP_Site>  (333) 
nan

>  <Peripheral>  (333) 
nan

>  <Num_H_Atoms_ProtBoundConf>  (333) 
nan

>  <Num_Resolved_Atoms>  (333) 
nan

>  <Num_Not_Resolved_Atoms>  (333) 
nan

$$$$
CHEMBL1366732
     RDKit          3D

  0  0  0  0  0  0  0  0  0  0999 V3000
M  V30 BEGIN CTAB
M  V30 COUNTS 36 38 0 0 0
M  V30 BEGIN ATOM
M  V30 1 C 0.983254 -1.403212 4.996957 0
M  V30 2 O 1.279349 -2.626699 4.350385 0
M  V30 3 C 1.500033 -2.655080 2.997212 0
M  V30 4 C 1.786339 -3.880065 2.413342 0
M  V30 5 C 2.010338 -3.926694 1.057457 0
M  V30 6 C 1.939960 -2.756249 0.342355 0
M  V30 7 C 1.654222 -1.501014 0.891401 0
M  V30 8 C 1.637396 -0.376625 -0.028110 0
M  V30 9 C 2.805947 -0.312777 -0.796705 0
M  V30 10 N 2.934844 0.709154 -1.688143 0
M  V30 11 C 1.941392 1.633229 -1.812341 0
M  V30 12 N 0.831997 1.541942 -1.058826 0
M  V30 13 C 0.640188 0.563786 -0.164096 0
M  V30 14 N -0.521955 0.427549 0.632134 0
M  V30 15 C -1.630048 1.353901 0.578210 0
M  V30 16 C -2.185829 1.323788 -0.788600 0
M  V30 17 C -3.147767 0.541953 -1.321655 0
M  V30 18 C -3.534350 0.664484 -2.605492 0
M  V30 19 C -2.839959 1.683382 -3.334060 0
M  V30 20 S -1.688899 2.390235 -2.136247 0
M  V30 21 C 1.436994 -1.498693 2.251393 0
M  V30 22 H 1.887564 -0.756437 5.015808 0
M  V30 23 H 0.099148 -0.893144 4.549106 0
M  V30 24 H 0.692088 -1.677665 6.033666 0
M  V30 25 H 1.833602 -4.780193 3.005150 0
M  V30 26 H 2.231340 -4.861363 0.597120 0
M  V30 27 H 2.125567 -2.843249 -0.733406 0
M  V30 28 H 3.637644 -0.986657 -0.772016 0
M  V30 29 H 2.001208 2.472500 -2.515725 0
M  V30 30 H -0.647612 -0.349621 1.295259 0
M  V30 31 H -2.442389 1.112521 1.261313 0
M  V30 32 H -1.240243 2.366128 0.819309 0
M  V30 33 H -3.613272 -0.210806 -0.662701 0
M  V30 34 H -4.301232 0.068649 -3.097589 0
M  V30 35 H -3.109336 1.868430 -4.472770 0
M  V30 36 H 1.226141 -0.552259 2.695888 0
M  V30 END ATOM
M  V30 BEGIN BOND
M  V30 1 1 1 2
M  V30 2 1 2 3
M  V30 3 2 3 4
M  V30 4 1 4 5
M  V30 5 2 5 6
M  V30 6 1 6 7
M  V30 7 1 7 8
M  V30 8 2 8 9
M  V30 9 1 9 10
M  V30 10 2 10 11
M  V30 11 1 11 12
M  V30 12 2 12 13
M  V30 13 1 13 14
M  V30 14 1 14 15
M  V30 15 1 15 16
M  V30 16 2 16 17
M  V30 17 1 17 18
M  V30 18 2 18 19
M  V30 19 1 19 20
M  V30 20 2 7 21
M  V30 21 1 21 3
M  V30 22 1 13 8
M  V30 23 1 20 16
M  V30 24 1 1 22
M  V30 25 1 1 23
M  V30 26 1 1 24
M  V30 27 1 4 25
M  V30 28 1 5 26
M  V30 29 1 6 27
M  V30 30 1 9 28
M  V30 31 1 11 29
M  V30 32 1 14 30
M  V30 33 1 15 31
M  V30 34 1 15 32
M  V30 35 1 17 33
M  V30 36 1 18 34
M  V30 37 1 19 35
M  V30 38 1 21 36
M  V30 END BOND
M  V30 END CTAB
M  END
>  <Dataset>  (334) 
ChEMBL_Kinases

>  <Ligand_Instance>  (334) 
nan

>  <PDB_ID>  (334) 
nan

>  <Standardized_SMILES>  (334) 
COc1cccc(-c2cncnc2NCc2cccs2)c1

>  <Name>  (334) 
nan

>  <Pocket>  (334) 
nan

>  <ATP_Site>  (334) 
nan

>  <Peripheral>  (334) 
nan

>  <Num_H_Atoms_ProtBoundConf>  (334) 
nan

>  <Num_Resolved_Atoms>  (334) 
nan

>  <Num_Not_Resolved_Atoms>  (334) 
nan

$$$$
CHEMBL1366444
     RDKit          3D

  0  0  0  0  0  0  0  0  0  0999 V3000
M  V30 BEGIN CTAB
M  V30 COUNTS 42 44 0 0 0
M  V30 BEGIN ATOM
M  V30 1 C -1.956539 -4.292668 -0.319172 0
M  V30 2 C -1.308733 -3.133842 -1.029349 0
M  V30 3 C -2.005495 -1.855667 -0.645896 0
M  V30 4 N -1.418528 -0.699148 -1.305445 0
M  V30 5 C -1.934330 -0.358156 -2.496962 0
M  V30 6 O -2.880058 -1.008786 -3.017271 0
M  V30 7 N -1.410616 0.711251 -3.133874 0
M  V30 8 C -0.402036 1.394558 -2.565571 0
M  V30 9 O 0.014123 2.354940 -3.211886 0
M  V30 10 C 0.129123 1.049595 -1.348011 0
M  V30 11 C 1.158539 1.828503 -0.860924 0
M  V30 12 C 1.784335 2.976742 -1.513562 0
M  V30 13 F 2.420888 2.731052 -2.705422 0
M  V30 14 F 2.832784 3.405340 -0.714306 0
M  V30 15 F 0.974794 4.096190 -1.554737 0
M  V30 16 C 1.600601 1.372604 0.392366 0
M  V30 17 C 1.084704 0.297940 1.050280 0
M  V30 18 C 1.575437 -0.140157 2.351836 0
M  V30 19 C 0.972636 -1.258545 2.939310 0
M  V30 20 C 1.366463 -1.754885 4.174933 0
M  V30 21 C 2.383675 -1.146397 4.871324 0
M  V30 22 C 2.897748 -1.577813 6.198516 0
M  V30 23 C 2.981163 -0.049599 4.304516 0
M  V30 24 C 2.584150 0.436138 3.078188 0
M  V30 25 N 0.093332 -0.392564 0.500306 0
M  V30 26 C -0.410049 -0.042686 -0.702390 0
M  V30 27 H -2.077547 -5.136556 -1.059080 0
M  V30 28 H -1.339614 -4.707354 0.502986 0
M  V30 29 H -2.943751 -4.033680 0.130934 0
M  V30 30 H -0.242982 -3.054120 -0.682055 0
M  V30 31 H -1.281628 -3.267718 -2.122939 0
M  V30 32 H -1.910454 -1.738556 0.461669 0
M  V30 33 H -3.085173 -1.939141 -0.851963 0
M  V30 34 H -1.833635 0.947551 -4.054205 0
M  V30 35 H 2.424393 1.949183 0.845664 0
M  V30 36 H 0.166081 -1.790935 2.453007 0
M  V30 37 H 0.907681 -2.613153 4.631394 0
M  V30 38 H 2.582764 -2.628465 6.415564 0
M  V30 39 H 4.013919 -1.592385 6.179391 0
M  V30 40 H 2.502196 -0.890273 6.972915 0
M  V30 41 H 3.792172 0.472688 4.810729 0
M  V30 42 H 3.062361 1.286425 2.660906 0
M  V30 END ATOM
M  V30 BEGIN BOND
M  V30 1 1 1 2
M  V30 2 1 2 3
M  V30 3 1 3 4
M  V30 4 1 4 5
M  V30 5 2 5 6
M  V30 6 1 5 7
M  V30 7 1 7 8
M  V30 8 2 8 9
M  V30 9 1 8 10
M  V30 10 2 10 11
M  V30 11 1 11 12
M  V30 12 1 12 13
M  V30 13 1 12 14
M  V30 14 1 12 15
M  V30 15 1 11 16
M  V30 16 2 16 17
M  V30 17 1 17 18
M  V30 18 2 18 19
M  V30 19 1 19 20
M  V30 20 2 20 21
M  V30 21 1 21 22
M  V30 22 1 21 23
M  V30 23 2 23 24
M  V30 24 1 17 25
M  V30 25 2 25 26
M  V30 26 1 26 4
M  V30 27 1 26 10
M  V30 28 1 24 18
M  V30 29 1 1 27
M  V30 30 1 1 28
M  V30 31 1 1 29
M  V30 32 1 2 30
M  V30 33 1 2 31
M  V30 34 1 3 32
M  V30 35 1 3 33
M  V30 36 1 7 34
M  V30 37 1 16 35
M  V30 38 1 19 36
M  V30 39 1 20 37
M  V30 40 1 22 38
M  V30 41 1 22 39
M  V30 42 1 22 40
M  V30 43 1 23 41
M  V30 44 1 24 42
M  V30 END BOND
M  V30 END CTAB
M  END
>  <Dataset>  (335) 
ChEMBL_Kinases

>  <Ligand_Instance>  (335) 
nan

>  <PDB_ID>  (335) 
nan

>  <Standardized_SMILES>  (335) 
CCCn1c(=O)[nH]c(=O)c2c(C(F)(F)F)cc(-c3ccc(C)cc3)nc21

>  <Name>  (335) 
nan

>  <Pocket>  (335) 
nan

>  <ATP_Site>  (335) 
nan

>  <Peripheral>  (335) 
nan

>  <Num_H_Atoms_ProtBoundConf>  (335) 
nan

>  <Num_Resolved_Atoms>  (335) 
nan

>  <Num_Not_Resolved_Atoms>  (335) 
nan

$$$$
CHEMBL1366433
     RDKit          3D

  0  0  0  0  0  0  0  0  0  0999 V3000
M  V30 BEGIN CTAB
M  V30 COUNTS 46 49 0 0 0
M  V30 BEGIN ATOM
M  V30 1 C 2.233489 -2.906419 2.239478 0
M  V30 2 S 3.853234 -3.040328 1.525250 0
M  V30 3 O 4.700945 -3.980349 2.320609 0
M  V30 4 O 3.740294 -3.560346 0.111655 0
M  V30 5 N 4.657992 -1.512944 1.552018 0
M  V30 6 C 4.271928 -0.301696 0.914243 0
M  V30 7 C 5.178679 0.492213 0.205347 0
M  V30 8 C 4.843003 1.670749 -0.427832 0
M  V30 9 C 3.535002 2.105102 -0.365866 0
M  V30 10 C 2.591891 1.366137 0.318866 0
M  V30 11 C 1.186075 1.823415 0.391910 0
M  V30 12 C 0.918741 3.174784 0.395841 0
M  V30 13 C -0.399264 3.569119 0.465245 0
M  V30 14 C -1.402970 2.627028 0.528152 0
M  V30 15 N -2.663112 3.083765 0.593367 0
M  V30 16 C -3.716983 2.251449 0.657582 0
M  V30 17 N -3.441325 0.946183 0.652986 0
M  V30 18 C -2.230080 0.385939 0.591360 0
M  V30 19 N -1.946372 -0.998920 0.586873 0
M  V30 20 C -2.835358 -2.098965 0.622301 0
M  V30 21 C -2.468141 -3.443738 0.714812 0
M  V30 22 C -3.360364 -4.477323 0.741917 0
M  V30 23 C -4.700350 -4.251186 0.678430 0
M  V30 24 F -5.514269 -5.314110 0.709831 0
M  V30 25 C -5.115799 -2.939296 0.586092 0
M  V30 26 C -4.196413 -1.923498 0.560982 0
M  V30 27 C -1.177872 1.268478 0.526669 0
M  V30 28 C 0.154671 0.926749 0.455918 0
M  V30 29 C 3.003687 0.197389 0.927019 0
M  V30 30 H 1.980703 -3.910954 2.644666 0
M  V30 31 H 1.502538 -2.624435 1.441933 0
M  V30 32 H 2.235182 -2.133461 3.031377 0
M  V30 33 H 5.564777 -1.335848 2.078753 0
M  V30 34 H 6.227669 0.167490 0.141449 0
M  V30 35 H 5.607048 2.215310 -0.949649 0
M  V30 36 H 3.277268 3.029525 -0.864075 0
M  V30 37 H 1.701200 3.912707 0.346882 0
M  V30 38 H -0.598660 4.645391 0.467417 0
M  V30 39 H -4.759457 2.552016 0.712034 0
M  V30 40 H -0.979279 -1.364408 0.554273 0
M  V30 41 H -1.388225 -3.652945 0.767815 0
M  V30 42 H -2.952683 -5.469436 0.815438 0
M  V30 43 H -6.193120 -2.811748 0.538255 0
M  V30 44 H -4.689510 -0.976105 0.485330 0
M  V30 45 H 0.432936 -0.094025 0.448393 0
M  V30 46 H 2.218951 -0.334924 1.446555 0
M  V30 END ATOM
M  V30 BEGIN BOND
M  V30 1 1 1 2
M  V30 2 2 2 3
M  V30 3 2 2 4
M  V30 4 1 2 5
M  V30 5 1 5 6
M  V30 6 2 6 7
M  V30 7 1 7 8
M  V30 8 2 8 9
M  V30 9 1 9 10
M  V30 10 1 10 11
M  V30 11 2 11 12
M  V30 12 1 12 13
M  V30 13 2 13 14
M  V30 14 1 14 15
M  V30 15 2 15 16
M  V30 16 1 16 17
M  V30 17 2 17 18
M  V30 18 1 18 19
M  V30 19 1 19 20
M  V30 20 2 20 21
M  V30 21 1 21 22
M  V30 22 2 22 23
M  V30 23 1 23 24
M  V30 24 1 23 25
M  V30 25 2 25 26
M  V30 26 1 18 27
M  V30 27 2 27 28
M  V30 28 2 10 29
M  V30 29 1 29 6
M  V30 30 1 28 11
M  V30 31 1 27 14
M  V30 32 1 26 20
M  V30 33 1 1 30
M  V30 34 1 1 31
M  V30 35 1 1 32
M  V30 36 1 5 33
M  V30 37 1 7 34
M  V30 38 1 8 35
M  V30 39 1 9 36
M  V30 40 1 12 37
M  V30 41 1 13 38
M  V30 42 1 16 39
M  V30 43 1 19 40
M  V30 44 1 21 41
M  V30 45 1 22 42
M  V30 46 1 25 43
M  V30 47 1 26 44
M  V30 48 1 28 45
M  V30 49 1 29 46
M  V30 END BOND
M  V30 END CTAB
M  END
>  <Dataset>  (336) 
ChEMBL_Kinases

>  <Ligand_Instance>  (336) 
nan

>  <PDB_ID>  (336) 
nan

>  <Standardized_SMILES>  (336) 
CS(=O)(=O)Nc1cccc(-c2ccc3ncnc(Nc4ccc(F)cc4)c3c2)c1

>  <Name>  (336) 
nan

>  <Pocket>  (336) 
nan

>  <ATP_Site>  (336) 
nan

>  <Peripheral>  (336) 
nan

>  <Num_H_Atoms_ProtBoundConf>  (336) 
nan

>  <Num_Resolved_Atoms>  (336) 
nan

>  <Num_Not_Resolved_Atoms>  (336) 
nan

$$$$
CHEMBL1366408
     RDKit          3D

  0  0  0  0  0  0  0  0  0  0999 V3000
M  V30 BEGIN CTAB
M  V30 COUNTS 55 58 0 0 0
M  V30 BEGIN ATOM
M  V30 1 C 4.369872 -2.334704 0.996062 0
M  V30 2 C 4.229476 -0.969273 1.532738 0
M  V30 3 C 5.312152 -0.357204 2.130192 0
M  V30 4 C 6.619207 -0.992783 2.267173 0
M  V30 5 O 7.530763 -0.910950 1.422273 0
M  V30 6 O 6.813519 -1.723866 3.427661 0
M  V30 7 C 5.226010 0.918357 2.645566 0
M  V30 8 O 6.290314 1.591051 3.263068 0
M  V30 9 C 4.026124 1.602068 2.562402 0
M  V30 10 C 2.935008 0.977683 1.957083 0
M  V30 11 C 3.028674 -0.302450 1.442112 0
M  V30 12 C 1.852957 -0.899997 0.821841 0
M  V30 13 O 1.924043 -2.050069 0.355124 0
M  V30 14 C 0.636783 -0.097178 0.784224 0
M  V30 15 C -0.519743 -0.614775 0.203886 0
M  V30 16 O -0.440803 -1.895558 -0.315948 0
M  V30 17 C -1.690427 0.103576 0.144508 0
M  V30 18 C -2.856279 -0.544163 -0.494090 0 CFG=1
M  V30 19 O -2.433135 -1.189850 -1.644182 0
M  V30 20 C -3.465783 -1.783573 -2.344803 0 CFG=2
M  V30 21 C -4.628444 -0.867015 -2.599682 0
M  V30 22 O -4.299630 0.250038 -3.330740 0
M  V30 23 C -3.907114 -2.959411 -1.532562 0 CFG=1
M  V30 24 O -2.967573 -3.983040 -1.726068 0
M  V30 25 C -4.142054 -2.668441 -0.081554 0 CFG=2
M  V30 26 O -5.505391 -2.914035 0.172192 0
M  V30 27 C -3.733502 -1.327958 0.401214 0 CFG=1
M  V30 28 O -3.112511 -1.510869 1.661058 0
M  V30 29 C -1.752970 1.393583 0.673373 0
M  V30 30 O -2.962121 2.084864 0.590506 0
M  V30 31 C -0.621933 1.928898 1.253302 0
M  V30 32 O -0.691039 3.204086 1.773824 0
M  V30 33 C 0.535179 1.178938 1.295015 0
M  V30 34 C 1.709098 1.763347 1.909143 0
M  V30 35 O 1.638299 2.932843 2.384215 0
M  V30 36 H 4.197993 -2.373836 -0.095509 0
M  V30 37 H 3.709187 -3.013387 1.578739 0
M  V30 38 H 5.396706 -2.711329 1.152145 0
M  V30 39 H 7.666634 -2.191300 3.671915 0
M  V30 40 H 7.007507 0.987895 3.637510 0
M  V30 41 H 3.950231 2.611199 2.967727 0
M  V30 42 H -0.016691 -1.967426 -1.241838 0
M  V30 43 H -3.465285 0.323178 -0.888089 0
M  V30 44 H -3.061806 -2.147775 -3.304736 0
M  V30 45 H -5.162852 -0.618696 -1.660488 0
M  V30 46 H -5.353785 -1.446994 -3.210552 0
M  V30 47 H -5.018536 0.925701 -3.194352 0
M  V30 48 H -4.830740 -3.351996 -2.051602 0
M  V30 49 H -2.319204 -3.757449 -2.408536 0
M  V30 50 H -3.632517 -3.499046 0.491063 0
M  V30 51 H -5.576584 -3.044189 1.152560 0
M  V30 52 H -4.666037 -0.763109 0.683014 0
M  V30 53 H -3.778273 -1.901350 2.284540 0
M  V30 54 H -3.276965 2.576657 -0.237489 0
M  V30 55 H -0.770933 3.390148 2.781100 0
M  V30 END ATOM
M  V30 BEGIN BOND
M  V30 1 1 1 2
M  V30 2 2 2 3
M  V30 3 1 3 4
M  V30 4 2 4 5
M  V30 5 1 4 6
M  V30 6 1 3 7
M  V30 7 1 7 8
M  V30 8 2 7 9
M  V30 9 1 9 10
M  V30 10 2 10 11
M  V30 11 1 11 12
M  V30 12 2 12 13
M  V30 13 1 12 14
M  V30 14 2 14 15
M  V30 15 1 15 16
M  V30 16 1 15 17
M  V30 17 1 17 18
M  V30 18 1 18 19
M  V30 19 1 19 20
M  V30 20 1 20 21
M  V30 21 1 21 22
M  V30 22 1 20 23
M  V30 23 1 23 24
M  V30 24 1 23 25
M  V30 25 1 25 26
M  V30 26 1 25 27
M  V30 27 1 27 28
M  V30 28 2 17 29
M  V30 29 1 29 30
M  V30 30 1 29 31
M  V30 31 1 31 32
M  V30 32 2 31 33
M  V30 33 1 33 34
M  V30 34 2 34 35
M  V30 35 1 11 2
M  V30 36 1 33 14
M  V30 37 1 34 10
M  V30 38 1 27 18
M  V30 39 1 1 36
M  V30 40 1 1 37
M  V30 41 1 1 38
M  V30 42 1 6 39
M  V30 43 1 8 40
M  V30 44 1 9 41
M  V30 45 1 16 42
M  V30 46 1 18 43 CFG=3
M  V30 47 1 20 44 CFG=3
M  V30 48 1 21 45
M  V30 49 1 21 46
M  V30 50 1 22 47
M  V30 51 1 23 48 CFG=3
M  V30 52 1 24 49
M  V30 53 1 25 50 CFG=1
M  V30 54 1 26 51
M  V30 55 1 27 52 CFG=1
M  V30 56 1 28 53
M  V30 57 1 30 54
M  V30 58 1 32 55
M  V30 END BOND
M  V30 END CTAB
M  END
>  <Dataset>  (337) 
ChEMBL_Kinases

>  <Ligand_Instance>  (337) 
nan

>  <PDB_ID>  (337) 
nan

>  <Standardized_SMILES>  (337) 
Cc1c(C(=O)O)c(O)cc2c1C(=O)c1c(O)c([C@H]3O[C@H](CO)[C@@H](O)[C@H](O)[C@H]3O)c(O)c(O)c1C2=O

>  <Name>  (337) 
CARMINE

>  <Pocket>  (337) 
nan

>  <ATP_Site>  (337) 
nan

>  <Peripheral>  (337) 
nan

>  <Num_H_Atoms_ProtBoundConf>  (337) 
nan

>  <Num_Resolved_Atoms>  (337) 
nan

>  <Num_Not_Resolved_Atoms>  (337) 
nan

$$$$
CHEMBL1366345
     RDKit          3D

  0  0  0  0  0  0  0  0  0  0999 V3000
M  V30 BEGIN CTAB
M  V30 COUNTS 42 43 0 0 0
M  V30 BEGIN ATOM
M  V30 1 O -0.392869 -4.280233 2.612802 0
M  V30 2 C 0.282318 -3.313472 2.218097 0
M  V30 3 C 1.602109 -3.557244 1.545746 0
M  V30 4 O 2.201490 -2.351506 1.178615 0
M  V30 5 C 3.431140 -2.321174 0.544220 0
M  V30 6 O 4.085019 -3.350973 0.259488 0
M  V30 7 C 3.916678 -0.956654 0.225694 0
M  V30 8 C 3.623616 -0.724741 -1.264078 0
M  V30 9 S 4.173471 0.956402 -1.708903 0
M  V30 10 C 3.115358 2.122102 -0.816460 0
M  V30 11 C 1.987705 2.464542 -1.553575 0
M  V30 12 C 1.050735 3.349991 -1.017822 0
M  V30 13 C 1.261689 3.871640 0.239638 0
M  V30 14 Cl 0.110362 4.992185 0.963517 0
M  V30 15 C 2.386751 3.512534 0.941591 0
M  V30 16 C 3.327531 2.637590 0.430161 0
M  V30 17 N -0.156328 -1.983229 2.383637 0
M  V30 18 C -1.396758 -1.538479 3.004945 0
M  V30 19 C -2.556003 -1.736491 2.084647 0
M  V30 20 C -2.817858 -0.659070 1.258343 0
M  V30 21 C -3.851406 -0.667002 0.348182 0
M  V30 22 C -4.617874 -1.817456 0.304927 0
M  V30 23 Cl -5.961443 -1.937261 -0.816647 0
M  V30 24 C -4.351996 -2.893822 1.134182 0
M  V30 25 C -3.316621 -2.870956 2.037836 0
M  V30 26 H 1.347226 -4.107882 0.601932 0
M  V30 27 H 2.243250 -4.219828 2.138508 0
M  V30 28 H 3.401655 -0.184438 0.803289 0
M  V30 29 H 5.016540 -0.942617 0.379709 0
M  V30 30 H 4.115842 -1.468658 -1.889199 0
M  V30 31 H 2.526177 -0.835798 -1.372063 0
M  V30 32 H 1.735403 2.105267 -2.551553 0
M  V30 33 H 0.165777 3.637045 -1.561868 0
M  V30 34 H 2.600882 3.892942 1.934365 0
M  V30 35 H 4.234353 2.294196 0.893086 0
M  V30 36 H 0.475672 -1.209477 2.021141 0
M  V30 37 H -1.301566 -0.507515 3.367726 0
M  V30 38 H -1.551297 -2.167350 3.933455 0
M  V30 39 H -2.217062 0.264140 1.280417 0
M  V30 40 H -4.041666 0.186945 -0.291283 0
M  V30 41 H -4.961778 -3.801973 1.096105 0
M  V30 42 H -3.061330 -3.674772 2.709164 0
M  V30 END ATOM
M  V30 BEGIN BOND
M  V30 1 2 1 2
M  V30 2 1 2 3
M  V30 3 1 3 4
M  V30 4 1 4 5
M  V30 5 2 5 6
M  V30 6 1 5 7
M  V30 7 1 7 8
M  V30 8 1 8 9
M  V30 9 1 9 10
M  V30 10 2 10 11
M  V30 11 1 11 12
M  V30 12 2 12 13
M  V30 13 1 13 14
M  V30 14 1 13 15
M  V30 15 2 15 16
M  V30 16 1 2 17
M  V30 17 1 17 18
M  V30 18 1 18 19
M  V30 19 2 19 20
M  V30 20 1 20 21
M  V30 21 2 21 22
M  V30 22 1 22 23
M  V30 23 1 22 24
M  V30 24 2 24 25
M  V30 25 1 16 10
M  V30 26 1 25 19
M  V30 27 1 3 26
M  V30 28 1 3 27
M  V30 29 1 7 28
M  V30 30 1 7 29
M  V30 31 1 8 30
M  V30 32 1 8 31
M  V30 33 1 11 32
M  V30 34 1 12 33
M  V30 35 1 15 34
M  V30 36 1 16 35
M  V30 37 1 17 36
M  V30 38 1 18 37
M  V30 39 1 18 38
M  V30 40 1 20 39
M  V30 41 1 21 40
M  V30 42 1 24 41
M  V30 43 1 25 42
M  V30 END BOND
M  V30 END CTAB
M  END
>  <Dataset>  (338) 
ChEMBL_Kinases

>  <Ligand_Instance>  (338) 
nan

>  <PDB_ID>  (338) 
nan

>  <Standardized_SMILES>  (338) 
O=C(COC(=O)CCSc1ccc(Cl)cc1)NCc1ccc(Cl)cc1

>  <Name>  (338) 
nan

>  <Pocket>  (338) 
nan

>  <ATP_Site>  (338) 
nan

>  <Peripheral>  (338) 
nan

>  <Num_H_Atoms_ProtBoundConf>  (338) 
nan

>  <Num_Resolved_Atoms>  (338) 
nan

>  <Num_Not_Resolved_Atoms>  (338) 
nan

$$$$
CHEMBL1366323
     RDKit          3D

  0  0  0  0  0  0  0  0  0  0999 V3000
M  V30 BEGIN CTAB
M  V30 COUNTS 58 59 0 0 0
M  V30 BEGIN ATOM
M  V30 1 C 3.753468 -2.755817 1.089058 0
M  V30 2 O 4.734749 -1.871862 1.466199 0
M  V30 3 C 4.281916 -0.606101 1.754573 0
M  V30 4 C 3.270336 -0.596499 2.902112 0
M  V30 5 C 2.809660 0.810957 3.193721 0
M  V30 6 N 2.176432 1.379697 2.034774 0
M  V30 7 C 0.986769 0.826531 1.430415 0
M  V30 8 O 0.485388 -0.205283 1.944564 0
M  V30 9 C 0.552071 1.621717 0.256144 0
M  V30 10 N -0.644201 1.155877 -0.382406 0
M  V30 11 C -1.816620 1.733755 0.237901 0
M  V30 12 C -2.253711 2.934275 -0.271432 0
M  V30 13 C -3.340587 3.645599 0.177096 0
M  V30 14 C -4.052375 3.107085 1.227936 0
M  V30 15 O -5.175604 3.636910 1.846033 0
M  V30 16 C -5.659531 4.879983 1.347210 0
M  V30 17 C -3.642543 1.893416 1.771507 0
M  V30 18 C -2.549846 1.201143 1.303454 0
M  V30 19 S -0.970041 0.093234 -1.697642 0
M  V30 20 O -0.306949 0.678667 -2.941788 0
M  V30 21 O -2.431818 0.051722 -2.021540 0
M  V30 22 C -0.406665 -1.536460 -1.423583 0
M  V30 23 C 0.807199 -2.096154 -1.763242 0
M  V30 24 C 1.072771 -3.418862 -1.470238 0
M  V30 25 C 0.145581 -4.218713 -0.834874 0
M  V30 26 N 0.436397 -5.580945 -0.540291 0
M  V30 27 C 0.070583 -6.471951 -1.571563 0
M  V30 28 C 0.253403 -7.962917 -1.545719 0
M  V30 29 O -0.461223 -6.017471 -2.628631 0
M  V30 30 C -1.079455 -3.698057 -0.478374 0
M  V30 31 C -1.325641 -2.374726 -0.779812 0
M  V30 32 H 3.206366 -2.417150 0.168621 0
M  V30 33 H 4.249432 -3.705945 0.776557 0
M  V30 34 H 3.085178 -3.040458 1.919781 0
M  V30 35 H 5.136029 0.013803 2.120853 0
M  V30 36 H 3.841159 -0.113518 0.872308 0
M  V30 37 H 2.442429 -1.245236 2.613101 0
M  V30 38 H 3.782547 -1.013196 3.814591 0
M  V30 39 H 2.066292 0.727466 4.024109 0
M  V30 40 H 3.687102 1.420302 3.506669 0
M  V30 41 H 2.651813 2.252123 1.644351 0
M  V30 42 H 1.431573 1.587025 -0.450489 0
M  V30 43 H 0.459668 2.704682 0.538246 0
M  V30 44 H -1.726554 3.394814 -1.095945 0
M  V30 45 H -3.703649 4.585046 -0.202663 0
M  V30 46 H -6.745255 4.893853 1.647261 0
M  V30 47 H -5.690015 4.834548 0.221600 0
M  V30 48 H -5.132427 5.747968 1.740346 0
M  V30 49 H -4.109849 1.356849 2.599009 0
M  V30 50 H -2.185523 0.258920 1.679842 0
M  V30 51 H 1.471063 -1.397493 -2.256839 0
M  V30 52 H 2.034714 -3.800064 -1.759202 0
M  V30 53 H 0.872613 -6.003839 0.312595 0
M  V30 54 H 0.404261 -8.336270 -0.530195 0
M  V30 55 H -0.575932 -8.459972 -2.076014 0
M  V30 56 H 1.181499 -8.168772 -2.117947 0
M  V30 57 H -1.804686 -4.323460 0.018298 0
M  V30 58 H -2.305155 -2.028626 -0.473138 0
M  V30 END ATOM
M  V30 BEGIN BOND
M  V30 1 1 1 2
M  V30 2 1 2 3
M  V30 3 1 3 4
M  V30 4 1 4 5
M  V30 5 1 5 6
M  V30 6 1 6 7
M  V30 7 2 7 8
M  V30 8 1 7 9
M  V30 9 1 9 10
M  V30 10 1 10 11
M  V30 11 2 11 12
M  V30 12 1 12 13
M  V30 13 2 13 14
M  V30 14 1 14 15
M  V30 15 1 15 16
M  V30 16 1 14 17
M  V30 17 2 17 18
M  V30 18 1 10 19
M  V30 19 2 19 20
M  V30 20 2 19 21
M  V30 21 1 19 22
M  V30 22 2 22 23
M  V30 23 1 23 24
M  V30 24 2 24 25
M  V30 25 1 25 26
M  V30 26 1 26 27
M  V30 27 1 27 28
M  V30 28 2 27 29
M  V30 29 1 25 30
M  V30 30 2 30 31
M  V30 31 1 18 11
M  V30 32 1 31 22
M  V30 33 1 1 32
M  V30 34 1 1 33
M  V30 35 1 1 34
M  V30 36 1 3 35
M  V30 37 1 3 36
M  V30 38 1 4 37
M  V30 39 1 4 38
M  V30 40 1 5 39
M  V30 41 1 5 40
M  V30 42 1 6 41
M  V30 43 1 9 42
M  V30 44 1 9 43
M  V30 45 1 12 44
M  V30 46 1 13 45
M  V30 47 1 16 46
M  V30 48 1 16 47
M  V30 49 1 16 48
M  V30 50 1 17 49
M  V30 51 1 18 50
M  V30 52 1 23 51
M  V30 53 1 24 52
M  V30 54 1 26 53
M  V30 55 1 28 54
M  V30 56 1 28 55
M  V30 57 1 28 56
M  V30 58 1 30 57
M  V30 59 1 31 58
M  V30 END BOND
M  V30 END CTAB
M  END
>  <Dataset>  (339) 
ChEMBL_Kinases

>  <Ligand_Instance>  (339) 
nan

>  <PDB_ID>  (339) 
nan

>  <Standardized_SMILES>  (339) 
COCCCNC(=O)CN(c1ccc(OC)cc1)S(=O)(=O)c1ccc(NC(C)=O)cc1

>  <Name>  (339) 
nan

>  <Pocket>  (339) 
nan

>  <ATP_Site>  (339) 
nan

>  <Peripheral>  (339) 
nan

>  <Num_H_Atoms_ProtBoundConf>  (339) 
nan

>  <Num_Resolved_Atoms>  (339) 
nan

>  <Num_Not_Resolved_Atoms>  (339) 
nan

$$$$
CHEMBL1366315
     RDKit          3D

  0  0  0  0  0  0  0  0  0  0999 V3000
M  V30 BEGIN CTAB
M  V30 COUNTS 39 42 0 0 0
M  V30 BEGIN ATOM
M  V30 1 C 1.475441 -6.268033 -0.769147 0
M  V30 2 C 1.846905 -5.167414 0.171115 0
M  V30 3 C 2.753366 -5.519786 1.149200 0
M  V30 4 C 3.141527 -4.552350 2.051729 0
M  V30 5 C 2.630074 -3.268461 1.969624 0
M  V30 6 C 1.730334 -2.993781 0.966265 0
M  V30 7 C 1.287166 -3.896289 0.022784 0
M  V30 8 C 1.188757 -1.638256 0.888393 0
M  V30 9 N 0.299216 -1.257890 -0.048854 0
M  V30 10 C -0.194966 -0.007533 -0.105030 0
M  V30 11 C 0.157951 0.988626 0.781163 0
M  V30 12 C -0.345564 2.340177 0.837589 0
M  V30 13 O 0.499439 3.156776 1.342019 0
M  V30 14 C -1.588493 2.964428 0.453831 0
M  V30 15 C -2.729712 2.354089 -0.014276 0
M  V30 16 C -3.905598 2.984047 -0.348831 0
M  V30 17 Br -5.406695 1.986004 -0.989649 0
M  V30 18 C -3.959563 4.350614 -0.205693 0
M  V30 19 C -2.848356 5.024957 0.260175 0
M  V30 20 C -1.675762 4.326673 0.584923 0
M  V30 21 O -0.669640 5.185678 1.036097 0
M  V30 22 C 1.081396 0.553325 1.734780 0
M  V30 23 C 1.607387 -0.715306 1.821473 0
M  V30 24 C 2.577209 -0.970750 2.914937 0
M  V30 25 O 3.023546 -2.303944 2.877078 0
M  V30 26 H 0.544253 -6.018423 -1.288969 0
M  V30 27 H 2.275861 -6.385433 -1.520327 0
M  V30 28 H 1.405710 -7.236429 -0.226851 0
M  V30 29 H 3.164714 -6.519066 1.230236 0
M  V30 30 H 3.849178 -4.754021 2.849327 0
M  V30 31 H 0.578457 -3.671512 -0.764309 0
M  V30 32 H -0.881021 0.195133 -0.895170 0
M  V30 33 H -2.737519 1.286430 -0.129852 0
M  V30 34 H -4.875575 4.879921 -0.460904 0
M  V30 35 H -2.949940 6.088932 0.350036 0
M  V30 36 H -0.649890 5.645099 1.927222 0
M  V30 37 H 1.400061 1.288200 2.462793 0
M  V30 38 H 2.072332 -0.854206 3.918794 0
M  V30 39 H 3.414979 -0.241029 2.912391 0
M  V30 END ATOM
M  V30 BEGIN BOND
M  V30 1 1 1 2
M  V30 2 2 2 3
M  V30 3 1 3 4
M  V30 4 2 4 5
M  V30 5 1 5 6
M  V30 6 2 6 7
M  V30 7 1 6 8
M  V30 8 2 8 9
M  V30 9 1 9 10
M  V30 10 2 10 11
M  V30 11 1 11 12
M  V30 12 2 12 13
M  V30 13 1 12 14
M  V30 14 2 14 15
M  V30 15 1 15 16
M  V30 16 1 16 17
M  V30 17 2 16 18
M  V30 18 1 18 19
M  V30 19 2 19 20
M  V30 20 1 20 21
M  V30 21 1 11 22
M  V30 22 2 22 23
M  V30 23 1 23 24
M  V30 24 1 24 25
M  V30 25 1 7 2
M  V30 26 1 23 8
M  V30 27 1 25 5
M  V30 28 1 20 14
M  V30 29 1 1 26
M  V30 30 1 1 27
M  V30 31 1 1 28
M  V30 32 1 3 29
M  V30 33 1 4 30
M  V30 34 1 7 31
M  V30 35 1 10 32
M  V30 36 1 15 33
M  V30 37 1 18 34
M  V30 38 1 19 35
M  V30 39 1 21 36
M  V30 40 1 22 37
M  V30 41 1 24 38
M  V30 42 1 24 39
M  V30 END BOND
M  V30 END CTAB
M  END
>  <Dataset>  (340) 
ChEMBL_Kinases

>  <Ligand_Instance>  (340) 
nan

>  <PDB_ID>  (340) 
nan

>  <Standardized_SMILES>  (340) 
Cc1ccc2c(c1)-c1ncc(C(=O)c3cc(Br)ccc3O)cc1CO2

>  <Name>  (340) 
nan

>  <Pocket>  (340) 
nan

>  <ATP_Site>  (340) 
nan

>  <Peripheral>  (340) 
nan

>  <Num_H_Atoms_ProtBoundConf>  (340) 
nan

>  <Num_Resolved_Atoms>  (340) 
nan

>  <Num_Not_Resolved_Atoms>  (340) 
nan

$$$$
CHEMBL137
     RDKit          3D

  0  0  0  0  0  0  0  0  0  0999 V3000
M  V30 BEGIN CTAB
M  V30 COUNTS 21 21 0 0 0
M  V30 BEGIN ATOM
M  V30 1 C -0.365860 0.287683 3.124206 0
M  V30 2 C 0.732046 -0.223717 2.263105 0
M  V30 3 N 1.638985 -1.099513 2.729323 0
M  V30 4 C 2.527981 -1.416211 1.779206 0
M  V30 5 C 2.116890 -0.680574 0.688291 0
M  V30 6 N 2.687763 -0.619689 -0.608120 0 CHG=1 VAL=4
M  V30 7 O 3.693307 -1.234124 -1.017286 0
M  V30 8 O 2.357127 0.073390 -1.748955 0 CHG=-1 VAL=1
M  V30 9 N 1.020425 0.054992 0.964207 0
M  V30 10 C 0.270975 0.948345 0.138420 0
M  V30 11 C -0.858075 0.306827 -0.627348 0
M  V30 12 O -1.464887 1.331952 -1.368618 0
M  V30 13 H -1.263094 -0.353409 3.082070 0
M  V30 14 H -0.014263 0.407406 4.183590 0
M  V30 15 H -0.725404 1.300325 2.794275 0
M  V30 16 H 3.396824 -2.056815 1.710531 0
M  V30 17 H 0.941342 1.497814 -0.538299 0
M  V30 18 H -0.221145 1.732322 0.783680 0
M  V30 19 H -0.521379 -0.464501 -1.333525 0
M  V30 20 H -1.604353 -0.114630 0.076727 0
M  V30 21 H -2.297363 1.607293 -0.906926 0
M  V30 END ATOM
M  V30 BEGIN BOND
M  V30 1 1 1 2
M  V30 2 2 2 3
M  V30 3 1 3 4
M  V30 4 2 4 5
M  V30 5 1 5 6
M  V30 6 2 6 7
M  V30 7 1 6 8
M  V30 8 1 5 9
M  V30 9 1 9 10
M  V30 10 1 10 11
M  V30 11 1 11 12
M  V30 12 1 9 2
M  V30 13 1 1 13
M  V30 14 1 1 14
M  V30 15 1 1 15
M  V30 16 1 4 16
M  V30 17 1 10 17
M  V30 18 1 10 18
M  V30 19 1 11 19
M  V30 20 1 11 20
M  V30 21 1 12 21
M  V30 END BOND
M  V30 END CTAB
M  END
>  <Dataset>  (341) 
ChEMBL_Kinases

>  <Ligand_Instance>  (341) 
nan

>  <PDB_ID>  (341) 
nan

>  <Standardized_SMILES>  (341) 
Cc1ncc([N+](=O)[O-])n1CCO

>  <Name>  (341) 
METRONIDAZOLE

>  <Pocket>  (341) 
nan

>  <ATP_Site>  (341) 
nan

>  <Peripheral>  (341) 
nan

>  <Num_H_Atoms_ProtBoundConf>  (341) 
nan

>  <Num_Resolved_Atoms>  (341) 
nan

>  <Num_Not_Resolved_Atoms>  (341) 
nan

$$$$
CHEMBL1364314
     RDKit          3D

  0  0  0  0  0  0  0  0  0  0999 V3000
M  V30 BEGIN CTAB
M  V30 COUNTS 35 37 0 0 0
M  V30 BEGIN ATOM
M  V30 1 Br 0.291460 0.310458 4.598789 0
M  V30 2 C 0.440758 -0.678402 2.983318 0
M  V30 3 C 0.600001 -2.046378 2.989040 0
M  V30 4 N 0.701493 -2.700852 1.793916 0
M  V30 5 C 0.647691 -2.027430 0.627247 0
M  V30 6 N 0.748536 -2.663258 -0.642260 0
M  V30 7 C 0.709814 -2.086671 -1.976553 0
M  V30 8 C -0.439539 -2.915086 -2.566483 0
M  V30 9 C -0.316616 -4.272512 -1.862121 0
M  V30 10 C 0.918864 -4.068543 -0.974089 0
M  V30 11 N 0.492143 -0.692685 0.629943 0
M  V30 12 C 0.384939 0.016767 1.792177 0
M  V30 13 N 0.222903 1.428877 1.674225 0
M  V30 14 C 1.140000 2.399794 2.224059 0
M  V30 15 C 0.277415 3.488982 2.829972 0
M  V30 16 O -0.356359 4.102809 1.763973 0
M  V30 17 C -1.306749 3.310020 1.154164 0
M  V30 18 C -0.945152 1.883821 0.951696 0
M  V30 19 H 0.645916 -2.606214 3.903686 0
M  V30 20 H 0.364564 -1.048659 -1.999674 0
M  V30 21 H 1.643309 -2.270327 -2.551678 0
M  V30 22 H -1.400612 -2.465601 -2.218702 0
M  V30 23 H -0.346077 -3.018003 -3.648838 0
M  V30 24 H -1.180452 -4.452668 -1.171933 0
M  V30 25 H -0.205700 -5.100849 -2.563071 0
M  V30 26 H 1.836256 -4.195281 -1.603617 0
M  V30 27 H 0.905743 -4.711058 -0.088309 0
M  V30 28 H 1.628264 2.883225 1.329338 0
M  V30 29 H 1.868661 1.981537 2.913721 0
M  V30 30 H 0.865779 4.245807 3.375729 0
M  V30 31 H -0.533796 3.081785 3.481101 0
M  V30 32 H -1.453519 3.767639 0.134997 0
M  V30 33 H -2.326211 3.396847 1.617782 0
M  V30 34 H -1.809064 1.229682 1.266550 0
M  V30 35 H -0.820498 1.620972 -0.138804 0
M  V30 END ATOM
M  V30 BEGIN BOND
M  V30 1 1 1 2
M  V30 2 2 2 3
M  V30 3 1 3 4
M  V30 4 2 4 5
M  V30 5 1 5 6
M  V30 6 1 6 7
M  V30 7 1 7 8
M  V30 8 1 8 9
M  V30 9 1 9 10
M  V30 10 1 5 11
M  V30 11 2 11 12
M  V30 12 1 12 13
M  V30 13 1 13 14
M  V30 14 1 14 15
M  V30 15 1 15 16
M  V30 16 1 16 17
M  V30 17 1 17 18
M  V30 18 1 12 2
M  V30 19 1 18 13
M  V30 20 1 10 6
M  V30 21 1 3 19
M  V30 22 1 7 20
M  V30 23 1 7 21
M  V30 24 1 8 22
M  V30 25 1 8 23
M  V30 26 1 9 24
M  V30 27 1 9 25
M  V30 28 1 10 26
M  V30 29 1 10 27
M  V30 30 1 14 28
M  V30 31 1 14 29
M  V30 32 1 15 30
M  V30 33 1 15 31
M  V30 34 1 17 32
M  V30 35 1 17 33
M  V30 36 1 18 34
M  V30 37 1 18 35
M  V30 END BOND
M  V30 END CTAB
M  END
>  <Dataset>  (342) 
ChEMBL_Kinases

>  <Ligand_Instance>  (342) 
nan

>  <PDB_ID>  (342) 
nan

>  <Standardized_SMILES>  (342) 
Brc1cnc(N2CCCC2)nc1N1CCOCC1

>  <Name>  (342) 
nan

>  <Pocket>  (342) 
nan

>  <ATP_Site>  (342) 
nan

>  <Peripheral>  (342) 
nan

>  <Num_H_Atoms_ProtBoundConf>  (342) 
nan

>  <Num_Resolved_Atoms>  (342) 
nan

>  <Num_Not_Resolved_Atoms>  (342) 
nan

$$$$
CHEMBL1364368
     RDKit          3D

  0  0  0  0  0  0  0  0  0  0999 V3000
M  V30 BEGIN CTAB
M  V30 COUNTS 31 33 0 0 0
M  V30 BEGIN ATOM
M  V30 1 C -1.797146 -1.350880 2.807783 0
M  V30 2 C -0.619579 -1.512136 1.926836 0
M  V30 3 C 0.312572 -2.525886 1.982786 0
M  V30 4 C 1.276829 -2.350905 1.000410 0
M  V30 5 C 2.436991 -3.188339 0.709335 0
M  V30 6 N 2.736298 -4.307108 1.401656 0
M  V30 7 N 3.838392 -4.844259 0.905510 0
M  V30 8 C 4.243601 -4.051852 -0.118440 0
M  V30 9 O 3.359932 -3.062724 -0.195358 0
M  V30 10 C 0.881393 -1.194764 0.359411 0
M  V30 11 C 1.541338 -0.534694 -0.772263 0
M  V30 12 N -0.258300 -0.709595 0.932246 0
M  V30 13 C -0.960414 0.465366 0.540395 0
M  V30 14 C -0.257003 1.614794 0.904328 0
M  V30 15 C -0.763970 2.873331 0.616333 0
M  V30 16 C -1.975514 3.014756 -0.036619 0
M  V30 17 F -2.534408 4.217915 -0.351838 0
M  V30 18 C -2.648018 1.862365 -0.383903 0
M  V30 19 C -2.159680 0.604366 -0.105928 0
M  V30 20 H -2.734614 -1.443074 2.193631 0
M  V30 21 H -1.734273 -0.384000 3.340709 0
M  V30 22 H -1.821639 -2.139790 3.589192 0
M  V30 23 H 0.338236 -3.374353 2.681904 0
M  V30 24 H 5.105596 -4.170360 -0.762908 0
M  V30 25 H 1.021484 -0.767970 -1.741037 0
M  V30 26 H 1.536659 0.573654 -0.693031 0
M  V30 27 H 2.596413 -0.844134 -0.857765 0
M  V30 28 H 0.704037 1.671478 1.420194 0
M  V30 29 H -0.275997 3.805458 0.867147 0
M  V30 30 H -3.615618 1.868767 -0.904085 0
M  V30 31 H -2.618960 -0.339739 -0.341168 0
M  V30 END ATOM
M  V30 BEGIN BOND
M  V30 1 1 1 2
M  V30 2 2 2 3
M  V30 3 1 3 4
M  V30 4 1 4 5
M  V30 5 2 5 6
M  V30 6 1 6 7
M  V30 7 2 7 8
M  V30 8 1 8 9
M  V30 9 2 4 10
M  V30 10 1 10 11
M  V30 11 1 10 12
M  V30 12 1 12 13
M  V30 13 2 13 14
M  V30 14 1 14 15
M  V30 15 2 15 16
M  V30 16 1 16 17
M  V30 17 1 16 18
M  V30 18 2 18 19
M  V30 19 1 12 2
M  V30 20 1 19 13
M  V30 21 1 9 5
M  V30 22 1 1 20
M  V30 23 1 1 21
M  V30 24 1 1 22
M  V30 25 1 3 23
M  V30 26 1 8 24
M  V30 27 1 11 25
M  V30 28 1 11 26
M  V30 29 1 11 27
M  V30 30 1 14 28
M  V30 31 1 15 29
M  V30 32 1 18 30
M  V30 33 1 19 31
M  V30 END BOND
M  V30 END CTAB
M  END
>  <Dataset>  (343) 
ChEMBL_Kinases

>  <Ligand_Instance>  (343) 
nan

>  <PDB_ID>  (343) 
nan

>  <Standardized_SMILES>  (343) 
Cc1cc(-c2nnco2)c(C)n1-c1ccc(F)cc1

>  <Name>  (343) 
nan

>  <Pocket>  (343) 
nan

>  <ATP_Site>  (343) 
nan

>  <Peripheral>  (343) 
nan

>  <Num_H_Atoms_ProtBoundConf>  (343) 
nan

>  <Num_Resolved_Atoms>  (343) 
nan

>  <Num_Not_Resolved_Atoms>  (343) 
nan

$$$$
CHEMBL1364572
     RDKit          3D

  0  0  0  0  0  0  0  0  0  0999 V3000
M  V30 BEGIN CTAB
M  V30 COUNTS 32 34 0 0 0
M  V30 BEGIN ATOM
M  V30 1 N 0.559869 -3.801224 4.710691 0
M  V30 2 C -0.008589 -2.892997 3.783827 0
M  V30 3 O -1.014421 -2.229479 4.109492 0
M  V30 4 C 0.539591 -2.712370 2.476644 0
M  V30 5 S 1.992802 -3.631133 1.923409 0
M  V30 6 C 1.981667 -2.818587 0.249684 0
M  V30 7 N 2.832453 -3.025947 -0.782848 0
M  V30 8 C 2.669854 -2.346163 -1.944182 0
M  V30 9 C 1.611597 -1.486960 -1.934250 0
M  V30 10 C 0.740112 -1.260140 -0.905724 0
M  V30 11 N -0.289342 -0.313423 -1.141770 0
M  V30 12 C -0.579227 0.935173 -0.525550 0
M  V30 13 C 0.257476 1.609900 0.337188 0
M  V30 14 C -0.050618 2.820037 0.922325 0
M  V30 15 C -1.262947 3.419071 0.648176 0
M  V30 16 C -2.087457 2.734116 -0.214411 0
M  V30 17 C -1.790827 1.527512 -0.803461 0
M  V30 18 C 0.901276 -1.949232 0.274395 0
M  V30 19 C 0.163908 -1.900946 1.424076 0
M  V30 20 N -0.982366 -1.085955 1.629614 0
M  V30 21 H 0.069490 -4.625970 5.141572 0
M  V30 22 H 1.565147 -3.547496 4.926823 0
M  V30 23 H 3.372153 -2.548765 -2.731173 0
M  V30 24 H 1.489879 -0.941148 -2.881844 0
M  V30 25 H -0.889322 -0.665819 -1.906378 0
M  V30 26 H 1.214380 1.100264 0.530785 0
M  V30 27 H 0.650540 3.299557 1.592128 0
M  V30 28 H -1.568533 4.366273 1.071901 0
M  V30 29 H -3.052668 3.220072 -0.427076 0
M  V30 30 H -2.556735 1.110785 -1.468857 0
M  V30 31 H -1.806293 -1.450841 1.068375 0
M  V30 32 H -0.974963 -0.252464 2.253793 0
M  V30 END ATOM
M  V30 BEGIN BOND
M  V30 1 1 1 2
M  V30 2 2 2 3
M  V30 3 1 2 4
M  V30 4 1 4 5
M  V30 5 1 5 6
M  V30 6 2 6 7
M  V30 7 1 7 8
M  V30 8 2 8 9
M  V30 9 1 9 10
M  V30 10 1 10 11
M  V30 11 1 11 12
M  V30 12 2 12 13
M  V30 13 1 13 14
M  V30 14 2 14 15
M  V30 15 1 15 16
M  V30 16 2 16 17
M  V30 17 2 10 18
M  V30 18 1 18 19
M  V30 19 1 19 20
M  V30 20 2 19 4
M  V30 21 1 18 6
M  V30 22 1 17 12
M  V30 23 1 1 21
M  V30 24 1 1 22
M  V30 25 1 8 23
M  V30 26 1 9 24
M  V30 27 1 11 25
M  V30 28 1 13 26
M  V30 29 1 14 27
M  V30 30 1 15 28
M  V30 31 1 16 29
M  V30 32 1 17 30
M  V30 33 1 20 31
M  V30 34 1 20 32
M  V30 END BOND
M  V30 END CTAB
M  END
>  <Dataset>  (344) 
ChEMBL_Kinases

>  <Ligand_Instance>  (344) 
nan

>  <PDB_ID>  (344) 
nan

>  <Standardized_SMILES>  (344) 
NC(=O)c1sc2nccc(Nc3ccccc3)c2c1N

>  <Name>  (344) 
nan

>  <Pocket>  (344) 
nan

>  <ATP_Site>  (344) 
nan

>  <Peripheral>  (344) 
nan

>  <Num_H_Atoms_ProtBoundConf>  (344) 
nan

>  <Num_Resolved_Atoms>  (344) 
nan

>  <Num_Not_Resolved_Atoms>  (344) 
nan

$$$$
CHEMBL1364584
     RDKit          3D

  0  0  0  0  0  0  0  0  0  0999 V3000
M  V30 BEGIN CTAB
M  V30 COUNTS 37 39 0 0 0
M  V30 BEGIN ATOM
M  V30 1 C 2.374211 -6.227587 4.056001 0
M  V30 2 O 3.305387 -5.233855 4.464772 0
M  V30 3 C 3.207423 -3.919000 4.006834 0
M  V30 4 C 4.101713 -2.942821 4.393541 0
M  V30 5 C 3.929168 -1.671409 3.892305 0
M  V30 6 C 2.909981 -1.289281 3.014817 0
M  V30 7 N 2.811159 0.050174 2.553955 0
M  V30 8 C 1.811995 0.463488 1.649064 0
M  V30 9 N 1.378343 -0.213296 0.669433 0
M  V30 10 C 0.384580 0.370876 -0.111872 0
M  V30 11 O -0.056067 -0.291540 -1.089921 0
M  V30 12 C -0.053668 1.705771 0.281977 0
M  V30 13 C -0.979462 2.432095 -0.320673 0
M  V30 14 C -1.723392 2.002046 -1.499646 0
M  V30 15 C -2.627326 2.807293 -2.021657 0
M  V30 16 C -3.419500 2.465105 -3.197686 0
M  V30 17 C -3.352430 1.292725 -3.922061 0
M  V30 18 C -4.263689 1.341829 -4.971259 0
M  V30 19 C -4.847045 2.591591 -4.807363 0
M  V30 20 O -4.330976 3.212130 -3.768528 0
M  V30 21 S 0.956711 2.061126 1.724353 0
M  V30 22 C 2.063379 -2.320270 2.680070 0
M  V30 23 C 2.181397 -3.595687 3.141429 0
M  V30 24 H 1.381038 -6.066695 4.541058 0
M  V30 25 H 2.754700 -7.200299 4.411161 0
M  V30 26 H 2.288068 -6.281002 2.956781 0
M  V30 27 H 4.914974 -3.167108 5.070220 0
M  V30 28 H 4.656635 -0.912885 4.217280 0
M  V30 29 H 3.514488 0.739204 2.913110 0
M  V30 30 H -1.176252 3.401606 0.109816 0
M  V30 31 H -1.642615 1.073727 -2.040126 0
M  V30 32 H -2.786026 3.777434 -1.544983 0
M  V30 33 H -2.691115 0.459013 -3.708166 0
M  V30 34 H -4.480622 0.605963 -5.733743 0
M  V30 35 H -5.633013 3.041196 -5.432986 0
M  V30 36 H 1.255501 -2.134214 2.020971 0
M  V30 37 H 1.479992 -4.383869 2.844693 0
M  V30 END ATOM
M  V30 BEGIN BOND
M  V30 1 1 1 2
M  V30 2 1 2 3
M  V30 3 2 3 4
M  V30 4 1 4 5
M  V30 5 2 5 6
M  V30 6 1 6 7
M  V30 7 1 7 8
M  V30 8 2 8 9
M  V30 9 1 9 10
M  V30 10 2 10 11
M  V30 11 1 10 12
M  V30 12 2 12 13
M  V30 13 1 13 14
M  V30 14 2 14 15
M  V30 15 1 15 16
M  V30 16 2 16 17
M  V30 17 1 17 18
M  V30 18 2 18 19
M  V30 19 1 19 20
M  V30 20 1 12 21
M  V30 21 1 6 22
M  V30 22 2 22 23
M  V30 23 1 23 3
M  V30 24 1 21 8
M  V30 25 1 20 16
M  V30 26 1 1 24
M  V30 27 1 1 25
M  V30 28 1 1 26
M  V30 29 1 4 27
M  V30 30 1 5 28
M  V30 31 1 7 29
M  V30 32 1 13 30
M  V30 33 1 14 31
M  V30 34 1 15 32
M  V30 35 1 17 33
M  V30 36 1 18 34
M  V30 37 1 19 35
M  V30 38 1 22 36
M  V30 39 1 23 37
M  V30 END BOND
M  V30 END CTAB
M  END
>  <Dataset>  (345) 
ChEMBL_Kinases

>  <Ligand_Instance>  (345) 
nan

>  <PDB_ID>  (345) 
nan

>  <Standardized_SMILES>  (345) 
COc1ccc(NC2=NC(=O)/C(=C\C=C\c3ccco3)S2)cc1

>  <Name>  (345) 
nan

>  <Pocket>  (345) 
nan

>  <ATP_Site>  (345) 
nan

>  <Peripheral>  (345) 
nan

>  <Num_H_Atoms_ProtBoundConf>  (345) 
nan

>  <Num_Resolved_Atoms>  (345) 
nan

>  <Num_Not_Resolved_Atoms>  (345) 
nan

$$$$
CHEMBL1364681
     RDKit          3D

  0  0  0  0  0  0  0  0  0  0999 V3000
M  V30 BEGIN CTAB
M  V30 COUNTS 45 47 0 0 0
M  V30 BEGIN ATOM
M  V30 1 C 3.425487 -6.755913 1.135162 0
M  V30 2 O 2.424084 -6.538177 0.187730 0
M  V30 3 C 1.906748 -5.291986 -0.070062 0
M  V30 4 C 2.449939 -4.248908 0.682133 0
M  V30 5 C 2.014031 -2.951819 0.515384 0
M  V30 6 C 1.023088 -2.670211 -0.409701 0
M  V30 7 C 0.502604 -1.324036 -0.646591 0
M  V30 8 N -0.410578 -0.875816 -1.462964 0
M  V30 9 O -0.533419 0.507861 -1.295309 0
M  V30 10 C -0.264241 0.684059 0.068767 0
M  V30 11 C -0.018424 2.047901 0.513812 0
M  V30 12 O -0.074066 2.935916 -0.371706 0
M  V30 13 N 0.259191 2.263523 1.886419 0
M  V30 14 C 0.516695 3.588404 2.425447 0
M  V30 15 C -0.721045 4.393863 2.594883 0
M  V30 16 C -1.406875 4.262681 3.808780 0
M  V30 17 C -2.557339 4.998574 4.000129 0
M  V30 18 C -3.094087 5.865334 3.079522 0
M  V30 19 F -4.224296 6.573547 3.296213 0
M  V30 20 C -2.392539 5.974477 1.886205 0
M  V30 21 C -1.229904 5.262451 1.631712 0
M  V30 22 C 1.019374 -0.130487 0.118664 0
M  V30 23 C 0.501972 -3.713497 -1.140092 0
M  V30 24 C 0.921716 -5.012513 -0.989567 0
M  V30 25 O 0.491272 -6.149429 -1.648697 0
M  V30 26 C -0.517389 -6.047220 -2.626407 0
M  V30 27 H 4.419886 -6.390570 0.786764 0
M  V30 28 H 3.487871 -7.849072 1.374094 0
M  V30 29 H 3.110130 -6.248917 2.084437 0
M  V30 30 H 3.225979 -4.319292 1.437419 0
M  V30 31 H 2.392226 -2.101101 1.064011 0
M  V30 32 H -1.060682 0.166149 0.653485 0
M  V30 33 H 0.279097 1.424378 2.541553 0
M  V30 34 H 1.247940 4.098077 1.759208 0
M  V30 35 H 0.970175 3.464351 3.426828 0
M  V30 36 H -1.037212 3.592859 4.582502 0
M  V30 37 H -3.114840 4.918618 4.935411 0
M  V30 38 H -2.759844 6.648424 1.101296 0
M  V30 39 H -0.699877 5.365189 0.699651 0
M  V30 40 H 1.330207 -0.363039 1.134797 0
M  V30 41 H 1.756009 0.442203 -0.476412 0
M  V30 42 H -0.256633 -3.553893 -1.861211 0
M  V30 43 H -1.156324 -6.975794 -2.527761 0
M  V30 44 H -0.107143 -6.127012 -3.661725 0
M  V30 45 H -1.210129 -5.213140 -2.504073 0
M  V30 END ATOM
M  V30 BEGIN BOND
M  V30 1 1 1 2
M  V30 2 1 2 3
M  V30 3 2 3 4
M  V30 4 1 4 5
M  V30 5 2 5 6
M  V30 6 1 6 7
M  V30 7 2 7 8
M  V30 8 1 8 9
M  V30 9 1 9 10
M  V30 10 1 10 11
M  V30 11 2 11 12
M  V30 12 1 11 13
M  V30 13 1 13 14
M  V30 14 1 14 15
M  V30 15 2 15 16
M  V30 16 1 16 17
M  V30 17 2 17 18
M  V30 18 1 18 19
M  V30 19 1 18 20
M  V30 20 2 20 21
M  V30 21 1 10 22
M  V30 22 1 6 23
M  V30 23 2 23 24
M  V30 24 1 24 25
M  V30 25 1 25 26
M  V30 26 1 24 3
M  V30 27 1 22 7
M  V30 28 1 21 15
M  V30 29 1 1 27
M  V30 30 1 1 28
M  V30 31 1 1 29
M  V30 32 1 4 30
M  V30 33 1 5 31
M  V30 34 1 10 32
M  V30 35 1 13 33
M  V30 36 1 14 34
M  V30 37 1 14 35
M  V30 38 1 16 36
M  V30 39 1 17 37
M  V30 40 1 20 38
M  V30 41 1 21 39
M  V30 42 1 22 40
M  V30 43 1 22 41
M  V30 44 1 23 42
M  V30 45 1 26 43
M  V30 46 1 26 44
M  V30 47 1 26 45
M  V30 END BOND
M  V30 END CTAB
M  END
>  <Dataset>  (346) 
ChEMBL_Kinases

>  <Ligand_Instance>  (346) 
nan

>  <PDB_ID>  (346) 
nan

>  <Standardized_SMILES>  (346) 
COc1ccc(C2=NOC(C(=O)NCc3ccc(F)cc3)C2)cc1OC

>  <Name>  (346) 
nan

>  <Pocket>  (346) 
nan

>  <ATP_Site>  (346) 
nan

>  <Peripheral>  (346) 
nan

>  <Num_H_Atoms_ProtBoundConf>  (346) 
nan

>  <Num_Resolved_Atoms>  (346) 
nan

>  <Num_Not_Resolved_Atoms>  (346) 
nan

$$$$
CHEMBL1364735
     RDKit          3D

  0  0  0  0  0  0  0  0  0  0999 V3000
M  V30 BEGIN CTAB
M  V30 COUNTS 29 30 0 0 0
M  V30 BEGIN ATOM
M  V30 1 C -2.609974 -2.717931 1.565646 0
M  V30 2 O -1.446020 -2.060791 1.101466 0
M  V30 3 C -0.213995 -2.641019 1.222843 0
M  V30 4 C -0.070588 -3.884700 1.801822 0
M  V30 5 C 1.193445 -4.435470 1.904961 0
M  V30 6 C 2.339188 -3.806741 1.456737 0
M  V30 7 Cl 3.921706 -4.546888 1.610148 0
M  V30 8 C 2.221744 -2.553961 0.870079 0
M  V30 9 C 0.949347 -2.019947 0.776054 0
M  V30 10 N 0.745559 -0.728202 0.181692 0
M  V30 11 C 0.777690 0.456230 0.951664 0
M  V30 12 O 1.000434 0.232719 2.180335 0
M  V30 13 C 0.581038 1.793701 0.422324 0
M  V30 14 C 0.333390 2.118035 -0.908080 0
M  V30 15 C 0.165141 3.437180 -1.275617 0
M  V30 16 C 0.235274 4.461373 -0.354092 0
M  V30 17 N 0.475945 4.126992 0.929436 0
M  V30 18 C 0.642738 2.847054 1.307361 0
M  V30 19 H -2.635013 -3.795255 1.357932 0
M  V30 20 H -3.479241 -2.213522 1.051302 0
M  V30 21 H -2.694071 -2.525917 2.672119 0
M  V30 22 H -0.889503 -4.457018 2.181237 0
M  V30 23 H 1.357563 -5.409173 2.351663 0
M  V30 24 H 3.068036 -1.993725 0.492971 0
M  V30 25 H 0.565008 -0.644548 -0.861970 0
M  V30 26 H 0.292010 1.257914 -1.576655 0
M  V30 27 H -0.018816 3.520629 -2.340811 0
M  V30 28 H 0.087273 5.430231 -0.770823 0
M  V30 29 H 0.827591 2.700349 2.346952 0
M  V30 END ATOM
M  V30 BEGIN BOND
M  V30 1 1 1 2
M  V30 2 1 2 3
M  V30 3 2 3 4
M  V30 4 1 4 5
M  V30 5 2 5 6
M  V30 6 1 6 7
M  V30 7 1 6 8
M  V30 8 2 8 9
M  V30 9 1 9 10
M  V30 10 1 10 11
M  V30 11 2 11 12
M  V30 12 1 11 13
M  V30 13 2 13 14
M  V30 14 1 14 15
M  V30 15 2 15 16
M  V30 16 1 16 17
M  V30 17 2 17 18
M  V30 18 1 9 3
M  V30 19 1 18 13
M  V30 20 1 1 19
M  V30 21 1 1 20
M  V30 22 1 1 21
M  V30 23 1 4 22
M  V30 24 1 5 23
M  V30 25 1 8 24
M  V30 26 1 10 25
M  V30 27 1 14 26
M  V30 28 1 15 27
M  V30 29 1 16 28
M  V30 30 1 18 29
M  V30 END BOND
M  V30 END CTAB
M  END
>  <Dataset>  (347) 
ChEMBL_Kinases

>  <Ligand_Instance>  (347) 
nan

>  <PDB_ID>  (347) 
nan

>  <Standardized_SMILES>  (347) 
COc1ccc(Cl)cc1NC(=O)c1cccnc1

>  <Name>  (347) 
nan

>  <Pocket>  (347) 
nan

>  <ATP_Site>  (347) 
nan

>  <Peripheral>  (347) 
nan

>  <Num_H_Atoms_ProtBoundConf>  (347) 
nan

>  <Num_Resolved_Atoms>  (347) 
nan

>  <Num_Not_Resolved_Atoms>  (347) 
nan

$$$$
CHEMBL1364819
     RDKit          3D

  0  0  0  0  0  0  0  0  0  0999 V3000
M  V30 BEGIN CTAB
M  V30 COUNTS 46 48 0 0 0
M  V30 BEGIN ATOM
M  V30 1 C 0.994017 -6.485458 3.497869 0
M  V30 2 O 0.159527 -5.958052 2.481285 0
M  V30 3 C 0.452699 -4.734778 1.919841 0
M  V30 4 C 1.571269 -4.033870 2.364344 0
M  V30 5 C 1.849318 -2.812153 1.791781 0
M  V30 6 C 1.095317 -2.218927 0.797256 0
M  V30 7 N 1.408455 -0.954373 0.224787 0
M  V30 8 C 0.526116 -0.451581 -0.802125 0
M  V30 9 C 0.852092 0.944397 -1.231009 0
M  V30 10 N 1.572639 1.702028 -0.196443 0
M  V30 11 C 1.295837 2.891975 0.577620 0
M  V30 12 O 2.269454 3.200431 1.361034 0
M  V30 13 C 0.344845 3.972671 0.889401 0
M  V30 14 O -0.847439 3.751904 0.185200 0
M  V30 15 C -1.707453 2.701478 0.282168 0
M  V30 16 C -1.675401 1.566527 1.077040 0
M  V30 17 C -2.679663 0.619925 1.000852 0
M  V30 18 C -3.728580 0.790366 0.132722 0
M  V30 19 C -3.803330 1.900994 -0.676384 0
M  V30 20 C -2.792385 2.841683 -0.591285 0
M  V30 21 C 2.852748 1.016876 0.055463 0
M  V30 22 C 2.569646 -0.291260 0.715456 0
M  V30 23 C 0.002849 -2.971356 0.407355 0
M  V30 24 C -0.340326 -4.196212 0.929452 0
M  V30 25 H 1.134058 -5.677202 4.258725 0
M  V30 26 H 1.943124 -6.843566 3.070879 0
M  V30 27 H 0.515385 -7.350685 4.010871 0
M  V30 28 H 2.239595 -4.385342 3.132139 0
M  V30 29 H 2.730177 -2.255936 2.138971 0
M  V30 30 H -0.523081 -0.580977 -0.499956 0
M  V30 31 H 0.655342 -1.170225 -1.664857 0
M  V30 32 H 1.607387 0.826571 -2.073393 0
M  V30 33 H -0.034200 1.453093 -1.606476 0
M  V30 34 H 0.785562 4.968127 0.604229 0
M  V30 35 H 0.166317 4.024827 1.991256 0
M  V30 36 H -0.791415 1.560383 1.714985 0
M  V30 37 H -2.537976 -0.228573 1.679691 0
M  V30 38 H -4.460102 -0.012907 0.154514 0
M  V30 39 H -4.648063 1.993885 -1.345339 0
M  V30 40 H -2.951197 3.687101 -1.280243 0
M  V30 41 H 3.328388 0.877103 -0.932850 0
M  V30 42 H 3.463596 1.664250 0.721381 0
M  V30 43 H 3.466845 -0.946054 0.585803 0
M  V30 44 H 2.419958 -0.085799 1.803732 0
M  V30 45 H -0.655688 -2.609085 -0.360230 0
M  V30 46 H -1.207965 -4.748692 0.590390 0
M  V30 END ATOM
M  V30 BEGIN BOND
M  V30 1 1 1 2
M  V30 2 1 2 3
M  V30 3 2 3 4
M  V30 4 1 4 5
M  V30 5 2 5 6
M  V30 6 1 6 7
M  V30 7 1 7 8
M  V30 8 1 8 9
M  V30 9 1 9 10
M  V30 10 1 10 11
M  V30 11 2 11 12
M  V30 12 1 11 13
M  V30 13 1 13 14
M  V30 14 1 14 15
M  V30 15 2 15 16
M  V30 16 1 16 17
M  V30 17 2 17 18
M  V30 18 1 18 19
M  V30 19 2 19 20
M  V30 20 1 10 21
M  V30 21 1 21 22
M  V30 22 1 6 23
M  V30 23 2 23 24
M  V30 24 1 24 3
M  V30 25 1 22 7
M  V30 26 1 20 15
M  V30 27 1 1 25
M  V30 28 1 1 26
M  V30 29 1 1 27
M  V30 30 1 4 28
M  V30 31 1 5 29
M  V30 32 1 8 30
M  V30 33 1 8 31
M  V30 34 1 9 32
M  V30 35 1 9 33
M  V30 36 1 13 34
M  V30 37 1 13 35
M  V30 38 1 16 36
M  V30 39 1 17 37
M  V30 40 1 18 38
M  V30 41 1 19 39
M  V30 42 1 20 40
M  V30 43 1 21 41
M  V30 44 1 21 42
M  V30 45 1 22 43
M  V30 46 1 22 44
M  V30 47 1 23 45
M  V30 48 1 24 46
M  V30 END BOND
M  V30 END CTAB
M  END
>  <Dataset>  (348) 
ChEMBL_Kinases

>  <Ligand_Instance>  (348) 
nan

>  <PDB_ID>  (348) 
nan

>  <Standardized_SMILES>  (348) 
COc1ccc(N2CCN(C(=O)COc3ccccc3)CC2)cc1

>  <Name>  (348) 
nan

>  <Pocket>  (348) 
nan

>  <ATP_Site>  (348) 
nan

>  <Peripheral>  (348) 
nan

>  <Num_H_Atoms_ProtBoundConf>  (348) 
nan

>  <Num_Resolved_Atoms>  (348) 
nan

>  <Num_Not_Resolved_Atoms>  (348) 
nan

$$$$
CHEMBL1366304
     RDKit          3D

  0  0  0  0  0  0  0  0  0  0999 V3000
M  V30 BEGIN CTAB
M  V30 COUNTS 54 58 0 0 0
M  V30 BEGIN ATOM
M  V30 1 C 1.074210 0.954120 -2.935635 0
M  V30 2 N 1.063257 0.433505 -1.561167 0
M  V30 3 C 2.024919 -0.544808 -1.169933 0
M  V30 4 C 3.276110 -0.040209 -0.615206 0
M  V30 5 C 3.521342 0.203024 0.722833 0
M  V30 6 C 4.725600 0.687391 1.222920 0
M  V30 7 C 5.747156 0.940714 0.301684 0
M  V30 8 C 5.542584 0.710750 -1.043234 0
M  V30 9 C 4.320594 0.229447 -1.465604 0
M  V30 10 C 0.005741 1.067000 -0.854512 0
M  V30 11 O -0.364145 1.766193 -1.856895 0
M  V30 12 C -0.433055 0.923013 0.506305 0
M  V30 13 N 0.244953 1.304576 1.604209 0
M  V30 14 C -0.517846 1.004117 2.659205 0
M  V30 15 C -0.205707 1.225233 3.982830 0
M  V30 16 C -1.126083 0.843624 4.935340 0
M  V30 17 C -2.298372 0.266134 4.503363 0
M  V30 18 C -2.560127 0.068014 3.162255 0
M  V30 19 N -1.651591 0.444070 2.214900 0
M  V30 20 C -1.643882 0.370737 0.849828 0
M  V30 21 C -2.787650 -0.233220 0.121479 0
M  V30 22 N -2.681713 -1.537256 -0.303737 0
M  V30 23 C -1.726523 -2.019778 -1.196625 0
M  V30 24 C -1.796773 -3.535088 -1.280289 0
M  V30 25 C -1.759167 -4.122567 0.060265 0
M  V30 26 S -0.939404 -5.240846 1.025382 0
M  V30 27 C -1.940664 -4.991093 2.616283 0
M  V30 28 C -2.902297 -3.969986 2.202500 0
M  V30 29 C -2.790464 -3.547075 0.906006 0
M  V30 30 C -3.575775 -2.545612 0.137174 0
M  V30 31 H 1.886782 0.507389 -3.530758 0
M  V30 32 H 1.262717 2.054606 -2.922338 0
M  V30 33 H 0.116207 0.699743 -3.432112 0
M  V30 34 H 1.613509 -1.273612 -0.431433 0
M  V30 35 H 2.282472 -1.183797 -2.057890 0
M  V30 36 H 2.708573 -0.003215 1.417465 0
M  V30 37 H 4.785024 0.832485 2.295501 0
M  V30 38 H 6.635854 1.312323 0.794478 0
M  V30 39 H 6.393157 0.942126 -1.637868 0
M  V30 40 H 4.297912 0.092815 -2.560338 0
M  V30 41 H 0.713411 1.680016 4.320497 0
M  V30 42 H -1.014029 0.956844 6.005067 0
M  V30 43 H -3.049476 -0.047743 5.219065 0
M  V30 44 H -3.493902 -0.390159 2.852035 0
M  V30 45 H -3.737833 -0.130666 0.729886 0
M  V30 46 H -3.036595 0.415377 -0.784352 0
M  V30 47 H -0.684180 -1.683061 -1.009866 0
M  V30 48 H -1.961634 -1.600523 -2.218224 0
M  V30 49 H -2.624203 -3.821177 -1.922256 0
M  V30 50 H -0.846065 -3.837293 -1.771406 0
M  V30 51 H -2.048670 -5.342074 3.732065 0
M  V30 52 H -3.651116 -3.568996 2.859798 0
M  V30 53 H -4.432538 -2.157118 0.735020 0
M  V30 54 H -4.069650 -3.091867 -0.725262 0
M  V30 END ATOM
M  V30 BEGIN BOND
M  V30 1 1 1 2
M  V30 2 1 2 3
M  V30 3 1 3 4
M  V30 4 2 4 5
M  V30 5 1 5 6
M  V30 6 2 6 7
M  V30 7 1 7 8
M  V30 8 2 8 9
M  V30 9 1 2 10
M  V30 10 2 10 11
M  V30 11 1 10 12
M  V30 12 1 12 13
M  V30 13 2 13 14
M  V30 14 1 14 15
M  V30 15 2 15 16
M  V30 16 1 16 17
M  V30 17 2 17 18
M  V30 18 1 18 19
M  V30 19 1 19 20
M  V30 20 1 20 21
M  V30 21 1 21 22
M  V30 22 1 22 23
M  V30 23 1 23 24
M  V30 24 1 24 25
M  V30 25 1 25 26
M  V30 26 1 26 27
M  V30 27 2 27 28
M  V30 28 1 28 29
M  V30 29 1 29 30
M  V30 30 1 9 4
M  V30 31 2 20 12
M  V30 32 1 30 22
M  V30 33 1 19 14
M  V30 34 2 29 25
M  V30 35 1 1 31
M  V30 36 1 1 32
M  V30 37 1 1 33
M  V30 38 1 3 34
M  V30 39 1 3 35
M  V30 40 1 5 36
M  V30 41 1 6 37
M  V30 42 1 7 38
M  V30 43 1 8 39
M  V30 44 1 9 40
M  V30 45 1 15 41
M  V30 46 1 16 42
M  V30 47 1 17 43
M  V30 48 1 18 44
M  V30 49 1 21 45
M  V30 50 1 21 46
M  V30 51 1 23 47
M  V30 52 1 23 48
M  V30 53 1 24 49
M  V30 54 1 24 50
M  V30 55 1 27 51
M  V30 56 1 28 52
M  V30 57 1 30 53
M  V30 58 1 30 54
M  V30 END BOND
M  V30 END CTAB
M  END
>  <Dataset>  (349) 
ChEMBL_Kinases

>  <Ligand_Instance>  (349) 
nan

>  <PDB_ID>  (349) 
nan

>  <Standardized_SMILES>  (349) 
CN(Cc1ccccc1)C(=O)c1nc2ccccn2c1CN1CCc2sccc2C1

>  <Name>  (349) 
nan

>  <Pocket>  (349) 
nan

>  <ATP_Site>  (349) 
nan

>  <Peripheral>  (349) 
nan

>  <Num_H_Atoms_ProtBoundConf>  (349) 
nan

>  <Num_Resolved_Atoms>  (349) 
nan

>  <Num_Not_Resolved_Atoms>  (349) 
nan

$$$$
CHEMBL1365163
     RDKit          3D

  0  0  0  0  0  0  0  0  0  0999 V3000
M  V30 BEGIN CTAB
M  V30 COUNTS 46 51 0 0 0
M  V30 BEGIN ATOM
M  V30 1 N -0.307138 -2.574628 -1.499751 0
M  V30 2 C -0.057333 -1.529010 -0.567668 0
M  V30 3 C 1.022685 -0.670591 -0.535604 0
M  V30 4 C 2.122472 -0.706265 -1.496080 0
M  V30 5 O 2.077451 -1.574992 -2.406572 0
M  V30 6 N 3.212033 0.185187 -1.436012 0
M  V30 7 C 4.311519 0.156145 -2.388979 0
M  V30 8 C 4.885363 1.520890 -2.681724 0
M  V30 9 C 5.698379 0.551211 -1.921246 0
M  V30 10 C 0.850358 0.180257 0.537593 0
M  V30 11 N 1.590620 1.194537 1.024496 0
M  V30 12 C 1.148215 1.852343 2.113268 0
M  V30 13 C 1.879948 2.911269 2.656000 0
M  V30 14 C 1.420618 3.580709 3.771603 0
M  V30 15 C 0.231995 3.230799 4.385629 0
M  V30 16 C -0.489619 2.185118 3.848875 0
M  V30 17 C -0.040332 1.511139 2.736734 0
M  V30 18 N -0.794003 0.501765 2.266429 0
M  V30 19 C -0.334767 -0.150639 1.169454 0
M  V30 20 N -0.864685 -1.197567 0.470662 0
M  V30 21 C -2.109415 -1.818161 0.836181 0
M  V30 22 C -3.397894 -1.300782 0.674430 0
M  V30 23 C -4.452692 -2.080764 1.102524 0
M  V30 24 C -4.266680 -3.325324 1.670707 0
M  V30 25 C -2.995422 -3.840387 1.832437 0
M  V30 26 C -1.927061 -3.078004 1.411708 0
M  V30 27 O -3.148560 -5.094438 2.425886 0
M  V30 28 C -4.461690 -5.210505 2.951926 0
M  V30 29 O -5.172118 -4.259932 2.161633 0
M  V30 30 H 0.507233 -3.247196 -1.572511 0
M  V30 31 H -1.090686 -2.819907 -2.110051 0
M  V30 32 H 3.229402 0.892681 -0.678272 0
M  V30 33 H 4.304066 -0.586070 -3.192675 0
M  V30 34 H 4.500592 2.401314 -2.126675 0
M  V30 35 H 5.095821 1.702448 -3.756901 0
M  V30 36 H 6.569972 0.073928 -2.403865 0
M  V30 37 H 5.875485 0.733693 -0.833545 0
M  V30 38 H 2.832071 3.227786 2.203687 0
M  V30 39 H 2.035860 4.394777 4.144664 0
M  V30 40 H -0.075573 3.791470 5.255350 0
M  V30 41 H -1.409269 1.896386 4.304304 0
M  V30 42 H -3.417379 -0.334321 0.225532 0
M  V30 43 H -5.430759 -1.634206 0.954670 0
M  V30 44 H -0.960211 -3.540825 1.567836 0
M  V30 45 H -4.892817 -6.213938 2.770895 0
M  V30 46 H -4.417760 -4.933869 4.020918 0
M  V30 END ATOM
M  V30 BEGIN BOND
M  V30 1 1 1 2
M  V30 2 2 2 3
M  V30 3 1 3 4
M  V30 4 2 4 5
M  V30 5 1 4 6
M  V30 6 1 6 7
M  V30 7 1 7 8
M  V30 8 1 8 9
M  V30 9 1 3 10
M  V30 10 2 10 11
M  V30 11 1 11 12
M  V30 12 2 12 13
M  V30 13 1 13 14
M  V30 14 2 14 15
M  V30 15 1 15 16
M  V30 16 2 16 17
M  V30 17 1 17 18
M  V30 18 2 18 19
M  V30 19 1 19 20
M  V30 20 1 20 21
M  V30 21 2 21 22
M  V30 22 1 22 23
M  V30 23 2 23 24
M  V30 24 1 24 25
M  V30 25 2 25 26
M  V30 26 1 25 27
M  V30 27 1 27 28
M  V30 28 1 28 29
M  V30 29 1 20 2
M  V30 30 1 26 21
M  V30 31 1 9 7
M  V30 32 1 19 10
M  V30 33 1 29 24
M  V30 34 1 17 12
M  V30 35 1 1 30
M  V30 36 1 1 31
M  V30 37 1 6 32
M  V30 38 1 7 33
M  V30 39 1 8 34
M  V30 40 1 8 35
M  V30 41 1 9 36
M  V30 42 1 9 37
M  V30 43 1 13 38
M  V30 44 1 14 39
M  V30 45 1 15 40
M  V30 46 1 16 41
M  V30 47 1 22 42
M  V30 48 1 23 43
M  V30 49 1 26 44
M  V30 50 1 28 45
M  V30 51 1 28 46
M  V30 END BOND
M  V30 END CTAB
M  END
>  <Dataset>  (350) 
ChEMBL_Kinases

>  <Ligand_Instance>  (350) 
nan

>  <PDB_ID>  (350) 
nan

>  <Standardized_SMILES>  (350) 
Nc1c(C(=O)NC2CC2)c2nc3ccccc3nc2n1-c1ccc2c(c1)OCO2

>  <Name>  (350) 
nan

>  <Pocket>  (350) 
nan

>  <ATP_Site>  (350) 
nan

>  <Peripheral>  (350) 
nan

>  <Num_H_Atoms_ProtBoundConf>  (350) 
nan

>  <Num_Resolved_Atoms>  (350) 
nan

>  <Num_Not_Resolved_Atoms>  (350) 
nan

$$$$
CHEMBL1365417
     RDKit          3D

  0  0  0  0  0  0  0  0  0  0999 V3000
M  V30 BEGIN CTAB
M  V30 COUNTS 50 54 0 0 0
M  V30 BEGIN ATOM
M  V30 1 C -0.535276 -1.281752 -2.521620 0
M  V30 2 C 0.005738 -1.282867 -1.146831 0
M  V30 3 C 1.241875 -0.845343 -0.722937 0
M  V30 4 C 1.373504 -1.017088 0.628005 0
M  V30 5 C 2.523353 -0.733545 1.478286 0
M  V30 6 O 2.413389 -1.056213 2.713068 0
M  V30 7 C 3.834757 -0.136991 1.212227 0
M  V30 8 S 4.040717 0.597936 -0.396661 0
M  V30 9 C 3.166057 2.083796 -0.699565 0
M  V30 10 N 3.100809 2.811803 -1.832724 0
M  V30 11 N 2.351087 3.883310 -1.636384 0
M  V30 12 N 1.934029 3.848255 -0.379614 0
M  V30 13 N 2.435308 2.745804 0.188859 0
M  V30 14 C 2.054663 2.641722 1.542498 0
M  V30 15 C 0.965309 2.120852 2.209928 0
M  V30 16 C 0.883528 2.189099 3.584704 0
M  V30 17 C 1.883471 2.779916 4.352800 0
M  V30 18 C 2.978781 3.307380 3.715354 0
M  V30 19 C 3.054950 3.234547 2.328757 0
M  V30 20 C 0.208882 -1.570053 1.077505 0
M  V30 21 C -0.192587 -1.953508 2.451445 0
M  V30 22 N -0.590258 -1.719336 0.003751 0
M  V30 23 C -1.908567 -2.259873 -0.043314 0
M  V30 24 C -3.107543 -1.712071 0.353514 0
M  V30 25 C -4.283588 -2.414816 0.213855 0
M  V30 26 C -4.306703 -3.689785 -0.327339 0
M  V30 27 C -3.117824 -4.259440 -0.732171 0
M  V30 28 C -1.939404 -3.548396 -0.588749 0
M  V30 29 O -3.456207 -5.523863 -1.226698 0
M  V30 30 C -4.857507 -5.606153 -1.464699 0
M  V30 31 O -5.334423 -4.606983 -0.579257 0
M  V30 32 H -0.219837 -2.200091 -3.052482 0
M  V30 33 H -1.626579 -1.090041 -2.580260 0
M  V30 34 H -0.067163 -0.430669 -3.098231 0
M  V30 35 H 1.961761 -0.435831 -1.415533 0
M  V30 36 H 4.090987 0.602803 1.985931 0
M  V30 37 H 4.655605 -0.916218 1.303713 0
M  V30 38 H 0.283786 1.699302 1.500280 0
M  V30 39 H -0.031575 1.736619 3.998225 0
M  V30 40 H 1.750388 2.796237 5.437331 0
M  V30 41 H 3.715534 3.748242 4.365283 0
M  V30 42 H 3.986957 3.704635 1.995798 0
M  V30 43 H -1.285624 -2.075399 2.525259 0
M  V30 44 H 0.265607 -2.939596 2.657001 0
M  V30 45 H 0.107332 -1.196202 3.206686 0
M  V30 46 H -3.003044 -0.715524 0.763971 0
M  V30 47 H -5.198880 -1.934525 0.548715 0
M  V30 48 H -1.065594 -4.100187 -0.945469 0
M  V30 49 H -5.250285 -6.611267 -1.238736 0
M  V30 50 H -4.988171 -5.310073 -2.544211 0
M  V30 END ATOM
M  V30 BEGIN BOND
M  V30 1 1 1 2
M  V30 2 2 2 3
M  V30 3 1 3 4
M  V30 4 1 4 5
M  V30 5 2 5 6
M  V30 6 1 5 7
M  V30 7 1 7 8
M  V30 8 1 8 9
M  V30 9 2 9 10
M  V30 10 1 10 11
M  V30 11 2 11 12
M  V30 12 1 12 13
M  V30 13 1 13 14
M  V30 14 2 14 15
M  V30 15 1 15 16
M  V30 16 2 16 17
M  V30 17 1 17 18
M  V30 18 2 18 19
M  V30 19 2 4 20
M  V30 20 1 20 21
M  V30 21 1 20 22
M  V30 22 1 22 23
M  V30 23 2 23 24
M  V30 24 1 24 25
M  V30 25 2 25 26
M  V30 26 1 26 27
M  V30 27 2 27 28
M  V30 28 1 27 29
M  V30 29 1 29 30
M  V30 30 1 30 31
M  V30 31 1 22 2
M  V30 32 1 28 23
M  V30 33 1 13 9
M  V30 34 1 19 14
M  V30 35 1 31 26
M  V30 36 1 1 32
M  V30 37 1 1 33
M  V30 38 1 1 34
M  V30 39 1 3 35
M  V30 40 1 7 36
M  V30 41 1 7 37
M  V30 42 1 15 38
M  V30 43 1 16 39
M  V30 44 1 17 40
M  V30 45 1 18 41
M  V30 46 1 19 42
M  V30 47 1 21 43
M  V30 48 1 21 44
M  V30 49 1 21 45
M  V30 50 1 24 46
M  V30 51 1 25 47
M  V30 52 1 28 48
M  V30 53 1 30 49
M  V30 54 1 30 50
M  V30 END BOND
M  V30 END CTAB
M  END
>  <Dataset>  (351) 
ChEMBL_Kinases

>  <Ligand_Instance>  (351) 
nan

>  <PDB_ID>  (351) 
nan

>  <Standardized_SMILES>  (351) 
Cc1cc(C(=O)CSc2nnnn2-c2ccccc2)c(C)n1-c1ccc2c(c1)OCO2

>  <Name>  (351) 
nan

>  <Pocket>  (351) 
nan

>  <ATP_Site>  (351) 
nan

>  <Peripheral>  (351) 
nan

>  <Num_H_Atoms_ProtBoundConf>  (351) 
nan

>  <Num_Resolved_Atoms>  (351) 
nan

>  <Num_Not_Resolved_Atoms>  (351) 
nan

$$$$
CHEMBL1365489
     RDKit          3D

  0  0  0  0  0  0  0  0  0  0999 V3000
M  V30 BEGIN CTAB
M  V30 COUNTS 27 27 0 0 0
M  V30 BEGIN ATOM
M  V30 1 C -1.324565 -5.211325 1.985710 0
M  V30 2 C -1.222421 -4.014338 1.796987 0
M  V30 3 C -1.099868 -2.590134 1.597392 0
M  V30 4 O -0.183128 -2.308878 0.570116 0
M  V30 5 C 0.056778 -0.973429 0.244566 0
M  V30 6 N 0.941297 -0.673719 -0.747838 0
M  V30 7 C 1.180445 0.629451 -1.071118 0
M  V30 8 O 2.060984 1.038088 -2.063999 0
M  V30 9 C 2.755673 0.038877 -2.787879 0
M  V30 10 C 3.550946 -0.739204 -1.862216 0
M  V30 11 C 4.210143 -1.387541 -1.066627 0
M  V30 12 N 0.521378 1.573147 -0.384149 0
M  V30 13 C -0.360074 1.331053 0.602280 0
M  V30 14 O -0.990727 2.384512 1.252885 0
M  V30 15 C -1.933829 2.141336 2.307591 0
M  V30 16 C -1.336640 1.417232 3.426304 0
M  V30 17 C -0.837212 0.823564 4.349586 0
M  V30 18 N -0.562373 0.031282 0.884626 0
M  V30 19 H -1.421548 -6.258349 2.142910 0
M  V30 20 H -2.081545 -2.142452 1.287980 0
M  V30 21 H -0.818438 -2.037509 2.525391 0
M  V30 22 H 2.014794 -0.644957 -3.266683 0
M  V30 23 H 3.414716 0.464458 -3.558531 0
M  V30 24 H 4.793817 -1.940497 -0.388154 0
M  V30 25 H -2.337609 3.098090 2.645430 0
M  V30 26 H -2.758419 1.506360 1.883419 0
M  V30 27 H -0.386914 0.300520 5.172256 0
M  V30 END ATOM
M  V30 BEGIN BOND
M  V30 1 3 1 2
M  V30 2 1 2 3
M  V30 3 1 3 4
M  V30 4 1 4 5
M  V30 5 2 5 6
M  V30 6 1 6 7
M  V30 7 1 7 8
M  V30 8 1 8 9
M  V30 9 1 9 10
M  V30 10 3 10 11
M  V30 11 2 7 12
M  V30 12 1 12 13
M  V30 13 1 13 14
M  V30 14 1 14 15
M  V30 15 1 15 16
M  V30 16 3 16 17
M  V30 17 2 13 18
M  V30 18 1 18 5
M  V30 19 1 1 19
M  V30 20 1 3 20
M  V30 21 1 3 21
M  V30 22 1 9 22
M  V30 23 1 9 23
M  V30 24 1 11 24
M  V30 25 1 15 25
M  V30 26 1 15 26
M  V30 27 1 17 27
M  V30 END BOND
M  V30 END CTAB
M  END
>  <Dataset>  (352) 
ChEMBL_Kinases

>  <Ligand_Instance>  (352) 
nan

>  <PDB_ID>  (352) 
nan

>  <Standardized_SMILES>  (352) 
C#CCOc1nc(OCC#C)nc(OCC#C)n1

>  <Name>  (352) 
nan

>  <Pocket>  (352) 
nan

>  <ATP_Site>  (352) 
nan

>  <Peripheral>  (352) 
nan

>  <Num_H_Atoms_ProtBoundConf>  (352) 
nan

>  <Num_Resolved_Atoms>  (352) 
nan

>  <Num_Not_Resolved_Atoms>  (352) 
nan

$$$$
CHEMBL1365609
     RDKit          3D

  0  0  0  0  0  0  0  0  0  0999 V3000
M  V30 BEGIN CTAB
M  V30 COUNTS 49 51 0 0 0
M  V30 BEGIN ATOM
M  V30 1 C -0.072690 -6.986017 0.073778 0
M  V30 2 C -0.322305 -5.586409 0.560359 0
M  V30 3 C -0.141374 -5.257270 1.889078 0
M  V30 4 C -0.388276 -3.948419 2.292564 0
M  V30 5 C -0.804316 -2.986705 1.402343 0
M  V30 6 C -0.996864 -3.268835 0.071659 0
M  V30 7 C -1.429726 -2.389607 -1.070188 0
M  V30 8 N -0.347150 -1.801354 -1.781259 0
M  V30 9 C 0.613271 -0.796360 -1.522712 0
M  V30 10 C 0.593039 0.038100 -0.446884 0
M  V30 11 C 1.446884 1.020128 -0.073973 0
M  V30 12 C 1.533399 1.942937 1.005878 0
M  V30 13 C 2.602866 2.831935 0.959719 0
M  V30 14 C 2.878717 3.759782 1.920803 0
M  V30 15 C 2.086745 3.858554 3.009992 0
M  V30 16 C 1.015938 3.011933 3.115235 0
M  V30 17 C 0.769986 2.089241 2.123187 0
M  V30 18 C -0.434577 1.287503 2.322539 0
M  V30 19 N -1.563343 1.901869 1.715218 0
M  V30 20 C -1.504231 2.419687 0.416571 0
M  V30 21 C -2.698950 0.969559 1.768963 0
M  V30 22 N 2.425312 1.086776 -0.986189 0
M  V30 23 C 2.550117 0.329240 -2.071824 0
M  V30 24 N 1.664398 -0.621776 -2.373109 0
M  V30 25 C -0.735490 -4.601068 -0.286016 0
M  V30 26 H -0.945643 -7.324971 -0.548944 0
M  V30 27 H 0.877104 -6.973108 -0.483005 0
M  V30 28 H 0.041993 -7.676623 0.921685 0
M  V30 29 H 0.186665 -5.991448 2.615427 0
M  V30 30 H -0.268665 -3.615250 3.314178 0
M  V30 31 H -1.023433 -1.958948 1.621709 0
M  V30 32 H -2.101464 -1.616960 -0.600021 0
M  V30 33 H -2.041205 -3.011477 -1.743425 0
M  V30 34 H -0.236802 -2.229166 -2.755773 0
M  V30 35 H -0.238818 -0.109907 0.169729 0
M  V30 36 H 3.346050 2.887641 0.141889 0
M  V30 37 H 3.713960 4.437846 1.860834 0
M  V30 38 H 2.276691 4.577342 3.786521 0
M  V30 39 H 0.392541 3.106979 3.996502 0
M  V30 40 H -0.387270 0.228497 2.125975 0
M  V30 41 H -0.639399 1.247351 3.482181 0
M  V30 42 H -1.753420 1.667858 -0.368613 0
M  V30 43 H -0.596872 2.999595 0.145890 0
M  V30 44 H -2.370434 3.157324 0.326521 0
M  V30 45 H -2.462881 0.162057 2.457080 0
M  V30 46 H -2.830957 0.528821 0.739293 0
M  V30 47 H -3.630583 1.503933 2.029591 0
M  V30 48 H 3.405001 0.516866 -2.703445 0
M  V30 49 H -0.860642 -4.925130 -1.321911 0
M  V30 END ATOM
M  V30 BEGIN BOND
M  V30 1 1 1 2
M  V30 2 2 2 3
M  V30 3 1 3 4
M  V30 4 2 4 5
M  V30 5 1 5 6
M  V30 6 1 6 7
M  V30 7 1 7 8
M  V30 8 1 8 9
M  V30 9 2 9 10
M  V30 10 1 10 11
M  V30 11 1 11 12
M  V30 12 2 12 13
M  V30 13 1 13 14
M  V30 14 2 14 15
M  V30 15 1 15 16
M  V30 16 2 16 17
M  V30 17 1 17 18
M  V30 18 1 18 19
M  V30 19 1 19 20
M  V30 20 1 19 21
M  V30 21 2 11 22
M  V30 22 1 22 23
M  V30 23 2 23 24
M  V30 24 2 6 25
M  V30 25 1 25 2
M  V30 26 1 24 9
M  V30 27 1 17 12
M  V30 28 1 1 26
M  V30 29 1 1 27
M  V30 30 1 1 28
M  V30 31 1 3 29
M  V30 32 1 4 30
M  V30 33 1 5 31
M  V30 34 1 7 32
M  V30 35 1 7 33
M  V30 36 1 8 34
M  V30 37 1 10 35
M  V30 38 1 13 36
M  V30 39 1 14 37
M  V30 40 1 15 38
M  V30 41 1 16 39
M  V30 42 1 18 40
M  V30 43 1 18 41
M  V30 44 1 20 42
M  V30 45 1 20 43
M  V30 46 1 20 44
M  V30 47 1 21 45
M  V30 48 1 21 46
M  V30 49 1 21 47
M  V30 50 1 23 48
M  V30 51 1 25 49
M  V30 END BOND
M  V30 END CTAB
M  END
>  <Dataset>  (353) 
ChEMBL_Kinases

>  <Ligand_Instance>  (353) 
nan

>  <PDB_ID>  (353) 
nan

>  <Standardized_SMILES>  (353) 
Cc1cccc(CNc2cc(-c3ccccc3CN(C)C)ncn2)c1

>  <Name>  (353) 
nan

>  <Pocket>  (353) 
nan

>  <ATP_Site>  (353) 
nan

>  <Peripheral>  (353) 
nan

>  <Num_H_Atoms_ProtBoundConf>  (353) 
nan

>  <Num_Resolved_Atoms>  (353) 
nan

>  <Num_Not_Resolved_Atoms>  (353) 
nan

$$$$
CHEMBL1365636
     RDKit          3D

  0  0  0  0  0  0  0  0  0  0999 V3000
M  V30 BEGIN CTAB
M  V30 COUNTS 40 42 0 0 0
M  V30 BEGIN ATOM
M  V30 1 O 2.715018 -1.671237 1.785940 0
M  V30 2 C 1.497439 -1.747892 1.404266 0
M  V30 3 N 0.858242 -2.992419 1.366597 0
M  V30 4 C 1.709956 -4.052712 1.783896 0
M  V30 5 C 1.657274 -4.300502 3.139064 0
M  V30 6 C 2.462070 -5.327256 3.644087 0
M  V30 7 C 3.278977 -6.063020 2.805747 0
M  V30 8 Cl 4.271215 -7.344295 3.497055 0
M  V30 9 C 3.293757 -5.774802 1.461253 0
M  V30 10 N 2.510202 -4.773605 0.963374 0
M  V30 11 C 0.823999 -0.482927 1.016567 0
M  V30 12 C -0.401420 -0.190172 1.870540 0
M  V30 13 C -1.207164 0.819488 1.040973 0
M  V30 14 N -0.387769 1.899729 0.676708 0
M  V30 15 S -1.077062 3.249043 -0.024764 0
M  V30 16 O -2.036374 3.886116 0.936862 0
M  V30 17 O 0.010057 4.287625 -0.258707 0
M  V30 18 C -1.879981 2.987293 -1.538271 0
M  V30 19 C -3.117752 3.139274 -2.018099 0
M  V30 20 C -3.437260 2.831601 -3.299752 0
M  V30 21 C -2.360859 2.341427 -4.077414 0
M  V30 22 S -0.923487 2.338207 -2.941793 0
M  V30 23 C 0.916686 1.955680 1.181137 0
M  V30 24 C 1.725481 0.703013 1.114853 0
M  V30 25 H -0.153978 -3.054396 1.049255 0
M  V30 26 H 1.047262 -3.772497 3.859911 0
M  V30 27 H 2.450824 -5.556671 4.712379 0
M  V30 28 H 3.928922 -6.340403 0.780600 0
M  V30 29 H 0.476905 -0.531467 -0.047179 0
M  V30 30 H -0.062790 0.389312 2.771591 0
M  V30 31 H -1.002639 -1.065698 2.103359 0
M  V30 32 H -2.002340 1.189183 1.744983 0
M  V30 33 H -1.688802 0.270068 0.210663 0
M  V30 34 H -3.807902 3.525643 -1.279329 0
M  V30 35 H -4.434829 2.949399 -3.701657 0
M  V30 36 H -2.542916 2.052492 -5.187177 0
M  V30 37 H 1.439471 2.832658 0.737415 0
M  V30 38 H 0.846806 2.214793 2.279131 0
M  V30 39 H 2.461293 0.622026 1.965036 0
M  V30 40 H 2.346948 0.709456 0.176725 0
M  V30 END ATOM
M  V30 BEGIN BOND
M  V30 1 2 1 2
M  V30 2 1 2 3
M  V30 3 1 3 4
M  V30 4 2 4 5
M  V30 5 1 5 6
M  V30 6 2 6 7
M  V30 7 1 7 8
M  V30 8 1 7 9
M  V30 9 2 9 10
M  V30 10 1 2 11
M  V30 11 1 11 12
M  V30 12 1 12 13
M  V30 13 1 13 14
M  V30 14 1 14 15
M  V30 15 2 15 16
M  V30 16 2 15 17
M  V30 17 1 15 18
M  V30 18 2 18 19
M  V30 19 1 19 20
M  V30 20 2 20 21
M  V30 21 1 21 22
M  V30 22 1 14 23
M  V30 23 1 23 24
M  V30 24 1 10 4
M  V30 25 1 24 11
M  V30 26 1 22 18
M  V30 27 1 3 25
M  V30 28 1 5 26
M  V30 29 1 6 27
M  V30 30 1 9 28
M  V30 31 1 11 29
M  V30 32 1 12 30
M  V30 33 1 12 31
M  V30 34 1 13 32
M  V30 35 1 13 33
M  V30 36 1 19 34
M  V30 37 1 20 35
M  V30 38 1 21 36
M  V30 39 1 23 37
M  V30 40 1 23 38
M  V30 41 1 24 39
M  V30 42 1 24 40
M  V30 END BOND
M  V30 END CTAB
M  END
>  <Dataset>  (354) 
ChEMBL_Kinases

>  <Ligand_Instance>  (354) 
nan

>  <PDB_ID>  (354) 
nan

>  <Standardized_SMILES>  (354) 
O=C(Nc1ccc(Cl)cn1)C1CCN(S(=O)(=O)c2cccs2)CC1

>  <Name>  (354) 
nan

>  <Pocket>  (354) 
nan

>  <ATP_Site>  (354) 
nan

>  <Peripheral>  (354) 
nan

>  <Num_H_Atoms_ProtBoundConf>  (354) 
nan

>  <Num_Resolved_Atoms>  (354) 
nan

>  <Num_Not_Resolved_Atoms>  (354) 
nan

$$$$
CHEMBL1365741
     RDKit          3D

  0  0  0  0  0  0  0  0  0  0999 V3000
M  V30 BEGIN CTAB
M  V30 COUNTS 40 42 0 0 0
M  V30 BEGIN ATOM
M  V30 1 O -0.801460 -1.807926 1.640186 0
M  V30 2 C -0.210367 -2.903811 1.936728 0
M  V30 3 C 1.102260 -3.430254 1.488719 0
M  V30 4 C 1.842900 -2.509361 0.575990 0
M  V30 5 C 2.168873 -1.180140 1.164539 0
M  V30 6 N 2.900915 -0.327628 0.221720 0
M  V30 7 C 2.222657 0.550913 -0.663407 0
M  V30 8 O 0.987832 0.746654 -0.787924 0
M  V30 9 C 3.117590 1.328855 -1.547227 0
M  V30 10 C 2.947883 2.378455 -2.281051 0
M  V30 11 C 1.657190 3.027913 -2.339624 0
M  V30 12 C 1.135444 3.529743 -3.532199 0
M  V30 13 C -0.053313 4.153737 -3.652372 0
M  V30 14 C -0.776748 4.259603 -2.353417 0
M  V30 15 S 0.275818 3.482989 -1.130347 0
M  V30 16 S 4.714741 0.477085 -1.433223 0
M  V30 17 C 4.309818 -0.335894 0.136294 0
M  V30 18 S 5.461595 -0.891664 1.108620 0
M  V30 19 N -1.003293 -3.658769 2.831525 0
M  V30 20 C -2.227648 -3.018241 3.164687 0
M  V30 21 C -2.058005 -2.214797 4.292427 0
M  V30 22 C -3.145020 -1.490536 4.790118 0
M  V30 23 C -4.356936 -1.598494 4.141019 0
M  V30 24 C -4.500332 -2.410282 3.013421 0
M  V30 25 N -3.424773 -3.088515 2.571466 0
M  V30 26 H 1.760620 -3.662351 2.353635 0
M  V30 27 H 0.905427 -4.418706 1.013044 0
M  V30 28 H 2.783614 -2.986231 0.219881 0
M  V30 29 H 1.213590 -2.407309 -0.343930 0
M  V30 30 H 2.798439 -1.262154 2.069252 0
M  V30 31 H 1.212912 -0.666392 1.468415 0
M  V30 32 H 3.705479 2.826205 -2.860301 0
M  V30 33 H 1.465404 3.566529 -4.559076 0
M  V30 34 H -0.839400 4.652428 -4.166514 0
M  V30 35 H -1.592946 4.520847 -1.540575 0
M  V30 36 H -0.645775 -4.600323 3.171839 0
M  V30 37 H -1.141867 -2.068995 4.866679 0
M  V30 38 H -3.070996 -0.845510 5.669798 0
M  V30 39 H -5.208213 -1.044745 4.511173 0
M  V30 40 H -5.430429 -2.521375 2.475839 0
M  V30 END ATOM
M  V30 BEGIN BOND
M  V30 1 2 1 2
M  V30 2 1 2 3
M  V30 3 1 3 4
M  V30 4 1 4 5
M  V30 5 1 5 6
M  V30 6 1 6 7
M  V30 7 2 7 8
M  V30 8 1 7 9
M  V30 9 2 9 10
M  V30 10 1 10 11
M  V30 11 2 11 12
M  V30 12 1 12 13
M  V30 13 2 13 14
M  V30 14 1 14 15
M  V30 15 1 9 16
M  V30 16 1 16 17
M  V30 17 2 17 18
M  V30 18 1 2 19
M  V30 19 1 19 20
M  V30 20 2 20 21
M  V30 21 1 21 22
M  V30 22 2 22 23
M  V30 23 1 23 24
M  V30 24 2 24 25
M  V30 25 1 17 6
M  V30 26 1 25 20
M  V30 27 1 15 11
M  V30 28 1 3 26
M  V30 29 1 3 27
M  V30 30 1 4 28
M  V30 31 1 4 29
M  V30 32 1 5 30
M  V30 33 1 5 31
M  V30 34 1 10 32
M  V30 35 1 12 33
M  V30 36 1 13 34
M  V30 37 1 14 35
M  V30 38 1 19 36
M  V30 39 1 21 37
M  V30 40 1 22 38
M  V30 41 1 23 39
M  V30 42 1 24 40
M  V30 END BOND
M  V30 END CTAB
M  END
>  <Dataset>  (355) 
ChEMBL_Kinases

>  <Ligand_Instance>  (355) 
nan

>  <PDB_ID>  (355) 
nan

>  <Standardized_SMILES>  (355) 
O=C(CCCN1C(=O)/C(=C\c2cccs2)SC1=S)Nc1ccccn1

>  <Name>  (355) 
nan

>  <Pocket>  (355) 
nan

>  <ATP_Site>  (355) 
nan

>  <Peripheral>  (355) 
nan

>  <Num_H_Atoms_ProtBoundConf>  (355) 
nan

>  <Num_Resolved_Atoms>  (355) 
nan

>  <Num_Not_Resolved_Atoms>  (355) 
nan

$$$$
CHEMBL1366061
     RDKit          3D

  0  0  0  0  0  0  0  0  0  0999 V3000
M  V30 BEGIN CTAB
M  V30 COUNTS 44 47 0 0 0
M  V30 BEGIN ATOM
M  V30 1 C -0.728566 -4.324873 -0.163984 0
M  V30 2 O -0.412154 -4.139897 -1.525032 0
M  V30 3 C 0.299389 -3.058296 -2.016868 0
M  V30 4 C 0.462831 -3.138906 -3.399331 0
M  V30 5 C 1.160822 -2.121005 -4.046507 0
M  V30 6 C 1.666799 -1.071330 -3.312579 0
M  V30 7 C 1.513877 -0.971653 -1.926107 0
M  V30 8 C 2.046545 0.139859 -1.123171 0
M  V30 9 N 1.164660 1.257505 -0.967648 0
M  V30 10 C 1.225936 2.251964 -1.883121 0
M  V30 11 O 2.009454 2.270234 -2.874514 0
M  V30 12 C 0.423193 3.370763 -1.827046 0
M  V30 13 N -0.466670 3.493876 -0.822175 0
M  V30 14 C -0.564780 2.536158 0.108243 0
M  V30 15 C -1.469135 2.641773 1.145634 0
M  V30 16 N -1.522888 1.649958 2.049066 0
M  V30 17 C -0.708859 0.559099 1.955385 0
M  V30 18 N -0.920009 -0.375573 3.006033 0
M  V30 19 C -0.249032 -0.394232 4.258964 0
M  V30 20 C 0.699375 0.580362 4.483249 0
M  V30 21 C 1.337366 0.534316 5.717732 0
M  V30 22 C 1.012412 -0.454710 6.652524 0
M  V30 23 C 0.049378 -1.395541 6.349385 0
M  V30 24 C -0.625998 -1.399152 5.123504 0
M  V30 25 N 0.176370 0.446366 0.947969 0
M  V30 26 C 0.254501 1.422180 0.027441 0
M  V30 27 C 0.818401 -1.995646 -1.318561 0
M  V30 28 H -0.702673 -3.413433 0.433982 0
M  V30 29 H 0.014292 -5.061153 0.256018 0
M  V30 30 H -1.735883 -4.810848 -0.128111 0
M  V30 31 H 0.097270 -3.928622 -4.051506 0
M  V30 32 H 1.313299 -2.140662 -5.121197 0
M  V30 33 H 2.202332 -0.297369 -3.832189 0
M  V30 34 H 2.283680 -0.282939 -0.110746 0
M  V30 35 H 3.018290 0.529452 -1.523711 0
M  V30 36 H 0.446087 4.183068 -2.541141 0
M  V30 37 H -2.092417 3.533164 1.170141 0
M  V30 38 H -1.653734 -1.052665 2.706959 0
M  V30 39 H 0.921231 1.327207 3.734210 0
M  V30 40 H 2.089815 1.267730 5.957183 0
M  V30 41 H 1.497041 -0.511664 7.624106 0
M  V30 42 H -0.207196 -2.168205 7.074380 0
M  V30 43 H -1.379292 -2.120682 4.864619 0
M  V30 44 H 0.632524 -2.036797 -0.253896 0
M  V30 END ATOM
M  V30 BEGIN BOND
M  V30 1 1 1 2
M  V30 2 1 2 3
M  V30 3 2 3 4
M  V30 4 1 4 5
M  V30 5 2 5 6
M  V30 6 1 6 7
M  V30 7 1 7 8
M  V30 8 1 8 9
M  V30 9 1 9 10
M  V30 10 2 10 11
M  V30 11 1 10 12
M  V30 12 2 12 13
M  V30 13 1 13 14
M  V30 14 2 14 15
M  V30 15 1 15 16
M  V30 16 2 16 17
M  V30 17 1 17 18
M  V30 18 1 18 19
M  V30 19 2 19 20
M  V30 20 1 20 21
M  V30 21 2 21 22
M  V30 22 1 22 23
M  V30 23 2 23 24
M  V30 24 1 17 25
M  V30 25 2 25 26
M  V30 26 2 7 27
M  V30 27 1 27 3
M  V30 28 1 26 9
M  V30 29 1 26 14
M  V30 30 1 24 19
M  V30 31 1 1 28
M  V30 32 1 1 29
M  V30 33 1 1 30
M  V30 34 1 4 31
M  V30 35 1 5 32
M  V30 36 1 6 33
M  V30 37 1 8 34
M  V30 38 1 8 35
M  V30 39 1 12 36
M  V30 40 1 15 37
M  V30 41 1 18 38
M  V30 42 1 20 39
M  V30 43 1 21 40
M  V30 44 1 22 41
M  V30 45 1 23 42
M  V30 46 1 24 43
M  V30 47 1 27 44
M  V30 END BOND
M  V30 END CTAB
M  END
>  <Dataset>  (356) 
ChEMBL_Kinases

>  <Ligand_Instance>  (356) 
nan

>  <PDB_ID>  (356) 
nan

>  <Standardized_SMILES>  (356) 
COc1cccc(Cn2c(=O)cnc3cnc(Nc4ccccc4)nc32)c1

>  <Name>  (356) 
nan

>  <Pocket>  (356) 
nan

>  <ATP_Site>  (356) 
nan

>  <Peripheral>  (356) 
nan

>  <Num_H_Atoms_ProtBoundConf>  (356) 
nan

>  <Num_Resolved_Atoms>  (356) 
nan

>  <Num_Not_Resolved_Atoms>  (356) 
nan

$$$$
CHEMBL1366263
     RDKit          3D

  0  0  0  0  0  0  0  0  0  0999 V3000
M  V30 BEGIN CTAB
M  V30 COUNTS 34 35 0 0 0
M  V30 BEGIN ATOM
M  V30 1 O -2.341974 -4.244226 2.141161 0
M  V30 2 C -1.710470 -3.239356 1.709110 0
M  V30 3 C -0.442013 -3.483135 0.972307 0
M  V30 4 O 0.053608 -2.206126 0.604927 0
M  V30 5 C 1.234443 -2.032203 -0.104172 0
M  V30 6 O 1.950406 -2.999254 -0.471997 0
M  V30 7 C 1.652368 -0.686464 -0.429506 0
M  V30 8 C 2.762184 -0.422291 -1.101791 0
M  V30 9 C 3.289522 0.882411 -1.489518 0
M  V30 10 C 4.483414 1.000338 -2.203136 0
M  V30 11 C 4.930017 2.257334 -2.540288 0
M  V30 12 C 4.270404 3.431762 -2.217774 0
M  V30 13 C 3.084166 3.313330 -1.508659 0
M  V30 14 F 2.404717 4.446538 -1.172016 0
M  V30 15 C 2.634965 2.052851 -1.169768 0
M  V30 16 N -2.241533 -1.953433 1.949016 0
M  V30 17 C -3.453037 -1.697382 2.651355 0
M  V30 18 N -4.642749 -1.625252 2.024826 0
M  V30 19 C -5.810718 -1.386032 2.645905 0
M  V30 20 C -5.734255 -1.210271 4.010323 0
M  V30 21 C -4.558826 -1.269907 4.714680 0
M  V30 22 N -3.449443 -1.515013 3.993480 0
M  V30 23 H -0.684151 -4.117793 0.096077 0
M  V30 24 H 0.271911 -4.022531 1.641619 0
M  V30 25 H 1.078771 0.185066 -0.140419 0
M  V30 26 H 3.340978 -1.303352 -1.393387 0
M  V30 27 H 5.048417 0.103915 -2.485731 0
M  V30 28 H 5.854842 2.355736 -3.093484 0
M  V30 29 H 4.691078 4.381774 -2.521803 0
M  V30 30 H 1.707499 2.056849 -0.620936 0
M  V30 31 H -1.734152 -1.110335 1.599826 0
M  V30 32 H -6.724197 -1.342857 2.075253 0
M  V30 33 H -6.690796 -1.015634 4.509534 0
M  V30 34 H -4.527004 -1.128540 5.783231 0
M  V30 END ATOM
M  V30 BEGIN BOND
M  V30 1 2 1 2
M  V30 2 1 2 3
M  V30 3 1 3 4
M  V30 4 1 4 5
M  V30 5 2 5 6
M  V30 6 1 5 7
M  V30 7 2 7 8
M  V30 8 1 8 9
M  V30 9 2 9 10
M  V30 10 1 10 11
M  V30 11 2 11 12
M  V30 12 1 12 13
M  V30 13 1 13 14
M  V30 14 2 13 15
M  V30 15 1 2 16
M  V30 16 1 16 17
M  V30 17 2 17 18
M  V30 18 1 18 19
M  V30 19 2 19 20
M  V30 20 1 20 21
M  V30 21 2 21 22
M  V30 22 1 15 9
M  V30 23 1 22 17
M  V30 24 1 3 23
M  V30 25 1 3 24
M  V30 26 1 7 25
M  V30 27 1 8 26
M  V30 28 1 10 27
M  V30 29 1 11 28
M  V30 30 1 12 29
M  V30 31 1 15 30
M  V30 32 1 16 31
M  V30 33 1 19 32
M  V30 34 1 20 33
M  V30 35 1 21 34
M  V30 END BOND
M  V30 END CTAB
M  END
>  <Dataset>  (357) 
ChEMBL_Kinases

>  <Ligand_Instance>  (357) 
nan

>  <PDB_ID>  (357) 
nan

>  <Standardized_SMILES>  (357) 
O=C(COC(=O)/C=C/c1cccc(F)c1)Nc1ncccn1

>  <Name>  (357) 
nan

>  <Pocket>  (357) 
nan

>  <ATP_Site>  (357) 
nan

>  <Peripheral>  (357) 
nan

>  <Num_H_Atoms_ProtBoundConf>  (357) 
nan

>  <Num_Resolved_Atoms>  (357) 
nan

>  <Num_Not_Resolved_Atoms>  (357) 
nan

$$$$
CHEMBL1364932
     RDKit          3D

  0  0  0  0  0  0  0  0  0  0999 V3000
M  V30 BEGIN CTAB
M  V30 COUNTS 39 40 0 0 0
M  V30 BEGIN ATOM
M  V30 1 C -0.421649 -4.751133 1.865207 0
M  V30 2 O 0.757357 -5.247388 2.373962 0
M  V30 3 C 1.218328 -6.394763 1.760031 0
M  V30 4 C 1.536307 -6.221568 0.301334 0
M  V30 5 S 2.805257 -5.055256 -0.096049 0
M  V30 6 C 2.349795 -3.322691 0.292138 0
M  V30 7 N 2.377785 -2.522944 1.103292 0
M  V30 8 N 1.974126 -1.308952 1.080561 0
M  V30 9 C 1.466362 -0.770269 0.146397 0
M  V30 10 N 0.955236 0.570660 -0.244771 0
M  V30 11 C 0.249005 0.940815 -1.483581 0
M  V30 12 O 0.271687 -0.270321 -1.924514 0
M  V30 13 C 0.008546 2.368596 -1.376318 0
M  V30 14 C -0.012690 2.973735 -0.023800 0
M  V30 15 C 1.287329 3.532516 0.221417 0
M  V30 16 C 1.326700 4.093033 1.516256 0
M  V30 17 C 0.445492 4.201722 2.509123 0
M  V30 18 C -0.754915 3.632052 2.153343 0
M  V30 19 C -1.039424 3.033021 0.964674 0
M  V30 20 O -2.156883 2.427414 0.452375 0
M  V30 21 C -3.343647 2.363841 1.262692 0
M  V30 22 S 1.521703 -2.246898 -1.033403 0
M  V30 23 H -0.423291 -4.492315 0.808604 0
M  V30 24 H -0.714919 -3.797063 2.399992 0
M  V30 25 H -1.262129 -5.464595 2.079136 0
M  V30 26 H 2.082305 -6.740968 2.367594 0
M  V30 27 H 0.425969 -7.180507 1.822132 0
M  V30 28 H 1.797169 -7.210897 -0.175227 0
M  V30 29 H 0.576270 -5.923577 -0.207627 0
M  V30 30 H 1.236562 1.149835 0.587855 0
M  V30 31 H -1.063440 2.556006 -1.755382 0
M  V30 32 H 0.604173 2.983783 -2.100398 0
M  V30 33 H 2.119014 3.550881 -0.428900 0
M  V30 34 H 2.329426 4.531442 1.744227 0
M  V30 35 H 0.670917 4.670348 3.442613 0
M  V30 36 H -1.602153 3.614714 2.821018 0
M  V30 37 H -3.275968 1.528480 1.992705 0
M  V30 38 H -4.265582 2.269944 0.649824 0
M  V30 39 H -3.469164 3.288461 1.877581 0
M  V30 END ATOM
M  V30 BEGIN BOND
M  V30 1 1 1 2
M  V30 2 1 2 3
M  V30 3 1 3 4
M  V30 4 1 4 5
M  V30 5 1 5 6
M  V30 6 2 6 7
M  V30 7 1 7 8
M  V30 8 2 8 9
M  V30 9 1 9 10
M  V30 10 1 10 11
M  V30 11 2 11 12
M  V30 12 1 11 13
M  V30 13 1 13 14
M  V30 14 2 14 15
M  V30 15 1 15 16
M  V30 16 2 16 17
M  V30 17 1 17 18
M  V30 18 2 18 19
M  V30 19 1 19 20
M  V30 20 1 20 21
M  V30 21 1 9 22
M  V30 22 1 22 6
M  V30 23 1 19 14
M  V30 24 1 1 23
M  V30 25 1 1 24
M  V30 26 1 1 25
M  V30 27 1 3 26
M  V30 28 1 3 27
M  V30 29 1 4 28
M  V30 30 1 4 29
M  V30 31 1 10 30
M  V30 32 1 13 31
M  V30 33 1 13 32
M  V30 34 1 15 33
M  V30 35 1 16 34
M  V30 36 1 17 35
M  V30 37 1 18 36
M  V30 38 1 21 37
M  V30 39 1 21 38
M  V30 40 1 21 39
M  V30 END BOND
M  V30 END CTAB
M  END
>  <Dataset>  (358) 
ChEMBL_Kinases

>  <Ligand_Instance>  (358) 
nan

>  <PDB_ID>  (358) 
nan

>  <Standardized_SMILES>  (358) 
COCCSc1nnc(NC(=O)Cc2ccccc2OC)s1

>  <Name>  (358) 
nan

>  <Pocket>  (358) 
nan

>  <ATP_Site>  (358) 
nan

>  <Peripheral>  (358) 
nan

>  <Num_H_Atoms_ProtBoundConf>  (358) 
nan

>  <Num_Resolved_Atoms>  (358) 
nan

>  <Num_Not_Resolved_Atoms>  (358) 
nan

$$$$
CHEMBL1369990
     RDKit          3D

  0  0  0  0  0  0  0  0  0  0999 V3000
M  V30 BEGIN CTAB
M  V30 COUNTS 43 44 0 0 0
M  V30 BEGIN ATOM
M  V30 1 C -2.572975 0.444828 1.045996 0
M  V30 2 C -1.637618 -0.637657 0.731770 0
M  V30 3 C -2.047489 -1.938712 1.019250 0
M  V30 4 C -1.204410 -3.005111 0.743899 0
M  V30 5 O -1.580445 -4.314082 1.017410 0
M  V30 6 C 0.042366 -2.806848 0.187013 0
M  V30 7 C 1.012774 -3.862053 -0.144791 0
M  V30 8 C 0.842042 -4.375955 -1.555207 0
M  V30 9 C 0.994976 -5.043261 0.782848 0
M  V30 10 C 0.416898 -1.490751 -0.086634 0
M  V30 11 C -0.407145 -0.408833 0.179148 0
M  V30 12 C -0.037750 0.993501 -0.099861 0
M  V30 13 N 0.334576 1.757993 1.054998 0
M  V30 14 C 0.688466 3.106319 0.747728 0
M  V30 15 C 2.137399 3.428683 1.007544 0
M  V30 16 C 2.410848 3.245429 2.465423 0
M  V30 17 C 1.859282 1.954637 2.949697 0
M  V30 18 C 1.238061 1.072239 1.913864 0
M  V30 19 H -3.430686 0.366453 0.338403 0
M  V30 20 H -2.143005 1.454342 1.100465 0
M  V30 21 H -3.005065 0.232370 2.060993 0
M  V30 22 H -3.003782 -2.176002 1.454164 0
M  V30 23 H -1.652955 -4.621922 1.995324 0
M  V30 24 H 2.060079 -3.449760 -0.087882 0
M  V30 25 H 1.821767 -4.646122 -1.993325 0
M  V30 26 H 0.344280 -3.588471 -2.141338 0
M  V30 27 H 0.169318 -5.275872 -1.592604 0
M  V30 28 H 1.031420 -4.742178 1.852468 0
M  V30 29 H 1.935360 -5.622714 0.544671 0
M  V30 30 H 0.183970 -5.778531 0.565805 0
M  V30 31 H 1.405583 -1.296962 -0.531371 0
M  V30 32 H 0.876150 0.924566 -0.762880 0
M  V30 33 H -0.770904 1.517352 -0.741441 0
M  V30 34 H 0.068196 3.792237 1.319660 0
M  V30 35 H 0.495959 3.276898 -0.338220 0
M  V30 36 H 2.250075 4.523225 0.779495 0
M  V30 37 H 2.845535 2.869606 0.394385 0
M  V30 38 H 2.065175 4.145606 3.046219 0
M  V30 39 H 3.535381 3.263800 2.572562 0
M  V30 40 H 1.092786 2.179299 3.739400 0
M  V30 41 H 2.658571 1.373625 3.452186 0
M  V30 42 H 0.640406 0.319419 2.507971 0
M  V30 43 H 2.011495 0.459987 1.393584 0
M  V30 END ATOM
M  V30 BEGIN BOND
M  V30 1 1 1 2
M  V30 2 2 2 3
M  V30 3 1 3 4
M  V30 4 1 4 5
M  V30 5 2 4 6
M  V30 6 1 6 7
M  V30 7 1 7 8
M  V30 8 1 7 9
M  V30 9 1 6 10
M  V30 10 2 10 11
M  V30 11 1 11 12
M  V30 12 1 12 13
M  V30 13 1 13 14
M  V30 14 1 14 15
M  V30 15 1 15 16
M  V30 16 1 16 17
M  V30 17 1 17 18
M  V30 18 1 11 2
M  V30 19 1 18 13
M  V30 20 1 1 19
M  V30 21 1 1 20
M  V30 22 1 1 21
M  V30 23 1 3 22
M  V30 24 1 5 23
M  V30 25 1 7 24
M  V30 26 1 8 25
M  V30 27 1 8 26
M  V30 28 1 8 27
M  V30 29 1 9 28
M  V30 30 1 9 29
M  V30 31 1 9 30
M  V30 32 1 10 31
M  V30 33 1 12 32
M  V30 34 1 12 33
M  V30 35 1 14 34
M  V30 36 1 14 35
M  V30 37 1 15 36
M  V30 38 1 15 37
M  V30 39 1 16 38
M  V30 40 1 16 39
M  V30 41 1 17 40
M  V30 42 1 17 41
M  V30 43 1 18 42
M  V30 44 1 18 43
M  V30 END BOND
M  V30 END CTAB
M  END
>  <Dataset>  (359) 
ChEMBL_Kinases

>  <Ligand_Instance>  (359) 
nan

>  <PDB_ID>  (359) 
nan

>  <Standardized_SMILES>  (359) 
Cc1cc(O)c(C(C)C)cc1CN1CCCCC1

>  <Name>  (359) 
nan

>  <Pocket>  (359) 
nan

>  <ATP_Site>  (359) 
nan

>  <Peripheral>  (359) 
nan

>  <Num_H_Atoms_ProtBoundConf>  (359) 
nan

>  <Num_Resolved_Atoms>  (359) 
nan

>  <Num_Not_Resolved_Atoms>  (359) 
nan

$$$$
CHEMBL1369983
     RDKit          3D

  0  0  0  0  0  0  0  0  0  0999 V3000
M  V30 BEGIN CTAB
M  V30 COUNTS 28 29 0 0 0
M  V30 BEGIN ATOM
M  V30 1 N -1.085429 -0.795233 4.776225 0
M  V30 2 C -0.222479 -1.709847 4.072883 0
M  V30 3 N 0.083532 -3.018252 4.233060 0
M  V30 4 N 0.952945 -3.343899 3.273344 0
M  V30 5 C 1.197576 -2.252354 2.508681 0
M  V30 6 S 2.366375 -2.625439 1.186763 0
M  V30 7 C 1.489406 -3.157202 -0.299960 0
M  V30 8 C 0.717478 -2.104469 -0.970325 0
M  V30 9 O 0.102257 -2.739184 -1.899900 0
M  V30 10 C 0.470887 -0.675164 -0.891612 0
M  V30 11 C -0.450127 -0.173715 -1.782396 0
M  V30 12 C -0.688211 1.188555 -1.733369 0
M  V30 13 C -0.062677 2.026338 -0.859974 0
M  V30 14 N -0.332449 3.426133 -0.838878 0 CHG=1 VAL=4
M  V30 15 O -1.182710 3.878461 -1.663185 0
M  V30 16 O 0.303634 4.252914 0.047235 0 CHG=-1 VAL=1
M  V30 17 C 0.878478 1.540447 0.056039 0
M  V30 18 C 1.087015 0.193666 -0.023183 0
M  V30 19 N 0.471371 -1.233040 2.999346 0
M  V30 20 H -2.037681 -0.689161 4.346747 0
M  V30 21 H -0.954673 -0.206349 5.642043 0
M  V30 22 H 1.219734 -4.368796 3.367455 0
M  V30 23 H 2.280625 -3.569875 -0.983954 0
M  V30 24 H 0.806333 -3.983185 0.042728 0
M  V30 25 H -1.012146 -0.724923 -2.516938 0
M  V30 26 H -1.413140 1.638016 -2.421351 0
M  V30 27 H 1.400893 2.165245 0.765323 0
M  V30 28 H 1.818788 -0.192674 0.669764 0
M  V30 END ATOM
M  V30 BEGIN BOND
M  V30 1 1 1 2
M  V30 2 2 2 3
M  V30 3 1 3 4
M  V30 4 1 4 5
M  V30 5 1 5 6
M  V30 6 1 6 7
M  V30 7 1 7 8
M  V30 8 2 8 9
M  V30 9 1 8 10
M  V30 10 2 10 11
M  V30 11 1 11 12
M  V30 12 2 12 13
M  V30 13 1 13 14
M  V30 14 2 14 15
M  V30 15 1 14 16
M  V30 16 1 13 17
M  V30 17 2 17 18
M  V30 18 2 5 19
M  V30 19 1 19 2
M  V30 20 1 18 10
M  V30 21 1 1 20
M  V30 22 1 1 21
M  V30 23 1 4 22
M  V30 24 1 7 23
M  V30 25 1 7 24
M  V30 26 1 11 25
M  V30 27 1 12 26
M  V30 28 1 17 27
M  V30 29 1 18 28
M  V30 END BOND
M  V30 END CTAB
M  END
>  <Dataset>  (360) 
ChEMBL_Kinases

>  <Ligand_Instance>  (360) 
nan

>  <PDB_ID>  (360) 
nan

>  <Standardized_SMILES>  (360) 
Nc1n[nH]c(SCC(=O)c2ccc([N+](=O)[O-])cc2)n1

>  <Name>  (360) 
nan

>  <Pocket>  (360) 
nan

>  <ATP_Site>  (360) 
nan

>  <Peripheral>  (360) 
nan

>  <Num_H_Atoms_ProtBoundConf>  (360) 
nan

>  <Num_Resolved_Atoms>  (360) 
nan

>  <Num_Not_Resolved_Atoms>  (360) 
nan

$$$$
CHEMBL1369896
     RDKit          3D

  0  0  0  0  0  0  0  0  0  0999 V3000
M  V30 BEGIN CTAB
M  V30 COUNTS 26 28 0 0 0
M  V30 BEGIN ATOM
M  V30 1 C -2.250328 0.045587 4.134202 0
M  V30 2 C -1.030851 -0.563372 4.361806 0
M  V30 3 C -0.115210 -0.588383 3.332342 0
M  V30 4 C -0.385416 -0.031602 2.110356 0
M  V30 5 C 0.649056 -0.096243 1.048272 0 CFG=2
M  V30 6 C 0.120118 0.144981 -0.327873 0
M  V30 7 N 1.014632 -0.667938 -1.145552 0
M  V30 8 C 1.470281 -0.611593 -2.488333 0
M  V30 9 C 2.555615 -1.605771 -2.721612 0
M  V30 10 S 2.057523 -2.909705 -1.523537 0
M  V30 11 C 1.459296 -1.731980 -0.275596 0
M  V30 12 N 1.247305 -1.399273 0.951223 0
M  V30 13 C -1.604429 0.582962 1.866630 0
M  V30 14 C -2.518749 0.605644 2.900980 0
M  V30 15 H -2.993098 0.083167 4.921305 0
M  V30 16 H -0.785662 -1.015905 5.324304 0
M  V30 17 H 0.852091 -1.065839 3.497392 0
M  V30 18 H 1.407807 0.701203 1.235008 0
M  V30 19 H -0.893254 -0.333503 -0.478618 0
M  V30 20 H 0.108232 1.205662 -0.609758 0
M  V30 21 H 0.670875 -0.727511 -3.247493 0
M  V30 22 H 1.925566 0.391180 -2.678660 0
M  V30 23 H 2.553948 -1.980306 -3.757781 0
M  V30 24 H 3.547182 -1.257216 -2.374659 0
M  V30 25 H -1.792852 1.011006 0.904020 0
M  V30 26 H -3.493717 1.077817 2.759775 0
M  V30 END ATOM
M  V30 BEGIN BOND
M  V30 1 2 1 2
M  V30 2 1 2 3
M  V30 3 2 3 4
M  V30 4 1 4 5
M  V30 5 1 5 6
M  V30 6 1 6 7
M  V30 7 1 7 8
M  V30 8 1 8 9
M  V30 9 1 9 10
M  V30 10 1 10 11
M  V30 11 2 11 12
M  V30 12 1 4 13
M  V30 13 2 13 14
M  V30 14 1 14 1
M  V30 15 1 12 5
M  V30 16 1 11 7
M  V30 17 1 1 15
M  V30 18 1 2 16
M  V30 19 1 3 17
M  V30 20 1 5 18 CFG=1
M  V30 21 1 6 19
M  V30 22 1 6 20
M  V30 23 1 8 21
M  V30 24 1 8 22
M  V30 25 1 9 23
M  V30 26 1 9 24
M  V30 27 1 13 25
M  V30 28 1 14 26
M  V30 END BOND
M  V30 END CTAB
M  END
>  <Dataset>  (361) 
ChEMBL_Kinases

>  <Ligand_Instance>  (361) 
nan

>  <PDB_ID>  (361) 
nan

>  <Standardized_SMILES>  (361) 
c1ccc([C@@H]2CN3CCSC3=N2)cc1

>  <Name>  (361) 
DEXAMISOLE

>  <Pocket>  (361) 
nan

>  <ATP_Site>  (361) 
nan

>  <Peripheral>  (361) 
nan

>  <Num_H_Atoms_ProtBoundConf>  (361) 
nan

>  <Num_Resolved_Atoms>  (361) 
nan

>  <Num_Not_Resolved_Atoms>  (361) 
nan

$$$$
CHEMBL1369841
     RDKit          3D

  0  0  0  0  0  0  0  0  0  0999 V3000
M  V30 BEGIN CTAB
M  V30 COUNTS 53 55 0 0 0
M  V30 BEGIN ATOM
M  V30 1 C 3.402876 0.363527 3.735992 0
M  V30 2 C 2.182410 -0.146990 4.436407 0
M  V30 3 O 1.266607 -0.809205 3.587516 0
M  V30 4 C 0.663992 -0.198966 2.506422 0
M  V30 5 O 1.180971 0.926524 2.609539 0
M  V30 6 C -0.283831 -0.580332 1.476091 0
M  V30 7 C -0.587619 0.416577 0.584347 0
M  V30 8 N -0.210843 1.755180 0.398268 0
M  V30 9 C -0.745444 2.517119 -0.674890 0
M  V30 10 O -1.581895 2.085272 -1.536806 0
M  V30 11 C -0.435291 3.919695 -0.978720 0
M  V30 12 S 0.768947 4.659514 0.132889 0
M  V30 13 C 2.395946 3.992920 -0.020569 0
M  V30 14 C 3.363638 4.494664 0.856050 0
M  V30 15 C 4.665760 4.033133 0.801042 0
M  V30 16 C 5.049332 3.063254 -0.120579 0
M  V30 17 C 4.075614 2.585375 -0.973610 0
M  V30 18 N 2.822735 3.060274 -0.887563 0 CHG=1 VAL=4
M  V30 19 O 1.894911 2.572142 -1.750262 0 CHG=-1 VAL=1
M  V30 20 S -1.732165 -0.410861 -0.475721 0
M  V30 21 C -1.708389 -1.974124 0.339263 0
M  V30 22 C -2.569527 -3.021538 -0.246284 0
M  V30 23 O -3.275714 -2.767776 -1.284823 0
M  V30 24 N -2.768535 -4.351680 0.164146 0
M  V30 25 C -3.636311 -5.209209 -0.525214 0
M  V30 26 C -4.990950 -5.319786 -0.202196 0
M  V30 27 C -5.840865 -6.180887 -0.900416 0
M  V30 28 C -5.317817 -6.943858 -1.942216 0
M  V30 29 C -3.975391 -6.812063 -2.237385 0
M  V30 30 C -3.106221 -5.969529 -1.566434 0
M  V30 31 C -0.859557 -1.795819 1.343837 0
M  V30 32 C -0.609987 -2.952385 2.245075 0
M  V30 33 H 3.639534 -0.124456 2.780976 0
M  V30 34 H 3.357021 1.452227 3.523821 0
M  V30 35 H 4.287006 0.242507 4.403755 0
M  V30 36 H 1.708087 0.656767 5.030989 0
M  V30 37 H 2.525659 -0.945105 5.157864 0
M  V30 38 H 0.442942 2.344378 0.946582 0
M  V30 39 H -1.351871 4.546012 -1.041618 0
M  V30 40 H 0.015691 3.997249 -2.013660 0
M  V30 41 H 3.214294 5.252466 1.627817 0
M  V30 42 H 5.479529 4.361284 1.436775 0
M  V30 43 H 6.058441 2.687040 -0.183331 0
M  V30 44 H 4.332977 1.831919 -1.703669 0
M  V30 45 H -2.226710 -4.637521 1.007255 0
M  V30 46 H -5.381437 -4.714840 0.615827 0
M  V30 47 H -6.865897 -6.215603 -0.599435 0
M  V30 48 H -5.970578 -7.616900 -2.492638 0
M  V30 49 H -3.615348 -7.431210 -3.061176 0
M  V30 50 H -2.054480 -5.893921 -1.828546 0
M  V30 51 H -0.116745 -3.805193 1.698429 0
M  V30 52 H -1.516932 -3.272102 2.810672 0
M  V30 53 H 0.127497 -2.729140 3.057718 0
M  V30 END ATOM
M  V30 BEGIN BOND
M  V30 1 1 1 2
M  V30 2 1 2 3
M  V30 3 1 3 4
M  V30 4 2 4 5
M  V30 5 1 4 6
M  V30 6 2 6 7
M  V30 7 1 7 8
M  V30 8 1 8 9
M  V30 9 2 9 10
M  V30 10 1 9 11
M  V30 11 1 11 12
M  V30 12 1 12 13
M  V30 13 2 13 14
M  V30 14 1 14 15
M  V30 15 2 15 16
M  V30 16 1 16 17
M  V30 17 2 17 18
M  V30 18 1 18 19
M  V30 19 1 7 20
M  V30 20 1 20 21
M  V30 21 1 21 22
M  V30 22 2 22 23
M  V30 23 1 22 24
M  V30 24 1 24 25
M  V30 25 2 25 26
M  V30 26 1 26 27
M  V30 27 2 27 28
M  V30 28 1 28 29
M  V30 29 2 29 30
M  V30 30 2 21 31
M  V30 31 1 31 32
M  V30 32 1 31 6
M  V30 33 1 18 13
M  V30 34 1 30 25
M  V30 35 1 1 33
M  V30 36 1 1 34
M  V30 37 1 1 35
M  V30 38 1 2 36
M  V30 39 1 2 37
M  V30 40 1 8 38
M  V30 41 1 11 39
M  V30 42 1 11 40
M  V30 43 1 14 41
M  V30 44 1 15 42
M  V30 45 1 16 43
M  V30 46 1 17 44
M  V30 47 1 24 45
M  V30 48 1 26 46
M  V30 49 1 27 47
M  V30 50 1 28 48
M  V30 51 1 29 49
M  V30 52 1 30 50
M  V30 53 1 32 51
M  V30 54 1 32 52
M  V30 55 1 32 53
M  V30 END BOND
M  V30 END CTAB
M  END
>  <Dataset>  (362) 
ChEMBL_Kinases

>  <Ligand_Instance>  (362) 
nan

>  <PDB_ID>  (362) 
nan

>  <Standardized_SMILES>  (362) 
CCOC(=O)c1c(NC(=O)CSc2cccc[n+]2[O-])sc(C(=O)Nc2ccccc2)c1C

>  <Name>  (362) 
nan

>  <Pocket>  (362) 
nan

>  <ATP_Site>  (362) 
nan

>  <Peripheral>  (362) 
nan

>  <Num_H_Atoms_ProtBoundConf>  (362) 
nan

>  <Num_Resolved_Atoms>  (362) 
nan

>  <Num_Not_Resolved_Atoms>  (362) 
nan

$$$$
CHEMBL1369723
     RDKit          3D

  0  0  0  0  0  0  0  0  0  0999 V3000
M  V30 BEGIN CTAB
M  V30 COUNTS 38 39 0 0 0
M  V30 BEGIN ATOM
M  V30 1 C 0.613359 -7.865582 1.419611 0
M  V30 2 O 1.001612 -6.505237 1.409191 0
M  V30 3 C 1.121917 -5.740554 0.263180 0
M  V30 4 O 0.889500 -6.207360 -0.887899 0
M  V30 5 C 1.533731 -4.331743 0.365814 0
M  V30 6 C 1.646327 -3.587319 -0.800380 0
M  V30 7 C 2.038631 -2.256483 -0.665486 0
M  V30 8 C 2.299042 -1.713697 0.556335 0
M  V30 9 N 2.684152 -0.339668 0.464714 0
M  V30 10 C 1.546174 0.505800 0.542466 0
M  V30 11 O 0.368425 0.933117 0.640553 0
M  V30 12 C 1.702873 2.001760 0.468300 0
M  V30 13 N 0.410310 2.650728 0.567991 0
M  V30 14 N -0.359044 2.943166 -0.448087 0
M  V30 15 C -1.488029 3.539219 -0.027506 0
M  V30 16 S -2.777327 4.081052 -1.137509 0
M  V30 17 C -4.149423 4.839168 -0.241051 0
M  V30 18 N -1.415179 3.620320 1.314709 0
M  V30 19 N -2.403460 4.181227 2.131078 0
M  V30 20 C -0.238500 3.068619 1.672700 0
M  V30 21 S 0.310142 2.931375 3.214058 0
M  V30 22 C 2.188116 -2.452240 1.722363 0
M  V30 23 C 1.797846 -3.780716 1.603291 0
M  V30 24 H -0.256332 -7.959526 2.113543 0
M  V30 25 H 0.333059 -8.222738 0.395719 0
M  V30 26 H 1.434619 -8.532167 1.766449 0
M  V30 27 H 1.430121 -4.053676 -1.762634 0
M  V30 28 H 2.100377 -1.750015 -1.631695 0
M  V30 29 H 3.592171 0.154945 0.356676 0
M  V30 30 H 2.400701 2.366723 1.257780 0
M  V30 31 H 2.142395 2.228505 -0.518524 0
M  V30 32 H -4.692929 5.587594 -0.871071 0
M  V30 33 H -3.807308 5.404528 0.648189 0
M  V30 34 H -4.853795 4.060586 0.111370 0
M  V30 35 H -2.491022 5.063346 2.718526 0
M  V30 36 H -3.301052 3.617472 2.208418 0
M  V30 37 H 2.412071 -1.941820 2.628107 0
M  V30 38 H 1.710451 -4.359843 2.512889 0
M  V30 END ATOM
M  V30 BEGIN BOND
M  V30 1 1 1 2
M  V30 2 1 2 3
M  V30 3 2 3 4
M  V30 4 1 3 5
M  V30 5 2 5 6
M  V30 6 1 6 7
M  V30 7 2 7 8
M  V30 8 1 8 9
M  V30 9 1 9 10
M  V30 10 2 10 11
M  V30 11 1 10 12
M  V30 12 1 12 13
M  V30 13 1 13 14
M  V30 14 2 14 15
M  V30 15 1 15 16
M  V30 16 1 16 17
M  V30 17 1 15 18
M  V30 18 1 18 19
M  V30 19 1 18 20
M  V30 20 2 20 21
M  V30 21 1 8 22
M  V30 22 2 22 23
M  V30 23 1 23 5
M  V30 24 1 20 13
M  V30 25 1 1 24
M  V30 26 1 1 25
M  V30 27 1 1 26
M  V30 28 1 6 27
M  V30 29 1 7 28
M  V30 30 1 9 29
M  V30 31 1 12 30
M  V30 32 1 12 31
M  V30 33 1 17 32
M  V30 34 1 17 33
M  V30 35 1 17 34
M  V30 36 1 19 35
M  V30 37 1 19 36
M  V30 38 1 22 37
M  V30 39 1 23 38
M  V30 END BOND
M  V30 END CTAB
M  END
>  <Dataset>  (363) 
ChEMBL_Kinases

>  <Ligand_Instance>  (363) 
nan

>  <PDB_ID>  (363) 
nan

>  <Standardized_SMILES>  (363) 
COC(=O)c1ccc(NC(=O)Cn2nc(SC)n(N)c2=S)cc1

>  <Name>  (363) 
nan

>  <Pocket>  (363) 
nan

>  <ATP_Site>  (363) 
nan

>  <Peripheral>  (363) 
nan

>  <Num_H_Atoms_ProtBoundConf>  (363) 
nan

>  <Num_Resolved_Atoms>  (363) 
nan

>  <Num_Not_Resolved_Atoms>  (363) 
nan

$$$$
CHEMBL1369588
     RDKit          3D

  0  0  0  0  0  0  0  0  0  0999 V3000
M  V30 BEGIN CTAB
M  V30 COUNTS 29 32 0 0 0
M  V30 BEGIN ATOM
M  V30 1 C 0.372418 -3.861680 4.712738 0
M  V30 2 C 0.331442 -2.482981 4.822646 0
M  V30 3 C 0.307025 -1.732086 3.666015 0
M  V30 4 C 0.321967 -2.304950 2.412383 0
M  V30 5 C 0.296976 -1.541677 1.171368 0
M  V30 6 C 0.255605 -0.162027 1.149251 0
M  V30 7 C 0.233879 0.492008 -0.060770 0
M  V30 8 C 0.250396 -0.130422 -1.288894 0
M  V30 9 N 0.291290 -1.490091 -1.190499 0
M  V30 10 N 0.312534 -2.131930 -0.037175 0
M  V30 11 C 0.233465 0.387423 -2.656128 0
M  V30 12 C 0.183728 1.888692 -2.735548 0
M  V30 13 C 0.170855 2.450026 -1.370835 0
M  V30 14 N 0.130808 3.787944 -1.198236 0
M  V30 15 O 0.125658 4.058801 0.070466 0
M  V30 16 N 0.160712 2.957018 0.790347 0
M  V30 17 C 0.189212 1.945578 -0.088540 0
M  V30 18 C 0.362893 -3.680892 2.318866 0
M  V30 19 C 0.388417 -4.470232 3.451801 0
M  V30 20 H 0.393401 -4.514645 5.575380 0
M  V30 21 H 0.319391 -2.022933 5.801104 0
M  V30 22 H 0.275217 -0.660722 3.763945 0
M  V30 23 H 0.239853 0.416361 2.042963 0
M  V30 24 H 1.153134 0.079049 -3.235365 0
M  V30 25 H -0.606341 -0.076905 -3.258484 0
M  V30 26 H 1.010745 2.301804 -3.354043 0
M  V30 27 H -0.777354 2.144916 -3.283279 0
M  V30 28 H 0.375332 -4.154102 1.338972 0
M  V30 29 H 0.420239 -5.543743 3.318243 0
M  V30 END ATOM
M  V30 BEGIN BOND
M  V30 1 2 1 2
M  V30 2 1 2 3
M  V30 3 2 3 4
M  V30 4 1 4 5
M  V30 5 2 5 6
M  V30 6 1 6 7
M  V30 7 2 7 8
M  V30 8 1 8 9
M  V30 9 2 9 10
M  V30 10 1 8 11
M  V30 11 1 11 12
M  V30 12 1 12 13
M  V30 13 2 13 14
M  V30 14 1 14 15
M  V30 15 1 15 16
M  V30 16 2 16 17
M  V30 17 1 4 18
M  V30 18 2 18 19
M  V30 19 1 19 1
M  V30 20 1 10 5
M  V30 21 1 17 13
M  V30 22 1 17 7
M  V30 23 1 1 20
M  V30 24 1 2 21
M  V30 25 1 3 22
M  V30 26 1 6 23
M  V30 27 1 11 24
M  V30 28 1 11 25
M  V30 29 1 12 26
M  V30 30 1 12 27
M  V30 31 1 18 28
M  V30 32 1 19 29
M  V30 END BOND
M  V30 END CTAB
M  END
>  <Dataset>  (364) 
ChEMBL_Kinases

>  <Ligand_Instance>  (364) 
nan

>  <PDB_ID>  (364) 
nan

>  <Standardized_SMILES>  (364) 
c1ccc(-c2cc3c(nn2)CCc2nonc2-3)cc1

>  <Name>  (364) 
nan

>  <Pocket>  (364) 
nan

>  <ATP_Site>  (364) 
nan

>  <Peripheral>  (364) 
nan

>  <Num_H_Atoms_ProtBoundConf>  (364) 
nan

>  <Num_Resolved_Atoms>  (364) 
nan

>  <Num_Not_Resolved_Atoms>  (364) 
nan

$$$$
CHEMBL1369513
     RDKit          3D

  0  0  0  0  0  0  0  0  0  0999 V3000
M  V30 BEGIN CTAB
M  V30 COUNTS 44 46 0 0 0
M  V30 BEGIN ATOM
M  V30 1 C 1.321846 -7.609795 -1.313241 0
M  V30 2 C 1.367515 -6.282898 -1.301191 0
M  V30 3 C 2.069542 -5.608463 -0.208252 0
M  V30 4 N 1.124212 -4.735600 0.516774 0
M  V30 5 C 0.906512 -3.389541 0.168880 0
M  V30 6 O 1.503424 -2.797852 -0.800387 0
M  V30 7 C -0.048455 -2.681442 0.976052 0
M  V30 8 C -0.186657 -1.377597 1.114834 0
M  V30 9 C 0.639650 -0.387215 0.446123 0
M  V30 10 C 0.407381 0.899346 0.662446 0
M  V30 11 N 1.115930 2.022069 0.093889 0
M  V30 12 C 2.228459 1.966787 -0.834724 0
M  V30 13 C 0.541965 3.212247 0.595453 0
M  V30 14 C 0.840539 4.535923 0.373827 0
M  V30 15 C 0.130882 5.549383 0.986260 0
M  V30 16 C -0.914362 5.252109 1.851404 0
M  V30 17 C -1.199773 3.898250 2.061378 0
M  V30 18 C -0.478182 2.886706 1.439050 0
M  V30 19 C -0.652345 1.413029 1.552722 0
M  V30 20 C -2.042761 1.109062 1.093414 0
M  V30 21 C -0.412866 1.050014 3.000873 0
M  V30 22 S -1.012698 -3.999330 1.759534 0
M  V30 23 C 0.351900 -5.179911 1.625917 0
M  V30 24 S 0.666317 -6.500243 2.568642 0
M  V30 25 H 1.839200 -8.089068 -0.463092 0
M  V30 26 H 0.879750 -8.323194 -1.989213 0
M  V30 27 H 0.904030 -5.679952 -2.071080 0
M  V30 28 H 2.940631 -5.007800 -0.544909 0
M  V30 29 H 2.447300 -6.329255 0.540113 0
M  V30 30 H -0.976230 -1.067682 1.776721 0
M  V30 31 H 1.456719 -0.568361 -0.234528 0
M  V30 32 H 2.697032 0.977762 -0.890326 0
M  V30 33 H 1.798826 2.153022 -1.862485 0
M  V30 34 H 2.969122 2.752165 -0.594426 0
M  V30 35 H 1.638269 4.847655 -0.284641 0
M  V30 36 H 0.362696 6.604398 0.814712 0
M  V30 37 H -1.440891 6.056857 2.307067 0
M  V30 38 H -2.034504 3.708620 2.753184 0
M  V30 39 H -2.611162 2.010444 0.749331 0
M  V30 40 H -2.127716 0.391897 0.260415 0
M  V30 41 H -2.621349 0.708436 1.951076 0
M  V30 42 H -1.332118 0.669021 3.494168 0
M  V30 43 H -0.098996 1.937782 3.618282 0
M  V30 44 H 0.439304 0.331395 3.117540 0
M  V30 END ATOM
M  V30 BEGIN BOND
M  V30 1 2 1 2
M  V30 2 1 2 3
M  V30 3 1 3 4
M  V30 4 1 4 5
M  V30 5 2 5 6
M  V30 6 1 5 7
M  V30 7 2 7 8
M  V30 8 1 8 9
M  V30 9 2 9 10
M  V30 10 1 10 11
M  V30 11 1 11 12
M  V30 12 1 11 13
M  V30 13 2 13 14
M  V30 14 1 14 15
M  V30 15 2 15 16
M  V30 16 1 16 17
M  V30 17 2 17 18
M  V30 18 1 18 19
M  V30 19 1 19 20
M  V30 20 1 19 21
M  V30 21 1 7 22
M  V30 22 1 22 23
M  V30 23 2 23 24
M  V30 24 1 23 4
M  V30 25 1 19 10
M  V30 26 1 18 13
M  V30 27 1 1 25
M  V30 28 1 1 26
M  V30 29 1 2 27
M  V30 30 1 3 28
M  V30 31 1 3 29
M  V30 32 1 8 30
M  V30 33 1 9 31
M  V30 34 1 12 32
M  V30 35 1 12 33
M  V30 36 1 12 34
M  V30 37 1 14 35
M  V30 38 1 15 36
M  V30 39 1 16 37
M  V30 40 1 17 38
M  V30 41 1 20 39
M  V30 42 1 20 40
M  V30 43 1 20 41
M  V30 44 1 21 42
M  V30 45 1 21 43
M  V30 46 1 21 44
M  V30 END BOND
M  V30 END CTAB
M  END
>  <Dataset>  (365) 
ChEMBL_Kinases

>  <Ligand_Instance>  (365) 
nan

>  <PDB_ID>  (365) 
nan

>  <Standardized_SMILES>  (365) 
C=CCN1C(=O)/C(=C\C=C2\N(C)c3ccccc3C2(C)C)SC1=S

>  <Name>  (365) 
nan

>  <Pocket>  (365) 
nan

>  <ATP_Site>  (365) 
nan

>  <Peripheral>  (365) 
nan

>  <Num_H_Atoms_ProtBoundConf>  (365) 
nan

>  <Num_Resolved_Atoms>  (365) 
nan

>  <Num_Not_Resolved_Atoms>  (365) 
nan

$$$$
CHEMBL1369507
     RDKit          3D

  0  0  0  0  0  0  0  0  0  0999 V3000
M  V30 BEGIN CTAB
M  V30 COUNTS 24 25 0 0 0
M  V30 BEGIN ATOM
M  V30 1 N -0.525177 -3.530101 2.466668 0
M  V30 2 C 0.012095 -2.466691 1.690932 0
M  V30 3 O 0.675642 -1.643439 2.338601 0
M  V30 4 C -0.181033 -2.324808 0.252477 0
M  V30 5 C -0.896424 -3.205910 -0.466783 0
M  V30 6 C -0.968467 -2.880584 -1.895909 0
M  V30 7 S 0.027858 -1.309259 -2.022031 0
M  V30 8 C 0.411247 -1.229463 -0.350838 0
M  V30 9 N 1.208897 -0.148160 0.127104 0
M  V30 10 C 0.538853 1.030835 0.555696 0
M  V30 11 O -0.714260 1.163652 0.533209 0
M  V30 12 C 1.332951 2.151376 1.049027 0
M  V30 13 C 0.876532 3.370057 1.506234 0
M  V30 14 C 1.944405 4.173423 1.889886 0
M  V30 15 C 3.044544 3.349194 1.628226 0
M  V30 16 O 2.650938 2.207096 1.150391 0
M  V30 17 H -1.492299 -3.159302 2.581431 0
M  V30 18 H -0.262711 -4.442740 2.890954 0
M  V30 19 H -1.380631 -4.076604 -0.054756 0
M  V30 20 H -1.629791 -3.701766 -2.538961 0
M  V30 21 H 2.263096 -0.196979 0.171036 0
M  V30 22 H -0.161271 3.702012 1.575875 0
M  V30 23 H 1.986835 5.177595 2.291767 0
M  V30 24 H 4.090309 3.582312 1.783777 0
M  V30 END ATOM
M  V30 BEGIN BOND
M  V30 1 1 1 2
M  V30 2 2 2 3
M  V30 3 1 2 4
M  V30 4 1 4 5
M  V30 5 2 5 6
M  V30 6 1 6 7
M  V30 7 1 7 8
M  V30 8 1 8 9
M  V30 9 1 9 10
M  V30 10 2 10 11
M  V30 11 1 10 12
M  V30 12 2 12 13
M  V30 13 1 13 14
M  V30 14 2 14 15
M  V30 15 1 15 16
M  V30 16 2 8 4
M  V30 17 1 16 12
M  V30 18 1 1 17
M  V30 19 1 1 18
M  V30 20 1 5 19
M  V30 21 1 6 20
M  V30 22 1 9 21
M  V30 23 1 13 22
M  V30 24 1 14 23
M  V30 25 1 15 24
M  V30 END BOND
M  V30 END CTAB
M  END
>  <Dataset>  (366) 
ChEMBL_Kinases

>  <Ligand_Instance>  (366) 
nan

>  <PDB_ID>  (366) 
nan

>  <Standardized_SMILES>  (366) 
NC(=O)c1ccsc1NC(=O)c1ccco1

>  <Name>  (366) 
nan

>  <Pocket>  (366) 
nan

>  <ATP_Site>  (366) 
nan

>  <Peripheral>  (366) 
nan

>  <Num_H_Atoms_ProtBoundConf>  (366) 
nan

>  <Num_Resolved_Atoms>  (366) 
nan

>  <Num_Not_Resolved_Atoms>  (366) 
nan

$$$$
CHEMBL1369442
     RDKit          3D

  0  0  0  0  0  0  0  0  0  0999 V3000
M  V30 BEGIN CTAB
M  V30 COUNTS 44 46 0 0 0
M  V30 BEGIN ATOM
M  V30 1 O -0.770526 -3.052079 -0.763497 0
M  V30 2 C 0.033161 -2.219388 -0.210695 0
M  V30 3 O -1.333255 -1.898352 -0.140875 0
M  V30 4 C 1.465001 -2.482201 -0.241061 0
M  V30 5 C 2.086300 -2.603106 1.132592 0
M  V30 6 C 3.151494 -3.677506 1.044624 0
M  V30 7 C 4.039684 -3.025693 -0.011188 0
M  V30 8 C 3.567036 -1.596997 0.027477 0
M  V30 9 O 2.937469 -1.490906 1.271722 0
M  V30 10 C 2.324871 -1.410352 -0.859216 0
M  V30 11 C 1.842541 -0.046230 -0.636246 0
M  V30 12 O 2.524368 0.805561 0.034639 0
M  V30 13 N 0.633416 0.553028 -1.079590 0
M  V30 14 C 0.262081 1.902198 -0.800983 0
M  V30 15 C 0.128623 2.269088 0.634784 0
M  V30 16 C -0.874088 1.512099 1.399597 0
M  V30 17 C -0.460042 0.800370 2.454948 0
M  V30 18 C -1.556049 0.059969 3.174935 0
M  V30 19 C -2.866003 0.802234 3.047632 0
M  V30 20 C -3.249810 1.047583 1.616421 0
M  V30 21 C -2.213468 1.723097 0.786687 0
M  V30 22 H -1.655235 -1.091531 0.392434 0
M  V30 23 H 1.656068 -3.417195 -0.833682 0
M  V30 24 H 1.379104 -2.722426 1.951820 0
M  V30 25 H 2.762231 -4.654255 0.708952 0
M  V30 26 H 3.662195 -3.715369 2.017085 0
M  V30 27 H 3.739969 -3.468762 -0.982558 0
M  V30 28 H 5.103400 -3.100304 0.201406 0
M  V30 29 H 4.341038 -0.854552 -0.162817 0
M  V30 30 H 2.572285 -1.624594 -1.918683 0
M  V30 31 H 0.003316 -0.084006 -1.656014 0
M  V30 32 H -0.704253 2.121554 -1.315357 0
M  V30 33 H 0.998187 2.628985 -1.244558 0
M  V30 34 H -0.184629 3.355135 0.671903 0
M  V30 35 H 1.115838 2.278807 1.160972 0
M  V30 36 H 0.588911 0.810315 2.701398 0
M  V30 37 H -1.611855 -0.961084 2.787579 0
M  V30 38 H -1.265932 0.033954 4.236318 0
M  V30 39 H -2.753546 1.774014 3.552824 0
M  V30 40 H -3.639707 0.138154 3.486304 0
M  V30 41 H -3.590156 0.131246 1.104998 0
M  V30 42 H -4.171327 1.698239 1.654405 0
M  V30 43 H -2.441420 2.826011 0.695137 0
M  V30 44 H -2.179401 1.254427 -0.214984 0
M  V30 END ATOM
M  V30 BEGIN BOND
M  V30 1 2 1 2
M  V30 2 1 2 3
M  V30 3 1 2 4
M  V30 4 1 4 5
M  V30 5 1 5 6
M  V30 6 1 6 7
M  V30 7 1 7 8
M  V30 8 1 8 9
M  V30 9 1 8 10
M  V30 10 1 10 11
M  V30 11 2 11 12
M  V30 12 1 11 13
M  V30 13 1 13 14
M  V30 14 1 14 15
M  V30 15 1 15 16
M  V30 16 2 16 17
M  V30 17 1 17 18
M  V30 18 1 18 19
M  V30 19 1 19 20
M  V30 20 1 20 21
M  V30 21 1 10 4
M  V30 22 1 21 16
M  V30 23 1 9 5
M  V30 24 1 3 22
M  V30 25 1 4 23
M  V30 26 1 5 24
M  V30 27 1 6 25
M  V30 28 1 6 26
M  V30 29 1 7 27
M  V30 30 1 7 28
M  V30 31 1 8 29
M  V30 32 1 10 30
M  V30 33 1 13 31
M  V30 34 1 14 32
M  V30 35 1 14 33
M  V30 36 1 15 34
M  V30 37 1 15 35
M  V30 38 1 17 36
M  V30 39 1 18 37
M  V30 40 1 18 38
M  V30 41 1 19 39
M  V30 42 1 19 40
M  V30 43 1 20 41
M  V30 44 1 20 42
M  V30 45 1 21 43
M  V30 46 1 21 44
M  V30 END BOND
M  V30 END CTAB
M  END
>  <Dataset>  (367) 
ChEMBL_Kinases

>  <Ligand_Instance>  (367) 
nan

>  <PDB_ID>  (367) 
nan

>  <Standardized_SMILES>  (367) 
O=C(O)C1C2CCC(O2)C1C(=O)NCCC1=CCCCC1

>  <Name>  (367) 
nan

>  <Pocket>  (367) 
nan

>  <ATP_Site>  (367) 
nan

>  <Peripheral>  (367) 
nan

>  <Num_H_Atoms_ProtBoundConf>  (367) 
nan

>  <Num_Resolved_Atoms>  (367) 
nan

>  <Num_Not_Resolved_Atoms>  (367) 
nan

$$$$
CHEMBL1369097
     RDKit          3D

  0  0  0  0  0  0  0  0  0  0999 V3000
M  V30 BEGIN CTAB
M  V30 COUNTS 46 48 0 0 0
M  V30 BEGIN ATOM
M  V30 1 C 0.457597 -4.994966 3.559329 0
M  V30 2 O -0.474547 -4.472718 2.629333 0
M  V30 3 C -0.040766 -3.715513 1.548412 0
M  V30 4 C 1.287551 -3.426557 1.310236 0
M  V30 5 C 1.658561 -2.668054 0.217973 0
M  V30 6 C 0.660458 -2.213542 -0.619498 0
M  V30 7 S 0.943876 -1.245210 -2.044702 0
M  V30 8 O 2.283047 -1.590648 -2.674320 0
M  V30 9 O -0.096738 -1.550285 -3.113172 0
M  V30 10 N 0.935445 0.422822 -1.774524 0
M  V30 11 C -0.264966 0.994479 -1.286721 0
M  V30 12 C 0.029810 2.432026 -0.829100 0
M  V30 13 N 0.986583 2.276952 0.189370 0
M  V30 14 C 0.665646 2.532584 1.520990 0
M  V30 15 C -0.427757 1.624583 1.956365 0
M  V30 16 C -0.039085 0.399139 2.486660 0
M  V30 17 C -0.887904 -0.570885 2.944985 0
M  V30 18 C -2.255781 -0.318409 2.878595 0
M  V30 19 C -2.667819 0.885453 2.358615 0
M  V30 20 Cl -4.386906 1.215564 2.269361 0
M  V30 21 C -1.788295 1.844346 1.904317 0
M  V30 22 C 2.243390 1.758990 -0.140605 0
M  V30 23 C 2.159833 1.046277 -1.470921 0
M  V30 24 C -0.682668 -2.502292 -0.383820 0
M  V30 25 C -1.056435 -3.260530 0.707634 0
M  V30 26 H 0.037266 -5.881442 4.100054 0
M  V30 27 H 1.361642 -5.405277 3.042115 0
M  V30 28 H 0.834029 -4.218486 4.258202 0
M  V30 29 H 2.044812 -3.798077 1.986170 0
M  V30 30 H 2.683546 -2.410624 -0.017999 0
M  V30 31 H -0.569590 0.458586 -0.363272 0
M  V30 32 H -1.084794 1.008233 -2.035027 0
M  V30 33 H -0.855381 2.988201 -0.547874 0
M  V30 34 H 0.490460 2.928111 -1.712914 0
M  V30 35 H 0.278279 3.573677 1.722190 0
M  V30 36 H 1.516606 2.396227 2.207007 0
M  V30 37 H 1.022326 0.141105 2.565751 0
M  V30 38 H -0.560478 -1.502553 3.347351 0
M  V30 39 H -2.921249 -1.085986 3.240971 0
M  V30 40 H -2.078885 2.798908 1.492860 0
M  V30 41 H 2.939814 2.628307 -0.320923 0
M  V30 42 H 2.705913 1.146119 0.659691 0
M  V30 43 H 2.939693 0.232154 -1.410462 0
M  V30 44 H 2.456426 1.686848 -2.321411 0
M  V30 45 H -1.494584 -2.155774 -1.030051 0
M  V30 46 H -2.099683 -3.478332 0.880677 0
M  V30 END ATOM
M  V30 BEGIN BOND
M  V30 1 1 1 2
M  V30 2 1 2 3
M  V30 3 2 3 4
M  V30 4 1 4 5
M  V30 5 2 5 6
M  V30 6 1 6 7
M  V30 7 2 7 8
M  V30 8 2 7 9
M  V30 9 1 7 10
M  V30 10 1 10 11
M  V30 11 1 11 12
M  V30 12 1 12 13
M  V30 13 1 13 14
M  V30 14 1 14 15
M  V30 15 2 15 16
M  V30 16 1 16 17
M  V30 17 2 17 18
M  V30 18 1 18 19
M  V30 19 1 19 20
M  V30 20 2 19 21
M  V30 21 1 13 22
M  V30 22 1 22 23
M  V30 23 1 6 24
M  V30 24 2 24 25
M  V30 25 1 25 3
M  V30 26 1 23 10
M  V30 27 1 21 15
M  V30 28 1 1 26
M  V30 29 1 1 27
M  V30 30 1 1 28
M  V30 31 1 4 29
M  V30 32 1 5 30
M  V30 33 1 11 31
M  V30 34 1 11 32
M  V30 35 1 12 33
M  V30 36 1 12 34
M  V30 37 1 14 35
M  V30 38 1 14 36
M  V30 39 1 16 37
M  V30 40 1 17 38
M  V30 41 1 18 39
M  V30 42 1 21 40
M  V30 43 1 22 41
M  V30 44 1 22 42
M  V30 45 1 23 43
M  V30 46 1 23 44
M  V30 47 1 24 45
M  V30 48 1 25 46
M  V30 END BOND
M  V30 END CTAB
M  END
>  <Dataset>  (368) 
ChEMBL_Kinases

>  <Ligand_Instance>  (368) 
nan

>  <PDB_ID>  (368) 
nan

>  <Standardized_SMILES>  (368) 
COc1ccc(S(=O)(=O)N2CCN(Cc3cccc(Cl)c3)CC2)cc1

>  <Name>  (368) 
nan

>  <Pocket>  (368) 
nan

>  <ATP_Site>  (368) 
nan

>  <Peripheral>  (368) 
nan

>  <Num_H_Atoms_ProtBoundConf>  (368) 
nan

>  <Num_Resolved_Atoms>  (368) 
nan

>  <Num_Not_Resolved_Atoms>  (368) 
nan

$$$$
CHEMBL1369064
     RDKit          3D

  0  0  0  0  0  0  0  0  0  0999 V3000
M  V30 BEGIN CTAB
M  V30 COUNTS 57 59 0 0 0
M  V30 BEGIN ATOM
M  V30 1 C 0.582620 -0.682563 3.337859 0
M  V30 2 O 1.682821 -0.131577 2.625537 0
M  V30 3 C 2.965703 -0.393510 3.089619 0
M  V30 4 O 3.083901 -1.105943 4.111075 0
M  V30 5 C 4.099373 0.177406 2.372251 0
M  V30 6 C 5.373265 -0.058863 2.855713 0
M  V30 7 C 6.398874 0.529181 2.145978 0
M  V30 8 C 6.225337 1.313864 1.017597 0
M  V30 9 C 4.935043 1.529779 0.560298 0
M  V30 10 C 3.871138 0.950227 1.251674 0
M  V30 11 N 2.574308 1.229126 0.708454 0
M  V30 12 C 1.964726 0.471193 -0.340018 0
M  V30 13 O 2.616001 -0.500404 -0.813695 0
M  V30 14 C 0.651450 0.874450 -0.787890 0
M  V30 15 C -0.417248 0.653644 0.244299 0
M  V30 16 C -1.681103 1.267537 -0.284772 0
M  V30 17 N -2.059489 0.726803 -1.509885 0
M  V30 18 S -3.358901 -0.317363 -1.649546 0
M  V30 19 O -4.652342 0.382725 -1.216975 0
M  V30 20 O -3.569047 -0.525585 -3.151901 0
M  V30 21 C -3.330004 -1.827741 -0.854083 0
M  V30 22 C -3.439264 -2.977265 -1.666576 0
M  V30 23 C -3.440691 -4.295016 -1.259355 0
M  V30 24 C -3.577147 -5.443047 -2.181434 0
M  V30 25 C -3.326118 -4.566151 0.071245 0
M  V30 26 C -3.213199 -3.498043 0.933379 0
M  V30 27 C -3.219958 -2.224824 0.455070 0
M  V30 28 O -3.108841 -1.147197 1.320744 0
M  V30 29 C -2.990213 -1.392907 2.702936 0
M  V30 30 C -1.085713 0.644720 -2.555613 0
M  V30 31 C 0.304439 0.280020 -2.123829 0
M  V30 32 H -0.312936 -0.020168 3.156706 0
M  V30 33 H 0.388325 -1.723082 3.019601 0
M  V30 34 H 0.819950 -0.636366 4.425894 0
M  V30 35 H 5.552050 -0.658203 3.723027 0
M  V30 36 H 7.424715 0.415906 2.437322 0
M  V30 37 H 7.016483 1.780611 0.453694 0
M  V30 38 H 4.754303 2.135657 -0.315588 0
M  V30 39 H 2.203913 2.040328 1.211622 0
M  V30 40 H 0.669441 1.999353 -0.943982 0
M  V30 41 H -0.594171 -0.376487 0.550289 0
M  V30 42 H -0.130681 1.251266 1.135846 0
M  V30 43 H -1.391837 2.360544 -0.489784 0
M  V30 44 H -2.483114 1.257905 0.449110 0
M  V30 45 H -3.539363 -2.882771 -2.753285 0
M  V30 46 H -4.488262 -6.006245 -1.874935 0
M  V30 47 H -2.655531 -6.039326 -2.145934 0
M  V30 48 H -3.705970 -5.036922 -3.227661 0
M  V30 49 H -3.316604 -5.524551 0.562631 0
M  V30 50 H -3.124569 -3.637090 1.991142 0
M  V30 51 H -2.074645 -2.025938 2.891693 0
M  V30 52 H -3.889949 -1.940244 3.061138 0
M  V30 53 H -2.889972 -0.448919 3.250303 0
M  V30 54 H -1.051608 1.606518 -3.088966 0
M  V30 55 H -1.425877 -0.127331 -3.278721 0
M  V30 56 H 1.063301 0.612957 -2.851854 0
M  V30 57 H 0.384898 -0.833830 -2.066376 0
M  V30 END ATOM
M  V30 BEGIN BOND
M  V30 1 1 1 2
M  V30 2 1 2 3
M  V30 3 2 3 4
M  V30 4 1 3 5
M  V30 5 2 5 6
M  V30 6 1 6 7
M  V30 7 2 7 8
M  V30 8 1 8 9
M  V30 9 2 9 10
M  V30 10 1 10 11
M  V30 11 1 11 12
M  V30 12 2 12 13
M  V30 13 1 12 14
M  V30 14 1 14 15
M  V30 15 1 15 16
M  V30 16 1 16 17
M  V30 17 1 17 18
M  V30 18 2 18 19
M  V30 19 2 18 20
M  V30 20 1 18 21
M  V30 21 2 21 22
M  V30 22 1 22 23
M  V30 23 1 23 24
M  V30 24 2 23 25
M  V30 25 1 25 26
M  V30 26 2 26 27
M  V30 27 1 27 28
M  V30 28 1 28 29
M  V30 29 1 17 30
M  V30 30 1 30 31
M  V30 31 1 10 5
M  V30 32 1 31 14
M  V30 33 1 27 21
M  V30 34 1 1 32
M  V30 35 1 1 33
M  V30 36 1 1 34
M  V30 37 1 6 35
M  V30 38 1 7 36
M  V30 39 1 8 37
M  V30 40 1 9 38
M  V30 41 1 11 39
M  V30 42 1 14 40
M  V30 43 1 15 41
M  V30 44 1 15 42
M  V30 45 1 16 43
M  V30 46 1 16 44
M  V30 47 1 22 45
M  V30 48 1 24 46
M  V30 49 1 24 47
M  V30 50 1 24 48
M  V30 51 1 25 49
M  V30 52 1 26 50
M  V30 53 1 29 51
M  V30 54 1 29 52
M  V30 55 1 29 53
M  V30 56 1 30 54
M  V30 57 1 30 55
M  V30 58 1 31 56
M  V30 59 1 31 57
M  V30 END BOND
M  V30 END CTAB
M  END
>  <Dataset>  (369) 
ChEMBL_Kinases

>  <Ligand_Instance>  (369) 
nan

>  <PDB_ID>  (369) 
nan

>  <Standardized_SMILES>  (369) 
COC(=O)c1ccccc1NC(=O)C1CCN(S(=O)(=O)c2cc(C)ccc2OC)CC1

>  <Name>  (369) 
nan

>  <Pocket>  (369) 
nan

>  <ATP_Site>  (369) 
nan

>  <Peripheral>  (369) 
nan

>  <Num_H_Atoms_ProtBoundConf>  (369) 
nan

>  <Num_Resolved_Atoms>  (369) 
nan

>  <Num_Not_Resolved_Atoms>  (369) 
nan

$$$$
CHEMBL1369033
     RDKit          3D

  0  0  0  0  0  0  0  0  0  0999 V3000
M  V30 BEGIN CTAB
M  V30 COUNTS 43 46 0 0 0
M  V30 BEGIN ATOM
M  V30 1 C -0.024625 -4.034462 1.427038 0
M  V30 2 C 1.294895 -3.399141 1.783519 0
M  V30 3 C 1.621506 -3.784447 3.217901 0
M  V30 4 O 1.359451 -2.041959 1.556172 0
M  V30 5 C 2.158291 -1.314340 0.728810 0
M  V30 6 C 3.132956 -1.825128 -0.108950 0
M  V30 7 C 3.945765 -1.092369 -0.947406 0
M  V30 8 C 3.763026 0.283622 -0.944818 0
M  V30 9 C 2.807025 0.843900 -0.130592 0
M  V30 10 C 2.011688 0.076299 0.695676 0
M  V30 11 C 0.999480 0.751526 1.528109 0
M  V30 12 C 1.381874 2.141662 1.966472 0
M  V30 13 C 0.360426 2.727835 2.871086 0
M  V30 14 O 0.437669 3.210151 4.028782 0
M  V30 15 N -0.923944 2.714422 2.261430 0
M  V30 16 C -1.206420 1.707247 1.267034 0
M  V30 17 C -2.471419 1.741855 0.675307 0
M  V30 18 C -2.897411 0.866568 -0.304163 0
M  V30 19 C -1.999404 -0.083007 -0.698150 0
M  V30 20 C -0.745437 -0.145580 -0.136169 0
M  V30 21 C -0.309924 0.718285 0.839003 0
M  V30 22 O -2.633162 -0.835272 -1.672578 0
M  V30 23 C -4.016585 -0.531543 -1.681542 0
M  V30 24 O -4.086915 0.728833 -1.010182 0
M  V30 25 H -0.129994 -4.953330 2.039447 0
M  V30 26 H -0.905201 -3.408498 1.617703 0
M  V30 27 H 0.000043 -4.417713 0.368641 0
M  V30 28 H 2.052863 -3.906724 1.148771 0
M  V30 29 H 2.472001 -3.201914 3.607832 0
M  V30 30 H 1.924741 -4.855300 3.191866 0
M  V30 31 H 0.721746 -3.759145 3.862455 0
M  V30 32 H 3.283601 -2.893603 -0.119521 0
M  V30 33 H 4.685114 -1.580709 -1.571145 0
M  V30 34 H 4.416996 0.848739 -1.615921 0
M  V30 35 H 2.769160 1.912306 -0.224750 0
M  V30 36 H 0.851000 0.162539 2.469678 0
M  V30 37 H 1.559462 2.837584 1.125839 0
M  V30 38 H 2.325982 2.074292 2.542232 0
M  V30 39 H -1.699631 3.402747 2.492064 0
M  V30 40 H -3.223309 2.493551 0.967147 0
M  V30 41 H -0.040996 -0.892536 -0.455241 0
M  V30 42 H -4.605995 -1.230074 -1.076237 0
M  V30 43 H -4.441424 -0.436549 -2.693858 0
M  V30 END ATOM
M  V30 BEGIN BOND
M  V30 1 1 1 2
M  V30 2 1 2 3
M  V30 3 1 2 4
M  V30 4 1 4 5
M  V30 5 2 5 6
M  V30 6 1 6 7
M  V30 7 2 7 8
M  V30 8 1 8 9
M  V30 9 2 9 10
M  V30 10 1 10 11
M  V30 11 1 11 12
M  V30 12 1 12 13
M  V30 13 2 13 14
M  V30 14 1 13 15
M  V30 15 1 15 16
M  V30 16 2 16 17
M  V30 17 1 17 18
M  V30 18 2 18 19
M  V30 19 1 19 20
M  V30 20 2 20 21
M  V30 21 1 19 22
M  V30 22 1 22 23
M  V30 23 1 23 24
M  V30 24 1 10 5
M  V30 25 1 21 11
M  V30 26 1 21 16
M  V30 27 1 24 18
M  V30 28 1 1 25
M  V30 29 1 1 26
M  V30 30 1 1 27
M  V30 31 1 2 28
M  V30 32 1 3 29
M  V30 33 1 3 30
M  V30 34 1 3 31
M  V30 35 1 6 32
M  V30 36 1 7 33
M  V30 37 1 8 34
M  V30 38 1 9 35
M  V30 39 1 11 36
M  V30 40 1 12 37
M  V30 41 1 12 38
M  V30 42 1 15 39
M  V30 43 1 17 40
M  V30 44 1 20 41
M  V30 45 1 23 42
M  V30 46 1 23 43
M  V30 END BOND
M  V30 END CTAB
M  END
>  <Dataset>  (370) 
ChEMBL_Kinases

>  <Ligand_Instance>  (370) 
nan

>  <PDB_ID>  (370) 
nan

>  <Standardized_SMILES>  (370) 
CC(C)Oc1ccccc1C1CC(=O)Nc2cc3c(cc21)OCO3

>  <Name>  (370) 
nan

>  <Pocket>  (370) 
nan

>  <ATP_Site>  (370) 
nan

>  <Peripheral>  (370) 
nan

>  <Num_H_Atoms_ProtBoundConf>  (370) 
nan

>  <Num_Resolved_Atoms>  (370) 
nan

>  <Num_Not_Resolved_Atoms>  (370) 
nan

$$$$
CHEMBL1368979
     RDKit          3D

  0  0  0  0  0  0  0  0  0  0999 V3000
M  V30 BEGIN CTAB
M  V30 COUNTS 57 62 0 0 0
M  V30 BEGIN ATOM
M  V30 1 O 0.257584 -5.762552 -0.797599 0
M  V30 2 C 0.338417 -4.604234 -0.363112 0
M  V30 3 C 1.076869 -3.423355 0.059550 0
M  V30 4 C 1.821013 -3.569133 1.239616 0
M  V30 5 C 2.507587 -2.502278 1.742599 0
M  V30 6 C 2.407655 -1.339961 1.021739 0
M  V30 7 C 3.009780 -0.162318 1.459312 0
M  V30 8 O 3.694162 -0.255419 2.538523 0
M  V30 9 N 2.881549 0.995769 0.793459 0
M  V30 10 C 3.454452 2.251809 1.330833 0
M  V30 11 C 2.375822 2.965143 2.106356 0
M  V30 12 C 1.856467 4.199101 1.701503 0
M  V30 13 C 0.825275 4.874522 2.327276 0
M  V30 14 C 0.247580 4.312615 3.436449 0
M  V30 15 C 0.725188 3.100534 3.870740 0
M  V30 16 C 1.768738 2.441076 3.221381 0
M  V30 17 O -0.033406 2.732924 5.006666 0
M  V30 18 C -1.320163 3.379152 4.791651 0
M  V30 19 O -0.793251 4.653144 4.341159 0
M  V30 20 C 2.155824 1.079146 -0.354621 0
M  V30 21 S 1.995655 2.468167 -1.188134 0
M  V30 22 N 1.535810 -0.035253 -0.846374 0
M  V30 23 C 1.694470 -1.165687 -0.134408 0
M  V30 24 C 1.004224 -2.234592 -0.639912 0
M  V30 25 N -1.036215 -4.169922 -0.137378 0
M  V30 26 C -2.063011 -5.157070 -0.460572 0
M  V30 27 C -2.796180 -4.664147 -1.679173 0
M  V30 28 C -2.754158 -3.201194 -1.912222 0
M  V30 29 C -2.522039 -2.341953 -0.717441 0
M  V30 30 C -1.684049 -2.943801 0.348872 0
M  V30 31 O -1.813228 -2.913267 -2.901025 0
M  V30 32 C -2.387255 -1.976363 -3.740939 0
M  V30 33 C -3.839167 -2.434683 -3.729093 0
M  V30 34 O -3.990825 -2.819248 -2.424825 0
M  V30 35 H 1.860813 -4.518699 1.761546 0
M  V30 36 H 3.098253 -2.499793 2.629982 0
M  V30 37 H 4.343177 2.026229 1.912162 0
M  V30 38 H 3.693221 2.931365 0.493010 0
M  V30 39 H 2.314403 4.656032 0.818487 0
M  V30 40 H 0.461379 5.818620 1.986543 0
M  V30 41 H 2.064505 1.511931 3.636024 0
M  V30 42 H -1.747396 2.847045 3.904225 0
M  V30 43 H -1.929621 3.429909 5.668639 0
M  V30 44 H 0.982515 0.032747 -1.717715 0
M  V30 45 H 0.421781 -2.183330 -1.538124 0
M  V30 46 H -2.812631 -5.201136 0.378078 0
M  V30 47 H -1.671638 -6.164370 -0.599267 0
M  V30 48 H -3.835340 -5.048308 -1.594551 0
M  V30 49 H -2.367896 -5.227944 -2.530628 0
M  V30 50 H -3.447914 -1.966070 -0.250328 0
M  V30 51 H -1.986652 -1.405571 -1.059932 0
M  V30 52 H -2.314124 -3.293535 1.223950 0
M  V30 53 H -0.945129 -2.259829 0.824400 0
M  V30 54 H -1.996911 -1.975474 -4.758011 0
M  V30 55 H -2.343004 -0.933447 -3.377232 0
M  V30 56 H -3.919128 -3.298055 -4.434380 0
M  V30 57 H -4.461822 -1.568740 -3.996642 0
M  V30 END ATOM
M  V30 BEGIN BOND
M  V30 1 2 1 2
M  V30 2 1 2 3
M  V30 3 2 3 4
M  V30 4 1 4 5
M  V30 5 2 5 6
M  V30 6 1 6 7
M  V30 7 2 7 8
M  V30 8 1 7 9
M  V30 9 1 9 10
M  V30 10 1 10 11
M  V30 11 2 11 12
M  V30 12 1 12 13
M  V30 13 2 13 14
M  V30 14 1 14 15
M  V30 15 2 15 16
M  V30 16 1 15 17
M  V30 17 1 17 18
M  V30 18 1 18 19
M  V30 19 1 9 20
M  V30 20 2 20 21
M  V30 21 1 20 22
M  V30 22 1 22 23
M  V30 23 2 23 24
M  V30 24 1 2 25
M  V30 25 1 25 26
M  V30 26 1 26 27
M  V30 27 1 27 28
M  V30 28 1 28 29
M  V30 29 1 29 30
M  V30 30 1 28 31
M  V30 31 1 31 32
M  V30 32 1 32 33
M  V30 33 1 33 34
M  V30 34 1 24 3
M  V30 35 1 30 25
M  V30 36 1 23 6
M  V30 37 1 34 28
M  V30 38 1 16 11
M  V30 39 1 19 14
M  V30 40 1 4 35
M  V30 41 1 5 36
M  V30 42 1 10 37
M  V30 43 1 10 38
M  V30 44 1 12 39
M  V30 45 1 13 40
M  V30 46 1 16 41
M  V30 47 1 18 42
M  V30 48 1 18 43
M  V30 49 1 22 44
M  V30 50 1 24 45
M  V30 51 1 26 46
M  V30 52 1 26 47
M  V30 53 1 27 48
M  V30 54 1 27 49
M  V30 55 1 29 50
M  V30 56 1 29 51
M  V30 57 1 30 52
M  V30 58 1 30 53
M  V30 59 1 32 54
M  V30 60 1 32 55
M  V30 61 1 33 56
M  V30 62 1 33 57
M  V30 END BOND
M  V30 END CTAB
M  END
>  <Dataset>  (371) 
ChEMBL_Kinases

>  <Ligand_Instance>  (371) 
nan

>  <PDB_ID>  (371) 
nan

>  <Standardized_SMILES>  (371) 
O=C(c1ccc2c(=O)n(Cc3ccc4c(c3)OCO4)c(=S)[nH]c2c1)N1CCC2(CC1)OCCO2

>  <Name>  (371) 
nan

>  <Pocket>  (371) 
nan

>  <ATP_Site>  (371) 
nan

>  <Peripheral>  (371) 
nan

>  <Num_H_Atoms_ProtBoundConf>  (371) 
nan

>  <Num_Resolved_Atoms>  (371) 
nan

>  <Num_Not_Resolved_Atoms>  (371) 
nan

$$$$
CHEMBL1368961
     RDKit          3D

  0  0  0  0  0  0  0  0  0  0999 V3000
M  V30 BEGIN CTAB
M  V30 COUNTS 27 27 0 0 0
M  V30 BEGIN ATOM
M  V30 1 C -1.628342 1.080700 2.632248 0
M  V30 2 C -0.467089 0.339443 1.984671 0 CFG=1
M  V30 3 N 0.041829 -0.533569 2.990908 0
M  V30 4 C -0.991522 -0.310217 0.773021 0
M  V30 5 C -0.110149 -1.095994 -0.059482 0
M  V30 6 C 0.048712 -2.441666 0.174313 0
M  V30 7 C 0.900001 -3.146691 -0.646817 0
M  V30 8 C 1.609365 -2.593711 -1.694605 0
M  V30 9 O 2.421676 -3.458556 -2.416887 0
M  V30 10 C 1.430307 -1.259014 -1.900096 0
M  V30 11 C 0.592501 -0.496014 -1.114012 0
M  V30 12 C 0.496133 1.420696 1.609770 0
M  V30 13 O 0.330299 2.336442 0.755902 0
M  V30 14 O 1.606079 2.214652 1.554498 0
M  V30 15 H -2.156038 1.717690 1.920769 0
M  V30 16 H -1.266035 1.716168 3.482091 0
M  V30 17 H -2.355788 0.363464 3.096882 0
M  V30 18 H 0.735308 -0.151794 3.623591 0
M  V30 19 H -0.713828 -1.110676 3.365888 0
M  V30 20 H -1.888327 -0.922706 1.054065 0
M  V30 21 H -1.427235 0.501721 0.125950 0
M  V30 22 H -0.489089 -2.901419 0.981594 0
M  V30 23 H 0.991090 -4.215391 -0.418058 0
M  V30 24 H 3.380405 -3.206630 -2.633803 0
M  V30 25 H 1.998377 -0.827184 -2.735683 0
M  V30 26 H 0.513372 0.555231 -1.351926 0
M  V30 27 H 2.243647 2.280662 2.323442 0
M  V30 END ATOM
M  V30 BEGIN BOND
M  V30 1 1 1 2
M  V30 2 1 2 3 CFG=1
M  V30 3 1 2 4
M  V30 4 1 4 5
M  V30 5 2 5 6
M  V30 6 1 6 7
M  V30 7 2 7 8
M  V30 8 1 8 9
M  V30 9 1 8 10
M  V30 10 2 10 11
M  V30 11 1 2 12
M  V30 12 2 12 13
M  V30 13 1 12 14
M  V30 14 1 11 5
M  V30 15 1 1 15
M  V30 16 1 1 16
M  V30 17 1 1 17
M  V30 18 1 3 18
M  V30 19 1 3 19
M  V30 20 1 4 20
M  V30 21 1 4 21
M  V30 22 1 6 22
M  V30 23 1 7 23
M  V30 24 1 9 24
M  V30 25 1 10 25
M  V30 26 1 11 26
M  V30 27 1 14 27
M  V30 END BOND
M  V30 END CTAB
M  END
>  <Dataset>  (372) 
ChEMBL_Kinases

>  <Ligand_Instance>  (372) 
nan

>  <PDB_ID>  (372) 
nan

>  <Standardized_SMILES>  (372) 
C[C@@](N)(Cc1ccc(O)cc1)C(=O)O

>  <Name>  (372) 
nan

>  <Pocket>  (372) 
nan

>  <ATP_Site>  (372) 
nan

>  <Peripheral>  (372) 
nan

>  <Num_H_Atoms_ProtBoundConf>  (372) 
nan

>  <Num_Resolved_Atoms>  (372) 
nan

>  <Num_Not_Resolved_Atoms>  (372) 
nan

$$$$
CHEMBL1368924
     RDKit          3D

  0  0  0  0  0  0  0  0  0  0999 V3000
M  V30 BEGIN CTAB
M  V30 COUNTS 40 43 0 0 0
M  V30 BEGIN ATOM
M  V30 1 O 1.107699 -1.781095 1.064189 0
M  V30 2 C 0.634390 -1.522031 -0.070918 0
M  V30 3 N 0.618748 -2.672095 -0.885160 0
M  V30 4 C 1.063513 -4.010021 -0.557850 0
M  V30 5 C 2.513472 -3.941789 -0.243433 0
M  V30 6 C 3.291634 -3.797615 0.883348 0
M  V30 7 C 4.626230 -3.803973 0.541043 0
M  V30 8 C 4.606983 -3.957987 -0.833200 0
M  V30 9 O 3.365473 -4.033660 -1.246077 0
M  V30 10 C 0.155222 -0.221111 -0.522984 0
M  V30 11 C -0.258550 -0.033016 -1.806523 0
M  V30 12 C -0.616181 1.322332 -1.857721 0
M  V30 13 S -1.236611 2.626199 -2.888889 0
M  V30 14 C -1.196417 3.903160 -1.619237 0
M  V30 15 C -0.714090 3.229996 -0.516288 0
M  V30 16 C -0.411801 1.894879 -0.631118 0
M  V30 17 N 0.070892 0.926705 0.206190 0
M  V30 18 C 0.439365 1.083902 1.624948 0
M  V30 19 C -0.716604 0.889462 2.527854 0
M  V30 20 C -1.180273 -0.235552 3.160481 0
M  V30 21 C -2.272576 -0.312981 3.984919 0
M  V30 22 C -3.001362 0.831723 4.225620 0
M  V30 23 C -2.592295 2.002237 3.621770 0
M  V30 24 C -1.485297 2.027876 2.799858 0
M  V30 25 H 0.235414 -2.547769 -1.857682 0
M  V30 26 H 0.493258 -4.404140 0.322028 0
M  V30 27 H 0.846508 -4.718683 -1.371412 0
M  V30 28 H 2.843646 -3.706653 1.840524 0
M  V30 29 H 5.465078 -3.709179 1.210023 0
M  V30 30 H 5.483132 -4.007853 -1.466031 0
M  V30 31 H -0.339891 -0.670331 -2.657070 0
M  V30 32 H -1.506532 4.887289 -1.841269 0
M  V30 33 H -0.636468 3.894185 0.330973 0
M  V30 34 H 0.823789 2.132880 1.753637 0
M  V30 35 H 1.236983 0.388723 1.897140 0
M  V30 36 H -0.621928 -1.135753 2.987941 0
M  V30 37 H -2.534252 -1.259974 4.422506 0
M  V30 38 H -3.852847 0.722773 4.880793 0
M  V30 39 H -3.221113 2.846491 3.866643 0
M  V30 40 H -1.322861 3.024004 2.426264 0
M  V30 END ATOM
M  V30 BEGIN BOND
M  V30 1 2 1 2
M  V30 2 1 2 3
M  V30 3 1 3 4
M  V30 4 1 4 5
M  V30 5 2 5 6
M  V30 6 1 6 7
M  V30 7 2 7 8
M  V30 8 1 8 9
M  V30 9 1 2 10
M  V30 10 2 10 11
M  V30 11 1 11 12
M  V30 12 1 12 13
M  V30 13 1 13 14
M  V30 14 2 14 15
M  V30 15 1 15 16
M  V30 16 1 16 17
M  V30 17 1 17 18
M  V30 18 1 18 19
M  V30 19 2 19 20
M  V30 20 1 20 21
M  V30 21 2 21 22
M  V30 22 1 22 23
M  V30 23 2 23 24
M  V30 24 1 9 5
M  V30 25 1 17 10
M  V30 26 1 24 19
M  V30 27 2 16 12
M  V30 28 1 3 25
M  V30 29 1 4 26
M  V30 30 1 4 27
M  V30 31 1 6 28
M  V30 32 1 7 29
M  V30 33 1 8 30
M  V30 34 1 11 31
M  V30 35 1 14 32
M  V30 36 1 15 33
M  V30 37 1 18 34
M  V30 38 1 18 35
M  V30 39 1 20 36
M  V30 40 1 21 37
M  V30 41 1 22 38
M  V30 42 1 23 39
M  V30 43 1 24 40
M  V30 END BOND
M  V30 END CTAB
M  END
>  <Dataset>  (373) 
ChEMBL_Kinases

>  <Ligand_Instance>  (373) 
nan

>  <PDB_ID>  (373) 
nan

>  <Standardized_SMILES>  (373) 
O=C(NCc1ccco1)c1cc2sccc2n1Cc1ccccc1

>  <Name>  (373) 
nan

>  <Pocket>  (373) 
nan

>  <ATP_Site>  (373) 
nan

>  <Peripheral>  (373) 
nan

>  <Num_H_Atoms_ProtBoundConf>  (373) 
nan

>  <Num_Resolved_Atoms>  (373) 
nan

>  <Num_Not_Resolved_Atoms>  (373) 
nan

$$$$
CHEMBL1367570
     RDKit          3D

  0  0  0  0  0  0  0  0  0  0999 V3000
M  V30 BEGIN CTAB
M  V30 COUNTS 46 48 0 0 0
M  V30 BEGIN ATOM
M  V30 1 C -1.037091 -3.812726 2.606743 0
M  V30 2 C 0.292242 -3.417257 3.160505 0
M  V30 3 S 1.626179 -3.470573 2.030653 0
M  V30 4 O 1.920902 -4.907852 1.665798 0
M  V30 5 O 2.860828 -3.013806 2.797466 0
M  V30 6 N 1.483380 -2.465347 0.680058 0
M  V30 7 C 0.395141 -2.700476 -0.200081 0
M  V30 8 C 0.326443 -1.530298 -1.188143 0
M  V30 9 C 1.639589 -1.221853 -1.828247 0
M  V30 10 C 2.750304 -1.120608 -0.799287 0
M  V30 11 C 2.328690 -0.079007 0.178200 0
M  V30 12 O 2.188205 -0.338818 1.398878 0
M  V30 13 N 2.065171 1.259871 -0.227339 0
M  V30 14 C 1.648629 2.372553 0.604244 0
M  V30 15 C 0.229642 2.330143 0.989360 0
M  V30 16 C -0.160980 1.714015 2.159684 0
M  V30 17 C -1.494378 1.653404 2.547672 0
M  V30 18 C -2.496018 2.208458 1.778084 0
M  V30 19 C -2.118698 2.836798 0.589144 0
M  V30 20 C -0.791083 2.879444 0.234327 0
M  V30 21 O -3.274669 3.315912 -0.013593 0
M  V30 22 C -4.389108 2.665920 0.593198 0
M  V30 23 O -3.883589 2.317319 1.877765 0
M  V30 24 C 2.717981 -2.464368 -0.056337 0
M  V30 25 H -1.656483 -4.351353 3.388517 0
M  V30 26 H -1.620481 -2.890892 2.403021 0
M  V30 27 H -0.974038 -4.523581 1.776927 0
M  V30 28 H 0.516609 -4.132191 3.992761 0
M  V30 29 H 0.269446 -2.418509 3.665731 0
M  V30 30 H -0.608747 -2.731515 0.252942 0
M  V30 31 H 0.556661 -3.594803 -0.851578 0
M  V30 32 H -0.393322 -1.829954 -1.994161 0
M  V30 33 H -0.117354 -0.635747 -0.714700 0
M  V30 34 H 1.541028 -0.220225 -2.296611 0
M  V30 35 H 1.903100 -1.924340 -2.638354 0
M  V30 36 H 3.697027 -0.924024 -1.295551 0
M  V30 37 H 2.203173 1.414954 -1.272858 0
M  V30 38 H 1.834142 3.301637 0.037193 0
M  V30 39 H 2.292850 2.326470 1.509213 0
M  V30 40 H 0.511270 1.243276 2.856444 0
M  V30 41 H -1.844282 1.180815 3.457095 0
M  V30 42 H -0.464022 3.367399 -0.697912 0
M  V30 43 H -4.680770 1.742875 0.085963 0
M  V30 44 H -5.258012 3.329255 0.735243 0
M  V30 45 H 3.558837 -2.482838 0.669415 0
M  V30 46 H 2.793951 -3.304028 -0.759590 0
M  V30 END ATOM
M  V30 BEGIN BOND
M  V30 1 1 1 2
M  V30 2 1 2 3
M  V30 3 2 3 4
M  V30 4 2 3 5
M  V30 5 1 3 6
M  V30 6 1 6 7
M  V30 7 1 7 8
M  V30 8 1 8 9
M  V30 9 1 9 10
M  V30 10 1 10 11
M  V30 11 2 11 12
M  V30 12 1 11 13
M  V30 13 1 13 14
M  V30 14 1 14 15
M  V30 15 2 15 16
M  V30 16 1 16 17
M  V30 17 2 17 18
M  V30 18 1 18 19
M  V30 19 2 19 20
M  V30 20 1 19 21
M  V30 21 1 21 22
M  V30 22 1 22 23
M  V30 23 1 10 24
M  V30 24 1 24 6
M  V30 25 1 20 15
M  V30 26 1 23 18
M  V30 27 1 1 25
M  V30 28 1 1 26
M  V30 29 1 1 27
M  V30 30 1 2 28
M  V30 31 1 2 29
M  V30 32 1 7 30
M  V30 33 1 7 31
M  V30 34 1 8 32
M  V30 35 1 8 33
M  V30 36 1 9 34
M  V30 37 1 9 35
M  V30 38 1 10 36
M  V30 39 1 13 37
M  V30 40 1 14 38
M  V30 41 1 14 39
M  V30 42 1 16 40
M  V30 43 1 17 41
M  V30 44 1 20 42
M  V30 45 1 22 43
M  V30 46 1 22 44
M  V30 47 1 24 45
M  V30 48 1 24 46
M  V30 END BOND
M  V30 END CTAB
M  END
>  <Dataset>  (374) 
ChEMBL_Kinases

>  <Ligand_Instance>  (374) 
nan

>  <PDB_ID>  (374) 
nan

>  <Standardized_SMILES>  (374) 
CCS(=O)(=O)N1CCCC(C(=O)NCc2ccc3c(c2)OCO3)C1

>  <Name>  (374) 
nan

>  <Pocket>  (374) 
nan

>  <ATP_Site>  (374) 
nan

>  <Peripheral>  (374) 
nan

>  <Num_H_Atoms_ProtBoundConf>  (374) 
nan

>  <Num_Resolved_Atoms>  (374) 
nan

>  <Num_Not_Resolved_Atoms>  (374) 
nan

$$$$
CHEMBL1367623
     RDKit          3D

  0  0  0  0  0  0  0  0  0  0999 V3000
M  V30 BEGIN CTAB
M  V30 COUNTS 38 39 0 0 0
M  V30 BEGIN ATOM
M  V30 1 C -4.256199 -2.009286 -1.241006 0
M  V30 2 O -3.849367 -2.283858 0.092929 0
M  V30 3 C -2.484006 -2.226659 0.342204 0
M  V30 4 C -1.594080 -1.918318 -0.666167 0
M  V30 5 C -0.244326 -1.868486 -0.390779 0
M  V30 6 C 0.296658 -2.111335 0.854834 0
M  V30 7 C 1.682322 -2.093226 1.283763 0
M  V30 8 C 2.254286 -0.859879 1.808480 0 CFG=2
M  V30 9 N 1.635560 -0.296701 2.977621 0
M  V30 10 C 2.475287 0.860088 3.236405 0
M  V30 11 C 3.088071 1.264740 1.890556 0 CFG=2
M  V30 12 O 2.924583 2.591122 1.596663 0
M  V30 13 C 2.314321 0.342700 0.916209 0 CFG=2
M  V30 14 O 1.082078 0.963581 0.685359 0
M  V30 15 C 0.772675 1.332977 -0.627773 0
M  V30 16 C -0.421089 1.996822 -1.217852 0
M  V30 17 O 1.645638 1.072519 -1.519003 0
M  V30 18 C -0.665538 -2.417422 1.827216 0
M  V30 19 C -2.026686 -2.483622 1.618384 0
M  V30 20 H -4.011487 -2.815101 -1.944688 0
M  V30 21 H -3.831720 -1.022426 -1.565129 0
M  V30 22 H -5.358667 -1.824595 -1.185817 0
M  V30 23 H -1.914737 -1.710775 -1.679181 0
M  V30 24 H 0.497586 -1.629066 -1.155204 0
M  V30 25 H 2.299440 -2.442436 0.408315 0
M  V30 26 H 1.817311 -2.897235 2.067342 0
M  V30 27 H 3.329452 -1.053530 2.116773 0
M  V30 28 H 0.648848 -0.055079 2.857103 0
M  V30 29 H 3.244030 0.676249 4.004116 0
M  V30 30 H 1.851910 1.749929 3.529877 0
M  V30 31 H 4.145871 0.937889 1.806334 0
M  V30 32 H 2.413272 3.062393 2.283578 0
M  V30 33 H 2.916465 0.192628 -0.002389 0
M  V30 34 H -0.107489 2.935678 -1.744521 0
M  V30 35 H -1.199209 2.240215 -0.475620 0
M  V30 36 H -0.845029 1.330965 -1.972234 0
M  V30 37 H -0.348309 -2.629274 2.857575 0
M  V30 38 H -2.703004 -2.723323 2.407907 0
M  V30 END ATOM
M  V30 BEGIN BOND
M  V30 1 1 1 2
M  V30 2 1 2 3
M  V30 3 2 3 4
M  V30 4 1 4 5
M  V30 5 2 5 6
M  V30 6 1 6 7
M  V30 7 1 7 8
M  V30 8 1 8 9
M  V30 9 1 9 10
M  V30 10 1 10 11
M  V30 11 1 11 12
M  V30 12 1 11 13
M  V30 13 1 13 14
M  V30 14 1 14 15
M  V30 15 1 15 16
M  V30 16 2 15 17
M  V30 17 1 6 18
M  V30 18 2 18 19
M  V30 19 1 19 3
M  V30 20 1 13 8
M  V30 21 1 1 20
M  V30 22 1 1 21
M  V30 23 1 1 22
M  V30 24 1 4 23
M  V30 25 1 5 24
M  V30 26 1 7 25
M  V30 27 1 7 26
M  V30 28 1 8 27 CFG=1
M  V30 29 1 9 28
M  V30 30 1 10 29
M  V30 31 1 10 30
M  V30 32 1 11 31 CFG=1
M  V30 33 1 12 32
M  V30 34 1 13 33 CFG=3
M  V30 35 1 16 34
M  V30 36 1 16 35
M  V30 37 1 16 36
M  V30 38 1 18 37
M  V30 39 1 19 38
M  V30 END BOND
M  V30 END CTAB
M  END
>  <Dataset>  (375) 
ChEMBL_Kinases

>  <Ligand_Instance>  (375) 
nan

>  <PDB_ID>  (375) 
nan

>  <Standardized_SMILES>  (375) 
COc1ccc(C[C@@H]2NC[C@H](O)[C@@H]2OC(C)=O)cc1

>  <Name>  (375) 
nan

>  <Pocket>  (375) 
nan

>  <ATP_Site>  (375) 
nan

>  <Peripheral>  (375) 
nan

>  <Num_H_Atoms_ProtBoundConf>  (375) 
nan

>  <Num_Resolved_Atoms>  (375) 
nan

>  <Num_Not_Resolved_Atoms>  (375) 
nan

$$$$
CHEMBL1367693
     RDKit          3D

  0  0  0  0  0  0  0  0  0  0999 V3000
M  V30 BEGIN CTAB
M  V30 COUNTS 48 48 0 0 0
M  V30 BEGIN ATOM
M  V30 1 C 1.507423 -5.175987 -5.399184 0
M  V30 2 C 0.141093 -4.651166 -5.020783 0
M  V30 3 C 0.197168 -3.741980 -3.800141 0
M  V30 4 C -1.224438 -3.280789 -3.519314 0
M  V30 5 C -1.318659 -2.389962 -2.357948 0
M  V30 6 C -1.198816 -1.021850 -2.506671 0
M  V30 7 C -1.297795 -0.237226 -1.366900 0
M  V30 8 C -1.505820 -0.813877 -0.153598 0
M  V30 9 N -1.628272 -0.125074 1.107777 0
M  V30 10 C -0.433538 0.100436 1.859854 0
M  V30 11 O 0.624639 -0.338646 1.324938 0
M  V30 12 N -0.448899 0.772581 3.119378 0
M  V30 13 C 0.762551 1.004460 3.888201 0 CFG=2
M  V30 14 C 0.707112 0.259591 5.170294 0
M  V30 15 O -0.342274 -0.433960 5.387764 0
M  V30 16 O 0.808819 -0.365286 6.390883 0
M  V30 17 C 1.033187 2.471028 4.092788 0
M  V30 18 C 2.287073 2.679192 4.887649 0
M  V30 19 C -0.117047 3.186830 4.747360 0
M  V30 20 C 0.254807 4.655186 4.908480 0
M  V30 21 C -1.629940 -2.195289 0.019314 0
M  V30 22 C -1.530010 -2.986442 -1.130872 0
M  V30 23 H 1.380535 -5.676716 -6.381427 0
M  V30 24 H 1.792641 -5.944152 -4.651417 0
M  V30 25 H 2.278479 -4.385382 -5.436078 0
M  V30 26 H -0.459160 -5.552258 -4.745075 0
M  V30 27 H -0.325755 -4.156284 -5.885884 0
M  V30 28 H 0.855365 -2.880774 -4.057441 0
M  V30 29 H 0.647640 -4.309269 -2.982807 0
M  V30 30 H -1.564193 -2.738306 -4.427433 0
M  V30 31 H -1.829136 -4.202805 -3.397335 0
M  V30 32 H -1.035553 -0.545552 -3.446334 0
M  V30 33 H -1.221514 0.829788 -1.357583 0
M  V30 34 H -2.527471 0.230443 1.529208 0
M  V30 35 H -1.354852 1.121824 3.527021 0
M  V30 36 H 1.621161 0.581168 3.327179 0
M  V30 37 H 1.637048 -0.306691 6.980952 0
M  V30 38 H 1.186261 2.924519 3.091787 0
M  V30 39 H 2.040140 2.457883 5.954779 0
M  V30 40 H 3.102875 1.985677 4.616130 0
M  V30 41 H 2.580064 3.745367 4.850829 0
M  V30 42 H -0.250314 2.772092 5.772951 0
M  V30 43 H -1.030380 3.165629 4.130166 0
M  V30 44 H 0.593761 5.086664 3.938393 0
M  V30 45 H -0.616260 5.257476 5.235181 0
M  V30 46 H 1.015258 4.777544 5.711418 0
M  V30 47 H -1.795661 -2.704167 0.959676 0
M  V30 48 H -1.625321 -4.072699 -1.011400 0
M  V30 END ATOM
M  V30 BEGIN BOND
M  V30 1 1 1 2
M  V30 2 1 2 3
M  V30 3 1 3 4
M  V30 4 1 4 5
M  V30 5 2 5 6
M  V30 6 1 6 7
M  V30 7 2 7 8
M  V30 8 1 8 9
M  V30 9 1 9 10
M  V30 10 2 10 11
M  V30 11 1 10 12
M  V30 12 1 12 13
M  V30 13 1 13 14
M  V30 14 2 14 15
M  V30 15 1 14 16
M  V30 16 1 13 17
M  V30 17 1 17 18
M  V30 18 1 17 19
M  V30 19 1 19 20
M  V30 20 1 8 21
M  V30 21 2 21 22
M  V30 22 1 22 5
M  V30 23 1 1 23
M  V30 24 1 1 24
M  V30 25 1 1 25
M  V30 26 1 2 26
M  V30 27 1 2 27
M  V30 28 1 3 28
M  V30 29 1 3 29
M  V30 30 1 4 30
M  V30 31 1 4 31
M  V30 32 1 6 32
M  V30 33 1 7 33
M  V30 34 1 9 34
M  V30 35 1 12 35
M  V30 36 1 13 36 CFG=3
M  V30 37 1 16 37
M  V30 38 1 17 38
M  V30 39 1 18 39
M  V30 40 1 18 40
M  V30 41 1 18 41
M  V30 42 1 19 42
M  V30 43 1 19 43
M  V30 44 1 20 44
M  V30 45 1 20 45
M  V30 46 1 20 46
M  V30 47 1 21 47
M  V30 48 1 22 48
M  V30 END BOND
M  V30 END CTAB
M  END
>  <Dataset>  (376) 
ChEMBL_Kinases

>  <Ligand_Instance>  (376) 
nan

>  <PDB_ID>  (376) 
nan

>  <Standardized_SMILES>  (376) 
CCCCc1ccc(NC(=O)N[C@H](C(=O)O)C(C)CC)cc1

>  <Name>  (376) 
nan

>  <Pocket>  (376) 
nan

>  <ATP_Site>  (376) 
nan

>  <Peripheral>  (376) 
nan

>  <Num_H_Atoms_ProtBoundConf>  (376) 
nan

>  <Num_Resolved_Atoms>  (376) 
nan

>  <Num_Not_Resolved_Atoms>  (376) 
nan

$$$$
CHEMBL1367749
     RDKit          3D

  0  0  0  0  0  0  0  0  0  0999 V3000
M  V30 BEGIN CTAB
M  V30 COUNTS 78 84 0 0 0
M  V30 BEGIN ATOM
M  V30 1 C 1.178572 0.172382 -8.179288 0
M  V30 2 N 0.468949 0.506264 -6.960541 0
M  V30 3 C -0.480998 1.572627 -7.024351 0
M  V30 4 C 0.768268 -0.248232 -5.798374 0
M  V30 5 C 1.716138 -1.251873 -5.899535 0
M  V30 6 C 1.991003 -1.979368 -4.744386 0
M  V30 7 C 1.375138 -1.758604 -3.506659 0
M  V30 8 C 1.770210 -2.604261 -2.387890 0
M  V30 9 C 2.142681 -3.886729 -2.673355 0
M  V30 10 C 2.530571 -4.737656 -1.663929 0
M  V30 11 C 2.523879 -4.241683 -0.379935 0
M  V30 12 C 2.154231 -2.940235 -0.016747 0
M  V30 13 C 2.199439 -2.532739 1.394277 0
M  V30 14 C 3.179714 -1.386815 1.622412 0
M  V30 15 C 3.035682 -0.884348 3.015899 0
M  V30 16 C 1.829140 -0.564407 3.480280 0
M  V30 17 C 0.762588 -0.775244 2.469195 0
M  V30 18 C 0.934379 -2.227744 2.052092 0
M  V30 19 C -0.320798 -2.381744 1.298204 0
M  V30 20 O -0.382608 -3.140997 0.309018 0
M  V30 21 N -1.312609 -1.524011 1.942805 0
M  V30 22 C -2.618661 -1.490963 1.363263 0
M  V30 23 C -2.869670 -0.535605 0.296399 0
M  V30 24 C -2.561420 -0.886146 -1.002944 0
M  V30 25 C -2.792345 -0.034802 -2.089117 0
M  V30 26 C -3.347967 1.211046 -1.894503 0
M  V30 27 C -3.679911 1.622438 -0.612927 0
M  V30 28 C -3.419998 0.723954 0.399261 0
M  V30 29 C -0.608933 -0.955879 3.075655 0
M  V30 30 C -1.152443 0.219642 3.696814 0
M  V30 31 C -1.413462 0.185147 5.075496 0
M  V30 32 C -1.912419 1.257170 5.792708 0
M  V30 33 C -2.174912 2.444007 5.118774 0
M  V30 34 C -2.671400 3.531499 5.802737 0
M  V30 35 C -2.930176 4.715717 5.122282 0
M  V30 36 C -2.690005 4.799772 3.766051 0
M  V30 37 C -2.185800 3.711567 3.043992 0
M  V30 38 C -1.940871 2.544644 3.765389 0
M  V30 39 C -1.442566 1.427085 3.129914 0
M  V30 40 C 1.781200 -2.156847 -1.084060 0
M  V30 41 C 0.427613 -0.732118 -3.466906 0
M  V30 42 C 0.151185 -0.008849 -4.607295 0
M  V30 43 H 2.283825 0.297930 -8.022453 0
M  V30 44 H 0.952445 -0.859011 -8.520589 0
M  V30 45 H 0.925036 0.838589 -9.024794 0
M  V30 46 H -1.264061 1.526292 -6.239179 0
M  V30 47 H -0.955304 1.593715 -8.049327 0
M  V30 48 H -0.020050 2.572913 -6.921151 0
M  V30 49 H 2.227681 -1.475489 -6.818290 0
M  V30 50 H 2.740912 -2.762536 -4.855942 0
M  V30 51 H 2.162532 -4.321155 -3.677079 0
M  V30 52 H 2.828281 -5.752809 -1.867061 0
M  V30 53 H 2.841853 -4.956971 0.395730 0
M  V30 54 H 2.657712 -3.412377 1.942368 0
M  V30 55 H 2.878649 -0.603453 0.889684 0
M  V30 56 H 4.183771 -1.788795 1.429573 0
M  V30 57 H 3.962600 -0.799084 3.612684 0
M  V30 58 H 1.857854 -0.208195 4.518822 0
M  V30 59 H 0.810195 -0.062589 1.645882 0
M  V30 60 H 0.782347 -2.803937 3.013933 0
M  V30 61 H -3.361230 -1.376478 2.212261 0
M  V30 62 H -2.866674 -2.503413 0.962018 0
M  V30 63 H -2.130311 -1.806037 -1.323301 0
M  V30 64 H -2.563603 -0.276256 -3.117228 0
M  V30 65 H -3.535908 1.881178 -2.701443 0
M  V30 66 H -4.116729 2.585691 -0.408014 0
M  V30 67 H -3.692143 1.059071 1.394079 0
M  V30 68 H -0.490993 -1.809167 3.793239 0
M  V30 69 H -1.224287 -0.725877 5.651838 0
M  V30 70 H -2.091264 1.167484 6.848366 0
M  V30 71 H -2.871970 3.504398 6.863287 0
M  V30 72 H -3.322294 5.609449 5.602538 0
M  V30 73 H -2.880619 5.714404 3.193801 0
M  V30 74 H -2.000243 3.778868 1.991817 0
M  V30 75 H -1.257758 1.527191 2.078711 0
M  V30 76 H 1.484900 -1.136568 -0.854863 0
M  V30 77 H 0.010244 -0.634181 -2.479997 0
M  V30 78 H -0.584414 0.752688 -4.478365 0
M  V30 END ATOM
M  V30 BEGIN BOND
M  V30 1 1 1 2
M  V30 2 1 2 3
M  V30 3 1 2 4
M  V30 4 2 4 5
M  V30 5 1 5 6
M  V30 6 2 6 7
M  V30 7 1 7 8
M  V30 8 2 8 9
M  V30 9 1 9 10
M  V30 10 2 10 11
M  V30 11 1 11 12
M  V30 12 1 12 13
M  V30 13 1 13 14
M  V30 14 1 14 15
M  V30 15 2 15 16
M  V30 16 1 16 17
M  V30 17 1 17 18
M  V30 18 1 18 19
M  V30 19 2 19 20
M  V30 20 1 19 21
M  V30 21 1 21 22
M  V30 22 1 22 23
M  V30 23 2 23 24
M  V30 24 1 24 25
M  V30 25 2 25 26
M  V30 26 1 26 27
M  V30 27 2 27 28
M  V30 28 1 21 29
M  V30 29 1 29 30
M  V30 30 2 30 31
M  V30 31 1 31 32
M  V30 32 2 32 33
M  V30 33 1 33 34
M  V30 34 2 34 35
M  V30 35 1 35 36
M  V30 36 2 36 37
M  V30 37 1 37 38
M  V30 38 2 38 39
M  V30 39 2 12 40
M  V30 40 1 7 41
M  V30 41 2 41 42
M  V30 42 1 42 4
M  V30 43 1 40 8
M  V30 44 1 18 13
M  V30 45 1 28 23
M  V30 46 1 39 30
M  V30 47 1 29 17
M  V30 48 1 38 33
M  V30 49 1 1 43
M  V30 50 1 1 44
M  V30 51 1 1 45
M  V30 52 1 3 46
M  V30 53 1 3 47
M  V30 54 1 3 48
M  V30 55 1 5 49
M  V30 56 1 6 50
M  V30 57 1 9 51
M  V30 58 1 10 52
M  V30 59 1 11 53
M  V30 60 1 13 54
M  V30 61 1 14 55
M  V30 62 1 14 56
M  V30 63 1 15 57
M  V30 64 1 16 58
M  V30 65 1 17 59
M  V30 66 1 18 60
M  V30 67 1 22 61
M  V30 68 1 22 62
M  V30 69 1 24 63
M  V30 70 1 25 64
M  V30 71 1 26 65
M  V30 72 1 27 66
M  V30 73 1 28 67
M  V30 74 1 29 68
M  V30 75 1 31 69
M  V30 76 1 32 70
M  V30 77 1 34 71
M  V30 78 1 35 72
M  V30 79 1 36 73
M  V30 80 1 37 74
M  V30 81 1 39 75
M  V30 82 1 40 76
M  V30 83 1 41 77
M  V30 84 1 42 78
M  V30 END BOND
M  V30 END CTAB
M  END
>  <Dataset>  (377) 
ChEMBL_Kinases

>  <Ligand_Instance>  (377) 
nan

>  <PDB_ID>  (377) 
nan

>  <Standardized_SMILES>  (377) 
CN(C)c1ccc(-c2cccc(C3CC=CC4C3C(=O)N(Cc3ccccc3)C4c3ccc4ccccc4c3)c2)cc1

>  <Name>  (377) 
nan

>  <Pocket>  (377) 
nan

>  <ATP_Site>  (377) 
nan

>  <Peripheral>  (377) 
nan

>  <Num_H_Atoms_ProtBoundConf>  (377) 
nan

>  <Num_Resolved_Atoms>  (377) 
nan

>  <Num_Not_Resolved_Atoms>  (377) 
nan

$$$$
CHEMBL1368085
     RDKit          3D

  0  0  0  0  0  0  0  0  0  0999 V3000
M  V30 BEGIN CTAB
M  V30 COUNTS 62 66 0 0 0
M  V30 BEGIN ATOM
M  V30 1 C 0.165556 0.336216 4.519568 0
M  V30 2 C 1.548805 0.434251 3.994147 0
M  V30 3 C 2.567059 0.205725 4.901834 0
M  V30 4 C 3.908029 0.255836 4.584256 0
M  V30 5 C 4.213278 0.554849 3.272981 0
M  V30 6 O 5.481314 0.606357 2.942026 0
M  V30 7 C 5.897085 0.883023 1.706840 0
M  V30 8 O 7.126170 0.919036 1.446534 0
M  V30 9 C 4.900462 1.116370 0.780305 0
M  V30 10 C 4.987283 1.416558 -0.540809 0
M  V30 11 N 3.742598 1.541999 -0.978834 0
M  V30 12 N 2.828593 1.340866 -0.015521 0
M  V30 13 C 1.427564 1.461804 -0.290477 0
M  V30 14 C 0.790926 0.171382 -0.634444 0
M  V30 15 O 2.019341 -0.121852 -0.411091 0
M  V30 16 N -0.111857 -0.856450 -0.993952 0
M  V30 17 C -1.477091 -0.450284 -1.257306 0
M  V30 18 C -2.376049 -0.447416 -0.071894 0
M  V30 19 C -3.794279 -0.005944 -0.476610 0
M  V30 20 N -4.243493 -0.935184 -1.428351 0
M  V30 21 C -4.511555 -2.261097 -1.032940 0
M  V30 22 C -5.511976 -2.965162 -1.884047 0
M  V30 23 O -5.449416 -2.723583 -3.227041 0
M  V30 24 C -4.557169 -1.747703 -3.599113 0
M  V30 25 C -4.655784 -0.503809 -2.701701 0
M  V30 26 C 0.400928 -2.220482 -1.064094 0
M  V30 27 C 0.259560 -2.894077 0.267221 0
M  V30 28 C 1.243773 -2.837636 1.255092 0
M  V30 29 C 0.710613 -3.572383 2.280304 0
M  V30 30 C -0.530880 -4.047750 1.929490 0
M  V30 31 O -0.763219 -3.618121 0.714331 0
M  V30 32 C 3.552424 1.077607 1.065950 0
M  V30 33 C 3.221857 0.788770 2.342724 0
M  V30 34 C 1.901028 0.730510 2.691460 0
M  V30 35 H 0.067451 0.887301 5.482944 0
M  V30 36 H -0.558195 0.811898 3.816721 0
M  V30 37 H -0.118557 -0.721982 4.660467 0
M  V30 38 H 2.343488 -0.029209 5.932844 0
M  V30 39 H 4.709991 0.078268 5.286875 0
M  V30 40 H 5.869149 1.540827 -1.163669 0
M  V30 41 H 1.321250 2.045828 -1.287286 0
M  V30 42 H 0.849490 2.124959 0.363405 0
M  V30 43 H -1.482643 0.573915 -1.702461 0
M  V30 44 H -1.871724 -1.171961 -2.004666 0
M  V30 45 H -1.988216 0.261418 0.714728 0
M  V30 46 H -2.400808 -1.443520 0.414120 0
M  V30 47 H -3.695130 0.981191 -0.955308 0
M  V30 48 H -4.424531 0.105265 0.420808 0
M  V30 49 H -4.822218 -2.387559 0.024649 0
M  V30 50 H -3.547468 -2.840951 -1.117259 0
M  V30 51 H -5.325631 -4.068537 -1.751311 0
M  V30 52 H -6.564303 -2.845551 -1.490169 0
M  V30 53 H -4.605003 -1.488663 -4.654429 0
M  V30 54 H -3.537026 -2.157958 -3.419732 0
M  V30 55 H -3.898339 0.223215 -3.108639 0
M  V30 56 H -5.688165 -0.108902 -2.791154 0
M  V30 57 H 1.490044 -2.134899 -1.297521 0
M  V30 58 H -0.030842 -2.783233 -1.888267 0
M  V30 59 H 2.204548 -2.330110 1.217252 0
M  V30 60 H 1.153152 -3.783233 3.250624 0
M  V30 61 H -1.190873 -4.662653 2.545044 0
M  V30 62 H 1.028448 0.870371 2.098259 0
M  V30 END ATOM
M  V30 BEGIN BOND
M  V30 1 1 1 2
M  V30 2 2 2 3
M  V30 3 1 3 4
M  V30 4 2 4 5
M  V30 5 1 5 6
M  V30 6 1 6 7
M  V30 7 2 7 8
M  V30 8 1 7 9
M  V30 9 1 9 10
M  V30 10 2 10 11
M  V30 11 1 11 12
M  V30 12 1 12 13
M  V30 13 1 13 14
M  V30 14 2 14 15
M  V30 15 1 14 16
M  V30 16 1 16 17
M  V30 17 1 17 18
M  V30 18 1 18 19
M  V30 19 1 19 20
M  V30 20 1 20 21
M  V30 21 1 21 22
M  V30 22 1 22 23
M  V30 23 1 23 24
M  V30 24 1 24 25
M  V30 25 1 16 26
M  V30 26 1 26 27
M  V30 27 2 27 28
M  V30 28 1 28 29
M  V30 29 2 29 30
M  V30 30 1 30 31
M  V30 31 1 12 32
M  V30 32 1 32 33
M  V30 33 2 33 34
M  V30 34 1 34 2
M  V30 35 1 33 5
M  V30 36 2 32 9
M  V30 37 1 25 20
M  V30 38 1 31 27
M  V30 39 1 1 35
M  V30 40 1 1 36
M  V30 41 1 1 37
M  V30 42 1 3 38
M  V30 43 1 4 39
M  V30 44 1 10 40
M  V30 45 1 13 41
M  V30 46 1 13 42
M  V30 47 1 17 43
M  V30 48 1 17 44
M  V30 49 1 18 45
M  V30 50 1 18 46
M  V30 51 1 19 47
M  V30 52 1 19 48
M  V30 53 1 21 49
M  V30 54 1 21 50
M  V30 55 1 22 51
M  V30 56 1 22 52
M  V30 57 1 24 53
M  V30 58 1 24 54
M  V30 59 1 25 55
M  V30 60 1 25 56
M  V30 61 1 26 57
M  V30 62 1 26 58
M  V30 63 1 28 59
M  V30 64 1 29 60
M  V30 65 1 30 61
M  V30 66 1 34 62
M  V30 END BOND
M  V30 END CTAB
M  END
>  <Dataset>  (378) 
ChEMBL_Kinases

>  <Ligand_Instance>  (378) 
nan

>  <PDB_ID>  (378) 
nan

>  <Standardized_SMILES>  (378) 
Cc1ccc2oc(=O)c3cnn(CC(=O)N(CCCN4CCOCC4)Cc4ccco4)c3c2c1

>  <Name>  (378) 
nan

>  <Pocket>  (378) 
nan

>  <ATP_Site>  (378) 
nan

>  <Peripheral>  (378) 
nan

>  <Num_H_Atoms_ProtBoundConf>  (378) 
nan

>  <Num_Resolved_Atoms>  (378) 
nan

>  <Num_Not_Resolved_Atoms>  (378) 
nan

$$$$
CHEMBL1368148
     RDKit          3D

  0  0  0  0  0  0  0  0  0  0999 V3000
M  V30 BEGIN CTAB
M  V30 COUNTS 48 50 0 0 0
M  V30 BEGIN ATOM
M  V30 1 C -2.162716 -6.245277 -0.328648 0
M  V30 2 C -1.279560 -5.686157 0.770110 0
M  V30 3 O -0.694365 -4.467224 0.330668 0
M  V30 4 C 0.091284 -4.517222 -0.787085 0
M  V30 5 O 0.278704 -5.621829 -1.395247 0
M  V30 6 C 0.703859 -3.220156 -1.242431 0
M  V30 7 C 1.588120 -2.751495 -0.114530 0
M  V30 8 C 0.878457 -1.631533 0.590962 0
M  V30 9 N 0.789962 -0.514960 -0.331295 0
M  V30 10 C 1.198746 0.842017 -0.324800 0
M  V30 11 N 1.991413 1.333838 -1.296462 0
M  V30 12 C 2.387163 2.624526 -1.316834 0
M  V30 13 N 1.994941 3.474450 -0.349588 0
M  V30 14 C 1.210833 3.011606 0.622633 0
M  V30 15 C 0.810482 3.874951 1.620177 0
M  V30 16 C 0.008842 3.521994 2.679843 0
M  V30 17 O -0.444816 4.287100 3.715769 0
M  V30 18 C -0.129983 5.643679 3.838371 0
M  V30 19 C -0.392259 2.192093 2.689587 0
M  V30 20 O -1.204311 1.700018 3.701979 0
M  V30 21 C -1.609934 0.345820 3.706977 0
M  V30 22 C -0.022457 1.277310 1.714796 0
M  V30 23 C 0.780013 1.710073 0.690665 0
M  V30 24 C 0.152238 -0.784380 -1.571586 0
M  V30 25 C -0.344192 -2.209027 -1.570526 0
M  V30 26 H -2.360754 -5.432333 -1.051847 0
M  V30 27 H -1.571669 -7.028663 -0.882991 0
M  V30 28 H -3.098751 -6.683389 0.036071 0
M  V30 29 H -1.916439 -5.502622 1.669127 0
M  V30 30 H -0.518048 -6.426598 1.071688 0
M  V30 31 H 1.304991 -3.491996 -2.149553 0
M  V30 32 H 1.773759 -3.587750 0.592437 0
M  V30 33 H 2.598792 -2.454722 -0.471513 0
M  V30 34 H 1.442859 -1.339696 1.501540 0
M  V30 35 H -0.154619 -1.944433 0.815050 0
M  V30 36 H 3.027155 2.973425 -2.122573 0
M  V30 37 H 1.129158 4.905441 1.599670 0
M  V30 38 H 0.773845 5.932772 3.306322 0
M  V30 39 H 0.030374 5.907789 4.909111 0
M  V30 40 H -0.993456 6.227961 3.436525 0
M  V30 41 H -2.313337 0.205446 4.554221 0
M  V30 42 H -0.735668 -0.315079 3.854514 0
M  V30 43 H -2.136762 0.051424 2.775329 0
M  V30 44 H -0.343146 0.258879 1.741915 0
M  V30 45 H 0.868756 -0.695524 -2.440541 0
M  V30 46 H -0.674350 -0.110265 -1.838752 0
M  V30 47 H -1.199427 -2.358160 -0.875635 0
M  V30 48 H -0.769700 -2.449334 -2.578894 0
M  V30 END ATOM
M  V30 BEGIN BOND
M  V30 1 1 1 2
M  V30 2 1 2 3
M  V30 3 1 3 4
M  V30 4 2 4 5
M  V30 5 1 4 6
M  V30 6 1 6 7
M  V30 7 1 7 8
M  V30 8 1 8 9
M  V30 9 1 9 10
M  V30 10 2 10 11
M  V30 11 1 11 12
M  V30 12 2 12 13
M  V30 13 1 13 14
M  V30 14 2 14 15
M  V30 15 1 15 16
M  V30 16 1 16 17
M  V30 17 1 17 18
M  V30 18 2 16 19
M  V30 19 1 19 20
M  V30 20 1 20 21
M  V30 21 1 19 22
M  V30 22 2 22 23
M  V30 23 1 9 24
M  V30 24 1 24 25
M  V30 25 1 25 6
M  V30 26 1 23 10
M  V30 27 1 23 14
M  V30 28 1 1 26
M  V30 29 1 1 27
M  V30 30 1 1 28
M  V30 31 1 2 29
M  V30 32 1 2 30
M  V30 33 1 6 31
M  V30 34 1 7 32
M  V30 35 1 7 33
M  V30 36 1 8 34
M  V30 37 1 8 35
M  V30 38 1 12 36
M  V30 39 1 15 37
M  V30 40 1 18 38
M  V30 41 1 18 39
M  V30 42 1 18 40
M  V30 43 1 21 41
M  V30 44 1 21 42
M  V30 45 1 21 43
M  V30 46 1 22 44
M  V30 47 1 24 45
M  V30 48 1 24 46
M  V30 49 1 25 47
M  V30 50 1 25 48
M  V30 END BOND
M  V30 END CTAB
M  END
>  <Dataset>  (379) 
ChEMBL_Kinases

>  <Ligand_Instance>  (379) 
nan

>  <PDB_ID>  (379) 
nan

>  <Standardized_SMILES>  (379) 
CCOC(=O)C1CCN(c2ncnc3cc(OC)c(OC)cc23)CC1

>  <Name>  (379) 
nan

>  <Pocket>  (379) 
nan

>  <ATP_Site>  (379) 
nan

>  <Peripheral>  (379) 
nan

>  <Num_H_Atoms_ProtBoundConf>  (379) 
nan

>  <Num_Resolved_Atoms>  (379) 
nan

>  <Num_Not_Resolved_Atoms>  (379) 
nan

$$$$
CHEMBL1368149
     RDKit          3D

  0  0  0  0  0  0  0  0  0  0999 V3000
M  V30 BEGIN CTAB
M  V30 COUNTS 37 39 0 0 0
M  V30 BEGIN ATOM
M  V30 1 O -0.725380 -0.027662 1.405340 0
M  V30 2 C -0.248276 0.288849 2.548111 0
M  V30 3 N 1.150807 0.276684 2.690851 0
M  V30 4 C 2.005993 -0.074286 1.605969 0
M  V30 5 N 1.564279 -0.403040 0.426198 0
M  V30 6 N 2.633995 -0.692919 -0.422030 0
M  V30 7 C 2.494647 -1.455917 -1.617083 0
M  V30 8 C 1.256631 -1.941438 -1.973714 0
M  V30 9 C 0.998803 -2.691962 -3.106791 0
M  V30 10 C 2.060892 -2.982446 -3.953561 0
M  V30 11 C 3.299909 -2.491158 -3.587880 0
M  V30 12 C 3.545778 -1.742591 -2.453790 0
M  V30 13 C 3.811674 -0.095822 0.137937 0
M  V30 14 C 3.490505 -0.122611 1.636447 0
M  V30 15 N -1.223411 0.614594 3.531143 0
M  V30 16 C -2.582244 0.525353 3.047631 0
M  V30 17 C -3.274374 1.568610 2.466415 0
M  V30 18 C -4.573035 1.323770 2.053414 0
M  V30 19 C -5.156013 0.082966 2.215938 0
M  V30 20 C -4.427796 -0.955102 2.809126 0
M  V30 21 C -3.113593 -0.734932 3.235560 0
M  V30 22 F -2.472869 -1.773813 3.796101 0
M  V30 23 H 1.508621 0.539708 3.635395 0
M  V30 24 H 0.372638 -1.748157 -1.348003 0
M  V30 25 H -0.008683 -3.047000 -3.331673 0
M  V30 26 H 1.884038 -3.562962 -4.837901 0
M  V30 27 H 4.110662 -2.745154 -4.286852 0
M  V30 28 H 4.538759 -1.380299 -2.211975 0
M  V30 29 H 3.878606 1.004761 -0.100548 0
M  V30 30 H 4.736929 -0.638053 -0.070814 0
M  V30 31 H 3.951123 0.729068 2.168035 0
M  V30 32 H 3.851393 -1.100780 2.064227 0
M  V30 33 H -0.817135 0.875273 4.474157 0
M  V30 34 H -2.750578 2.503179 2.375856 0
M  V30 35 H -5.095778 2.150013 1.602660 0
M  V30 36 H -6.184940 -0.101332 1.885731 0
M  V30 37 H -4.894930 -1.929815 2.933342 0
M  V30 END ATOM
M  V30 BEGIN BOND
M  V30 1 2 1 2
M  V30 2 1 2 3
M  V30 3 1 3 4
M  V30 4 2 4 5
M  V30 5 1 5 6
M  V30 6 1 6 7
M  V30 7 2 7 8
M  V30 8 1 8 9
M  V30 9 2 9 10
M  V30 10 1 10 11
M  V30 11 2 11 12
M  V30 12 1 6 13
M  V30 13 1 13 14
M  V30 14 1 2 15
M  V30 15 1 15 16
M  V30 16 2 16 17
M  V30 17 1 17 18
M  V30 18 2 18 19
M  V30 19 1 19 20
M  V30 20 2 20 21
M  V30 21 1 21 22
M  V30 22 1 14 4
M  V30 23 1 21 16
M  V30 24 1 12 7
M  V30 25 1 3 23
M  V30 26 1 8 24
M  V30 27 1 9 25
M  V30 28 1 10 26
M  V30 29 1 11 27
M  V30 30 1 12 28
M  V30 31 1 13 29
M  V30 32 1 13 30
M  V30 33 1 14 31
M  V30 34 1 14 32
M  V30 35 1 15 33
M  V30 36 1 17 34
M  V30 37 1 18 35
M  V30 38 1 19 36
M  V30 39 1 20 37
M  V30 END BOND
M  V30 END CTAB
M  END
>  <Dataset>  (380) 
ChEMBL_Kinases

>  <Ligand_Instance>  (380) 
nan

>  <PDB_ID>  (380) 
nan

>  <Standardized_SMILES>  (380) 
O=C(NC1=NN(c2ccccc2)CC1)Nc1ccccc1F

>  <Name>  (380) 
nan

>  <Pocket>  (380) 
nan

>  <ATP_Site>  (380) 
nan

>  <Peripheral>  (380) 
nan

>  <Num_H_Atoms_ProtBoundConf>  (380) 
nan

>  <Num_Resolved_Atoms>  (380) 
nan

>  <Num_Not_Resolved_Atoms>  (380) 
nan

$$$$
CHEMBL1368216
     RDKit          3D

  0  0  0  0  0  0  0  0  0  0999 V3000
M  V30 BEGIN CTAB
M  V30 COUNTS 33 34 0 0 0
M  V30 BEGIN ATOM
M  V30 1 C -2.116374 -1.901870 3.682247 0
M  V30 2 C -1.649756 -2.051426 2.288820 0
M  V30 3 O -0.396420 -2.109732 2.267550 0
M  V30 4 C -2.381999 -2.134041 1.035960 0
M  V30 5 N -1.651171 -2.263462 -0.016844 0
M  V30 6 N -0.258536 -2.316773 0.078148 0
M  V30 7 C 0.484902 -1.110940 -0.149838 0
M  V30 8 C -0.254710 0.022275 -0.449367 0
M  V30 9 C 0.481389 1.193075 -0.669691 0
M  V30 10 C 1.845740 1.163904 -0.582047 0
M  V30 11 C 2.563771 0.023788 -0.282258 0
M  V30 12 C 1.862721 -1.156315 -0.057754 0
M  V30 13 O 3.933159 0.100913 -0.218289 0
M  V30 14 C 4.685833 1.302726 -0.269013 0
M  V30 15 C 3.849108 2.543780 -0.243116 0
M  V30 16 O 2.554017 2.337033 -0.804548 0
M  V30 17 C -3.832101 -2.077743 0.946651 0
M  V30 18 C -4.474195 -2.171471 -0.383266 0
M  V30 19 O -4.656321 -1.954650 1.886780 0
M  V30 20 H -3.195054 -1.671475 3.685679 0
M  V30 21 H -1.907660 -2.871381 4.220413 0
M  V30 22 H -1.560125 -1.086598 4.219389 0
M  V30 23 H 0.238424 -3.216585 0.310684 0
M  V30 24 H -1.317923 0.035212 -0.515392 0
M  V30 25 H -0.101397 2.076881 -0.903607 0
M  V30 26 H 2.391230 -2.060975 0.177664 0
M  V30 27 H 5.296136 1.303590 -1.193646 0
M  V30 28 H 5.359438 1.264156 0.610064 0
M  V30 29 H 3.723145 2.943555 0.796361 0
M  V30 30 H 4.339258 3.322341 -0.860440 0
M  V30 31 H -5.423073 -2.714653 -0.351574 0
M  V30 32 H -4.713873 -1.123599 -0.700435 0
M  V30 33 H -3.776604 -2.621610 -1.120179 0
M  V30 END ATOM
M  V30 BEGIN BOND
M  V30 1 1 1 2
M  V30 2 2 2 3
M  V30 3 1 2 4
M  V30 4 2 4 5 CFG=2
M  V30 5 1 5 6
M  V30 6 1 6 7
M  V30 7 2 7 8
M  V30 8 1 8 9
M  V30 9 2 9 10
M  V30 10 1 10 11
M  V30 11 2 11 12
M  V30 12 1 11 13
M  V30 13 1 13 14
M  V30 14 1 14 15
M  V30 15 1 15 16
M  V30 16 1 4 17
M  V30 17 1 17 18
M  V30 18 2 17 19
M  V30 19 1 12 7
M  V30 20 1 16 10
M  V30 21 1 1 20
M  V30 22 1 1 21
M  V30 23 1 1 22
M  V30 24 1 6 23
M  V30 25 1 8 24
M  V30 26 1 9 25
M  V30 27 1 12 26
M  V30 28 1 14 27
M  V30 29 1 14 28
M  V30 30 1 15 29
M  V30 31 1 15 30
M  V30 32 1 18 31
M  V30 33 1 18 32
M  V30 34 1 18 33
M  V30 END BOND
M  V30 END CTAB
M  END
>  <Dataset>  (381) 
ChEMBL_Kinases

>  <Ligand_Instance>  (381) 
nan

>  <PDB_ID>  (381) 
nan

>  <Standardized_SMILES>  (381) 
CC(=O)C(=NNc1ccc2c(c1)OCCO2)C(C)=O

>  <Name>  (381) 
nan

>  <Pocket>  (381) 
nan

>  <ATP_Site>  (381) 
nan

>  <Peripheral>  (381) 
nan

>  <Num_H_Atoms_ProtBoundConf>  (381) 
nan

>  <Num_Resolved_Atoms>  (381) 
nan

>  <Num_Not_Resolved_Atoms>  (381) 
nan

$$$$
CHEMBL1368821
     RDKit          3D

  0  0  0  0  0  0  0  0  0  0999 V3000
M  V30 BEGIN CTAB
M  V30 COUNTS 34 36 0 0 0
M  V30 BEGIN ATOM
M  V30 1 C -2.663275 -1.248023 3.416033 0
M  V30 2 C -1.514712 -1.725557 4.000536 0
M  V30 3 C -0.409564 -2.017616 3.239844 0
M  V30 4 C -0.463458 -1.826319 1.874488 0
M  V30 5 N 0.668875 -2.153078 1.089129 0
M  V30 6 C 1.160508 -2.078123 -0.227626 0
M  V30 7 C 1.356124 -3.310237 -0.867593 0
M  V30 8 C 1.869134 -3.433837 -2.138321 0
M  V30 9 C 2.195716 -2.270046 -2.783300 0
M  V30 10 C 2.030487 -1.026904 -2.214695 0
M  V30 11 C 1.511312 -0.957257 -0.938454 0
M  V30 12 N 1.421061 0.357573 -0.422920 0
M  V30 13 C 0.424266 1.292138 -0.038442 0
M  V30 14 C 0.773813 2.449236 0.582007 0
M  V30 15 C -0.212805 3.341465 0.905432 0
M  V30 16 C -1.544106 3.125172 0.633604 0
M  V30 17 C -1.882369 1.929768 -0.004157 0
M  V30 18 N -0.873827 1.096957 -0.295598 0
M  V30 19 N -1.616314 -1.360089 1.390821 0
M  V30 20 C -2.716924 -1.057021 2.053542 0
M  V30 21 H -3.468604 -1.052289 4.097456 0
M  V30 22 H -1.436021 -1.889087 5.072278 0
M  V30 23 H 0.486643 -2.394412 3.733769 0
M  V30 24 H 1.471933 -2.610322 1.620604 0
M  V30 25 H 1.101686 -4.256907 -0.368078 0
M  V30 26 H 2.002738 -4.400955 -2.595026 0
M  V30 27 H 2.596946 -2.358821 -3.780464 0
M  V30 28 H 2.311812 -0.164144 -2.786768 0
M  V30 29 H 2.426936 0.698601 -0.300193 0
M  V30 30 H 1.799539 2.698682 0.833951 0
M  V30 31 H 0.073061 4.270800 1.404545 0
M  V30 32 H -2.335588 3.814310 0.879335 0
M  V30 33 H -2.912931 1.657263 -0.266907 0
M  V30 34 H -3.633699 -0.684406 1.659413 0
M  V30 END ATOM
M  V30 BEGIN BOND
M  V30 1 2 1 2
M  V30 2 1 2 3
M  V30 3 2 3 4
M  V30 4 1 4 5
M  V30 5 1 5 6
M  V30 6 2 6 7
M  V30 7 1 7 8
M  V30 8 2 8 9
M  V30 9 1 9 10
M  V30 10 2 10 11
M  V30 11 1 11 12
M  V30 12 1 12 13
M  V30 13 2 13 14
M  V30 14 1 14 15
M  V30 15 2 15 16
M  V30 16 1 16 17
M  V30 17 2 17 18
M  V30 18 1 4 19
M  V30 19 2 19 20
M  V30 20 1 20 1
M  V30 21 1 11 6
M  V30 22 1 18 13
M  V30 23 1 1 21
M  V30 24 1 2 22
M  V30 25 1 3 23
M  V30 26 1 5 24
M  V30 27 1 7 25
M  V30 28 1 8 26
M  V30 29 1 9 27
M  V30 30 1 10 28
M  V30 31 1 12 29
M  V30 32 1 14 30
M  V30 33 1 15 31
M  V30 34 1 16 32
M  V30 35 1 17 33
M  V30 36 1 20 34
M  V30 END BOND
M  V30 END CTAB
M  END
>  <Dataset>  (382) 
ChEMBL_Kinases

>  <Ligand_Instance>  (382) 
nan

>  <PDB_ID>  (382) 
nan

>  <Standardized_SMILES>  (382) 
c1ccc(Nc2ccccc2Nc2ccccn2)nc1

>  <Name>  (382) 
nan

>  <Pocket>  (382) 
nan

>  <ATP_Site>  (382) 
nan

>  <Peripheral>  (382) 
nan

>  <Num_H_Atoms_ProtBoundConf>  (382) 
nan

>  <Num_Resolved_Atoms>  (382) 
nan

>  <Num_Not_Resolved_Atoms>  (382) 
nan

$$$$
CHEMBL1368232
     RDKit          3D

  0  0  0  0  0  0  0  0  0  0999 V3000
M  V30 BEGIN CTAB
M  V30 COUNTS 30 31 0 0 0
M  V30 BEGIN ATOM
M  V30 1 C -1.638627 -3.538131 2.048860 0
M  V30 2 O -0.996609 -2.310947 2.400198 0
M  V30 3 C 0.384819 -2.195245 2.321102 0
M  V30 4 O 0.948004 -3.236331 1.928918 0
M  V30 5 C 0.842128 -0.869870 2.720616 0
M  V30 6 C 0.998338 0.203309 1.879253 0
M  V30 7 C 0.736178 0.194692 0.442778 0
M  V30 8 C -0.012324 1.228981 -0.135207 0
M  V30 9 C -0.339704 1.365141 -1.464890 0
M  V30 10 C 0.116525 0.382114 -2.313422 0
M  V30 11 C -0.214004 0.490155 -3.755605 0
M  V30 12 C 0.856351 -0.660191 -1.810764 0
M  V30 13 C 1.157142 -0.749736 -0.468417 0
M  V30 14 C 1.438373 1.379818 2.423829 0
M  V30 15 S 1.638867 0.944792 4.204452 0
M  V30 16 C 1.126845 -0.717126 4.033219 0
M  V30 17 N 1.084344 -1.580742 5.164216 0
M  V30 18 H -1.093590 -4.043345 1.216667 0
M  V30 19 H -1.613343 -4.180174 2.940953 0
M  V30 20 H -2.692251 -3.384338 1.779073 0
M  V30 21 H -0.372180 2.005630 0.538370 0
M  V30 22 H -0.920239 2.203452 -1.790155 0
M  V30 23 H 0.096479 1.475243 -4.153879 0
M  V30 24 H 0.287635 -0.285005 -4.359666 0
M  V30 25 H -1.307579 0.379975 -3.938012 0
M  V30 26 H 1.212136 -1.432089 -2.490522 0
M  V30 27 H 1.740164 -1.567497 -0.079503 0
M  V30 28 H 1.641126 2.337682 2.018596 0
M  V30 29 H 1.763067 -2.368969 5.370705 0
M  V30 30 H 0.334803 -1.488388 5.911142 0
M  V30 END ATOM
M  V30 BEGIN BOND
M  V30 1 1 1 2
M  V30 2 1 2 3
M  V30 3 2 3 4
M  V30 4 1 3 5
M  V30 5 1 5 6
M  V30 6 1 6 7
M  V30 7 2 7 8
M  V30 8 1 8 9
M  V30 9 2 9 10
M  V30 10 1 10 11
M  V30 11 1 10 12
M  V30 12 2 12 13
M  V30 13 2 6 14
M  V30 14 1 14 15
M  V30 15 1 15 16
M  V30 16 1 16 17
M  V30 17 2 16 5
M  V30 18 1 13 7
M  V30 19 1 1 18
M  V30 20 1 1 19
M  V30 21 1 1 20
M  V30 22 1 8 21
M  V30 23 1 9 22
M  V30 24 1 11 23
M  V30 25 1 11 24
M  V30 26 1 11 25
M  V30 27 1 12 26
M  V30 28 1 13 27
M  V30 29 1 14 28
M  V30 30 1 17 29
M  V30 31 1 17 30
M  V30 END BOND
M  V30 END CTAB
M  END
>  <Dataset>  (383) 
ChEMBL_Kinases

>  <Ligand_Instance>  (383) 
nan

>  <PDB_ID>  (383) 
nan

>  <Standardized_SMILES>  (383) 
COC(=O)c1c(-c2ccc(C)cc2)csc1N

>  <Name>  (383) 
nan

>  <Pocket>  (383) 
nan

>  <ATP_Site>  (383) 
nan

>  <Peripheral>  (383) 
nan

>  <Num_H_Atoms_ProtBoundConf>  (383) 
nan

>  <Num_Resolved_Atoms>  (383) 
nan

>  <Num_Not_Resolved_Atoms>  (383) 
nan

$$$$
CHEMBL1368322
     RDKit          3D

  0  0  0  0  0  0  0  0  0  0999 V3000
M  V30 BEGIN CTAB
M  V30 COUNTS 39 41 0 0 0
M  V30 BEGIN ATOM
M  V30 1 N -0.910195 -3.613051 5.602916 0
M  V30 2 C -0.661796 -2.969839 4.513916 0
M  V30 3 C -0.388392 -3.621118 3.240087 0
M  V30 4 C -0.138068 -2.916870 2.148979 0
M  V30 5 C -0.118877 -1.464665 2.143796 0
M  V30 6 C 0.091431 -0.756860 1.054728 0
M  V30 7 C 0.329467 -1.191133 -0.307631 0
M  V30 8 C -0.546220 -2.154660 -0.788868 0
M  V30 9 C -0.437180 -2.688056 -2.069632 0
M  V30 10 C 0.586725 -2.243199 -2.908645 0
M  V30 11 N 0.779949 -2.728433 -4.232673 0
M  V30 12 C 1.463544 -1.285227 -2.443095 0
M  V30 13 C 1.325185 -0.779821 -1.168146 0
M  V30 14 C 0.185221 0.695135 0.994685 0
M  V30 15 C -0.461477 1.530818 0.096530 0
M  V30 16 C -0.325509 2.895665 0.058689 0
M  V30 17 C 0.509547 3.495419 0.971753 0
M  V30 18 N 0.674037 4.908515 0.963429 0
M  V30 19 C 1.202422 2.732846 1.913982 0
M  V30 20 C 1.008900 1.366394 1.882318 0
M  V30 21 C -0.389017 -0.790329 3.405200 0
M  V30 22 C -0.637240 -1.511614 4.487183 0
M  V30 23 H -1.105689 -3.106663 6.516221 0
M  V30 24 H -0.399875 -4.710533 3.226644 0
M  V30 25 H 0.061758 -3.502471 1.267443 0
M  V30 26 H -1.405149 -2.611569 -0.296273 0
M  V30 27 H -1.060618 -3.426486 -2.519597 0
M  V30 28 H 1.682267 -3.039973 -4.653041 0
M  V30 29 H 1.755693 -3.000503 -4.488541 0
M  V30 30 H 2.285829 -0.860936 -2.981506 0
M  V30 31 H 1.987577 -0.025647 -0.750574 0
M  V30 32 H -1.115323 1.044754 -0.618820 0
M  V30 33 H -0.883913 3.447269 -0.693591 0
M  V30 34 H 1.436409 5.366745 1.511363 0
M  V30 35 H 0.026817 5.504624 0.402702 0
M  V30 36 H 1.829360 3.258833 2.592754 0
M  V30 37 H 1.616733 0.869891 2.655200 0
M  V30 38 H -0.422691 0.274501 3.563445 0
M  V30 39 H -0.844676 -1.032557 5.452784 0
M  V30 END ATOM
M  V30 BEGIN BOND
M  V30 1 2 1 2 CFG=2
M  V30 2 1 2 3
M  V30 3 2 3 4
M  V30 4 1 4 5
M  V30 5 2 5 6 CFG=2
M  V30 6 1 6 7
M  V30 7 2 7 8
M  V30 8 1 8 9
M  V30 9 2 9 10
M  V30 10 1 10 11
M  V30 11 1 10 12
M  V30 12 2 12 13
M  V30 13 1 6 14
M  V30 14 2 14 15
M  V30 15 1 15 16
M  V30 16 2 16 17
M  V30 17 1 17 18
M  V30 18 1 17 19
M  V30 19 2 19 20
M  V30 20 1 5 21
M  V30 21 2 21 22
M  V30 22 1 22 2
M  V30 23 1 13 7
M  V30 24 1 20 14
M  V30 25 1 1 23
M  V30 26 1 3 24
M  V30 27 1 4 25
M  V30 28 1 8 26
M  V30 29 1 9 27
M  V30 30 1 11 28
M  V30 31 1 11 29
M  V30 32 1 12 30
M  V30 33 1 13 31
M  V30 34 1 15 32
M  V30 35 1 16 33
M  V30 36 1 18 34
M  V30 37 1 18 35
M  V30 38 1 19 36
M  V30 39 1 20 37
M  V30 40 1 21 38
M  V30 41 1 22 39
M  V30 END BOND
M  V30 END CTAB
M  END
>  <Dataset>  (384) 
ChEMBL_Kinases

>  <Ligand_Instance>  (384) 
nan

>  <PDB_ID>  (384) 
nan

>  <Standardized_SMILES>  (384) 
N=C1C=CC(=C(c2ccc(N)cc2)c2ccc(N)cc2)C=C1

>  <Name>  (384) 
PARAROSANILINE

>  <Pocket>  (384) 
nan

>  <ATP_Site>  (384) 
nan

>  <Peripheral>  (384) 
nan

>  <Num_H_Atoms_ProtBoundConf>  (384) 
nan

>  <Num_Resolved_Atoms>  (384) 
nan

>  <Num_Not_Resolved_Atoms>  (384) 
nan

$$$$
CHEMBL1368453
     RDKit          3D

  0  0  0  0  0  0  0  0  0  0999 V3000
M  V30 BEGIN CTAB
M  V30 COUNTS 47 50 0 0 0
M  V30 BEGIN ATOM
M  V30 1 C 0.168663 -5.296362 3.348966 0
M  V30 2 N -0.188117 -3.891896 3.273804 0
M  V30 3 C 0.153810 -3.130162 2.224704 0
M  V30 4 O 0.796409 -3.672915 1.312461 0
M  V30 5 C -0.155625 -1.796101 2.095506 0
M  V30 6 C -0.858174 -1.217549 3.113680 0
M  V30 7 N -1.034106 0.074328 2.788733 0
M  V30 8 C -0.448602 0.309883 1.575929 0
M  V30 9 S -0.725527 1.981041 1.270015 0
M  V30 10 C -0.113832 2.826692 -0.112148 0
M  V30 11 C 1.341037 3.072105 -0.213252 0
M  V30 12 C 1.676682 4.182677 0.588588 0
M  V30 13 C 2.965492 4.693333 0.703840 0
M  V30 14 C 3.987030 4.098767 0.005977 0
M  V30 15 N 3.664967 3.045074 -0.754670 0
M  V30 16 C 2.428586 2.552771 -0.867517 0
M  V30 17 N 0.073325 -0.841690 1.178110 0
M  V30 18 C 0.745916 -0.979365 -0.058688 0
M  V30 19 C -0.092427 -1.301889 -1.233787 0
M  V30 20 C -0.242838 -0.410583 -2.289182 0
M  V30 21 C -1.009709 -0.614866 -3.399937 0
M  V30 22 C -1.714804 -1.782478 -3.541265 0
M  V30 23 C -1.603528 -2.711075 -2.520045 0
M  V30 24 C -0.818745 -2.442137 -1.436575 0
M  V30 25 N -1.214914 -1.985016 4.194734 0
M  V30 26 C -1.968442 -1.356345 5.281491 0
M  V30 27 C -0.876043 -3.279838 4.244167 0
M  V30 28 O -1.246045 -3.896322 5.268197 0
M  V30 29 H 0.059124 -5.806373 2.348282 0
M  V30 30 H 1.202090 -5.436591 3.752707 0
M  V30 31 H -0.508696 -5.831691 4.041364 0
M  V30 32 H -0.493245 2.330847 -1.066442 0
M  V30 33 H -0.673657 3.828203 -0.187670 0
M  V30 34 H 0.987004 4.775239 1.210897 0
M  V30 35 H 3.239525 5.533084 1.306336 0
M  V30 36 H 5.011515 4.426985 0.037339 0
M  V30 37 H 2.126646 1.721379 -1.481347 0
M  V30 38 H 1.477734 -1.815496 0.063810 0
M  V30 39 H 1.270318 -0.030118 -0.281775 0
M  V30 40 H 0.262296 0.540594 -2.320873 0
M  V30 41 H -1.120376 0.085681 -4.215244 0
M  V30 42 H -2.332872 -1.991030 -4.399883 0
M  V30 43 H -2.166896 -3.639793 -2.638624 0
M  V30 44 H -0.815893 -3.228487 -0.716059 0
M  V30 45 H -1.684275 -1.779909 6.258500 0
M  V30 46 H -3.047796 -1.606055 5.142862 0
M  V30 47 H -1.892902 -0.250824 5.225582 0
M  V30 END ATOM
M  V30 BEGIN BOND
M  V30 1 1 1 2
M  V30 2 1 2 3
M  V30 3 2 3 4
M  V30 4 1 3 5
M  V30 5 2 5 6
M  V30 6 1 6 7
M  V30 7 2 7 8
M  V30 8 1 8 9
M  V30 9 1 9 10
M  V30 10 1 10 11
M  V30 11 2 11 12
M  V30 12 1 12 13
M  V30 13 2 13 14
M  V30 14 1 14 15
M  V30 15 2 15 16
M  V30 16 1 8 17
M  V30 17 1 17 18
M  V30 18 1 18 19
M  V30 19 2 19 20
M  V30 20 1 20 21
M  V30 21 2 21 22
M  V30 22 1 22 23
M  V30 23 2 23 24
M  V30 24 1 6 25
M  V30 25 1 25 26
M  V30 26 1 25 27
M  V30 27 2 27 28
M  V30 28 1 27 2
M  V30 29 1 17 5
M  V30 30 1 24 19
M  V30 31 1 16 11
M  V30 32 1 1 29
M  V30 33 1 1 30
M  V30 34 1 1 31
M  V30 35 1 10 32
M  V30 36 1 10 33
M  V30 37 1 12 34
M  V30 38 1 13 35
M  V30 39 1 14 36
M  V30 40 1 16 37
M  V30 41 1 18 38
M  V30 42 1 18 39
M  V30 43 1 20 40
M  V30 44 1 21 41
M  V30 45 1 22 42
M  V30 46 1 23 43
M  V30 47 1 24 44
M  V30 48 1 26 45
M  V30 49 1 26 46
M  V30 50 1 26 47
M  V30 END BOND
M  V30 END CTAB
M  END
>  <Dataset>  (385) 
ChEMBL_Kinases

>  <Ligand_Instance>  (385) 
nan

>  <PDB_ID>  (385) 
nan

>  <Standardized_SMILES>  (385) 
Cn1c(=O)c2c(nc(SCc3cccnc3)n2Cc2ccccc2)n(C)c1=O

>  <Name>  (385) 
nan

>  <Pocket>  (385) 
nan

>  <ATP_Site>  (385) 
nan

>  <Peripheral>  (385) 
nan

>  <Num_H_Atoms_ProtBoundConf>  (385) 
nan

>  <Num_Resolved_Atoms>  (385) 
nan

>  <Num_Not_Resolved_Atoms>  (385) 
nan

$$$$
CHEMBL1368572
     RDKit          3D

  0  0  0  0  0  0  0  0  0  0999 V3000
M  V30 BEGIN CTAB
M  V30 COUNTS 36 38 0 0 0
M  V30 BEGIN ATOM
M  V30 1 N -0.520336 -3.241675 2.582738 0
M  V30 2 C 0.921709 -3.165418 2.552387 0
M  V30 3 C 1.531389 -3.903848 3.571070 0
M  V30 4 C 2.927245 -3.864792 3.587354 0
M  V30 5 C 3.653513 -3.139534 2.651682 0
M  V30 6 C 3.025157 -2.432841 1.674769 0
M  V30 7 C 1.640657 -2.443024 1.620405 0
M  V30 8 S 0.639205 -1.591355 0.420823 0
M  V30 9 C 0.213832 0.101403 0.914517 0 CFG=1
M  V30 10 C 1.579335 0.809360 0.895213 0
M  V30 11 N 1.488085 2.177566 1.260307 0 CHG=1 VAL=4
M  V30 12 O 1.978899 2.888280 2.188789 0
M  V30 13 O 1.400183 3.495524 1.611989 0 CHG=-1 VAL=1
M  V30 14 C -0.726824 0.635703 -0.067466 0
M  V30 15 C -1.896587 1.298149 0.222683 0
M  V30 16 C -2.746625 1.769991 -0.750647 0
M  V30 17 C -2.395419 1.560659 -2.065494 0
M  V30 18 C -1.220982 0.894545 -2.434435 0
M  V30 19 C -0.379736 0.428834 -1.411196 0
M  V30 20 O -1.190273 0.864122 -3.824704 0
M  V30 21 C -2.531685 1.056277 -4.309012 0
M  V30 22 O -3.032040 1.910831 -3.272295 0
M  V30 23 H -0.830509 -4.014462 1.922488 0
M  V30 24 H -1.208297 -2.672518 3.130633 0
M  V30 25 H 0.998272 -4.476719 4.311742 0
M  V30 26 H 3.417038 -4.438692 4.379609 0
M  V30 27 H 4.751454 -3.141733 2.708928 0
M  V30 28 H 3.535252 -1.846115 0.916363 0
M  V30 29 H -0.234030 0.173162 1.920503 0
M  V30 30 H 1.984327 0.643986 -0.123992 0
M  V30 31 H 2.222522 0.216619 1.600824 0
M  V30 32 H -2.124061 1.435433 1.281020 0
M  V30 33 H -3.662455 2.288358 -0.491806 0
M  V30 34 H 0.536771 -0.090165 -1.712233 0
M  V30 35 H -3.092703 0.110219 -4.388115 0
M  V30 36 H -2.438617 1.576997 -5.280458 0
M  V30 END ATOM
M  V30 BEGIN BOND
M  V30 1 1 1 2
M  V30 2 2 2 3
M  V30 3 1 3 4
M  V30 4 2 4 5
M  V30 5 1 5 6
M  V30 6 2 6 7
M  V30 7 1 7 8
M  V30 8 1 8 9
M  V30 9 1 9 10
M  V30 10 1 10 11
M  V30 11 2 11 12
M  V30 12 1 11 13
M  V30 13 1 9 14
M  V30 14 2 14 15
M  V30 15 1 15 16
M  V30 16 2 16 17
M  V30 17 1 17 18
M  V30 18 2 18 19
M  V30 19 1 18 20
M  V30 20 1 20 21
M  V30 21 1 21 22
M  V30 22 1 7 2
M  V30 23 1 19 14
M  V30 24 1 22 17
M  V30 25 1 1 23
M  V30 26 1 1 24
M  V30 27 1 3 25
M  V30 28 1 4 26
M  V30 29 1 5 27
M  V30 30 1 6 28
M  V30 31 1 9 29 CFG=1
M  V30 32 1 10 30
M  V30 33 1 10 31
M  V30 34 1 15 32
M  V30 35 1 16 33
M  V30 36 1 19 34
M  V30 37 1 21 35
M  V30 38 1 21 36
M  V30 END BOND
M  V30 END CTAB
M  END
>  <Dataset>  (386) 
ChEMBL_Kinases

>  <Ligand_Instance>  (386) 
nan

>  <PDB_ID>  (386) 
nan

>  <Standardized_SMILES>  (386) 
Nc1ccccc1S[C@@H](C[N+](=O)[O-])c1ccc2c(c1)OCO2

>  <Name>  (386) 
nan

>  <Pocket>  (386) 
nan

>  <ATP_Site>  (386) 
nan

>  <Peripheral>  (386) 
nan

>  <Num_H_Atoms_ProtBoundConf>  (386) 
nan

>  <Num_Resolved_Atoms>  (386) 
nan

>  <Num_Not_Resolved_Atoms>  (386) 
nan

$$$$
CHEMBL1368661
     RDKit          3D

  0  0  0  0  0  0  0  0  0  0999 V3000
M  V30 BEGIN CTAB
M  V30 COUNTS 53 56 0 0 0
M  V30 BEGIN ATOM
M  V30 1 C -0.109099 2.920673 1.029796 0
M  V30 2 C 0.963568 1.979361 1.529053 0
M  V30 3 N 2.172124 2.431848 1.893068 0
M  V30 4 N 2.964197 1.442989 2.300035 0
M  V30 5 C 4.291142 1.844453 2.673824 0
M  V30 6 C 5.236098 1.983439 1.562623 0
M  V30 7 C 5.434785 3.307405 1.128127 0
M  V30 8 C 6.252034 3.715023 0.096137 0
M  V30 9 C 6.955316 2.758423 -0.596044 0
M  V30 10 Cl 8.020779 3.117743 -1.916103 0
M  V30 11 C 6.805969 1.445309 -0.221337 0
M  V30 12 C 5.976214 1.100673 0.816429 0
M  V30 13 Cl 5.833645 -0.569100 1.270231 0
M  V30 14 C 2.226318 0.357021 2.185820 0
M  V30 15 C 2.684756 -0.977697 2.575767 0
M  V30 16 C 0.962880 0.610607 1.708038 0
M  V30 17 N -0.186363 -0.120763 1.354635 0
M  V30 18 C -0.493214 -1.482096 1.200521 0
M  V30 19 O 0.411677 -2.325403 1.397510 0
M  V30 20 C -1.796228 -2.011304 0.824385 0
M  V30 21 N -2.914222 -1.297810 0.566979 0
M  V30 22 C -3.923931 -2.139930 0.249116 0
M  V30 23 N -3.405923 -3.401288 0.315285 0
M  V30 24 N -2.134971 -3.297273 0.660213 0
M  V30 25 C -4.263180 -4.497888 0.027035 0
M  V30 26 C -3.378473 -5.610622 -0.545207 0
M  V30 27 F -2.790032 -5.101489 -1.678107 0
M  V30 28 F -2.411320 -5.862443 0.418913 0
M  V30 29 C -5.412630 -4.259768 -0.858096 0
M  V30 30 C -5.766852 -2.859366 -1.188035 0
M  V30 31 C -7.230060 -2.691414 -1.476655 0
M  V30 32 N -5.312134 -1.994506 -0.116296 0
M  V30 33 H -0.794412 2.350543 0.353443 0
M  V30 34 H -0.731189 3.268813 1.879295 0
M  V30 35 H 0.328641 3.792015 0.546597 0
M  V30 36 H 4.681833 1.006356 3.318211 0
M  V30 37 H 4.318400 2.773497 3.284545 0
M  V30 38 H 4.926389 4.143809 1.607326 0
M  V30 39 H 6.375222 4.729498 -0.202084 0
M  V30 40 H 7.331854 0.658371 -0.728888 0
M  V30 41 H 2.986334 -1.643819 1.748192 0
M  V30 42 H 3.621943 -0.841512 3.211756 0
M  V30 43 H 2.001152 -1.475367 3.300041 0
M  V30 44 H -1.091378 0.402296 1.140948 0
M  V30 45 H -4.670370 -4.851985 1.021190 0
M  V30 46 H -3.956007 -6.532007 -0.712216 0
M  V30 47 H -5.260306 -4.812715 -1.833873 0
M  V30 48 H -6.358053 -4.739653 -0.459762 0
M  V30 49 H -5.230465 -2.585279 -2.140480 0
M  V30 50 H -7.406274 -1.603631 -1.693579 0
M  V30 51 H -7.404183 -3.192222 -2.470189 0
M  V30 52 H -7.908407 -3.109123 -0.734698 0
M  V30 53 H -5.837530 -1.266674 0.444168 0
M  V30 END ATOM
M  V30 BEGIN BOND
M  V30 1 1 1 2
M  V30 2 2 2 3
M  V30 3 1 3 4
M  V30 4 1 4 5
M  V30 5 1 5 6
M  V30 6 2 6 7
M  V30 7 1 7 8
M  V30 8 2 8 9
M  V30 9 1 9 10
M  V30 10 1 9 11
M  V30 11 2 11 12
M  V30 12 1 12 13
M  V30 13 1 4 14
M  V30 14 1 14 15
M  V30 15 2 14 16
M  V30 16 1 16 17
M  V30 17 1 17 18
M  V30 18 2 18 19
M  V30 19 1 18 20
M  V30 20 1 20 21
M  V30 21 2 21 22
M  V30 22 1 22 23
M  V30 23 1 23 24
M  V30 24 1 23 25
M  V30 25 1 25 26
M  V30 26 1 26 27
M  V30 27 1 26 28
M  V30 28 1 25 29
M  V30 29 1 29 30
M  V30 30 1 30 31
M  V30 31 1 30 32
M  V30 32 1 16 2
M  V30 33 2 24 20
M  V30 34 1 12 6
M  V30 35 1 32 22
M  V30 36 1 1 33
M  V30 37 1 1 34
M  V30 38 1 1 35
M  V30 39 1 5 36
M  V30 40 1 5 37
M  V30 41 1 7 38
M  V30 42 1 8 39
M  V30 43 1 11 40
M  V30 44 1 15 41
M  V30 45 1 15 42
M  V30 46 1 15 43
M  V30 47 1 17 44
M  V30 48 1 25 45
M  V30 49 1 26 46
M  V30 50 1 29 47
M  V30 51 1 29 48
M  V30 52 1 30 49
M  V30 53 1 31 50
M  V30 54 1 31 51
M  V30 55 1 31 52
M  V30 56 1 32 53
M  V30 END BOND
M  V30 END CTAB
M  END
>  <Dataset>  (387) 
ChEMBL_Kinases

>  <Ligand_Instance>  (387) 
nan

>  <PDB_ID>  (387) 
nan

>  <Standardized_SMILES>  (387) 
Cc1nn(Cc2ccc(Cl)cc2Cl)c(C)c1NC(=O)c1nc2n(n1)C(C(F)F)CC(C)N2

>  <Name>  (387) 
nan

>  <Pocket>  (387) 
nan

>  <ATP_Site>  (387) 
nan

>  <Peripheral>  (387) 
nan

>  <Num_H_Atoms_ProtBoundConf>  (387) 
nan

>  <Num_Resolved_Atoms>  (387) 
nan

>  <Num_Not_Resolved_Atoms>  (387) 
nan

$$$$
CHEMBL1368693
     RDKit          3D

  0  0  0  0  0  0  0  0  0  0999 V3000
M  V30 BEGIN CTAB
M  V30 COUNTS 49 50 0 0 0
M  V30 BEGIN ATOM
M  V30 1 O -0.423155 -2.817783 2.863835 0
M  V30 2 C -0.045328 -3.032995 1.683114 0
M  V30 3 C 1.094428 -3.967493 1.756141 0
M  V30 4 O 1.630251 -4.292915 0.476609 0
M  V30 5 C 2.169032 -3.240126 -0.234921 0
M  V30 6 O 2.265107 -2.007844 0.082286 0
M  V30 7 C 2.832612 -2.725549 -1.445344 0
M  V30 8 S 3.034233 -0.937267 -1.316012 0
M  V30 9 C 1.494953 -0.026002 -1.368898 0
M  V30 10 C 1.690474 1.462259 -1.243497 0
M  V30 11 O 1.841013 2.172508 -2.289147 0
M  V30 12 N 1.720993 2.163944 0.004873 0
M  V30 13 C 1.914094 3.576632 -0.148091 0
M  V30 14 C 2.413302 4.109289 1.175973 0
M  V30 15 C 1.480032 3.624584 2.249382 0
M  V30 16 C 1.520201 2.142370 2.451790 0
M  V30 17 C 1.558097 1.349035 1.185235 0
M  V30 18 N -0.714831 -2.404391 0.604123 0
M  V30 19 C -1.830809 -1.493058 0.669373 0
M  V30 20 C -3.076584 -2.250552 0.943956 0
M  V30 21 C -3.564723 -2.478500 2.221449 0
M  V30 22 C -4.737700 -3.204451 2.355368 0
M  V30 23 C -5.430645 -3.703586 1.272681 0
M  V30 24 F -6.577532 -4.405873 1.512735 0
M  V30 25 C -4.910887 -3.454561 0.019420 0
M  V30 26 C -3.747163 -2.737292 -0.160142 0
M  V30 27 H 0.738225 -4.906278 2.223566 0
M  V30 28 H 1.893262 -3.594531 2.437756 0
M  V30 29 H 3.778493 -3.253624 -1.588282 0
M  V30 30 H 2.214874 -2.935330 -2.365322 0
M  V30 31 H 0.808225 -0.380739 -0.586198 0
M  V30 32 H 0.945007 -0.231854 -2.334966 0
M  V30 33 H 2.624456 3.800054 -0.971314 0
M  V30 34 H 0.913159 4.028680 -0.312145 0
M  V30 35 H 2.304016 5.233776 1.172705 0
M  V30 36 H 3.451679 3.847340 1.385036 0
M  V30 37 H 0.454800 3.967777 1.988340 0
M  V30 38 H 1.754892 4.139324 3.192659 0
M  V30 39 H 2.411317 1.889756 3.062677 0
M  V30 40 H 0.630901 1.850018 3.045538 0
M  V30 41 H 0.615644 0.777432 1.066644 0
M  V30 42 H 2.383889 0.609810 1.200039 0
M  V30 43 H -0.298531 -2.693831 -0.317611 0
M  V30 44 H -1.887123 -0.985788 -0.321879 0
M  V30 45 H -1.655213 -0.740700 1.475405 0
M  V30 46 H -3.042550 -2.095968 3.078427 0
M  V30 47 H -5.088427 -3.362095 3.359836 0
M  V30 48 H -5.532584 -3.892351 -0.777656 0
M  V30 49 H -3.424977 -2.598710 -1.189946 0
M  V30 END ATOM
M  V30 BEGIN BOND
M  V30 1 2 1 2
M  V30 2 1 2 3
M  V30 3 1 3 4
M  V30 4 1 4 5
M  V30 5 2 5 6
M  V30 6 1 5 7
M  V30 7 1 7 8
M  V30 8 1 8 9
M  V30 9 1 9 10
M  V30 10 2 10 11
M  V30 11 1 10 12
M  V30 12 1 12 13
M  V30 13 1 13 14
M  V30 14 1 14 15
M  V30 15 1 15 16
M  V30 16 1 16 17
M  V30 17 1 2 18
M  V30 18 1 18 19
M  V30 19 1 19 20
M  V30 20 2 20 21
M  V30 21 1 21 22
M  V30 22 2 22 23
M  V30 23 1 23 24
M  V30 24 1 23 25
M  V30 25 2 25 26
M  V30 26 1 17 12
M  V30 27 1 26 20
M  V30 28 1 3 27
M  V30 29 1 3 28
M  V30 30 1 7 29
M  V30 31 1 7 30
M  V30 32 1 9 31
M  V30 33 1 9 32
M  V30 34 1 13 33
M  V30 35 1 13 34
M  V30 36 1 14 35
M  V30 37 1 14 36
M  V30 38 1 15 37
M  V30 39 1 15 38
M  V30 40 1 16 39
M  V30 41 1 16 40
M  V30 42 1 17 41
M  V30 43 1 17 42
M  V30 44 1 18 43
M  V30 45 1 19 44
M  V30 46 1 19 45
M  V30 47 1 21 46
M  V30 48 1 22 47
M  V30 49 1 25 48
M  V30 50 1 26 49
M  V30 END BOND
M  V30 END CTAB
M  END
>  <Dataset>  (388) 
ChEMBL_Kinases

>  <Ligand_Instance>  (388) 
nan

>  <PDB_ID>  (388) 
nan

>  <Standardized_SMILES>  (388) 
O=C(COC(=O)CSCC(=O)N1CCCCC1)NCc1ccc(F)cc1

>  <Name>  (388) 
nan

>  <Pocket>  (388) 
nan

>  <ATP_Site>  (388) 
nan

>  <Peripheral>  (388) 
nan

>  <Num_H_Atoms_ProtBoundConf>  (388) 
nan

>  <Num_Resolved_Atoms>  (388) 
nan

>  <Num_Not_Resolved_Atoms>  (388) 
nan

$$$$
CHEMBL1368730
     RDKit          3D

  0  0  0  0  0  0  0  0  0  0999 V3000
M  V30 BEGIN CTAB
M  V30 COUNTS 45 46 0 0 0
M  V30 BEGIN ATOM
M  V30 1 C 1.774775 -6.383127 2.153122 0
M  V30 2 O 0.788690 -5.458310 1.808661 0
M  V30 3 C 0.987744 -4.138011 1.500605 0
M  V30 4 C 2.213692 -3.507458 1.482786 0
M  V30 5 C 2.341992 -2.169550 1.162225 0
M  V30 6 C 1.212501 -1.442571 0.850926 0
M  V30 7 N 1.355608 -0.064130 0.521914 0
M  V30 8 C 1.564516 0.343586 -0.832635 0
M  V30 9 O 1.604208 -0.628820 -1.661986 0
M  V30 10 C 1.728182 1.731228 -1.311785 0
M  V30 11 N 1.670430 2.742002 -0.325785 0
M  V30 12 C 2.796715 3.603620 -0.281501 0
M  V30 13 S 0.186561 3.419476 0.039705 0
M  V30 14 O 0.387148 4.550223 1.006971 0
M  V30 15 O -0.406722 4.064710 -1.205813 0
M  V30 16 C -1.003976 2.344617 0.664827 0
M  V30 17 C -1.060292 2.176021 2.052284 0
M  V30 18 C -1.952542 1.353602 2.715195 0
M  V30 19 C -2.860069 0.642566 1.942658 0
M  V30 20 C -2.845004 0.774490 0.570315 0
M  V30 21 C -1.936771 1.607932 -0.061715 0
M  V30 22 C -0.034501 -2.028011 0.855034 0
M  V30 23 C -0.105522 -3.360552 1.180800 0
M  V30 24 O -1.372788 -3.951577 1.183993 0
M  V30 25 C -2.520300 -3.189609 0.861869 0
M  V30 26 H 1.611554 -7.372990 1.660846 0
M  V30 27 H 2.801687 -6.088502 1.901137 0
M  V30 28 H 1.715595 -6.535392 3.264602 0
M  V30 29 H 3.090615 -4.074119 1.725035 0
M  V30 30 H 3.344298 -1.742885 1.169921 0
M  V30 31 H 1.316914 0.700624 1.230763 0
M  V30 32 H 2.762429 1.783908 -1.759866 0
M  V30 33 H 1.057902 1.912216 -2.172216 0
M  V30 34 H 3.371490 3.537424 0.664529 0
M  V30 35 H 2.479955 4.646630 -0.475263 0
M  V30 36 H 3.483832 3.318334 -1.114270 0
M  V30 37 H -0.362416 2.718112 2.700323 0
M  V30 38 H -1.941996 1.270080 3.782586 0
M  V30 39 H -3.567146 -0.007198 2.445220 0
M  V30 40 H -3.554174 0.218868 -0.033461 0
M  V30 41 H -1.885306 1.745224 -1.136023 0
M  V30 42 H -0.911351 -1.433977 0.605935 0
M  V30 43 H -2.705395 -2.442059 1.678179 0
M  V30 44 H -2.403187 -2.697524 -0.122494 0
M  V30 45 H -3.390741 -3.862125 0.831992 0
M  V30 END ATOM
M  V30 BEGIN BOND
M  V30 1 1 1 2
M  V30 2 1 2 3
M  V30 3 2 3 4
M  V30 4 1 4 5
M  V30 5 2 5 6
M  V30 6 1 6 7
M  V30 7 1 7 8
M  V30 8 2 8 9
M  V30 9 1 8 10
M  V30 10 1 10 11
M  V30 11 1 11 12
M  V30 12 1 11 13
M  V30 13 2 13 14
M  V30 14 2 13 15
M  V30 15 1 13 16
M  V30 16 2 16 17
M  V30 17 1 17 18
M  V30 18 2 18 19
M  V30 19 1 19 20
M  V30 20 2 20 21
M  V30 21 1 6 22
M  V30 22 2 22 23
M  V30 23 1 23 24
M  V30 24 1 24 25
M  V30 25 1 23 3
M  V30 26 1 21 16
M  V30 27 1 1 26
M  V30 28 1 1 27
M  V30 29 1 1 28
M  V30 30 1 4 29
M  V30 31 1 5 30
M  V30 32 1 7 31
M  V30 33 1 10 32
M  V30 34 1 10 33
M  V30 35 1 12 34
M  V30 36 1 12 35
M  V30 37 1 12 36
M  V30 38 1 17 37
M  V30 39 1 18 38
M  V30 40 1 19 39
M  V30 41 1 20 40
M  V30 42 1 21 41
M  V30 43 1 22 42
M  V30 44 1 25 43
M  V30 45 1 25 44
M  V30 46 1 25 45
M  V30 END BOND
M  V30 END CTAB
M  END
>  <Dataset>  (389) 
ChEMBL_Kinases

>  <Ligand_Instance>  (389) 
nan

>  <PDB_ID>  (389) 
nan

>  <Standardized_SMILES>  (389) 
COc1ccc(NC(=O)CN(C)S(=O)(=O)c2ccccc2)cc1OC

>  <Name>  (389) 
nan

>  <Pocket>  (389) 
nan

>  <ATP_Site>  (389) 
nan

>  <Peripheral>  (389) 
nan

>  <Num_H_Atoms_ProtBoundConf>  (389) 
nan

>  <Num_Resolved_Atoms>  (389) 
nan

>  <Num_Not_Resolved_Atoms>  (389) 
nan

$$$$
CHEMBL1368746
     RDKit          3D

  0  0  0  0  0  0  0  0  0  0999 V3000
M  V30 BEGIN CTAB
M  V30 COUNTS 44 45 0 0 0
M  V30 BEGIN ATOM
M  V30 1 C -3.416162 -2.967590 3.380627 0
M  V30 2 O -2.076010 -3.372708 3.560864 0
M  V30 3 C -1.007462 -2.712620 2.951131 0
M  V30 4 C -1.238056 -1.621736 2.137459 0
M  V30 5 C -0.211543 -0.942530 1.517458 0
M  V30 6 C -0.347816 0.214376 0.643641 0
M  V30 7 O 0.681706 0.754206 0.133171 0
M  V30 8 N -1.560759 0.831219 0.284865 0
M  V30 9 C -1.845055 1.932466 -0.532152 0
M  V30 10 S -3.422794 2.389811 -0.734629 0
M  V30 11 N -0.919528 2.741516 -1.238419 0
M  V30 12 C 0.450731 2.971956 -1.543093 0
M  V30 13 C 1.223400 3.815604 -0.732937 0
M  V30 14 C 2.575337 4.059628 -1.000108 0
M  V30 15 C 3.044743 3.399079 -2.112244 0
M  V30 16 C 2.393059 2.555126 -2.977086 0
M  V30 17 C 1.046833 2.364949 -2.638799 0
M  V30 18 N 0.283015 1.491182 -3.495053 0 CHG=1 VAL=4
M  V30 19 O -0.657788 0.789320 -3.072599 0
M  V30 20 O 0.521563 1.354153 -4.845598 0 CHG=-1 VAL=1
M  V30 21 C 1.052077 -1.433254 1.771107 0
M  V30 22 C 1.317218 -2.519673 2.578099 0
M  V30 23 O 2.609735 -2.967521 2.796192 0
M  V30 24 C 3.704171 -2.299844 2.178800 0
M  V30 25 C 0.268855 -3.181996 3.187239 0
M  V30 26 O 0.563917 -4.274138 3.995689 0
M  V30 27 C 0.624551 -5.600159 3.450107 0
M  V30 28 H -3.544985 -2.871820 2.274399 0
M  V30 29 H -3.559778 -1.965835 3.860056 0
M  V30 30 H -4.088189 -3.741535 3.763497 0
M  V30 31 H -2.242088 -1.271965 1.966552 0
M  V30 32 H -2.376810 0.331144 0.744763 0
M  V30 33 H -1.213118 3.549140 -1.830351 0
M  V30 34 H 0.780421 4.299015 0.125067 0
M  V30 35 H 3.202565 4.696563 -0.407500 0
M  V30 36 H 4.100427 3.579168 -2.333744 0
M  V30 37 H 2.888678 2.104219 -3.814232 0
M  V30 38 H 1.913384 -0.935848 1.306580 0
M  V30 39 H 3.744504 -1.233727 2.413645 0
M  V30 40 H 3.573874 -2.385992 1.068500 0
M  V30 41 H 4.643369 -2.841902 2.395317 0
M  V30 42 H 0.822700 -5.466861 2.354950 0
M  V30 43 H 1.453756 -6.191537 3.847888 0
M  V30 44 H -0.358763 -6.093867 3.498465 0
M  V30 END ATOM
M  V30 BEGIN BOND
M  V30 1 1 1 2
M  V30 2 1 2 3
M  V30 3 2 3 4
M  V30 4 1 4 5
M  V30 5 1 5 6
M  V30 6 2 6 7
M  V30 7 1 6 8
M  V30 8 1 8 9
M  V30 9 2 9 10
M  V30 10 1 9 11
M  V30 11 1 11 12
M  V30 12 2 12 13
M  V30 13 1 13 14
M  V30 14 2 14 15
M  V30 15 1 15 16
M  V30 16 2 16 17
M  V30 17 1 17 18
M  V30 18 2 18 19
M  V30 19 1 18 20
M  V30 20 2 5 21
M  V30 21 1 21 22
M  V30 22 1 22 23
M  V30 23 1 23 24
M  V30 24 2 22 25
M  V30 25 1 25 26
M  V30 26 1 26 27
M  V30 27 1 25 3
M  V30 28 1 17 12
M  V30 29 1 1 28
M  V30 30 1 1 29
M  V30 31 1 1 30
M  V30 32 1 4 31
M  V30 33 1 8 32
M  V30 34 1 11 33
M  V30 35 1 13 34
M  V30 36 1 14 35
M  V30 37 1 15 36
M  V30 38 1 16 37
M  V30 39 1 21 38
M  V30 40 1 24 39
M  V30 41 1 24 40
M  V30 42 1 24 41
M  V30 43 1 27 42
M  V30 44 1 27 43
M  V30 45 1 27 44
M  V30 END BOND
M  V30 END CTAB
M  END
>  <Dataset>  (390) 
ChEMBL_Kinases

>  <Ligand_Instance>  (390) 
nan

>  <PDB_ID>  (390) 
nan

>  <Standardized_SMILES>  (390) 
COc1cc(C(=O)NC(=S)Nc2ccccc2[N+](=O)[O-])cc(OC)c1OC

>  <Name>  (390) 
nan

>  <Pocket>  (390) 
nan

>  <ATP_Site>  (390) 
nan

>  <Peripheral>  (390) 
nan

>  <Num_H_Atoms_ProtBoundConf>  (390) 
nan

>  <Num_Resolved_Atoms>  (390) 
nan

>  <Num_Not_Resolved_Atoms>  (390) 
nan

$$$$
CHEMBL1368219
     RDKit          3D

  0  0  0  0  0  0  0  0  0  0999 V3000
M  V30 BEGIN CTAB
M  V30 COUNTS 36 37 0 0 0
M  V30 BEGIN ATOM
M  V30 1 C 2.708854 -3.915272 3.305562 0
M  V30 2 N 3.195362 -4.328134 2.011420 0
M  V30 3 C 2.274418 -5.222792 1.362625 0
M  V30 4 S 3.667498 -3.007924 1.028659 0
M  V30 5 O 4.757741 -2.253724 1.698267 0
M  V30 6 O 4.103418 -3.588966 -0.301832 0
M  V30 7 C 2.341061 -1.914358 0.681833 0
M  V30 8 C 2.108554 -0.846355 1.555274 0
M  V30 9 C 1.043496 0.008930 1.252565 0
M  V30 10 C 0.233227 -0.179612 0.127590 0
M  V30 11 N -0.804130 0.752318 -0.061721 0
M  V30 12 C -0.873394 1.992222 -0.754649 0
M  V30 13 O 0.125220 2.460651 -1.361264 0
M  V30 14 C -2.168359 2.667180 -0.708791 0
M  V30 15 C -2.285874 3.873540 -1.366235 0
M  V30 16 C -3.479376 4.586050 -1.376213 0
M  V30 17 C -4.576851 4.051414 -0.697947 0
M  V30 18 C -4.431380 2.830522 -0.041515 0
M  V30 19 N -3.254086 2.193984 -0.069978 0
M  V30 20 C 0.493125 -1.244529 -0.711334 0
M  V30 21 C 1.544016 -2.116894 -0.442984 0
M  V30 22 H 2.188543 -2.931706 3.162819 0
M  V30 23 H 3.566855 -3.853986 3.994453 0
M  V30 24 H 1.970489 -4.635975 3.739989 0
M  V30 25 H 1.217547 -4.877255 1.492180 0
M  V30 26 H 2.522373 -5.254899 0.281258 0
M  V30 27 H 2.319643 -6.250210 1.782449 0
M  V30 28 H 2.717653 -0.674306 2.433254 0
M  V30 29 H 0.861690 0.829953 1.920521 0
M  V30 30 H -1.588780 0.303432 0.461582 0
M  V30 31 H -1.455389 4.328399 -1.908554 0
M  V30 32 H -3.609367 5.531324 -1.878619 0
M  V30 33 H -5.559961 4.532646 -0.645103 0
M  V30 34 H -5.231037 2.328816 0.517492 0
M  V30 35 H -0.161546 -1.356883 -1.577644 0
M  V30 36 H 1.732412 -2.944471 -1.110425 0
M  V30 END ATOM
M  V30 BEGIN BOND
M  V30 1 1 1 2
M  V30 2 1 2 3
M  V30 3 1 2 4
M  V30 4 2 4 5
M  V30 5 2 4 6
M  V30 6 1 4 7
M  V30 7 2 7 8
M  V30 8 1 8 9
M  V30 9 2 9 10
M  V30 10 1 10 11
M  V30 11 1 11 12
M  V30 12 2 12 13
M  V30 13 1 12 14
M  V30 14 2 14 15
M  V30 15 1 15 16
M  V30 16 2 16 17
M  V30 17 1 17 18
M  V30 18 2 18 19
M  V30 19 1 10 20
M  V30 20 2 20 21
M  V30 21 1 21 7
M  V30 22 1 19 14
M  V30 23 1 1 22
M  V30 24 1 1 23
M  V30 25 1 1 24
M  V30 26 1 3 25
M  V30 27 1 3 26
M  V30 28 1 3 27
M  V30 29 1 8 28
M  V30 30 1 9 29
M  V30 31 1 11 30
M  V30 32 1 15 31
M  V30 33 1 16 32
M  V30 34 1 17 33
M  V30 35 1 18 34
M  V30 36 1 20 35
M  V30 37 1 21 36
M  V30 END BOND
M  V30 END CTAB
M  END
>  <Dataset>  (391) 
ChEMBL_Kinases

>  <Ligand_Instance>  (391) 
nan

>  <PDB_ID>  (391) 
nan

>  <Standardized_SMILES>  (391) 
CN(C)S(=O)(=O)c1ccc(NC(=O)c2ccccn2)cc1

>  <Name>  (391) 
nan

>  <Pocket>  (391) 
nan

>  <ATP_Site>  (391) 
nan

>  <Peripheral>  (391) 
nan

>  <Num_H_Atoms_ProtBoundConf>  (391) 
nan

>  <Num_Resolved_Atoms>  (391) 
nan

>  <Num_Not_Resolved_Atoms>  (391) 
nan

$$$$
CHEMBL1336060
     RDKit          3D

  0  0  0  0  0  0  0  0  0  0999 V3000
M  V30 BEGIN CTAB
M  V30 COUNTS 55 58 0 0 0
M  V30 BEGIN ATOM
M  V30 1 C 5.558153 -1.909044 5.170372 0
M  V30 2 S 6.788834 -1.121405 4.196205 0
M  V30 3 O 7.734832 -0.422597 5.162551 0
M  V30 4 O 7.513822 -2.136930 3.382333 0
M  V30 5 N 6.136239 0.125415 3.175897 0
M  V30 6 C 5.162774 -0.191146 2.166646 0
M  V30 7 C 5.360839 -1.313331 1.355948 0
M  V30 8 C 4.414936 -1.601646 0.395949 0
M  V30 9 C 3.307540 -0.769817 0.272308 0
M  V30 10 C 3.126794 0.336743 1.082648 0
M  V30 11 C 1.914853 1.108133 0.827531 0
M  V30 12 C 1.926809 2.476087 1.052434 0
M  V30 13 C 0.777358 3.222815 0.811283 0
M  V30 14 C -0.364995 2.612014 0.353149 0
M  V30 15 N -1.500730 3.282035 0.102346 0
M  V30 16 C -2.623209 2.694365 -0.347002 0
M  V30 17 N -2.558628 1.386331 -0.537528 0
M  V30 18 C -1.498517 0.592608 -0.330690 0
M  V30 19 N -1.578823 -0.824015 -0.584427 0
M  V30 20 C -2.804384 -1.414526 -1.063772 0
M  V30 21 C -3.956972 -1.245672 -0.120059 0
M  V30 22 N -5.178095 -1.834067 -0.573510 0
M  V30 23 C -5.170575 -3.262153 -0.612486 0
M  V30 24 C -5.230415 -3.882816 -1.965545 0
M  V30 25 O -6.274098 -3.244345 -2.671281 0
M  V30 26 C -5.760243 -1.951905 -2.935598 0
M  V30 27 C -5.848129 -1.190194 -1.640055 0
M  V30 28 C -0.381284 1.256201 0.129110 0
M  V30 29 C 0.759921 0.521004 0.369430 0
M  V30 30 C 4.075999 0.619922 2.040796 0
M  V30 31 H 5.813979 -2.989874 5.250420 0
M  V30 32 H 4.545195 -1.852601 4.726424 0
M  V30 33 H 5.490988 -1.507857 6.202954 0
M  V30 34 H 6.419002 1.140397 3.251743 0
M  V30 35 H 6.215395 -1.954851 1.451385 0
M  V30 36 H 4.578739 -2.471538 -0.224607 0
M  V30 37 H 2.631220 -1.102881 -0.523604 0
M  V30 38 H 2.823529 2.983784 1.416932 0
M  V30 39 H 0.726924 4.285847 0.966978 0
M  V30 40 H -3.552490 3.226613 -0.554038 0
M  V30 41 H -0.784894 -1.452111 -0.435368 0
M  V30 42 H -3.093666 -0.837544 -1.994889 0
M  V30 43 H -2.615617 -2.439422 -1.362912 0
M  V30 44 H -4.177253 -0.187929 0.114154 0
M  V30 45 H -3.682119 -1.726629 0.842339 0
M  V30 46 H -6.112922 -3.590383 -0.083581 0
M  V30 47 H -4.329208 -3.669452 -0.045312 0
M  V30 48 H -4.274858 -3.784647 -2.481148 0
M  V30 49 H -5.558202 -4.954212 -1.831462 0
M  V30 50 H -6.414151 -1.526766 -3.714981 0
M  V30 51 H -4.734056 -2.101372 -3.291843 0
M  V30 52 H -5.562930 -0.134756 -1.716921 0
M  V30 53 H -6.946230 -1.179697 -1.386748 0
M  V30 54 H 0.822284 -0.526610 0.220081 0
M  V30 55 H 3.885817 1.495494 2.646268 0
M  V30 END ATOM
M  V30 BEGIN BOND
M  V30 1 1 1 2
M  V30 2 2 2 3
M  V30 3 2 2 4
M  V30 4 1 2 5
M  V30 5 1 5 6
M  V30 6 2 6 7
M  V30 7 1 7 8
M  V30 8 2 8 9
M  V30 9 1 9 10
M  V30 10 1 10 11
M  V30 11 2 11 12
M  V30 12 1 12 13
M  V30 13 2 13 14
M  V30 14 1 14 15
M  V30 15 2 15 16
M  V30 16 1 16 17
M  V30 17 2 17 18
M  V30 18 1 18 19
M  V30 19 1 19 20
M  V30 20 1 20 21
M  V30 21 1 21 22
M  V30 22 1 22 23
M  V30 23 1 23 24
M  V30 24 1 24 25
M  V30 25 1 25 26
M  V30 26 1 26 27
M  V30 27 1 18 28
M  V30 28 2 28 29
M  V30 29 2 10 30
M  V30 30 1 30 6
M  V30 31 1 29 11
M  V30 32 1 28 14
M  V30 33 1 27 22
M  V30 34 1 1 31
M  V30 35 1 1 32
M  V30 36 1 1 33
M  V30 37 1 5 34
M  V30 38 1 7 35
M  V30 39 1 8 36
M  V30 40 1 9 37
M  V30 41 1 12 38
M  V30 42 1 13 39
M  V30 43 1 16 40
M  V30 44 1 19 41
M  V30 45 1 20 42
M  V30 46 1 20 43
M  V30 47 1 21 44
M  V30 48 1 21 45
M  V30 49 1 23 46
M  V30 50 1 23 47
M  V30 51 1 24 48
M  V30 52 1 24 49
M  V30 53 1 26 50
M  V30 54 1 26 51
M  V30 55 1 27 52
M  V30 56 1 27 53
M  V30 57 1 29 54
M  V30 58 1 30 55
M  V30 END BOND
M  V30 END CTAB
M  END
>  <Dataset>  (392) 
ChEMBL_Kinases

>  <Ligand_Instance>  (392) 
nan

>  <PDB_ID>  (392) 
nan

>  <Standardized_SMILES>  (392) 
CS(=O)(=O)Nc1cccc(-c2ccc3ncnc(NCCN4CCOCC4)c3c2)c1

>  <Name>  (392) 
nan

>  <Pocket>  (392) 
nan

>  <ATP_Site>  (392) 
nan

>  <Peripheral>  (392) 
nan

>  <Num_H_Atoms_ProtBoundConf>  (392) 
nan

>  <Num_Resolved_Atoms>  (392) 
nan

>  <Num_Not_Resolved_Atoms>  (392) 
nan

$$$$
CHEMBL1336048
     RDKit          3D

  0  0  0  0  0  0  0  0  0  0999 V3000
M  V30 BEGIN CTAB
M  V30 COUNTS 43 45 0 0 0
M  V30 BEGIN ATOM
M  V30 1 C 2.936190 -4.173756 -1.245121 0
M  V30 2 O 1.930996 -3.369312 -0.656217 0
M  V30 3 C 2.246739 -2.417694 0.303515 0
M  V30 4 O 3.460293 -2.278483 0.647912 0
M  V30 5 C 1.342176 -1.515431 1.002985 0
M  V30 6 C 1.156747 -0.295840 0.350325 0
M  V30 7 N 1.695400 0.257825 -0.905819 0
M  V30 8 C 2.903636 1.003192 -0.925027 0
M  V30 9 O 3.465153 1.149959 0.192042 0
M  V30 10 C 3.371623 1.520369 -2.221897 0
M  V30 11 C 2.779325 1.380108 -3.478264 0
M  V30 12 C 3.601973 2.041931 -4.364653 0
M  V30 13 C 4.647114 2.551238 -3.623084 0
M  V30 14 O 4.474874 2.225912 -2.385222 0
M  V30 15 S -0.008548 0.653492 1.416421 0
M  V30 16 C -0.149796 -0.619116 2.613501 0
M  V30 17 C -0.942230 -0.636394 3.848551 0
M  V30 18 O -0.397715 -0.751047 4.973052 0
M  V30 19 N -2.353161 -0.508786 3.577641 0
M  V30 20 C -3.141416 -0.368362 2.343658 0
M  V30 21 C -3.983260 0.856875 2.631167 0
M  V30 22 C -4.168634 0.796523 4.134133 0
M  V30 23 C -3.452016 -0.484044 4.549807 0
M  V30 24 C 0.632006 -1.601344 2.164000 0
M  V30 25 C 0.814767 -2.913679 2.891893 0
M  V30 26 H 2.771543 -4.111981 -2.346797 0
M  V30 27 H 3.908463 -3.683844 -1.035000 0
M  V30 28 H 2.901242 -5.216299 -0.875196 0
M  V30 29 H 1.106868 0.041571 -1.723800 0
M  V30 30 H 1.843259 0.837464 -3.655391 0
M  V30 31 H 3.411399 2.115961 -5.440198 0
M  V30 32 H 5.457816 3.130374 -4.084754 0
M  V30 33 H -2.446731 -0.151489 1.506594 0
M  V30 34 H -3.758204 -1.263480 2.176599 0
M  V30 35 H -4.915942 0.776789 2.059163 0
M  V30 36 H -3.469504 1.792457 2.367561 0
M  V30 37 H -3.678393 1.656978 4.630705 0
M  V30 38 H -5.255140 0.771045 4.363940 0
M  V30 39 H -3.110835 -0.471709 5.588039 0
M  V30 40 H -4.175296 -1.318336 4.322215 0
M  V30 41 H 0.443129 -3.752202 2.236612 0
M  V30 42 H 1.871303 -3.082311 3.171582 0
M  V30 43 H 0.207752 -2.954504 3.791613 0
M  V30 END ATOM
M  V30 BEGIN BOND
M  V30 1 1 1 2
M  V30 2 1 2 3
M  V30 3 2 3 4
M  V30 4 1 3 5
M  V30 5 2 5 6
M  V30 6 1 6 7
M  V30 7 1 7 8
M  V30 8 2 8 9
M  V30 9 1 8 10
M  V30 10 2 10 11
M  V30 11 1 11 12
M  V30 12 2 12 13
M  V30 13 1 13 14
M  V30 14 1 6 15
M  V30 15 1 15 16
M  V30 16 1 16 17
M  V30 17 2 17 18
M  V30 18 1 17 19
M  V30 19 1 19 20
M  V30 20 1 20 21
M  V30 21 1 21 22
M  V30 22 1 22 23
M  V30 23 2 16 24
M  V30 24 1 24 25
M  V30 25 1 24 5
M  V30 26 1 14 10
M  V30 27 1 23 19
M  V30 28 1 1 26
M  V30 29 1 1 27
M  V30 30 1 1 28
M  V30 31 1 7 29
M  V30 32 1 11 30
M  V30 33 1 12 31
M  V30 34 1 13 32
M  V30 35 1 20 33
M  V30 36 1 20 34
M  V30 37 1 21 35
M  V30 38 1 21 36
M  V30 39 1 22 37
M  V30 40 1 22 38
M  V30 41 1 23 39
M  V30 42 1 23 40
M  V30 43 1 25 41
M  V30 44 1 25 42
M  V30 45 1 25 43
M  V30 END BOND
M  V30 END CTAB
M  END
>  <Dataset>  (393) 
ChEMBL_Kinases

>  <Ligand_Instance>  (393) 
nan

>  <PDB_ID>  (393) 
nan

>  <Standardized_SMILES>  (393) 
COC(=O)c1c(NC(=O)c2ccco2)sc(C(=O)N2CCCC2)c1C

>  <Name>  (393) 
nan

>  <Pocket>  (393) 
nan

>  <ATP_Site>  (393) 
nan

>  <Peripheral>  (393) 
nan

>  <Num_H_Atoms_ProtBoundConf>  (393) 
nan

>  <Num_Resolved_Atoms>  (393) 
nan

>  <Num_Not_Resolved_Atoms>  (393) 
nan

$$$$
CHEMBL1335961
     RDKit          3D

  0  0  0  0  0  0  0  0  0  0999 V3000
M  V30 BEGIN CTAB
M  V30 COUNTS 61 65 0 0 0
M  V30 BEGIN ATOM
M  V30 1 C 3.469452 -2.924983 3.981861 0
M  V30 2 O 2.397658 -3.752400 3.577918 0
M  V30 3 C 1.434683 -3.213110 2.735598 0
M  V30 4 C 1.544056 -1.904848 2.317546 0
M  V30 5 C 0.589135 -1.345713 1.472697 0
M  V30 6 C 0.779512 0.005835 1.136334 0
M  V30 7 C 1.908467 0.791213 1.593204 0
M  V30 8 O 2.378720 0.875438 2.784449 0
M  V30 9 C 2.758091 1.649279 0.731568 0
M  V30 10 C 2.767265 1.402161 -0.647643 0
M  V30 11 C 3.487788 2.081999 -1.614159 0
M  V30 12 C 4.276892 3.116268 -1.123712 0
M  V30 13 C 4.303926 3.402760 0.234384 0
M  V30 14 C 3.561615 2.684416 1.132800 0
M  V30 15 C -0.215046 0.483793 0.342644 0
M  V30 16 C -1.316271 -0.248756 -0.122216 0
M  V30 17 C -2.301630 0.367964 -0.906371 0
M  V30 18 C -3.365469 -0.429755 -1.269787 0
M  V30 19 C -3.508371 -1.777406 -0.912894 0
M  V30 20 O -4.635428 -2.458971 -1.352015 0
M  V30 21 C -5.570647 -1.746427 -2.132275 0
M  V30 22 C -2.489258 -2.336209 -0.131498 0
M  V30 23 O -2.794199 -3.660599 0.108777 0
M  V30 24 C -2.456673 -4.657066 -0.904197 0
M  V30 25 C -1.433272 -1.566933 0.243256 0
M  V30 26 C -0.475988 -2.096792 1.043608 0
M  V30 27 C -0.537060 -3.384105 1.488543 0
M  V30 28 C 0.364514 -4.009289 2.323039 0
M  V30 29 O 0.349985 -5.310616 2.802433 0
M  V30 30 C -0.688309 -6.207889 2.449810 0
M  V30 31 C -2.267851 1.777647 -1.394437 0
M  V30 32 C -0.803021 2.224362 -1.357868 0
M  V30 33 N -0.247750 1.832522 -0.051247 0
M  V30 34 C 0.205773 2.849290 0.892035 0
M  V30 35 H 3.088063 -2.070392 4.606680 0
M  V30 36 H 4.045817 -2.511202 3.129385 0
M  V30 37 H 4.151886 -3.480706 4.641744 0
M  V30 38 H 2.385679 -1.356198 2.666093 0
M  V30 39 H 2.131671 0.578312 -0.995261 0
M  V30 40 H 3.398660 1.783744 -2.636926 0
M  V30 41 H 4.852716 3.666266 -1.858080 0
M  V30 42 H 4.929708 4.216965 0.587080 0
M  V30 43 H 3.548289 2.869515 2.203715 0
M  V30 44 H -4.133135 0.046875 -1.875611 0
M  V30 45 H -6.003790 -0.881981 -1.560839 0
M  V30 46 H -6.452180 -2.373734 -2.393858 0
M  V30 47 H -5.119590 -1.297633 -3.050521 0
M  V30 48 H -2.895316 -4.299165 -1.856418 0
M  V30 49 H -2.891107 -5.601606 -0.534513 0
M  V30 50 H -1.351230 -4.684289 -1.029230 0
M  V30 51 H -1.289724 -4.104033 1.310095 0
M  V30 52 H -0.413251 -7.221492 2.757567 0
M  V30 53 H -1.653143 -5.933660 2.968676 0
M  V30 54 H -0.900041 -6.222850 1.373842 0
M  V30 55 H -2.832725 2.480244 -0.783403 0
M  V30 56 H -2.560999 1.748753 -2.462261 0
M  V30 57 H -0.274439 1.619653 -2.111260 0
M  V30 58 H -0.677368 3.280983 -1.568606 0
M  V30 59 H 0.838779 3.625199 0.481204 0
M  V30 60 H -0.781971 3.438939 1.038685 0
M  V30 61 H 0.359637 2.509798 1.915269 0
M  V30 END ATOM
M  V30 BEGIN BOND
M  V30 1 1 1 2
M  V30 2 1 2 3
M  V30 3 2 3 4
M  V30 4 1 4 5
M  V30 5 2 5 6
M  V30 6 1 6 7
M  V30 7 2 7 8
M  V30 8 1 7 9
M  V30 9 2 9 10
M  V30 10 1 10 11
M  V30 11 2 11 12
M  V30 12 1 12 13
M  V30 13 2 13 14
M  V30 14 1 6 15
M  V30 15 2 15 16
M  V30 16 1 16 17
M  V30 17 2 17 18
M  V30 18 1 18 19
M  V30 19 1 19 20
M  V30 20 1 20 21
M  V30 21 2 19 22
M  V30 22 1 22 23
M  V30 23 1 23 24
M  V30 24 1 22 25
M  V30 25 2 25 26
M  V30 26 1 26 27
M  V30 27 2 27 28
M  V30 28 1 28 29
M  V30 29 1 29 30
M  V30 30 1 17 31
M  V30 31 1 31 32
M  V30 32 1 32 33
M  V30 33 1 33 34
M  V30 34 1 28 3
M  V30 35 1 26 5
M  V30 36 1 14 9
M  V30 37 1 33 15
M  V30 38 1 25 16
M  V30 39 1 1 35
M  V30 40 1 1 36
M  V30 41 1 1 37
M  V30 42 1 4 38
M  V30 43 1 10 39
M  V30 44 1 11 40
M  V30 45 1 12 41
M  V30 46 1 13 42
M  V30 47 1 14 43
M  V30 48 1 18 44
M  V30 49 1 21 45
M  V30 50 1 21 46
M  V30 51 1 21 47
M  V30 52 1 24 48
M  V30 53 1 24 49
M  V30 54 1 24 50
M  V30 55 1 27 51
M  V30 56 1 30 52
M  V30 57 1 30 53
M  V30 58 1 30 54
M  V30 59 1 31 55
M  V30 60 1 31 56
M  V30 61 1 32 57
M  V30 62 1 32 58
M  V30 63 1 34 59
M  V30 64 1 34 60
M  V30 65 1 34 61
M  V30 END BOND
M  V30 END CTAB
M  END
>  <Dataset>  (394) 
ChEMBL_Kinases

>  <Ligand_Instance>  (394) 
nan

>  <PDB_ID>  (394) 
nan

>  <Standardized_SMILES>  (394) 
COc1cc2c(C(=O)c3ccccc3)c3c4c(cc(OC)c(OC)c4c2cc1OC)CCN3C

>  <Name>  (394) 
nan

>  <Pocket>  (394) 
nan

>  <ATP_Site>  (394) 
nan

>  <Peripheral>  (394) 
nan

>  <Num_H_Atoms_ProtBoundConf>  (394) 
nan

>  <Num_Resolved_Atoms>  (394) 
nan

>  <Num_Not_Resolved_Atoms>  (394) 
nan

$$$$
CHEMBL1335838
     RDKit          3D

  0  0  0  0  0  0  0  0  0  0999 V3000
M  V30 BEGIN CTAB
M  V30 COUNTS 55 58 0 0 0
M  V30 BEGIN ATOM
M  V30 1 C -0.203738 -3.489673 0.440300 0
M  V30 2 C 1.238303 -3.086396 0.225647 0
M  V30 3 C 2.018809 -3.554251 1.441405 0
M  V30 4 C 3.476749 -3.196682 1.314917 0
M  V30 5 N 4.010490 -3.303851 0.002055 0
M  V30 6 S 4.801190 -1.935374 -0.607166 0
M  V30 7 O 5.205094 -2.261104 -2.040290 0
M  V30 8 O 6.076707 -1.607523 0.088450 0
M  V30 9 C 3.706315 -0.565219 -0.714434 0
M  V30 10 C 3.602247 0.263395 0.365638 0
M  V30 11 C 2.752862 1.372136 0.354246 0
M  V30 12 C 2.027135 1.590710 -0.793089 0
M  V30 13 N 1.100579 2.662301 -1.019866 0
M  V30 14 C -0.195604 2.254025 -0.608953 0
M  V30 15 O -0.596096 1.162951 -0.113616 0
M  V30 16 C -1.416582 3.098528 -0.691137 0
M  V30 17 N -2.529285 2.330109 -0.179264 0
M  V30 18 N -3.270427 1.563579 -0.968583 0
M  V30 19 N -4.210369 0.973673 -0.272488 0
M  V30 20 C -4.074956 1.369374 1.006809 0
M  V30 21 C -4.909585 0.958757 2.127934 0
M  V30 22 C -4.724831 1.401317 3.440368 0
M  V30 23 C -5.571707 0.956313 4.452381 0
M  V30 24 C -6.592133 0.086977 4.193436 0
M  V30 25 C -6.815506 -0.377948 2.917961 0
M  V30 26 C -5.960057 0.075505 1.913167 0
M  V30 27 F -6.158472 -0.369806 0.636140 0
M  V30 28 N -3.038101 2.200194 1.038531 0
M  V30 29 C 2.124276 0.758185 -1.893478 0
M  V30 30 C 2.970020 -0.344762 -1.880529 0
M  V30 31 C 3.240380 -4.062675 -0.920051 0
M  V30 32 C 1.790382 -3.703291 -1.015730 0
M  V30 33 H -0.439385 -4.448291 -0.081720 0
M  V30 34 H -0.867203 -2.722129 -0.008644 0
M  V30 35 H -0.403674 -3.556807 1.530608 0
M  V30 36 H 1.261607 -1.993192 0.123000 0
M  V30 37 H 1.578416 -3.059503 2.330324 0
M  V30 38 H 1.862867 -4.648838 1.531332 0
M  V30 39 H 4.045900 -3.897899 1.960348 0
M  V30 40 H 3.699833 -2.188425 1.719996 0
M  V30 41 H 4.148476 0.138621 1.291365 0
M  V30 42 H 2.598729 2.085841 1.152281 0
M  V30 43 H 1.144962 3.638739 -1.401419 0
M  V30 44 H -1.304768 3.979405 -0.020429 0
M  V30 45 H -1.612310 3.444281 -1.721154 0
M  V30 46 H -3.905691 2.095479 3.632134 0
M  V30 47 H -5.440687 1.287829 5.461410 0
M  V30 48 H -7.285962 -0.297023 4.936597 0
M  V30 49 H -7.595399 -1.064707 2.621019 0
M  V30 50 H 1.581078 0.872402 -2.829346 0
M  V30 51 H 3.111048 -1.049392 -2.691280 0
M  V30 52 H 3.737834 -4.055804 -1.902930 0
M  V30 53 H 3.294390 -5.137257 -0.582273 0
M  V30 54 H 1.683952 -2.984077 -1.872165 0
M  V30 55 H 1.176984 -4.599664 -1.312517 0
M  V30 END ATOM
M  V30 BEGIN BOND
M  V30 1 1 1 2
M  V30 2 1 2 3
M  V30 3 1 3 4
M  V30 4 1 4 5
M  V30 5 1 5 6
M  V30 6 2 6 7
M  V30 7 2 6 8
M  V30 8 1 6 9
M  V30 9 2 9 10
M  V30 10 1 10 11
M  V30 11 2 11 12
M  V30 12 1 12 13
M  V30 13 1 13 14
M  V30 14 2 14 15
M  V30 15 1 14 16
M  V30 16 1 16 17
M  V30 17 1 17 18
M  V30 18 2 18 19
M  V30 19 1 19 20
M  V30 20 1 20 21
M  V30 21 2 21 22
M  V30 22 1 22 23
M  V30 23 2 23 24
M  V30 24 1 24 25
M  V30 25 2 25 26
M  V30 26 1 26 27
M  V30 27 2 20 28
M  V30 28 1 12 29
M  V30 29 2 29 30
M  V30 30 1 5 31
M  V30 31 1 31 32
M  V30 32 1 32 2
M  V30 33 1 30 9
M  V30 34 1 28 17
M  V30 35 1 26 21
M  V30 36 1 1 33
M  V30 37 1 1 34
M  V30 38 1 1 35
M  V30 39 1 2 36
M  V30 40 1 3 37
M  V30 41 1 3 38
M  V30 42 1 4 39
M  V30 43 1 4 40
M  V30 44 1 10 41
M  V30 45 1 11 42
M  V30 46 1 13 43
M  V30 47 1 16 44
M  V30 48 1 16 45
M  V30 49 1 22 46
M  V30 50 1 23 47
M  V30 51 1 24 48
M  V30 52 1 25 49
M  V30 53 1 29 50
M  V30 54 1 30 51
M  V30 55 1 31 52
M  V30 56 1 31 53
M  V30 57 1 32 54
M  V30 58 1 32 55
M  V30 END BOND
M  V30 END CTAB
M  END
>  <Dataset>  (395) 
ChEMBL_Kinases

>  <Ligand_Instance>  (395) 
nan

>  <PDB_ID>  (395) 
nan

>  <Standardized_SMILES>  (395) 
CC1CCN(S(=O)(=O)c2ccc(NC(=O)Cn3nnc(-c4ccccc4F)n3)cc2)CC1

>  <Name>  (395) 
nan

>  <Pocket>  (395) 
nan

>  <ATP_Site>  (395) 
nan

>  <Peripheral>  (395) 
nan

>  <Num_H_Atoms_ProtBoundConf>  (395) 
nan

>  <Num_Resolved_Atoms>  (395) 
nan

>  <Num_Not_Resolved_Atoms>  (395) 
nan

$$$$
CHEMBL1335589
     RDKit          3D

  0  0  0  0  0  0  0  0  0  0999 V3000
M  V30 BEGIN CTAB
M  V30 COUNTS 63 65 0 0 0
M  V30 BEGIN ATOM
M  V30 1 C -0.689513 -3.402552 6.286033 0
M  V30 2 O 0.295955 -3.469947 5.263384 0
M  V30 3 C 0.153357 -2.782417 4.080742 0
M  V30 4 C 1.162373 -2.894360 3.114891 0
M  V30 5 C 1.024804 -2.205852 1.924449 0
M  V30 6 O 2.052575 -2.350023 1.000470 0
M  V30 7 C -0.043816 -1.397851 1.592541 0
M  V30 8 C -0.203154 -0.675776 0.339047 0
M  V30 9 C 0.936599 0.241543 -0.031124 0
M  V30 10 C 1.186872 1.324822 0.996193 0
M  V30 11 N 2.283047 2.189832 0.610550 0
M  V30 12 C 2.476982 3.202716 1.627744 0
M  V30 13 C 2.042891 4.568028 1.174039 0
M  V30 14 C 0.713682 4.560366 0.455865 0
M  V30 15 C 0.785053 3.616565 -0.719008 0
M  V30 16 C 2.044391 2.811896 -0.676942 0
M  V30 17 C -0.551468 -1.576999 -0.818669 0
M  V30 18 C -1.896283 -1.925741 -1.005360 0
M  V30 19 C -2.363887 -2.735431 -2.019845 0
M  V30 20 C -1.421846 -3.233748 -2.913833 0
M  V30 21 N -1.886726 -4.061214 -3.955455 0
M  V30 22 C -3.322130 -4.346360 -4.034726 0
M  V30 23 C -0.988711 -4.634942 -4.946773 0
M  V30 24 C -0.096695 -2.912456 -2.760467 0
M  V30 25 C 0.336096 -2.100086 -1.734260 0
M  V30 26 C -1.032992 -1.312201 2.586050 0
M  V30 27 O -2.121048 -0.523958 2.315173 0
M  V30 28 C -3.227012 -0.276925 3.127272 0
M  V30 29 C -0.944143 -1.978157 3.790151 0
M  V30 30 H -0.625047 -2.453151 6.843513 0
M  V30 31 H -1.721850 -3.460699 5.854649 0
M  V30 32 H -0.582125 -4.232791 7.005525 0
M  V30 33 H 2.024987 -3.513234 3.317994 0
M  V30 34 H 3.001459 -2.021256 1.146737 0
M  V30 35 H -1.079893 -0.001333 0.436269 0
M  V30 36 H 0.621198 0.736613 -0.995947 0
M  V30 37 H 1.889907 -0.238478 -0.215589 0
M  V30 38 H 1.429116 0.924390 1.986107 0
M  V30 39 H 0.230430 1.882241 1.119388 0
M  V30 40 H 3.531453 3.262557 1.952990 0
M  V30 41 H 1.864271 2.954204 2.527807 0
M  V30 42 H 2.781889 5.063282 0.501206 0
M  V30 43 H 1.911712 5.192164 2.089742 0
M  V30 44 H 0.542903 5.584326 0.064806 0
M  V30 45 H -0.122535 4.332971 1.131560 0
M  V30 46 H 0.800130 4.183615 -1.682636 0
M  V30 47 H -0.131306 3.010973 -0.694024 0
M  V30 48 H 2.898993 3.531355 -0.839508 0
M  V30 49 H 2.107285 2.053732 -1.454175 0
M  V30 50 H -2.619879 -1.536138 -0.308818 0
M  V30 51 H -3.428004 -2.945279 -2.076030 0
M  V30 52 H -3.552960 -5.080140 -4.826974 0
M  V30 53 H -3.719520 -4.711918 -3.065635 0
M  V30 54 H -3.782746 -3.373864 -4.354881 0
M  V30 55 H -0.857103 -3.836954 -5.731852 0
M  V30 56 H -1.488954 -5.504549 -5.457238 0
M  V30 57 H -0.007950 -4.904443 -4.529177 0
M  V30 58 H 0.656317 -3.289838 -3.445885 0
M  V30 59 H 1.356171 -1.841970 -1.603503 0
M  V30 60 H -4.136622 0.004176 2.532110 0
M  V30 61 H -2.998666 0.602445 3.763971 0
M  V30 62 H -3.442401 -1.121208 3.813813 0
M  V30 63 H -1.711383 -1.903141 4.545843 0
M  V30 END ATOM
M  V30 BEGIN BOND
M  V30 1 1 1 2
M  V30 2 1 2 3
M  V30 3 2 3 4
M  V30 4 1 4 5
M  V30 5 1 5 6
M  V30 6 2 5 7
M  V30 7 1 7 8
M  V30 8 1 8 9
M  V30 9 1 9 10
M  V30 10 1 10 11
M  V30 11 1 11 12
M  V30 12 1 12 13
M  V30 13 1 13 14
M  V30 14 1 14 15
M  V30 15 1 15 16
M  V30 16 1 8 17
M  V30 17 2 17 18
M  V30 18 1 18 19
M  V30 19 2 19 20
M  V30 20 1 20 21
M  V30 21 1 21 22
M  V30 22 1 21 23
M  V30 23 1 20 24
M  V30 24 2 24 25
M  V30 25 1 7 26
M  V30 26 1 26 27
M  V30 27 1 27 28
M  V30 28 2 26 29
M  V30 29 1 29 3
M  V30 30 1 16 11
M  V30 31 1 25 17
M  V30 32 1 1 30
M  V30 33 1 1 31
M  V30 34 1 1 32
M  V30 35 1 4 33
M  V30 36 1 6 34
M  V30 37 1 8 35
M  V30 38 1 9 36
M  V30 39 1 9 37
M  V30 40 1 10 38
M  V30 41 1 10 39
M  V30 42 1 12 40
M  V30 43 1 12 41
M  V30 44 1 13 42
M  V30 45 1 13 43
M  V30 46 1 14 44
M  V30 47 1 14 45
M  V30 48 1 15 46
M  V30 49 1 15 47
M  V30 50 1 16 48
M  V30 51 1 16 49
M  V30 52 1 18 50
M  V30 53 1 19 51
M  V30 54 1 22 52
M  V30 55 1 22 53
M  V30 56 1 22 54
M  V30 57 1 23 55
M  V30 58 1 23 56
M  V30 59 1 23 57
M  V30 60 1 24 58
M  V30 61 1 25 59
M  V30 62 1 28 60
M  V30 63 1 28 61
M  V30 64 1 28 62
M  V30 65 1 29 63
M  V30 END BOND
M  V30 END CTAB
M  END
>  <Dataset>  (396) 
ChEMBL_Kinases

>  <Ligand_Instance>  (396) 
nan

>  <PDB_ID>  (396) 
nan

>  <Standardized_SMILES>  (396) 
COc1cc(O)c(C(CCN2CCCCC2)c2ccc(N(C)C)cc2)c(OC)c1

>  <Name>  (396) 
nan

>  <Pocket>  (396) 
nan

>  <ATP_Site>  (396) 
nan

>  <Peripheral>  (396) 
nan

>  <Num_H_Atoms_ProtBoundConf>  (396) 
nan

>  <Num_Resolved_Atoms>  (396) 
nan

>  <Num_Not_Resolved_Atoms>  (396) 
nan

$$$$
CHEMBL1335426
     RDKit          3D

  0  0  0  0  0  0  0  0  0  0999 V3000
M  V30 BEGIN CTAB
M  V30 COUNTS 65 67 0 0 0
M  V30 BEGIN ATOM
M  V30 1 C 1.180113 -3.593498 3.345576 0
M  V30 2 C 1.966672 -2.461528 2.788924 0
M  V30 3 C 2.376289 -2.451466 1.482819 0
M  V30 4 C 3.108766 -1.410618 0.943758 0
M  V30 5 C 3.456895 -0.333699 1.712462 0
M  V30 6 S 4.380151 1.068462 1.197092 0
M  V30 7 O 5.343257 0.647146 0.122229 0
M  V30 8 O 5.176460 1.521154 2.380520 0
M  V30 9 N 3.349115 2.323271 0.608908 0
M  V30 10 C 2.592181 1.913317 -0.539452 0
M  V30 11 C 1.692092 3.054440 -1.026728 0
M  V30 12 C 0.901270 2.654673 -2.219101 0
M  V30 13 C -0.162086 1.684162 -1.836817 0
M  V30 14 C -1.063919 2.259545 -0.779774 0
M  V30 15 C -2.151815 1.341518 -0.383320 0
M  V30 16 O -2.181136 0.949273 0.805562 0
M  V30 17 N -3.151010 0.888460 -1.268298 0
M  V30 18 C -4.272279 0.021679 -1.193974 0
M  V30 19 C -4.066110 -1.430539 -0.972874 0
M  V30 20 C -3.320666 -1.800367 0.263839 0
M  V30 21 N -3.247017 -3.263821 0.420086 0
M  V30 22 C -2.414770 -3.875238 -0.570172 0
M  V30 23 C -1.140463 -4.454658 0.021291 0
M  V30 24 O -1.373689 -5.377602 1.011676 0
M  V30 25 C -2.459368 -5.063587 1.823537 0
M  V30 26 C -2.795986 -3.601077 1.760879 0
M  V30 27 C -0.340376 2.768201 0.413727 0
M  V30 28 C 0.863872 3.600927 0.079496 0
M  V30 29 C 3.023253 -0.375638 3.040064 0
M  V30 30 C 2.295973 -1.395031 3.598393 0
M  V30 31 H 1.872465 -4.450502 3.555673 0
M  V30 32 H 0.368093 -3.887758 2.663409 0
M  V30 33 H 0.775619 -3.307860 4.336787 0
M  V30 34 H 2.132030 -3.276902 0.824721 0
M  V30 35 H 3.455247 -1.361249 -0.090175 0
M  V30 36 H 3.991473 3.107026 0.328320 0
M  V30 37 H 3.220716 1.602389 -1.398118 0
M  V30 38 H 1.988137 1.040599 -0.224505 0
M  V30 39 H 2.425526 3.835844 -1.383120 0
M  V30 40 H 1.541952 2.257816 -3.021993 0
M  V30 41 H 0.415213 3.564569 -2.626216 0
M  V30 42 H -0.728945 1.392662 -2.743030 0
M  V30 43 H 0.316005 0.733841 -1.467320 0
M  V30 44 H -1.530379 3.170494 -1.265093 0
M  V30 45 H -2.989100 1.331453 -2.230453 0
M  V30 46 H -5.008282 0.383138 -0.396719 0
M  V30 47 H -4.898350 0.131196 -2.130758 0
M  V30 48 H -3.555210 -1.904444 -1.856079 0
M  V30 49 H -5.064106 -1.951116 -0.908405 0
M  V30 50 H -2.239692 -1.504188 0.148809 0
M  V30 51 H -3.769178 -1.391247 1.175692 0
M  V30 52 H -2.095870 -3.147789 -1.321836 0
M  V30 53 H -2.983350 -4.689621 -1.106882 0
M  V30 54 H -0.607056 -4.939704 -0.829998 0
M  V30 55 H -0.588815 -3.586512 0.440460 0
M  V30 56 H -3.366720 -5.632210 1.574662 0
M  V30 57 H -2.139449 -5.284767 2.881919 0
M  V30 58 H -3.558246 -3.356145 2.506489 0
M  V30 59 H -1.897918 -2.976900 1.972755 0
M  V30 60 H -1.021818 3.303642 1.101327 0
M  V30 61 H 0.045637 1.886596 0.966735 0
M  V30 62 H 0.489591 4.616665 -0.209879 0
M  V30 63 H 1.488082 3.767775 0.971492 0
M  V30 64 H 3.270876 0.459956 3.702148 0
M  V30 65 H 1.999092 -1.352412 4.633644 0
M  V30 END ATOM
M  V30 BEGIN BOND
M  V30 1 1 1 2
M  V30 2 2 2 3
M  V30 3 1 3 4
M  V30 4 2 4 5
M  V30 5 1 5 6
M  V30 6 2 6 7
M  V30 7 2 6 8
M  V30 8 1 6 9
M  V30 9 1 9 10
M  V30 10 1 10 11
M  V30 11 1 11 12
M  V30 12 1 12 13
M  V30 13 1 13 14
M  V30 14 1 14 15
M  V30 15 2 15 16
M  V30 16 1 15 17
M  V30 17 1 17 18
M  V30 18 1 18 19
M  V30 19 1 19 20
M  V30 20 1 20 21
M  V30 21 1 21 22
M  V30 22 1 22 23
M  V30 23 1 23 24
M  V30 24 1 24 25
M  V30 25 1 25 26
M  V30 26 1 14 27
M  V30 27 1 27 28
M  V30 28 1 5 29
M  V30 29 2 29 30
M  V30 30 1 30 2
M  V30 31 1 28 11
M  V30 32 1 26 21
M  V30 33 1 1 31
M  V30 34 1 1 32
M  V30 35 1 1 33
M  V30 36 1 3 34
M  V30 37 1 4 35
M  V30 38 1 9 36
M  V30 39 1 10 37
M  V30 40 1 10 38
M  V30 41 1 11 39
M  V30 42 1 12 40
M  V30 43 1 12 41
M  V30 44 1 13 42
M  V30 45 1 13 43
M  V30 46 1 14 44
M  V30 47 1 17 45
M  V30 48 1 18 46
M  V30 49 1 18 47
M  V30 50 1 19 48
M  V30 51 1 19 49
M  V30 52 1 20 50
M  V30 53 1 20 51
M  V30 54 1 22 52
M  V30 55 1 22 53
M  V30 56 1 23 54
M  V30 57 1 23 55
M  V30 58 1 25 56
M  V30 59 1 25 57
M  V30 60 1 26 58
M  V30 61 1 26 59
M  V30 62 1 27 60
M  V30 63 1 27 61
M  V30 64 1 28 62
M  V30 65 1 28 63
M  V30 66 1 29 64
M  V30 67 1 30 65
M  V30 END BOND
M  V30 END CTAB
M  END
>  <Dataset>  (397) 
ChEMBL_Kinases

>  <Ligand_Instance>  (397) 
nan

>  <PDB_ID>  (397) 
nan

>  <Standardized_SMILES>  (397) 
Cc1ccc(S(=O)(=O)NCC2CCC(C(=O)NCCCN3CCOCC3)CC2)cc1

>  <Name>  (397) 
nan

>  <Pocket>  (397) 
nan

>  <ATP_Site>  (397) 
nan

>  <Peripheral>  (397) 
nan

>  <Num_H_Atoms_ProtBoundConf>  (397) 
nan

>  <Num_Resolved_Atoms>  (397) 
nan

>  <Num_Not_Resolved_Atoms>  (397) 
nan

$$$$
CHEMBL1335360
     RDKit          3D

  0  0  0  0  0  0  0  0  0  0999 V3000
M  V30 BEGIN CTAB
M  V30 COUNTS 50 53 0 0 0
M  V30 BEGIN ATOM
M  V30 1 C -1.024625 -5.690391 -0.249309 0
M  V30 2 C -1.129432 -4.261500 0.058685 0
M  V30 3 C -2.191515 -3.915090 0.850447 0
M  V30 4 C -2.318797 -2.564529 1.173997 0
M  V30 5 N -1.412216 -1.707539 0.703744 0
M  V30 6 C -0.353827 -2.057048 -0.083817 0
M  V30 7 C 0.707410 -1.347136 -0.685017 0
M  V30 8 C 0.709446 0.095084 -0.350875 0
M  V30 9 O -0.464631 0.629104 -0.570236 0
M  V30 10 N 1.718937 0.914218 0.138985 0
M  V30 11 C 1.654231 2.282636 0.478730 0
M  V30 12 C 1.753345 3.272475 -0.638717 0
M  V30 13 C 3.164358 3.580660 -1.053754 0
M  V30 14 C 3.855336 4.194694 0.159386 0
M  V30 15 C 3.958274 3.081297 1.173220 0
M  V30 16 C 2.546066 2.702140 1.591770 0
M  V30 17 C 2.675014 1.657931 2.677381 0
M  V30 18 C 1.426270 -2.315250 -1.354772 0
M  V30 19 N 0.838788 -3.500456 -1.161927 0
M  V30 20 N -0.229508 -3.385859 -0.404873 0
M  V30 21 C -3.457824 -2.085729 1.994976 0
M  V30 22 C -4.763813 -2.739331 1.595170 0
M  V30 23 C -4.583319 -4.072668 0.931100 0
M  V30 24 C -3.283916 -4.694300 1.460552 0
M  V30 25 H -1.378886 -6.286973 0.608030 0
M  V30 26 H -1.588163 -5.993479 -1.160027 0
M  V30 27 H 0.058343 -5.906652 -0.386044 0
M  V30 28 H 2.608783 0.347303 0.238920 0
M  V30 29 H 0.588078 2.436353 0.844259 0
M  V30 30 H 1.391545 4.238519 -0.201427 0
M  V30 31 H 1.066816 3.085080 -1.476679 0
M  V30 32 H 3.102866 4.368912 -1.822587 0
M  V30 33 H 3.762602 2.756889 -1.393957 0
M  V30 34 H 3.178310 4.972122 0.573386 0
M  V30 35 H 4.816965 4.603282 -0.162989 0
M  V30 36 H 4.457180 3.503105 2.050898 0
M  V30 37 H 4.519092 2.197158 0.758709 0
M  V30 38 H 2.125201 3.602093 2.110833 0
M  V30 39 H 3.071282 2.208228 3.583503 0
M  V30 40 H 1.697467 1.234493 2.962732 0
M  V30 41 H 3.414009 0.887345 2.422056 0
M  V30 42 H 2.270198 -1.901246 -1.874806 0
M  V30 43 H -3.210450 -2.223328 3.062337 0
M  V30 44 H -3.542115 -0.966382 1.836252 0
M  V30 45 H -5.337023 -2.074786 0.894489 0
M  V30 46 H -5.384760 -2.863505 2.493343 0
M  V30 47 H -5.470014 -4.712665 1.164839 0
M  V30 48 H -4.517554 -3.944921 -0.169788 0
M  V30 49 H -3.334674 -4.515537 2.579469 0
M  V30 50 H -3.257634 -5.766257 1.198667 0
M  V30 END ATOM
M  V30 BEGIN BOND
M  V30 1 1 1 2
M  V30 2 2 2 3
M  V30 3 1 3 4
M  V30 4 2 4 5
M  V30 5 1 5 6
M  V30 6 2 6 7
M  V30 7 1 7 8
M  V30 8 2 8 9
M  V30 9 1 8 10
M  V30 10 1 10 11
M  V30 11 1 11 12
M  V30 12 1 12 13
M  V30 13 1 13 14
M  V30 14 1 14 15
M  V30 15 1 15 16
M  V30 16 1 16 17
M  V30 17 1 7 18
M  V30 18 2 18 19
M  V30 19 1 19 20
M  V30 20 1 4 21
M  V30 21 1 21 22
M  V30 22 1 22 23
M  V30 23 1 23 24
M  V30 24 1 20 2
M  V30 25 1 24 3
M  V30 26 1 20 6
M  V30 27 1 16 11
M  V30 28 1 1 25
M  V30 29 1 1 26
M  V30 30 1 1 27
M  V30 31 1 10 28
M  V30 32 1 11 29
M  V30 33 1 12 30
M  V30 34 1 12 31
M  V30 35 1 13 32
M  V30 36 1 13 33
M  V30 37 1 14 34
M  V30 38 1 14 35
M  V30 39 1 15 36
M  V30 40 1 15 37
M  V30 41 1 16 38
M  V30 42 1 17 39
M  V30 43 1 17 40
M  V30 44 1 17 41
M  V30 45 1 18 42
M  V30 46 1 21 43
M  V30 47 1 21 44
M  V30 48 1 22 45
M  V30 49 1 22 46
M  V30 50 1 23 47
M  V30 51 1 23 48
M  V30 52 1 24 49
M  V30 53 1 24 50
M  V30 END BOND
M  V30 END CTAB
M  END
>  <Dataset>  (398) 
ChEMBL_Kinases

>  <Ligand_Instance>  (398) 
nan

>  <PDB_ID>  (398) 
nan

>  <Standardized_SMILES>  (398) 
Cc1c2c(nc3c(C(=O)NC4CCCCC4C)cnn13)CCCC2

>  <Name>  (398) 
nan

>  <Pocket>  (398) 
nan

>  <ATP_Site>  (398) 
nan

>  <Peripheral>  (398) 
nan

>  <Num_H_Atoms_ProtBoundConf>  (398) 
nan

>  <Num_Resolved_Atoms>  (398) 
nan

>  <Num_Not_Resolved_Atoms>  (398) 
nan

$$$$
CHEMBL1335333
     RDKit          3D

  0  0  0  0  0  0  0  0  0  0999 V3000
M  V30 BEGIN CTAB
M  V30 COUNTS 51 53 0 0 0
M  V30 BEGIN ATOM
M  V30 1 C 3.963652 -6.031678 0.957455 0
M  V30 2 O 4.654308 -5.229562 0.000881 0
M  V30 3 C 4.315656 -3.882985 -0.183406 0
M  V30 4 C 3.334901 -3.196398 0.489403 0
M  V30 5 C 3.109629 -1.855178 0.199557 0
M  V30 6 C 3.856752 -1.196823 -0.756566 0
M  V30 7 N 3.454952 0.162485 -0.885645 0
M  V30 8 C 4.142048 1.114381 -0.029468 0
M  V30 9 S 2.216769 0.708784 -1.989764 0
M  V30 10 O 1.622914 -0.535754 -2.620140 0
M  V30 11 O 2.745873 1.650879 -3.002728 0
M  V30 12 C 0.959253 1.410039 -0.990894 0
M  V30 13 C 0.908273 2.753485 -0.611720 0
M  V30 14 C -0.114198 3.220751 0.173981 0
M  V30 15 C -1.136504 2.399558 0.627738 0
M  V30 16 C -1.133064 1.044637 0.276546 0
M  V30 17 C -2.141642 0.068282 0.681374 0
M  V30 18 O -2.049801 -1.149002 0.308415 0
M  V30 19 N -3.231189 0.437090 1.484983 0
M  V30 20 C -4.193872 -0.591261 1.846558 0
M  V30 21 C -4.182975 -0.707457 3.356061 0
M  V30 22 C -5.351254 0.158816 3.751204 0
M  V30 23 C -6.393289 -0.259652 2.723199 0
M  V30 24 C -5.589635 -0.220859 1.440695 0
M  V30 25 C -0.081629 0.631743 -0.513999 0
M  V30 26 C 4.841966 -1.890582 -1.430914 0
M  V30 27 C 5.053868 -3.220294 -1.132701 0
M  V30 28 H 4.358022 -5.832197 1.973201 0
M  V30 29 H 4.145378 -7.085703 0.683471 0
M  V30 30 H 2.881111 -5.798114 0.942480 0
M  V30 31 H 2.784500 -3.775621 1.229128 0
M  V30 32 H 2.305653 -1.428262 0.802134 0
M  V30 33 H 5.205978 0.878958 -0.007439 0
M  V30 34 H 3.716228 1.040807 0.980654 0
M  V30 35 H 3.992650 2.117609 -0.482701 0
M  V30 36 H 1.709672 3.383854 -0.970876 0
M  V30 37 H -0.127750 4.265446 0.451851 0
M  V30 38 H -1.960018 2.731493 1.249114 0
M  V30 39 H -3.384213 1.391763 1.830152 0
M  V30 40 H -3.916184 -1.578007 1.412192 0
M  V30 41 H -4.392554 -1.745797 3.688592 0
M  V30 42 H -3.276621 -0.257491 3.771709 0
M  V30 43 H -5.751464 -0.094513 4.749354 0
M  V30 44 H -5.161656 1.227694 3.578606 0
M  V30 45 H -6.751619 -1.297145 2.883256 0
M  V30 46 H -7.243741 0.441518 2.704550 0
M  V30 47 H -5.582033 0.812014 1.027864 0
M  V30 48 H -6.048069 -0.916434 0.718629 0
M  V30 49 H -0.050504 -0.410961 -0.802793 0
M  V30 50 H 5.362930 -1.279760 -2.154586 0
M  V30 51 H 5.850246 -3.711301 -1.703988 0
M  V30 END ATOM
M  V30 BEGIN BOND
M  V30 1 1 1 2
M  V30 2 1 2 3
M  V30 3 2 3 4
M  V30 4 1 4 5
M  V30 5 2 5 6
M  V30 6 1 6 7
M  V30 7 1 7 8
M  V30 8 1 7 9
M  V30 9 2 9 10
M  V30 10 2 9 11
M  V30 11 1 9 12
M  V30 12 2 12 13
M  V30 13 1 13 14
M  V30 14 2 14 15
M  V30 15 1 15 16
M  V30 16 1 16 17
M  V30 17 2 17 18
M  V30 18 1 17 19
M  V30 19 1 19 20
M  V30 20 1 20 21
M  V30 21 1 21 22
M  V30 22 1 22 23
M  V30 23 1 23 24
M  V30 24 2 16 25
M  V30 25 1 6 26
M  V30 26 2 26 27
M  V30 27 1 27 3
M  V30 28 1 25 12
M  V30 29 1 24 20
M  V30 30 1 1 28
M  V30 31 1 1 29
M  V30 32 1 1 30
M  V30 33 1 4 31
M  V30 34 1 5 32
M  V30 35 1 8 33
M  V30 36 1 8 34
M  V30 37 1 8 35
M  V30 38 1 13 36
M  V30 39 1 14 37
M  V30 40 1 15 38
M  V30 41 1 19 39
M  V30 42 1 20 40
M  V30 43 1 21 41
M  V30 44 1 21 42
M  V30 45 1 22 43
M  V30 46 1 22 44
M  V30 47 1 23 45
M  V30 48 1 23 46
M  V30 49 1 24 47
M  V30 50 1 24 48
M  V30 51 1 25 49
M  V30 52 1 26 50
M  V30 53 1 27 51
M  V30 END BOND
M  V30 END CTAB
M  END
>  <Dataset>  (399) 
ChEMBL_Kinases

>  <Ligand_Instance>  (399) 
nan

>  <PDB_ID>  (399) 
nan

>  <Standardized_SMILES>  (399) 
COc1ccc(N(C)S(=O)(=O)c2cccc(C(=O)NC3CCCC3)c2)cc1

>  <Name>  (399) 
nan

>  <Pocket>  (399) 
nan

>  <ATP_Site>  (399) 
nan

>  <Peripheral>  (399) 
nan

>  <Num_H_Atoms_ProtBoundConf>  (399) 
nan

>  <Num_Resolved_Atoms>  (399) 
nan

>  <Num_Not_Resolved_Atoms>  (399) 
nan

$$$$
CHEMBL1335331
     RDKit          3D

  0  0  0  0  0  0  0  0  0  0999 V3000
M  V30 BEGIN CTAB
M  V30 COUNTS 55 58 0 0 0
M  V30 BEGIN ATOM
M  V30 1 C 2.016820 -2.986595 6.392648 0
M  V30 2 O 1.120245 -2.941869 5.272475 0
M  V30 3 C 1.369627 -1.981469 4.273862 0
M  V30 4 C 2.441768 -1.118218 4.376083 0
M  V30 5 C 2.635327 -0.197580 3.365265 0
M  V30 6 C 1.808084 -0.104999 2.264186 0
M  V30 7 C 1.961985 0.843514 1.166515 0
M  V30 8 C 3.003502 1.746709 1.175138 0
M  V30 9 C 3.080859 2.609614 0.100610 0
M  V30 10 C 4.185805 3.629804 0.036387 0
M  V30 11 F 4.952695 3.375923 -1.099037 0
M  V30 12 F 3.602838 4.872595 -0.163374 0
M  V30 13 N 2.167381 2.536670 -0.878265 0
M  V30 14 N 2.087915 3.282332 -1.977799 0
M  V30 15 C 1.018459 2.879776 -2.695202 0
M  V30 16 C 0.391878 1.843706 -2.035265 0
M  V30 17 C -0.788211 1.119149 -2.446504 0
M  V30 18 O -0.867493 0.915288 -3.685423 0
M  V30 19 N -1.806877 0.650531 -1.579488 0
M  V30 20 C -2.984160 -0.074619 -2.020792 0
M  V30 21 C -3.887322 -0.441512 -0.894075 0
M  V30 22 C -3.286884 -1.321132 0.150803 0
M  V30 23 N -2.837140 -2.600973 -0.343860 0
M  V30 24 C -1.575030 -3.105438 -0.896695 0
M  V30 25 C -2.053861 -3.977870 -2.017777 0
M  V30 26 C -3.147347 -4.772737 -1.337259 0
M  V30 27 C -3.675882 -3.767493 -0.382657 0
M  V30 28 O -4.734656 -3.993755 0.269475 0
M  V30 29 C 1.146515 1.659075 -0.896845 0
M  V30 30 N 1.077157 0.821721 0.152622 0
M  V30 31 C 0.766725 -1.013463 2.259107 0
M  V30 32 C 0.485010 -1.969563 3.214455 0
M  V30 33 H 3.052429 -3.163226 6.061582 0
M  V30 34 H 2.010888 -1.963908 6.859491 0
M  V30 35 H 1.647463 -3.657918 7.173241 0
M  V30 36 H 3.119888 -1.153847 5.221716 0
M  V30 37 H 3.467085 0.480607 3.434999 0
M  V30 38 H 3.742969 1.819826 1.950296 0
M  V30 39 H 4.825214 3.585655 0.918606 0
M  V30 40 H 0.737668 3.336087 -3.641436 0
M  V30 41 H -1.702605 0.838164 -0.553171 0
M  V30 42 H -3.551818 0.607987 -2.685454 0
M  V30 43 H -2.722103 -0.950764 -2.612069 0
M  V30 44 H -4.320012 0.438354 -0.397244 0
M  V30 45 H -4.752180 -0.999498 -1.333626 0
M  V30 46 H -2.475141 -0.769266 0.673439 0
M  V30 47 H -4.056426 -1.506830 0.926242 0
M  V30 48 H -0.941756 -2.274493 -1.230166 0
M  V30 49 H -1.103727 -3.737849 -0.124698 0
M  V30 50 H -2.551998 -3.332460 -2.767202 0
M  V30 51 H -1.267266 -4.619033 -2.461168 0
M  V30 52 H -2.687222 -5.642687 -0.837668 0
M  V30 53 H -3.923958 -5.104990 -2.069225 0
M  V30 54 H 0.086719 -0.969757 1.395554 0
M  V30 55 H -0.364759 -2.618211 3.085896 0
M  V30 END ATOM
M  V30 BEGIN BOND
M  V30 1 1 1 2
M  V30 2 1 2 3
M  V30 3 2 3 4
M  V30 4 1 4 5
M  V30 5 2 5 6
M  V30 6 1 6 7
M  V30 7 1 7 8
M  V30 8 2 8 9
M  V30 9 1 9 10
M  V30 10 1 10 11
M  V30 11 1 10 12
M  V30 12 1 9 13
M  V30 13 1 13 14
M  V30 14 2 14 15
M  V30 15 1 15 16
M  V30 16 1 16 17
M  V30 17 2 17 18
M  V30 18 1 17 19
M  V30 19 1 19 20
M  V30 20 1 20 21
M  V30 21 1 21 22
M  V30 22 1 22 23
M  V30 23 1 23 24
M  V30 24 1 24 25
M  V30 25 1 25 26
M  V30 26 1 26 27
M  V30 27 2 27 28
M  V30 28 2 16 29
M  V30 29 1 29 30
M  V30 30 1 6 31
M  V30 31 2 31 32
M  V30 32 1 32 3
M  V30 33 2 30 7
M  V30 34 1 29 13
M  V30 35 1 27 23
M  V30 36 1 1 33
M  V30 37 1 1 34
M  V30 38 1 1 35
M  V30 39 1 4 36
M  V30 40 1 5 37
M  V30 41 1 8 38
M  V30 42 1 10 39
M  V30 43 1 15 40
M  V30 44 1 19 41
M  V30 45 1 20 42
M  V30 46 1 20 43
M  V30 47 1 21 44
M  V30 48 1 21 45
M  V30 49 1 22 46
M  V30 50 1 22 47
M  V30 51 1 24 48
M  V30 52 1 24 49
M  V30 53 1 25 50
M  V30 54 1 25 51
M  V30 55 1 26 52
M  V30 56 1 26 53
M  V30 57 1 31 54
M  V30 58 1 32 55
M  V30 END BOND
M  V30 END CTAB
M  END
>  <Dataset>  (400) 
ChEMBL_Kinases

>  <Ligand_Instance>  (400) 
nan

>  <PDB_ID>  (400) 
nan

>  <Standardized_SMILES>  (400) 
COc1ccc(-c2cc(C(F)F)n3ncc(C(=O)NCCCN4CCCC4=O)c3n2)cc1

>  <Name>  (400) 
nan

>  <Pocket>  (400) 
nan

>  <ATP_Site>  (400) 
nan

>  <Peripheral>  (400) 
nan

>  <Num_H_Atoms_ProtBoundConf>  (400) 
nan

>  <Num_Resolved_Atoms>  (400) 
nan

>  <Num_Not_Resolved_Atoms>  (400) 
nan

$$$$
CHEMBL1335001
     RDKit          3D

  0  0  0  0  0  0  0  0  0  0999 V3000
M  V30 BEGIN CTAB
M  V30 COUNTS 55 57 0 0 0
M  V30 BEGIN ATOM
M  V30 1 C 3.480473 -6.215408 3.289962 0
M  V30 2 C 2.779077 -6.091254 1.951695 0
M  V30 3 O 2.920907 -4.717431 1.566890 0
M  V30 4 C 2.386570 -4.248809 0.371983 0
M  V30 5 O 1.807354 -5.158868 -0.258899 0
M  V30 6 C 2.505310 -2.863332 -0.060453 0
M  V30 7 C 3.155845 -1.856307 0.655576 0
M  V30 8 C 3.217861 -0.586292 0.173711 0
M  V30 9 C 2.656108 -0.212011 -1.027476 0
M  V30 10 S 2.690565 1.394800 -1.717404 0
M  V30 11 O 2.555813 1.229929 -3.217428 0
M  V30 12 O 3.995880 2.066529 -1.374925 0
M  V30 13 N 1.330746 2.339810 -1.220582 0
M  V30 14 C 1.279892 2.540769 0.196425 0
M  V30 15 C -0.107245 2.760996 0.734758 0
M  V30 16 N -1.091105 1.828141 0.252590 0
M  V30 17 C -1.883466 1.296597 1.308338 0
M  V30 18 C -2.927277 0.312047 0.836235 0
M  V30 19 C -3.872651 0.959479 -0.129202 0
M  V30 20 C -5.271991 1.031594 0.336641 0
M  V30 21 C -5.873259 0.237964 1.241700 0
M  V30 22 C -4.967095 -0.818364 1.803134 0
M  V30 23 C -3.598265 -0.221270 2.083748 0
M  V30 24 C -0.444036 0.882919 -0.598972 0
M  V30 25 C 0.147439 1.702367 -1.753279 0
M  V30 26 C 2.014325 -1.249566 -1.713219 0
M  V30 27 C 1.911704 -2.562836 -1.285232 0
M  V30 28 H 4.511894 -5.811768 3.266011 0
M  V30 29 H 3.550719 -7.264367 3.645177 0
M  V30 30 H 2.912433 -5.670928 4.082733 0
M  V30 31 H 1.724567 -6.369717 2.127249 0
M  V30 32 H 3.283637 -6.755773 1.229041 0
M  V30 33 H 3.598828 -2.136578 1.595813 0
M  V30 34 H 3.722441 0.194969 0.728948 0
M  V30 35 H 1.813022 1.729924 0.727711 0
M  V30 36 H 1.856144 3.468573 0.427357 0
M  V30 37 H -0.030351 2.610310 1.838762 0
M  V30 38 H -0.454962 3.803723 0.608516 0
M  V30 39 H -2.437436 2.144015 1.765687 0
M  V30 40 H -1.310108 0.812009 2.120583 0
M  V30 41 H -2.422058 -0.593281 0.387676 0
M  V30 42 H -3.559267 2.015372 -0.375662 0
M  V30 43 H -3.827020 0.368152 -1.089235 0
M  V30 44 H -5.929153 1.807256 -0.078835 0
M  V30 45 H -6.906605 0.376936 1.512374 0
M  V30 46 H -5.363494 -1.113721 2.791342 0
M  V30 47 H -4.886414 -1.707459 1.179143 0
M  V30 48 H -3.711199 0.564164 2.858601 0
M  V30 49 H -3.007694 -1.046700 2.531439 0
M  V30 50 H 0.401486 0.455858 -0.010785 0
M  V30 51 H -1.077163 0.073691 -0.992506 0
M  V30 52 H 0.331836 1.101985 -2.640721 0
M  V30 53 H -0.584018 2.499716 -2.005474 0
M  V30 54 H 1.555211 -1.004358 -2.666524 0
M  V30 55 H 1.390331 -3.275132 -1.903488 0
M  V30 END ATOM
M  V30 BEGIN BOND
M  V30 1 1 1 2
M  V30 2 1 2 3
M  V30 3 1 3 4
M  V30 4 2 4 5
M  V30 5 1 4 6
M  V30 6 2 6 7
M  V30 7 1 7 8
M  V30 8 2 8 9
M  V30 9 1 9 10
M  V30 10 2 10 11
M  V30 11 2 10 12
M  V30 12 1 10 13
M  V30 13 1 13 14
M  V30 14 1 14 15
M  V30 15 1 15 16
M  V30 16 1 16 17
M  V30 17 1 17 18
M  V30 18 1 18 19
M  V30 19 1 19 20
M  V30 20 2 20 21
M  V30 21 1 21 22
M  V30 22 1 22 23
M  V30 23 1 16 24
M  V30 24 1 24 25
M  V30 25 1 9 26
M  V30 26 2 26 27
M  V30 27 1 27 6
M  V30 28 1 25 13
M  V30 29 1 23 18
M  V30 30 1 1 28
M  V30 31 1 1 29
M  V30 32 1 1 30
M  V30 33 1 2 31
M  V30 34 1 2 32
M  V30 35 1 7 33
M  V30 36 1 8 34
M  V30 37 1 14 35
M  V30 38 1 14 36
M  V30 39 1 15 37
M  V30 40 1 15 38
M  V30 41 1 17 39
M  V30 42 1 17 40
M  V30 43 1 18 41
M  V30 44 1 19 42
M  V30 45 1 19 43
M  V30 46 1 20 44
M  V30 47 1 21 45
M  V30 48 1 22 46
M  V30 49 1 22 47
M  V30 50 1 23 48
M  V30 51 1 23 49
M  V30 52 1 24 50
M  V30 53 1 24 51
M  V30 54 1 25 52
M  V30 55 1 25 53
M  V30 56 1 26 54
M  V30 57 1 27 55
M  V30 END BOND
M  V30 END CTAB
M  END
>  <Dataset>  (401) 
ChEMBL_Kinases

>  <Ligand_Instance>  (401) 
nan

>  <PDB_ID>  (401) 
nan

>  <Standardized_SMILES>  (401) 
CCOC(=O)c1ccc(S(=O)(=O)N2CCN(CC3CC=CCC3)CC2)cc1

>  <Name>  (401) 
nan

>  <Pocket>  (401) 
nan

>  <ATP_Site>  (401) 
nan

>  <Peripheral>  (401) 
nan

>  <Num_H_Atoms_ProtBoundConf>  (401) 
nan

>  <Num_Resolved_Atoms>  (401) 
nan

>  <Num_Not_Resolved_Atoms>  (401) 
nan

$$$$
CHEMBL1334962
     RDKit          3D

  0  0  0  0  0  0  0  0  0  0999 V3000
M  V30 BEGIN CTAB
M  V30 COUNTS 46 49 0 0 0
M  V30 BEGIN ATOM
M  V30 1 C -0.928482 -5.434884 2.484292 0
M  V30 2 C -0.539768 -4.363327 3.478173 0
M  V30 3 C -1.439049 -3.183394 3.439618 0
M  V30 4 N -1.475454 -2.515824 2.155517 0
M  V30 5 C -0.579760 -1.464263 1.820587 0
M  V30 6 O 0.327326 -0.987217 2.549253 0
M  V30 7 C -0.896958 -1.030008 0.474584 0
M  V30 8 C -0.299967 -0.105431 -0.157628 0
M  V30 9 S 1.063665 0.880374 0.444539 0
M  V30 10 C 1.165758 1.817385 -1.083057 0
M  V30 11 N 2.249021 2.621257 -0.644665 0
M  V30 12 C 1.995620 3.927880 -0.043050 0
M  V30 13 C 3.264274 4.528051 0.488994 0
M  V30 14 C 4.095998 3.591392 1.318525 0
M  V30 15 C 4.114656 2.202636 0.753657 0
M  V30 16 C 3.679390 2.314764 -0.711221 0
M  V30 17 N 0.286222 1.415706 -1.896683 0
M  V30 18 C -0.535668 0.390257 -1.473376 0
M  V30 19 O -1.303021 0.157977 -2.397605 0
M  V30 20 C -1.984513 -1.813944 -0.013354 0
M  V30 21 C -2.760004 -1.960891 -1.106451 0
M  V30 22 C -3.776859 -2.858478 -1.260395 0
M  V30 23 C -4.085425 -3.733681 -0.212972 0
M  V30 24 C -3.320683 -3.624170 0.929061 0
M  V30 25 C -2.312158 -2.685971 0.994375 0
M  V30 26 H -0.833200 -4.995203 1.469344 0
M  V30 27 H -0.180930 -6.274552 2.489916 0
M  V30 28 H -1.950557 -5.817089 2.632211 0
M  V30 29 H -0.667761 -4.833516 4.486985 0
M  V30 30 H 0.526976 -4.137285 3.322791 0
M  V30 31 H -1.264714 -2.470128 4.267456 0
M  V30 32 H -2.483738 -3.579283 3.619471 0
M  V30 33 H 1.676580 4.582880 -0.899199 0
M  V30 34 H 1.184100 3.862945 0.703284 0
M  V30 35 H 2.982687 5.393193 1.130552 0
M  V30 36 H 3.864285 4.942950 -0.347974 0
M  V30 37 H 5.158592 3.964744 1.229747 0
M  V30 38 H 3.876263 3.623024 2.403062 0
M  V30 39 H 5.087657 1.683065 0.836313 0
M  V30 40 H 3.346910 1.620284 1.303080 0
M  V30 41 H 3.835287 1.347254 -1.215690 0
M  V30 42 H 4.262981 3.114215 -1.213216 0
M  V30 43 H -2.674347 -1.395239 -1.983514 0
M  V30 44 H -4.417841 -2.996803 -2.133570 0
M  V30 45 H -4.875454 -4.464447 -0.272209 0
M  V30 46 H -3.569640 -4.303677 1.728347 0
M  V30 END ATOM
M  V30 BEGIN BOND
M  V30 1 1 1 2
M  V30 2 1 2 3
M  V30 3 1 3 4
M  V30 4 1 4 5
M  V30 5 2 5 6
M  V30 6 1 5 7
M  V30 7 2 7 8
M  V30 8 1 8 9
M  V30 9 1 9 10
M  V30 10 1 10 11
M  V30 11 1 11 12
M  V30 12 1 12 13
M  V30 13 1 13 14
M  V30 14 1 14 15
M  V30 15 1 15 16
M  V30 16 2 10 17
M  V30 17 1 17 18
M  V30 18 2 18 19
M  V30 19 1 7 20
M  V30 20 2 20 21
M  V30 21 1 21 22
M  V30 22 2 22 23
M  V30 23 1 23 24
M  V30 24 2 24 25
M  V30 25 1 25 4
M  V30 26 1 18 8
M  V30 27 1 25 20
M  V30 28 1 16 11
M  V30 29 1 1 26
M  V30 30 1 1 27
M  V30 31 1 1 28
M  V30 32 1 2 29
M  V30 33 1 2 30
M  V30 34 1 3 31
M  V30 35 1 3 32
M  V30 36 1 12 33
M  V30 37 1 12 34
M  V30 38 1 13 35
M  V30 39 1 13 36
M  V30 40 1 14 37
M  V30 41 1 14 38
M  V30 42 1 15 39
M  V30 43 1 15 40
M  V30 44 1 16 41
M  V30 45 1 16 42
M  V30 46 1 21 43
M  V30 47 1 22 44
M  V30 48 1 23 45
M  V30 49 1 24 46
M  V30 END BOND
M  V30 END CTAB
M  END
>  <Dataset>  (402) 
ChEMBL_Kinases

>  <Ligand_Instance>  (402) 
nan

>  <PDB_ID>  (402) 
nan

>  <Standardized_SMILES>  (402) 
CCCN1C(=O)/C(=C2\SC(N3CCCCC3)=NC2=O)c2ccccc21

>  <Name>  (402) 
nan

>  <Pocket>  (402) 
nan

>  <ATP_Site>  (402) 
nan

>  <Peripheral>  (402) 
nan

>  <Num_H_Atoms_ProtBoundConf>  (402) 
nan

>  <Num_Resolved_Atoms>  (402) 
nan

>  <Num_Not_Resolved_Atoms>  (402) 
nan

$$$$
CHEMBL1334817
     RDKit          3D

  0  0  0  0  0  0  0  0  0  0999 V3000
M  V30 BEGIN CTAB
M  V30 COUNTS 37 38 0 0 0
M  V30 BEGIN ATOM
M  V30 1 C 0.916918 -3.830904 1.630668 0
M  V30 2 N -0.343032 -4.429669 2.070676 0
M  V30 3 C -1.066665 -3.803668 3.118988 0
M  V30 4 N -1.195580 -2.529021 3.093322 0
M  V30 5 C -0.668807 -1.681869 2.082898 0
M  V30 6 C -0.777965 -1.756265 0.711643 0
M  V30 7 C -0.195130 -0.784287 -0.059417 0
M  V30 8 C 0.513543 0.301234 0.386331 0
M  V30 9 C 1.083694 1.317490 -0.519769 0
M  V30 10 N 1.752939 2.173943 0.167952 0
M  V30 11 N 2.433452 3.268585 -0.334806 0
M  V30 12 C 2.385540 3.459021 -1.738609 0
M  V30 13 O 3.398613 3.975581 -2.319253 0
M  V30 14 C 1.097178 2.994468 -2.279041 0
M  V30 15 C 0.987247 1.489751 -1.974477 0 CFG=2
M  V30 16 C -0.322237 1.006216 -2.565867 0
M  V30 17 C 0.598975 0.337914 1.758524 0
M  V30 18 C 0.046971 -0.591461 2.600860 0
M  V30 19 N -1.660314 -4.580633 4.177875 0
M  V30 20 C -2.187389 -3.943831 5.314253 0
M  V30 21 N -2.644382 -3.409685 6.258664 0
M  V30 22 H 1.644384 -4.668155 1.947936 0
M  V30 23 H 1.299731 -3.029048 2.242076 0
M  V30 24 H 1.088872 -3.832542 0.559364 0
M  V30 25 H -0.753039 -5.307194 1.670948 0
M  V30 26 H -1.340824 -2.605990 0.362875 0
M  V30 27 H -0.348626 -0.994041 -1.098705 0
M  V30 28 H 2.964873 3.918645 0.302789 0
M  V30 29 H 0.215388 3.473133 -1.818901 0
M  V30 30 H 1.022240 3.140993 -3.381874 0
M  V30 31 H 1.830270 1.021334 -2.530378 0
M  V30 32 H -0.130004 0.070657 -3.101921 0
M  V30 33 H -0.575579 1.747714 -3.383340 0
M  V30 34 H -1.133504 1.025346 -1.849368 0
M  V30 35 H 1.152113 1.176671 2.215782 0
M  V30 36 H 0.191971 -0.438501 3.662811 0
M  V30 37 H -1.684188 -5.638356 4.061462 0
M  V30 END ATOM
M  V30 BEGIN BOND
M  V30 1 1 1 2
M  V30 2 1 2 3
M  V30 3 2 3 4
M  V30 4 1 4 5
M  V30 5 2 5 6
M  V30 6 1 6 7
M  V30 7 2 7 8
M  V30 8 1 8 9
M  V30 9 2 9 10
M  V30 10 1 10 11
M  V30 11 1 11 12
M  V30 12 2 12 13
M  V30 13 1 12 14
M  V30 14 1 14 15
M  V30 15 1 15 16
M  V30 16 1 8 17
M  V30 17 2 17 18
M  V30 18 1 3 19
M  V30 19 1 19 20
M  V30 20 3 20 21
M  V30 21 1 18 5
M  V30 22 1 15 9
M  V30 23 1 1 22
M  V30 24 1 1 23
M  V30 25 1 1 24
M  V30 26 1 2 25
M  V30 27 1 6 26
M  V30 28 1 7 27
M  V30 29 1 11 28
M  V30 30 1 14 29
M  V30 31 1 14 30
M  V30 32 1 15 31 CFG=3
M  V30 33 1 16 32
M  V30 34 1 16 33
M  V30 35 1 16 34
M  V30 36 1 17 35
M  V30 37 1 18 36
M  V30 38 1 19 37
M  V30 END BOND
M  V30 END CTAB
M  END
>  <Dataset>  (403) 
ChEMBL_Kinases

>  <Ligand_Instance>  (403) 
nan

>  <PDB_ID>  (403) 
nan

>  <Standardized_SMILES>  (403) 
CN/C(=N\c1ccc(C2=NNC(=O)C[C@@H]2C)cc1)NC#N

>  <Name>  (403) 
nan

>  <Pocket>  (403) 
nan

>  <ATP_Site>  (403) 
nan

>  <Peripheral>  (403) 
nan

>  <Num_H_Atoms_ProtBoundConf>  (403) 
nan

>  <Num_Resolved_Atoms>  (403) 
nan

>  <Num_Not_Resolved_Atoms>  (403) 
nan

$$$$
CHEMBL1334751
     RDKit          3D

  0  0  0  0  0  0  0  0  0  0999 V3000
M  V30 BEGIN CTAB
M  V30 COUNTS 36 37 0 0 0
M  V30 BEGIN ATOM
M  V30 1 C -2.065618 -1.593833 4.104127 0
M  V30 2 C -2.160127 -2.788509 3.195986 0
M  V30 3 O -2.002598 -2.508805 1.836442 0
M  V30 4 C -0.825236 -1.952886 1.376092 0
M  V30 5 C 0.291592 -1.615812 2.096836 0
M  V30 6 C 1.429702 -1.062434 1.560090 0
M  V30 7 C 1.500375 -0.811831 0.215857 0
M  V30 8 C 2.732886 -0.217340 -0.335398 0
M  V30 9 C 2.613259 1.290086 -0.305939 0
M  V30 10 N 2.236285 2.160124 -0.979552 0
M  V30 11 N 2.266297 3.419517 -0.664749 0
M  V30 12 C 2.674343 3.879158 0.339857 0
M  V30 13 N 2.754683 5.244600 0.788374 0
M  V30 14 S 3.206752 2.254295 1.213379 0
M  V30 15 C 0.399608 -1.135666 -0.546524 0
M  V30 16 C -0.734772 -1.690160 0.006602 0
M  V30 17 O -1.803189 -1.993519 -0.800797 0
M  V30 18 C -1.838797 -1.780665 -2.189109 0
M  V30 19 C -0.792447 -2.507877 -2.967552 0
M  V30 20 H -1.789358 -0.652516 3.546641 0
M  V30 21 H -3.045804 -1.397137 4.595200 0
M  V30 22 H -1.339633 -1.700043 4.918563 0
M  V30 23 H -1.385740 -3.518885 3.566018 0
M  V30 24 H -3.149609 -3.292793 3.395990 0
M  V30 25 H 0.259428 -1.807593 3.153198 0
M  V30 26 H 2.258685 -0.830636 2.207307 0
M  V30 27 H 2.943785 -0.447678 -1.376946 0
M  V30 28 H 3.641282 -0.529436 0.237862 0
M  V30 29 H 3.687384 5.717434 0.641647 0
M  V30 30 H 1.807520 5.481222 1.186906 0
M  V30 31 H 0.509363 -0.914751 -1.610548 0
M  V30 32 H -1.611073 -0.681514 -2.323515 0
M  V30 33 H -2.823225 -1.927638 -2.632709 0
M  V30 34 H -0.225929 -1.852249 -3.692304 0
M  V30 35 H -1.301657 -3.244004 -3.630414 0
M  V30 36 H -0.104751 -3.117099 -2.331932 0
M  V30 END ATOM
M  V30 BEGIN BOND
M  V30 1 1 1 2
M  V30 2 1 2 3
M  V30 3 1 3 4
M  V30 4 2 4 5
M  V30 5 1 5 6
M  V30 6 2 6 7
M  V30 7 1 7 8
M  V30 8 1 8 9
M  V30 9 2 9 10
M  V30 10 1 10 11
M  V30 11 2 11 12
M  V30 12 1 12 13
M  V30 13 1 12 14
M  V30 14 1 7 15
M  V30 15 2 15 16
M  V30 16 1 16 17
M  V30 17 1 17 18
M  V30 18 1 18 19
M  V30 19 1 16 4
M  V30 20 1 14 9
M  V30 21 1 1 20
M  V30 22 1 1 21
M  V30 23 1 1 22
M  V30 24 1 2 23
M  V30 25 1 2 24
M  V30 26 1 5 25
M  V30 27 1 6 26
M  V30 28 1 8 27
M  V30 29 1 8 28
M  V30 30 1 13 29
M  V30 31 1 13 30
M  V30 32 1 15 31
M  V30 33 1 18 32
M  V30 34 1 18 33
M  V30 35 1 19 34
M  V30 36 1 19 35
M  V30 37 1 19 36
M  V30 END BOND
M  V30 END CTAB
M  END
>  <Dataset>  (404) 
ChEMBL_Kinases

>  <Ligand_Instance>  (404) 
nan

>  <PDB_ID>  (404) 
nan

>  <Standardized_SMILES>  (404) 
CCOc1ccc(Cc2nnc(N)s2)cc1OCC

>  <Name>  (404) 
nan

>  <Pocket>  (404) 
nan

>  <ATP_Site>  (404) 
nan

>  <Peripheral>  (404) 
nan

>  <Num_H_Atoms_ProtBoundConf>  (404) 
nan

>  <Num_Resolved_Atoms>  (404) 
nan

>  <Num_Not_Resolved_Atoms>  (404) 
nan

$$$$
CHEMBL1334745
     RDKit          3D

  0  0  0  0  0  0  0  0  0  0999 V3000
M  V30 BEGIN CTAB
M  V30 COUNTS 43 45 0 0 0
M  V30 BEGIN ATOM
M  V30 1 C -1.340984 -5.064899 -0.650680 0
M  V30 2 O -0.827789 -3.840180 -1.069910 0
M  V30 3 C 0.408104 -3.342697 -0.691619 0
M  V30 4 C 1.100968 -4.183629 0.154305 0
M  V30 5 C 2.348823 -3.818279 0.613759 0
M  V30 6 C 2.872643 -2.609512 0.209088 0
M  V30 7 C 2.162340 -1.806390 -0.624884 0
M  V30 8 C 0.912630 -2.111788 -1.118969 0
M  V30 9 O 0.052907 -1.460301 -1.945501 0
M  V30 10 C 0.133974 -0.242645 -2.579985 0
M  V30 11 C 0.260167 0.967430 -1.692920 0
M  V30 12 S -1.194163 1.050618 -0.603944 0
M  V30 13 C -1.079544 2.489056 0.475628 0
M  V30 14 N -1.483014 3.768395 0.362994 0
M  V30 15 N -1.149046 4.426258 1.454385 0
M  V30 16 C -0.528507 3.544328 2.258850 0
M  V30 17 C 0.018778 3.880761 3.616152 0
M  V30 18 N -0.464173 2.316013 1.681274 0
M  V30 19 C 0.138162 1.186286 2.303164 0
M  V30 20 C -0.846250 0.307722 2.765877 0
M  V30 21 C -0.489188 -0.875627 3.413373 0
M  V30 22 C 0.872616 -1.151156 3.582569 0
M  V30 23 C 1.830709 -0.273172 3.119794 0
M  V30 24 C 1.475584 0.895537 2.480271 0
M  V30 25 H -1.338444 -5.107276 0.449137 0
M  V30 26 H -2.357709 -5.228776 -1.050539 0
M  V30 27 H -0.647213 -5.865392 -1.015446 0
M  V30 28 H 0.734833 -5.136720 0.498267 0
M  V30 29 H 2.977557 -4.392461 1.274572 0
M  V30 30 H 3.844555 -2.258465 0.529294 0
M  V30 31 H 2.533068 -0.863467 -0.967346 0
M  V30 32 H 0.909562 -0.229461 -3.397707 0
M  V30 33 H -0.842032 -0.094979 -3.134238 0
M  V30 34 H 1.206186 1.072026 -1.167646 0
M  V30 35 H 0.187151 1.852531 -2.396413 0
M  V30 36 H 1.130649 3.980455 3.573586 0
M  V30 37 H -0.434227 4.816438 3.978394 0
M  V30 38 H -0.215127 3.061674 4.325441 0
M  V30 39 H -1.912713 0.422275 2.688327 0
M  V30 40 H -1.205423 -1.592615 3.792233 0
M  V30 41 H 1.198181 -2.071170 4.086674 0
M  V30 42 H 2.888853 -0.451376 3.231782 0
M  V30 43 H 2.131510 1.655248 2.077348 0
M  V30 END ATOM
M  V30 BEGIN BOND
M  V30 1 1 1 2
M  V30 2 1 2 3
M  V30 3 2 3 4
M  V30 4 1 4 5
M  V30 5 2 5 6
M  V30 6 1 6 7
M  V30 7 2 7 8
M  V30 8 1 8 9
M  V30 9 1 9 10
M  V30 10 1 10 11
M  V30 11 1 11 12
M  V30 12 1 12 13
M  V30 13 2 13 14
M  V30 14 1 14 15
M  V30 15 2 15 16
M  V30 16 1 16 17
M  V30 17 1 16 18
M  V30 18 1 18 19
M  V30 19 2 19 20
M  V30 20 1 20 21
M  V30 21 2 21 22
M  V30 22 1 22 23
M  V30 23 2 23 24
M  V30 24 1 8 3
M  V30 25 1 18 13
M  V30 26 1 24 19
M  V30 27 1 1 25
M  V30 28 1 1 26
M  V30 29 1 1 27
M  V30 30 1 4 28
M  V30 31 1 5 29
M  V30 32 1 6 30
M  V30 33 1 7 31
M  V30 34 1 10 32
M  V30 35 1 10 33
M  V30 36 1 11 34
M  V30 37 1 11 35
M  V30 38 1 17 36
M  V30 39 1 17 37
M  V30 40 1 17 38
M  V30 41 1 20 39
M  V30 42 1 21 40
M  V30 43 1 22 41
M  V30 44 1 23 42
M  V30 45 1 24 43
M  V30 END BOND
M  V30 END CTAB
M  END
>  <Dataset>  (405) 
ChEMBL_Kinases

>  <Ligand_Instance>  (405) 
nan

>  <PDB_ID>  (405) 
nan

>  <Standardized_SMILES>  (405) 
COc1ccccc1OCCSc1nnc(C)n1-c1ccccc1

>  <Name>  (405) 
nan

>  <Pocket>  (405) 
nan

>  <ATP_Site>  (405) 
nan

>  <Peripheral>  (405) 
nan

>  <Num_H_Atoms_ProtBoundConf>  (405) 
nan

>  <Num_Resolved_Atoms>  (405) 
nan

>  <Num_Not_Resolved_Atoms>  (405) 
nan

$$$$
CHEMBL133471
     RDKit          3D

  0  0  0  0  0  0  0  0  0  0999 V3000
M  V30 BEGIN CTAB
M  V30 COUNTS 49 52 0 0 0
M  V30 BEGIN ATOM
M  V30 1 O 1.813472 -5.164216 0.720359 0
M  V30 2 S 1.127519 -4.669319 -0.496740 0
M  V30 3 O 1.985759 -5.014213 -1.683768 0
M  V30 4 C 1.072129 -2.922813 -0.417398 0
M  V30 5 C 1.194751 -2.176531 -1.595330 0
M  V30 6 C 1.152413 -0.800231 -1.539420 0
M  V30 7 C 0.995935 -0.092244 -0.392660 0
M  V30 8 C 0.953538 1.362593 -0.352603 0
M  V30 9 C 1.073721 2.101212 -1.507410 0
M  V30 10 C 1.033265 3.478184 -1.466066 0
M  V30 11 N 0.876537 4.063504 -0.290766 0
M  V30 12 C 0.753042 3.404925 0.874588 0
M  V30 13 N 0.588706 4.127101 2.083159 0
M  V30 14 C 0.440682 3.647656 3.409362 0
M  V30 15 C 0.286463 4.526281 4.479027 0
M  V30 16 C 0.142138 4.091300 5.764121 0
M  V30 17 C 0.142338 2.748450 6.065748 0
M  V30 18 F -0.001717 2.330821 7.344639 0
M  V30 19 C 0.292331 1.818272 5.042476 0
M  V30 20 F 0.293608 0.503847 5.328446 0
M  V30 21 C 0.433224 2.319047 3.770751 0
M  V30 22 N 0.801343 2.071299 0.758930 0
M  V30 23 C 0.879146 -0.865884 0.742649 0
M  V30 24 C 0.909856 -2.237040 0.782099 0
M  V30 25 N -0.441889 -5.275602 -0.703591 0
M  V30 26 C -1.374221 -4.992360 0.330999 0
M  V30 27 C -2.121242 -3.704121 0.209245 0
M  V30 28 N -1.934284 -3.056986 -1.053746 0
M  V30 29 C -2.043527 -4.041189 -2.105014 0
M  V30 30 C -1.016026 -5.122563 -1.994229 0
M  V30 31 H 1.319641 -2.736185 -2.511557 0
M  V30 32 H 1.255563 -0.336495 -2.494850 0
M  V30 33 H 1.202621 1.674950 -2.485754 0
M  V30 34 H 1.120049 4.136231 -2.326461 0
M  V30 35 H 0.572796 5.185335 1.993509 0
M  V30 36 H 0.280668 5.595340 4.284992 0
M  V30 37 H 0.026053 4.835967 6.550802 0
M  V30 38 H 0.544553 1.565861 3.026113 0
M  V30 39 H 0.750076 -0.417863 1.717933 0
M  V30 40 H 0.816917 -2.818139 1.678413 0
M  V30 41 H -0.929759 -5.128951 1.355522 0
M  V30 42 H -2.149917 -5.812577 0.285851 0
M  V30 43 H -1.868835 -3.014195 1.063137 0
M  V30 44 H -3.237046 -3.839765 0.323144 0
M  V30 45 H -2.710581 -2.369908 -1.190653 0
M  V30 46 H -3.065243 -4.478714 -2.074831 0
M  V30 47 H -1.957214 -3.469203 -3.064427 0
M  V30 48 H -0.189663 -5.029880 -2.728597 0
M  V30 49 H -1.496786 -6.108438 -2.264543 0
M  V30 END ATOM
M  V30 BEGIN BOND
M  V30 1 2 1 2
M  V30 2 2 2 3
M  V30 3 1 2 4
M  V30 4 2 4 5
M  V30 5 1 5 6
M  V30 6 2 6 7
M  V30 7 1 7 8
M  V30 8 2 8 9
M  V30 9 1 9 10
M  V30 10 2 10 11
M  V30 11 1 11 12
M  V30 12 1 12 13
M  V30 13 1 13 14
M  V30 14 2 14 15
M  V30 15 1 15 16
M  V30 16 2 16 17
M  V30 17 1 17 18
M  V30 18 1 17 19
M  V30 19 1 19 20
M  V30 20 2 19 21
M  V30 21 2 12 22
M  V30 22 1 7 23
M  V30 23 2 23 24
M  V30 24 1 2 25
M  V30 25 1 25 26
M  V30 26 1 26 27
M  V30 27 1 27 28
M  V30 28 1 28 29
M  V30 29 1 29 30
M  V30 30 1 24 4
M  V30 31 1 30 25
M  V30 32 1 22 8
M  V30 33 1 21 14
M  V30 34 1 5 31
M  V30 35 1 6 32
M  V30 36 1 9 33
M  V30 37 1 10 34
M  V30 38 1 13 35
M  V30 39 1 15 36
M  V30 40 1 16 37
M  V30 41 1 21 38
M  V30 42 1 23 39
M  V30 43 1 24 40
M  V30 44 1 26 41
M  V30 45 1 26 42
M  V30 46 1 27 43
M  V30 47 1 27 44
M  V30 48 1 28 45
M  V30 49 1 29 46
M  V30 50 1 29 47
M  V30 51 1 30 48
M  V30 52 1 30 49
M  V30 END BOND
M  V30 END CTAB
M  END
>  <Dataset>  (406) 
ChEMBL_Kinases

>  <Ligand_Instance>  (406) 
nan

>  <PDB_ID>  (406) 
nan

>  <Standardized_SMILES>  (406) 
O=S(=O)(c1ccc(-c2ccnc(Nc3ccc(F)c(F)c3)n2)cc1)N1CCNCC1

>  <Name>  (406) 
nan

>  <Pocket>  (406) 
nan

>  <ATP_Site>  (406) 
nan

>  <Peripheral>  (406) 
nan

>  <Num_H_Atoms_ProtBoundConf>  (406) 
nan

>  <Num_Resolved_Atoms>  (406) 
nan

>  <Num_Not_Resolved_Atoms>  (406) 
nan

$$$$
CHEMBL1350197
     RDKit          3D

  0  0  0  0  0  0  0  0  0  0999 V3000
M  V30 BEGIN CTAB
M  V30 COUNTS 40 42 0 0 0
M  V30 BEGIN ATOM
M  V30 1 C -2.723275 -4.674945 1.346016 0
M  V30 2 O -1.691022 -3.881702 0.794666 0
M  V30 3 C -0.416062 -4.312219 0.813512 0
M  V30 4 O -0.425955 -5.464520 1.383970 0
M  V30 5 C 0.973261 -3.991334 0.442996 0
M  V30 6 C 1.246177 -2.787759 -0.290677 0
M  V30 7 C 0.947191 -1.464424 0.165288 0
M  V30 8 C 0.846354 -0.371361 -0.713037 0
M  V30 9 C 1.031283 -0.429349 -2.202185 0
M  V30 10 C 0.564728 0.705643 0.079918 0
M  V30 11 C 0.388001 2.005203 -0.518144 0
M  V30 12 O 0.007315 2.020577 -1.741375 0
M  V30 13 C 0.530911 3.374037 -0.114591 0
M  V30 14 C 0.156482 4.514895 -0.728303 0
M  V30 15 C 0.546106 5.569521 0.110036 0
M  V30 16 C 1.145776 4.992507 1.206914 0
M  V30 17 O 1.115733 3.712369 1.035681 0
M  V30 18 C 0.492463 0.294240 1.389161 0
M  V30 19 C 0.232676 0.935965 2.572525 0
M  V30 20 C 0.191346 0.354736 3.816723 0
M  V30 21 C 0.444120 -1.025335 3.818513 0
M  V30 22 C 0.701415 -1.646768 2.608672 0
M  V30 23 N 0.728433 -1.023602 1.422062 0
M  V30 24 H -3.143802 -5.397630 0.638423 0
M  V30 25 H -2.369252 -5.238823 2.245177 0
M  V30 26 H -3.489056 -3.970248 1.741965 0
M  V30 27 H 1.226837 -4.829681 -0.300270 0
M  V30 28 H 1.721703 -4.267584 1.245822 0
M  V30 29 H 2.344896 -2.812036 -0.560840 0
M  V30 30 H 0.763880 -2.920064 -1.315444 0
M  V30 31 H 1.245442 -1.446517 -2.549630 0
M  V30 32 H 1.892257 0.248444 -2.475544 0
M  V30 33 H 0.111605 -0.073164 -2.702125 0
M  V30 34 H -0.343669 4.646965 -1.673594 0
M  V30 35 H 0.361700 6.599662 -0.154400 0
M  V30 36 H 1.535279 5.603214 2.007174 0
M  V30 37 H 0.014711 1.986726 2.586876 0
M  V30 38 H -0.011911 0.858398 4.749209 0
M  V30 39 H 0.423970 -1.544520 4.781434 0
M  V30 40 H 0.885433 -2.697963 2.743254 0
M  V30 END ATOM
M  V30 BEGIN BOND
M  V30 1 1 1 2
M  V30 2 1 2 3
M  V30 3 2 3 4
M  V30 4 1 3 5
M  V30 5 1 5 6
M  V30 6 1 6 7
M  V30 7 2 7 8
M  V30 8 1 8 9
M  V30 9 1 8 10
M  V30 10 1 10 11
M  V30 11 2 11 12
M  V30 12 1 11 13
M  V30 13 2 13 14
M  V30 14 1 14 15
M  V30 15 2 15 16
M  V30 16 1 16 17
M  V30 17 2 10 18
M  V30 18 1 18 19
M  V30 19 2 19 20
M  V30 20 1 20 21
M  V30 21 2 21 22
M  V30 22 1 22 23
M  V30 23 1 23 7
M  V30 24 1 17 13
M  V30 25 1 23 18
M  V30 26 1 1 24
M  V30 27 1 1 25
M  V30 28 1 1 26
M  V30 29 1 5 27
M  V30 30 1 5 28
M  V30 31 1 6 29
M  V30 32 1 6 30
M  V30 33 1 9 31
M  V30 34 1 9 32
M  V30 35 1 9 33
M  V30 36 1 14 34
M  V30 37 1 15 35
M  V30 38 1 16 36
M  V30 39 1 19 37
M  V30 40 1 20 38
M  V30 41 1 21 39
M  V30 42 1 22 40
M  V30 END BOND
M  V30 END CTAB
M  END
>  <Dataset>  (407) 
ChEMBL_Kinases

>  <Ligand_Instance>  (407) 
nan

>  <PDB_ID>  (407) 
nan

>  <Standardized_SMILES>  (407) 
COC(=O)CCc1c(C)c(C(=O)c2ccco2)c2ccccn12

>  <Name>  (407) 
nan

>  <Pocket>  (407) 
nan

>  <ATP_Site>  (407) 
nan

>  <Peripheral>  (407) 
nan

>  <Num_H_Atoms_ProtBoundConf>  (407) 
nan

>  <Num_Resolved_Atoms>  (407) 
nan

>  <Num_Not_Resolved_Atoms>  (407) 
nan

$$$$
CHEMBL1333606
     RDKit          3D

  0  0  0  0  0  0  0  0  0  0999 V3000
M  V30 BEGIN CTAB
M  V30 COUNTS 48 49 0 0 0
M  V30 BEGIN ATOM
M  V30 1 C -0.750782 -5.183008 2.320306 0
M  V30 2 C -0.153918 -4.220703 1.396359 0
M  V30 3 O 0.260875 -4.628665 0.295582 0
M  V30 4 N 0.040792 -2.819613 1.557482 0
M  V30 5 C 0.670398 -2.341074 0.334660 0
M  V30 6 C 2.002336 -3.013270 0.110771 0
M  V30 7 C -0.194404 -2.634241 -0.872990 0
M  V30 8 C 0.897537 -0.851616 0.360221 0
M  V30 9 C 1.316690 -0.299711 1.646871 0
M  V30 10 N 1.827627 0.886782 1.653171 0
M  V30 11 O 1.933326 1.525241 0.459475 0
M  V30 12 S 1.580899 3.143795 0.179061 0
M  V30 13 O 2.785279 3.789507 -0.448112 0
M  V30 14 O 1.355935 3.895581 1.479613 0
M  V30 15 C 0.222176 3.416321 -0.842880 0
M  V30 16 C -1.020765 3.526036 -0.225720 0
M  V30 17 C -2.196504 3.742524 -0.895039 0
M  V30 18 C -2.137369 3.857256 -2.258075 0
M  V30 19 C -0.938990 3.759140 -2.938318 0
M  V30 20 C 0.239053 3.539109 -2.233016 0
M  V30 21 C 1.119686 -1.151584 2.843739 0
M  V30 22 C -0.228038 -1.845175 2.591494 0
M  V30 23 C -1.235757 -0.809512 2.242330 0
M  V30 24 C -0.625778 -2.490345 3.895568 0
M  V30 25 H -1.627482 -4.809915 2.888987 0
M  V30 26 H 0.005461 -5.563258 3.035786 0
M  V30 27 H -1.074899 -6.098194 1.748669 0
M  V30 28 H 2.784965 -2.214782 0.015700 0
M  V30 29 H 2.281040 -3.675961 0.961918 0
M  V30 30 H 1.977339 -3.544840 -0.846939 0
M  V30 31 H 0.329528 -3.288649 -1.603466 0
M  V30 32 H -0.396384 -1.694217 -1.448571 0
M  V30 33 H -1.188554 -3.054005 -0.616738 0
M  V30 34 H 0.021766 -0.281218 -0.013304 0
M  V30 35 H 1.717144 -0.575319 -0.369557 0
M  V30 36 H -1.113847 3.440668 0.860986 0
M  V30 37 H -3.141833 3.821413 -0.375142 0
M  V30 38 H -3.003845 4.028199 -2.878142 0
M  V30 39 H -0.815817 3.839055 -4.009034 0
M  V30 40 H 1.240381 3.442765 -2.641524 0
M  V30 41 H 0.912128 -0.493755 3.736367 0
M  V30 42 H 1.925288 -1.857888 3.047041 0
M  V30 43 H -1.828427 -0.998339 1.330168 0
M  V30 44 H -0.781258 0.199151 2.192606 0
M  V30 45 H -2.014339 -0.708158 3.055048 0
M  V30 46 H -1.719075 -2.658819 3.924912 0
M  V30 47 H -0.409715 -1.787631 4.735780 0
M  V30 48 H -0.105845 -3.426292 4.110623 0
M  V30 END ATOM
M  V30 BEGIN BOND
M  V30 1 1 1 2
M  V30 2 2 2 3
M  V30 3 1 2 4
M  V30 4 1 4 5
M  V30 5 1 5 6
M  V30 6 1 5 7
M  V30 7 1 5 8
M  V30 8 1 8 9
M  V30 9 2 9 10 CFG=2
M  V30 10 1 10 11
M  V30 11 1 11 12
M  V30 12 2 12 13
M  V30 13 2 12 14
M  V30 14 1 12 15
M  V30 15 2 15 16
M  V30 16 1 16 17
M  V30 17 2 17 18
M  V30 18 1 18 19
M  V30 19 2 19 20
M  V30 20 1 9 21
M  V30 21 1 21 22
M  V30 22 1 22 23
M  V30 23 1 22 24
M  V30 24 1 22 4
M  V30 25 1 20 15
M  V30 26 1 1 25
M  V30 27 1 1 26
M  V30 28 1 1 27
M  V30 29 1 6 28
M  V30 30 1 6 29
M  V30 31 1 6 30
M  V30 32 1 7 31
M  V30 33 1 7 32
M  V30 34 1 7 33
M  V30 35 1 8 34
M  V30 36 1 8 35
M  V30 37 1 16 36
M  V30 38 1 17 37
M  V30 39 1 18 38
M  V30 40 1 19 39
M  V30 41 1 20 40
M  V30 42 1 21 41
M  V30 43 1 21 42
M  V30 44 1 23 43
M  V30 45 1 23 44
M  V30 46 1 23 45
M  V30 47 1 24 46
M  V30 48 1 24 47
M  V30 49 1 24 48
M  V30 END BOND
M  V30 END CTAB
M  END
>  <Dataset>  (408) 
ChEMBL_Kinases

>  <Ligand_Instance>  (408) 
nan

>  <PDB_ID>  (408) 
nan

>  <Standardized_SMILES>  (408) 
CC(=O)N1C(C)(C)CC(=NOS(=O)(=O)c2ccccc2)CC1(C)C

>  <Name>  (408) 
nan

>  <Pocket>  (408) 
nan

>  <ATP_Site>  (408) 
nan

>  <Peripheral>  (408) 
nan

>  <Num_H_Atoms_ProtBoundConf>  (408) 
nan

>  <Num_Resolved_Atoms>  (408) 
nan

>  <Num_Not_Resolved_Atoms>  (408) 
nan

$$$$
CHEMBL1333655
     RDKit          3D

  0  0  0  0  0  0  0  0  0  0999 V3000
M  V30 BEGIN CTAB
M  V30 COUNTS 33 37 0 0 0
M  V30 BEGIN ATOM
M  V30 1 C 2.104791 -5.240666 2.436462 0
M  V30 2 C 1.536255 -5.884693 3.640579 0
M  V30 3 S -0.136712 -5.017966 3.820414 0
M  V30 4 C 0.108634 -4.023343 2.427981 0
M  V30 5 C -0.791789 -3.018698 1.869382 0
M  V30 6 N -0.844467 -2.259062 0.983134 0
M  V30 7 N -1.826420 -1.454884 0.728848 0
M  V30 8 C -1.979374 -0.553378 -0.256129 0
M  V30 9 C -1.218421 -0.063508 -1.413415 0
M  V30 10 C 0.248773 -0.428943 -1.335807 0
M  V30 11 O 0.920995 0.311236 -0.316650 0
M  V30 12 C 0.900396 1.701779 -0.297786 0
M  V30 13 C 1.799838 2.607019 0.223414 0
M  V30 14 C 1.540555 3.952117 0.108218 0
M  V30 15 C 0.401378 4.413168 -0.516818 0
M  V30 16 C -0.529787 3.518798 -1.055468 0
M  V30 17 C -0.255246 2.153937 -0.932195 0
M  V30 18 O -1.244313 1.366166 -1.500800 0
M  V30 19 N -3.171168 0.014214 -0.067382 0
M  V30 20 N -3.801873 -0.453197 0.967627 0
M  V30 21 C -2.935732 -1.443171 1.533735 0
M  V30 22 S -2.427578 -2.746511 2.745816 0
M  V30 23 C 1.292805 -4.306713 1.898665 0
M  V30 24 H 3.080127 -5.600967 2.155046 0
M  V30 25 H 2.168282 -6.747162 4.224202 0
M  V30 26 H -1.636527 -0.483222 -2.329146 0
M  V30 27 H 0.703466 -0.113967 -2.307955 0
M  V30 28 H 0.430089 -1.492873 -1.113030 0
M  V30 29 H 2.644797 2.114101 0.683728 0
M  V30 30 H 2.299519 4.607280 0.545656 0
M  V30 31 H 0.241882 5.485350 -0.582330 0
M  V30 32 H -1.397700 3.928722 -1.530384 0
M  V30 33 H 1.715506 -3.823032 0.997495 0
M  V30 END ATOM
M  V30 BEGIN BOND
M  V30 1 2 1 2
M  V30 2 1 2 3
M  V30 3 1 3 4
M  V30 4 1 4 5
M  V30 5 2 5 6
M  V30 6 1 6 7
M  V30 7 1 7 8
M  V30 8 1 8 9
M  V30 9 1 9 10
M  V30 10 1 10 11
M  V30 11 1 11 12
M  V30 12 2 12 13
M  V30 13 1 13 14
M  V30 14 2 14 15
M  V30 15 1 15 16
M  V30 16 2 16 17
M  V30 17 1 17 18
M  V30 18 2 8 19
M  V30 19 1 19 20
M  V30 20 2 20 21
M  V30 21 1 21 22
M  V30 22 2 4 23
M  V30 23 1 23 1
M  V30 24 1 22 5
M  V30 25 1 21 7
M  V30 26 1 18 9
M  V30 27 1 17 12
M  V30 28 1 1 24
M  V30 29 1 2 25
M  V30 30 1 9 26
M  V30 31 1 10 27
M  V30 32 1 10 28
M  V30 33 1 13 29
M  V30 34 1 14 30
M  V30 35 1 15 31
M  V30 36 1 16 32
M  V30 37 1 23 33
M  V30 END BOND
M  V30 END CTAB
M  END
>  <Dataset>  (409) 
ChEMBL_Kinases

>  <Ligand_Instance>  (409) 
nan

>  <PDB_ID>  (409) 
nan

>  <Standardized_SMILES>  (409) 
c1csc(-c2nn3c(C4COc5ccccc5O4)nnc3s2)c1

>  <Name>  (409) 
nan

>  <Pocket>  (409) 
nan

>  <ATP_Site>  (409) 
nan

>  <Peripheral>  (409) 
nan

>  <Num_H_Atoms_ProtBoundConf>  (409) 
nan

>  <Num_Resolved_Atoms>  (409) 
nan

>  <Num_Not_Resolved_Atoms>  (409) 
nan

$$$$
CHEMBL1333716
     RDKit          3D

  0  0  0  0  0  0  0  0  0  0999 V3000
M  V30 BEGIN CTAB
M  V30 COUNTS 44 47 0 0 0
M  V30 BEGIN ATOM
M  V30 1 C 2.303330 -4.296781 3.002598 0
M  V30 2 O 3.122142 -3.464508 2.238488 0
M  V30 3 C 2.805595 -2.801515 1.078727 0
M  V30 4 O 1.752527 -3.397325 1.359591 0
M  V30 5 C 3.990128 -2.033705 0.618378 0
M  V30 6 S 3.670985 -1.118451 -0.901656 0
M  V30 7 C 2.484303 0.195927 -0.686967 0
M  V30 8 N 3.038443 1.388467 -0.325947 0
M  V30 9 N 2.037343 2.256145 -0.213064 0
M  V30 10 C 0.858499 1.668197 -0.487775 0
M  V30 11 C -0.536428 2.159340 -0.519007 0
M  V30 12 C -0.608488 3.492916 0.201727 0
M  V30 13 O -0.113911 3.284962 1.511323 0
M  V30 14 C -0.810566 2.338963 2.276967 0
M  V30 15 C -0.873884 2.328252 3.670500 0
M  V30 16 C -1.592259 1.345015 4.316494 0
M  V30 17 C -2.252990 0.366308 3.600215 0
M  V30 18 C -2.158093 0.423016 2.224122 0
M  V30 19 C -1.457432 1.378097 1.525544 0
M  V30 20 O -1.452786 1.305401 0.139495 0
M  V30 21 N 1.145772 0.380745 -0.782905 0
M  V30 22 C 0.388925 -0.738989 -1.150715 0
M  V30 23 C -0.331179 -1.533599 -0.276061 0
M  V30 24 C -1.067275 -2.636649 -0.707718 0
M  V30 25 C -1.089383 -2.961497 -2.051220 0
M  V30 26 C -0.367702 -2.166711 -2.935594 0
M  V30 27 C 0.357926 -1.077658 -2.501029 0
M  V30 28 H 2.886652 -4.700951 3.885177 0
M  V30 29 H 1.409646 -3.807799 3.418789 0
M  V30 30 H 1.953281 -5.204701 2.446508 0
M  V30 31 H 4.180624 -1.267495 1.420905 0
M  V30 32 H 4.836720 -2.730613 0.522994 0
M  V30 33 H -0.871673 2.412842 -1.549819 0
M  V30 34 H -1.684793 3.772920 0.278624 0
M  V30 35 H -0.031189 4.273469 -0.336969 0
M  V30 36 H -0.326187 3.133353 4.155518 0
M  V30 37 H -1.613912 1.375007 5.382594 0
M  V30 38 H -2.806608 -0.390642 4.131983 0
M  V30 39 H -2.685486 -0.356343 1.692525 0
M  V30 40 H -0.251661 -1.201034 0.751576 0
M  V30 41 H -1.600352 -3.197988 0.066066 0
M  V30 42 H -1.676976 -3.830573 -2.337933 0
M  V30 43 H -0.438336 -2.491550 -3.976737 0
M  V30 44 H 0.874594 -0.543084 -3.298728 0
M  V30 END ATOM
M  V30 BEGIN BOND
M  V30 1 1 1 2
M  V30 2 1 2 3
M  V30 3 2 3 4
M  V30 4 1 3 5
M  V30 5 1 5 6
M  V30 6 1 6 7
M  V30 7 2 7 8
M  V30 8 1 8 9
M  V30 9 2 9 10
M  V30 10 1 10 11
M  V30 11 1 11 12
M  V30 12 1 12 13
M  V30 13 1 13 14
M  V30 14 2 14 15
M  V30 15 1 15 16
M  V30 16 2 16 17
M  V30 17 1 17 18
M  V30 18 2 18 19
M  V30 19 1 19 20
M  V30 20 1 10 21
M  V30 21 1 21 22
M  V30 22 2 22 23
M  V30 23 1 23 24
M  V30 24 2 24 25
M  V30 25 1 25 26
M  V30 26 2 26 27
M  V30 27 1 21 7
M  V30 28 1 27 22
M  V30 29 1 20 11
M  V30 30 1 19 14
M  V30 31 1 1 28
M  V30 32 1 1 29
M  V30 33 1 1 30
M  V30 34 1 5 31
M  V30 35 1 5 32
M  V30 36 1 11 33
M  V30 37 1 12 34
M  V30 38 1 12 35
M  V30 39 1 15 36
M  V30 40 1 16 37
M  V30 41 1 17 38
M  V30 42 1 18 39
M  V30 43 1 23 40
M  V30 44 1 24 41
M  V30 45 1 25 42
M  V30 46 1 26 43
M  V30 47 1 27 44
M  V30 END BOND
M  V30 END CTAB
M  END
>  <Dataset>  (410) 
ChEMBL_Kinases

>  <Ligand_Instance>  (410) 
nan

>  <PDB_ID>  (410) 
nan

>  <Standardized_SMILES>  (410) 
COC(=O)CSc1nnc(C2COc3ccccc3O2)n1-c1ccccc1

>  <Name>  (410) 
nan

>  <Pocket>  (410) 
nan

>  <ATP_Site>  (410) 
nan

>  <Peripheral>  (410) 
nan

>  <Num_H_Atoms_ProtBoundConf>  (410) 
nan

>  <Num_Resolved_Atoms>  (410) 
nan

>  <Num_Not_Resolved_Atoms>  (410) 
nan

$$$$
CHEMBL1333791
     RDKit          3D

  0  0  0  0  0  0  0  0  0  0999 V3000
M  V30 BEGIN CTAB
M  V30 COUNTS 54 58 0 0 0
M  V30 BEGIN ATOM
M  V30 1 C 6.456736 -0.794906 -0.176372 0
M  V30 2 O 6.781919 -0.822697 1.188391 0
M  V30 3 C 5.846477 -0.600786 2.206329 0
M  V30 4 C 6.410166 -0.677019 3.475790 0
M  V30 5 C 5.587284 -0.475190 4.565366 0
M  V30 6 C 4.276827 -0.215810 4.298529 0
M  V30 7 C 3.643008 -0.123641 3.084076 0
M  V30 8 C 2.262460 0.162344 2.767844 0
M  V30 9 C 1.274360 0.422264 3.700327 0
M  V30 10 C -0.050926 0.700809 3.331174 0
M  V30 11 C -1.092962 0.975200 4.335724 0
M  V30 12 F -1.406257 -0.132007 5.102413 0
M  V30 13 F -2.224896 1.450451 3.665487 0
M  V30 14 F -0.684809 2.017762 5.140824 0
M  V30 15 N -0.349657 0.708620 1.989574 0
M  V30 16 N -1.465497 0.924783 1.307264 0
M  V30 17 C -1.235301 0.813944 -0.036778 0
M  V30 18 C -2.287224 0.997448 -1.030659 0
M  V30 19 O -2.050710 1.974267 -1.770207 0
M  V30 20 N -3.391679 0.084935 -1.028532 0
M  V30 21 C -3.580675 -1.041220 -0.126545 0
M  V30 22 C -4.317713 -2.172617 -0.772196 0
M  V30 23 C -4.039656 -2.117036 -2.268806 0
M  V30 24 C -4.794393 -0.911880 -2.788556 0
M  V30 25 C -4.419381 0.318928 -2.024795 0
M  V30 26 O -2.695462 -2.031585 -2.517886 0
M  V30 27 C -2.220502 -3.204265 -3.037782 0
M  V30 28 C -3.398130 -4.149581 -2.907022 0
M  V30 29 O -4.513424 -3.277322 -2.872656 0
M  V30 30 C 0.102684 0.511626 -0.184689 0
M  V30 31 C 0.612646 0.455255 1.096811 0
M  V30 32 N 1.865095 0.194390 1.489554 0
M  V30 33 C 4.520550 -0.335957 2.012466 0
M  V30 34 H 7.217827 -1.430803 -0.690941 0
M  V30 35 H 6.520250 0.222303 -0.613051 0
M  V30 36 H 5.460814 -1.217160 -0.367153 0
M  V30 37 H 7.452914 -0.883420 3.662096 0
M  V30 38 H 5.908400 -0.507168 5.604657 0
M  V30 39 H 3.599941 -0.054525 5.155482 0
M  V30 40 H 1.559431 0.403007 4.740257 0
M  V30 41 H -4.108287 -0.756712 0.797106 0
M  V30 42 H -2.575751 -1.428886 0.185004 0
M  V30 43 H -3.927115 -3.133734 -0.388791 0
M  V30 44 H -5.404484 -2.088316 -0.644190 0
M  V30 45 H -5.869179 -1.112491 -2.680901 0
M  V30 46 H -4.577869 -0.796488 -3.879903 0
M  V30 47 H -5.290882 0.730667 -1.519072 0
M  V30 48 H -4.104087 1.092405 -2.767085 0
M  V30 49 H -1.940835 -3.106021 -4.093006 0
M  V30 50 H -1.410782 -3.628488 -2.410773 0
M  V30 51 H -3.346328 -4.725215 -1.965926 0
M  V30 52 H -3.534830 -4.781524 -3.797036 0
M  V30 53 H 0.605897 0.358286 -1.111316 0
M  V30 54 H 4.234957 -0.308677 0.978777 0
M  V30 END ATOM
M  V30 BEGIN BOND
M  V30 1 1 1 2
M  V30 2 1 2 3
M  V30 3 2 3 4
M  V30 4 1 4 5
M  V30 5 2 5 6
M  V30 6 1 6 7
M  V30 7 1 7 8
M  V30 8 1 8 9
M  V30 9 2 9 10
M  V30 10 1 10 11
M  V30 11 1 11 12
M  V30 12 1 11 13
M  V30 13 1 11 14
M  V30 14 1 10 15
M  V30 15 1 15 16
M  V30 16 2 16 17
M  V30 17 1 17 18
M  V30 18 2 18 19
M  V30 19 1 18 20
M  V30 20 1 20 21
M  V30 21 1 21 22
M  V30 22 1 22 23
M  V30 23 1 23 24
M  V30 24 1 24 25
M  V30 25 1 23 26
M  V30 26 1 26 27
M  V30 27 1 27 28
M  V30 28 1 28 29
M  V30 29 1 17 30
M  V30 30 2 30 31
M  V30 31 1 31 32
M  V30 32 2 7 33
M  V30 33 1 33 3
M  V30 34 2 32 8
M  V30 35 1 31 15
M  V30 36 1 25 20
M  V30 37 1 29 23
M  V30 38 1 1 34
M  V30 39 1 1 35
M  V30 40 1 1 36
M  V30 41 1 4 37
M  V30 42 1 5 38
M  V30 43 1 6 39
M  V30 44 1 9 40
M  V30 45 1 21 41
M  V30 46 1 21 42
M  V30 47 1 22 43
M  V30 48 1 22 44
M  V30 49 1 24 45
M  V30 50 1 24 46
M  V30 51 1 25 47
M  V30 52 1 25 48
M  V30 53 1 27 49
M  V30 54 1 27 50
M  V30 55 1 28 51
M  V30 56 1 28 52
M  V30 57 1 30 53
M  V30 58 1 33 54
M  V30 END BOND
M  V30 END CTAB
M  END
>  <Dataset>  (411) 
ChEMBL_Kinases

>  <Ligand_Instance>  (411) 
nan

>  <PDB_ID>  (411) 
nan

>  <Standardized_SMILES>  (411) 
COc1cccc(-c2cc(C(F)(F)F)n3nc(C(=O)N4CCC5(CC4)OCCO5)cc3n2)c1

>  <Name>  (411) 
nan

>  <Pocket>  (411) 
nan

>  <ATP_Site>  (411) 
nan

>  <Peripheral>  (411) 
nan

>  <Num_H_Atoms_ProtBoundConf>  (411) 
nan

>  <Num_Resolved_Atoms>  (411) 
nan

>  <Num_Not_Resolved_Atoms>  (411) 
nan

$$$$
CHEMBL1333793
     RDKit          3D

  0  0  0  0  0  0  0  0  0  0999 V3000
M  V30 BEGIN CTAB
M  V30 COUNTS 26 28 0 0 0
M  V30 BEGIN ATOM
M  V30 1 C -3.274189 -1.461168 2.239940 0
M  V30 2 C -2.367905 -0.760165 1.261841 0
M  V30 3 C -1.012330 -0.927194 1.426444 0
M  V30 4 C -0.152042 -0.291719 0.538093 0
M  V30 5 C 1.266371 -0.523626 0.786844 0
M  V30 6 C 1.780606 -0.447475 2.071632 0
M  V30 7 C 3.118814 -0.668185 2.292001 0
M  V30 8 C 3.976167 -0.967086 1.258893 0
M  V30 9 C 3.445476 -1.040959 -0.031879 0
M  V30 10 C 2.115310 -0.819096 -0.232414 0
M  V30 11 N -0.680070 0.459685 -0.445016 0
M  V30 12 N -0.041901 1.139354 -1.382851 0
M  V30 13 C -0.975766 1.729539 -2.132407 0
M  V30 14 N -2.203950 1.421348 -1.666267 0
M  V30 15 C -2.000780 0.614768 -0.595144 0
M  V30 16 N -2.855076 0.010278 0.251462 0
M  V30 17 H -3.035660 -2.545225 2.253616 0
M  V30 18 H -2.995956 -1.043889 3.232470 0
M  V30 19 H -4.312850 -1.311559 1.945019 0
M  V30 20 H -0.649051 -1.543573 2.235944 0
M  V30 21 H 1.117122 -0.209887 2.917867 0
M  V30 22 H 3.570525 -0.620923 3.274256 0
M  V30 23 H 5.043097 -1.157587 1.326308 0
M  V30 24 H 4.085512 -1.274494 -0.880710 0
M  V30 25 H 1.701374 -0.874806 -1.224991 0
M  V30 26 H -0.886892 2.376715 -3.002808 0
M  V30 END ATOM
M  V30 BEGIN BOND
M  V30 1 1 1 2
M  V30 2 1 2 3
M  V30 3 2 3 4
M  V30 4 1 4 5
M  V30 5 2 5 6
M  V30 6 1 6 7
M  V30 7 2 7 8
M  V30 8 1 8 9
M  V30 9 2 9 10
M  V30 10 1 4 11
M  V30 11 1 11 12
M  V30 12 2 12 13
M  V30 13 1 13 14
M  V30 14 2 14 15
M  V30 15 1 15 16
M  V30 16 2 16 2
M  V30 17 1 10 5
M  V30 18 1 15 11
M  V30 19 1 1 17
M  V30 20 1 1 18
M  V30 21 1 1 19
M  V30 22 1 3 20
M  V30 23 1 6 21
M  V30 24 1 7 22
M  V30 25 1 8 23
M  V30 26 1 9 24
M  V30 27 1 10 25
M  V30 28 1 13 26
M  V30 END BOND
M  V30 END CTAB
M  END
>  <Dataset>  (412) 
ChEMBL_Kinases

>  <Ligand_Instance>  (412) 
nan

>  <PDB_ID>  (412) 
nan

>  <Standardized_SMILES>  (412) 
Cc1cc(-c2ccccc2)n2ncnc2n1

>  <Name>  (412) 
nan

>  <Pocket>  (412) 
nan

>  <ATP_Site>  (412) 
nan

>  <Peripheral>  (412) 
nan

>  <Num_H_Atoms_ProtBoundConf>  (412) 
nan

>  <Num_Resolved_Atoms>  (412) 
nan

>  <Num_Not_Resolved_Atoms>  (412) 
nan

$$$$
CHEMBL1333797
     RDKit          3D

  0  0  0  0  0  0  0  0  0  0999 V3000
M  V30 BEGIN CTAB
M  V30 COUNTS 44 47 0 0 0
M  V30 BEGIN ATOM
M  V30 1 C -4.208236 -5.008433 -1.276634 0
M  V30 2 C -3.704970 -4.355390 -0.031574 0
M  V30 3 O -2.978335 -3.144091 -0.286409 0
M  V30 4 C -1.836801 -3.129276 -1.059798 0
M  V30 5 O -1.356388 -4.164615 -1.591042 0
M  V30 6 N -1.182796 -1.883151 -1.258413 0
M  V30 7 C -1.697964 -0.640939 -0.662504 0
M  V30 8 C -0.885389 0.544277 -1.128946 0
M  V30 9 C 0.555685 0.383290 -0.797326 0
M  V30 10 C 1.019718 -0.860912 -1.313830 0
M  V30 11 S 2.763447 -0.899055 -0.825439 0
M  V30 12 C 2.763711 0.647936 -0.014864 0
M  V30 13 C 1.486766 1.120373 -0.139762 0
M  V30 14 C 1.237465 2.424627 0.468879 0
M  V30 15 O 0.148272 3.046763 0.476851 0
M  V30 16 N 2.311136 3.082001 1.124632 0
M  V30 17 C 3.487769 2.410604 1.642070 0
M  V30 18 C 3.075114 1.799592 2.942790 0
M  V30 19 C 3.472252 0.485895 3.188344 0
M  V30 20 C 3.105059 -0.102192 4.380710 0
M  V30 21 C 2.352818 0.570042 5.345531 0
M  V30 22 C 1.969022 1.887696 5.070368 0
M  V30 23 C 2.337439 2.475665 3.875664 0
M  V30 24 N 3.791564 1.374046 0.665407 0
M  V30 25 C 0.042571 -1.768562 -2.069855 0
M  V30 26 H -4.467200 -6.053954 -1.020359 0
M  V30 27 H -3.458042 -5.064532 -2.075949 0
M  V30 28 H -5.165976 -4.543386 -1.627332 0
M  V30 29 H -4.537709 -4.163839 0.659566 0
M  V30 30 H -3.015278 -5.080316 0.461510 0
M  V30 31 H -1.724666 -0.709009 0.443610 0
M  V30 32 H -2.721786 -0.509655 -1.047936 0
M  V30 33 H -1.286916 1.418585 -0.569890 0
M  V30 34 H -1.052966 0.761979 -2.187369 0
M  V30 35 H 2.288021 4.136761 1.265545 0
M  V30 36 H 4.322997 3.095966 1.767477 0
M  V30 37 H 4.052912 -0.083519 2.483324 0
M  V30 38 H 3.423098 -1.127703 4.556430 0
M  V30 39 H 2.094501 0.053770 6.265056 0
M  V30 40 H 1.393122 2.368143 5.835906 0
M  V30 41 H 2.024789 3.505957 3.685431 0
M  V30 42 H 4.777487 1.104011 0.408124 0
M  V30 43 H 0.508255 -2.781145 -2.114417 0
M  V30 44 H -0.125688 -1.295125 -3.035987 0
M  V30 END ATOM
M  V30 BEGIN BOND
M  V30 1 1 1 2
M  V30 2 1 2 3
M  V30 3 1 3 4
M  V30 4 2 4 5
M  V30 5 1 4 6
M  V30 6 1 6 7
M  V30 7 1 7 8
M  V30 8 1 8 9
M  V30 9 2 9 10
M  V30 10 1 10 11
M  V30 11 1 11 12
M  V30 12 2 12 13
M  V30 13 1 13 14
M  V30 14 2 14 15
M  V30 15 1 14 16
M  V30 16 1 16 17
M  V30 17 1 17 18
M  V30 18 2 18 19
M  V30 19 1 19 20
M  V30 20 2 20 21
M  V30 21 1 21 22
M  V30 22 2 22 23
M  V30 23 1 17 24
M  V30 24 1 10 25
M  V30 25 1 25 6
M  V30 26 1 13 9
M  V30 27 1 23 18
M  V30 28 1 24 12
M  V30 29 1 1 26
M  V30 30 1 1 27
M  V30 31 1 1 28
M  V30 32 1 2 29
M  V30 33 1 2 30
M  V30 34 1 7 31
M  V30 35 1 7 32
M  V30 36 1 8 33
M  V30 37 1 8 34
M  V30 38 1 16 35
M  V30 39 1 17 36
M  V30 40 1 19 37
M  V30 41 1 20 38
M  V30 42 1 21 39
M  V30 43 1 22 40
M  V30 44 1 23 41
M  V30 45 1 24 42
M  V30 46 1 25 43
M  V30 47 1 25 44
M  V30 END BOND
M  V30 END CTAB
M  END
>  <Dataset>  (413) 
ChEMBL_Kinases

>  <Ligand_Instance>  (413) 
nan

>  <PDB_ID>  (413) 
nan

>  <Standardized_SMILES>  (413) 
CCOC(=O)N1CCc2c(sc3c2C(=O)NC(c2ccccc2)N3)C1

>  <Name>  (413) 
nan

>  <Pocket>  (413) 
nan

>  <ATP_Site>  (413) 
nan

>  <Peripheral>  (413) 
nan

>  <Num_H_Atoms_ProtBoundConf>  (413) 
nan

>  <Num_Resolved_Atoms>  (413) 
nan

>  <Num_Not_Resolved_Atoms>  (413) 
nan

$$$$
CHEMBL1333951
     RDKit          3D

  0  0  0  0  0  0  0  0  0  0999 V3000
M  V30 BEGIN CTAB
M  V30 COUNTS 48 50 0 0 0
M  V30 BEGIN ATOM
M  V30 1 C 4.061071 -5.935102 -0.708791 0
M  V30 2 C 4.123056 -4.525732 -0.163865 0
M  V30 3 C 4.496510 -3.550123 -1.245350 0
M  V30 4 C 4.582086 -2.136007 -0.755962 0
M  V30 5 C 3.268803 -1.685620 -0.195292 0
M  V30 6 C 2.116263 -1.718767 -1.153965 0
M  V30 7 N 0.882281 -1.271024 -0.544412 0
M  V30 8 C 0.633851 -0.001469 0.010554 0
M  V30 9 O 1.609858 0.802064 -0.052311 0
M  V30 10 C -0.561180 0.533827 0.642983 0
M  V30 11 C -0.516149 1.838146 1.094216 0
M  V30 12 O 0.608423 2.677039 0.979303 0
M  V30 13 C -1.637921 2.409810 1.713876 0
M  V30 14 C -1.576164 3.712589 2.158422 0
M  V30 15 C -2.637456 4.337415 2.774753 0
M  V30 16 C -3.773242 3.569984 2.919321 0
M  V30 17 C -3.901223 2.268587 2.499787 0
M  V30 18 C -2.800834 1.685967 1.884057 0
M  V30 19 N -2.847357 0.414522 1.445317 0
M  V30 20 C -1.759132 -0.108566 0.855489 0
M  V30 21 O -1.868725 -1.294457 0.470798 0
M  V30 22 C -4.049132 -0.350978 1.616475 0
M  V30 23 C -5.293281 0.500093 1.675231 0
M  V30 24 C -5.193002 1.570348 2.725518 0
M  V30 25 H 3.203892 -6.501983 -0.288177 0
M  V30 26 H 4.032613 -5.965002 -1.814093 0
M  V30 27 H 5.007508 -6.436425 -0.411367 0
M  V30 28 H 4.820727 -4.433577 0.681744 0
M  V30 29 H 3.105361 -4.255190 0.237770 0
M  V30 30 H 3.707481 -3.644564 -2.048492 0
M  V30 31 H 5.488535 -3.815850 -1.682723 0
M  V30 32 H 5.286813 -2.164214 0.129027 0
M  V30 33 H 4.967772 -1.433133 -1.493275 0
M  V30 34 H 3.355503 -0.648753 0.254866 0
M  V30 35 H 2.963522 -2.305227 0.690915 0
M  V30 36 H 1.983197 -2.794042 -1.434467 0
M  V30 37 H 2.332186 -1.176193 -2.098687 0
M  V30 38 H 0.075842 -1.930771 -0.495559 0
M  V30 39 H 1.202887 2.786518 1.778057 0
M  V30 40 H -0.672234 4.306043 2.037101 0
M  V30 41 H -2.594895 5.359566 3.125586 0
M  V30 42 H -4.615986 4.071749 3.410647 0
M  V30 43 H -4.153714 -1.025517 0.740368 0
M  V30 44 H -3.932197 -0.994882 2.498742 0
M  V30 45 H -5.514562 0.986324 0.708903 0
M  V30 46 H -6.133133 -0.160625 1.942353 0
M  V30 47 H -5.084696 1.036560 3.710143 0
M  V30 48 H -6.055801 2.229432 2.669190 0
M  V30 END ATOM
M  V30 BEGIN BOND
M  V30 1 1 1 2
M  V30 2 1 2 3
M  V30 3 1 3 4
M  V30 4 1 4 5
M  V30 5 1 5 6
M  V30 6 1 6 7
M  V30 7 1 7 8
M  V30 8 2 8 9
M  V30 9 1 8 10
M  V30 10 2 10 11
M  V30 11 1 11 12
M  V30 12 1 11 13
M  V30 13 2 13 14
M  V30 14 1 14 15
M  V30 15 2 15 16
M  V30 16 1 16 17
M  V30 17 2 17 18
M  V30 18 1 18 19
M  V30 19 1 19 20
M  V30 20 2 20 21
M  V30 21 1 19 22
M  V30 22 1 22 23
M  V30 23 1 23 24
M  V30 24 1 20 10
M  V30 25 1 18 13
M  V30 26 1 24 17
M  V30 27 1 1 25
M  V30 28 1 1 26
M  V30 29 1 1 27
M  V30 30 1 2 28
M  V30 31 1 2 29
M  V30 32 1 3 30
M  V30 33 1 3 31
M  V30 34 1 4 32
M  V30 35 1 4 33
M  V30 36 1 5 34
M  V30 37 1 5 35
M  V30 38 1 6 36
M  V30 39 1 6 37
M  V30 40 1 7 38
M  V30 41 1 12 39
M  V30 42 1 14 40
M  V30 43 1 15 41
M  V30 44 1 16 42
M  V30 45 1 22 43
M  V30 46 1 22 44
M  V30 47 1 23 45
M  V30 48 1 23 46
M  V30 49 1 24 47
M  V30 50 1 24 48
M  V30 END BOND
M  V30 END CTAB
M  END
>  <Dataset>  (414) 
ChEMBL_Kinases

>  <Ligand_Instance>  (414) 
nan

>  <PDB_ID>  (414) 
nan

>  <Standardized_SMILES>  (414) 
CCCCCCNC(=O)c1c(O)c2cccc3c2n(c1=O)CCC3

>  <Name>  (414) 
nan

>  <Pocket>  (414) 
nan

>  <ATP_Site>  (414) 
nan

>  <Peripheral>  (414) 
nan

>  <Num_H_Atoms_ProtBoundConf>  (414) 
nan

>  <Num_Resolved_Atoms>  (414) 
nan

>  <Num_Not_Resolved_Atoms>  (414) 
nan

$$$$
CHEMBL1334684
     RDKit          3D

  0  0  0  0  0  0  0  0  0  0999 V3000
M  V30 BEGIN CTAB
M  V30 COUNTS 48 51 0 0 0
M  V30 BEGIN ATOM
M  V30 1 O 1.015444 -3.347856 1.725576 0
M  V30 2 C 0.910266 -2.152014 1.372355 0
M  V30 3 O 2.024536 -1.697225 0.698563 0
M  V30 4 C 3.159038 -2.435799 0.416852 0
M  V30 5 C 4.446288 -1.955201 0.989689 0
M  V30 6 C 5.468480 -3.067842 0.737151 0
M  V30 7 C 5.533914 -3.454135 -0.716478 0
M  V30 8 C 4.159569 -3.838221 -1.267321 0
M  V30 9 C 3.277379 -2.615917 -1.082493 0
M  V30 10 C -0.296535 -1.394955 1.681625 0
M  V30 11 C -1.274062 -2.076927 2.367942 0
M  V30 12 C -2.423126 -1.331154 2.654004 0
M  V30 13 C -2.543778 -0.012771 2.266769 0
M  V30 14 C -1.521921 0.645617 1.567672 0
M  V30 15 C -0.400159 -0.080653 1.287808 0
M  V30 16 C -1.808123 2.042846 1.231272 0
M  V30 17 C -1.047391 2.616213 0.120283 0
M  V30 18 C -1.821455 3.379658 -0.675317 0
M  V30 19 C -3.203358 3.341595 -0.092174 0
M  V30 20 C -3.205905 2.006053 0.592224 0
M  V30 21 C -4.187368 1.867417 1.715635 0
M  V30 22 C -5.552243 1.539670 1.232723 0
M  V30 23 O -6.245836 2.293888 0.475660 0
M  V30 24 O -6.679998 0.747838 1.123233 0
M  V30 25 N -3.723297 0.755679 2.559433 0
M  V30 26 H 2.990611 -3.465078 0.841920 0
M  V30 27 H 4.856365 -1.040536 0.536410 0
M  V30 28 H 4.358131 -1.883885 2.098632 0
M  V30 29 H 5.092043 -3.974766 1.274037 0
M  V30 30 H 6.480301 -2.798294 1.047228 0
M  V30 31 H 6.119026 -4.413769 -0.737841 0
M  V30 32 H 5.982303 -2.707906 -1.370532 0
M  V30 33 H 3.711598 -4.657196 -0.682033 0
M  V30 34 H 4.271085 -4.044522 -2.335024 0
M  V30 35 H 2.299346 -2.755591 -1.542649 0
M  V30 36 H 3.819791 -1.729349 -1.498324 0
M  V30 37 H -1.194182 -3.090806 2.671765 0
M  V30 38 H -3.267060 -1.779533 3.199282 0
M  V30 39 H 0.375101 0.449593 0.747073 0
M  V30 40 H -1.839841 2.702488 2.123064 0
M  V30 41 H 0.014096 2.539223 -0.175733 0
M  V30 42 H -1.589837 3.946107 -1.573983 0
M  V30 43 H -3.927321 3.271263 -0.947625 0
M  V30 44 H -3.416998 4.158200 0.595817 0
M  V30 45 H -3.282636 1.165277 -0.098438 0
M  V30 46 H -4.241354 2.821023 2.268773 0
M  V30 47 H -6.661559 -0.153840 0.653654 0
M  V30 48 H -4.265344 0.498878 3.416562 0
M  V30 END ATOM
M  V30 BEGIN BOND
M  V30 1 2 1 2
M  V30 2 1 2 3
M  V30 3 1 3 4
M  V30 4 1 4 5
M  V30 5 1 5 6
M  V30 6 1 6 7
M  V30 7 1 7 8
M  V30 8 1 8 9
M  V30 9 1 2 10
M  V30 10 2 10 11
M  V30 11 1 11 12
M  V30 12 2 12 13
M  V30 13 1 13 14
M  V30 14 2 14 15
M  V30 15 1 14 16
M  V30 16 1 16 17
M  V30 17 2 17 18
M  V30 18 1 18 19
M  V30 19 1 19 20
M  V30 20 1 20 21
M  V30 21 1 21 22
M  V30 22 2 22 23
M  V30 23 1 22 24
M  V30 24 1 21 25
M  V30 25 1 9 4
M  V30 26 1 15 10
M  V30 27 1 20 16
M  V30 28 1 25 13
M  V30 29 1 4 26
M  V30 30 1 5 27
M  V30 31 1 5 28
M  V30 32 1 6 29
M  V30 33 1 6 30
M  V30 34 1 7 31
M  V30 35 1 7 32
M  V30 36 1 8 33
M  V30 37 1 8 34
M  V30 38 1 9 35
M  V30 39 1 9 36
M  V30 40 1 11 37
M  V30 41 1 12 38
M  V30 42 1 15 39
M  V30 43 1 16 40
M  V30 44 1 17 41
M  V30 45 1 18 42
M  V30 46 1 19 43
M  V30 47 1 19 44
M  V30 48 1 20 45
M  V30 49 1 21 46
M  V30 50 1 24 47
M  V30 51 1 25 48
M  V30 END BOND
M  V30 END CTAB
M  END
>  <Dataset>  (415) 
ChEMBL_Kinases

>  <Ligand_Instance>  (415) 
nan

>  <PDB_ID>  (415) 
nan

>  <Standardized_SMILES>  (415) 
O=C(OC1CCCCC1)c1ccc2c(c1)C1C=CCC1C(C(=O)O)N2

>  <Name>  (415) 
nan

>  <Pocket>  (415) 
nan

>  <ATP_Site>  (415) 
nan

>  <Peripheral>  (415) 
nan

>  <Num_H_Atoms_ProtBoundConf>  (415) 
nan

>  <Num_Resolved_Atoms>  (415) 
nan

>  <Num_Not_Resolved_Atoms>  (415) 
nan

$$$$
CHEMBL1333962
     RDKit          3D

  0  0  0  0  0  0  0  0  0  0999 V3000
M  V30 BEGIN CTAB
M  V30 COUNTS 61 65 0 0 0
M  V30 BEGIN ATOM
M  V30 1 C 1.389046 -2.238669 7.112910 0
M  V30 2 O 1.629143 -2.856087 5.861613 0
M  V30 3 C 2.076233 -2.121918 4.779222 0
M  V30 4 C 2.307232 -0.772309 4.864203 0
M  V30 5 C 2.752773 0.010445 3.818508 0
M  V30 6 C 2.966284 -0.653871 2.626684 0
M  V30 7 C 3.439697 0.039733 1.416129 0
M  V30 8 N 4.508476 0.774544 1.062358 0
M  V30 9 O 4.405544 1.145931 -0.166005 0
M  V30 10 C 3.298892 0.702326 -0.705607 0
M  V30 11 C 2.615892 0.776362 -2.030936 0
M  V30 12 S 1.517942 2.199370 -2.121222 0
M  V30 13 C 0.147244 2.051886 -0.985905 0
M  V30 14 N 0.179261 2.499285 0.287538 0
M  V30 15 N -0.992648 2.229836 0.839802 0
M  V30 16 C -1.796705 1.604584 -0.070272 0
M  V30 17 C -3.170159 1.208292 0.313909 0
M  V30 18 C -3.295287 -0.149195 0.908979 0
M  V30 19 C -2.837990 -1.225154 0.003171 0
M  V30 20 C -3.709871 -1.825592 -0.888065 0
M  V30 21 C -3.238373 -2.846386 -1.716496 0
M  V30 22 C -1.946023 -3.292626 -1.696776 0
M  V30 23 C -1.058230 -2.700067 -0.807899 0
M  V30 24 C -1.513054 -1.675394 0.030025 0
M  V30 25 N -1.061858 1.513575 -1.178832 0
M  V30 26 C -1.533259 0.934765 -2.364132 0
M  V30 27 C -1.041038 -0.154813 -3.049211 0
M  V30 28 C -1.577511 -0.645910 -4.211994 0
M  V30 29 C -2.675765 -0.023106 -4.740581 0
M  V30 30 C -3.214077 1.084452 -4.087210 0
M  V30 31 C -2.642214 1.552932 -2.910193 0
M  V30 32 N 2.695350 0.012521 0.278716 0
M  V30 33 C 2.747237 -2.021749 2.487965 0
M  V30 34 C 2.299107 -2.752576 3.577221 0
M  V30 35 O 2.065463 -4.115599 3.492515 0
M  V30 36 C 2.279599 -4.816069 2.274090 0
M  V30 37 H 0.440672 -1.641005 7.070066 0
M  V30 38 H 1.233403 -3.062147 7.844414 0
M  V30 39 H 2.172408 -1.525055 7.387646 0
M  V30 40 H 2.140372 -0.241683 5.801920 0
M  V30 41 H 2.935987 1.073989 3.881782 0
M  V30 42 H 3.438976 0.983202 -2.770339 0
M  V30 43 H 2.164989 -0.176467 -2.306837 0
M  V30 44 H -3.617450 1.978134 1.010710 0
M  V30 45 H -3.857588 1.264909 -0.581441 0
M  V30 46 H -4.381410 -0.363456 1.098498 0
M  V30 47 H -2.814873 -0.245085 1.905002 0
M  V30 48 H -4.721829 -1.452474 -0.880418 0
M  V30 49 H -4.035866 -3.226473 -2.367364 0
M  V30 50 H -1.670371 -4.092570 -2.378633 0
M  V30 51 H -0.032863 -3.038689 -0.777065 0
M  V30 52 H -0.797954 -1.224664 0.720111 0
M  V30 53 H -0.172799 -0.616924 -2.601378 0
M  V30 54 H -1.097189 -1.520744 -4.666007 0
M  V30 55 H -3.078971 -0.433210 -5.660761 0
M  V30 56 H -4.074811 1.483719 -4.602424 0
M  V30 57 H -3.206836 2.415279 -2.569590 0
M  V30 58 H 2.917064 -2.540636 1.547014 0
M  V30 59 H 3.396741 -4.813814 2.134019 0
M  V30 60 H 1.749341 -4.261029 1.474241 0
M  V30 61 H 1.926693 -5.837471 2.418042 0
M  V30 END ATOM
M  V30 BEGIN BOND
M  V30 1 1 1 2
M  V30 2 1 2 3
M  V30 3 2 3 4
M  V30 4 1 4 5
M  V30 5 2 5 6
M  V30 6 1 6 7
M  V30 7 2 7 8
M  V30 8 1 8 9
M  V30 9 1 9 10
M  V30 10 1 10 11
M  V30 11 1 11 12
M  V30 12 1 12 13
M  V30 13 2 13 14
M  V30 14 1 14 15
M  V30 15 2 15 16
M  V30 16 1 16 17
M  V30 17 1 17 18
M  V30 18 1 18 19
M  V30 19 2 19 20
M  V30 20 1 20 21
M  V30 21 2 21 22
M  V30 22 1 22 23
M  V30 23 2 23 24
M  V30 24 1 16 25
M  V30 25 1 25 26
M  V30 26 2 26 27
M  V30 27 1 27 28
M  V30 28 2 28 29
M  V30 29 1 29 30
M  V30 30 2 30 31
M  V30 31 2 10 32
M  V30 32 1 6 33
M  V30 33 2 33 34
M  V30 34 1 34 35
M  V30 35 1 35 36
M  V30 36 1 34 3
M  V30 37 1 32 7
M  V30 38 1 25 13
M  V30 39 1 31 26
M  V30 40 1 24 19
M  V30 41 1 1 37
M  V30 42 1 1 38
M  V30 43 1 1 39
M  V30 44 1 4 40
M  V30 45 1 5 41
M  V30 46 1 11 42
M  V30 47 1 11 43
M  V30 48 1 17 44
M  V30 49 1 17 45
M  V30 50 1 18 46
M  V30 51 1 18 47
M  V30 52 1 20 48
M  V30 53 1 21 49
M  V30 54 1 22 50
M  V30 55 1 23 51
M  V30 56 1 24 52
M  V30 57 1 27 53
M  V30 58 1 28 54
M  V30 59 1 29 55
M  V30 60 1 30 56
M  V30 61 1 31 57
M  V30 62 1 33 58
M  V30 63 1 36 59
M  V30 64 1 36 60
M  V30 65 1 36 61
M  V30 END BOND
M  V30 END CTAB
M  END
>  <Dataset>  (416) 
ChEMBL_Kinases

>  <Ligand_Instance>  (416) 
nan

>  <PDB_ID>  (416) 
nan

>  <Standardized_SMILES>  (416) 
COc1ccc(-c2noc(CSc3nnc(CCc4ccccc4)n3-c3ccccc3)n2)cc1OC

>  <Name>  (416) 
nan

>  <Pocket>  (416) 
nan

>  <ATP_Site>  (416) 
nan

>  <Peripheral>  (416) 
nan

>  <Num_H_Atoms_ProtBoundConf>  (416) 
nan

>  <Num_Resolved_Atoms>  (416) 
nan

>  <Num_Not_Resolved_Atoms>  (416) 
nan

$$$$
CHEMBL1334000
     RDKit          3D

  0  0  0  0  0  0  0  0  0  0999 V3000
M  V30 BEGIN CTAB
M  V30 COUNTS 42 45 0 0 0
M  V30 BEGIN ATOM
M  V30 1 C 1.384118 -3.897859 -3.338797 0
M  V30 2 C 1.506706 -4.626892 -2.078135 0
M  V30 3 C 1.610752 -5.986325 -1.929324 0
M  V30 4 C 1.718746 -6.550040 -0.681068 0
M  V30 5 C 1.727725 -5.775256 0.477287 0
M  V30 6 C 1.621200 -4.386251 0.318558 0
M  V30 7 C 1.511472 -3.822385 -0.959993 0
M  V30 8 C 1.414791 -2.368305 -0.844500 0
M  V30 9 O 2.430289 -1.801347 -0.300176 0
M  V30 10 N 0.397288 -1.475503 -1.226398 0
M  V30 11 C 0.572058 -0.077874 -0.990043 0
M  V30 12 C 1.135300 0.800913 -1.894132 0
M  V30 13 C 1.275776 2.158084 -1.586212 0
M  V30 14 C 0.829467 2.598918 -0.335383 0
M  V30 15 C 0.265653 1.745521 0.583102 0
M  V30 16 C -0.197063 2.194092 1.892373 0
M  V30 17 C -0.777840 1.363504 2.857785 0
M  V30 18 N -1.044517 2.205685 3.898793 0
M  V30 19 C -1.602882 1.931396 5.083564 0
M  V30 20 C -1.835407 2.847761 6.083981 0
M  V30 21 C -1.453642 4.167350 5.830122 0
M  V30 22 C -0.886406 4.395754 4.601569 0
M  V30 23 C -0.674307 3.453970 3.636886 0
M  V30 24 N -0.144553 3.467388 2.391319 0
M  V30 25 C 0.162391 0.445026 0.214243 0
M  V30 26 H 0.317516 -3.664119 -3.533542 0
M  V30 27 H 2.062289 -3.059061 -3.487854 0
M  V30 28 H 1.647534 -4.631407 -4.152963 0
M  V30 29 H 1.603578 -6.591257 -2.830832 0
M  V30 30 H 1.798516 -7.625054 -0.539161 0
M  V30 31 H 1.813797 -6.253843 1.431242 0
M  V30 32 H 1.636752 -3.868620 1.275078 0
M  V30 33 H -0.425377 -1.973691 -1.669128 0
M  V30 34 H 1.454673 0.381581 -2.836330 0
M  V30 35 H 1.718178 2.817060 -2.305632 0
M  V30 36 H 0.936850 3.667179 -0.087741 0
M  V30 37 H -0.967121 0.308608 2.787657 0
M  V30 38 H -1.908626 0.902146 5.294627 0
M  V30 39 H -2.283310 2.657607 7.043427 0
M  V30 40 H -1.608488 4.949376 6.578421 0
M  V30 41 H -0.592604 5.424898 4.410089 0
M  V30 42 H -0.286379 -0.241275 0.948933 0
M  V30 END ATOM
M  V30 BEGIN BOND
M  V30 1 1 1 2
M  V30 2 2 2 3
M  V30 3 1 3 4
M  V30 4 2 4 5
M  V30 5 1 5 6
M  V30 6 2 6 7
M  V30 7 1 7 8
M  V30 8 2 8 9
M  V30 9 1 8 10
M  V30 10 1 10 11
M  V30 11 2 11 12
M  V30 12 1 12 13
M  V30 13 2 13 14
M  V30 14 1 14 15
M  V30 15 1 15 16
M  V30 16 2 16 17
M  V30 17 1 17 18
M  V30 18 1 18 19
M  V30 19 2 19 20
M  V30 20 1 20 21
M  V30 21 2 21 22
M  V30 22 1 22 23
M  V30 23 2 23 24
M  V30 24 2 15 25
M  V30 25 1 7 2
M  V30 26 1 25 11
M  V30 27 1 24 16
M  V30 28 1 23 18
M  V30 29 1 1 26
M  V30 30 1 1 27
M  V30 31 1 1 28
M  V30 32 1 3 29
M  V30 33 1 4 30
M  V30 34 1 5 31
M  V30 35 1 6 32
M  V30 36 1 10 33
M  V30 37 1 12 34
M  V30 38 1 13 35
M  V30 39 1 14 36
M  V30 40 1 17 37
M  V30 41 1 19 38
M  V30 42 1 20 39
M  V30 43 1 21 40
M  V30 44 1 22 41
M  V30 45 1 25 42
M  V30 END BOND
M  V30 END CTAB
M  END
>  <Dataset>  (417) 
ChEMBL_Kinases

>  <Ligand_Instance>  (417) 
nan

>  <PDB_ID>  (417) 
nan

>  <Standardized_SMILES>  (417) 
Cc1ccccc1C(=O)Nc1cccc(-c2cn3ccccc3n2)c1

>  <Name>  (417) 
nan

>  <Pocket>  (417) 
nan

>  <ATP_Site>  (417) 
nan

>  <Peripheral>  (417) 
nan

>  <Num_H_Atoms_ProtBoundConf>  (417) 
nan

>  <Num_Resolved_Atoms>  (417) 
nan

>  <Num_Not_Resolved_Atoms>  (417) 
nan

$$$$
CHEMBL1334078
     RDKit          3D

  0  0  0  0  0  0  0  0  0  0999 V3000
M  V30 BEGIN CTAB
M  V30 COUNTS 3 2 0 0 0
M  V30 BEGIN ATOM
M  V30 1 O 0.257524 -3.595809 4.037576 0
M  V30 2 Cl -0.953640 -2.480668 4.424637 0
M  V30 3 H 1.052868 -3.170232 3.638456 0
M  V30 END ATOM
M  V30 BEGIN BOND
M  V30 1 1 1 2
M  V30 2 1 1 3
M  V30 END BOND
M  V30 END CTAB
M  END
>  <Dataset>  (418) 
ChEMBL_Kinases

>  <Ligand_Instance>  (418) 
nan

>  <PDB_ID>  (418) 
nan

>  <Standardized_SMILES>  (418) 
OCl

>  <Name>  (418) 
SODIUM HYPOCHLORITE

>  <Pocket>  (418) 
nan

>  <ATP_Site>  (418) 
nan

>  <Peripheral>  (418) 
nan

>  <Num_H_Atoms_ProtBoundConf>  (418) 
nan

>  <Num_Resolved_Atoms>  (418) 
nan

>  <Num_Not_Resolved_Atoms>  (418) 
nan

$$$$
CHEMBL1334104
     RDKit          3D

  0  0  0  0  0  0  0  0  0  0999 V3000
M  V30 BEGIN CTAB
M  V30 COUNTS 45 47 0 0 0
M  V30 BEGIN ATOM
M  V30 1 O -1.450130 0.672617 2.308197 0
M  V30 2 C -1.601856 -0.418618 1.700007 0
M  V30 3 C -0.510632 -1.265165 1.147995 0
M  V30 4 C 0.861205 -0.715945 1.367002 0 CFG=1
M  V30 5 C 1.831231 -1.676321 0.758517 0
M  V30 6 C 1.511476 -2.901360 0.210763 0
M  V30 7 C 2.464166 -3.728263 -0.329823 0
M  V30 8 C 3.793686 -3.374376 -0.352483 0
M  V30 9 C 4.141074 -2.156900 0.187559 0
M  V30 10 C 3.177003 -1.333511 0.728114 0
M  V30 11 N 1.099167 0.595402 0.927666 0
M  V30 12 C 0.940491 0.923987 -0.428028 0
M  V30 13 C 1.647402 2.245645 -0.696099 0
M  V30 14 C 2.971479 2.314207 0.030323 0
M  V30 15 C 2.698059 2.321055 1.500215 0
M  V30 16 C 1.385871 1.609496 1.857796 0
M  V30 17 C -2.951602 -0.956854 1.484596 0
M  V30 18 C -3.246140 -2.144640 0.831169 0
M  V30 19 C -4.552611 -2.559729 0.682637 0
M  V30 20 C -5.580404 -1.791725 1.185926 0
M  V30 21 C -5.375208 -0.601025 1.846934 0
M  V30 22 C -4.050704 -0.239618 1.963851 0
M  V30 23 H -0.564753 -2.249205 1.701037 0
M  V30 24 H -0.717794 -1.518501 0.087822 0
M  V30 25 H 1.073848 -0.765060 2.463792 0
M  V30 26 H 0.481474 -3.185289 0.223433 0
M  V30 27 H 2.142301 -4.676983 -0.743158 0
M  V30 28 H 4.508994 -4.060227 -0.789911 0
M  V30 29 H 5.190245 -1.913218 0.152396 0
M  V30 30 H 3.567513 -0.418134 1.115470 0
M  V30 31 H -0.081469 0.980537 -0.822710 0
M  V30 32 H 1.473068 0.151081 -1.040487 0
M  V30 33 H 1.753780 2.423152 -1.785696 0
M  V30 34 H 1.021440 3.079203 -0.303839 0
M  V30 35 H 3.455413 3.263728 -0.251237 0
M  V30 36 H 3.667153 1.516847 -0.299236 0
M  V30 37 H 3.552152 1.845797 2.065649 0
M  V30 38 H 2.676112 3.374034 1.847931 0
M  V30 39 H 1.533141 1.173241 2.846820 0
M  V30 40 H 0.631765 2.428655 1.939199 0
M  V30 41 H -2.401646 -2.708160 0.455878 0
M  V30 42 H -4.737677 -3.502694 0.160657 0
M  V30 43 H -6.616832 -2.139033 1.057892 0
M  V30 44 H -6.152192 0.009149 2.244172 0
M  V30 45 H -3.830225 0.699718 2.481437 0
M  V30 END ATOM
M  V30 BEGIN BOND
M  V30 1 2 1 2
M  V30 2 1 2 3
M  V30 3 1 3 4
M  V30 4 1 4 5
M  V30 5 2 5 6
M  V30 6 1 6 7
M  V30 7 2 7 8
M  V30 8 1 8 9
M  V30 9 2 9 10
M  V30 10 1 4 11
M  V30 11 1 11 12
M  V30 12 1 12 13
M  V30 13 1 13 14
M  V30 14 1 14 15
M  V30 15 1 15 16
M  V30 16 1 2 17
M  V30 17 2 17 18
M  V30 18 1 18 19
M  V30 19 2 19 20
M  V30 20 1 20 21
M  V30 21 2 21 22
M  V30 22 1 10 5
M  V30 23 1 16 11
M  V30 24 1 22 17
M  V30 25 1 3 23
M  V30 26 1 3 24
M  V30 27 1 4 25 CFG=1
M  V30 28 1 6 26
M  V30 29 1 7 27
M  V30 30 1 8 28
M  V30 31 1 9 29
M  V30 32 1 10 30
M  V30 33 1 12 31
M  V30 34 1 12 32
M  V30 35 1 13 33
M  V30 36 1 13 34
M  V30 37 1 14 35
M  V30 38 1 14 36
M  V30 39 1 15 37
M  V30 40 1 15 38
M  V30 41 1 16 39
M  V30 42 1 16 40
M  V30 43 1 18 41
M  V30 44 1 19 42
M  V30 45 1 20 43
M  V30 46 1 21 44
M  V30 47 1 22 45
M  V30 END BOND
M  V30 END CTAB
M  END
>  <Dataset>  (419) 
ChEMBL_Kinases

>  <Ligand_Instance>  (419) 
nan

>  <PDB_ID>  (419) 
nan

>  <Standardized_SMILES>  (419) 
O=C(C[C@@H](c1ccccc1)N1CCCCC1)c1ccccc1

>  <Name>  (419) 
nan

>  <Pocket>  (419) 
nan

>  <ATP_Site>  (419) 
nan

>  <Peripheral>  (419) 
nan

>  <Num_H_Atoms_ProtBoundConf>  (419) 
nan

>  <Num_Resolved_Atoms>  (419) 
nan

>  <Num_Not_Resolved_Atoms>  (419) 
nan

$$$$
CHEMBL1334229
     RDKit          3D

  0  0  0  0  0  0  0  0  0  0999 V3000
M  V30 BEGIN CTAB
M  V30 COUNTS 57 60 0 0 0
M  V30 BEGIN ATOM
M  V30 1 C 3.900305 -5.974632 1.677292 0
M  V30 2 O 3.378577 -5.207063 0.614374 0
M  V30 3 C 3.243236 -3.832758 0.665145 0
M  V30 4 C 3.612138 -3.094393 1.771819 0
M  V30 5 C 3.485655 -1.710202 1.847039 0
M  V30 6 C 2.961094 -1.057220 0.746270 0
M  V30 7 N 2.799966 0.374573 0.750185 0
M  V30 8 C 1.529132 0.738814 1.248548 0
M  V30 9 O 0.751847 -0.165798 1.601635 0
M  V30 10 C 1.134476 2.177374 1.346641 0
M  V30 11 C 1.165952 2.817804 -0.014423 0
M  V30 12 C -0.183772 3.330524 -0.424911 0
M  V30 13 C -1.198603 2.208586 -0.291503 0
M  V30 14 N -1.204097 1.611441 1.007157 0
M  V30 15 S -2.775007 1.574074 1.667301 0
M  V30 16 O -2.789842 1.019777 3.050017 0
M  V30 17 O -3.376108 2.963812 1.645880 0
M  V30 18 C -3.815587 0.592519 0.626841 0
M  V30 19 C -4.961721 1.000374 -0.029452 0
M  V30 20 C -5.640786 0.097796 -0.794634 0
M  V30 21 C -5.252913 -1.220337 -0.960657 0
M  V30 22 C -4.110147 -1.626281 -0.306029 0
M  V30 23 C -3.742844 -2.931546 -0.482018 0
M  V30 24 C -2.604825 -3.407770 0.146212 0
M  V30 25 C -1.915894 -2.498083 0.920552 0
M  V30 26 N -2.282283 -1.212800 1.090550 0
M  V30 27 C -3.386895 -0.730558 0.487350 0
M  V30 28 C -0.281467 2.244259 1.928521 0
M  V30 29 C 2.596335 -1.798196 -0.351026 0
M  V30 30 C 2.720506 -3.178249 -0.430738 0
M  V30 31 O 2.353524 -3.925009 -1.534928 0
M  V30 32 C 1.812751 -3.430425 -2.718952 0
M  V30 33 H 3.558497 -7.028794 1.633782 0
M  V30 34 H 5.007388 -5.896622 1.758417 0
M  V30 35 H 3.477894 -5.536718 2.623483 0
M  V30 36 H 4.025436 -3.573062 2.648946 0
M  V30 37 H 3.782190 -1.152096 2.726560 0
M  V30 38 H 3.511568 1.076755 0.432427 0
M  V30 39 H 1.828885 2.706279 2.014939 0
M  V30 40 H 1.501476 2.108170 -0.796665 0
M  V30 41 H 1.881015 3.678591 -0.051968 0
M  V30 42 H -0.495955 4.249319 0.075555 0
M  V30 43 H -0.123247 3.532250 -1.525383 0
M  V30 44 H -2.174758 2.633308 -0.603509 0
M  V30 45 H -0.913816 1.461074 -1.058693 0
M  V30 46 H -5.212079 2.027949 0.135947 0
M  V30 47 H -6.533547 0.451756 -1.294120 0
M  V30 48 H -5.820184 -1.903900 -1.576709 0
M  V30 49 H -4.284212 -3.640810 -1.088783 0
M  V30 50 H -2.196137 -4.402343 0.100925 0
M  V30 51 H -1.025235 -2.773607 1.444196 0
M  V30 52 H -0.242811 1.608585 2.839347 0
M  V30 53 H -0.562611 3.262075 2.197990 0
M  V30 54 H 2.192766 -1.263722 -1.189022 0
M  V30 55 H 1.337348 -2.457558 -2.603551 0
M  V30 56 H 1.022236 -4.097474 -3.146716 0
M  V30 57 H 2.597207 -3.333566 -3.506363 0
M  V30 END ATOM
M  V30 BEGIN BOND
M  V30 1 1 1 2
M  V30 2 1 2 3
M  V30 3 2 3 4
M  V30 4 1 4 5
M  V30 5 2 5 6
M  V30 6 1 6 7
M  V30 7 1 7 8
M  V30 8 2 8 9
M  V30 9 1 8 10
M  V30 10 1 10 11
M  V30 11 1 11 12
M  V30 12 1 12 13
M  V30 13 1 13 14
M  V30 14 1 14 15
M  V30 15 2 15 16
M  V30 16 2 15 17
M  V30 17 1 15 18
M  V30 18 2 18 19
M  V30 19 1 19 20
M  V30 20 2 20 21
M  V30 21 1 21 22
M  V30 22 2 22 23
M  V30 23 1 23 24
M  V30 24 2 24 25
M  V30 25 1 25 26
M  V30 26 2 26 27
M  V30 27 1 14 28
M  V30 28 1 6 29
M  V30 29 2 29 30
M  V30 30 1 30 31
M  V30 31 1 31 32
M  V30 32 1 30 3
M  V30 33 1 28 10
M  V30 34 1 27 18
M  V30 35 1 27 22
M  V30 36 1 1 33
M  V30 37 1 1 34
M  V30 38 1 1 35
M  V30 39 1 4 36
M  V30 40 1 5 37
M  V30 41 1 7 38
M  V30 42 1 10 39
M  V30 43 1 11 40
M  V30 44 1 11 41
M  V30 45 1 12 42
M  V30 46 1 12 43
M  V30 47 1 13 44
M  V30 48 1 13 45
M  V30 49 1 19 46
M  V30 50 1 20 47
M  V30 51 1 21 48
M  V30 52 1 23 49
M  V30 53 1 24 50
M  V30 54 1 25 51
M  V30 55 1 28 52
M  V30 56 1 28 53
M  V30 57 1 29 54
M  V30 58 1 32 55
M  V30 59 1 32 56
M  V30 60 1 32 57
M  V30 END BOND
M  V30 END CTAB
M  END
>  <Dataset>  (420) 
ChEMBL_Kinases

>  <Ligand_Instance>  (420) 
nan

>  <PDB_ID>  (420) 
nan

>  <Standardized_SMILES>  (420) 
COc1ccc(NC(=O)C2CCCN(S(=O)(=O)c3cccc4cccnc34)C2)cc1OC

>  <Name>  (420) 
nan

>  <Pocket>  (420) 
nan

>  <ATP_Site>  (420) 
nan

>  <Peripheral>  (420) 
nan

>  <Num_H_Atoms_ProtBoundConf>  (420) 
nan

>  <Num_Resolved_Atoms>  (420) 
nan

>  <Num_Not_Resolved_Atoms>  (420) 
nan

$$$$
CHEMBL1334321
     RDKit          3D

  0  0  0  0  0  0  0  0  0  0999 V3000
M  V30 BEGIN CTAB
M  V30 COUNTS 44 47 0 0 0
M  V30 BEGIN ATOM
M  V30 1 C -0.255808 -2.203738 4.672752 0
M  V30 2 N 0.422656 -2.165036 3.523062 0
M  V30 3 C -0.019783 -1.629879 2.373925 0
M  V30 4 N 0.798893 -1.644784 1.210947 0
M  V30 5 C 2.116970 -2.261892 1.311771 0
M  V30 6 C 2.850457 -2.170708 -0.001585 0
M  V30 7 N 3.002154 -0.780180 -0.345139 0
M  V30 8 C 3.687962 -0.596363 -1.612029 0
M  V30 9 C 3.695417 0.899188 -1.875343 0
M  V30 10 O 4.657109 1.475640 -1.052999 0
M  V30 11 C 4.964973 0.671793 0.039035 0
M  V30 12 C 3.721050 0.001432 0.623040 0
M  V30 13 C -1.285004 -1.085711 2.428520 0
M  V30 14 C -1.818636 -0.516873 1.296698 0
M  V30 15 C -3.081487 0.038146 1.306216 0
M  V30 16 C -3.629919 0.636505 0.090710 0
M  V30 17 C -2.898316 1.283968 -0.912905 0
M  V30 18 C -3.790919 1.706640 -1.892878 0
M  V30 19 O -4.976777 1.344319 -1.515133 0
M  V30 20 C -4.950566 0.717400 -0.369266 0
M  V30 21 C -3.844354 0.037855 2.452449 0
M  V30 22 C -3.298085 -0.538431 3.590807 0
M  V30 23 C -2.034855 -1.095422 3.587111 0
M  V30 24 N -1.485438 -1.660282 4.676784 0
M  V30 25 H 0.210395 -2.666801 5.541984 0
M  V30 26 H 0.543874 -1.252771 0.283883 0
M  V30 27 H 1.908961 -3.345908 1.468103 0
M  V30 28 H 2.678605 -1.873858 2.165430 0
M  V30 29 H 2.200446 -2.628917 -0.786885 0
M  V30 30 H 3.791007 -2.729307 -0.002125 0
M  V30 31 H 3.183551 -1.124200 -2.441463 0
M  V30 32 H 4.729254 -0.977969 -1.608353 0
M  V30 33 H 2.711167 1.291895 -1.495174 0
M  V30 34 H 3.770477 1.169710 -2.931563 0
M  V30 35 H 5.787040 -0.033649 -0.143008 0
M  V30 36 H 5.316667 1.364238 0.849019 0
M  V30 37 H 3.053405 0.854689 0.900542 0
M  V30 38 H 4.040995 -0.523006 1.521248 0
M  V30 39 H -1.287105 -0.478659 0.370039 0
M  V30 40 H -1.826859 1.436285 -0.935839 0
M  V30 41 H -3.579838 2.239143 -2.811002 0
M  V30 42 H -5.703716 0.261690 0.280323 0
M  V30 43 H -4.847411 0.463393 2.512533 0
M  V30 44 H -3.830722 -0.580403 4.533349 0
M  V30 END ATOM
M  V30 BEGIN BOND
M  V30 1 2 1 2
M  V30 2 1 2 3
M  V30 3 1 3 4
M  V30 4 1 4 5
M  V30 5 1 5 6
M  V30 6 1 6 7
M  V30 7 1 7 8
M  V30 8 1 8 9
M  V30 9 1 9 10
M  V30 10 1 10 11
M  V30 11 1 11 12
M  V30 12 2 3 13
M  V30 13 1 13 14
M  V30 14 2 14 15
M  V30 15 1 15 16
M  V30 16 1 16 17
M  V30 17 2 17 18
M  V30 18 1 18 19
M  V30 19 1 19 20
M  V30 20 1 15 21
M  V30 21 2 21 22
M  V30 22 1 22 23
M  V30 23 2 23 24
M  V30 24 1 24 1
M  V30 25 1 12 7
M  V30 26 1 23 13
M  V30 27 2 20 16
M  V30 28 1 1 25
M  V30 29 1 4 26
M  V30 30 1 5 27
M  V30 31 1 5 28
M  V30 32 1 6 29
M  V30 33 1 6 30
M  V30 34 1 8 31
M  V30 35 1 8 32
M  V30 36 1 9 33
M  V30 37 1 9 34
M  V30 38 1 11 35
M  V30 39 1 11 36
M  V30 40 1 12 37
M  V30 41 1 12 38
M  V30 42 1 14 39
M  V30 43 1 17 40
M  V30 44 1 18 41
M  V30 45 1 20 42
M  V30 46 1 21 43
M  V30 47 1 22 44
M  V30 END BOND
M  V30 END CTAB
M  END
>  <Dataset>  (421) 
ChEMBL_Kinases

>  <Ligand_Instance>  (421) 
nan

>  <PDB_ID>  (421) 
nan

>  <Standardized_SMILES>  (421) 
c1nc(NCCN2CCOCC2)c2cc(-c3ccoc3)ccc2n1

>  <Name>  (421) 
nan

>  <Pocket>  (421) 
nan

>  <ATP_Site>  (421) 
nan

>  <Peripheral>  (421) 
nan

>  <Num_H_Atoms_ProtBoundConf>  (421) 
nan

>  <Num_Resolved_Atoms>  (421) 
nan

>  <Num_Not_Resolved_Atoms>  (421) 
nan

$$$$
CHEMBL1334354
     RDKit          3D

  0  0  0  0  0  0  0  0  0  0999 V3000
M  V30 BEGIN CTAB
M  V30 COUNTS 51 54 0 0 0
M  V30 BEGIN ATOM
M  V30 1 C 2.350945 -4.561792 3.842423 0
M  V30 2 O 1.573064 -4.821440 2.677084 0
M  V30 3 C 1.202491 -3.725777 1.909811 0
M  V30 4 C 1.591885 -2.460110 2.295592 0
M  V30 5 C 1.253690 -1.333407 1.573321 0
M  V30 6 O 1.644263 -0.059589 1.959601 0
M  V30 7 C 2.415552 0.060665 3.138948 0
M  V30 8 C 0.490643 -1.442319 0.404847 0
M  V30 9 C 0.075972 -0.285745 -0.443428 0
M  V30 10 N -0.428759 0.838609 0.337803 0
M  V30 11 C 0.182843 2.111201 0.468489 0
M  V30 12 C -0.384616 3.105703 1.234901 0
M  V30 13 C 0.172864 4.372862 1.397053 0
M  V30 14 C 1.374463 4.592030 0.722234 0
M  V30 15 Cl 2.126406 6.174657 0.889360 0
M  V30 16 C 1.971059 3.615638 -0.055337 0
M  V30 17 C 1.366542 2.364744 -0.180941 0
M  V30 18 C -1.638123 0.341522 0.903230 0
M  V30 19 O -2.157151 0.805006 1.974508 0
M  V30 20 C -2.131305 -0.773935 0.016366 0
M  V30 21 C -3.439813 -0.272587 -0.563761 0
M  V30 22 C -3.162810 -0.047387 -2.017698 0
M  V30 23 C -1.662638 0.162045 -2.059157 0
M  V30 24 N -1.186030 -0.724255 -1.064173 0
M  V30 25 C 0.131656 -2.733923 0.070905 0
M  V30 26 C 0.449607 -3.883550 0.765673 0
M  V30 27 O 0.046037 -5.135492 0.355471 0
M  V30 28 C -0.725722 -5.297439 -0.817218 0
M  V30 29 H 2.725175 -5.472233 4.325222 0
M  V30 30 H 3.275859 -4.044790 3.452484 0
M  V30 31 H 1.869647 -3.844228 4.526963 0
M  V30 32 H 2.184793 -2.269087 3.185067 0
M  V30 33 H 1.858928 -0.351884 4.030161 0
M  V30 34 H 2.746865 1.080623 3.337981 0
M  V30 35 H 3.333773 -0.586482 3.091450 0
M  V30 36 H 0.802536 -0.013479 -1.204752 0
M  V30 37 H -1.313728 2.966071 1.768463 0
M  V30 38 H -0.292498 5.132961 2.002956 0
M  V30 39 H 2.906939 3.860157 -0.550844 0
M  V30 40 H 1.885571 1.670225 -0.794234 0
M  V30 41 H -2.208947 -1.725301 0.539757 0
M  V30 42 H -4.238928 -1.024728 -0.366547 0
M  V30 43 H -3.802702 0.661593 -0.100074 0
M  V30 44 H -3.408470 -1.007104 -2.541686 0
M  V30 45 H -3.694572 0.790124 -2.467206 0
M  V30 46 H -1.334513 -0.259416 -3.053844 0
M  V30 47 H -1.348347 1.200497 -1.967431 0
M  V30 48 H -0.460147 -2.825955 -0.834103 0
M  V30 49 H -1.173547 -6.312136 -0.869767 0
M  V30 50 H -1.545846 -4.552460 -0.839323 0
M  V30 51 H -0.023153 -5.185610 -1.681940 0
M  V30 END ATOM
M  V30 BEGIN BOND
M  V30 1 1 1 2
M  V30 2 1 2 3
M  V30 3 2 3 4
M  V30 4 1 4 5
M  V30 5 1 5 6
M  V30 6 1 6 7
M  V30 7 2 5 8
M  V30 8 1 8 9
M  V30 9 1 9 10
M  V30 10 1 10 11
M  V30 11 2 11 12
M  V30 12 1 12 13
M  V30 13 2 13 14
M  V30 14 1 14 15
M  V30 15 1 14 16
M  V30 16 2 16 17
M  V30 17 1 10 18
M  V30 18 2 18 19
M  V30 19 1 18 20
M  V30 20 1 20 21
M  V30 21 1 21 22
M  V30 22 1 22 23
M  V30 23 1 23 24
M  V30 24 1 8 25
M  V30 25 2 25 26
M  V30 26 1 26 27
M  V30 27 1 27 28
M  V30 28 1 26 3
M  V30 29 1 24 9
M  V30 30 1 17 11
M  V30 31 1 24 20
M  V30 32 1 1 29
M  V30 33 1 1 30
M  V30 34 1 1 31
M  V30 35 1 4 32
M  V30 36 1 7 33
M  V30 37 1 7 34
M  V30 38 1 7 35
M  V30 39 1 9 36
M  V30 40 1 12 37
M  V30 41 1 13 38
M  V30 42 1 16 39
M  V30 43 1 17 40
M  V30 44 1 20 41
M  V30 45 1 21 42
M  V30 46 1 21 43
M  V30 47 1 22 44
M  V30 48 1 22 45
M  V30 49 1 23 46
M  V30 50 1 23 47
M  V30 51 1 25 48
M  V30 52 1 28 49
M  V30 53 1 28 50
M  V30 54 1 28 51
M  V30 END BOND
M  V30 END CTAB
M  END
>  <Dataset>  (422) 
ChEMBL_Kinases

>  <Ligand_Instance>  (422) 
nan

>  <PDB_ID>  (422) 
nan

>  <Standardized_SMILES>  (422) 
COc1cc(OC)c(C2N(c3ccc(Cl)cc3)C(=O)C3CCCN32)cc1OC

>  <Name>  (422) 
nan

>  <Pocket>  (422) 
nan

>  <ATP_Site>  (422) 
nan

>  <Peripheral>  (422) 
nan

>  <Num_H_Atoms_ProtBoundConf>  (422) 
nan

>  <Num_Resolved_Atoms>  (422) 
nan

>  <Num_Not_Resolved_Atoms>  (422) 
nan

$$$$
CHEMBL1334519
     RDKit          3D

  0  0  0  0  0  0  0  0  0  0999 V3000
M  V30 BEGIN CTAB
M  V30 COUNTS 27 28 0 0 0
M  V30 BEGIN ATOM
M  V30 1 O 2.093548 -3.419705 3.697206 0
M  V30 2 C 0.872236 -3.447626 3.388578 0
M  V30 3 O 0.362230 -4.655383 2.933740 0
M  V30 4 C -0.122331 -2.345707 3.443696 0
M  V30 5 C 0.460173 -1.053133 3.939451 0
M  V30 6 S 1.812022 -0.487625 2.860687 0
M  V30 7 C 1.129526 -0.073161 1.265325 0
M  V30 8 N 1.103144 -1.116618 0.413974 0
M  V30 9 C 0.607779 -0.954755 -0.847317 0
M  V30 10 O 0.552303 -1.988553 -1.772924 0
M  V30 11 C 0.149860 0.301272 -1.188532 0
M  V30 12 C -0.353985 0.473177 -2.464760 0
M  V30 13 C -0.808900 1.733884 -2.793158 0
M  V30 14 C -0.795215 2.822265 -1.944036 0
M  V30 15 C -0.284133 2.640172 -0.654912 0
M  V30 16 C 0.169823 1.379461 -0.329013 0
M  V30 17 N 0.673982 1.159798 0.913607 0
M  V30 18 H 0.997456 -5.435787 2.777614 0
M  V30 19 H -0.920239 -2.637180 4.158867 0
M  V30 20 H -0.616656 -2.145354 2.469504 0
M  V30 21 H -0.354251 -0.297898 3.869024 0
M  V30 22 H 0.795128 -1.141249 4.993705 0
M  V30 23 H 1.341294 -2.151251 -2.395013 0
M  V30 24 H -0.378962 -0.360266 -3.153370 0
M  V30 25 H -1.196928 1.810927 -3.818437 0
M  V30 26 H -1.177295 3.766778 -2.306625 0
M  V30 27 H -0.265950 3.479155 0.021356 0
M  V30 END ATOM
M  V30 BEGIN BOND
M  V30 1 2 1 2
M  V30 2 1 2 3
M  V30 3 1 2 4
M  V30 4 1 4 5
M  V30 5 1 5 6
M  V30 6 1 6 7
M  V30 7 2 7 8
M  V30 8 1 8 9
M  V30 9 1 9 10
M  V30 10 2 9 11
M  V30 11 1 11 12
M  V30 12 2 12 13
M  V30 13 1 13 14
M  V30 14 2 14 15
M  V30 15 1 15 16
M  V30 16 2 16 17
M  V30 17 1 17 7
M  V30 18 1 16 11
M  V30 19 1 3 18
M  V30 20 1 4 19
M  V30 21 1 4 20
M  V30 22 1 5 21
M  V30 23 1 5 22
M  V30 24 1 10 23
M  V30 25 1 12 24
M  V30 26 1 13 25
M  V30 27 1 14 26
M  V30 28 1 15 27
M  V30 END BOND
M  V30 END CTAB
M  END
>  <Dataset>  (423) 
ChEMBL_Kinases

>  <Ligand_Instance>  (423) 
nan

>  <PDB_ID>  (423) 
nan

>  <Standardized_SMILES>  (423) 
O=C(O)CCSc1nc(O)c2ccccc2n1

>  <Name>  (423) 
nan

>  <Pocket>  (423) 
nan

>  <ATP_Site>  (423) 
nan

>  <Peripheral>  (423) 
nan

>  <Num_H_Atoms_ProtBoundConf>  (423) 
nan

>  <Num_Resolved_Atoms>  (423) 
nan

>  <Num_Not_Resolved_Atoms>  (423) 
nan

$$$$
CHEMBL1339597
     RDKit          3D

  0  0  0  0  0  0  0  0  0  0999 V3000
M  V30 BEGIN CTAB
M  V30 COUNTS 58 61 0 0 0
M  V30 BEGIN ATOM
M  V30 1 C 1.997859 -1.030877 4.952958 0
M  V30 2 O 2.251321 -2.287138 4.448784 0
M  V30 3 C 2.620795 -2.266370 3.121676 0
M  V30 4 C 1.589843 -1.687949 2.191760 0
M  V30 5 C 2.209710 -1.749148 0.784476 0
M  V30 6 N 1.277202 -1.213280 -0.188913 0
M  V30 7 C 1.289189 0.113744 -0.430546 0
M  V30 8 N 2.059488 0.974632 0.138539 0
M  V30 9 C 0.385296 0.555423 -1.374168 0
M  V30 10 C 0.337112 2.015695 -1.637591 0
M  V30 11 O 0.760561 2.683364 -2.635276 0
M  V30 12 N -0.290034 2.771370 -0.591350 0
M  V30 13 C -0.503222 4.197867 -0.530415 0
M  V30 14 C -1.218583 4.492362 0.789119 0
M  V30 15 C -2.556868 3.816471 0.851931 0
M  V30 16 C -2.455626 2.822450 1.955254 0
M  V30 17 C -1.096143 3.040792 2.513318 0
M  V30 18 O -0.484924 4.100334 1.866690 0
M  V30 19 C -0.517579 -0.203875 -2.088993 0
M  V30 20 C -0.479653 -1.554019 -1.793699 0
M  V30 21 C -1.365189 -2.363785 -2.476718 0
M  V30 22 O -2.175800 -1.942430 -3.332091 0
M  V30 23 N -1.363000 -3.692597 -2.212179 0
M  V30 24 C -2.192869 -4.544482 -2.834053 0
M  V30 25 C -2.128230 -5.886362 -2.505331 0
M  V30 26 C -1.232619 -6.351293 -1.558995 0
M  V30 27 C -0.385707 -5.465314 -0.927538 0
M  V30 28 C 0.586982 -5.944618 0.118063 0
M  V30 29 C -0.468092 -4.122082 -1.274717 0
M  V30 30 N 0.392403 -3.327206 -0.615016 0
M  V30 31 C 0.421890 -2.001935 -0.850215 0
M  V30 32 H 1.174533 -0.490049 4.454941 0
M  V30 33 H 1.756672 -1.128788 6.041666 0
M  V30 34 H 2.922381 -0.402329 4.917333 0
M  V30 35 H 3.580077 -1.743316 2.926842 0
M  V30 36 H 2.823990 -3.328156 2.805676 0
M  V30 37 H 0.627391 -2.234737 2.201995 0
M  V30 38 H 1.370637 -0.630675 2.456288 0
M  V30 39 H 3.183590 -1.240071 0.783781 0
M  V30 40 H 2.337294 -2.835268 0.504604 0
M  V30 41 H 2.762982 0.721457 0.856557 0
M  V30 42 H -0.638320 2.196209 0.237151 0
M  V30 43 H 0.448655 4.760688 -0.578144 0
M  V30 44 H -1.147713 4.576453 -1.352229 0
M  V30 45 H -1.346665 5.607065 0.833731 0
M  V30 46 H -2.873799 3.393352 -0.122400 0
M  V30 47 H -3.351640 4.562367 1.141973 0
M  V30 48 H -2.547119 1.756736 1.583956 0
M  V30 49 H -3.280722 2.916993 2.717255 0
M  V30 50 H -1.254421 3.406071 3.572011 0
M  V30 51 H -0.495574 2.137980 2.621419 0
M  V30 52 H -1.185109 0.242176 -2.812442 0
M  V30 53 H -2.882921 -4.151922 -3.569599 0
M  V30 54 H -2.800711 -6.600350 -3.007063 0
M  V30 55 H -1.201592 -7.400207 -1.323742 0
M  V30 56 H 0.619861 -7.032514 0.115214 0
M  V30 57 H 0.291851 -5.510099 1.117582 0
M  V30 58 H 1.585489 -5.536660 -0.111856 0
M  V30 END ATOM
M  V30 BEGIN BOND
M  V30 1 1 1 2
M  V30 2 1 2 3
M  V30 3 1 3 4
M  V30 4 1 4 5
M  V30 5 1 5 6
M  V30 6 1 6 7
M  V30 7 2 7 8 CFG=2
M  V30 8 1 7 9
M  V30 9 1 9 10
M  V30 10 2 10 11
M  V30 11 1 10 12
M  V30 12 1 12 13
M  V30 13 1 13 14
M  V30 14 1 14 15
M  V30 15 1 15 16
M  V30 16 1 16 17
M  V30 17 1 17 18
M  V30 18 2 9 19
M  V30 19 1 19 20
M  V30 20 1 20 21
M  V30 21 2 21 22
M  V30 22 1 21 23
M  V30 23 1 23 24
M  V30 24 2 24 25
M  V30 25 1 25 26
M  V30 26 2 26 27
M  V30 27 1 27 28
M  V30 28 1 27 29
M  V30 29 2 29 30
M  V30 30 1 30 31
M  V30 31 1 31 6
M  V30 32 1 18 14
M  V30 33 2 31 20
M  V30 34 1 29 23
M  V30 35 1 1 32
M  V30 36 1 1 33
M  V30 37 1 1 34
M  V30 38 1 3 35
M  V30 39 1 3 36
M  V30 40 1 4 37
M  V30 41 1 4 38
M  V30 42 1 5 39
M  V30 43 1 5 40
M  V30 44 1 8 41
M  V30 45 1 12 42
M  V30 46 1 13 43
M  V30 47 1 13 44
M  V30 48 1 14 45
M  V30 49 1 15 46
M  V30 50 1 15 47
M  V30 51 1 16 48
M  V30 52 1 16 49
M  V30 53 1 17 50
M  V30 54 1 17 51
M  V30 55 1 19 52
M  V30 56 1 24 53
M  V30 57 1 25 54
M  V30 58 1 26 55
M  V30 59 1 28 56
M  V30 60 1 28 57
M  V30 61 1 28 58
M  V30 END BOND
M  V30 END CTAB
M  END
>  <Dataset>  (424) 
ChEMBL_Kinases

>  <Ligand_Instance>  (424) 
nan

>  <PDB_ID>  (424) 
nan

>  <Standardized_SMILES>  (424) 
COCCCn1c(=N)c(C(=O)NCC2CCCO2)cc2c(=O)n3cccc(C)c3nc21

>  <Name>  (424) 
nan

>  <Pocket>  (424) 
nan

>  <ATP_Site>  (424) 
nan

>  <Peripheral>  (424) 
nan

>  <Num_H_Atoms_ProtBoundConf>  (424) 
nan

>  <Num_Resolved_Atoms>  (424) 
nan

>  <Num_Not_Resolved_Atoms>  (424) 
nan

$$$$
CHEMBL1339300
     RDKit          3D

  0  0  0  0  0  0  0  0  0  0999 V3000
M  V30 BEGIN CTAB
M  V30 COUNTS 49 51 0 0 0
M  V30 BEGIN ATOM
M  V30 1 C 1.516739 -8.101458 1.060725 0
M  V30 2 C 1.587970 -6.620403 0.941720 0
M  V30 3 C 0.533095 -5.859389 1.396081 0
M  V30 4 C 0.566557 -4.463305 1.300005 0
M  V30 5 C 1.658416 -3.822000 0.747387 0
M  V30 6 C 1.811810 -2.377910 0.592168 0
M  V30 7 O 2.860184 -1.915270 0.076186 0
M  V30 8 N 0.838915 -1.437681 0.991696 0
M  V30 9 C 0.828957 -0.030741 0.915792 0
M  V30 10 C 1.774050 0.752274 0.441657 0
M  V30 11 C 1.960221 2.181451 0.282423 0
M  V30 12 C 2.238334 2.732462 -0.974198 0
M  V30 13 C 2.472964 4.054621 -1.258891 0
M  V30 14 C 2.416503 4.878885 -0.156510 0
M  V30 15 C 2.157240 4.470054 1.113326 0
M  V30 16 C 1.936232 3.122320 1.291313 0
M  V30 17 C -0.338516 0.710323 1.342696 0
M  V30 18 O -0.515764 1.941776 1.336372 0
M  V30 19 N -1.533533 0.150035 1.862797 0
M  V30 20 C -2.719699 0.864401 2.295794 0
M  V30 21 C -3.559425 1.330108 1.168564 0
M  V30 22 C -3.564662 2.526706 0.491580 0
M  V30 23 C -4.422235 2.785825 -0.549395 0
M  V30 24 N -5.304421 1.842604 -0.940895 0
M  V30 25 C -5.334403 0.657297 -0.306707 0
M  V30 26 C -4.485410 0.372751 0.739448 0
M  V30 27 C 2.682416 -4.636990 0.310664 0
M  V30 28 C 2.693202 -6.012732 0.384750 0
M  V30 29 H 2.492998 -8.485471 1.404543 0
M  V30 30 H 1.149419 -8.575909 0.145504 0
M  V30 31 H 0.788898 -8.398165 1.869791 0
M  V30 32 H -0.369963 -6.263540 1.846074 0
M  V30 33 H -0.252504 -3.874494 1.652806 0
M  V30 34 H 0.007622 -1.904638 1.406707 0
M  V30 35 H 2.677783 0.307781 0.055235 0
M  V30 36 H 2.270662 2.027195 -1.816483 0
M  V30 37 H 2.677438 4.373883 -2.260769 0
M  V30 38 H 2.590758 5.949880 -0.293625 0
M  V30 39 H 2.124153 5.149690 1.935945 0
M  V30 40 H 1.753122 2.808907 2.330105 0
M  V30 41 H -1.610673 -0.905634 1.961023 0
M  V30 42 H -3.310098 0.241719 2.997439 0
M  V30 43 H -2.421430 1.785061 2.884766 0
M  V30 44 H -2.846642 3.236456 0.851083 0
M  V30 45 H -4.300022 3.789589 -0.985560 0
M  V30 46 H -6.081086 -0.031900 -0.699469 0
M  V30 47 H -4.605145 -0.625978 1.175265 0
M  V30 48 H 3.574454 -4.205456 -0.136070 0
M  V30 49 H 3.527418 -6.602441 0.024742 0
M  V30 END ATOM
M  V30 BEGIN BOND
M  V30 1 1 1 2
M  V30 2 2 2 3
M  V30 3 1 3 4
M  V30 4 2 4 5
M  V30 5 1 5 6
M  V30 6 2 6 7
M  V30 7 1 6 8
M  V30 8 1 8 9
M  V30 9 2 9 10
M  V30 10 1 10 11
M  V30 11 2 11 12
M  V30 12 1 12 13
M  V30 13 2 13 14
M  V30 14 1 14 15
M  V30 15 2 15 16
M  V30 16 1 9 17
M  V30 17 2 17 18
M  V30 18 1 17 19
M  V30 19 1 19 20
M  V30 20 1 20 21
M  V30 21 2 21 22
M  V30 22 1 22 23
M  V30 23 2 23 24
M  V30 24 1 24 25
M  V30 25 2 25 26
M  V30 26 1 5 27
M  V30 27 2 27 28
M  V30 28 1 28 2
M  V30 29 1 16 11
M  V30 30 1 26 21
M  V30 31 1 1 29
M  V30 32 1 1 30
M  V30 33 1 1 31
M  V30 34 1 3 32
M  V30 35 1 4 33
M  V30 36 1 8 34
M  V30 37 1 10 35
M  V30 38 1 12 36
M  V30 39 1 13 37
M  V30 40 1 14 38
M  V30 41 1 15 39
M  V30 42 1 16 40
M  V30 43 1 19 41
M  V30 44 1 20 42
M  V30 45 1 20 43
M  V30 46 1 22 44
M  V30 47 1 23 45
M  V30 48 1 25 46
M  V30 49 1 26 47
M  V30 50 1 27 48
M  V30 51 1 28 49
M  V30 END BOND
M  V30 END CTAB
M  END
>  <Dataset>  (425) 
ChEMBL_Kinases

>  <Ligand_Instance>  (425) 
nan

>  <PDB_ID>  (425) 
nan

>  <Standardized_SMILES>  (425) 
Cc1ccc(C(=O)N/C(=C/c2ccccc2)C(=O)NCc2ccncc2)cc1

>  <Name>  (425) 
nan

>  <Pocket>  (425) 
nan

>  <ATP_Site>  (425) 
nan

>  <Peripheral>  (425) 
nan

>  <Num_H_Atoms_ProtBoundConf>  (425) 
nan

>  <Num_Resolved_Atoms>  (425) 
nan

>  <Num_Not_Resolved_Atoms>  (425) 
nan

$$$$
CHEMBL1339290
     RDKit          3D

  0  0  0  0  0  0  0  0  0  0999 V3000
M  V30 BEGIN CTAB
M  V30 COUNTS 37 38 0 0 0
M  V30 BEGIN ATOM
M  V30 1 C 1.948748 -5.616696 2.903747 0
M  V30 2 C 2.357082 -4.687345 1.779048 0
M  V30 3 O 1.393281 -3.651397 1.723833 0
M  V30 4 C 1.424853 -2.615821 0.828258 0
M  V30 5 O 2.403109 -2.655240 0.035101 0
M  V30 6 C 0.427418 -1.550789 0.777067 0
M  V30 7 N 0.570901 -0.587812 -0.152202 0
M  V30 8 N -0.309222 0.418473 -0.253201 0
M  V30 9 C -0.142439 1.427541 -1.240852 0
M  V30 10 C -0.360168 1.310730 -2.605456 0
M  V30 11 C -0.148114 2.399307 -3.431356 0
M  V30 12 C 0.278944 3.593060 -2.887258 0
M  V30 13 C 0.499370 3.723529 -1.532739 0
M  V30 14 C 0.290009 2.648105 -0.715833 0
M  V30 15 C 0.560525 2.906835 0.728502 0
M  V30 16 C -1.360386 0.457013 0.602353 0
M  V30 17 O -2.173105 1.411008 0.488306 0
M  V30 18 C -1.512988 -0.536916 1.565299 0
M  V30 19 C -2.645366 -0.467255 2.463320 0
M  V30 20 N -3.542620 -0.402047 3.194777 0
M  V30 21 C -0.608168 -1.593535 1.687673 0
M  V30 22 C -0.762572 -2.647091 2.702186 0
M  V30 23 H 1.463790 -6.540923 2.513302 0
M  V30 24 H 2.803911 -5.870452 3.583801 0
M  V30 25 H 1.179037 -5.145308 3.581324 0
M  V30 26 H 3.367612 -4.289466 2.071051 0
M  V30 27 H 2.510692 -5.199004 0.830298 0
M  V30 28 H -0.688547 0.312899 -2.847204 0
M  V30 29 H -0.350900 2.181473 -4.461238 0
M  V30 30 H 0.423619 4.399984 -3.592737 0
M  V30 31 H 0.832084 4.690093 -1.189567 0
M  V30 32 H -0.323863 3.450865 1.147547 0
M  V30 33 H 1.500099 3.497770 0.835159 0
M  V30 34 H 0.700356 1.967209 1.292110 0
M  V30 35 H -1.638886 -2.365117 3.339474 0
M  V30 36 H -0.882006 -3.662577 2.263906 0
M  V30 37 H 0.111559 -2.667527 3.415174 0
M  V30 END ATOM
M  V30 BEGIN BOND
M  V30 1 1 1 2
M  V30 2 1 2 3
M  V30 3 1 3 4
M  V30 4 2 4 5
M  V30 5 1 4 6
M  V30 6 2 6 7
M  V30 7 1 7 8
M  V30 8 1 8 9
M  V30 9 2 9 10
M  V30 10 1 10 11
M  V30 11 2 11 12
M  V30 12 1 12 13
M  V30 13 2 13 14
M  V30 14 1 14 15
M  V30 15 1 8 16
M  V30 16 2 16 17
M  V30 17 1 16 18
M  V30 18 1 18 19
M  V30 19 3 19 20
M  V30 20 2 18 21
M  V30 21 1 21 22
M  V30 22 1 21 6
M  V30 23 1 14 9
M  V30 24 1 1 23
M  V30 25 1 1 24
M  V30 26 1 1 25
M  V30 27 1 2 26
M  V30 28 1 2 27
M  V30 29 1 10 28
M  V30 30 1 11 29
M  V30 31 1 12 30
M  V30 32 1 13 31
M  V30 33 1 15 32
M  V30 34 1 15 33
M  V30 35 1 15 34
M  V30 36 1 22 35
M  V30 37 1 22 36
M  V30 38 1 22 37
M  V30 END BOND
M  V30 END CTAB
M  END
>  <Dataset>  (426) 
ChEMBL_Kinases

>  <Ligand_Instance>  (426) 
nan

>  <PDB_ID>  (426) 
nan

>  <Standardized_SMILES>  (426) 
CCOC(=O)c1nn(-c2ccccc2C)c(=O)c(C#N)c1C

>  <Name>  (426) 
nan

>  <Pocket>  (426) 
nan

>  <ATP_Site>  (426) 
nan

>  <Peripheral>  (426) 
nan

>  <Num_H_Atoms_ProtBoundConf>  (426) 
nan

>  <Num_Resolved_Atoms>  (426) 
nan

>  <Num_Not_Resolved_Atoms>  (426) 
nan

$$$$
CHEMBL133928
     RDKit          3D

  0  0  0  0  0  0  0  0  0  0999 V3000
M  V30 BEGIN CTAB
M  V30 COUNTS 49 52 0 0 0
M  V30 BEGIN ATOM
M  V30 1 O 1.586136 -4.178039 3.285818 0
M  V30 2 S 1.068155 -4.480999 1.916145 0
M  V30 3 O 1.988419 -5.471324 1.283448 0
M  V30 4 C 1.102762 -3.013511 0.974246 0
M  V30 5 C 1.328993 -3.052543 -0.387134 0
M  V30 6 C 1.349359 -1.871345 -1.102150 0
M  V30 7 C 1.157029 -0.625786 -0.551193 0
M  V30 8 C 1.181780 0.609707 -1.318625 0
M  V30 9 C 1.406506 0.588153 -2.674479 0
M  V30 10 C 1.425803 1.769619 -3.380264 0
M  V30 11 N 1.230402 2.920691 -2.765336 0
M  V30 12 C 1.008730 2.981777 -1.447862 0
M  V30 13 N 0.806130 4.246094 -0.846294 0
M  V30 14 C 0.553461 4.607955 0.503910 0
M  V30 15 C 0.377696 5.910435 0.922881 0
M  V30 16 C 0.133641 6.251802 2.230184 0
M  V30 17 C 0.049678 5.291258 3.212919 0
M  V30 18 C 0.216811 3.969851 2.855568 0
M  V30 19 C 0.459315 3.689667 1.527517 0
M  V30 20 N 0.993753 1.820317 -0.778207 0
M  V30 21 C 0.936899 -0.657435 0.808340 0
M  V30 22 C 0.902081 -1.793837 1.589257 0
M  V30 23 N -0.484715 -5.164564 2.025136 0
M  V30 24 C -1.454121 -4.331385 2.660522 0
M  V30 25 C -2.781178 -5.093806 2.689669 0
M  V30 26 N -3.298341 -5.058745 1.326569 0
M  V30 27 C -2.201181 -4.886821 0.377766 0
M  V30 28 C -0.989353 -5.676378 0.791532 0
M  V30 29 H 1.485251 -4.010785 -0.861615 0
M  V30 30 H 1.532226 -1.990792 -2.158743 0
M  V30 31 H 1.574932 -0.306450 -3.253150 0
M  V30 32 H 1.598187 1.784866 -4.436143 0
M  V30 33 H 0.840251 5.087337 -1.468059 0
M  V30 34 H 0.436512 6.712701 0.170230 0
M  V30 35 H 0.010760 7.300659 2.454304 0
M  V30 36 H -0.141334 5.615140 4.207775 0
M  V30 37 H 0.147207 3.244510 3.635261 0
M  V30 38 H 0.573764 2.632340 1.357995 0
M  V30 39 H 0.771344 0.253586 1.363262 0
M  V30 40 H 0.730063 -1.798448 2.641970 0
M  V30 41 H -1.668960 -3.374788 2.132941 0
M  V30 42 H -1.175373 -4.032555 3.692766 0
M  V30 43 H -2.581048 -6.142081 2.953497 0
M  V30 44 H -3.509809 -4.598410 3.378551 0
M  V30 45 H -3.890228 -4.184250 1.218609 0
M  V30 46 H -2.581040 -5.315487 -0.594212 0
M  V30 47 H -2.013477 -3.830375 0.175343 0
M  V30 48 H -1.342339 -6.738092 0.923759 0
M  V30 49 H -0.258638 -5.716886 -0.018626 0
M  V30 END ATOM
M  V30 BEGIN BOND
M  V30 1 2 1 2
M  V30 2 2 2 3
M  V30 3 1 2 4
M  V30 4 2 4 5
M  V30 5 1 5 6
M  V30 6 2 6 7
M  V30 7 1 7 8
M  V30 8 2 8 9
M  V30 9 1 9 10
M  V30 10 2 10 11
M  V30 11 1 11 12
M  V30 12 1 12 13
M  V30 13 1 13 14
M  V30 14 2 14 15
M  V30 15 1 15 16
M  V30 16 2 16 17
M  V30 17 1 17 18
M  V30 18 2 18 19
M  V30 19 2 12 20
M  V30 20 1 7 21
M  V30 21 2 21 22
M  V30 22 1 2 23
M  V30 23 1 23 24
M  V30 24 1 24 25
M  V30 25 1 25 26
M  V30 26 1 26 27
M  V30 27 1 27 28
M  V30 28 1 22 4
M  V30 29 1 28 23
M  V30 30 1 20 8
M  V30 31 1 19 14
M  V30 32 1 5 29
M  V30 33 1 6 30
M  V30 34 1 9 31
M  V30 35 1 10 32
M  V30 36 1 13 33
M  V30 37 1 15 34
M  V30 38 1 16 35
M  V30 39 1 17 36
M  V30 40 1 18 37
M  V30 41 1 19 38
M  V30 42 1 21 39
M  V30 43 1 22 40
M  V30 44 1 24 41
M  V30 45 1 24 42
M  V30 46 1 25 43
M  V30 47 1 25 44
M  V30 48 1 26 45
M  V30 49 1 27 46
M  V30 50 1 27 47
M  V30 51 1 28 48
M  V30 52 1 28 49
M  V30 END BOND
M  V30 END CTAB
M  END
>  <Dataset>  (427) 
ChEMBL_Kinases

>  <Ligand_Instance>  (427) 
nan

>  <PDB_ID>  (427) 
nan

>  <Standardized_SMILES>  (427) 
O=S(=O)(c1ccc(-c2ccnc(Nc3ccccc3)n2)cc1)N1CCNCC1

>  <Name>  (427) 
nan

>  <Pocket>  (427) 
nan

>  <ATP_Site>  (427) 
nan

>  <Peripheral>  (427) 
nan

>  <Num_H_Atoms_ProtBoundConf>  (427) 
nan

>  <Num_Resolved_Atoms>  (427) 
nan

>  <Num_Not_Resolved_Atoms>  (427) 
nan

$$$$
CHEMBL1339270
     RDKit          3D

  0  0  0  0  0  0  0  0  0  0999 V3000
M  V30 BEGIN CTAB
M  V30 COUNTS 33 35 0 0 0
M  V30 BEGIN ATOM
M  V30 1 C -0.788999 -2.018478 3.549468 0
M  V30 2 C -0.567543 -2.769283 2.297367 0
M  V30 3 C -0.227611 -4.104173 2.343861 0
M  V30 4 C -0.032465 -4.756884 1.144119 0
M  V30 5 C -0.176810 -4.079812 -0.065693 0
M  V30 6 C -0.522169 -2.725602 -0.091478 0
M  V30 7 N -0.620542 -2.219108 -1.402431 0
M  V30 8 N -0.172177 -1.144460 -1.841151 0
M  V30 9 C 0.545338 -0.153431 -1.161669 0
M  V30 10 C 1.883425 -0.320199 -0.841160 0
M  V30 11 C 2.588487 0.659013 -0.170949 0
M  V30 12 C 1.961526 1.843949 0.198863 0
M  V30 13 O 2.579361 2.891045 0.874963 0
M  V30 14 C 0.639428 2.057018 -0.095128 0
M  V30 15 N -0.044208 3.175298 0.226464 0
M  V30 16 C -1.357614 3.328466 -0.093081 0
M  V30 17 C -2.066515 2.339420 -0.769051 0
M  V30 18 C -1.379958 1.180478 -1.108882 0
M  V30 19 C -0.041310 1.054745 -0.768922 0
M  V30 20 C -0.715572 -2.080142 1.112925 0
M  V30 21 H -0.504774 -2.607734 4.440789 0
M  V30 22 H -1.838964 -1.683933 3.589127 0
M  V30 23 H -0.176963 -1.077960 3.567093 0
M  V30 24 H -0.120702 -4.610927 3.296933 0
M  V30 25 H 0.233520 -5.801966 1.187268 0
M  V30 26 H 0.005990 -4.713789 -0.945847 0
M  V30 27 H 2.426817 -1.228332 -1.105830 0
M  V30 28 H 3.628479 0.609485 0.115788 0
M  V30 29 H 2.665200 3.769834 0.349671 0
M  V30 30 H -1.810158 4.272536 0.215550 0
M  V30 31 H -3.121382 2.536986 -0.990677 0
M  V30 32 H -1.950646 0.433051 -1.630151 0
M  V30 33 H -0.979512 -1.037182 1.006958 0
M  V30 END ATOM
M  V30 BEGIN BOND
M  V30 1 1 1 2
M  V30 2 2 2 3
M  V30 3 1 3 4
M  V30 4 2 4 5
M  V30 5 1 5 6
M  V30 6 1 6 7
M  V30 7 2 7 8 CFG=2
M  V30 8 1 8 9
M  V30 9 2 9 10
M  V30 10 1 10 11
M  V30 11 2 11 12
M  V30 12 1 12 13
M  V30 13 1 12 14
M  V30 14 2 14 15
M  V30 15 1 15 16
M  V30 16 2 16 17
M  V30 17 1 17 18
M  V30 18 2 18 19
M  V30 19 2 6 20
M  V30 20 1 20 2
M  V30 21 1 19 9
M  V30 22 1 19 14
M  V30 23 1 1 21
M  V30 24 1 1 22
M  V30 25 1 1 23
M  V30 26 1 3 24
M  V30 27 1 4 25
M  V30 28 1 5 26
M  V30 29 1 10 27
M  V30 30 1 11 28
M  V30 31 1 13 29
M  V30 32 1 16 30
M  V30 33 1 17 31
M  V30 34 1 18 32
M  V30 35 1 20 33
M  V30 END BOND
M  V30 END CTAB
M  END
>  <Dataset>  (428) 
ChEMBL_Kinases

>  <Ligand_Instance>  (428) 
nan

>  <PDB_ID>  (428) 
nan

>  <Standardized_SMILES>  (428) 
Cc1cccc(N=Nc2ccc(O)c3ncccc23)c1

>  <Name>  (428) 
nan

>  <Pocket>  (428) 
nan

>  <ATP_Site>  (428) 
nan

>  <Peripheral>  (428) 
nan

>  <Num_H_Atoms_ProtBoundConf>  (428) 
nan

>  <Num_Resolved_Atoms>  (428) 
nan

>  <Num_Not_Resolved_Atoms>  (428) 
nan

$$$$
CHEMBL1339209
     RDKit          3D

  0  0  0  0  0  0  0  0  0  0999 V3000
M  V30 BEGIN CTAB
M  V30 COUNTS 43 46 0 0 0
M  V30 BEGIN ATOM
M  V30 1 C -0.304812 -3.647218 3.871438 0
M  V30 2 O -0.302073 -2.699243 2.820307 0
M  V30 3 C 0.909150 -2.559712 2.114363 0
M  V30 4 C 2.084700 -3.271481 2.383581 0
M  V30 5 C 3.203115 -3.014750 1.588984 0
M  V30 6 C 3.213599 -2.103130 0.553278 0
M  V30 7 N 4.111250 -1.714273 -0.347001 0
M  V30 8 C 3.570319 -0.796605 -1.172712 0
M  V30 9 C 2.247349 -0.587131 -0.773735 0
M  V30 10 C 1.453677 0.420890 -1.463900 0
M  V30 11 C 1.590492 1.835028 -1.109621 0
M  V30 12 N 1.339725 2.353094 0.161235 0
M  V30 13 C 0.188010 2.259060 0.988361 0
M  V30 14 C -0.074161 2.935554 2.170426 0
M  V30 15 C -1.253202 2.610424 2.803028 0
M  V30 16 N -2.135150 1.690567 2.332284 0
M  V30 17 C -1.867285 1.030330 1.168245 0
M  V30 18 C -2.611113 -0.018293 0.481619 0
M  V30 19 C -2.886277 -0.184516 -0.853886 0
M  V30 20 C -3.594530 -1.376205 -0.841719 0
M  V30 21 O -3.717977 -1.851024 0.368193 0
M  V30 22 C -3.126004 -1.047983 1.237819 0
M  V30 23 N -0.715113 1.378480 0.588765 0
M  V30 24 C 2.037843 -1.424271 0.320380 0
M  V30 25 C 0.923143 -1.652007 1.082913 0
M  V30 26 H 0.454732 -3.390237 4.633157 0
M  V30 27 H 0.000174 -4.657105 3.469393 0
M  V30 28 H -1.300186 -3.777932 4.328302 0
M  V30 29 H 2.033202 -3.965331 3.191718 0
M  V30 30 H 4.060231 -3.593177 1.852995 0
M  V30 31 H 5.088923 -2.075622 -0.390778 0
M  V30 32 H 4.146343 -0.345731 -1.990957 0
M  V30 33 H 0.387197 0.055817 -1.416052 0
M  V30 34 H 1.663165 0.340340 -2.584279 0
M  V30 35 H 2.653319 2.144794 -1.396645 0
M  V30 36 H 0.972478 2.473021 -1.846358 0
M  V30 37 H 2.063551 2.942041 0.677046 0
M  V30 38 H 0.670771 3.640242 2.466727 0
M  V30 39 H -1.475441 3.130132 3.723880 0
M  V30 40 H -2.587144 0.486893 -1.643001 0
M  V30 41 H -3.994419 -1.840913 -1.756855 0
M  V30 42 H -3.199310 -1.392465 2.253701 0
M  V30 43 H 0.052704 -1.119733 0.844150 0
M  V30 END ATOM
M  V30 BEGIN BOND
M  V30 1 1 1 2
M  V30 2 1 2 3
M  V30 3 2 3 4
M  V30 4 1 4 5
M  V30 5 2 5 6
M  V30 6 1 6 7
M  V30 7 1 7 8
M  V30 8 2 8 9
M  V30 9 1 9 10
M  V30 10 1 10 11
M  V30 11 1 11 12
M  V30 12 1 12 13
M  V30 13 2 13 14
M  V30 14 1 14 15
M  V30 15 2 15 16
M  V30 16 1 16 17
M  V30 17 1 17 18
M  V30 18 1 18 19
M  V30 19 2 19 20
M  V30 20 1 20 21
M  V30 21 1 21 22
M  V30 22 2 17 23
M  V30 23 1 9 24
M  V30 24 2 24 25
M  V30 25 1 25 3
M  V30 26 1 24 6
M  V30 27 1 23 13
M  V30 28 2 22 18
M  V30 29 1 1 26
M  V30 30 1 1 27
M  V30 31 1 1 28
M  V30 32 1 4 29
M  V30 33 1 5 30
M  V30 34 1 7 31
M  V30 35 1 8 32
M  V30 36 1 10 33
M  V30 37 1 10 34
M  V30 38 1 11 35
M  V30 39 1 11 36
M  V30 40 1 12 37
M  V30 41 1 14 38
M  V30 42 1 15 39
M  V30 43 1 19 40
M  V30 44 1 20 41
M  V30 45 1 22 42
M  V30 46 1 25 43
M  V30 END BOND
M  V30 END CTAB
M  END
>  <Dataset>  (429) 
ChEMBL_Kinases

>  <Ligand_Instance>  (429) 
nan

>  <PDB_ID>  (429) 
nan

>  <Standardized_SMILES>  (429) 
COc1ccc2[nH]cc(CCNc3ccnc(-c4ccoc4)n3)c2c1

>  <Name>  (429) 
nan

>  <Pocket>  (429) 
nan

>  <ATP_Site>  (429) 
nan

>  <Peripheral>  (429) 
nan

>  <Num_H_Atoms_ProtBoundConf>  (429) 
nan

>  <Num_Resolved_Atoms>  (429) 
nan

>  <Num_Not_Resolved_Atoms>  (429) 
nan

$$$$
CHEMBL1339075
     RDKit          3D

  0  0  0  0  0  0  0  0  0  0999 V3000
M  V30 BEGIN CTAB
M  V30 COUNTS 31 33 0 0 0
M  V30 BEGIN ATOM
M  V30 1 O 0.725242 -1.904461 0.260048 0
M  V30 2 C 1.229947 -0.870995 0.770788 0
M  V30 3 N 2.613980 -1.019098 0.976003 0
M  V30 4 C 3.093360 -2.311777 0.549482 0
M  V30 5 C 3.072657 -3.299701 1.512984 0
M  V30 6 C 3.510047 -4.583073 1.217963 0
M  V30 7 C 3.952929 -4.797712 -0.063048 0
M  V30 8 Cl 4.522594 -6.384287 -0.524125 0
M  V30 9 C 3.990195 -3.826072 -1.066979 0
M  V30 10 C 3.549168 -2.564722 -0.739905 0
M  V30 11 Cl 3.539921 -1.250502 -1.899096 0
M  V30 12 C 0.496787 0.340431 1.116226 0
M  V30 13 C 1.134930 1.461975 1.687688 0
M  V30 14 S -0.321227 2.658660 1.889080 0
M  V30 15 C -1.462205 1.380175 1.158632 0
M  V30 16 C -2.970350 1.660954 0.983007 0
M  V30 17 C -3.706908 0.634184 0.430778 0
M  V30 18 C -5.049645 0.917869 0.287946 0
M  V30 19 C -5.540111 2.144918 0.686021 0
M  V30 20 N -4.751943 3.096950 1.218154 0
M  V30 21 C -3.432684 2.895358 1.389403 0
M  V30 22 N -0.813125 0.498399 0.929238 0
M  V30 23 H 3.164125 -0.216903 1.402720 0
M  V30 24 H 2.714083 -3.108258 2.534149 0
M  V30 25 H 3.506099 -5.370276 1.943882 0
M  V30 26 H 4.345187 -4.044369 -2.051886 0
M  V30 27 H 2.258230 1.515244 1.923685 0
M  V30 28 H -3.199480 -0.277492 0.162336 0
M  V30 29 H -5.657784 0.120058 -0.147983 0
M  V30 30 H -6.591881 2.349446 0.567051 0
M  V30 31 H -2.767502 3.630765 1.811219 0
M  V30 END ATOM
M  V30 BEGIN BOND
M  V30 1 2 1 2
M  V30 2 1 2 3
M  V30 3 1 3 4
M  V30 4 2 4 5
M  V30 5 1 5 6
M  V30 6 2 6 7
M  V30 7 1 7 8
M  V30 8 1 7 9
M  V30 9 2 9 10
M  V30 10 1 10 11
M  V30 11 1 2 12
M  V30 12 2 12 13
M  V30 13 1 13 14
M  V30 14 1 14 15
M  V30 15 1 15 16
M  V30 16 2 16 17
M  V30 17 1 17 18
M  V30 18 2 18 19
M  V30 19 1 19 20
M  V30 20 2 20 21
M  V30 21 2 15 22
M  V30 22 1 10 4
M  V30 23 1 22 12
M  V30 24 1 21 16
M  V30 25 1 3 23
M  V30 26 1 5 24
M  V30 27 1 6 25
M  V30 28 1 9 26
M  V30 29 1 13 27
M  V30 30 1 17 28
M  V30 31 1 18 29
M  V30 32 1 19 30
M  V30 33 1 21 31
M  V30 END BOND
M  V30 END CTAB
M  END
>  <Dataset>  (430) 
ChEMBL_Kinases

>  <Ligand_Instance>  (430) 
nan

>  <PDB_ID>  (430) 
nan

>  <Standardized_SMILES>  (430) 
O=C(Nc1ccc(Cl)cc1Cl)c1csc(-c2cccnc2)n1

>  <Name>  (430) 
nan

>  <Pocket>  (430) 
nan

>  <ATP_Site>  (430) 
nan

>  <Peripheral>  (430) 
nan

>  <Num_H_Atoms_ProtBoundConf>  (430) 
nan

>  <Num_Resolved_Atoms>  (430) 
nan

>  <Num_Not_Resolved_Atoms>  (430) 
nan

$$$$
CHEMBL1339059
     RDKit          3D

  0  0  0  0  0  0  0  0  0  0999 V3000
M  V30 BEGIN CTAB
M  V30 COUNTS 51 52 0 0 0
M  V30 BEGIN ATOM
M  V30 1 C 0.818850 -5.637888 1.768017 0
M  V30 2 O 1.477370 -4.464836 2.153868 0
M  V30 3 C 1.950008 -3.478137 1.333305 0
M  V30 4 C 2.569563 -2.407082 1.943428 0
M  V30 5 C 3.071613 -1.373383 1.181014 0
M  V30 6 C 2.979538 -1.360970 -0.210544 0
M  V30 7 S 3.663420 0.019904 -1.042716 0
M  V30 8 O 4.843056 0.542624 -0.238214 0
M  V30 9 O 4.251893 -0.401245 -2.370852 0
M  V30 10 N 2.574551 1.283921 -1.269256 0
M  V30 11 C 1.451020 0.975715 -2.049342 0
M  V30 12 C 2.500035 2.284171 -0.287512 0
M  V30 13 C 1.505200 2.019578 0.773399 0
M  V30 14 O 1.534171 2.996009 1.602306 0
M  V30 15 N 0.593266 0.965697 1.025516 0
M  V30 16 C -0.137756 1.230038 2.213071 0
M  V30 17 C -1.136040 0.164742 2.561267 0
M  V30 18 C -2.166912 -0.059820 1.549186 0
M  V30 19 C -2.324157 0.556049 0.379178 0
M  V30 20 C -3.493635 0.071967 -0.410949 0
M  V30 21 C -4.704505 0.347996 0.476328 0
M  V30 22 C -4.563502 -0.486235 1.713167 0
M  V30 23 C -3.182989 -1.116153 1.855939 0
M  V30 24 C 2.356634 -2.439906 -0.808147 0
M  V30 25 C 1.853710 -3.474285 -0.052860 0
M  V30 26 H -0.049840 -5.403149 1.128503 0
M  V30 27 H 1.497621 -6.403421 1.347767 0
M  V30 28 H 0.388434 -6.093090 2.702247 0
M  V30 29 H 2.680121 -2.344622 3.027907 0
M  V30 30 H 3.554572 -0.544440 1.701813 0
M  V30 31 H 1.239422 -0.128957 -1.978302 0
M  V30 32 H 0.510893 1.494924 -1.719424 0
M  V30 33 H 1.637828 1.182748 -3.136853 0
M  V30 34 H 2.145920 3.236895 -0.795219 0
M  V30 35 H 3.490788 2.565857 0.149059 0
M  V30 36 H 0.652900 0.241533 0.303246 0
M  V30 37 H 0.573173 1.430634 3.039876 0
M  V30 38 H -0.718227 2.176383 2.082226 0
M  V30 39 H -0.559969 -0.797140 2.661359 0
M  V30 40 H -1.595127 0.312750 3.553937 0
M  V30 41 H -1.588023 1.321451 0.157887 0
M  V30 42 H -3.576894 0.578050 -1.381590 0
M  V30 43 H -3.440214 -1.023463 -0.628750 0
M  V30 44 H -5.660607 0.185779 -0.042686 0
M  V30 45 H -4.624466 1.438323 0.742453 0
M  V30 46 H -5.354419 -1.265740 1.710581 0
M  V30 47 H -4.702095 0.157290 2.615369 0
M  V30 48 H -3.136994 -1.479655 2.897496 0
M  V30 49 H -3.067871 -2.003831 1.211968 0
M  V30 50 H 2.297170 -2.407971 -1.888225 0
M  V30 51 H 1.369209 -4.312319 -0.526581 0
M  V30 END ATOM
M  V30 BEGIN BOND
M  V30 1 1 1 2
M  V30 2 1 2 3
M  V30 3 2 3 4
M  V30 4 1 4 5
M  V30 5 2 5 6
M  V30 6 1 6 7
M  V30 7 2 7 8
M  V30 8 2 7 9
M  V30 9 1 7 10
M  V30 10 1 10 11
M  V30 11 1 10 12
M  V30 12 1 12 13
M  V30 13 2 13 14
M  V30 14 1 13 15
M  V30 15 1 15 16
M  V30 16 1 16 17
M  V30 17 1 17 18
M  V30 18 2 18 19
M  V30 19 1 19 20
M  V30 20 1 20 21
M  V30 21 1 21 22
M  V30 22 1 22 23
M  V30 23 1 6 24
M  V30 24 2 24 25
M  V30 25 1 25 3
M  V30 26 1 23 18
M  V30 27 1 1 26
M  V30 28 1 1 27
M  V30 29 1 1 28
M  V30 30 1 4 29
M  V30 31 1 5 30
M  V30 32 1 11 31
M  V30 33 1 11 32
M  V30 34 1 11 33
M  V30 35 1 12 34
M  V30 36 1 12 35
M  V30 37 1 15 36
M  V30 38 1 16 37
M  V30 39 1 16 38
M  V30 40 1 17 39
M  V30 41 1 17 40
M  V30 42 1 19 41
M  V30 43 1 20 42
M  V30 44 1 20 43
M  V30 45 1 21 44
M  V30 46 1 21 45
M  V30 47 1 22 46
M  V30 48 1 22 47
M  V30 49 1 23 48
M  V30 50 1 23 49
M  V30 51 1 24 50
M  V30 52 1 25 51
M  V30 END BOND
M  V30 END CTAB
M  END
>  <Dataset>  (431) 
ChEMBL_Kinases

>  <Ligand_Instance>  (431) 
nan

>  <PDB_ID>  (431) 
nan

>  <Standardized_SMILES>  (431) 
COc1ccc(S(=O)(=O)N(C)CC(=O)NCCC2=CCCCC2)cc1

>  <Name>  (431) 
nan

>  <Pocket>  (431) 
nan

>  <ATP_Site>  (431) 
nan

>  <Peripheral>  (431) 
nan

>  <Num_H_Atoms_ProtBoundConf>  (431) 
nan

>  <Num_Resolved_Atoms>  (431) 
nan

>  <Num_Not_Resolved_Atoms>  (431) 
nan

$$$$
CHEMBL1339025
     RDKit          3D

  0  0  0  0  0  0  0  0  0  0999 V3000
M  V30 BEGIN CTAB
M  V30 COUNTS 44 45 0 0 0
M  V30 BEGIN ATOM
M  V30 1 C 1.557855 -3.182831 4.814463 0
M  V30 2 O 1.471546 -2.124491 3.902600 0
M  V30 3 C 2.142110 -2.106589 2.689263 0
M  V30 4 C 2.962019 -3.136627 2.264947 0
M  V30 5 C 3.632683 -3.134671 1.067484 0
M  V30 6 C 3.473827 -2.026013 0.234271 0
M  V30 7 C 4.188795 -1.998310 -1.068095 0
M  V30 8 C 2.649400 -0.995703 0.666367 0
M  V30 9 C 1.978795 -0.996589 1.862649 0
M  V30 10 S 0.957133 0.355243 2.322559 0
M  V30 11 O -0.438452 -0.174535 2.490804 0
M  V30 12 O 1.437369 0.838112 3.658514 0
M  V30 13 N 0.931250 1.574056 1.141438 0
M  V30 14 C 2.178622 2.195816 0.850154 0
M  V30 15 C -0.126023 2.508238 1.374524 0
M  V30 16 C -1.370260 2.116332 0.671692 0
M  V30 17 O -2.352920 2.881955 0.825601 0
M  V30 18 N -1.519099 0.965499 -0.140624 0
M  V30 19 C -2.653224 0.503676 -0.849657 0
M  V30 20 C -2.534849 -0.658267 -1.573989 0
M  V30 21 C -3.578102 -1.182874 -2.292054 0
M  V30 22 C -4.801981 -0.568591 -2.323192 0
M  V30 23 C -4.959333 0.599068 -1.608985 0
M  V30 24 C -3.883029 1.088218 -0.902528 0
M  V30 25 H 1.297109 -2.807375 5.834148 0
M  V30 26 H 0.912120 -4.049208 4.579984 0
M  V30 27 H 2.607348 -3.597925 4.831323 0
M  V30 28 H 3.101256 -4.008956 2.895161 0
M  V30 29 H 4.276460 -3.934557 0.725378 0
M  V30 30 H 3.520114 -2.520349 -1.813373 0
M  V30 31 H 4.320800 -0.946891 -1.430488 0
M  V30 32 H 5.125493 -2.546439 -0.964057 0
M  V30 33 H 2.583986 -0.184944 -0.033441 0
M  V30 34 H 2.192771 3.285357 1.128267 0
M  V30 35 H 2.336407 2.192401 -0.250391 0
M  V30 36 H 3.068900 1.734961 1.322551 0
M  V30 37 H -0.337949 2.632025 2.455639 0
M  V30 38 H 0.249489 3.503083 0.997933 0
M  V30 39 H -0.626403 0.428985 -0.178072 0
M  V30 40 H -1.572191 -1.190933 -1.582147 0
M  V30 41 H -3.407338 -2.094076 -2.832294 0
M  V30 42 H -5.613556 -1.002028 -2.898505 0
M  V30 43 H -5.915242 1.101520 -1.618352 0
M  V30 44 H -4.065819 1.994406 -0.369881 0
M  V30 END ATOM
M  V30 BEGIN BOND
M  V30 1 1 1 2
M  V30 2 1 2 3
M  V30 3 2 3 4
M  V30 4 1 4 5
M  V30 5 2 5 6
M  V30 6 1 6 7
M  V30 7 1 6 8
M  V30 8 2 8 9
M  V30 9 1 9 10
M  V30 10 2 10 11
M  V30 11 2 10 12
M  V30 12 1 10 13
M  V30 13 1 13 14
M  V30 14 1 13 15
M  V30 15 1 15 16
M  V30 16 2 16 17
M  V30 17 1 16 18
M  V30 18 1 18 19
M  V30 19 2 19 20
M  V30 20 1 20 21
M  V30 21 2 21 22
M  V30 22 1 22 23
M  V30 23 2 23 24
M  V30 24 1 9 3
M  V30 25 1 24 19
M  V30 26 1 1 25
M  V30 27 1 1 26
M  V30 28 1 1 27
M  V30 29 1 4 28
M  V30 30 1 5 29
M  V30 31 1 7 30
M  V30 32 1 7 31
M  V30 33 1 7 32
M  V30 34 1 8 33
M  V30 35 1 14 34
M  V30 36 1 14 35
M  V30 37 1 14 36
M  V30 38 1 15 37
M  V30 39 1 15 38
M  V30 40 1 18 39
M  V30 41 1 20 40
M  V30 42 1 21 41
M  V30 43 1 22 42
M  V30 44 1 23 43
M  V30 45 1 24 44
M  V30 END BOND
M  V30 END CTAB
M  END
>  <Dataset>  (432) 
ChEMBL_Kinases

>  <Ligand_Instance>  (432) 
nan

>  <PDB_ID>  (432) 
nan

>  <Standardized_SMILES>  (432) 
COc1ccc(C)cc1S(=O)(=O)N(C)CC(=O)Nc1ccccc1

>  <Name>  (432) 
nan

>  <Pocket>  (432) 
nan

>  <ATP_Site>  (432) 
nan

>  <Peripheral>  (432) 
nan

>  <Num_H_Atoms_ProtBoundConf>  (432) 
nan

>  <Num_Resolved_Atoms>  (432) 
nan

>  <Num_Not_Resolved_Atoms>  (432) 
nan

$$$$
CHEMBL1338958
     RDKit          3D

  0  0  0  0  0  0  0  0  0  0999 V3000
M  V30 BEGIN CTAB
M  V30 COUNTS 61 62 0 0 0
M  V30 BEGIN ATOM
M  V30 1 C -0.239987 -2.462645 4.282317 0
M  V30 2 C -0.154574 -1.030241 4.708629 0
M  V30 3 C 1.039773 -0.289288 4.173895 0 CFG=1
M  V30 4 C 2.281922 -0.999945 4.673084 0
M  V30 5 C 1.130498 -0.208615 2.691551 0 CFG=2
M  V30 6 N 2.341946 0.537509 2.369136 0
M  V30 7 C 3.404742 -0.138695 1.715067 0
M  V30 8 O 3.413638 -1.356596 1.370358 0
M  V30 9 O 4.640472 0.372824 1.318213 0
M  V30 10 C 5.600132 -0.468153 0.663834 0
M  V30 11 C 6.808035 0.381252 0.374845 0
M  V30 12 C 5.008939 -0.961803 -0.633248 0
M  V30 13 C 6.024186 -1.603423 1.564504 0
M  V30 14 C -0.050273 0.422546 2.056554 0
M  V30 15 N -0.429889 1.698194 1.965486 0
M  V30 16 N -1.575244 1.804174 1.296534 0
M  V30 17 C -1.919695 0.546588 0.959733 0
M  V30 18 S -3.292350 -0.137353 0.072959 0
M  V30 19 O -4.501178 0.758628 0.291574 0
M  V30 20 O -3.667636 -1.472283 0.623133 0
M  V30 21 C -2.909159 -0.214984 -1.643389 0
M  V30 22 C -3.974352 -0.771977 -2.490428 0
M  V30 23 C -4.784611 0.068104 -3.221186 0
M  V30 24 C -5.811121 -0.417558 -4.026161 0
M  V30 25 C -6.657890 0.517428 -4.793420 0
M  V30 26 C -6.056143 -1.785276 -4.120750 0
M  V30 27 C -5.245813 -2.643005 -3.388955 0
M  V30 28 C -4.241692 -2.117345 -2.605756 0
M  V30 29 C -3.430552 -3.125176 -1.878890 0
M  V30 30 O -0.990415 -0.278523 1.424609 0
M  V30 31 H 0.328281 -2.684676 3.365630 0
M  V30 32 H 0.148681 -3.137710 5.082300 0
M  V30 33 H -1.291745 -2.781968 4.126911 0
M  V30 34 H -0.048370 -1.015779 5.818028 0
M  V30 35 H -1.112494 -0.474767 4.527078 0
M  V30 36 H 1.027902 0.706443 4.672306 0
M  V30 37 H 3.136382 -0.338612 4.428633 0
M  V30 38 H 2.357083 -1.942658 4.070131 0
M  V30 39 H 2.225382 -1.296401 5.729842 0
M  V30 40 H 1.305403 -1.238238 2.318428 0
M  V30 41 H 2.535775 1.539055 2.563541 0
M  V30 42 H 7.719017 0.006038 0.907653 0
M  V30 43 H 6.654966 1.450312 0.625534 0
M  V30 44 H 7.048934 0.332266 -0.706606 0
M  V30 45 H 4.608246 -1.999727 -0.531484 0
M  V30 46 H 5.754830 -0.976490 -1.454945 0
M  V30 47 H 4.187852 -0.261159 -0.952426 0
M  V30 48 H 6.005383 -1.273750 2.619284 0
M  V30 49 H 5.436586 -2.530769 1.386947 0
M  V30 50 H 7.089774 -1.844573 1.350442 0
M  V30 51 H -1.939753 -0.769944 -1.762199 0
M  V30 52 H -2.662163 0.832445 -1.983025 0
M  V30 53 H -4.632115 1.142382 -3.180245 0
M  V30 54 H -6.217841 0.790568 -5.780909 0
M  V30 55 H -6.729092 1.471084 -4.230995 0
M  V30 56 H -7.678657 0.108709 -4.972484 0
M  V30 57 H -6.851751 -2.163163 -4.743645 0
M  V30 58 H -5.462224 -3.699089 -3.484622 0
M  V30 59 H -3.207623 -3.955908 -2.587836 0
M  V30 60 H -2.468596 -2.719460 -1.487282 0
M  V30 61 H -4.057578 -3.559440 -1.092387 0
M  V30 END ATOM
M  V30 BEGIN BOND
M  V30 1 1 1 2
M  V30 2 1 2 3
M  V30 3 1 3 4
M  V30 4 1 3 5
M  V30 5 1 5 6
M  V30 6 1 6 7
M  V30 7 2 7 8
M  V30 8 1 7 9
M  V30 9 1 9 10
M  V30 10 1 10 11
M  V30 11 1 10 12
M  V30 12 1 10 13
M  V30 13 1 5 14
M  V30 14 2 14 15
M  V30 15 1 15 16
M  V30 16 2 16 17
M  V30 17 1 17 18
M  V30 18 2 18 19
M  V30 19 2 18 20
M  V30 20 1 18 21
M  V30 21 1 21 22
M  V30 22 2 22 23
M  V30 23 1 23 24
M  V30 24 1 24 25
M  V30 25 2 24 26
M  V30 26 1 26 27
M  V30 27 2 27 28
M  V30 28 1 28 29
M  V30 29 1 17 30
M  V30 30 1 30 14
M  V30 31 1 28 22
M  V30 32 1 1 31
M  V30 33 1 1 32
M  V30 34 1 1 33
M  V30 35 1 2 34
M  V30 36 1 2 35
M  V30 37 1 3 36 CFG=1
M  V30 38 1 4 37
M  V30 39 1 4 38
M  V30 40 1 4 39
M  V30 41 1 5 40 CFG=3
M  V30 42 1 6 41
M  V30 43 1 11 42
M  V30 44 1 11 43
M  V30 45 1 11 44
M  V30 46 1 12 45
M  V30 47 1 12 46
M  V30 48 1 12 47
M  V30 49 1 13 48
M  V30 50 1 13 49
M  V30 51 1 13 50
M  V30 52 1 21 51
M  V30 53 1 21 52
M  V30 54 1 23 53
M  V30 55 1 25 54
M  V30 56 1 25 55
M  V30 57 1 25 56
M  V30 58 1 26 57
M  V30 59 1 27 58
M  V30 60 1 29 59
M  V30 61 1 29 60
M  V30 62 1 29 61
M  V30 END BOND
M  V30 END CTAB
M  END
>  <Dataset>  (433) 
ChEMBL_Kinases

>  <Ligand_Instance>  (433) 
nan

>  <PDB_ID>  (433) 
nan

>  <Standardized_SMILES>  (433) 
CC[C@@H](C)[C@H](NC(=O)OC(C)(C)C)c1nnc(S(=O)(=O)Cc2cc(C)ccc2C)o1

>  <Name>  (433) 
nan

>  <Pocket>  (433) 
nan

>  <ATP_Site>  (433) 
nan

>  <Peripheral>  (433) 
nan

>  <Num_H_Atoms_ProtBoundConf>  (433) 
nan

>  <Num_Resolved_Atoms>  (433) 
nan

>  <Num_Not_Resolved_Atoms>  (433) 
nan

$$$$
CHEMBL1338728
     RDKit          3D

  0  0  0  0  0  0  0  0  0  0999 V3000
M  V30 BEGIN CTAB
M  V30 COUNTS 51 52 0 0 0
M  V30 BEGIN ATOM
M  V30 1 C 2.707621 -8.581050 -0.157855 0
M  V30 2 C 1.926285 -7.382378 -0.710274 0
M  V30 3 C 2.929684 -6.541450 -1.434882 0
M  V30 4 C 2.358428 -5.295536 -2.063128 0
M  V30 5 C 1.718531 -4.356828 -1.064328 0
M  V30 6 C 2.699581 -3.900189 -0.045996 0
M  V30 7 O 2.266495 -3.039755 0.933362 0
M  V30 8 C 1.739780 -1.796244 0.892646 0
M  V30 9 C 1.456658 -1.357794 2.192451 0
M  V30 10 C 0.901400 -0.102069 2.467782 0
M  V30 11 C 0.619832 0.743875 1.406547 0
M  V30 12 C 0.035082 2.088411 1.525650 0
M  V30 13 O -0.201025 2.817495 0.502250 0
M  V30 14 N -0.311961 2.683032 2.760879 0
M  V30 15 C -0.893930 4.015944 2.873820 0
M  V30 16 C -2.199036 4.169362 2.171221 0
M  V30 17 C -2.823114 5.535488 2.268650 0
M  V30 18 N -4.079806 5.438573 1.511304 0
M  V30 19 C -4.270895 5.683507 0.188113 0
M  V30 20 C -5.619642 5.457299 -0.053976 0
M  V30 21 N -6.238823 5.081415 1.100742 0
M  V30 22 C -5.278464 5.074637 2.053929 0
M  V30 23 C 0.900348 0.308310 0.128725 0
M  V30 24 C 1.446296 -0.927291 -0.135712 0
M  V30 25 H 2.134360 -9.189007 0.539873 0
M  V30 26 H 3.037759 -9.234072 -1.002183 0
M  V30 27 H 3.642945 -8.224038 0.330207 0
M  V30 28 H 1.600271 -6.812240 0.199474 0
M  V30 29 H 1.103553 -7.766931 -1.311853 0
M  V30 30 H 3.757216 -6.339392 -0.751513 0
M  V30 31 H 3.321467 -7.155163 -2.272825 0
M  V30 32 H 1.689404 -5.541209 -2.906954 0
M  V30 33 H 3.231770 -4.751988 -2.503211 0
M  V30 34 H 0.917250 -4.933838 -0.514398 0
M  V30 35 H 1.183806 -3.589509 -1.619513 0
M  V30 36 H 3.523241 -3.372983 -0.614304 0
M  V30 37 H 3.230336 -4.762606 0.440308 0
M  V30 38 H 1.618942 -1.901553 3.122560 0
M  V30 39 H 0.672967 0.262783 3.450065 0
M  V30 40 H -0.132505 2.118986 3.619784 0
M  V30 41 H -0.123822 4.733935 2.477045 0
M  V30 42 H -1.022124 4.258593 3.928930 0
M  V30 43 H -2.912796 3.468280 2.697415 0
M  V30 44 H -2.209070 3.814525 1.121813 0
M  V30 45 H -2.185671 6.355180 1.939025 0
M  V30 46 H -3.092245 5.700880 3.341399 0
M  V30 47 H -3.488142 5.988617 -0.479607 0
M  V30 48 H -6.079418 5.572249 -1.029714 0
M  V30 49 H -5.388332 4.825716 3.107948 0
M  V30 50 H 0.730963 0.867333 -0.795131 0
M  V30 51 H 1.696253 -1.336020 -1.101899 0
M  V30 END ATOM
M  V30 BEGIN BOND
M  V30 1 1 1 2
M  V30 2 1 2 3
M  V30 3 1 3 4
M  V30 4 1 4 5
M  V30 5 1 5 6
M  V30 6 1 6 7
M  V30 7 1 7 8
M  V30 8 2 8 9
M  V30 9 1 9 10
M  V30 10 2 10 11
M  V30 11 1 11 12
M  V30 12 2 12 13
M  V30 13 1 12 14
M  V30 14 1 14 15
M  V30 15 1 15 16
M  V30 16 1 16 17
M  V30 17 1 17 18
M  V30 18 1 18 19
M  V30 19 2 19 20
M  V30 20 1 20 21
M  V30 21 2 21 22
M  V30 22 1 11 23
M  V30 23 2 23 24
M  V30 24 1 24 8
M  V30 25 1 22 18
M  V30 26 1 1 25
M  V30 27 1 1 26
M  V30 28 1 1 27
M  V30 29 1 2 28
M  V30 30 1 2 29
M  V30 31 1 3 30
M  V30 32 1 3 31
M  V30 33 1 4 32
M  V30 34 1 4 33
M  V30 35 1 5 34
M  V30 36 1 5 35
M  V30 37 1 6 36
M  V30 38 1 6 37
M  V30 39 1 9 38
M  V30 40 1 10 39
M  V30 41 1 14 40
M  V30 42 1 15 41
M  V30 43 1 15 42
M  V30 44 1 16 43
M  V30 45 1 16 44
M  V30 46 1 17 45
M  V30 47 1 17 46
M  V30 48 1 19 47
M  V30 49 1 20 48
M  V30 50 1 22 49
M  V30 51 1 23 50
M  V30 52 1 24 51
M  V30 END BOND
M  V30 END CTAB
M  END
>  <Dataset>  (434) 
ChEMBL_Kinases

>  <Ligand_Instance>  (434) 
nan

>  <PDB_ID>  (434) 
nan

>  <Standardized_SMILES>  (434) 
CCCCCCOc1ccc(C(=O)NCCCn2ccnc2)cc1

>  <Name>  (434) 
nan

>  <Pocket>  (434) 
nan

>  <ATP_Site>  (434) 
nan

>  <Peripheral>  (434) 
nan

>  <Num_H_Atoms_ProtBoundConf>  (434) 
nan

>  <Num_Resolved_Atoms>  (434) 
nan

>  <Num_Not_Resolved_Atoms>  (434) 
nan

$$$$
CHEMBL1338663
     RDKit          3D

  0  0  0  0  0  0  0  0  0  0999 V3000
M  V30 BEGIN CTAB
M  V30 COUNTS 34 37 0 0 0
M  V30 BEGIN ATOM
M  V30 1 C 1.438159 -2.222931 4.564070 0
M  V30 2 O 2.016375 -2.232396 3.276790 0
M  V30 3 C 1.334065 -1.621423 2.237121 0
M  V30 4 N 0.144290 -1.032393 2.456272 0
M  V30 5 C -0.551141 -0.429496 1.481554 0
M  V30 6 C -0.109884 -0.358262 0.165572 0
M  V30 7 C 1.127395 -0.963690 -0.093690 0
M  V30 8 C 1.656966 -0.929384 -1.485107 0
M  V30 9 C 2.684445 -1.309294 -2.169795 0
M  V30 10 C 2.898478 -1.131094 -3.465090 0
M  V30 11 Br 4.295299 -1.585532 -4.673815 0
M  V30 12 C 1.855999 -0.451717 -4.086698 0
M  V30 13 S 0.672442 -0.147500 -2.700264 0
M  V30 14 C 1.818611 -1.574182 0.922971 0
M  V30 15 C 3.079502 -2.216254 0.757844 0
M  V30 16 N 4.114235 -2.748415 0.642218 0
M  V30 17 C -1.117717 0.368308 -0.603076 0
M  V30 18 C -2.161382 0.690954 0.375999 0
M  V30 19 C -3.367918 1.375436 0.197458 0
M  V30 20 C -4.230173 1.587099 1.253963 0
M  V30 21 C -3.903551 1.117595 2.514998 0
M  V30 22 C -2.708800 0.441778 2.683037 0
M  V30 23 C -1.841313 0.226127 1.631355 0
M  V30 24 H 1.629877 -1.267731 5.097185 0
M  V30 25 H 0.330776 -2.362529 4.513785 0
M  V30 26 H 1.857289 -3.068232 5.171320 0
M  V30 27 H 3.503269 -1.833953 -1.715857 0
M  V30 28 H 1.615770 -0.067150 -5.251305 0
M  V30 29 H -1.567801 -0.301397 -1.381496 0
M  V30 30 H -0.697446 1.265849 -1.104802 0
M  V30 31 H -3.619207 1.742531 -0.797792 0
M  V30 32 H -5.159139 2.132590 1.037658 0
M  V30 33 H -4.588402 1.290478 3.334052 0
M  V30 34 H -2.450973 0.072722 3.671808 0
M  V30 END ATOM
M  V30 BEGIN BOND
M  V30 1 1 1 2
M  V30 2 1 2 3
M  V30 3 2 3 4
M  V30 4 1 4 5
M  V30 5 2 5 6
M  V30 6 1 6 7
M  V30 7 1 7 8
M  V30 8 2 8 9
M  V30 9 1 9 10
M  V30 10 1 10 11
M  V30 11 2 10 12
M  V30 12 1 12 13
M  V30 13 2 7 14
M  V30 14 1 14 15
M  V30 15 3 15 16
M  V30 16 1 6 17
M  V30 17 1 17 18
M  V30 18 2 18 19
M  V30 19 1 19 20
M  V30 20 2 20 21
M  V30 21 1 21 22
M  V30 22 2 22 23
M  V30 23 1 14 3
M  V30 24 1 23 18
M  V30 25 1 23 5
M  V30 26 1 13 8
M  V30 27 1 1 24
M  V30 28 1 1 25
M  V30 29 1 1 26
M  V30 30 1 9 27
M  V30 31 1 12 28
M  V30 32 1 17 29
M  V30 33 1 17 30
M  V30 34 1 19 31
M  V30 35 1 20 32
M  V30 36 1 21 33
M  V30 37 1 22 34
M  V30 END BOND
M  V30 END CTAB
M  END
>  <Dataset>  (435) 
ChEMBL_Kinases

>  <Ligand_Instance>  (435) 
nan

>  <PDB_ID>  (435) 
nan

>  <Standardized_SMILES>  (435) 
COc1nc2c(c(-c3cc(Br)cs3)c1C#N)Cc1ccccc1-2

>  <Name>  (435) 
nan

>  <Pocket>  (435) 
nan

>  <ATP_Site>  (435) 
nan

>  <Peripheral>  (435) 
nan

>  <Num_H_Atoms_ProtBoundConf>  (435) 
nan

>  <Num_Resolved_Atoms>  (435) 
nan

>  <Num_Not_Resolved_Atoms>  (435) 
nan

$$$$
CHEMBL1338459
     RDKit          3D

  0  0  0  0  0  0  0  0  0  0999 V3000
M  V30 BEGIN CTAB
M  V30 COUNTS 44 46 0 0 0
M  V30 BEGIN ATOM
M  V30 1 C -3.933658 2.167206 2.716056 0
M  V30 2 C -2.566113 2.186610 2.168828 0
M  V30 3 C -2.401666 2.366020 0.798066 0
M  V30 4 C -1.143038 2.385730 0.280672 0
M  V30 5 C 0.005370 2.232887 1.066929 0
M  V30 6 S 1.646493 2.240523 0.503972 0
M  V30 7 O 2.428667 2.960513 1.619802 0
M  V30 8 O 1.798230 3.258841 -0.638590 0
M  V30 9 N 2.426566 0.819337 0.247982 0
M  V30 10 C 2.105440 -0.187358 -0.637511 0
M  V30 11 C 1.739073 0.148129 -2.053854 0
M  V30 12 F 0.651454 0.950938 -2.208269 0
M  V30 13 F 1.452346 -1.047325 -2.691222 0
M  V30 14 F 2.869516 0.650083 -2.680321 0
M  V30 15 C 3.466126 -0.903513 -0.878117 0
M  V30 16 O 4.389175 -0.260757 -1.464559 0
M  V30 17 N 3.527434 -2.235671 -0.401218 0
M  V30 18 C 2.219385 -2.472561 0.101720 0
M  V30 19 C 1.407175 -1.342629 -0.058267 0
M  V30 20 C 0.140946 -1.638792 0.402353 0
M  V30 21 O -0.773217 -0.778107 0.359870 0
M  V30 22 N -0.293313 -2.797033 0.927117 0
M  V30 23 C -1.648396 -3.022179 1.388894 0
M  V30 24 C 0.569376 -3.822326 1.038575 0
M  V30 25 O 0.197639 -4.905114 1.520300 0
M  V30 26 N 1.834284 -3.651661 0.620343 0
M  V30 27 C 2.714158 -4.791559 0.766829 0
M  V30 28 C -0.254169 2.057999 2.432762 0
M  V30 29 C -1.498937 2.027213 3.027957 0
M  V30 30 H -3.986022 2.808885 3.601972 0
M  V30 31 H -4.686165 2.535859 1.987008 0
M  V30 32 H -4.259953 1.127521 2.990819 0
M  V30 33 H -3.264486 2.487461 0.158219 0
M  V30 34 H -0.976365 2.521280 -0.756000 0
M  V30 35 H 3.250745 0.605324 0.877126 0
M  V30 36 H 4.403845 -2.780890 -0.475766 0
M  V30 37 H -1.922204 -4.086043 1.307913 0
M  V30 38 H -2.343887 -2.377498 0.812118 0
M  V30 39 H -1.728836 -2.718630 2.457495 0
M  V30 40 H 3.032488 -4.827012 1.832071 0
M  V30 41 H 3.626485 -4.685908 0.131339 0
M  V30 42 H 2.155191 -5.700356 0.517263 0
M  V30 43 H 0.605295 1.935713 3.079750 0
M  V30 44 H -1.584593 1.888028 4.079162 0
M  V30 END ATOM
M  V30 BEGIN BOND
M  V30 1 1 1 2
M  V30 2 2 2 3
M  V30 3 1 3 4
M  V30 4 2 4 5
M  V30 5 1 5 6
M  V30 6 2 6 7
M  V30 7 2 6 8
M  V30 8 1 6 9
M  V30 9 1 9 10
M  V30 10 1 10 11
M  V30 11 1 11 12
M  V30 12 1 11 13
M  V30 13 1 11 14
M  V30 14 1 10 15
M  V30 15 2 15 16
M  V30 16 1 15 17
M  V30 17 1 17 18
M  V30 18 2 18 19
M  V30 19 1 19 20
M  V30 20 2 20 21
M  V30 21 1 20 22
M  V30 22 1 22 23
M  V30 23 1 22 24
M  V30 24 2 24 25
M  V30 25 1 24 26
M  V30 26 1 26 27
M  V30 27 1 5 28
M  V30 28 2 28 29
M  V30 29 1 29 2
M  V30 30 1 19 10
M  V30 31 1 26 18
M  V30 32 1 1 30
M  V30 33 1 1 31
M  V30 34 1 1 32
M  V30 35 1 3 33
M  V30 36 1 4 34
M  V30 37 1 9 35
M  V30 38 1 17 36
M  V30 39 1 23 37
M  V30 40 1 23 38
M  V30 41 1 23 39
M  V30 42 1 27 40
M  V30 43 1 27 41
M  V30 44 1 27 42
M  V30 45 1 28 43
M  V30 46 1 29 44
M  V30 END BOND
M  V30 END CTAB
M  END
>  <Dataset>  (436) 
ChEMBL_Kinases

>  <Ligand_Instance>  (436) 
nan

>  <PDB_ID>  (436) 
nan

>  <Standardized_SMILES>  (436) 
Cc1ccc(S(=O)(=O)NC2(C(F)(F)F)C(=O)Nc3c2c(=O)n(C)c(=O)n3C)cc1

>  <Name>  (436) 
nan

>  <Pocket>  (436) 
nan

>  <ATP_Site>  (436) 
nan

>  <Peripheral>  (436) 
nan

>  <Num_H_Atoms_ProtBoundConf>  (436) 
nan

>  <Num_Resolved_Atoms>  (436) 
nan

>  <Num_Not_Resolved_Atoms>  (436) 
nan

$$$$
CHEMBL1338416
     RDKit          3D

  0  0  0  0  0  0  0  0  0  0999 V3000
M  V30 BEGIN CTAB
M  V30 COUNTS 56 60 0 0 0
M  V30 BEGIN ATOM
M  V30 1 C 2.516163 -3.582582 2.258676 0
M  V30 2 C 2.689654 -2.121791 2.032941 0
M  V30 3 C 1.663733 -1.227951 2.355256 0
M  V30 4 C 1.812405 0.127773 2.150830 0
M  V30 5 C 2.979922 0.633769 1.622184 0
M  V30 6 C 3.325494 2.048293 1.328121 0
M  V30 7 N 2.996490 2.382795 -0.029037 0
M  V30 8 N 3.887506 2.210386 -0.999611 0
M  V30 9 N 3.349726 2.588482 -2.144140 0
M  V30 10 N 2.117742 2.998007 -1.882888 0
M  V30 11 C 1.866959 2.880570 -0.562032 0
M  V30 12 C 0.630672 3.212951 0.188477 0
M  V30 13 N -0.222417 2.066067 0.209782 0
M  V30 14 C -1.453757 2.293463 0.918368 0
M  V30 15 C -2.133843 0.992754 1.236495 0
M  V30 16 C -1.776199 -0.032042 0.178153 0
M  V30 17 N -2.809083 -1.038641 0.021976 0
M  V30 18 N -4.102190 -0.784033 0.006134 0
M  V30 19 N -4.803288 -1.886093 -0.149687 0
M  V30 20 C -3.943541 -2.915931 -0.241268 0
M  V30 21 C -4.144749 -4.270530 -0.409212 0
M  V30 22 C -3.043367 -5.103782 -0.468840 0
M  V30 23 C -3.209711 -6.567280 -0.648561 0
M  V30 24 F -2.159569 -7.152734 -1.297651 0
M  V30 25 F -3.360655 -7.112294 0.630594 0
M  V30 26 F -4.367643 -6.880345 -1.320932 0
M  V30 27 C -1.785728 -4.535804 -0.356599 0
M  V30 28 C -1.568668 -3.180750 -0.188055 0
M  V30 29 C -2.663471 -2.375297 -0.131496 0
M  V30 30 C -1.672574 0.751669 -1.135759 0
M  V30 31 C -0.435003 1.619678 -1.148259 0
M  V30 32 C 4.011864 -0.254211 1.296848 0
M  V30 33 C 3.856342 -1.609802 1.504102 0
M  V30 34 H 1.493019 -3.771253 2.621578 0
M  V30 35 H 3.300993 -3.989698 2.930165 0
M  V30 36 H 2.627281 -4.092675 1.281154 0
M  V30 37 H 0.735813 -1.592752 2.771446 0
M  V30 38 H 1.070226 0.874657 2.375379 0
M  V30 39 H 2.703456 2.656807 2.045778 0
M  V30 40 H 4.397737 2.253890 1.539981 0
M  V30 41 H 0.087727 4.033579 -0.361621 0
M  V30 42 H 0.858956 3.618944 1.191032 0
M  V30 43 H -2.098086 2.969157 0.320544 0
M  V30 44 H -1.210315 2.782231 1.869007 0
M  V30 45 H -1.916251 0.631046 2.261791 0
M  V30 46 H -3.231922 1.183793 1.218298 0
M  V30 47 H -0.793075 -0.470889 0.430779 0
M  V30 48 H -5.131413 -4.681549 -0.493153 0
M  V30 49 H -0.922810 -5.210737 -0.405933 0
M  V30 50 H -0.574018 -2.755490 -0.102065 0
M  V30 51 H -1.693988 -0.000558 -1.938931 0
M  V30 52 H -2.551263 1.428097 -1.174991 0
M  V30 53 H -0.577177 2.496454 -1.792632 0
M  V30 54 H 0.406320 0.972347 -1.437107 0
M  V30 55 H 4.955892 0.023476 0.883413 0
M  V30 56 H 4.637184 -2.339505 1.264027 0
M  V30 END ATOM
M  V30 BEGIN BOND
M  V30 1 1 1 2
M  V30 2 2 2 3
M  V30 3 1 3 4
M  V30 4 2 4 5
M  V30 5 1 5 6
M  V30 6 1 6 7
M  V30 7 1 7 8
M  V30 8 2 8 9
M  V30 9 1 9 10
M  V30 10 2 10 11
M  V30 11 1 11 12
M  V30 12 1 12 13
M  V30 13 1 13 14
M  V30 14 1 14 15
M  V30 15 1 15 16
M  V30 16 1 16 17
M  V30 17 1 17 18
M  V30 18 2 18 19
M  V30 19 1 19 20
M  V30 20 2 20 21
M  V30 21 1 21 22
M  V30 22 1 22 23
M  V30 23 1 23 24
M  V30 24 1 23 25
M  V30 25 1 23 26
M  V30 26 2 22 27
M  V30 27 1 27 28
M  V30 28 2 28 29
M  V30 29 1 16 30
M  V30 30 1 30 31
M  V30 31 1 5 32
M  V30 32 2 32 33
M  V30 33 1 33 2
M  V30 34 1 11 7
M  V30 35 1 31 13
M  V30 36 1 29 17
M  V30 37 1 29 20
M  V30 38 1 1 34
M  V30 39 1 1 35
M  V30 40 1 1 36
M  V30 41 1 3 37
M  V30 42 1 4 38
M  V30 43 1 6 39
M  V30 44 1 6 40
M  V30 45 1 12 41
M  V30 46 1 12 42
M  V30 47 1 14 43
M  V30 48 1 14 44
M  V30 49 1 15 45
M  V30 50 1 15 46
M  V30 51 1 16 47
M  V30 52 1 21 48
M  V30 53 1 27 49
M  V30 54 1 28 50
M  V30 55 1 30 51
M  V30 56 1 30 52
M  V30 57 1 31 53
M  V30 58 1 31 54
M  V30 59 1 32 55
M  V30 60 1 33 56
M  V30 END BOND
M  V30 END CTAB
M  END
>  <Dataset>  (437) 
ChEMBL_Kinases

>  <Ligand_Instance>  (437) 
nan

>  <PDB_ID>  (437) 
nan

>  <Standardized_SMILES>  (437) 
Cc1ccc(Cn2nnnc2CN2CCC(n3nnc4cc(C(F)(F)F)ccc43)CC2)cc1

>  <Name>  (437) 
nan

>  <Pocket>  (437) 
nan

>  <ATP_Site>  (437) 
nan

>  <Peripheral>  (437) 
nan

>  <Num_H_Atoms_ProtBoundConf>  (437) 
nan

>  <Num_Resolved_Atoms>  (437) 
nan

>  <Num_Not_Resolved_Atoms>  (437) 
nan

$$$$
CHEMBL1338209
     RDKit          3D

  0  0  0  0  0  0  0  0  0  0999 V3000
M  V30 BEGIN CTAB
M  V30 COUNTS 51 54 0 0 0
M  V30 BEGIN ATOM
M  V30 1 C 5.126808 -5.091747 -0.471776 0
M  V30 2 O 4.290012 -4.402480 -1.377710 0
M  V30 3 C 3.450745 -3.387375 -0.935763 0
M  V30 4 C 2.687590 -2.796437 -1.920217 0
M  V30 5 C 1.832550 -1.776184 -1.527700 0
M  V30 6 C 1.783509 -1.403294 -0.193064 0
M  V30 7 C 2.562525 -2.017465 0.765946 0
M  V30 8 C 3.420738 -3.035145 0.398910 0
M  V30 9 C 2.553772 -1.662068 2.209751 0
M  V30 10 C 1.190423 -1.084246 2.526720 0
M  V30 11 C 0.946401 0.079491 1.606060 0
M  V30 12 C 0.871345 -0.324571 0.183545 0
M  V30 13 N -0.004770 0.395228 -0.413428 0
M  V30 14 N -0.590367 1.304532 0.488668 0
M  V30 15 C -1.223187 2.560284 0.345516 0
M  V30 16 C -0.736749 3.708290 1.186017 0
M  V30 17 C -2.214862 2.869035 -0.451913 0
M  V30 18 C -2.767363 1.833365 -1.313417 0
M  V30 19 C -3.889283 2.054133 -2.260180 0
M  V30 20 O -2.453156 0.624220 -1.444359 0
M  V30 21 C -0.427361 0.685427 1.791039 0
M  V30 22 C -1.495491 -0.308408 1.986633 0
M  V30 23 C -1.949324 -1.283816 1.136410 0
M  V30 24 C -2.963087 -2.148469 1.445034 0
M  V30 25 C -3.599272 -2.080543 2.664945 0
M  V30 26 F -4.603115 -2.935872 2.972344 0
M  V30 27 C -3.201770 -1.125948 3.578517 0
M  V30 28 C -2.174281 -0.280796 3.212983 0
M  V30 29 H 5.887641 -5.681164 -1.026527 0
M  V30 30 H 5.665284 -4.403828 0.224334 0
M  V30 31 H 4.565076 -5.792512 0.190381 0
M  V30 32 H 2.737656 -3.099993 -2.960555 0
M  V30 33 H 1.190431 -1.251804 -2.242987 0
M  V30 34 H 4.042929 -3.536810 1.118103 0
M  V30 35 H 2.796428 -2.535231 2.841886 0
M  V30 36 H 3.364958 -0.909843 2.375286 0
M  V30 37 H 1.204565 -0.659595 3.565838 0
M  V30 38 H 0.446387 -1.871868 2.428571 0
M  V30 39 H 1.681312 0.874266 1.791977 0
M  V30 40 H 0.320515 3.526426 1.411812 0
M  V30 41 H -0.884138 4.684628 0.678150 0
M  V30 42 H -1.288335 3.681314 2.171247 0
M  V30 43 H -2.680548 3.837151 -0.542085 0
M  V30 44 H -4.165413 3.148229 -2.301647 0
M  V30 45 H -3.651030 1.761685 -3.291458 0
M  V30 46 H -4.752014 1.459335 -1.891763 0
M  V30 47 H -0.423055 1.450885 2.603752 0
M  V30 48 H -1.452857 -1.344562 0.180064 0
M  V30 49 H -3.235165 -2.875884 0.694919 0
M  V30 50 H -3.664326 -1.025635 4.550898 0
M  V30 51 H -1.881580 0.468961 3.964949 0
M  V30 END ATOM
M  V30 BEGIN BOND
M  V30 1 1 1 2
M  V30 2 1 2 3
M  V30 3 2 3 4
M  V30 4 1 4 5
M  V30 5 2 5 6
M  V30 6 1 6 7
M  V30 7 2 7 8
M  V30 8 1 7 9
M  V30 9 1 9 10
M  V30 10 1 10 11
M  V30 11 1 11 12
M  V30 12 2 12 13
M  V30 13 1 13 14
M  V30 14 1 14 15
M  V30 15 1 15 16
M  V30 16 2 15 17
M  V30 17 1 17 18
M  V30 18 1 18 19
M  V30 19 2 18 20
M  V30 20 1 14 21
M  V30 21 1 21 22
M  V30 22 2 22 23
M  V30 23 1 23 24
M  V30 24 2 24 25
M  V30 25 1 25 26
M  V30 26 1 25 27
M  V30 27 2 27 28
M  V30 28 1 8 3
M  V30 29 1 21 11
M  V30 30 1 28 22
M  V30 31 1 12 6
M  V30 32 1 1 29
M  V30 33 1 1 30
M  V30 34 1 1 31
M  V30 35 1 4 32
M  V30 36 1 5 33
M  V30 37 1 8 34
M  V30 38 1 9 35
M  V30 39 1 9 36
M  V30 40 1 10 37
M  V30 41 1 10 38
M  V30 42 1 11 39
M  V30 43 1 16 40
M  V30 44 1 16 41
M  V30 45 1 16 42
M  V30 46 1 17 43
M  V30 47 1 19 44
M  V30 48 1 19 45
M  V30 49 1 19 46
M  V30 50 1 21 47
M  V30 51 1 23 48
M  V30 52 1 24 49
M  V30 53 1 27 50
M  V30 54 1 28 51
M  V30 END BOND
M  V30 END CTAB
M  END
>  <Dataset>  (438) 
ChEMBL_Kinases

>  <Ligand_Instance>  (438) 
nan

>  <PDB_ID>  (438) 
nan

>  <Standardized_SMILES>  (438) 
COc1ccc2c(c1)CCC1C2=NN(/C(C)=C\C(C)=O)C1c1ccc(F)cc1

>  <Name>  (438) 
nan

>  <Pocket>  (438) 
nan

>  <ATP_Site>  (438) 
nan

>  <Peripheral>  (438) 
nan

>  <Num_H_Atoms_ProtBoundConf>  (438) 
nan

>  <Num_Resolved_Atoms>  (438) 
nan

>  <Num_Not_Resolved_Atoms>  (438) 
nan

$$$$
CHEMBL1336195
     RDKit          3D

  0  0  0  0  0  0  0  0  0  0999 V3000
M  V30 BEGIN CTAB
M  V30 COUNTS 31 33 0 0 0
M  V30 BEGIN ATOM
M  V30 1 C -1.129817 -2.890703 4.588787 0
M  V30 2 C -1.055360 -1.965355 3.432793 0
M  V30 3 C 0.138671 -1.495045 2.931158 0
M  V30 4 C 0.210216 -0.633604 1.855558 0
M  V30 5 N 1.350651 -0.090171 1.250264 0
M  V30 6 C 1.979513 -0.437036 0.032635 0
M  V30 7 C 1.506429 -1.423071 -0.779015 0
M  V30 8 C 2.159430 -1.719074 -1.972610 0
M  V30 9 C 3.299914 -1.028111 -2.369804 0
M  V30 10 F 3.907101 -1.343373 -3.544363 0
M  V30 11 C 3.762440 -0.032194 -1.529433 0
M  V30 12 C 3.104570 0.260506 -0.336551 0
M  V30 13 Cl 3.834009 1.541459 0.594083 0
M  V30 14 N -0.946614 -0.224939 1.255623 0
M  V30 15 N -1.256778 0.557869 0.239036 0
M  V30 16 C -2.587569 0.616406 0.056077 0
M  V30 17 C -2.920874 1.490179 -1.098198 0
M  V30 18 N -3.131924 -0.179633 1.023310 0
M  V30 19 C -2.115466 -0.697010 1.761020 0
M  V30 20 N -2.206571 -1.544035 2.818931 0
M  V30 21 H -0.186015 -2.859941 5.140775 0
M  V30 22 H -1.409142 -3.916660 4.256646 0
M  V30 23 H -1.912108 -2.562185 5.335102 0
M  V30 24 H 1.078848 -1.783419 3.365721 0
M  V30 25 H 1.710519 0.669728 1.866805 0
M  V30 26 H 0.626450 -1.995742 -0.527431 0
M  V30 27 H 1.820340 -2.480898 -2.636504 0
M  V30 28 H 4.655021 0.495139 -1.858107 0
M  V30 29 H -4.035298 1.548871 -1.240004 0
M  V30 30 H -2.572843 2.526047 -0.950928 0
M  V30 31 H -2.523106 1.071681 -2.045909 0
M  V30 END ATOM
M  V30 BEGIN BOND
M  V30 1 1 1 2
M  V30 2 1 2 3
M  V30 3 2 3 4
M  V30 4 1 4 5
M  V30 5 1 5 6
M  V30 6 2 6 7
M  V30 7 1 7 8
M  V30 8 2 8 9
M  V30 9 1 9 10
M  V30 10 1 9 11
M  V30 11 2 11 12
M  V30 12 1 12 13
M  V30 13 1 4 14
M  V30 14 1 14 15
M  V30 15 2 15 16
M  V30 16 1 16 17
M  V30 17 1 16 18
M  V30 18 2 18 19
M  V30 19 1 19 20
M  V30 20 2 20 2
M  V30 21 1 12 6
M  V30 22 1 19 14
M  V30 23 1 1 21
M  V30 24 1 1 22
M  V30 25 1 1 23
M  V30 26 1 3 24
M  V30 27 1 5 25
M  V30 28 1 7 26
M  V30 29 1 8 27
M  V30 30 1 11 28
M  V30 31 1 17 29
M  V30 32 1 17 30
M  V30 33 1 17 31
M  V30 END BOND
M  V30 END CTAB
M  END
>  <Dataset>  (439) 
ChEMBL_Kinases

>  <Ligand_Instance>  (439) 
nan

>  <PDB_ID>  (439) 
nan

>  <Standardized_SMILES>  (439) 
Cc1cc(Nc2ccc(F)cc2Cl)n2nc(C)nc2n1

>  <Name>  (439) 
nan

>  <Pocket>  (439) 
nan

>  <ATP_Site>  (439) 
nan

>  <Peripheral>  (439) 
nan

>  <Num_H_Atoms_ProtBoundConf>  (439) 
nan

>  <Num_Resolved_Atoms>  (439) 
nan

>  <Num_Not_Resolved_Atoms>  (439) 
nan

$$$$
CHEMBL1336216
     RDKit          3D

  0  0  0  0  0  0  0  0  0  0999 V3000
M  V30 BEGIN CTAB
M  V30 COUNTS 53 57 0 0 0
M  V30 BEGIN ATOM
M  V30 1 C 0.047478 -4.124370 5.174657 0
M  V30 2 C -0.219320 -4.244463 3.724906 0
M  V30 3 C 0.308078 -3.371600 2.793681 0
M  V30 4 C 0.018240 -3.542096 1.458506 0
M  V30 5 N 0.570438 -2.637638 0.542790 0
M  V30 6 C 1.409062 -1.574233 1.032236 0
M  V30 7 C 1.851543 -0.604486 -0.023324 0
M  V30 8 N 0.747935 -0.126328 -0.832602 0
M  V30 9 C -0.010569 0.802276 -0.037392 0
M  V30 10 C 0.901607 1.917447 0.343038 0
M  V30 11 C 1.754807 2.521652 -0.560286 0
M  V30 12 C 2.569328 3.551331 -0.121751 0
M  V30 13 C 2.554752 3.995861 1.200244 0
M  V30 14 C 1.701233 3.391629 2.104481 0
M  V30 15 C 0.890354 2.366067 1.666488 0
M  V30 16 C -1.251004 1.268438 -0.688872 0
M  V30 17 C -2.459022 1.342103 -0.017464 0
M  V30 18 C -3.648243 1.776704 -0.600081 0
M  V30 19 C -3.522823 2.139738 -1.942877 0
M  V30 20 C -2.345477 2.090125 -2.673435 0
M  V30 21 C -1.208834 1.646978 -2.021265 0
M  V30 22 C -0.034652 -1.208969 -1.367826 0
M  V30 23 C 0.454714 -2.560854 -0.885842 0
M  V30 24 N -0.781509 -4.578357 1.154073 0
M  V30 25 N -1.233875 -4.997912 -0.013841 0
M  V30 26 C -2.008179 -6.070520 0.105253 0
M  V30 27 N -2.050251 -6.349383 1.429830 0
M  V30 28 C -1.294128 -5.427150 2.061491 0
M  V30 29 N -1.023225 -5.280777 3.387212 0
M  V30 30 H 0.729639 -3.245687 5.329351 0
M  V30 31 H -0.931106 -3.855604 5.668447 0
M  V30 32 H 0.460006 -5.045848 5.632112 0
M  V30 33 H 0.929200 -2.600415 3.228034 0
M  V30 34 H 0.915211 -1.061968 1.893221 0
M  V30 35 H 2.346955 -2.045561 1.447621 0
M  V30 36 H 2.260209 0.290351 0.514419 0
M  V30 37 H 2.700972 -0.980248 -0.623461 0
M  V30 38 H -0.308804 0.252743 0.881986 0
M  V30 39 H 1.777281 2.187337 -1.590140 0
M  V30 40 H 3.255309 4.058825 -0.785698 0
M  V30 41 H 3.203208 4.809624 1.532102 0
M  V30 42 H 1.635635 3.686211 3.153677 0
M  V30 43 H 0.222926 1.885341 2.350126 0
M  V30 44 H -2.527918 1.053184 1.027573 0
M  V30 45 H -4.573230 1.831347 -0.079784 0
M  V30 46 H -4.405285 2.495974 -2.491025 0
M  V30 47 H -2.338985 2.390385 -3.709561 0
M  V30 48 H -0.313933 1.627037 -2.637520 0
M  V30 49 H 0.104146 -1.196634 -2.470922 0
M  V30 50 H -1.088787 -1.045502 -1.170521 0
M  V30 51 H -0.196083 -3.332521 -1.342090 0
M  V30 52 H 1.476813 -2.782336 -1.287332 0
M  V30 53 H -2.435773 -6.501230 -0.795041 0
M  V30 END ATOM
M  V30 BEGIN BOND
M  V30 1 1 1 2
M  V30 2 1 2 3
M  V30 3 2 3 4
M  V30 4 1 4 5
M  V30 5 1 5 6
M  V30 6 1 6 7
M  V30 7 1 7 8
M  V30 8 1 8 9
M  V30 9 1 9 10
M  V30 10 2 10 11
M  V30 11 1 11 12
M  V30 12 2 12 13
M  V30 13 1 13 14
M  V30 14 2 14 15
M  V30 15 1 9 16
M  V30 16 2 16 17
M  V30 17 1 17 18
M  V30 18 2 18 19
M  V30 19 1 19 20
M  V30 20 2 20 21
M  V30 21 1 8 22
M  V30 22 1 22 23
M  V30 23 1 4 24
M  V30 24 1 24 25
M  V30 25 2 25 26
M  V30 26 1 26 27
M  V30 27 2 27 28
M  V30 28 1 28 29
M  V30 29 2 29 2
M  V30 30 1 23 5
M  V30 31 1 28 24
M  V30 32 1 15 10
M  V30 33 1 21 16
M  V30 34 1 1 30
M  V30 35 1 1 31
M  V30 36 1 1 32
M  V30 37 1 3 33
M  V30 38 1 6 34
M  V30 39 1 6 35
M  V30 40 1 7 36
M  V30 41 1 7 37
M  V30 42 1 9 38
M  V30 43 1 11 39
M  V30 44 1 12 40
M  V30 45 1 13 41
M  V30 46 1 14 42
M  V30 47 1 15 43
M  V30 48 1 17 44
M  V30 49 1 18 45
M  V30 50 1 19 46
M  V30 51 1 20 47
M  V30 52 1 21 48
M  V30 53 1 22 49
M  V30 54 1 22 50
M  V30 55 1 23 51
M  V30 56 1 23 52
M  V30 57 1 26 53
M  V30 END BOND
M  V30 END CTAB
M  END
>  <Dataset>  (440) 
ChEMBL_Kinases

>  <Ligand_Instance>  (440) 
nan

>  <PDB_ID>  (440) 
nan

>  <Standardized_SMILES>  (440) 
Cc1cc(N2CCN(C(c3ccccc3)c3ccccc3)CC2)n2ncnc2n1

>  <Name>  (440) 
nan

>  <Pocket>  (440) 
nan

>  <ATP_Site>  (440) 
nan

>  <Peripheral>  (440) 
nan

>  <Num_H_Atoms_ProtBoundConf>  (440) 
nan

>  <Num_Resolved_Atoms>  (440) 
nan

>  <Num_Not_Resolved_Atoms>  (440) 
nan

$$$$
CHEMBL1336298
     RDKit          3D

  0  0  0  0  0  0  0  0  0  0999 V3000
M  V30 BEGIN CTAB
M  V30 COUNTS 26 26 0 0 0
M  V30 BEGIN ATOM
M  V30 1 C -1.528873 -1.593715 1.804941 0
M  V30 2 C -0.983235 -1.006958 0.548004 0
M  V30 3 N 0.183421 -1.550260 -0.064749 0
M  V30 4 C 1.447706 -0.953435 0.224684 0
M  V30 5 C 1.476313 0.125095 1.087865 0
M  V30 6 C 2.708478 0.714139 1.375859 0
M  V30 7 C 3.823285 0.171925 0.771643 0
M  V30 8 C 3.833644 -0.906705 -0.097487 0
M  V30 9 F 4.995592 -1.344144 -0.624530 0
M  V30 10 C 2.592590 -1.468031 -0.361843 0
M  V30 11 C -1.553643 0.014700 -0.024839 0
M  V30 12 C -1.099186 0.641907 -1.231537 0
M  V30 13 N -0.710932 1.143451 -2.213009 0
M  V30 14 C -2.740578 0.588388 0.574494 0
M  V30 15 N -3.453075 0.241801 1.731742 0
M  V30 16 O -3.378898 1.572238 0.117379 0
M  V30 17 H -0.928582 -2.476108 2.111691 0
M  V30 18 H -1.475057 -0.819195 2.578189 0
M  V30 19 H -2.557244 -1.982519 1.663254 0
M  V30 20 H 0.096890 -2.366674 -0.708258 0
M  V30 21 H 0.609614 0.554369 1.563828 0
M  V30 22 H 2.827175 1.565856 2.043018 0
M  V30 23 H 4.794525 0.624907 0.989569 0
M  V30 24 H 2.545191 -2.314959 -1.035869 0
M  V30 25 H -4.214534 -0.311628 2.132087 0
M  V30 26 H -3.534629 0.398626 2.762017 0
M  V30 END ATOM
M  V30 BEGIN BOND
M  V30 1 1 1 2
M  V30 2 1 2 3
M  V30 3 1 3 4
M  V30 4 2 4 5
M  V30 5 1 5 6
M  V30 6 2 6 7
M  V30 7 1 7 8
M  V30 8 1 8 9
M  V30 9 2 8 10
M  V30 10 2 2 11
M  V30 11 1 11 12
M  V30 12 3 12 13
M  V30 13 1 11 14
M  V30 14 1 14 15
M  V30 15 2 14 16
M  V30 16 1 10 4
M  V30 17 1 1 17
M  V30 18 1 1 18
M  V30 19 1 1 19
M  V30 20 1 3 20
M  V30 21 1 5 21
M  V30 22 1 6 22
M  V30 23 1 7 23
M  V30 24 1 10 24
M  V30 25 1 15 25
M  V30 26 1 15 26
M  V30 END BOND
M  V30 END CTAB
M  END
>  <Dataset>  (441) 
ChEMBL_Kinases

>  <Ligand_Instance>  (441) 
nan

>  <PDB_ID>  (441) 
nan

>  <Standardized_SMILES>  (441) 
C/C(Nc1cccc(F)c1)=C(/C#N)C(N)=O

>  <Name>  (441) 
nan

>  <Pocket>  (441) 
nan

>  <ATP_Site>  (441) 
nan

>  <Peripheral>  (441) 
nan

>  <Num_H_Atoms_ProtBoundConf>  (441) 
nan

>  <Num_Resolved_Atoms>  (441) 
nan

>  <Num_Not_Resolved_Atoms>  (441) 
nan

$$$$
CHEMBL1336469
     RDKit          3D

  0  0  0  0  0  0  0  0  0  0999 V3000
M  V30 BEGIN CTAB
M  V30 COUNTS 49 50 0 0 0
M  V30 BEGIN ATOM
M  V30 1 C 0.998534 -2.900297 1.877308 0
M  V30 2 C 1.706414 -1.732114 1.302293 0 CFG=1
M  V30 3 C 2.087440 -2.095247 -0.151611 0
M  V30 4 C 2.793291 -0.908060 -0.692054 0
M  V30 5 C 2.169938 0.121086 -1.376251 0
M  V30 6 C 2.823030 1.225252 -1.874390 0
M  V30 7 C 4.181716 1.353372 -1.702803 0
M  V30 8 C 4.839849 2.527222 -2.237493 0
M  V30 9 O 4.162370 3.396130 -2.839470 0
M  V30 10 C 4.825296 0.345573 -1.026901 0
M  V30 11 C 4.169834 -0.769219 -0.523396 0
M  V30 12 N 1.013674 -0.491191 1.195061 0
M  V30 13 C 0.615746 0.198118 2.350384 0
M  V30 14 C -0.532285 -0.377754 3.096741 0 CFG=1
M  V30 15 O -0.785780 0.400040 4.268523 0
M  V30 16 C -1.762597 -0.299810 2.250020 0
M  V30 17 C -2.089798 1.057324 2.106379 0
M  V30 18 C -3.204956 1.469569 1.368409 0
M  V30 19 C -3.999171 0.512094 0.768686 0
M  V30 20 O -5.128835 0.837652 0.015566 0
M  V30 21 C -3.686523 -0.831540 0.903373 0
M  V30 22 N -4.418746 -1.901866 0.337600 0
M  V30 23 C -4.074391 -3.307216 0.487837 0
M  V30 24 O -4.096335 -3.634730 1.829381 0
M  V30 25 C -2.586345 -1.204895 1.634060 0
M  V30 26 H -0.050900 -2.892847 1.582499 0
M  V30 27 H 1.429969 -3.828200 1.381799 0
M  V30 28 H 1.176128 -3.079196 2.965416 0
M  V30 29 H 2.688226 -1.587524 1.842458 0
M  V30 30 H 2.672307 -3.016846 -0.184129 0
M  V30 31 H 1.095725 -2.183452 -0.659764 0
M  V30 32 H 1.108289 0.091555 -1.557184 0
M  V30 33 H 2.274985 2.004828 -2.406436 0
M  V30 34 H 5.886737 2.761801 -2.182745 0
M  V30 35 H 5.901215 0.485319 -0.913356 0
M  V30 36 H 4.735056 -1.543789 0.009492 0
M  V30 37 H 0.237958 -0.651265 0.502204 0
M  V30 38 H 1.461640 0.435988 3.046710 0
M  V30 39 H 0.278962 1.238344 2.026541 0
M  V30 40 H -0.372317 -1.402367 3.393238 0
M  V30 41 H 0.008605 0.235155 4.858596 0
M  V30 42 H -1.578737 1.944671 2.506587 0
M  V30 43 H -3.515506 2.490712 1.216144 0
M  V30 44 H -5.074598 1.072330 -0.968336 0
M  V30 45 H -5.243499 -1.607218 -0.208421 0
M  V30 46 H -3.059814 -3.422072 0.046245 0
M  V30 47 H -4.770623 -3.894619 -0.133050 0
M  V30 48 H -4.466536 -4.550460 1.897883 0
M  V30 49 H -2.251741 -2.197793 1.815959 0
M  V30 END ATOM
M  V30 BEGIN BOND
M  V30 1 1 1 2
M  V30 2 1 2 3
M  V30 3 1 3 4
M  V30 4 2 4 5
M  V30 5 1 5 6
M  V30 6 2 6 7
M  V30 7 1 7 8
M  V30 8 2 8 9
M  V30 9 1 7 10
M  V30 10 2 10 11
M  V30 11 1 2 12
M  V30 12 1 12 13
M  V30 13 1 13 14
M  V30 14 1 14 15
M  V30 15 1 14 16
M  V30 16 2 16 17
M  V30 17 1 17 18
M  V30 18 2 18 19
M  V30 19 1 19 20
M  V30 20 1 19 21
M  V30 21 1 21 22
M  V30 22 1 22 23
M  V30 23 1 23 24
M  V30 24 2 21 25
M  V30 25 1 11 4
M  V30 26 1 25 16
M  V30 27 1 1 26
M  V30 28 1 1 27
M  V30 29 1 1 28
M  V30 30 1 2 29 CFG=1
M  V30 31 1 3 30
M  V30 32 1 3 31
M  V30 33 1 5 32
M  V30 34 1 6 33
M  V30 35 1 8 34
M  V30 36 1 10 35
M  V30 37 1 11 36
M  V30 38 1 12 37
M  V30 39 1 13 38
M  V30 40 1 13 39
M  V30 41 1 14 40 CFG=1
M  V30 42 1 15 41
M  V30 43 1 17 42
M  V30 44 1 18 43
M  V30 45 1 20 44
M  V30 46 1 22 45
M  V30 47 1 23 46
M  V30 48 1 23 47
M  V30 49 1 24 48
M  V30 50 1 25 49
M  V30 END BOND
M  V30 END CTAB
M  END
>  <Dataset>  (442) 
ChEMBL_Kinases

>  <Ligand_Instance>  (442) 
nan

>  <PDB_ID>  (442) 
nan

>  <Standardized_SMILES>  (442) 
C[C@@H](Cc1ccc(C=O)cc1)NC[C@@H](O)c1ccc(O)c(NCO)c1

>  <Name>  (442) 
nan

>  <Pocket>  (442) 
nan

>  <ATP_Site>  (442) 
nan

>  <Peripheral>  (442) 
nan

>  <Num_H_Atoms_ProtBoundConf>  (442) 
nan

>  <Num_Resolved_Atoms>  (442) 
nan

>  <Num_Not_Resolved_Atoms>  (442) 
nan

$$$$
CHEMBL1336641
     RDKit          3D

  0  0  0  0  0  0  0  0  0  0999 V3000
M  V30 BEGIN CTAB
M  V30 COUNTS 58 62 0 0 0
M  V30 BEGIN ATOM
M  V30 1 C 1.147964 1.470465 5.809991 0
M  V30 2 O 1.635668 1.717220 4.502930 0
M  V30 3 C 2.779473 1.114134 4.006760 0
M  V30 4 C 3.446709 0.249366 4.832227 0
M  V30 5 C 4.586110 -0.389476 4.420872 0
M  V30 6 C 5.047718 -0.142852 3.155482 0
M  V30 7 C 4.341895 0.738084 2.355341 0
M  V30 8 C 3.198228 1.390392 2.744209 0
M  V30 9 N 2.452366 2.287862 1.963537 0
M  V30 10 C 2.647350 2.749876 0.636555 0
M  V30 11 O 3.645050 2.316560 0.004762 0
M  V30 12 C 1.764049 3.710530 -0.073710 0
M  V30 13 S 0.573047 2.761489 -1.051769 0
M  V30 14 C -0.517879 1.873385 0.044124 0
M  V30 15 N -0.763132 1.669882 1.348028 0
M  V30 16 N -1.779918 0.841367 1.498020 0
M  V30 17 C -2.221480 0.484535 0.281755 0
M  V30 18 C -3.370988 -0.450712 0.245615 0
M  V30 19 N -2.926337 -1.827754 0.289003 0
M  V30 20 N -2.780599 -2.418755 1.475576 0
M  V30 21 N -2.370311 -3.661189 1.284913 0
M  V30 22 C -2.247996 -3.881063 -0.036209 0
M  V30 23 C -1.811629 -5.158572 -0.582883 0
M  V30 24 C -0.429277 -5.251889 -0.612182 0
M  V30 25 C 0.229193 -6.389117 -1.095831 0
M  V30 26 C -0.576026 -7.417471 -1.544072 0
M  V30 27 C -1.956719 -7.339835 -1.521729 0
M  V30 28 C -2.591991 -6.201373 -1.037326 0
M  V30 29 N -2.600270 -2.722275 -0.642311 0
M  V30 30 N -1.450606 1.114916 -0.605952 0
M  V30 31 C -1.784357 0.846944 -1.985846 0
M  V30 32 C -2.726538 1.604035 -2.661843 0
M  V30 33 C -3.032148 1.326211 -3.995887 0
M  V30 34 C -2.407045 0.298065 -4.667428 0
M  V30 35 C -1.466508 -0.459951 -3.996806 0
M  V30 36 C -1.173948 -0.170638 -2.670208 0
M  V30 37 H 0.195017 2.000133 5.955043 0
M  V30 38 H 0.983778 0.388745 5.898764 0
M  V30 39 H 1.875344 1.863922 6.545358 0
M  V30 40 H 3.074132 0.061783 5.827562 0
M  V30 41 H 5.100438 -1.066772 5.080968 0
M  V30 42 H 5.938293 -0.633889 2.816452 0
M  V30 43 H 4.749059 0.889929 1.382524 0
M  V30 44 H 1.593106 2.734725 2.367740 0
M  V30 45 H 1.220787 4.370204 0.649046 0
M  V30 46 H 2.416621 4.313559 -0.745474 0
M  V30 47 H -4.126328 -0.257668 1.001802 0
M  V30 48 H -3.855348 -0.291713 -0.757338 0
M  V30 49 H 0.279196 -4.485686 -0.276316 0
M  V30 50 H 1.295426 -6.495633 -1.133008 0
M  V30 51 H -0.171484 -8.355304 -1.944125 0
M  V30 52 H -2.606237 -8.138472 -1.870362 0
M  V30 53 H -3.645980 -6.026087 -0.969938 0
M  V30 54 H -3.236131 2.426615 -2.146954 0
M  V30 55 H -3.774377 1.923732 -4.524287 0
M  V30 56 H -2.646920 0.084837 -5.705786 0
M  V30 57 H -0.982789 -1.266389 -4.538740 0
M  V30 58 H -0.440113 -0.760817 -2.143370 0
M  V30 END ATOM
M  V30 BEGIN BOND
M  V30 1 1 1 2
M  V30 2 1 2 3
M  V30 3 2 3 4
M  V30 4 1 4 5
M  V30 5 2 5 6
M  V30 6 1 6 7
M  V30 7 2 7 8
M  V30 8 1 8 9
M  V30 9 1 9 10
M  V30 10 2 10 11
M  V30 11 1 10 12
M  V30 12 1 12 13
M  V30 13 1 13 14
M  V30 14 2 14 15
M  V30 15 1 15 16
M  V30 16 2 16 17
M  V30 17 1 17 18
M  V30 18 1 18 19
M  V30 19 1 19 20
M  V30 20 2 20 21
M  V30 21 1 21 22
M  V30 22 1 22 23
M  V30 23 2 23 24
M  V30 24 1 24 25
M  V30 25 2 25 26
M  V30 26 1 26 27
M  V30 27 2 27 28
M  V30 28 2 22 29
M  V30 29 1 17 30
M  V30 30 1 30 31
M  V30 31 2 31 32
M  V30 32 1 32 33
M  V30 33 2 33 34
M  V30 34 1 34 35
M  V30 35 2 35 36
M  V30 36 1 8 3
M  V30 37 1 30 14
M  V30 38 1 36 31
M  V30 39 1 29 19
M  V30 40 1 28 23
M  V30 41 1 1 37
M  V30 42 1 1 38
M  V30 43 1 1 39
M  V30 44 1 4 40
M  V30 45 1 5 41
M  V30 46 1 6 42
M  V30 47 1 7 43
M  V30 48 1 9 44
M  V30 49 1 12 45
M  V30 50 1 12 46
M  V30 51 1 18 47
M  V30 52 1 18 48
M  V30 53 1 24 49
M  V30 54 1 25 50
M  V30 55 1 26 51
M  V30 56 1 27 52
M  V30 57 1 28 53
M  V30 58 1 32 54
M  V30 59 1 33 55
M  V30 60 1 34 56
M  V30 61 1 35 57
M  V30 62 1 36 58
M  V30 END BOND
M  V30 END CTAB
M  END
>  <Dataset>  (443) 
ChEMBL_Kinases

>  <Ligand_Instance>  (443) 
nan

>  <PDB_ID>  (443) 
nan

>  <Standardized_SMILES>  (443) 
COc1ccccc1NC(=O)CSc1nnc(Cn2nnc(-c3ccccc3)n2)n1-c1ccccc1

>  <Name>  (443) 
nan

>  <Pocket>  (443) 
nan

>  <ATP_Site>  (443) 
nan

>  <Peripheral>  (443) 
nan

>  <Num_H_Atoms_ProtBoundConf>  (443) 
nan

>  <Num_Resolved_Atoms>  (443) 
nan

>  <Num_Not_Resolved_Atoms>  (443) 
nan

$$$$
CHEMBL1336927
     RDKit          3D

  0  0  0  0  0  0  0  0  0  0999 V3000
M  V30 BEGIN CTAB
M  V30 COUNTS 24 27 0 0 0
M  V30 BEGIN ATOM
M  V30 1 Br -1.304868 -4.944540 5.327039 0
M  V30 2 C -0.869111 -3.720590 3.931712 0
M  V30 3 C -1.344206 -3.919202 2.651967 0
M  V30 4 C -0.876513 -2.892229 1.861346 0
M  V30 5 C -0.126001 -2.102121 2.708238 0
M  V30 6 C 0.646402 -0.833668 2.457037 0
M  V30 7 N 0.810661 -0.185640 1.470772 0
M  V30 8 N 1.521287 0.903834 1.430847 0
M  V30 9 C 1.779537 1.715510 0.391098 0
M  V30 10 C 1.435771 1.770053 -1.023758 0
M  V30 11 C 0.133842 1.821834 -1.493783 0
M  V30 12 C 0.293984 1.860866 -2.869741 0
M  V30 13 C 1.661043 1.831457 -3.164542 0
M  V30 14 O 2.291871 1.777142 -2.013840 0
M  V30 15 N 2.560158 2.707094 0.853276 0
M  V30 16 N 2.798955 2.546230 2.139374 0
M  V30 17 C 2.141122 1.396321 2.524957 0
M  V30 18 S 1.615212 0.093257 3.779581 0
M  V30 19 O -0.149313 -2.624167 3.908807 0
M  V30 20 H -1.975211 -4.665923 2.143190 0
M  V30 21 H -0.912189 -2.533988 0.845012 0
M  V30 22 H -0.802700 1.831473 -0.959984 0
M  V30 23 H -0.551497 1.907121 -3.573740 0
M  V30 24 H 2.073906 1.851622 -4.170855 0
M  V30 END ATOM
M  V30 BEGIN BOND
M  V30 1 1 1 2
M  V30 2 2 2 3
M  V30 3 1 3 4
M  V30 4 2 4 5
M  V30 5 1 5 6
M  V30 6 2 6 7
M  V30 7 1 7 8
M  V30 8 1 8 9
M  V30 9 1 9 10
M  V30 10 2 10 11
M  V30 11 1 11 12
M  V30 12 2 12 13
M  V30 13 1 13 14
M  V30 14 2 9 15
M  V30 15 1 15 16
M  V30 16 2 16 17
M  V30 17 1 17 18
M  V30 18 1 5 19
M  V30 19 1 19 2
M  V30 20 1 18 6
M  V30 21 1 17 8
M  V30 22 1 14 10
M  V30 23 1 3 20
M  V30 24 1 4 21
M  V30 25 1 11 22
M  V30 26 1 12 23
M  V30 27 1 13 24
M  V30 END BOND
M  V30 END CTAB
M  END
>  <Dataset>  (444) 
ChEMBL_Kinases

>  <Ligand_Instance>  (444) 
nan

>  <PDB_ID>  (444) 
nan

>  <Standardized_SMILES>  (444) 
Brc1ccc(-c2nn3c(-c4ccco4)nnc3s2)o1

>  <Name>  (444) 
nan

>  <Pocket>  (444) 
nan

>  <ATP_Site>  (444) 
nan

>  <Peripheral>  (444) 
nan

>  <Num_H_Atoms_ProtBoundConf>  (444) 
nan

>  <Num_Resolved_Atoms>  (444) 
nan

>  <Num_Not_Resolved_Atoms>  (444) 
nan

$$$$
CHEMBL1336941
     RDKit          3D

  0  0  0  0  0  0  0  0  0  0999 V3000
M  V30 BEGIN CTAB
M  V30 COUNTS 64 68 0 0 0
M  V30 BEGIN ATOM
M  V30 1 C 3.473844 -2.122791 4.300588 0
M  V30 2 N 3.774878 -2.234160 2.881068 0
M  V30 3 C 4.695284 -3.081168 2.411394 0
M  V30 4 O 5.312348 -3.796974 3.223679 0
M  V30 5 N 4.957754 -3.167840 1.097784 0
M  V30 6 C 4.277559 -2.384888 0.248614 0
M  V30 7 O 4.595301 -2.539431 -0.957329 0
M  V30 8 C 3.289574 -1.457870 0.614807 0
M  V30 9 C 3.128769 -1.478592 1.983261 0
M  V30 10 N 2.173453 -0.563956 2.213938 0
M  V30 11 C 1.822513 -0.061326 1.026652 0
M  V30 12 C 0.838077 1.035266 0.960474 0
M  V30 13 N -0.517054 0.641292 1.321797 0
M  V30 14 C -0.624953 0.659856 2.797829 0
M  V30 15 C -2.062053 0.460522 3.211572 0
M  V30 16 N -2.647823 -0.613641 2.387768 0
M  V30 17 C -4.036665 -0.762732 2.116852 0
M  V30 18 C -4.594593 -1.763127 1.351740 0
M  V30 19 C -5.952871 -1.818779 1.149568 0
M  V30 20 C -6.763173 -0.871933 1.712867 0
M  V30 21 F -8.085972 -1.009736 1.457471 0
M  V30 22 C -6.212498 0.128328 2.476987 0
M  V30 23 C -4.837619 0.199402 2.691903 0
M  V30 24 C -1.557616 -1.451411 1.930375 0
M  V30 25 C -0.808044 -0.709684 0.864739 0
M  V30 26 N 2.479200 -0.571158 -0.030008 0
M  V30 27 C 2.623439 -0.501715 -1.433792 0
M  V30 28 C 1.907369 -1.377675 -2.350939 0
M  V30 29 C 0.450631 -1.348979 -2.545270 0
M  V30 30 C -0.123758 -0.109287 -3.091343 0
M  V30 31 C -0.688564 1.018870 -2.553920 0
M  V30 32 C -1.161358 2.112281 -3.232035 0
M  V30 33 C -1.082771 2.125914 -4.606681 0
M  V30 34 C -0.533237 1.043823 -5.256116 0
M  V30 35 C -0.088728 -0.000587 -4.490094 0
M  V30 36 H 2.643321 -2.769257 4.627723 0
M  V30 37 H 4.351447 -2.341288 4.923963 0
M  V30 38 H 3.130884 -1.057589 4.443040 0
M  V30 39 H 5.674797 -3.835874 0.792904 0
M  V30 40 H 1.085867 1.826341 1.749844 0
M  V30 41 H 0.853402 1.614943 0.025578 0
M  V30 42 H 0.068896 -0.071497 3.191815 0
M  V30 43 H -0.316130 1.675863 3.103658 0
M  V30 44 H -2.589445 1.424249 3.059690 0
M  V30 45 H -2.057399 0.180021 4.286394 0
M  V30 46 H -3.917843 -2.490046 0.925865 0
M  V30 47 H -6.280613 -2.642748 0.535747 0
M  V30 48 H -6.938141 0.835602 2.883194 0
M  V30 49 H -4.579191 1.044883 3.312701 0
M  V30 50 H -0.971914 -1.764068 2.798586 0
M  V30 51 H -1.967640 -2.427247 1.512312 0
M  V30 52 H -1.457114 -0.697832 -0.024124 0
M  V30 53 H 0.151096 -1.180702 0.602091 0
M  V30 54 H 2.385924 0.581584 -1.737094 0
M  V30 55 H 3.728137 -0.547545 -1.708681 0
M  V30 56 H 2.444763 -1.320944 -3.371009 0
M  V30 57 H 2.137155 -2.484710 -2.106321 0
M  V30 58 H -0.074898 -1.752433 -1.656412 0
M  V30 59 H 0.224311 -2.164201 -3.324131 0
M  V30 60 H -0.745264 0.973599 -1.482343 0
M  V30 61 H -1.570647 2.903029 -2.632985 0
M  V30 62 H -1.475193 3.019350 -5.061907 0
M  V30 63 H -0.481455 1.073099 -6.319777 0
M  V30 64 H 0.332710 -0.816072 -5.102806 0
M  V30 END ATOM
M  V30 BEGIN BOND
M  V30 1 1 1 2
M  V30 2 1 2 3
M  V30 3 2 3 4
M  V30 4 1 3 5
M  V30 5 1 5 6
M  V30 6 2 6 7
M  V30 7 1 6 8
M  V30 8 2 8 9
M  V30 9 1 9 10
M  V30 10 2 10 11
M  V30 11 1 11 12
M  V30 12 1 12 13
M  V30 13 1 13 14
M  V30 14 1 14 15
M  V30 15 1 15 16
M  V30 16 1 16 17
M  V30 17 2 17 18
M  V30 18 1 18 19
M  V30 19 2 19 20
M  V30 20 1 20 21
M  V30 21 1 20 22
M  V30 22 2 22 23
M  V30 23 1 16 24
M  V30 24 1 24 25
M  V30 25 1 11 26
M  V30 26 1 26 27
M  V30 27 1 27 28
M  V30 28 1 28 29
M  V30 29 1 29 30
M  V30 30 2 30 31
M  V30 31 1 31 32
M  V30 32 2 32 33
M  V30 33 1 33 34
M  V30 34 2 34 35
M  V30 35 1 9 2
M  V30 36 1 25 13
M  V30 37 1 35 30
M  V30 38 1 26 8
M  V30 39 1 23 17
M  V30 40 1 1 36
M  V30 41 1 1 37
M  V30 42 1 1 38
M  V30 43 1 5 39
M  V30 44 1 12 40
M  V30 45 1 12 41
M  V30 46 1 14 42
M  V30 47 1 14 43
M  V30 48 1 15 44
M  V30 49 1 15 45
M  V30 50 1 18 46
M  V30 51 1 19 47
M  V30 52 1 22 48
M  V30 53 1 23 49
M  V30 54 1 24 50
M  V30 55 1 24 51
M  V30 56 1 25 52
M  V30 57 1 25 53
M  V30 58 1 27 54
M  V30 59 1 27 55
M  V30 60 1 28 56
M  V30 61 1 28 57
M  V30 62 1 29 58
M  V30 63 1 29 59
M  V30 64 1 31 60
M  V30 65 1 32 61
M  V30 66 1 33 62
M  V30 67 1 34 63
M  V30 68 1 35 64
M  V30 END BOND
M  V30 END CTAB
M  END
>  <Dataset>  (445) 
ChEMBL_Kinases

>  <Ligand_Instance>  (445) 
nan

>  <PDB_ID>  (445) 
nan

>  <Standardized_SMILES>  (445) 
Cn1c(=O)[nH]c(=O)c2c1nc(CN1CCN(c3ccc(F)cc3)CC1)n2CCCc1ccccc1

>  <Name>  (445) 
nan

>  <Pocket>  (445) 
nan

>  <ATP_Site>  (445) 
nan

>  <Peripheral>  (445) 
nan

>  <Num_H_Atoms_ProtBoundConf>  (445) 
nan

>  <Num_Resolved_Atoms>  (445) 
nan

>  <Num_Not_Resolved_Atoms>  (445) 
nan

$$$$
CHEMBL1336950
     RDKit          3D

  0  0  0  0  0  0  0  0  0  0999 V3000
M  V30 BEGIN CTAB
M  V30 COUNTS 49 52 0 0 0
M  V30 BEGIN ATOM
M  V30 1 C -2.674062 -3.099059 3.837085 0
M  V30 2 C -1.371166 -2.429497 4.126228 0
M  V30 3 O -0.301105 -3.046259 3.393528 0
M  V30 4 C 0.993814 -2.586640 3.515088 0
M  V30 5 O 1.140424 -1.598056 4.313460 0
M  V30 6 N 2.234946 -2.945610 2.960912 0
M  V30 7 C 3.382384 -2.154335 3.393201 0
M  V30 8 C 3.848012 -1.270357 2.232452 0
M  V30 9 N 3.358888 -1.861948 0.979545 0
M  V30 10 C 2.996242 -0.979644 -0.071549 0
M  V30 11 O 2.596243 -1.518296 -1.156108 0
M  V30 12 C 2.967789 0.491355 -0.213436 0
M  V30 13 N 1.584267 0.894554 -0.025040 0
M  V30 14 N 0.989010 1.204236 1.096958 0
M  V30 15 C -0.327087 1.556679 1.140126 0
M  V30 16 N -1.114076 1.615092 0.051787 0
M  V30 17 N -2.366380 1.903643 -0.232762 0
M  V30 18 C -2.586152 1.779925 -1.554249 0
M  V30 19 C -3.917058 2.045974 -2.190380 0
M  V30 20 C -4.165881 1.964662 -3.486682 0
M  V30 21 C -5.406774 2.230790 -3.969505 0
M  V30 22 C -6.375071 2.590409 -2.985196 0
M  V30 23 S -5.350447 2.505501 -1.387957 0
M  V30 24 C -1.404485 1.395102 -2.100730 0
M  V30 25 C -0.457830 1.287893 -1.075106 0
M  V30 26 C 0.869005 0.925980 -1.172102 0
M  V30 27 O 1.360220 0.643380 -2.297309 0
M  V30 28 C 3.243379 -3.285455 0.819575 0
M  V30 29 C 2.616112 -3.986271 2.002671 0
M  V30 30 H -3.443505 -2.284130 3.720914 0
M  V30 31 H -2.689826 -3.680152 2.905069 0
M  V30 32 H -3.007099 -3.727461 4.700281 0
M  V30 33 H -1.370413 -1.349855 3.827444 0
M  V30 34 H -1.124878 -2.536269 5.200737 0
M  V30 35 H 3.120668 -1.513186 4.232271 0
M  V30 36 H 4.194396 -2.880026 3.633034 0
M  V30 37 H 3.470304 -0.246280 2.344061 0
M  V30 38 H 4.951716 -1.348407 2.176856 0
M  V30 39 H 3.638294 0.990062 0.522144 0
M  V30 40 H 3.346686 0.781399 -1.206591 0
M  V30 41 H -0.778507 1.805754 2.101050 0
M  V30 42 H -3.394220 1.684365 -4.225873 0
M  V30 43 H -5.761571 2.207271 -4.991647 0
M  V30 44 H -7.497093 2.849450 -3.240021 0
M  V30 45 H -1.290540 1.221606 -3.151791 0
M  V30 46 H 2.547777 -3.445686 -0.052873 0
M  V30 47 H 4.245264 -3.717329 0.602022 0
M  V30 48 H 3.346217 -4.652634 2.521079 0
M  V30 49 H 1.726070 -4.539695 1.682931 0
M  V30 END ATOM
M  V30 BEGIN BOND
M  V30 1 1 1 2
M  V30 2 1 2 3
M  V30 3 1 3 4
M  V30 4 2 4 5
M  V30 5 1 4 6
M  V30 6 1 6 7
M  V30 7 1 7 8
M  V30 8 1 8 9
M  V30 9 1 9 10
M  V30 10 2 10 11
M  V30 11 1 10 12
M  V30 12 1 12 13
M  V30 13 1 13 14
M  V30 14 2 14 15
M  V30 15 1 15 16
M  V30 16 1 16 17
M  V30 17 2 17 18
M  V30 18 1 18 19
M  V30 19 2 19 20
M  V30 20 1 20 21
M  V30 21 2 21 22
M  V30 22 1 22 23
M  V30 23 1 18 24
M  V30 24 2 24 25
M  V30 25 1 25 26
M  V30 26 2 26 27
M  V30 27 1 9 28
M  V30 28 1 28 29
M  V30 29 1 29 6
M  V30 30 1 26 13
M  V30 31 1 25 16
M  V30 32 1 23 19
M  V30 33 1 1 30
M  V30 34 1 1 31
M  V30 35 1 1 32
M  V30 36 1 2 33
M  V30 37 1 2 34
M  V30 38 1 7 35
M  V30 39 1 7 36
M  V30 40 1 8 37
M  V30 41 1 8 38
M  V30 42 1 12 39
M  V30 43 1 12 40
M  V30 44 1 15 41
M  V30 45 1 20 42
M  V30 46 1 21 43
M  V30 47 1 22 44
M  V30 48 1 24 45
M  V30 49 1 28 46
M  V30 50 1 28 47
M  V30 51 1 29 48
M  V30 52 1 29 49
M  V30 END BOND
M  V30 END CTAB
M  END
>  <Dataset>  (446) 
ChEMBL_Kinases

>  <Ligand_Instance>  (446) 
nan

>  <PDB_ID>  (446) 
nan

>  <Standardized_SMILES>  (446) 
CCOC(=O)N1CCN(C(=O)Cn2ncn3nc(-c4cccs4)cc3c2=O)CC1

>  <Name>  (446) 
nan

>  <Pocket>  (446) 
nan

>  <ATP_Site>  (446) 
nan

>  <Peripheral>  (446) 
nan

>  <Num_H_Atoms_ProtBoundConf>  (446) 
nan

>  <Num_Resolved_Atoms>  (446) 
nan

>  <Num_Not_Resolved_Atoms>  (446) 
nan

$$$$
CHEMBL1338150
     RDKit          3D

  0  0  0  0  0  0  0  0  0  0999 V3000
M  V30 BEGIN CTAB
M  V30 COUNTS 46 47 0 0 0
M  V30 BEGIN ATOM
M  V30 1 C -1.259826 -4.056322 1.835163 0
M  V30 2 C 0.027207 -4.766574 1.565281 0
M  V30 3 C 1.229347 -3.947452 1.295886 0
M  V30 4 C 1.305206 -3.056918 0.147385 0
M  V30 5 C 0.440474 -1.887256 -0.049209 0
M  V30 6 C 0.527369 -0.819350 1.031028 0
M  V30 7 N -0.313119 0.281752 0.645840 0
M  V30 8 C 0.350865 1.197804 -0.107533 0
M  V30 9 S 1.871668 1.765922 -0.817528 0
M  V30 10 C 3.336799 0.902171 -0.384515 0
M  V30 11 C 3.752359 1.231154 1.032176 0
M  V30 12 C 5.006651 0.481838 1.430288 0
M  V30 13 N -0.542822 2.179787 -0.442309 0
M  V30 14 C -1.734426 1.866424 0.102228 0
M  V30 15 C -1.579074 0.679332 0.779556 0
M  V30 16 C -2.557321 0.050887 1.459023 0
M  V30 17 O -2.365461 -1.011502 2.049600 0
M  V30 18 N -3.778086 0.617246 1.484160 0
M  V30 19 C -3.985523 1.772671 0.842419 0
M  V30 20 O -5.107836 2.382193 0.810410 0
M  V30 21 N -2.999994 2.390557 0.166520 0
M  V30 22 C -3.210921 3.645876 -0.528970 0
M  V30 23 H -1.756208 -3.637741 0.951301 0
M  V30 24 H -1.096957 -3.288526 2.641849 0
M  V30 25 H -1.947663 -4.851091 2.287207 0
M  V30 26 H -0.157304 -5.538077 0.766556 0
M  V30 27 H 0.207852 -5.418088 2.483539 0
M  V30 28 H 2.108051 -4.681571 1.202126 0
M  V30 29 H 1.479636 -3.442268 2.277658 0
M  V30 30 H 2.392375 -2.772156 -0.067997 0
M  V30 31 H 1.106402 -3.722407 -0.775388 0
M  V30 32 H 0.815945 -1.361696 -0.977723 0
M  V30 33 H -0.602742 -2.100237 -0.257685 0
M  V30 34 H 0.054159 -1.218982 1.980781 0
M  V30 35 H 1.545501 -0.594026 1.309486 0
M  V30 36 H 4.174982 1.267028 -1.055699 0
M  V30 37 H 3.323707 -0.194028 -0.564778 0
M  V30 38 H 3.970156 2.351441 1.077193 0
M  V30 39 H 2.995164 1.082641 1.801142 0
M  V30 40 H 5.891921 1.122749 1.154408 0
M  V30 41 H 5.097859 0.337625 2.524623 0
M  V30 42 H 5.094723 -0.509591 0.962968 0
M  V30 43 H -4.591358 0.229418 1.966452 0
M  V30 44 H -2.220571 4.150671 -0.716644 0
M  V30 45 H -3.769033 4.374176 0.091225 0
M  V30 46 H -3.641836 3.468026 -1.521597 0
M  V30 END ATOM
M  V30 BEGIN BOND
M  V30 1 1 1 2
M  V30 2 1 2 3
M  V30 3 1 3 4
M  V30 4 1 4 5
M  V30 5 1 5 6
M  V30 6 1 6 7
M  V30 7 1 7 8
M  V30 8 1 8 9
M  V30 9 1 9 10
M  V30 10 1 10 11
M  V30 11 1 11 12
M  V30 12 2 8 13
M  V30 13 1 13 14
M  V30 14 2 14 15
M  V30 15 1 15 16
M  V30 16 2 16 17
M  V30 17 1 16 18
M  V30 18 1 18 19
M  V30 19 2 19 20
M  V30 20 1 19 21
M  V30 21 1 21 22
M  V30 22 1 15 7
M  V30 23 1 21 14
M  V30 24 1 1 23
M  V30 25 1 1 24
M  V30 26 1 1 25
M  V30 27 1 2 26
M  V30 28 1 2 27
M  V30 29 1 3 28
M  V30 30 1 3 29
M  V30 31 1 4 30
M  V30 32 1 4 31
M  V30 33 1 5 32
M  V30 34 1 5 33
M  V30 35 1 6 34
M  V30 36 1 6 35
M  V30 37 1 10 36
M  V30 38 1 10 37
M  V30 39 1 11 38
M  V30 40 1 11 39
M  V30 41 1 12 40
M  V30 42 1 12 41
M  V30 43 1 12 42
M  V30 44 1 18 43
M  V30 45 1 22 44
M  V30 46 1 22 45
M  V30 47 1 22 46
M  V30 END BOND
M  V30 END CTAB
M  END
>  <Dataset>  (447) 
ChEMBL_Kinases

>  <Ligand_Instance>  (447) 
nan

>  <PDB_ID>  (447) 
nan

>  <Standardized_SMILES>  (447) 
CCCCCCn1c(SCCC)nc2c1c(=O)[nH]c(=O)n2C

>  <Name>  (447) 
nan

>  <Pocket>  (447) 
nan

>  <ATP_Site>  (447) 
nan

>  <Peripheral>  (447) 
nan

>  <Num_H_Atoms_ProtBoundConf>  (447) 
nan

>  <Num_Resolved_Atoms>  (447) 
nan

>  <Num_Not_Resolved_Atoms>  (447) 
nan

$$$$
CHEMBL1337188
     RDKit          3D

  0  0  0  0  0  0  0  0  0  0999 V3000
M  V30 BEGIN CTAB
M  V30 COUNTS 36 37 0 0 0
M  V30 BEGIN ATOM
M  V30 1 C 1.048454 -1.687562 5.238924 0
M  V30 2 O 1.677937 -2.256213 4.121522 0
M  V30 3 C 1.359826 -1.753264 2.864010 0
M  V30 4 O 0.522621 -0.813753 2.801554 0
M  V30 5 C 1.949820 -2.264231 1.630735 0
M  V30 6 C 2.868588 -3.292416 1.674724 0
M  V30 7 C 3.416268 -3.762274 0.492011 0
M  V30 8 C 3.024074 -3.182455 -0.717727 0
M  V30 9 C 2.097820 -2.149491 -0.731666 0
M  V30 10 C 1.544640 -1.673837 0.453816 0
M  V30 11 N 0.598817 -0.612576 0.384859 0
M  V30 12 C 1.086558 0.722069 0.451490 0
M  V30 13 O 2.349868 0.893757 0.572418 0
M  V30 14 C 0.480041 2.060510 0.416473 0
M  V30 15 O -0.901888 2.101369 0.284334 0
M  V30 16 C -1.673860 1.624358 -0.738747 0
M  V30 17 C -3.023902 1.873342 -0.461303 0
M  V30 18 C -4.035181 1.486746 -1.348567 0
M  V30 19 C -3.686309 0.847090 -2.519577 0
M  V30 20 C -2.360172 0.596952 -2.802735 0
M  V30 21 C -1.364387 0.977749 -1.928827 0
M  V30 22 H 1.068440 -2.341044 6.127939 0
M  V30 23 H -0.002051 -1.463241 4.959621 0
M  V30 24 H 1.535370 -0.705748 5.422714 0
M  V30 25 H 3.170504 -3.739971 2.616149 0
M  V30 26 H 4.149119 -4.574597 0.461170 0
M  V30 27 H 3.455569 -3.554354 -1.635043 0
M  V30 28 H 1.786220 -1.692318 -1.663220 0
M  V30 29 H -0.441607 -0.584137 0.293995 0
M  V30 30 H 0.907498 2.625077 -0.463396 0
M  V30 31 H 0.801617 2.693362 1.293016 0
M  V30 32 H -3.445753 2.367565 0.421112 0
M  V30 33 H -5.087883 1.659339 -1.173415 0
M  V30 34 H -4.358307 0.496930 -3.287378 0
M  V30 35 H -2.010716 0.101138 -3.698885 0
M  V30 36 H -0.293987 0.849256 -2.017117 0
M  V30 END ATOM
M  V30 BEGIN BOND
M  V30 1 1 1 2
M  V30 2 1 2 3
M  V30 3 2 3 4
M  V30 4 1 3 5
M  V30 5 2 5 6
M  V30 6 1 6 7
M  V30 7 2 7 8
M  V30 8 1 8 9
M  V30 9 2 9 10
M  V30 10 1 10 11
M  V30 11 1 11 12
M  V30 12 2 12 13
M  V30 13 1 12 14
M  V30 14 1 14 15
M  V30 15 1 15 16
M  V30 16 2 16 17
M  V30 17 1 17 18
M  V30 18 2 18 19
M  V30 19 1 19 20
M  V30 20 2 20 21
M  V30 21 1 10 5
M  V30 22 1 21 16
M  V30 23 1 1 22
M  V30 24 1 1 23
M  V30 25 1 1 24
M  V30 26 1 6 25
M  V30 27 1 7 26
M  V30 28 1 8 27
M  V30 29 1 9 28
M  V30 30 1 11 29
M  V30 31 1 14 30
M  V30 32 1 14 31
M  V30 33 1 17 32
M  V30 34 1 18 33
M  V30 35 1 19 34
M  V30 36 1 20 35
M  V30 37 1 21 36
M  V30 END BOND
M  V30 END CTAB
M  END
>  <Dataset>  (448) 
ChEMBL_Kinases

>  <Ligand_Instance>  (448) 
nan

>  <PDB_ID>  (448) 
nan

>  <Standardized_SMILES>  (448) 
COC(=O)c1ccccc1NC(=O)COc1ccccc1

>  <Name>  (448) 
nan

>  <Pocket>  (448) 
nan

>  <ATP_Site>  (448) 
nan

>  <Peripheral>  (448) 
nan

>  <Num_H_Atoms_ProtBoundConf>  (448) 
nan

>  <Num_Resolved_Atoms>  (448) 
nan

>  <Num_Not_Resolved_Atoms>  (448) 
nan

$$$$
CHEMBL1337235
     RDKit          3D

  0  0  0  0  0  0  0  0  0  0999 V3000
M  V30 BEGIN CTAB
M  V30 COUNTS 43 45 0 0 0
M  V30 BEGIN ATOM
M  V30 1 C 5.861317 -4.165800 -1.933488 0
M  V30 2 S 4.251053 -4.436039 -2.644143 0
M  V30 3 O 3.374115 -5.136228 -1.620820 0
M  V30 4 O 4.337077 -5.268948 -3.886685 0
M  V30 5 C 3.447797 -2.945914 -3.053715 0
M  V30 6 N 3.643064 -2.445992 -4.284692 0
M  V30 7 C 3.062314 -1.308350 -4.673833 0
M  V30 8 C 2.264476 -0.697724 -3.738867 0
M  V30 9 Cl 1.461673 0.787255 -4.141385 0
M  V30 10 C 2.024992 -1.157772 -2.465380 0
M  V30 11 C 1.226884 -0.651112 -1.369531 0
M  V30 12 O 1.142129 -1.254254 -0.238189 0
M  V30 13 N 0.410858 0.472692 -1.184985 0
M  V30 14 C -0.242044 0.656393 0.068145 0
M  V30 15 C -1.501102 0.131231 0.286228 0
M  V30 16 C -2.117683 0.319079 1.505464 0
M  V30 17 C -1.559575 1.009694 2.553145 0
M  V30 18 N -2.207925 1.193469 3.793875 0
M  V30 19 C -3.531572 0.759142 4.164347 0
M  V30 20 C -3.520793 -0.107117 5.404644 0
M  V30 21 O -2.977093 0.571394 6.468491 0
M  V30 22 C -1.652132 0.948982 6.170181 0
M  V30 23 C -1.686848 1.849665 4.949789 0
M  V30 24 C -0.307868 1.522056 2.311943 0
M  V30 25 C 0.339401 1.354431 1.106016 0
M  V30 26 N 2.663070 -2.327013 -2.162357 0
M  V30 27 H 6.516426 -5.036711 -2.179193 0
M  V30 28 H 6.345536 -3.266378 -2.345003 0
M  V30 29 H 5.803445 -4.111774 -0.825559 0
M  V30 30 H 3.161435 -0.837805 -5.633224 0
M  V30 31 H 0.360320 1.091338 -2.022022 0
M  V30 32 H -1.956709 -0.416280 -0.528357 0
M  V30 33 H -3.093349 -0.134987 1.558033 0
M  V30 34 H -3.980937 0.222640 3.300581 0
M  V30 35 H -4.135133 1.682590 4.405425 0
M  V30 36 H -2.967071 -1.030927 5.135461 0
M  V30 37 H -4.548014 -0.406240 5.685238 0
M  V30 38 H -1.254960 1.451864 7.051478 0
M  V30 39 H -1.092313 0.012669 5.981139 0
M  V30 40 H -2.324047 2.732546 5.245396 0
M  V30 41 H -0.650214 2.167852 4.772525 0
M  V30 42 H 0.263433 2.080377 3.010481 0
M  V30 43 H 1.321536 1.746621 0.892196 0
M  V30 END ATOM
M  V30 BEGIN BOND
M  V30 1 1 1 2
M  V30 2 2 2 3
M  V30 3 2 2 4
M  V30 4 1 2 5
M  V30 5 2 5 6
M  V30 6 1 6 7
M  V30 7 2 7 8
M  V30 8 1 8 9
M  V30 9 1 8 10
M  V30 10 1 10 11
M  V30 11 2 11 12
M  V30 12 1 11 13
M  V30 13 1 13 14
M  V30 14 2 14 15
M  V30 15 1 15 16
M  V30 16 2 16 17
M  V30 17 1 17 18
M  V30 18 1 18 19
M  V30 19 1 19 20
M  V30 20 1 20 21
M  V30 21 1 21 22
M  V30 22 1 22 23
M  V30 23 1 17 24
M  V30 24 2 24 25
M  V30 25 2 10 26
M  V30 26 1 26 5
M  V30 27 1 25 14
M  V30 28 1 23 18
M  V30 29 1 1 27
M  V30 30 1 1 28
M  V30 31 1 1 29
M  V30 32 1 7 30
M  V30 33 1 13 31
M  V30 34 1 15 32
M  V30 35 1 16 33
M  V30 36 1 19 34
M  V30 37 1 19 35
M  V30 38 1 20 36
M  V30 39 1 20 37
M  V30 40 1 22 38
M  V30 41 1 22 39
M  V30 42 1 23 40
M  V30 43 1 23 41
M  V30 44 1 24 42
M  V30 45 1 25 43
M  V30 END BOND
M  V30 END CTAB
M  END
>  <Dataset>  (449) 
ChEMBL_Kinases

>  <Ligand_Instance>  (449) 
nan

>  <PDB_ID>  (449) 
nan

>  <Standardized_SMILES>  (449) 
CS(=O)(=O)c1ncc(Cl)c(C(=O)Nc2ccc(N3CCOCC3)cc2)n1

>  <Name>  (449) 
nan

>  <Pocket>  (449) 
nan

>  <ATP_Site>  (449) 
nan

>  <Peripheral>  (449) 
nan

>  <Num_H_Atoms_ProtBoundConf>  (449) 
nan

>  <Num_Resolved_Atoms>  (449) 
nan

>  <Num_Not_Resolved_Atoms>  (449) 
nan

$$$$
CHEMBL1337295
     RDKit          3D

  0  0  0  0  0  0  0  0  0  0999 V3000
M  V30 BEGIN CTAB
M  V30 COUNTS 49 51 0 0 0
M  V30 BEGIN ATOM
M  V30 1 C 2.199503 -6.439157 -1.535393 0
M  V30 2 O 2.835183 -5.289333 -2.077921 0
M  V30 3 C 2.722659 -4.102507 -1.381263 0
M  V30 4 C 2.007635 -4.029260 -0.180668 0
M  V30 5 C 1.933496 -2.795888 0.473348 0
M  V30 6 C 2.560054 -1.664780 -0.062352 0
M  V30 7 C 3.264826 -1.737095 -1.245782 0
M  V30 8 C 3.325401 -2.963889 -1.874776 0
M  V30 9 O 4.038301 -3.019028 -3.064072 0
M  V30 10 C 4.659891 -1.860275 -3.579771 0
M  V30 11 C 2.339035 -0.490826 0.805890 0
M  V30 12 N 0.912175 -0.354475 1.030778 0
M  V30 13 C 0.601358 0.891989 1.657811 0
M  V30 14 C -0.853621 1.064247 1.902782 0
M  V30 15 O -1.849102 0.302170 1.652322 0
M  V30 16 N -1.274404 2.273726 2.524594 0
M  V30 17 C -2.698675 2.363645 2.727000 0
M  V30 18 C -3.228257 1.891006 3.900831 0
M  V30 19 C -4.605180 1.979093 4.093994 0
M  V30 20 C -5.373546 2.544619 3.080860 0
M  V30 21 C -4.847482 3.022352 1.896953 0
M  V30 22 C -5.778479 3.606262 0.889275 0
M  V30 23 C -3.478270 2.930219 1.714726 0
M  V30 24 C 0.352633 -1.444641 1.760989 0
M  V30 25 C 1.180928 -2.689737 1.749852 0
M  V30 26 H 1.129001 -6.243045 -1.289019 0
M  V30 27 H 2.170369 -7.247910 -2.305832 0
M  V30 28 H 2.698461 -6.776374 -0.605403 0
M  V30 29 H 1.532823 -4.917415 0.211923 0
M  V30 30 H 3.697965 -0.819612 -1.557538 0
M  V30 31 H 4.896203 -2.001080 -4.668911 0
M  V30 32 H 5.605595 -1.650195 -3.067773 0
M  V30 33 H 3.989530 -0.962158 -3.571586 0
M  V30 34 H 2.806865 0.436428 0.463138 0
M  V30 35 H 2.779879 -0.743243 1.812701 0
M  V30 36 H 1.016788 1.771618 1.169585 0
M  V30 37 H 1.066534 0.860017 2.676584 0
M  V30 38 H -0.648748 3.058428 2.827269 0
M  V30 39 H -2.613541 1.453811 4.678279 0
M  V30 40 H -5.088926 1.619071 5.010551 0
M  V30 41 H -6.447983 2.612432 3.233596 0
M  V30 42 H -5.182531 3.872970 -0.011220 0
M  V30 43 H -6.228146 4.565849 1.258105 0
M  V30 44 H -6.534677 2.859348 0.592528 0
M  V30 45 H -3.061457 3.303976 0.787056 0
M  V30 46 H -0.686221 -1.718205 1.480884 0
M  V30 47 H 0.267540 -1.122526 2.835355 0
M  V30 48 H 0.539736 -3.596855 1.858797 0
M  V30 49 H 1.941784 -2.711216 2.566523 0
M  V30 END ATOM
M  V30 BEGIN BOND
M  V30 1 1 1 2
M  V30 2 1 2 3
M  V30 3 2 3 4
M  V30 4 1 4 5
M  V30 5 2 5 6
M  V30 6 1 6 7
M  V30 7 2 7 8
M  V30 8 1 8 9
M  V30 9 1 9 10
M  V30 10 1 6 11
M  V30 11 1 11 12
M  V30 12 1 12 13
M  V30 13 1 13 14
M  V30 14 2 14 15
M  V30 15 1 14 16
M  V30 16 1 16 17
M  V30 17 2 17 18
M  V30 18 1 18 19
M  V30 19 2 19 20
M  V30 20 1 20 21
M  V30 21 1 21 22
M  V30 22 2 21 23
M  V30 23 1 12 24
M  V30 24 1 24 25
M  V30 25 1 8 3
M  V30 26 1 23 17
M  V30 27 1 25 5
M  V30 28 1 1 26
M  V30 29 1 1 27
M  V30 30 1 1 28
M  V30 31 1 4 29
M  V30 32 1 7 30
M  V30 33 1 10 31
M  V30 34 1 10 32
M  V30 35 1 10 33
M  V30 36 1 11 34
M  V30 37 1 11 35
M  V30 38 1 13 36
M  V30 39 1 13 37
M  V30 40 1 16 38
M  V30 41 1 18 39
M  V30 42 1 19 40
M  V30 43 1 20 41
M  V30 44 1 22 42
M  V30 45 1 22 43
M  V30 46 1 22 44
M  V30 47 1 23 45
M  V30 48 1 24 46
M  V30 49 1 24 47
M  V30 50 1 25 48
M  V30 51 1 25 49
M  V30 END BOND
M  V30 END CTAB
M  END
>  <Dataset>  (450) 
ChEMBL_Kinases

>  <Ligand_Instance>  (450) 
nan

>  <PDB_ID>  (450) 
nan

>  <Standardized_SMILES>  (450) 
COc1cc2c(cc1OC)CN(CC(=O)Nc1cccc(C)c1)CC2

>  <Name>  (450) 
nan

>  <Pocket>  (450) 
nan

>  <ATP_Site>  (450) 
nan

>  <Peripheral>  (450) 
nan

>  <Num_H_Atoms_ProtBoundConf>  (450) 
nan

>  <Num_Resolved_Atoms>  (450) 
nan

>  <Num_Not_Resolved_Atoms>  (450) 
nan

$$$$
CHEMBL1337299
     RDKit          3D

  0  0  0  0  0  0  0  0  0  0999 V3000
M  V30 BEGIN CTAB
M  V30 COUNTS 34 36 0 0 0
M  V30 BEGIN ATOM
M  V30 1 N -0.356535 -2.540703 3.514566 0
M  V30 2 C -0.180491 -2.215946 2.146973 0
M  V30 3 O 0.898804 -2.642635 1.694137 0
M  V30 4 C -1.140558 -1.466787 1.337250 0
M  V30 5 C -0.784904 -1.262420 0.056452 0
M  V30 6 N 0.343180 -1.605280 -0.755083 0
M  V30 7 C 1.398623 -0.659912 -0.770086 0
M  V30 8 O 1.136102 0.337063 -0.042086 0
M  V30 9 C 2.576127 -1.019699 -1.618295 0
M  V30 10 C 3.612938 0.099178 -1.521396 0
M  V30 11 C 3.636265 1.236804 -2.402849 0
M  V30 12 C 4.645442 2.130303 -2.154360 0
M  V30 13 C 5.540369 1.939931 -1.153445 0
M  V30 14 S 4.990345 0.327801 -0.395183 0
M  V30 15 S -2.099802 -0.358620 -0.651526 0
M  V30 16 C -3.106993 -0.297863 0.877716 0
M  V30 17 C -2.347693 -0.965835 1.765785 0
M  V30 18 C -3.118730 -0.952803 3.050415 0
M  V30 19 C -4.540176 -0.842987 2.606076 0
M  V30 20 C -4.391406 0.186627 1.484644 0
M  V30 21 H -0.040166 -2.265422 4.454303 0
M  V30 22 H -1.036963 -3.300123 3.337373 0
M  V30 23 H 0.303186 -2.509352 -1.264900 0
M  V30 24 H 3.116495 -1.896656 -1.210444 0
M  V30 25 H 2.363706 -1.082623 -2.681527 0
M  V30 26 H 2.891276 1.323296 -3.178887 0
M  V30 27 H 4.755839 3.021315 -2.757266 0
M  V30 28 H 6.352137 2.485914 -0.816365 0
M  V30 29 H -2.860973 0.030726 3.517722 0
M  V30 30 H -2.910279 -1.801706 3.702057 0
M  V30 31 H -5.214695 -0.495732 3.390253 0
M  V30 32 H -4.899473 -1.795733 2.221442 0
M  V30 33 H -5.243042 0.118237 0.803611 0
M  V30 34 H -4.289561 1.198157 1.871165 0
M  V30 END ATOM
M  V30 BEGIN BOND
M  V30 1 1 1 2
M  V30 2 2 2 3
M  V30 3 1 2 4
M  V30 4 2 4 5
M  V30 5 1 5 6
M  V30 6 1 6 7
M  V30 7 2 7 8
M  V30 8 1 7 9
M  V30 9 1 9 10
M  V30 10 2 10 11
M  V30 11 1 11 12
M  V30 12 2 12 13
M  V30 13 1 13 14
M  V30 14 1 5 15
M  V30 15 1 15 16
M  V30 16 2 16 17
M  V30 17 1 17 18
M  V30 18 1 18 19
M  V30 19 1 19 20
M  V30 20 1 17 4
M  V30 21 1 14 10
M  V30 22 1 20 16
M  V30 23 1 1 21
M  V30 24 1 1 22
M  V30 25 1 6 23
M  V30 26 1 9 24
M  V30 27 1 9 25
M  V30 28 1 11 26
M  V30 29 1 12 27
M  V30 30 1 13 28
M  V30 31 1 18 29
M  V30 32 1 18 30
M  V30 33 1 19 31
M  V30 34 1 19 32
M  V30 35 1 20 33
M  V30 36 1 20 34
M  V30 END BOND
M  V30 END CTAB
M  END
>  <Dataset>  (451) 
ChEMBL_Kinases

>  <Ligand_Instance>  (451) 
nan

>  <PDB_ID>  (451) 
nan

>  <Standardized_SMILES>  (451) 
NC(=O)c1c(NC(=O)Cc2cccs2)sc2c1CCC2

>  <Name>  (451) 
nan

>  <Pocket>  (451) 
nan

>  <ATP_Site>  (451) 
nan

>  <Peripheral>  (451) 
nan

>  <Num_H_Atoms_ProtBoundConf>  (451) 
nan

>  <Num_Resolved_Atoms>  (451) 
nan

>  <Num_Not_Resolved_Atoms>  (451) 
nan

$$$$
CHEMBL1337473
     RDKit          3D

  0  0  0  0  0  0  0  0  0  0999 V3000
M  V30 BEGIN CTAB
M  V30 COUNTS 39 42 0 0 0
M  V30 BEGIN ATOM
M  V30 1 C 1.270354 -4.969001 1.298628 0
M  V30 2 C 2.568592 -4.550891 0.712240 0
M  V30 3 C 3.701406 -5.244540 1.073420 0
M  V30 4 C 4.973775 -4.980814 0.623840 0
M  V30 5 C 5.102231 -3.930398 -0.261290 0
M  V30 6 C 3.964401 -3.236442 -0.622185 0
M  V30 7 S 3.763963 -1.820615 -1.745751 0
M  V30 8 C 1.874510 -1.783351 -1.430368 0
M  V30 9 N 0.666457 -1.004322 -1.837916 0
M  V30 10 N 0.119000 0.065972 -1.130990 0
M  V30 11 C 0.208334 1.473633 -1.027055 0
M  V30 12 O 0.978982 2.164372 -1.718618 0
M  V30 13 C -0.671985 2.088163 -0.044380 0
M  V30 14 C -0.550089 3.458736 0.058790 0
M  V30 15 C -1.331054 4.163349 0.956481 0
M  V30 16 C -2.242818 3.518520 1.763676 0
M  V30 17 C -2.353389 2.141497 1.648507 0
M  V30 18 C -1.581065 1.435866 0.759055 0
M  V30 19 O -3.236102 1.393857 2.410411 0
M  V30 20 C -4.225277 1.972510 3.235809 0
M  V30 21 C -3.727218 3.301910 3.712810 0
M  V30 22 O -3.105067 4.040280 2.712218 0
M  V30 23 N 1.766985 -2.653675 -0.697346 0
M  V30 24 C 2.661985 -3.478790 -0.184863 0
M  V30 25 H 1.256893 -4.747841 2.384225 0
M  V30 26 H 0.462629 -4.315964 0.857904 0
M  V30 27 H 1.045727 -6.021620 1.065978 0
M  V30 28 H 3.593903 -6.082456 1.780864 0
M  V30 29 H 5.870971 -5.509540 0.892882 0
M  V30 30 H 5.994048 -3.569625 -0.721605 0
M  V30 31 H 0.355254 -1.451977 -2.750997 0
M  V30 32 H -0.474062 -0.618122 -0.619898 0
M  V30 33 H 0.139312 4.037616 -0.536833 0
M  V30 34 H -1.304176 5.231031 1.104119 0
M  V30 35 H -1.656761 0.384455 0.661700 0
M  V30 36 H -4.447413 1.277684 4.067810 0
M  V30 37 H -5.168417 2.180874 2.655678 0
M  V30 38 H -4.624770 3.890552 4.041316 0
M  V30 39 H -3.053082 3.108300 4.597848 0
M  V30 END ATOM
M  V30 BEGIN BOND
M  V30 1 1 1 2
M  V30 2 2 2 3
M  V30 3 1 3 4
M  V30 4 2 4 5
M  V30 5 1 5 6
M  V30 6 1 6 7
M  V30 7 1 7 8
M  V30 8 1 8 9
M  V30 9 1 9 10
M  V30 10 1 10 11
M  V30 11 2 11 12
M  V30 12 1 11 13
M  V30 13 2 13 14
M  V30 14 1 14 15
M  V30 15 2 15 16
M  V30 16 1 16 17
M  V30 17 2 17 18
M  V30 18 1 17 19
M  V30 19 1 19 20
M  V30 20 1 20 21
M  V30 21 1 21 22
M  V30 22 2 8 23
M  V30 23 1 23 24
M  V30 24 1 24 2
M  V30 25 2 24 6
M  V30 26 1 18 13
M  V30 27 1 22 16
M  V30 28 1 1 25
M  V30 29 1 1 26
M  V30 30 1 1 27
M  V30 31 1 3 28
M  V30 32 1 4 29
M  V30 33 1 5 30
M  V30 34 1 9 31
M  V30 35 1 10 32
M  V30 36 1 14 33
M  V30 37 1 15 34
M  V30 38 1 18 35
M  V30 39 1 20 36
M  V30 40 1 20 37
M  V30 41 1 21 38
M  V30 42 1 21 39
M  V30 END BOND
M  V30 END CTAB
M  END
>  <Dataset>  (452) 
ChEMBL_Kinases

>  <Ligand_Instance>  (452) 
nan

>  <PDB_ID>  (452) 
nan

>  <Standardized_SMILES>  (452) 
Cc1cccc2sc(NNC(=O)c3ccc4c(c3)OCCO4)nc12

>  <Name>  (452) 
nan

>  <Pocket>  (452) 
nan

>  <ATP_Site>  (452) 
nan

>  <Peripheral>  (452) 
nan

>  <Num_H_Atoms_ProtBoundConf>  (452) 
nan

>  <Num_Resolved_Atoms>  (452) 
nan

>  <Num_Not_Resolved_Atoms>  (452) 
nan

$$$$
CHEMBL1337500
     RDKit          3D

  0  0  0  0  0  0  0  0  0  0999 V3000
M  V30 BEGIN CTAB
M  V30 COUNTS 27 29 0 0 0
M  V30 BEGIN ATOM
M  V30 1 O -1.065129 -1.840182 3.789861 0
M  V30 2 C -0.816888 -1.508831 2.607140 0
M  V30 3 C 0.268508 -0.711079 2.327939 0
M  V30 4 C 0.629367 -0.291200 1.072999 0
M  V30 5 C 1.749890 0.545894 0.683147 0
M  V30 6 C 1.902893 0.831440 -0.656748 0
M  V30 7 F 1.047900 0.357789 -1.599730 0
M  V30 8 C 2.936653 1.617758 -1.121870 0
M  V30 9 F 3.066620 1.884670 -2.443014 0
M  V30 10 C 3.873304 2.160412 -0.267474 0
M  V30 11 F 4.901321 2.936781 -0.688032 0
M  V30 12 C 3.743663 1.890927 1.074745 0
M  V30 13 F 4.641005 2.405527 1.932942 0
M  V30 14 C 2.699395 1.102224 1.502445 0
M  V30 15 F 2.634738 0.881531 2.820123 0
M  V30 16 O -0.167808 -0.723794 0.125949 0
M  V30 17 C -1.212378 -1.484032 0.338241 0
M  V30 18 C -1.953568 -1.854667 -0.779581 0
M  V30 19 F -1.630814 -1.458687 -2.055608 0
M  V30 20 C -3.060687 -2.658043 -0.572505 0
M  V30 21 F -3.821961 -3.051002 -1.628334 0
M  V30 22 C -3.463417 -3.105601 0.669940 0
M  V30 23 F -4.548551 -3.886148 0.821229 0
M  V30 24 C -2.725810 -2.735680 1.774263 0
M  V30 25 F -3.027338 -3.113351 3.024473 0
M  V30 26 C -1.622980 -1.936163 1.573596 0
M  V30 27 H 0.867730 -0.400854 3.152095 0
M  V30 END ATOM
M  V30 BEGIN BOND
M  V30 1 2 1 2
M  V30 2 1 2 3
M  V30 3 2 3 4
M  V30 4 1 4 5
M  V30 5 2 5 6
M  V30 6 1 6 7
M  V30 7 1 6 8
M  V30 8 1 8 9
M  V30 9 2 8 10
M  V30 10 1 10 11
M  V30 11 1 10 12
M  V30 12 1 12 13
M  V30 13 2 12 14
M  V30 14 1 14 15
M  V30 15 1 4 16
M  V30 16 1 16 17
M  V30 17 2 17 18
M  V30 18 1 18 19
M  V30 19 1 18 20
M  V30 20 1 20 21
M  V30 21 2 20 22
M  V30 22 1 22 23
M  V30 23 1 22 24
M  V30 24 1 24 25
M  V30 25 2 24 26
M  V30 26 1 26 2
M  V30 27 1 14 5
M  V30 28 1 26 17
M  V30 29 1 3 27
M  V30 END BOND
M  V30 END CTAB
M  END
>  <Dataset>  (453) 
ChEMBL_Kinases

>  <Ligand_Instance>  (453) 
nan

>  <PDB_ID>  (453) 
nan

>  <Standardized_SMILES>  (453) 
O=c1cc(-c2c(F)c(F)c(F)c(F)c2F)oc2c(F)c(F)c(F)c(F)c12

>  <Name>  (453) 
nan

>  <Pocket>  (453) 
nan

>  <ATP_Site>  (453) 
nan

>  <Peripheral>  (453) 
nan

>  <Num_H_Atoms_ProtBoundConf>  (453) 
nan

>  <Num_Resolved_Atoms>  (453) 
nan

>  <Num_Not_Resolved_Atoms>  (453) 
nan

$$$$
CHEMBL1337632
     RDKit          3D

  0  0  0  0  0  0  0  0  0  0999 V3000
M  V30 BEGIN CTAB
M  V30 COUNTS 34 35 0 0 0
M  V30 BEGIN ATOM
M  V30 1 C -1.412071 -1.041214 1.967837 0
M  V30 2 C -2.039345 -2.129488 1.189857 0
M  V30 3 C -1.526048 -2.635307 0.018265 0
M  V30 4 C -0.301239 -2.098193 -0.513456 0
M  V30 5 O 0.581279 -1.236207 -0.279590 0
M  V30 6 O 0.864973 -1.563807 -0.989906 0
M  V30 7 N 1.475810 -0.547510 -0.283184 0
M  V30 8 C 1.976601 0.512212 -0.841309 0
M  V30 9 N 1.867252 0.587289 -2.259542 0
M  V30 10 C 2.620932 1.580466 -0.086121 0
M  V30 11 C 2.710523 1.474557 1.285051 0
M  V30 12 C 3.336082 2.523339 1.956031 0
M  V30 13 C 3.829539 3.599682 1.245570 0
M  V30 14 C 3.723480 3.675141 -0.129030 0
M  V30 15 N 3.115096 2.649357 -0.752488 0
M  V30 16 C -2.060432 -3.643926 -0.752565 0
M  V30 17 C -3.239484 -4.220662 -0.315609 0
M  V30 18 C -3.752421 -3.717144 0.852743 0
M  V30 19 C -3.211993 -2.713941 1.610516 0
M  V30 20 N -3.878520 -2.312732 2.801470 0 CHG=1 VAL=4
M  V30 21 O -5.121322 -2.450332 2.918736 0
M  V30 22 O -3.345672 -1.762590 3.917449 0 CHG=-1 VAL=1
M  V30 23 H -0.840855 -1.416087 2.861925 0
M  V30 24 H -0.777421 -0.359761 1.397995 0
M  V30 25 H -2.199884 -0.376221 2.431218 0
M  V30 26 H 0.864795 0.736599 -2.459919 0
M  V30 27 H 2.594756 0.516581 -3.011782 0
M  V30 28 H 2.327241 0.635298 1.853028 0
M  V30 29 H 3.408158 2.441774 3.040262 0
M  V30 30 H 4.312997 4.410641 1.761045 0
M  V30 31 H 4.121785 4.532897 -0.648481 0
M  V30 32 H -1.625254 -4.013053 -1.668477 0
M  V30 33 H -3.728058 -5.010877 -0.849387 0
M  V30 34 H -4.672884 -4.170268 1.190091 0
M  V30 END ATOM
M  V30 BEGIN BOND
M  V30 1 1 1 2
M  V30 2 2 2 3
M  V30 3 1 3 4
M  V30 4 2 4 5
M  V30 5 1 4 6
M  V30 6 1 6 7
M  V30 7 2 7 8
M  V30 8 1 8 9
M  V30 9 1 8 10
M  V30 10 2 10 11
M  V30 11 1 11 12
M  V30 12 2 12 13
M  V30 13 1 13 14
M  V30 14 2 14 15
M  V30 15 1 3 16
M  V30 16 2 16 17
M  V30 17 1 17 18
M  V30 18 2 18 19
M  V30 19 1 19 20
M  V30 20 2 20 21
M  V30 21 1 20 22
M  V30 22 1 19 2
M  V30 23 1 15 10
M  V30 24 1 1 23
M  V30 25 1 1 24
M  V30 26 1 1 25
M  V30 27 1 9 26
M  V30 28 1 9 27
M  V30 29 1 11 28
M  V30 30 1 12 29
M  V30 31 1 13 30
M  V30 32 1 14 31
M  V30 33 1 16 32
M  V30 34 1 17 33
M  V30 35 1 18 34
M  V30 END BOND
M  V30 END CTAB
M  END
>  <Dataset>  (454) 
ChEMBL_Kinases

>  <Ligand_Instance>  (454) 
nan

>  <PDB_ID>  (454) 
nan

>  <Standardized_SMILES>  (454) 
Cc1c(C(=O)O/N=C(\N)c2ccccn2)cccc1[N+](=O)[O-]

>  <Name>  (454) 
nan

>  <Pocket>  (454) 
nan

>  <ATP_Site>  (454) 
nan

>  <Peripheral>  (454) 
nan

>  <Num_H_Atoms_ProtBoundConf>  (454) 
nan

>  <Num_Resolved_Atoms>  (454) 
nan

>  <Num_Not_Resolved_Atoms>  (454) 
nan

$$$$
CHEMBL1337775
     RDKit          3D

  0  0  0  0  0  0  0  0  0  0999 V3000
M  V30 BEGIN CTAB
M  V30 COUNTS 25 27 0 0 0
M  V30 BEGIN ATOM
M  V30 1 Br 2.252563 0.341729 5.517276 0
M  V30 2 C 1.943085 -0.481945 3.819506 0
M  V30 3 C 2.443475 -1.753935 3.603607 0
M  V30 4 C 2.211483 -2.345952 2.359834 0
M  V30 5 C 1.500900 -1.618843 1.439175 0
M  V30 6 N 1.150100 -1.973711 0.172888 0
M  V30 7 C 0.449226 -0.945298 -0.381270 0
M  V30 8 C 0.384152 0.043638 0.583317 0
M  V30 9 N 1.029110 -0.380681 1.686940 0
M  V30 10 C 1.228831 0.231677 2.874479 0
M  V30 11 C -0.339373 1.304683 0.238010 0
M  V30 12 C -1.717669 0.878361 -0.226715 0
M  V30 13 C -1.627843 -0.046242 -1.398132 0
M  V30 14 C -0.240753 -0.570676 -1.652103 0
M  V30 15 H 2.993199 -2.244185 4.398019 0
M  V30 16 H 2.594496 -3.337954 2.173675 0
M  V30 17 H 0.867820 1.224447 3.115637 0
M  V30 18 H -0.404538 1.998303 1.070246 0
M  V30 19 H 0.177981 1.742997 -0.656188 0
M  V30 20 H -2.262257 1.819017 -0.470419 0
M  V30 21 H -2.242244 0.400766 0.602847 0
M  V30 22 H -2.367966 -0.864112 -1.259502 0
M  V30 23 H -1.954997 0.519067 -2.297844 0
M  V30 24 H -0.341111 -1.495059 -2.257686 0
M  V30 25 H 0.357775 0.149274 -2.225636 0
M  V30 END ATOM
M  V30 BEGIN BOND
M  V30 1 1 1 2
M  V30 2 1 2 3
M  V30 3 2 3 4
M  V30 4 1 4 5
M  V30 5 2 5 6
M  V30 6 1 6 7
M  V30 7 2 7 8
M  V30 8 1 8 9
M  V30 9 1 9 10
M  V30 10 1 8 11
M  V30 11 1 11 12
M  V30 12 1 12 13
M  V30 13 1 13 14
M  V30 14 2 10 2
M  V30 15 1 9 5
M  V30 16 1 14 7
M  V30 17 1 3 15
M  V30 18 1 4 16
M  V30 19 1 10 17
M  V30 20 1 11 18
M  V30 21 1 11 19
M  V30 22 1 12 20
M  V30 23 1 12 21
M  V30 24 1 13 22
M  V30 25 1 13 23
M  V30 26 1 14 24
M  V30 27 1 14 25
M  V30 END BOND
M  V30 END CTAB
M  END
>  <Dataset>  (455) 
ChEMBL_Kinases

>  <Ligand_Instance>  (455) 
nan

>  <PDB_ID>  (455) 
nan

>  <Standardized_SMILES>  (455) 
Brc1ccc2nc3c(n2c1)CCCC3

>  <Name>  (455) 
nan

>  <Pocket>  (455) 
nan

>  <ATP_Site>  (455) 
nan

>  <Peripheral>  (455) 
nan

>  <Num_H_Atoms_ProtBoundConf>  (455) 
nan

>  <Num_Resolved_Atoms>  (455) 
nan

>  <Num_Not_Resolved_Atoms>  (455) 
nan

$$$$
CHEMBL1337117
     RDKit          3D

  0  0  0  0  0  0  0  0  0  0999 V3000
M  V30 BEGIN CTAB
M  V30 COUNTS 53 56 0 0 0
M  V30 BEGIN ATOM
M  V30 1 C -1.158486 -0.637366 3.630826 0
M  V30 2 C -0.403818 -1.939653 3.859255 0
M  V30 3 N -0.573571 -2.835000 2.721881 0
M  V30 4 C 0.343519 -2.732806 1.714287 0
M  V30 5 S 1.671663 -1.575577 1.773866 0
M  V30 6 C 2.755428 -1.611534 0.350211 0
M  V30 7 C 2.141101 -1.192366 -0.910055 0
M  V30 8 O 1.597150 -2.047535 -1.660787 0
M  V30 9 N 2.158529 0.179797 -1.286634 0
M  V30 10 C 2.777520 1.173562 -0.431848 0
M  V30 11 C 2.192487 2.516906 -0.768519 0
M  V30 12 N 0.772218 2.334739 -0.975032 0
M  V30 13 C -0.240526 2.724649 -0.058688 0
M  V30 14 C 0.143637 3.238518 1.158614 0
M  V30 15 C -0.826130 3.630922 2.076787 0
M  V30 16 C -2.173329 3.503147 1.762584 0
M  V30 17 F -3.102227 3.900503 2.693307 0
M  V30 18 C -2.556979 2.982334 0.528727 0
M  V30 19 C -1.569466 2.601950 -0.360799 0
M  V30 20 C 0.501180 1.682005 -2.265401 0
M  V30 21 C 1.548484 0.625010 -2.551438 0
M  V30 22 N 0.254794 -3.533325 0.618910 0
M  V30 23 C -0.718298 -4.449661 0.468716 0
M  V30 24 C -0.781731 -5.246223 -0.653166 0
M  V30 25 C -1.824544 -6.175365 -0.734477 0
M  V30 26 C -2.773118 -6.301601 0.276586 0
M  V30 27 C -2.674999 -5.474771 1.400143 0
M  V30 28 C -1.648021 -4.557280 1.484013 0
M  V30 29 C -1.578192 -3.749284 2.614804 0
M  V30 30 O -2.400693 -3.805948 3.570908 0
M  V30 31 H -2.173141 -0.760277 4.037957 0
M  V30 32 H -1.231932 -0.495030 2.531356 0
M  V30 33 H -0.581400 0.196425 4.106433 0
M  V30 34 H -0.801684 -2.457699 4.775962 0
M  V30 35 H 0.668943 -1.718623 4.007466 0
M  V30 36 H 3.123624 -2.649765 0.226378 0
M  V30 37 H 3.631445 -0.962884 0.579617 0
M  V30 38 H 3.884464 1.170973 -0.469394 0
M  V30 39 H 2.490472 0.969596 0.637047 0
M  V30 40 H 2.452891 3.300198 -0.035430 0
M  V30 41 H 2.696701 2.837430 -1.717626 0
M  V30 42 H 1.138641 3.378593 1.501359 0
M  V30 43 H -0.575189 4.044764 3.056866 0
M  V30 44 H -3.611586 2.881130 0.280091 0
M  V30 45 H -1.929569 2.207229 -1.299453 0
M  V30 46 H -0.479599 1.164615 -2.250365 0
M  V30 47 H 0.493750 2.400679 -3.084291 0
M  V30 48 H 1.077840 -0.245018 -3.005179 0
M  V30 49 H 2.347681 1.020117 -3.203323 0
M  V30 50 H -0.046872 -5.160027 -1.453586 0
M  V30 51 H -1.879662 -6.813662 -1.627978 0
M  V30 52 H -3.578373 -7.020349 0.211842 0
M  V30 53 H -3.384961 -5.531146 2.214274 0
M  V30 END ATOM
M  V30 BEGIN BOND
M  V30 1 1 1 2
M  V30 2 1 2 3
M  V30 3 1 3 4
M  V30 4 1 4 5
M  V30 5 1 5 6
M  V30 6 1 6 7
M  V30 7 2 7 8
M  V30 8 1 7 9
M  V30 9 1 9 10
M  V30 10 1 10 11
M  V30 11 1 11 12
M  V30 12 1 12 13
M  V30 13 2 13 14
M  V30 14 1 14 15
M  V30 15 2 15 16
M  V30 16 1 16 17
M  V30 17 1 16 18
M  V30 18 2 18 19
M  V30 19 1 12 20
M  V30 20 1 20 21
M  V30 21 2 4 22
M  V30 22 1 22 23
M  V30 23 2 23 24
M  V30 24 1 24 25
M  V30 25 2 25 26
M  V30 26 1 26 27
M  V30 27 2 27 28
M  V30 28 1 28 29
M  V30 29 2 29 30
M  V30 30 1 29 3
M  V30 31 1 21 9
M  V30 32 1 28 23
M  V30 33 1 19 13
M  V30 34 1 1 31
M  V30 35 1 1 32
M  V30 36 1 1 33
M  V30 37 1 2 34
M  V30 38 1 2 35
M  V30 39 1 6 36
M  V30 40 1 6 37
M  V30 41 1 10 38
M  V30 42 1 10 39
M  V30 43 1 11 40
M  V30 44 1 11 41
M  V30 45 1 14 42
M  V30 46 1 15 43
M  V30 47 1 18 44
M  V30 48 1 19 45
M  V30 49 1 20 46
M  V30 50 1 20 47
M  V30 51 1 21 48
M  V30 52 1 21 49
M  V30 53 1 24 50
M  V30 54 1 25 51
M  V30 55 1 26 52
M  V30 56 1 27 53
M  V30 END BOND
M  V30 END CTAB
M  END
>  <Dataset>  (456) 
ChEMBL_Kinases

>  <Ligand_Instance>  (456) 
nan

>  <PDB_ID>  (456) 
nan

>  <Standardized_SMILES>  (456) 
CCn1c(SCC(=O)N2CCN(c3ccc(F)cc3)CC2)nc2ccccc2c1=O

>  <Name>  (456) 
nan

>  <Pocket>  (456) 
nan

>  <ATP_Site>  (456) 
nan

>  <Peripheral>  (456) 
nan

>  <Num_H_Atoms_ProtBoundConf>  (456) 
nan

>  <Num_Resolved_Atoms>  (456) 
nan

>  <Num_Not_Resolved_Atoms>  (456) 
nan

$$$$
CHEMBL1330698
     RDKit          3D

  0  0  0  0  0  0  0  0  0  0999 V3000
M  V30 BEGIN CTAB
M  V30 COUNTS 39 41 0 0 0
M  V30 BEGIN ATOM
M  V30 1 C -1.423378 -6.275387 2.633621 0
M  V30 2 C -0.880535 -4.873837 2.364666 0
M  V30 3 S -0.209900 -4.296346 0.842282 0
M  V30 4 C 0.143269 -2.727552 1.346891 0
M  V30 5 N 0.753060 -1.668437 0.514251 0
M  V30 6 C 1.065231 -1.991721 -0.806533 0
M  V30 7 O 0.828443 -3.159635 -1.248530 0
M  V30 8 C 1.664264 -1.195655 -1.888251 0
M  V30 9 O 1.981827 0.124802 -1.572262 0
M  V30 10 C 1.013316 1.041837 -1.197038 0
M  V30 11 C -0.368863 0.952363 -1.047261 0
M  V30 12 C -1.087181 2.057777 -0.651650 0
M  V30 13 C -0.483191 3.263529 -0.395259 0
M  V30 14 C 0.884233 3.373763 -0.537444 0
M  V30 15 N 1.429309 4.655763 -0.252575 0
M  V30 16 C 1.818349 5.741581 -0.917627 0
M  V30 17 N 2.252202 6.622529 0.018139 0
M  V30 18 N 2.133034 6.095516 1.210236 0
M  V30 19 N 1.626560 4.887290 1.032039 0
M  V30 20 C 1.625348 2.255841 -0.939385 0
M  V30 21 C -0.247763 -2.672013 2.639710 0
M  V30 22 C -0.075141 -1.422923 3.384509 0
M  V30 23 N 0.054738 -0.425113 4.000905 0
M  V30 24 C -0.771969 -3.783651 3.147690 0
M  V30 25 C -1.271619 -3.932065 4.572992 0
M  V30 26 H -2.495496 -6.266122 2.389077 0
M  V30 27 H -0.923707 -6.995129 1.954789 0
M  V30 28 H -1.165836 -6.582499 3.653679 0
M  V30 29 H 0.977811 -0.720995 0.810262 0
M  V30 30 H 2.626416 -1.663914 -2.253881 0
M  V30 31 H 1.024143 -1.204452 -2.818311 0
M  V30 32 H -0.695478 -0.053723 -1.283584 0
M  V30 33 H -2.153342 1.844596 -0.575885 0
M  V30 34 H -1.174377 4.024912 -0.097976 0
M  V30 35 H 1.718499 5.709621 -2.001266 0
M  V30 36 H 2.681572 2.521839 -0.999319 0
M  V30 37 H -0.784062 -4.764955 5.079628 0
M  V30 38 H -1.132921 -2.990437 5.144687 0
M  V30 39 H -2.369905 -4.147798 4.490097 0
M  V30 END ATOM
M  V30 BEGIN BOND
M  V30 1 1 1 2
M  V30 2 1 2 3
M  V30 3 1 3 4
M  V30 4 1 4 5
M  V30 5 1 5 6
M  V30 6 2 6 7
M  V30 7 1 6 8
M  V30 8 1 8 9
M  V30 9 1 9 10
M  V30 10 2 10 11
M  V30 11 1 11 12
M  V30 12 2 12 13
M  V30 13 1 13 14
M  V30 14 1 14 15
M  V30 15 1 15 16
M  V30 16 2 16 17
M  V30 17 1 17 18
M  V30 18 2 18 19
M  V30 19 2 14 20
M  V30 20 2 4 21
M  V30 21 1 21 22
M  V30 22 3 22 23
M  V30 23 1 21 24
M  V30 24 1 24 25
M  V30 25 2 24 2
M  V30 26 1 20 10
M  V30 27 1 19 15
M  V30 28 1 1 26
M  V30 29 1 1 27
M  V30 30 1 1 28
M  V30 31 1 5 29
M  V30 32 1 8 30
M  V30 33 1 8 31
M  V30 34 1 11 32
M  V30 35 1 12 33
M  V30 36 1 13 34
M  V30 37 1 16 35
M  V30 38 1 20 36
M  V30 39 1 25 37
M  V30 40 1 25 38
M  V30 41 1 25 39
M  V30 END BOND
M  V30 END CTAB
M  END
>  <Dataset>  (457) 
ChEMBL_Kinases

>  <Ligand_Instance>  (457) 
nan

>  <PDB_ID>  (457) 
nan

>  <Standardized_SMILES>  (457) 
Cc1sc(NC(=O)COc2cccc(-n3cnnn3)c2)c(C#N)c1C

>  <Name>  (457) 
nan

>  <Pocket>  (457) 
nan

>  <ATP_Site>  (457) 
nan

>  <Peripheral>  (457) 
nan

>  <Num_H_Atoms_ProtBoundConf>  (457) 
nan

>  <Num_Resolved_Atoms>  (457) 
nan

>  <Num_Not_Resolved_Atoms>  (457) 
nan

$$$$
CHEMBL1330659
     RDKit          3D

  0  0  0  0  0  0  0  0  0  0999 V3000
M  V30 BEGIN CTAB
M  V30 COUNTS 52 56 0 0 0
M  V30 BEGIN ATOM
M  V30 1 C -4.791534 -0.659186 -0.436259 0
M  V30 2 O -4.240331 -1.598690 0.432090 0
M  V30 3 C -2.896001 -1.809324 0.631558 0
M  V30 4 C -1.935751 -1.079509 -0.037519 0
M  V30 5 C -0.556565 -1.236184 0.112399 0
M  V30 6 C 0.395359 -0.414608 -0.639883 0 CFG=1
M  V30 7 C 0.795914 0.827024 0.073595 0
M  V30 8 C -0.054519 1.928884 0.070847 0
M  V30 9 C 0.309125 3.101729 0.736407 0
M  V30 10 C 1.492813 3.210235 1.403916 0
M  V30 11 C 2.312373 2.102664 1.388123 0
M  V30 12 C 1.976605 0.924504 0.735087 0
M  V30 13 C 2.908542 -0.200569 0.771999 0 CFG=1
M  V30 14 O 2.902915 -0.828367 2.039246 0
M  V30 15 C 2.784002 -1.195719 -0.324438 0 CFG=2
M  V30 16 C 3.938627 -1.050450 -1.324139 0
M  V30 17 O 3.423720 -0.368613 -2.440696 0
M  V30 18 C 2.050253 -0.334141 -2.377463 0
M  V30 19 O 1.285799 0.262559 -3.197689 0
M  V30 20 C 1.584442 -1.116588 -1.179773 0 CFG=2
M  V30 21 O 1.583420 4.468494 1.960124 0
M  V30 22 C 0.327755 5.083389 1.782465 0
M  V30 23 O -0.380486 4.289607 0.853085 0
M  V30 24 C -0.205507 -2.213006 1.014440 0
M  V30 25 C -1.120224 -2.974162 1.712488 0
M  V30 26 O -0.804794 -3.962765 2.625030 0
M  V30 27 C 0.509601 -4.333528 2.971294 0
M  V30 28 C -2.478778 -2.774584 1.523108 0
M  V30 29 O -3.449704 -3.500425 2.188508 0
M  V30 30 C -3.942048 -4.718362 1.608310 0
M  V30 31 H -4.192315 0.283123 -0.506518 0
M  V30 32 H -5.096492 -1.036610 -1.422265 0
M  V30 33 H -5.753792 -0.316357 0.045482 0
M  V30 34 H -2.255215 -0.307469 -0.750656 0
M  V30 35 H -0.174434 -0.039467 -1.544856 0
M  V30 36 H -1.008768 1.840723 -0.467559 0
M  V30 37 H 3.264391 2.189055 1.924724 0
M  V30 38 H 3.943009 0.249357 0.713142 0
M  V30 39 H 2.176683 -0.404599 2.560716 0
M  V30 40 H 2.920532 -2.239145 0.086461 0
M  V30 41 H 4.354964 -2.018439 -1.635753 0
M  V30 42 H 4.706465 -0.377875 -0.858846 0
M  V30 43 H 1.324184 -2.116176 -1.589287 0
M  V30 44 H 0.440155 6.129218 1.418996 0
M  V30 45 H -0.256735 5.062812 2.736116 0
M  V30 46 H 0.817362 -2.413665 1.204566 0
M  V30 47 H 0.556644 -5.361465 3.385942 0
M  V30 48 H 1.125689 -4.247911 2.033798 0
M  V30 49 H 0.909905 -3.639159 3.723441 0
M  V30 50 H -3.129980 -5.116532 0.968259 0
M  V30 51 H -4.762788 -4.399792 0.922481 0
M  V30 52 H -4.270145 -5.446480 2.359043 0
M  V30 END ATOM
M  V30 BEGIN BOND
M  V30 1 1 1 2
M  V30 2 1 2 3
M  V30 3 2 3 4
M  V30 4 1 4 5
M  V30 5 1 5 6
M  V30 6 1 6 7
M  V30 7 2 7 8
M  V30 8 1 8 9
M  V30 9 2 9 10
M  V30 10 1 10 11
M  V30 11 2 11 12
M  V30 12 1 12 13
M  V30 13 1 13 14
M  V30 14 1 13 15
M  V30 15 1 15 16
M  V30 16 1 16 17
M  V30 17 1 17 18
M  V30 18 2 18 19
M  V30 19 1 18 20
M  V30 20 1 10 21
M  V30 21 1 21 22
M  V30 22 1 22 23
M  V30 23 2 5 24
M  V30 24 1 24 25
M  V30 25 1 25 26
M  V30 26 1 26 27
M  V30 27 2 25 28
M  V30 28 1 28 29
M  V30 29 1 29 30
M  V30 30 1 28 3
M  V30 31 1 20 6
M  V30 32 1 12 7
M  V30 33 1 20 15
M  V30 34 1 23 9
M  V30 35 1 1 31
M  V30 36 1 1 32
M  V30 37 1 1 33
M  V30 38 1 4 34
M  V30 39 1 6 35 CFG=3
M  V30 40 1 8 36
M  V30 41 1 11 37
M  V30 42 1 13 38 CFG=3
M  V30 43 1 14 39
M  V30 44 1 15 40 CFG=1
M  V30 45 1 16 41
M  V30 46 1 16 42
M  V30 47 1 20 43 CFG=3
M  V30 48 1 22 44
M  V30 49 1 22 45
M  V30 50 1 24 46
M  V30 51 1 27 47
M  V30 52 1 27 48
M  V30 53 1 27 49
M  V30 54 1 30 50
M  V30 55 1 30 51
M  V30 56 1 30 52
M  V30 END BOND
M  V30 END CTAB
M  END
>  <Dataset>  (458) 
ChEMBL_Kinases

>  <Ligand_Instance>  (458) 
nan

>  <PDB_ID>  (458) 
nan

>  <Standardized_SMILES>  (458) 
COc1cc([C@H]2c3cc4c(cc3[C@@H](O)[C@@H]3COC(=O)[C@H]23)OCO4)cc(OC)c1OC

>  <Name>  (458) 
nan

>  <Pocket>  (458) 
nan

>  <ATP_Site>  (458) 
nan

>  <Peripheral>  (458) 
nan

>  <Num_H_Atoms_ProtBoundConf>  (458) 
nan

>  <Num_Resolved_Atoms>  (458) 
nan

>  <Num_Not_Resolved_Atoms>  (458) 
nan

$$$$
CHEMBL1330620
     RDKit          3D

  0  0  0  0  0  0  0  0  0  0999 V3000
M  V30 BEGIN CTAB
M  V30 COUNTS 37 38 0 0 0
M  V30 BEGIN ATOM
M  V30 1 C -0.371176 -4.510237 3.502240 0
M  V30 2 C 0.002141 -3.567938 2.422895 0
M  V30 3 C -0.807030 -3.355163 1.327978 0
M  V30 4 C -0.429723 -2.469944 0.339458 0
M  V30 5 C -1.318747 -2.263639 -0.822225 0
M  V30 6 C 0.751651 -1.758683 0.381891 0
M  V30 7 S 1.274359 -0.626551 -0.849716 0
M  V30 8 O 2.772157 -0.647305 -0.962421 0
M  V30 9 O 0.746419 -1.052329 -2.189598 0
M  V30 10 N 0.663650 0.940356 -0.446013 0
M  V30 11 N 0.948791 1.622678 0.644207 0
M  V30 12 C 0.326142 2.812879 0.681433 0
M  V30 13 C 0.379382 3.871880 1.725504 0
M  V30 14 C -0.399667 2.853059 -0.490644 0
M  V30 15 Br -1.541075 4.280869 -1.102520 0
M  V30 16 C -0.194966 1.672963 -1.214656 0
M  V30 17 C -0.797766 1.337433 -2.526113 0
M  V30 18 C 1.584314 -1.949336 1.465342 0
M  V30 19 C 2.890192 -1.280031 1.684830 0
M  V30 20 C 1.180310 -2.852271 2.455478 0
M  V30 21 H 0.298630 -4.413786 4.355922 0
M  V30 22 H -0.335399 -5.556259 3.111008 0
M  V30 23 H -1.399487 -4.331541 3.881034 0
M  V30 24 H -1.761374 -3.885323 1.226086 0
M  V30 25 H -2.269450 -2.858617 -0.697791 0
M  V30 26 H -1.617793 -1.212746 -0.950501 0
M  V30 27 H -0.825879 -2.710951 -1.713195 0
M  V30 28 H 1.245147 3.697146 2.402291 0
M  V30 29 H 0.454994 4.887840 1.292721 0
M  V30 30 H -0.520244 3.847222 2.391018 0
M  V30 31 H -1.680702 0.709537 -2.373912 0
M  V30 32 H -0.026948 0.895849 -3.208116 0
M  V30 33 H -1.177883 2.288067 -2.971406 0
M  V30 34 H 2.917408 -0.232102 1.327996 0
M  V30 35 H 3.106791 -1.221215 2.772835 0
M  V30 36 H 3.717973 -1.885531 1.237099 0
M  V30 37 H 1.812506 -3.032705 3.332529 0
M  V30 END ATOM
M  V30 BEGIN BOND
M  V30 1 1 1 2
M  V30 2 2 2 3
M  V30 3 1 3 4
M  V30 4 1 4 5
M  V30 5 2 4 6
M  V30 6 1 6 7
M  V30 7 2 7 8
M  V30 8 2 7 9
M  V30 9 1 7 10
M  V30 10 1 10 11
M  V30 11 2 11 12
M  V30 12 1 12 13
M  V30 13 1 12 14
M  V30 14 1 14 15
M  V30 15 2 14 16
M  V30 16 1 16 17
M  V30 17 1 6 18
M  V30 18 1 18 19
M  V30 19 2 18 20
M  V30 20 1 20 2
M  V30 21 1 16 10
M  V30 22 1 1 21
M  V30 23 1 1 22
M  V30 24 1 1 23
M  V30 25 1 3 24
M  V30 26 1 5 25
M  V30 27 1 5 26
M  V30 28 1 5 27
M  V30 29 1 13 28
M  V30 30 1 13 29
M  V30 31 1 13 30
M  V30 32 1 17 31
M  V30 33 1 17 32
M  V30 34 1 17 33
M  V30 35 1 19 34
M  V30 36 1 19 35
M  V30 37 1 19 36
M  V30 38 1 20 37
M  V30 END BOND
M  V30 END CTAB
M  END
>  <Dataset>  (459) 
ChEMBL_Kinases

>  <Ligand_Instance>  (459) 
nan

>  <PDB_ID>  (459) 
nan

>  <Standardized_SMILES>  (459) 
Cc1cc(C)c(S(=O)(=O)n2nc(C)c(Br)c2C)c(C)c1

>  <Name>  (459) 
nan

>  <Pocket>  (459) 
nan

>  <ATP_Site>  (459) 
nan

>  <Peripheral>  (459) 
nan

>  <Num_H_Atoms_ProtBoundConf>  (459) 
nan

>  <Num_Resolved_Atoms>  (459) 
nan

>  <Num_Not_Resolved_Atoms>  (459) 
nan

$$$$
CHEMBL1330619
     RDKit          3D

  0  0  0  0  0  0  0  0  0  0999 V3000
M  V30 BEGIN CTAB
M  V30 COUNTS 59 62 0 0 0
M  V30 BEGIN ATOM
M  V30 1 C -0.035482 -3.833961 4.356638 0
M  V30 2 O 0.628312 -3.515997 3.143344 0
M  V30 3 C 1.414352 -2.394327 2.998702 0
M  V30 4 C 1.626620 -1.482695 4.016610 0
M  V30 5 C 2.425709 -0.414594 3.737369 0
M  V30 6 C 2.982173 -0.268873 2.503169 0
M  V30 7 C 2.790611 -1.170050 1.448048 0
M  V30 8 C 3.465447 -0.848479 0.182386 0
M  V30 9 N 2.611457 -0.289893 -0.836577 0
M  V30 10 C 1.952783 0.907084 -0.377002 0
M  V30 11 N 2.535357 2.106612 -0.183787 0
M  V30 12 C 1.563292 2.959526 0.245764 0
M  V30 13 C 1.628782 4.291549 0.584964 0
M  V30 14 C 0.463800 4.935703 1.001880 0
M  V30 15 C -0.710824 4.225549 1.061952 0
M  V30 16 C -0.767150 2.895609 0.721154 0
M  V30 17 C 0.383190 2.259892 0.309472 0
M  V30 18 N 0.624215 0.987191 -0.076864 0
M  V30 19 C -0.410259 -0.029295 -0.135874 0
M  V30 20 C -1.102721 -0.063626 -1.483457 0
M  V30 21 N -2.105574 -1.030089 -1.610930 0
M  V30 22 C -3.302940 -0.907098 -0.867963 0
M  V30 23 C -3.681843 -2.274614 -0.313592 0
M  V30 24 C -3.755110 -3.231327 -1.469010 0
M  V30 25 C -3.470664 -2.584572 -2.791016 0
M  V30 26 C -2.199699 -1.771848 -2.821626 0
M  V30 27 C 1.979744 -2.235357 1.764354 0
M  V30 28 O 1.784616 -3.137764 0.716606 0
M  V30 29 C 2.680445 -4.214875 0.586836 0
M  V30 30 H -0.544267 -2.972617 4.806610 0
M  V30 31 H -0.799226 -4.625380 4.142177 0
M  V30 32 H 0.689896 -4.267935 5.064008 0
M  V30 33 H 1.131529 -1.703882 4.954329 0
M  V30 34 H 2.590175 0.295638 4.537376 0
M  V30 35 H 3.604238 0.617060 2.383240 0
M  V30 36 H 3.909921 -1.780462 -0.239175 0
M  V30 37 H 4.342654 -0.175582 0.375224 0
M  V30 38 H 2.338861 -0.508474 -1.804944 0
M  V30 39 H 2.526491 4.895683 0.555277 0
M  V30 40 H 0.442929 5.995309 1.285133 0
M  V30 41 H -1.607403 4.747852 1.388214 0
M  V30 42 H -1.704985 2.330457 0.770272 0
M  V30 43 H -1.184295 0.190867 0.631844 0
M  V30 44 H 0.027062 -1.004838 0.069404 0
M  V30 45 H -0.316396 -0.273512 -2.235855 0
M  V30 46 H -1.503246 0.957512 -1.744652 0
M  V30 47 H -3.255333 -0.120730 -0.110563 0
M  V30 48 H -4.115235 -0.604414 -1.567121 0
M  V30 49 H -4.644987 -2.213497 0.250899 0
M  V30 50 H -2.918957 -2.644603 0.399032 0
M  V30 51 H -4.809129 -3.644127 -1.466955 0
M  V30 52 H -3.056254 -4.071780 -1.273516 0
M  V30 53 H -4.329471 -1.980014 -3.103413 0
M  V30 54 H -3.364693 -3.422107 -3.527310 0
M  V30 55 H -2.345084 -1.021389 -3.655654 0
M  V30 56 H -1.311371 -2.358456 -3.063492 0
M  V30 57 H 2.390513 -5.078096 1.248254 0
M  V30 58 H 2.816431 -4.567339 -0.453996 0
M  V30 59 H 3.669863 -3.875458 0.983353 0
M  V30 END ATOM
M  V30 BEGIN BOND
M  V30 1 1 1 2
M  V30 2 1 2 3
M  V30 3 2 3 4
M  V30 4 1 4 5
M  V30 5 2 5 6
M  V30 6 1 6 7
M  V30 7 1 7 8
M  V30 8 1 8 9
M  V30 9 1 9 10
M  V30 10 2 10 11
M  V30 11 1 11 12
M  V30 12 2 12 13
M  V30 13 1 13 14
M  V30 14 2 14 15
M  V30 15 1 15 16
M  V30 16 2 16 17
M  V30 17 1 17 18
M  V30 18 1 18 19
M  V30 19 1 19 20
M  V30 20 1 20 21
M  V30 21 1 21 22
M  V30 22 1 22 23
M  V30 23 1 23 24
M  V30 24 1 24 25
M  V30 25 1 25 26
M  V30 26 2 7 27
M  V30 27 1 27 28
M  V30 28 1 28 29
M  V30 29 1 27 3
M  V30 30 1 18 10
M  V30 31 1 26 21
M  V30 32 1 17 12
M  V30 33 1 1 30
M  V30 34 1 1 31
M  V30 35 1 1 32
M  V30 36 1 4 33
M  V30 37 1 5 34
M  V30 38 1 6 35
M  V30 39 1 8 36
M  V30 40 1 8 37
M  V30 41 1 9 38
M  V30 42 1 13 39
M  V30 43 1 14 40
M  V30 44 1 15 41
M  V30 45 1 16 42
M  V30 46 1 19 43
M  V30 47 1 19 44
M  V30 48 1 20 45
M  V30 49 1 20 46
M  V30 50 1 22 47
M  V30 51 1 22 48
M  V30 52 1 23 49
M  V30 53 1 23 50
M  V30 54 1 24 51
M  V30 55 1 24 52
M  V30 56 1 25 53
M  V30 57 1 25 54
M  V30 58 1 26 55
M  V30 59 1 26 56
M  V30 60 1 29 57
M  V30 61 1 29 58
M  V30 62 1 29 59
M  V30 END BOND
M  V30 END CTAB
M  END
>  <Dataset>  (460) 
ChEMBL_Kinases

>  <Ligand_Instance>  (460) 
nan

>  <PDB_ID>  (460) 
nan

>  <Standardized_SMILES>  (460) 
COc1cccc(CNc2nc3ccccc3n2CCN2CCCCC2)c1OC

>  <Name>  (460) 
nan

>  <Pocket>  (460) 
nan

>  <ATP_Site>  (460) 
nan

>  <Peripheral>  (460) 
nan

>  <Num_H_Atoms_ProtBoundConf>  (460) 
nan

>  <Num_Resolved_Atoms>  (460) 
nan

>  <Num_Not_Resolved_Atoms>  (460) 
nan

$$$$
CHEMBL1330613
     RDKit          3D

  0  0  0  0  0  0  0  0  0  0999 V3000
M  V30 BEGIN CTAB
M  V30 COUNTS 19 18 0 0 0
M  V30 BEGIN ATOM
M  V30 1 N -1.966090 -0.632700 2.039539 0
M  V30 2 C -0.536842 -0.549814 2.028585 0
M  V30 3 O 0.120775 -1.526812 2.435586 0
M  V30 4 N 0.073674 0.638027 1.556143 0
M  V30 5 C 1.491332 0.824895 1.502314 0
M  V30 6 C 2.087679 -0.244177 0.591113 0
M  V30 7 N 3.518021 -0.029926 0.555679 0
M  V30 8 C 1.495275 -0.153023 -0.768152 0
M  V30 9 O 2.011565 0.070122 -1.892769 0
M  V30 10 O 0.116794 -0.341854 -0.871261 0
M  V30 11 H -2.517250 -0.909818 1.182746 0
M  V30 12 H -2.577125 -0.428445 2.886068 0
M  V30 13 H -0.564144 1.420758 1.228707 0
M  V30 14 H 1.743670 1.832723 1.126078 0
M  V30 15 H 1.924651 0.700701 2.519933 0
M  V30 16 H 1.948398 -1.252658 1.015585 0
M  V30 17 H 3.815739 0.830023 1.058605 0
M  V30 18 H 3.928960 -0.156537 -0.387458 0
M  V30 19 H -0.316582 -0.799857 -1.676112 0
M  V30 END ATOM
M  V30 BEGIN BOND
M  V30 1 1 1 2
M  V30 2 2 2 3
M  V30 3 1 2 4
M  V30 4 1 4 5
M  V30 5 1 5 6
M  V30 6 1 6 7
M  V30 7 1 6 8
M  V30 8 2 8 9
M  V30 9 1 8 10
M  V30 10 1 1 11
M  V30 11 1 1 12
M  V30 12 1 4 13
M  V30 13 1 5 14
M  V30 14 1 5 15
M  V30 15 1 6 16
M  V30 16 1 7 17
M  V30 17 1 7 18
M  V30 18 1 10 19
M  V30 END BOND
M  V30 END CTAB
M  END
>  <Dataset>  (461) 
ChEMBL_Kinases

>  <Ligand_Instance>  (461) 
nan

>  <PDB_ID>  (461) 
nan

>  <Standardized_SMILES>  (461) 
NC(=O)NCC(N)C(=O)O

>  <Name>  (461) 
ALBIZZIINE

>  <Pocket>  (461) 
nan

>  <ATP_Site>  (461) 
nan

>  <Peripheral>  (461) 
nan

>  <Num_H_Atoms_ProtBoundConf>  (461) 
nan

>  <Num_Resolved_Atoms>  (461) 
nan

>  <Num_Not_Resolved_Atoms>  (461) 
nan

$$$$
CHEMBL13306
     RDKit          3D

  0  0  0  0  0  0  0  0  0  0999 V3000
M  V30 BEGIN CTAB
M  V30 COUNTS 62 62 0 0 0
M  V30 BEGIN ATOM
M  V30 1 C 4.047897 -5.789634 2.487596 0
M  V30 2 C 2.837207 -5.081763 1.946647 0
M  V30 3 C 2.665653 -3.768419 2.680483 0
M  V30 4 C 3.881000 -2.895834 2.486054 0
M  V30 5 C 3.776816 -1.568248 3.186970 0
M  V30 6 C 2.619281 -0.718872 2.718603 0
M  V30 7 C 2.789862 -0.437921 1.264759 0
M  V30 8 C 1.748379 0.400551 0.626933 0
M  V30 9 C 0.354616 -0.097549 0.643969 0
M  V30 10 C 0.122693 -1.413932 -0.049915 0
M  V30 11 C 0.483685 -1.371820 -1.508190 0
M  V30 12 C -0.279921 -0.376225 -2.304325 0
M  V30 13 C -1.793798 -0.643610 -2.266479 0
M  V30 14 C -2.390796 0.392828 -3.074801 0
M  V30 15 C -3.229483 1.150805 -2.453935 0
M  V30 16 C -3.870524 2.231620 -3.241116 0
M  V30 17 O -3.897184 2.480563 -4.494198 0
M  V30 18 O -4.544061 3.077945 -2.337826 0
M  V30 19 C -3.931875 2.829311 -1.084198 0 CFG=1
M  V30 20 C -4.797428 3.258158 0.069730 0
M  V30 21 O -5.007188 4.631268 -0.090663 0
M  V30 22 C -3.788684 1.302104 -1.149052 0 CFG=2
M  V30 23 O -3.232315 0.837905 -0.012233 0
M  V30 24 C -3.880895 0.052606 0.944505 0
M  V30 25 C -3.273333 -0.464191 2.202987 0
M  V30 26 O -5.082928 -0.189096 0.629571 0
M  V30 27 H 3.843525 -6.875102 2.591176 0
M  V30 28 H 4.909805 -5.694511 1.798311 0
M  V30 29 H 4.279823 -5.376084 3.497267 0
M  V30 30 H 1.967368 -5.738746 2.054205 0
M  V30 31 H 3.028660 -4.884050 0.854870 0
M  V30 32 H 2.532217 -4.039623 3.754021 0
M  V30 33 H 1.783892 -3.261617 2.262084 0
M  V30 34 H 4.718314 -3.439251 3.013831 0
M  V30 35 H 4.198576 -2.837010 1.443039 0
M  V30 36 H 4.755972 -1.058177 3.020628 0
M  V30 37 H 3.729575 -1.773217 4.276782 0
M  V30 38 H 2.689401 0.232368 3.267839 0
M  V30 39 H 1.697411 -1.282525 2.962848 0
M  V30 40 H 3.754723 0.118681 1.169724 0
M  V30 41 H 2.989523 -1.384220 0.681162 0
M  V30 42 H 1.748296 1.395323 1.143862 0
M  V30 43 H 2.084015 0.624013 -0.408042 0
M  V30 44 H -0.282632 0.684228 0.166388 0
M  V30 45 H 0.021105 -0.123168 1.701554 0
M  V30 46 H -0.911765 -1.725397 0.164453 0
M  V30 47 H 0.770640 -2.196546 0.393415 0
M  V30 48 H 0.320042 -2.388126 -1.920658 0
M  V30 49 H 1.542619 -1.143526 -1.594977 0
M  V30 50 H 0.022707 -0.521387 -3.369326 0
M  V30 51 H -0.052661 0.660775 -2.064851 0
M  V30 52 H -2.046653 -0.760547 -1.236693 0
M  V30 53 H -2.003448 -1.617942 -2.764351 0
M  V30 54 H -2.077131 0.426997 -4.106270 0
M  V30 55 H -2.919210 3.236950 -1.045442 0
M  V30 56 H -4.252624 3.085526 0.999132 0
M  V30 57 H -5.766656 2.763100 0.002399 0
M  V30 58 H -4.911161 5.134325 0.755069 0
M  V30 59 H -4.861093 0.946475 -1.189059 0
M  V30 60 H -4.121070 -0.747847 2.857220 0
M  V30 61 H -2.656195 -1.377729 2.001887 0
M  V30 62 H -2.653768 0.286798 2.728334 0
M  V30 END ATOM
M  V30 BEGIN BOND
M  V30 1 1 1 2
M  V30 2 1 2 3
M  V30 3 1 3 4
M  V30 4 1 4 5
M  V30 5 1 5 6
M  V30 6 1 6 7
M  V30 7 1 7 8
M  V30 8 1 8 9
M  V30 9 1 9 10
M  V30 10 1 10 11
M  V30 11 1 11 12
M  V30 12 1 12 13
M  V30 13 1 13 14
M  V30 14 2 14 15
M  V30 15 1 15 16
M  V30 16 2 16 17
M  V30 17 1 16 18
M  V30 18 1 18 19
M  V30 19 1 19 20
M  V30 20 1 20 21
M  V30 21 1 19 22
M  V30 22 1 22 23
M  V30 23 1 23 24
M  V30 24 1 24 25
M  V30 25 2 24 26
M  V30 26 1 22 15
M  V30 27 1 1 27
M  V30 28 1 1 28
M  V30 29 1 1 29
M  V30 30 1 2 30
M  V30 31 1 2 31
M  V30 32 1 3 32
M  V30 33 1 3 33
M  V30 34 1 4 34
M  V30 35 1 4 35
M  V30 36 1 5 36
M  V30 37 1 5 37
M  V30 38 1 6 38
M  V30 39 1 6 39
M  V30 40 1 7 40
M  V30 41 1 7 41
M  V30 42 1 8 42
M  V30 43 1 8 43
M  V30 44 1 9 44
M  V30 45 1 9 45
M  V30 46 1 10 46
M  V30 47 1 10 47
M  V30 48 1 11 48
M  V30 49 1 11 49
M  V30 50 1 12 50
M  V30 51 1 12 51
M  V30 52 1 13 52
M  V30 53 1 13 53
M  V30 54 1 14 54
M  V30 55 1 19 55 CFG=3
M  V30 56 1 20 56
M  V30 57 1 20 57
M  V30 58 1 21 58
M  V30 59 1 22 59 CFG=3
M  V30 60 1 25 60
M  V30 61 1 25 61
M  V30 62 1 25 62
M  V30 END BOND
M  V30 END CTAB
M  END
>  <Dataset>  (462) 
ChEMBL_Kinases

>  <Ligand_Instance>  (462) 
nan

>  <PDB_ID>  (462) 
nan

>  <Standardized_SMILES>  (462) 
CCCCCCCCCCCCC/C=C1/C(=O)O[C@@H](CO)[C@@H]1OC(C)=O

>  <Name>  (462) 
nan

>  <Pocket>  (462) 
nan

>  <ATP_Site>  (462) 
nan

>  <Peripheral>  (462) 
nan

>  <Num_H_Atoms_ProtBoundConf>  (462) 
nan

>  <Num_Resolved_Atoms>  (462) 
nan

>  <Num_Not_Resolved_Atoms>  (462) 
nan

$$$$
CHEMBL1330599
     RDKit          3D

  0  0  0  0  0  0  0  0  0  0999 V3000
M  V30 BEGIN CTAB
M  V30 COUNTS 44 47 0 0 0
M  V30 BEGIN ATOM
M  V30 1 O 1.210474 -4.290639 3.477018 0
M  V30 2 C 1.108485 -4.103464 2.232837 0
M  V30 3 C 2.072312 -4.861776 1.407637 0
M  V30 4 C 2.143887 -4.759137 0.079344 0
M  V30 5 C 1.199832 -3.826173 -0.628508 0 CFG=1
M  V30 6 O -0.045045 -4.488260 -0.682433 0
M  V30 7 C 0.999010 -2.666327 0.328013 0 CFG=1
M  V30 8 C 0.293619 -1.575164 -0.387675 0 CFG=2
M  V30 9 C 0.824858 -0.208103 -0.044403 0
M  V30 10 O 1.951556 -0.009748 0.472946 0
M  V30 11 N -0.205344 0.701722 -0.432335 0
M  V30 12 C 0.052258 2.113781 -0.623725 0
M  V30 13 C -0.144410 2.906643 0.648244 0 CFG=2
M  V30 14 C 0.045642 4.368460 0.395522 0
M  V30 15 C 1.271417 4.674809 1.253964 0
M  V30 16 C 1.086845 3.644547 2.355510 0
M  V30 17 O 0.675468 2.509101 1.667318 0
M  V30 18 C -1.420681 -0.030931 -0.572294 0
M  V30 19 O -2.477260 0.445788 -1.098900 0
M  V30 20 C -1.159124 -1.396341 0.011626 0 CFG=2
M  V30 21 C -1.322498 -1.300574 1.489677 0
M  V30 22 C -0.442994 -2.172145 2.309611 0
M  V30 23 C 0.179865 -3.248209 1.475877 0 CFG=2
M  V30 24 H 2.781427 -5.553797 1.869441 0
M  V30 25 H 2.874909 -5.344143 -0.467981 0
M  V30 26 H 1.573735 -3.526712 -1.606525 0
M  V30 27 H 0.003657 -5.403880 -0.332604 0
M  V30 28 H 2.002327 -2.367801 0.710120 0
M  V30 29 H 0.354851 -1.656430 -1.490065 0
M  V30 30 H 1.056753 2.324898 -1.004054 0
M  V30 31 H -0.649783 2.499500 -1.391461 0
M  V30 32 H -1.197980 2.759605 1.006670 0
M  V30 33 H 0.320921 4.597862 -0.659219 0
M  V30 34 H -0.759333 5.016198 0.774459 0
M  V30 35 H 1.280275 5.715558 1.630039 0
M  V30 36 H 2.192446 4.516759 0.665476 0
M  V30 37 H 2.012591 3.399414 2.889172 0
M  V30 38 H 0.268340 4.030948 3.008592 0
M  V30 39 H -1.816456 -2.154495 -0.456843 0
M  V30 40 H -1.128157 -0.244726 1.808134 0
M  V30 41 H -2.388689 -1.510086 1.739968 0
M  V30 42 H 0.361520 -1.601421 2.852599 0
M  V30 43 H -1.013757 -2.682615 3.112653 0
M  V30 44 H -0.629881 -3.913316 1.084147 0
M  V30 END ATOM
M  V30 BEGIN BOND
M  V30 1 2 1 2
M  V30 2 1 2 3
M  V30 3 2 3 4
M  V30 4 1 4 5
M  V30 5 1 5 6
M  V30 6 1 5 7
M  V30 7 1 7 8
M  V30 8 1 8 9
M  V30 9 2 9 10
M  V30 10 1 9 11
M  V30 11 1 11 12
M  V30 12 1 12 13
M  V30 13 1 13 14
M  V30 14 1 14 15
M  V30 15 1 15 16
M  V30 16 1 16 17
M  V30 17 1 11 18
M  V30 18 2 18 19
M  V30 19 1 18 20
M  V30 20 1 20 21
M  V30 21 1 21 22
M  V30 22 1 22 23
M  V30 23 1 23 2
M  V30 24 1 23 7
M  V30 25 1 20 8
M  V30 26 1 17 13
M  V30 27 1 3 24
M  V30 28 1 4 25
M  V30 29 1 5 26 CFG=3
M  V30 30 1 6 27
M  V30 31 1 7 28 CFG=1
M  V30 32 1 8 29 CFG=3
M  V30 33 1 12 30
M  V30 34 1 12 31
M  V30 35 1 13 32 CFG=1
M  V30 36 1 14 33
M  V30 37 1 14 34
M  V30 38 1 15 35
M  V30 39 1 15 36
M  V30 40 1 16 37
M  V30 41 1 16 38
M  V30 42 1 20 39 CFG=3
M  V30 43 1 21 40
M  V30 44 1 21 41
M  V30 45 1 22 42
M  V30 46 1 22 43
M  V30 47 1 23 44 CFG=3
M  V30 END BOND
M  V30 END CTAB
M  END
>  <Dataset>  (463) 
ChEMBL_Kinases

>  <Ligand_Instance>  (463) 
nan

>  <PDB_ID>  (463) 
nan

>  <Standardized_SMILES>  (463) 
O=C1C=C[C@@H](O)[C@H]2[C@@H]3C(=O)N(C[C@@H]4CCCO4)C(=O)[C@@H]3CC[C@H]12

>  <Name>  (463) 
nan

>  <Pocket>  (463) 
nan

>  <ATP_Site>  (463) 
nan

>  <Peripheral>  (463) 
nan

>  <Num_H_Atoms_ProtBoundConf>  (463) 
nan

>  <Num_Resolved_Atoms>  (463) 
nan

>  <Num_Not_Resolved_Atoms>  (463) 
nan

$$$$
CHEMBL1330585
     RDKit          3D

  0  0  0  0  0  0  0  0  0  0999 V3000
M  V30 BEGIN CTAB
M  V30 COUNTS 53 56 0 0 0
M  V30 BEGIN ATOM
M  V30 1 O -0.769154 -3.968288 5.052260 0
M  V30 2 C -0.595603 -3.488625 3.877646 0
M  V30 3 C 0.848781 -3.250797 3.494830 0
M  V30 4 C 0.671537 -2.086433 2.557517 0
M  V30 5 N 1.763777 -1.882512 1.675645 0
M  V30 6 C 1.899495 -0.823414 0.737337 0
M  V30 7 C 3.009441 -0.739229 -0.081050 0
M  V30 8 C 3.131347 0.299222 -0.982200 0
M  V30 9 C 2.184252 1.288473 -1.120465 0
M  V30 10 N 2.361026 2.331765 -2.065080 0
M  V30 11 C 3.441790 2.406313 -3.002391 0
M  V30 12 C 4.238995 3.670157 -2.651096 0
M  V30 13 O 3.401430 4.749432 -2.777449 0
M  V30 14 C 2.341156 4.702475 -1.872034 0
M  V30 15 C 1.488393 3.476274 -2.220949 0
M  V30 16 C 1.097322 1.165580 -0.287275 0
M  V30 17 C 0.923006 0.148320 0.632966 0
M  V30 18 C -0.583948 -2.496505 1.867146 0
M  V30 19 O -0.898625 -2.370479 0.675531 0
M  V30 20 N -1.475819 -3.103718 2.784765 0
M  V30 21 C -2.905572 -3.392617 2.906624 0
M  V30 22 C -3.383741 -4.451377 1.997214 0
M  V30 23 C -3.920382 -3.988293 0.704058 0
M  V30 24 C -5.050137 -2.994885 0.969975 0
M  V30 25 C -4.485917 -1.799444 1.716153 0
M  V30 26 C -3.777934 -2.212616 2.965120 0
M  V30 27 H 1.275388 -4.108035 2.971287 0
M  V30 28 H 1.466447 -2.928553 4.336238 0
M  V30 29 H 0.441056 -1.179651 3.147581 0
M  V30 30 H 2.535372 -2.596052 1.739802 0
M  V30 31 H 3.737083 -1.521800 0.042860 0
M  V30 32 H 4.045546 0.235231 -1.548225 0
M  V30 33 H 4.099028 1.527934 -3.053714 0
M  V30 34 H 2.985067 2.626764 -4.013809 0
M  V30 35 H 5.129228 3.793646 -3.266785 0
M  V30 36 H 4.499395 3.531688 -1.563258 0
M  V30 37 H 2.639121 4.636408 -0.824752 0
M  V30 38 H 1.693708 5.562235 -2.015923 0
M  V30 39 H 0.652622 3.429744 -1.506985 0
M  V30 40 H 1.094302 3.557854 -3.255853 0
M  V30 41 H 0.295586 1.886037 -0.314373 0
M  V30 42 H 0.022315 0.124662 1.267737 0
M  V30 43 H -3.020478 -3.885237 3.956903 0
M  V30 44 H -2.653659 -5.300446 1.890236 0
M  V30 45 H -4.259688 -4.972430 2.519253 0
M  V30 46 H -4.417689 -4.876028 0.214600 0
M  V30 47 H -3.175387 -3.541584 0.041319 0
M  V30 48 H -5.521297 -2.627192 0.055908 0
M  V30 49 H -5.810192 -3.494448 1.597710 0
M  V30 50 H -3.877184 -1.213023 1.004905 0
M  V30 51 H -5.352303 -1.169382 2.002279 0
M  V30 52 H -3.291081 -1.294399 3.369468 0
M  V30 53 H -4.601160 -2.406701 3.718396 0
M  V30 END ATOM
M  V30 BEGIN BOND
M  V30 1 2 1 2
M  V30 2 1 2 3
M  V30 3 1 3 4
M  V30 4 1 4 5
M  V30 5 1 5 6
M  V30 6 2 6 7
M  V30 7 1 7 8
M  V30 8 2 8 9
M  V30 9 1 9 10
M  V30 10 1 10 11
M  V30 11 1 11 12
M  V30 12 1 12 13
M  V30 13 1 13 14
M  V30 14 1 14 15
M  V30 15 1 9 16
M  V30 16 2 16 17
M  V30 17 1 4 18
M  V30 18 2 18 19
M  V30 19 1 18 20
M  V30 20 1 20 21
M  V30 21 1 21 22
M  V30 22 1 22 23
M  V30 23 1 23 24
M  V30 24 1 24 25
M  V30 25 1 25 26
M  V30 26 1 20 2
M  V30 27 1 26 21
M  V30 28 1 17 6
M  V30 29 1 15 10
M  V30 30 1 3 27
M  V30 31 1 3 28
M  V30 32 1 4 29
M  V30 33 1 5 30
M  V30 34 1 7 31
M  V30 35 1 8 32
M  V30 36 1 11 33
M  V30 37 1 11 34
M  V30 38 1 12 35
M  V30 39 1 12 36
M  V30 40 1 14 37
M  V30 41 1 14 38
M  V30 42 1 15 39
M  V30 43 1 15 40
M  V30 44 1 16 41
M  V30 45 1 17 42
M  V30 46 1 21 43
M  V30 47 1 22 44
M  V30 48 1 22 45
M  V30 49 1 23 46
M  V30 50 1 23 47
M  V30 51 1 24 48
M  V30 52 1 24 49
M  V30 53 1 25 50
M  V30 54 1 25 51
M  V30 55 1 26 52
M  V30 56 1 26 53
M  V30 END BOND
M  V30 END CTAB
M  END
>  <Dataset>  (464) 
ChEMBL_Kinases

>  <Ligand_Instance>  (464) 
nan

>  <PDB_ID>  (464) 
nan

>  <Standardized_SMILES>  (464) 
O=C1CC(Nc2ccc(N3CCOCC3)cc2)C(=O)N1C1CCCCC1

>  <Name>  (464) 
nan

>  <Pocket>  (464) 
nan

>  <ATP_Site>  (464) 
nan

>  <Peripheral>  (464) 
nan

>  <Num_H_Atoms_ProtBoundConf>  (464) 
nan

>  <Num_Resolved_Atoms>  (464) 
nan

>  <Num_Not_Resolved_Atoms>  (464) 
nan

$$$$
CHEMBL1330524
     RDKit          3D

  0  0  0  0  0  0  0  0  0  0999 V3000
M  V30 BEGIN CTAB
M  V30 COUNTS 48 51 0 0 0
M  V30 BEGIN ATOM
M  V30 1 O 0.686106 1.572812 1.370232 0
M  V30 2 C 0.749158 0.951146 2.460394 0
M  V30 3 N 1.969599 0.698555 3.086213 0
M  V30 4 C 3.128846 1.215157 2.365464 0
M  V30 5 N 3.194245 1.830614 1.305390 0
M  V30 6 C 4.340086 2.238632 0.771002 0
M  V30 7 C 4.567543 2.932516 -0.400809 0
M  V30 8 C 5.857547 3.253300 -0.761643 0
M  V30 9 C 6.997132 2.943810 -0.049456 0
M  V30 10 C 6.846992 2.251848 1.130817 0
M  V30 11 C 5.540376 1.927960 1.494466 0
M  V30 12 S 4.814489 1.011122 2.977646 0
M  V30 13 C -0.439027 0.416121 3.208398 0
M  V30 14 C -1.660252 0.768792 2.401609 0
M  V30 15 C -1.731844 -0.050504 1.116733 0
M  V30 16 N -1.444727 -1.390720 1.295630 0
M  V30 17 S -1.235269 -2.460601 0.049861 0
M  V30 18 O -0.071018 -1.964126 -0.824629 0
M  V30 19 O -0.782138 -3.836127 0.512165 0
M  V30 20 C -2.630739 -2.665980 -0.964748 0
M  V30 21 C -3.325565 -3.883343 -0.872209 0
M  V30 22 C -4.464913 -4.228978 -1.550848 0
M  V30 23 N -5.084765 -5.495484 -1.377415 0 CHG=1 VAL=4
M  V30 24 O -4.573765 -6.319819 -0.580351 0
M  V30 25 O -6.228129 -5.783009 -2.088237 0 CHG=-1 VAL=1
M  V30 26 C -5.000892 -3.303672 -2.417459 0
M  V30 27 C -4.375722 -2.091178 -2.560786 0
M  V30 28 C -3.237232 -1.811973 -1.850336 0
M  V30 29 Cl -2.451722 -0.286786 -2.108592 0
M  V30 30 C -1.258928 -1.879740 2.620359 0
M  V30 31 C -0.330060 -1.061928 3.467621 0
M  V30 32 H 2.125863 0.201226 3.974737 0
M  V30 33 H 3.741610 3.225145 -1.035761 0
M  V30 34 H 6.014002 3.807940 -1.702257 0
M  V30 35 H 8.001975 3.170090 -0.289539 0
M  V30 36 H 7.585090 1.919858 1.820777 0
M  V30 37 H -0.488966 0.994740 4.150146 0
M  V30 38 H -2.591466 0.652040 2.982395 0
M  V30 39 H -1.586254 1.827911 2.089474 0
M  V30 40 H -1.073908 0.410531 0.369928 0
M  V30 41 H -2.779923 0.069851 0.776126 0
M  V30 42 H -2.947908 -4.650589 -0.203574 0
M  V30 43 H -5.888830 -3.477102 -2.993829 0
M  V30 44 H -4.769871 -1.348179 -3.229560 0
M  V30 45 H -0.836439 -2.904592 2.554549 0
M  V30 46 H -2.256782 -1.979861 3.095595 0
M  V30 47 H -0.608074 -1.227319 4.529386 0
M  V30 48 H 0.738497 -1.357318 3.379649 0
M  V30 END ATOM
M  V30 BEGIN BOND
M  V30 1 2 1 2
M  V30 2 1 2 3
M  V30 3 1 3 4
M  V30 4 2 4 5
M  V30 5 1 5 6
M  V30 6 2 6 7
M  V30 7 1 7 8
M  V30 8 2 8 9
M  V30 9 1 9 10
M  V30 10 2 10 11
M  V30 11 1 11 12
M  V30 12 1 2 13
M  V30 13 1 13 14
M  V30 14 1 14 15
M  V30 15 1 15 16
M  V30 16 1 16 17
M  V30 17 2 17 18
M  V30 18 2 17 19
M  V30 19 1 17 20
M  V30 20 2 20 21
M  V30 21 1 21 22
M  V30 22 1 22 23
M  V30 23 2 23 24
M  V30 24 1 23 25
M  V30 25 2 22 26
M  V30 26 1 26 27
M  V30 27 2 27 28
M  V30 28 1 28 29
M  V30 29 1 16 30
M  V30 30 1 30 31
M  V30 31 1 12 4
M  V30 32 1 31 13
M  V30 33 1 11 6
M  V30 34 1 28 20
M  V30 35 1 3 32
M  V30 36 1 7 33
M  V30 37 1 8 34
M  V30 38 1 9 35
M  V30 39 1 10 36
M  V30 40 1 13 37
M  V30 41 1 14 38
M  V30 42 1 14 39
M  V30 43 1 15 40
M  V30 44 1 15 41
M  V30 45 1 21 42
M  V30 46 1 26 43
M  V30 47 1 27 44
M  V30 48 1 30 45
M  V30 49 1 30 46
M  V30 50 1 31 47
M  V30 51 1 31 48
M  V30 END BOND
M  V30 END CTAB
M  END
>  <Dataset>  (465) 
ChEMBL_Kinases

>  <Ligand_Instance>  (465) 
nan

>  <PDB_ID>  (465) 
nan

>  <Standardized_SMILES>  (465) 
O=C(Nc1nc2ccccc2s1)C1CCN(S(=O)(=O)c2cc([N+](=O)[O-])ccc2Cl)CC1

>  <Name>  (465) 
nan

>  <Pocket>  (465) 
nan

>  <ATP_Site>  (465) 
nan

>  <Peripheral>  (465) 
nan

>  <Num_H_Atoms_ProtBoundConf>  (465) 
nan

>  <Num_Resolved_Atoms>  (465) 
nan

>  <Num_Not_Resolved_Atoms>  (465) 
nan

$$$$
CHEMBL1330523
     RDKit          3D

  0  0  0  0  0  0  0  0  0  0999 V3000
M  V30 BEGIN CTAB
M  V30 COUNTS 57 60 0 0 0
M  V30 BEGIN ATOM
M  V30 1 C 1.492211 -3.325229 4.356893 0
M  V30 2 C 2.577697 -3.295412 3.306203 0
M  V30 3 N 2.060546 -3.330076 1.954489 0
M  V30 4 C 1.743882 -2.257982 1.166344 0
M  V30 5 S 1.997284 -0.640372 1.937566 0
M  V30 6 C 0.438447 -0.146593 2.758690 0
M  V30 7 C -0.632012 0.193437 1.774569 0
M  V30 8 O -1.678701 0.184483 2.535138 0
M  V30 9 N -0.868926 0.504130 0.365232 0
M  V30 10 C 0.219408 0.677545 -0.542079 0
M  V30 11 C 0.560682 2.135061 -0.609148 0
M  V30 12 C 0.151337 3.004086 -1.596213 0
M  V30 13 C 0.429045 4.345594 -1.671133 0
M  V30 14 C 1.195694 4.890060 -0.660709 0
M  V30 15 C 1.650861 4.092052 0.370453 0
M  V30 16 C 1.320163 2.754437 0.359986 0
M  V30 17 C -2.234727 0.561848 0.035229 0
M  V30 18 C -2.704109 -0.418571 -1.020236 0
M  V30 19 C -4.224904 -0.400448 -0.861707 0
M  V30 20 S -4.516243 1.346045 -0.536887 0
M  V30 21 O -5.080870 1.508336 0.825111 0
M  V30 22 O -5.273817 2.007492 -1.617427 0
M  V30 23 C -2.772411 1.853054 -0.526591 0
M  V30 24 N 1.285580 -2.540391 -0.046803 0
M  V30 25 C 1.105111 -3.743366 -0.567239 0
M  V30 26 C 0.612840 -3.788042 -1.853333 0
M  V30 27 C 0.414523 -5.041779 -2.414743 0
M  V30 28 C 0.715273 -6.180104 -1.670872 0
M  V30 29 C 1.211559 -6.070050 -0.371623 0
M  V30 30 C 1.416566 -4.833037 0.206949 0
M  V30 31 C 1.891769 -4.592011 1.462408 0
M  V30 32 O 2.166617 -5.625995 2.142208 0
M  V30 33 H 1.639232 -4.222026 5.027428 0
M  V30 34 H 0.469826 -3.317668 3.947740 0
M  V30 35 H 1.617723 -2.447565 5.026830 0
M  V30 36 H 3.187105 -2.349160 3.410401 0
M  V30 37 H 3.280510 -4.140610 3.449248 0
M  V30 38 H 0.593506 0.660821 3.488774 0
M  V30 39 H 0.064727 -1.038784 3.341884 0
M  V30 40 H -0.054635 0.393162 -1.589134 0
M  V30 41 H 1.151045 0.170843 -0.255270 0
M  V30 42 H -0.440181 2.616474 -2.412801 0
M  V30 43 H 0.071457 4.956432 -2.474188 0
M  V30 44 H 1.449493 5.944888 -0.663260 0
M  V30 45 H 2.250925 4.560738 1.144392 0
M  V30 46 H 1.718238 2.216013 1.205544 0
M  V30 47 H -2.859209 0.346724 0.941399 0
M  V30 48 H -2.464107 -0.078334 -2.046924 0
M  V30 49 H -2.372488 -1.455361 -0.825325 0
M  V30 50 H -4.506493 -1.031110 -0.002882 0
M  V30 51 H -4.730219 -0.694059 -1.793583 0
M  V30 52 H -2.604288 2.738079 0.072493 0
M  V30 53 H -2.511047 1.923565 -1.601938 0
M  V30 54 H 0.389934 -2.861116 -2.403887 0
M  V30 55 H 0.029668 -5.121546 -3.422112 0
M  V30 56 H 0.564404 -7.174593 -2.100211 0
M  V30 57 H 1.456511 -6.937765 0.235745 0
M  V30 END ATOM
M  V30 BEGIN BOND
M  V30 1 1 1 2
M  V30 2 1 2 3
M  V30 3 1 3 4
M  V30 4 1 4 5
M  V30 5 1 5 6
M  V30 6 1 6 7
M  V30 7 2 7 8
M  V30 8 1 7 9
M  V30 9 1 9 10
M  V30 10 1 10 11
M  V30 11 2 11 12
M  V30 12 1 12 13
M  V30 13 2 13 14
M  V30 14 1 14 15
M  V30 15 2 15 16
M  V30 16 1 9 17
M  V30 17 1 17 18
M  V30 18 1 18 19
M  V30 19 1 19 20
M  V30 20 2 20 21
M  V30 21 2 20 22
M  V30 22 1 20 23
M  V30 23 2 4 24
M  V30 24 1 24 25
M  V30 25 2 25 26
M  V30 26 1 26 27
M  V30 27 2 27 28
M  V30 28 1 28 29
M  V30 29 2 29 30
M  V30 30 1 30 31
M  V30 31 2 31 32
M  V30 32 1 31 3
M  V30 33 1 16 11
M  V30 34 1 23 17
M  V30 35 1 30 25
M  V30 36 1 1 33
M  V30 37 1 1 34
M  V30 38 1 1 35
M  V30 39 1 2 36
M  V30 40 1 2 37
M  V30 41 1 6 38
M  V30 42 1 6 39
M  V30 43 1 10 40
M  V30 44 1 10 41
M  V30 45 1 12 42
M  V30 46 1 13 43
M  V30 47 1 14 44
M  V30 48 1 15 45
M  V30 49 1 16 46
M  V30 50 1 17 47
M  V30 51 1 18 48
M  V30 52 1 18 49
M  V30 53 1 19 50
M  V30 54 1 19 51
M  V30 55 1 23 52
M  V30 56 1 23 53
M  V30 57 1 26 54
M  V30 58 1 27 55
M  V30 59 1 28 56
M  V30 60 1 29 57
M  V30 END BOND
M  V30 END CTAB
M  END
>  <Dataset>  (466) 
ChEMBL_Kinases

>  <Ligand_Instance>  (466) 
nan

>  <PDB_ID>  (466) 
nan

>  <Standardized_SMILES>  (466) 
CCn1c(SCC(=O)N(Cc2ccccc2)C2CCS(=O)(=O)C2)nc2ccccc2c1=O

>  <Name>  (466) 
nan

>  <Pocket>  (466) 
nan

>  <ATP_Site>  (466) 
nan

>  <Peripheral>  (466) 
nan

>  <Num_H_Atoms_ProtBoundConf>  (466) 
nan

>  <Num_Resolved_Atoms>  (466) 
nan

>  <Num_Not_Resolved_Atoms>  (466) 
nan

$$$$
CHEMBL1330486
     RDKit          3D

  0  0  0  0  0  0  0  0  0  0999 V3000
M  V30 BEGIN CTAB
M  V30 COUNTS 27 27 0 0 0
M  V30 BEGIN ATOM
M  V30 1 C 1.357964 -0.118193 4.411571 0
M  V30 2 O 0.022392 -0.301116 4.023694 0
M  V30 3 C -0.349719 -0.638561 2.729721 0
M  V30 4 C 0.456900 -0.850184 1.630569 0
M  V30 5 C -0.103768 -1.181526 0.414040 0
M  V30 6 C 0.787120 -1.396096 -0.720804 0
M  V30 7 S 1.519431 -2.867685 -0.772836 0
M  V30 8 N 1.128233 -0.533175 -1.798041 0
M  V30 9 C 2.014335 -0.765311 -2.914036 0
M  V30 10 C 0.570175 0.798412 -1.901370 0
M  V30 11 C -1.462397 -1.321186 0.211731 0
M  V30 12 C -2.261074 -1.102931 1.336117 0
M  V30 13 C -1.716633 -0.765983 2.580333 0
M  V30 14 O -2.696750 -0.596190 3.554314 0
M  V30 15 H 1.982779 -0.798831 3.806925 0
M  V30 16 H 1.457485 -0.320935 5.500427 0
M  V30 17 H 1.595999 0.960147 4.274253 0
M  V30 18 H 1.506262 -0.733158 1.824647 0
M  V30 19 H 2.492415 -1.773351 -2.864012 0
M  V30 20 H 1.383886 -0.682836 -3.830527 0
M  V30 21 H 2.790600 0.000813 -2.975646 0
M  V30 22 H -0.072771 0.981906 -1.002054 0
M  V30 23 H 1.348020 1.587332 -1.939652 0
M  V30 24 H -0.100606 0.933783 -2.777343 0
M  V30 25 H -1.891298 -1.579386 -0.738389 0
M  V30 26 H -3.333668 -1.220346 1.146804 0
M  V30 27 H -2.579655 0.140227 4.267797 0
M  V30 END ATOM
M  V30 BEGIN BOND
M  V30 1 1 1 2
M  V30 2 1 2 3
M  V30 3 2 3 4
M  V30 4 1 4 5
M  V30 5 1 5 6
M  V30 6 2 6 7
M  V30 7 1 6 8
M  V30 8 1 8 9
M  V30 9 1 8 10
M  V30 10 2 5 11
M  V30 11 1 11 12
M  V30 12 2 12 13
M  V30 13 1 13 14
M  V30 14 1 13 3
M  V30 15 1 1 15
M  V30 16 1 1 16
M  V30 17 1 1 17
M  V30 18 1 4 18
M  V30 19 1 9 19
M  V30 20 1 9 20
M  V30 21 1 9 21
M  V30 22 1 10 22
M  V30 23 1 10 23
M  V30 24 1 10 24
M  V30 25 1 11 25
M  V30 26 1 12 26
M  V30 27 1 14 27
M  V30 END BOND
M  V30 END CTAB
M  END
>  <Dataset>  (467) 
ChEMBL_Kinases

>  <Ligand_Instance>  (467) 
nan

>  <PDB_ID>  (467) 
nan

>  <Standardized_SMILES>  (467) 
COc1cc(C(=S)N(C)C)ccc1O

>  <Name>  (467) 
nan

>  <Pocket>  (467) 
nan

>  <ATP_Site>  (467) 
nan

>  <Peripheral>  (467) 
nan

>  <Num_H_Atoms_ProtBoundConf>  (467) 
nan

>  <Num_Resolved_Atoms>  (467) 
nan

>  <Num_Not_Resolved_Atoms>  (467) 
nan

$$$$
CHEMBL1330358
     RDKit          3D

  0  0  0  0  0  0  0  0  0  0999 V3000
M  V30 BEGIN CTAB
M  V30 COUNTS 46 48 0 0 0
M  V30 BEGIN ATOM
M  V30 1 C -0.693319 -3.599709 -0.558912 0
M  V30 2 C 0.694225 -3.207240 -0.131835 0
M  V30 3 C 1.165124 -3.808833 0.997472 0
M  V30 4 C 2.438805 -3.470743 1.419209 0
M  V30 5 Cl 3.135768 -4.191158 2.862931 0
M  V30 6 C 3.218735 -2.561359 0.736533 0
M  V30 7 C 2.657993 -1.995812 -0.406188 0
M  V30 8 C 1.410671 -2.284600 -0.875866 0
M  V30 9 N 0.823762 -1.727283 -2.025538 0
M  V30 10 C -0.042392 -0.799466 -2.079346 0
M  V30 11 S 0.371579 -1.350289 -3.728450 0
M  V30 12 N -0.919904 0.179011 -1.533589 0
M  V30 13 C -0.659812 1.602337 -1.649109 0
M  V30 14 C -0.552859 2.133284 -0.235283 0
M  V30 15 N -0.653952 1.099116 0.769077 0
M  V30 16 C 0.464914 0.872904 1.640525 0
M  V30 17 O 1.337268 1.704060 1.285226 0
M  V30 18 C 0.451568 -0.157331 2.690966 0
M  V30 19 C -0.473201 0.225727 3.839331 0
M  V30 20 C 0.280621 1.440843 4.375902 0
M  V30 21 C 1.712413 1.012653 4.124233 0
M  V30 22 O 1.678139 -0.113734 3.346867 0
M  V30 23 C -1.977735 0.498282 0.629977 0
M  V30 24 C -2.152882 0.028442 -0.807907 0
M  V30 25 H -1.372298 -3.299753 0.268868 0
M  V30 26 H -0.958935 -3.119751 -1.515732 0
M  V30 27 H -0.742401 -4.711410 -0.733230 0
M  V30 28 H 0.594312 -4.522953 1.562140 0
M  V30 29 H 4.226524 -2.287240 1.061400 0
M  V30 30 H 3.233711 -1.265978 -0.988587 0
M  V30 31 H -0.313981 -0.484574 -4.628890 0
M  V30 32 H -1.512878 2.083570 -2.194994 0
M  V30 33 H 0.286077 1.764479 -2.188676 0
M  V30 34 H -1.372819 2.880040 -0.090387 0
M  V30 35 H 0.404455 2.694723 -0.126277 0
M  V30 36 H 0.215749 -1.171632 2.349679 0
M  V30 37 H -0.377908 -0.578873 4.592131 0
M  V30 38 H -1.489783 0.472701 3.528072 0
M  V30 39 H 0.091005 1.594067 5.458096 0
M  V30 40 H -0.006558 2.353237 3.826145 0
M  V30 41 H 2.333661 1.814768 3.703054 0
M  V30 42 H 2.147583 0.702183 5.113016 0
M  V30 43 H -2.047789 -0.350023 1.343644 0
M  V30 44 H -2.696887 1.295299 0.901151 0
M  V30 45 H -2.990769 0.598112 -1.278360 0
M  V30 46 H -2.477304 -1.036561 -0.760586 0
M  V30 END ATOM
M  V30 BEGIN BOND
M  V30 1 1 1 2
M  V30 2 2 2 3
M  V30 3 1 3 4
M  V30 4 1 4 5
M  V30 5 2 4 6
M  V30 6 1 6 7
M  V30 7 2 7 8
M  V30 8 1 8 9
M  V30 9 2 9 10 CFG=2
M  V30 10 1 10 11
M  V30 11 1 10 12
M  V30 12 1 12 13
M  V30 13 1 13 14
M  V30 14 1 14 15
M  V30 15 1 15 16
M  V30 16 2 16 17
M  V30 17 1 16 18
M  V30 18 1 18 19
M  V30 19 1 19 20
M  V30 20 1 20 21
M  V30 21 1 21 22
M  V30 22 1 15 23
M  V30 23 1 23 24
M  V30 24 1 8 2
M  V30 25 1 24 12
M  V30 26 1 22 18
M  V30 27 1 1 25
M  V30 28 1 1 26
M  V30 29 1 1 27
M  V30 30 1 3 28
M  V30 31 1 6 29
M  V30 32 1 7 30
M  V30 33 1 11 31
M  V30 34 1 13 32
M  V30 35 1 13 33
M  V30 36 1 14 34
M  V30 37 1 14 35
M  V30 38 1 18 36
M  V30 39 1 19 37
M  V30 40 1 19 38
M  V30 41 1 20 39
M  V30 42 1 20 40
M  V30 43 1 21 41
M  V30 44 1 21 42
M  V30 45 1 23 43
M  V30 46 1 23 44
M  V30 47 1 24 45
M  V30 48 1 24 46
M  V30 END BOND
M  V30 END CTAB
M  END
>  <Dataset>  (468) 
ChEMBL_Kinases

>  <Ligand_Instance>  (468) 
nan

>  <PDB_ID>  (468) 
nan

>  <Standardized_SMILES>  (468) 
Cc1cc(Cl)ccc1N=C(S)N1CCN(C(=O)C2CCCO2)CC1

>  <Name>  (468) 
nan

>  <Pocket>  (468) 
nan

>  <ATP_Site>  (468) 
nan

>  <Peripheral>  (468) 
nan

>  <Num_H_Atoms_ProtBoundConf>  (468) 
nan

>  <Num_Resolved_Atoms>  (468) 
nan

>  <Num_Not_Resolved_Atoms>  (468) 
nan

$$$$
CHEMBL1330317
     RDKit          3D

  0  0  0  0  0  0  0  0  0  0999 V3000
M  V30 BEGIN CTAB
M  V30 COUNTS 41 44 0 0 0
M  V30 BEGIN ATOM
M  V30 1 C 0.808799 -3.339094 1.328540 0
M  V30 2 N 1.049779 -2.568514 0.103115 0
M  V30 3 C 0.355011 -3.229206 -0.969080 0
M  V30 4 C 0.565871 -2.483075 -2.254018 0
M  V30 5 C -0.284500 -1.458338 -2.680951 0
M  V30 6 C 0.198479 -1.001056 -3.883598 0
M  V30 7 C 1.320103 -1.781614 -4.114522 0
M  V30 8 O 1.517663 -2.638058 -3.155490 0
M  V30 9 C 1.846631 -1.388171 0.086274 0
M  V30 10 N 2.913873 -1.483582 -0.728684 0
M  V30 11 C 3.805785 -0.483362 -0.899245 0
M  V30 12 N 3.588209 0.659273 -0.202155 0
M  V30 13 C 2.547384 0.814820 0.622173 0
M  V30 14 C 2.289308 1.958831 1.349116 0
M  V30 15 C 1.174884 2.026822 2.185138 0
M  V30 16 C 0.290836 0.954957 2.316158 0
M  V30 17 C -0.879418 1.010804 3.186694 0
M  V30 18 C -1.195266 -0.055649 4.029403 0
M  V30 19 C -2.301031 -0.018287 4.860647 0
M  V30 20 C -3.132170 1.083962 4.881830 0
M  V30 21 C -2.834825 2.129046 4.065390 0
M  V30 22 C -1.739385 2.091462 3.242230 0
M  V30 23 Cl -1.441318 3.469414 2.238164 0
M  V30 24 C 0.529949 -0.208406 1.593747 0
M  V30 25 C 1.643839 -0.215174 0.787052 0
M  V30 26 H -0.261539 -3.431184 1.525928 0
M  V30 27 H 1.198770 -4.379717 1.149869 0
M  V30 28 H 1.316935 -2.881706 2.200890 0
M  V30 29 H -0.721074 -3.343244 -0.842729 0
M  V30 30 H 0.761425 -4.266182 -1.050970 0
M  V30 31 H -1.153016 -1.109424 -2.146864 0
M  V30 32 H -0.223273 -0.216363 -4.479755 0
M  V30 33 H 1.949828 -1.682942 -4.990738 0
M  V30 34 H 4.660578 -0.586651 -1.564673 0
M  V30 35 H 2.965604 2.794352 1.256232 0
M  V30 36 H 1.001316 2.937292 2.740734 0
M  V30 37 H -0.525575 -0.898634 3.986960 0
M  V30 38 H -2.425976 -0.903235 5.454227 0
M  V30 39 H -3.990094 1.063167 5.554738 0
M  V30 40 H -3.508550 2.999641 4.095427 0
M  V30 41 H -0.131013 -1.039028 1.677878 0
M  V30 END ATOM
M  V30 BEGIN BOND
M  V30 1 1 1 2
M  V30 2 1 2 3
M  V30 3 1 3 4
M  V30 4 2 4 5
M  V30 5 1 5 6
M  V30 6 2 6 7
M  V30 7 1 7 8
M  V30 8 1 2 9
M  V30 9 2 9 10
M  V30 10 1 10 11
M  V30 11 2 11 12
M  V30 12 1 12 13
M  V30 13 2 13 14
M  V30 14 1 14 15
M  V30 15 2 15 16
M  V30 16 1 16 17
M  V30 17 2 17 18
M  V30 18 1 18 19
M  V30 19 2 19 20
M  V30 20 1 20 21
M  V30 21 2 21 22
M  V30 22 1 22 23
M  V30 23 1 16 24
M  V30 24 2 24 25
M  V30 25 1 8 4
M  V30 26 1 25 9
M  V30 27 1 25 13
M  V30 28 1 22 17
M  V30 29 1 1 26
M  V30 30 1 1 27
M  V30 31 1 1 28
M  V30 32 1 3 29
M  V30 33 1 3 30
M  V30 34 1 5 31
M  V30 35 1 6 32
M  V30 36 1 7 33
M  V30 37 1 11 34
M  V30 38 1 14 35
M  V30 39 1 15 36
M  V30 40 1 18 37
M  V30 41 1 19 38
M  V30 42 1 20 39
M  V30 43 1 21 40
M  V30 44 1 24 41
M  V30 END BOND
M  V30 END CTAB
M  END
>  <Dataset>  (469) 
ChEMBL_Kinases

>  <Ligand_Instance>  (469) 
nan

>  <PDB_ID>  (469) 
nan

>  <Standardized_SMILES>  (469) 
CN(Cc1ccco1)c1ncnc2ccc(-c3ccccc3Cl)cc12

>  <Name>  (469) 
nan

>  <Pocket>  (469) 
nan

>  <ATP_Site>  (469) 
nan

>  <Peripheral>  (469) 
nan

>  <Num_H_Atoms_ProtBoundConf>  (469) 
nan

>  <Num_Resolved_Atoms>  (469) 
nan

>  <Num_Not_Resolved_Atoms>  (469) 
nan

$$$$
CHEMBL1330307
     RDKit          3D

  0  0  0  0  0  0  0  0  0  0999 V3000
M  V30 BEGIN CTAB
M  V30 COUNTS 41 44 0 0 0
M  V30 BEGIN ATOM
M  V30 1 O -2.147596 -2.107408 1.069527 0
M  V30 2 C -1.226880 -1.710221 2.025171 0
M  V30 3 C -0.077879 -0.982273 1.680886 0
M  V30 4 C 0.160730 -0.623985 0.269232 0
M  V30 5 N 1.180569 -1.360478 -0.394767 0
M  V30 6 C 1.632970 -1.284964 -1.741595 0
M  V30 7 C 1.089945 -0.415237 -2.657240 0
M  V30 8 C 1.457327 -0.268969 -3.980402 0
M  V30 9 C 2.479169 -1.109733 -4.363415 0
M  V30 10 C 3.044739 -2.002020 -3.444852 0
M  V30 11 N 2.617339 -2.072875 -2.167353 0
M  V30 12 C 0.497212 0.821111 0.240892 0
M  V30 13 C -0.391829 1.839425 -0.021354 0
M  V30 14 C -0.088168 3.182263 -0.050792 0
M  V30 15 C 1.233953 3.556187 0.206101 0
M  V30 16 C 2.120566 2.535264 0.467817 0
M  V30 17 N 1.762714 1.253634 0.481315 0
M  V30 18 C 0.838467 -0.587427 2.635670 0
M  V30 19 C 0.629284 -0.913643 3.981021 0
M  V30 20 C -0.481801 -1.623123 4.351628 0
M  V30 21 C -0.825463 -2.019563 5.624881 0
M  V30 22 C -1.941248 -2.733137 5.991737 0
M  V30 23 C -2.766577 -3.059497 4.939338 0
M  V30 24 N -2.492596 -2.706753 3.683203 0
M  V30 25 C -1.370394 -1.996451 3.362911 0
M  V30 26 H -1.782776 -2.695608 0.308607 0
M  V30 27 H -0.803081 -0.780779 -0.301016 0
M  V30 28 H 1.653351 -2.063176 0.245874 0
M  V30 29 H 0.284251 0.233163 -2.324788 0
M  V30 30 H 0.961251 0.453130 -4.623729 0
M  V30 31 H 2.827166 -1.056191 -5.397086 0
M  V30 32 H 3.854387 -2.646592 -3.805008 0
M  V30 33 H -1.418403 1.575425 -0.222890 0
M  V30 34 H -0.818229 3.929064 -0.259909 0
M  V30 35 H 1.573150 4.581239 0.206853 0
M  V30 36 H 3.151798 2.781016 0.670925 0
M  V30 37 H 1.728091 -0.038346 2.464656 0
M  V30 38 H 1.296079 -0.643422 4.788728 0
M  V30 39 H -0.123590 -1.725371 6.414625 0
M  V30 40 H -2.088398 -2.976835 7.023452 0
M  V30 41 H -3.676765 -3.632894 5.176226 0
M  V30 END ATOM
M  V30 BEGIN BOND
M  V30 1 1 1 2
M  V30 2 2 2 3
M  V30 3 1 3 4
M  V30 4 1 4 5
M  V30 5 1 5 6
M  V30 6 2 6 7
M  V30 7 1 7 8
M  V30 8 2 8 9
M  V30 9 1 9 10
M  V30 10 2 10 11
M  V30 11 1 4 12
M  V30 12 2 12 13
M  V30 13 1 13 14
M  V30 14 2 14 15
M  V30 15 1 15 16
M  V30 16 2 16 17
M  V30 17 1 3 18
M  V30 18 2 18 19
M  V30 19 1 19 20
M  V30 20 2 20 21
M  V30 21 1 21 22
M  V30 22 2 22 23
M  V30 23 1 23 24
M  V30 24 2 24 25
M  V30 25 1 25 2
M  V30 26 1 11 6
M  V30 27 1 17 12
M  V30 28 1 25 20
M  V30 29 1 1 26
M  V30 30 1 4 27
M  V30 31 1 5 28
M  V30 32 1 7 29
M  V30 33 1 8 30
M  V30 34 1 9 31
M  V30 35 1 10 32
M  V30 36 1 13 33
M  V30 37 1 14 34
M  V30 38 1 15 35
M  V30 39 1 16 36
M  V30 40 1 18 37
M  V30 41 1 19 38
M  V30 42 1 21 39
M  V30 43 1 22 40
M  V30 44 1 23 41
M  V30 END BOND
M  V30 END CTAB
M  END
>  <Dataset>  (470) 
ChEMBL_Kinases

>  <Ligand_Instance>  (470) 
nan

>  <PDB_ID>  (470) 
nan

>  <Standardized_SMILES>  (470) 
Oc1c(C(Nc2ccccn2)c2ccccn2)ccc2cccnc12

>  <Name>  (470) 
nan

>  <Pocket>  (470) 
nan

>  <ATP_Site>  (470) 
nan

>  <Peripheral>  (470) 
nan

>  <Num_H_Atoms_ProtBoundConf>  (470) 
nan

>  <Num_Resolved_Atoms>  (470) 
nan

>  <Num_Not_Resolved_Atoms>  (470) 
nan

$$$$
CHEMBL1330188
     RDKit          3D

  0  0  0  0  0  0  0  0  0  0999 V3000
M  V30 BEGIN CTAB
M  V30 COUNTS 45 48 0 0 0
M  V30 BEGIN ATOM
M  V30 1 O -5.222414 -1.762905 -3.291824 0
M  V30 2 S -5.187298 -1.180859 -1.924958 0
M  V30 3 O -6.088709 0.033630 -1.830795 0
M  V30 4 O -5.874469 -2.320610 -0.870473 0
M  V30 5 C -3.578631 -0.786125 -1.433249 0
M  V30 6 C -3.317783 0.246941 -0.560821 0
M  V30 7 C -2.076885 0.687224 -0.070311 0
M  V30 8 S -1.906221 2.011326 1.012593 0
M  V30 9 O -3.307185 2.663638 1.009570 0
M  V30 10 O -1.737593 1.689349 2.444506 0
M  V30 11 O -0.977171 3.290132 0.447784 0
M  V30 12 C -1.035135 -0.081570 -0.588929 0
M  V30 13 C 0.260557 0.234683 -0.202293 0
M  V30 14 N 0.554940 1.271120 0.685240 0
M  V30 15 N 1.139743 1.047627 1.739618 0
M  V30 16 C 1.551440 -0.216521 2.141471 0
M  V30 17 C 0.977370 -1.441761 2.101116 0
M  V30 18 C 1.537944 -2.610906 2.566241 0
M  V30 19 C 2.798028 -2.571132 3.132097 0
M  V30 20 C 3.433020 -1.351986 3.201674 0
M  V30 21 C 4.679249 -1.382344 3.774072 0
M  V30 22 C 5.389953 -0.206522 3.885887 0
M  V30 23 C 4.843493 0.972004 3.425307 0
M  V30 24 C 3.602037 0.954652 2.863662 0
M  V30 25 C 2.834500 -0.182129 2.718972 0
M  V30 26 C 1.302121 -0.510236 -0.714126 0
M  V30 27 O 2.653324 -0.340677 -0.448544 0
M  V30 28 C 1.106359 -1.566422 -1.600018 0
M  V30 29 C -0.191888 -1.880237 -1.982707 0
M  V30 30 C -1.224729 -1.126904 -1.464613 0
M  V30 31 C -2.485668 -1.485620 -1.890757 0
M  V30 32 H -5.214684 -2.602334 -0.182500 0
M  V30 33 H -4.202775 0.785864 -0.212539 0
M  V30 34 H -0.562582 3.790841 1.166847 0
M  V30 35 H 0.005466 -1.469119 1.673889 0
M  V30 36 H 0.959026 -3.525582 2.467446 0
M  V30 37 H 3.195988 -3.502534 3.480501 0
M  V30 38 H 5.134602 -2.290298 4.144535 0
M  V30 39 H 6.361955 -0.156581 4.319105 0
M  V30 40 H 5.399686 1.899156 3.511561 0
M  V30 41 H 3.179884 1.882283 2.504745 0
M  V30 42 H 3.261155 -1.094033 -0.146738 0
M  V30 43 H 1.885964 -2.188482 -2.035558 0
M  V30 44 H -0.379870 -2.708066 -2.679748 0
M  V30 45 H -2.647279 -2.290978 -2.566794 0
M  V30 END ATOM
M  V30 BEGIN BOND
M  V30 1 2 1 2
M  V30 2 2 2 3
M  V30 3 1 2 4
M  V30 4 1 2 5
M  V30 5 2 5 6
M  V30 6 1 6 7
M  V30 7 1 7 8
M  V30 8 2 8 9
M  V30 9 2 8 10
M  V30 10 1 8 11
M  V30 11 2 7 12
M  V30 12 1 12 13
M  V30 13 1 13 14
M  V30 14 2 14 15
M  V30 15 1 15 16
M  V30 16 2 16 17
M  V30 17 1 17 18
M  V30 18 2 18 19
M  V30 19 1 19 20
M  V30 20 2 20 21
M  V30 21 1 21 22
M  V30 22 2 22 23
M  V30 23 1 23 24
M  V30 24 2 24 25
M  V30 25 2 13 26
M  V30 26 1 26 27
M  V30 27 1 26 28
M  V30 28 2 28 29
M  V30 29 1 29 30
M  V30 30 2 30 31
M  V30 31 1 31 5
M  V30 32 1 30 12
M  V30 33 1 25 16
M  V30 34 1 25 20
M  V30 35 1 4 32
M  V30 36 1 6 33
M  V30 37 1 11 34
M  V30 38 1 17 35
M  V30 39 1 18 36
M  V30 40 1 19 37
M  V30 41 1 21 38
M  V30 42 1 22 39
M  V30 43 1 23 40
M  V30 44 1 24 41
M  V30 45 1 27 42
M  V30 46 1 28 43
M  V30 47 1 29 44
M  V30 48 1 31 45
M  V30 END BOND
M  V30 END CTAB
M  END
>  <Dataset>  (471) 
ChEMBL_Kinases

>  <Ligand_Instance>  (471) 
nan

>  <PDB_ID>  (471) 
nan

>  <Standardized_SMILES>  (471) 
O=S(=O)(O)c1cc(S(=O)(=O)O)c2c(/N=N\c3cccc4ccccc34)c(O)ccc2c1

>  <Name>  (471) 
nan

>  <Pocket>  (471) 
nan

>  <ATP_Site>  (471) 
nan

>  <Peripheral>  (471) 
nan

>  <Num_H_Atoms_ProtBoundConf>  (471) 
nan

>  <Num_Resolved_Atoms>  (471) 
nan

>  <Num_Not_Resolved_Atoms>  (471) 
nan

$$$$
CHEMBL1333569
     RDKit          3D

  0  0  0  0  0  0  0  0  0  0999 V3000
M  V30 BEGIN CTAB
M  V30 COUNTS 43 44 0 0 0
M  V30 BEGIN ATOM
M  V30 1 C -0.316432 -6.229026 4.939406 0
M  V30 2 C 0.955439 -6.126553 4.103958 0
M  V30 3 O 0.860639 -4.937057 3.359586 0
M  V30 4 C 1.818493 -4.472237 2.469206 0
M  V30 5 O 2.861518 -5.124760 2.280380 0
M  V30 6 C 1.618084 -3.212319 1.741014 0
M  V30 7 C 2.609091 -2.803493 0.868393 0
M  V30 8 C 2.446554 -1.619611 0.168603 0
M  V30 9 C 1.298414 -0.870508 0.355666 0
M  V30 10 N 1.010636 0.375532 -0.310525 0
M  V30 11 C 1.387265 1.667114 0.210296 0
M  V30 12 O 1.875205 1.573523 1.379751 0
M  V30 13 C 1.083567 2.717377 -0.795344 0
M  V30 14 C -0.389798 2.640864 -1.133258 0
M  V30 15 C -0.848428 3.810369 -1.964398 0
M  V30 16 C -1.206319 2.483517 0.137022 0
M  V30 17 C -1.014598 3.627317 1.082408 0
M  V30 18 C -0.568887 1.409778 -1.996166 0
M  V30 19 C 0.314395 0.333634 -1.555169 0
M  V30 20 O 0.451634 -0.671824 -2.331381 0
M  V30 21 C 0.298906 -1.284899 1.237160 0
M  V30 22 C 0.451529 -2.479873 1.950396 0
M  V30 23 H -1.209480 -5.994640 4.323129 0
M  V30 24 H -0.261413 -5.599925 5.845214 0
M  V30 25 H -0.441979 -7.285666 5.278600 0
M  V30 26 H 1.829133 -6.027905 4.787545 0
M  V30 27 H 1.013819 -7.030286 3.482508 0
M  V30 28 H 3.514739 -3.363618 0.700095 0
M  V30 29 H 3.167462 -1.201601 -0.547466 0
M  V30 30 H 1.663003 2.447120 -1.718032 0
M  V30 31 H 1.330023 3.734496 -0.441692 0
M  V30 32 H -0.232889 3.806423 -2.884741 0
M  V30 33 H -0.830915 4.775378 -1.455771 0
M  V30 34 H -1.908052 3.573815 -2.257269 0
M  V30 35 H -0.822888 1.562563 0.637300 0
M  V30 36 H -2.274127 2.412157 -0.091590 0
M  V30 37 H -1.881591 3.770825 1.752312 0
M  V30 38 H -0.140008 3.411506 1.730350 0
M  V30 39 H -0.752375 4.593609 0.574400 0
M  V30 40 H -0.244493 1.707668 -3.033769 0
M  V30 41 H -1.639045 1.096344 -2.043720 0
M  V30 42 H -0.597308 -0.741160 1.410807 0
M  V30 43 H -0.303554 -2.833346 2.643574 0
M  V30 END ATOM
M  V30 BEGIN BOND
M  V30 1 1 1 2
M  V30 2 1 2 3
M  V30 3 1 3 4
M  V30 4 2 4 5
M  V30 5 1 4 6
M  V30 6 2 6 7
M  V30 7 1 7 8
M  V30 8 2 8 9
M  V30 9 1 9 10
M  V30 10 1 10 11
M  V30 11 2 11 12
M  V30 12 1 11 13
M  V30 13 1 13 14
M  V30 14 1 14 15
M  V30 15 1 14 16
M  V30 16 1 16 17
M  V30 17 1 14 18
M  V30 18 1 18 19
M  V30 19 2 19 20
M  V30 20 1 9 21
M  V30 21 2 21 22
M  V30 22 1 22 6
M  V30 23 1 19 10
M  V30 24 1 1 23
M  V30 25 1 1 24
M  V30 26 1 1 25
M  V30 27 1 2 26
M  V30 28 1 2 27
M  V30 29 1 7 28
M  V30 30 1 8 29
M  V30 31 1 13 30
M  V30 32 1 13 31
M  V30 33 1 15 32
M  V30 34 1 15 33
M  V30 35 1 15 34
M  V30 36 1 16 35
M  V30 37 1 16 36
M  V30 38 1 17 37
M  V30 39 1 17 38
M  V30 40 1 17 39
M  V30 41 1 18 40
M  V30 42 1 18 41
M  V30 43 1 21 42
M  V30 44 1 22 43
M  V30 END BOND
M  V30 END CTAB
M  END
>  <Dataset>  (472) 
ChEMBL_Kinases

>  <Ligand_Instance>  (472) 
nan

>  <PDB_ID>  (472) 
nan

>  <Standardized_SMILES>  (472) 
CCOC(=O)c1ccc(N2C(=O)CC(C)(CC)CC2=O)cc1

>  <Name>  (472) 
nan

>  <Pocket>  (472) 
nan

>  <ATP_Site>  (472) 
nan

>  <Peripheral>  (472) 
nan

>  <Num_H_Atoms_ProtBoundConf>  (472) 
nan

>  <Num_Resolved_Atoms>  (472) 
nan

>  <Num_Not_Resolved_Atoms>  (472) 
nan

$$$$
CHEMBL1328865
     RDKit          3D

  0  0  0  0  0  0  0  0  0  0999 V3000
M  V30 BEGIN CTAB
M  V30 COUNTS 39 42 0 0 0
M  V30 BEGIN ATOM
M  V30 1 C -6.306404 -2.301339 1.407333 0
M  V30 2 C -6.201291 -1.308675 0.431030 0
M  V30 3 C -4.940866 -0.824215 0.108125 0
M  V30 4 C -3.787965 -1.283494 0.712424 0
M  V30 5 N -2.521779 -0.745091 0.336227 0
M  V30 6 N -2.346297 0.370409 -0.339103 0
M  V30 7 C -1.028215 0.610807 -0.539190 0
M  V30 8 C -0.343645 -0.429472 0.054479 0
M  V30 9 C 1.028003 -0.664397 0.136702 0
M  V30 10 N 1.974960 0.229654 -0.439474 0
M  V30 11 C 3.393448 -0.052779 -0.330396 0
M  V30 12 C 3.901364 -0.130017 1.073393 0
M  V30 13 C 3.778613 1.182373 1.773156 0
M  V30 14 C 5.071604 1.895965 1.507797 0
M  V30 15 C 5.916260 0.809192 0.895873 0
M  V30 16 O 5.275253 -0.404338 1.116962 0
M  V30 17 N 1.351801 -1.791622 0.797781 0
M  V30 18 C 0.440100 -2.623408 1.334598 0
M  V30 19 N -0.890048 -2.373934 1.241888 0
M  V30 20 C -1.304162 -1.262401 0.594069 0
M  V30 21 C -3.921699 -2.265241 1.674215 0
M  V30 22 C -5.150370 -2.779516 2.030884 0
M  V30 23 H -7.321430 -2.624916 1.600871 0
M  V30 24 H -7.018626 -0.864667 -0.115487 0
M  V30 25 H -4.816389 -0.056438 -0.641480 0
M  V30 26 H -0.613762 1.462509 -1.066778 0
M  V30 27 H 1.617694 1.058170 -0.920946 0
M  V30 28 H 3.995084 0.659322 -0.915169 0
M  V30 29 H 3.628955 -1.059109 -0.787855 0
M  V30 30 H 3.424288 -0.967804 1.620424 0
M  V30 31 H 2.902601 1.702898 1.327312 0
M  V30 32 H 3.684761 1.047511 2.864448 0
M  V30 33 H 4.849303 2.720104 0.807487 0
M  V30 34 H 5.546955 2.251637 2.448292 0
M  V30 35 H 6.023404 1.060429 -0.179579 0
M  V30 36 H 6.932961 0.837015 1.313248 0
M  V30 37 H 0.716829 -3.522071 1.860819 0
M  V30 38 H -3.059998 -2.658640 2.175816 0
M  V30 39 H -5.294327 -3.545217 2.775918 0
M  V30 END ATOM
M  V30 BEGIN BOND
M  V30 1 2 1 2
M  V30 2 1 2 3
M  V30 3 2 3 4
M  V30 4 1 4 5
M  V30 5 1 5 6
M  V30 6 2 6 7
M  V30 7 1 7 8
M  V30 8 2 8 9
M  V30 9 1 9 10
M  V30 10 1 10 11
M  V30 11 1 11 12
M  V30 12 1 12 13
M  V30 13 1 13 14
M  V30 14 1 14 15
M  V30 15 1 15 16
M  V30 16 1 9 17
M  V30 17 2 17 18
M  V30 18 1 18 19
M  V30 19 2 19 20
M  V30 20 1 4 21
M  V30 21 2 21 22
M  V30 22 1 22 1
M  V30 23 1 20 5
M  V30 24 1 20 8
M  V30 25 1 16 12
M  V30 26 1 1 23
M  V30 27 1 2 24
M  V30 28 1 3 25
M  V30 29 1 7 26
M  V30 30 1 10 27
M  V30 31 1 11 28
M  V30 32 1 11 29
M  V30 33 1 12 30
M  V30 34 1 13 31
M  V30 35 1 13 32
M  V30 36 1 14 33
M  V30 37 1 14 34
M  V30 38 1 15 35
M  V30 39 1 15 36
M  V30 40 1 18 37
M  V30 41 1 21 38
M  V30 42 1 22 39
M  V30 END BOND
M  V30 END CTAB
M  END
>  <Dataset>  (473) 
ChEMBL_Kinases

>  <Ligand_Instance>  (473) 
nan

>  <PDB_ID>  (473) 
nan

>  <Standardized_SMILES>  (473) 
c1ccc(-n2ncc3c(NCC4CCCO4)ncnc32)cc1

>  <Name>  (473) 
nan

>  <Pocket>  (473) 
nan

>  <ATP_Site>  (473) 
nan

>  <Peripheral>  (473) 
nan

>  <Num_H_Atoms_ProtBoundConf>  (473) 
nan

>  <Num_Resolved_Atoms>  (473) 
nan

>  <Num_Not_Resolved_Atoms>  (473) 
nan

$$$$
CHEMBL1328941
     RDKit          3D

  0  0  0  0  0  0  0  0  0  0999 V3000
M  V30 BEGIN CTAB
M  V30 COUNTS 36 37 0 0 0
M  V30 BEGIN ATOM
M  V30 1 C 0.259393 -4.709163 2.601377 0
M  V30 2 C -0.835927 -5.039116 1.610654 0
M  V30 3 C -0.287691 -4.761867 0.216703 0
M  V30 4 C 0.055016 -3.298278 0.204404 0
M  V30 5 C 1.177743 -2.696972 0.532066 0
M  V30 6 C 1.252105 -1.353067 0.454297 0
M  V30 7 C 2.317331 -0.412346 0.714988 0
M  V30 8 N 3.518762 -1.065930 1.186554 0
M  V30 9 O 2.600654 0.753824 0.687274 0
M  V30 10 C 0.174682 -0.637010 0.040727 0
M  V30 11 N -0.237659 0.712891 -0.182518 0
M  V30 12 C -0.092025 1.571419 -1.329391 0
M  V30 13 O 0.450904 1.322884 -2.417046 0
M  V30 14 C -0.707094 2.896214 -1.054758 0
M  V30 15 C -1.658560 3.399064 -1.926033 0
M  V30 16 C -1.989493 4.612984 -1.333470 0
M  V30 17 O -1.285990 4.788242 -0.220943 0
M  V30 18 C -0.489312 3.765928 -0.009537 0
M  V30 19 C 0.435031 3.621978 1.124175 0
M  V30 20 S -1.040715 -2.003173 -0.258481 0
M  V30 21 H 1.253415 -5.124275 2.265604 0
M  V30 22 H 0.079163 -5.151027 3.587195 0
M  V30 23 H 0.418723 -3.617402 2.709028 0
M  V30 24 H -1.670683 -4.331747 1.806546 0
M  V30 25 H -1.213514 -6.074747 1.737388 0
M  V30 26 H -1.058799 -4.881384 -0.563425 0
M  V30 27 H 0.637930 -5.306949 0.020085 0
M  V30 28 H 2.028143 -3.280266 0.859808 0
M  V30 29 H 3.737984 -0.929000 2.222623 0
M  V30 30 H 3.836147 -1.010508 2.174785 0
M  V30 31 H -0.724562 1.029519 0.714497 0
M  V30 32 H -2.026001 2.926120 -2.833152 0
M  V30 33 H -2.731942 5.301533 -1.755446 0
M  V30 34 H -0.048557 3.038664 1.942830 0
M  V30 35 H 1.392696 3.172701 0.798258 0
M  V30 36 H 0.686365 4.643388 1.467317 0
M  V30 END ATOM
M  V30 BEGIN BOND
M  V30 1 1 1 2
M  V30 2 1 2 3
M  V30 3 1 3 4
M  V30 4 2 4 5
M  V30 5 1 5 6
M  V30 6 1 6 7
M  V30 7 1 7 8
M  V30 8 2 7 9
M  V30 9 2 6 10
M  V30 10 1 10 11
M  V30 11 1 11 12
M  V30 12 2 12 13
M  V30 13 1 12 14
M  V30 14 1 14 15
M  V30 15 2 15 16
M  V30 16 1 16 17
M  V30 17 1 17 18
M  V30 18 1 18 19
M  V30 19 1 10 20
M  V30 20 1 20 4
M  V30 21 2 18 14
M  V30 22 1 1 21
M  V30 23 1 1 22
M  V30 24 1 1 23
M  V30 25 1 2 24
M  V30 26 1 2 25
M  V30 27 1 3 26
M  V30 28 1 3 27
M  V30 29 1 5 28
M  V30 30 1 8 29
M  V30 31 1 8 30
M  V30 32 1 11 31
M  V30 33 1 15 32
M  V30 34 1 16 33
M  V30 35 1 19 34
M  V30 36 1 19 35
M  V30 37 1 19 36
M  V30 END BOND
M  V30 END CTAB
M  END
>  <Dataset>  (474) 
ChEMBL_Kinases

>  <Ligand_Instance>  (474) 
nan

>  <PDB_ID>  (474) 
nan

>  <Standardized_SMILES>  (474) 
CCCc1cc(C(N)=O)c(NC(=O)c2ccoc2C)s1

>  <Name>  (474) 
nan

>  <Pocket>  (474) 
nan

>  <ATP_Site>  (474) 
nan

>  <Peripheral>  (474) 
nan

>  <Num_H_Atoms_ProtBoundConf>  (474) 
nan

>  <Num_Resolved_Atoms>  (474) 
nan

>  <Num_Not_Resolved_Atoms>  (474) 
nan

$$$$
CHEMBL1329102
     RDKit          3D

  0  0  0  0  0  0  0  0  0  0999 V3000
M  V30 BEGIN CTAB
M  V30 COUNTS 48 52 0 0 0
M  V30 BEGIN ATOM
M  V30 1 O 3.195028 -1.768619 1.183903 0
M  V30 2 S 2.088087 -1.140667 0.315979 0
M  V30 3 O 2.150979 -2.016450 -0.946185 0
M  V30 4 C 2.558216 0.457698 -0.131806 0
M  V30 5 C 3.388351 1.419119 0.473510 0
M  V30 6 C 3.647317 2.648803 -0.081078 0
M  V30 7 C 3.111167 3.028785 -1.272358 0
M  V30 8 C 2.292178 2.149770 -1.925386 0
M  V30 9 C 1.714365 2.569980 -3.217756 0
M  V30 10 F 1.146253 1.479131 -3.845783 0
M  V30 11 F 2.697987 3.046496 -4.080122 0
M  V30 12 F 0.813417 3.574788 -2.981051 0
M  V30 13 C 2.045232 0.921618 -1.352355 0
M  V30 14 N 0.560468 -1.397797 1.005293 0
M  V30 15 C 0.171178 -0.793672 2.259157 0
M  V30 16 C 0.596879 0.458374 2.557567 0
M  V30 17 C 0.308484 0.912178 3.821793 0
M  V30 18 C -0.381413 0.116679 4.726455 0
M  V30 19 C -0.821586 -1.158612 4.431870 0
M  V30 20 C -0.530667 -1.606884 3.160495 0
M  V30 21 N -1.032158 -2.841900 2.666084 0
M  V30 22 C -1.603045 -3.817207 3.415339 0
M  V30 23 C -1.788429 -4.850699 2.512873 0
M  V30 24 C -1.350495 -4.532862 1.241809 0
M  V30 25 C -0.882201 -3.243361 1.395221 0
M  V30 26 C -0.375108 -2.311906 0.324888 0 CFG=1
M  V30 27 C -1.596365 -1.527399 -0.084198 0
M  V30 28 C -2.883476 -2.050258 0.065276 0
M  V30 29 C -4.026945 -1.371071 -0.287235 0
M  V30 30 C -3.925051 -0.106498 -0.818100 0
M  V30 31 N -2.710746 0.408344 -0.968168 0
M  V30 32 C -1.601666 -0.263077 -0.620791 0
M  V30 33 H 3.761274 1.000542 1.425379 0
M  V30 34 H 4.309989 3.257244 0.529285 0
M  V30 35 H 3.387790 4.001519 -1.592077 0
M  V30 36 H 1.380600 0.298596 -1.967216 0
M  V30 37 H 1.111665 0.971870 1.773084 0
M  V30 38 H 0.650587 1.923634 4.068404 0
M  V30 39 H -0.598302 0.490843 5.719700 0
M  V30 40 H -1.351013 -1.787763 5.104852 0
M  V30 41 H -1.865059 -3.824085 4.463753 0
M  V30 42 H -2.233000 -5.828698 2.753034 0
M  V30 43 H -1.379209 -5.153926 0.369092 0
M  V30 44 H 0.097075 -2.834908 -0.501855 0
M  V30 45 H -3.065645 -3.021231 0.466906 0
M  V30 46 H -5.016227 -1.778104 -0.170152 0
M  V30 47 H -4.759470 0.507866 -1.125800 0
M  V30 48 H -0.663266 0.216565 -0.766803 0
M  V30 END ATOM
M  V30 BEGIN BOND
M  V30 1 2 1 2
M  V30 2 2 2 3
M  V30 3 1 2 4
M  V30 4 2 4 5
M  V30 5 1 5 6
M  V30 6 2 6 7
M  V30 7 1 7 8
M  V30 8 1 8 9
M  V30 9 1 9 10
M  V30 10 1 9 11
M  V30 11 1 9 12
M  V30 12 2 8 13
M  V30 13 1 2 14
M  V30 14 1 14 15
M  V30 15 2 15 16
M  V30 16 1 16 17
M  V30 17 2 17 18
M  V30 18 1 18 19
M  V30 19 2 19 20
M  V30 20 1 20 21
M  V30 21 1 21 22
M  V30 22 2 22 23
M  V30 23 1 23 24
M  V30 24 2 24 25
M  V30 25 1 25 26
M  V30 26 1 26 27
M  V30 27 2 27 28
M  V30 28 1 28 29
M  V30 29 2 29 30
M  V30 30 1 30 31
M  V30 31 2 31 32
M  V30 32 1 13 4
M  V30 33 1 26 14
M  V30 34 1 32 27
M  V30 35 1 20 15
M  V30 36 1 25 21
M  V30 37 1 5 33
M  V30 38 1 6 34
M  V30 39 1 7 35
M  V30 40 1 13 36
M  V30 41 1 16 37
M  V30 42 1 17 38
M  V30 43 1 18 39
M  V30 44 1 19 40
M  V30 45 1 22 41
M  V30 46 1 23 42
M  V30 47 1 24 43
M  V30 48 1 26 44 CFG=3
M  V30 49 1 28 45
M  V30 50 1 29 46
M  V30 51 1 30 47
M  V30 52 1 32 48
M  V30 END BOND
M  V30 END CTAB
M  END
>  <Dataset>  (475) 
ChEMBL_Kinases

>  <Ligand_Instance>  (475) 
nan

>  <PDB_ID>  (475) 
nan

>  <Standardized_SMILES>  (475) 
O=S(=O)(c1cccc(C(F)(F)F)c1)N1c2ccccc2-n2cccc2[C@H]1c1cccnc1

>  <Name>  (475) 
nan

>  <Pocket>  (475) 
nan

>  <ATP_Site>  (475) 
nan

>  <Peripheral>  (475) 
nan

>  <Num_H_Atoms_ProtBoundConf>  (475) 
nan

>  <Num_Resolved_Atoms>  (475) 
nan

>  <Num_Not_Resolved_Atoms>  (475) 
nan

$$$$
CHEMBL1329263
     RDKit          3D

  0  0  0  0  0  0  0  0  0  0999 V3000
M  V30 BEGIN CTAB
M  V30 COUNTS 49 52 0 0 0
M  V30 BEGIN ATOM
M  V30 1 C 1.381918 -3.832241 3.701448 0
M  V30 2 C 1.549432 -4.967976 2.737922 0
M  V30 3 O 0.504916 -4.980355 1.821351 0
M  V30 4 C 0.156926 -4.007103 0.927848 0
M  V30 5 C 0.726434 -2.771291 0.696944 0
M  V30 6 C 0.219572 -1.927218 -0.265848 0
M  V30 7 C 0.816807 -0.617317 -0.499139 0
M  V30 8 N 1.138795 -0.228193 -1.765426 0
M  V30 9 C 1.668752 1.005156 -1.769906 0
M  V30 10 C 2.163185 1.892455 -2.699793 0
M  V30 11 C 2.662988 3.144254 -2.408859 0
M  V30 12 C 2.658714 3.522963 -1.065333 0
M  V30 13 C 2.165975 2.630685 -0.159811 0
M  V30 14 N 1.683130 1.412071 -0.467994 0
M  V30 15 C 1.172489 0.447016 0.316466 0
M  V30 16 N 0.961481 0.422853 1.722746 0
M  V30 17 C 0.004494 1.216153 2.388614 0
M  V30 18 C -1.401701 1.181506 2.031733 0
M  V30 19 C -1.837423 1.614830 0.681678 0
M  V30 20 C -3.354793 1.397165 0.835653 0
M  V30 21 C -3.350721 0.160380 1.719447 0
M  V30 22 O -2.040186 -0.044224 2.144441 0
M  V30 23 C -0.870491 -2.271959 -1.037675 0
M  V30 24 C -1.461716 -3.501255 -0.829532 0
M  V30 25 C -0.937281 -4.333392 0.142414 0
M  V30 26 O -1.612416 -5.561618 0.275537 0
M  V30 27 H 2.188522 -3.112531 3.536860 0
M  V30 28 H 1.376911 -4.226934 4.750616 0
M  V30 29 H 0.417385 -3.311229 3.543732 0
M  V30 30 H 1.624116 -5.958081 3.256339 0
M  V30 31 H 2.510799 -4.860824 2.154558 0
M  V30 32 H 1.564064 -2.534641 1.304811 0
M  V30 33 H 2.151337 1.563050 -3.743920 0
M  V30 34 H 3.045635 3.816659 -3.175076 0
M  V30 35 H 3.034325 4.485141 -0.796224 0
M  V30 36 H 2.177494 2.958939 0.879481 0
M  V30 37 H 1.639842 -0.278599 2.151968 0
M  V30 38 H 0.391521 2.277756 2.378739 0
M  V30 39 H 0.080748 0.948184 3.485667 0
M  V30 40 H -1.955244 1.857846 2.760825 0
M  V30 41 H -1.572841 0.958688 -0.148915 0
M  V30 42 H -1.714037 2.697177 0.485297 0
M  V30 43 H -3.836768 2.274167 1.315334 0
M  V30 44 H -3.819528 1.130864 -0.131833 0
M  V30 45 H -4.045157 0.286273 2.577614 0
M  V30 46 H -3.659739 -0.747221 1.163791 0
M  V30 47 H -1.275728 -1.616796 -1.795395 0
M  V30 48 H -2.316990 -3.764481 -1.437581 0
M  V30 49 H -2.183050 -5.954206 -0.446013 0
M  V30 END ATOM
M  V30 BEGIN BOND
M  V30 1 1 1 2
M  V30 2 1 2 3
M  V30 3 1 3 4
M  V30 4 2 4 5
M  V30 5 1 5 6
M  V30 6 1 6 7
M  V30 7 1 7 8
M  V30 8 2 8 9
M  V30 9 1 9 10
M  V30 10 2 10 11
M  V30 11 1 11 12
M  V30 12 2 12 13
M  V30 13 1 13 14
M  V30 14 1 14 15
M  V30 15 1 15 16
M  V30 16 1 16 17
M  V30 17 1 17 18
M  V30 18 1 18 19
M  V30 19 1 19 20
M  V30 20 1 20 21
M  V30 21 1 21 22
M  V30 22 2 6 23
M  V30 23 1 23 24
M  V30 24 2 24 25
M  V30 25 1 25 26
M  V30 26 1 25 4
M  V30 27 2 15 7
M  V30 28 1 22 18
M  V30 29 1 14 9
M  V30 30 1 1 27
M  V30 31 1 1 28
M  V30 32 1 1 29
M  V30 33 1 2 30
M  V30 34 1 2 31
M  V30 35 1 5 32
M  V30 36 1 10 33
M  V30 37 1 11 34
M  V30 38 1 12 35
M  V30 39 1 13 36
M  V30 40 1 16 37
M  V30 41 1 17 38
M  V30 42 1 17 39
M  V30 43 1 18 40
M  V30 44 1 19 41
M  V30 45 1 19 42
M  V30 46 1 20 43
M  V30 47 1 20 44
M  V30 48 1 21 45
M  V30 49 1 21 46
M  V30 50 1 23 47
M  V30 51 1 24 48
M  V30 52 1 26 49
M  V30 END BOND
M  V30 END CTAB
M  END
>  <Dataset>  (476) 
ChEMBL_Kinases

>  <Ligand_Instance>  (476) 
nan

>  <PDB_ID>  (476) 
nan

>  <Standardized_SMILES>  (476) 
CCOc1cc(-c2nc3ccccn3c2NCC2CCCO2)ccc1O

>  <Name>  (476) 
nan

>  <Pocket>  (476) 
nan

>  <ATP_Site>  (476) 
nan

>  <Peripheral>  (476) 
nan

>  <Num_H_Atoms_ProtBoundConf>  (476) 
nan

>  <Num_Resolved_Atoms>  (476) 
nan

>  <Num_Not_Resolved_Atoms>  (476) 
nan

$$$$
CHEMBL1329293
     RDKit          3D

  0  0  0  0  0  0  0  0  0  0999 V3000
M  V30 BEGIN CTAB
M  V30 COUNTS 56 58 0 0 0
M  V30 BEGIN ATOM
M  V30 1 C 4.083164 2.921862 6.217033 0
M  V30 2 C 2.975150 1.947892 5.877798 0
M  V30 3 O 2.804176 1.816232 4.486827 0
M  V30 4 C 3.842978 1.365297 3.691792 0
M  V30 5 N 5.015501 1.054479 4.262601 0
M  V30 6 C 6.043897 0.616649 3.540244 0
M  V30 7 C 5.836667 0.502823 2.190185 0
M  V30 8 C 4.637043 0.819457 1.596095 0
M  V30 9 C 3.572180 1.273557 2.349487 0
M  V30 10 C 2.348908 1.582752 1.639220 0
M  V30 11 O 2.288440 1.432531 0.381969 0
M  V30 12 N 1.103336 2.059264 2.110388 0
M  V30 13 C 0.217445 2.201035 0.990324 0
M  V30 14 C 0.149830 3.384673 0.285893 0
M  V30 15 C -0.738758 3.437227 -0.789613 0
M  V30 16 C -1.486468 2.307076 -1.074818 0
M  V30 17 C -1.428767 1.116960 -0.378662 0
M  V30 18 C -2.269358 0.010523 -0.785898 0
M  V30 19 O -3.018316 0.204617 -1.773681 0
M  V30 20 N -2.241813 -1.233492 -0.094436 0
M  V30 21 C -3.001231 -2.406099 -0.370684 0
M  V30 22 C -4.240656 -2.753659 0.128818 0
M  V30 23 C -4.809605 -3.950742 -0.271068 0
M  V30 24 C -4.143793 -4.777781 -1.154147 0
M  V30 25 C -2.902262 -4.448443 -1.665906 0
M  V30 26 S -2.102428 -5.539092 -2.785464 0
M  V30 27 O -2.441036 -6.949325 -2.463327 0
M  V30 28 O -0.598243 -5.312713 -2.750812 0
M  V30 29 C -2.612111 -5.074835 -4.427077 0
M  V30 30 C -4.119157 -5.224707 -4.470095 0
M  V30 31 O -4.665902 -4.894032 -5.703128 0
M  V30 32 C -2.333903 -3.249768 -1.264713 0
M  V30 33 C -0.541079 1.099570 0.677231 0
M  V30 34 H 3.660679 3.854412 6.655164 0
M  V30 35 H 4.696640 2.467804 7.018242 0
M  V30 36 H 4.680597 3.160694 5.312834 0
M  V30 37 H 3.176824 0.955331 6.345638 0
M  V30 38 H 2.052558 2.320556 6.379395 0
M  V30 39 H 7.015088 0.348122 3.931037 0
M  V30 40 H 6.642439 0.151291 1.561678 0
M  V30 41 H 4.557027 0.698651 0.506170 0
M  V30 42 H 1.030585 2.222507 3.137391 0
M  V30 43 H 0.744971 4.234533 0.539060 0
M  V30 44 H -0.827331 4.343899 -1.372545 0
M  V30 45 H -2.161729 2.428300 -1.934938 0
M  V30 46 H -1.622602 -1.403204 0.727157 0
M  V30 47 H -4.662205 -2.023293 0.813332 0
M  V30 48 H -5.783490 -4.157826 0.161445 0
M  V30 49 H -4.655691 -5.709798 -1.426013 0
M  V30 50 H -2.094683 -5.630448 -5.212530 0
M  V30 51 H -2.370758 -3.999411 -4.547419 0
M  V30 52 H -4.421906 -6.256064 -4.183089 0
M  V30 53 H -4.533957 -4.534272 -3.717308 0
M  V30 54 H -3.900458 -4.745709 -6.320368 0
M  V30 55 H -1.361287 -3.058812 -1.706280 0
M  V30 56 H -0.461636 0.187084 1.252415 0
M  V30 END ATOM
M  V30 BEGIN BOND
M  V30 1 1 1 2
M  V30 2 1 2 3
M  V30 3 1 3 4
M  V30 4 2 4 5
M  V30 5 1 5 6
M  V30 6 2 6 7
M  V30 7 1 7 8
M  V30 8 2 8 9
M  V30 9 1 9 10
M  V30 10 2 10 11
M  V30 11 1 10 12
M  V30 12 1 12 13
M  V30 13 2 13 14
M  V30 14 1 14 15
M  V30 15 2 15 16
M  V30 16 1 16 17
M  V30 17 1 17 18
M  V30 18 2 18 19
M  V30 19 1 18 20
M  V30 20 1 20 21
M  V30 21 2 21 22
M  V30 22 1 22 23
M  V30 23 2 23 24
M  V30 24 1 24 25
M  V30 25 1 25 26
M  V30 26 2 26 27
M  V30 27 2 26 28
M  V30 28 1 26 29
M  V30 29 1 29 30
M  V30 30 1 30 31
M  V30 31 2 25 32
M  V30 32 2 17 33
M  V30 33 1 9 4
M  V30 34 1 33 13
M  V30 35 1 32 21
M  V30 36 1 1 34
M  V30 37 1 1 35
M  V30 38 1 1 36
M  V30 39 1 2 37
M  V30 40 1 2 38
M  V30 41 1 6 39
M  V30 42 1 7 40
M  V30 43 1 8 41
M  V30 44 1 12 42
M  V30 45 1 14 43
M  V30 46 1 15 44
M  V30 47 1 16 45
M  V30 48 1 20 46
M  V30 49 1 22 47
M  V30 50 1 23 48
M  V30 51 1 24 49
M  V30 52 1 29 50
M  V30 53 1 29 51
M  V30 54 1 30 52
M  V30 55 1 30 53
M  V30 56 1 31 54
M  V30 57 1 32 55
M  V30 58 1 33 56
M  V30 END BOND
M  V30 END CTAB
M  END
>  <Dataset>  (477) 
ChEMBL_Kinases

>  <Ligand_Instance>  (477) 
nan

>  <PDB_ID>  (477) 
nan

>  <Standardized_SMILES>  (477) 
CCOc1ncccc1C(=O)Nc1cccc(C(=O)Nc2cccc(S(=O)(=O)CCO)c2)c1

>  <Name>  (477) 
nan

>  <Pocket>  (477) 
nan

>  <ATP_Site>  (477) 
nan

>  <Peripheral>  (477) 
nan

>  <Num_H_Atoms_ProtBoundConf>  (477) 
nan

>  <Num_Resolved_Atoms>  (477) 
nan

>  <Num_Not_Resolved_Atoms>  (477) 
nan

$$$$
CHEMBL1329375
     RDKit          3D

  0  0  0  0  0  0  0  0  0  0999 V3000
M  V30 BEGIN CTAB
M  V30 COUNTS 42 44 0 0 0
M  V30 BEGIN ATOM
M  V30 1 C 3.418780 -6.748375 4.747687 0
M  V30 2 C 2.891506 -5.657643 3.894067 0
M  V30 3 C 1.714672 -5.007125 4.224737 0
M  V30 4 C 1.293633 -4.010630 3.381287 0
M  V30 5 C 1.918495 -3.581201 2.229559 0
M  V30 6 C 1.482369 -2.527985 1.325566 0
M  V30 7 O 2.125196 -2.236609 0.302065 0
M  V30 8 N 0.295952 -1.827135 1.632615 0
M  V30 9 C -0.227135 -0.777710 0.819877 0
M  V30 10 C 0.274964 0.455830 1.257570 0
M  V30 11 C -0.067364 1.646423 0.644875 0
M  V30 12 C -0.939180 1.624092 -0.442847 0
M  V30 13 N -1.383199 2.774989 -1.165220 0
M  V30 14 C -2.190234 2.777538 -2.367817 0
M  V30 15 C -1.790424 4.020335 -3.160741 0
M  V30 16 O -0.455708 4.330969 -3.059643 0
M  V30 17 C -0.040990 4.636089 -1.763704 0
M  V30 18 C -1.071681 4.131192 -0.761745 0
M  V30 19 C -1.421047 0.400892 -0.856913 0
M  V30 20 C -1.093634 -0.798468 -0.261633 0
M  V30 21 C 3.093748 -4.301959 1.988878 0
M  V30 22 C 3.625089 -5.319498 2.751116 0
M  V30 23 H 2.593163 -7.312874 5.216867 0
M  V30 24 H 4.039295 -6.322453 5.567720 0
M  V30 25 H 4.022803 -7.440731 4.133486 0
M  V30 26 H 1.151530 -5.265688 5.100024 0
M  V30 27 H 0.361200 -3.487564 3.632736 0
M  V30 28 H -0.321673 -1.983258 2.458157 0
M  V30 29 H 0.966813 0.617993 2.099823 0
M  V30 30 H 0.301558 2.612974 0.956916 0
M  V30 31 H -2.067889 1.863118 -2.982897 0
M  V30 32 H -3.261225 2.833591 -2.105847 0
M  V30 33 H -2.471289 4.818738 -2.853396 0
M  V30 34 H -1.995515 3.776007 -4.224473 0
M  V30 35 H 0.908260 4.108656 -1.530978 0
M  V30 36 H 0.150108 5.717700 -1.619512 0
M  V30 37 H -0.685535 4.234902 0.253804 0
M  V30 38 H -2.000099 4.771777 -0.810894 0
M  V30 39 H -2.100001 0.292442 -1.689492 0
M  V30 40 H -1.397747 -1.786434 -0.489072 0
M  V30 41 H 3.680010 -4.043320 1.091763 0
M  V30 42 H 4.537316 -5.802132 2.467342 0
M  V30 END ATOM
M  V30 BEGIN BOND
M  V30 1 1 1 2
M  V30 2 2 2 3
M  V30 3 1 3 4
M  V30 4 2 4 5
M  V30 5 1 5 6
M  V30 6 2 6 7
M  V30 7 1 6 8
M  V30 8 1 8 9
M  V30 9 2 9 10
M  V30 10 1 10 11
M  V30 11 2 11 12
M  V30 12 1 12 13
M  V30 13 1 13 14
M  V30 14 1 14 15
M  V30 15 1 15 16
M  V30 16 1 16 17
M  V30 17 1 17 18
M  V30 18 1 12 19
M  V30 19 2 19 20
M  V30 20 1 5 21
M  V30 21 2 21 22
M  V30 22 1 22 2
M  V30 23 1 20 9
M  V30 24 1 18 13
M  V30 25 1 1 23
M  V30 26 1 1 24
M  V30 27 1 1 25
M  V30 28 1 3 26
M  V30 29 1 4 27
M  V30 30 1 8 28
M  V30 31 1 10 29
M  V30 32 1 11 30
M  V30 33 1 14 31
M  V30 34 1 14 32
M  V30 35 1 15 33
M  V30 36 1 15 34
M  V30 37 1 17 35
M  V30 38 1 17 36
M  V30 39 1 18 37
M  V30 40 1 18 38
M  V30 41 1 19 39
M  V30 42 1 20 40
M  V30 43 1 21 41
M  V30 44 1 22 42
M  V30 END BOND
M  V30 END CTAB
M  END
>  <Dataset>  (478) 
ChEMBL_Kinases

>  <Ligand_Instance>  (478) 
nan

>  <PDB_ID>  (478) 
nan

>  <Standardized_SMILES>  (478) 
Cc1ccc(C(=O)Nc2ccc(N3CCOCC3)cc2)cc1

>  <Name>  (478) 
nan

>  <Pocket>  (478) 
nan

>  <ATP_Site>  (478) 
nan

>  <Peripheral>  (478) 
nan

>  <Num_H_Atoms_ProtBoundConf>  (478) 
nan

>  <Num_Resolved_Atoms>  (478) 
nan

>  <Num_Not_Resolved_Atoms>  (478) 
nan

$$$$
CHEMBL1329406
     RDKit          3D

  0  0  0  0  0  0  0  0  0  0999 V3000
M  V30 BEGIN CTAB
M  V30 COUNTS 34 36 0 0 0
M  V30 BEGIN ATOM
M  V30 1 C -0.362610 -2.877272 5.404801 0
M  V30 2 C -0.064147 -3.378890 4.036612 0
M  V30 3 C -0.472875 -4.741382 3.593990 0
M  V30 4 S 0.208757 -4.681718 1.831975 0
M  V30 5 C 0.865552 -2.911496 2.069360 0
M  V30 6 N 1.547179 -2.245322 0.989697 0
M  V30 7 C 0.902699 -1.423794 -0.022360 0
M  V30 8 O -0.285430 -1.548667 0.408092 0
M  V30 9 C 1.989481 -0.962382 -0.903018 0
M  V30 10 C 1.465744 -0.120594 -2.014615 0
M  V30 11 N 0.779457 1.079188 -1.605910 0
M  V30 12 C 1.560242 2.181890 -1.410098 0
M  V30 13 O 2.797023 2.402100 -1.497537 0
M  V30 14 O 0.792368 3.209092 -1.052637 0
M  V30 15 C -0.462984 2.841857 -1.001753 0
M  V30 16 C -1.701568 3.379335 -0.718179 0
M  V30 17 C -2.847865 2.604024 -0.788268 0
M  V30 18 C -2.810615 1.260427 -1.143615 0
M  V30 19 C -1.586785 0.717098 -1.426496 0
M  V30 20 C -0.465908 1.511332 -1.348016 0
M  V30 21 N 0.582088 -2.610210 3.170699 0
M  V30 22 H 0.501649 -2.372863 5.877675 0
M  V30 23 H -0.619953 -3.725636 6.095716 0
M  V30 24 H -1.201036 -2.177348 5.436298 0
M  V30 25 H -0.972211 -5.376737 4.216224 0
M  V30 26 H 2.562612 -2.527693 1.167357 0
M  V30 27 H 2.445258 -1.871903 -1.385367 0
M  V30 28 H 2.773514 -0.443498 -0.309686 0
M  V30 29 H 0.678010 -0.749010 -2.532335 0
M  V30 30 H 2.212741 0.073518 -2.813066 0
M  V30 31 H -1.717267 4.435067 -0.440531 0
M  V30 32 H -3.793278 3.107679 -0.547412 0
M  V30 33 H -3.757053 0.740671 -1.170439 0
M  V30 34 H -1.544396 -0.340345 -1.708915 0
M  V30 END ATOM
M  V30 BEGIN BOND
M  V30 1 1 1 2
M  V30 2 2 2 3
M  V30 3 1 3 4
M  V30 4 1 4 5
M  V30 5 1 5 6
M  V30 6 1 6 7
M  V30 7 2 7 8
M  V30 8 1 7 9
M  V30 9 1 9 10
M  V30 10 1 10 11
M  V30 11 1 11 12
M  V30 12 2 12 13
M  V30 13 1 12 14
M  V30 14 1 14 15
M  V30 15 2 15 16
M  V30 16 1 16 17
M  V30 17 2 17 18
M  V30 18 1 18 19
M  V30 19 2 19 20
M  V30 20 2 5 21
M  V30 21 1 21 2
M  V30 22 1 20 11
M  V30 23 1 20 15
M  V30 24 1 1 22
M  V30 25 1 1 23
M  V30 26 1 1 24
M  V30 27 1 3 25
M  V30 28 1 6 26
M  V30 29 1 9 27
M  V30 30 1 9 28
M  V30 31 1 10 29
M  V30 32 1 10 30
M  V30 33 1 16 31
M  V30 34 1 17 32
M  V30 35 1 18 33
M  V30 36 1 19 34
M  V30 END BOND
M  V30 END CTAB
M  END
>  <Dataset>  (479) 
ChEMBL_Kinases

>  <Ligand_Instance>  (479) 
nan

>  <PDB_ID>  (479) 
nan

>  <Standardized_SMILES>  (479) 
Cc1csc(NC(=O)CCn2c(=O)oc3ccccc32)n1

>  <Name>  (479) 
nan

>  <Pocket>  (479) 
nan

>  <ATP_Site>  (479) 
nan

>  <Peripheral>  (479) 
nan

>  <Num_H_Atoms_ProtBoundConf>  (479) 
nan

>  <Num_Resolved_Atoms>  (479) 
nan

>  <Num_Not_Resolved_Atoms>  (479) 
nan

$$$$
CHEMBL1330103
     RDKit          3D

  0  0  0  0  0  0  0  0  0  0999 V3000
M  V30 BEGIN CTAB
M  V30 COUNTS 41 44 0 0 0
M  V30 BEGIN ATOM
M  V30 1 C 2.734890 -5.061842 3.244606 0
M  V30 2 C 2.567677 -3.785607 2.496686 0
M  V30 3 C 2.900029 -2.564752 3.076944 0
M  V30 4 C 2.713488 -1.409116 2.310127 0
M  V30 5 C 2.217659 -1.458622 1.019485 0
M  V30 6 C 2.131878 -0.115477 0.464293 0
M  V30 7 O 3.101227 0.730891 0.175752 0
M  V30 8 C 2.622306 1.837069 -0.306035 0
M  V30 9 N 3.164321 3.004833 -0.752193 0
M  V30 10 C 2.396694 4.023622 -1.215875 0
M  V30 11 N 1.050907 3.932255 -1.259180 0
M  V30 12 C 0.485355 2.784709 -0.822725 0
M  V30 13 N -0.933921 2.712235 -0.878000 0
M  V30 14 C 1.228634 1.725217 -0.343814 0
M  V30 15 C 0.908363 0.468130 0.151715 0
M  V30 16 C -0.481637 0.033240 0.243378 0
M  V30 17 C -1.147841 -0.970565 -0.432211 0
M  V30 18 C -2.475895 -1.184616 -0.155546 0
M  V30 19 C -3.179569 -0.446307 0.764702 0
M  V30 20 C -4.615376 -0.722209 1.022560 0
M  V30 21 C -2.525643 0.561295 1.448044 0
M  V30 22 C -1.181498 0.781691 1.171456 0
M  V30 23 C 1.893724 -2.675778 0.460006 0
M  V30 24 C 2.081962 -3.815621 1.227795 0
M  V30 25 H 2.408592 -4.962575 4.311581 0
M  V30 26 H 2.138402 -5.857657 2.749074 0
M  V30 27 H 3.798381 -5.361435 3.167185 0
M  V30 28 H 3.280464 -2.593317 4.082849 0
M  V30 29 H 3.010348 -0.536305 2.880801 0
M  V30 30 H 2.810888 4.956486 -1.572675 0
M  V30 31 H -1.285005 2.054882 -1.618481 0
M  V30 32 H -1.277306 3.369991 -0.124235 0
M  V30 33 H -0.514195 -1.490679 -1.133308 0
M  V30 34 H -2.930012 -1.997696 -0.733289 0
M  V30 35 H -4.891097 -1.754916 0.715057 0
M  V30 36 H -5.293594 -0.036451 0.483191 0
M  V30 37 H -4.784326 -0.678486 2.134061 0
M  V30 38 H -3.110363 1.122608 2.165392 0
M  V30 39 H -0.787349 1.603035 1.777427 0
M  V30 40 H 1.521010 -2.584142 -0.548315 0
M  V30 41 H 1.800262 -4.734070 0.706797 0
M  V30 END ATOM
M  V30 BEGIN BOND
M  V30 1 1 1 2
M  V30 2 2 2 3
M  V30 3 1 3 4
M  V30 4 2 4 5
M  V30 5 1 5 6
M  V30 6 1 6 7
M  V30 7 1 7 8
M  V30 8 2 8 9
M  V30 9 1 9 10
M  V30 10 2 10 11
M  V30 11 1 11 12
M  V30 12 1 12 13
M  V30 13 2 12 14
M  V30 14 1 14 15
M  V30 15 1 15 16
M  V30 16 2 16 17
M  V30 17 1 17 18
M  V30 18 2 18 19
M  V30 19 1 19 20
M  V30 20 1 19 21
M  V30 21 2 21 22
M  V30 22 1 5 23
M  V30 23 2 23 24
M  V30 24 1 24 2
M  V30 25 2 15 6
M  V30 26 1 22 16
M  V30 27 1 14 8
M  V30 28 1 1 25
M  V30 29 1 1 26
M  V30 30 1 1 27
M  V30 31 1 3 28
M  V30 32 1 4 29
M  V30 33 1 10 30
M  V30 34 1 13 31
M  V30 35 1 13 32
M  V30 36 1 17 33
M  V30 37 1 18 34
M  V30 38 1 20 35
M  V30 39 1 20 36
M  V30 40 1 20 37
M  V30 41 1 21 38
M  V30 42 1 22 39
M  V30 43 1 23 40
M  V30 44 1 24 41
M  V30 END BOND
M  V30 END CTAB
M  END
>  <Dataset>  (480) 
ChEMBL_Kinases

>  <Ligand_Instance>  (480) 
nan

>  <PDB_ID>  (480) 
nan

>  <Standardized_SMILES>  (480) 
Cc1ccc(-c2oc3ncnc(N)c3c2-c2ccc(C)cc2)cc1

>  <Name>  (480) 
nan

>  <Pocket>  (480) 
nan

>  <ATP_Site>  (480) 
nan

>  <Peripheral>  (480) 
nan

>  <Num_H_Atoms_ProtBoundConf>  (480) 
nan

>  <Num_Resolved_Atoms>  (480) 
nan

>  <Num_Not_Resolved_Atoms>  (480) 
nan

$$$$
CHEMBL132942
     RDKit          3D

  0  0  0  0  0  0  0  0  0  0999 V3000
M  V30 BEGIN CTAB
M  V30 COUNTS 61 64 0 0 0
M  V30 BEGIN ATOM
M  V30 1 C 6.115641 -3.636425 4.609060 0
M  V30 2 O 4.769487 -4.016428 4.504142 0
M  V30 3 C 3.879646 -3.311702 3.713326 0
M  V30 4 C 4.336596 -2.218399 3.021205 0
M  V30 5 C 3.515270 -1.449957 2.202375 0
M  V30 6 N 4.029828 -0.329940 1.500292 0
M  V30 7 C 3.352496 0.612723 0.684227 0
M  V30 8 N 4.070676 1.580881 0.094193 0
M  V30 9 C 3.513263 2.514216 -0.686155 0
M  V30 10 C 2.163718 2.499036 -0.903320 0
M  V30 11 C 1.394029 1.526257 -0.318513 0
M  V30 12 C -0.044580 1.488609 -0.528467 0
M  V30 13 C -0.844116 0.534398 0.045440 0
M  V30 14 C -2.225806 0.478167 -0.141214 0
M  V30 15 C -2.846121 1.432335 -0.949720 0
M  V30 16 S -4.558299 1.387679 -1.197360 0
M  V30 17 O -5.003762 2.830689 -1.394562 0
M  V30 18 O -5.200897 0.917921 0.077291 0
M  V30 19 N -5.122245 0.501244 -2.477127 0
M  V30 20 C -4.760306 0.829701 -3.788253 0
M  V30 21 C -3.660135 -0.138699 -4.219632 0
M  V30 22 N -3.505844 -1.237998 -3.328553 0
M  V30 23 C -4.693999 -1.800105 -2.783935 0
M  V30 24 C -5.675761 -0.768159 -2.270292 0
M  V30 25 C -2.046475 2.398710 -1.532563 0
M  V30 26 C -0.684629 2.405509 -1.312500 0
M  V30 27 N 2.034225 0.633377 0.445997 0
M  V30 28 C 2.224020 -1.884028 2.154053 0
M  V30 29 C 1.722266 -2.970589 2.827989 0
M  V30 30 O 0.416747 -3.431964 2.795031 0
M  V30 31 C -0.546086 -2.762457 2.004399 0
M  V30 32 C 2.562571 -3.702145 3.624701 0
M  V30 33 O 2.175826 -4.807108 4.346167 0
M  V30 34 C 1.696146 -4.684434 5.670844 0
M  V30 35 H 6.684950 -3.665604 3.676585 0
M  V30 36 H 6.593674 -4.353268 5.306042 0
M  V30 37 H 6.185445 -2.627576 5.076372 0
M  V30 38 H 5.396922 -1.950348 3.127246 0
M  V30 39 H 5.066858 -0.195856 1.613819 0
M  V30 40 H 4.164997 3.256069 -1.121331 0
M  V30 41 H 1.799171 3.271610 -1.533004 0
M  V30 42 H -0.397086 -0.205924 0.668581 0
M  V30 43 H -2.867297 -0.263303 0.301407 0
M  V30 44 H -5.617524 0.594125 -4.477855 0
M  V30 45 H -4.483852 1.878114 -3.924842 0
M  V30 46 H -2.714630 0.452601 -4.186716 0
M  V30 47 H -3.797183 -0.461152 -5.289941 0
M  V30 48 H -2.689769 -1.175878 -2.687940 0
M  V30 49 H -5.142285 -2.510222 -3.512241 0
M  V30 50 H -4.396234 -2.429832 -1.906286 0
M  V30 51 H -6.596742 -0.885833 -2.885644 0
M  V30 52 H -5.982548 -0.939778 -1.233721 0
M  V30 53 H -2.563147 3.121823 -2.153039 0
M  V30 54 H -0.186855 3.205419 -1.821589 0
M  V30 55 H 1.501682 -1.367252 1.552741 0
M  V30 56 H -0.087585 -2.555428 1.006290 0
M  V30 57 H -1.438237 -3.402197 1.802179 0
M  V30 58 H -0.779423 -1.802039 2.479418 0
M  V30 59 H 0.610815 -4.838913 5.632031 0
M  V30 60 H 2.004690 -3.731496 6.149604 0
M  V30 61 H 2.149988 -5.499392 6.288696 0
M  V30 END ATOM
M  V30 BEGIN BOND
M  V30 1 1 1 2
M  V30 2 1 2 3
M  V30 3 2 3 4
M  V30 4 1 4 5
M  V30 5 1 5 6
M  V30 6 1 6 7
M  V30 7 2 7 8
M  V30 8 1 8 9
M  V30 9 2 9 10
M  V30 10 1 10 11
M  V30 11 1 11 12
M  V30 12 2 12 13
M  V30 13 1 13 14
M  V30 14 2 14 15
M  V30 15 1 15 16
M  V30 16 2 16 17
M  V30 17 2 16 18
M  V30 18 1 16 19
M  V30 19 1 19 20
M  V30 20 1 20 21
M  V30 21 1 21 22
M  V30 22 1 22 23
M  V30 23 1 23 24
M  V30 24 1 15 25
M  V30 25 2 25 26
M  V30 26 2 11 27
M  V30 27 2 5 28
M  V30 28 1 28 29
M  V30 29 1 29 30
M  V30 30 1 30 31
M  V30 31 2 29 32
M  V30 32 1 32 33
M  V30 33 1 33 34
M  V30 34 1 32 3
M  V30 35 1 27 7
M  V30 36 1 26 12
M  V30 37 1 24 19
M  V30 38 1 1 35
M  V30 39 1 1 36
M  V30 40 1 1 37
M  V30 41 1 4 38
M  V30 42 1 6 39
M  V30 43 1 9 40
M  V30 44 1 10 41
M  V30 45 1 13 42
M  V30 46 1 14 43
M  V30 47 1 20 44
M  V30 48 1 20 45
M  V30 49 1 21 46
M  V30 50 1 21 47
M  V30 51 1 22 48
M  V30 52 1 23 49
M  V30 53 1 23 50
M  V30 54 1 24 51
M  V30 55 1 24 52
M  V30 56 1 25 53
M  V30 57 1 26 54
M  V30 58 1 28 55
M  V30 59 1 31 56
M  V30 60 1 31 57
M  V30 61 1 31 58
M  V30 62 1 34 59
M  V30 63 1 34 60
M  V30 64 1 34 61
M  V30 END BOND
M  V30 END CTAB
M  END
>  <Dataset>  (481) 
ChEMBL_Kinases

>  <Ligand_Instance>  (481) 
nan

>  <PDB_ID>  (481) 
nan

>  <Standardized_SMILES>  (481) 
COc1cc(Nc2nccc(-c3ccc(S(=O)(=O)N4CCNCC4)cc3)n2)cc(OC)c1OC

>  <Name>  (481) 
nan

>  <Pocket>  (481) 
nan

>  <ATP_Site>  (481) 
nan

>  <Peripheral>  (481) 
nan

>  <Num_H_Atoms_ProtBoundConf>  (481) 
nan

>  <Num_Resolved_Atoms>  (481) 
nan

>  <Num_Not_Resolved_Atoms>  (481) 
nan

$$$$
CHEMBL1329441
     RDKit          3D

  0  0  0  0  0  0  0  0  0  0999 V3000
M  V30 BEGIN CTAB
M  V30 COUNTS 46 49 0 0 0
M  V30 BEGIN ATOM
M  V30 1 O 0.383952 0.553538 3.702460 0
M  V30 2 C -0.128947 -0.218950 2.855201 0
M  V30 3 N 0.513939 -1.449463 2.596895 0
M  V30 4 C 1.695009 -1.987957 3.156149 0
M  V30 5 C 2.506167 -1.415767 4.104707 0
M  V30 6 C 3.651245 -1.972231 4.626491 0
M  V30 7 C 4.043416 -3.214126 4.175396 0
M  V30 8 Cl 5.484191 -3.949319 4.810939 0
M  V30 9 C 3.256837 -3.825332 3.221846 0
M  V30 10 C 2.118572 -3.225198 2.731287 0
M  V30 11 N -1.323972 0.182556 2.203037 0
M  V30 12 C -2.017665 -0.633876 1.193007 0
M  V30 13 C -2.953981 0.238758 0.400383 0
M  V30 14 N -2.497176 1.535959 0.130324 0
M  V30 15 C -2.005741 1.790232 -1.175910 0
M  V30 16 C -0.856499 0.985461 -1.605947 0
M  V30 17 C 0.426378 1.479026 -1.343953 0
M  V30 18 C 1.548877 0.776736 -1.719582 0
M  V30 19 C 1.462113 -0.437737 -2.367273 0
M  V30 20 C 0.205247 -0.941488 -2.634749 0
M  V30 21 C -0.912713 -0.230712 -2.254579 0
M  V30 22 O 0.356438 -2.173876 -3.292144 0
M  V30 23 C 1.726518 -2.528778 -3.306853 0
M  V30 24 O 2.366228 -1.363450 -2.861848 0
M  V30 25 C -1.887455 2.247484 1.203541 0
M  V30 26 C -1.935294 1.461594 2.516098 0
M  V30 27 H 0.003537 -2.008908 1.879843 0
M  V30 28 H 2.250254 -0.445683 4.494602 0
M  V30 29 H 4.238163 -1.457097 5.373369 0
M  V30 30 H 3.530833 -4.799645 2.842734 0
M  V30 31 H 1.548760 -3.765352 1.982222 0
M  V30 32 H -1.322913 -1.205054 0.561460 0
M  V30 33 H -2.606734 -1.377914 1.779085 0
M  V30 34 H -3.913455 0.329486 0.988759 0
M  V30 35 H -3.235017 -0.279718 -0.516370 0
M  V30 36 H -1.770999 2.858632 -1.355759 0
M  V30 37 H -2.837031 1.544614 -1.890822 0
M  V30 38 H 0.656059 2.394180 -0.856388 0
M  V30 39 H 2.567693 1.106658 -1.544657 0
M  V30 40 H -1.886954 -0.631610 -2.467843 0
M  V30 41 H 2.109504 -2.727663 -4.328489 0
M  V30 42 H 1.977051 -3.327277 -2.585412 0
M  V30 43 H -0.846721 2.573335 1.002188 0
M  V30 44 H -2.460954 3.179507 1.383956 0
M  V30 45 H -1.350586 1.972443 3.280091 0
M  V30 46 H -2.987877 1.337511 2.800409 0
M  V30 END ATOM
M  V30 BEGIN BOND
M  V30 1 2 1 2
M  V30 2 1 2 3
M  V30 3 1 3 4
M  V30 4 2 4 5
M  V30 5 1 5 6
M  V30 6 2 6 7
M  V30 7 1 7 8
M  V30 8 1 7 9
M  V30 9 2 9 10
M  V30 10 1 2 11
M  V30 11 1 11 12
M  V30 12 1 12 13
M  V30 13 1 13 14
M  V30 14 1 14 15
M  V30 15 1 15 16
M  V30 16 2 16 17
M  V30 17 1 17 18
M  V30 18 2 18 19
M  V30 19 1 19 20
M  V30 20 2 20 21
M  V30 21 1 20 22
M  V30 22 1 22 23
M  V30 23 1 23 24
M  V30 24 1 14 25
M  V30 25 1 25 26
M  V30 26 1 10 4
M  V30 27 1 26 11
M  V30 28 1 21 16
M  V30 29 1 24 19
M  V30 30 1 3 27
M  V30 31 1 5 28
M  V30 32 1 6 29
M  V30 33 1 9 30
M  V30 34 1 10 31
M  V30 35 1 12 32
M  V30 36 1 12 33
M  V30 37 1 13 34
M  V30 38 1 13 35
M  V30 39 1 15 36
M  V30 40 1 15 37
M  V30 41 1 17 38
M  V30 42 1 18 39
M  V30 43 1 21 40
M  V30 44 1 23 41
M  V30 45 1 23 42
M  V30 46 1 25 43
M  V30 47 1 25 44
M  V30 48 1 26 45
M  V30 49 1 26 46
M  V30 END BOND
M  V30 END CTAB
M  END
>  <Dataset>  (482) 
ChEMBL_Kinases

>  <Ligand_Instance>  (482) 
nan

>  <PDB_ID>  (482) 
nan

>  <Standardized_SMILES>  (482) 
O=C(Nc1ccc(Cl)cc1)N1CCN(Cc2ccc3c(c2)OCO3)CC1

>  <Name>  (482) 
nan

>  <Pocket>  (482) 
nan

>  <ATP_Site>  (482) 
nan

>  <Peripheral>  (482) 
nan

>  <Num_H_Atoms_ProtBoundConf>  (482) 
nan

>  <Num_Resolved_Atoms>  (482) 
nan

>  <Num_Not_Resolved_Atoms>  (482) 
nan

$$$$
CHEMBL1329528
     RDKit          3D

  0  0  0  0  0  0  0  0  0  0999 V3000
M  V30 BEGIN CTAB
M  V30 COUNTS 32 33 0 0 0
M  V30 BEGIN ATOM
M  V30 1 C -2.597894 -4.144336 4.191771 0
M  V30 2 O -1.603270 -3.497643 3.391520 0
M  V30 3 C -1.601512 -3.540220 2.024116 0
M  V30 4 O -2.548446 -4.196660 1.519428 0
M  V30 5 C -0.475912 -2.797100 1.456911 0
M  V30 6 C 0.583358 -2.063422 1.999488 0
M  V30 7 C 1.278610 -1.628878 0.891167 0
M  V30 8 C 0.651654 -2.089248 -0.248073 0
M  V30 9 C 1.188727 -1.769209 -1.597593 0
M  V30 10 S 0.489340 -0.228256 -2.256600 0
M  V30 11 C 0.995971 1.185850 -1.310339 0
M  V30 12 C 2.129765 1.922362 -1.578087 0
M  V30 13 C 2.544313 3.027585 -0.854956 0
M  V30 14 C 1.733572 3.391462 0.211031 0
M  V30 15 C 0.601211 2.699816 0.521493 0
M  V30 16 C 0.237956 1.604260 -0.236911 0
M  V30 17 C -1.018627 0.912162 0.181780 0
M  V30 18 O -0.383955 -2.776935 0.144447 0
M  V30 19 H -3.569015 -3.790260 3.745178 0
M  V30 20 H -2.570355 -3.809558 5.228667 0
M  V30 21 H -2.590201 -5.231045 4.109692 0
M  V30 22 H 0.661460 -1.976034 3.075282 0
M  V30 23 H 2.172761 -1.020052 1.036166 0
M  V30 24 H 2.295365 -1.744229 -1.584827 0
M  V30 25 H 0.862068 -2.585114 -2.291873 0
M  V30 26 H 2.749808 1.627940 -2.408905 0
M  V30 27 H 3.458388 3.561393 -1.129852 0
M  V30 28 H 2.036170 4.264004 0.803534 0
M  V30 29 H 0.003690 3.034449 1.372840 0
M  V30 30 H -0.858123 0.598409 1.244017 0
M  V30 31 H -1.871625 1.649866 0.226383 0
M  V30 32 H -1.287366 0.064343 -0.469521 0
M  V30 END ATOM
M  V30 BEGIN BOND
M  V30 1 1 1 2
M  V30 2 1 2 3
M  V30 3 2 3 4
M  V30 4 1 3 5
M  V30 5 2 5 6
M  V30 6 1 6 7
M  V30 7 2 7 8
M  V30 8 1 8 9
M  V30 9 1 9 10
M  V30 10 1 10 11
M  V30 11 2 11 12
M  V30 12 1 12 13
M  V30 13 2 13 14
M  V30 14 1 14 15
M  V30 15 2 15 16
M  V30 16 1 16 17
M  V30 17 1 8 18
M  V30 18 1 18 5
M  V30 19 1 16 11
M  V30 20 1 1 19
M  V30 21 1 1 20
M  V30 22 1 1 21
M  V30 23 1 6 22
M  V30 24 1 7 23
M  V30 25 1 9 24
M  V30 26 1 9 25
M  V30 27 1 12 26
M  V30 28 1 13 27
M  V30 29 1 14 28
M  V30 30 1 15 29
M  V30 31 1 17 30
M  V30 32 1 17 31
M  V30 33 1 17 32
M  V30 END BOND
M  V30 END CTAB
M  END
>  <Dataset>  (483) 
ChEMBL_Kinases

>  <Ligand_Instance>  (483) 
nan

>  <PDB_ID>  (483) 
nan

>  <Standardized_SMILES>  (483) 
COC(=O)c1ccc(CSc2ccccc2C)o1

>  <Name>  (483) 
nan

>  <Pocket>  (483) 
nan

>  <ATP_Site>  (483) 
nan

>  <Peripheral>  (483) 
nan

>  <Num_H_Atoms_ProtBoundConf>  (483) 
nan

>  <Num_Resolved_Atoms>  (483) 
nan

>  <Num_Not_Resolved_Atoms>  (483) 
nan

$$$$
CHEMBL1329630
     RDKit          3D

  0  0  0  0  0  0  0  0  0  0999 V3000
M  V30 BEGIN CTAB
M  V30 COUNTS 58 61 0 0 0
M  V30 BEGIN ATOM
M  V30 1 C 3.117263 -4.346510 2.783582 0
M  V30 2 O 3.188392 -2.998955 3.204428 0
M  V30 3 C 3.243259 -1.967671 2.275571 0
M  V30 4 C 3.309904 -0.681940 2.787476 0
M  V30 5 C 3.370168 0.478548 2.015579 0
M  V30 6 C 3.362154 0.325153 0.647192 0
M  V30 7 C 3.417569 1.439073 -0.333635 0
M  V30 8 C 2.988308 2.737381 0.241019 0
M  V30 9 C 1.570053 2.893280 0.620548 0
M  V30 10 C 1.125979 4.353402 0.437035 0
M  V30 11 F 1.913714 5.178738 1.247128 0
M  V30 12 F -0.177506 4.550653 0.788168 0
M  V30 13 F 1.359722 4.792251 -0.861386 0
M  V30 14 N 0.654987 2.050842 -0.079985 0
M  V30 15 N -0.643865 1.918780 0.025209 0
M  V30 16 C -1.083592 0.986761 -0.858953 0
M  V30 17 C -2.491517 0.642265 -0.958286 0
M  V30 18 O -3.035117 1.170206 -1.964313 0
M  V30 19 N -3.523628 -0.093091 -0.322323 0
M  V30 20 C -4.785190 0.030504 -1.038839 0
M  V30 21 C -3.573402 -0.936844 0.879958 0
M  V30 22 C -3.293475 -2.347476 0.627502 0
M  V30 23 C -4.255954 -3.354378 0.532010 0
M  V30 24 N -3.676482 -4.531488 0.284290 0
M  V30 25 C -4.323692 -5.818742 0.115951 0
M  V30 26 N -2.349041 -4.363529 0.207004 0
M  V30 27 C -2.127407 -3.046475 0.415481 0
M  V30 28 C -0.751490 -2.494417 0.406729 0
M  V30 29 C -0.014505 0.488665 -1.575151 0
M  V30 30 Cl -0.066671 -0.710153 -2.818859 0
M  V30 31 C 1.043435 1.194354 -1.039866 0
M  V30 32 N 2.435147 1.109655 -1.380044 0
M  V30 33 C 3.296264 -0.955486 0.094020 0
M  V30 34 C 3.238259 -2.067678 0.906323 0
M  V30 35 H 4.102445 -4.788151 2.538558 0
M  V30 36 H 2.427531 -4.369566 1.908014 0
M  V30 37 H 2.730999 -4.943593 3.649093 0
M  V30 38 H 3.320986 -0.522195 3.855831 0
M  V30 39 H 3.420640 1.458070 2.414167 0
M  V30 40 H 4.389779 1.541954 -0.820673 0
M  V30 41 H 3.701436 2.977416 1.082740 0
M  V30 42 H 3.255007 3.523845 -0.527461 0
M  V30 43 H 1.438175 2.704101 1.723358 0
M  V30 44 H -4.844733 -0.708994 -1.860080 0
M  V30 45 H -4.885998 1.046629 -1.446983 0
M  V30 46 H -5.629429 -0.137282 -0.318455 0
M  V30 47 H -4.565037 -0.811479 1.362099 0
M  V30 48 H -2.858236 -0.485175 1.632030 0
M  V30 49 H -5.337797 -3.188254 0.645423 0
M  V30 50 H -5.330780 -5.842189 0.580215 0
M  V30 51 H -4.351639 -6.055579 -0.965162 0
M  V30 52 H -3.644840 -6.581472 0.581287 0
M  V30 53 H -0.818432 -1.428224 0.695199 0
M  V30 54 H -0.171053 -3.026975 1.217731 0
M  V30 55 H -0.236471 -2.660379 -0.565235 0
M  V30 56 H 2.693045 0.819722 -2.347903 0
M  V30 57 H 3.288117 -1.098143 -0.972824 0
M  V30 58 H 3.188848 -3.087617 0.515731 0
M  V30 END ATOM
M  V30 BEGIN BOND
M  V30 1 1 1 2
M  V30 2 1 2 3
M  V30 3 2 3 4
M  V30 4 1 4 5
M  V30 5 2 5 6
M  V30 6 1 6 7
M  V30 7 1 7 8
M  V30 8 1 8 9
M  V30 9 1 9 10
M  V30 10 1 10 11
M  V30 11 1 10 12
M  V30 12 1 10 13
M  V30 13 1 9 14
M  V30 14 1 14 15
M  V30 15 2 15 16
M  V30 16 1 16 17
M  V30 17 2 17 18
M  V30 18 1 17 19
M  V30 19 1 19 20
M  V30 20 1 19 21
M  V30 21 1 21 22
M  V30 22 2 22 23
M  V30 23 1 23 24
M  V30 24 1 24 25
M  V30 25 1 24 26
M  V30 26 2 26 27
M  V30 27 1 27 28
M  V30 28 1 16 29
M  V30 29 1 29 30
M  V30 30 2 29 31
M  V30 31 1 31 32
M  V30 32 1 6 33
M  V30 33 2 33 34
M  V30 34 1 34 3
M  V30 35 1 32 7
M  V30 36 1 31 14
M  V30 37 1 27 22
M  V30 38 1 1 35
M  V30 39 1 1 36
M  V30 40 1 1 37
M  V30 41 1 4 38
M  V30 42 1 5 39
M  V30 43 1 7 40
M  V30 44 1 8 41
M  V30 45 1 8 42
M  V30 46 1 9 43
M  V30 47 1 20 44
M  V30 48 1 20 45
M  V30 49 1 20 46
M  V30 50 1 21 47
M  V30 51 1 21 48
M  V30 52 1 23 49
M  V30 53 1 25 50
M  V30 54 1 25 51
M  V30 55 1 25 52
M  V30 56 1 28 53
M  V30 57 1 28 54
M  V30 58 1 28 55
M  V30 59 1 32 56
M  V30 60 1 33 57
M  V30 61 1 34 58
M  V30 END BOND
M  V30 END CTAB
M  END
>  <Dataset>  (484) 
ChEMBL_Kinases

>  <Ligand_Instance>  (484) 
nan

>  <PDB_ID>  (484) 
nan

>  <Standardized_SMILES>  (484) 
COc1ccc(C2CC(C(F)(F)F)n3nc(C(=O)N(C)Cc4cn(C)nc4C)c(Cl)c3N2)cc1

>  <Name>  (484) 
nan

>  <Pocket>  (484) 
nan

>  <ATP_Site>  (484) 
nan

>  <Peripheral>  (484) 
nan

>  <Num_H_Atoms_ProtBoundConf>  (484) 
nan

>  <Num_Resolved_Atoms>  (484) 
nan

>  <Num_Not_Resolved_Atoms>  (484) 
nan

$$$$
CHEMBL1329643
     RDKit          3D

  0  0  0  0  0  0  0  0  0  0999 V3000
M  V30 BEGIN CTAB
M  V30 COUNTS 31 33 0 0 0
M  V30 BEGIN ATOM
M  V30 1 C 0.597129 -2.835681 4.584367 0
M  V30 2 O -0.531130 -2.057315 4.226260 0
M  V30 3 C -0.579187 -1.419628 3.001058 0
M  V30 4 C 0.452848 -1.511935 2.088399 0
M  V30 5 C 0.345884 -0.852403 0.882139 0
M  V30 6 N 1.317357 -0.903936 -0.047725 0
M  V30 7 C 1.200117 -0.255323 -1.221196 0
M  V30 8 C 2.306027 -0.363634 -2.180371 0
M  V30 9 C 2.367566 0.204157 -3.382003 0
M  V30 10 C 3.470554 0.015092 -4.176495 0
M  V30 11 C 4.483601 -0.801394 -3.619826 0
M  V30 12 S 3.760006 -1.249772 -1.953171 0
M  V30 13 O 0.150122 0.449236 -1.514808 0
M  V30 14 C -0.876903 0.575400 -0.675247 0
M  V30 15 O -1.894747 1.251277 -0.945644 0
M  V30 16 C -0.774377 -0.090791 0.549055 0
M  V30 17 C -1.781065 -0.028137 1.494109 0
M  V30 18 C -1.707268 -0.676343 2.712963 0
M  V30 19 O -2.734413 -0.595777 3.643910 0
M  V30 20 C -3.892682 0.166523 3.349855 0
M  V30 21 H 1.466649 -2.185717 4.799574 0
M  V30 22 H 0.899153 -3.484150 3.719573 0
M  V30 23 H 0.391843 -3.515979 5.422952 0
M  V30 24 H 1.341108 -2.088861 2.298535 0
M  V30 25 H 1.556474 0.835358 -3.782643 0
M  V30 26 H 3.662698 0.407959 -5.166976 0
M  V30 27 H 5.447561 -1.084430 -4.078454 0
M  V30 28 H -2.643948 0.565171 1.224191 0
M  V30 29 H -4.739681 -0.109203 4.008119 0
M  V30 30 H -4.212673 -0.131295 2.326791 0
M  V30 31 H -3.693987 1.247218 3.328170 0
M  V30 END ATOM
M  V30 BEGIN BOND
M  V30 1 1 1 2
M  V30 2 1 2 3
M  V30 3 2 3 4
M  V30 4 1 4 5
M  V30 5 1 5 6
M  V30 6 2 6 7
M  V30 7 1 7 8
M  V30 8 2 8 9
M  V30 9 1 9 10
M  V30 10 2 10 11
M  V30 11 1 11 12
M  V30 12 1 7 13
M  V30 13 1 13 14
M  V30 14 2 14 15
M  V30 15 1 14 16
M  V30 16 1 16 17
M  V30 17 2 17 18
M  V30 18 1 18 19
M  V30 19 1 19 20
M  V30 20 1 18 3
M  V30 21 2 16 5
M  V30 22 1 12 8
M  V30 23 1 1 21
M  V30 24 1 1 22
M  V30 25 1 1 23
M  V30 26 1 4 24
M  V30 27 1 9 25
M  V30 28 1 10 26
M  V30 29 1 11 27
M  V30 30 1 17 28
M  V30 31 1 20 29
M  V30 32 1 20 30
M  V30 33 1 20 31
M  V30 END BOND
M  V30 END CTAB
M  END
>  <Dataset>  (485) 
ChEMBL_Kinases

>  <Ligand_Instance>  (485) 
nan

>  <PDB_ID>  (485) 
nan

>  <Standardized_SMILES>  (485) 
COc1cc2nc(-c3cccs3)oc(=O)c2cc1OC

>  <Name>  (485) 
nan

>  <Pocket>  (485) 
nan

>  <ATP_Site>  (485) 
nan

>  <Peripheral>  (485) 
nan

>  <Num_H_Atoms_ProtBoundConf>  (485) 
nan

>  <Num_Resolved_Atoms>  (485) 
nan

>  <Num_Not_Resolved_Atoms>  (485) 
nan

$$$$
CHEMBL1329690
     RDKit          3D

  0  0  0  0  0  0  0  0  0  0999 V3000
M  V30 BEGIN CTAB
M  V30 COUNTS 36 36 0 0 0
M  V30 BEGIN ATOM
M  V30 1 C -2.273738 -2.431450 1.160711 0
M  V30 2 C -1.295968 -2.936945 2.169385 0
M  V30 3 C -0.291772 -2.002691 2.699000 0
M  V30 4 C 0.746057 -1.390476 1.871930 0
M  V30 5 N 0.501632 -0.589391 0.764461 0
M  V30 6 C 0.053794 -1.129089 -0.451121 0
M  V30 7 C 0.959266 -0.816959 -1.637833 0 CFG=2
M  V30 8 O 2.150771 -1.535053 -1.603095 0
M  V30 9 C 1.174259 0.678781 -1.765254 0 CFG=1
M  V30 10 O 0.764917 1.166918 -3.008005 0
M  V30 11 C 0.470929 1.334877 -0.624439 0 CFG=2
M  V30 12 O 0.654888 2.717426 -0.586942 0
M  V30 13 C 1.053854 0.693879 0.648322 0 CFG=1
M  V30 14 C 0.766217 1.693922 1.722361 0
M  V30 15 O 1.220752 1.271447 2.938186 0
M  V30 16 H -2.137055 -2.870510 0.143020 0
M  V30 17 H -2.306281 -1.327992 1.144047 0
M  V30 18 H -3.308947 -2.811887 1.440406 0
M  V30 19 H -0.850240 -3.906164 1.810822 0
M  V30 20 H -1.908542 -3.280104 3.065839 0
M  V30 21 H 0.259760 -2.587317 3.522524 0
M  V30 22 H -0.857224 -1.253849 3.329957 0
M  V30 23 H 1.523135 -0.942283 2.588332 0
M  V30 24 H 1.348735 -2.298622 1.455145 0
M  V30 25 H 0.115289 -2.251012 -0.367918 0
M  V30 26 H -0.953980 -0.861922 -0.793322 0
M  V30 27 H 0.411545 -1.137075 -2.542301 0
M  V30 28 H 2.528045 -1.595380 -0.690137 0
M  V30 29 H 2.257770 0.863493 -1.657567 0
M  V30 30 H 0.108541 0.512626 -3.376439 0
M  V30 31 H -0.616348 1.132668 -0.688923 0
M  V30 32 H 0.470511 3.100018 -1.470032 0
M  V30 33 H 2.170577 0.676564 0.517858 0
M  V30 34 H -0.285544 2.044854 1.722064 0
M  V30 35 H 1.359618 2.611966 1.439373 0
M  V30 36 H 2.228444 1.329859 2.904566 0
M  V30 END ATOM
M  V30 BEGIN BOND
M  V30 1 1 1 2
M  V30 2 1 2 3
M  V30 3 1 3 4
M  V30 4 1 4 5
M  V30 5 1 5 6
M  V30 6 1 6 7
M  V30 7 1 7 8
M  V30 8 1 7 9
M  V30 9 1 9 10
M  V30 10 1 9 11
M  V30 11 1 11 12
M  V30 12 1 11 13
M  V30 13 1 13 14
M  V30 14 1 14 15
M  V30 15 1 13 5
M  V30 16 1 1 16
M  V30 17 1 1 17
M  V30 18 1 1 18
M  V30 19 1 2 19
M  V30 20 1 2 20
M  V30 21 1 3 21
M  V30 22 1 3 22
M  V30 23 1 4 23
M  V30 24 1 4 24
M  V30 25 1 6 25
M  V30 26 1 6 26
M  V30 27 1 7 27 CFG=3
M  V30 28 1 8 28
M  V30 29 1 9 29 CFG=1
M  V30 30 1 10 30
M  V30 31 1 11 31 CFG=3
M  V30 32 1 12 32
M  V30 33 1 13 33 CFG=3
M  V30 34 1 14 34
M  V30 35 1 14 35
M  V30 36 1 15 36
M  V30 END BOND
M  V30 END CTAB
M  END
>  <Dataset>  (486) 
ChEMBL_Kinases

>  <Ligand_Instance>  (486) 
nan

>  <PDB_ID>  (486) 
nan

>  <Standardized_SMILES>  (486) 
CCCCN1C[C@H](O)[C@@H](O)[C@H](O)[C@H]1CO

>  <Name>  (486) 
nan

>  <Pocket>  (486) 
nan

>  <ATP_Site>  (486) 
nan

>  <Peripheral>  (486) 
nan

>  <Num_H_Atoms_ProtBoundConf>  (486) 
nan

>  <Num_Resolved_Atoms>  (486) 
nan

>  <Num_Not_Resolved_Atoms>  (486) 
nan

$$$$
CHEMBL1329961
     RDKit          3D

  0  0  0  0  0  0  0  0  0  0999 V3000
M  V30 BEGIN CTAB
M  V30 COUNTS 32 35 0 0 0
M  V30 BEGIN ATOM
M  V30 1 C -2.130754 -3.468950 2.351565 0
M  V30 2 C -1.183901 -3.020470 3.227141 0
M  V30 3 C -0.037188 -2.566713 2.588415 0
M  V30 4 C 0.169204 -2.551633 1.199239 0
M  V30 5 N 1.309837 -2.065444 0.599816 0
M  V30 6 C 2.036084 -1.038584 -0.005644 0
M  V30 7 N 3.263784 -1.407090 -0.387867 0
M  V30 8 C 4.193678 -0.696588 -0.993322 0
M  V30 9 N 3.828632 0.560174 -1.246122 0
M  V30 10 C 2.619556 0.932105 -0.872227 0
M  V30 11 S 1.895533 2.613370 -1.123490 0
M  V30 12 C 0.372178 2.239966 -0.384605 0
M  V30 13 C 0.411227 0.893060 0.035871 0
M  V30 14 C 1.579634 0.237654 -0.226429 0
M  V30 15 C -0.886474 0.652724 0.639300 0
M  V30 16 C -1.304677 1.997857 1.192612 0
M  V30 17 C -0.958525 2.856294 -0.035374 0
M  V30 18 C -0.887542 -3.040315 0.460087 0
M  V30 19 C -2.097857 -3.527575 0.977811 0
M  V30 20 H -3.059901 -3.839591 2.792814 0
M  V30 21 H -1.287659 -3.007815 4.298190 0
M  V30 22 H 0.808522 -2.177109 3.170306 0
M  V30 23 H 1.733064 -3.017140 0.722710 0
M  V30 24 H 5.166475 -1.027516 -1.283664 0
M  V30 25 H -1.019173 -0.153384 1.325700 0
M  V30 26 H -1.618716 0.464252 -0.203230 0
M  V30 27 H -0.675812 2.211577 2.053467 0
M  V30 28 H -2.389478 2.011081 1.371886 0
M  V30 29 H -1.659217 2.622023 -0.830698 0
M  V30 30 H -0.844780 3.908751 0.243386 0
M  V30 31 H -0.752489 -3.040056 -0.615372 0
M  V30 32 H -2.895380 -3.899213 0.365100 0
M  V30 END ATOM
M  V30 BEGIN BOND
M  V30 1 2 1 2
M  V30 2 1 2 3
M  V30 3 2 3 4
M  V30 4 1 4 5
M  V30 5 1 5 6
M  V30 6 2 6 7
M  V30 7 1 7 8
M  V30 8 2 8 9
M  V30 9 1 9 10
M  V30 10 1 10 11
M  V30 11 1 11 12
M  V30 12 2 12 13
M  V30 13 1 13 14
M  V30 14 1 13 15
M  V30 15 1 15 16
M  V30 16 1 16 17
M  V30 17 1 4 18
M  V30 18 2 18 19
M  V30 19 1 19 1
M  V30 20 1 14 6
M  V30 21 2 14 10
M  V30 22 1 17 12
M  V30 23 1 1 20
M  V30 24 1 2 21
M  V30 25 1 3 22
M  V30 26 1 5 23
M  V30 27 1 8 24
M  V30 28 1 15 25
M  V30 29 1 15 26
M  V30 30 1 16 27
M  V30 31 1 16 28
M  V30 32 1 17 29
M  V30 33 1 17 30
M  V30 34 1 18 31
M  V30 35 1 19 32
M  V30 END BOND
M  V30 END CTAB
M  END
>  <Dataset>  (487) 
ChEMBL_Kinases

>  <Ligand_Instance>  (487) 
nan

>  <PDB_ID>  (487) 
nan

>  <Standardized_SMILES>  (487) 
c1ccc(Nc2ncnc3sc4c(c23)CCC4)cc1

>  <Name>  (487) 
nan

>  <Pocket>  (487) 
nan

>  <ATP_Site>  (487) 
nan

>  <Peripheral>  (487) 
nan

>  <Num_H_Atoms_ProtBoundConf>  (487) 
nan

>  <Num_Resolved_Atoms>  (487) 
nan

>  <Num_Not_Resolved_Atoms>  (487) 
nan

$$$$
CHEMBL1330081
     RDKit          3D

  0  0  0  0  0  0  0  0  0  0999 V3000
M  V30 BEGIN CTAB
M  V30 COUNTS 54 58 0 0 0
M  V30 BEGIN ATOM
M  V30 1 O 0.034776 0.272894 1.831012 0
M  V30 2 C 0.219524 0.107247 0.608914 0
M  V30 3 N 1.472837 -0.385656 0.190214 0
M  V30 4 C 2.685967 -0.774564 0.814969 0
M  V30 5 C 3.464437 0.238649 1.577009 0
M  V30 6 C 2.902373 0.759166 2.835754 0
M  V30 7 O 2.396422 2.040458 2.740611 0
M  V30 8 C 2.178884 2.658923 1.540635 0
M  V30 9 C 1.208122 3.639861 1.441886 0
M  V30 10 C 1.037507 4.225932 0.201096 0
M  V30 11 C 1.763373 3.897295 -0.922363 0
M  V30 12 C 2.727773 2.907426 -0.778577 0
M  V30 13 C 2.928738 2.296222 0.449079 0
M  V30 14 O 3.840215 1.309454 0.738006 0
M  V30 15 C -0.946467 0.470142 -0.194728 0
M  V30 16 C -2.053662 0.946751 0.684295 0
M  V30 17 C -3.118396 -0.066329 0.995656 0
M  V30 18 C -3.438386 -0.945742 -0.197199 0
M  V30 19 N -2.213921 -1.559898 -0.580974 0
M  V30 20 S -2.293097 -3.070639 -1.326277 0
M  V30 21 O -1.678000 -3.092459 -2.697708 0
M  V30 22 O -3.730804 -3.524411 -1.521708 0
M  V30 23 C -1.543374 -4.280664 -0.318532 0
M  V30 24 C -0.471687 -4.965562 -0.790418 0
M  V30 25 C 0.102438 -5.912905 0.022462 0
M  V30 26 C -0.411667 -6.138612 1.266390 0
M  V30 27 C -1.485316 -5.430120 1.698009 0
M  V30 28 N -1.985541 -5.712542 3.019676 0
M  V30 29 S -3.386915 -4.520711 3.088814 0
M  V30 30 N -3.204315 -3.844969 1.557094 0
M  V30 31 C -2.047546 -4.509560 0.915182 0
M  V30 32 C -1.358359 -0.594905 -1.176938 0
M  V30 33 H 1.419660 -0.456592 -0.879492 0
M  V30 34 H 3.347794 -1.258943 0.048768 0
M  V30 35 H 2.435733 -1.663762 1.492001 0
M  V30 36 H 4.424237 -0.324307 1.889829 0
M  V30 37 H 3.765621 0.849146 3.588450 0
M  V30 38 H 2.235132 0.037910 3.362718 0
M  V30 39 H 0.593826 3.953625 2.287230 0
M  V30 40 H 0.287044 5.000696 0.076123 0
M  V30 41 H 1.631135 4.352081 -1.885913 0
M  V30 42 H 3.349100 2.578172 -1.595956 0
M  V30 43 H -0.633763 1.352926 -0.818069 0
M  V30 44 H -1.620128 1.284407 1.656609 0
M  V30 45 H -2.562709 1.858396 0.261942 0
M  V30 46 H -2.873436 -0.724768 1.844057 0
M  V30 47 H -4.048734 0.484721 1.256323 0
M  V30 48 H -3.865586 -0.326108 -1.034778 0
M  V30 49 H -4.168200 -1.700751 0.121018 0
M  V30 50 H -0.088698 -4.762609 -1.781082 0
M  V30 51 H 0.951529 -6.438088 -0.383413 0
M  V30 52 H 0.112445 -6.896744 1.812711 0
M  V30 53 H -1.902869 -0.077761 -2.009468 0
M  V30 54 H -0.494106 -1.085271 -1.612250 0
M  V30 END ATOM
M  V30 BEGIN BOND
M  V30 1 2 1 2
M  V30 2 1 2 3
M  V30 3 1 3 4
M  V30 4 1 4 5
M  V30 5 1 5 6
M  V30 6 1 6 7
M  V30 7 1 7 8
M  V30 8 2 8 9
M  V30 9 1 9 10
M  V30 10 2 10 11
M  V30 11 1 11 12
M  V30 12 2 12 13
M  V30 13 1 13 14
M  V30 14 1 2 15
M  V30 15 1 15 16
M  V30 16 1 16 17
M  V30 17 1 17 18
M  V30 18 1 18 19
M  V30 19 1 19 20
M  V30 20 2 20 21
M  V30 21 2 20 22
M  V30 22 1 20 23
M  V30 23 2 23 24
M  V30 24 1 24 25
M  V30 25 2 25 26
M  V30 26 1 26 27
M  V30 27 2 27 28
M  V30 28 1 28 29
M  V30 29 1 29 30
M  V30 30 2 30 31
M  V30 31 1 19 32
M  V30 32 1 14 5
M  V30 33 1 32 15
M  V30 34 1 13 8
M  V30 35 1 31 23
M  V30 36 1 31 27
M  V30 37 1 3 33
M  V30 38 1 4 34
M  V30 39 1 4 35
M  V30 40 1 5 36
M  V30 41 1 6 37
M  V30 42 1 6 38
M  V30 43 1 9 39
M  V30 44 1 10 40
M  V30 45 1 11 41
M  V30 46 1 12 42
M  V30 47 1 15 43
M  V30 48 1 16 44
M  V30 49 1 16 45
M  V30 50 1 17 46
M  V30 51 1 17 47
M  V30 52 1 18 48
M  V30 53 1 18 49
M  V30 54 1 24 50
M  V30 55 1 25 51
M  V30 56 1 26 52
M  V30 57 1 32 53
M  V30 58 1 32 54
M  V30 END BOND
M  V30 END CTAB
M  END
>  <Dataset>  (488) 
ChEMBL_Kinases

>  <Ligand_Instance>  (488) 
nan

>  <PDB_ID>  (488) 
nan

>  <Standardized_SMILES>  (488) 
O=C(NCC1COc2ccccc2O1)C1CCCN(S(=O)(=O)c2cccc3nsnc23)C1

>  <Name>  (488) 
nan

>  <Pocket>  (488) 
nan

>  <ATP_Site>  (488) 
nan

>  <Peripheral>  (488) 
nan

>  <Num_H_Atoms_ProtBoundConf>  (488) 
nan

>  <Num_Resolved_Atoms>  (488) 
nan

>  <Num_Not_Resolved_Atoms>  (488) 
nan

$$$$
CHEMBL1329408
     RDKit          3D

  0  0  0  0  0  0  0  0  0  0999 V3000
M  V30 BEGIN CTAB
M  V30 COUNTS 33 35 0 0 0
M  V30 BEGIN ATOM
M  V30 1 N 1.320593 -0.383851 4.254030 0
M  V30 2 C 0.872434 -0.511789 2.909083 0
M  V30 3 N 1.106061 -1.659065 2.205021 0
M  V30 4 C 0.665805 -1.755445 0.917731 0
M  V30 5 C 0.926907 -2.985510 0.191349 0
M  V30 6 C 1.609212 -3.975008 0.868188 0
M  V30 7 C 1.891266 -5.183599 0.222799 0
M  V30 8 C 1.479008 -5.368270 -1.091653 0
M  V30 9 C 0.795343 -4.394477 -1.790294 0
M  V30 10 C 0.543674 -3.222156 -1.105745 0
M  V30 11 C 0.003743 -0.662054 0.415237 0
M  V30 12 C -0.239915 0.496369 1.105422 0
M  V30 13 C -0.930978 1.671031 0.619666 0
M  V30 14 C -1.071437 2.741032 1.483660 0
M  V30 15 C -1.708403 3.911847 1.137971 0
M  V30 16 C -2.251997 4.083474 -0.115483 0
M  V30 17 C -2.135315 3.043361 -1.008375 0
M  V30 18 C -1.490309 1.897101 -0.612772 0
M  V30 19 O -1.415717 0.904097 -1.563543 0
M  V30 20 N 0.217218 0.522792 2.356816 0
M  V30 21 H 2.043680 0.012614 4.871914 0
M  V30 22 H 0.561622 -0.938528 4.736797 0
M  V30 23 H 1.958318 -3.890076 1.898601 0
M  V30 24 H 2.424617 -5.980227 0.725094 0
M  V30 25 H 1.702137 -6.315167 -1.591544 0
M  V30 26 H 0.488262 -4.561563 -2.803571 0
M  V30 27 H 0.008596 -2.456046 -1.647982 0
M  V30 28 H -0.326356 -0.762496 -0.582580 0
M  V30 29 H -0.686714 2.728560 2.497025 0
M  V30 30 H -1.806576 4.733223 1.826972 0
M  V30 31 H -2.746837 5.010365 -0.363950 0
M  V30 32 H -2.550426 3.158726 -1.983760 0
M  V30 33 H -1.316538 1.108662 -2.547015 0
M  V30 END ATOM
M  V30 BEGIN BOND
M  V30 1 1 1 2
M  V30 2 2 2 3
M  V30 3 1 3 4
M  V30 4 1 4 5
M  V30 5 2 5 6
M  V30 6 1 6 7
M  V30 7 2 7 8
M  V30 8 1 8 9
M  V30 9 2 9 10
M  V30 10 2 4 11
M  V30 11 1 11 12
M  V30 12 1 12 13
M  V30 13 2 13 14
M  V30 14 1 14 15
M  V30 15 2 15 16
M  V30 16 1 16 17
M  V30 17 2 17 18
M  V30 18 1 18 19
M  V30 19 2 12 20
M  V30 20 1 20 2
M  V30 21 1 10 5
M  V30 22 1 18 13
M  V30 23 1 1 21
M  V30 24 1 1 22
M  V30 25 1 6 23
M  V30 26 1 7 24
M  V30 27 1 8 25
M  V30 28 1 9 26
M  V30 29 1 10 27
M  V30 30 1 11 28
M  V30 31 1 14 29
M  V30 32 1 15 30
M  V30 33 1 16 31
M  V30 34 1 17 32
M  V30 35 1 19 33
M  V30 END BOND
M  V30 END CTAB
M  END
>  <Dataset>  (489) 
ChEMBL_Kinases

>  <Ligand_Instance>  (489) 
nan

>  <PDB_ID>  (489) 
nan

>  <Standardized_SMILES>  (489) 
Nc1nc(-c2ccccc2)cc(-c2ccccc2O)n1

>  <Name>  (489) 
nan

>  <Pocket>  (489) 
nan

>  <ATP_Site>  (489) 
nan

>  <Peripheral>  (489) 
nan

>  <Num_H_Atoms_ProtBoundConf>  (489) 
nan

>  <Num_Resolved_Atoms>  (489) 
nan

>  <Num_Not_Resolved_Atoms>  (489) 
nan

$$$$
CHEMBL1333512
     RDKit          3D

  0  0  0  0  0  0  0  0  0  0999 V3000
M  V30 BEGIN CTAB
M  V30 COUNTS 36 38 0 0 0
M  V30 BEGIN ATOM
M  V30 1 C -0.427918 -3.845386 5.529645 0
M  V30 2 C -0.755118 -4.861409 4.658406 0
M  V30 3 C -0.559225 -4.733677 3.302765 0
M  V30 4 C -0.029512 -3.594698 2.736568 0
M  V30 5 N 0.171779 -3.508825 1.334195 0
M  V30 6 C 0.268593 -2.391364 0.466566 0
M  V30 7 C 0.898206 -2.521338 -0.751499 0
M  V30 8 C 1.000402 -1.470204 -1.626293 0
M  V30 9 C 0.485897 -0.221086 -1.352623 0
M  V30 10 N 0.614857 0.814478 -2.310503 0
M  V30 11 C 0.579662 2.225489 -2.173436 0
M  V30 12 C 0.863313 2.908831 -1.012256 0
M  V30 13 C 0.809915 4.279655 -0.877427 0
M  V30 14 C 0.453120 5.047268 -1.956357 0
M  V30 15 C 0.163254 4.396323 -3.133701 0
M  V30 16 C 0.231739 3.031052 -3.213145 0
M  V30 17 C -0.148249 -0.073447 -0.138258 0
M  V30 18 C -0.241641 -1.140677 0.728543 0
M  V30 19 C 0.282246 -2.610010 3.636607 0
M  V30 20 C 0.105625 -2.688235 5.001144 0
M  V30 21 H -0.601046 -3.995039 6.582159 0
M  V30 22 H -1.177091 -5.781169 5.060487 0
M  V30 23 H -0.834095 -5.567090 2.649890 0
M  V30 24 H 0.265858 -4.457602 0.857256 0
M  V30 25 H 1.317942 -3.491816 -1.005417 0
M  V30 26 H 1.515548 -1.670084 -2.563849 0
M  V30 27 H 0.762935 0.495663 -3.298538 0
M  V30 28 H 1.161864 2.393529 -0.121952 0
M  V30 29 H 1.038048 4.786942 0.047885 0
M  V30 30 H 0.398597 6.120055 -1.895725 0
M  V30 31 H -0.114279 5.020129 -3.967366 0
M  V30 32 H -0.018521 2.631870 -4.191382 0
M  V30 33 H -0.586545 0.872737 0.143377 0
M  V30 34 H -0.759370 -0.959383 1.655556 0
M  V30 35 H 0.711712 -1.682725 3.314149 0
M  V30 36 H 0.365162 -1.885627 5.679513 0
M  V30 END ATOM
M  V30 BEGIN BOND
M  V30 1 2 1 2
M  V30 2 1 2 3
M  V30 3 2 3 4
M  V30 4 1 4 5
M  V30 5 1 5 6
M  V30 6 2 6 7
M  V30 7 1 7 8
M  V30 8 2 8 9
M  V30 9 1 9 10
M  V30 10 1 10 11
M  V30 11 2 11 12
M  V30 12 1 12 13
M  V30 13 2 13 14
M  V30 14 1 14 15
M  V30 15 2 15 16
M  V30 16 1 9 17
M  V30 17 2 17 18
M  V30 18 1 4 19
M  V30 19 2 19 20
M  V30 20 1 20 1
M  V30 21 1 18 6
M  V30 22 1 16 11
M  V30 23 1 1 21
M  V30 24 1 2 22
M  V30 25 1 3 23
M  V30 26 1 5 24
M  V30 27 1 7 25
M  V30 28 1 8 26
M  V30 29 1 10 27
M  V30 30 1 12 28
M  V30 31 1 13 29
M  V30 32 1 14 30
M  V30 33 1 15 31
M  V30 34 1 16 32
M  V30 35 1 17 33
M  V30 36 1 18 34
M  V30 37 1 19 35
M  V30 38 1 20 36
M  V30 END BOND
M  V30 END CTAB
M  END
>  <Dataset>  (490) 
ChEMBL_Kinases

>  <Ligand_Instance>  (490) 
nan

>  <PDB_ID>  (490) 
nan

>  <Standardized_SMILES>  (490) 
c1ccc(Nc2ccc(Nc3ccccc3)cc2)cc1

>  <Name>  (490) 
N,N'-DIPHENYL-P-PHENYLENEDIAMINE

>  <Pocket>  (490) 
nan

>  <ATP_Site>  (490) 
nan

>  <Peripheral>  (490) 
nan

>  <Num_H_Atoms_ProtBoundConf>  (490) 
nan

>  <Num_Resolved_Atoms>  (490) 
nan

>  <Num_Not_Resolved_Atoms>  (490) 
nan

$$$$
CHEMBL1333384
     RDKit          3D

  0  0  0  0  0  0  0  0  0  0999 V3000
M  V30 BEGIN CTAB
M  V30 COUNTS 32 33 0 0 0
M  V30 BEGIN ATOM
M  V30 1 N -0.979267 -2.326863 4.223079 0
M  V30 2 C -0.777595 -2.443571 2.833610 0
M  V30 3 N 0.453869 -2.686515 2.411998 0
M  V30 4 C 0.768043 -2.817592 1.118242 0
M  V30 5 N 2.082084 -3.077107 0.692607 0
M  V30 6 C -0.189377 -2.704433 0.143663 0
M  V30 7 N -0.001368 -2.818883 -1.259043 0
M  V30 8 N 0.335544 -1.767170 -1.880832 0
M  V30 9 C 0.506561 -0.565226 -1.190509 0
M  V30 10 C 1.745986 -0.118803 -0.720234 0
M  V30 11 C 1.973587 1.055692 -0.035415 0
M  V30 12 C 0.884843 1.865548 0.209941 0
M  V30 13 C 1.044850 3.124491 0.928855 0
M  V30 14 O 0.057413 3.857109 1.150558 0
M  V30 15 O 2.309746 3.503590 1.366708 0
M  V30 16 C -0.379812 1.513691 -0.213156 0
M  V30 17 O -1.467161 2.335806 0.039152 0
M  V30 18 C -0.515525 0.316658 -0.893597 0
M  V30 19 C -1.487823 -2.447999 0.593932 0
M  V30 20 N -2.627887 -2.296146 -0.243381 0
M  V30 21 N -1.728352 -2.328681 1.911110 0
M  V30 22 H -0.839020 -1.555711 4.915145 0
M  V30 23 H -1.348334 -3.108926 4.828215 0
M  V30 24 H 3.014820 -2.710588 0.417333 0
M  V30 25 H 2.537281 -4.001348 0.504532 0
M  V30 26 H 2.618688 -0.749442 -0.906893 0
M  V30 27 H 2.975498 1.305876 0.284018 0
M  V30 28 H 2.551302 4.490333 1.455674 0
M  V30 29 H -1.826042 2.383610 0.992480 0
M  V30 30 H -1.520172 0.086557 -1.203149 0
M  V30 31 H -3.496191 -2.843380 0.033028 0
M  V30 32 H -2.978304 -1.814878 -1.100301 0
M  V30 END ATOM
M  V30 BEGIN BOND
M  V30 1 1 1 2
M  V30 2 2 2 3
M  V30 3 1 3 4
M  V30 4 1 4 5
M  V30 5 2 4 6
M  V30 6 1 6 7
M  V30 7 2 7 8
M  V30 8 1 8 9
M  V30 9 2 9 10
M  V30 10 1 10 11
M  V30 11 2 11 12
M  V30 12 1 12 13
M  V30 13 2 13 14
M  V30 14 1 13 15
M  V30 15 1 12 16
M  V30 16 1 16 17
M  V30 17 2 16 18
M  V30 18 1 6 19
M  V30 19 1 19 20
M  V30 20 2 19 21
M  V30 21 1 21 2
M  V30 22 1 18 9
M  V30 23 1 1 22
M  V30 24 1 1 23
M  V30 25 1 5 24
M  V30 26 1 5 25
M  V30 27 1 10 26
M  V30 28 1 11 27
M  V30 29 1 15 28
M  V30 30 1 17 29
M  V30 31 1 18 30
M  V30 32 1 20 31
M  V30 33 1 20 32
M  V30 END BOND
M  V30 END CTAB
M  END
>  <Dataset>  (491) 
ChEMBL_Kinases

>  <Ligand_Instance>  (491) 
nan

>  <PDB_ID>  (491) 
nan

>  <Standardized_SMILES>  (491) 
Nc1nc(N)c(/N=N\c2ccc(C(=O)O)c(O)c2)c(N)n1

>  <Name>  (491) 
nan

>  <Pocket>  (491) 
nan

>  <ATP_Site>  (491) 
nan

>  <Peripheral>  (491) 
nan

>  <Num_H_Atoms_ProtBoundConf>  (491) 
nan

>  <Num_Resolved_Atoms>  (491) 
nan

>  <Num_Not_Resolved_Atoms>  (491) 
nan

$$$$
CHEMBL1333358
     RDKit          3D

  0  0  0  0  0  0  0  0  0  0999 V3000
M  V30 BEGIN CTAB
M  V30 COUNTS 32 32 0 0 0
M  V30 BEGIN ATOM
M  V30 1 C -0.227576 -3.462498 1.034449 0
M  V30 2 C 0.648630 -3.059416 2.201951 0
M  V30 3 C -0.127745 -2.140354 3.082342 0
M  V30 4 N 1.934636 -2.597227 1.782680 0
M  V30 5 C 1.923037 -1.522520 0.817334 0
M  V30 6 N 3.094089 -1.052882 0.299456 0
M  V30 7 C 3.107320 -0.063324 -0.620312 0
M  V30 8 C 4.304453 0.465125 -1.203529 0
M  V30 9 N 5.261477 0.909691 -1.675722 0
M  V30 10 N 1.942801 0.481361 -1.043680 0
M  V30 11 C 0.757613 0.044608 -0.554483 0
M  V30 12 N -0.595839 0.384762 -0.800141 0
M  V30 13 C -1.289685 1.561334 -0.374678 0
M  V30 14 C -1.151838 1.831910 1.114607 0
M  V30 15 C -2.799787 1.408562 -0.590989 0
M  V30 16 N 0.772464 -0.944335 0.362578 0
M  V30 17 H 0.324344 -3.773247 0.142980 0
M  V30 18 H -0.969352 -2.643034 0.805767 0
M  V30 19 H -0.840211 -4.323000 1.352937 0
M  V30 20 H 0.841751 -4.005098 2.785890 0
M  V30 21 H 0.351169 -1.967588 4.069505 0
M  V30 22 H -0.423961 -1.230682 2.544026 0
M  V30 23 H -1.101804 -2.669785 3.297044 0
M  V30 24 H 2.845059 -2.943116 2.091676 0
M  V30 25 H -1.135780 -0.333760 -1.367695 0
M  V30 26 H -0.961228 2.422104 -0.945384 0
M  V30 27 H -0.803708 0.948134 1.662819 0
M  V30 28 H -2.097993 2.152714 1.590407 0
M  V30 29 H -0.402249 2.641064 1.282992 0
M  V30 30 H -3.266187 2.259825 -0.016788 0
M  V30 31 H -3.058730 1.395617 -1.645821 0
M  V30 32 H -3.157283 0.480754 -0.074847 0
M  V30 END ATOM
M  V30 BEGIN BOND
M  V30 1 1 1 2
M  V30 2 1 2 3
M  V30 3 1 2 4
M  V30 4 1 4 5
M  V30 5 2 5 6
M  V30 6 1 6 7
M  V30 7 1 7 8
M  V30 8 3 8 9
M  V30 9 2 7 10
M  V30 10 1 10 11
M  V30 11 1 11 12
M  V30 12 1 12 13
M  V30 13 1 13 14
M  V30 14 1 13 15
M  V30 15 2 11 16
M  V30 16 1 16 5
M  V30 17 1 1 17
M  V30 18 1 1 18
M  V30 19 1 1 19
M  V30 20 1 2 20
M  V30 21 1 3 21
M  V30 22 1 3 22
M  V30 23 1 3 23
M  V30 24 1 4 24
M  V30 25 1 12 25
M  V30 26 1 13 26
M  V30 27 1 14 27
M  V30 28 1 14 28
M  V30 29 1 14 29
M  V30 30 1 15 30
M  V30 31 1 15 31
M  V30 32 1 15 32
M  V30 END BOND
M  V30 END CTAB
M  END
>  <Dataset>  (492) 
ChEMBL_Kinases

>  <Ligand_Instance>  (492) 
nan

>  <PDB_ID>  (492) 
nan

>  <Standardized_SMILES>  (492) 
CC(C)Nc1nc(C#N)nc(NC(C)C)n1

>  <Name>  (492) 
nan

>  <Pocket>  (492) 
nan

>  <ATP_Site>  (492) 
nan

>  <Peripheral>  (492) 
nan

>  <Num_H_Atoms_ProtBoundConf>  (492) 
nan

>  <Num_Resolved_Atoms>  (492) 
nan

>  <Num_Not_Resolved_Atoms>  (492) 
nan

$$$$
CHEMBL1333353
     RDKit          3D

  0  0  0  0  0  0  0  0  0  0999 V3000
M  V30 BEGIN CTAB
M  V30 COUNTS 44 46 0 0 0
M  V30 BEGIN ATOM
M  V30 1 O -0.818891 -2.770163 0.817756 0
M  V30 2 C 0.268247 -2.505896 0.243486 0
M  V30 3 C 1.531424 -3.193960 0.477956 0
M  V30 4 C 2.135125 -4.196501 -0.249057 0
M  V30 5 C 3.358494 -4.698067 0.181127 0
M  V30 6 C 3.960653 -4.186477 1.335810 0
M  V30 7 C 3.363246 -3.177002 2.076656 0
M  V30 8 F 3.991674 -2.716213 3.190910 0
M  V30 9 C 2.131749 -2.683503 1.629000 0
M  V30 10 N 0.249503 -1.438353 -0.714515 0
M  V30 11 C -1.033963 -0.763394 -0.908340 0
M  V30 12 C -0.782325 0.753735 -0.954288 0
M  V30 13 N 0.573336 1.008702 -0.690287 0
M  V30 14 S 1.052371 2.108444 0.461186 0
M  V30 15 O 0.646842 3.535147 0.150944 0
M  V30 16 O 2.591521 2.133863 0.497394 0
M  V30 17 C 0.564102 1.740676 2.113370 0
M  V30 18 C -0.888006 1.634803 2.335577 0
M  V30 19 C -1.581018 0.418381 2.356504 0
M  V30 20 C -2.962766 0.373225 2.569466 0
M  V30 21 C -3.626602 1.542293 2.757662 0
M  V30 22 C -2.952578 2.755717 2.739780 0
M  V30 23 C -1.590267 2.827687 2.531808 0
M  V30 24 C 1.535894 0.465500 -1.576822 0
M  V30 25 C 1.440656 -1.061758 -1.449241 0
M  V30 26 H 1.561871 -4.494111 -1.111989 0
M  V30 27 H 3.771871 -5.480446 -0.436499 0
M  V30 28 H 4.911254 -4.614150 1.621916 0
M  V30 29 H 1.764244 -1.904724 2.281222 0
M  V30 30 H -1.425136 -1.129056 -1.890861 0
M  V30 31 H -1.765430 -1.032597 -0.132491 0
M  V30 32 H -1.091371 1.082835 -2.004443 0
M  V30 33 H -1.459831 1.309921 -0.304175 0
M  V30 34 H 1.006077 2.543637 2.778922 0
M  V30 35 H 1.086459 0.775965 2.391024 0
M  V30 36 H -0.932943 -0.414626 2.196526 0
M  V30 37 H -3.319527 -0.647125 2.552660 0
M  V30 38 H -4.674136 1.412233 2.910201 0
M  V30 39 H -3.601342 3.625290 2.903536 0
M  V30 40 H -1.165453 3.825144 2.536669 0
M  V30 41 H 2.536035 0.731392 -1.248372 0
M  V30 42 H 1.405118 0.782703 -2.634357 0
M  V30 43 H 1.306445 -1.459931 -2.497550 0
M  V30 44 H 2.325259 -1.490059 -0.958194 0
M  V30 END ATOM
M  V30 BEGIN BOND
M  V30 1 2 1 2
M  V30 2 1 2 3
M  V30 3 2 3 4
M  V30 4 1 4 5
M  V30 5 2 5 6
M  V30 6 1 6 7
M  V30 7 1 7 8
M  V30 8 2 7 9
M  V30 9 1 2 10
M  V30 10 1 10 11
M  V30 11 1 11 12
M  V30 12 1 12 13
M  V30 13 1 13 14
M  V30 14 2 14 15
M  V30 15 2 14 16
M  V30 16 1 14 17
M  V30 17 1 17 18
M  V30 18 2 18 19
M  V30 19 1 19 20
M  V30 20 2 20 21
M  V30 21 1 21 22
M  V30 22 2 22 23
M  V30 23 1 13 24
M  V30 24 1 24 25
M  V30 25 1 9 3
M  V30 26 1 25 10
M  V30 27 1 23 18
M  V30 28 1 4 26
M  V30 29 1 5 27
M  V30 30 1 6 28
M  V30 31 1 9 29
M  V30 32 1 11 30
M  V30 33 1 11 31
M  V30 34 1 12 32
M  V30 35 1 12 33
M  V30 36 1 17 34
M  V30 37 1 17 35
M  V30 38 1 19 36
M  V30 39 1 20 37
M  V30 40 1 21 38
M  V30 41 1 22 39
M  V30 42 1 23 40
M  V30 43 1 24 41
M  V30 44 1 24 42
M  V30 45 1 25 43
M  V30 46 1 25 44
M  V30 END BOND
M  V30 END CTAB
M  END
>  <Dataset>  (493) 
ChEMBL_Kinases

>  <Ligand_Instance>  (493) 
nan

>  <PDB_ID>  (493) 
nan

>  <Standardized_SMILES>  (493) 
O=C(c1cccc(F)c1)N1CCN(S(=O)(=O)Cc2ccccc2)CC1

>  <Name>  (493) 
nan

>  <Pocket>  (493) 
nan

>  <ATP_Site>  (493) 
nan

>  <Peripheral>  (493) 
nan

>  <Num_H_Atoms_ProtBoundConf>  (493) 
nan

>  <Num_Resolved_Atoms>  (493) 
nan

>  <Num_Not_Resolved_Atoms>  (493) 
nan

$$$$
CHEMBL1333249
     RDKit          3D

  0  0  0  0  0  0  0  0  0  0999 V3000
M  V30 BEGIN CTAB
M  V30 COUNTS 50 53 0 0 0
M  V30 BEGIN ATOM
M  V30 1 C 5.778589 -1.858274 3.646036 0
M  V30 2 N 4.487771 -1.756092 2.953130 0
M  V30 3 C 4.470680 -1.184221 1.720463 0
M  V30 4 N 5.739540 -0.740221 1.215517 0
M  V30 5 C 3.220501 -1.098457 1.097451 0
M  V30 6 C 3.225247 -0.504107 -0.227133 0
M  V30 7 O 4.412610 -0.295496 -0.638586 0
M  V30 8 C 2.393163 -0.018127 -1.344921 0
M  V30 9 O 1.102598 0.026318 -1.169505 0
M  V30 10 C -0.168088 0.093724 -1.065397 0
M  V30 11 O 0.855059 0.246193 -1.759538 0
M  V30 12 C -1.590082 0.236943 -1.148912 0
M  V30 13 C -2.201657 -0.087432 0.035273 0
M  V30 14 C -3.569322 -0.012936 0.212736 0
M  V30 15 C -4.259173 -0.341132 1.452003 0
M  V30 16 C -3.640765 -0.783447 2.627038 0
M  V30 17 C -4.616459 -0.988776 3.583863 0
M  V30 18 C -5.791663 -0.656710 2.931579 0
M  V30 19 O -5.560827 -0.288013 1.708767 0
M  V30 20 N -4.246416 0.402841 -0.870681 0
M  V30 21 C -3.661794 0.718601 -2.023362 0
M  V30 22 C -4.405153 1.150755 -3.131354 0
M  V30 23 C -3.797653 1.488807 -4.347929 0
M  V30 24 C -2.404464 1.382856 -4.438897 0
M  V30 25 C -1.608460 0.963921 -3.388928 0
M  V30 26 C -2.303445 0.658223 -2.241324 0
M  V30 27 C 2.146824 -1.599841 1.790378 0
M  V30 28 O 1.024065 -1.542744 1.263612 0
M  V30 29 N 2.146498 -2.161555 2.991594 0
M  V30 30 C 0.957975 -2.672250 3.639338 0
M  V30 31 C 3.383432 -2.218227 3.549413 0
M  V30 32 O 3.501860 -2.730145 4.683675 0
M  V30 33 H 5.647138 -2.568435 4.486868 0
M  V30 34 H 6.584415 -2.166476 2.960024 0
M  V30 35 H 6.071437 -0.868488 4.075660 0
M  V30 36 H 5.686643 0.303149 1.221570 0
M  V30 37 H 6.518198 -1.405656 0.920552 0
M  V30 38 H 2.742033 -0.518083 -2.318970 0
M  V30 39 H 2.771314 1.070478 -1.509720 0
M  V30 40 H -1.706930 -0.434095 0.958836 0
M  V30 41 H -2.582987 -0.931049 2.742399 0
M  V30 42 H -4.510682 -1.327447 4.602197 0
M  V30 43 H -6.744546 -0.732088 3.474980 0
M  V30 44 H -5.484120 1.228094 -3.040360 0
M  V30 45 H -4.464202 1.805743 -5.130830 0
M  V30 46 H -1.969428 1.653980 -5.404653 0
M  V30 47 H -0.552280 0.885188 -3.461604 0
M  V30 48 H 0.151888 -2.677304 2.883530 0
M  V30 49 H 1.114960 -3.745226 3.931572 0
M  V30 50 H 0.607678 -2.044700 4.471816 0
M  V30 END ATOM
M  V30 BEGIN BOND
M  V30 1 1 1 2
M  V30 2 1 2 3
M  V30 3 1 3 4
M  V30 4 2 3 5
M  V30 5 1 5 6
M  V30 6 2 6 7
M  V30 7 1 6 8
M  V30 8 1 8 9
M  V30 9 1 9 10
M  V30 10 2 10 11
M  V30 11 1 10 12
M  V30 12 2 12 13
M  V30 13 1 13 14
M  V30 14 1 14 15
M  V30 15 2 15 16
M  V30 16 1 16 17
M  V30 17 2 17 18
M  V30 18 1 18 19
M  V30 19 2 14 20
M  V30 20 1 20 21
M  V30 21 2 21 22
M  V30 22 1 22 23
M  V30 23 2 23 24
M  V30 24 1 24 25
M  V30 25 2 25 26
M  V30 26 1 5 27
M  V30 27 2 27 28
M  V30 28 1 27 29
M  V30 29 1 29 30
M  V30 30 1 29 31
M  V30 31 2 31 32
M  V30 32 1 31 2
M  V30 33 1 26 12
M  V30 34 1 19 15
M  V30 35 1 26 21
M  V30 36 1 1 33
M  V30 37 1 1 34
M  V30 38 1 1 35
M  V30 39 1 4 36
M  V30 40 1 4 37
M  V30 41 1 8 38
M  V30 42 1 8 39
M  V30 43 1 13 40
M  V30 44 1 16 41
M  V30 45 1 17 42
M  V30 46 1 18 43
M  V30 47 1 22 44
M  V30 48 1 23 45
M  V30 49 1 24 46
M  V30 50 1 25 47
M  V30 51 1 30 48
M  V30 52 1 30 49
M  V30 53 1 30 50
M  V30 END BOND
M  V30 END CTAB
M  END
>  <Dataset>  (494) 
ChEMBL_Kinases

>  <Ligand_Instance>  (494) 
nan

>  <PDB_ID>  (494) 
nan

>  <Standardized_SMILES>  (494) 
Cn1c(N)c(C(=O)COC(=O)c2cc(-c3ccco3)nc3ccccc23)c(=O)n(C)c1=O

>  <Name>  (494) 
nan

>  <Pocket>  (494) 
nan

>  <ATP_Site>  (494) 
nan

>  <Peripheral>  (494) 
nan

>  <Num_H_Atoms_ProtBoundConf>  (494) 
nan

>  <Num_Resolved_Atoms>  (494) 
nan

>  <Num_Not_Resolved_Atoms>  (494) 
nan

$$$$
CHEMBL1333227
     RDKit          3D

  0  0  0  0  0  0  0  0  0  0999 V3000
M  V30 BEGIN CTAB
M  V30 COUNTS 39 40 0 0 0
M  V30 BEGIN ATOM
M  V30 1 C -0.668551 -5.702704 1.819825 0
M  V30 2 O 0.281700 -5.430620 0.868068 0
M  V30 3 C 0.130921 -4.194373 0.278411 0
M  V30 4 C 0.206523 -3.040948 1.240899 0
M  V30 5 N 0.031932 -1.804046 0.535851 0
M  V30 6 C 0.665330 -1.103497 -0.496633 0
M  V30 7 O 1.691882 -1.717156 -0.967078 0
M  V30 8 C 0.357188 0.174115 -1.108659 0
M  V30 9 C -0.043479 0.409073 -2.409370 0
M  V30 10 C -0.299346 1.692108 -2.864706 0
M  V30 11 C -0.159278 2.773789 -2.022531 0
M  V30 12 C 0.240701 2.555874 -0.719669 0
M  V30 13 C 0.501696 1.271119 -0.248668 0
M  V30 14 C 0.892989 1.329862 1.147190 0
M  V30 15 C 2.273607 1.350083 1.266776 0
M  V30 16 C 2.845282 1.392314 2.546786 0
M  V30 17 C 2.004024 1.410728 3.636285 0
M  V30 18 C 0.631059 1.391031 3.561775 0
M  V30 19 C 0.126419 1.351092 2.282522 0
M  V30 20 C -1.292925 1.350455 2.056062 0
M  V30 21 O -1.806335 1.337278 0.905991 0
M  V30 22 O -2.450298 1.359682 2.809017 0
M  V30 23 H -0.642701 -4.979570 2.665165 0
M  V30 24 H -0.524276 -6.714653 2.251629 0
M  V30 25 H -1.712373 -5.704036 1.389637 0
M  V30 26 H -0.787185 -4.195100 -0.318104 0
M  V30 27 H 0.965954 -4.083160 -0.477747 0
M  V30 28 H 1.125946 -3.060932 1.856207 0
M  V30 29 H -0.671133 -3.135423 1.925772 0
M  V30 30 H -0.794794 -1.183099 0.810856 0
M  V30 31 H -0.127422 -0.514536 -3.006185 0
M  V30 32 H -0.612780 1.761889 -3.920107 0
M  V30 33 H -0.381609 3.733764 -2.472563 0
M  V30 34 H 0.310343 3.487124 -0.173359 0
M  V30 35 H 2.989753 1.339276 0.472131 0
M  V30 36 H 3.921160 1.409691 2.702377 0
M  V30 37 H 2.456436 1.445057 4.613168 0
M  V30 38 H -0.057625 1.403996 4.394206 0
M  V30 39 H -3.031771 2.193648 2.914884 0
M  V30 END ATOM
M  V30 BEGIN BOND
M  V30 1 1 1 2
M  V30 2 1 2 3
M  V30 3 1 3 4
M  V30 4 1 4 5
M  V30 5 1 5 6
M  V30 6 2 6 7
M  V30 7 1 6 8
M  V30 8 2 8 9
M  V30 9 1 9 10
M  V30 10 2 10 11
M  V30 11 1 11 12
M  V30 12 2 12 13
M  V30 13 1 13 14
M  V30 14 2 14 15
M  V30 15 1 15 16
M  V30 16 2 16 17
M  V30 17 1 17 18
M  V30 18 2 18 19
M  V30 19 1 19 20
M  V30 20 2 20 21
M  V30 21 1 20 22
M  V30 22 1 13 8
M  V30 23 1 19 14
M  V30 24 1 1 23
M  V30 25 1 1 24
M  V30 26 1 1 25
M  V30 27 1 3 26
M  V30 28 1 3 27
M  V30 29 1 4 28
M  V30 30 1 4 29
M  V30 31 1 5 30
M  V30 32 1 9 31
M  V30 33 1 10 32
M  V30 34 1 11 33
M  V30 35 1 12 34
M  V30 36 1 15 35
M  V30 37 1 16 36
M  V30 38 1 17 37
M  V30 39 1 18 38
M  V30 40 1 22 39
M  V30 END BOND
M  V30 END CTAB
M  END
>  <Dataset>  (495) 
ChEMBL_Kinases

>  <Ligand_Instance>  (495) 
nan

>  <PDB_ID>  (495) 
nan

>  <Standardized_SMILES>  (495) 
COCCNC(=O)c1ccccc1-c1ccccc1C(=O)O

>  <Name>  (495) 
nan

>  <Pocket>  (495) 
nan

>  <ATP_Site>  (495) 
nan

>  <Peripheral>  (495) 
nan

>  <Num_H_Atoms_ProtBoundConf>  (495) 
nan

>  <Num_Resolved_Atoms>  (495) 
nan

>  <Num_Not_Resolved_Atoms>  (495) 
nan

$$$$
CHEMBL1333200
     RDKit          3D

  0  0  0  0  0  0  0  0  0  0999 V3000
M  V30 BEGIN CTAB
M  V30 COUNTS 53 56 0 0 0
M  V30 BEGIN ATOM
M  V30 1 C 2.196681 -3.874905 5.266236 0
M  V30 2 C 2.344151 -3.339405 3.904733 0
M  V30 3 C 1.244847 -2.934035 3.178284 0
M  V30 4 C 1.397189 -2.436809 1.910166 0
M  V30 5 C 2.608347 -2.301759 1.272445 0
M  V30 6 S 2.885111 -1.689232 -0.335424 0
M  V30 7 O 3.627314 -2.713836 -1.151967 0
M  V30 8 O 3.792963 -0.468036 -0.273410 0
M  V30 9 N 1.441513 -1.175120 -1.121448 0
M  V30 10 C 0.698300 -0.112418 -0.548177 0
M  V30 11 N 1.155790 0.453844 0.582059 0
M  V30 12 C 0.497972 1.465051 1.175248 0
M  V30 13 C 0.988777 2.036864 2.344427 0
M  V30 14 C 0.278428 3.075072 2.919660 0
M  V30 15 C -0.900756 3.560835 2.370483 0
M  V30 16 C -1.353420 2.960199 1.203137 0
M  V30 17 C -0.668705 1.913815 0.593198 0
M  V30 18 N -1.119444 1.342458 -0.536706 0
M  V30 19 C -0.483199 0.332398 -1.149346 0
M  V30 20 N -0.993067 -0.240180 -2.342253 0
M  V30 21 C -2.209366 0.230477 -2.942895 0
M  V30 22 C -3.336567 0.035671 -1.989496 0
M  V30 23 C -4.696187 0.287252 -2.658824 0
M  V30 24 C -5.571685 -0.245983 -1.520229 0
M  V30 25 C -4.766300 -1.487307 -1.161521 0
M  V30 26 O -3.500426 -1.306804 -1.652469 0
M  V30 27 C 3.725315 -2.703789 1.985828 0
M  V30 28 C 5.090269 -2.601963 1.390538 0
M  V30 29 C 3.567208 -3.211132 3.280138 0
M  V30 30 H 3.045298 -3.619104 5.939858 0
M  V30 31 H 1.293465 -3.476752 5.781366 0
M  V30 32 H 2.065217 -4.981322 5.199844 0
M  V30 33 H 0.231549 -3.000450 3.597152 0
M  V30 34 H 0.526806 -2.128989 1.352735 0
M  V30 35 H 1.184238 -1.681967 -1.994718 0
M  V30 36 H 1.906282 1.679949 2.797304 0
M  V30 37 H 0.675616 3.515308 3.838460 0
M  V30 38 H -1.455711 4.366483 2.813266 0
M  V30 39 H -2.273853 3.294508 0.719946 0
M  V30 40 H -0.528279 -1.009505 -2.833176 0
M  V30 41 H -2.092134 1.334321 -3.097835 0
M  V30 42 H -2.459832 -0.245920 -3.889610 0
M  V30 43 H -3.310466 0.633571 -1.080686 0
M  V30 44 H -4.874117 1.361115 -2.850412 0
M  V30 45 H -4.814931 -0.376343 -3.517729 0
M  V30 46 H -6.598206 -0.477375 -1.851462 0
M  V30 47 H -5.498201 0.466848 -0.684734 0
M  V30 48 H -5.318653 -2.331739 -1.665211 0
M  V30 49 H -4.761427 -1.710745 -0.086998 0
M  V30 50 H 5.342687 -1.580864 1.072344 0
M  V30 51 H 5.107398 -3.345133 0.540300 0
M  V30 52 H 5.822503 -3.018412 2.116687 0
M  V30 53 H 4.429765 -3.532690 3.858497 0
M  V30 END ATOM
M  V30 BEGIN BOND
M  V30 1 1 1 2
M  V30 2 2 2 3
M  V30 3 1 3 4
M  V30 4 2 4 5
M  V30 5 1 5 6
M  V30 6 2 6 7
M  V30 7 2 6 8
M  V30 8 1 6 9
M  V30 9 1 9 10
M  V30 10 2 10 11
M  V30 11 1 11 12
M  V30 12 2 12 13
M  V30 13 1 13 14
M  V30 14 2 14 15
M  V30 15 1 15 16
M  V30 16 2 16 17
M  V30 17 1 17 18
M  V30 18 2 18 19
M  V30 19 1 19 20
M  V30 20 1 20 21
M  V30 21 1 21 22
M  V30 22 1 22 23
M  V30 23 1 23 24
M  V30 24 1 24 25
M  V30 25 1 25 26
M  V30 26 1 5 27
M  V30 27 1 27 28
M  V30 28 2 27 29
M  V30 29 1 29 2
M  V30 30 1 19 10
M  V30 31 1 26 22
M  V30 32 1 17 12
M  V30 33 1 1 30
M  V30 34 1 1 31
M  V30 35 1 1 32
M  V30 36 1 3 33
M  V30 37 1 4 34
M  V30 38 1 9 35
M  V30 39 1 13 36
M  V30 40 1 14 37
M  V30 41 1 15 38
M  V30 42 1 16 39
M  V30 43 1 20 40
M  V30 44 1 21 41
M  V30 45 1 21 42
M  V30 46 1 22 43
M  V30 47 1 23 44
M  V30 48 1 23 45
M  V30 49 1 24 46
M  V30 50 1 24 47
M  V30 51 1 25 48
M  V30 52 1 25 49
M  V30 53 1 28 50
M  V30 54 1 28 51
M  V30 55 1 28 52
M  V30 56 1 29 53
M  V30 END BOND
M  V30 END CTAB
M  END
>  <Dataset>  (496) 
ChEMBL_Kinases

>  <Ligand_Instance>  (496) 
nan

>  <PDB_ID>  (496) 
nan

>  <Standardized_SMILES>  (496) 
Cc1ccc(S(=O)(=O)Nc2nc3ccccc3nc2NCC2CCCO2)c(C)c1

>  <Name>  (496) 
nan

>  <Pocket>  (496) 
nan

>  <ATP_Site>  (496) 
nan

>  <Peripheral>  (496) 
nan

>  <Num_H_Atoms_ProtBoundConf>  (496) 
nan

>  <Num_Resolved_Atoms>  (496) 
nan

>  <Num_Not_Resolved_Atoms>  (496) 
nan

$$$$
CHEMBL1333180
     RDKit          3D

  0  0  0  0  0  0  0  0  0  0999 V3000
M  V30 BEGIN CTAB
M  V30 COUNTS 59 63 0 0 0
M  V30 BEGIN ATOM
M  V30 1 C 3.888334 -2.619353 2.267715 0
M  V30 2 C 3.886659 -1.132208 2.205254 0
M  V30 3 C 4.300117 -0.451099 3.328051 0
M  V30 4 C 4.292433 0.909877 3.255759 0
M  V30 5 C 3.890611 1.566391 2.115052 0
M  V30 6 C 3.474725 0.907266 0.984545 0
M  V30 7 N 3.062455 1.604443 -0.173247 0
M  V30 8 C 2.915225 3.018357 -0.339166 0
M  V30 9 C 1.488722 3.333622 -0.749464 0
M  V30 10 N 0.671518 2.138735 -0.813819 0
M  V30 11 C -0.496283 1.878183 -0.046245 0
M  V30 12 O -0.788214 2.819723 0.743591 0
M  V30 13 C -1.165338 0.584504 -0.286255 0
M  V30 14 C -2.362582 0.489623 0.605756 0
M  V30 15 N -3.085993 -0.761311 0.434209 0
M  V30 16 C -4.078145 -0.842003 -0.476720 0
M  V30 17 S -4.476830 0.461425 -1.394445 0
M  V30 18 N -4.722443 -2.021180 -0.602820 0
M  V30 19 C -4.418828 -3.111774 0.136649 0
M  V30 20 C -5.153042 -4.282782 -0.078417 0
M  V30 21 C -4.827197 -5.401520 0.693846 0
M  V30 22 C -3.802340 -5.312077 1.632301 0
M  V30 23 C -3.088923 -4.138918 1.826668 0
M  V30 24 C -3.401060 -3.008692 1.062716 0
M  V30 25 C -2.728351 -1.820372 1.212076 0
M  V30 26 O -1.814190 -1.783045 2.066705 0
M  V30 27 O -3.725128 -6.571991 2.226268 0
M  V30 28 C -4.910957 -7.317431 1.948766 0
M  V30 29 O -5.340006 -6.707662 0.745347 0
M  V30 30 C 1.219507 1.242629 -1.778574 0
M  V30 31 C 2.702241 1.024424 -1.448156 0
M  V30 32 C 3.579100 1.592212 -2.568623 0
M  V30 33 C 3.486876 -0.461288 1.069678 0
M  V30 34 H 3.015749 -2.973203 2.862741 0
M  V30 35 H 4.786875 -3.034317 2.725535 0
M  V30 36 H 3.810588 -3.015841 1.234240 0
M  V30 37 H 4.614285 -0.972805 4.220121 0
M  V30 38 H 4.622346 1.436435 4.152276 0
M  V30 39 H 3.937254 2.638785 2.202195 0
M  V30 40 H 3.636077 3.343274 -1.146112 0
M  V30 41 H 3.205730 3.539840 0.579754 0
M  V30 42 H 1.508061 3.778520 -1.762209 0
M  V30 43 H 1.024968 4.069018 -0.032265 0
M  V30 44 H -1.546794 0.584028 -1.349144 0
M  V30 45 H -0.500577 -0.288251 -0.170641 0
M  V30 46 H -2.034237 0.642910 1.669772 0
M  V30 47 H -3.060255 1.320741 0.389536 0
M  V30 48 H -5.474580 -2.038345 -1.311548 0
M  V30 49 H -5.941158 -4.327941 -0.809851 0
M  V30 50 H -2.297161 -4.086962 2.558803 0
M  V30 51 H -4.713744 -8.393544 1.829053 0
M  V30 52 H -5.708590 -7.085162 2.702317 0
M  V30 53 H 0.678189 0.283328 -1.880797 0
M  V30 54 H 1.178105 1.727262 -2.775119 0
M  V30 55 H 2.945186 -0.044453 -1.413985 0
M  V30 56 H 3.090961 2.472317 -2.992505 0
M  V30 57 H 3.671844 0.856716 -3.400254 0
M  V30 58 H 4.561135 1.823841 -2.139689 0
M  V30 59 H 3.185942 -1.097835 0.262325 0
M  V30 END ATOM
M  V30 BEGIN BOND
M  V30 1 1 1 2
M  V30 2 2 2 3
M  V30 3 1 3 4
M  V30 4 2 4 5
M  V30 5 1 5 6
M  V30 6 1 6 7
M  V30 7 1 7 8
M  V30 8 1 8 9
M  V30 9 1 9 10
M  V30 10 1 10 11
M  V30 11 2 11 12
M  V30 12 1 11 13
M  V30 13 1 13 14
M  V30 14 1 14 15
M  V30 15 1 15 16
M  V30 16 2 16 17
M  V30 17 1 16 18
M  V30 18 1 18 19
M  V30 19 2 19 20
M  V30 20 1 20 21
M  V30 21 2 21 22
M  V30 22 1 22 23
M  V30 23 2 23 24
M  V30 24 1 24 25
M  V30 25 2 25 26
M  V30 26 1 22 27
M  V30 27 1 27 28
M  V30 28 1 28 29
M  V30 29 1 10 30
M  V30 30 1 30 31
M  V30 31 1 31 32
M  V30 32 2 6 33
M  V30 33 1 33 2
M  V30 34 1 31 7
M  V30 35 1 25 15
M  V30 36 1 24 19
M  V30 37 1 29 21
M  V30 38 1 1 34
M  V30 39 1 1 35
M  V30 40 1 1 36
M  V30 41 1 3 37
M  V30 42 1 4 38
M  V30 43 1 5 39
M  V30 44 1 8 40
M  V30 45 1 8 41
M  V30 46 1 9 42
M  V30 47 1 9 43
M  V30 48 1 13 44
M  V30 49 1 13 45
M  V30 50 1 14 46
M  V30 51 1 14 47
M  V30 52 1 18 48
M  V30 53 1 20 49
M  V30 54 1 23 50
M  V30 55 1 28 51
M  V30 56 1 28 52
M  V30 57 1 30 53
M  V30 58 1 30 54
M  V30 59 1 31 55
M  V30 60 1 32 56
M  V30 61 1 32 57
M  V30 62 1 32 58
M  V30 63 1 33 59
M  V30 END BOND
M  V30 END CTAB
M  END
>  <Dataset>  (497) 
ChEMBL_Kinases

>  <Ligand_Instance>  (497) 
nan

>  <PDB_ID>  (497) 
nan

>  <Standardized_SMILES>  (497) 
Cc1cccc(N2CCN(C(=O)CCn3c(=S)[nH]c4cc5c(cc4c3=O)OCO5)CC2C)c1

>  <Name>  (497) 
nan

>  <Pocket>  (497) 
nan

>  <ATP_Site>  (497) 
nan

>  <Peripheral>  (497) 
nan

>  <Num_H_Atoms_ProtBoundConf>  (497) 
nan

>  <Num_Resolved_Atoms>  (497) 
nan

>  <Num_Not_Resolved_Atoms>  (497) 
nan

$$$$
CHEMBL1333071
     RDKit          3D

  0  0  0  0  0  0  0  0  0  0999 V3000
M  V30 BEGIN CTAB
M  V30 COUNTS 34 36 0 0 0
M  V30 BEGIN ATOM
M  V30 1 F 4.000352 -2.068085 3.760409 0
M  V30 2 C 3.283794 -2.781983 2.828687 0
M  V30 3 F 2.459568 -3.665678 3.529531 0
M  V30 4 F 4.085170 -3.517670 1.980391 0
M  V30 5 C 2.399062 -1.916068 2.008382 0
M  V30 6 C 2.251726 -1.917761 0.617937 0
M  V30 7 C 1.396140 -1.058653 -0.034658 0
M  V30 8 C 1.368464 -1.214027 -1.471275 0
M  V30 9 C 0.501930 -0.359260 -2.174115 0
M  V30 10 C 0.559403 -0.596295 -3.527144 0
M  V30 11 C 1.496465 -1.628523 -3.606944 0
M  V30 12 O 1.895370 -1.907977 -2.407444 0
M  V30 13 N 0.698105 -0.209538 0.707280 0
M  V30 14 C 0.791077 -0.155054 2.049757 0
M  V30 15 N 0.036654 0.774054 2.812563 0
M  V30 16 C -1.388383 0.618122 3.087208 0
M  V30 17 C -2.182331 0.725565 1.833393 0
M  V30 18 C -2.436200 -0.366050 1.027874 0
M  V30 19 C -3.188398 -0.158006 -0.110205 0
M  V30 20 C -3.641374 1.116388 -0.379269 0
M  V30 21 N -3.398020 2.182105 0.400879 0
M  V30 22 C -2.657425 1.991061 1.526789 0
M  V30 23 N 1.628145 -0.999016 2.657404 0
M  V30 24 H 2.888508 -2.669278 0.134446 0
M  V30 25 H -0.185019 0.438781 -1.844519 0
M  V30 26 H 0.071010 -0.172014 -4.391876 0
M  V30 27 H 1.907424 -2.185838 -4.450304 0
M  V30 28 H 0.763637 1.460115 3.046222 0
M  V30 29 H -1.708482 1.341812 3.860898 0
M  V30 30 H -1.611939 -0.389508 3.491305 0
M  V30 31 H -2.002703 -1.304871 1.387274 0
M  V30 32 H -3.371401 -1.028760 -0.723440 0
M  V30 33 H -4.221076 1.189579 -1.292001 0
M  V30 34 H -2.490859 2.888847 2.122811 0
M  V30 END ATOM
M  V30 BEGIN BOND
M  V30 1 1 1 2
M  V30 2 1 2 3
M  V30 3 1 2 4
M  V30 4 1 2 5
M  V30 5 2 5 6
M  V30 6 1 6 7
M  V30 7 1 7 8
M  V30 8 2 8 9
M  V30 9 1 9 10
M  V30 10 2 10 11
M  V30 11 1 11 12
M  V30 12 2 7 13
M  V30 13 1 13 14
M  V30 14 1 14 15
M  V30 15 1 15 16
M  V30 16 1 16 17
M  V30 17 2 17 18
M  V30 18 1 18 19
M  V30 19 2 19 20
M  V30 20 1 20 21
M  V30 21 2 21 22
M  V30 22 2 14 23
M  V30 23 1 23 5
M  V30 24 1 12 8
M  V30 25 1 22 17
M  V30 26 1 6 24
M  V30 27 1 9 25
M  V30 28 1 10 26
M  V30 29 1 11 27
M  V30 30 1 15 28
M  V30 31 1 16 29
M  V30 32 1 16 30
M  V30 33 1 18 31
M  V30 34 1 19 32
M  V30 35 1 20 33
M  V30 36 1 22 34
M  V30 END BOND
M  V30 END CTAB
M  END
>  <Dataset>  (498) 
ChEMBL_Kinases

>  <Ligand_Instance>  (498) 
nan

>  <PDB_ID>  (498) 
nan

>  <Standardized_SMILES>  (498) 
FC(F)(F)c1cc(-c2ccco2)nc(NCc2cccnc2)n1

>  <Name>  (498) 
nan

>  <Pocket>  (498) 
nan

>  <ATP_Site>  (498) 
nan

>  <Peripheral>  (498) 
nan

>  <Num_H_Atoms_ProtBoundConf>  (498) 
nan

>  <Num_Resolved_Atoms>  (498) 
nan

>  <Num_Not_Resolved_Atoms>  (498) 
nan

$$$$
CHEMBL1333047
     RDKit          3D

  0  0  0  0  0  0  0  0  0  0999 V3000
M  V30 BEGIN CTAB
M  V30 COUNTS 26 28 0 0 0
M  V30 BEGIN ATOM
M  V30 1 O 0.295061 -1.257834 2.708380 0
M  V30 2 C 0.214075 -1.212444 1.457665 0
M  V30 3 C 0.925545 -2.009549 0.458469 0
M  V30 4 C 1.495444 -3.259277 0.593304 0
M  V30 5 C 2.120029 -3.809759 -0.512264 0
M  V30 6 C 2.147954 -3.101171 -1.683511 0
M  V30 7 C 1.573735 -1.853527 -1.801682 0
M  V30 8 C 0.934532 -1.263380 -0.711213 0
M  V30 9 C 0.231468 0.013720 -0.472634 0
M  V30 10 O 0.534178 0.974471 -1.225207 0
M  V30 11 C -0.674661 -0.284353 0.671162 0
M  V30 12 C -1.020539 0.911008 1.457200 0
M  V30 13 C -0.003227 1.710977 1.945255 0
M  V30 14 C -0.230694 2.837193 2.682832 0
M  V30 15 N -1.517324 3.169370 2.937476 0
M  V30 16 C -2.531012 2.400047 2.469192 0
M  V30 17 C -2.323590 1.270215 1.729879 0
M  V30 18 H 1.464387 -3.805371 1.525679 0
M  V30 19 H 2.571718 -4.794228 -0.414617 0
M  V30 20 H 2.636952 -3.520641 -2.566700 0
M  V30 21 H 1.595786 -1.289348 -2.733649 0
M  V30 22 H -1.540914 -0.857619 0.325529 0
M  V30 23 H 1.026163 1.434452 1.734541 0
M  V30 24 H 0.519839 3.498738 3.089202 0
M  V30 25 H -3.537213 2.697573 2.692821 0
M  V30 26 H -3.131735 0.663808 1.361038 0
M  V30 END ATOM
M  V30 BEGIN BOND
M  V30 1 2 1 2
M  V30 2 1 2 3
M  V30 3 2 3 4
M  V30 4 1 4 5
M  V30 5 2 5 6
M  V30 6 1 6 7
M  V30 7 2 7 8
M  V30 8 1 8 9
M  V30 9 2 9 10
M  V30 10 1 9 11
M  V30 11 1 11 12
M  V30 12 2 12 13
M  V30 13 1 13 14
M  V30 14 2 14 15
M  V30 15 1 15 16
M  V30 16 2 16 17
M  V30 17 1 11 2
M  V30 18 1 17 12
M  V30 19 1 8 3
M  V30 20 1 4 18
M  V30 21 1 5 19
M  V30 22 1 6 20
M  V30 23 1 7 21
M  V30 24 1 11 22
M  V30 25 1 13 23
M  V30 26 1 14 24
M  V30 27 1 16 25
M  V30 28 1 17 26
M  V30 END BOND
M  V30 END CTAB
M  END
>  <Dataset>  (499) 
ChEMBL_Kinases

>  <Ligand_Instance>  (499) 
nan

>  <PDB_ID>  (499) 
nan

>  <Standardized_SMILES>  (499) 
O=C1c2ccccc2C(=O)C1c1ccncc1

>  <Name>  (499) 
nan

>  <Pocket>  (499) 
nan

>  <ATP_Site>  (499) 
nan

>  <Peripheral>  (499) 
nan

>  <Num_H_Atoms_ProtBoundConf>  (499) 
nan

>  <Num_Resolved_Atoms>  (499) 
nan

>  <Num_Not_Resolved_Atoms>  (499) 
nan

$$$$
CHEMBL1332819
     RDKit          3D

  0  0  0  0  0  0  0  0  0  0999 V3000
M  V30 BEGIN CTAB
M  V30 COUNTS 38 41 0 0 0
M  V30 BEGIN ATOM
M  V30 1 C -1.521905 -6.833863 0.122835 0
M  V30 2 C -0.785253 -5.607523 0.594532 0
M  V30 3 N -1.189506 -4.576504 1.226825 0
M  V30 4 N -0.370379 -3.636392 1.530382 0
M  V30 5 C 0.813183 -3.609093 1.272645 0
M  V30 6 N 1.741743 -2.528304 1.624812 0
M  V30 7 C 1.946180 -1.456541 0.740057 0
M  V30 8 O 1.313309 -1.460167 -0.346248 0
M  V30 9 N 2.839469 -0.403586 1.063921 0
M  V30 10 C 3.114896 0.740054 0.219152 0
M  V30 11 N 1.903315 1.503360 -0.037722 0
M  V30 12 C 0.908347 1.438698 -1.052879 0
M  V30 13 O 1.221692 1.011633 -2.202236 0
M  V30 14 C -0.322891 1.938707 -0.405301 0
M  V30 15 C -1.098631 0.938269 0.361592 0
M  V30 16 C -2.460058 1.554929 0.571870 0
M  V30 17 C -2.190657 2.693793 1.248720 0
M  V30 18 C -0.786144 2.661245 1.748795 0
M  V30 19 C -0.572090 1.137864 1.781308 0
M  V30 20 C 0.118367 2.995992 0.591646 0
M  V30 21 C 1.528519 2.573764 0.855726 0
M  V30 22 O 2.166538 3.173228 1.770224 0
M  V30 23 S 1.059405 -5.192492 0.387700 0
M  V30 24 H -2.243470 -6.583946 -0.676250 0
M  V30 25 H -0.807246 -7.587496 -0.267259 0
M  V30 26 H -2.023478 -7.220866 1.040323 0
M  V30 27 H 2.227025 -2.589802 2.531845 0
M  V30 28 H 3.324210 -0.479550 1.986237 0
M  V30 29 H 3.508490 0.358212 -0.767825 0
M  V30 30 H 3.913734 1.349659 0.642495 0
M  V30 31 H -0.971893 2.470154 -1.136066 0
M  V30 32 H -1.120899 -0.087295 0.020029 0
M  V30 33 H -3.472497 1.293427 0.317957 0
M  V30 34 H -2.885809 3.528846 1.416682 0
M  V30 35 H -0.595035 3.142449 2.684339 0
M  V30 36 H -1.259119 0.652210 2.502389 0
M  V30 37 H 0.476617 0.862437 1.903675 0
M  V30 38 H 0.026640 4.013358 0.215256 0
M  V30 END ATOM
M  V30 BEGIN BOND
M  V30 1 1 1 2
M  V30 2 2 2 3
M  V30 3 1 3 4
M  V30 4 2 4 5
M  V30 5 1 5 6
M  V30 6 1 6 7
M  V30 7 2 7 8
M  V30 8 1 7 9
M  V30 9 1 9 10
M  V30 10 1 10 11
M  V30 11 1 11 12
M  V30 12 2 12 13
M  V30 13 1 12 14
M  V30 14 1 14 15
M  V30 15 1 15 16
M  V30 16 2 16 17
M  V30 17 1 17 18
M  V30 18 1 18 19
M  V30 19 1 18 20
M  V30 20 1 20 21
M  V30 21 2 21 22
M  V30 22 1 5 23
M  V30 23 1 23 2
M  V30 24 1 21 11
M  V30 25 1 20 14
M  V30 26 1 19 15
M  V30 27 1 1 24
M  V30 28 1 1 25
M  V30 29 1 1 26
M  V30 30 1 6 27
M  V30 31 1 9 28
M  V30 32 1 10 29
M  V30 33 1 10 30
M  V30 34 1 14 31
M  V30 35 1 15 32
M  V30 36 1 16 33
M  V30 37 1 17 34
M  V30 38 1 18 35
M  V30 39 1 19 36
M  V30 40 1 19 37
M  V30 41 1 20 38
M  V30 END BOND
M  V30 END CTAB
M  END
>  <Dataset>  (500) 
ChEMBL_Kinases

>  <Ligand_Instance>  (500) 
nan

>  <PDB_ID>  (500) 
nan

>  <Standardized_SMILES>  (500) 
Cc1nnc(NC(=O)NCN2C(=O)C3C4C=CC(C4)C3C2=O)s1

>  <Name>  (500) 
nan

>  <Pocket>  (500) 
nan

>  <ATP_Site>  (500) 
nan

>  <Peripheral>  (500) 
nan

>  <Num_H_Atoms_ProtBoundConf>  (500) 
nan

>  <Num_Resolved_Atoms>  (500) 
nan

>  <Num_Not_Resolved_Atoms>  (500) 
nan

$$$$
CHEMBL1332664
     RDKit          3D

  0  0  0  0  0  0  0  0  0  0999 V3000
M  V30 BEGIN CTAB
M  V30 COUNTS 35 36 0 0 0
M  V30 BEGIN ATOM
M  V30 1 C -1.036442 -2.715715 2.283537 0
M  V30 2 C -0.142320 -2.102694 3.318502 0
M  V30 3 O -0.500573 -2.384430 4.542467 0
M  V30 4 C 0.318917 -1.819204 5.399913 0
M  V30 5 C 1.279716 -1.118903 4.659355 0
M  V30 6 C 0.988888 -1.297274 3.336507 0
M  V30 7 C 1.459936 -0.935751 1.989311 0
M  V30 8 O 2.667751 -1.278936 1.867776 0
M  V30 9 N 0.653004 -0.290108 0.975809 0
M  V30 10 C 1.215371 0.016928 -0.310361 0
M  V30 11 C 0.841624 -0.985784 -1.374160 0
M  V30 12 C -0.468410 -0.893145 -2.002364 0
M  V30 13 C -1.435427 0.134083 -1.570417 0
M  V30 14 C -1.033780 1.563982 -1.894451 0
M  V30 15 C -0.213221 2.052531 -0.735929 0
M  V30 16 C 1.147151 1.431408 -0.747754 0
M  V30 17 H -0.968481 -3.838266 2.352327 0
M  V30 18 H -0.623719 -2.455310 1.301048 0
M  V30 19 H -2.081764 -2.385130 2.418479 0
M  V30 20 H 0.461364 -1.741815 6.470098 0
M  V30 21 H 2.163142 -0.499047 4.847604 0
M  V30 22 H -0.294804 -0.109766 1.334235 0
M  V30 23 H 2.327062 -0.197477 -0.159498 0
M  V30 24 H 1.629855 -0.877635 -2.181712 0
M  V30 25 H 1.047664 -1.995038 -0.926982 0
M  V30 26 H -0.982422 -1.892527 -1.862711 0
M  V30 27 H -0.402581 -0.816216 -3.130948 0
M  V30 28 H -2.371355 -0.024981 -2.193123 0
M  V30 29 H -1.756520 0.120433 -0.526580 0
M  V30 30 H -0.500146 1.653733 -2.863433 0
M  V30 31 H -1.985094 2.175143 -1.936011 0
M  V30 32 H -0.059996 3.152686 -0.870762 0
M  V30 33 H -0.795857 1.915976 0.188093 0
M  V30 34 H 1.840342 2.091132 -0.168436 0
M  V30 35 H 1.505286 1.475662 -1.800140 0
M  V30 END ATOM
M  V30 BEGIN BOND
M  V30 1 1 1 2
M  V30 2 1 2 3
M  V30 3 1 3 4
M  V30 4 2 4 5
M  V30 5 1 5 6
M  V30 6 1 6 7
M  V30 7 2 7 8
M  V30 8 1 7 9
M  V30 9 1 9 10
M  V30 10 1 10 11
M  V30 11 1 11 12
M  V30 12 1 12 13
M  V30 13 1 13 14
M  V30 14 1 14 15
M  V30 15 1 15 16
M  V30 16 2 6 2
M  V30 17 1 16 10
M  V30 18 1 1 17
M  V30 19 1 1 18
M  V30 20 1 1 19
M  V30 21 1 4 20
M  V30 22 1 5 21
M  V30 23 1 9 22
M  V30 24 1 10 23
M  V30 25 1 11 24
M  V30 26 1 11 25
M  V30 27 1 12 26
M  V30 28 1 12 27
M  V30 29 1 13 28
M  V30 30 1 13 29
M  V30 31 1 14 30
M  V30 32 1 14 31
M  V30 33 1 15 32
M  V30 34 1 15 33
M  V30 35 1 16 34
M  V30 36 1 16 35
M  V30 END BOND
M  V30 END CTAB
M  END
>  <Dataset>  (501) 
ChEMBL_Kinases

>  <Ligand_Instance>  (501) 
nan

>  <PDB_ID>  (501) 
nan

>  <Standardized_SMILES>  (501) 
Cc1occc1C(=O)NC1CCCCCC1

>  <Name>  (501) 
nan

>  <Pocket>  (501) 
nan

>  <ATP_Site>  (501) 
nan

>  <Peripheral>  (501) 
nan

>  <Num_H_Atoms_ProtBoundConf>  (501) 
nan

>  <Num_Resolved_Atoms>  (501) 
nan

>  <Num_Not_Resolved_Atoms>  (501) 
nan

$$$$
CHEMBL1332633
     RDKit          3D

  0  0  0  0  0  0  0  0  0  0999 V3000
M  V30 BEGIN CTAB
M  V30 COUNTS 39 41 0 0 0
M  V30 BEGIN ATOM
M  V30 1 C 1.498247 -5.925858 5.028658 0
M  V30 2 C 2.095706 -4.808851 4.203375 0
M  V30 3 O 1.206953 -3.724878 4.056199 0
M  V30 4 C 1.558378 -2.598554 3.334791 0
M  V30 5 C 2.763113 -2.394693 2.695746 0
M  V30 6 C 3.123738 -1.287796 1.979303 0
M  V30 7 C 2.203522 -0.235511 1.860892 0
M  V30 8 N 2.310361 0.915543 1.232592 0
M  V30 9 C 1.612946 1.791727 1.100764 0
M  V30 10 S 1.830862 3.338835 0.224906 0
M  V30 11 C 1.328826 3.249819 -1.490309 0
M  V30 12 C -0.102242 3.055993 -1.719857 0
M  V30 13 O -0.346364 2.967367 -2.968690 0
M  V30 14 N -1.195501 2.956617 -0.844387 0
M  V30 15 C -2.547807 2.760661 -1.262367 0
M  V30 16 C -2.737251 1.504949 -2.033481 0
M  V30 17 C -3.052399 0.267803 -1.517513 0
M  V30 18 C -3.142253 -0.639234 -2.543038 0
M  V30 19 C -2.865829 0.120542 -3.682109 0
M  V30 20 O -2.633515 1.368949 -3.351675 0
M  V30 21 S 0.152229 1.059352 2.120570 0
M  V30 22 C 1.019208 -0.397182 2.469637 0
M  V30 23 C 0.673812 -1.548173 3.201547 0
M  V30 24 H 1.136769 -5.612886 6.010609 0
M  V30 25 H 2.320456 -6.675903 5.182936 0
M  V30 26 H 0.698652 -6.456991 4.473608 0
M  V30 27 H 2.287505 -5.237874 3.179899 0
M  V30 28 H 3.031467 -4.420376 4.640765 0
M  V30 29 H 3.484616 -3.224672 2.790566 0
M  V30 30 H 4.117377 -1.285337 1.535257 0
M  V30 31 H 1.878659 2.425330 -2.021477 0
M  V30 32 H 1.661073 4.189167 -1.979266 0
M  V30 33 H -0.908175 3.044278 0.156601 0
M  V30 34 H -2.974308 3.644461 -1.802304 0
M  V30 35 H -3.179468 2.656346 -0.333441 0
M  V30 36 H -3.217810 -0.025335 -0.492558 0
M  V30 37 H -3.357294 -1.691232 -2.630087 0
M  V30 38 H -2.837064 -0.225433 -4.697727 0
M  V30 39 H -0.310229 -1.541771 3.637176 0
M  V30 END ATOM
M  V30 BEGIN BOND
M  V30 1 1 1 2
M  V30 2 1 2 3
M  V30 3 1 3 4
M  V30 4 2 4 5
M  V30 5 1 5 6
M  V30 6 2 6 7
M  V30 7 1 7 8
M  V30 8 2 8 9
M  V30 9 1 9 10
M  V30 10 1 10 11
M  V30 11 1 11 12
M  V30 12 2 12 13
M  V30 13 1 12 14
M  V30 14 1 14 15
M  V30 15 1 15 16
M  V30 16 2 16 17
M  V30 17 1 17 18
M  V30 18 2 18 19
M  V30 19 1 19 20
M  V30 20 1 9 21
M  V30 21 1 21 22
M  V30 22 2 22 23
M  V30 23 1 23 4
M  V30 24 1 22 7
M  V30 25 1 20 16
M  V30 26 1 1 24
M  V30 27 1 1 25
M  V30 28 1 1 26
M  V30 29 1 2 27
M  V30 30 1 2 28
M  V30 31 1 5 29
M  V30 32 1 6 30
M  V30 33 1 11 31
M  V30 34 1 11 32
M  V30 35 1 14 33
M  V30 36 1 15 34
M  V30 37 1 15 35
M  V30 38 1 17 36
M  V30 39 1 18 37
M  V30 40 1 19 38
M  V30 41 1 23 39
M  V30 END BOND
M  V30 END CTAB
M  END
>  <Dataset>  (502) 
ChEMBL_Kinases

>  <Ligand_Instance>  (502) 
nan

>  <PDB_ID>  (502) 
nan

>  <Standardized_SMILES>  (502) 
CCOc1ccc2nc(SCC(=O)NCc3ccco3)sc2c1

>  <Name>  (502) 
nan

>  <Pocket>  (502) 
nan

>  <ATP_Site>  (502) 
nan

>  <Peripheral>  (502) 
nan

>  <Num_H_Atoms_ProtBoundConf>  (502) 
nan

>  <Num_Resolved_Atoms>  (502) 
nan

>  <Num_Not_Resolved_Atoms>  (502) 
nan

$$$$
CHEMBL1332587
     RDKit          3D

  0  0  0  0  0  0  0  0  0  0999 V3000
M  V30 BEGIN CTAB
M  V30 COUNTS 31 32 0 0 0
M  V30 BEGIN ATOM
M  V30 1 C -2.966022 1.449572 3.631339 0
M  V30 2 C -2.470354 0.675933 2.451196 0
M  V30 3 O -1.055307 0.654843 2.424475 0
M  V30 4 C -0.380901 -0.025069 1.387898 0
M  V30 5 C -1.123532 -0.659832 0.414881 0
M  V30 6 C -0.664377 -1.366876 -0.663984 0
M  V30 7 C 0.721283 -1.429292 -0.754046 0
M  V30 8 O 1.438881 -2.079787 -1.745668 0
M  V30 9 C 0.803177 -2.775106 -2.809688 0
M  V30 10 C -0.078397 -3.895211 -2.365642 0
M  V30 11 C 1.518432 -0.795114 0.218251 0
M  V30 12 S 3.266302 -0.670971 0.414082 0
M  V30 13 C 3.091232 0.370796 2.005469 0
M  V30 14 C 4.232625 0.907299 2.828888 0
M  V30 15 N 1.955329 0.403282 2.051133 0
M  V30 16 C 1.016989 -0.093694 1.288379 0
M  V30 17 H -3.472594 0.757935 4.340903 0
M  V30 18 H -2.102523 1.912594 4.138900 0
M  V30 19 H -3.664110 2.271036 3.346040 0
M  V30 20 H -2.925760 -0.334324 2.444996 0
M  V30 21 H -2.834689 1.199958 1.519990 0
M  V30 22 H -2.212089 -0.597159 0.506478 0
M  V30 23 H -1.226522 -1.852775 -1.409540 0
M  V30 24 H 0.123823 -2.007699 -3.285240 0
M  V30 25 H 1.499589 -3.081006 -3.589040 0
M  V30 26 H 0.309930 -4.853816 -2.818790 0
M  V30 27 H -0.092360 -3.960841 -1.273358 0
M  V30 28 H -1.127002 -3.824895 -2.769960 0
M  V30 29 H 5.161123 0.660816 2.276681 0
M  V30 30 H 4.218706 0.504300 3.843920 0
M  V30 31 H 4.193754 2.010791 2.866519 0
M  V30 END ATOM
M  V30 BEGIN BOND
M  V30 1 1 1 2
M  V30 2 1 2 3
M  V30 3 1 3 4
M  V30 4 2 4 5
M  V30 5 1 5 6
M  V30 6 2 6 7
M  V30 7 1 7 8
M  V30 8 1 8 9
M  V30 9 1 9 10
M  V30 10 1 7 11
M  V30 11 1 11 12
M  V30 12 1 12 13
M  V30 13 1 13 14
M  V30 14 2 13 15
M  V30 15 1 15 16
M  V30 16 1 16 4
M  V30 17 2 16 11
M  V30 18 1 1 17
M  V30 19 1 1 18
M  V30 20 1 1 19
M  V30 21 1 2 20
M  V30 22 1 2 21
M  V30 23 1 5 22
M  V30 24 1 6 23
M  V30 25 1 9 24
M  V30 26 1 9 25
M  V30 27 1 10 26
M  V30 28 1 10 27
M  V30 29 1 10 28
M  V30 30 1 14 29
M  V30 31 1 14 30
M  V30 32 1 14 31
M  V30 END BOND
M  V30 END CTAB
M  END
>  <Dataset>  (503) 
ChEMBL_Kinases

>  <Ligand_Instance>  (503) 
nan

>  <PDB_ID>  (503) 
nan

>  <Standardized_SMILES>  (503) 
CCOc1ccc(OCC)c2sc(C)nc12

>  <Name>  (503) 
nan

>  <Pocket>  (503) 
nan

>  <ATP_Site>  (503) 
nan

>  <Peripheral>  (503) 
nan

>  <Num_H_Atoms_ProtBoundConf>  (503) 
nan

>  <Num_Resolved_Atoms>  (503) 
nan

>  <Num_Not_Resolved_Atoms>  (503) 
nan

$$$$
CHEMBL1332556
     RDKit          3D

  0  0  0  0  0  0  0  0  0  0999 V3000
M  V30 BEGIN CTAB
M  V30 COUNTS 41 42 0 0 0
M  V30 BEGIN ATOM
M  V30 1 C -2.360196 -4.537788 2.799212 0
M  V30 2 C -1.700982 -5.456888 1.808152 0
M  V30 3 C -0.199909 -5.144066 1.795841 0
M  V30 4 C -0.061071 -3.727767 1.394511 0
M  V30 5 N 1.217978 -3.309644 1.340373 0
M  V30 6 C 1.542274 -2.050921 0.994120 0
M  V30 7 C 2.935334 -1.523021 0.914316 0
M  V30 8 C 0.555875 -1.139469 0.679917 0
M  V30 9 C 0.719158 0.255661 0.285901 0
M  V30 10 C 0.855708 0.561517 -1.072199 0
M  V30 11 C 1.013719 1.861704 -1.512489 0
M  V30 12 C 1.042601 2.913052 -0.620210 0
M  V30 13 O 1.194510 4.256942 -0.930992 0
M  V30 14 C 1.335702 4.605315 -2.296095 0
M  V30 15 C 0.907601 2.607105 0.718141 0
M  V30 16 O 0.926085 3.611059 1.684974 0
M  V30 17 C 0.787850 3.286658 3.042172 0
M  V30 18 C 0.750218 1.319625 1.165710 0
M  V30 19 C -0.753568 -1.605391 0.746263 0
M  V30 20 O -1.865597 -0.822243 0.462547 0
M  V30 21 N -1.053886 -2.869675 1.095370 0
M  V30 22 H -1.628801 -3.830235 3.265961 0
M  V30 23 H -3.185201 -3.937196 2.332023 0
M  V30 24 H -2.809637 -5.088113 3.653662 0
M  V30 25 H -1.880544 -6.521340 2.023905 0
M  V30 26 H -2.067779 -5.188985 0.790812 0
M  V30 27 H 0.286015 -5.826391 1.055329 0
M  V30 28 H 0.233076 -5.356059 2.799874 0
M  V30 29 H 3.682367 -2.246277 1.296539 0
M  V30 30 H 3.198979 -1.413941 -0.178424 0
M  V30 31 H 3.065239 -0.540908 1.376870 0
M  V30 32 H 0.841731 -0.220345 -1.830600 0
M  V30 33 H 1.119943 2.114501 -2.551516 0
M  V30 34 H 2.333098 4.196301 -2.606557 0
M  V30 35 H 1.286080 5.701017 -2.456247 0
M  V30 36 H 0.577180 4.053845 -2.878601 0
M  V30 37 H -0.099093 2.668882 3.244749 0
M  V30 38 H 1.705895 2.760426 3.366256 0
M  V30 39 H 0.714166 4.229355 3.618231 0
M  V30 40 H 0.642548 1.062202 2.217206 0
M  V30 41 H -2.251832 -0.804556 -0.479925 0
M  V30 END ATOM
M  V30 BEGIN BOND
M  V30 1 1 1 2
M  V30 2 1 2 3
M  V30 3 1 3 4
M  V30 4 2 4 5
M  V30 5 1 5 6
M  V30 6 1 6 7
M  V30 7 2 6 8
M  V30 8 1 8 9
M  V30 9 2 9 10
M  V30 10 1 10 11
M  V30 11 2 11 12
M  V30 12 1 12 13
M  V30 13 1 13 14
M  V30 14 1 12 15
M  V30 15 1 15 16
M  V30 16 1 16 17
M  V30 17 2 15 18
M  V30 18 1 8 19
M  V30 19 1 19 20
M  V30 20 2 19 21
M  V30 21 1 21 4
M  V30 22 1 18 9
M  V30 23 1 1 22
M  V30 24 1 1 23
M  V30 25 1 1 24
M  V30 26 1 2 25
M  V30 27 1 2 26
M  V30 28 1 3 27
M  V30 29 1 3 28
M  V30 30 1 7 29
M  V30 31 1 7 30
M  V30 32 1 7 31
M  V30 33 1 10 32
M  V30 34 1 11 33
M  V30 35 1 14 34
M  V30 36 1 14 35
M  V30 37 1 14 36
M  V30 38 1 17 37
M  V30 39 1 17 38
M  V30 40 1 17 39
M  V30 41 1 18 40
M  V30 42 1 20 41
M  V30 END BOND
M  V30 END CTAB
M  END
>  <Dataset>  (504) 
ChEMBL_Kinases

>  <Ligand_Instance>  (504) 
nan

>  <PDB_ID>  (504) 
nan

>  <Standardized_SMILES>  (504) 
CCCc1nc(C)c(-c2ccc(OC)c(OC)c2)c(O)n1

>  <Name>  (504) 
nan

>  <Pocket>  (504) 
nan

>  <ATP_Site>  (504) 
nan

>  <Peripheral>  (504) 
nan

>  <Num_H_Atoms_ProtBoundConf>  (504) 
nan

>  <Num_Resolved_Atoms>  (504) 
nan

>  <Num_Not_Resolved_Atoms>  (504) 
nan

$$$$
CHEMBL1330747
     RDKit          3D

  0  0  0  0  0  0  0  0  0  0999 V3000
M  V30 BEGIN CTAB
M  V30 COUNTS 51 53 0 0 0
M  V30 BEGIN ATOM
M  V30 1 C 2.058606 -3.504071 4.188220 0
M  V30 2 C 1.626933 -4.876614 3.780826 0
M  V30 3 O 0.845874 -4.989487 2.687306 0
M  V30 4 C 1.296901 -4.611318 1.481917 0
M  V30 5 C 1.602563 -3.193980 1.200789 0
M  V30 6 O 0.515562 -2.294461 1.330652 0
M  V30 7 C 0.778108 -0.955197 1.071132 0
M  V30 8 N 2.015354 -0.506932 0.707518 0
M  V30 9 C 1.942110 0.845811 0.527390 0
M  V30 10 C 0.623542 1.136273 0.802616 0
M  V30 11 C 0.274624 2.461165 0.696603 0
M  V30 12 O -0.886726 2.821114 0.925448 0
M  V30 13 N 1.136571 3.434244 0.349358 0
M  V30 14 C 0.715497 4.839124 0.248923 0
M  V30 15 C 2.413923 3.096035 0.090391 0
M  V30 16 O 3.215807 4.026159 -0.236406 0
M  V30 17 N 2.809511 1.813452 0.179512 0
M  V30 18 C 4.186669 1.463894 -0.101829 0
M  V30 19 N -0.118122 0.075314 1.136093 0
M  V30 20 C -1.488165 -0.090133 1.481452 0
M  V30 21 C -2.384169 -0.378404 0.365726 0
M  V30 22 C -2.535407 -1.735058 0.063609 0
M  V30 23 C -3.359818 -2.138610 -0.971934 0
M  V30 24 C -4.064287 -1.246521 -1.748588 0
M  V30 25 C -4.958478 -1.619558 -2.866058 0
M  V30 26 C -3.929895 0.101511 -1.467499 0
M  V30 27 C -3.107417 0.475494 -0.436851 0
M  V30 28 H 2.080127 -3.461696 5.320996 0
M  V30 29 H 3.122407 -3.306307 3.872316 0
M  V30 30 H 1.401212 -2.731013 3.789555 0
M  V30 31 H 2.591338 -5.479600 3.681451 0
M  V30 32 H 1.067600 -5.378682 4.648315 0
M  V30 33 H 2.302080 -5.149942 1.345966 0
M  V30 34 H 0.709891 -5.063123 0.625743 0
M  V30 35 H 1.838918 -3.150244 0.080958 0
M  V30 36 H 2.505226 -2.835198 1.680653 0
M  V30 37 H 1.496110 5.389940 -0.277021 0
M  V30 38 H -0.283061 4.933487 -0.197254 0
M  V30 39 H 0.648023 5.282418 1.282596 0
M  V30 40 H 4.331743 1.261684 -1.189537 0
M  V30 41 H 4.891013 2.224060 0.292371 0
M  V30 42 H 4.415955 0.533782 0.449732 0
M  V30 43 H -1.894180 0.824996 2.003013 0
M  V30 44 H -1.574969 -0.888006 2.266714 0
M  V30 45 H -2.086843 -2.597837 0.534349 0
M  V30 46 H -3.538545 -3.171452 -1.279179 0
M  V30 47 H -5.972506 -1.919955 -2.505494 0
M  V30 48 H -5.053929 -0.792390 -3.578689 0
M  V30 49 H -4.543483 -2.522075 -3.391435 0
M  V30 50 H -4.440186 0.898993 -2.016805 0
M  V30 51 H -2.991910 1.522206 -0.200966 0
M  V30 END ATOM
M  V30 BEGIN BOND
M  V30 1 1 1 2
M  V30 2 1 2 3
M  V30 3 1 3 4
M  V30 4 1 4 5
M  V30 5 1 5 6
M  V30 6 1 6 7
M  V30 7 2 7 8
M  V30 8 1 8 9
M  V30 9 2 9 10
M  V30 10 1 10 11
M  V30 11 2 11 12
M  V30 12 1 11 13
M  V30 13 1 13 14
M  V30 14 1 13 15
M  V30 15 2 15 16
M  V30 16 1 15 17
M  V30 17 1 17 18
M  V30 18 1 10 19
M  V30 19 1 19 20
M  V30 20 1 20 21
M  V30 21 2 21 22
M  V30 22 1 22 23
M  V30 23 2 23 24
M  V30 24 1 24 25
M  V30 25 1 24 26
M  V30 26 2 26 27
M  V30 27 1 19 7
M  V30 28 1 27 21
M  V30 29 1 17 9
M  V30 30 1 1 28
M  V30 31 1 1 29
M  V30 32 1 1 30
M  V30 33 1 2 31
M  V30 34 1 2 32
M  V30 35 1 4 33
M  V30 36 1 4 34
M  V30 37 1 5 35
M  V30 38 1 5 36
M  V30 39 1 14 37
M  V30 40 1 14 38
M  V30 41 1 14 39
M  V30 42 1 18 40
M  V30 43 1 18 41
M  V30 44 1 18 42
M  V30 45 1 20 43
M  V30 46 1 20 44
M  V30 47 1 22 45
M  V30 48 1 23 46
M  V30 49 1 25 47
M  V30 50 1 25 48
M  V30 51 1 25 49
M  V30 52 1 26 50
M  V30 53 1 27 51
M  V30 END BOND
M  V30 END CTAB
M  END
>  <Dataset>  (505) 
ChEMBL_Kinases

>  <Ligand_Instance>  (505) 
nan

>  <PDB_ID>  (505) 
nan

>  <Standardized_SMILES>  (505) 
CCOCCOc1nc2c(c(=O)n(C)c(=O)n2C)n1Cc1ccc(C)cc1

>  <Name>  (505) 
nan

>  <Pocket>  (505) 
nan

>  <ATP_Site>  (505) 
nan

>  <Peripheral>  (505) 
nan

>  <Num_H_Atoms_ProtBoundConf>  (505) 
nan

>  <Num_Resolved_Atoms>  (505) 
nan

>  <Num_Not_Resolved_Atoms>  (505) 
nan

$$$$
CHEMBL1330946
     RDKit          3D

  0  0  0  0  0  0  0  0  0  0999 V3000
M  V30 BEGIN CTAB
M  V30 COUNTS 48 50 0 0 0
M  V30 BEGIN ATOM
M  V30 1 C -1.320656 -6.766530 0.310238 0
M  V30 2 C -1.222551 -5.599012 -0.606095 0
M  V30 3 C -0.683250 -5.690835 -1.877772 0
M  V30 4 C -0.598879 -4.581288 -2.726226 0
M  V30 5 C -1.073692 -3.343456 -2.275281 0
M  V30 6 O -0.912189 -2.367214 -3.235848 0
M  V30 7 C -1.288823 -1.010279 -3.092391 0
M  V30 8 C -0.561972 -0.377220 -1.946669 0
M  V30 9 O 0.299046 -0.713212 -1.064611 0
M  V30 10 N -0.862068 1.002789 -1.701441 0
M  V30 11 C -0.117790 1.531934 -0.580202 0
M  V30 12 C -0.815711 1.364707 0.602389 0
M  V30 13 C -0.253993 1.813313 1.785739 0
M  V30 14 C 1.005794 2.426786 1.769885 0
M  V30 15 N 1.627161 2.905309 2.958648 0
M  V30 16 C 2.898528 3.544841 3.092173 0
M  V30 17 C 2.925167 4.110381 4.490290 0
M  V30 18 C 2.089495 3.142982 5.268731 0
M  V30 19 C 1.004378 2.797809 4.283494 0
M  V30 20 C 1.673345 2.576335 0.568251 0
M  V30 21 C 1.125813 2.133745 -0.621029 0
M  V30 22 C -1.610041 -3.255779 -1.008847 0
M  V30 23 C -1.681604 -4.365027 -0.191892 0
M  V30 24 C -2.264248 -4.215304 1.152543 0
M  V30 25 H -0.956454 -6.478353 1.328743 0
M  V30 26 H -2.336931 -7.199337 0.372965 0
M  V30 27 H -0.656595 -7.585018 -0.055576 0
M  V30 28 H -0.345010 -6.691868 -2.129943 0
M  V30 29 H -0.155596 -4.837126 -3.666691 0
M  V30 30 H -2.384691 -0.905232 -2.939246 0
M  V30 31 H -0.942353 -0.493725 -4.020303 0
M  V30 32 H -1.537937 1.618622 -2.239692 0
M  V30 33 H -1.783520 0.908461 0.715238 0
M  V30 34 H -0.751669 1.709813 2.737336 0
M  V30 35 H 3.057728 4.348523 2.344342 0
M  V30 36 H 3.689458 2.766373 3.036614 0
M  V30 37 H 2.440674 5.116662 4.566803 0
M  V30 38 H 3.948820 4.106197 4.922665 0
M  V30 39 H 1.659355 3.622735 6.195338 0
M  V30 40 H 2.646378 2.250212 5.575867 0
M  V30 41 H 0.092978 3.401178 4.372994 0
M  V30 42 H 0.732820 1.723928 4.438137 0
M  V30 43 H 2.657700 3.042651 0.469070 0
M  V30 44 H 1.562867 2.202602 -1.606710 0
M  V30 45 H -1.947209 -2.263970 -0.755228 0
M  V30 46 H -2.532940 -3.170438 1.366497 0
M  V30 47 H -1.599053 -4.611069 1.948315 0
M  V30 48 H -3.196056 -4.814809 1.163114 0
M  V30 END ATOM
M  V30 BEGIN BOND
M  V30 1 1 1 2
M  V30 2 2 2 3
M  V30 3 1 3 4
M  V30 4 2 4 5
M  V30 5 1 5 6
M  V30 6 1 6 7
M  V30 7 1 7 8
M  V30 8 2 8 9
M  V30 9 1 8 10
M  V30 10 1 10 11
M  V30 11 2 11 12
M  V30 12 1 12 13
M  V30 13 2 13 14
M  V30 14 1 14 15
M  V30 15 1 15 16
M  V30 16 1 16 17
M  V30 17 1 17 18
M  V30 18 1 18 19
M  V30 19 1 14 20
M  V30 20 2 20 21
M  V30 21 1 5 22
M  V30 22 2 22 23
M  V30 23 1 23 24
M  V30 24 1 23 2
M  V30 25 1 21 11
M  V30 26 1 19 15
M  V30 27 1 1 25
M  V30 28 1 1 26
M  V30 29 1 1 27
M  V30 30 1 3 28
M  V30 31 1 4 29
M  V30 32 1 7 30
M  V30 33 1 7 31
M  V30 34 1 10 32
M  V30 35 1 12 33
M  V30 36 1 13 34
M  V30 37 1 16 35
M  V30 38 1 16 36
M  V30 39 1 17 37
M  V30 40 1 17 38
M  V30 41 1 18 39
M  V30 42 1 18 40
M  V30 43 1 19 41
M  V30 44 1 19 42
M  V30 45 1 20 43
M  V30 46 1 21 44
M  V30 47 1 22 45
M  V30 48 1 24 46
M  V30 49 1 24 47
M  V30 50 1 24 48
M  V30 END BOND
M  V30 END CTAB
M  END
>  <Dataset>  (506) 
ChEMBL_Kinases

>  <Ligand_Instance>  (506) 
nan

>  <PDB_ID>  (506) 
nan

>  <Standardized_SMILES>  (506) 
Cc1ccc(OCC(=O)Nc2ccc(N3CCCC3)cc2)cc1C

>  <Name>  (506) 
nan

>  <Pocket>  (506) 
nan

>  <ATP_Site>  (506) 
nan

>  <Peripheral>  (506) 
nan

>  <Num_H_Atoms_ProtBoundConf>  (506) 
nan

>  <Num_Resolved_Atoms>  (506) 
nan

>  <Num_Not_Resolved_Atoms>  (506) 
nan

$$$$
CHEMBL1330993
     RDKit          3D

  0  0  0  0  0  0  0  0  0  0999 V3000
M  V30 BEGIN CTAB
M  V30 COUNTS 57 59 0 0 0
M  V30 BEGIN ATOM
M  V30 1 C 4.378705 -4.022110 1.118982 0
M  V30 2 O 3.381943 -4.293468 0.157149 0
M  V30 3 C 2.656362 -3.266854 -0.402054 0
M  V30 4 C 2.787613 -1.922914 -0.123613 0
M  V30 5 C 1.997895 -0.983538 -0.753443 0
M  V30 6 C 2.213603 0.413343 -0.389724 0
M  V30 7 O 3.089545 0.688770 0.481217 0
M  V30 8 N 1.527769 1.522420 -0.923348 0
M  V30 9 C 1.883723 2.842788 -0.433589 0
M  V30 10 C 1.673715 3.018830 1.011717 0
M  V30 11 N 2.505283 2.783915 2.036784 0
M  V30 12 N 1.940413 3.071068 3.198958 0
M  V30 13 C 0.698869 3.504071 2.865009 0
M  V30 14 S -0.690969 4.082165 3.855591 0
M  V30 15 C -1.690200 2.594692 4.248743 0
M  V30 16 C -2.284649 2.049122 3.009551 0
M  V30 17 O -3.405185 2.582676 2.787709 0
M  V30 18 N -1.717107 1.070150 2.162642 0
M  V30 19 C -2.339300 0.570466 0.960009 0
M  V30 20 C -3.443737 -0.386532 1.213744 0
M  V30 21 C -4.766265 -0.073688 1.371615 0
M  V30 22 C -5.751608 -1.004409 1.605218 0
M  V30 23 C -5.368887 -2.322097 1.681771 0
M  V30 24 C -4.059110 -2.740570 1.536210 0
M  V30 25 C -3.122132 -1.744452 1.303044 0
M  V30 26 O 0.549590 3.469501 1.563915 0
M  V30 27 C 1.042291 -1.328047 -1.687034 0
M  V30 28 C 0.889457 -2.667038 -1.985026 0
M  V30 29 O -0.049225 -3.103946 -2.913420 0
M  V30 30 C -0.898489 -2.238398 -3.607360 0
M  V30 31 C 1.682783 -3.599751 -1.351087 0
M  V30 32 O 1.506183 -4.959343 -1.673527 0
M  V30 33 C 2.294039 -5.478331 -2.751600 0
M  V30 34 H 4.930780 -3.089339 0.913192 0
M  V30 35 H 3.943128 -3.942501 2.148643 0
M  V30 36 H 5.139075 -4.838771 1.118488 0
M  V30 37 H 3.529261 -1.647767 0.602092 0
M  V30 38 H 0.795490 1.331110 -1.647426 0
M  V30 39 H 1.241970 3.576379 -0.963077 0
M  V30 40 H 2.950581 3.077287 -0.650254 0
M  V30 41 H -2.398856 2.827707 5.042447 0
M  V30 42 H -0.926824 1.847438 4.607417 0
M  V30 43 H -0.785387 0.756144 2.524559 0
M  V30 44 H -1.531832 0.055537 0.395877 0
M  V30 45 H -2.725446 1.437269 0.359904 0
M  V30 46 H -5.040620 0.950743 1.307948 0
M  V30 47 H -6.769900 -0.675489 1.718042 0
M  V30 48 H -6.161150 -3.038130 1.866256 0
M  V30 49 H -3.790651 -3.777059 1.600893 0
M  V30 50 H -2.100739 -2.121159 1.194566 0
M  V30 51 H 0.424153 -0.605990 -2.181381 0
M  V30 52 H -1.447296 -2.781026 -4.383279 0
M  V30 53 H -1.650875 -1.840194 -2.879530 0
M  V30 54 H -0.260561 -1.411884 -4.002980 0
M  V30 55 H 3.375623 -5.573604 -2.440277 0
M  V30 56 H 1.889461 -6.421659 -3.142182 0
M  V30 57 H 2.319715 -4.737284 -3.593602 0
M  V30 END ATOM
M  V30 BEGIN BOND
M  V30 1 1 1 2
M  V30 2 1 2 3
M  V30 3 2 3 4
M  V30 4 1 4 5
M  V30 5 1 5 6
M  V30 6 2 6 7
M  V30 7 1 6 8
M  V30 8 1 8 9
M  V30 9 1 9 10
M  V30 10 2 10 11
M  V30 11 1 11 12
M  V30 12 2 12 13
M  V30 13 1 13 14
M  V30 14 1 14 15
M  V30 15 1 15 16
M  V30 16 2 16 17
M  V30 17 1 16 18
M  V30 18 1 18 19
M  V30 19 1 19 20
M  V30 20 2 20 21
M  V30 21 1 21 22
M  V30 22 2 22 23
M  V30 23 1 23 24
M  V30 24 2 24 25
M  V30 25 1 13 26
M  V30 26 2 5 27
M  V30 27 1 27 28
M  V30 28 1 28 29
M  V30 29 1 29 30
M  V30 30 2 28 31
M  V30 31 1 31 32
M  V30 32 1 32 33
M  V30 33 1 31 3
M  V30 34 1 26 10
M  V30 35 1 25 20
M  V30 36 1 1 34
M  V30 37 1 1 35
M  V30 38 1 1 36
M  V30 39 1 4 37
M  V30 40 1 8 38
M  V30 41 1 9 39
M  V30 42 1 9 40
M  V30 43 1 15 41
M  V30 44 1 15 42
M  V30 45 1 18 43
M  V30 46 1 19 44
M  V30 47 1 19 45
M  V30 48 1 21 46
M  V30 49 1 22 47
M  V30 50 1 23 48
M  V30 51 1 24 49
M  V30 52 1 25 50
M  V30 53 1 27 51
M  V30 54 1 30 52
M  V30 55 1 30 53
M  V30 56 1 30 54
M  V30 57 1 33 55
M  V30 58 1 33 56
M  V30 59 1 33 57
M  V30 END BOND
M  V30 END CTAB
M  END
>  <Dataset>  (507) 
ChEMBL_Kinases

>  <Ligand_Instance>  (507) 
nan

>  <PDB_ID>  (507) 
nan

>  <Standardized_SMILES>  (507) 
COc1cc(C(=O)NCc2nnc(SCC(=O)NCc3ccccc3)o2)cc(OC)c1OC

>  <Name>  (507) 
nan

>  <Pocket>  (507) 
nan

>  <ATP_Site>  (507) 
nan

>  <Peripheral>  (507) 
nan

>  <Num_H_Atoms_ProtBoundConf>  (507) 
nan

>  <Num_Resolved_Atoms>  (507) 
nan

>  <Num_Not_Resolved_Atoms>  (507) 
nan

$$$$
CHEMBL1331084
     RDKit          3D

  0  0  0  0  0  0  0  0  0  0999 V3000
M  V30 BEGIN CTAB
M  V30 COUNTS 59 65 0 0 0
M  V30 BEGIN ATOM
M  V30 1 O -0.513510 -2.507259 3.015695 0
M  V30 2 C 0.573822 -3.014418 2.593047 0
M  V30 3 N 1.784369 -2.300150 2.366390 0
M  V30 4 C 1.568107 -0.923091 2.691603 0
M  V30 5 C 1.681367 -0.115797 3.806185 0
M  V30 6 N 1.314126 1.121076 3.448607 0
M  V30 7 N 0.965685 1.189138 2.175796 0
M  V30 8 C 0.512502 2.353560 1.439714 0
M  V30 9 C -0.183251 1.865778 0.169804 0
M  V30 10 C -0.823934 3.015375 -0.554466 0
M  V30 11 C 0.289964 3.974966 -0.919914 0
M  V30 12 C 0.943592 4.471467 0.342952 0
M  V30 13 C -0.127850 5.174232 1.151438 0
M  V30 14 C -1.198519 4.173257 1.539815 0
M  V30 15 C -1.862306 3.700173 0.270362 0
M  V30 16 C -0.567841 3.038126 2.274220 0
M  V30 17 C 1.572884 3.358088 1.150382 0
M  V30 18 C 1.116906 -0.077700 1.682632 0
M  V30 19 C 0.365157 -4.450049 2.381492 0
M  V30 20 C 0.391741 -5.572874 3.179483 0
M  V30 21 N 0.115122 -6.672340 2.418315 0
M  V30 22 N -0.083991 -6.258918 1.162058 0
M  V30 23 C -0.387831 -6.995670 0.054198 0
M  V30 24 C -0.550421 -8.453438 0.082887 0
M  V30 25 F -1.114323 -8.914928 1.258729 0
M  V30 26 F -1.299458 -8.822242 -1.035367 0
M  V30 27 F 0.706612 -9.023369 -0.080932 0
M  V30 28 C -0.544581 -6.295290 -1.150358 0
M  V30 29 C -0.405266 -4.933808 -1.241906 0
M  V30 30 C -0.565344 -4.202555 -2.477140 0
M  V30 31 C -0.439435 -2.830027 -2.604887 0
M  V30 32 C -0.650790 -2.429558 -3.910142 0
M  V30 33 C -0.908185 -3.649913 -4.541120 0
M  V30 34 O -0.848790 -4.639460 -3.680693 0
M  V30 35 N -0.107789 -4.301136 -0.104982 0
M  V30 36 C 0.059038 -4.905515 1.093304 0
M  V30 37 H 2.591386 -2.863055 2.017974 0
M  V30 38 H 2.020128 -0.573533 4.720779 0
M  V30 39 H -0.981836 1.166444 0.489229 0
M  V30 40 H 0.532231 1.351249 -0.502345 0
M  V30 41 H -1.271595 2.641888 -1.491004 0
M  V30 42 H 1.015655 3.411615 -1.563243 0
M  V30 43 H -0.068936 4.833841 -1.496560 0
M  V30 44 H 1.671681 5.265403 0.065328 0
M  V30 45 H 0.258389 5.720916 2.014857 0
M  V30 46 H -0.630506 5.893528 0.443800 0
M  V30 47 H -1.897474 4.679873 2.229175 0
M  V30 48 H -2.164029 4.636995 -0.276010 0
M  V30 49 H -2.731738 3.055370 0.429141 0
M  V30 50 H -1.333668 2.237543 2.436954 0
M  V30 51 H -0.204821 3.362816 3.263440 0
M  V30 52 H 2.471766 2.974707 0.672176 0
M  V30 53 H 1.857758 3.816755 2.127581 0
M  V30 54 H 0.891906 -0.290209 0.642114 0
M  V30 55 H 0.612913 -5.441463 4.229746 0
M  V30 56 H -0.788042 -6.830457 -2.074972 0
M  V30 57 H -0.206308 -2.084015 -1.828745 0
M  V30 58 H -0.632301 -1.454458 -4.365062 0
M  V30 59 H -1.121267 -3.672420 -5.622007 0
M  V30 END ATOM
M  V30 BEGIN BOND
M  V30 1 2 1 2
M  V30 2 1 2 3
M  V30 3 1 3 4
M  V30 4 1 4 5
M  V30 5 2 5 6
M  V30 6 1 6 7
M  V30 7 1 7 8
M  V30 8 1 8 9
M  V30 9 1 9 10
M  V30 10 1 10 11
M  V30 11 1 11 12
M  V30 12 1 12 13
M  V30 13 1 13 14
M  V30 14 1 14 15
M  V30 15 1 14 16
M  V30 16 1 12 17
M  V30 17 1 7 18
M  V30 18 1 2 19
M  V30 19 1 19 20
M  V30 20 2 20 21
M  V30 21 1 21 22
M  V30 22 1 22 23
M  V30 23 1 23 24
M  V30 24 1 24 25
M  V30 25 1 24 26
M  V30 26 1 24 27
M  V30 27 2 23 28
M  V30 28 1 28 29
M  V30 29 1 29 30
M  V30 30 2 30 31
M  V30 31 1 31 32
M  V30 32 2 32 33
M  V30 33 1 33 34
M  V30 34 2 29 35
M  V30 35 1 35 36
M  V30 36 2 18 4
M  V30 37 2 36 19
M  V30 38 1 16 8
M  V30 39 1 36 22
M  V30 40 1 17 8
M  V30 41 1 34 30
M  V30 42 1 15 10
M  V30 43 1 3 37
M  V30 44 1 5 38
M  V30 45 1 9 39
M  V30 46 1 9 40
M  V30 47 1 10 41
M  V30 48 1 11 42
M  V30 49 1 11 43
M  V30 50 1 12 44
M  V30 51 1 13 45
M  V30 52 1 13 46
M  V30 53 1 14 47
M  V30 54 1 15 48
M  V30 55 1 15 49
M  V30 56 1 16 50
M  V30 57 1 16 51
M  V30 58 1 17 52
M  V30 59 1 17 53
M  V30 60 1 18 54
M  V30 61 1 20 55
M  V30 62 1 28 56
M  V30 63 1 31 57
M  V30 64 1 32 58
M  V30 65 1 33 59
M  V30 END BOND
M  V30 END CTAB
M  END
>  <Dataset>  (508) 
ChEMBL_Kinases

>  <Ligand_Instance>  (508) 
nan

>  <PDB_ID>  (508) 
nan

>  <Standardized_SMILES>  (508) 
O=C(Nc1cnn(C23CC4CC(CC(C4)C2)C3)c1)c1cnn2c(C(F)(F)F)cc(-c3ccco3)nc12

>  <Name>  (508) 
nan

>  <Pocket>  (508) 
nan

>  <ATP_Site>  (508) 
nan

>  <Peripheral>  (508) 
nan

>  <Num_H_Atoms_ProtBoundConf>  (508) 
nan

>  <Num_Resolved_Atoms>  (508) 
nan

>  <Num_Not_Resolved_Atoms>  (508) 
nan

$$$$
CHEMBL1331137
     RDKit          3D

  0  0  0  0  0  0  0  0  0  0999 V3000
M  V30 BEGIN CTAB
M  V30 COUNTS 35 36 0 0 0
M  V30 BEGIN ATOM
M  V30 1 C -1.519593 -1.186996 2.566409 0
M  V30 2 C -0.353813 -2.064047 2.951397 0
M  V30 3 C -0.771313 -3.495682 3.161508 0
M  V30 4 C 0.768851 -1.943550 1.975389 0
M  V30 5 O 1.920132 -1.539652 2.351023 0
M  V30 6 N 0.649203 -2.258746 0.594712 0
M  V30 7 C 1.668171 -2.169919 -0.400040 0
M  V30 8 C 2.229518 -0.802296 -0.623841 0
M  V30 9 N 1.285315 0.183819 -1.062196 0
M  V30 10 C 1.092443 0.241348 -2.406511 0
M  V30 11 C 0.152143 1.209622 -2.720764 0
M  V30 12 C -0.245967 1.766755 -1.523332 0
M  V30 13 C -1.119208 2.753295 -1.072473 0
M  V30 14 C -1.241489 3.038093 0.271827 0
M  V30 15 C -0.502618 2.357183 1.232643 0
M  V30 16 C 0.361068 1.381358 0.788205 0
M  V30 17 C 0.462238 1.118276 -0.557107 0
M  V30 18 H -1.364347 -0.853573 1.503466 0
M  V30 19 H -2.477116 -1.779347 2.579207 0
M  V30 20 H -1.588141 -0.271228 3.173983 0
M  V30 21 H 0.010177 -1.673474 3.923369 0
M  V30 22 H 0.172159 -4.059345 3.413276 0
M  V30 23 H -1.258416 -3.930720 2.263760 0
M  V30 24 H -1.431365 -3.517428 4.044180 0
M  V30 25 H -0.338222 -2.588262 0.362587 0
M  V30 26 H 2.499410 -2.880767 -0.210219 0
M  V30 27 H 1.214146 -2.493416 -1.370307 0
M  V30 28 H 2.575167 -0.449477 0.394456 0
M  V30 29 H 3.152350 -0.819351 -1.227758 0
M  V30 30 H 1.504716 -0.292763 -3.262758 0
M  V30 31 H -0.265786 1.552174 -3.654216 0
M  V30 32 H -1.689455 3.274769 -1.850468 0
M  V30 33 H -1.933743 3.816254 0.596313 0
M  V30 34 H -0.639997 2.623462 2.271147 0
M  V30 35 H 0.917542 0.882177 1.552429 0
M  V30 END ATOM
M  V30 BEGIN BOND
M  V30 1 1 1 2
M  V30 2 1 2 3
M  V30 3 1 2 4
M  V30 4 2 4 5
M  V30 5 1 4 6
M  V30 6 1 6 7
M  V30 7 1 7 8
M  V30 8 1 8 9
M  V30 9 1 9 10
M  V30 10 2 10 11
M  V30 11 1 11 12
M  V30 12 2 12 13
M  V30 13 1 13 14
M  V30 14 2 14 15
M  V30 15 1 15 16
M  V30 16 2 16 17
M  V30 17 1 17 9
M  V30 18 1 17 12
M  V30 19 1 1 18
M  V30 20 1 1 19
M  V30 21 1 1 20
M  V30 22 1 2 21
M  V30 23 1 3 22
M  V30 24 1 3 23
M  V30 25 1 3 24
M  V30 26 1 6 25
M  V30 27 1 7 26
M  V30 28 1 7 27
M  V30 29 1 8 28
M  V30 30 1 8 29
M  V30 31 1 10 30
M  V30 32 1 11 31
M  V30 33 1 13 32
M  V30 34 1 14 33
M  V30 35 1 15 34
M  V30 36 1 16 35
M  V30 END BOND
M  V30 END CTAB
M  END
>  <Dataset>  (509) 
ChEMBL_Kinases

>  <Ligand_Instance>  (509) 
nan

>  <PDB_ID>  (509) 
nan

>  <Standardized_SMILES>  (509) 
CC(C)C(=O)NCCn1ccc2ccccc21

>  <Name>  (509) 
nan

>  <Pocket>  (509) 
nan

>  <ATP_Site>  (509) 
nan

>  <Peripheral>  (509) 
nan

>  <Num_H_Atoms_ProtBoundConf>  (509) 
nan

>  <Num_Resolved_Atoms>  (509) 
nan

>  <Num_Not_Resolved_Atoms>  (509) 
nan

$$$$
CHEMBL1331165
     RDKit          3D

  0  0  0  0  0  0  0  0  0  0999 V3000
M  V30 BEGIN CTAB
M  V30 COUNTS 57 59 0 0 0
M  V30 BEGIN ATOM
M  V30 1 C -0.114398 -1.770199 3.527114 0
M  V30 2 C 0.508046 -0.574085 4.138566 0
M  V30 3 N 0.980005 0.432292 3.154280 0
M  V30 4 C 1.477563 1.496949 4.041091 0
M  V30 5 C 1.893987 2.749917 3.394503 0
M  V30 6 C 2.058435 -0.120802 2.392392 0
M  V30 7 C 2.645608 0.663696 1.292127 0
M  V30 8 C 1.741029 1.034032 0.146949 0
M  V30 9 N 1.207240 -0.093165 -0.559257 0
M  V30 10 C 2.026025 -0.513649 -1.568469 0
M  V30 11 C 3.330284 0.002483 -2.019194 0
M  V30 12 C 1.598080 -1.611720 -2.331216 0
M  V30 13 C 0.384130 -2.270200 -2.089826 0
M  V30 14 C -0.433216 -1.815360 -1.048881 0
M  V30 15 C 0.051887 -0.738113 -0.348770 0
M  V30 16 O -0.598784 -0.263764 0.585674 0
M  V30 17 C -1.724496 -2.473397 -0.746808 0
M  V30 18 C -2.795524 -1.447664 -0.855412 0
M  V30 19 C -3.381111 -0.868894 0.260295 0
M  V30 20 C -4.363115 0.082237 0.249704 0
M  V30 21 C -4.811253 0.503309 -0.986669 0
M  V30 22 C -4.248258 -0.054251 -2.131500 0
M  V30 23 Cl -4.848983 0.512702 -3.681080 0
M  V30 24 C -3.253837 -1.017120 -2.077917 0
M  V30 25 C -1.938168 -3.599123 -1.692256 0
M  V30 26 C -3.165662 -4.349346 -1.529914 0
M  V30 27 N -4.153079 -4.970707 -1.387358 0
M  V30 28 C -1.165136 -4.023932 -2.673397 0
M  V30 29 N -1.388741 -5.114181 -3.577138 0
M  V30 30 O 0.026059 -3.349751 -2.883956 0
M  V30 31 H 0.584951 -2.454764 3.031348 0
M  V30 32 H -0.521760 -2.382292 4.394250 0
M  V30 33 H -1.039563 -1.546276 2.939257 0
M  V30 34 H 1.393023 -0.876515 4.703973 0
M  V30 35 H -0.223842 -0.051473 4.770129 0
M  V30 36 H 0.698191 1.729891 4.821119 0
M  V30 37 H 2.329217 1.052205 4.625051 0
M  V30 38 H 1.454196 3.658940 3.944027 0
M  V30 39 H 3.001662 2.877169 3.486463 0
M  V30 40 H 1.526327 2.864878 2.372900 0
M  V30 41 H 1.752717 -1.144187 2.075416 0
M  V30 42 H 2.875267 -0.328947 3.153517 0
M  V30 43 H 3.280067 1.502844 1.619263 0
M  V30 44 H 3.422348 -0.050213 0.816960 0
M  V30 45 H 2.276514 1.749451 -0.500094 0
M  V30 46 H 0.834952 1.616022 0.496616 0
M  V30 47 H 3.798374 0.752425 -1.389387 0
M  V30 48 H 4.033456 -0.845161 -2.271455 0
M  V30 49 H 3.147829 0.513043 -3.003761 0
M  V30 50 H 2.174533 -2.019655 -3.151538 0
M  V30 51 H -1.662569 -2.843618 0.301936 0
M  V30 52 H -3.068452 -1.170941 1.268854 0
M  V30 53 H -4.784948 0.500893 1.153950 0
M  V30 54 H -5.596365 1.263901 -1.040016 0
M  V30 55 H -2.826738 -1.440684 -2.976333 0
M  V30 56 H -1.169895 -5.946419 -2.969866 0
M  V30 57 H -1.172098 -5.932462 -2.975166 0
M  V30 END ATOM
M  V30 BEGIN BOND
M  V30 1 1 1 2
M  V30 2 1 2 3
M  V30 3 1 3 4
M  V30 4 1 4 5
M  V30 5 1 3 6
M  V30 6 1 6 7
M  V30 7 1 7 8
M  V30 8 1 8 9
M  V30 9 1 9 10
M  V30 10 1 10 11
M  V30 11 2 10 12
M  V30 12 1 12 13
M  V30 13 2 13 14
M  V30 14 1 14 15
M  V30 15 2 15 16
M  V30 16 1 14 17
M  V30 17 1 17 18
M  V30 18 2 18 19
M  V30 19 1 19 20
M  V30 20 2 20 21
M  V30 21 1 21 22
M  V30 22 1 22 23
M  V30 23 2 22 24
M  V30 24 1 17 25
M  V30 25 1 25 26
M  V30 26 3 26 27
M  V30 27 2 25 28
M  V30 28 1 28 29
M  V30 29 1 28 30
M  V30 30 1 15 9
M  V30 31 1 24 18
M  V30 32 1 30 13
M  V30 33 1 1 31
M  V30 34 1 1 32
M  V30 35 1 1 33
M  V30 36 1 2 34
M  V30 37 1 2 35
M  V30 38 1 4 36
M  V30 39 1 4 37
M  V30 40 1 5 38
M  V30 41 1 5 39
M  V30 42 1 5 40
M  V30 43 1 6 41
M  V30 44 1 6 42
M  V30 45 1 7 43
M  V30 46 1 7 44
M  V30 47 1 8 45
M  V30 48 1 8 46
M  V30 49 1 11 47
M  V30 50 1 11 48
M  V30 51 1 11 49
M  V30 52 1 12 50
M  V30 53 1 17 51
M  V30 54 1 19 52
M  V30 55 1 20 53
M  V30 56 1 21 54
M  V30 57 1 24 55
M  V30 58 1 29 56
M  V30 59 1 29 57
M  V30 END BOND
M  V30 END CTAB
M  END
>  <Dataset>  (510) 
ChEMBL_Kinases

>  <Ligand_Instance>  (510) 
nan

>  <PDB_ID>  (510) 
nan

>  <Standardized_SMILES>  (510) 
CCN(CC)CCCn1c(C)cc2c(c1=O)C(c1cccc(Cl)c1)C(C#N)=C(N)O2

>  <Name>  (510) 
nan

>  <Pocket>  (510) 
nan

>  <ATP_Site>  (510) 
nan

>  <Peripheral>  (510) 
nan

>  <Num_H_Atoms_ProtBoundConf>  (510) 
nan

>  <Num_Resolved_Atoms>  (510) 
nan

>  <Num_Not_Resolved_Atoms>  (510) 
nan

$$$$
CHEMBL1331288
     RDKit          3D

  0  0  0  0  0  0  0  0  0  0999 V3000
M  V30 BEGIN CTAB
M  V30 COUNTS 77 81 0 0 0
M  V30 BEGIN ATOM
M  V30 1 C -1.898917 3.084038 -0.363893 0
M  V30 2 C -0.723553 3.227658 0.301310 0
M  V30 3 C 0.317890 2.983382 -0.690278 0
M  V30 4 C 1.133337 1.712144 -0.501755 0
M  V30 5 C 0.243079 0.525474 -0.499886 0 CFG=1
M  V30 6 N -0.435108 0.554098 -1.789493 0
M  V30 7 P -1.755803 -0.407908 -2.121698 0
M  V30 8 O -2.878753 0.565189 -2.610493 0
M  V30 9 C -1.538963 -1.457717 -3.584736 0
M  V30 10 C -0.477489 -1.540643 -4.427136 0
M  V30 11 C -0.497404 -2.400642 -5.496066 0
M  V30 12 C -1.588648 -3.218752 -5.768038 0
M  V30 13 C -2.668505 -3.132675 -4.909401 0
M  V30 14 C -2.653274 -2.268912 -3.832198 0
M  V30 15 C -2.431483 -1.442611 -0.853626 0
M  V30 16 C -2.566140 -2.835571 -0.773581 0
M  V30 17 C -3.146774 -3.415637 0.331530 0
M  V30 18 C -3.615616 -2.674209 1.393821 0
M  V30 19 C -3.492469 -1.314743 1.332854 0
M  V30 20 C -2.915214 -0.705800 0.238438 0
M  V30 21 C 0.741382 -0.837095 -0.447241 0 CFG=1
M  V30 22 C 1.629396 -1.244738 -1.638135 0
M  V30 23 C 2.018296 -1.459679 -0.200681 0 CFG=2
M  V30 24 C 2.035991 -2.904623 0.323919 0
M  V30 25 C 1.377473 -3.883421 -0.585146 0
M  V30 26 C 1.490452 -5.256008 0.093485 0
M  V30 27 C 0.824661 -6.276009 -0.814173 0
M  V30 28 C 2.518413 1.791105 -0.855994 0
M  V30 29 C 2.133673 1.773554 0.643677 0
M  V30 30 C -1.002520 3.561076 1.678512 0
M  V30 31 C -2.307409 3.534867 2.111283 0
M  V30 32 C -2.583482 3.885214 3.441076 0
M  V30 33 C -1.564154 4.246014 4.287018 0
M  V30 34 C -0.240426 4.290070 3.906684 0
M  V30 35 O 0.678726 4.664549 4.840595 0
M  V30 36 C 2.056268 4.762577 4.625968 0
M  V30 37 C -0.046667 3.935571 2.593957 0
M  V30 38 H -1.931601 2.838624 -1.413271 0
M  V30 39 H -2.972615 3.078629 -0.437025 0
M  V30 40 H 1.074015 3.860538 -0.648257 0
M  V30 41 H -0.050424 3.079500 -1.725933 0
M  V30 42 H -0.533536 0.704372 0.260320 0
M  V30 43 H 0.238860 0.736920 -2.567498 0
M  V30 44 H 0.328197 -0.875986 -4.160503 0
M  V30 45 H 0.395696 -2.390568 -6.103940 0
M  V30 46 H -1.453457 -3.836346 -6.639490 0
M  V30 47 H -3.470063 -3.804446 -5.198651 0
M  V30 48 H -3.610162 -2.363502 -3.293374 0
M  V30 49 H -2.160255 -3.301950 -1.658936 0
M  V30 50 H -3.190341 -4.512597 0.266771 0
M  V30 51 H -4.061339 -3.202399 2.231452 0
M  V30 52 H -3.879245 -0.788791 2.197063 0
M  V30 53 H -2.899086 0.384771 0.354679 0
M  V30 54 H -0.108515 -1.532516 -0.289066 0
M  V30 55 H 1.353746 -2.161639 -2.194252 0
M  V30 56 H 2.046024 -0.462075 -2.262932 0
M  V30 57 H 2.987468 -1.019892 0.018431 0
M  V30 58 H 3.067196 -3.270479 0.484422 0
M  V30 59 H 1.557411 -2.879434 1.323329 0
M  V30 60 H 0.331559 -3.740318 -0.818090 0
M  V30 61 H 1.934559 -4.005657 -1.536596 0
M  V30 62 H 2.559481 -5.530383 0.246188 0
M  V30 63 H 0.953063 -5.225658 1.051989 0
M  V30 64 H -0.136146 -6.594089 -0.391755 0
M  V30 65 H 1.533774 -7.115887 -0.980347 0
M  V30 66 H 0.590790 -5.820760 -1.804080 0
M  V30 67 H 2.906295 2.806891 -1.181229 0
M  V30 68 H 3.305057 1.079873 -1.021879 0
M  V30 69 H 2.386751 2.667061 1.197543 0
M  V30 70 H 2.311018 0.845050 1.226344 0
M  V30 71 H -3.198177 3.271597 1.558615 0
M  V30 72 H -3.598098 3.873617 3.809767 0
M  V30 73 H -1.837601 4.505417 5.298929 0
M  V30 74 H 2.581103 4.037329 5.310179 0
M  V30 75 H 2.410439 4.529049 3.621645 0
M  V30 76 H 2.390325 5.813702 4.860802 0
M  V30 77 H 0.983361 3.991558 2.291996 0
M  V30 END ATOM
M  V30 BEGIN BOND
M  V30 1 2 1 2
M  V30 2 1 2 3
M  V30 3 1 3 4
M  V30 4 1 4 5
M  V30 5 1 5 6
M  V30 6 1 6 7
M  V30 7 2 7 8
M  V30 8 1 7 9
M  V30 9 2 9 10
M  V30 10 1 10 11
M  V30 11 2 11 12
M  V30 12 1 12 13
M  V30 13 2 13 14
M  V30 14 1 7 15
M  V30 15 2 15 16
M  V30 16 1 16 17
M  V30 17 2 17 18
M  V30 18 1 18 19
M  V30 19 2 19 20
M  V30 20 1 5 21
M  V30 21 1 21 22
M  V30 22 1 22 23
M  V30 23 1 23 24
M  V30 24 1 24 25
M  V30 25 1 25 26
M  V30 26 1 26 27
M  V30 27 1 4 28
M  V30 28 1 28 29
M  V30 29 1 2 30
M  V30 30 2 30 31
M  V30 31 1 31 32
M  V30 32 2 32 33
M  V30 33 1 33 34
M  V30 34 1 34 35
M  V30 35 1 35 36
M  V30 36 2 34 37
M  V30 37 1 29 4
M  V30 38 1 37 30
M  V30 39 1 14 9
M  V30 40 1 20 15
M  V30 41 1 23 21
M  V30 42 1 1 38
M  V30 43 1 1 39
M  V30 44 1 3 40
M  V30 45 1 3 41
M  V30 46 1 5 42 CFG=1
M  V30 47 1 6 43
M  V30 48 1 10 44
M  V30 49 1 11 45
M  V30 50 1 12 46
M  V30 51 1 13 47
M  V30 52 1 14 48
M  V30 53 1 16 49
M  V30 54 1 17 50
M  V30 55 1 18 51
M  V30 56 1 19 52
M  V30 57 1 20 53
M  V30 58 1 21 54 CFG=3
M  V30 59 1 22 55
M  V30 60 1 22 56
M  V30 61 1 23 57 CFG=1
M  V30 62 1 24 58
M  V30 63 1 24 59
M  V30 64 1 25 60
M  V30 65 1 25 61
M  V30 66 1 26 62
M  V30 67 1 26 63
M  V30 68 1 27 64
M  V30 69 1 27 65
M  V30 70 1 27 66
M  V30 71 1 28 67
M  V30 72 1 28 68
M  V30 73 1 29 69
M  V30 74 1 29 70
M  V30 75 1 31 71
M  V30 76 1 32 72
M  V30 77 1 33 73
M  V30 78 1 36 74
M  V30 79 1 36 75
M  V30 80 1 36 76
M  V30 81 1 37 77
M  V30 END BOND
M  V30 END CTAB
M  END
>  <Dataset>  (511) 
ChEMBL_Kinases

>  <Ligand_Instance>  (511) 
nan

>  <PDB_ID>  (511) 
nan

>  <Standardized_SMILES>  (511) 
C=C(CC1([C@@H](NP(=O)(c2ccccc2)c2ccccc2)[C@H]2C[C@@H]2CCCC)CC1)c1cccc(OC)c1

>  <Name>  (511) 
nan

>  <Pocket>  (511) 
nan

>  <ATP_Site>  (511) 
nan

>  <Peripheral>  (511) 
nan

>  <Num_H_Atoms_ProtBoundConf>  (511) 
nan

>  <Num_Resolved_Atoms>  (511) 
nan

>  <Num_Not_Resolved_Atoms>  (511) 
nan

$$$$
CHEMBL1331389
     RDKit          3D

  0  0  0  0  0  0  0  0  0  0999 V3000
M  V30 BEGIN CTAB
M  V30 COUNTS 49 51 0 0 0
M  V30 BEGIN ATOM
M  V30 1 C 1.871745 -3.561087 2.767895 0
M  V30 2 C 1.674477 -3.821680 1.322144 0
M  V30 3 O 1.203313 -2.792001 0.525538 0
M  V30 4 C 1.744874 -1.555427 0.293751 0
M  V30 5 C 2.694674 -1.488366 -0.722845 0
M  V30 6 O 3.017992 -2.646243 -1.409867 0
M  V30 7 C 3.948339 -2.748965 -2.451232 0
M  V30 8 C 3.324298 -0.284621 -1.061605 0
M  V30 9 C 2.943271 0.839236 -0.320357 0
M  V30 10 C 2.001390 0.719602 0.671602 0
M  V30 11 C 1.370695 -0.449403 1.020113 0
M  V30 12 C 0.361416 -0.418952 2.075656 0
M  V30 13 C 0.696706 0.405117 3.269082 0
M  V30 14 C 0.360703 1.832564 3.170611 0
M  V30 15 O 1.167287 2.724579 3.579450 0
M  V30 16 N -0.860292 2.257962 2.623205 0
M  V30 17 C -1.529440 1.341413 1.765149 0
M  V30 18 C -2.727786 1.683379 1.197642 0
M  V30 19 C -3.408275 0.836225 0.371146 0
M  V30 20 O -4.621638 1.195774 -0.196829 0
M  V30 21 C -5.164046 2.490455 0.103392 0
M  V30 22 C -2.870277 -0.399386 0.102548 0
M  V30 23 O -3.572495 -1.238363 -0.733723 0
M  V30 24 C -3.097174 -2.525907 -1.066228 0
M  V30 25 C -1.659502 -0.717745 0.689755 0
M  V30 26 C -0.944725 0.115990 1.530521 0
M  V30 27 H 2.451966 -4.415425 3.189927 0
M  V30 28 H 2.448117 -2.640364 3.010109 0
M  V30 29 H 0.892921 -3.560378 3.325677 0
M  V30 30 H 2.614177 -4.284064 0.935795 0
M  V30 31 H 0.916675 -4.657527 1.248871 0
M  V30 32 H 3.953194 -1.832092 -3.082843 0
M  V30 33 H 3.662201 -3.602822 -3.104469 0
M  V30 34 H 4.975106 -2.931020 -2.110485 0
M  V30 35 H 4.050243 -0.225518 -1.836344 0
M  V30 36 H 3.449662 1.748799 -0.609851 0
M  V30 37 H 1.816625 1.664262 1.142333 0
M  V30 38 H 0.064595 -1.441388 2.445716 0
M  V30 39 H 0.096894 0.010412 4.142460 0
M  V30 40 H 1.746468 0.300984 3.610802 0
M  V30 41 H -1.271613 3.189251 2.820549 0
M  V30 42 H -3.124195 2.661937 1.428329 0
M  V30 43 H -5.149047 2.605085 1.204911 0
M  V30 44 H -4.491987 3.272261 -0.303336 0
M  V30 45 H -6.207499 2.565823 -0.258848 0
M  V30 46 H -2.923902 -3.110593 -0.131869 0
M  V30 47 H -2.151789 -2.454476 -1.639221 0
M  V30 48 H -3.830115 -3.049356 -1.712019 0
M  V30 49 H -1.321325 -1.715391 0.412893 0
M  V30 END ATOM
M  V30 BEGIN BOND
M  V30 1 1 1 2
M  V30 2 1 2 3
M  V30 3 1 3 4
M  V30 4 2 4 5
M  V30 5 1 5 6
M  V30 6 1 6 7
M  V30 7 1 5 8
M  V30 8 2 8 9
M  V30 9 1 9 10
M  V30 10 2 10 11
M  V30 11 1 11 12
M  V30 12 1 12 13
M  V30 13 1 13 14
M  V30 14 2 14 15
M  V30 15 1 14 16
M  V30 16 1 16 17
M  V30 17 2 17 18
M  V30 18 1 18 19
M  V30 19 1 19 20
M  V30 20 1 20 21
M  V30 21 2 19 22
M  V30 22 1 22 23
M  V30 23 1 23 24
M  V30 24 1 22 25
M  V30 25 2 25 26
M  V30 26 1 11 4
M  V30 27 1 26 12
M  V30 28 1 26 17
M  V30 29 1 1 27
M  V30 30 1 1 28
M  V30 31 1 1 29
M  V30 32 1 2 30
M  V30 33 1 2 31
M  V30 34 1 7 32
M  V30 35 1 7 33
M  V30 36 1 7 34
M  V30 37 1 8 35
M  V30 38 1 9 36
M  V30 39 1 10 37
M  V30 40 1 12 38
M  V30 41 1 13 39
M  V30 42 1 13 40
M  V30 43 1 16 41
M  V30 44 1 18 42
M  V30 45 1 21 43
M  V30 46 1 21 44
M  V30 47 1 21 45
M  V30 48 1 24 46
M  V30 49 1 24 47
M  V30 50 1 24 48
M  V30 51 1 25 49
M  V30 END BOND
M  V30 END CTAB
M  END
>  <Dataset>  (512) 
ChEMBL_Kinases

>  <Ligand_Instance>  (512) 
nan

>  <PDB_ID>  (512) 
nan

>  <Standardized_SMILES>  (512) 
CCOc1c(OC)cccc1C1CC(=O)Nc2cc(OC)c(OC)cc21

>  <Name>  (512) 
nan

>  <Pocket>  (512) 
nan

>  <ATP_Site>  (512) 
nan

>  <Peripheral>  (512) 
nan

>  <Num_H_Atoms_ProtBoundConf>  (512) 
nan

>  <Num_Resolved_Atoms>  (512) 
nan

>  <Num_Not_Resolved_Atoms>  (512) 
nan

$$$$
CHEMBL1332354
     RDKit          3D

  0  0  0  0  0  0  0  0  0  0999 V3000
M  V30 BEGIN CTAB
M  V30 COUNTS 43 44 0 0 0
M  V30 BEGIN ATOM
M  V30 1 C 0.227555 -5.103421 2.705888 0
M  V30 2 O 1.210652 -4.221964 3.197231 0
M  V30 3 C 1.876863 -3.329712 2.418707 0
M  V30 4 O 1.936967 -2.934678 1.203395 0
M  V30 5 C 2.901318 -2.273841 2.355692 0
M  V30 6 S 3.089606 -1.494789 0.793730 0
M  V30 7 C 1.933443 -0.319896 0.235976 0
M  V30 8 N 2.426931 0.872711 0.676318 0
M  V30 9 C 1.651434 1.905883 0.249863 0
M  V30 10 C 0.664037 1.269219 -0.469794 0
M  V30 11 C -0.290934 2.076331 -1.045954 0
M  V30 12 O -1.204254 1.575359 -1.708043 0
M  V30 13 N -0.328801 3.399227 -0.958199 0
M  V30 14 C 0.655737 4.016969 -0.240241 0
M  V30 15 O 0.731830 5.281634 -0.079918 0
M  V30 16 N 1.607466 3.271894 0.338018 0
M  V30 17 C 2.701359 3.847564 1.130702 0
M  V30 18 N 0.827486 -0.063105 -0.478791 0
M  V30 19 C 0.116590 -1.096357 -1.130097 0
M  V30 20 C -1.177483 -1.525033 -0.524417 0
M  V30 21 C -1.196072 -2.005275 0.873683 0
M  V30 22 C -2.685208 -2.358064 1.162740 0
M  V30 23 C -0.876489 -0.947527 1.910675 0
M  V30 24 H -0.780168 -4.870199 3.096449 0
M  V30 25 H 0.496206 -6.153928 2.985532 0
M  V30 26 H 0.200126 -5.064521 1.584902 0
M  V30 27 H 3.889627 -2.777518 2.620817 0
M  V30 28 H 2.785959 -1.542332 3.203314 0
M  V30 29 H -1.050273 3.993598 -1.394579 0
M  V30 30 H 3.695263 3.641112 0.690806 0
M  V30 31 H 2.515672 4.951629 1.216725 0
M  V30 32 H 2.678902 3.461347 2.172474 0
M  V30 33 H 0.754892 -1.986932 -1.346895 0
M  V30 34 H -0.142754 -0.698948 -2.161195 0
M  V30 35 H -1.971027 -0.737420 -0.617611 0
M  V30 36 H -1.599099 -2.381980 -1.148778 0
M  V30 37 H -0.677762 -2.934928 1.058211 0
M  V30 38 H -3.215225 -1.381421 1.175563 0
M  V30 39 H -2.765254 -2.813243 2.151183 0
M  V30 40 H -3.112265 -2.935029 0.330197 0
M  V30 41 H -1.084233 0.068743 1.499857 0
M  V30 42 H -1.571326 -1.006273 2.800430 0
M  V30 43 H 0.127672 -1.054263 2.354226 0
M  V30 END ATOM
M  V30 BEGIN BOND
M  V30 1 1 1 2
M  V30 2 1 2 3
M  V30 3 2 3 4
M  V30 4 1 3 5
M  V30 5 1 5 6
M  V30 6 1 6 7
M  V30 7 2 7 8
M  V30 8 1 8 9
M  V30 9 2 9 10
M  V30 10 1 10 11
M  V30 11 2 11 12
M  V30 12 1 11 13
M  V30 13 1 13 14
M  V30 14 2 14 15
M  V30 15 1 14 16
M  V30 16 1 16 17
M  V30 17 1 10 18
M  V30 18 1 18 19
M  V30 19 1 19 20
M  V30 20 1 20 21
M  V30 21 1 21 22
M  V30 22 1 21 23
M  V30 23 1 18 7
M  V30 24 1 16 9
M  V30 25 1 1 24
M  V30 26 1 1 25
M  V30 27 1 1 26
M  V30 28 1 5 27
M  V30 29 1 5 28
M  V30 30 1 13 29
M  V30 31 1 17 30
M  V30 32 1 17 31
M  V30 33 1 17 32
M  V30 34 1 19 33
M  V30 35 1 19 34
M  V30 36 1 20 35
M  V30 37 1 20 36
M  V30 38 1 21 37
M  V30 39 1 22 38
M  V30 40 1 22 39
M  V30 41 1 22 40
M  V30 42 1 23 41
M  V30 43 1 23 42
M  V30 44 1 23 43
M  V30 END BOND
M  V30 END CTAB
M  END
>  <Dataset>  (513) 
ChEMBL_Kinases

>  <Ligand_Instance>  (513) 
nan

>  <PDB_ID>  (513) 
nan

>  <Standardized_SMILES>  (513) 
COC(=O)CSc1nc2c(c(=O)[nH]c(=O)n2C)n1CCC(C)C

>  <Name>  (513) 
nan

>  <Pocket>  (513) 
nan

>  <ATP_Site>  (513) 
nan

>  <Peripheral>  (513) 
nan

>  <Num_H_Atoms_ProtBoundConf>  (513) 
nan

>  <Num_Resolved_Atoms>  (513) 
nan

>  <Num_Not_Resolved_Atoms>  (513) 
nan

$$$$
CHEMBL1331627
     RDKit          3D

  0  0  0  0  0  0  0  0  0  0999 V3000
M  V30 BEGIN CTAB
M  V30 COUNTS 17 18 0 0 0
M  V30 BEGIN ATOM
M  V30 1 N -1.383069 -0.251659 -0.065802 0
M  V30 2 C -0.075854 -0.520402 0.435455 0
M  V30 3 N 0.407817 -1.775514 0.384857 0
M  V30 4 N 1.617404 -1.709419 0.912960 0
M  V30 5 C 1.941588 -0.478739 1.302264 0
M  V30 6 C 3.043141 0.109385 1.891058 0
M  V30 7 C 3.006239 1.481195 2.155586 0
M  V30 8 C 1.904187 2.245112 1.842769 0
M  V30 9 C 0.783945 1.676475 1.250005 0
M  V30 10 C 0.859542 0.323935 1.005876 0
M  V30 11 H -1.838769 0.341355 -0.812708 0
M  V30 12 H -2.234952 -0.708131 0.331275 0
M  V30 13 H 0.012035 -2.680855 0.031559 0
M  V30 14 H 3.887452 -0.520567 2.121573 0
M  V30 15 H 3.920972 1.828520 2.615718 0
M  V30 16 H 1.950567 3.284454 2.074808 0
M  V30 17 H -0.085295 2.261912 0.999772 0
M  V30 END ATOM
M  V30 BEGIN BOND
M  V30 1 1 1 2
M  V30 2 1 2 3
M  V30 3 1 3 4
M  V30 4 2 4 5
M  V30 5 1 5 6
M  V30 6 2 6 7
M  V30 7 1 7 8
M  V30 8 2 8 9
M  V30 9 1 9 10
M  V30 10 2 10 2
M  V30 11 1 10 5
M  V30 12 1 1 11
M  V30 13 1 1 12
M  V30 14 1 3 13
M  V30 15 1 6 14
M  V30 16 1 7 15
M  V30 17 1 8 16
M  V30 18 1 9 17
M  V30 END BOND
M  V30 END CTAB
M  END
>  <Dataset>  (514) 
ChEMBL_Kinases

>  <Ligand_Instance>  (514) 
nan

>  <PDB_ID>  (514) 
nan

>  <Standardized_SMILES>  (514) 
Nc1[nH]nc2ccccc12

>  <Name>  (514) 
nan

>  <Pocket>  (514) 
nan

>  <ATP_Site>  (514) 
nan

>  <Peripheral>  (514) 
nan

>  <Num_H_Atoms_ProtBoundConf>  (514) 
nan

>  <Num_Resolved_Atoms>  (514) 
nan

>  <Num_Not_Resolved_Atoms>  (514) 
nan

$$$$
CHEMBL1331894
     RDKit          3D

  0  0  0  0  0  0  0  0  0  0999 V3000
M  V30 BEGIN CTAB
M  V30 COUNTS 62 65 0 0 0
M  V30 BEGIN ATOM
M  V30 1 C 6.957433 -3.023189 2.010220 0
M  V30 2 C 6.832273 -1.526833 2.214886 0
M  V30 3 N 5.432361 -1.097833 2.089409 0
M  V30 4 C 5.017088 -0.730455 0.756530 0
M  V30 5 C 3.781864 0.124779 0.725841 0
M  V30 6 N 2.815774 -0.502360 1.642572 0
M  V30 7 C 1.496923 -0.848033 1.183679 0
M  V30 8 C 0.514905 0.229476 1.372098 0
M  V30 9 O 0.848360 1.305049 1.884518 0
M  V30 10 N -0.813338 -0.041885 0.934430 0
M  V30 11 N -2.078159 -0.188906 0.563214 0
M  V30 12 C -3.006893 0.500963 1.002254 0
M  V30 13 C -4.203113 1.219302 1.416391 0
M  V30 14 C -4.124989 2.239307 2.343907 0
M  V30 15 C -5.304946 2.871198 2.670166 0
M  V30 16 C -6.484592 2.459638 2.064112 0
M  V30 17 O -7.646324 3.123268 2.422841 0
M  V30 18 C -8.930767 2.842579 1.912309 0
M  V30 19 C -6.565534 1.443218 1.139363 0
M  V30 20 C -5.382797 0.815450 0.817063 0
M  V30 21 C -2.900467 -0.683850 0.133638 0
M  V30 22 C -1.490288 -1.102755 0.305023 0
M  V30 23 C -0.877060 -1.573167 -0.969423 0
M  V30 24 C -0.418215 -0.746882 -1.979154 0
M  V30 25 C 0.139224 -1.279450 -3.139615 0
M  V30 26 C 0.249145 -2.656641 -3.314816 0
M  V30 27 O 0.805838 -3.214227 -4.473651 0
M  V30 28 C 0.912131 -4.637052 -4.638591 0
M  V30 29 C -0.195936 -3.549967 -2.332376 0
M  V30 30 C -0.728819 -2.920805 -1.227887 0
M  V30 31 C 3.216741 -0.759458 2.997883 0
M  V30 32 O 2.364229 -0.700628 3.895089 0
M  V30 33 C 4.624334 -1.082443 3.261599 0
M  V30 34 O 5.030158 -1.313487 4.406945 0
M  V30 35 H 7.056830 -3.525763 2.985316 0
M  V30 36 H 6.053852 -3.452328 1.523565 0
M  V30 37 H 7.866211 -3.282040 1.398109 0
M  V30 38 H 7.238348 -1.297564 3.219997 0
M  V30 39 H 7.457479 -1.063900 1.417009 0
M  V30 40 H 5.823561 -0.144900 0.266241 0
M  V30 41 H 4.792640 -1.633242 0.163177 0
M  V30 42 H 4.022450 1.166992 1.031734 0
M  V30 43 H 3.364972 0.077038 -0.294494 0
M  V30 44 H 1.116149 -1.809992 1.627908 0
M  V30 45 H 1.562326 -1.069281 0.098152 0
M  V30 46 H -3.187978 2.531015 2.795627 0
M  V30 47 H -5.273431 3.672293 3.392733 0
M  V30 48 H -9.195155 3.447585 1.022014 0
M  V30 49 H -9.683639 3.081135 2.684669 0
M  V30 50 H -9.074399 1.770662 1.649959 0
M  V30 51 H -7.454241 1.097040 0.645849 0
M  V30 52 H -5.400146 -0.000055 0.085445 0
M  V30 53 H -3.635037 -1.493608 0.458059 0
M  V30 54 H -3.147496 -0.430006 -0.945811 0
M  V30 55 H -1.466472 -2.007930 1.015287 0
M  V30 56 H -0.509380 0.321245 -1.831820 0
M  V30 57 H 0.496245 -0.603865 -3.924049 0
M  V30 58 H 1.551597 -5.042262 -3.844366 0
M  V30 59 H 1.276572 -4.822001 -5.661500 0
M  V30 60 H -0.119260 -5.083375 -4.527125 0
M  V30 61 H -0.137674 -4.607458 -2.414618 0
M  V30 62 H -1.082652 -3.611602 -0.443827 0
M  V30 END ATOM
M  V30 BEGIN BOND
M  V30 1 1 1 2
M  V30 2 1 2 3
M  V30 3 1 3 4
M  V30 4 1 4 5
M  V30 5 1 5 6
M  V30 6 1 6 7
M  V30 7 1 7 8
M  V30 8 2 8 9
M  V30 9 1 8 10
M  V30 10 1 10 11
M  V30 11 2 11 12
M  V30 12 1 12 13
M  V30 13 2 13 14
M  V30 14 1 14 15
M  V30 15 2 15 16
M  V30 16 1 16 17
M  V30 17 1 17 18
M  V30 18 1 16 19
M  V30 19 2 19 20
M  V30 20 1 12 21
M  V30 21 1 21 22
M  V30 22 1 22 23
M  V30 23 2 23 24
M  V30 24 1 24 25
M  V30 25 2 25 26
M  V30 26 1 26 27
M  V30 27 1 27 28
M  V30 28 1 26 29
M  V30 29 2 29 30
M  V30 30 1 6 31
M  V30 31 2 31 32
M  V30 32 1 31 33
M  V30 33 2 33 34
M  V30 34 1 33 3
M  V30 35 1 22 10
M  V30 36 1 30 23
M  V30 37 1 20 13
M  V30 38 1 1 35
M  V30 39 1 1 36
M  V30 40 1 1 37
M  V30 41 1 2 38
M  V30 42 1 2 39
M  V30 43 1 4 40
M  V30 44 1 4 41
M  V30 45 1 5 42
M  V30 46 1 5 43
M  V30 47 1 7 44
M  V30 48 1 7 45
M  V30 49 1 14 46
M  V30 50 1 15 47
M  V30 51 1 18 48
M  V30 52 1 18 49
M  V30 53 1 18 50
M  V30 54 1 19 51
M  V30 55 1 20 52
M  V30 56 1 21 53
M  V30 57 1 21 54
M  V30 58 1 22 55
M  V30 59 1 24 56
M  V30 60 1 25 57
M  V30 61 1 28 58
M  V30 62 1 28 59
M  V30 63 1 28 60
M  V30 64 1 29 61
M  V30 65 1 30 62
M  V30 END BOND
M  V30 END CTAB
M  END
>  <Dataset>  (515) 
ChEMBL_Kinases

>  <Ligand_Instance>  (515) 
nan

>  <PDB_ID>  (515) 
nan

>  <Standardized_SMILES>  (515) 
CCN1CCN(CC(=O)N2N=C(c3ccc(OC)cc3)CC2c2ccc(OC)cc2)C(=O)C1=O

>  <Name>  (515) 
nan

>  <Pocket>  (515) 
nan

>  <ATP_Site>  (515) 
nan

>  <Peripheral>  (515) 
nan

>  <Num_H_Atoms_ProtBoundConf>  (515) 
nan

>  <Num_Resolved_Atoms>  (515) 
nan

>  <Num_Not_Resolved_Atoms>  (515) 
nan

$$$$
CHEMBL1331913
     RDKit          3D

  0  0  0  0  0  0  0  0  0  0999 V3000
M  V30 BEGIN CTAB
M  V30 COUNTS 30 32 0 0 0
M  V30 BEGIN ATOM
M  V30 1 O -0.537812 -0.807151 2.796141 0
M  V30 2 C -0.224419 -0.207886 1.726582 0
M  V30 3 C 1.089830 -0.388546 1.153004 0
M  V30 4 C 2.010390 -1.265958 1.470250 0
M  V30 5 C 3.302222 -1.329017 0.796670 0
M  V30 6 C 4.380210 -1.613628 1.646929 0
M  V30 7 C 5.689852 -1.713144 1.160221 0
M  V30 8 C 5.826576 -1.512745 -0.191455 0
M  V30 9 N 4.804996 -1.239367 -1.020118 0
M  V30 10 C 3.527822 -1.141311 -0.552220 0
M  V30 11 S 1.218734 0.876203 -0.124673 0
M  V30 12 C -0.544293 1.236901 -0.168264 0
M  V30 13 S -1.337789 2.053212 -1.319786 0
M  V30 14 N -1.078211 0.654427 1.017090 0
M  V30 15 C -2.455709 0.961533 1.443951 0
M  V30 16 C -3.436810 0.005438 0.863798 0
M  V30 17 C -3.830469 -1.180462 1.453299 0
M  V30 18 C -4.747795 -1.789403 0.619085 0
M  V30 19 C -4.866107 -0.916772 -0.463351 0
M  V30 20 O -4.088003 0.114718 -0.283541 0
M  V30 21 H 1.787996 -1.979846 2.279772 0
M  V30 22 H 4.250377 -1.770547 2.721709 0
M  V30 23 H 6.527715 -1.931783 1.808898 0
M  V30 24 H 6.808882 -1.569427 -0.671355 0
M  V30 25 H 2.665575 -0.926151 -1.167218 0
M  V30 26 H -2.722805 1.989101 1.144914 0
M  V30 27 H -2.515635 0.852823 2.566273 0
M  V30 28 H -3.527975 -1.631683 2.396814 0
M  V30 29 H -5.249819 -2.731634 0.786556 0
M  V30 30 H -5.524649 -1.115036 -1.307070 0
M  V30 END ATOM
M  V30 BEGIN BOND
M  V30 1 2 1 2
M  V30 2 1 2 3
M  V30 3 2 3 4
M  V30 4 1 4 5
M  V30 5 2 5 6
M  V30 6 1 6 7
M  V30 7 2 7 8
M  V30 8 1 8 9
M  V30 9 2 9 10
M  V30 10 1 3 11
M  V30 11 1 11 12
M  V30 12 2 12 13
M  V30 13 1 12 14
M  V30 14 1 14 15
M  V30 15 1 15 16
M  V30 16 2 16 17
M  V30 17 1 17 18
M  V30 18 2 18 19
M  V30 19 1 19 20
M  V30 20 1 14 2
M  V30 21 1 20 16
M  V30 22 1 10 5
M  V30 23 1 4 21
M  V30 24 1 6 22
M  V30 25 1 7 23
M  V30 26 1 8 24
M  V30 27 1 10 25
M  V30 28 1 15 26
M  V30 29 1 15 27
M  V30 30 1 17 28
M  V30 31 1 18 29
M  V30 32 1 19 30
M  V30 END BOND
M  V30 END CTAB
M  END
>  <Dataset>  (516) 
ChEMBL_Kinases

>  <Ligand_Instance>  (516) 
nan

>  <PDB_ID>  (516) 
nan

>  <Standardized_SMILES>  (516) 
O=C1/C(=C/c2cccnc2)SC(=S)N1Cc1ccco1

>  <Name>  (516) 
nan

>  <Pocket>  (516) 
nan

>  <ATP_Site>  (516) 
nan

>  <Peripheral>  (516) 
nan

>  <Num_H_Atoms_ProtBoundConf>  (516) 
nan

>  <Num_Resolved_Atoms>  (516) 
nan

>  <Num_Not_Resolved_Atoms>  (516) 
nan

$$$$
CHEMBL1332033
     RDKit          3D

  0  0  0  0  0  0  0  0  0  0999 V3000
M  V30 BEGIN CTAB
M  V30 COUNTS 38 41 0 0 0
M  V30 BEGIN ATOM
M  V30 1 C -1.385545 -2.955016 0.386018 0
M  V30 2 N -0.325398 -2.236137 -0.337748 0
M  V30 3 C 0.762950 -3.168234 -0.579136 0
M  V30 4 C 1.900243 -2.548820 -1.308940 0
M  V30 5 C 2.934320 -1.942705 -0.585729 0
M  V30 6 C 3.865885 -1.444715 -1.484434 0
M  V30 7 C 3.342962 -1.777865 -2.710952 0
M  V30 8 O 2.199064 -2.419535 -2.581844 0
M  V30 9 C -0.376374 -0.854574 -0.728569 0
M  V30 10 N -0.284564 -0.645334 -2.061814 0
M  V30 11 C -0.314180 0.580328 -2.613349 0
M  V30 12 N -0.440179 1.653398 -1.815912 0
M  V30 13 C -0.536647 1.505442 -0.469370 0
M  V30 14 C -0.668825 2.588114 0.402173 0
M  V30 15 C -0.762568 2.360397 1.776719 0
M  V30 16 C -0.725110 1.058575 2.286266 0
M  V30 17 C -0.827024 0.868750 3.745950 0
M  V30 18 C -0.324786 1.805365 4.651513 0
M  V30 19 C -0.603948 1.284437 5.903365 0
M  V30 20 O -1.216875 0.141277 5.741036 0
M  V30 21 C -1.381416 -0.165454 4.481931 0
M  V30 22 C -0.593208 -0.042051 1.432953 0
M  V30 23 C -0.506376 0.247277 0.098702 0
M  V30 24 H -0.971312 -3.420586 1.326672 0
M  V30 25 H -2.259810 -2.334547 0.574298 0
M  V30 26 H -1.682939 -3.857411 -0.224851 0
M  V30 27 H 0.360114 -3.991966 -1.219388 0
M  V30 28 H 1.080779 -3.610816 0.363781 0
M  V30 29 H 3.045133 -1.846834 0.493141 0
M  V30 30 H 4.773129 -0.924219 -1.203759 0
M  V30 31 H 3.833126 -1.530605 -3.659857 0
M  V30 32 H -0.238209 0.713604 -3.684823 0
M  V30 33 H -0.692867 3.574139 -0.039375 0
M  V30 34 H -0.864160 3.192427 2.446118 0
M  V30 35 H 0.178785 2.744543 4.506431 0
M  V30 36 H -0.407683 1.650223 6.911328 0
M  V30 37 H -1.846911 -1.033621 4.034804 0
M  V30 38 H -0.564856 -1.038385 1.828829 0
M  V30 END ATOM
M  V30 BEGIN BOND
M  V30 1 1 1 2
M  V30 2 1 2 3
M  V30 3 1 3 4
M  V30 4 2 4 5
M  V30 5 1 5 6
M  V30 6 2 6 7
M  V30 7 1 7 8
M  V30 8 1 2 9
M  V30 9 2 9 10
M  V30 10 1 10 11
M  V30 11 2 11 12
M  V30 12 1 12 13
M  V30 13 2 13 14
M  V30 14 1 14 15
M  V30 15 2 15 16
M  V30 16 1 16 17
M  V30 17 1 17 18
M  V30 18 2 18 19
M  V30 19 1 19 20
M  V30 20 1 20 21
M  V30 21 1 16 22
M  V30 22 2 22 23
M  V30 23 1 8 4
M  V30 24 1 23 9
M  V30 25 1 23 13
M  V30 26 2 21 17
M  V30 27 1 1 24
M  V30 28 1 1 25
M  V30 29 1 1 26
M  V30 30 1 3 27
M  V30 31 1 3 28
M  V30 32 1 5 29
M  V30 33 1 6 30
M  V30 34 1 7 31
M  V30 35 1 11 32
M  V30 36 1 14 33
M  V30 37 1 15 34
M  V30 38 1 18 35
M  V30 39 1 19 36
M  V30 40 1 21 37
M  V30 41 1 22 38
M  V30 END BOND
M  V30 END CTAB
M  END
>  <Dataset>  (517) 
ChEMBL_Kinases

>  <Ligand_Instance>  (517) 
nan

>  <PDB_ID>  (517) 
nan

>  <Standardized_SMILES>  (517) 
CN(Cc1ccco1)c1ncnc2ccc(-c3ccoc3)cc12

>  <Name>  (517) 
nan

>  <Pocket>  (517) 
nan

>  <ATP_Site>  (517) 
nan

>  <Peripheral>  (517) 
nan

>  <Num_H_Atoms_ProtBoundConf>  (517) 
nan

>  <Num_Resolved_Atoms>  (517) 
nan

>  <Num_Not_Resolved_Atoms>  (517) 
nan

$$$$
CHEMBL1332089
     RDKit          3D

  0  0  0  0  0  0  0  0  0  0999 V3000
M  V30 BEGIN CTAB
M  V30 COUNTS 38 39 0 0 0
M  V30 BEGIN ATOM
M  V30 1 C -2.701740 -1.977421 1.248320 0
M  V30 2 C -1.249856 -2.200855 1.585583 0
M  V30 3 C -1.081812 -2.552474 2.922714 0
M  V30 4 C 0.187873 -2.790179 3.386332 0
M  V30 5 C 1.243281 -2.677516 2.537936 0
M  V30 6 C 1.100488 -2.325562 1.192415 0
M  V30 7 C -0.166386 -2.083246 0.704277 0
M  V30 8 O -0.626649 -1.739330 -0.535314 0
M  V30 9 C -0.012352 -1.490778 -1.708888 0
M  V30 10 C 0.806639 -0.220522 -1.759668 0
M  V30 11 C -0.021476 0.997944 -1.636492 0
M  V30 12 C -0.714836 1.406533 -0.416991 0
M  V30 13 C 0.055550 1.996477 0.682166 0
M  V30 14 N 1.106495 1.391717 1.360604 0
M  V30 15 C 2.438345 1.421265 1.060222 0
M  V30 16 C 3.211347 0.769269 1.991925 0
M  V30 17 N 2.340939 0.325264 2.889589 0
M  V30 18 C 1.112428 0.700376 2.500589 0
M  V30 19 H -2.767249 -1.528605 0.229287 0
M  V30 20 H -3.182906 -1.280346 1.958898 0
M  V30 21 H -3.205358 -2.954643 1.223756 0
M  V30 22 H -1.875506 -2.656633 3.640040 0
M  V30 23 H 0.463807 -3.066414 4.380135 0
M  V30 24 H 2.297549 -2.839700 2.783000 0
M  V30 25 H 1.847161 -2.202362 0.422618 0
M  V30 26 H -0.788346 -1.359846 -2.535095 0
M  V30 27 H 0.629188 -2.334984 -2.098392 0
M  V30 28 H 1.380049 -0.200688 -2.725898 0
M  V30 29 H 1.578313 -0.254227 -0.982297 0
M  V30 30 H 0.604813 1.900233 -1.976187 0
M  V30 31 H -0.817924 0.889297 -2.470313 0
M  V30 32 H -1.500252 2.179322 -0.752060 0
M  V30 33 H -1.349470 0.525716 -0.069544 0
M  V30 34 H -0.693589 2.389180 1.490545 0
M  V30 35 H 0.422542 3.029900 0.296576 0
M  V30 36 H 2.883180 1.905250 0.176229 0
M  V30 37 H 4.272574 0.659608 1.973184 0
M  V30 38 H 0.247863 0.427848 3.112379 0
M  V30 END ATOM
M  V30 BEGIN BOND
M  V30 1 1 1 2
M  V30 2 2 2 3
M  V30 3 1 3 4
M  V30 4 2 4 5
M  V30 5 1 5 6
M  V30 6 2 6 7
M  V30 7 1 7 8
M  V30 8 1 8 9
M  V30 9 1 9 10
M  V30 10 1 10 11
M  V30 11 1 11 12
M  V30 12 1 12 13
M  V30 13 1 13 14
M  V30 14 1 14 15
M  V30 15 2 15 16
M  V30 16 1 16 17
M  V30 17 2 17 18
M  V30 18 1 7 2
M  V30 19 1 18 14
M  V30 20 1 1 19
M  V30 21 1 1 20
M  V30 22 1 1 21
M  V30 23 1 3 22
M  V30 24 1 4 23
M  V30 25 1 5 24
M  V30 26 1 6 25
M  V30 27 1 9 26
M  V30 28 1 9 27
M  V30 29 1 10 28
M  V30 30 1 10 29
M  V30 31 1 11 30
M  V30 32 1 11 31
M  V30 33 1 12 32
M  V30 34 1 12 33
M  V30 35 1 13 34
M  V30 36 1 13 35
M  V30 37 1 15 36
M  V30 38 1 16 37
M  V30 39 1 18 38
M  V30 END BOND
M  V30 END CTAB
M  END
>  <Dataset>  (518) 
ChEMBL_Kinases

>  <Ligand_Instance>  (518) 
nan

>  <PDB_ID>  (518) 
nan

>  <Standardized_SMILES>  (518) 
Cc1ccccc1OCCCCCn1ccnc1

>  <Name>  (518) 
nan

>  <Pocket>  (518) 
nan

>  <ATP_Site>  (518) 
nan

>  <Peripheral>  (518) 
nan

>  <Num_H_Atoms_ProtBoundConf>  (518) 
nan

>  <Num_Resolved_Atoms>  (518) 
nan

>  <Num_Not_Resolved_Atoms>  (518) 
nan

$$$$
CHEMBL1332162
     RDKit          3D

  0  0  0  0  0  0  0  0  0  0999 V3000
M  V30 BEGIN CTAB
M  V30 COUNTS 54 58 0 0 0
M  V30 BEGIN ATOM
M  V30 1 C 3.612884 -6.637058 -1.245877 0
M  V30 2 N 3.028940 -5.345825 -0.948153 0
M  V30 3 C 3.802387 -4.264489 -0.735560 0
M  V30 4 O 5.049872 -4.324711 -0.784933 0
M  V30 5 C 3.219161 -3.046596 -0.453822 0
M  V30 6 N 3.712265 -1.808729 -0.199053 0
M  V30 7 C 2.666827 -0.963340 0.015141 0
M  V30 8 C 2.569828 0.485754 0.333046 0 CFG=2
M  V30 9 C 2.394616 0.725661 1.784550 0
M  V30 10 C 2.095884 2.129969 2.080706 0
M  V30 11 O 2.311081 2.527072 3.227776 0
M  V30 12 C 1.562541 2.987483 1.016340 0
M  V30 13 C 0.900220 2.213837 -0.065448 0 CFG=2
M  V30 14 C -0.540002 2.009919 0.294758 0
M  V30 15 N -1.617325 2.769257 -0.025084 0
M  V30 16 C -2.736289 2.242045 0.492901 0
M  V30 17 C -4.073535 2.588304 0.481160 0
M  V30 18 O -4.447235 3.615684 -0.123380 0
M  V30 19 N -4.946829 1.790665 1.134930 0
M  V30 20 C -6.366322 2.133041 1.138756 0
M  V30 21 C -4.596660 0.670755 1.802972 0
M  V30 22 O -5.413395 -0.050404 2.398361 0
M  V30 23 N -3.292963 0.336903 1.812015 0
M  V30 24 C -2.887072 -0.856170 2.518465 0
M  V30 25 C -2.375620 1.093146 1.178016 0
M  V30 26 N -1.032840 1.004532 1.022436 0
M  V30 27 N 1.551811 1.033101 -0.507798 0
M  V30 28 N 1.534725 -1.715030 -0.115348 0
M  V30 29 C 1.833979 -2.990355 -0.401306 0
M  V30 30 N 1.107886 -4.102063 -0.621878 0
M  V30 31 C -0.351933 -3.988244 -0.554660 0
M  V30 32 C 1.681961 -5.287505 -0.896296 0
M  V30 33 O 0.926526 -6.279759 -1.090044 0
M  V30 34 H 4.681650 -6.572464 -1.520934 0
M  V30 35 H 3.084003 -7.077835 -2.135574 0
M  V30 36 H 3.425251 -7.345177 -0.412008 0
M  V30 37 H 3.543203 0.930080 0.023096 0
M  V30 38 H 1.717488 0.014964 2.302679 0
M  V30 39 H 3.399803 0.525112 2.261348 0
M  V30 40 H 2.350887 3.680936 0.656625 0
M  V30 41 H 0.801387 3.650832 1.492207 0
M  V30 42 H 0.854700 2.900315 -0.962175 0
M  V30 43 H -6.956344 1.192270 1.170929 0
M  V30 44 H -6.632225 2.647818 0.171825 0
M  V30 45 H -6.583887 2.838413 1.945476 0
M  V30 46 H -3.010952 -0.721171 3.622716 0
M  V30 47 H -1.824535 -1.066826 2.348416 0
M  V30 48 H -3.541991 -1.719554 2.269119 0
M  V30 49 H -0.516584 0.215519 1.450336 0
M  V30 50 H 1.797599 0.995376 -1.497602 0
M  V30 51 H 0.535484 -1.401996 -0.018227 0
M  V30 52 H -0.805327 -4.994186 -0.454238 0
M  V30 53 H -0.626963 -3.311796 0.277012 0
M  V30 54 H -0.687063 -3.600937 -1.546013 0
M  V30 END ATOM
M  V30 BEGIN BOND
M  V30 1 1 1 2
M  V30 2 1 2 3
M  V30 3 2 3 4
M  V30 4 1 3 5
M  V30 5 1 5 6
M  V30 6 2 6 7
M  V30 7 1 7 8
M  V30 8 1 8 9
M  V30 9 1 9 10
M  V30 10 2 10 11
M  V30 11 1 10 12
M  V30 12 1 12 13
M  V30 13 1 13 14
M  V30 14 2 14 15
M  V30 15 1 15 16
M  V30 16 1 16 17
M  V30 17 2 17 18
M  V30 18 1 17 19
M  V30 19 1 19 20
M  V30 20 1 19 21
M  V30 21 2 21 22
M  V30 22 1 21 23
M  V30 23 1 23 24
M  V30 24 1 23 25
M  V30 25 1 25 26
M  V30 26 1 13 27
M  V30 27 1 7 28
M  V30 28 1 28 29
M  V30 29 1 29 30
M  V30 30 1 30 31
M  V30 31 1 30 32
M  V30 32 2 32 33
M  V30 33 1 32 2
M  V30 34 2 29 5
M  V30 35 1 27 8
M  V30 36 1 26 14
M  V30 37 2 25 16
M  V30 38 1 1 34
M  V30 39 1 1 35
M  V30 40 1 1 36
M  V30 41 1 8 37 CFG=3
M  V30 42 1 9 38
M  V30 43 1 9 39
M  V30 44 1 12 40
M  V30 45 1 12 41
M  V30 46 1 13 42 CFG=3
M  V30 47 1 20 43
M  V30 48 1 20 44
M  V30 49 1 20 45
M  V30 50 1 24 46
M  V30 51 1 24 47
M  V30 52 1 24 48
M  V30 53 1 26 49
M  V30 54 1 27 50
M  V30 55 1 28 51
M  V30 56 1 31 52
M  V30 57 1 31 53
M  V30 58 1 31 54
M  V30 END BOND
M  V30 END CTAB
M  END
>  <Dataset>  (519) 
ChEMBL_Kinases

>  <Ligand_Instance>  (519) 
nan

>  <PDB_ID>  (519) 
nan

>  <Standardized_SMILES>  (519) 
Cn1c(=O)c2nc([C@@H]3CC(=O)C[C@H](c4nc5c(=O)n(C)c(=O)n(C)c5[nH]4)N3)[nH]c2n(C)c1=O

>  <Name>  (519) 
nan

>  <Pocket>  (519) 
nan

>  <ATP_Site>  (519) 
nan

>  <Peripheral>  (519) 
nan

>  <Num_H_Atoms_ProtBoundConf>  (519) 
nan

>  <Num_Resolved_Atoms>  (519) 
nan

>  <Num_Not_Resolved_Atoms>  (519) 
nan

$$$$
CHEMBL1332176
     RDKit          3D

  0  0  0  0  0  0  0  0  0  0999 V3000
M  V30 BEGIN CTAB
M  V30 COUNTS 61 64 0 0 0
M  V30 BEGIN ATOM
M  V30 1 C 3.026784 -2.241813 5.412233 0
M  V30 2 C 3.598053 -2.151508 4.037002 0
M  V30 3 C 4.872147 -2.570355 3.764384 0
M  V30 4 C 5.344179 -2.459344 2.465964 0
M  V30 5 C 4.492091 -1.922174 1.491841 0
M  V30 6 C 3.191100 -1.501642 1.803079 0
M  V30 7 N 2.606604 -1.013813 0.595985 0
M  V30 8 C 2.782238 0.377408 0.246979 0
M  V30 9 C 1.709937 1.264619 0.738964 0
M  V30 10 O 1.975761 2.465480 0.387471 0
M  V30 11 N 0.527097 1.014633 1.479288 0
M  V30 12 C -0.442290 1.966943 1.902029 0
M  V30 13 C -1.353505 2.443658 0.830131 0
M  V30 14 C -1.096220 3.549098 0.051959 0
M  V30 15 C -1.914049 4.020011 -0.952530 0
M  V30 16 C -3.089441 3.332987 -1.205640 0
M  V30 17 C -3.413840 2.215684 -0.465765 0
M  V30 18 C -2.548907 1.782623 0.539843 0
M  V30 19 O -4.645236 1.695363 -0.905112 0
M  V30 20 C -4.777974 2.179648 -2.250355 0
M  V30 21 O -4.164831 3.463477 -2.100014 0
M  V30 22 C 1.869389 -1.895785 -0.275242 0
M  V30 23 O 1.344299 -1.466833 -1.352428 0
M  V30 24 C 1.738609 -3.321628 0.118211 0
M  V30 25 C 0.919659 -4.099600 -0.890267 0
M  V30 26 C -0.452835 -3.544224 -1.016209 0
M  V30 27 O -0.863480 -2.542657 -0.350158 0
M  V30 28 N -1.415301 -4.096257 -1.897531 0
M  V30 29 C -2.643338 -3.349027 -1.798823 0
M  V30 30 C -3.069378 -2.244097 -2.502373 0
M  V30 31 C -4.309312 -1.726773 -2.194160 0
M  V30 32 C -5.099750 -2.293477 -1.215073 0
M  V30 33 C -4.639647 -3.399725 -0.531259 0
M  V30 34 N -3.429253 -3.898207 -0.837724 0
M  V30 35 C 2.761255 -1.628887 3.102572 0
M  V30 36 H 3.764886 -2.705817 6.097421 0
M  V30 37 H 2.759867 -1.221078 5.742982 0
M  V30 38 H 2.111974 -2.849044 5.339034 0
M  V30 39 H 5.473538 -2.978763 4.583222 0
M  V30 40 H 6.338479 -2.799706 2.314501 0
M  V30 41 H 5.021163 -1.907035 0.528233 0
M  V30 42 H 2.925658 0.468328 -0.854100 0
M  V30 43 H 3.749792 0.771652 0.681491 0
M  V30 44 H 0.430394 -0.000493 1.691771 0
M  V30 45 H -1.051546 1.517472 2.709680 0
M  V30 46 H 0.049109 2.856830 2.371268 0
M  V30 47 H -0.201576 4.119823 0.205783 0
M  V30 48 H -1.690132 4.887979 -1.548219 0
M  V30 49 H -2.800887 0.913876 1.115572 0
M  V30 50 H -4.137838 1.619017 -2.953219 0
M  V30 51 H -5.831234 2.226683 -2.518685 0
M  V30 52 H 1.239532 -3.358549 1.121051 0
M  V30 53 H 2.727569 -3.814752 0.202535 0
M  V30 54 H 0.931120 -5.185668 -0.673492 0
M  V30 55 H 1.404415 -3.955814 -1.878066 0
M  V30 56 H -1.113682 -4.936885 -2.475313 0
M  V30 57 H -2.344393 -1.925833 -3.224387 0
M  V30 58 H -4.585425 -0.858205 -2.783684 0
M  V30 59 H -6.060701 -1.845478 -1.017253 0
M  V30 60 H -5.280768 -3.833024 0.240137 0
M  V30 61 H 1.752255 -1.269937 3.189894 0
M  V30 END ATOM
M  V30 BEGIN BOND
M  V30 1 1 1 2
M  V30 2 2 2 3
M  V30 3 1 3 4
M  V30 4 2 4 5
M  V30 5 1 5 6
M  V30 6 1 6 7
M  V30 7 1 7 8
M  V30 8 1 8 9
M  V30 9 2 9 10
M  V30 10 1 9 11
M  V30 11 1 11 12
M  V30 12 1 12 13
M  V30 13 2 13 14
M  V30 14 1 14 15
M  V30 15 2 15 16
M  V30 16 1 16 17
M  V30 17 2 17 18
M  V30 18 1 17 19
M  V30 19 1 19 20
M  V30 20 1 20 21
M  V30 21 1 7 22
M  V30 22 2 22 23
M  V30 23 1 22 24
M  V30 24 1 24 25
M  V30 25 1 25 26
M  V30 26 2 26 27
M  V30 27 1 26 28
M  V30 28 1 28 29
M  V30 29 2 29 30
M  V30 30 1 30 31
M  V30 31 2 31 32
M  V30 32 1 32 33
M  V30 33 2 33 34
M  V30 34 2 6 35
M  V30 35 1 35 2
M  V30 36 1 18 13
M  V30 37 1 34 29
M  V30 38 1 21 16
M  V30 39 1 1 36
M  V30 40 1 1 37
M  V30 41 1 1 38
M  V30 42 1 3 39
M  V30 43 1 4 40
M  V30 44 1 5 41
M  V30 45 1 8 42
M  V30 46 1 8 43
M  V30 47 1 11 44
M  V30 48 1 12 45
M  V30 49 1 12 46
M  V30 50 1 14 47
M  V30 51 1 15 48
M  V30 52 1 18 49
M  V30 53 1 20 50
M  V30 54 1 20 51
M  V30 55 1 24 52
M  V30 56 1 24 53
M  V30 57 1 25 54
M  V30 58 1 25 55
M  V30 59 1 28 56
M  V30 60 1 30 57
M  V30 61 1 31 58
M  V30 62 1 32 59
M  V30 63 1 33 60
M  V30 64 1 35 61
M  V30 END BOND
M  V30 END CTAB
M  END
>  <Dataset>  (520) 
ChEMBL_Kinases

>  <Ligand_Instance>  (520) 
nan

>  <PDB_ID>  (520) 
nan

>  <Standardized_SMILES>  (520) 
Cc1cccc(N(CC(=O)NCc2ccc3c(c2)OCO3)C(=O)CCC(=O)Nc2ccccn2)c1

>  <Name>  (520) 
nan

>  <Pocket>  (520) 
nan

>  <ATP_Site>  (520) 
nan

>  <Peripheral>  (520) 
nan

>  <Num_H_Atoms_ProtBoundConf>  (520) 
nan

>  <Num_Resolved_Atoms>  (520) 
nan

>  <Num_Not_Resolved_Atoms>  (520) 
nan

$$$$
CHEMBL1332293
     RDKit          3D

  0  0  0  0  0  0  0  0  0  0999 V3000
M  V30 BEGIN CTAB
M  V30 COUNTS 46 48 0 0 0
M  V30 BEGIN ATOM
M  V30 1 C -0.545223 -5.994062 3.590956 0
M  V30 2 O -1.598330 -5.639967 2.748365 0
M  V30 3 C -1.596887 -4.394817 2.118874 0
M  V30 4 C -0.511934 -3.593789 2.399082 0
M  V30 5 C -0.406132 -2.330757 1.825778 0
M  V30 6 C -1.407205 -1.910534 0.979922 0
M  V30 7 C -1.289961 -0.590058 0.377766 0
M  V30 8 C -2.176401 0.000399 -0.494758 0
M  V30 9 C -1.895355 1.278494 -0.982199 0
M  V30 10 C -0.761283 1.977898 -0.624156 0
M  V30 11 S -0.491051 3.585171 -1.307847 0
M  V30 12 C 1.039852 4.320134 -0.691098 0
M  V30 13 C 2.253391 3.568027 -1.121692 0
M  V30 14 O 2.407884 3.631861 -2.363955 0
M  V30 15 N 3.042509 2.905453 -0.111320 0
M  V30 16 C 2.954792 2.796189 1.314292 0
M  V30 17 C 3.771745 1.532705 1.618062 0
M  V30 18 C 4.903672 1.718025 0.626043 0
M  V30 19 C 4.179820 2.172964 -0.615993 0
M  V30 20 N 0.045787 1.349202 0.218699 0
M  V30 21 N -0.205677 0.145258 0.685934 0
M  V30 22 C -2.492175 -2.710007 0.699388 0
M  V30 23 C -2.607504 -3.959847 1.259707 0
M  V30 24 O -3.601118 -4.904137 1.111338 0
M  V30 25 C -4.701691 -4.631479 0.280391 0
M  V30 26 H -0.493364 -5.442856 4.547422 0
M  V30 27 H 0.457627 -5.901072 3.095630 0
M  V30 28 H -0.627989 -7.080834 3.872769 0
M  V30 29 H 0.318965 -3.869366 3.063231 0
M  V30 30 H 0.451149 -1.701667 2.047889 0
M  V30 31 H -3.052138 -0.576407 -0.752673 0
M  V30 32 H -2.658677 1.641099 -1.656478 0
M  V30 33 H 0.990312 4.442468 0.420921 0
M  V30 34 H 1.146054 5.354584 -1.127175 0
M  V30 35 H 3.467498 3.667427 1.801664 0
M  V30 36 H 1.949493 2.679408 1.730835 0
M  V30 37 H 4.092365 1.513512 2.662651 0
M  V30 38 H 3.134576 0.698494 1.297208 0
M  V30 39 H 5.438556 0.755681 0.460771 0
M  V30 40 H 5.614716 2.501751 0.996555 0
M  V30 41 H 4.847276 2.814875 -1.232075 0
M  V30 42 H 3.888264 1.241926 -1.157644 0
M  V30 43 H -3.298364 -2.431440 0.050438 0
M  V30 44 H -5.479867 -4.112493 0.903278 0
M  V30 45 H -4.455880 -3.980969 -0.566123 0
M  V30 46 H -5.153803 -5.582917 -0.112773 0
M  V30 END ATOM
M  V30 BEGIN BOND
M  V30 1 1 1 2
M  V30 2 1 2 3
M  V30 3 2 3 4
M  V30 4 1 4 5
M  V30 5 2 5 6
M  V30 6 1 6 7
M  V30 7 2 7 8
M  V30 8 1 8 9
M  V30 9 2 9 10
M  V30 10 1 10 11
M  V30 11 1 11 12
M  V30 12 1 12 13
M  V30 13 2 13 14
M  V30 14 1 13 15
M  V30 15 1 15 16
M  V30 16 1 16 17
M  V30 17 1 17 18
M  V30 18 1 18 19
M  V30 19 1 10 20
M  V30 20 2 20 21
M  V30 21 1 6 22
M  V30 22 2 22 23
M  V30 23 1 23 24
M  V30 24 1 24 25
M  V30 25 1 23 3
M  V30 26 1 21 7
M  V30 27 1 19 15
M  V30 28 1 1 26
M  V30 29 1 1 27
M  V30 30 1 1 28
M  V30 31 1 4 29
M  V30 32 1 5 30
M  V30 33 1 8 31
M  V30 34 1 9 32
M  V30 35 1 12 33
M  V30 36 1 12 34
M  V30 37 1 16 35
M  V30 38 1 16 36
M  V30 39 1 17 37
M  V30 40 1 17 38
M  V30 41 1 18 39
M  V30 42 1 18 40
M  V30 43 1 19 41
M  V30 44 1 19 42
M  V30 45 1 22 43
M  V30 46 1 25 44
M  V30 47 1 25 45
M  V30 48 1 25 46
M  V30 END BOND
M  V30 END CTAB
M  END
>  <Dataset>  (521) 
ChEMBL_Kinases

>  <Ligand_Instance>  (521) 
nan

>  <PDB_ID>  (521) 
nan

>  <Standardized_SMILES>  (521) 
COc1ccc(-c2ccc(SCC(=O)N3CCCC3)nn2)cc1OC

>  <Name>  (521) 
nan

>  <Pocket>  (521) 
nan

>  <ATP_Site>  (521) 
nan

>  <Peripheral>  (521) 
nan

>  <Num_H_Atoms_ProtBoundConf>  (521) 
nan

>  <Num_Resolved_Atoms>  (521) 
nan

>  <Num_Not_Resolved_Atoms>  (521) 
nan

$$$$
CHEMBL1331570
     RDKit          3D

  0  0  0  0  0  0  0  0  0  0999 V3000
M  V30 BEGIN CTAB
M  V30 COUNTS 38 40 0 0 0
M  V30 BEGIN ATOM
M  V30 1 C -0.911654 -4.361044 -1.127748 0
M  V30 2 C 0.516134 -4.433248 -0.744585 0
M  V30 3 C 1.366735 -5.438181 -1.198777 0
M  V30 4 Cl 0.738408 -6.674094 -2.266839 0
M  V30 5 C 2.710311 -5.467905 -0.811072 0
M  V30 6 C 3.201467 -4.474287 0.043332 0
M  V30 7 C 2.363867 -3.466687 0.503373 0
M  V30 8 C 1.045106 -3.462475 0.105114 0
M  V30 9 N 0.199135 -2.423753 0.584670 0
M  V30 10 C 0.005643 -1.177778 -0.076126 0
M  V30 11 O 0.724469 -1.225051 -1.121827 0
M  V30 12 C -0.950264 -0.326539 0.712101 0
M  V30 13 C -1.161385 1.008477 0.009842 0 CFG=1
M  V30 14 S -2.311264 2.080175 0.921593 0
M  V30 15 C -1.266088 3.153515 1.927821 0
M  V30 16 C -1.944473 3.826894 2.922399 0
M  V30 17 C -1.285422 4.686546 3.776784 0
M  V30 18 C 0.092080 4.850293 3.598569 0
M  V30 19 C 0.754210 4.170789 2.601046 0
M  V30 20 C 0.090373 3.305292 1.740946 0
M  V30 21 N 0.784302 2.608060 0.713386 0
M  V30 22 C 0.126756 1.718832 -0.177023 0
M  V30 23 O 0.761540 1.535988 -1.266674 0
M  V30 24 H -1.448460 -3.715261 -0.425559 0
M  V30 25 H -1.310228 -5.395296 -1.144674 0
M  V30 26 H -0.926814 -3.911061 -2.158724 0
M  V30 27 H 3.345714 -6.260037 -1.179768 0
M  V30 28 H 4.244186 -4.506399 0.337826 0
M  V30 29 H 2.717457 -2.694196 1.159034 0
M  V30 30 H -0.193686 -2.829781 1.486103 0
M  V30 31 H -0.538465 -0.175965 1.714000 0
M  V30 32 H -1.926020 -0.850848 0.760175 0
M  V30 33 H -1.618440 0.844603 -0.978968 0
M  V30 34 H -3.015157 3.742594 3.112606 0
M  V30 35 H -1.751635 5.253623 4.585743 0
M  V30 36 H 0.619082 5.535485 4.279087 0
M  V30 37 H 1.817406 4.335183 2.509224 0
M  V30 38 H 1.809792 2.792402 0.655769 0
M  V30 END ATOM
M  V30 BEGIN BOND
M  V30 1 1 1 2
M  V30 2 2 2 3
M  V30 3 1 3 4
M  V30 4 1 3 5
M  V30 5 2 5 6
M  V30 6 1 6 7
M  V30 7 2 7 8
M  V30 8 1 8 9
M  V30 9 1 9 10
M  V30 10 2 10 11
M  V30 11 1 10 12
M  V30 12 1 12 13
M  V30 13 1 13 14
M  V30 14 1 14 15
M  V30 15 2 15 16
M  V30 16 1 16 17
M  V30 17 2 17 18
M  V30 18 1 18 19
M  V30 19 2 19 20
M  V30 20 1 20 21
M  V30 21 1 21 22
M  V30 22 2 22 23
M  V30 23 1 8 2
M  V30 24 1 22 13
M  V30 25 1 20 15
M  V30 26 1 1 24
M  V30 27 1 1 25
M  V30 28 1 1 26
M  V30 29 1 5 27
M  V30 30 1 6 28
M  V30 31 1 7 29
M  V30 32 1 9 30
M  V30 33 1 12 31
M  V30 34 1 12 32
M  V30 35 1 13 33 CFG=3
M  V30 36 1 16 34
M  V30 37 1 17 35
M  V30 38 1 18 36
M  V30 39 1 19 37
M  V30 40 1 21 38
M  V30 END BOND
M  V30 END CTAB
M  END
>  <Dataset>  (522) 
ChEMBL_Kinases

>  <Ligand_Instance>  (522) 
nan

>  <PDB_ID>  (522) 
nan

>  <Standardized_SMILES>  (522) 
Cc1c(Cl)cccc1NC(=O)C[C@H]1Sc2ccccc2NC1=O

>  <Name>  (522) 
nan

>  <Pocket>  (522) 
nan

>  <ATP_Site>  (522) 
nan

>  <Peripheral>  (522) 
nan

>  <Num_H_Atoms_ProtBoundConf>  (522) 
nan

>  <Num_Resolved_Atoms>  (522) 
nan

>  <Num_Not_Resolved_Atoms>  (522) 
nan

$$$$
CHEMBL1347419
     RDKit          3D

  0  0  0  0  0  0  0  0  0  0999 V3000
M  V30 BEGIN CTAB
M  V30 COUNTS 48 50 0 0 0
M  V30 BEGIN ATOM
M  V30 1 O -1.283546 -2.115117 2.693913 0
M  V30 2 C -0.587660 -1.775430 1.702365 0
M  V30 3 C 0.335923 -0.656679 2.033404 0
M  V30 4 N 1.139601 -0.235239 0.903518 0
M  V30 5 C 2.416908 -0.812548 0.552635 0
M  V30 6 C 3.573760 -0.139089 1.189781 0
M  V30 7 C 4.053320 -0.524204 2.438313 0
M  V30 8 C 5.130912 0.056512 3.080377 0
M  V30 9 C 5.716319 1.078939 2.371350 0
M  V30 10 C 5.307635 1.523898 1.132871 0
M  V30 11 C 4.224718 0.906828 0.537747 0
M  V30 12 C 0.642686 0.811241 0.072060 0
M  V30 13 O 1.223405 1.272877 -0.936992 0
M  V30 14 C -0.601730 1.545764 0.210644 0
M  V30 15 C -0.774809 2.384242 1.319455 0
M  V30 16 C -1.949300 3.123751 1.515825 0
M  V30 17 C -2.981130 3.023922 0.579326 0
M  V30 18 C -2.872147 2.208630 -0.543714 0
M  V30 19 N -3.894832 2.089623 -1.501673 0 CHG=1 VAL=4
M  V30 20 O -3.708256 1.345943 -2.461614 0
M  V30 21 O -5.038141 2.810615 -1.305282 0 CHG=-1 VAL=1
M  V30 22 C -1.682804 1.533000 -0.634440 0
M  V30 23 N -0.705983 -2.420216 0.428909 0
M  V30 24 C -1.621567 -3.487911 0.212636 0
M  V30 25 C -1.307165 -4.834615 0.415172 0
M  V30 26 Cl 0.305253 -5.230698 0.964159 0
M  V30 27 C -2.274353 -5.784749 0.173332 0
M  V30 28 C -3.560772 -5.498551 -0.264535 0
M  V30 29 Cl -4.748724 -6.749517 -0.556210 0
M  V30 30 C -3.819083 -4.146985 -0.449396 0
M  V30 31 C -2.901872 -3.137123 -0.228105 0
M  V30 32 Cl -3.423171 -1.495293 -0.522719 0
M  V30 33 H 0.952360 -0.920651 2.915440 0
M  V30 34 H -0.333442 0.175567 2.368378 0
M  V30 35 H 2.424496 -1.920517 0.762728 0
M  V30 36 H 2.522449 -0.777989 -0.573582 0
M  V30 37 H 3.510055 -1.349821 2.913707 0
M  V30 38 H 5.469059 -0.275846 4.050755 0
M  V30 39 H 6.575945 1.598386 2.799453 0
M  V30 40 H 5.812282 2.337234 0.621472 0
M  V30 41 H 3.919376 1.268181 -0.433031 0
M  V30 42 H -0.036676 2.527155 2.093217 0
M  V30 43 H -2.070059 3.767030 2.376272 0
M  V30 44 H -3.882888 3.600843 0.741668 0
M  V30 45 H -1.579371 0.888880 -1.510294 0
M  V30 46 H -0.059883 -2.027790 -0.305568 0
M  V30 47 H -1.981154 -6.830430 0.347214 0
M  V30 48 H -4.831922 -3.899268 -0.796215 0
M  V30 END ATOM
M  V30 BEGIN BOND
M  V30 1 2 1 2
M  V30 2 1 2 3
M  V30 3 1 3 4
M  V30 4 1 4 5
M  V30 5 1 5 6
M  V30 6 2 6 7
M  V30 7 1 7 8
M  V30 8 2 8 9
M  V30 9 1 9 10
M  V30 10 2 10 11
M  V30 11 1 4 12
M  V30 12 2 12 13
M  V30 13 1 12 14
M  V30 14 2 14 15
M  V30 15 1 15 16
M  V30 16 2 16 17
M  V30 17 1 17 18
M  V30 18 1 18 19
M  V30 19 2 19 20
M  V30 20 1 19 21
M  V30 21 2 18 22
M  V30 22 1 2 23
M  V30 23 1 23 24
M  V30 24 2 24 25
M  V30 25 1 25 26
M  V30 26 1 25 27
M  V30 27 2 27 28
M  V30 28 1 28 29
M  V30 29 1 28 30
M  V30 30 2 30 31
M  V30 31 1 31 32
M  V30 32 1 11 6
M  V30 33 1 22 14
M  V30 34 1 31 24
M  V30 35 1 3 33
M  V30 36 1 3 34
M  V30 37 1 5 35
M  V30 38 1 5 36
M  V30 39 1 7 37
M  V30 40 1 8 38
M  V30 41 1 9 39
M  V30 42 1 10 40
M  V30 43 1 11 41
M  V30 44 1 15 42
M  V30 45 1 16 43
M  V30 46 1 17 44
M  V30 47 1 22 45
M  V30 48 1 23 46
M  V30 49 1 27 47
M  V30 50 1 30 48
M  V30 END BOND
M  V30 END CTAB
M  END
>  <Dataset>  (523) 
ChEMBL_Kinases

>  <Ligand_Instance>  (523) 
nan

>  <PDB_ID>  (523) 
nan

>  <Standardized_SMILES>  (523) 
O=C(CN(Cc1ccccc1)C(=O)c1cccc([N+](=O)[O-])c1)Nc1c(Cl)cc(Cl)cc1Cl

>  <Name>  (523) 
nan

>  <Pocket>  (523) 
nan

>  <ATP_Site>  (523) 
nan

>  <Peripheral>  (523) 
nan

>  <Num_H_Atoms_ProtBoundConf>  (523) 
nan

>  <Num_Resolved_Atoms>  (523) 
nan

>  <Num_Not_Resolved_Atoms>  (523) 
nan

$$$$
CHEMBL1347394
     RDKit          3D

  0  0  0  0  0  0  0  0  0  0999 V3000
M  V30 BEGIN CTAB
M  V30 COUNTS 37 39 0 0 0
M  V30 BEGIN ATOM
M  V30 1 O -0.111756 -1.455745 2.226864 0
M  V30 2 C -0.811787 -1.532454 1.211411 0
M  V30 3 N -1.159097 -2.619507 0.371138 0
M  V30 4 C -0.625788 -3.923164 0.710322 0
M  V30 5 C 0.794434 -4.054662 0.298840 0
M  V30 6 C 0.849622 -4.540198 -0.991916 0
M  V30 7 C 2.063953 -4.773419 -1.650873 0
M  V30 8 C 3.234622 -4.495190 -0.951504 0
M  V30 9 C 3.171687 -4.010345 0.336710 0
M  V30 10 C 1.952335 -3.780697 0.986936 0
M  V30 11 N -1.363865 -0.283678 0.833150 0
M  V30 12 C -1.336024 1.052765 1.310184 0
M  V30 13 C -2.261210 1.504242 2.203845 0
M  V30 14 C -2.303699 2.791928 2.714455 0
M  V30 15 C -1.293636 3.625947 2.230651 0
M  V30 16 C -0.314431 3.268978 1.329571 0
M  V30 17 C 0.629096 4.167606 0.924781 0
M  V30 18 C 1.563798 3.680146 0.012948 0
M  V30 19 C 1.583109 2.388988 -0.480301 0
M  V30 20 C 0.579173 1.542702 -0.008700 0
M  V30 21 C -0.380517 1.957566 0.895492 0
M  V30 22 H -1.768018 -2.522963 -0.459737 0
M  V30 23 H -1.265325 -4.762642 0.374320 0
M  V30 24 H -0.631965 -4.006562 1.841387 0
M  V30 25 H 0.027548 -4.808339 -1.671263 0
M  V30 26 H 2.192262 -5.152126 -2.652607 0
M  V30 27 H 4.211356 -4.649629 -1.390703 0
M  V30 28 H 4.036903 -3.762426 0.965950 0
M  V30 29 H 1.777878 -3.412310 1.975385 0
M  V30 30 H -1.983648 -0.069424 0.014912 0
M  V30 31 H -3.029757 0.794529 2.546409 0
M  V30 32 H -3.033786 3.158560 3.423972 0
M  V30 33 H -1.265762 4.660179 2.591892 0
M  V30 34 H 0.657487 5.185265 1.277879 0
M  V30 35 H 2.349471 4.311108 -0.369775 0
M  V30 36 H 2.331877 2.056731 -1.188319 0
M  V30 37 H 0.531107 0.511814 -0.350735 0
M  V30 END ATOM
M  V30 BEGIN BOND
M  V30 1 2 1 2
M  V30 2 1 2 3
M  V30 3 1 3 4
M  V30 4 1 4 5
M  V30 5 2 5 6
M  V30 6 1 6 7
M  V30 7 2 7 8
M  V30 8 1 8 9
M  V30 9 2 9 10
M  V30 10 1 2 11
M  V30 11 1 11 12
M  V30 12 2 12 13
M  V30 13 1 13 14
M  V30 14 2 14 15
M  V30 15 1 15 16
M  V30 16 2 16 17
M  V30 17 1 17 18
M  V30 18 2 18 19
M  V30 19 1 19 20
M  V30 20 2 20 21
M  V30 21 1 10 5
M  V30 22 1 21 12
M  V30 23 1 21 16
M  V30 24 1 3 22
M  V30 25 1 4 23
M  V30 26 1 4 24
M  V30 27 1 6 25
M  V30 28 1 7 26
M  V30 29 1 8 27
M  V30 30 1 9 28
M  V30 31 1 10 29
M  V30 32 1 11 30
M  V30 33 1 13 31
M  V30 34 1 14 32
M  V30 35 1 15 33
M  V30 36 1 17 34
M  V30 37 1 18 35
M  V30 38 1 19 36
M  V30 39 1 20 37
M  V30 END BOND
M  V30 END CTAB
M  END
>  <Dataset>  (524) 
ChEMBL_Kinases

>  <Ligand_Instance>  (524) 
nan

>  <PDB_ID>  (524) 
nan

>  <Standardized_SMILES>  (524) 
O=C(NCc1ccccc1)Nc1cccc2ccccc12

>  <Name>  (524) 
nan

>  <Pocket>  (524) 
nan

>  <ATP_Site>  (524) 
nan

>  <Peripheral>  (524) 
nan

>  <Num_H_Atoms_ProtBoundConf>  (524) 
nan

>  <Num_Resolved_Atoms>  (524) 
nan

>  <Num_Not_Resolved_Atoms>  (524) 
nan

$$$$
CHEMBL1347243
     RDKit          3D

  0  0  0  0  0  0  0  0  0  0999 V3000
M  V30 BEGIN CTAB
M  V30 COUNTS 48 49 0 0 0
M  V30 BEGIN ATOM
M  V30 1 C -1.286139 -6.256082 1.423563 0
M  V30 2 C -0.144574 -5.293377 1.687557 0
M  V30 3 O -0.269248 -4.227708 0.770480 0
M  V30 4 C 0.629209 -3.160233 0.743243 0
M  V30 5 O 1.513013 -3.309913 1.626633 0
M  V30 6 C 0.572393 -2.004023 -0.183399 0
M  V30 7 C -0.741217 -1.265408 0.006032 0
M  V30 8 C -0.923197 -0.174580 -0.989411 0
M  V30 9 N 0.322948 -0.010930 -1.730977 0
M  V30 10 C 1.333507 1.008714 -1.875946 0
M  V30 11 O 2.314904 0.753725 -2.674516 0
M  V30 12 C 1.661570 2.365024 -1.382640 0
M  V30 13 O 0.783647 2.902590 -0.451518 0
M  V30 14 C 0.451109 2.463168 0.793645 0
M  V30 15 C -0.486845 3.311841 1.395944 0
M  V30 16 C -0.970525 3.049435 2.683354 0
M  V30 17 C -1.965776 3.932005 3.347455 0
M  V30 18 C -0.482029 1.913145 3.338452 0
M  V30 19 Br -1.085863 1.478366 5.095107 0
M  V30 20 C 0.441407 1.096313 2.719464 0
M  V30 21 C 1.003573 -0.129626 3.359473 0
M  V30 22 C 0.916650 1.356709 1.451028 0
M  V30 23 C 0.560144 -1.232026 -2.519155 0
M  V30 24 C 0.657407 -2.440425 -1.630084 0
M  V30 25 H -2.190772 -5.988059 1.995735 0
M  V30 26 H -1.525103 -6.219810 0.341196 0
M  V30 27 H -0.976474 -7.316636 1.638173 0
M  V30 28 H 0.834430 -5.783803 1.594569 0
M  V30 29 H -0.312240 -4.893720 2.722198 0
M  V30 30 H 1.460245 -1.403094 0.010279 0
M  V30 31 H -0.857399 -0.883541 1.036515 0
M  V30 32 H -1.534337 -2.065838 -0.098650 0
M  V30 33 H -1.346394 0.766232 -0.613397 0
M  V30 34 H -1.701571 -0.533953 -1.731849 0
M  V30 35 H 1.614361 3.068958 -2.267886 0
M  V30 36 H 2.730388 2.433208 -1.044521 0
M  V30 37 H -0.916329 4.212613 0.957076 0
M  V30 38 H -2.984714 3.488430 3.181855 0
M  V30 39 H -1.773401 3.985825 4.436250 0
M  V30 40 H -1.968957 4.908602 2.847236 0
M  V30 41 H 0.315254 -0.973614 3.149548 0
M  V30 42 H 2.000777 -0.373546 2.996175 0
M  V30 43 H 0.954741 0.017802 4.458369 0
M  V30 44 H 1.619153 0.825046 0.858377 0
M  V30 45 H -0.353582 -1.352527 -3.156921 0
M  V30 46 H 1.431289 -1.130094 -3.197293 0
M  V30 47 H 1.619631 -2.939903 -1.844485 0
M  V30 48 H -0.201036 -3.142495 -1.777607 0
M  V30 END ATOM
M  V30 BEGIN BOND
M  V30 1 1 1 2
M  V30 2 1 2 3
M  V30 3 1 3 4
M  V30 4 2 4 5
M  V30 5 1 4 6
M  V30 6 1 6 7
M  V30 7 1 7 8
M  V30 8 1 8 9
M  V30 9 1 9 10
M  V30 10 2 10 11
M  V30 11 1 10 12
M  V30 12 1 12 13
M  V30 13 1 13 14
M  V30 14 2 14 15
M  V30 15 1 15 16
M  V30 16 1 16 17
M  V30 17 2 16 18
M  V30 18 1 18 19
M  V30 19 1 18 20
M  V30 20 1 20 21
M  V30 21 2 20 22
M  V30 22 1 9 23
M  V30 23 1 23 24
M  V30 24 1 24 6
M  V30 25 1 22 14
M  V30 26 1 1 25
M  V30 27 1 1 26
M  V30 28 1 1 27
M  V30 29 1 2 28
M  V30 30 1 2 29
M  V30 31 1 6 30
M  V30 32 1 7 31
M  V30 33 1 7 32
M  V30 34 1 8 33
M  V30 35 1 8 34
M  V30 36 1 12 35
M  V30 37 1 12 36
M  V30 38 1 15 37
M  V30 39 1 17 38
M  V30 40 1 17 39
M  V30 41 1 17 40
M  V30 42 1 21 41
M  V30 43 1 21 42
M  V30 44 1 21 43
M  V30 45 1 22 44
M  V30 46 1 23 45
M  V30 47 1 23 46
M  V30 48 1 24 47
M  V30 49 1 24 48
M  V30 END BOND
M  V30 END CTAB
M  END
>  <Dataset>  (525) 
ChEMBL_Kinases

>  <Ligand_Instance>  (525) 
nan

>  <PDB_ID>  (525) 
nan

>  <Standardized_SMILES>  (525) 
CCOC(=O)C1CCN(C(=O)COc2cc(C)c(Br)c(C)c2)CC1

>  <Name>  (525) 
nan

>  <Pocket>  (525) 
nan

>  <ATP_Site>  (525) 
nan

>  <Peripheral>  (525) 
nan

>  <Num_H_Atoms_ProtBoundConf>  (525) 
nan

>  <Num_Resolved_Atoms>  (525) 
nan

>  <Num_Not_Resolved_Atoms>  (525) 
nan

$$$$
CHEMBL1347161
     RDKit          3D

  0  0  0  0  0  0  0  0  0  0999 V3000
M  V30 BEGIN CTAB
M  V30 COUNTS 53 56 0 0 0
M  V30 BEGIN ATOM
M  V30 1 C 4.553959 -4.096344 -2.856645 0
M  V30 2 O 3.969276 -4.036749 -1.600807 0
M  V30 3 C 4.350948 -2.928192 -0.878628 0
M  V30 4 C 3.710306 -2.877301 0.509192 0
M  V30 5 N 2.285708 -2.841846 0.408710 0
M  V30 6 C 1.613528 -1.680686 0.329949 0
M  V30 7 S 2.472542 -0.103765 0.361646 0
M  V30 8 C 2.609783 0.506769 2.065633 0
M  V30 9 C 1.280081 0.824700 2.633456 0
M  V30 10 O 0.385847 0.417653 3.414036 0
M  V30 11 N 0.844051 2.063163 2.083802 0
M  V30 12 C -0.391988 2.764180 2.335831 0
M  V30 13 C -0.756755 3.721059 3.231823 0
M  V30 14 C -2.047124 4.198369 3.228891 0
M  V30 15 C -2.966439 3.721689 2.334893 0
M  V30 16 C -2.636594 2.753714 1.413016 0
M  V30 17 C -1.322738 2.265281 1.413500 0
M  V30 18 O -3.687169 2.397725 0.598214 0
M  V30 19 C -5.023563 2.296629 1.055481 0
M  V30 20 C -5.375112 3.304658 2.096302 0
M  V30 21 O -4.279095 4.208316 2.331077 0
M  V30 22 N 0.277725 -1.593262 0.235205 0
M  V30 23 C -0.527344 -2.688048 0.209955 0
M  V30 24 C 0.148975 -3.886493 0.289549 0
M  V30 25 C 1.521805 -3.941697 0.385815 0
M  V30 26 O 2.041531 -5.084274 0.452697 0
M  V30 27 S -1.187094 -5.112144 0.219295 0
M  V30 28 C -2.366629 -3.994211 -0.650713 0
M  V30 29 C -1.909005 -3.913273 -2.079040 0
M  V30 30 C -1.992761 -2.730744 0.123601 0
M  V30 31 H 5.671355 -4.133302 -2.788752 0
M  V30 32 H 4.248030 -4.998064 -3.420262 0
M  V30 33 H 4.296062 -3.144845 -3.397490 0
M  V30 34 H 4.105069 -1.985511 -1.405544 0
M  V30 35 H 5.454829 -2.934709 -0.794612 0
M  V30 36 H 4.051408 -3.747244 1.123509 0
M  V30 37 H 4.052076 -1.953279 1.014868 0
M  V30 38 H 3.032033 -0.318592 2.672315 0
M  V30 39 H 3.315311 1.350344 2.133854 0
M  V30 40 H 1.300628 2.719128 1.402687 0
M  V30 41 H 0.078616 3.988055 3.862161 0
M  V30 42 H -2.261513 4.955504 3.967439 0
M  V30 43 H -1.192171 1.506145 0.635041 0
M  V30 44 H -5.684093 2.372195 0.196326 0
M  V30 45 H -5.163520 1.249863 1.453301 0
M  V30 46 H -5.532777 2.773052 3.061426 0
M  V30 47 H -6.272915 3.905746 1.849281 0
M  V30 48 H -3.400650 -4.284284 -0.506020 0
M  V30 49 H -1.135611 -4.662974 -2.335064 0
M  V30 50 H -2.732860 -4.014814 -2.815309 0
M  V30 51 H -1.411996 -2.917079 -2.214321 0
M  V30 52 H -2.475768 -2.797149 1.129099 0
M  V30 53 H -2.352133 -1.877045 -0.452068 0
M  V30 END ATOM
M  V30 BEGIN BOND
M  V30 1 1 1 2
M  V30 2 1 2 3
M  V30 3 1 3 4
M  V30 4 1 4 5
M  V30 5 1 5 6
M  V30 6 1 6 7
M  V30 7 1 7 8
M  V30 8 1 8 9
M  V30 9 2 9 10
M  V30 10 1 9 11
M  V30 11 1 11 12
M  V30 12 2 12 13
M  V30 13 1 13 14
M  V30 14 2 14 15
M  V30 15 1 15 16
M  V30 16 2 16 17
M  V30 17 1 16 18
M  V30 18 1 18 19
M  V30 19 1 19 20
M  V30 20 1 20 21
M  V30 21 2 6 22
M  V30 22 1 22 23
M  V30 23 2 23 24
M  V30 24 1 24 25
M  V30 25 2 25 26
M  V30 26 1 24 27
M  V30 27 1 27 28
M  V30 28 1 28 29
M  V30 29 1 28 30
M  V30 30 1 25 5
M  V30 31 1 17 12
M  V30 32 1 30 23
M  V30 33 1 21 15
M  V30 34 1 1 31
M  V30 35 1 1 32
M  V30 36 1 1 33
M  V30 37 1 3 34
M  V30 38 1 3 35
M  V30 39 1 4 36
M  V30 40 1 4 37
M  V30 41 1 8 38
M  V30 42 1 8 39
M  V30 43 1 11 40
M  V30 44 1 13 41
M  V30 45 1 14 42
M  V30 46 1 17 43
M  V30 47 1 19 44
M  V30 48 1 19 45
M  V30 49 1 20 46
M  V30 50 1 20 47
M  V30 51 1 28 48
M  V30 52 1 29 49
M  V30 53 1 29 50
M  V30 54 1 29 51
M  V30 55 1 30 52
M  V30 56 1 30 53
M  V30 END BOND
M  V30 END CTAB
M  END
>  <Dataset>  (526) 
ChEMBL_Kinases

>  <Ligand_Instance>  (526) 
nan

>  <PDB_ID>  (526) 
nan

>  <Standardized_SMILES>  (526) 
COCCn1c(SCC(=O)Nc2ccc3c(c2)OCCO3)nc2c(c1=O)SC(C)C2

>  <Name>  (526) 
nan

>  <Pocket>  (526) 
nan

>  <ATP_Site>  (526) 
nan

>  <Peripheral>  (526) 
nan

>  <Num_H_Atoms_ProtBoundConf>  (526) 
nan

>  <Num_Resolved_Atoms>  (526) 
nan

>  <Num_Not_Resolved_Atoms>  (526) 
nan

$$$$
CHEMBL1347030
     RDKit          3D

  0  0  0  0  0  0  0  0  0  0999 V3000
M  V30 BEGIN CTAB
M  V30 COUNTS 44 47 0 0 0
M  V30 BEGIN ATOM
M  V30 1 O -0.690739 -3.392567 1.662628 0
M  V30 2 C -0.833115 -2.259736 1.186840 0
M  V30 3 C 0.299947 -1.344202 1.094770 0
M  V30 4 C 1.490705 -1.724419 1.522285 0
M  V30 5 C 2.704652 -0.918141 1.491842 0
M  V30 6 C 3.916726 -1.407641 1.967087 0
M  V30 7 C 5.059854 -0.637687 1.934257 0
M  V30 8 C 5.062361 0.646558 1.433250 0
M  V30 9 C 3.880750 1.157733 0.956679 0
M  V30 10 C 2.751008 0.366789 1.000841 0
M  V30 11 O 3.670893 2.418962 0.414881 0
M  V30 12 C 4.683426 3.221265 -0.205048 0
M  V30 13 C 5.842346 3.499268 0.706467 0
M  V30 14 C 6.829229 2.365741 0.787781 0
M  V30 15 O 6.308756 1.253955 1.488112 0
M  V30 16 C -2.160083 -1.870043 0.723725 0
M  V30 17 C -2.476083 -0.645925 0.171567 0
M  V30 18 C -3.755545 -0.334018 -0.250005 0
M  V30 19 C -4.767872 -1.267333 -0.122623 0
M  V30 20 C -6.032060 -0.921345 -0.553928 0
M  V30 21 C -7.050699 -1.862437 -0.424985 0
M  V30 22 C -6.788414 -3.118953 0.127243 0
M  V30 23 C -5.500581 -3.401614 0.539352 0
M  V30 24 C -4.471318 -2.496577 0.426981 0
M  V30 25 C -3.177417 -2.813425 0.853868 0
M  V30 26 O -2.971457 -4.065126 1.391024 0
M  V30 27 H 0.210904 -0.348346 0.684973 0
M  V30 28 H 1.562918 -2.719530 1.927879 0
M  V30 29 H 3.962596 -2.424826 2.375123 0
M  V30 30 H 5.965773 -1.083700 2.320758 0
M  V30 31 H 1.862984 0.830422 0.611649 0
M  V30 32 H 4.240916 4.194489 -0.481871 0
M  V30 33 H 5.067152 2.761014 -1.123390 0
M  V30 34 H 5.547974 3.784515 1.736611 0
M  V30 35 H 6.387517 4.373336 0.295023 0
M  V30 36 H 7.161110 2.105257 -0.234552 0
M  V30 37 H 7.725454 2.742335 1.320472 0
M  V30 38 H -1.684753 0.083028 0.072229 0
M  V30 39 H -3.972152 0.644463 -0.682939 0
M  V30 40 H -6.211441 0.053670 -0.976797 0
M  V30 41 H -8.034039 -1.542526 -0.780308 0
M  V30 42 H -7.604172 -3.815794 0.208316 0
M  V30 43 H -5.326725 -4.398317 0.969388 0
M  V30 44 H -3.289404 -4.359392 2.310134 0
M  V30 END ATOM
M  V30 BEGIN BOND
M  V30 1 2 1 2
M  V30 2 1 2 3
M  V30 3 2 3 4
M  V30 4 1 4 5
M  V30 5 2 5 6
M  V30 6 1 6 7
M  V30 7 2 7 8
M  V30 8 1 8 9
M  V30 9 2 9 10
M  V30 10 1 9 11
M  V30 11 1 11 12
M  V30 12 1 12 13
M  V30 13 1 13 14
M  V30 14 1 14 15
M  V30 15 1 2 16
M  V30 16 2 16 17
M  V30 17 1 17 18
M  V30 18 2 18 19
M  V30 19 1 19 20
M  V30 20 2 20 21
M  V30 21 1 21 22
M  V30 22 2 22 23
M  V30 23 1 23 24
M  V30 24 2 24 25
M  V30 25 1 25 26
M  V30 26 1 10 5
M  V30 27 1 25 16
M  V30 28 1 15 8
M  V30 29 1 24 19
M  V30 30 1 3 27
M  V30 31 1 4 28
M  V30 32 1 6 29
M  V30 33 1 7 30
M  V30 34 1 10 31
M  V30 35 1 12 32
M  V30 36 1 12 33
M  V30 37 1 13 34
M  V30 38 1 13 35
M  V30 39 1 14 36
M  V30 40 1 14 37
M  V30 41 1 17 38
M  V30 42 1 18 39
M  V30 43 1 20 40
M  V30 44 1 21 41
M  V30 45 1 22 42
M  V30 46 1 23 43
M  V30 47 1 26 44
M  V30 END BOND
M  V30 END CTAB
M  END
>  <Dataset>  (527) 
ChEMBL_Kinases

>  <Ligand_Instance>  (527) 
nan

>  <PDB_ID>  (527) 
nan

>  <Standardized_SMILES>  (527) 
O=C(/C=C/c1ccc2c(c1)OCCCO2)c1ccc2ccccc2c1O

>  <Name>  (527) 
nan

>  <Pocket>  (527) 
nan

>  <ATP_Site>  (527) 
nan

>  <Peripheral>  (527) 
nan

>  <Num_H_Atoms_ProtBoundConf>  (527) 
nan

>  <Num_Resolved_Atoms>  (527) 
nan

>  <Num_Not_Resolved_Atoms>  (527) 
nan

$$$$
CHEMBL1346978
     RDKit          3D

  0  0  0  0  0  0  0  0  0  0999 V3000
M  V30 BEGIN CTAB
M  V30 COUNTS 60 63 0 0 0
M  V30 BEGIN ATOM
M  V30 1 C 6.562009 -3.082764 1.863109 0
M  V30 2 C 6.099897 -2.101024 2.899322 0
M  V30 3 O 5.817635 -0.886146 2.213801 0
M  V30 4 C 5.367297 0.200706 2.945128 0
M  V30 5 O 5.169084 0.248098 4.190882 0
M  V30 6 N 5.092047 1.404949 2.234622 0
M  V30 7 C 4.612875 2.595873 2.938788 0
M  V30 8 C 3.239630 3.002273 2.409350 0
M  V30 9 N 3.018967 2.274293 1.176995 0
M  V30 10 C 1.936356 1.462601 0.720960 0
M  V30 11 O 1.871656 0.870299 -0.407728 0
M  V30 12 N 0.786702 1.240751 1.533218 0
M  V30 13 C -0.189391 0.423278 0.948641 0
M  V30 14 S -0.124152 -1.382084 1.204420 0
M  V30 15 C -1.577331 -1.732688 0.233072 0
M  V30 16 N -2.180536 -2.920084 -0.049161 0
M  V30 17 C -3.296584 -2.944219 -0.824261 0
M  V30 18 N -3.695912 -1.741936 -1.242587 0
M  V30 19 C -3.138098 -0.553792 -0.992058 0
M  V30 20 O -3.733054 0.419294 -1.520172 0
M  V30 21 C -2.005922 -0.516704 -0.207138 0
M  V30 22 C -1.281372 0.584635 0.169291 0
M  V30 23 C -1.556114 2.003083 -0.185961 0
M  V30 24 C -4.894752 -1.637329 -2.090924 0
M  V30 25 C -6.115541 -2.218893 -1.412044 0
M  V30 26 C -6.110088 -3.726272 -1.677754 0
M  V30 27 C -7.534757 -4.211534 -1.595350 0
M  V30 28 C -5.253308 -4.457638 -0.697835 0
M  V30 29 C -3.773257 -4.322680 -0.995441 0
M  V30 30 C 4.154783 2.451006 0.288726 0
M  V30 31 C 5.256844 1.549722 0.803894 0
M  V30 32 H 6.606580 -4.113107 2.307741 0
M  V30 33 H 5.869608 -3.025021 1.003796 0
M  V30 34 H 7.590542 -2.795063 1.525020 0
M  V30 35 H 6.889544 -1.887810 3.651860 0
M  V30 36 H 5.192909 -2.514791 3.408597 0
M  V30 37 H 5.311383 3.406090 2.650778 0
M  V30 38 H 4.607749 2.379281 4.008371 0
M  V30 39 H 3.216474 4.086108 2.173129 0
M  V30 40 H 2.453723 2.854361 3.169886 0
M  V30 41 H 0.708554 1.669159 2.486690 0
M  V30 42 H -2.509883 2.178873 -0.680908 0
M  V30 43 H -0.704365 2.351163 -0.807011 0
M  V30 44 H -1.547859 2.673024 0.702850 0
M  V30 45 H -4.689655 -2.267204 -2.985981 0
M  V30 46 H -5.092576 -0.582278 -2.363089 0
M  V30 47 H -5.998576 -2.036327 -0.312609 0
M  V30 48 H -7.029985 -1.752791 -1.786644 0
M  V30 49 H -5.681639 -3.851312 -2.687933 0
M  V30 50 H -8.246553 -3.513751 -2.083086 0
M  V30 51 H -7.651081 -5.223858 -2.071401 0
M  V30 52 H -7.807136 -4.292248 -0.518837 0
M  V30 53 H -5.459726 -4.186133 0.356041 0
M  V30 54 H -5.488082 -5.538597 -0.807507 0
M  V30 55 H -3.249270 -5.039215 -0.330305 0
M  V30 56 H -3.603109 -4.733328 -2.029806 0
M  V30 57 H 3.876030 2.164402 -0.758166 0
M  V30 58 H 4.537677 3.490500 0.264789 0
M  V30 59 H 5.067118 0.534778 0.371374 0
M  V30 60 H 6.262665 1.925062 0.531428 0
M  V30 END ATOM
M  V30 BEGIN BOND
M  V30 1 1 1 2
M  V30 2 1 2 3
M  V30 3 1 3 4
M  V30 4 2 4 5
M  V30 5 1 4 6
M  V30 6 1 6 7
M  V30 7 1 7 8
M  V30 8 1 8 9
M  V30 9 1 9 10
M  V30 10 2 10 11
M  V30 11 1 10 12
M  V30 12 1 12 13
M  V30 13 1 13 14
M  V30 14 1 14 15
M  V30 15 1 15 16
M  V30 16 2 16 17
M  V30 17 1 17 18
M  V30 18 1 18 19
M  V30 19 2 19 20
M  V30 20 1 19 21
M  V30 21 1 21 22
M  V30 22 1 22 23
M  V30 23 1 18 24
M  V30 24 1 24 25
M  V30 25 1 25 26
M  V30 26 1 26 27
M  V30 27 1 26 28
M  V30 28 1 28 29
M  V30 29 1 9 30
M  V30 30 1 30 31
M  V30 31 1 31 6
M  V30 32 2 22 13
M  V30 33 2 21 15
M  V30 34 1 29 17
M  V30 35 1 1 32
M  V30 36 1 1 33
M  V30 37 1 1 34
M  V30 38 1 2 35
M  V30 39 1 2 36
M  V30 40 1 7 37
M  V30 41 1 7 38
M  V30 42 1 8 39
M  V30 43 1 8 40
M  V30 44 1 12 41
M  V30 45 1 23 42
M  V30 46 1 23 43
M  V30 47 1 23 44
M  V30 48 1 24 45
M  V30 49 1 24 46
M  V30 50 1 25 47
M  V30 51 1 25 48
M  V30 52 1 26 49
M  V30 53 1 27 50
M  V30 54 1 27 51
M  V30 55 1 27 52
M  V30 56 1 28 53
M  V30 57 1 28 54
M  V30 58 1 29 55
M  V30 59 1 29 56
M  V30 60 1 30 57
M  V30 61 1 30 58
M  V30 62 1 31 59
M  V30 63 1 31 60
M  V30 END BOND
M  V30 END CTAB
M  END
>  <Dataset>  (528) 
ChEMBL_Kinases

>  <Ligand_Instance>  (528) 
nan

>  <PDB_ID>  (528) 
nan

>  <Standardized_SMILES>  (528) 
CCOC(=O)N1CCN(C(=O)Nc2sc3nc4n(c(=O)c3c2C)CCC(C)CC4)CC1

>  <Name>  (528) 
nan

>  <Pocket>  (528) 
nan

>  <ATP_Site>  (528) 
nan

>  <Peripheral>  (528) 
nan

>  <Num_H_Atoms_ProtBoundConf>  (528) 
nan

>  <Num_Resolved_Atoms>  (528) 
nan

>  <Num_Not_Resolved_Atoms>  (528) 
nan

$$$$
CHEMBL1346785
     RDKit          3D

  0  0  0  0  0  0  0  0  0  0999 V3000
M  V30 BEGIN CTAB
M  V30 COUNTS 41 42 0 0 0
M  V30 BEGIN ATOM
M  V30 1 N -2.268069 -3.602178 3.350919 0
M  V30 2 C -1.091429 -3.539174 4.139386 0
M  V30 3 O -1.170043 -4.004093 5.310046 0
M  V30 4 C 0.098816 -2.931994 3.493925 0
M  V30 5 C 0.556821 -3.633684 2.262195 0
M  V30 6 C -0.215240 -3.325271 1.025514 0
M  V30 7 N -0.389084 -1.908893 0.794159 0
M  V30 8 C -1.163094 -1.644872 -0.373710 0
M  V30 9 C -1.342844 -0.138986 -0.611654 0
M  V30 10 C 0.024844 0.417602 -0.769525 0
M  V30 11 O 1.086219 -0.287719 -0.705835 0
M  V30 12 N 0.254468 1.792590 -1.005868 0
M  V30 13 C 1.527238 2.408901 -1.168873 0
M  V30 14 C 2.105253 2.862974 0.007549 0
M  V30 15 C 3.338235 3.489970 0.064673 0
M  V30 16 C 4.035106 3.672961 -1.133391 0
M  V30 17 Br 5.745208 4.524623 -1.183007 0
M  V30 18 C 3.461982 3.221236 -2.310560 0
M  V30 19 C 2.222807 2.595020 -2.339778 0
M  V30 20 C -0.872928 -1.188769 1.955393 0
M  V30 21 C -0.080819 -1.482154 3.187685 0
M  V30 22 H -3.199450 -3.200634 3.609844 0
M  V30 23 H -3.016301 -3.746638 2.645309 0
M  V30 24 H 0.950828 -2.999847 4.232317 0
M  V30 25 H 0.501524 -4.747713 2.399800 0
M  V30 26 H 1.650458 -3.436082 2.109719 0
M  V30 27 H 0.419931 -3.681584 0.162194 0
M  V30 28 H -1.149724 -3.901375 0.945934 0
M  V30 29 H -2.186673 -2.070448 -0.328440 0
M  V30 30 H -0.667835 -2.114154 -1.247496 0
M  V30 31 H -1.916016 -0.013875 -1.565037 0
M  V30 32 H -1.946036 0.319859 0.166550 0
M  V30 33 H -0.623511 2.387139 -1.060400 0
M  V30 34 H 1.627157 2.760368 0.994157 0
M  V30 35 H 3.774894 3.838174 0.990529 0
M  V30 36 H 3.989805 3.354976 -3.252852 0
M  V30 37 H 1.736942 2.227545 -3.226692 0
M  V30 38 H -0.709408 -0.098798 1.733296 0
M  V30 39 H -1.937221 -1.314959 2.153804 0
M  V30 40 H 0.943430 -1.044356 3.087215 0
M  V30 41 H -0.553408 -0.911735 4.016084 0
M  V30 END ATOM
M  V30 BEGIN BOND
M  V30 1 1 1 2
M  V30 2 2 2 3
M  V30 3 1 2 4
M  V30 4 1 4 5
M  V30 5 1 5 6
M  V30 6 1 6 7
M  V30 7 1 7 8
M  V30 8 1 8 9
M  V30 9 1 9 10
M  V30 10 2 10 11
M  V30 11 1 10 12
M  V30 12 1 12 13
M  V30 13 2 13 14
M  V30 14 1 14 15
M  V30 15 2 15 16
M  V30 16 1 16 17
M  V30 17 1 16 18
M  V30 18 2 18 19
M  V30 19 1 7 20
M  V30 20 1 20 21
M  V30 21 1 21 4
M  V30 22 1 19 13
M  V30 23 1 1 22
M  V30 24 1 1 23
M  V30 25 1 4 24
M  V30 26 1 5 25
M  V30 27 1 5 26
M  V30 28 1 6 27
M  V30 29 1 6 28
M  V30 30 1 8 29
M  V30 31 1 8 30
M  V30 32 1 9 31
M  V30 33 1 9 32
M  V30 34 1 12 33
M  V30 35 1 14 34
M  V30 36 1 15 35
M  V30 37 1 18 36
M  V30 38 1 19 37
M  V30 39 1 20 38
M  V30 40 1 20 39
M  V30 41 1 21 40
M  V30 42 1 21 41
M  V30 END BOND
M  V30 END CTAB
M  END
>  <Dataset>  (529) 
ChEMBL_Kinases

>  <Ligand_Instance>  (529) 
nan

>  <PDB_ID>  (529) 
nan

>  <Standardized_SMILES>  (529) 
NC(=O)C1CCN(CCC(=O)Nc2ccc(Br)cc2)CC1

>  <Name>  (529) 
nan

>  <Pocket>  (529) 
nan

>  <ATP_Site>  (529) 
nan

>  <Peripheral>  (529) 
nan

>  <Num_H_Atoms_ProtBoundConf>  (529) 
nan

>  <Num_Resolved_Atoms>  (529) 
nan

>  <Num_Not_Resolved_Atoms>  (529) 
nan

$$$$
CHEMBL1346752
     RDKit          3D

  0  0  0  0  0  0  0  0  0  0999 V3000
M  V30 BEGIN CTAB
M  V30 COUNTS 44 45 0 0 0
M  V30 BEGIN ATOM
M  V30 1 C -1.465671 -1.637456 -0.081863 0
M  V30 2 C -0.053476 -2.110531 0.211639 0
M  V30 3 C 0.087048 -3.522387 -0.246801 0
M  V30 4 C 0.668702 -3.687053 -1.618483 0
M  V30 5 C 1.697246 -2.668202 -1.967834 0
M  V30 6 C 2.098216 -1.765455 -0.815322 0
M  V30 7 C 2.881103 -2.486160 0.252142 0
M  V30 8 N 0.945702 -1.206902 -0.248502 0
M  V30 9 C 1.048579 -0.057741 0.559685 0
M  V30 10 C 1.435897 1.203889 -0.065078 0
M  V30 11 O 0.646363 1.719469 -1.056445 0
M  V30 12 C 1.657606 2.278989 0.975945 0
M  V30 13 O 0.558737 2.829473 1.566230 0
M  V30 14 C -0.476343 2.409989 2.296772 0
M  V30 15 C -0.168301 2.420793 3.664256 0
M  V30 16 F 1.034490 2.805991 4.211191 0
M  V30 17 C -1.096590 2.023521 4.638788 0
M  V30 18 C -2.364380 1.604743 4.237533 0
M  V30 19 Br -3.692716 1.046558 5.486873 0
M  V30 20 C -2.715483 1.576374 2.899955 0
M  V30 21 C -1.768841 1.976210 1.983502 0
M  V30 22 F -1.960723 2.005884 0.620970 0
M  V30 23 H -1.875725 -2.265544 -0.901366 0
M  V30 24 H -1.492666 -0.548245 -0.337027 0
M  V30 25 H -2.114520 -1.804954 0.800583 0
M  V30 26 H 0.046083 -2.135655 1.336363 0
M  V30 27 H -0.928968 -3.992382 -0.203377 0
M  V30 28 H 0.695658 -4.111606 0.467702 0
M  V30 29 H -0.164675 -3.616430 -2.358311 0
M  V30 30 H 1.073935 -4.716271 -1.696486 0
M  V30 31 H 1.332980 -1.980088 -2.768901 0
M  V30 32 H 2.591691 -3.166166 -2.414047 0
M  V30 33 H 2.738455 -0.998392 -1.251402 0
M  V30 34 H 2.377881 -2.383378 1.251229 0
M  V30 35 H 2.973477 -3.538059 -0.026270 0
M  V30 36 H 3.889225 -2.007091 0.403614 0
M  V30 37 H 1.808486 -0.287611 1.357204 0
M  V30 38 H 0.093703 0.032929 1.101317 0
M  V30 39 H 2.447880 1.010608 -0.574669 0
M  V30 40 H 0.814141 2.710725 -1.120033 0
M  V30 41 H 2.184556 3.107579 0.400587 0
M  V30 42 H 2.455081 1.965076 1.706864 0
M  V30 43 H -0.876159 2.025786 5.696801 0
M  V30 44 H -3.669798 1.268354 2.502060 0
M  V30 END ATOM
M  V30 BEGIN BOND
M  V30 1 1 1 2
M  V30 2 1 2 3
M  V30 3 1 3 4
M  V30 4 1 4 5
M  V30 5 1 5 6
M  V30 6 1 6 7
M  V30 7 1 6 8
M  V30 8 1 8 9
M  V30 9 1 9 10
M  V30 10 1 10 11
M  V30 11 1 10 12
M  V30 12 1 12 13
M  V30 13 1 13 14
M  V30 14 2 14 15
M  V30 15 1 15 16
M  V30 16 1 15 17
M  V30 17 2 17 18
M  V30 18 1 18 19
M  V30 19 1 18 20
M  V30 20 2 20 21
M  V30 21 1 21 22
M  V30 22 1 8 2
M  V30 23 1 21 14
M  V30 24 1 1 23
M  V30 25 1 1 24
M  V30 26 1 1 25
M  V30 27 1 2 26
M  V30 28 1 3 27
M  V30 29 1 3 28
M  V30 30 1 4 29
M  V30 31 1 4 30
M  V30 32 1 5 31
M  V30 33 1 5 32
M  V30 34 1 6 33
M  V30 35 1 7 34
M  V30 36 1 7 35
M  V30 37 1 7 36
M  V30 38 1 9 37
M  V30 39 1 9 38
M  V30 40 1 10 39
M  V30 41 1 11 40
M  V30 42 1 12 41
M  V30 43 1 12 42
M  V30 44 1 17 43
M  V30 45 1 20 44
M  V30 END BOND
M  V30 END CTAB
M  END
>  <Dataset>  (530) 
ChEMBL_Kinases

>  <Ligand_Instance>  (530) 
nan

>  <PDB_ID>  (530) 
nan

>  <Standardized_SMILES>  (530) 
CC1CCCC(C)N1CC(O)COc1c(F)cc(Br)cc1F

>  <Name>  (530) 
nan

>  <Pocket>  (530) 
nan

>  <ATP_Site>  (530) 
nan

>  <Peripheral>  (530) 
nan

>  <Num_H_Atoms_ProtBoundConf>  (530) 
nan

>  <Num_Resolved_Atoms>  (530) 
nan

>  <Num_Not_Resolved_Atoms>  (530) 
nan

$$$$
CHEMBL1346587
     RDKit          3D

  0  0  0  0  0  0  0  0  0  0999 V3000
M  V30 BEGIN CTAB
M  V30 COUNTS 42 44 0 0 0
M  V30 BEGIN ATOM
M  V30 1 C 2.247322 -5.234361 5.156440 0
M  V30 2 O 2.704325 -4.976655 3.847446 0
M  V30 3 C 2.317462 -3.846830 3.128368 0
M  V30 4 C 1.453342 -2.932714 3.703782 0
M  V30 5 C 1.049675 -1.791392 3.004435 0
M  V30 6 C 1.564653 -1.647643 1.728322 0
M  V30 7 C 1.159844 -0.453795 0.959980 0
M  V30 8 C 1.563295 -0.134213 -0.320365 0
M  V30 9 C 0.916921 1.057502 -0.578634 0
M  V30 10 N 1.048726 1.760986 -1.807375 0
M  V30 11 N 0.165726 1.453051 0.462408 0
M  V30 12 S -0.827782 2.853040 0.648496 0
M  V30 13 O 0.020238 4.105490 0.535695 0
M  V30 14 O -1.448311 2.868734 2.001308 0
M  V30 15 C -2.126277 2.895714 -0.522126 0
M  V30 16 C -2.099494 3.486585 -1.763816 0
M  V30 17 F -0.943162 4.101149 -2.098045 0
M  V30 18 C -3.191061 3.450905 -2.605037 0
M  V30 19 F -3.065681 4.056378 -3.795484 0
M  V30 20 C -4.346093 2.814749 -2.214524 0
M  V30 21 F -5.424626 2.771919 -3.029480 0
M  V30 22 C -4.448069 2.199632 -0.983799 0
M  V30 23 F -5.565466 1.564066 -0.562691 0
M  V30 24 C -3.327445 2.267198 -0.186522 0
M  V30 25 F -3.428312 1.654524 1.040090 0
M  V30 26 N 0.329027 0.507014 1.402006 0
M  V30 27 C 2.427197 -2.555471 1.147701 0
M  V30 28 C 2.821171 -3.686781 1.853816 0
M  V30 29 O 3.677386 -4.637937 1.345170 0
M  V30 30 C 4.256186 -4.599024 0.077282 0
M  V30 31 H 2.774101 -4.644764 5.928572 0
M  V30 32 H 2.486619 -6.301331 5.391055 0
M  V30 33 H 1.167852 -5.094088 5.272899 0
M  V30 34 H 1.068777 -3.077607 4.707690 0
M  V30 35 H 0.378987 -1.105593 3.483234 0
M  V30 36 H 2.228670 -0.681406 -0.975686 0
M  V30 37 H 0.670774 1.354710 -2.699798 0
M  V30 38 H 1.492952 2.673088 -1.949798 0
M  V30 39 H 2.813175 -2.410300 0.140482 0
M  V30 40 H 5.083678 -3.860904 0.006877 0
M  V30 41 H 3.523345 -4.396684 -0.723307 0
M  V30 42 H 4.695244 -5.619489 -0.125354 0
M  V30 END ATOM
M  V30 BEGIN BOND
M  V30 1 1 1 2
M  V30 2 1 2 3
M  V30 3 2 3 4
M  V30 4 1 4 5
M  V30 5 2 5 6
M  V30 6 1 6 7
M  V30 7 1 7 8
M  V30 8 2 8 9
M  V30 9 1 9 10
M  V30 10 1 9 11
M  V30 11 1 11 12
M  V30 12 2 12 13
M  V30 13 2 12 14
M  V30 14 1 12 15
M  V30 15 2 15 16
M  V30 16 1 16 17
M  V30 17 1 16 18
M  V30 18 1 18 19
M  V30 19 2 18 20
M  V30 20 1 20 21
M  V30 21 1 20 22
M  V30 22 1 22 23
M  V30 23 2 22 24
M  V30 24 1 24 25
M  V30 25 1 11 26
M  V30 26 1 6 27
M  V30 27 2 27 28
M  V30 28 1 28 29
M  V30 29 1 29 30
M  V30 30 1 28 3
M  V30 31 2 26 7
M  V30 32 1 24 15
M  V30 33 1 1 31
M  V30 34 1 1 32
M  V30 35 1 1 33
M  V30 36 1 4 34
M  V30 37 1 5 35
M  V30 38 1 8 36
M  V30 39 1 10 37
M  V30 40 1 10 38
M  V30 41 1 27 39
M  V30 42 1 30 40
M  V30 43 1 30 41
M  V30 44 1 30 42
M  V30 END BOND
M  V30 END CTAB
M  END
>  <Dataset>  (531) 
ChEMBL_Kinases

>  <Ligand_Instance>  (531) 
nan

>  <PDB_ID>  (531) 
nan

>  <Standardized_SMILES>  (531) 
COc1ccc(-c2cc(N)n(S(=O)(=O)c3c(F)c(F)c(F)c(F)c3F)n2)cc1OC

>  <Name>  (531) 
nan

>  <Pocket>  (531) 
nan

>  <ATP_Site>  (531) 
nan

>  <Peripheral>  (531) 
nan

>  <Num_H_Atoms_ProtBoundConf>  (531) 
nan

>  <Num_Resolved_Atoms>  (531) 
nan

>  <Num_Not_Resolved_Atoms>  (531) 
nan

$$$$
CHEMBL1346011
     RDKit          3D

  0  0  0  0  0  0  0  0  0  0999 V3000
M  V30 BEGIN CTAB
M  V30 COUNTS 30 31 0 0 0
M  V30 BEGIN ATOM
M  V30 1 O -1.956905 -2.582713 1.976194 0
M  V30 2 C -1.300361 -1.876198 1.121051 0
M  V30 3 C -1.004088 -2.824627 0.073816 0
M  V30 4 O -0.201637 -2.450232 -0.986338 0
M  V30 5 C 1.094890 -2.044359 -1.021023 0
M  V30 6 C 1.671977 -2.016757 0.253932 0
M  V30 7 C 2.991682 -1.632044 0.458170 0
M  V30 8 C 3.756463 -1.266053 -0.629488 0
M  V30 9 C 3.208536 -1.286477 -1.888755 0
M  V30 10 C 1.899652 -1.669349 -2.080275 0
M  V30 11 Br 1.004415 -1.745941 -3.773388 0
M  V30 12 C -1.140726 -0.502822 1.539559 0
M  V30 13 C -0.541600 0.502406 0.813635 0
M  V30 14 C -0.395875 1.818733 1.191419 0
M  V30 15 C -0.921951 2.103397 2.431183 0
M  V30 16 O -0.831547 3.400813 2.914128 0
M  V30 17 C -1.535690 1.157400 3.216829 0
M  V30 18 C -1.651739 -0.166700 2.773983 0
M  V30 19 O -2.293046 -1.011854 3.669092 0
M  V30 20 H -1.988538 -3.146190 -0.397569 0
M  V30 21 H -0.627163 -3.824054 0.484015 0
M  V30 22 H 1.158171 -2.286475 1.185595 0
M  V30 23 H 3.447509 -1.606605 1.434570 0
M  V30 24 H 4.787846 -0.955815 -0.550568 0
M  V30 25 H 3.757865 -1.010595 -2.779609 0
M  V30 26 H -0.141645 0.285374 -0.159935 0
M  V30 27 H 0.086648 2.555503 0.570116 0
M  V30 28 H 0.078019 3.852820 2.973908 0
M  V30 29 H -1.923521 1.459951 4.178248 0
M  V30 30 H -3.284767 -1.247678 3.590407 0
M  V30 END ATOM
M  V30 BEGIN BOND
M  V30 1 2 1 2
M  V30 2 1 2 3
M  V30 3 1 3 4
M  V30 4 1 4 5
M  V30 5 2 5 6
M  V30 6 1 6 7
M  V30 7 2 7 8
M  V30 8 1 8 9
M  V30 9 2 9 10
M  V30 10 1 10 11
M  V30 11 1 2 12
M  V30 12 2 12 13
M  V30 13 1 13 14
M  V30 14 2 14 15
M  V30 15 1 15 16
M  V30 16 1 15 17
M  V30 17 2 17 18
M  V30 18 1 18 19
M  V30 19 1 10 5
M  V30 20 1 18 12
M  V30 21 1 3 20
M  V30 22 1 3 21
M  V30 23 1 6 22
M  V30 24 1 7 23
M  V30 25 1 8 24
M  V30 26 1 9 25
M  V30 27 1 13 26
M  V30 28 1 14 27
M  V30 29 1 16 28
M  V30 30 1 17 29
M  V30 31 1 19 30
M  V30 END BOND
M  V30 END CTAB
M  END
>  <Dataset>  (532) 
ChEMBL_Kinases

>  <Ligand_Instance>  (532) 
nan

>  <PDB_ID>  (532) 
nan

>  <Standardized_SMILES>  (532) 
O=C(COc1ccccc1Br)c1ccc(O)cc1O

>  <Name>  (532) 
nan

>  <Pocket>  (532) 
nan

>  <ATP_Site>  (532) 
nan

>  <Peripheral>  (532) 
nan

>  <Num_H_Atoms_ProtBoundConf>  (532) 
nan

>  <Num_Resolved_Atoms>  (532) 
nan

>  <Num_Not_Resolved_Atoms>  (532) 
nan

$$$$
CHEMBL1345961
     RDKit          3D

  0  0  0  0  0  0  0  0  0  0999 V3000
M  V30 BEGIN CTAB
M  V30 COUNTS 57 60 0 0 0
M  V30 BEGIN ATOM
M  V30 1 C 7.586252 -5.915653 1.827893 0
M  V30 2 C 8.639218 -4.957236 2.290637 0
M  V30 3 O 8.213410 -4.055496 3.288242 0
M  V30 4 C 7.195353 -3.162445 3.066669 0
M  V30 5 C 6.754317 -2.267247 4.046611 0
M  V30 6 C 5.742175 -1.344669 3.897789 0
M  V30 7 C 5.072898 -1.257107 2.692619 0
M  V30 8 N 4.093650 -0.470990 2.325603 0
M  V30 9 C 3.523222 -0.364474 1.367669 0
M  V30 10 N 2.400846 0.481895 0.842135 0
M  V30 11 C 1.169970 -0.179101 1.101520 0
M  V30 12 O 1.242600 -1.288193 1.691917 0
M  V30 13 C -0.034959 0.582322 0.611768 0
M  V30 14 S -1.471088 -0.461579 1.052996 0
M  V30 15 C -3.001012 0.280677 0.517272 0
M  V30 16 N -3.838485 1.137146 1.134586 0
M  V30 17 C -4.876835 1.418121 0.318278 0
M  V30 18 C -4.632630 0.689023 -0.833521 0
M  V30 19 C -5.534076 0.772789 -1.867739 0
M  V30 20 O -5.432142 0.165272 -2.963015 0
M  V30 21 N -6.649449 1.549411 -1.783671 0
M  V30 22 C -7.617083 1.649917 -2.874511 0
M  V30 23 C -6.847282 2.240458 -0.646919 0
M  V30 24 O -7.877593 2.972796 -0.538096 0
M  V30 25 N -5.990290 2.182231 0.379844 0
M  V30 26 C -6.207432 2.919376 1.585683 0
M  V30 27 N -3.475671 -0.021521 -0.728698 0
M  V30 28 C -2.936700 -0.886931 -1.755928 0
M  V30 29 C -2.530431 -0.159316 -3.005718 0
M  V30 30 C -3.847160 -2.068998 -2.039743 0
M  V30 31 S 4.430276 -1.731156 0.354565 0
M  V30 32 C 5.494545 -2.119791 1.740487 0
M  V30 33 C 6.529268 -3.074644 1.867260 0
M  V30 34 H 7.528138 -5.916558 0.742012 0
M  V30 35 H 7.863109 -6.947893 2.142734 0
M  V30 36 H 6.573011 -5.709727 2.230760 0
M  V30 37 H 8.931862 -4.328140 1.403496 0
M  V30 38 H 9.533803 -5.524340 2.620958 0
M  V30 39 H 7.303841 -2.356762 4.998043 0
M  V30 40 H 5.549946 -0.732672 4.793434 0
M  V30 41 H 2.617678 1.385896 0.383404 0
M  V30 42 H 0.062122 0.753658 -0.457764 0
M  V30 43 H -0.152241 1.505357 1.216906 0
M  V30 44 H -7.439081 2.555329 -3.467882 0
M  V30 45 H -7.551254 0.754806 -3.543242 0
M  V30 46 H -8.649098 1.639712 -2.475118 0
M  V30 47 H -5.855857 2.357039 2.475210 0
M  V30 48 H -5.589653 3.849743 1.523330 0
M  V30 49 H -7.280870 3.141645 1.766450 0
M  V30 50 H -1.982387 -1.330969 -1.349518 0
M  V30 51 H -1.434961 -0.181889 -3.206323 0
M  V30 52 H -2.790000 0.911274 -2.897681 0
M  V30 53 H -2.980662 -0.632826 -3.917423 0
M  V30 54 H -3.393755 -3.044267 -1.710480 0
M  V30 55 H -4.036380 -2.212301 -3.119919 0
M  V30 56 H -4.797593 -2.021189 -1.432107 0
M  V30 57 H 6.744612 -3.683567 1.007325 0
M  V30 END ATOM
M  V30 BEGIN BOND
M  V30 1 1 1 2
M  V30 2 1 2 3
M  V30 3 1 3 4
M  V30 4 2 4 5
M  V30 5 1 5 6
M  V30 6 2 6 7
M  V30 7 1 7 8
M  V30 8 2 8 9
M  V30 9 1 9 10
M  V30 10 1 10 11
M  V30 11 2 11 12
M  V30 12 1 11 13
M  V30 13 1 13 14
M  V30 14 1 14 15
M  V30 15 2 15 16
M  V30 16 1 16 17
M  V30 17 2 17 18
M  V30 18 1 18 19
M  V30 19 2 19 20
M  V30 20 1 19 21
M  V30 21 1 21 22
M  V30 22 1 21 23
M  V30 23 2 23 24
M  V30 24 1 23 25
M  V30 25 1 25 26
M  V30 26 1 18 27
M  V30 27 1 27 28
M  V30 28 1 28 29
M  V30 29 1 28 30
M  V30 30 1 9 31
M  V30 31 1 31 32
M  V30 32 2 32 33
M  V30 33 1 33 4
M  V30 34 1 32 7
M  V30 35 1 27 15
M  V30 36 1 25 17
M  V30 37 1 1 34
M  V30 38 1 1 35
M  V30 39 1 1 36
M  V30 40 1 2 37
M  V30 41 1 2 38
M  V30 42 1 5 39
M  V30 43 1 6 40
M  V30 44 1 10 41
M  V30 45 1 13 42
M  V30 46 1 13 43
M  V30 47 1 22 44
M  V30 48 1 22 45
M  V30 49 1 22 46
M  V30 50 1 26 47
M  V30 51 1 26 48
M  V30 52 1 26 49
M  V30 53 1 28 50
M  V30 54 1 29 51
M  V30 55 1 29 52
M  V30 56 1 29 53
M  V30 57 1 30 54
M  V30 58 1 30 55
M  V30 59 1 30 56
M  V30 60 1 33 57
M  V30 END BOND
M  V30 END CTAB
M  END
>  <Dataset>  (533) 
ChEMBL_Kinases

>  <Ligand_Instance>  (533) 
nan

>  <PDB_ID>  (533) 
nan

>  <Standardized_SMILES>  (533) 
CCOc1ccc2nc(NC(=O)CSc3nc4c(c(=O)n(C)c(=O)n4C)n3C(C)C)sc2c1

>  <Name>  (533) 
nan

>  <Pocket>  (533) 
nan

>  <ATP_Site>  (533) 
nan

>  <Peripheral>  (533) 
nan

>  <Num_H_Atoms_ProtBoundConf>  (533) 
nan

>  <Num_Resolved_Atoms>  (533) 
nan

>  <Num_Not_Resolved_Atoms>  (533) 
nan

$$$$
CHEMBL1345922
     RDKit          3D

  0  0  0  0  0  0  0  0  0  0999 V3000
M  V30 BEGIN CTAB
M  V30 COUNTS 33 34 0 0 0
M  V30 BEGIN ATOM
M  V30 1 N 2.890001 -3.706733 1.757075 0
M  V30 2 C 2.134593 -2.536328 1.502437 0
M  V30 3 O 0.980217 -2.722732 1.056717 0
M  V30 4 C 2.610882 -1.152294 1.723799 0
M  V30 5 C 3.862727 -0.932676 2.207635 0
M  V30 6 C 4.194360 0.424555 2.373019 0
M  V30 7 S 2.654433 1.325693 1.811392 0
M  V30 8 C 1.779238 -0.150530 1.435245 0
M  V30 9 N 0.452481 -0.060783 0.931698 0
M  V30 10 C 0.222588 0.016950 -0.463584 0
M  V30 11 O 1.383242 -0.006493 -1.016058 0
M  V30 12 C -0.978005 0.111622 -1.287677 0
M  V30 13 C -1.856890 -1.097837 -1.342074 0
M  V30 14 C -2.463675 -1.323431 0.002649 0
M  V30 15 C -3.129969 -0.172607 0.643421 0
M  V30 16 C -2.694864 1.174525 0.246987 0
M  V30 17 C -1.838806 1.301026 -0.940707 0
M  V30 18 H 3.890477 -3.906983 1.528900 0
M  V30 19 H 2.427226 -4.522004 2.242907 0
M  V30 20 H 4.593834 -1.685566 2.464967 0
M  V30 21 H 5.240233 0.758155 2.781538 0
M  V30 22 H -0.411392 -0.033612 1.516367 0
M  V30 23 H -0.627387 0.301377 -2.353279 0
M  V30 24 H -1.286184 -2.017722 -1.616999 0
M  V30 25 H -2.655659 -0.900912 -2.100175 0
M  V30 26 H -1.667501 -1.786500 0.653814 0
M  V30 27 H -3.188162 -2.206766 -0.118777 0
M  V30 28 H -3.040704 -0.329071 1.759305 0
M  V30 29 H -4.235512 -0.301435 0.476161 0
M  V30 30 H -2.143203 1.637230 1.118485 0
M  V30 31 H -3.594361 1.834518 0.151418 0
M  V30 32 H -2.451958 1.523862 -1.843988 0
M  V30 33 H -1.111318 2.161430 -0.867507 0
M  V30 END ATOM
M  V30 BEGIN BOND
M  V30 1 1 1 2
M  V30 2 2 2 3
M  V30 3 1 2 4
M  V30 4 1 4 5
M  V30 5 2 5 6
M  V30 6 1 6 7
M  V30 7 1 7 8
M  V30 8 1 8 9
M  V30 9 1 9 10
M  V30 10 2 10 11
M  V30 11 1 10 12
M  V30 12 1 12 13
M  V30 13 1 13 14
M  V30 14 1 14 15
M  V30 15 1 15 16
M  V30 16 1 16 17
M  V30 17 2 8 4
M  V30 18 1 17 12
M  V30 19 1 1 18
M  V30 20 1 1 19
M  V30 21 1 5 20
M  V30 22 1 6 21
M  V30 23 1 9 22
M  V30 24 1 12 23
M  V30 25 1 13 24
M  V30 26 1 13 25
M  V30 27 1 14 26
M  V30 28 1 14 27
M  V30 29 1 15 28
M  V30 30 1 15 29
M  V30 31 1 16 30
M  V30 32 1 16 31
M  V30 33 1 17 32
M  V30 34 1 17 33
M  V30 END BOND
M  V30 END CTAB
M  END
>  <Dataset>  (534) 
ChEMBL_Kinases

>  <Ligand_Instance>  (534) 
nan

>  <PDB_ID>  (534) 
nan

>  <Standardized_SMILES>  (534) 
NC(=O)c1ccsc1NC(=O)C1CCCCC1

>  <Name>  (534) 
nan

>  <Pocket>  (534) 
nan

>  <ATP_Site>  (534) 
nan

>  <Peripheral>  (534) 
nan

>  <Num_H_Atoms_ProtBoundConf>  (534) 
nan

>  <Num_Resolved_Atoms>  (534) 
nan

>  <Num_Not_Resolved_Atoms>  (534) 
nan

$$$$
CHEMBL1345903
     RDKit          3D

  0  0  0  0  0  0  0  0  0  0999 V3000
M  V30 BEGIN CTAB
M  V30 COUNTS 42 44 0 0 0
M  V30 BEGIN ATOM
M  V30 1 C 0.490462 -6.593938 1.300408 0
M  V30 2 C 1.058256 -5.228157 1.402494 0
M  V30 3 C 1.128238 -4.199756 0.479353 0
M  V30 4 C 1.768322 -3.189086 1.169965 0
M  V30 5 C 2.063982 -1.885875 0.578949 0
M  V30 6 O 1.802688 -1.487353 -0.585360 0
M  V30 7 O 2.694299 -0.862262 1.228010 0
M  V30 8 C 3.013242 0.402639 0.748449 0
M  V30 9 C 1.906295 1.267787 0.350291 0
M  V30 10 O 2.442069 2.336090 -0.117098 0
M  V30 11 N 0.468162 1.196062 0.365003 0
M  V30 12 C -0.275225 2.286429 -0.165136 0
M  V30 13 C -0.071453 3.269539 -1.134449 0
M  V30 14 C -0.995019 4.237941 -1.462156 0
M  V30 15 C -2.209784 4.268678 -0.811335 0
M  V30 16 C -2.434907 3.316000 0.143504 0
M  V30 17 C -1.519045 2.344187 0.478573 0
M  V30 18 C -1.545260 1.236900 1.462722 0
M  V30 19 C -0.549919 0.268802 0.802856 0
M  V30 20 C -1.252356 -0.438418 -0.320601 0
M  V30 21 C 2.053548 -3.630172 2.447566 0
M  V30 22 C 2.746841 -2.821854 3.507141 0
M  V30 23 O 1.605802 -4.861216 2.534650 0
M  V30 24 H -0.410915 -6.640950 1.955954 0
M  V30 25 H 1.258675 -7.311446 1.651938 0
M  V30 26 H 0.204676 -6.853749 0.258504 0
M  V30 27 H 0.740161 -4.272827 -0.526522 0
M  V30 28 H 3.784546 0.365917 -0.059322 0
M  V30 29 H 3.539337 0.928953 1.601745 0
M  V30 30 H 0.884390 3.269810 -1.667837 0
M  V30 31 H -0.769797 4.977941 -2.231843 0
M  V30 32 H -2.892446 5.040422 -1.102337 0
M  V30 33 H -3.370057 3.311552 0.668997 0
M  V30 34 H -2.540005 0.770773 1.584787 0
M  V30 35 H -1.113541 1.618224 2.411284 0
M  V30 36 H -0.206821 -0.482734 1.531849 0
M  V30 37 H -1.371803 -1.509680 -0.106060 0
M  V30 38 H -0.642803 -0.344571 -1.256186 0
M  V30 39 H -2.276136 -0.036373 -0.462136 0
M  V30 40 H 3.504629 -2.151933 3.076274 0
M  V30 41 H 3.146033 -3.542823 4.256790 0
M  V30 42 H 2.007531 -2.162014 4.042034 0
M  V30 END ATOM
M  V30 BEGIN BOND
M  V30 1 1 1 2
M  V30 2 2 2 3
M  V30 3 1 3 4
M  V30 4 1 4 5
M  V30 5 2 5 6
M  V30 6 1 5 7
M  V30 7 1 7 8
M  V30 8 1 8 9
M  V30 9 2 9 10
M  V30 10 1 9 11
M  V30 11 1 11 12
M  V30 12 2 12 13
M  V30 13 1 13 14
M  V30 14 2 14 15
M  V30 15 1 15 16
M  V30 16 2 16 17
M  V30 17 1 17 18
M  V30 18 1 18 19
M  V30 19 1 19 20
M  V30 20 2 4 21
M  V30 21 1 21 22
M  V30 22 1 21 23
M  V30 23 1 23 2
M  V30 24 1 19 11
M  V30 25 1 17 12
M  V30 26 1 1 24
M  V30 27 1 1 25
M  V30 28 1 1 26
M  V30 29 1 3 27
M  V30 30 1 8 28
M  V30 31 1 8 29
M  V30 32 1 13 30
M  V30 33 1 14 31
M  V30 34 1 15 32
M  V30 35 1 16 33
M  V30 36 1 18 34
M  V30 37 1 18 35
M  V30 38 1 19 36
M  V30 39 1 20 37
M  V30 40 1 20 38
M  V30 41 1 20 39
M  V30 42 1 22 40
M  V30 43 1 22 41
M  V30 44 1 22 42
M  V30 END BOND
M  V30 END CTAB
M  END
>  <Dataset>  (535) 
ChEMBL_Kinases

>  <Ligand_Instance>  (535) 
nan

>  <PDB_ID>  (535) 
nan

>  <Standardized_SMILES>  (535) 
Cc1cc(C(=O)OCC(=O)N2c3ccccc3CC2C)c(C)o1

>  <Name>  (535) 
nan

>  <Pocket>  (535) 
nan

>  <ATP_Site>  (535) 
nan

>  <Peripheral>  (535) 
nan

>  <Num_H_Atoms_ProtBoundConf>  (535) 
nan

>  <Num_Resolved_Atoms>  (535) 
nan

>  <Num_Not_Resolved_Atoms>  (535) 
nan

$$$$
CHEMBL1345895
     RDKit          3D

  0  0  0  0  0  0  0  0  0  0999 V3000
M  V30 BEGIN CTAB
M  V30 COUNTS 30 31 0 0 0
M  V30 BEGIN ATOM
M  V30 1 C -1.280788 -3.177373 2.232144 0
M  V30 2 C -0.786896 -1.763755 2.357350 0
M  V30 3 C -0.517130 -1.342504 3.743937 0
M  V30 4 O 0.628953 -0.957591 4.152754 0
M  V30 5 O -1.360730 -1.269268 4.834476 0
M  V30 6 C 0.528287 -1.675715 1.610818 0
M  V30 7 O 0.886361 -0.318042 1.673829 0
M  V30 8 C 0.064217 0.347241 0.756919 0
M  V30 9 C 0.862869 0.434053 -0.496556 0
M  V30 10 C 0.393942 0.164399 -1.751478 0
M  V30 11 C 1.203689 0.268465 -2.876183 0
M  V30 12 C 2.534027 0.657685 -2.737084 0
M  V30 13 Cl 3.477469 0.762207 -4.199942 0
M  V30 14 C 2.997537 0.928099 -1.461332 0
M  V30 15 C 2.195822 0.824181 -0.355821 0
M  V30 16 O -1.082378 -0.352703 0.469079 0
M  V30 17 C -1.718888 -0.778610 1.642968 0
M  V30 18 H -0.404945 -3.857763 2.378528 0
M  V30 19 H -2.079468 -3.368372 2.963888 0
M  V30 20 H -1.620026 -3.299499 1.184707 0
M  V30 21 H -1.482507 -0.414837 5.400049 0
M  V30 22 H 1.307862 -2.317120 2.058035 0
M  V30 23 H 0.346497 -1.949592 0.539061 0
M  V30 24 H -0.195077 1.364018 1.157806 0
M  V30 25 H -0.649494 -0.130504 -1.766050 0
M  V30 26 H 0.705496 0.025097 -3.816718 0
M  V30 27 H 4.041528 1.226051 -1.420093 0
M  V30 28 H 2.682006 1.063309 0.577150 0
M  V30 29 H -2.693397 -1.224361 1.438609 0
M  V30 30 H -1.781962 0.115664 2.292052 0
M  V30 END ATOM
M  V30 BEGIN BOND
M  V30 1 1 1 2
M  V30 2 1 2 3
M  V30 3 2 3 4
M  V30 4 1 3 5
M  V30 5 1 2 6
M  V30 6 1 6 7
M  V30 7 1 7 8
M  V30 8 1 8 9
M  V30 9 2 9 10
M  V30 10 1 10 11
M  V30 11 2 11 12
M  V30 12 1 12 13
M  V30 13 1 12 14
M  V30 14 2 14 15
M  V30 15 1 8 16
M  V30 16 1 16 17
M  V30 17 1 17 2
M  V30 18 1 15 9
M  V30 19 1 1 18
M  V30 20 1 1 19
M  V30 21 1 1 20
M  V30 22 1 5 21
M  V30 23 1 6 22
M  V30 24 1 6 23
M  V30 25 1 8 24
M  V30 26 1 10 25
M  V30 27 1 11 26
M  V30 28 1 14 27
M  V30 29 1 15 28
M  V30 30 1 17 29
M  V30 31 1 17 30
M  V30 END BOND
M  V30 END CTAB
M  END
>  <Dataset>  (536) 
ChEMBL_Kinases

>  <Ligand_Instance>  (536) 
nan

>  <PDB_ID>  (536) 
nan

>  <Standardized_SMILES>  (536) 
CC1(C(=O)O)COC(c2ccc(Cl)cc2)OC1

>  <Name>  (536) 
nan

>  <Pocket>  (536) 
nan

>  <ATP_Site>  (536) 
nan

>  <Peripheral>  (536) 
nan

>  <Num_H_Atoms_ProtBoundConf>  (536) 
nan

>  <Num_Resolved_Atoms>  (536) 
nan

>  <Num_Not_Resolved_Atoms>  (536) 
nan

$$$$
CHEMBL1345880
     RDKit          3D

  0  0  0  0  0  0  0  0  0  0999 V3000
M  V30 BEGIN CTAB
M  V30 COUNTS 42 44 0 0 0
M  V30 BEGIN ATOM
M  V30 1 C -0.998568 -3.284931 0.566101 0
M  V30 2 C -0.123625 -2.803864 -0.552418 0
M  V30 3 O -0.356463 -1.471723 -0.876509 0
M  V30 4 C -1.521938 -0.897331 -1.319395 0
M  V30 5 C -2.714013 -1.558134 -1.533448 0
M  V30 6 C -3.870705 -0.949931 -1.981501 0
M  V30 7 C -3.870161 0.396186 -2.240162 0
M  V30 8 C -2.687708 1.068393 -2.031096 0
M  V30 9 C -1.514067 0.465102 -1.579367 0
M  V30 10 C -0.329460 1.291486 -1.399226 0
M  V30 11 N -0.235230 2.603334 -1.641991 0
M  V30 12 N 1.000112 3.019756 -1.363731 0
M  V30 13 C 1.669208 1.941588 -0.943949 0
M  V30 14 S 3.372840 2.223713 -0.500581 0
M  V30 15 C 4.174580 0.713532 0.073274 0
M  V30 16 C 3.599796 0.245315 1.370962 0
M  V30 17 O 4.162807 0.629315 2.446377 0
M  V30 18 N 2.478877 -0.594237 1.607089 0
M  V30 19 C 2.260856 -0.801601 2.996870 0
M  V30 20 C 1.435966 0.146907 3.565834 0
M  V30 21 C 1.144231 0.048701 4.927071 0
M  V30 22 C 1.691639 -0.990831 5.646265 0
M  V30 23 C 2.516017 -1.944610 5.093799 0
M  V30 24 C 2.804624 -1.840270 3.729525 0
M  V30 25 O 0.855699 0.930967 -0.975114 0
M  V30 26 H -1.742907 -4.062182 0.249118 0
M  V30 27 H -0.354670 -3.718277 1.365678 0
M  V30 28 H -1.515300 -2.393383 1.001656 0
M  V30 29 H -0.155514 -3.473086 -1.441186 0
M  V30 30 H 0.946653 -2.862977 -0.199027 0
M  V30 31 H -2.757853 -2.620221 -1.343684 0
M  V30 32 H -4.759883 -1.548705 -2.122362 0
M  V30 33 H -4.774995 0.864337 -2.590203 0
M  V30 34 H -2.698732 2.144956 -2.242215 0
M  V30 35 H 5.242853 0.926378 0.235298 0
M  V30 36 H 4.104603 -0.044423 -0.707327 0
M  V30 37 H 2.008515 -0.913621 0.705615 0
M  V30 38 H 0.985672 0.977709 3.036331 0
M  V30 39 H 0.520497 0.729699 5.455882 0
M  V30 40 H 1.477421 -1.084814 6.701343 0
M  V30 41 H 2.955210 -2.772389 5.652407 0
M  V30 42 H 3.438004 -2.528379 3.189709 0
M  V30 END ATOM
M  V30 BEGIN BOND
M  V30 1 1 1 2
M  V30 2 1 2 3
M  V30 3 1 3 4
M  V30 4 2 4 5
M  V30 5 1 5 6
M  V30 6 2 6 7
M  V30 7 1 7 8
M  V30 8 2 8 9
M  V30 9 1 9 10
M  V30 10 2 10 11
M  V30 11 1 11 12
M  V30 12 2 12 13
M  V30 13 1 13 14
M  V30 14 1 14 15
M  V30 15 1 15 16
M  V30 16 2 16 17
M  V30 17 1 16 18
M  V30 18 1 18 19
M  V30 19 2 19 20
M  V30 20 1 20 21
M  V30 21 2 21 22
M  V30 22 1 22 23
M  V30 23 2 23 24
M  V30 24 1 13 25
M  V30 25 1 9 4
M  V30 26 1 25 10
M  V30 27 1 24 19
M  V30 28 1 1 26
M  V30 29 1 1 27
M  V30 30 1 1 28
M  V30 31 1 2 29
M  V30 32 1 2 30
M  V30 33 1 5 31
M  V30 34 1 6 32
M  V30 35 1 7 33
M  V30 36 1 8 34
M  V30 37 1 15 35
M  V30 38 1 15 36
M  V30 39 1 18 37
M  V30 40 1 20 38
M  V30 41 1 21 39
M  V30 42 1 22 40
M  V30 43 1 23 41
M  V30 44 1 24 42
M  V30 END BOND
M  V30 END CTAB
M  END
>  <Dataset>  (537) 
ChEMBL_Kinases

>  <Ligand_Instance>  (537) 
nan

>  <PDB_ID>  (537) 
nan

>  <Standardized_SMILES>  (537) 
CCOc1ccccc1-c1nnc(SCC(=O)Nc2ccccc2)o1

>  <Name>  (537) 
nan

>  <Pocket>  (537) 
nan

>  <ATP_Site>  (537) 
nan

>  <Peripheral>  (537) 
nan

>  <Num_H_Atoms_ProtBoundConf>  (537) 
nan

>  <Num_Resolved_Atoms>  (537) 
nan

>  <Num_Not_Resolved_Atoms>  (537) 
nan

$$$$
CHEMBL1339614
     RDKit          3D

  0  0  0  0  0  0  0  0  0  0999 V3000
M  V30 BEGIN CTAB
M  V30 COUNTS 37 40 0 0 0
M  V30 BEGIN ATOM
M  V30 1 Cl -0.494759 -8.111892 3.224466 0
M  V30 2 C -0.023364 -6.477580 2.851480 0
M  V30 3 C -0.890658 -5.461816 3.239188 0
M  V30 4 C -0.547425 -4.144930 2.958179 0
M  V30 5 C 0.649192 -3.876775 2.299337 0
M  V30 6 N 1.005867 -2.527058 2.008707 0
M  V30 7 N 1.674869 -1.756105 2.876970 0
M  V30 8 C 1.881528 -0.525504 2.348482 0
M  V30 9 C 1.300218 -0.576116 1.096895 0
M  V30 10 C 1.210751 0.409282 0.106985 0
M  V30 11 N 1.769933 1.724972 0.293877 0
M  V30 12 C 1.662335 2.730806 -0.752726 0
M  V30 13 C 0.285251 3.070940 -1.116694 0
M  V30 14 C -0.340935 4.113216 -0.425212 0
M  V30 15 C -1.650337 4.419043 -0.788273 0
M  V30 16 C -2.364132 3.769501 -1.774281 0
M  V30 17 C -1.668951 2.756779 -2.402539 0
M  V30 18 N -0.404227 2.417275 -2.094456 0
M  V30 19 N 0.579250 0.087381 -1.038387 0
M  V30 20 C 0.047637 -1.157773 -1.220571 0
M  V30 21 N 0.130010 -2.125856 -0.260329 0
M  V30 22 C 0.753808 -1.827131 0.886522 0
M  V30 23 C 1.497559 -4.901948 1.922434 0
M  V30 24 C 1.170928 -6.229138 2.195343 0
M  V30 25 H -1.813062 -5.696624 3.749142 0
M  V30 26 H -1.200727 -3.306777 3.244801 0
M  V30 27 H 2.394954 0.305561 2.822640 0
M  V30 28 H 2.243905 1.901673 1.205660 0
M  V30 29 H 2.208496 2.325979 -1.648204 0
M  V30 30 H 2.256188 3.604684 -0.427542 0
M  V30 31 H 0.139465 4.668718 0.352662 0
M  V30 32 H -2.118042 5.235686 -0.234957 0
M  V30 33 H -3.380491 4.053220 -2.011351 0
M  V30 34 H -2.177067 2.196579 -3.198872 0
M  V30 35 H -0.446046 -1.357119 -2.157970 0
M  V30 36 H 2.407498 -4.663599 1.418873 0
M  V30 37 H 1.848230 -7.023978 1.892690 0
M  V30 END ATOM
M  V30 BEGIN BOND
M  V30 1 1 1 2
M  V30 2 2 2 3
M  V30 3 1 3 4
M  V30 4 2 4 5
M  V30 5 1 5 6
M  V30 6 1 6 7
M  V30 7 2 7 8
M  V30 8 1 8 9
M  V30 9 2 9 10
M  V30 10 1 10 11
M  V30 11 1 11 12
M  V30 12 1 12 13
M  V30 13 2 13 14
M  V30 14 1 14 15
M  V30 15 2 15 16
M  V30 16 1 16 17
M  V30 17 2 17 18
M  V30 18 1 10 19
M  V30 19 2 19 20
M  V30 20 1 20 21
M  V30 21 2 21 22
M  V30 22 1 5 23
M  V30 23 2 23 24
M  V30 24 1 24 2
M  V30 25 1 22 6
M  V30 26 1 22 9
M  V30 27 1 18 13
M  V30 28 1 3 25
M  V30 29 1 4 26
M  V30 30 1 8 27
M  V30 31 1 11 28
M  V30 32 1 12 29
M  V30 33 1 12 30
M  V30 34 1 14 31
M  V30 35 1 15 32
M  V30 36 1 16 33
M  V30 37 1 17 34
M  V30 38 1 20 35
M  V30 39 1 23 36
M  V30 40 1 24 37
M  V30 END BOND
M  V30 END CTAB
M  END
>  <Dataset>  (538) 
ChEMBL_Kinases

>  <Ligand_Instance>  (538) 
nan

>  <PDB_ID>  (538) 
nan

>  <Standardized_SMILES>  (538) 
Clc1ccc(-n2ncc3c(NCc4ccccn4)ncnc32)cc1

>  <Name>  (538) 
nan

>  <Pocket>  (538) 
nan

>  <ATP_Site>  (538) 
nan

>  <Peripheral>  (538) 
nan

>  <Num_H_Atoms_ProtBoundConf>  (538) 
nan

>  <Num_Resolved_Atoms>  (538) 
nan

>  <Num_Not_Resolved_Atoms>  (538) 
nan

$$$$
CHEMBL1344510
     RDKit          3D

  0  0  0  0  0  0  0  0  0  0999 V3000
M  V30 BEGIN CTAB
M  V30 COUNTS 44 47 0 0 0
M  V30 BEGIN ATOM
M  V30 1 C 0.175095 -3.585678 3.196794 0
M  V30 2 O 1.090360 -3.174558 2.216706 0
M  V30 3 C 2.395858 -3.263252 2.694545 0
M  V30 4 C 3.313749 -2.798271 1.579331 0
M  V30 5 N 3.013367 -1.424671 1.201026 0
M  V30 6 C 3.153083 -0.459369 2.232108 0
M  V30 7 O 3.498562 -0.601488 3.431657 0
M  V30 8 C 2.874895 0.968061 1.968958 0
M  V30 9 C 3.514292 2.140213 2.310737 0
M  V30 10 N 2.804853 3.183756 1.798267 0
M  V30 11 N 1.733251 2.716958 1.140299 0
M  V30 12 C 0.730425 3.329011 0.463998 0
M  V30 13 C 0.712756 4.798257 0.366648 0
M  V30 14 F 1.615358 5.328550 1.298479 0
M  V30 15 F -0.561592 5.251227 0.655955 0
M  V30 16 F 1.038645 5.157084 -0.908167 0
M  V30 17 C -0.279884 2.572820 -0.138457 0
M  V30 18 C -0.243909 1.204725 -0.036260 0
M  V30 19 C -1.241025 0.329019 -0.619042 0
M  V30 20 C -2.334263 0.750918 -1.341309 0
M  V30 21 C -3.266855 -0.138646 -1.878908 0
M  V30 22 C -3.090661 -1.502143 -1.680966 0
M  V30 23 C -2.014538 -1.975486 -0.966423 0
M  V30 24 C -1.143792 -1.025139 -0.472283 0
M  V30 25 O -2.052507 -3.363847 -0.903772 0
M  V30 26 C -3.263789 -3.789016 -1.527220 0
M  V30 27 O -3.809464 -2.620835 -2.068036 0
M  V30 28 N 0.783674 0.675703 0.650944 0
M  V30 29 C 1.758519 1.379046 1.233046 0
M  V30 30 H 0.235042 -2.965326 4.121972 0
M  V30 31 H -0.851219 -3.529287 2.838317 0
M  V30 32 H 0.360886 -4.628924 3.528722 0
M  V30 33 H 2.611170 -4.358575 2.856013 0
M  V30 34 H 2.564218 -2.731395 3.627766 0
M  V30 35 H 3.035721 -3.412247 0.693962 0
M  V30 36 H 4.371176 -2.971864 1.769203 0
M  V30 37 H 2.708735 -1.098943 0.251017 0
M  V30 38 H 4.417086 2.092681 2.893599 0
M  V30 39 H -1.079484 3.055751 -0.678847 0
M  V30 40 H -2.471909 1.816031 -1.495711 0
M  V30 41 H -4.111728 0.231992 -2.439608 0
M  V30 42 H -0.282635 -1.399167 0.099341 0
M  V30 43 H -3.945464 -4.276650 -0.782650 0
M  V30 44 H -3.068176 -4.557844 -2.304164 0
M  V30 END ATOM
M  V30 BEGIN BOND
M  V30 1 1 1 2
M  V30 2 1 2 3
M  V30 3 1 3 4
M  V30 4 1 4 5
M  V30 5 1 5 6
M  V30 6 2 6 7
M  V30 7 1 6 8
M  V30 8 1 8 9
M  V30 9 2 9 10
M  V30 10 1 10 11
M  V30 11 1 11 12
M  V30 12 1 12 13
M  V30 13 1 13 14
M  V30 14 1 13 15
M  V30 15 1 13 16
M  V30 16 2 12 17
M  V30 17 1 17 18
M  V30 18 1 18 19
M  V30 19 2 19 20
M  V30 20 1 20 21
M  V30 21 2 21 22
M  V30 22 1 22 23
M  V30 23 2 23 24
M  V30 24 1 23 25
M  V30 25 1 25 26
M  V30 26 1 26 27
M  V30 27 2 18 28
M  V30 28 1 28 29
M  V30 29 2 29 8
M  V30 30 1 29 11
M  V30 31 1 24 19
M  V30 32 1 27 22
M  V30 33 1 1 30
M  V30 34 1 1 31
M  V30 35 1 1 32
M  V30 36 1 3 33
M  V30 37 1 3 34
M  V30 38 1 4 35
M  V30 39 1 4 36
M  V30 40 1 5 37
M  V30 41 1 9 38
M  V30 42 1 17 39
M  V30 43 1 20 40
M  V30 44 1 21 41
M  V30 45 1 24 42
M  V30 46 1 26 43
M  V30 47 1 26 44
M  V30 END BOND
M  V30 END CTAB
M  END
>  <Dataset>  (539) 
ChEMBL_Kinases

>  <Ligand_Instance>  (539) 
nan

>  <PDB_ID>  (539) 
nan

>  <Standardized_SMILES>  (539) 
COCCNC(=O)c1cnn2c(C(F)(F)F)cc(-c3ccc4c(c3)OCO4)nc12

>  <Name>  (539) 
nan

>  <Pocket>  (539) 
nan

>  <ATP_Site>  (539) 
nan

>  <Peripheral>  (539) 
nan

>  <Num_H_Atoms_ProtBoundConf>  (539) 
nan

>  <Num_Resolved_Atoms>  (539) 
nan

>  <Num_Not_Resolved_Atoms>  (539) 
nan

$$$$
CHEMBL1344527
     RDKit          3D

  0  0  0  0  0  0  0  0  0  0999 V3000
M  V30 BEGIN CTAB
M  V30 COUNTS 27 28 0 0 0
M  V30 BEGIN ATOM
M  V30 1 C -2.324087 -0.849435 2.953459 0
M  V30 2 C -1.453460 0.268379 3.515796 0
M  V30 3 S -1.099756 1.501051 2.234426 0
M  V30 4 C -0.076541 0.742753 0.974929 0
M  V30 5 C 1.307948 0.783237 1.057906 0
M  V30 6 C 2.156337 0.219305 0.126466 0
M  V30 7 C 1.588111 -0.425249 -0.954948 0
M  V30 8 C 2.366010 -1.025087 -1.945693 0
M  V30 9 C 1.662581 -1.632408 -2.964874 0
M  V30 10 C 0.294032 -1.710559 -3.109623 0
M  V30 11 C -0.437922 -1.096079 -2.094069 0
M  V30 12 C 0.209730 -0.465611 -1.036737 0
M  V30 13 N -0.612383 0.099540 -0.103093 0
M  V30 14 C -0.169737 -0.374795 3.894801 0
M  V30 15 O -0.378426 -1.576027 3.583684 0
M  V30 16 O 1.121905 -0.424312 4.390092 0
M  V30 17 H -1.800953 -1.211632 2.037333 0
M  V30 18 H -3.339092 -0.516152 2.742261 0
M  V30 19 H -2.303103 -1.684041 3.675845 0
M  V30 20 H -1.878047 0.727513 4.412325 0
M  V30 21 H 1.796396 1.271026 1.876655 0
M  V30 22 H 3.234697 0.266343 0.217330 0
M  V30 23 H 3.443947 -1.000843 -1.891837 0
M  V30 24 H 2.263140 -2.110598 -3.755782 0
M  V30 25 H -0.122931 -2.219723 -3.964725 0
M  V30 26 H -1.516562 -1.139394 -2.175229 0
M  V30 27 H 1.913824 -0.561567 3.781534 0
M  V30 END ATOM
M  V30 BEGIN BOND
M  V30 1 1 1 2
M  V30 2 1 2 3
M  V30 3 1 3 4
M  V30 4 2 4 5
M  V30 5 1 5 6
M  V30 6 2 6 7
M  V30 7 1 7 8
M  V30 8 2 8 9
M  V30 9 1 9 10
M  V30 10 2 10 11
M  V30 11 1 11 12
M  V30 12 2 12 13
M  V30 13 1 2 14
M  V30 14 2 14 15
M  V30 15 1 14 16
M  V30 16 1 13 4
M  V30 17 1 12 7
M  V30 18 1 1 17
M  V30 19 1 1 18
M  V30 20 1 1 19
M  V30 21 1 2 20
M  V30 22 1 5 21
M  V30 23 1 6 22
M  V30 24 1 8 23
M  V30 25 1 9 24
M  V30 26 1 10 25
M  V30 27 1 11 26
M  V30 28 1 16 27
M  V30 END BOND
M  V30 END CTAB
M  END
>  <Dataset>  (540) 
ChEMBL_Kinases

>  <Ligand_Instance>  (540) 
nan

>  <PDB_ID>  (540) 
nan

>  <Standardized_SMILES>  (540) 
CC(Sc1ccc2ccccc2n1)C(=O)O

>  <Name>  (540) 
nan

>  <Pocket>  (540) 
nan

>  <ATP_Site>  (540) 
nan

>  <Peripheral>  (540) 
nan

>  <Num_H_Atoms_ProtBoundConf>  (540) 
nan

>  <Num_Resolved_Atoms>  (540) 
nan

>  <Num_Not_Resolved_Atoms>  (540) 
nan

$$$$
CHEMBL1344662
     RDKit          3D

  0  0  0  0  0  0  0  0  0  0999 V3000
M  V30 BEGIN CTAB
M  V30 COUNTS 54 56 0 0 0
M  V30 BEGIN ATOM
M  V30 1 C 3.128067 -6.640801 5.401789 0
M  V30 2 O 2.438869 -6.320319 4.229280 0
M  V30 3 C 2.516648 -5.123896 3.556661 0
M  V30 4 C 3.286016 -4.042342 3.921438 0
M  V30 5 C 3.322955 -2.847014 3.194004 0
M  V30 6 C 2.562622 -2.732626 2.062270 0
M  V30 7 C 2.612840 -1.464882 1.314266 0
M  V30 8 O 3.379670 -0.580627 1.825153 0
M  V30 9 N 1.917857 -1.122239 0.112515 0
M  V30 10 C 2.307378 0.213736 -0.197311 0
M  V30 11 C 1.679796 0.756332 -1.430421 0
M  V30 12 C 0.230814 0.847849 -1.474177 0
M  V30 13 C -0.246264 2.130579 -1.157836 0
M  V30 14 C -1.602382 2.430614 -1.118078 0
M  V30 15 C -2.056697 3.694356 -0.805356 0
M  V30 16 O -1.153037 4.694302 -0.523282 0
M  V30 17 C -1.563124 6.011573 -0.195494 0
M  V30 18 C -3.418715 3.913082 -0.785886 0
M  V30 19 C -4.349362 2.933065 -1.063478 0
M  V30 20 C -3.920201 1.659597 -1.379754 0
M  V30 21 O -4.728059 0.574165 -1.681417 0
M  V30 22 C -6.119900 0.635558 -1.704220 0
M  V30 23 C -2.545841 1.449723 -1.396002 0
M  V30 24 N -2.075317 0.224406 -1.698270 0
M  V30 25 C -0.764372 -0.059459 -1.735652 0
M  V30 26 O -0.330178 -1.319561 -2.052214 0
M  V30 27 C 1.799483 -3.819308 1.709163 0
M  V30 28 C 1.753686 -4.986067 2.406101 0
M  V30 29 O 0.954998 -6.049770 1.988510 0
M  V30 30 C 0.156825 -5.970615 0.826322 0
M  V30 31 H 2.422860 -7.207284 6.078597 0
M  V30 32 H 4.046544 -7.238730 5.193524 0
M  V30 33 H 3.447279 -5.746979 5.965639 0
M  V30 34 H 3.888694 -4.130151 4.816004 0
M  V30 35 H 3.971104 -2.072699 3.587903 0
M  V30 36 H 1.369785 -1.971220 -0.120449 0
M  V30 37 H 3.430546 0.321166 -0.253135 0
M  V30 38 H 2.049299 0.889140 0.673473 0
M  V30 39 H 2.192000 1.703785 -1.723712 0
M  V30 40 H 1.975657 0.043561 -2.265155 0
M  V30 41 H 0.389214 2.973648 -0.923308 0
M  V30 42 H -2.006151 6.097352 0.796623 0
M  V30 43 H -2.264004 6.345026 -1.010550 0
M  V30 44 H -0.673802 6.700988 -0.248454 0
M  V30 45 H -3.777940 4.910624 -0.538978 0
M  V30 46 H -5.416518 3.103168 -1.048484 0
M  V30 47 H -6.463316 1.631624 -1.976067 0
M  V30 48 H -6.462288 -0.092661 -2.474140 0
M  V30 49 H -6.554516 0.330864 -0.731069 0
M  V30 50 H 0.209551 -1.569466 -2.868278 0
M  V30 51 H 1.189995 -3.753916 0.819792 0
M  V30 52 H -0.479437 -6.876752 0.771767 0
M  V30 53 H -0.506704 -5.067061 0.848609 0
M  V30 54 H 0.738029 -5.936891 -0.110075 0
M  V30 END ATOM
M  V30 BEGIN BOND
M  V30 1 1 1 2
M  V30 2 1 2 3
M  V30 3 2 3 4
M  V30 4 1 4 5
M  V30 5 2 5 6
M  V30 6 1 6 7
M  V30 7 2 7 8
M  V30 8 1 7 9
M  V30 9 1 9 10
M  V30 10 1 10 11
M  V30 11 1 11 12
M  V30 12 2 12 13
M  V30 13 1 13 14
M  V30 14 2 14 15
M  V30 15 1 15 16
M  V30 16 1 16 17
M  V30 17 1 15 18
M  V30 18 2 18 19
M  V30 19 1 19 20
M  V30 20 1 20 21
M  V30 21 1 21 22
M  V30 22 2 20 23
M  V30 23 1 23 24
M  V30 24 2 24 25
M  V30 25 1 25 26
M  V30 26 1 6 27
M  V30 27 2 27 28
M  V30 28 1 28 29
M  V30 29 1 29 30
M  V30 30 1 28 3
M  V30 31 1 25 12
M  V30 32 1 23 14
M  V30 33 1 1 31
M  V30 34 1 1 32
M  V30 35 1 1 33
M  V30 36 1 4 34
M  V30 37 1 5 35
M  V30 38 1 9 36
M  V30 39 1 10 37
M  V30 40 1 10 38
M  V30 41 1 11 39
M  V30 42 1 11 40
M  V30 43 1 13 41
M  V30 44 1 17 42
M  V30 45 1 17 43
M  V30 46 1 17 44
M  V30 47 1 18 45
M  V30 48 1 19 46
M  V30 49 1 22 47
M  V30 50 1 22 48
M  V30 51 1 22 49
M  V30 52 1 26 50
M  V30 53 1 27 51
M  V30 54 1 30 52
M  V30 55 1 30 53
M  V30 56 1 30 54
M  V30 END BOND
M  V30 END CTAB
M  END
>  <Dataset>  (541) 
ChEMBL_Kinases

>  <Ligand_Instance>  (541) 
nan

>  <PDB_ID>  (541) 
nan

>  <Standardized_SMILES>  (541) 
COc1ccc(C(=O)NCCc2cc3c(OC)ccc(OC)c3nc2O)cc1OC

>  <Name>  (541) 
nan

>  <Pocket>  (541) 
nan

>  <ATP_Site>  (541) 
nan

>  <Peripheral>  (541) 
nan

>  <Num_H_Atoms_ProtBoundConf>  (541) 
nan

>  <Num_Resolved_Atoms>  (541) 
nan

>  <Num_Not_Resolved_Atoms>  (541) 
nan

$$$$
CHEMBL1344681
     RDKit          3D

  0  0  0  0  0  0  0  0  0  0999 V3000
M  V30 BEGIN CTAB
M  V30 COUNTS 34 36 0 0 0
M  V30 BEGIN ATOM
M  V30 1 O 0.746419 0.718857 3.784540 0
M  V30 2 C 1.605647 0.000446 3.210804 0
M  V30 3 C 2.292435 -0.930585 4.133221 0
M  V30 4 S 3.546050 -1.951184 3.321976 0
M  V30 5 C 2.813528 -3.082477 2.172007 0
M  V30 6 N 3.384784 -3.925221 1.429878 0
M  V30 7 C 2.617545 -4.724240 0.594273 0
M  V30 8 C 1.313217 -4.061096 0.209373 0
M  V30 9 S 1.029677 -3.220529 1.832857 0
M  V30 10 N 1.908924 0.048660 1.840787 0
M  V30 11 C 1.114144 1.055956 1.053780 0
M  V30 12 N 0.125461 0.884622 0.554124 0
M  V30 13 C -0.623327 1.737896 -0.158603 0
M  V30 14 C -1.910381 1.421408 -0.773911 0
M  V30 15 C -2.514359 0.183515 -0.689437 0
M  V30 16 C -3.718766 -0.171732 -1.244504 0
M  V30 17 C -4.397318 0.786001 -1.953547 0
M  V30 18 C -3.867850 2.051204 -2.089217 0
M  V30 19 C -2.651187 2.329697 -1.501029 0
M  V30 20 C -0.081393 3.031168 -0.292446 0
M  V30 21 S 1.534768 2.849615 0.681647 0
M  V30 22 H 2.656263 -0.452944 5.045269 0
M  V30 23 H 1.485430 -1.644491 4.476363 0
M  V30 24 H 2.386531 -5.735113 1.052479 0
M  V30 25 H 3.191989 -4.876301 -0.350490 0
M  V30 26 H 1.447525 -3.326733 -0.587287 0
M  V30 27 H 0.512082 -4.795006 0.039158 0
M  V30 28 H 2.630820 -0.567788 1.402961 0
M  V30 29 H -1.982478 -0.597443 -0.123225 0
M  V30 30 H -4.100834 -1.188712 -1.111134 0
M  V30 31 H -5.352553 0.570613 -2.416103 0
M  V30 32 H -4.387122 2.834327 -2.648800 0
M  V30 33 H -2.270055 3.338821 -1.632367 0
M  V30 34 H -0.487223 3.865305 -0.805155 0
M  V30 END ATOM
M  V30 BEGIN BOND
M  V30 1 2 1 2
M  V30 2 1 2 3
M  V30 3 1 3 4
M  V30 4 1 4 5
M  V30 5 2 5 6
M  V30 6 1 6 7
M  V30 7 1 7 8
M  V30 8 1 8 9
M  V30 9 1 2 10
M  V30 10 1 10 11
M  V30 11 2 11 12
M  V30 12 1 12 13
M  V30 13 1 13 14
M  V30 14 2 14 15
M  V30 15 1 15 16
M  V30 16 2 16 17
M  V30 17 1 17 18
M  V30 18 2 18 19
M  V30 19 2 13 20
M  V30 20 1 20 21
M  V30 21 1 9 5
M  V30 22 1 21 11
M  V30 23 1 19 14
M  V30 24 1 3 22
M  V30 25 1 3 23
M  V30 26 1 7 24
M  V30 27 1 7 25
M  V30 28 1 8 26
M  V30 29 1 8 27
M  V30 30 1 10 28
M  V30 31 1 15 29
M  V30 32 1 16 30
M  V30 33 1 17 31
M  V30 34 1 18 32
M  V30 35 1 19 33
M  V30 36 1 20 34
M  V30 END BOND
M  V30 END CTAB
M  END
>  <Dataset>  (542) 
ChEMBL_Kinases

>  <Ligand_Instance>  (542) 
nan

>  <PDB_ID>  (542) 
nan

>  <Standardized_SMILES>  (542) 
O=C(CSC1=NCCS1)Nc1nc(-c2ccccc2)cs1

>  <Name>  (542) 
nan

>  <Pocket>  (542) 
nan

>  <ATP_Site>  (542) 
nan

>  <Peripheral>  (542) 
nan

>  <Num_H_Atoms_ProtBoundConf>  (542) 
nan

>  <Num_Resolved_Atoms>  (542) 
nan

>  <Num_Not_Resolved_Atoms>  (542) 
nan

$$$$
CHEMBL1344911
     RDKit          3D

  0  0  0  0  0  0  0  0  0  0999 V3000
M  V30 BEGIN CTAB
M  V30 COUNTS 55 59 0 0 0
M  V30 BEGIN ATOM
M  V30 1 C 1.594801 0.096323 2.502827 0
M  V30 2 C 1.717664 -0.725510 1.261521 0
M  V30 3 C 3.160327 -1.233425 1.218804 0
M  V30 4 C 1.460385 0.043747 -0.028590 0
M  V30 5 C 2.417811 1.124168 -0.112538 0
M  V30 6 N 3.761839 0.901432 -0.274464 0
M  V30 7 N 4.398855 2.024510 -0.337575 0
M  V30 8 N 3.524267 2.978843 -0.223524 0
M  V30 9 N 2.287818 2.462456 -0.082789 0
M  V30 10 C 1.169405 3.320165 0.058009 0
M  V30 11 C 0.846681 3.728651 1.452113 0
M  V30 12 C 1.453799 4.827291 2.072332 0
M  V30 13 C 0.963136 4.971055 3.360893 0
M  V30 14 C 0.077769 3.929203 3.428378 0
M  V30 15 O 0.036122 3.248425 2.335568 0
M  V30 16 N 0.164172 0.128751 -0.495134 0
M  V30 17 C -0.926885 0.514918 0.292741 0
M  V30 18 C -1.966593 -0.577445 0.507305 0
M  V30 19 N -1.930037 -1.524042 -0.599350 0
M  V30 20 C -2.270991 -2.929880 -0.492153 0
M  V30 21 N -2.340501 -3.918584 -1.174888 0
M  V30 22 C -2.709774 -5.104044 -0.718800 0
M  V30 23 C -2.801175 -6.257177 -1.469279 0
M  V30 24 C -3.196205 -7.435291 -0.891362 0
M  V30 25 C -3.526911 -7.577618 0.439998 0
M  V30 26 C -3.442333 -6.436803 1.208463 0
M  V30 27 C -3.037147 -5.247745 0.596074 0
M  V30 28 S -2.774304 -3.540463 1.138244 0
M  V30 29 C -1.522918 -1.023507 -1.896300 0
M  V30 30 C -0.136873 -0.479078 -1.744627 0
M  V30 31 H 0.629430 -0.093559 3.045168 0
M  V30 32 H 2.364197 -0.204912 3.282901 0
M  V30 33 H 1.811147 1.168547 2.347600 0
M  V30 34 H 1.111679 -1.650007 1.307067 0
M  V30 35 H 3.868912 -0.531165 1.704920 0
M  V30 36 H 3.272265 -2.211095 1.743613 0
M  V30 37 H 3.467063 -1.415578 0.176676 0
M  V30 38 H 1.914861 -0.750593 -0.798132 0
M  V30 39 H 1.401313 4.286682 -0.491004 0
M  V30 40 H 0.252327 2.976230 -0.459589 0
M  V30 41 H 2.196612 5.467920 1.610599 0
M  V30 42 H 1.188155 5.682944 4.119178 0
M  V30 43 H -0.564822 3.617217 4.247807 0
M  V30 44 H -0.656286 0.851463 1.282868 0
M  V30 45 H -1.460547 1.355879 -0.217597 0
M  V30 46 H -1.871234 -1.070867 1.502108 0
M  V30 47 H -2.977669 -0.122444 0.494765 0
M  V30 48 H -2.580384 -6.345707 -2.542172 0
M  V30 49 H -3.278181 -8.372936 -1.466813 0
M  V30 50 H -3.845393 -8.454098 0.979823 0
M  V30 51 H -3.654202 -6.320365 2.269891 0
M  V30 52 H -1.514553 -1.827323 -2.657471 0
M  V30 53 H -2.232454 -0.197643 -2.183176 0
M  V30 54 H 0.587597 -1.310711 -1.932491 0
M  V30 55 H 0.063047 0.241859 -2.591189 0
M  V30 END ATOM
M  V30 BEGIN BOND
M  V30 1 1 1 2
M  V30 2 1 2 3
M  V30 3 1 2 4
M  V30 4 1 4 5
M  V30 5 2 5 6
M  V30 6 1 6 7
M  V30 7 2 7 8
M  V30 8 1 8 9
M  V30 9 1 9 10
M  V30 10 1 10 11
M  V30 11 2 11 12
M  V30 12 1 12 13
M  V30 13 2 13 14
M  V30 14 1 14 15
M  V30 15 1 4 16
M  V30 16 1 16 17
M  V30 17 1 17 18
M  V30 18 1 18 19
M  V30 19 1 19 20
M  V30 20 2 20 21
M  V30 21 1 21 22
M  V30 22 2 22 23
M  V30 23 1 23 24
M  V30 24 2 24 25
M  V30 25 1 25 26
M  V30 26 2 26 27
M  V30 27 1 27 28
M  V30 28 1 19 29
M  V30 29 1 29 30
M  V30 30 1 9 5
M  V30 31 1 15 11
M  V30 32 1 30 16
M  V30 33 1 28 20
M  V30 34 1 27 22
M  V30 35 1 1 31
M  V30 36 1 1 32
M  V30 37 1 1 33
M  V30 38 1 2 34
M  V30 39 1 3 35
M  V30 40 1 3 36
M  V30 41 1 3 37
M  V30 42 1 4 38
M  V30 43 1 10 39
M  V30 44 1 10 40
M  V30 45 1 12 41
M  V30 46 1 13 42
M  V30 47 1 14 43
M  V30 48 1 17 44
M  V30 49 1 17 45
M  V30 50 1 18 46
M  V30 51 1 18 47
M  V30 52 1 23 48
M  V30 53 1 24 49
M  V30 54 1 25 50
M  V30 55 1 26 51
M  V30 56 1 29 52
M  V30 57 1 29 53
M  V30 58 1 30 54
M  V30 59 1 30 55
M  V30 END BOND
M  V30 END CTAB
M  END
>  <Dataset>  (543) 
ChEMBL_Kinases

>  <Ligand_Instance>  (543) 
nan

>  <PDB_ID>  (543) 
nan

>  <Standardized_SMILES>  (543) 
CC(C)C(c1nnnn1Cc1ccco1)N1CCN(c2nc3ccccc3s2)CC1

>  <Name>  (543) 
nan

>  <Pocket>  (543) 
nan

>  <ATP_Site>  (543) 
nan

>  <Peripheral>  (543) 
nan

>  <Num_H_Atoms_ProtBoundConf>  (543) 
nan

>  <Num_Resolved_Atoms>  (543) 
nan

>  <Num_Not_Resolved_Atoms>  (543) 
nan

$$$$
CHEMBL134501
     RDKit          3D

  0  0  0  0  0  0  0  0  0  0999 V3000
M  V30 BEGIN CTAB
M  V30 COUNTS 30 33 0 0 0
M  V30 BEGIN ATOM
M  V30 1 O -3.560326 -1.145171 1.448875 0
M  V30 2 C -2.382940 -0.813539 1.738349 0
M  V30 3 C -1.752708 0.256681 0.888151 0
M  V30 4 C -0.425415 -0.178787 0.355800 0
M  V30 5 C 0.611520 -0.824667 1.006227 0
M  V30 6 N 1.655041 -1.053249 0.186334 0
M  V30 7 C 1.293304 -0.546378 -1.024918 0
M  V30 8 C 1.949260 -0.485374 -2.255740 0
M  V30 9 C 1.350197 0.097544 -3.364839 0
M  V30 10 C 0.077732 0.624293 -3.232956 0
M  V30 11 Br -0.731738 1.422392 -4.768130 0
M  V30 12 C -0.608662 0.584571 -2.029334 0
M  V30 13 C 0.026808 -0.004278 -0.955967 0
M  V30 14 C 0.648396 -1.240552 2.404047 0
M  V30 15 C 1.956074 -1.288741 2.834191 0
M  V30 16 C 2.135498 -1.678272 4.165510 0
M  V30 17 C 1.036743 -1.988745 4.970747 0
M  V30 18 N -0.235990 -1.920734 4.482582 0
M  V30 19 C -0.442861 -1.546028 3.194689 0
M  V30 20 N -1.843748 -1.525015 2.843095 0
M  V30 21 H -1.546256 1.126295 1.563531 0
M  V30 22 H -2.407455 0.557728 0.075495 0
M  V30 23 H 2.580819 -1.506622 0.326799 0
M  V30 24 H 2.947661 -0.901507 -2.349319 0
M  V30 25 H 1.859450 0.148317 -4.332317 0
M  V30 26 H -1.607587 0.994824 -1.914406 0
M  V30 27 H 2.829798 -1.055165 2.249353 0
M  V30 28 H 3.115624 -1.747322 4.596918 0
M  V30 29 H 1.132677 -2.294546 6.006583 0
M  V30 30 H -2.458039 -2.085097 3.473555 0
M  V30 END ATOM
M  V30 BEGIN BOND
M  V30 1 2 1 2
M  V30 2 1 2 3
M  V30 3 1 3 4
M  V30 4 2 4 5
M  V30 5 1 5 6
M  V30 6 1 6 7
M  V30 7 2 7 8
M  V30 8 1 8 9
M  V30 9 2 9 10
M  V30 10 1 10 11
M  V30 11 1 10 12
M  V30 12 2 12 13
M  V30 13 1 5 14
M  V30 14 2 14 15
M  V30 15 1 15 16
M  V30 16 2 16 17
M  V30 17 1 17 18
M  V30 18 2 18 19
M  V30 19 1 19 20
M  V30 20 1 20 2
M  V30 21 1 13 4
M  V30 22 1 19 14
M  V30 23 1 13 7
M  V30 24 1 3 21
M  V30 25 1 3 22
M  V30 26 1 6 23
M  V30 27 1 8 24
M  V30 28 1 9 25
M  V30 29 1 12 26
M  V30 30 1 15 27
M  V30 31 1 16 28
M  V30 32 1 17 29
M  V30 33 1 20 30
M  V30 END BOND
M  V30 END CTAB
M  END
>  <Dataset>  (544) 
ChEMBL_Kinases

>  <Ligand_Instance>  (544) 
nan

>  <PDB_ID>  (544) 
nan

>  <Standardized_SMILES>  (544) 
O=C1Cc2c([nH]c3ccc(Br)cc23)-c2cccnc2N1

>  <Name>  (544) 
nan

>  <Pocket>  (544) 
nan

>  <ATP_Site>  (544) 
nan

>  <Peripheral>  (544) 
nan

>  <Num_H_Atoms_ProtBoundConf>  (544) 
nan

>  <Num_Resolved_Atoms>  (544) 
nan

>  <Num_Not_Resolved_Atoms>  (544) 
nan

$$$$
CHEMBL1345016
     RDKit          3D

  0  0  0  0  0  0  0  0  0  0999 V3000
M  V30 BEGIN CTAB
M  V30 COUNTS 45 46 0 0 0
M  V30 BEGIN ATOM
M  V30 1 C -1.247301 -4.507849 1.108479 0
M  V30 2 C -0.473635 -3.204133 1.182835 0
M  V30 3 N 0.163541 -2.847586 -0.052403 0
M  V30 4 C 0.952848 -1.699826 -0.319912 0
M  V30 5 N 1.531336 -1.471509 -1.512051 0
M  V30 6 C 2.281749 -0.386109 -1.755458 0
M  V30 7 N 2.852877 -0.231198 -3.049066 0
M  V30 8 C 3.645078 0.924497 -3.297880 0
M  V30 9 C 4.853488 1.101855 -2.440907 0
M  V30 10 N 2.428178 0.465770 -0.746357 0
M  V30 11 C 1.873813 0.306469 0.492880 0
M  V30 12 O 2.238954 1.358704 1.253480 0
M  V30 13 C 2.048728 1.817244 2.508692 0
M  V30 14 C 0.750785 2.282681 3.047453 0
M  V30 15 O -0.348124 1.455526 3.080880 0
M  V30 16 C -1.150367 1.041917 2.060336 0
M  V30 17 O -1.035195 1.364014 0.872601 0
M  V30 18 C -2.255164 0.134488 2.383043 0
M  V30 19 C -2.486644 -0.309925 3.667947 0
M  V30 20 C -3.503973 -1.156268 4.053836 0
M  V30 21 C -4.374947 -1.603828 3.067720 0
M  V30 22 C -4.161642 -1.171794 1.776584 0
M  V30 23 C -3.149406 -0.334104 1.413337 0
M  V30 24 N 1.141013 -0.802174 0.649747 0
M  V30 25 H -1.799970 -4.590002 2.068334 0
M  V30 26 H -2.006052 -4.450714 0.309578 0
M  V30 27 H -0.611662 -5.388546 0.996722 0
M  V30 28 H 0.365650 -3.372793 1.921692 0
M  V30 29 H -1.147368 -2.404142 1.531825 0
M  V30 30 H 0.025289 -3.515494 -0.839504 0
M  V30 31 H 2.695937 -0.942805 -3.793271 0
M  V30 32 H 4.008623 0.922566 -4.368334 0
M  V30 33 H 3.046603 1.879995 -3.231578 0
M  V30 34 H 5.412954 1.974056 -2.892327 0
M  V30 35 H 4.663423 1.384028 -1.402120 0
M  V30 36 H 5.555394 0.246067 -2.559087 0
M  V30 37 H 2.803874 2.648247 2.775949 0
M  V30 38 H 2.364934 0.937550 3.207021 0
M  V30 39 H 0.892374 2.814297 4.041796 0
M  V30 40 H 0.445004 3.161003 2.356690 0
M  V30 41 H -1.824091 0.019612 4.469466 0
M  V30 42 H -3.648084 -1.479598 5.075275 0
M  V30 43 H -5.210194 -2.272875 3.261967 0
M  V30 44 H -4.798712 -1.475964 0.943633 0
M  V30 45 H -2.981085 0.005648 0.400601 0
M  V30 END ATOM
M  V30 BEGIN BOND
M  V30 1 1 1 2
M  V30 2 1 2 3
M  V30 3 1 3 4
M  V30 4 2 4 5
M  V30 5 1 5 6
M  V30 6 1 6 7
M  V30 7 1 7 8
M  V30 8 1 8 9
M  V30 9 2 6 10
M  V30 10 1 10 11
M  V30 11 1 11 12
M  V30 12 1 12 13
M  V30 13 1 13 14
M  V30 14 1 14 15
M  V30 15 1 15 16
M  V30 16 2 16 17
M  V30 17 1 16 18
M  V30 18 2 18 19
M  V30 19 1 19 20
M  V30 20 2 20 21
M  V30 21 1 21 22
M  V30 22 2 22 23
M  V30 23 2 11 24
M  V30 24 1 24 4
M  V30 25 1 23 18
M  V30 26 1 1 25
M  V30 27 1 1 26
M  V30 28 1 1 27
M  V30 29 1 2 28
M  V30 30 1 2 29
M  V30 31 1 3 30
M  V30 32 1 7 31
M  V30 33 1 8 32
M  V30 34 1 8 33
M  V30 35 1 9 34
M  V30 36 1 9 35
M  V30 37 1 9 36
M  V30 38 1 13 37
M  V30 39 1 13 38
M  V30 40 1 14 39
M  V30 41 1 14 40
M  V30 42 1 19 41
M  V30 43 1 20 42
M  V30 44 1 21 43
M  V30 45 1 22 44
M  V30 46 1 23 45
M  V30 END BOND
M  V30 END CTAB
M  END
>  <Dataset>  (545) 
ChEMBL_Kinases

>  <Ligand_Instance>  (545) 
nan

>  <PDB_ID>  (545) 
nan

>  <Standardized_SMILES>  (545) 
CCNc1nc(NCC)nc(OCCOC(=O)c2ccccc2)n1

>  <Name>  (545) 
nan

>  <Pocket>  (545) 
nan

>  <ATP_Site>  (545) 
nan

>  <Peripheral>  (545) 
nan

>  <Num_H_Atoms_ProtBoundConf>  (545) 
nan

>  <Num_Resolved_Atoms>  (545) 
nan

>  <Num_Not_Resolved_Atoms>  (545) 
nan

$$$$
CHEMBL1345867
     RDKit          3D

  0  0  0  0  0  0  0  0  0  0999 V3000
M  V30 BEGIN CTAB
M  V30 COUNTS 50 53 0 0 0
M  V30 BEGIN ATOM
M  V30 1 C -2.221997 -1.816289 4.420171 0
M  V30 2 N -1.628208 -2.229428 3.140925 0
M  V30 3 C -1.818465 -3.461826 2.645102 0
M  V30 4 O -2.523572 -4.263095 3.308148 0
M  V30 5 N -1.263648 -3.828850 1.461513 0
M  V30 6 C -0.509583 -2.977992 0.747773 0
M  V30 7 O -0.002986 -3.324899 -0.330620 0
M  V30 8 C -0.302115 -1.728203 1.221669 0
M  V30 9 C -0.878199 -1.402748 2.417535 0
M  V30 10 N -0.516991 -0.146554 2.677939 0
M  V30 11 C 0.272700 0.305190 1.656643 0
M  V30 12 N 0.759204 1.662442 1.811840 0
M  V30 13 C 1.680462 2.449301 1.027415 0
M  V30 14 C 3.008831 2.380994 1.774917 0
M  V30 15 C 2.760890 2.094876 3.250822 0
M  V30 16 C 1.528598 2.823391 3.740494 0
M  V30 17 C 0.291635 2.491931 2.942255 0
M  V30 18 N 0.399785 -0.700938 0.739399 0
M  V30 19 C 1.185957 -0.465130 -0.454364 0
M  V30 20 C 0.457945 0.192346 -1.571375 0
M  V30 21 O -0.563651 -0.497887 -2.141688 0
M  V30 22 C -0.627392 -1.625011 -2.885012 0
M  V30 23 C -1.926612 -1.934653 -3.218654 0
M  V30 24 C -2.286152 -3.046684 -3.986294 0
M  V30 25 C -1.265018 -3.869124 -4.425089 0
M  V30 26 C 0.047204 -3.599452 -4.116616 0
M  V30 27 C 0.348962 -2.488261 -3.355879 0
M  V30 28 H -1.862853 -2.441826 5.252753 0
M  V30 29 H -1.850917 -0.785071 4.628950 0
M  V30 30 H -3.312705 -1.765609 4.299776 0
M  V30 31 H -1.389297 -4.776443 1.049431 0
M  V30 32 H 1.344181 3.529554 1.053661 0
M  V30 33 H 1.781183 2.196901 -0.018744 0
M  V30 34 H 3.591385 3.313134 1.707311 0
M  V30 35 H 3.613753 1.556490 1.394807 0
M  V30 36 H 2.737173 1.016924 3.398325 0
M  V30 37 H 3.613492 2.520225 3.813492 0
M  V30 38 H 1.731800 3.914833 3.640918 0
M  V30 39 H 1.382403 2.548755 4.805984 0
M  V30 40 H -0.392686 1.868746 3.536568 0
M  V30 41 H -0.188846 3.413930 2.551843 0
M  V30 42 H 1.406571 -1.524495 -0.825406 0
M  V30 43 H 2.197257 -0.069518 -0.261391 0
M  V30 44 H 0.106015 1.229917 -1.295550 0
M  V30 45 H 1.259673 0.438954 -2.350568 0
M  V30 46 H -2.832586 -1.377539 -2.944330 0
M  V30 47 H -3.283905 -3.322367 -4.269281 0
M  V30 48 H -1.434770 -4.749701 -5.021273 0
M  V30 49 H 0.934519 -4.162146 -4.397885 0
M  V30 50 H 1.343097 -2.208533 -3.079092 0
M  V30 END ATOM
M  V30 BEGIN BOND
M  V30 1 1 1 2
M  V30 2 1 2 3
M  V30 3 2 3 4
M  V30 4 1 3 5
M  V30 5 1 5 6
M  V30 6 2 6 7
M  V30 7 1 6 8
M  V30 8 2 8 9
M  V30 9 1 9 10
M  V30 10 2 10 11
M  V30 11 1 11 12
M  V30 12 1 12 13
M  V30 13 1 13 14
M  V30 14 1 14 15
M  V30 15 1 15 16
M  V30 16 1 16 17
M  V30 17 1 11 18
M  V30 18 1 18 19
M  V30 19 1 19 20
M  V30 20 1 20 21
M  V30 21 1 21 22
M  V30 22 2 22 23
M  V30 23 1 23 24
M  V30 24 2 24 25
M  V30 25 1 25 26
M  V30 26 2 26 27
M  V30 27 1 9 2
M  V30 28 1 17 12
M  V30 29 1 27 22
M  V30 30 1 18 8
M  V30 31 1 1 28
M  V30 32 1 1 29
M  V30 33 1 1 30
M  V30 34 1 5 31
M  V30 35 1 13 32
M  V30 36 1 13 33
M  V30 37 1 14 34
M  V30 38 1 14 35
M  V30 39 1 15 36
M  V30 40 1 15 37
M  V30 41 1 16 38
M  V30 42 1 16 39
M  V30 43 1 17 40
M  V30 44 1 17 41
M  V30 45 1 19 42
M  V30 46 1 19 43
M  V30 47 1 20 44
M  V30 48 1 20 45
M  V30 49 1 23 46
M  V30 50 1 24 47
M  V30 51 1 25 48
M  V30 52 1 26 49
M  V30 53 1 27 50
M  V30 END BOND
M  V30 END CTAB
M  END
>  <Dataset>  (546) 
ChEMBL_Kinases

>  <Ligand_Instance>  (546) 
nan

>  <PDB_ID>  (546) 
nan

>  <Standardized_SMILES>  (546) 
Cn1c(=O)[nH]c(=O)c2c1nc(N1CCCCC1)n2CCOc1ccccc1

>  <Name>  (546) 
nan

>  <Pocket>  (546) 
nan

>  <ATP_Site>  (546) 
nan

>  <Peripheral>  (546) 
nan

>  <Num_H_Atoms_ProtBoundConf>  (546) 
nan

>  <Num_Resolved_Atoms>  (546) 
nan

>  <Num_Not_Resolved_Atoms>  (546) 
nan

$$$$
CHEMBL1345273
     RDKit          3D

  0  0  0  0  0  0  0  0  0  0999 V3000
M  V30 BEGIN CTAB
M  V30 COUNTS 37 39 0 0 0
M  V30 BEGIN ATOM
M  V30 1 N 2.304846 -2.965889 3.007943 0
M  V30 2 C 1.120433 -2.197283 2.853183 0
M  V30 3 O 0.127554 -2.672083 3.429543 0
M  V30 4 C 1.004949 -0.954024 2.100957 0
M  V30 5 C 2.110987 -0.448315 1.473561 0
M  V30 6 C 1.863316 0.779306 0.768121 0
M  V30 7 C 2.804960 1.613707 -0.015185 0
M  V30 8 C 2.832781 1.190230 -1.440258 0
M  V30 9 C 3.689272 0.239072 -1.948482 0
M  V30 10 C 3.675254 -0.119818 -3.283654 0
M  V30 11 C 2.768913 0.501095 -4.129332 0
M  V30 12 C 1.901926 1.458181 -3.635432 0
M  V30 13 C 1.935188 1.801028 -2.292562 0
M  V30 14 S 0.093404 1.143334 1.031792 0
M  V30 15 C -0.190310 -0.333391 2.042579 0
M  V30 16 N -1.443225 -0.626876 2.577010 0
M  V30 17 C -2.258928 -1.411558 1.750503 0
M  V30 18 O -1.722672 -1.728871 0.645425 0
M  V30 19 C -3.610020 -1.837751 2.109761 0
M  V30 20 C -4.340309 -1.587006 3.255922 0
M  V30 21 C -5.571361 -2.189598 3.159287 0
M  V30 22 C -5.524484 -2.802832 1.904150 0
M  V30 23 O -4.366704 -2.573142 1.328136 0
M  V30 24 H 2.846853 -3.732035 2.559110 0
M  V30 25 H 2.678063 -2.542906 3.890797 0
M  V30 26 H 3.116547 -0.825922 1.431448 0
M  V30 27 H 3.828102 1.490748 0.392148 0
M  V30 28 H 2.507713 2.698840 0.049420 0
M  V30 29 H 4.385800 -0.231599 -1.275239 0
M  V30 30 H 4.353751 -0.870496 -3.676174 0
M  V30 31 H 2.719249 0.252153 -5.190896 0
M  V30 32 H 1.199244 1.925685 -4.340901 0
M  V30 33 H 1.246051 2.557952 -1.913695 0
M  V30 34 H -1.816815 -0.318978 3.518675 0
M  V30 35 H -3.997967 -1.008703 4.095518 0
M  V30 36 H -6.403581 -2.227860 3.824317 0
M  V30 37 H -6.271132 -3.400820 1.385472 0
M  V30 END ATOM
M  V30 BEGIN BOND
M  V30 1 1 1 2
M  V30 2 2 2 3
M  V30 3 1 2 4
M  V30 4 1 4 5
M  V30 5 2 5 6
M  V30 6 1 6 7
M  V30 7 1 7 8
M  V30 8 2 8 9
M  V30 9 1 9 10
M  V30 10 2 10 11
M  V30 11 1 11 12
M  V30 12 2 12 13
M  V30 13 1 6 14
M  V30 14 1 14 15
M  V30 15 1 15 16
M  V30 16 1 16 17
M  V30 17 2 17 18
M  V30 18 1 17 19
M  V30 19 2 19 20
M  V30 20 1 20 21
M  V30 21 2 21 22
M  V30 22 1 22 23
M  V30 23 2 15 4
M  V30 24 1 23 19
M  V30 25 1 13 8
M  V30 26 1 1 24
M  V30 27 1 1 25
M  V30 28 1 5 26
M  V30 29 1 7 27
M  V30 30 1 7 28
M  V30 31 1 9 29
M  V30 32 1 10 30
M  V30 33 1 11 31
M  V30 34 1 12 32
M  V30 35 1 13 33
M  V30 36 1 16 34
M  V30 37 1 20 35
M  V30 38 1 21 36
M  V30 39 1 22 37
M  V30 END BOND
M  V30 END CTAB
M  END
>  <Dataset>  (547) 
ChEMBL_Kinases

>  <Ligand_Instance>  (547) 
nan

>  <PDB_ID>  (547) 
nan

>  <Standardized_SMILES>  (547) 
NC(=O)c1cc(Cc2ccccc2)sc1NC(=O)c1ccco1

>  <Name>  (547) 
nan

>  <Pocket>  (547) 
nan

>  <ATP_Site>  (547) 
nan

>  <Peripheral>  (547) 
nan

>  <Num_H_Atoms_ProtBoundConf>  (547) 
nan

>  <Num_Resolved_Atoms>  (547) 
nan

>  <Num_Not_Resolved_Atoms>  (547) 
nan

$$$$
CHEMBL1345350
     RDKit          3D

  0  0  0  0  0  0  0  0  0  0999 V3000
M  V30 BEGIN CTAB
M  V30 COUNTS 64 68 0 0 0
M  V30 BEGIN ATOM
M  V30 1 N -0.926364 -3.497723 3.359923 0
M  V30 2 C -0.470885 -2.547957 2.872687 0
M  V30 3 C 0.114768 -1.355903 2.266919 0
M  V30 4 C 1.419438 -1.134340 3.026112 0
M  V30 5 O 1.789198 -1.912200 3.938294 0
M  V30 6 N 2.201528 -0.006310 2.657384 0
M  V30 7 C 3.428673 0.541456 3.093289 0
M  V30 8 C 4.501905 0.694372 2.072301 0
M  V30 9 C 4.271996 1.821715 1.102195 0
M  V30 10 C 3.143446 2.725952 1.342350 0
M  V30 11 C 2.539431 2.774904 2.694787 0
M  V30 12 C 3.172582 1.914735 3.733475 0
M  V30 13 C 0.448142 -1.536506 0.835777 0
M  V30 14 N 1.532306 -2.304839 0.639429 0
M  V30 15 C 1.980161 -2.524554 -0.610290 0
M  V30 16 C 3.088122 -3.306643 -0.845839 0
M  V30 17 C 3.474288 -3.476727 -2.156964 0
M  V30 18 C 2.794787 -2.895388 -3.232808 0
M  V30 19 C 1.683702 -2.114041 -2.960084 0
M  V30 20 C 1.280416 -1.932237 -1.636837 0
M  V30 21 N 0.204206 -1.175182 -1.384209 0
M  V30 22 C -0.276867 -0.930559 -0.156285 0
M  V30 23 N -1.448071 -0.162361 0.027638 0
M  V30 24 C -1.775812 0.701044 -1.127636 0
M  V30 25 C -2.935970 -0.017466 -1.831861 0
M  V30 26 N -3.879866 -0.476697 -0.832042 0
M  V30 27 C -4.855627 -1.490313 -0.941544 0
M  V30 28 C -4.648767 -2.571305 -0.110513 0
M  V30 29 C -5.523638 -3.651074 -0.109686 0
M  V30 30 C -6.626318 -3.634731 -0.965880 0
M  V30 31 C -6.798900 -2.531744 -1.784725 0
M  V30 32 C -5.950595 -1.450605 -1.806405 0
M  V30 33 F -6.077927 -0.364672 -2.578162 0
M  V30 34 C -3.790678 0.223310 0.428312 0
M  V30 35 C -2.421843 -0.040348 1.060575 0
M  V30 36 H -0.436980 -0.418767 2.488973 0
M  V30 37 H 1.847538 0.616449 1.883319 0
M  V30 38 H 3.806690 -0.081955 3.929651 0
M  V30 39 H 4.768740 -0.270193 1.590472 0
M  V30 40 H 5.432502 0.969291 2.621662 0
M  V30 41 H 4.109813 1.302882 0.107406 0
M  V30 42 H 5.200824 2.414375 0.916237 0
M  V30 43 H 2.322635 2.566471 0.573242 0
M  V30 44 H 3.452655 3.793481 1.106107 0
M  V30 45 H 2.488415 3.814121 3.136436 0
M  V30 46 H 1.450352 2.479730 2.642571 0
M  V30 47 H 2.448289 1.735026 4.549093 0
M  V30 48 H 4.069343 2.336877 4.190096 0
M  V30 49 H 3.644772 -3.775916 -0.038661 0
M  V30 50 H 4.350314 -4.091002 -2.394941 0
M  V30 51 H 3.097565 -3.029365 -4.273557 0
M  V30 52 H 1.161483 -1.666760 -3.796604 0
M  V30 53 H -0.936498 0.848905 -1.803109 0
M  V30 54 H -2.178817 1.677564 -0.785272 0
M  V30 55 H -2.554838 -0.920629 -2.365515 0
M  V30 56 H -3.459384 0.656888 -2.516598 0
M  V30 57 H -3.811445 -2.653359 0.582258 0
M  V30 58 H -5.438190 -4.529788 0.504392 0
M  V30 59 H -7.379452 -4.416370 -1.055529 0
M  V30 60 H -7.644537 -2.491227 -2.458730 0
M  V30 61 H -4.561581 -0.066109 1.143250 0
M  V30 62 H -3.933832 1.314016 0.198950 0
M  V30 63 H -2.553561 -0.920872 1.717697 0
M  V30 64 H -2.213318 0.865790 1.660740 0
M  V30 END ATOM
M  V30 BEGIN BOND
M  V30 1 3 1 2
M  V30 2 1 2 3
M  V30 3 1 3 4
M  V30 4 2 4 5
M  V30 5 1 4 6
M  V30 6 1 6 7
M  V30 7 1 7 8
M  V30 8 1 8 9
M  V30 9 1 9 10
M  V30 10 1 10 11
M  V30 11 1 11 12
M  V30 12 1 3 13
M  V30 13 2 13 14
M  V30 14 1 14 15
M  V30 15 2 15 16
M  V30 16 1 16 17
M  V30 17 2 17 18
M  V30 18 1 18 19
M  V30 19 2 19 20
M  V30 20 1 20 21
M  V30 21 2 21 22
M  V30 22 1 22 23
M  V30 23 1 23 24
M  V30 24 1 24 25
M  V30 25 1 25 26
M  V30 26 1 26 27
M  V30 27 2 27 28
M  V30 28 1 28 29
M  V30 29 2 29 30
M  V30 30 1 30 31
M  V30 31 2 31 32
M  V30 32 1 32 33
M  V30 33 1 26 34
M  V30 34 1 34 35
M  V30 35 1 12 7
M  V30 36 1 22 13
M  V30 37 1 35 23
M  V30 38 1 20 15
M  V30 39 1 32 27
M  V30 40 1 3 36
M  V30 41 1 6 37
M  V30 42 1 7 38
M  V30 43 1 8 39
M  V30 44 1 8 40
M  V30 45 1 9 41
M  V30 46 1 9 42
M  V30 47 1 10 43
M  V30 48 1 10 44
M  V30 49 1 11 45
M  V30 50 1 11 46
M  V30 51 1 12 47
M  V30 52 1 12 48
M  V30 53 1 16 49
M  V30 54 1 17 50
M  V30 55 1 18 51
M  V30 56 1 19 52
M  V30 57 1 24 53
M  V30 58 1 24 54
M  V30 59 1 25 55
M  V30 60 1 25 56
M  V30 61 1 28 57
M  V30 62 1 29 58
M  V30 63 1 30 59
M  V30 64 1 31 60
M  V30 65 1 34 61
M  V30 66 1 34 62
M  V30 67 1 35 63
M  V30 68 1 35 64
M  V30 END BOND
M  V30 END CTAB
M  END
>  <Dataset>  (548) 
ChEMBL_Kinases

>  <Ligand_Instance>  (548) 
nan

>  <PDB_ID>  (548) 
nan

>  <Standardized_SMILES>  (548) 
N#CC(C(=O)NC1CCCCC1)c1nc2ccccc2nc1N1CCN(c2ccccc2F)CC1

>  <Name>  (548) 
nan

>  <Pocket>  (548) 
nan

>  <ATP_Site>  (548) 
nan

>  <Peripheral>  (548) 
nan

>  <Num_H_Atoms_ProtBoundConf>  (548) 
nan

>  <Num_Resolved_Atoms>  (548) 
nan

>  <Num_Not_Resolved_Atoms>  (548) 
nan

$$$$
CHEMBL1345370
     RDKit          3D

  0  0  0  0  0  0  0  0  0  0999 V3000
M  V30 BEGIN CTAB
M  V30 COUNTS 56 59 0 0 0
M  V30 BEGIN ATOM
M  V30 1 C 0.692568 -2.552468 3.280874 0
M  V30 2 N 1.737034 -1.614308 3.610167 0
M  V30 3 C 1.914837 -0.986863 4.783911 0
M  V30 4 C 3.030609 -0.182951 4.710561 0
M  V30 5 C 3.485846 -0.389672 3.410350 0
M  V30 6 C 2.675971 -1.288657 2.712968 0
M  V30 7 C 2.993385 -1.624848 1.301585 0
M  V30 8 C 2.575068 -0.524339 0.438473 0
M  V30 9 N 3.356815 0.570354 0.446209 0
M  V30 10 N 2.872731 1.493128 -0.399701 0
M  V30 11 C 1.753742 0.947480 -0.948039 0
M  V30 12 S 0.917481 1.966727 -2.133953 0
M  V30 13 C -0.318655 3.055890 -1.454291 0
M  V30 14 C -1.517934 2.428459 -0.915537 0
M  V30 15 O -2.310094 2.239184 -1.911852 0
M  V30 16 N -1.957457 2.020018 0.368383 0
M  V30 17 C -1.582353 1.935428 1.779149 0
M  V30 18 C -1.758550 0.446835 2.084036 0
M  V30 19 C -2.899330 0.077065 1.153237 0
M  V30 20 C -3.266096 1.446088 0.626104 0
M  V30 21 N 1.607884 -0.274286 -0.414241 0
M  V30 22 C 0.541728 -1.112065 -0.784860 0
M  V30 23 C 0.779559 -2.018340 -1.948814 0
M  V30 24 C -0.451375 -2.820893 -2.194751 0
M  V30 25 C -0.682025 -4.062077 -1.593348 0
M  V30 26 C -1.869972 -4.678319 -1.923550 0
M  V30 27 C -2.815818 -4.165558 -2.782071 0
M  V30 28 C -2.566435 -2.925328 -3.372084 0
M  V30 29 C -1.384067 -2.297245 -3.051822 0
M  V30 30 H -0.025764 -2.671649 4.116894 0
M  V30 31 H 0.169758 -2.229754 2.366587 0
M  V30 32 H 1.174376 -3.540109 3.022853 0
M  V30 33 H 1.254935 -1.119989 5.640671 0
M  V30 34 H 3.456008 0.453128 5.466748 0
M  V30 35 H 4.383205 0.130533 3.053312 0
M  V30 36 H 2.435856 -2.570327 1.111304 0
M  V30 37 H 4.107205 -1.818664 1.280178 0
M  V30 38 H 0.153988 3.601499 -0.566454 0
M  V30 39 H -0.591422 3.891505 -2.130846 0
M  V30 40 H -2.198674 2.573580 2.410196 0
M  V30 41 H -0.500667 2.146130 1.844855 0
M  V30 42 H -0.844330 -0.130977 1.868748 0
M  V30 43 H -2.055011 0.323962 3.125311 0
M  V30 44 H -3.742735 -0.408308 1.656133 0
M  V30 45 H -2.539538 -0.497498 0.281180 0
M  V30 46 H -3.841897 2.053051 1.357287 0
M  V30 47 H -3.859611 1.310274 -0.324000 0
M  V30 48 H -0.387377 -0.533161 -1.008509 0
M  V30 49 H 0.268391 -1.738228 0.087251 0
M  V30 50 H 1.528271 -2.790139 -1.598387 0
M  V30 51 H 1.069749 -1.552227 -2.883959 0
M  V30 52 H 0.053918 -4.462951 -0.924556 0
M  V30 53 H -2.064478 -5.656360 -1.457187 0
M  V30 54 H -3.716372 -4.753234 -2.963058 0
M  V30 55 H -3.344470 -2.580925 -4.032093 0
M  V30 56 H -1.274911 -1.343464 -3.554707 0
M  V30 END ATOM
M  V30 BEGIN BOND
M  V30 1 1 1 2
M  V30 2 1 2 3
M  V30 3 2 3 4
M  V30 4 1 4 5
M  V30 5 2 5 6
M  V30 6 1 6 7
M  V30 7 1 7 8
M  V30 8 2 8 9
M  V30 9 1 9 10
M  V30 10 2 10 11
M  V30 11 1 11 12
M  V30 12 1 12 13
M  V30 13 1 13 14
M  V30 14 2 14 15
M  V30 15 1 14 16
M  V30 16 1 16 17
M  V30 17 1 17 18
M  V30 18 1 18 19
M  V30 19 1 19 20
M  V30 20 1 11 21
M  V30 21 1 21 22
M  V30 22 1 22 23
M  V30 23 1 23 24
M  V30 24 2 24 25
M  V30 25 1 25 26
M  V30 26 2 26 27
M  V30 27 1 27 28
M  V30 28 2 28 29
M  V30 29 1 6 2
M  V30 30 1 21 8
M  V30 31 1 29 24
M  V30 32 1 20 16
M  V30 33 1 1 30
M  V30 34 1 1 31
M  V30 35 1 1 32
M  V30 36 1 3 33
M  V30 37 1 4 34
M  V30 38 1 5 35
M  V30 39 1 7 36
M  V30 40 1 7 37
M  V30 41 1 13 38
M  V30 42 1 13 39
M  V30 43 1 17 40
M  V30 44 1 17 41
M  V30 45 1 18 42
M  V30 46 1 18 43
M  V30 47 1 19 44
M  V30 48 1 19 45
M  V30 49 1 20 46
M  V30 50 1 20 47
M  V30 51 1 22 48
M  V30 52 1 22 49
M  V30 53 1 23 50
M  V30 54 1 23 51
M  V30 55 1 25 52
M  V30 56 1 26 53
M  V30 57 1 27 54
M  V30 58 1 28 55
M  V30 59 1 29 56
M  V30 END BOND
M  V30 END CTAB
M  END
>  <Dataset>  (549) 
ChEMBL_Kinases

>  <Ligand_Instance>  (549) 
nan

>  <PDB_ID>  (549) 
nan

>  <Standardized_SMILES>  (549) 
Cn1cccc1Cc1nnc(SCC(=O)N2CCCC2)n1CCc1ccccc1

>  <Name>  (549) 
nan

>  <Pocket>  (549) 
nan

>  <ATP_Site>  (549) 
nan

>  <Peripheral>  (549) 
nan

>  <Num_H_Atoms_ProtBoundConf>  (549) 
nan

>  <Num_Resolved_Atoms>  (549) 
nan

>  <Num_Not_Resolved_Atoms>  (549) 
nan

$$$$
CHEMBL1345427
     RDKit          3D

  0  0  0  0  0  0  0  0  0  0999 V3000
M  V30 BEGIN CTAB
M  V30 COUNTS 33 35 0 0 0
M  V30 BEGIN ATOM
M  V30 1 O -0.298304 0.158421 1.646428 0
M  V30 2 C -0.669226 -1.040976 1.231766 0
M  V30 3 C -0.209596 -1.740222 -0.051070 0
M  V30 4 C 0.548153 -1.128803 -0.906994 0
M  V30 5 C 1.065777 0.217726 -0.845857 0
M  V30 6 C 0.391723 1.407109 -0.692302 0
M  V30 7 C 1.020834 2.630520 -0.611264 0
M  V30 8 C 2.399586 2.642222 -0.691455 0
M  V30 9 N 2.968831 3.953102 -0.597862 0 CHG=1 VAL=4
M  V30 10 O 4.142243 4.353736 -0.626648 0
M  V30 11 O 2.255243 5.139791 -0.441970 0 CHG=-1 VAL=1
M  V30 12 C 3.126365 1.479662 -0.846467 0
M  V30 13 C 2.427569 0.270975 -0.921594 0
M  V30 14 N -0.979250 -2.732374 0.538223 0
M  V30 15 C -0.545897 -3.681848 1.617921 0
M  V30 16 C -1.092043 -2.908148 2.847960 0
M  V30 17 C -1.625520 -1.555011 2.290747 0
M  V30 18 C -2.906426 -1.951105 1.521210 0
M  V30 19 C -2.460866 -2.922202 0.381030 0
M  V30 20 H 0.663088 -1.911452 -1.642160 0
M  V30 21 H -0.698039 1.341604 -0.660836 0
M  V30 22 H 0.367607 3.486045 -0.490261 0
M  V30 23 H 4.195413 1.585537 -0.899209 0
M  V30 24 H 3.092746 -0.575146 -1.043141 0
M  V30 25 H -1.096055 -4.623609 1.577007 0
M  V30 26 H 0.501944 -3.873592 1.657445 0
M  V30 27 H -0.334542 -2.768723 3.604115 0
M  V30 28 H -1.972599 -3.405027 3.269859 0
M  V30 29 H -1.846736 -0.872241 3.071145 0
M  V30 30 H -3.241034 -1.033358 1.012645 0
M  V30 31 H -3.629011 -2.402917 2.182708 0
M  V30 32 H -2.787203 -3.931446 0.546413 0
M  V30 33 H -2.833798 -2.590320 -0.592424 0
M  V30 END ATOM
M  V30 BEGIN BOND
M  V30 1 2 1 2
M  V30 2 1 2 3
M  V30 3 2 3 4
M  V30 4 1 4 5
M  V30 5 2 5 6
M  V30 6 1 6 7
M  V30 7 2 7 8
M  V30 8 1 8 9
M  V30 9 2 9 10
M  V30 10 1 9 11
M  V30 11 1 8 12
M  V30 12 2 12 13
M  V30 13 1 3 14
M  V30 14 1 14 15
M  V30 15 1 15 16
M  V30 16 1 16 17
M  V30 17 1 17 18
M  V30 18 1 18 19
M  V30 19 1 17 2
M  V30 20 1 13 5
M  V30 21 1 19 14
M  V30 22 1 4 20
M  V30 23 1 6 21
M  V30 24 1 7 22
M  V30 25 1 12 23
M  V30 26 1 13 24
M  V30 27 1 15 25
M  V30 28 1 15 26
M  V30 29 1 16 27
M  V30 30 1 16 28
M  V30 31 1 17 29
M  V30 32 1 18 30
M  V30 33 1 18 31
M  V30 34 1 19 32
M  V30 35 1 19 33
M  V30 END BOND
M  V30 END CTAB
M  END
>  <Dataset>  (550) 
ChEMBL_Kinases

>  <Ligand_Instance>  (550) 
nan

>  <PDB_ID>  (550) 
nan

>  <Standardized_SMILES>  (550) 
O=C1/C(=C\c2ccc([N+](=O)[O-])cc2)N2CCC1CC2

>  <Name>  (550) 
nan

>  <Pocket>  (550) 
nan

>  <ATP_Site>  (550) 
nan

>  <Peripheral>  (550) 
nan

>  <Num_H_Atoms_ProtBoundConf>  (550) 
nan

>  <Num_Resolved_Atoms>  (550) 
nan

>  <Num_Not_Resolved_Atoms>  (550) 
nan

$$$$
CHEMBL1345634
     RDKit          3D

  0  0  0  0  0  0  0  0  0  0999 V3000
M  V30 BEGIN CTAB
M  V30 COUNTS 33 35 0 0 0
M  V30 BEGIN ATOM
M  V30 1 C -3.220941 -1.926145 3.835751 0
M  V30 2 C -2.273969 -2.364636 2.784250 0
M  V30 3 C -1.491339 -3.479879 2.931364 0
M  V30 4 C -0.610050 -3.863690 1.914303 0
M  V30 5 C -0.518033 -3.113673 0.736577 0
M  V30 6 S 0.672642 -3.855913 -0.358211 0
M  V30 7 C 0.850375 -2.893776 -1.849879 0
M  V30 8 C 1.491165 -1.556706 -1.631864 0
M  V30 9 N 1.082677 -0.302103 -1.365421 0
M  V30 10 C 2.136674 0.507390 -1.274304 0
M  V30 11 C 1.752341 1.898516 -0.982834 0
M  V30 12 C 1.676619 2.158590 0.383345 0
M  V30 13 C 1.325773 3.425232 0.821066 0
M  V30 14 C 1.062915 4.387806 -0.134496 0
M  V30 15 N 1.148744 4.090443 -1.441116 0
M  V30 16 C 1.485923 2.873400 -1.909247 0
M  V30 17 N 3.212922 -0.268329 -1.489439 0
M  V30 18 O 2.808101 -1.483984 -1.698530 0
M  V30 19 C -1.310799 -2.004907 0.615582 0
M  V30 20 C -2.172637 -1.638351 1.622530 0
M  V30 21 H -2.700468 -2.060371 4.824654 0
M  V30 22 H -4.160294 -2.514373 3.804839 0
M  V30 23 H -3.408131 -0.849319 3.744341 0
M  V30 24 H -1.618078 -4.004323 3.864808 0
M  V30 25 H -0.071580 -4.764842 2.198207 0
M  V30 26 H -0.180671 -2.739451 -2.294694 0
M  V30 27 H 1.399734 -3.438147 -2.640086 0
M  V30 28 H 1.874688 1.432065 1.167273 0
M  V30 29 H 1.249600 3.689597 1.875022 0
M  V30 30 H 0.785119 5.389631 0.188577 0
M  V30 31 H 1.575339 2.560877 -2.926683 0
M  V30 32 H -1.158509 -1.522259 -0.316593 0
M  V30 33 H -2.754872 -0.750443 1.436019 0
M  V30 END ATOM
M  V30 BEGIN BOND
M  V30 1 1 1 2
M  V30 2 2 2 3
M  V30 3 1 3 4
M  V30 4 2 4 5
M  V30 5 1 5 6
M  V30 6 1 6 7
M  V30 7 1 7 8
M  V30 8 2 8 9
M  V30 9 1 9 10
M  V30 10 1 10 11
M  V30 11 2 11 12
M  V30 12 1 12 13
M  V30 13 2 13 14
M  V30 14 1 14 15
M  V30 15 2 15 16
M  V30 16 2 10 17
M  V30 17 1 17 18
M  V30 18 1 5 19
M  V30 19 2 19 20
M  V30 20 1 20 2
M  V30 21 1 18 8
M  V30 22 1 16 11
M  V30 23 1 1 21
M  V30 24 1 1 22
M  V30 25 1 1 23
M  V30 26 1 3 24
M  V30 27 1 4 25
M  V30 28 1 7 26
M  V30 29 1 7 27
M  V30 30 1 12 28
M  V30 31 1 13 29
M  V30 32 1 14 30
M  V30 33 1 16 31
M  V30 34 1 19 32
M  V30 35 1 20 33
M  V30 END BOND
M  V30 END CTAB
M  END
>  <Dataset>  (551) 
ChEMBL_Kinases

>  <Ligand_Instance>  (551) 
nan

>  <PDB_ID>  (551) 
nan

>  <Standardized_SMILES>  (551) 
Cc1ccc(SCc2nc(-c3cccnc3)no2)cc1

>  <Name>  (551) 
nan

>  <Pocket>  (551) 
nan

>  <ATP_Site>  (551) 
nan

>  <Peripheral>  (551) 
nan

>  <Num_H_Atoms_ProtBoundConf>  (551) 
nan

>  <Num_Resolved_Atoms>  (551) 
nan

>  <Num_Not_Resolved_Atoms>  (551) 
nan

$$$$
CHEMBL1345643
     RDKit          3D

  0  0  0  0  0  0  0  0  0  0999 V3000
M  V30 BEGIN CTAB
M  V30 COUNTS 40 41 0 0 0
M  V30 BEGIN ATOM
M  V30 1 C -1.810738 -5.366542 3.002903 0
M  V30 2 C -1.436077 -4.512461 1.806388 0
M  V30 3 C -1.353778 -5.300096 0.539062 0
M  V30 4 C -0.094027 -3.812660 2.052369 0
M  V30 5 C 0.235440 -2.988703 0.860139 0
M  V30 6 C -0.093606 -1.683421 0.618309 0
M  V30 7 C 0.398622 -1.266216 -0.615107 0
M  V30 8 C 0.271606 0.049971 -1.255258 0
M  V30 9 O 0.787751 0.230896 -2.375763 0
M  V30 10 N -0.446330 1.044289 -0.535351 0
M  V30 11 C -0.627620 2.374489 -1.079486 0
M  V30 12 C 0.701256 3.060564 -1.325830 0
M  V30 13 C 1.492769 3.209385 -0.100077 0
M  V30 14 C 2.417344 2.329872 0.424055 0
M  V30 15 C 3.099149 2.594232 1.598204 0
M  V30 16 C 2.870251 3.763224 2.289110 0
M  V30 17 C 1.960057 4.694282 1.829371 0
M  V30 18 C 1.310372 4.375309 0.652694 0
M  V30 19 N 1.013266 -2.371199 -1.060813 0
M  V30 20 O 0.911108 -3.346407 -0.206673 0
M  V30 21 H -0.876839 -5.909723 3.308681 0
M  V30 22 H -2.559156 -6.118417 2.704735 0
M  V30 23 H -2.150984 -4.713605 3.824335 0
M  V30 24 H -2.223954 -3.739190 1.699527 0
M  V30 25 H -1.983393 -4.859383 -0.275991 0
M  V30 26 H -1.690451 -6.327309 0.723195 0
M  V30 27 H -0.307438 -5.327450 0.177352 0
M  V30 28 H 0.681772 -4.515084 2.347402 0
M  V30 29 H -0.311928 -3.084486 2.887808 0
M  V30 30 H -0.670291 -1.045410 1.304875 0
M  V30 31 H -0.860865 0.820834 0.416844 0
M  V30 32 H -1.232105 2.298964 -1.993663 0
M  V30 33 H -1.182570 3.007113 -0.372590 0
M  V30 34 H 0.543663 4.068990 -1.758925 0
M  V30 35 H 1.301998 2.488314 -2.074286 0
M  V30 36 H 2.569157 1.424156 -0.147307 0
M  V30 37 H 3.820115 1.869881 1.973702 0
M  V30 38 H 3.386747 4.001850 3.211663 0
M  V30 39 H 1.755644 5.609378 2.335193 0
M  V30 40 H 0.587542 5.123324 0.295034 0
M  V30 END ATOM
M  V30 BEGIN BOND
M  V30 1 1 1 2
M  V30 2 1 2 3
M  V30 3 1 2 4
M  V30 4 1 4 5
M  V30 5 2 5 6
M  V30 6 1 6 7
M  V30 7 1 7 8
M  V30 8 2 8 9
M  V30 9 1 8 10
M  V30 10 1 10 11
M  V30 11 1 11 12
M  V30 12 1 12 13
M  V30 13 2 13 14
M  V30 14 1 14 15
M  V30 15 2 15 16
M  V30 16 1 16 17
M  V30 17 2 17 18
M  V30 18 2 7 19
M  V30 19 1 19 20
M  V30 20 1 20 5
M  V30 21 1 18 13
M  V30 22 1 1 21
M  V30 23 1 1 22
M  V30 24 1 1 23
M  V30 25 1 2 24
M  V30 26 1 3 25
M  V30 27 1 3 26
M  V30 28 1 3 27
M  V30 29 1 4 28
M  V30 30 1 4 29
M  V30 31 1 6 30
M  V30 32 1 10 31
M  V30 33 1 11 32
M  V30 34 1 11 33
M  V30 35 1 12 34
M  V30 36 1 12 35
M  V30 37 1 14 36
M  V30 38 1 15 37
M  V30 39 1 16 38
M  V30 40 1 17 39
M  V30 41 1 18 40
M  V30 END BOND
M  V30 END CTAB
M  END
>  <Dataset>  (552) 
ChEMBL_Kinases

>  <Ligand_Instance>  (552) 
nan

>  <PDB_ID>  (552) 
nan

>  <Standardized_SMILES>  (552) 
CC(C)Cc1cc(C(=O)NCCc2ccccc2)no1

>  <Name>  (552) 
nan

>  <Pocket>  (552) 
nan

>  <ATP_Site>  (552) 
nan

>  <Peripheral>  (552) 
nan

>  <Num_H_Atoms_ProtBoundConf>  (552) 
nan

>  <Num_Resolved_Atoms>  (552) 
nan

>  <Num_Not_Resolved_Atoms>  (552) 
nan

$$$$
CHEMBL1345690
     RDKit          3D

  0  0  0  0  0  0  0  0  0  0999 V3000
M  V30 BEGIN CTAB
M  V30 COUNTS 37 40 0 0 0
M  V30 BEGIN ATOM
M  V30 1 C 1.388733 -5.089077 2.823623 0
M  V30 2 C 1.556149 -3.620147 3.024833 0
M  V30 3 O 1.362561 -2.915843 1.787682 0
M  V30 4 C 1.505791 -1.531278 1.906419 0
M  V30 5 O 1.779587 -0.800227 2.934169 0
M  V30 6 C 1.365878 -0.623090 0.806357 0
M  V30 7 C 2.662912 -0.524286 0.285061 0
M  V30 8 O 3.887284 -1.118327 0.652064 0
M  V30 9 N 2.890160 0.283412 -0.794204 0
M  V30 10 C 1.918891 0.994732 -1.385398 0
M  V30 11 C 2.121739 1.811923 -2.468139 0
M  V30 12 C 1.094320 2.526156 -3.045181 0
M  V30 13 C -0.182820 2.431636 -2.535666 0
M  V30 14 C -0.367033 1.604695 -1.446492 0
M  V30 15 C 0.651077 0.886113 -0.861153 0
M  V30 16 C 0.378210 0.090653 0.216451 0
M  V30 17 C -0.917243 -0.035190 0.769031 0
M  V30 18 C -1.185212 -0.826517 1.832717 0
M  V30 19 C -2.419945 -0.995140 2.414924 0
M  V30 20 C -3.431040 -0.248608 1.792742 0
M  V30 21 C -3.236302 0.578155 0.706778 0
M  V30 22 C -1.946883 0.657754 0.218689 0
M  V30 23 C -1.736269 1.542065 -0.949466 0
M  V30 24 O -2.685002 2.195954 -1.475378 0
M  V30 25 H 2.146518 -5.404502 2.065310 0
M  V30 26 H 0.357500 -5.315192 2.464874 0
M  V30 27 H 1.541450 -5.628090 3.756532 0
M  V30 28 H 2.598856 -3.402167 3.343488 0
M  V30 29 H 0.905483 -3.207153 3.822874 0
M  V30 30 H 3.985876 -2.116130 0.449453 0
M  V30 31 H 3.143673 1.849387 -2.828189 0
M  V30 32 H 1.307965 3.145077 -3.883608 0
M  V30 33 H -0.994356 2.988377 -2.982180 0
M  V30 34 H -0.578171 -1.448599 2.415700 0
M  V30 35 H -2.796601 -1.562056 3.232914 0
M  V30 36 H -4.465292 -0.269036 2.130512 0
M  V30 37 H -4.010795 1.138142 0.244824 0
M  V30 END ATOM
M  V30 BEGIN BOND
M  V30 1 1 1 2
M  V30 2 1 2 3
M  V30 3 1 3 4
M  V30 4 2 4 5
M  V30 5 1 4 6
M  V30 6 2 6 7
M  V30 7 1 7 8
M  V30 8 1 7 9
M  V30 9 2 9 10
M  V30 10 1 10 11
M  V30 11 2 11 12
M  V30 12 1 12 13
M  V30 13 2 13 14
M  V30 14 1 14 15
M  V30 15 2 15 16
M  V30 16 1 16 17
M  V30 17 2 17 18
M  V30 18 1 18 19
M  V30 19 2 19 20
M  V30 20 1 20 21
M  V30 21 2 21 22
M  V30 22 1 22 23
M  V30 23 2 23 24
M  V30 24 1 16 6
M  V30 25 1 22 17
M  V30 26 1 15 10
M  V30 27 1 23 14
M  V30 28 1 1 25
M  V30 29 1 1 26
M  V30 30 1 1 27
M  V30 31 1 2 28
M  V30 32 1 2 29
M  V30 33 1 8 30
M  V30 34 1 11 31
M  V30 35 1 12 32
M  V30 36 1 13 33
M  V30 37 1 18 34
M  V30 38 1 19 35
M  V30 39 1 20 36
M  V30 40 1 21 37
M  V30 END BOND
M  V30 END CTAB
M  END
>  <Dataset>  (553) 
ChEMBL_Kinases

>  <Ligand_Instance>  (553) 
nan

>  <PDB_ID>  (553) 
nan

>  <Standardized_SMILES>  (553) 
CCOC(=O)c1c(O)nc2cccc3c2c1-c1ccccc1C3=O

>  <Name>  (553) 
nan

>  <Pocket>  (553) 
nan

>  <ATP_Site>  (553) 
nan

>  <Peripheral>  (553) 
nan

>  <Num_H_Atoms_ProtBoundConf>  (553) 
nan

>  <Num_Resolved_Atoms>  (553) 
nan

>  <Num_Not_Resolved_Atoms>  (553) 
nan

$$$$
CHEMBL1345747
     RDKit          3D

  0  0  0  0  0  0  0  0  0  0999 V3000
M  V30 BEGIN CTAB
M  V30 COUNTS 54 57 0 0 0
M  V30 BEGIN ATOM
M  V30 1 C -0.112665 -3.847795 5.129840 0
M  V30 2 C 0.801388 -4.706306 4.298757 0
M  V30 3 O 0.719492 -4.365652 2.942775 0
M  V30 4 C 1.050378 -3.111491 2.484009 0
M  V30 5 C 1.500540 -2.056505 3.247513 0
M  V30 6 C 1.826795 -0.804494 2.771233 0
M  V30 7 C 1.696584 -0.564785 1.396740 0
M  V30 8 C 2.040513 0.755182 0.890627 0
M  V30 9 C 0.932229 1.762551 0.850675 0
M  V30 10 N -0.181527 1.408224 0.044694 0
M  V30 11 C -0.377843 1.669797 -1.267339 0
M  V30 12 C 0.703682 2.408577 -1.912017 0
M  V30 13 C 1.893446 2.191653 -2.579613 0
M  V30 14 C 2.412100 3.422748 -2.924189 0
M  V30 15 C 1.510341 4.350768 -2.449046 0
M  V30 16 O 0.521160 3.727009 -1.861516 0
M  V30 17 N -1.497081 1.270685 -1.919999 0
M  V30 18 C -2.471601 0.590345 -1.286176 0
M  V30 19 C -3.618270 0.171564 -1.919122 0
M  V30 20 C -4.602219 -0.529914 -1.226624 0
M  V30 21 C -4.457832 -0.826023 0.112957 0
M  V30 22 C -3.300492 -0.397543 0.730852 0
M  V30 23 C -2.317207 0.299292 0.053880 0
M  V30 24 C -1.163913 0.718882 0.696281 0
M  V30 25 O -1.086554 0.420352 1.919172 0
M  V30 26 C 1.248439 -1.605650 0.614348 0
M  V30 27 C 0.923202 -2.862291 1.109221 0
M  V30 28 O 0.481839 -3.875146 0.318277 0
M  V30 29 C 0.292039 -3.785415 -1.074265 0
M  V30 30 C -0.737782 -2.724512 -1.350868 0
M  V30 31 H -0.977036 -4.471412 5.514899 0
M  V30 32 H -0.573350 -3.082850 4.507149 0
M  V30 33 H 0.394207 -3.358003 5.977776 0
M  V30 34 H 1.842047 -4.500949 4.666273 0
M  V30 35 H 0.575258 -5.795958 4.448648 0
M  V30 36 H 1.622529 -2.196106 4.308977 0
M  V30 37 H 2.173504 -0.017151 3.414430 0
M  V30 38 H 2.306584 0.592498 -0.195867 0
M  V30 39 H 2.973702 1.181875 1.310574 0
M  V30 40 H 0.633844 2.004160 1.870894 0
M  V30 41 H 1.411197 2.687872 0.418907 0
M  V30 42 H 2.151563 1.140965 -2.683905 0
M  V30 43 H 3.352705 3.442529 -3.459711 0
M  V30 44 H 1.694140 5.403212 -2.596057 0
M  V30 45 H -3.772441 0.385277 -2.979460 0
M  V30 46 H -5.511630 -0.871629 -1.693941 0
M  V30 47 H -5.183829 -1.367159 0.709001 0
M  V30 48 H -3.162332 -0.621869 1.799572 0
M  V30 49 H 1.174720 -1.363874 -0.419173 0
M  V30 50 H -0.052497 -4.770090 -1.488636 0
M  V30 51 H 1.261903 -3.565064 -1.596390 0
M  V30 52 H -1.647931 -3.237466 -1.762163 0
M  V30 53 H -1.032186 -2.259984 -0.398930 0
M  V30 54 H -0.392893 -1.986387 -2.105247 0
M  V30 END ATOM
M  V30 BEGIN BOND
M  V30 1 1 1 2
M  V30 2 1 2 3
M  V30 3 1 3 4
M  V30 4 2 4 5
M  V30 5 1 5 6
M  V30 6 2 6 7
M  V30 7 1 7 8
M  V30 8 1 8 9
M  V30 9 1 9 10
M  V30 10 1 10 11
M  V30 11 1 11 12
M  V30 12 2 12 13
M  V30 13 1 13 14
M  V30 14 2 14 15
M  V30 15 1 15 16
M  V30 16 2 11 17
M  V30 17 1 17 18
M  V30 18 2 18 19
M  V30 19 1 19 20
M  V30 20 2 20 21
M  V30 21 1 21 22
M  V30 22 2 22 23
M  V30 23 1 23 24
M  V30 24 2 24 25
M  V30 25 1 7 26
M  V30 26 2 26 27
M  V30 27 1 27 28
M  V30 28 1 28 29
M  V30 29 1 29 30
M  V30 30 1 27 4
M  V30 31 1 24 10
M  V30 32 1 16 12
M  V30 33 1 23 18
M  V30 34 1 1 31
M  V30 35 1 1 32
M  V30 36 1 1 33
M  V30 37 1 2 34
M  V30 38 1 2 35
M  V30 39 1 5 36
M  V30 40 1 6 37
M  V30 41 1 8 38
M  V30 42 1 8 39
M  V30 43 1 9 40
M  V30 44 1 9 41
M  V30 45 1 13 42
M  V30 46 1 14 43
M  V30 47 1 15 44
M  V30 48 1 19 45
M  V30 49 1 20 46
M  V30 50 1 21 47
M  V30 51 1 22 48
M  V30 52 1 26 49
M  V30 53 1 29 50
M  V30 54 1 29 51
M  V30 55 1 30 52
M  V30 56 1 30 53
M  V30 57 1 30 54
M  V30 END BOND
M  V30 END CTAB
M  END
>  <Dataset>  (554) 
ChEMBL_Kinases

>  <Ligand_Instance>  (554) 
nan

>  <PDB_ID>  (554) 
nan

>  <Standardized_SMILES>  (554) 
CCOc1ccc(CCn2c(-c3ccco3)nc3ccccc3c2=O)cc1OCC

>  <Name>  (554) 
nan

>  <Pocket>  (554) 
nan

>  <ATP_Site>  (554) 
nan

>  <Peripheral>  (554) 
nan

>  <Num_H_Atoms_ProtBoundConf>  (554) 
nan

>  <Num_Resolved_Atoms>  (554) 
nan

>  <Num_Not_Resolved_Atoms>  (554) 
nan

$$$$
CHEMBL1345044
     RDKit          3D

  0  0  0  0  0  0  0  0  0  0999 V3000
M  V30 BEGIN CTAB
M  V30 COUNTS 53 55 0 0 0
M  V30 BEGIN ATOM
M  V30 1 O 0.047124 -4.697068 2.910911 0
M  V30 2 C -0.939016 -3.917917 2.883319 0
M  V30 3 O -0.536220 -2.867424 2.070395 0
M  V30 4 C 0.748448 -2.884028 1.504385 0
M  V30 5 C 1.146413 -1.795534 0.671903 0
M  V30 6 O 2.335274 -2.081141 0.294211 0
M  V30 7 N 1.231834 -0.581999 -0.091217 0
M  V30 8 C 2.383866 -0.186873 -0.861466 0
M  V30 9 C 1.996489 -0.224607 -2.314460 0
M  V30 10 C 1.983830 1.042338 -3.063283 0
M  V30 11 C 2.670170 2.218267 -2.472730 0
M  V30 12 C 3.813269 1.654633 -1.616447 0
M  V30 13 C 3.070275 1.060140 -0.419179 0
M  V30 14 C -0.052904 -0.118458 0.227483 0
M  V30 15 C 0.021754 1.019802 1.208732 0
M  V30 16 C -1.389147 1.150456 1.808348 0
M  V30 17 C -2.170408 1.751218 0.657900 0
M  V30 18 C -2.364915 0.676314 -0.376903 0
M  V30 19 C -1.076448 0.035863 -0.835787 0
M  V30 20 C -2.251787 -3.982655 3.510032 0
M  V30 21 C -2.537936 -5.077573 4.298026 0
M  V30 22 C -3.820362 -5.049630 4.853311 0
M  V30 23 N -4.667462 -4.039644 4.622211 0
M  V30 24 C -4.359214 -2.996517 3.855682 0
M  V30 25 C -3.101971 -2.942693 3.262253 0
M  V30 26 H 0.814374 -3.859944 0.945006 0
M  V30 27 H 1.485123 -3.001461 2.354218 0
M  V30 28 H 3.208119 -0.934101 -0.795378 0
M  V30 29 H 1.015470 -0.763570 -2.486721 0
M  V30 30 H 2.686733 -0.906478 -2.898156 0
M  V30 31 H 0.911726 1.359773 -3.250598 0
M  V30 32 H 2.375242 0.924573 -4.120713 0
M  V30 33 H 3.074711 2.860818 -3.256761 0
M  V30 34 H 2.019748 2.813227 -1.794245 0
M  V30 35 H 4.457078 2.468704 -1.248771 0
M  V30 36 H 4.322299 0.858481 -2.155855 0
M  V30 37 H 2.488817 1.870107 -0.019557 0
M  V30 38 H 3.858704 0.841734 0.328347 0
M  V30 39 H -0.510674 -0.910298 0.902836 0
M  V30 40 H 0.285592 1.990691 0.822105 0
M  V30 41 H 0.693309 0.764519 2.046702 0
M  V30 42 H -1.752031 0.148902 2.114324 0
M  V30 43 H -1.373292 1.838454 2.675164 0
M  V30 44 H -1.611629 2.614573 0.293969 0
M  V30 45 H -3.173792 2.044797 1.008994 0
M  V30 46 H -2.899007 1.161573 -1.222336 0
M  V30 47 H -3.091314 -0.045398 0.055110 0
M  V30 48 H -0.771869 0.613078 -1.732195 0
M  V30 49 H -1.381256 -0.943529 -1.266713 0
M  V30 50 H -1.803005 -5.839740 4.430005 0
M  V30 51 H -4.092825 -5.895864 5.484899 0
M  V30 52 H -5.017726 -2.143397 3.635306 0
M  V30 53 H -2.813515 -2.109475 2.630991 0
M  V30 END ATOM
M  V30 BEGIN BOND
M  V30 1 2 1 2
M  V30 2 1 2 3
M  V30 3 1 3 4
M  V30 4 1 4 5
M  V30 5 2 5 6
M  V30 6 1 5 7
M  V30 7 1 7 8
M  V30 8 1 8 9
M  V30 9 1 9 10
M  V30 10 1 10 11
M  V30 11 1 11 12
M  V30 12 1 12 13
M  V30 13 1 7 14
M  V30 14 1 14 15
M  V30 15 1 15 16
M  V30 16 1 16 17
M  V30 17 1 17 18
M  V30 18 1 18 19
M  V30 19 1 2 20
M  V30 20 2 20 21
M  V30 21 1 21 22
M  V30 22 2 22 23
M  V30 23 1 23 24
M  V30 24 2 24 25
M  V30 25 1 13 8
M  V30 26 1 19 14
M  V30 27 1 25 20
M  V30 28 1 4 26
M  V30 29 1 4 27
M  V30 30 1 8 28
M  V30 31 1 9 29
M  V30 32 1 9 30
M  V30 33 1 10 31
M  V30 34 1 10 32
M  V30 35 1 11 33
M  V30 36 1 11 34
M  V30 37 1 12 35
M  V30 38 1 12 36
M  V30 39 1 13 37
M  V30 40 1 13 38
M  V30 41 1 14 39
M  V30 42 1 15 40
M  V30 43 1 15 41
M  V30 44 1 16 42
M  V30 45 1 16 43
M  V30 46 1 17 44
M  V30 47 1 17 45
M  V30 48 1 18 46
M  V30 49 1 18 47
M  V30 50 1 19 48
M  V30 51 1 19 49
M  V30 52 1 21 50
M  V30 53 1 22 51
M  V30 54 1 24 52
M  V30 55 1 25 53
M  V30 END BOND
M  V30 END CTAB
M  END
>  <Dataset>  (555) 
ChEMBL_Kinases

>  <Ligand_Instance>  (555) 
nan

>  <PDB_ID>  (555) 
nan

>  <Standardized_SMILES>  (555) 
O=C(OCC(=O)N(C1CCCCC1)C1CCCCC1)c1ccncc1

>  <Name>  (555) 
nan

>  <Pocket>  (555) 
nan

>  <ATP_Site>  (555) 
nan

>  <Peripheral>  (555) 
nan

>  <Num_H_Atoms_ProtBoundConf>  (555) 
nan

>  <Num_Resolved_Atoms>  (555) 
nan

>  <Num_Not_Resolved_Atoms>  (555) 
nan

$$$$
CHEMBL1349875
     RDKit          3D

  0  0  0  0  0  0  0  0  0  0999 V3000
M  V30 BEGIN CTAB
M  V30 COUNTS 37 39 0 0 0
M  V30 BEGIN ATOM
M  V30 1 C -1.256236 -3.845721 3.420411 0
M  V30 2 O -0.096237 -4.399123 2.819292 0
M  V30 3 C 0.909057 -3.631975 2.256416 0
M  V30 4 C 1.972781 -4.313685 1.711055 0
M  V30 5 C 3.005391 -3.586342 1.134935 0
M  V30 6 C 2.929526 -2.209121 1.129153 0
M  V30 7 C 1.875716 -1.509248 1.668603 0
M  V30 8 C 1.792115 -0.054865 1.664393 0
M  V30 9 N 0.859663 0.673326 2.138029 0
M  V30 10 O 1.123222 2.009641 1.952333 0
M  V30 11 C 1.943386 2.063185 0.782981 0
M  V30 12 C 1.186067 1.825620 -0.456044 0
M  V30 13 O 1.811509 1.850097 -1.548798 0
M  V30 14 N -0.201390 1.582306 -0.361044 0
M  V30 15 C -1.342141 1.312514 -1.142236 0
M  V30 16 C -2.191516 2.269588 -1.676449 0
M  V30 17 C -3.270734 1.855594 -2.422015 0
M  V30 18 C -3.490947 0.506845 -2.625953 0
M  V30 19 N -2.685574 -0.446159 -2.121278 0
M  V30 20 C -1.626872 -0.021659 -1.389132 0
M  V30 21 C 2.831362 0.851762 1.078782 0
M  V30 22 C 0.863894 -2.257053 2.234306 0
M  V30 23 H -1.682218 -3.126837 2.680501 0
M  V30 24 H -0.984071 -3.350959 4.360326 0
M  V30 25 H -1.985700 -4.679953 3.568257 0
M  V30 26 H 2.125180 -5.374250 1.665300 0
M  V30 27 H 3.869547 -4.034293 0.688322 0
M  V30 28 H 3.725012 -1.599173 0.683658 0
M  V30 29 H 2.585783 2.964090 0.749173 0
M  V30 30 H -0.695928 1.568814 0.575147 0
M  V30 31 H -1.912392 3.306865 -1.445515 0
M  V30 32 H -3.908217 2.619575 -2.821090 0
M  V30 33 H -4.366715 0.246164 -3.227883 0
M  V30 34 H -0.999672 -0.801669 -0.997645 0
M  V30 35 H 3.301078 0.437330 0.184344 0
M  V30 36 H 3.572143 1.101633 1.859541 0
M  V30 37 H 0.011772 -1.759290 2.672797 0
M  V30 END ATOM
M  V30 BEGIN BOND
M  V30 1 1 1 2
M  V30 2 1 2 3
M  V30 3 2 3 4
M  V30 4 1 4 5
M  V30 5 2 5 6
M  V30 6 1 6 7
M  V30 7 1 7 8
M  V30 8 2 8 9
M  V30 9 1 9 10
M  V30 10 1 10 11
M  V30 11 1 11 12
M  V30 12 2 12 13
M  V30 13 1 12 14
M  V30 14 1 14 15
M  V30 15 2 15 16
M  V30 16 1 16 17
M  V30 17 2 17 18
M  V30 18 1 18 19
M  V30 19 2 19 20
M  V30 20 1 11 21
M  V30 21 2 7 22
M  V30 22 1 22 3
M  V30 23 1 21 8
M  V30 24 1 20 15
M  V30 25 1 1 23
M  V30 26 1 1 24
M  V30 27 1 1 25
M  V30 28 1 4 26
M  V30 29 1 5 27
M  V30 30 1 6 28
M  V30 31 1 11 29
M  V30 32 1 14 30
M  V30 33 1 16 31
M  V30 34 1 17 32
M  V30 35 1 18 33
M  V30 36 1 20 34
M  V30 37 1 21 35
M  V30 38 1 21 36
M  V30 39 1 22 37
M  V30 END BOND
M  V30 END CTAB
M  END
>  <Dataset>  (556) 
ChEMBL_Kinases

>  <Ligand_Instance>  (556) 
nan

>  <PDB_ID>  (556) 
nan

>  <Standardized_SMILES>  (556) 
COc1cccc(C2=NOC(C(=O)Nc3cccnc3)C2)c1

>  <Name>  (556) 
nan

>  <Pocket>  (556) 
nan

>  <ATP_Site>  (556) 
nan

>  <Peripheral>  (556) 
nan

>  <Num_H_Atoms_ProtBoundConf>  (556) 
nan

>  <Num_Resolved_Atoms>  (556) 
nan

>  <Num_Not_Resolved_Atoms>  (556) 
nan

$$$$
CHEMBL1349741
     RDKit          3D

  0  0  0  0  0  0  0  0  0  0999 V3000
M  V30 BEGIN CTAB
M  V30 COUNTS 56 60 0 0 0
M  V30 BEGIN ATOM
M  V30 1 O 4.515441 2.211585 1.537487 0
M  V30 2 C 4.220238 1.301902 0.719172 0
M  V30 3 C 4.896108 0.036666 0.681964 0
M  V30 4 C 6.015819 -0.238342 1.438922 0
M  V30 5 C 6.324389 -1.553076 1.090815 0
M  V30 6 C 5.394101 -1.964010 0.174724 0
M  V30 7 O 4.566535 -0.988789 -0.038404 0
M  V30 8 N 3.153736 1.760237 -0.101662 0
M  V30 9 C 2.701730 3.078085 0.196805 0
M  V30 10 C 1.323114 3.387671 -0.375918 0
M  V30 11 N 0.555554 2.165834 -0.276017 0
M  V30 12 C -0.488719 2.184209 0.703923 0
M  V30 13 O -0.349585 3.345420 1.179985 0
M  V30 14 C -1.548040 1.223528 1.190759 0
M  V30 15 C -2.487254 0.960242 0.095967 0
M  V30 16 C -2.407949 -0.404029 -0.489179 0
M  V30 17 N -2.148952 -1.394082 0.473652 0
M  V30 18 S -2.085047 -2.998461 -0.151010 0
M  V30 19 O -0.820996 -3.708701 0.163243 0
M  V30 20 O -2.205373 -2.932472 -1.660550 0
M  V30 21 C -3.471624 -3.851712 0.510543 0
M  V30 22 C -4.364257 -3.231225 1.350229 0
M  V30 23 C -5.420701 -3.956957 1.828988 0
M  V30 24 C -5.556474 -5.268095 1.460176 0
M  V30 25 C -4.635251 -5.818824 0.625272 0
M  V30 26 N -4.880283 -7.230482 0.295660 0
M  V30 27 S -3.466806 -7.498103 -0.781795 0
M  V30 28 N -2.762311 -5.942465 -0.721797 0
M  V30 29 C -3.595242 -5.137693 0.142809 0
M  V30 30 C -0.982354 -1.218340 1.291828 0
M  V30 31 C -0.965688 0.115368 1.968645 0
M  V30 32 C 1.017475 1.146555 -1.207231 0
M  V30 33 C 2.508338 1.067747 -1.161715 0
M  V30 34 H 6.561514 0.387158 2.149697 0
M  V30 35 H 7.154269 -2.155681 1.471386 0
M  V30 36 H 5.292967 -2.923162 -0.335548 0
M  V30 37 H 3.421996 3.886115 -0.082395 0
M  V30 38 H 2.568917 3.167708 1.297243 0
M  V30 39 H 1.512984 3.598880 -1.472989 0
M  V30 40 H 0.873299 4.257543 0.117163 0
M  V30 41 H -2.124180 1.896457 1.932514 0
M  V30 42 H -2.341915 1.755386 -0.699842 0
M  V30 43 H -3.540153 1.059299 0.494843 0
M  V30 44 H -3.429363 -0.663382 -0.935404 0
M  V30 45 H -1.673271 -0.417798 -1.353906 0
M  V30 46 H -4.175957 -2.189073 1.590022 0
M  V30 47 H -6.062551 -3.374103 2.482550 0
M  V30 48 H -6.422443 -5.715883 1.906222 0
M  V30 49 H -0.988862 -2.007277 2.069058 0
M  V30 50 H -0.089320 -1.413827 0.668599 0
M  V30 51 H 0.091558 0.333799 2.216553 0
M  V30 52 H -1.479947 0.036654 2.952392 0
M  V30 53 H 0.528016 0.170638 -1.016774 0
M  V30 54 H 0.704856 1.517061 -2.215490 0
M  V30 55 H 2.747976 -0.039144 -1.123088 0
M  V30 56 H 2.943444 1.377579 -2.146251 0
M  V30 END ATOM
M  V30 BEGIN BOND
M  V30 1 2 1 2
M  V30 2 1 2 3
M  V30 3 2 3 4
M  V30 4 1 4 5
M  V30 5 2 5 6
M  V30 6 1 6 7
M  V30 7 1 2 8
M  V30 8 1 8 9
M  V30 9 1 9 10
M  V30 10 1 10 11
M  V30 11 1 11 12
M  V30 12 2 12 13
M  V30 13 1 12 14
M  V30 14 1 14 15
M  V30 15 1 15 16
M  V30 16 1 16 17
M  V30 17 1 17 18
M  V30 18 2 18 19
M  V30 19 2 18 20
M  V30 20 1 18 21
M  V30 21 2 21 22
M  V30 22 1 22 23
M  V30 23 2 23 24
M  V30 24 1 24 25
M  V30 25 2 25 26
M  V30 26 1 26 27
M  V30 27 1 27 28
M  V30 28 2 28 29
M  V30 29 1 17 30
M  V30 30 1 30 31
M  V30 31 1 11 32
M  V30 32 1 32 33
M  V30 33 1 7 3
M  V30 34 1 33 8
M  V30 35 1 31 14
M  V30 36 1 29 21
M  V30 37 1 29 25
M  V30 38 1 4 34
M  V30 39 1 5 35
M  V30 40 1 6 36
M  V30 41 1 9 37
M  V30 42 1 9 38
M  V30 43 1 10 39
M  V30 44 1 10 40
M  V30 45 1 14 41
M  V30 46 1 15 42
M  V30 47 1 15 43
M  V30 48 1 16 44
M  V30 49 1 16 45
M  V30 50 1 22 46
M  V30 51 1 23 47
M  V30 52 1 24 48
M  V30 53 1 30 49
M  V30 54 1 30 50
M  V30 55 1 31 51
M  V30 56 1 31 52
M  V30 57 1 32 53
M  V30 58 1 32 54
M  V30 59 1 33 55
M  V30 60 1 33 56
M  V30 END BOND
M  V30 END CTAB
M  END
>  <Dataset>  (557) 
ChEMBL_Kinases

>  <Ligand_Instance>  (557) 
nan

>  <PDB_ID>  (557) 
nan

>  <Standardized_SMILES>  (557) 
O=C(c1ccco1)N1CCN(C(=O)C2CCN(S(=O)(=O)c3cccc4nsnc34)CC2)CC1

>  <Name>  (557) 
nan

>  <Pocket>  (557) 
nan

>  <ATP_Site>  (557) 
nan

>  <Peripheral>  (557) 
nan

>  <Num_H_Atoms_ProtBoundConf>  (557) 
nan

>  <Num_Resolved_Atoms>  (557) 
nan

>  <Num_Not_Resolved_Atoms>  (557) 
nan

$$$$
CHEMBL1349724
     RDKit          3D

  0  0  0  0  0  0  0  0  0  0999 V3000
M  V30 BEGIN CTAB
M  V30 COUNTS 36 38 0 0 0
M  V30 BEGIN ATOM
M  V30 1 O 2.705245 -2.543856 3.388584 0
M  V30 2 C 2.243331 -1.399117 3.144905 0
M  V30 3 C 0.801276 -1.070883 2.867840 0
M  V30 4 N 0.806633 -0.041776 1.844141 0
M  V30 5 C -0.221587 -0.170404 0.860867 0
M  V30 6 C -0.004150 -1.380583 -0.008513 0
M  V30 7 O 0.983579 -2.124098 0.169415 0
M  V30 8 N -0.948382 -1.654447 -1.034055 0
M  V30 9 C -0.795773 -2.801367 -1.910160 0
M  V30 10 C -2.089948 -3.566950 -1.879753 0
M  V30 11 O -3.076599 -3.010835 -1.105568 0
M  V30 12 C -3.319974 -1.661144 -1.322526 0
M  V30 13 C -2.104177 -0.789311 -1.234831 0
M  V30 14 C 1.770013 0.993937 1.845604 0
M  V30 15 C 1.505907 2.162236 1.194803 0
M  V30 16 C 2.375361 3.233172 1.133330 0
M  V30 17 C 3.586988 3.042693 1.802014 0
M  V30 18 C 3.897397 1.866468 2.479127 0
M  V30 19 C 2.964619 0.829689 2.494454 0
M  V30 20 O 3.188970 -0.373970 3.141655 0
M  V30 21 H 0.371004 -0.663560 3.806055 0
M  V30 22 H 0.248089 -1.981994 2.560700 0
M  V30 23 H -0.417084 0.705989 0.243663 0
M  V30 24 H -1.175015 -0.413523 1.426551 0
M  V30 25 H -0.629071 -2.436931 -2.962225 0
M  V30 26 H 0.063234 -3.412119 -1.571932 0
M  V30 27 H -1.861386 -4.563007 -1.410051 0
M  V30 28 H -2.433155 -3.811913 -2.908628 0
M  V30 29 H -3.942751 -1.483265 -2.226524 0
M  V30 30 H -3.998271 -1.353670 -0.472658 0
M  V30 31 H -1.951325 -0.271990 -2.194513 0
M  V30 32 H -2.182942 -0.025152 -0.435812 0
M  V30 33 H 0.572442 2.322212 0.677540 0
M  V30 34 H 2.138894 4.139944 0.612434 0
M  V30 35 H 4.312239 3.858118 1.786723 0
M  V30 36 H 4.830035 1.724535 2.992324 0
M  V30 END ATOM
M  V30 BEGIN BOND
M  V30 1 2 1 2
M  V30 2 1 2 3
M  V30 3 1 3 4
M  V30 4 1 4 5
M  V30 5 1 5 6
M  V30 6 2 6 7
M  V30 7 1 6 8
M  V30 8 1 8 9
M  V30 9 1 9 10
M  V30 10 1 10 11
M  V30 11 1 11 12
M  V30 12 1 12 13
M  V30 13 1 4 14
M  V30 14 2 14 15
M  V30 15 1 15 16
M  V30 16 2 16 17
M  V30 17 1 17 18
M  V30 18 2 18 19
M  V30 19 1 19 20
M  V30 20 1 20 2
M  V30 21 1 13 8
M  V30 22 1 19 14
M  V30 23 1 3 21
M  V30 24 1 3 22
M  V30 25 1 5 23
M  V30 26 1 5 24
M  V30 27 1 9 25
M  V30 28 1 9 26
M  V30 29 1 10 27
M  V30 30 1 10 28
M  V30 31 1 12 29
M  V30 32 1 12 30
M  V30 33 1 13 31
M  V30 34 1 13 32
M  V30 35 1 15 33
M  V30 36 1 16 34
M  V30 37 1 17 35
M  V30 38 1 18 36
M  V30 END BOND
M  V30 END CTAB
M  END
>  <Dataset>  (558) 
ChEMBL_Kinases

>  <Ligand_Instance>  (558) 
nan

>  <PDB_ID>  (558) 
nan

>  <Standardized_SMILES>  (558) 
O=C1CN(CC(=O)N2CCOCC2)c2ccccc2O1

>  <Name>  (558) 
nan

>  <Pocket>  (558) 
nan

>  <ATP_Site>  (558) 
nan

>  <Peripheral>  (558) 
nan

>  <Num_H_Atoms_ProtBoundConf>  (558) 
nan

>  <Num_Resolved_Atoms>  (558) 
nan

>  <Num_Not_Resolved_Atoms>  (558) 
nan

$$$$
CHEMBL1349721
     RDKit          3D

  0  0  0  0  0  0  0  0  0  0999 V3000
M  V30 BEGIN CTAB
M  V30 COUNTS 53 57 0 0 0
M  V30 BEGIN ATOM
M  V30 1 C -3.173653 -0.353466 3.979295 0
M  V30 2 C -2.475069 -0.363221 2.664583 0
M  V30 3 N -1.583939 0.501288 2.150382 0
M  V30 4 N -1.203454 0.122454 0.939012 0
M  V30 5 C -0.256469 0.935717 0.252766 0
M  V30 6 N -0.437107 1.299690 -1.026989 0
M  V30 7 C 0.573236 2.064718 -1.480217 0
M  V30 8 C 0.847484 2.672366 -2.690211 0
M  V30 9 C 2.028068 3.413727 -2.805199 0
M  V30 10 C 2.853599 3.497422 -1.704288 0
M  V30 11 C 2.601255 2.899852 -0.486435 0
M  V30 12 C 1.432935 2.172072 -0.388625 0
M  V30 13 N 0.910330 1.482334 0.644817 0
M  V30 14 C 1.436262 1.295289 1.999355 0
M  V30 15 C 2.296108 0.086829 2.049445 0
M  V30 16 C 3.653662 0.150659 1.800754 0
M  V30 17 C 4.488398 -0.952778 1.837793 0
M  V30 18 C 3.914094 -2.191371 2.144410 0
M  V30 19 C 2.567388 -2.320671 2.402082 0
M  V30 20 C 1.811208 -1.168835 2.343220 0
M  V30 21 C -1.827555 -1.011277 0.598612 0
M  V30 22 C -2.635419 -1.336237 1.673122 0
M  V30 23 C -3.436724 -2.553047 1.552772 0
M  V30 24 O -3.911052 -3.017340 2.637148 0
M  V30 25 C -3.651055 -3.168383 0.212036 0
M  V30 26 C -2.334989 -3.172057 -0.502581 0
M  V30 27 C -2.474439 -3.731858 -1.904893 0
M  V30 28 C -1.389720 -4.119508 0.229166 0
M  V30 29 C -1.722260 -1.797398 -0.640038 0
M  V30 30 H -2.548439 0.145450 4.721984 0
M  V30 31 H -4.145260 0.195788 3.898398 0
M  V30 32 H -3.398506 -1.377896 4.304438 0
M  V30 33 H 0.106761 2.518009 -3.462648 0
M  V30 34 H 2.206023 3.867021 -3.750680 0
M  V30 35 H 3.757949 4.079191 -1.830049 0
M  V30 36 H 3.277036 2.992985 0.347865 0
M  V30 37 H 2.088344 2.185401 2.193528 0
M  V30 38 H 0.633363 1.271753 2.754057 0
M  V30 39 H 4.121158 1.097958 1.561289 0
M  V30 40 H 5.536929 -0.845408 1.636049 0
M  V30 41 H 4.568865 -3.066335 2.175032 0
M  V30 42 H 2.135283 -3.286402 2.638402 0
M  V30 43 H 0.750278 -1.296937 2.550574 0
M  V30 44 H -3.940857 -4.227843 0.352832 0
M  V30 45 H -4.429641 -2.647238 -0.383345 0
M  V30 46 H -2.920249 -2.943601 -2.551738 0
M  V30 47 H -1.486837 -3.968298 -2.338181 0
M  V30 48 H -3.137469 -4.618660 -1.860744 0
M  V30 49 H -1.737771 -5.156886 -0.011952 0
M  V30 50 H -1.429851 -3.992421 1.315902 0
M  V30 51 H -0.368874 -4.046551 -0.204685 0
M  V30 52 H -0.689590 -1.954044 -0.999476 0
M  V30 53 H -2.263704 -1.275987 -1.470542 0
M  V30 END ATOM
M  V30 BEGIN BOND
M  V30 1 1 1 2
M  V30 2 2 2 3
M  V30 3 1 3 4
M  V30 4 1 4 5
M  V30 5 2 5 6
M  V30 6 1 6 7
M  V30 7 2 7 8
M  V30 8 1 8 9
M  V30 9 2 9 10
M  V30 10 1 10 11
M  V30 11 2 11 12
M  V30 12 1 12 13
M  V30 13 1 13 14
M  V30 14 1 14 15
M  V30 15 2 15 16
M  V30 16 1 16 17
M  V30 17 2 17 18
M  V30 18 1 18 19
M  V30 19 2 19 20
M  V30 20 1 4 21
M  V30 21 2 21 22
M  V30 22 1 22 23
M  V30 23 2 23 24
M  V30 24 1 23 25
M  V30 25 1 25 26
M  V30 26 1 26 27
M  V30 27 1 26 28
M  V30 28 1 26 29
M  V30 29 1 22 2
M  V30 30 1 13 5
M  V30 31 1 20 15
M  V30 32 1 29 21
M  V30 33 1 12 7
M  V30 34 1 1 30
M  V30 35 1 1 31
M  V30 36 1 1 32
M  V30 37 1 8 33
M  V30 38 1 9 34
M  V30 39 1 10 35
M  V30 40 1 11 36
M  V30 41 1 14 37
M  V30 42 1 14 38
M  V30 43 1 16 39
M  V30 44 1 17 40
M  V30 45 1 18 41
M  V30 46 1 19 42
M  V30 47 1 20 43
M  V30 48 1 25 44
M  V30 49 1 25 45
M  V30 50 1 27 46
M  V30 51 1 27 47
M  V30 52 1 27 48
M  V30 53 1 28 49
M  V30 54 1 28 50
M  V30 55 1 28 51
M  V30 56 1 29 52
M  V30 57 1 29 53
M  V30 END BOND
M  V30 END CTAB
M  END
>  <Dataset>  (559) 
ChEMBL_Kinases

>  <Ligand_Instance>  (559) 
nan

>  <PDB_ID>  (559) 
nan

>  <Standardized_SMILES>  (559) 
Cc1nn(-c2nc3ccccc3n2Cc2ccccc2)c2c1C(=O)CC(C)(C)C2

>  <Name>  (559) 
nan

>  <Pocket>  (559) 
nan

>  <ATP_Site>  (559) 
nan

>  <Peripheral>  (559) 
nan

>  <Num_H_Atoms_ProtBoundConf>  (559) 
nan

>  <Num_Resolved_Atoms>  (559) 
nan

>  <Num_Not_Resolved_Atoms>  (559) 
nan

$$$$
CHEMBL1349632
     RDKit          3D

  0  0  0  0  0  0  0  0  0  0999 V3000
M  V30 BEGIN CTAB
M  V30 COUNTS 33 34 0 0 0
M  V30 BEGIN ATOM
M  V30 1 O 0.588175 -1.255360 1.059277 0
M  V30 2 C 1.033639 -0.499702 1.988128 0
M  V30 3 C 1.979287 -1.499627 2.494439 0
M  V30 4 C 1.903907 -2.769730 1.695126 0
M  V30 5 C 1.279590 -3.914508 2.144518 0
M  V30 6 C 1.231597 -5.062458 1.380906 0
M  V30 7 C 1.836607 -5.044462 0.122565 0
M  V30 8 C 2.469188 -3.927097 -0.365395 0
M  V30 9 C 2.476064 -2.830553 0.446679 0
M  V30 10 F 3.091348 -1.715929 -0.006058 0
M  V30 11 N 0.620934 0.824922 2.266143 0
M  V30 12 C -0.393663 1.365781 1.423445 0
M  V30 13 C 0.142625 2.015959 0.313833 0
M  V30 14 C -0.690343 2.614002 -0.634109 0
M  V30 15 C -2.050583 2.525496 -0.412890 0
M  V30 16 S -3.218686 3.262611 -1.578281 0
M  V30 17 C -3.682360 2.066707 -2.867508 0
M  V30 18 F -4.569003 2.703306 -3.709100 0
M  V30 19 F -4.339921 0.972192 -2.343572 0
M  V30 20 C -2.603685 1.883063 0.684503 0
M  V30 21 C -1.765754 1.296883 1.612635 0
M  V30 22 H 3.016318 -1.091799 2.491148 0
M  V30 23 H 1.750186 -1.796934 3.554156 0
M  V30 24 H 0.824328 -3.886550 3.125172 0
M  V30 25 H 0.723530 -5.950349 1.779410 0
M  V30 26 H 1.795796 -5.964075 -0.482894 0
M  V30 27 H 2.934023 -3.944824 -1.357664 0
M  V30 28 H 1.220897 1.105421 3.099789 0
M  V30 29 H 1.198061 2.111374 0.099120 0
M  V30 30 H -0.304378 3.128917 -1.511547 0
M  V30 31 H -2.828020 1.734845 -3.475214 0
M  V30 32 H -3.657949 1.794647 0.887348 0
M  V30 33 H -2.070776 0.765760 2.510999 0
M  V30 END ATOM
M  V30 BEGIN BOND
M  V30 1 2 1 2
M  V30 2 1 2 3
M  V30 3 1 3 4
M  V30 4 2 4 5
M  V30 5 1 5 6
M  V30 6 2 6 7
M  V30 7 1 7 8
M  V30 8 2 8 9
M  V30 9 1 9 10
M  V30 10 1 2 11
M  V30 11 1 11 12
M  V30 12 2 12 13
M  V30 13 1 13 14
M  V30 14 2 14 15
M  V30 15 1 15 16
M  V30 16 1 16 17
M  V30 17 1 17 18
M  V30 18 1 17 19
M  V30 19 1 15 20
M  V30 20 2 20 21
M  V30 21 1 9 4
M  V30 22 1 21 12
M  V30 23 1 3 22
M  V30 24 1 3 23
M  V30 25 1 5 24
M  V30 26 1 6 25
M  V30 27 1 7 26
M  V30 28 1 8 27
M  V30 29 1 11 28
M  V30 30 1 13 29
M  V30 31 1 14 30
M  V30 32 1 17 31
M  V30 33 1 20 32
M  V30 34 1 21 33
M  V30 END BOND
M  V30 END CTAB
M  END
>  <Dataset>  (560) 
ChEMBL_Kinases

>  <Ligand_Instance>  (560) 
nan

>  <PDB_ID>  (560) 
nan

>  <Standardized_SMILES>  (560) 
O=C(Cc1ccccc1F)Nc1ccc(SC(F)F)cc1

>  <Name>  (560) 
nan

>  <Pocket>  (560) 
nan

>  <ATP_Site>  (560) 
nan

>  <Peripheral>  (560) 
nan

>  <Num_H_Atoms_ProtBoundConf>  (560) 
nan

>  <Num_Resolved_Atoms>  (560) 
nan

>  <Num_Not_Resolved_Atoms>  (560) 
nan

$$$$
CHEMBL1349575
     RDKit          3D

  0  0  0  0  0  0  0  0  0  0999 V3000
M  V30 BEGIN CTAB
M  V30 COUNTS 55 59 0 0 0
M  V30 BEGIN ATOM
M  V30 1 C 5.519398 -5.761337 2.465030 0
M  V30 2 C 4.547008 -4.684077 2.220952 0
M  V30 3 C 3.238318 -4.607781 2.608899 0
M  V30 4 C 2.416466 -3.551926 2.326791 0
M  V30 5 C 2.857812 -2.454717 1.610295 0
M  V30 6 N 1.990559 -1.478557 1.384674 0
M  V30 7 C 2.668140 -0.438851 0.620955 0
M  V30 8 N 1.977122 0.765309 0.219591 0
M  V30 9 C 1.269570 0.926699 -0.977430 0
M  V30 10 O 1.266289 -0.087361 -1.726678 0
M  V30 11 C 0.657920 2.297813 -1.109278 0
M  V30 12 C -0.297479 2.584505 -0.001912 0
M  V30 13 C -1.379564 3.505332 -0.464288 0
M  V30 14 N -2.099888 3.044088 -1.599864 0
M  V30 15 S -3.627988 2.362615 -1.253296 0
M  V30 16 O -4.566996 3.346472 -0.627486 0
M  V30 17 O -4.269985 1.964054 -2.573730 0
M  V30 18 C -3.467843 0.966258 -0.237374 0
M  V30 19 C -3.325003 -0.264813 -0.884824 0
M  V30 20 C -3.184729 -1.487564 -0.228176 0
M  V30 21 C -3.191448 -1.443315 1.161968 0
M  V30 22 C -3.331747 -0.234622 1.811983 0
M  V30 23 C -3.471205 0.981296 1.148095 0
M  V30 24 O -3.301817 -0.506398 3.103833 0
M  V30 25 C -3.151065 -1.814332 3.269213 0
M  V30 26 O -3.079810 -2.442547 4.371428 0
M  V30 27 N -3.077727 -2.438500 2.079573 0
M  V30 28 C -2.913519 -3.859096 1.838881 0
M  V30 29 C -1.364471 2.341368 -2.593843 0
M  V30 30 C 0.122289 2.488930 -2.488223 0
M  V30 31 S 4.357206 -0.931712 0.326124 0
M  V30 32 C 4.266265 -2.573973 1.212274 0
M  V30 33 C 5.049861 -3.625357 1.504512 0
M  V30 34 H 6.033230 -6.046551 1.525604 0
M  V30 35 H 6.265623 -5.415460 3.192249 0
M  V30 36 H 4.970575 -6.607624 2.941164 0
M  V30 37 H 2.955804 -5.510753 3.172560 0
M  V30 38 H 1.424084 -3.747446 2.753645 0
M  V30 39 H 2.149089 1.414499 1.015477 0
M  V30 40 H 1.538699 2.991829 -1.015597 0
M  V30 41 H -0.763018 1.640481 0.354903 0
M  V30 42 H 0.247776 3.091977 0.822312 0
M  V30 43 H -1.024433 4.564170 -0.564014 0
M  V30 44 H -2.114440 3.564125 0.392155 0
M  V30 45 H -3.315444 -0.342730 -1.970114 0
M  V30 46 H -3.078137 -2.402562 -0.764131 0
M  V30 47 H -3.580677 1.927082 1.628588 0
M  V30 48 H -2.208883 -4.263834 2.622233 0
M  V30 49 H -2.419833 -4.082498 0.882209 0
M  V30 50 H -3.870330 -4.404986 1.863965 0
M  V30 51 H -1.712678 1.299925 -2.662965 0
M  V30 52 H -1.646850 2.803245 -3.586091 0
M  V30 53 H 0.428530 3.440865 -2.962330 0
M  V30 54 H 0.560439 1.688840 -3.145535 0
M  V30 55 H 6.004018 -3.431432 1.092293 0
M  V30 END ATOM
M  V30 BEGIN BOND
M  V30 1 1 1 2
M  V30 2 2 2 3
M  V30 3 1 3 4
M  V30 4 2 4 5
M  V30 5 1 5 6
M  V30 6 2 6 7
M  V30 7 1 7 8
M  V30 8 1 8 9
M  V30 9 2 9 10
M  V30 10 1 9 11
M  V30 11 1 11 12
M  V30 12 1 12 13
M  V30 13 1 13 14
M  V30 14 1 14 15
M  V30 15 2 15 16
M  V30 16 2 15 17
M  V30 17 1 15 18
M  V30 18 2 18 19
M  V30 19 1 19 20
M  V30 20 2 20 21
M  V30 21 1 21 22
M  V30 22 2 22 23
M  V30 23 1 22 24
M  V30 24 1 24 25
M  V30 25 2 25 26
M  V30 26 1 25 27
M  V30 27 1 27 28
M  V30 28 1 14 29
M  V30 29 1 29 30
M  V30 30 1 7 31
M  V30 31 1 31 32
M  V30 32 2 32 33
M  V30 33 1 33 2
M  V30 34 1 32 5
M  V30 35 1 30 11
M  V30 36 1 23 18
M  V30 37 1 27 21
M  V30 38 1 1 34
M  V30 39 1 1 35
M  V30 40 1 1 36
M  V30 41 1 3 37
M  V30 42 1 4 38
M  V30 43 1 8 39
M  V30 44 1 11 40
M  V30 45 1 12 41
M  V30 46 1 12 42
M  V30 47 1 13 43
M  V30 48 1 13 44
M  V30 49 1 19 45
M  V30 50 1 20 46
M  V30 51 1 23 47
M  V30 52 1 28 48
M  V30 53 1 28 49
M  V30 54 1 28 50
M  V30 55 1 29 51
M  V30 56 1 29 52
M  V30 57 1 30 53
M  V30 58 1 30 54
M  V30 59 1 33 55
M  V30 END BOND
M  V30 END CTAB
M  END
>  <Dataset>  (561) 
ChEMBL_Kinases

>  <Ligand_Instance>  (561) 
nan

>  <PDB_ID>  (561) 
nan

>  <Standardized_SMILES>  (561) 
Cc1ccc2nc(NC(=O)C3CCN(S(=O)(=O)c4ccc5c(c4)oc(=O)n5C)CC3)sc2c1

>  <Name>  (561) 
nan

>  <Pocket>  (561) 
nan

>  <ATP_Site>  (561) 
nan

>  <Peripheral>  (561) 
nan

>  <Num_H_Atoms_ProtBoundConf>  (561) 
nan

>  <Num_Resolved_Atoms>  (561) 
nan

>  <Num_Not_Resolved_Atoms>  (561) 
nan

$$$$
CHEMBL1349532
     RDKit          3D

  0  0  0  0  0  0  0  0  0  0999 V3000
M  V30 BEGIN CTAB
M  V30 COUNTS 63 66 0 0 0
M  V30 BEGIN ATOM
M  V30 1 C 3.763899 -0.773818 5.352281 0
M  V30 2 C 3.165012 -1.254785 4.073775 0
M  V30 3 C 2.986208 -0.175557 3.060152 0
M  V30 4 C 3.972959 0.141841 2.140924 0
M  V30 5 C 3.800022 1.155103 1.191077 0
M  V30 6 C 2.591836 1.863688 1.176136 0
M  V30 7 C 2.372514 2.956864 0.172827 0
M  V30 8 N 1.788628 2.450966 -1.052920 0
M  V30 9 C 2.744086 2.026041 -2.078029 0
M  V30 10 C 0.390875 2.357310 -1.284466 0
M  V30 11 O -0.369948 2.747964 -0.342465 0
M  V30 12 C -0.093661 1.821199 -2.582580 0
M  V30 13 C -1.582613 1.786715 -2.607221 0
M  V30 14 C -2.202514 0.947762 -1.555606 0
M  V30 15 N -2.798761 1.431948 -0.440648 0
M  V30 16 C -3.356188 0.683329 0.508877 0
M  V30 17 C -3.949087 1.241850 1.624216 0
M  V30 18 C -4.499653 0.384388 2.553501 0
M  V30 19 C -4.480662 -0.986844 2.413093 0
M  V30 20 C -3.884628 -1.566957 1.290496 0
M  V30 21 C -3.335949 -0.688849 0.366278 0
M  V30 22 N -2.754630 -1.218191 -0.725123 0
M  V30 23 C -2.678795 -2.618501 -0.967057 0
M  V30 24 C -1.524594 -3.125972 -0.358388 0
M  V30 25 C -1.205177 -4.486015 -0.441531 0
M  V30 26 C -2.053461 -5.322741 -1.138381 0
M  V30 27 O -1.896419 -6.696475 -1.324840 0
M  V30 28 C -0.753674 -7.298881 -0.742862 0
M  V30 29 C -3.186376 -4.807235 -1.732170 0
M  V30 30 C -3.511620 -3.468932 -1.657120 0
M  V30 31 C -2.197959 -0.437339 -1.670903 0
M  V30 32 O -1.651315 -0.909670 -2.695555 0
M  V30 33 C 1.589434 1.548299 2.102638 0
M  V30 34 C 1.806422 0.529053 3.032489 0
M  V30 35 H 3.718643 0.346739 5.437452 0
M  V30 36 H 4.833622 -1.113696 5.437755 0
M  V30 37 H 3.237198 -1.208753 6.200185 0
M  V30 38 H 3.809838 -2.081052 3.676074 0
M  V30 39 H 2.184059 -1.745746 4.290465 0
M  V30 40 H 4.873638 -0.435203 2.202598 0
M  V30 41 H 4.585265 1.385356 0.482636 0
M  V30 42 H 1.764172 3.795804 0.607838 0
M  V30 43 H 3.364566 3.429992 -0.034761 0
M  V30 44 H 2.325827 2.119026 -3.100524 0
M  V30 45 H 3.009568 0.946657 -1.950707 0
M  V30 46 H 3.683134 2.573350 -2.046130 0
M  V30 47 H 0.401809 0.907035 -2.912676 0
M  V30 48 H 0.218189 2.596364 -3.323170 0
M  V30 49 H -1.958097 1.429743 -3.588901 0
M  V30 50 H -1.965618 2.823538 -2.492049 0
M  V30 51 H -3.985952 2.312605 1.773370 0
M  V30 52 H -4.975093 0.810805 3.446032 0
M  V30 53 H -4.900989 -1.680576 3.119838 0
M  V30 54 H -3.864780 -2.638425 1.171814 0
M  V30 55 H -0.774492 -2.589625 0.215879 0
M  V30 56 H -0.347056 -4.941434 -0.005110 0
M  V30 57 H 0.125398 -6.671783 -1.073219 0
M  V30 58 H -0.764310 -7.222289 0.367004 0
M  V30 59 H -0.646945 -8.354181 -1.023441 0
M  V30 60 H -3.899308 -5.418147 -2.298795 0
M  V30 61 H -4.349661 -2.948647 -2.067690 0
M  V30 62 H 0.645273 2.074861 2.119617 0
M  V30 63 H 0.992427 0.327556 3.728013 0
M  V30 END ATOM
M  V30 BEGIN BOND
M  V30 1 1 1 2
M  V30 2 1 2 3
M  V30 3 2 3 4
M  V30 4 1 4 5
M  V30 5 2 5 6
M  V30 6 1 6 7
M  V30 7 1 7 8
M  V30 8 1 8 9
M  V30 9 1 8 10
M  V30 10 2 10 11
M  V30 11 1 10 12
M  V30 12 1 12 13
M  V30 13 1 13 14
M  V30 14 2 14 15
M  V30 15 1 15 16
M  V30 16 2 16 17
M  V30 17 1 17 18
M  V30 18 2 18 19
M  V30 19 1 19 20
M  V30 20 2 20 21
M  V30 21 1 21 22
M  V30 22 1 22 23
M  V30 23 2 23 24
M  V30 24 1 24 25
M  V30 25 2 25 26
M  V30 26 1 26 27
M  V30 27 1 27 28
M  V30 28 1 26 29
M  V30 29 2 29 30
M  V30 30 1 22 31
M  V30 31 2 31 32
M  V30 32 1 6 33
M  V30 33 2 33 34
M  V30 34 1 34 3
M  V30 35 1 31 14
M  V30 36 1 21 16
M  V30 37 1 30 23
M  V30 38 1 1 35
M  V30 39 1 1 36
M  V30 40 1 1 37
M  V30 41 1 2 38
M  V30 42 1 2 39
M  V30 43 1 4 40
M  V30 44 1 5 41
M  V30 45 1 7 42
M  V30 46 1 7 43
M  V30 47 1 9 44
M  V30 48 1 9 45
M  V30 49 1 9 46
M  V30 50 1 12 47
M  V30 51 1 12 48
M  V30 52 1 13 49
M  V30 53 1 13 50
M  V30 54 1 17 51
M  V30 55 1 18 52
M  V30 56 1 19 53
M  V30 57 1 20 54
M  V30 58 1 24 55
M  V30 59 1 25 56
M  V30 60 1 28 57
M  V30 61 1 28 58
M  V30 62 1 28 59
M  V30 63 1 29 60
M  V30 64 1 30 61
M  V30 65 1 33 62
M  V30 66 1 34 63
M  V30 END BOND
M  V30 END CTAB
M  END
>  <Dataset>  (562) 
ChEMBL_Kinases

>  <Ligand_Instance>  (562) 
nan

>  <PDB_ID>  (562) 
nan

>  <Standardized_SMILES>  (562) 
CCc1ccc(CN(C)C(=O)CCc2nc3ccccc3n(-c3ccc(OC)cc3)c2=O)cc1

>  <Name>  (562) 
nan

>  <Pocket>  (562) 
nan

>  <ATP_Site>  (562) 
nan

>  <Peripheral>  (562) 
nan

>  <Num_H_Atoms_ProtBoundConf>  (562) 
nan

>  <Num_Resolved_Atoms>  (562) 
nan

>  <Num_Not_Resolved_Atoms>  (562) 
nan

$$$$
CHEMBL1349513
     RDKit          3D

  0  0  0  0  0  0  0  0  0  0999 V3000
M  V30 BEGIN CTAB
M  V30 COUNTS 41 43 0 0 0
M  V30 BEGIN ATOM
M  V30 1 C 0.190381 0.045066 4.987303 0
M  V30 2 C 0.637037 -0.235948 3.599701 0
M  V30 3 N 0.890526 -1.474907 3.153480 0
M  V30 4 C 1.309393 -1.690430 1.874729 0
M  V30 5 N 1.596344 -2.907369 1.212394 0
M  V30 6 C 1.054199 -3.802994 0.230252 0
M  V30 7 C 0.899391 -3.238624 -1.135905 0
M  V30 8 C -0.046442 -2.092589 -1.175157 0
M  V30 9 C -0.943013 -2.432794 -2.371347 0
M  V30 10 C -0.121307 -3.467596 -3.086178 0
M  V30 11 O 0.379961 -4.213580 -1.998381 0
M  V30 12 N 1.482963 -0.662488 1.022370 0
M  V30 13 C 1.234781 0.584268 1.449726 0
M  V30 14 C 0.800846 0.864648 2.755213 0
M  V30 15 C 0.548959 2.258310 3.126408 0
M  V30 16 O 0.761045 2.470833 4.354778 0
M  V30 17 C 0.096341 3.245196 2.115542 0
M  V30 18 C 0.037780 2.539365 0.777718 0
M  V30 19 C -1.114073 1.569218 0.799586 0
M  V30 20 C 1.367803 1.821622 0.610973 0
M  V30 21 H 0.998401 0.510005 5.604036 0
M  V30 22 H -0.105544 -0.887496 5.508967 0
M  V30 23 H -0.715456 0.707787 4.983784 0
M  V30 24 H 2.520673 -3.061231 1.705611 0
M  V30 25 H 0.137290 -4.331138 0.580790 0
M  V30 26 H 1.810207 -4.647607 0.140569 0
M  V30 27 H 1.905878 -2.996319 -1.551813 0
M  V30 28 H 0.510826 -1.185262 -1.495170 0
M  V30 29 H -0.684659 -1.981228 -0.303878 0
M  V30 30 H -1.117558 -1.523937 -2.987034 0
M  V30 31 H -1.913407 -2.819549 -2.058453 0
M  V30 32 H -0.763109 -4.065676 -3.726668 0
M  V30 33 H 0.702893 -2.971478 -3.645557 0
M  V30 34 H -0.909511 3.649400 2.370968 0
M  V30 35 H 0.800038 4.105305 2.044755 0
M  V30 36 H -0.142120 3.240612 -0.081191 0
M  V30 37 H -0.814670 0.517916 0.961533 0
M  V30 38 H -1.741120 1.594453 -0.119418 0
M  V30 39 H -1.795592 1.818688 1.659068 0
M  V30 40 H 2.168733 2.423038 1.082314 0
M  V30 41 H 1.637727 1.628458 -0.421339 0
M  V30 END ATOM
M  V30 BEGIN BOND
M  V30 1 1 1 2
M  V30 2 2 2 3
M  V30 3 1 3 4
M  V30 4 1 4 5
M  V30 5 1 5 6
M  V30 6 1 6 7
M  V30 7 1 7 8
M  V30 8 1 8 9
M  V30 9 1 9 10
M  V30 10 1 10 11
M  V30 11 2 4 12
M  V30 12 1 12 13
M  V30 13 2 13 14
M  V30 14 1 14 15
M  V30 15 2 15 16
M  V30 16 1 15 17
M  V30 17 1 17 18
M  V30 18 1 18 19
M  V30 19 1 18 20
M  V30 20 1 14 2
M  V30 21 1 11 7
M  V30 22 1 20 13
M  V30 23 1 1 21
M  V30 24 1 1 22
M  V30 25 1 1 23
M  V30 26 1 5 24
M  V30 27 1 6 25
M  V30 28 1 6 26
M  V30 29 1 7 27
M  V30 30 1 8 28
M  V30 31 1 8 29
M  V30 32 1 9 30
M  V30 33 1 9 31
M  V30 34 1 10 32
M  V30 35 1 10 33
M  V30 36 1 17 34
M  V30 37 1 17 35
M  V30 38 1 18 36
M  V30 39 1 19 37
M  V30 40 1 19 38
M  V30 41 1 19 39
M  V30 42 1 20 40
M  V30 43 1 20 41
M  V30 END BOND
M  V30 END CTAB
M  END
>  <Dataset>  (563) 
ChEMBL_Kinases

>  <Ligand_Instance>  (563) 
nan

>  <PDB_ID>  (563) 
nan

>  <Standardized_SMILES>  (563) 
Cc1nc(NCC2CCCO2)nc2c1C(=O)CC(C)C2

>  <Name>  (563) 
nan

>  <Pocket>  (563) 
nan

>  <ATP_Site>  (563) 
nan

>  <Peripheral>  (563) 
nan

>  <Num_H_Atoms_ProtBoundConf>  (563) 
nan

>  <Num_Resolved_Atoms>  (563) 
nan

>  <Num_Not_Resolved_Atoms>  (563) 
nan

$$$$
CHEMBL1349449
     RDKit          3D

  0  0  0  0  0  0  0  0  0  0999 V3000
M  V30 BEGIN CTAB
M  V30 COUNTS 40 42 0 0 0
M  V30 BEGIN ATOM
M  V30 1 O 1.646679 -3.014136 3.156386 0
M  V30 2 C 1.212063 -1.804070 3.168101 0
M  V30 3 C 2.063946 -1.304024 4.324434 0
M  V30 4 S 1.635438 0.454855 4.606818 0
M  V30 5 C 2.309103 1.319063 3.071863 0
M  V30 6 N 1.697680 1.598972 1.770910 0
M  V30 7 C 2.585697 2.244227 1.053755 0
M  V30 8 C 2.018771 2.549949 -0.252428 0
M  V30 9 C 0.761441 2.233773 -0.703832 0
M  V30 10 C 0.201909 2.524659 -1.955606 0
M  V30 11 C 1.000680 3.207580 -2.842844 0
M  V30 12 F 0.519145 3.518599 -4.065905 0
M  V30 13 C 2.271981 3.561532 -2.470740 0
M  V30 14 C 2.747259 3.238832 -1.222770 0
M  V30 15 C 3.963403 2.691467 1.311478 0
M  V30 16 S 4.052565 2.017102 3.069912 0
M  V30 17 N 0.167874 -1.387732 2.175823 0
M  V30 18 C -0.173796 -2.516957 1.355959 0
M  V30 19 O 0.148270 -3.707207 1.264282 0
M  V30 20 N -1.140597 -1.776569 0.542654 0
M  V30 21 C -1.801905 -2.524542 -0.516038 0
M  V30 22 C -2.527933 -3.650130 0.115482 0
M  V30 23 C -3.837463 -3.487631 0.530656 0
M  V30 24 C -4.213557 -4.708473 1.067817 0
M  V30 25 C -3.117946 -5.554517 0.954575 0
M  V30 26 O -2.139545 -4.873361 0.379743 0
M  V30 27 H 1.871043 -1.853285 5.239218 0
M  V30 28 H 3.121501 -1.361053 4.011999 0
M  V30 29 H 0.102488 1.700713 -0.044533 0
M  V30 30 H -0.793284 2.225320 -2.196888 0
M  V30 31 H 2.890239 4.097128 -3.175044 0
M  V30 32 H 3.754091 3.556512 -1.022395 0
M  V30 33 H 4.587330 3.165628 0.755450 0
M  V30 34 H 0.395153 -0.636828 2.721099 0
M  V30 35 H -1.453899 -0.764385 0.589297 0
M  V30 36 H -2.459670 -1.876922 -1.118493 0
M  V30 37 H -1.011117 -2.891461 -1.201586 0
M  V30 38 H -4.472033 -2.598443 0.463961 0
M  V30 39 H -5.208927 -4.887891 1.483491 0
M  V30 40 H -3.170598 -6.574741 1.309767 0
M  V30 END ATOM
M  V30 BEGIN BOND
M  V30 1 2 1 2
M  V30 2 1 2 3
M  V30 3 1 3 4
M  V30 4 1 4 5
M  V30 5 2 5 6
M  V30 6 1 6 7
M  V30 7 1 7 8
M  V30 8 2 8 9
M  V30 9 1 9 10
M  V30 10 2 10 11
M  V30 11 1 11 12
M  V30 12 1 11 13
M  V30 13 2 13 14
M  V30 14 2 7 15
M  V30 15 1 15 16
M  V30 16 1 2 17
M  V30 17 1 17 18
M  V30 18 2 18 19
M  V30 19 1 18 20
M  V30 20 1 20 21
M  V30 21 1 21 22
M  V30 22 2 22 23
M  V30 23 1 23 24
M  V30 24 2 24 25
M  V30 25 1 25 26
M  V30 26 1 16 5
M  V30 27 1 26 22
M  V30 28 1 14 8
M  V30 29 1 3 27
M  V30 30 1 3 28
M  V30 31 1 9 29
M  V30 32 1 10 30
M  V30 33 1 13 31
M  V30 34 1 14 32
M  V30 35 1 15 33
M  V30 36 1 17 34
M  V30 37 1 20 35
M  V30 38 1 21 36
M  V30 39 1 21 37
M  V30 40 1 23 38
M  V30 41 1 24 39
M  V30 42 1 25 40
M  V30 END BOND
M  V30 END CTAB
M  END
>  <Dataset>  (564) 
ChEMBL_Kinases

>  <Ligand_Instance>  (564) 
nan

>  <PDB_ID>  (564) 
nan

>  <Standardized_SMILES>  (564) 
O=C(CSc1nc(-c2ccc(F)cc2)cs1)NC(=O)NCc1ccco1

>  <Name>  (564) 
nan

>  <Pocket>  (564) 
nan

>  <ATP_Site>  (564) 
nan

>  <Peripheral>  (564) 
nan

>  <Num_H_Atoms_ProtBoundConf>  (564) 
nan

>  <Num_Resolved_Atoms>  (564) 
nan

>  <Num_Not_Resolved_Atoms>  (564) 
nan

$$$$
CHEMBL1349444
     RDKit          3D

  0  0  0  0  0  0  0  0  0  0999 V3000
M  V30 BEGIN CTAB
M  V30 COUNTS 48 50 0 0 0
M  V30 BEGIN ATOM
M  V30 1 C 0.541004 -5.268040 2.289432 0
M  V30 2 C 0.083409 -4.137869 1.447073 0
M  V30 3 C 0.727715 -3.652159 0.337417 0
M  V30 4 C 0.222997 -2.598889 -0.377216 0
M  V30 5 C -0.954727 -1.948428 -0.048788 0
M  V30 6 N -1.337175 -0.848589 -0.859995 0
M  V30 7 C -0.764467 -0.684162 -2.181865 0
M  V30 8 C 0.173581 0.507302 -2.195257 0
M  V30 9 N -0.409454 1.646174 -1.547423 0
M  V30 10 S 0.577165 2.623002 -0.634048 0
M  V30 11 O 1.633188 3.231394 -1.538541 0
M  V30 12 O -0.245029 3.805996 -0.139568 0
M  V30 13 C 1.366783 1.935624 0.730801 0
M  V30 14 C 2.631923 1.374112 0.519888 0
M  V30 15 C 3.388490 0.787465 1.514868 0
M  V30 16 C 2.879425 0.745520 2.796674 0
M  V30 17 F 3.603315 0.174980 3.790089 0
M  V30 18 C 1.634491 1.289775 3.041134 0
M  V30 19 C 1.036506 1.271547 4.409719 0
M  V30 20 C 0.897810 1.870804 2.028490 0
M  V30 21 C -1.783914 1.548285 -1.283436 0
M  V30 22 C -2.227695 0.243712 -0.602439 0
M  V30 23 C -1.580684 -2.455284 1.066918 0
M  V30 24 C -2.856861 -1.843258 1.496287 0
M  V30 25 C -1.082093 -3.514601 1.794523 0
M  V30 26 H -0.373822 -5.793193 2.690578 0
M  V30 27 H 1.124968 -6.010664 1.707615 0
M  V30 28 H 1.083444 -4.935840 3.208040 0
M  V30 29 H 1.655579 -4.200220 0.117417 0
M  V30 30 H 0.902478 -2.386903 -1.201998 0
M  V30 31 H -0.226969 -1.558737 -2.566127 0
M  V30 32 H -1.618623 -0.441698 -2.883656 0
M  V30 33 H 0.378185 0.760576 -3.248987 0
M  V30 34 H 1.137805 0.285595 -1.707549 0
M  V30 35 H 3.093527 1.374088 -0.471636 0
M  V30 36 H 4.349133 0.371134 1.311062 0
M  V30 37 H -0.078044 1.300455 4.362612 0
M  V30 38 H 1.340858 2.159806 4.999973 0
M  V30 39 H 1.290432 0.311995 4.904969 0
M  V30 40 H -0.078888 2.305748 2.184568 0
M  V30 41 H -2.226111 2.336340 -0.678142 0
M  V30 42 H -2.322872 1.598576 -2.269421 0
M  V30 43 H -2.291705 0.409454 0.499981 0
M  V30 44 H -3.252429 0.005807 -1.010993 0
M  V30 45 H -3.543390 -1.582992 0.691555 0
M  V30 46 H -3.413218 -2.664375 2.063746 0
M  V30 47 H -2.703234 -1.065266 2.275143 0
M  V30 48 H -1.638783 -3.851314 2.661236 0
M  V30 END ATOM
M  V30 BEGIN BOND
M  V30 1 1 1 2
M  V30 2 2 2 3
M  V30 3 1 3 4
M  V30 4 2 4 5
M  V30 5 1 5 6
M  V30 6 1 6 7
M  V30 7 1 7 8
M  V30 8 1 8 9
M  V30 9 1 9 10
M  V30 10 2 10 11
M  V30 11 2 10 12
M  V30 12 1 10 13
M  V30 13 2 13 14
M  V30 14 1 14 15
M  V30 15 2 15 16
M  V30 16 1 16 17
M  V30 17 1 16 18
M  V30 18 1 18 19
M  V30 19 2 18 20
M  V30 20 1 9 21
M  V30 21 1 21 22
M  V30 22 1 5 23
M  V30 23 1 23 24
M  V30 24 2 23 25
M  V30 25 1 25 2
M  V30 26 1 22 6
M  V30 27 1 20 13
M  V30 28 1 1 26
M  V30 29 1 1 27
M  V30 30 1 1 28
M  V30 31 1 3 29
M  V30 32 1 4 30
M  V30 33 1 7 31
M  V30 34 1 7 32
M  V30 35 1 8 33
M  V30 36 1 8 34
M  V30 37 1 14 35
M  V30 38 1 15 36
M  V30 39 1 19 37
M  V30 40 1 19 38
M  V30 41 1 19 39
M  V30 42 1 20 40
M  V30 43 1 21 41
M  V30 44 1 21 42
M  V30 45 1 22 43
M  V30 46 1 22 44
M  V30 47 1 24 45
M  V30 48 1 24 46
M  V30 49 1 24 47
M  V30 50 1 25 48
M  V30 END BOND
M  V30 END CTAB
M  END
>  <Dataset>  (565) 
ChEMBL_Kinases

>  <Ligand_Instance>  (565) 
nan

>  <PDB_ID>  (565) 
nan

>  <Standardized_SMILES>  (565) 
Cc1ccc(N2CCN(S(=O)(=O)c3ccc(F)c(C)c3)CC2)c(C)c1

>  <Name>  (565) 
nan

>  <Pocket>  (565) 
nan

>  <ATP_Site>  (565) 
nan

>  <Peripheral>  (565) 
nan

>  <Num_H_Atoms_ProtBoundConf>  (565) 
nan

>  <Num_Resolved_Atoms>  (565) 
nan

>  <Num_Not_Resolved_Atoms>  (565) 
nan

$$$$
CHEMBL1349350
     RDKit          3D

  0  0  0  0  0  0  0  0  0  0999 V3000
M  V30 BEGIN CTAB
M  V30 COUNTS 46 48 0 0 0
M  V30 BEGIN ATOM
M  V30 1 N 2.531967 -4.254128 1.289306 0
M  V30 2 C 2.514199 -2.907954 0.824449 0
M  V30 3 O 1.435993 -2.486231 0.343525 0
M  V30 4 C 3.650362 -1.956347 0.854974 0
M  V30 5 C 4.845478 -2.376464 1.372305 0
M  V30 6 C 5.882922 -1.455371 1.382194 0
M  V30 7 S 5.102475 0.015717 0.635486 0
M  V30 8 C 3.544521 -0.714445 0.397575 0
M  V30 9 N 2.458020 0.015489 -0.192214 0
M  V30 10 C 2.641879 1.345345 -0.591680 0
M  V30 11 O 3.726397 2.008257 -0.480563 0
M  V30 12 C 1.623177 2.227867 -1.213458 0
M  V30 13 S 0.025944 1.497432 -1.459157 0
M  V30 14 C -0.819434 1.112604 0.074145 0
M  V30 15 N -0.317433 1.342443 1.302794 0
M  V30 16 C -1.050698 1.010263 2.377501 0
M  V30 17 C -0.469951 1.275574 3.591046 0
M  V30 18 C -1.181163 0.953695 4.728868 0
M  V30 19 C -2.434356 0.384079 4.623617 0
M  V30 20 C -2.967053 0.140481 3.378304 0
M  V30 21 C -2.304582 0.440206 2.214224 0
M  V30 22 C -2.790318 0.218132 0.930021 0
M  V30 23 O -3.952046 -0.306119 0.975199 0
M  V30 24 N -2.028185 0.562537 -0.134916 0
M  V30 25 C -2.623825 0.266720 -1.399883 0
M  V30 26 C -2.166394 -1.051284 -1.912494 0
M  V30 27 C -2.416098 -2.246661 -1.072277 0
M  V30 28 O -1.807338 -2.242590 0.154545 0
M  V30 29 H 2.789930 -4.437766 2.303883 0
M  V30 30 H 2.314966 -5.108260 0.734638 0
M  V30 31 H 5.086397 -3.357216 1.782662 0
M  V30 32 H 6.935096 -1.588471 1.756751 0
M  V30 33 H 1.503331 -0.283045 -0.387596 0
M  V30 34 H 2.007700 2.540322 -2.211208 0
M  V30 35 H 1.510800 3.187690 -0.653528 0
M  V30 36 H 0.494076 1.713773 3.733499 0
M  V30 37 H -0.865053 1.098647 5.765009 0
M  V30 38 H -3.039719 0.109978 5.478262 0
M  V30 39 H -3.952082 -0.307184 3.290080 0
M  V30 40 H -3.731168 0.377428 -1.382522 0
M  V30 41 H -2.227688 1.037478 -2.129494 0
M  V30 42 H -1.039662 -0.964946 -2.027846 0
M  V30 43 H -2.605328 -1.222907 -2.937209 0
M  V30 44 H -3.516063 -2.430591 -1.016176 0
M  V30 45 H -2.017981 -3.137236 -1.628949 0
M  V30 46 H -1.413719 -3.093413 0.424207 0
M  V30 END ATOM
M  V30 BEGIN BOND
M  V30 1 1 1 2
M  V30 2 2 2 3
M  V30 3 1 2 4
M  V30 4 1 4 5
M  V30 5 2 5 6
M  V30 6 1 6 7
M  V30 7 1 7 8
M  V30 8 1 8 9
M  V30 9 1 9 10
M  V30 10 2 10 11
M  V30 11 1 10 12
M  V30 12 1 12 13
M  V30 13 1 13 14
M  V30 14 2 14 15
M  V30 15 1 15 16
M  V30 16 2 16 17
M  V30 17 1 17 18
M  V30 18 2 18 19
M  V30 19 1 19 20
M  V30 20 2 20 21
M  V30 21 1 21 22
M  V30 22 2 22 23
M  V30 23 1 22 24
M  V30 24 1 24 25
M  V30 25 1 25 26
M  V30 26 1 26 27
M  V30 27 1 27 28
M  V30 28 2 8 4
M  V30 29 1 24 14
M  V30 30 1 21 16
M  V30 31 1 1 29
M  V30 32 1 1 30
M  V30 33 1 5 31
M  V30 34 1 6 32
M  V30 35 1 9 33
M  V30 36 1 12 34
M  V30 37 1 12 35
M  V30 38 1 17 36
M  V30 39 1 18 37
M  V30 40 1 19 38
M  V30 41 1 20 39
M  V30 42 1 25 40
M  V30 43 1 25 41
M  V30 44 1 26 42
M  V30 45 1 26 43
M  V30 46 1 27 44
M  V30 47 1 27 45
M  V30 48 1 28 46
M  V30 END BOND
M  V30 END CTAB
M  END
>  <Dataset>  (566) 
ChEMBL_Kinases

>  <Ligand_Instance>  (566) 
nan

>  <PDB_ID>  (566) 
nan

>  <Standardized_SMILES>  (566) 
NC(=O)c1ccsc1NC(=O)CSc1nc2ccccc2c(=O)n1CCCO

>  <Name>  (566) 
nan

>  <Pocket>  (566) 
nan

>  <ATP_Site>  (566) 
nan

>  <Peripheral>  (566) 
nan

>  <Num_H_Atoms_ProtBoundConf>  (566) 
nan

>  <Num_Resolved_Atoms>  (566) 
nan

>  <Num_Not_Resolved_Atoms>  (566) 
nan

$$$$
CHEMBL1349253
     RDKit          3D

  0  0  0  0  0  0  0  0  0  0999 V3000
M  V30 BEGIN CTAB
M  V30 COUNTS 37 38 0 0 0
M  V30 BEGIN ATOM
M  V30 1 C -2.696293 -4.767171 2.516832 0
M  V30 2 C -1.312660 -4.206146 2.591244 0
M  V30 3 C -0.740519 -3.972063 3.832970 0
M  V30 4 C 0.554404 -3.447053 3.881755 0
M  V30 5 O 1.194245 -3.185576 5.095499 0
M  V30 6 N 1.194271 -3.189699 2.711738 0
M  V30 7 C 0.632728 -3.419421 1.507355 0
M  V30 8 C 1.401873 -3.109820 0.252470 0
M  V30 9 C 1.116128 -1.699805 -0.150667 0
M  V30 10 C 0.056736 -1.394244 -1.002417 0
M  V30 11 C -0.192244 -0.064267 -1.366930 0
M  V30 12 C 0.615322 0.977053 -0.884082 0
M  V30 13 O 0.132566 2.161978 -1.408798 0
M  V30 14 C 0.744819 3.384574 -1.099322 0
M  V30 15 C -0.229019 4.335213 -0.402081 0
M  V30 16 C 1.202371 4.127614 -2.340598 0
M  V30 17 C 1.651563 0.646711 -0.046836 0
M  V30 18 C 1.884243 -0.645813 0.300294 0
M  V30 19 N -0.614287 -3.924983 1.473817 0
M  V30 20 H -3.090116 -4.620429 1.487878 0
M  V30 21 H -3.369301 -4.164409 3.169244 0
M  V30 22 H -2.738074 -5.821016 2.841035 0
M  V30 23 H -1.256030 -4.179425 4.761313 0
M  V30 24 H 2.203861 -3.214619 5.091985 0
M  V30 25 H 1.188296 -3.831900 -0.548025 0
M  V30 26 H 2.487516 -3.136343 0.523025 0
M  V30 27 H -0.509974 -2.244072 -1.325706 0
M  V30 28 H -1.053737 -0.021120 -2.032744 0
M  V30 29 H 1.616245 3.314501 -0.422451 0
M  V30 30 H -0.185302 4.173321 0.690585 0
M  V30 31 H -1.202728 4.169598 -0.867070 0
M  V30 32 H 0.087028 5.366218 -0.586201 0
M  V30 33 H 0.386804 4.738423 -2.789402 0
M  V30 34 H 2.026227 4.828390 -2.112484 0
M  V30 35 H 1.497885 3.388312 -3.118796 0
M  V30 36 H 2.191821 1.510538 0.254355 0
M  V30 37 H 2.720979 -0.819477 0.964190 0
M  V30 END ATOM
M  V30 BEGIN BOND
M  V30 1 1 1 2
M  V30 2 2 2 3
M  V30 3 1 3 4
M  V30 4 1 4 5
M  V30 5 2 4 6
M  V30 6 1 6 7
M  V30 7 1 7 8
M  V30 8 1 8 9
M  V30 9 2 9 10
M  V30 10 1 10 11
M  V30 11 2 11 12
M  V30 12 1 12 13
M  V30 13 1 13 14
M  V30 14 1 14 15
M  V30 15 1 14 16
M  V30 16 1 12 17
M  V30 17 2 17 18
M  V30 18 2 7 19
M  V30 19 1 19 2
M  V30 20 1 18 9
M  V30 21 1 1 20
M  V30 22 1 1 21
M  V30 23 1 1 22
M  V30 24 1 3 23
M  V30 25 1 5 24
M  V30 26 1 8 25
M  V30 27 1 8 26
M  V30 28 1 10 27
M  V30 29 1 11 28
M  V30 30 1 14 29
M  V30 31 1 15 30
M  V30 32 1 15 31
M  V30 33 1 15 32
M  V30 34 1 16 33
M  V30 35 1 16 34
M  V30 36 1 16 35
M  V30 37 1 17 36
M  V30 38 1 18 37
M  V30 END BOND
M  V30 END CTAB
M  END
>  <Dataset>  (567) 
ChEMBL_Kinases

>  <Ligand_Instance>  (567) 
nan

>  <PDB_ID>  (567) 
nan

>  <Standardized_SMILES>  (567) 
Cc1cc(O)nc(Cc2ccc(OC(C)C)cc2)n1

>  <Name>  (567) 
nan

>  <Pocket>  (567) 
nan

>  <ATP_Site>  (567) 
nan

>  <Peripheral>  (567) 
nan

>  <Num_H_Atoms_ProtBoundConf>  (567) 
nan

>  <Num_Resolved_Atoms>  (567) 
nan

>  <Num_Not_Resolved_Atoms>  (567) 
nan

$$$$
CHEMBL1349159
     RDKit          3D

  0  0  0  0  0  0  0  0  0  0999 V3000
M  V30 BEGIN CTAB
M  V30 COUNTS 29 29 0 0 0
M  V30 BEGIN ATOM
M  V30 1 C -2.962969 -2.698602 1.558549 0
M  V30 2 O -2.394932 -2.034130 2.600804 0
M  V30 3 C -1.069582 -2.212668 2.791334 0
M  V30 4 C -0.224077 -1.809029 1.673600 0
M  V30 5 C 0.190614 -2.458928 0.548677 0
M  V30 6 Br -0.249779 -4.298866 0.404609 0
M  V30 7 C 0.945565 -1.927561 -0.470680 0
M  V30 8 C 1.332249 -2.742968 -1.648123 0
M  V30 9 N 1.329549 -0.629016 -0.367595 0
M  V30 10 C 0.983346 0.114502 0.696952 0
M  V30 11 O 1.373002 1.438102 0.806381 0
M  V30 12 C 2.150981 2.071864 -0.191537 0
M  V30 13 C 2.357030 3.479933 0.296420 0
M  V30 14 O 3.018619 4.266176 -0.411154 0
M  V30 15 O 1.942823 4.145504 1.445434 0
M  V30 16 C 0.215665 -0.474011 1.702494 0
M  V30 17 C -0.126929 0.382446 2.831684 0
M  V30 18 N -0.394142 1.064044 3.726357 0
M  V30 19 H -4.071732 -2.471502 1.488304 0
M  V30 20 H -2.539684 -2.355579 0.609607 0
M  V30 21 H -2.922675 -3.813345 1.702621 0
M  V30 22 H -0.788633 -1.595874 3.702311 0
M  V30 23 H -0.817309 -3.268494 3.098619 0
M  V30 24 H 1.695723 -3.756379 -1.333821 0
M  V30 25 H 0.447184 -2.874837 -2.320448 0
M  V30 26 H 2.128381 -2.218097 -2.184731 0
M  V30 27 H 1.657798 2.078161 -1.170884 0
M  V30 28 H 3.137944 1.550661 -0.230144 0
M  V30 29 H 1.378865 4.996093 1.293054 0
M  V30 END ATOM
M  V30 BEGIN BOND
M  V30 1 1 1 2
M  V30 2 1 2 3
M  V30 3 1 3 4
M  V30 4 2 4 5
M  V30 5 1 5 6
M  V30 6 1 5 7
M  V30 7 1 7 8
M  V30 8 2 7 9
M  V30 9 1 9 10
M  V30 10 1 10 11
M  V30 11 1 11 12
M  V30 12 1 12 13
M  V30 13 2 13 14
M  V30 14 1 13 15
M  V30 15 2 10 16
M  V30 16 1 16 17
M  V30 17 3 17 18
M  V30 18 1 16 4
M  V30 19 1 1 19
M  V30 20 1 1 20
M  V30 21 1 1 21
M  V30 22 1 3 22
M  V30 23 1 3 23
M  V30 24 1 8 24
M  V30 25 1 8 25
M  V30 26 1 8 26
M  V30 27 1 12 27
M  V30 28 1 12 28
M  V30 29 1 15 29
M  V30 END BOND
M  V30 END CTAB
M  END
>  <Dataset>  (568) 
ChEMBL_Kinases

>  <Ligand_Instance>  (568) 
nan

>  <PDB_ID>  (568) 
nan

>  <Standardized_SMILES>  (568) 
COCc1c(Br)c(C)nc(OCC(=O)O)c1C#N

>  <Name>  (568) 
nan

>  <Pocket>  (568) 
nan

>  <ATP_Site>  (568) 
nan

>  <Peripheral>  (568) 
nan

>  <Num_H_Atoms_ProtBoundConf>  (568) 
nan

>  <Num_Resolved_Atoms>  (568) 
nan

>  <Num_Not_Resolved_Atoms>  (568) 
nan

$$$$
CHEMBL1349076
     RDKit          3D

  0  0  0  0  0  0  0  0  0  0999 V3000
M  V30 BEGIN CTAB
M  V30 COUNTS 34 36 0 0 0
M  V30 BEGIN ATOM
M  V30 1 C -1.269409 -3.772085 2.947815 0
M  V30 2 C 0.195958 -3.991186 2.786450 0
M  V30 3 C 0.816669 -5.264573 3.223590 0
M  V30 4 S 2.569431 -4.962619 2.788076 0
M  V30 5 C 2.182193 -3.224236 2.110582 0
M  V30 6 S 3.416149 -2.102334 1.414419 0
M  V30 7 C 2.616317 -0.539563 0.887459 0
M  V30 8 C 1.709413 -0.908583 -0.250079 0
M  V30 9 N 0.986602 0.246356 -0.790868 0
M  V30 10 C 1.443891 1.010005 -1.776152 0
M  V30 11 Br 3.068137 0.898713 -2.766453 0
M  V30 12 N 0.536105 1.983143 -2.032440 0
M  V30 13 C -0.490939 1.794026 -1.175416 0
M  V30 14 C -0.217498 0.688236 -0.375992 0
M  V30 15 C -1.114227 0.272546 0.594586 0
M  V30 16 O -0.855397 -0.724105 1.307941 0
M  V30 17 N -2.261373 1.002813 0.714138 0
M  V30 18 C -2.532487 2.071479 -0.054077 0
M  V30 19 O -3.601015 2.725278 0.080721 0
M  V30 20 N -1.659304 2.473219 -0.996166 0
M  V30 21 C -1.916422 3.608785 -1.832440 0
M  V30 22 N 1.044585 -3.131656 2.269653 0
M  V30 23 H -1.821788 -4.731814 3.000905 0
M  V30 24 H -1.494481 -3.138748 3.833035 0
M  V30 25 H -1.704758 -3.233604 2.081042 0
M  V30 26 H 0.320008 -6.059893 3.650872 0
M  V30 27 H 2.107805 -0.139154 1.767956 0
M  V30 28 H 3.480938 0.096352 0.567051 0
M  V30 29 H 2.352927 -1.345890 -1.044728 0
M  V30 30 H 0.999260 -1.649569 0.163804 0
M  V30 31 H -2.922971 0.669246 1.453351 0
M  V30 32 H -1.720647 3.433976 -2.913418 0
M  V30 33 H -1.304285 4.459910 -1.438479 0
M  V30 34 H -2.960993 3.942043 -1.738496 0
M  V30 END ATOM
M  V30 BEGIN BOND
M  V30 1 1 1 2
M  V30 2 2 2 3
M  V30 3 1 3 4
M  V30 4 1 4 5
M  V30 5 1 5 6
M  V30 6 1 6 7
M  V30 7 1 7 8
M  V30 8 1 8 9
M  V30 9 1 9 10
M  V30 10 1 10 11
M  V30 11 2 10 12
M  V30 12 1 12 13
M  V30 13 2 13 14
M  V30 14 1 14 15
M  V30 15 2 15 16
M  V30 16 1 15 17
M  V30 17 1 17 18
M  V30 18 2 18 19
M  V30 19 1 18 20
M  V30 20 1 20 21
M  V30 21 2 5 22
M  V30 22 1 22 2
M  V30 23 1 14 9
M  V30 24 1 20 13
M  V30 25 1 1 23
M  V30 26 1 1 24
M  V30 27 1 1 25
M  V30 28 1 3 26
M  V30 29 1 7 27
M  V30 30 1 7 28
M  V30 31 1 8 29
M  V30 32 1 8 30
M  V30 33 1 17 31
M  V30 34 1 21 32
M  V30 35 1 21 33
M  V30 36 1 21 34
M  V30 END BOND
M  V30 END CTAB
M  END
>  <Dataset>  (569) 
ChEMBL_Kinases

>  <Ligand_Instance>  (569) 
nan

>  <PDB_ID>  (569) 
nan

>  <Standardized_SMILES>  (569) 
Cc1csc(SCCn2c(Br)nc3c2c(=O)[nH]c(=O)n3C)n1

>  <Name>  (569) 
nan

>  <Pocket>  (569) 
nan

>  <ATP_Site>  (569) 
nan

>  <Peripheral>  (569) 
nan

>  <Num_H_Atoms_ProtBoundConf>  (569) 
nan

>  <Num_Resolved_Atoms>  (569) 
nan

>  <Num_Not_Resolved_Atoms>  (569) 
nan

$$$$
CHEMBL1349053
     RDKit          3D

  0  0  0  0  0  0  0  0  0  0999 V3000
M  V30 BEGIN CTAB
M  V30 COUNTS 40 41 0 0 0
M  V30 BEGIN ATOM
M  V30 1 C 0.567968 -6.584713 -1.316571 0
M  V30 2 C 1.021223 -5.450663 -0.398346 0
M  V30 3 O 1.225733 -4.316560 -0.938986 0
M  V30 4 C 1.736935 -3.462679 -1.689264 0
M  V30 5 C 1.130704 -2.066268 -1.467344 0
M  V30 6 N 0.044346 -1.627181 -2.109736 0
M  V30 7 C -0.473851 -0.408920 -1.885828 0
M  V30 8 C -1.674171 0.068741 -2.605097 0
M  V30 9 C 0.208201 0.330535 -0.951616 0
M  V30 10 Cl -0.454207 1.922927 -0.697544 0
M  V30 11 C 1.329266 -0.049952 -0.251819 0
M  V30 12 N 2.029738 0.728521 0.674871 0
M  V30 13 S 2.039452 2.218746 1.484617 0
M  V30 14 O 3.360480 2.470658 2.195877 0
M  V30 15 O 1.935928 3.299785 0.394070 0
M  V30 16 C 0.692567 2.498574 2.529638 0
M  V30 17 C 0.880992 1.790583 3.728791 0
M  V30 18 C -0.065422 1.875384 4.747773 0
M  V30 19 C -1.201896 2.644101 4.622996 0
M  V30 20 N -2.248330 2.826492 5.576518 0
M  V30 21 C -1.447921 3.380552 3.441543 0
M  V30 22 C -0.460327 3.230100 2.501963 0
M  V30 23 N 1.738738 -1.292456 -0.575350 0
M  V30 24 H 0.032757 -7.365469 -0.696885 0
M  V30 25 H 1.404058 -7.042054 -1.833130 0
M  V30 26 H -0.177970 -6.190220 -2.021551 0
M  V30 27 H 1.849713 -5.893497 0.241236 0
M  V30 28 H 0.173066 -5.391285 0.369075 0
M  V30 29 H 1.653136 -3.574679 -2.818203 0
M  V30 30 H 2.862244 -3.276764 -1.554807 0
M  V30 31 H -1.995758 -0.678669 -3.367144 0
M  V30 32 H -1.450349 1.039428 -3.133846 0
M  V30 33 H -2.534500 0.231576 -1.919443 0
M  V30 34 H 2.890206 0.209766 1.027332 0
M  V30 35 H 1.699329 1.134429 4.030033 0
M  V30 36 H -0.003208 1.362594 5.700481 0
M  V30 37 H -3.214366 2.471033 5.405611 0
M  V30 38 H -2.112448 3.326721 6.501089 0
M  V30 39 H -2.260355 4.013799 3.184485 0
M  V30 40 H -0.528221 3.748540 1.580336 0
M  V30 END ATOM
M  V30 BEGIN BOND
M  V30 1 1 1 2
M  V30 2 1 2 3
M  V30 3 1 3 4
M  V30 4 1 4 5
M  V30 5 2 5 6
M  V30 6 1 6 7
M  V30 7 1 7 8
M  V30 8 2 7 9
M  V30 9 1 9 10
M  V30 10 1 9 11
M  V30 11 1 11 12
M  V30 12 1 12 13
M  V30 13 2 13 14
M  V30 14 2 13 15
M  V30 15 1 13 16
M  V30 16 2 16 17
M  V30 17 1 17 18
M  V30 18 2 18 19
M  V30 19 1 19 20
M  V30 20 1 19 21
M  V30 21 2 21 22
M  V30 22 2 11 23
M  V30 23 1 23 5
M  V30 24 1 22 16
M  V30 25 1 1 24
M  V30 26 1 1 25
M  V30 27 1 1 26
M  V30 28 1 2 27
M  V30 29 1 2 28
M  V30 30 1 4 29
M  V30 31 1 4 30
M  V30 32 1 8 31
M  V30 33 1 8 32
M  V30 34 1 8 33
M  V30 35 1 12 34
M  V30 36 1 17 35
M  V30 37 1 18 36
M  V30 38 1 20 37
M  V30 39 1 20 38
M  V30 40 1 21 39
M  V30 41 1 22 40
M  V30 END BOND
M  V30 END CTAB
M  END
>  <Dataset>  (570) 
ChEMBL_Kinases

>  <Ligand_Instance>  (570) 
nan

>  <PDB_ID>  (570) 
nan

>  <Standardized_SMILES>  (570) 
CCOCc1nc(C)c(Cl)c(NS(=O)(=O)c2ccc(N)cc2)n1

>  <Name>  (570) 
nan

>  <Pocket>  (570) 
nan

>  <ATP_Site>  (570) 
nan

>  <Peripheral>  (570) 
nan

>  <Num_H_Atoms_ProtBoundConf>  (570) 
nan

>  <Num_Resolved_Atoms>  (570) 
nan

>  <Num_Not_Resolved_Atoms>  (570) 
nan

$$$$
CHEMBL1347487
     RDKit          3D

  0  0  0  0  0  0  0  0  0  0999 V3000
M  V30 BEGIN CTAB
M  V30 COUNTS 35 37 0 0 0
M  V30 BEGIN ATOM
M  V30 1 C 1.039329 -0.346921 2.943155 0
M  V30 2 C 1.183612 -1.048801 1.648814 0
M  V30 3 N 2.114349 -2.004453 1.487676 0
M  V30 4 C 2.624287 -2.432657 0.318531 0
M  V30 5 C 3.729802 -3.257854 0.450533 0
M  V30 6 C 4.416755 -3.815556 -0.603271 0
M  V30 7 C 3.991337 -3.548101 -1.907596 0
M  V30 8 C 2.888605 -2.727144 -2.091828 0
M  V30 9 C 2.235959 -2.192670 -0.984282 0
M  V30 10 N 1.196061 -1.425854 -1.392870 0
M  V30 11 C 0.361527 -0.658888 -0.627317 0
M  V30 12 O -0.412410 0.036664 -1.367421 0
M  V30 13 C 0.263736 -0.554207 0.772908 0
M  V30 14 N -0.822239 0.066070 0.975328 0
M  V30 15 N -1.321734 0.383791 2.211995 0
M  V30 16 C -2.324237 1.290155 1.701460 0
M  V30 17 C -3.574414 0.808764 1.370948 0
M  V30 18 C -4.621374 1.581801 0.871235 0
M  V30 19 C -4.383343 2.938497 0.694908 0
M  V30 20 C -3.130752 3.453248 1.019842 0
M  V30 21 C -2.132013 2.652275 1.508316 0
M  V30 22 H 0.891715 0.726656 2.886308 0
M  V30 23 H 0.249462 -0.851282 3.514069 0
M  V30 24 H 2.007968 -0.518903 3.477719 0
M  V30 25 H 4.073803 -3.476384 1.446938 0
M  V30 26 H 5.276864 -4.453516 -0.410649 0
M  V30 27 H 4.589586 -4.028012 -2.671090 0
M  V30 28 H 2.592146 -2.545828 -3.114505 0
M  V30 29 H 1.047440 -1.451350 -2.423741 0
M  V30 30 H -1.617584 0.549361 3.197165 0
M  V30 31 H -3.781415 -0.258660 1.503634 0
M  V30 32 H -5.568544 1.134950 0.636957 0
M  V30 33 H -5.159901 3.582748 0.310565 0
M  V30 34 H -2.872776 4.495091 0.909511 0
M  V30 35 H -1.157443 3.025516 1.765347 0
M  V30 END ATOM
M  V30 BEGIN BOND
M  V30 1 1 1 2
M  V30 2 2 2 3
M  V30 3 1 3 4
M  V30 4 2 4 5
M  V30 5 1 5 6
M  V30 6 2 6 7
M  V30 7 1 7 8
M  V30 8 2 8 9
M  V30 9 1 9 10
M  V30 10 1 10 11
M  V30 11 2 11 12
M  V30 12 1 11 13
M  V30 13 2 13 14 CFG=2
M  V30 14 1 14 15
M  V30 15 1 15 16
M  V30 16 2 16 17
M  V30 17 1 17 18
M  V30 18 2 18 19
M  V30 19 1 19 20
M  V30 20 2 20 21
M  V30 21 1 13 2
M  V30 22 1 21 16
M  V30 23 1 9 4
M  V30 24 1 1 22
M  V30 25 1 1 23
M  V30 26 1 1 24
M  V30 27 1 5 25
M  V30 28 1 6 26
M  V30 29 1 7 27
M  V30 30 1 8 28
M  V30 31 1 10 29
M  V30 32 1 15 30
M  V30 33 1 17 31
M  V30 34 1 18 32
M  V30 35 1 19 33
M  V30 36 1 20 34
M  V30 37 1 21 35
M  V30 END BOND
M  V30 END CTAB
M  END
>  <Dataset>  (571) 
ChEMBL_Kinases

>  <Ligand_Instance>  (571) 
nan

>  <PDB_ID>  (571) 
nan

>  <Standardized_SMILES>  (571) 
Cc1nc2ccccc2[nH]c(=O)c1=NNc1ccccc1

>  <Name>  (571) 
nan

>  <Pocket>  (571) 
nan

>  <ATP_Site>  (571) 
nan

>  <Peripheral>  (571) 
nan

>  <Num_H_Atoms_ProtBoundConf>  (571) 
nan

>  <Num_Resolved_Atoms>  (571) 
nan

>  <Num_Not_Resolved_Atoms>  (571) 
nan

$$$$
CHEMBL134752
     RDKit          3D

  0  0  0  0  0  0  0  0  0  0999 V3000
M  V30 BEGIN CTAB
M  V30 COUNTS 33 34 0 0 0
M  V30 BEGIN ATOM
M  V30 1 C -1.359992 1.686138 2.800966 0
M  V30 2 N -1.111314 0.531690 1.915879 0 CHG=1 VAL=4
M  V30 3 C -2.118157 -0.443234 2.374904 0
M  V30 4 C 0.153049 0.030905 2.255658 0
M  V30 5 C 1.250709 0.133409 1.224533 0
M  V30 6 N 0.665750 -0.267153 -0.041091 0
M  V30 7 C 0.977258 -1.423363 -0.792464 0
M  V30 8 C 0.400883 -1.771368 -1.988202 0
M  V30 9 C 0.740066 -2.906611 -2.677476 0
M  V30 10 C 1.689685 -3.779129 -2.210290 0
M  V30 11 C 2.289227 -3.446667 -0.997125 0
M  V30 12 C 1.923041 -2.299612 -0.334680 0
M  V30 13 C -0.315536 0.729940 -0.424645 0
M  V30 14 C -1.388958 0.934844 0.605973 0
M  V30 15 H -1.505454 1.324768 3.849341 0
M  V30 16 H -0.439305 2.302968 2.742465 0
M  V30 17 H -2.204266 2.305595 2.440805 0
M  V30 18 H -1.691900 -1.453543 2.178755 0
M  V30 19 H -2.312857 -0.351096 3.465120 0
M  V30 20 H -3.038368 -0.320517 1.765527 0
M  V30 21 H 0.598545 0.480921 3.181465 0
M  V30 22 H 0.120429 -1.068889 2.519410 0
M  V30 23 H 2.081226 -0.485009 1.563606 0
M  V30 24 H 1.623060 1.193831 1.138937 0
M  V30 25 H -0.352842 -1.136962 -2.418704 0
M  V30 26 H 0.254261 -3.132125 -3.614869 0
M  V30 27 H 1.935459 -4.658311 -2.768552 0
M  V30 28 H 3.035504 -4.163268 -0.662102 0
M  V30 29 H 2.482202 -2.196187 0.582626 0
M  V30 30 H 0.273765 1.691551 -0.527535 0
M  V30 31 H -0.734578 0.578413 -1.439379 0
M  V30 32 H -1.700945 2.007910 0.520512 0
M  V30 33 H -2.278667 0.388090 0.205738 0
M  V30 END ATOM
M  V30 BEGIN BOND
M  V30 1 1 1 2
M  V30 2 1 2 3
M  V30 3 1 2 4
M  V30 4 1 4 5
M  V30 5 1 5 6
M  V30 6 1 6 7
M  V30 7 2 7 8
M  V30 8 1 8 9
M  V30 9 2 9 10
M  V30 10 1 10 11
M  V30 11 2 11 12
M  V30 12 1 6 13
M  V30 13 1 13 14
M  V30 14 1 14 2
M  V30 15 1 12 7
M  V30 16 1 1 15
M  V30 17 1 1 16
M  V30 18 1 1 17
M  V30 19 1 3 18
M  V30 20 1 3 19
M  V30 21 1 3 20
M  V30 22 1 4 21
M  V30 23 1 4 22
M  V30 24 1 5 23
M  V30 25 1 5 24
M  V30 26 1 8 25
M  V30 27 1 9 26
M  V30 28 1 10 27
M  V30 29 1 11 28
M  V30 30 1 12 29
M  V30 31 1 13 30
M  V30 32 1 13 31
M  V30 33 1 14 32
M  V30 34 1 14 33
M  V30 END BOND
M  V30 END CTAB
M  END
>  <Dataset>  (572) 
ChEMBL_Kinases

>  <Ligand_Instance>  (572) 
nan

>  <PDB_ID>  (572) 
nan

>  <Standardized_SMILES>  (572) 
C[N+]1(C)CCN(c2ccccc2)CC1

>  <Name>  (572) 
DIMETHYLPHENYLPIPERAZINIUM

>  <Pocket>  (572) 
nan

>  <ATP_Site>  (572) 
nan

>  <Peripheral>  (572) 
nan

>  <Num_H_Atoms_ProtBoundConf>  (572) 
nan

>  <Num_Resolved_Atoms>  (572) 
nan

>  <Num_Not_Resolved_Atoms>  (572) 
nan

$$$$
CHEMBL1347585
     RDKit          3D

  0  0  0  0  0  0  0  0  0  0999 V3000
M  V30 BEGIN CTAB
M  V30 COUNTS 69 72 0 0 0
M  V30 BEGIN ATOM
M  V30 1 C 5.755650 -1.275453 3.303415 0
M  V30 2 O 4.652425 -1.904366 3.903642 0
M  V30 3 C 3.362926 -1.462912 3.922172 0
M  V30 4 C 2.762456 -0.335388 3.409842 0
M  V30 5 C 1.431366 -0.031142 3.515309 0
M  V30 6 C 1.010024 1.220353 2.901311 0
M  V30 7 O 1.832034 1.903949 2.275907 0
M  V30 8 N -0.311435 1.736703 2.967013 0
M  V30 9 C -0.671558 2.989750 2.338852 0
M  V30 10 C -0.454877 2.945639 0.833529 0
M  V30 11 C -1.338802 1.860738 0.219980 0
M  V30 12 C -1.142866 1.808420 -1.246060 0
M  V30 13 N -0.228621 2.634216 -1.782340 0
M  V30 14 C -0.257490 2.465720 -3.145482 0
M  V30 15 C 0.508413 3.113630 -4.081806 0
M  V30 16 C 0.234577 2.726258 -5.368543 0
M  V30 17 C -0.713227 1.781539 -5.692059 0
M  V30 18 C -1.409589 1.210258 -4.645161 0
M  V30 19 C -1.231618 1.511108 -3.291928 0
M  V30 20 N -1.810016 1.071459 -2.144302 0
M  V30 21 C -2.866824 0.140535 -2.041916 0
M  V30 22 C -2.613286 -1.278135 -2.009458 0
M  V30 23 C -2.771153 -1.971888 -3.227153 0
M  V30 24 C -2.573892 -3.313907 -3.463100 0
M  V30 25 C -2.760987 -3.970849 -4.778061 0
M  V30 26 C -2.175448 -4.115105 -2.415361 0
M  V30 27 C -1.999007 -3.514046 -1.189996 0
M  V30 28 C -2.217988 -2.170642 -1.043153 0
M  V30 29 C -2.051643 -1.625570 0.300503 0
M  V30 30 C 0.644061 -0.934936 4.190678 0
M  V30 31 C 1.128492 -2.080241 4.737605 0
M  V30 32 O 0.326284 -2.984940 5.415903 0
M  V30 33 C -1.051631 -2.694247 5.533627 0
M  V30 34 C 2.499426 -2.334877 4.595900 0
M  V30 35 O 2.944956 -3.518474 5.173462 0
M  V30 36 C 2.993804 -4.751743 4.456247 0
M  V30 37 H 6.585260 -2.005803 3.137178 0
M  V30 38 H 5.475349 -0.893333 2.287030 0
M  V30 39 H 6.110754 -0.388674 3.876531 0
M  V30 40 H 3.492762 0.305376 2.894713 0
M  V30 41 H -1.007230 1.135603 3.507019 0
M  V30 42 H -1.778891 3.093962 2.475959 0
M  V30 43 H -0.152394 3.846538 2.766664 0
M  V30 44 H 0.605221 2.838644 0.547775 0
M  V30 45 H -0.797427 3.937426 0.438063 0
M  V30 46 H -1.046356 0.927324 0.742436 0
M  V30 47 H -2.387144 2.109399 0.420175 0
M  V30 48 H 1.232011 3.845361 -3.777836 0
M  V30 49 H 0.808816 3.200407 -6.175160 0
M  V30 50 H -0.902279 1.497870 -6.719065 0
M  V30 51 H -2.143588 0.482016 -4.958012 0
M  V30 52 H -3.594446 0.346574 -2.893634 0
M  V30 53 H -3.479891 0.452787 -1.146856 0
M  V30 54 H -3.093969 -1.475756 -4.148404 0
M  V30 55 H -2.748610 -3.243218 -5.609792 0
M  V30 56 H -3.684922 -4.602291 -4.790176 0
M  V30 57 H -1.889913 -4.637469 -4.924875 0
M  V30 58 H -2.004227 -5.168272 -2.528644 0
M  V30 59 H -1.684905 -4.121212 -0.355324 0
M  V30 60 H -2.692590 -0.734661 0.497674 0
M  V30 61 H -1.027238 -1.436768 0.604547 0
M  V30 62 H -2.449826 -2.396746 1.030624 0
M  V30 63 H -0.406370 -0.664285 4.260157 0
M  V30 64 H -1.423669 -2.394113 4.524476 0
M  V30 65 H -1.141064 -1.796603 6.183832 0
M  V30 66 H -1.631616 -3.564555 5.909379 0
M  V30 67 H 2.457456 -4.569833 3.492006 0
M  V30 68 H 2.505405 -5.581403 5.000988 0
M  V30 69 H 4.069429 -5.001486 4.305855 0
M  V30 END ATOM
M  V30 BEGIN BOND
M  V30 1 1 1 2
M  V30 2 1 2 3
M  V30 3 2 3 4
M  V30 4 1 4 5
M  V30 5 1 5 6
M  V30 6 2 6 7
M  V30 7 1 6 8
M  V30 8 1 8 9
M  V30 9 1 9 10
M  V30 10 1 10 11
M  V30 11 1 11 12
M  V30 12 2 12 13
M  V30 13 1 13 14
M  V30 14 2 14 15
M  V30 15 1 15 16
M  V30 16 2 16 17
M  V30 17 1 17 18
M  V30 18 2 18 19
M  V30 19 1 19 20
M  V30 20 1 20 21
M  V30 21 1 21 22
M  V30 22 2 22 23
M  V30 23 1 23 24
M  V30 24 1 24 25
M  V30 25 2 24 26
M  V30 26 1 26 27
M  V30 27 2 27 28
M  V30 28 1 28 29
M  V30 29 2 5 30
M  V30 30 1 30 31
M  V30 31 1 31 32
M  V30 32 1 32 33
M  V30 33 2 31 34
M  V30 34 1 34 35
M  V30 35 1 35 36
M  V30 36 1 34 3
M  V30 37 1 20 12
M  V30 38 1 28 22
M  V30 39 1 19 14
M  V30 40 1 1 37
M  V30 41 1 1 38
M  V30 42 1 1 39
M  V30 43 1 4 40
M  V30 44 1 8 41
M  V30 45 1 9 42
M  V30 46 1 9 43
M  V30 47 1 10 44
M  V30 48 1 10 45
M  V30 49 1 11 46
M  V30 50 1 11 47
M  V30 51 1 15 48
M  V30 52 1 16 49
M  V30 53 1 17 50
M  V30 54 1 18 51
M  V30 55 1 21 52
M  V30 56 1 21 53
M  V30 57 1 23 54
M  V30 58 1 25 55
M  V30 59 1 25 56
M  V30 60 1 25 57
M  V30 61 1 26 58
M  V30 62 1 27 59
M  V30 63 1 29 60
M  V30 64 1 29 61
M  V30 65 1 29 62
M  V30 66 1 30 63
M  V30 67 1 33 64
M  V30 68 1 33 65
M  V30 69 1 33 66
M  V30 70 1 36 67
M  V30 71 1 36 68
M  V30 72 1 36 69
M  V30 END BOND
M  V30 END CTAB
M  END
>  <Dataset>  (573) 
ChEMBL_Kinases

>  <Ligand_Instance>  (573) 
nan

>  <PDB_ID>  (573) 
nan

>  <Standardized_SMILES>  (573) 
COc1cc(C(=O)NCCCc2nc3ccccc3n2Cc2cc(C)ccc2C)cc(OC)c1OC

>  <Name>  (573) 
nan

>  <Pocket>  (573) 
nan

>  <ATP_Site>  (573) 
nan

>  <Peripheral>  (573) 
nan

>  <Num_H_Atoms_ProtBoundConf>  (573) 
nan

>  <Num_Resolved_Atoms>  (573) 
nan

>  <Num_Not_Resolved_Atoms>  (573) 
nan

$$$$
CHEMBL1347919
     RDKit          3D

  0  0  0  0  0  0  0  0  0  0999 V3000
M  V30 BEGIN CTAB
M  V30 COUNTS 33 34 0 0 0
M  V30 BEGIN ATOM
M  V30 1 C -2.440782 -2.888317 4.227288 0
M  V30 2 O -2.752194 -2.679022 2.855290 0
M  V30 3 C -1.689522 -2.377409 2.002422 0
M  V30 4 C -0.405373 -2.297028 2.519652 0
M  V30 5 C 0.689716 -1.998900 1.709907 0
M  V30 6 C 0.439814 -1.784315 0.354896 0
M  V30 7 C 1.620999 -1.463087 -0.516764 0
M  V30 8 C 1.732397 0.030268 -0.482119 0
M  V30 9 O 0.831839 0.539337 0.242683 0
M  V30 10 N 2.758296 0.701222 -1.207893 0
M  V30 11 C 2.651166 2.148440 -1.010922 0
M  V30 12 N 3.318061 2.942286 0.070289 0
M  V30 13 C 2.943961 4.190600 -0.137587 0
M  V30 14 C 2.056617 4.834403 -1.176051 0
M  V30 15 S 1.683751 3.193351 -2.062357 0
M  V30 16 C -0.830754 -1.857378 -0.192104 0
M  V30 17 C -1.890275 -2.157791 0.656552 0
M  V30 18 O -3.170339 -2.239001 0.146889 0
M  V30 19 C -3.411062 -2.021322 -1.218082 0
M  V30 20 H -1.798135 -3.767144 4.339682 0
M  V30 21 H -3.358834 -3.075454 4.818195 0
M  V30 22 H -1.948275 -1.989587 4.667481 0
M  V30 23 H -0.172046 -2.456460 3.561858 0
M  V30 24 H 1.699631 -1.932296 2.098210 0
M  V30 25 H 2.535271 -1.955090 -0.160623 0
M  V30 26 H 1.358476 -1.769238 -1.555581 0
M  V30 27 H 3.440276 0.168669 -1.768524 0
M  V30 28 H 3.486268 4.665331 0.701437 0
M  V30 29 H 1.980996 5.797108 -1.050868 0
M  V30 30 H -0.960631 -1.679559 -1.257510 0
M  V30 31 H -2.892333 -1.077243 -1.530715 0
M  V30 32 H -4.496100 -1.836627 -1.409646 0
M  V30 33 H -3.069902 -2.890818 -1.800277 0
M  V30 END ATOM
M  V30 BEGIN BOND
M  V30 1 1 1 2
M  V30 2 1 2 3
M  V30 3 2 3 4
M  V30 4 1 4 5
M  V30 5 2 5 6
M  V30 6 1 6 7
M  V30 7 1 7 8
M  V30 8 2 8 9
M  V30 9 1 8 10
M  V30 10 1 10 11
M  V30 11 2 11 12
M  V30 12 1 12 13
M  V30 13 2 13 14
M  V30 14 1 14 15
M  V30 15 1 6 16
M  V30 16 2 16 17
M  V30 17 1 17 18
M  V30 18 1 18 19
M  V30 19 1 17 3
M  V30 20 1 15 11
M  V30 21 1 1 20
M  V30 22 1 1 21
M  V30 23 1 1 22
M  V30 24 1 4 23
M  V30 25 1 5 24
M  V30 26 1 7 25
M  V30 27 1 7 26
M  V30 28 1 10 27
M  V30 29 1 13 28
M  V30 30 1 14 29
M  V30 31 1 16 30
M  V30 32 1 19 31
M  V30 33 1 19 32
M  V30 34 1 19 33
M  V30 END BOND
M  V30 END CTAB
M  END
>  <Dataset>  (574) 
ChEMBL_Kinases

>  <Ligand_Instance>  (574) 
nan

>  <PDB_ID>  (574) 
nan

>  <Standardized_SMILES>  (574) 
COc1ccc(CC(=O)Nc2nccs2)cc1OC

>  <Name>  (574) 
nan

>  <Pocket>  (574) 
nan

>  <ATP_Site>  (574) 
nan

>  <Peripheral>  (574) 
nan

>  <Num_H_Atoms_ProtBoundConf>  (574) 
nan

>  <Num_Resolved_Atoms>  (574) 
nan

>  <Num_Not_Resolved_Atoms>  (574) 
nan

$$$$
CHEMBL1347964
     RDKit          3D

  0  0  0  0  0  0  0  0  0  0999 V3000
M  V30 BEGIN CTAB
M  V30 COUNTS 32 34 0 0 0
M  V30 BEGIN ATOM
M  V30 1 C 0.909295 0.373260 3.999556 0
M  V30 2 O 1.503320 0.710121 2.758756 0
M  V30 3 C 0.952981 0.136824 1.617159 0
M  V30 4 C 1.397306 -1.078868 1.118104 0
M  V30 5 C 2.412434 -1.763954 1.748870 0
M  V30 6 C 2.900828 -2.971143 1.309543 0
M  V30 7 C 2.330295 -3.513971 0.169672 0
M  V30 8 C 1.295956 -2.854020 -0.505282 0
M  V30 9 C 0.841627 -1.636478 -0.016568 0
M  V30 10 C -0.178147 -0.974647 -0.672607 0
M  V30 11 O -0.740867 -1.536765 -1.819505 0
M  V30 12 C -1.851170 -2.402250 -1.659547 0
M  V30 13 C -0.662742 0.237920 -0.224228 0
M  V30 14 C -1.686158 0.924341 -0.863827 0
M  V30 15 C -2.140660 2.140259 -0.376756 0
M  V30 16 C -1.584296 2.704359 0.764235 0
M  V30 17 C -0.575096 1.969255 1.345677 0
M  V30 18 C -0.068253 0.755571 0.922919 0
M  V30 19 H 1.143392 1.104679 4.796305 0
M  V30 20 H 1.254209 -0.658239 4.263099 0
M  V30 21 H -0.187888 0.269263 3.854251 0
M  V30 22 H 2.875202 -1.363012 2.640039 0
M  V30 23 H 3.697098 -3.533598 1.783114 0
M  V30 24 H 2.672410 -4.475236 -0.235959 0
M  V30 25 H 0.831252 -3.248978 -1.393744 0
M  V30 26 H -2.596876 -2.270286 -2.486548 0
M  V30 27 H -1.556167 -3.458562 -1.554672 0
M  V30 28 H -2.423696 -2.166831 -0.722426 0
M  V30 29 H -2.135020 0.509968 -1.749894 0
M  V30 30 H -2.935828 2.692275 -0.857902 0
M  V30 31 H -1.879907 3.644122 1.207071 0
M  V30 32 H -0.116948 2.390320 2.248469 0
M  V30 END ATOM
M  V30 BEGIN BOND
M  V30 1 1 1 2
M  V30 2 1 2 3
M  V30 3 2 3 4
M  V30 4 1 4 5
M  V30 5 2 5 6
M  V30 6 1 6 7
M  V30 7 2 7 8
M  V30 8 1 8 9
M  V30 9 2 9 10
M  V30 10 1 10 11
M  V30 11 1 11 12
M  V30 12 1 10 13
M  V30 13 2 13 14
M  V30 14 1 14 15
M  V30 15 2 15 16
M  V30 16 1 16 17
M  V30 17 2 17 18
M  V30 18 1 18 3
M  V30 19 1 9 4
M  V30 20 1 18 13
M  V30 21 1 1 19
M  V30 22 1 1 20
M  V30 23 1 1 21
M  V30 24 1 5 22
M  V30 25 1 6 23
M  V30 26 1 7 24
M  V30 27 1 8 25
M  V30 28 1 12 26
M  V30 29 1 12 27
M  V30 30 1 12 28
M  V30 31 1 14 29
M  V30 32 1 15 30
M  V30 33 1 16 31
M  V30 34 1 17 32
M  V30 END BOND
M  V30 END CTAB
M  END
>  <Dataset>  (575) 
ChEMBL_Kinases

>  <Ligand_Instance>  (575) 
nan

>  <PDB_ID>  (575) 
nan

>  <Standardized_SMILES>  (575) 
COc1c2ccccc2c(OC)c2ccccc12

>  <Name>  (575) 
nan

>  <Pocket>  (575) 
nan

>  <ATP_Site>  (575) 
nan

>  <Peripheral>  (575) 
nan

>  <Num_H_Atoms_ProtBoundConf>  (575) 
nan

>  <Num_Resolved_Atoms>  (575) 
nan

>  <Num_Not_Resolved_Atoms>  (575) 
nan

$$$$
CHEMBL1348181
     RDKit          3D

  0  0  0  0  0  0  0  0  0  0999 V3000
M  V30 BEGIN CTAB
M  V30 COUNTS 44 48 0 0 0
M  V30 BEGIN ATOM
M  V30 1 O -1.657104 -0.053578 0.154908 0
M  V30 2 C -1.396673 -1.282308 0.221936 0
M  V30 3 N -0.322817 -1.690669 1.054451 0
M  V30 4 C 0.357081 -0.621129 1.740060 0
M  V30 5 C -0.107713 -0.242744 3.000099 0
M  V30 6 C 0.532800 0.781786 3.671998 0
M  V30 7 C 1.613884 1.383757 3.050014 0
M  V30 8 O 2.397697 2.368505 3.453189 0
M  V30 9 C 3.313650 2.641051 2.556346 0
M  V30 10 C 4.331659 3.676997 2.701410 0
M  V30 11 C 4.333971 4.424268 3.860865 0
M  V30 12 C 5.284450 5.397972 4.006570 0
M  V30 13 C 6.196322 5.606007 3.016462 0
M  V30 14 C 6.214202 4.864917 1.837513 0
M  V30 15 C 5.249130 3.869485 1.679047 0
M  V30 16 F 5.221657 3.113805 0.542924 0
M  V30 17 N 3.132248 1.805141 1.515917 0
M  V30 18 C 2.066261 1.000811 1.800829 0
M  V30 19 C 1.437696 -0.020213 1.117122 0
M  V30 20 C -2.214809 -2.204019 -0.559515 0
M  V30 21 C -3.228860 -1.663795 -1.325019 0
M  V30 22 C -4.057414 -2.454237 -2.099018 0
M  V30 23 C -3.866426 -3.834554 -2.108983 0
M  V30 24 C -2.848268 -4.359207 -1.338235 0
M  V30 25 C -2.003584 -3.567222 -0.550849 0
M  V30 26 O -2.613077 -5.726370 -1.310406 0
M  V30 27 C -3.333676 -6.660807 -2.085772 0
M  V30 28 C -3.919500 -5.948280 -3.278361 0
M  V30 29 O -4.585286 -4.787971 -2.812722 0
M  V30 30 H -0.089649 -2.705344 1.124938 0
M  V30 31 H -0.962024 -0.745699 3.449262 0
M  V30 32 H 0.204380 1.105644 4.650293 0
M  V30 33 H 3.615014 4.276155 4.666205 0
M  V30 34 H 5.291392 5.983694 4.907876 0
M  V30 35 H 6.962292 6.386277 3.127087 0
M  V30 36 H 6.929759 5.024894 1.055513 0
M  V30 37 H 1.812114 -0.287012 0.161416 0
M  V30 38 H -3.451338 -0.596649 -1.378661 0
M  V30 39 H -4.868706 -2.116270 -2.722829 0
M  V30 40 H -1.224502 -4.001249 0.034914 0
M  V30 41 H -4.140726 -7.178411 -1.533474 0
M  V30 42 H -2.565711 -7.416052 -2.410163 0
M  V30 43 H -4.588145 -6.591613 -3.873662 0
M  V30 44 H -3.053769 -5.626588 -3.893910 0
M  V30 END ATOM
M  V30 BEGIN BOND
M  V30 1 2 1 2
M  V30 2 1 2 3
M  V30 3 1 3 4
M  V30 4 2 4 5
M  V30 5 1 5 6
M  V30 6 2 6 7
M  V30 7 1 7 8
M  V30 8 1 8 9
M  V30 9 1 9 10
M  V30 10 2 10 11
M  V30 11 1 11 12
M  V30 12 2 12 13
M  V30 13 1 13 14
M  V30 14 2 14 15
M  V30 15 1 15 16
M  V30 16 2 9 17
M  V30 17 1 17 18
M  V30 18 2 18 19
M  V30 19 1 2 20
M  V30 20 2 20 21
M  V30 21 1 21 22
M  V30 22 2 22 23
M  V30 23 1 23 24
M  V30 24 2 24 25
M  V30 25 1 24 26
M  V30 26 1 26 27
M  V30 27 1 27 28
M  V30 28 1 28 29
M  V30 29 1 19 4
M  V30 30 1 25 20
M  V30 31 1 18 7
M  V30 32 1 29 23
M  V30 33 1 15 10
M  V30 34 1 3 30
M  V30 35 1 5 31
M  V30 36 1 6 32
M  V30 37 1 11 33
M  V30 38 1 12 34
M  V30 39 1 13 35
M  V30 40 1 14 36
M  V30 41 1 19 37
M  V30 42 1 21 38
M  V30 43 1 22 39
M  V30 44 1 25 40
M  V30 45 1 27 41
M  V30 46 1 27 42
M  V30 47 1 28 43
M  V30 48 1 28 44
M  V30 END BOND
M  V30 END CTAB
M  END
>  <Dataset>  (576) 
ChEMBL_Kinases

>  <Ligand_Instance>  (576) 
nan

>  <PDB_ID>  (576) 
nan

>  <Standardized_SMILES>  (576) 
O=C(Nc1ccc2oc(-c3ccccc3F)nc2c1)c1ccc2c(c1)OCCO2

>  <Name>  (576) 
nan

>  <Pocket>  (576) 
nan

>  <ATP_Site>  (576) 
nan

>  <Peripheral>  (576) 
nan

>  <Num_H_Atoms_ProtBoundConf>  (576) 
nan

>  <Num_Resolved_Atoms>  (576) 
nan

>  <Num_Not_Resolved_Atoms>  (576) 
nan

$$$$
CHEMBL1348203
     RDKit          3D

  0  0  0  0  0  0  0  0  0  0999 V3000
M  V30 BEGIN CTAB
M  V30 COUNTS 58 61 0 0 0
M  V30 BEGIN ATOM
M  V30 1 C -0.202043 -2.477961 -0.723916 0
M  V30 2 C -0.114514 -2.349863 0.745480 0
M  V30 3 C 0.489011 -1.350010 1.473327 0
M  V30 4 C 0.329074 -1.639282 2.808383 0
M  V30 5 C 0.774524 -0.871696 3.960609 0
M  V30 6 O 0.432092 -1.369760 5.086866 0
M  V30 7 C 1.514795 0.336003 4.322993 0
M  V30 8 O 2.115701 1.037788 3.254099 0
M  V30 9 C 3.107026 0.514662 2.479642 0
M  V30 10 O 3.227375 -0.615733 3.023562 0
M  V30 11 C 3.831188 1.085844 1.345425 0
M  V30 12 C 3.314409 2.422823 0.874271 0
M  V30 13 C 1.911760 2.358938 0.428733 0
M  V30 14 O 1.031640 2.464149 1.339941 0
M  V30 15 C 1.521500 2.185345 -0.964916 0
M  V30 16 C 2.391461 2.066216 -2.052784 0
M  V30 17 C 1.888380 1.901030 -3.323349 0
M  V30 18 C 0.545537 1.842855 -3.607375 0
M  V30 19 C -0.332060 1.957249 -2.554973 0
M  V30 20 C 0.170899 2.124384 -1.269578 0
M  V30 21 O -1.672876 1.897726 -2.847630 0
M  V30 22 C -2.195892 1.182336 -3.949932 0
M  V30 23 C -1.193138 0.887231 -5.019106 0
M  V30 24 O -0.019620 1.679497 -4.856800 0
M  V30 25 C -0.369541 -2.811501 2.952283 0
M  V30 26 C -0.819206 -3.584458 4.141209 0
M  V30 27 N -0.611600 -3.196229 1.661797 0
M  V30 28 C -1.330980 -4.394259 1.297009 0
M  V30 29 C -2.803368 -4.124254 1.175149 0
M  V30 30 C -3.652306 -4.266084 2.266802 0
M  V30 31 C -4.880994 -3.934364 1.748959 0
M  V30 32 C -4.748247 -3.614381 0.415955 0
M  V30 33 O -3.466559 -3.739699 0.093770 0
M  V30 34 H 0.571322 -3.221872 -1.076987 0
M  V30 35 H 0.070249 -1.475335 -1.155558 0
M  V30 36 H -1.158413 -2.849195 -1.100552 0
M  V30 37 H 0.966887 -0.529381 0.986975 0
M  V30 38 H 2.327220 0.036190 5.055218 0
M  V30 39 H 0.875984 1.046870 4.934615 0
M  V30 40 H 3.881266 0.332404 0.551232 0
M  V30 41 H 4.885817 1.253571 1.691429 0
M  V30 42 H 3.478268 3.161730 1.697313 0
M  V30 43 H 3.930569 2.761923 0.021083 0
M  V30 44 H 3.435901 2.110241 -1.833834 0
M  V30 45 H 2.575186 1.809992 -4.159920 0
M  V30 46 H -0.534487 2.211524 -0.465165 0
M  V30 47 H -2.655740 0.206454 -3.628380 0
M  V30 48 H -3.007954 1.778650 -4.431926 0
M  V30 49 H -0.862467 -0.179733 -4.925051 0
M  V30 50 H -1.580991 1.018590 -6.054681 0
M  V30 51 H 0.041739 -3.658668 4.867363 0
M  V30 52 H -1.085426 -4.614254 3.897057 0
M  V30 53 H -1.616663 -3.060773 4.719112 0
M  V30 54 H -1.169771 -5.248174 1.974400 0
M  V30 55 H -1.017777 -4.731970 0.265043 0
M  V30 56 H -3.404757 -4.564413 3.274009 0
M  V30 57 H -5.825171 -3.922070 2.298911 0
M  V30 58 H -5.559610 -3.314693 -0.240345 0
M  V30 END ATOM
M  V30 BEGIN BOND
M  V30 1 1 1 2
M  V30 2 2 2 3
M  V30 3 1 3 4
M  V30 4 1 4 5
M  V30 5 2 5 6
M  V30 6 1 5 7
M  V30 7 1 7 8
M  V30 8 1 8 9
M  V30 9 2 9 10
M  V30 10 1 9 11
M  V30 11 1 11 12
M  V30 12 1 12 13
M  V30 13 2 13 14
M  V30 14 1 13 15
M  V30 15 2 15 16
M  V30 16 1 16 17
M  V30 17 2 17 18
M  V30 18 1 18 19
M  V30 19 2 19 20
M  V30 20 1 19 21
M  V30 21 1 21 22
M  V30 22 1 22 23
M  V30 23 1 23 24
M  V30 24 2 4 25
M  V30 25 1 25 26
M  V30 26 1 25 27
M  V30 27 1 27 28
M  V30 28 1 28 29
M  V30 29 2 29 30
M  V30 30 1 30 31
M  V30 31 2 31 32
M  V30 32 1 32 33
M  V30 33 1 27 2
M  V30 34 1 33 29
M  V30 35 1 20 15
M  V30 36 1 24 18
M  V30 37 1 1 34
M  V30 38 1 1 35
M  V30 39 1 1 36
M  V30 40 1 3 37
M  V30 41 1 7 38
M  V30 42 1 7 39
M  V30 43 1 11 40
M  V30 44 1 11 41
M  V30 45 1 12 42
M  V30 46 1 12 43
M  V30 47 1 16 44
M  V30 48 1 17 45
M  V30 49 1 20 46
M  V30 50 1 22 47
M  V30 51 1 22 48
M  V30 52 1 23 49
M  V30 53 1 23 50
M  V30 54 1 26 51
M  V30 55 1 26 52
M  V30 56 1 26 53
M  V30 57 1 28 54
M  V30 58 1 28 55
M  V30 59 1 30 56
M  V30 60 1 31 57
M  V30 61 1 32 58
M  V30 END BOND
M  V30 END CTAB
M  END
>  <Dataset>  (577) 
ChEMBL_Kinases

>  <Ligand_Instance>  (577) 
nan

>  <PDB_ID>  (577) 
nan

>  <Standardized_SMILES>  (577) 
Cc1cc(C(=O)COC(=O)CCC(=O)c2ccc3c(c2)OCCO3)c(C)n1Cc1ccco1

>  <Name>  (577) 
nan

>  <Pocket>  (577) 
nan

>  <ATP_Site>  (577) 
nan

>  <Peripheral>  (577) 
nan

>  <Num_H_Atoms_ProtBoundConf>  (577) 
nan

>  <Num_Resolved_Atoms>  (577) 
nan

>  <Num_Not_Resolved_Atoms>  (577) 
nan

$$$$
CHEMBL1348213
     RDKit          3D

  0  0  0  0  0  0  0  0  0  0999 V3000
M  V30 BEGIN CTAB
M  V30 COUNTS 31 31 0 0 0
M  V30 BEGIN ATOM
M  V30 1 C -0.078018 -3.628093 3.981604 0
M  V30 2 C 1.186431 -3.185244 3.808673 0
M  V30 3 C 1.608336 -2.069104 2.917523 0
M  V30 4 N 2.534142 -2.477918 1.906485 0
M  V30 5 S 2.926110 -1.082915 0.960213 0
M  V30 6 O 3.498286 -0.051621 1.872908 0
M  V30 7 O 3.903722 -1.451744 -0.137135 0
M  V30 8 C 1.474483 -0.467853 0.193079 0
M  V30 9 C 1.057830 -0.891131 -1.058597 0
M  V30 10 C -0.097367 -0.360327 -1.598012 0
M  V30 11 C -0.875974 0.592338 -0.938558 0
M  V30 12 O -2.022346 1.083674 -1.534749 0
M  V30 13 C -2.467803 0.664196 -2.816149 0
M  V30 14 C -0.418103 0.990279 0.321368 0
M  V30 15 C -1.300061 2.008549 0.963688 0
M  V30 16 C 0.733215 0.476045 0.884411 0
M  V30 17 H -1.155377 -3.677242 3.846498 0
M  V30 18 H -1.172261 -3.772364 3.925588 0
M  V30 19 H 1.160496 -3.995812 4.502021 0
M  V30 20 H 0.679385 -1.753509 2.391967 0
M  V30 21 H 2.005459 -1.228768 3.505007 0
M  V30 22 H 2.037278 -3.167540 1.280503 0
M  V30 23 H 1.663228 -1.625080 -1.559664 0
M  V30 24 H -0.365924 -0.739356 -2.587403 0
M  V30 25 H -3.550886 0.886150 -2.928378 0
M  V30 26 H -1.929197 1.175075 -3.635771 0
M  V30 27 H -2.363971 -0.454363 -2.898146 0
M  V30 28 H -0.687990 2.624626 1.671527 0
M  V30 29 H -2.066471 1.489489 1.584258 0
M  V30 30 H -1.742582 2.696085 0.219267 0
M  V30 31 H 0.980565 0.869166 1.871436 0
M  V30 END ATOM
M  V30 BEGIN BOND
M  V30 1 2 1 2
M  V30 2 1 2 3
M  V30 3 1 3 4
M  V30 4 1 4 5
M  V30 5 2 5 6
M  V30 6 2 5 7
M  V30 7 1 5 8
M  V30 8 2 8 9
M  V30 9 1 9 10
M  V30 10 2 10 11
M  V30 11 1 11 12
M  V30 12 1 12 13
M  V30 13 1 11 14
M  V30 14 1 14 15
M  V30 15 2 14 16
M  V30 16 1 16 8
M  V30 17 1 1 17
M  V30 18 1 1 18
M  V30 19 1 2 19
M  V30 20 1 3 20
M  V30 21 1 3 21
M  V30 22 1 4 22
M  V30 23 1 9 23
M  V30 24 1 10 24
M  V30 25 1 13 25
M  V30 26 1 13 26
M  V30 27 1 13 27
M  V30 28 1 15 28
M  V30 29 1 15 29
M  V30 30 1 15 30
M  V30 31 1 16 31
M  V30 END BOND
M  V30 END CTAB
M  END
>  <Dataset>  (578) 
ChEMBL_Kinases

>  <Ligand_Instance>  (578) 
nan

>  <PDB_ID>  (578) 
nan

>  <Standardized_SMILES>  (578) 
C=CCNS(=O)(=O)c1ccc(OC)c(C)c1

>  <Name>  (578) 
nan

>  <Pocket>  (578) 
nan

>  <ATP_Site>  (578) 
nan

>  <Peripheral>  (578) 
nan

>  <Num_H_Atoms_ProtBoundConf>  (578) 
nan

>  <Num_Resolved_Atoms>  (578) 
nan

>  <Num_Not_Resolved_Atoms>  (578) 
nan

$$$$
CHEMBL1348929
     RDKit          3D

  0  0  0  0  0  0  0  0  0  0999 V3000
M  V30 BEGIN CTAB
M  V30 COUNTS 34 36 0 0 0
M  V30 BEGIN ATOM
M  V30 1 C -2.808618 -1.963905 4.047190 0
M  V30 2 C -1.785910 -1.368957 3.161604 0
M  V30 3 C -0.539912 -1.874640 2.970942 0
M  V30 4 C 0.095856 -1.029392 2.074261 0
M  V30 5 N 1.386274 -1.003352 1.473146 0
M  V30 6 C 1.490332 -1.590848 0.187055 0
M  V30 7 C 0.432739 -2.228507 -0.448447 0
M  V30 8 C 0.530323 -2.784862 -1.693795 0
M  V30 9 C 1.727792 -2.714184 -2.354251 0
M  V30 10 C 2.824001 -2.109003 -1.812212 0
M  V30 11 C 2.668277 -1.565980 -0.556061 0
M  V30 12 N -0.753325 -0.034216 1.732556 0
M  V30 13 C -0.557165 1.068415 0.833041 0
M  V30 14 C 0.207898 2.184176 1.105564 0
M  V30 15 C 0.353999 3.212362 0.168941 0
M  V30 16 C -0.332186 2.975864 -1.001771 0
M  V30 17 C -1.115713 1.913010 -1.379923 0
M  V30 18 C -1.213698 0.928452 -0.394389 0
M  V30 19 N -1.881152 -0.278453 2.414087 0
M  V30 20 H -3.665515 -2.294873 3.408154 0
M  V30 21 H -3.242648 -1.138249 4.671983 0
M  V30 22 H -2.399285 -2.792036 4.666723 0
M  V30 23 H -0.026388 -2.731567 3.364511 0
M  V30 24 H 2.241948 -0.601118 1.884214 0
M  V30 25 H -0.499417 -2.288876 0.053991 0
M  V30 26 H -0.334157 -3.271282 -2.137785 0
M  V30 27 H 1.847991 -3.141257 -3.341934 0
M  V30 28 H 3.818870 -2.002688 -2.264036 0
M  V30 29 H 3.523445 -1.065213 -0.074439 0
M  V30 30 H 0.691899 2.244299 2.062132 0
M  V30 31 H 0.943099 4.089518 0.358086 0
M  V30 32 H -0.230989 3.773290 -1.756563 0
M  V30 33 H -1.585418 1.882164 -2.346303 0
M  V30 34 H -1.814852 0.058420 -0.618027 0
M  V30 END ATOM
M  V30 BEGIN BOND
M  V30 1 1 1 2
M  V30 2 1 2 3
M  V30 3 2 3 4
M  V30 4 1 4 5
M  V30 5 1 5 6
M  V30 6 2 6 7
M  V30 7 1 7 8
M  V30 8 2 8 9
M  V30 9 1 9 10
M  V30 10 2 10 11
M  V30 11 1 4 12
M  V30 12 1 12 13
M  V30 13 2 13 14
M  V30 14 1 14 15
M  V30 15 2 15 16
M  V30 16 1 16 17
M  V30 17 2 17 18
M  V30 18 1 12 19
M  V30 19 2 19 2
M  V30 20 1 11 6
M  V30 21 1 18 13
M  V30 22 1 1 20
M  V30 23 1 1 21
M  V30 24 1 1 22
M  V30 25 1 3 23
M  V30 26 1 5 24
M  V30 27 1 7 25
M  V30 28 1 8 26
M  V30 29 1 9 27
M  V30 30 1 10 28
M  V30 31 1 11 29
M  V30 32 1 14 30
M  V30 33 1 15 31
M  V30 34 1 16 32
M  V30 35 1 17 33
M  V30 36 1 18 34
M  V30 END BOND
M  V30 END CTAB
M  END
>  <Dataset>  (579) 
ChEMBL_Kinases

>  <Ligand_Instance>  (579) 
nan

>  <PDB_ID>  (579) 
nan

>  <Standardized_SMILES>  (579) 
Cc1cc(Nc2ccccc2)n(-c2ccccc2)n1

>  <Name>  (579) 
nan

>  <Pocket>  (579) 
nan

>  <ATP_Site>  (579) 
nan

>  <Peripheral>  (579) 
nan

>  <Num_H_Atoms_ProtBoundConf>  (579) 
nan

>  <Num_Resolved_Atoms>  (579) 
nan

>  <Num_Not_Resolved_Atoms>  (579) 
nan

$$$$
CHEMBL1348492
     RDKit          3D

  0  0  0  0  0  0  0  0  0  0999 V3000
M  V30 BEGIN CTAB
M  V30 COUNTS 43 44 0 0 0
M  V30 BEGIN ATOM
M  V30 1 C -3.574837 -2.950180 2.951566 0
M  V30 2 C -2.249302 -3.619385 2.558074 0
M  V30 3 C -1.898511 -3.033338 1.228644 0
M  V30 4 C -0.636283 -3.512663 0.601089 0
M  V30 5 C 0.617000 -3.286849 1.360504 0
M  V30 6 C 0.853920 -1.805612 1.492625 0
M  V30 7 C 1.230021 -1.322761 0.105315 0
M  V30 8 C 1.519417 0.140071 0.190981 0
M  V30 9 C 2.812429 0.565694 -0.074824 0
M  V30 10 C 3.125624 1.909322 -0.007490 0
M  V30 11 C 2.092334 2.778670 0.333342 0
M  V30 12 C 2.398130 4.222767 0.413076 0
M  V30 13 N 1.478943 5.096784 0.148604 0
M  V30 14 N 3.684987 4.698633 0.775277 0
M  V30 15 O 3.776575 5.933839 1.308667 0
M  V30 16 C 0.811665 2.335221 0.594285 0
M  V30 17 C 0.489498 0.994641 0.529434 0
M  V30 18 C 0.191387 -1.646143 -0.912630 0
M  V30 19 C -0.564482 -2.895088 -0.756168 0
M  V30 20 H -4.249810 -2.957562 2.046419 0
M  V30 21 H -3.346603 -1.871630 3.126591 0
M  V30 22 H -4.054339 -3.437519 3.805633 0
M  V30 23 H -2.478183 -4.700999 2.467596 0
M  V30 24 H -1.562618 -3.416043 3.375348 0
M  V30 25 H -2.731909 -3.348284 0.532044 0
M  V30 26 H -1.954316 -1.927535 1.219211 0
M  V30 27 H -0.748349 -4.639228 0.533513 0
M  V30 28 H 1.444469 -3.714214 0.735281 0
M  V30 29 H 0.688237 -3.826598 2.315205 0
M  V30 30 H 1.679959 -1.579938 2.203902 0
M  V30 31 H -0.101275 -1.338349 1.804388 0
M  V30 32 H 2.160291 -1.863032 -0.173996 0
M  V30 33 H 3.562929 -0.164205 -0.332863 0
M  V30 34 H 4.123000 2.234337 -0.212850 0
M  V30 35 H 0.506624 4.816861 -0.125437 0
M  V30 36 H 4.500076 4.063415 0.608915 0
M  V30 37 H 4.483499 5.891302 2.001784 0
M  V30 38 H 0.025107 3.044365 0.858763 0
M  V30 39 H -0.474815 0.579512 0.717278 0
M  V30 40 H -0.552059 -0.795855 -0.859761 0
M  V30 41 H 0.575308 -1.590738 -1.952041 0
M  V30 42 H -1.584886 -2.764936 -1.222570 0
M  V30 43 H -0.093883 -3.676128 -1.423935 0
M  V30 END ATOM
M  V30 BEGIN BOND
M  V30 1 1 1 2
M  V30 2 1 2 3
M  V30 3 1 3 4
M  V30 4 1 4 5
M  V30 5 1 5 6
M  V30 6 1 6 7
M  V30 7 1 7 8
M  V30 8 2 8 9
M  V30 9 1 9 10
M  V30 10 2 10 11
M  V30 11 1 11 12
M  V30 12 2 12 13 CFG=2
M  V30 13 1 12 14
M  V30 14 1 14 15
M  V30 15 1 11 16
M  V30 16 2 16 17
M  V30 17 1 7 18
M  V30 18 1 18 19
M  V30 19 1 19 4
M  V30 20 1 17 8
M  V30 21 1 1 20
M  V30 22 1 1 21
M  V30 23 1 1 22
M  V30 24 1 2 23
M  V30 25 1 2 24
M  V30 26 1 3 25
M  V30 27 1 3 26
M  V30 28 1 4 27
M  V30 29 1 5 28
M  V30 30 1 5 29
M  V30 31 1 6 30
M  V30 32 1 6 31
M  V30 33 1 7 32
M  V30 34 1 9 33
M  V30 35 1 10 34
M  V30 36 1 13 35
M  V30 37 1 14 36
M  V30 38 1 15 37
M  V30 39 1 16 38
M  V30 40 1 17 39
M  V30 41 1 18 40
M  V30 42 1 18 41
M  V30 43 1 19 42
M  V30 44 1 19 43
M  V30 END BOND
M  V30 END CTAB
M  END
>  <Dataset>  (580) 
ChEMBL_Kinases

>  <Ligand_Instance>  (580) 
nan

>  <PDB_ID>  (580) 
nan

>  <Standardized_SMILES>  (580) 
CCCC1CCC(c2ccc(C(=N)NO)cc2)CC1

>  <Name>  (580) 
nan

>  <Pocket>  (580) 
nan

>  <ATP_Site>  (580) 
nan

>  <Peripheral>  (580) 
nan

>  <Num_H_Atoms_ProtBoundConf>  (580) 
nan

>  <Num_Resolved_Atoms>  (580) 
nan

>  <Num_Not_Resolved_Atoms>  (580) 
nan

$$$$
CHEMBL1348572
     RDKit          3D

  0  0  0  0  0  0  0  0  0  0999 V3000
M  V30 BEGIN CTAB
M  V30 COUNTS 49 52 0 0 0
M  V30 BEGIN ATOM
M  V30 1 C -0.090718 -2.761466 -1.511734 0
M  V30 2 C 0.729103 -2.123361 -0.403043 0
M  V30 3 N 0.197626 -0.846102 0.029208 0
M  V30 4 C 1.048354 0.252425 0.321353 0
M  V30 5 C 2.516107 0.429321 0.361418 0
M  V30 6 C 3.381929 0.118414 -0.666726 0
M  V30 7 C 4.746290 0.276455 -0.527254 0
M  V30 8 C 5.305913 0.749403 0.638394 0
M  V30 9 C 4.510218 1.081550 1.708554 0
M  V30 10 C 3.160240 0.903653 1.511921 0
M  V30 11 C 0.475579 1.406881 0.671325 0
M  V30 12 C 0.678687 2.782719 1.079069 0
M  V30 13 C -0.036397 3.479175 2.024523 0
M  V30 14 C 0.358647 4.777441 2.253878 0
M  V30 15 C 1.417032 5.387019 1.586960 0
M  V30 16 C 2.115964 4.640429 0.633598 0
M  V30 17 C 1.739676 3.315990 0.375315 0
M  V30 18 S -1.279513 1.213540 0.154063 0
M  V30 19 C -1.174751 -0.565170 0.185761 0
M  V30 20 C -2.189573 -1.332543 0.498663 0
M  V30 21 C -1.934182 -2.743135 0.764523 0
M  V30 22 C -3.032524 -3.459455 1.058422 0
M  V30 23 S -4.713506 -2.783470 1.130631 0
M  V30 24 C -5.566857 -4.348473 1.225403 0
M  V30 25 S -7.177761 -4.444985 1.044737 0
M  V30 26 N -4.562462 -5.318951 1.473183 0
M  V30 27 C -4.977958 -6.680263 1.786762 0
M  V30 28 C -3.245224 -4.883883 1.392783 0
M  V30 29 O -2.255951 -5.673069 1.597060 0
M  V30 30 H -0.980740 -2.172201 -1.796947 0
M  V30 31 H -0.375885 -3.801361 -1.336034 0
M  V30 32 H 0.522144 -2.741278 -2.488496 0
M  V30 33 H 1.729527 -1.976218 -0.853300 0
M  V30 34 H 0.951569 -2.820118 0.440900 0
M  V30 35 H 3.022836 -0.234052 -1.598569 0
M  V30 36 H 5.393070 0.015456 -1.375136 0
M  V30 37 H 6.371762 0.879682 0.768579 0
M  V30 38 H 4.818840 1.460216 2.670869 0
M  V30 39 H 2.458556 1.148404 2.326061 0
M  V30 40 H -0.841715 2.948524 2.505694 0
M  V30 41 H -0.201209 5.325391 2.998495 0
M  V30 42 H 1.648258 6.410964 1.840795 0
M  V30 43 H 2.919665 5.231325 0.183050 0
M  V30 44 H 2.390740 2.938630 -0.379230 0
M  V30 45 H -3.167075 -0.890057 0.546053 0
M  V30 46 H -1.156783 -3.468012 0.848225 0
M  V30 47 H -4.127854 -7.366893 1.487274 0
M  V30 48 H -5.092353 -6.855846 2.878020 0
M  V30 49 H -5.834443 -6.990095 1.180550 0
M  V30 END ATOM
M  V30 BEGIN BOND
M  V30 1 1 1 2
M  V30 2 1 2 3
M  V30 3 1 3 4
M  V30 4 1 4 5
M  V30 5 2 5 6
M  V30 6 1 6 7
M  V30 7 2 7 8
M  V30 8 1 8 9
M  V30 9 2 9 10
M  V30 10 2 4 11
M  V30 11 1 11 12
M  V30 12 2 12 13
M  V30 13 1 13 14
M  V30 14 2 14 15
M  V30 15 1 15 16
M  V30 16 2 16 17
M  V30 17 1 11 18
M  V30 18 1 18 19
M  V30 19 2 19 20
M  V30 20 1 20 21
M  V30 21 2 21 22
M  V30 22 1 22 23
M  V30 23 1 23 24
M  V30 24 2 24 25
M  V30 25 1 24 26
M  V30 26 1 26 27
M  V30 27 1 26 28
M  V30 28 2 28 29
M  V30 29 1 19 3
M  V30 30 1 28 22
M  V30 31 1 10 5
M  V30 32 1 17 12
M  V30 33 1 1 30
M  V30 34 1 1 31
M  V30 35 1 1 32
M  V30 36 1 2 33
M  V30 37 1 2 34
M  V30 38 1 6 35
M  V30 39 1 7 36
M  V30 40 1 8 37
M  V30 41 1 9 38
M  V30 42 1 10 39
M  V30 43 1 13 40
M  V30 44 1 14 41
M  V30 45 1 15 42
M  V30 46 1 16 43
M  V30 47 1 17 44
M  V30 48 1 20 45
M  V30 49 1 21 46
M  V30 50 1 27 47
M  V30 51 1 27 48
M  V30 52 1 27 49
M  V30 END BOND
M  V30 END CTAB
M  END
>  <Dataset>  (581) 
ChEMBL_Kinases

>  <Ligand_Instance>  (581) 
nan

>  <PDB_ID>  (581) 
nan

>  <Standardized_SMILES>  (581) 
CCN1C(c2ccccc2)=C(c2ccccc2)S/C1=C/C=C1\SC(=S)N(C)C1=O

>  <Name>  (581) 
nan

>  <Pocket>  (581) 
nan

>  <ATP_Site>  (581) 
nan

>  <Peripheral>  (581) 
nan

>  <Num_H_Atoms_ProtBoundConf>  (581) 
nan

>  <Num_Resolved_Atoms>  (581) 
nan

>  <Num_Not_Resolved_Atoms>  (581) 
nan

$$$$
CHEMBL1348591
     RDKit          3D

  0  0  0  0  0  0  0  0  0  0999 V3000
M  V30 BEGIN CTAB
M  V30 COUNTS 53 56 0 0 0
M  V30 BEGIN ATOM
M  V30 1 C -3.896088 -1.884992 3.793420 0
M  V30 2 O -3.658248 -3.155454 3.183959 0
M  V30 3 C -2.523033 -3.331702 2.403513 0
M  V30 4 C -1.615183 -2.311053 2.199602 0
M  V30 5 C -0.467923 -2.448671 1.425500 0
M  V30 6 C 0.420214 -1.299163 1.274585 0
M  V30 7 N 0.893381 -1.047950 0.017957 0
M  V30 8 O 1.666339 0.009561 0.058440 0
M  V30 9 C 1.727261 0.469854 1.280184 0
M  V30 10 C 2.430646 1.610919 1.885087 0
M  V30 11 C 2.372511 1.912286 3.253509 0
M  V30 12 C 3.057732 3.005018 3.758592 0
M  V30 13 C 3.811555 3.826810 2.952633 0
M  V30 14 C 3.887031 3.559706 1.618539 0
M  V30 15 C 3.209433 2.477796 1.113052 0
M  V30 16 C 3.327054 2.251744 -0.343457 0
M  V30 17 O 4.267125 1.956694 -1.155667 0
M  V30 18 N 2.088907 2.388550 -1.077174 0
M  V30 19 C 1.926438 2.216907 -2.520690 0
M  V30 20 C 0.518255 2.404684 -2.948136 0
M  V30 21 C -0.196929 3.499678 -3.375245 0
M  V30 22 C -1.490788 3.143518 -3.655461 0
M  V30 23 C -1.523053 1.795707 -3.379596 0
M  V30 24 O -0.338509 1.405006 -2.972258 0
M  V30 25 N 0.958932 -0.334464 2.039647 0
M  V30 26 C -0.212899 -3.666353 0.824178 0
M  V30 27 C -1.091353 -4.728365 0.994084 0
M  V30 28 O -0.919671 -5.870443 0.472262 0
M  V30 29 C -0.645688 -7.011046 -0.113453 0
M  V30 30 C -2.217596 -4.528098 1.777603 0
M  V30 31 O -3.134794 -5.557696 1.984247 0
M  V30 32 C -4.213621 -5.708557 1.075877 0
M  V30 33 H -3.767991 -1.043807 3.065537 0
M  V30 34 H -3.193634 -1.683234 4.622656 0
M  V30 35 H -4.909899 -1.828655 4.212631 0
M  V30 36 H -1.799299 -1.364039 2.658426 0
M  V30 37 H 1.765333 1.239593 3.869726 0
M  V30 38 H 2.941789 3.148884 4.844901 0
M  V30 39 H 4.333724 4.675691 3.398569 0
M  V30 40 H 4.484317 4.214724 0.989400 0
M  V30 41 H 1.209186 2.634009 -0.563842 0
M  V30 42 H 2.617116 2.888912 -3.093969 0
M  V30 43 H 2.246098 1.195590 -2.767391 0
M  V30 44 H 0.224421 4.476839 -3.466792 0
M  V30 45 H -2.338738 3.708457 -4.008611 0
M  V30 46 H -2.311316 1.045806 -3.437346 0
M  V30 47 H 0.675300 -3.784705 0.220951 0
M  V30 48 H -1.499026 -7.422758 -0.723200 0
M  V30 49 H -0.356833 -7.811577 0.635116 0
M  V30 50 H 0.259452 -6.915184 -0.784136 0
M  V30 51 H -5.064761 -6.103900 1.662061 0
M  V30 52 H -3.931249 -6.541610 0.373800 0
M  V30 53 H -4.415363 -4.793449 0.513786 0
M  V30 END ATOM
M  V30 BEGIN BOND
M  V30 1 1 1 2
M  V30 2 1 2 3
M  V30 3 2 3 4
M  V30 4 1 4 5
M  V30 5 1 5 6
M  V30 6 2 6 7
M  V30 7 1 7 8
M  V30 8 1 8 9
M  V30 9 1 9 10
M  V30 10 2 10 11
M  V30 11 1 11 12
M  V30 12 2 12 13
M  V30 13 1 13 14
M  V30 14 2 14 15
M  V30 15 1 15 16
M  V30 16 2 16 17
M  V30 17 1 16 18
M  V30 18 1 18 19
M  V30 19 1 19 20
M  V30 20 2 20 21
M  V30 21 1 21 22
M  V30 22 2 22 23
M  V30 23 1 23 24
M  V30 24 2 9 25
M  V30 25 2 5 26
M  V30 26 1 26 27
M  V30 27 1 27 28
M  V30 28 1 28 29
M  V30 29 2 27 30
M  V30 30 1 30 31
M  V30 31 1 31 32
M  V30 32 1 30 3
M  V30 33 1 25 6
M  V30 34 1 15 10
M  V30 35 1 24 20
M  V30 36 1 1 33
M  V30 37 1 1 34
M  V30 38 1 1 35
M  V30 39 1 4 36
M  V30 40 1 11 37
M  V30 41 1 12 38
M  V30 42 1 13 39
M  V30 43 1 14 40
M  V30 44 1 18 41
M  V30 45 1 19 42
M  V30 46 1 19 43
M  V30 47 1 21 44
M  V30 48 1 22 45
M  V30 49 1 23 46
M  V30 50 1 26 47
M  V30 51 1 29 48
M  V30 52 1 29 49
M  V30 53 1 29 50
M  V30 54 1 32 51
M  V30 55 1 32 52
M  V30 56 1 32 53
M  V30 END BOND
M  V30 END CTAB
M  END
>  <Dataset>  (582) 
ChEMBL_Kinases

>  <Ligand_Instance>  (582) 
nan

>  <PDB_ID>  (582) 
nan

>  <Standardized_SMILES>  (582) 
COc1cc(-c2noc(-c3ccccc3C(=O)NCc3ccco3)n2)cc(OC)c1OC

>  <Name>  (582) 
nan

>  <Pocket>  (582) 
nan

>  <ATP_Site>  (582) 
nan

>  <Peripheral>  (582) 
nan

>  <Num_H_Atoms_ProtBoundConf>  (582) 
nan

>  <Num_Resolved_Atoms>  (582) 
nan

>  <Num_Not_Resolved_Atoms>  (582) 
nan

$$$$
CHEMBL1348621
     RDKit          3D

  0  0  0  0  0  0  0  0  0  0999 V3000
M  V30 BEGIN CTAB
M  V30 COUNTS 60 63 0 0 0
M  V30 BEGIN ATOM
M  V30 1 O 1.859928 1.706595 0.044479 0
M  V30 2 C 2.046664 0.504177 -0.276489 0
M  V30 3 C 3.119664 -0.490595 -0.070343 0
M  V30 4 C 4.282152 0.048107 0.703394 0
M  V30 5 C 3.851623 0.504849 2.050001 0
M  V30 6 N 3.450478 1.786451 2.210769 0
M  V30 7 C 3.101135 2.011742 3.488271 0
M  V30 8 C 2.623320 3.290695 3.997898 0
M  V30 9 C 2.528152 4.343394 3.124116 0
M  V30 10 C 2.078992 5.579457 3.551645 0
M  V30 11 C 1.740193 5.694667 4.869940 0
M  V30 12 C 1.805415 4.682288 5.823365 0
M  V30 13 C 2.268054 3.462496 5.318467 0
M  V30 14 F 2.368753 2.412786 6.163302 0
M  V30 15 N 3.303112 0.828716 4.094240 0
M  V30 16 O 3.741541 -0.042675 3.242408 0
M  V30 17 N 0.902737 0.040569 -1.025149 0
M  V30 18 C -0.150719 1.019822 -1.226805 0
M  V30 19 C -1.293806 0.483810 -2.002067 0
M  V30 20 N -1.985334 -0.608827 -1.493559 0
M  V30 21 C -2.759918 -0.434664 -0.310067 0
M  V30 22 C -3.352450 -1.744409 0.137335 0
M  V30 23 N -2.802389 -2.887504 -0.483580 0
M  V30 24 C -3.026084 -4.145980 0.125465 0
M  V30 25 C -2.411880 -5.296517 -0.612719 0
M  V30 26 C -1.126926 -5.715639 -0.341531 0
M  V30 27 C -0.503573 -6.769861 -0.985818 0
M  V30 28 C -1.295627 -7.390489 -1.954481 0
M  V30 29 C -2.595694 -7.044070 -2.299449 0
M  V30 30 C -3.145533 -5.967986 -1.597831 0
M  V30 31 C -2.593219 -2.861054 -1.883009 0
M  V30 32 C -2.628678 -1.474196 -2.435170 0
M  V30 33 H 3.494440 -0.922660 -1.018607 0
M  V30 34 H 2.695405 -1.330417 0.502814 0
M  V30 35 H 4.843784 0.828593 0.175881 0
M  V30 36 H 4.983638 -0.813512 0.866695 0
M  V30 37 H 2.790841 4.279077 2.073106 0
M  V30 38 H 1.986170 6.446085 2.894459 0
M  V30 39 H 1.379674 6.658756 5.246954 0
M  V30 40 H 1.523989 4.828048 6.855805 0
M  V30 41 H 0.808015 -0.931499 -1.410991 0
M  V30 42 H -0.400706 1.401235 -0.223745 0
M  V30 43 H 0.317525 1.878549 -1.755600 0
M  V30 44 H -0.901813 0.221443 -3.019305 0
M  V30 45 H -2.013613 1.310398 -2.199298 0
M  V30 46 H -2.271849 0.147820 0.480345 0
M  V30 47 H -3.634739 0.210473 -0.615835 0
M  V30 48 H -4.472802 -1.744379 0.132181 0
M  V30 49 H -3.102690 -1.816707 1.237332 0
M  V30 50 H -2.493949 -4.124778 1.120350 0
M  V30 51 H -4.105937 -4.352427 0.234745 0
M  V30 52 H -0.536716 -5.207979 0.421502 0
M  V30 53 H 0.490325 -7.118523 -0.799084 0
M  V30 54 H -0.818799 -8.227918 -2.475221 0
M  V30 55 H -3.099045 -7.594199 -3.056664 0
M  V30 56 H -4.157330 -5.665861 -1.838229 0
M  V30 57 H -3.301799 -3.466033 -2.494061 0
M  V30 58 H -1.542316 -3.234871 -2.065449 0
M  V30 59 H -3.690623 -1.137412 -2.501290 0
M  V30 60 H -2.212489 -1.392421 -3.450948 0
M  V30 END ATOM
M  V30 BEGIN BOND
M  V30 1 2 1 2
M  V30 2 1 2 3
M  V30 3 1 3 4
M  V30 4 1 4 5
M  V30 5 2 5 6
M  V30 6 1 6 7
M  V30 7 1 7 8
M  V30 8 2 8 9
M  V30 9 1 9 10
M  V30 10 2 10 11
M  V30 11 1 11 12
M  V30 12 2 12 13
M  V30 13 1 13 14
M  V30 14 2 7 15
M  V30 15 1 15 16
M  V30 16 1 2 17
M  V30 17 1 17 18
M  V30 18 1 18 19
M  V30 19 1 19 20
M  V30 20 1 20 21
M  V30 21 1 21 22
M  V30 22 1 22 23
M  V30 23 1 23 24
M  V30 24 1 24 25
M  V30 25 2 25 26
M  V30 26 1 26 27
M  V30 27 2 27 28
M  V30 28 1 28 29
M  V30 29 2 29 30
M  V30 30 1 23 31
M  V30 31 1 31 32
M  V30 32 1 16 5
M  V30 33 1 32 20
M  V30 34 1 13 8
M  V30 35 1 30 25
M  V30 36 1 3 33
M  V30 37 1 3 34
M  V30 38 1 4 35
M  V30 39 1 4 36
M  V30 40 1 9 37
M  V30 41 1 10 38
M  V30 42 1 11 39
M  V30 43 1 12 40
M  V30 44 1 17 41
M  V30 45 1 18 42
M  V30 46 1 18 43
M  V30 47 1 19 44
M  V30 48 1 19 45
M  V30 49 1 21 46
M  V30 50 1 21 47
M  V30 51 1 22 48
M  V30 52 1 22 49
M  V30 53 1 24 50
M  V30 54 1 24 51
M  V30 55 1 26 52
M  V30 56 1 27 53
M  V30 57 1 28 54
M  V30 58 1 29 55
M  V30 59 1 30 56
M  V30 60 1 31 57
M  V30 61 1 31 58
M  V30 62 1 32 59
M  V30 63 1 32 60
M  V30 END BOND
M  V30 END CTAB
M  END
>  <Dataset>  (583) 
ChEMBL_Kinases

>  <Ligand_Instance>  (583) 
nan

>  <PDB_ID>  (583) 
nan

>  <Standardized_SMILES>  (583) 
O=C(CCc1nc(-c2ccccc2F)no1)NCCN1CCN(Cc2ccccc2)CC1

>  <Name>  (583) 
nan

>  <Pocket>  (583) 
nan

>  <ATP_Site>  (583) 
nan

>  <Peripheral>  (583) 
nan

>  <Num_H_Atoms_ProtBoundConf>  (583) 
nan

>  <Num_Resolved_Atoms>  (583) 
nan

>  <Num_Not_Resolved_Atoms>  (583) 
nan

$$$$
CHEMBL1348663
     RDKit          3D

  0  0  0  0  0  0  0  0  0  0999 V3000
M  V30 BEGIN CTAB
M  V30 COUNTS 61 64 0 0 0
M  V30 BEGIN ATOM
M  V30 1 C -0.092774 -5.058642 -4.427694 0
M  V30 2 O -0.541144 -3.854824 -5.018195 0
M  V30 3 C 0.062084 -2.630901 -4.765458 0
M  V30 4 C -0.361622 -1.447062 -5.330469 0
M  V30 5 C 0.273319 -0.262514 -5.045018 0
M  V30 6 C 1.341803 -0.166813 -4.204204 0
M  V30 7 N 2.009751 1.035070 -3.885572 0
M  V30 8 C 3.223278 1.166735 -3.102290 0
M  V30 9 C 2.879737 1.856176 -1.779970 0
M  V30 10 N 1.711015 2.696458 -1.972874 0
M  V30 11 C 0.802765 2.660384 -0.903271 0
M  V30 12 O 1.270182 1.869835 -0.022929 0
M  V30 13 C -0.493054 3.319043 -0.632807 0
M  V30 14 C -1.036580 2.926473 0.720121 0
M  V30 15 N -2.286411 3.533243 1.027530 0
M  V30 16 S -2.883232 3.065900 2.575653 0
M  V30 17 O -1.861881 3.416770 3.609054 0
M  V30 18 O -4.153256 3.790095 2.903862 0
M  V30 19 C -3.162703 1.336126 2.653172 0
M  V30 20 C -4.387717 0.812121 2.343515 0
M  V30 21 C -4.605963 -0.548369 2.400665 0
M  V30 22 C -3.569820 -1.396401 2.777338 0
M  V30 23 C -2.317219 -0.880187 3.095796 0
M  V30 24 C -2.141991 0.490245 3.024994 0
M  V30 25 C -1.252853 -1.839944 3.489374 0
M  V30 26 C -1.487668 -3.199536 2.835951 0
M  V30 27 C -2.851924 -3.689578 3.181926 0
M  V30 28 O -3.168696 -4.774575 3.750657 0
M  V30 29 N -3.895654 -2.783561 2.802224 0
M  V30 30 C 1.737580 3.395513 -3.241440 0
M  V30 31 C 1.529321 2.352810 -4.323572 0
M  V30 32 C 1.771258 -1.339930 -3.636953 0
M  V30 33 C 1.143485 -2.550241 -3.912039 0
M  V30 34 H 0.876282 -5.405300 -4.839986 0
M  V30 35 H -0.842373 -5.840541 -4.677589 0
M  V30 36 H -0.030362 -4.970754 -3.318277 0
M  V30 37 H -1.201514 -1.501750 -5.995650 0
M  V30 38 H -0.119160 0.617015 -5.530387 0
M  V30 39 H 3.748700 0.216319 -2.920097 0
M  V30 40 H 3.916174 1.816168 -3.706317 0
M  V30 41 H 3.716542 2.527535 -1.489601 0
M  V30 42 H 2.754261 1.099512 -0.977214 0
M  V30 43 H -0.323547 4.415248 -0.652855 0
M  V30 44 H -1.249911 3.118570 -1.406437 0
M  V30 45 H -1.131351 1.829331 0.759829 0
M  V30 46 H -0.311047 3.232681 1.528672 0
M  V30 47 H -3.003027 3.456598 0.282379 0
M  V30 48 H -5.167037 1.522787 2.054111 0
M  V30 49 H -5.610236 -0.840144 2.134006 0
M  V30 50 H -1.171577 0.893116 3.272657 0
M  V30 51 H -1.259103 -2.027104 4.588569 0
M  V30 52 H -0.250480 -1.498390 3.174572 0
M  V30 53 H -1.428760 -3.066176 1.740045 0
M  V30 54 H -0.742341 -3.905391 3.248831 0
M  V30 55 H -4.860226 -3.125217 2.554887 0
M  V30 56 H 0.935176 4.156199 -3.323996 0
M  V30 57 H 2.737578 3.864393 -3.338364 0
M  V30 58 H 2.114290 2.625999 -5.205488 0
M  V30 59 H 0.449707 2.275600 -4.528530 0
M  V30 60 H 2.598665 -1.443842 -2.951782 0
M  V30 61 H 1.467796 -3.492160 -3.473944 0
M  V30 END ATOM
M  V30 BEGIN BOND
M  V30 1 1 1 2
M  V30 2 1 2 3
M  V30 3 2 3 4
M  V30 4 1 4 5
M  V30 5 2 5 6
M  V30 6 1 6 7
M  V30 7 1 7 8
M  V30 8 1 8 9
M  V30 9 1 9 10
M  V30 10 1 10 11
M  V30 11 2 11 12
M  V30 12 1 11 13
M  V30 13 1 13 14
M  V30 14 1 14 15
M  V30 15 1 15 16
M  V30 16 2 16 17
M  V30 17 2 16 18
M  V30 18 1 16 19
M  V30 19 2 19 20
M  V30 20 1 20 21
M  V30 21 2 21 22
M  V30 22 1 22 23
M  V30 23 2 23 24
M  V30 24 1 23 25
M  V30 25 1 25 26
M  V30 26 1 26 27
M  V30 27 2 27 28
M  V30 28 1 27 29
M  V30 29 1 10 30
M  V30 30 1 30 31
M  V30 31 1 6 32
M  V30 32 2 32 33
M  V30 33 1 33 3
M  V30 34 1 31 7
M  V30 35 1 24 19
M  V30 36 1 29 22
M  V30 37 1 1 34
M  V30 38 1 1 35
M  V30 39 1 1 36
M  V30 40 1 4 37
M  V30 41 1 5 38
M  V30 42 1 8 39
M  V30 43 1 8 40
M  V30 44 1 9 41
M  V30 45 1 9 42
M  V30 46 1 13 43
M  V30 47 1 13 44
M  V30 48 1 14 45
M  V30 49 1 14 46
M  V30 50 1 15 47
M  V30 51 1 20 48
M  V30 52 1 21 49
M  V30 53 1 24 50
M  V30 54 1 25 51
M  V30 55 1 25 52
M  V30 56 1 26 53
M  V30 57 1 26 54
M  V30 58 1 29 55
M  V30 59 1 30 56
M  V30 60 1 30 57
M  V30 61 1 31 58
M  V30 62 1 31 59
M  V30 63 1 32 60
M  V30 64 1 33 61
M  V30 END BOND
M  V30 END CTAB
M  END
>  <Dataset>  (584) 
ChEMBL_Kinases

>  <Ligand_Instance>  (584) 
nan

>  <PDB_ID>  (584) 
nan

>  <Standardized_SMILES>  (584) 
COc1ccc(N2CCN(C(=O)CCNS(=O)(=O)c3ccc4c(c3)CCC(=O)N4)CC2)cc1

>  <Name>  (584) 
nan

>  <Pocket>  (584) 
nan

>  <ATP_Site>  (584) 
nan

>  <Peripheral>  (584) 
nan

>  <Num_H_Atoms_ProtBoundConf>  (584) 
nan

>  <Num_Resolved_Atoms>  (584) 
nan

>  <Num_Not_Resolved_Atoms>  (584) 
nan

$$$$
CHEMBL1348815
     RDKit          3D

  0  0  0  0  0  0  0  0  0  0999 V3000
M  V30 BEGIN CTAB
M  V30 COUNTS 55 58 0 0 0
M  V30 BEGIN ATOM
M  V30 1 O 1.593239 1.092278 0.608165 0
M  V30 2 C 2.293901 0.257958 -0.002668 0
M  V30 3 N 2.093835 -0.216086 -1.312003 0
M  V30 4 C 0.919623 0.379209 -1.960906 0
M  V30 5 C 1.016800 1.844562 -2.068495 0
M  V30 6 C 1.577438 2.475079 -3.148173 0
M  V30 7 C 1.499230 3.832797 -2.912768 0
M  V30 8 C 0.884539 3.917373 -1.683478 0
M  V30 9 O 0.605046 2.749513 -1.195283 0
M  V30 10 C 3.443056 -0.243213 0.801943 0
M  V30 11 C 3.455948 0.402711 2.168043 0
M  V30 12 C 2.289258 0.060582 3.007074 0
M  V30 13 N 1.726941 -1.239710 2.881878 0
M  V30 14 S 0.092217 -1.168704 3.387910 0
M  V30 15 O -0.147089 -2.105442 4.561367 0
M  V30 16 O -0.187694 0.221572 3.972512 0
M  V30 17 N -1.082278 -1.415829 2.189046 0
M  V30 18 C -1.118347 -2.660307 1.530143 0
M  V30 19 C -2.583714 -3.031950 1.284901 0
M  V30 20 C -3.302691 -1.977064 0.474126 0
M  V30 21 C -3.063437 -0.610551 1.073630 0
M  V30 22 C -2.331495 -0.765981 2.404934 0
M  V30 23 O -2.910602 -2.010234 -0.861742 0
M  V30 24 C -3.827278 -2.799002 -1.528579 0
M  V30 25 C -4.867072 -3.186454 -0.527119 0
M  V30 26 O -4.650069 -2.289422 0.514752 0
M  V30 27 C 1.808066 -1.825774 1.585684 0
M  V30 28 C 3.239172 -1.720772 1.072452 0
M  V30 29 H 2.776067 -0.917962 -1.676557 0
M  V30 30 H 0.699745 -0.059550 -2.936016 0
M  V30 31 H 0.045267 0.174333 -1.292945 0
M  V30 32 H 2.014240 2.029205 -4.044313 0
M  V30 33 H 1.831246 4.643468 -3.526486 0
M  V30 34 H 0.625976 4.811993 -1.116017 0
M  V30 35 H 4.420428 -0.073371 0.329470 0
M  V30 36 H 4.418611 0.177786 2.644478 0
M  V30 37 H 3.420611 1.510017 1.975921 0
M  V30 38 H 1.485730 0.850758 2.933461 0
M  V30 39 H 2.625159 0.159216 4.081531 0
M  V30 40 H -0.621987 -2.673550 0.564086 0
M  V30 41 H -0.702880 -3.500608 2.146245 0
M  V30 42 H -2.622354 -3.999362 0.745174 0
M  V30 43 H -3.092386 -3.130438 2.251946 0
M  V30 44 H -2.401972 -0.024895 0.400910 0
M  V30 45 H -4.046316 -0.122552 1.209149 0
M  V30 46 H -2.987800 -1.293472 3.122365 0
M  V30 47 H -2.121938 0.263844 2.769269 0
M  V30 48 H -3.304246 -3.698144 -1.931639 0
M  V30 49 H -4.309422 -2.248900 -2.383888 0
M  V30 50 H -5.897725 -3.077498 -0.942700 0
M  V30 51 H -4.762650 -4.238220 -0.183536 0
M  V30 52 H 1.182089 -1.215892 0.911358 0
M  V30 53 H 1.473707 -2.866867 1.623825 0
M  V30 54 H 3.903175 -2.032875 1.911915 0
M  V30 55 H 3.428163 -2.354537 0.202894 0
M  V30 END ATOM
M  V30 BEGIN BOND
M  V30 1 2 1 2
M  V30 2 1 2 3
M  V30 3 1 3 4
M  V30 4 1 4 5
M  V30 5 2 5 6
M  V30 6 1 6 7
M  V30 7 2 7 8
M  V30 8 1 8 9
M  V30 9 1 2 10
M  V30 10 1 10 11
M  V30 11 1 11 12
M  V30 12 1 12 13
M  V30 13 1 13 14
M  V30 14 2 14 15
M  V30 15 2 14 16
M  V30 16 1 14 17
M  V30 17 1 17 18
M  V30 18 1 18 19
M  V30 19 1 19 20
M  V30 20 1 20 21
M  V30 21 1 21 22
M  V30 22 1 20 23
M  V30 23 1 23 24
M  V30 24 1 24 25
M  V30 25 1 25 26
M  V30 26 1 13 27
M  V30 27 1 27 28
M  V30 28 1 9 5
M  V30 29 1 28 10
M  V30 30 1 22 17
M  V30 31 1 26 20
M  V30 32 1 3 29
M  V30 33 1 4 30
M  V30 34 1 4 31
M  V30 35 1 6 32
M  V30 36 1 7 33
M  V30 37 1 8 34
M  V30 38 1 10 35
M  V30 39 1 11 36
M  V30 40 1 11 37
M  V30 41 1 12 38
M  V30 42 1 12 39
M  V30 43 1 18 40
M  V30 44 1 18 41
M  V30 45 1 19 42
M  V30 46 1 19 43
M  V30 47 1 21 44
M  V30 48 1 21 45
M  V30 49 1 22 46
M  V30 50 1 22 47
M  V30 51 1 24 48
M  V30 52 1 24 49
M  V30 53 1 25 50
M  V30 54 1 25 51
M  V30 55 1 27 52
M  V30 56 1 27 53
M  V30 57 1 28 54
M  V30 58 1 28 55
M  V30 END BOND
M  V30 END CTAB
M  END
>  <Dataset>  (585) 
ChEMBL_Kinases

>  <Ligand_Instance>  (585) 
nan

>  <PDB_ID>  (585) 
nan

>  <Standardized_SMILES>  (585) 
O=C(NCc1ccco1)C1CCN(S(=O)(=O)N2CCC3(CC2)OCCO3)CC1

>  <Name>  (585) 
nan

>  <Pocket>  (585) 
nan

>  <ATP_Site>  (585) 
nan

>  <Peripheral>  (585) 
nan

>  <Num_H_Atoms_ProtBoundConf>  (585) 
nan

>  <Num_Resolved_Atoms>  (585) 
nan

>  <Num_Not_Resolved_Atoms>  (585) 
nan

$$$$
CHEMBL1348876
     RDKit          3D

  0  0  0  0  0  0  0  0  0  0999 V3000
M  V30 BEGIN CTAB
M  V30 COUNTS 50 52 0 0 0
M  V30 BEGIN ATOM
M  V30 1 C 2.519836 -5.751518 1.832957 0
M  V30 2 C 2.424774 -4.899633 0.639088 0
M  V30 3 C 1.234123 -4.842587 -0.047291 0
M  V30 4 C 1.050540 -4.073610 -1.174866 0
M  V30 5 C 2.075344 -3.305754 -1.681255 0
M  V30 6 S 2.198111 -2.208325 -3.066757 0
M  V30 7 C 1.859905 -0.495701 -2.599783 0
M  V30 8 C 0.460489 -0.329946 -2.222073 0
M  V30 9 O 0.570575 -1.501436 -2.589816 0
M  V30 10 N -0.623152 0.434679 -1.743899 0
M  V30 11 C -0.529055 1.828648 -1.358961 0
M  V30 12 C -0.188555 1.966594 0.081846 0
M  V30 13 N -0.871987 2.063689 1.235793 0
M  V30 14 C -0.022788 2.171237 2.273091 0
M  V30 15 C -0.430950 2.294449 3.671010 0
M  V30 16 C -0.603292 3.490556 4.334725 0
M  V30 17 C -0.992179 3.474230 5.657246 0
M  V30 18 C -1.198587 2.261983 6.281892 0
M  V30 19 C -1.039233 1.028547 5.659897 0
M  V30 20 C -0.644307 1.090456 4.319764 0
M  V30 21 N 1.204701 2.136843 1.716114 0
M  V30 22 O 1.095149 2.015759 0.421236 0
M  V30 23 C -1.871411 -0.285679 -1.661318 0
M  V30 24 C -2.464489 -0.321778 -0.281617 0
M  V30 25 C -2.919084 0.301190 -2.590951 0
M  V30 26 C 3.286872 -3.356896 -0.992496 0
M  V30 27 C 3.470283 -4.140226 0.153772 0
M  V30 28 H 2.911943 -6.766344 1.648677 0
M  V30 29 H 3.168982 -5.283290 2.629795 0
M  V30 30 H 1.525486 -5.894495 2.311345 0
M  V30 31 H 0.331302 -5.382634 0.216311 0
M  V30 32 H 0.144922 -3.996256 -1.757190 0
M  V30 33 H 2.490130 -0.278203 -1.684511 0
M  V30 34 H 2.171248 0.207408 -3.407434 0
M  V30 35 H 0.150471 2.418006 -1.999383 0
M  V30 36 H -1.546171 2.272361 -1.546385 0
M  V30 37 H -0.424944 4.405513 3.786544 0
M  V30 38 H -1.131031 4.409859 6.189752 0
M  V30 39 H -1.504599 2.229337 7.322297 0
M  V30 40 H -1.210178 0.099517 6.181821 0
M  V30 41 H -0.521337 0.130457 3.839831 0
M  V30 42 H -1.737134 -1.338103 -2.000464 0
M  V30 43 H -1.712073 -0.503776 0.511328 0
M  V30 44 H -3.140779 -1.222528 -0.242906 0
M  V30 45 H -3.124460 0.529671 -0.053248 0
M  V30 46 H -3.380220 1.218890 -2.169431 0
M  V30 47 H -2.470140 0.510689 -3.589939 0
M  V30 48 H -3.745579 -0.415359 -2.775002 0
M  V30 49 H 4.223264 -2.826774 -1.225504 0
M  V30 50 H 4.380785 -4.211154 0.715613 0
M  V30 END ATOM
M  V30 BEGIN BOND
M  V30 1 1 1 2
M  V30 2 2 2 3
M  V30 3 1 3 4
M  V30 4 2 4 5
M  V30 5 1 5 6
M  V30 6 1 6 7
M  V30 7 1 7 8
M  V30 8 2 8 9
M  V30 9 1 8 10
M  V30 10 1 10 11
M  V30 11 1 11 12
M  V30 12 2 12 13
M  V30 13 1 13 14
M  V30 14 1 14 15
M  V30 15 2 15 16
M  V30 16 1 16 17
M  V30 17 2 17 18
M  V30 18 1 18 19
M  V30 19 2 19 20
M  V30 20 2 14 21
M  V30 21 1 21 22
M  V30 22 1 10 23
M  V30 23 1 23 24
M  V30 24 1 23 25
M  V30 25 1 5 26
M  V30 26 2 26 27
M  V30 27 1 27 2
M  V30 28 1 22 12
M  V30 29 1 20 15
M  V30 30 1 1 28
M  V30 31 1 1 29
M  V30 32 1 1 30
M  V30 33 1 3 31
M  V30 34 1 4 32
M  V30 35 1 7 33
M  V30 36 1 7 34
M  V30 37 1 11 35
M  V30 38 1 11 36
M  V30 39 1 16 37
M  V30 40 1 17 38
M  V30 41 1 18 39
M  V30 42 1 19 40
M  V30 43 1 20 41
M  V30 44 1 23 42
M  V30 45 1 24 43
M  V30 46 1 24 44
M  V30 47 1 24 45
M  V30 48 1 25 46
M  V30 49 1 25 47
M  V30 50 1 25 48
M  V30 51 1 26 49
M  V30 52 1 27 50
M  V30 END BOND
M  V30 END CTAB
M  END
>  <Dataset>  (586) 
ChEMBL_Kinases

>  <Ligand_Instance>  (586) 
nan

>  <PDB_ID>  (586) 
nan

>  <Standardized_SMILES>  (586) 
Cc1ccc(SCC(=O)N(Cc2nc(-c3ccccc3)no2)C(C)C)cc1

>  <Name>  (586) 
nan

>  <Pocket>  (586) 
nan

>  <ATP_Site>  (586) 
nan

>  <Peripheral>  (586) 
nan

>  <Num_H_Atoms_ProtBoundConf>  (586) 
nan

>  <Num_Resolved_Atoms>  (586) 
nan

>  <Num_Not_Resolved_Atoms>  (586) 
nan

$$$$
CHEMBL1348904
     RDKit          3D

  0  0  0  0  0  0  0  0  0  0999 V3000
M  V30 BEGIN CTAB
M  V30 COUNTS 47 49 0 0 0
M  V30 BEGIN ATOM
M  V30 1 C -2.647103 -5.557357 -2.026354 0
M  V30 2 O -1.565058 -5.511632 -1.144431 0
M  V30 3 C -0.541310 -4.597794 -1.210731 0
M  V30 4 C -0.598035 -3.664513 -2.224633 0
M  V30 5 C 0.402811 -2.718318 -2.343459 0
M  V30 6 C 1.466341 -2.684810 -1.464655 0
M  V30 7 C 2.553537 -1.685247 -1.559517 0
M  V30 8 N 2.263760 -0.525339 -0.776448 0
M  V30 9 C 1.367494 0.537841 -1.068800 0
M  V30 10 O 0.719044 0.501640 -2.146679 0
M  V30 11 C 1.177021 1.666473 -0.159742 0
M  V30 12 C 1.763213 1.956966 1.077929 0
M  V30 13 C 1.251085 3.154108 1.554031 0
M  V30 14 C 1.579143 3.839724 2.807575 0
M  V30 15 O 0.810743 3.506752 3.911606 0
M  V30 16 C -0.552976 3.638539 4.071311 0
M  V30 17 C -1.309752 2.532568 3.675244 0
M  V30 18 F -0.792155 1.391186 3.165817 0
M  V30 19 C -2.702010 2.585517 3.804722 0
M  V30 20 C -3.310441 3.734672 4.324035 0
M  V30 21 C -2.519737 4.801487 4.701307 0
M  V30 22 C -1.132455 4.780093 4.585266 0
M  V30 23 F -0.360232 5.830890 4.957449 0
M  V30 24 O 0.402212 3.546739 0.634771 0
M  V30 25 N 0.347116 2.705746 -0.354902 0
M  V30 26 C 1.495929 -3.637735 -0.453673 0
M  V30 27 C 0.502512 -4.599587 -0.312288 0
M  V30 28 O 0.458709 -5.572926 0.656409 0
M  V30 29 C 1.449471 -5.716733 1.655425 0
M  V30 30 H -3.398570 -6.279524 -1.682177 0
M  V30 31 H -2.230867 -5.932747 -3.004658 0
M  V30 32 H -3.090814 -4.548469 -2.183581 0
M  V30 33 H -1.423320 -3.646419 -2.952180 0
M  V30 34 H 0.322566 -2.009376 -3.149423 0
M  V30 35 H 2.672728 -1.358292 -2.621701 0
M  V30 36 H 3.486710 -2.151816 -1.193481 0
M  V30 37 H 2.760927 -0.398139 0.157068 0
M  V30 38 H 2.495132 1.314386 1.544092 0
M  V30 39 H 1.599883 4.955906 2.668543 0
M  V30 40 H 2.637115 3.582267 3.053441 0
M  V30 41 H -3.320292 1.726694 3.499653 0
M  V30 42 H -4.397590 3.804252 4.436848 0
M  V30 43 H -2.943696 5.721806 5.112364 0
M  V30 44 H 2.299464 -3.673752 0.273979 0
M  V30 45 H 1.036335 -6.249295 2.544408 0
M  V30 46 H 1.792985 -4.730476 2.000332 0
M  V30 47 H 2.312512 -6.310229 1.281484 0
M  V30 END ATOM
M  V30 BEGIN BOND
M  V30 1 1 1 2
M  V30 2 1 2 3
M  V30 3 2 3 4
M  V30 4 1 4 5
M  V30 5 2 5 6
M  V30 6 1 6 7
M  V30 7 1 7 8
M  V30 8 1 8 9
M  V30 9 2 9 10
M  V30 10 1 9 11
M  V30 11 1 11 12
M  V30 12 2 12 13
M  V30 13 1 13 14
M  V30 14 1 14 15
M  V30 15 1 15 16
M  V30 16 2 16 17
M  V30 17 1 17 18
M  V30 18 1 17 19
M  V30 19 2 19 20
M  V30 20 1 20 21
M  V30 21 2 21 22
M  V30 22 1 22 23
M  V30 23 1 13 24
M  V30 24 1 24 25
M  V30 25 1 6 26
M  V30 26 2 26 27
M  V30 27 1 27 28
M  V30 28 1 28 29
M  V30 29 1 27 3
M  V30 30 2 25 11
M  V30 31 1 22 16
M  V30 32 1 1 30
M  V30 33 1 1 31
M  V30 34 1 1 32
M  V30 35 1 4 33
M  V30 36 1 5 34
M  V30 37 1 7 35
M  V30 38 1 7 36
M  V30 39 1 8 37
M  V30 40 1 12 38
M  V30 41 1 14 39
M  V30 42 1 14 40
M  V30 43 1 19 41
M  V30 44 1 20 42
M  V30 45 1 21 43
M  V30 46 1 26 44
M  V30 47 1 29 45
M  V30 48 1 29 46
M  V30 49 1 29 47
M  V30 END BOND
M  V30 END CTAB
M  END
>  <Dataset>  (587) 
ChEMBL_Kinases

>  <Ligand_Instance>  (587) 
nan

>  <PDB_ID>  (587) 
nan

>  <Standardized_SMILES>  (587) 
COc1ccc(CNC(=O)c2cc(COc3c(F)cccc3F)on2)cc1OC

>  <Name>  (587) 
nan

>  <Pocket>  (587) 
nan

>  <ATP_Site>  (587) 
nan

>  <Peripheral>  (587) 
nan

>  <Num_H_Atoms_ProtBoundConf>  (587) 
nan

>  <Num_Resolved_Atoms>  (587) 
nan

>  <Num_Not_Resolved_Atoms>  (587) 
nan

$$$$
CHEMBL1348490
     RDKit          3D

  0  0  0  0  0  0  0  0  0  0999 V3000
M  V30 BEGIN CTAB
M  V30 COUNTS 51 54 0 0 0
M  V30 BEGIN ATOM
M  V30 1 C 0.778429 1.438754 -2.804487 0
M  V30 2 C 1.564560 1.329928 -1.525091 0
M  V30 3 O 2.868795 1.328395 -1.505965 0
M  V30 4 C 3.343747 1.225138 -0.292367 0
M  V30 5 C 4.738183 1.188035 0.145553 0
M  V30 6 C 5.095662 1.075286 1.474899 0
M  V30 7 C 6.449357 1.051398 1.758436 0
M  V30 8 C 7.454955 1.133595 0.791424 0
M  V30 9 C 7.053833 1.246378 -0.538750 0
M  V30 10 C 5.714585 1.272881 -0.853129 0
M  V30 11 F 5.381832 1.383793 -2.160717 0
M  V30 12 N 2.265795 1.154152 0.541284 0
M  V30 13 C 1.137952 1.218088 -0.210641 0
M  V30 14 C -0.323610 1.196935 0.047398 0
M  V30 15 S -0.718439 1.041839 1.757680 0
M  V30 16 O -0.080960 2.210611 2.481960 0
M  V30 17 O -2.182831 1.179074 1.941393 0
M  V30 18 C -0.094012 -0.424781 2.484708 0
M  V30 19 C -0.589195 -1.679507 1.871933 0
M  V30 20 O 0.150211 -2.030763 0.887977 0
M  V30 21 N -1.743813 -2.436420 2.295061 0
M  V30 22 C -2.720822 -2.259726 3.348819 0
M  V30 23 C -4.026612 -1.871702 2.701855 0
M  V30 24 C -4.136482 -2.622743 1.427919 0
M  V30 25 C -5.382728 -2.360758 0.844019 0
M  V30 26 C -5.737234 -2.950814 -0.371358 0
M  V30 27 C -4.841812 -3.798119 -0.992367 0
M  V30 28 C -3.619948 -4.046550 -0.406620 0
M  V30 29 C -3.277973 -3.464860 0.785436 0
M  V30 30 C -2.009562 -3.637727 1.526751 0
M  V30 31 H -0.191073 0.883018 -2.686400 0
M  V30 32 H 0.501689 2.472569 -3.034548 0
M  V30 33 H 1.320547 0.926252 -3.618821 0
M  V30 34 H 4.346235 1.010519 2.237562 0
M  V30 35 H 6.729002 0.962128 2.810173 0
M  V30 36 H 8.496086 1.107875 1.096746 0
M  V30 37 H 7.857764 1.308646 -1.270625 0
M  V30 38 H -0.772877 0.367594 -0.539061 0
M  V30 39 H -0.718877 2.145186 -0.368892 0
M  V30 40 H 0.991876 -0.453225 2.592514 0
M  V30 41 H -0.482393 -0.443890 3.547538 0
M  V30 42 H -2.421291 -1.468239 4.066380 0
M  V30 43 H -2.849317 -3.234026 3.898734 0
M  V30 44 H -4.010316 -0.785762 2.493315 0
M  V30 45 H -4.888681 -2.077352 3.376387 0
M  V30 46 H -6.180272 -1.723131 1.212300 0
M  V30 47 H -6.680144 -2.791896 -0.875130 0
M  V30 48 H -5.084589 -4.279254 -1.946439 0
M  V30 49 H -2.874185 -4.698519 -0.839024 0
M  V30 50 H -2.183566 -4.502766 2.230345 0
M  V30 51 H -1.169775 -3.942245 0.888592 0
M  V30 END ATOM
M  V30 BEGIN BOND
M  V30 1 1 1 2
M  V30 2 1 2 3
M  V30 3 1 3 4
M  V30 4 1 4 5
M  V30 5 2 5 6
M  V30 6 1 6 7
M  V30 7 2 7 8
M  V30 8 1 8 9
M  V30 9 2 9 10
M  V30 10 1 10 11
M  V30 11 2 4 12
M  V30 12 1 12 13
M  V30 13 1 13 14
M  V30 14 1 14 15
M  V30 15 2 15 16
M  V30 16 2 15 17
M  V30 17 1 15 18
M  V30 18 1 18 19
M  V30 19 2 19 20
M  V30 20 1 19 21
M  V30 21 1 21 22
M  V30 22 1 22 23
M  V30 23 1 23 24
M  V30 24 2 24 25
M  V30 25 1 25 26
M  V30 26 2 26 27
M  V30 27 1 27 28
M  V30 28 2 28 29
M  V30 29 1 29 30
M  V30 30 2 13 2
M  V30 31 1 30 21
M  V30 32 1 10 5
M  V30 33 1 29 24
M  V30 34 1 1 31
M  V30 35 1 1 32
M  V30 36 1 1 33
M  V30 37 1 6 34
M  V30 38 1 7 35
M  V30 39 1 8 36
M  V30 40 1 9 37
M  V30 41 1 14 38
M  V30 42 1 14 39
M  V30 43 1 18 40
M  V30 44 1 18 41
M  V30 45 1 22 42
M  V30 46 1 22 43
M  V30 47 1 23 44
M  V30 48 1 23 45
M  V30 49 1 25 46
M  V30 50 1 26 47
M  V30 51 1 27 48
M  V30 52 1 28 49
M  V30 53 1 30 50
M  V30 54 1 30 51
M  V30 END BOND
M  V30 END CTAB
M  END
>  <Dataset>  (588) 
ChEMBL_Kinases

>  <Ligand_Instance>  (588) 
nan

>  <PDB_ID>  (588) 
nan

>  <Standardized_SMILES>  (588) 
Cc1oc(-c2ccccc2F)nc1CS(=O)(=O)CC(=O)N1CCc2ccccc2C1

>  <Name>  (588) 
nan

>  <Pocket>  (588) 
nan

>  <ATP_Site>  (588) 
nan

>  <Peripheral>  (588) 
nan

>  <Num_H_Atoms_ProtBoundConf>  (588) 
nan

>  <Num_Resolved_Atoms>  (588) 
nan

>  <Num_Not_Resolved_Atoms>  (588) 
nan

$$$$
CHEMBL1341584
     RDKit          3D

  0  0  0  0  0  0  0  0  0  0999 V3000
M  V30 BEGIN CTAB
M  V30 COUNTS 49 51 0 0 0
M  V30 BEGIN ATOM
M  V30 1 C 4.761793 -5.655645 -1.815151 0
M  V30 2 C 3.590306 -4.745249 -2.140820 0
M  V30 3 C 2.526912 -4.966274 -1.114174 0
M  V30 4 N 1.336723 -4.126068 -1.337595 0
M  V30 5 C 1.167196 -2.824917 -0.783702 0
M  V30 6 O 2.029934 -2.280735 -0.047573 0
M  V30 7 C -0.093938 -2.190632 -1.150197 0
M  V30 8 C -0.737753 -1.201105 -0.597139 0
M  V30 9 C -0.239625 -0.517717 0.587593 0
M  V30 10 C -0.748375 0.495969 1.270713 0
M  V30 11 N -0.304370 1.215846 2.448537 0
M  V30 12 C 0.961134 0.796831 2.963438 0
M  V30 13 C 1.400607 1.584109 4.156592 0
M  V30 14 C -1.329759 2.143748 2.702533 0
M  V30 15 C -1.373819 3.033077 3.739978 0
M  V30 16 C -2.454644 3.870291 3.890322 0
M  V30 17 C -3.521119 3.837331 3.003295 0
M  V30 18 C -3.433841 2.919068 1.965036 0
M  V30 19 C -2.357587 2.072733 1.799132 0
M  V30 20 C -2.038506 1.045533 0.780455 0
M  V30 21 C -1.805975 1.767306 -0.534444 0
M  V30 22 C -3.140984 0.049576 0.678631 0
M  V30 23 S -0.617814 -3.116901 -2.612618 0
M  V30 24 C 0.283228 -4.625599 -2.154419 0
M  V30 25 S -0.032934 -6.151623 -2.569540 0
M  V30 26 H 4.705997 -6.071622 -0.790861 0
M  V30 27 H 4.833014 -6.505432 -2.514663 0
M  V30 28 H 5.728647 -5.108270 -1.870085 0
M  V30 29 H 3.243254 -4.989009 -3.174666 0
M  V30 30 H 3.940013 -3.694024 -2.057396 0
M  V30 31 H 2.265670 -6.027161 -1.088719 0
M  V30 32 H 2.987860 -4.706465 -0.123182 0
M  V30 33 H -1.666555 -0.943725 -1.094392 0
M  V30 34 H 0.687885 -0.872562 1.004021 0
M  V30 35 H 1.735261 0.953363 2.152280 0
M  V30 36 H 0.992852 -0.308278 3.160294 0
M  V30 37 H 1.537356 2.650270 3.896279 0
M  V30 38 H 0.765736 1.365756 5.014804 0
M  V30 39 H 2.422165 1.207949 4.465265 0
M  V30 40 H -0.618749 3.150749 4.487347 0
M  V30 41 H -2.529983 4.585814 4.694996 0
M  V30 42 H -4.381568 4.489474 3.107734 0
M  V30 43 H -4.287099 2.910732 1.278077 0
M  V30 44 H -2.681402 1.769256 -1.179831 0
M  V30 45 H -0.959163 1.307243 -1.068759 0
M  V30 46 H -1.561966 2.836446 -0.337832 0
M  V30 47 H -3.933722 0.330690 1.432332 0
M  V30 48 H -3.657089 0.080575 -0.286335 0
M  V30 49 H -2.802302 -0.948172 1.010005 0
M  V30 END ATOM
M  V30 BEGIN BOND
M  V30 1 1 1 2
M  V30 2 1 2 3
M  V30 3 1 3 4
M  V30 4 1 4 5
M  V30 5 2 5 6
M  V30 6 1 5 7
M  V30 7 2 7 8
M  V30 8 1 8 9
M  V30 9 2 9 10
M  V30 10 1 10 11
M  V30 11 1 11 12
M  V30 12 1 12 13
M  V30 13 1 11 14
M  V30 14 2 14 15
M  V30 15 1 15 16
M  V30 16 2 16 17
M  V30 17 1 17 18
M  V30 18 2 18 19
M  V30 19 1 19 20
M  V30 20 1 20 21
M  V30 21 1 20 22
M  V30 22 1 7 23
M  V30 23 1 23 24
M  V30 24 2 24 25
M  V30 25 1 24 4
M  V30 26 1 20 10
M  V30 27 1 19 14
M  V30 28 1 1 26
M  V30 29 1 1 27
M  V30 30 1 1 28
M  V30 31 1 2 29
M  V30 32 1 2 30
M  V30 33 1 3 31
M  V30 34 1 3 32
M  V30 35 1 8 33
M  V30 36 1 9 34
M  V30 37 1 12 35
M  V30 38 1 12 36
M  V30 39 1 13 37
M  V30 40 1 13 38
M  V30 41 1 13 39
M  V30 42 1 15 40
M  V30 43 1 16 41
M  V30 44 1 17 42
M  V30 45 1 18 43
M  V30 46 1 21 44
M  V30 47 1 21 45
M  V30 48 1 21 46
M  V30 49 1 22 47
M  V30 50 1 22 48
M  V30 51 1 22 49
M  V30 END BOND
M  V30 END CTAB
M  END
>  <Dataset>  (589) 
ChEMBL_Kinases

>  <Ligand_Instance>  (589) 
nan

>  <PDB_ID>  (589) 
nan

>  <Standardized_SMILES>  (589) 
CCCN1C(=O)/C(=C\C=C2\N(CC)c3ccccc3C2(C)C)SC1=S

>  <Name>  (589) 
nan

>  <Pocket>  (589) 
nan

>  <ATP_Site>  (589) 
nan

>  <Peripheral>  (589) 
nan

>  <Num_H_Atoms_ProtBoundConf>  (589) 
nan

>  <Num_Resolved_Atoms>  (589) 
nan

>  <Num_Not_Resolved_Atoms>  (589) 
nan

$$$$
CHEMBL1341438
     RDKit          3D

  0  0  0  0  0  0  0  0  0  0999 V3000
M  V30 BEGIN CTAB
M  V30 COUNTS 64 67 0 0 0
M  V30 BEGIN ATOM
M  V30 1 C 2.176262 -3.420651 4.931209 0
M  V30 2 O 2.390272 -2.198073 4.244127 0
M  V30 3 C 1.419760 -1.619382 3.416131 0
M  V30 4 O 0.312732 -2.246358 3.300497 0
M  V30 5 C 1.735993 -0.357794 2.752265 0
M  V30 6 N 2.871718 0.389896 2.803952 0
M  V30 7 C 2.683033 1.475165 2.017480 0
M  V30 8 C 3.545857 2.517921 1.750660 0
M  V30 9 C 3.194973 3.567882 0.910394 0
M  V30 10 O 4.035482 4.632169 0.619025 0
M  V30 11 C 5.327095 4.628154 1.226422 0
M  V30 12 C 1.918893 3.516653 0.345258 0
M  V30 13 O 1.571223 4.560417 -0.489779 0
M  V30 14 C 0.358801 4.718593 -1.159871 0
M  V30 15 C 1.072215 2.463777 0.626143 0
M  V30 16 C 1.421866 1.421221 1.460910 0
M  V30 17 C 0.821928 0.258504 1.927218 0
M  V30 18 N -0.493924 -0.048086 1.504980 0
M  V30 19 C -1.737143 0.298126 2.094061 0
M  V30 20 O -1.717931 0.985980 3.158102 0
M  V30 21 C -3.038532 -0.112116 1.513136 0
M  V30 22 N -2.888521 -0.878715 0.346531 0
M  V30 23 C -2.358313 -2.175157 0.419974 0
M  V30 24 C -3.487300 -3.175371 0.218381 0
M  V30 25 N -3.925511 -3.046234 -1.112014 0
M  V30 26 C -3.478718 -4.015722 -2.056930 0
M  V30 27 C -2.029541 -4.128240 -2.236600 0
M  V30 28 C -1.292141 -3.387261 -3.143104 0
M  V30 29 C 0.070659 -3.477276 -3.334027 0
M  V30 30 C 0.777701 -4.369504 -2.573332 0
M  V30 31 C 0.112693 -5.142564 -1.649577 0
M  V30 32 C -1.248550 -5.009718 -1.502351 0
M  V30 33 C -4.099598 -1.754848 -1.632321 0
M  V30 34 C -3.677527 -0.609661 -0.778339 0
M  V30 35 H 3.028609 -4.123096 4.703899 0
M  V30 36 H 1.270129 -3.954913 4.634338 0
M  V30 37 H 2.162369 -3.298184 6.041737 0
M  V30 38 H 3.715527 0.103905 3.383561 0
M  V30 39 H 4.546135 2.548300 2.200051 0
M  V30 40 H 5.845912 3.657630 1.080586 0
M  V30 41 H 5.276324 4.825967 2.302976 0
M  V30 42 H 5.967904 5.439264 0.782225 0
M  V30 43 H 0.594282 5.230518 -2.137387 0
M  V30 44 H -0.091340 3.728611 -1.377278 0
M  V30 45 H -0.343621 5.401940 -0.631954 0
M  V30 46 H 0.080108 2.428492 0.184183 0
M  V30 47 H -0.433448 -0.606120 0.627366 0
M  V30 48 H -3.595155 0.821174 1.251691 0
M  V30 49 H -3.649298 -0.578357 2.312864 0
M  V30 50 H -1.801658 -2.415854 1.343843 0
M  V30 51 H -1.665272 -2.355286 -0.431745 0
M  V30 52 H -3.072058 -4.167345 0.477750 0
M  V30 53 H -4.306558 -3.025057 0.979341 0
M  V30 54 H -3.865934 -5.034718 -1.782297 0
M  V30 55 H -3.915722 -3.754977 -3.054649 0
M  V30 56 H -1.797061 -2.668088 -3.771773 0
M  V30 57 H 0.575945 -2.854366 -4.072469 0
M  V30 58 H 1.845833 -4.491477 -2.670261 0
M  V30 59 H 0.689641 -5.850802 -1.049258 0
M  V30 60 H -1.683921 -5.658268 -0.756355 0
M  V30 61 H -5.210153 -1.631536 -1.812378 0
M  V30 62 H -3.673076 -1.699075 -2.654014 0
M  V30 63 H -3.086833 0.100461 -1.431034 0
M  V30 64 H -4.543048 0.034151 -0.458454 0
M  V30 END ATOM
M  V30 BEGIN BOND
M  V30 1 1 1 2
M  V30 2 1 2 3
M  V30 3 2 3 4
M  V30 4 1 3 5
M  V30 5 1 5 6
M  V30 6 1 6 7
M  V30 7 2 7 8
M  V30 8 1 8 9
M  V30 9 1 9 10
M  V30 10 1 10 11
M  V30 11 2 9 12
M  V30 12 1 12 13
M  V30 13 1 13 14
M  V30 14 1 12 15
M  V30 15 2 15 16
M  V30 16 1 16 17
M  V30 17 1 17 18
M  V30 18 1 18 19
M  V30 19 2 19 20
M  V30 20 1 19 21
M  V30 21 1 21 22
M  V30 22 1 22 23
M  V30 23 1 23 24
M  V30 24 1 24 25
M  V30 25 1 25 26
M  V30 26 1 26 27
M  V30 27 2 27 28
M  V30 28 1 28 29
M  V30 29 2 29 30
M  V30 30 1 30 31
M  V30 31 2 31 32
M  V30 32 1 25 33
M  V30 33 1 33 34
M  V30 34 2 17 5
M  V30 35 1 34 22
M  V30 36 1 16 7
M  V30 37 1 32 27
M  V30 38 1 1 35
M  V30 39 1 1 36
M  V30 40 1 1 37
M  V30 41 1 6 38
M  V30 42 1 8 39
M  V30 43 1 11 40
M  V30 44 1 11 41
M  V30 45 1 11 42
M  V30 46 1 14 43
M  V30 47 1 14 44
M  V30 48 1 14 45
M  V30 49 1 15 46
M  V30 50 1 18 47
M  V30 51 1 21 48
M  V30 52 1 21 49
M  V30 53 1 23 50
M  V30 54 1 23 51
M  V30 55 1 24 52
M  V30 56 1 24 53
M  V30 57 1 26 54
M  V30 58 1 26 55
M  V30 59 1 28 56
M  V30 60 1 29 57
M  V30 61 1 30 58
M  V30 62 1 31 59
M  V30 63 1 32 60
M  V30 64 1 33 61
M  V30 65 1 33 62
M  V30 66 1 34 63
M  V30 67 1 34 64
M  V30 END BOND
M  V30 END CTAB
M  END
>  <Dataset>  (590) 
ChEMBL_Kinases

>  <Ligand_Instance>  (590) 
nan

>  <PDB_ID>  (590) 
nan

>  <Standardized_SMILES>  (590) 
COC(=O)c1[nH]c2cc(OC)c(OC)cc2c1NC(=O)CN1CCN(Cc2ccccc2)CC1

>  <Name>  (590) 
nan

>  <Pocket>  (590) 
nan

>  <ATP_Site>  (590) 
nan

>  <Peripheral>  (590) 
nan

>  <Num_H_Atoms_ProtBoundConf>  (590) 
nan

>  <Num_Resolved_Atoms>  (590) 
nan

>  <Num_Not_Resolved_Atoms>  (590) 
nan

$$$$
CHEMBL1341362
     RDKit          3D

  0  0  0  0  0  0  0  0  0  0999 V3000
M  V30 BEGIN CTAB
M  V30 COUNTS 33 35 0 0 0
M  V30 BEGIN ATOM
M  V30 1 O -0.781172 -1.749716 3.624695 0
M  V30 2 C -0.988193 -3.125534 3.576723 0
M  V30 3 C -0.425183 -3.785084 2.369645 0
M  V30 4 S -1.036938 -3.270062 0.791395 0
M  V30 5 C -0.665562 -1.590406 0.333633 0
M  V30 6 N 0.492871 -1.293035 -0.315574 0
M  V30 7 C 0.785826 -0.024957 -0.678822 0
M  V30 8 C 2.000097 0.384687 -1.374203 0
M  V30 9 C 2.996039 -0.493295 -1.742243 0
M  V30 10 C 4.161575 -0.162086 -2.398247 0
M  V30 11 C 4.310404 1.197474 -2.700493 0
M  V30 12 N 3.351143 2.064351 -2.349649 0
M  V30 13 C 2.226527 1.701081 -1.709362 0
M  V30 14 N -0.118971 0.919825 -0.368953 0
M  V30 15 C -1.273370 0.701134 0.264597 0
M  V30 16 C -2.173524 1.717586 0.555007 0
M  V30 17 C -3.366934 1.470756 1.208072 0
M  V30 18 C -3.689615 0.183797 1.590028 0
M  V30 19 C -2.787257 -0.809847 1.294989 0
M  V30 20 C -1.591315 -0.584941 0.644208 0
M  V30 21 H 0.040100 -1.507830 4.124728 0
M  V30 22 H -0.433917 -3.547224 4.457046 0
M  V30 23 H -2.045869 -3.394288 3.781487 0
M  V30 24 H 0.691022 -3.718120 2.455694 0
M  V30 25 H -0.648488 -4.887273 2.476456 0
M  V30 26 H 2.835762 -1.543473 -1.484698 0
M  V30 27 H 4.919148 -0.881053 -2.670301 0
M  V30 28 H 5.199906 1.565632 -3.220743 0
M  V30 29 H 1.479273 2.452564 -1.448577 0
M  V30 30 H -1.892267 2.713725 0.246372 0
M  V30 31 H -4.050611 2.264205 1.425402 0
M  V30 32 H -4.600035 -0.097097 2.106020 0
M  V30 33 H -2.979493 -1.853567 1.570775 0
M  V30 END ATOM
M  V30 BEGIN BOND
M  V30 1 1 1 2
M  V30 2 1 2 3
M  V30 3 1 3 4
M  V30 4 1 4 5
M  V30 5 2 5 6
M  V30 6 1 6 7
M  V30 7 1 7 8
M  V30 8 2 8 9
M  V30 9 1 9 10
M  V30 10 2 10 11
M  V30 11 1 11 12
M  V30 12 2 12 13
M  V30 13 2 7 14
M  V30 14 1 14 15
M  V30 15 2 15 16
M  V30 16 1 16 17
M  V30 17 2 17 18
M  V30 18 1 18 19
M  V30 19 2 19 20
M  V30 20 1 20 5
M  V30 21 1 13 8
M  V30 22 1 20 15
M  V30 23 1 1 21
M  V30 24 1 2 22
M  V30 25 1 2 23
M  V30 26 1 3 24
M  V30 27 1 3 25
M  V30 28 1 9 26
M  V30 29 1 10 27
M  V30 30 1 11 28
M  V30 31 1 13 29
M  V30 32 1 16 30
M  V30 33 1 17 31
M  V30 34 1 18 32
M  V30 35 1 19 33
M  V30 END BOND
M  V30 END CTAB
M  END
>  <Dataset>  (591) 
ChEMBL_Kinases

>  <Ligand_Instance>  (591) 
nan

>  <PDB_ID>  (591) 
nan

>  <Standardized_SMILES>  (591) 
OCCSc1nc(-c2cccnc2)nc2ccccc12

>  <Name>  (591) 
nan

>  <Pocket>  (591) 
nan

>  <ATP_Site>  (591) 
nan

>  <Peripheral>  (591) 
nan

>  <Num_H_Atoms_ProtBoundConf>  (591) 
nan

>  <Num_Resolved_Atoms>  (591) 
nan

>  <Num_Not_Resolved_Atoms>  (591) 
nan

$$$$
CHEMBL1341221
     RDKit          3D

  0  0  0  0  0  0  0  0  0  0999 V3000
M  V30 BEGIN CTAB
M  V30 COUNTS 30 32 0 0 0
M  V30 BEGIN ATOM
M  V30 1 Cl -2.433942 -2.019390 3.697677 0
M  V30 2 C -1.555443 -2.582737 2.292735 0
M  V30 3 C -0.482337 -3.413035 2.537541 0
M  V30 4 C 0.218684 -3.864472 1.445551 0
M  V30 5 C -0.122731 -3.510635 0.134211 0
M  V30 6 C 0.714687 -4.052842 -0.961605 0
M  V30 7 S 1.883487 -2.864028 -1.605678 0
M  V30 8 C 1.716586 -1.231856 -0.914574 0
M  V30 9 N 2.650613 -0.403847 -1.477162 0
M  V30 10 N 2.450490 0.793765 -0.899507 0
M  V30 11 C 1.436941 0.702571 -0.020116 0
M  V30 12 C 0.947739 1.812362 0.788841 0
M  V30 13 C -0.094661 1.668703 1.676782 0
M  V30 14 C -0.498466 2.765857 2.412265 0
M  V30 15 N 0.087113 3.998425 2.304838 0
M  V30 16 C 1.107112 4.155289 1.441506 0
M  V30 17 C 1.525450 3.056648 0.692589 0
M  V30 18 O 1.011170 -0.535090 -0.050068 0
M  V30 19 C -1.206397 -2.677782 -0.043379 0
M  V30 20 Cl -1.637052 -2.238462 -1.705949 0
M  V30 21 C -1.943919 -2.197249 1.033192 0
M  V30 22 H -0.178487 -3.715961 3.547430 0
M  V30 23 H 1.069531 -4.523628 1.626491 0
M  V30 24 H 1.246761 -4.972632 -0.649276 0
M  V30 25 H 0.038098 -4.352939 -1.813429 0
M  V30 26 H -0.595150 0.720263 1.804411 0
M  V30 27 H -1.326941 2.706530 3.136411 0
M  V30 28 H 1.607250 5.108742 1.315862 0
M  V30 29 H 2.359548 3.192123 -0.011245 0
M  V30 30 H -2.792858 -1.541834 0.846559 0
M  V30 END ATOM
M  V30 BEGIN BOND
M  V30 1 1 1 2
M  V30 2 2 2 3
M  V30 3 1 3 4
M  V30 4 2 4 5
M  V30 5 1 5 6
M  V30 6 1 6 7
M  V30 7 1 7 8
M  V30 8 2 8 9
M  V30 9 1 9 10
M  V30 10 2 10 11
M  V30 11 1 11 12
M  V30 12 2 12 13
M  V30 13 1 13 14
M  V30 14 2 14 15
M  V30 15 1 15 16
M  V30 16 2 16 17
M  V30 17 1 11 18
M  V30 18 1 5 19
M  V30 19 1 19 20
M  V30 20 2 19 21
M  V30 21 1 21 2
M  V30 22 1 18 8
M  V30 23 1 17 12
M  V30 24 1 3 22
M  V30 25 1 4 23
M  V30 26 1 6 24
M  V30 27 1 6 25
M  V30 28 1 13 26
M  V30 29 1 14 27
M  V30 30 1 16 28
M  V30 31 1 17 29
M  V30 32 1 21 30
M  V30 END BOND
M  V30 END CTAB
M  END
>  <Dataset>  (592) 
ChEMBL_Kinases

>  <Ligand_Instance>  (592) 
nan

>  <PDB_ID>  (592) 
nan

>  <Standardized_SMILES>  (592) 
Clc1ccc(CSc2nnc(-c3ccncc3)o2)c(Cl)c1

>  <Name>  (592) 
nan

>  <Pocket>  (592) 
nan

>  <ATP_Site>  (592) 
nan

>  <Peripheral>  (592) 
nan

>  <Num_H_Atoms_ProtBoundConf>  (592) 
nan

>  <Num_Resolved_Atoms>  (592) 
nan

>  <Num_Not_Resolved_Atoms>  (592) 
nan

$$$$
CHEMBL1341211
     RDKit          3D

  0  0  0  0  0  0  0  0  0  0999 V3000
M  V30 BEGIN CTAB
M  V30 COUNTS 43 47 0 0 0
M  V30 BEGIN ATOM
M  V30 1 C -2.850608 0.150375 2.495384 0
M  V30 2 C -1.694476 0.921081 1.982901 0
M  V30 3 C -1.889173 2.247123 1.713313 0
M  V30 4 C -0.800440 2.952088 1.235774 0
M  V30 5 C 0.418283 2.315900 1.049657 0
M  V30 6 C 1.585117 3.052390 0.542464 0
M  V30 7 N 1.578362 4.355519 0.225665 0
M  V30 8 C 2.793969 4.740286 -0.209189 0
M  V30 9 N 3.383440 5.882472 -0.653765 0
M  V30 10 C 4.666676 5.928300 -1.024692 0
M  V30 11 C 5.485222 4.800560 -0.978341 0
M  V30 12 C 4.885570 3.646267 -0.527951 0
M  V30 13 C 3.563087 3.572614 -0.139223 0
M  V30 14 O 2.798990 2.589056 0.315506 0
M  V30 15 C 0.597587 0.958142 1.331315 0
M  V30 16 C -0.515882 0.262828 1.813427 0
M  V30 17 N -0.424578 -1.144001 2.131705 0
M  V30 18 C -0.746216 -1.917422 0.981444 0
M  V30 19 O -1.050141 -1.349298 -0.098897 0
M  V30 20 C -0.740336 -3.375879 0.995019 0
M  V30 21 C -1.049949 -4.137540 -0.113512 0
M  V30 22 C -0.948169 -5.482138 0.242825 0
M  V30 23 C -1.133813 -6.669953 -0.425566 0
M  V30 24 C -0.946767 -7.866075 0.235736 0
M  V30 25 C -0.575081 -7.796763 1.562238 0
M  V30 26 C -0.370514 -6.630042 2.298039 0
M  V30 27 C -0.574281 -5.459249 1.576952 0
M  V30 28 O -0.469967 -4.219886 1.955417 0
M  V30 29 H -3.263990 0.724833 3.349857 0
M  V30 30 H -2.586786 -0.880412 2.769895 0
M  V30 31 H -3.617545 0.174860 1.698413 0
M  V30 32 H -2.827774 2.770463 1.848485 0
M  V30 33 H -0.881315 4.018233 0.997817 0
M  V30 34 H 5.120390 6.859188 -1.379553 0
M  V30 35 H 6.521396 4.862147 -1.283858 0
M  V30 36 H 5.508029 2.767346 -0.487475 0
M  V30 37 H 1.530638 0.438714 1.196744 0
M  V30 38 H -0.175327 -1.639420 3.017516 0
M  V30 39 H -1.334698 -3.873371 -1.128141 0
M  V30 40 H -1.423312 -6.676007 -1.458514 0
M  V30 41 H -1.073234 -8.838242 -0.220443 0
M  V30 42 H -0.417739 -8.731814 2.118904 0
M  V30 43 H -0.079680 -6.682654 3.335499 0
M  V30 END ATOM
M  V30 BEGIN BOND
M  V30 1 1 1 2
M  V30 2 2 2 3
M  V30 3 1 3 4
M  V30 4 2 4 5
M  V30 5 1 5 6
M  V30 6 2 6 7
M  V30 7 1 7 8
M  V30 8 2 8 9
M  V30 9 1 9 10
M  V30 10 2 10 11
M  V30 11 1 11 12
M  V30 12 2 12 13
M  V30 13 1 13 14
M  V30 14 1 5 15
M  V30 15 2 15 16
M  V30 16 1 16 17
M  V30 17 1 17 18
M  V30 18 2 18 19
M  V30 19 1 18 20
M  V30 20 2 20 21
M  V30 21 1 21 22
M  V30 22 2 22 23
M  V30 23 1 23 24
M  V30 24 2 24 25
M  V30 25 1 25 26
M  V30 26 2 26 27
M  V30 27 1 27 28
M  V30 28 1 16 2
M  V30 29 1 28 20
M  V30 30 1 14 6
M  V30 31 1 27 22
M  V30 32 1 13 8
M  V30 33 1 1 29
M  V30 34 1 1 30
M  V30 35 1 1 31
M  V30 36 1 3 32
M  V30 37 1 4 33
M  V30 38 1 10 34
M  V30 39 1 11 35
M  V30 40 1 12 36
M  V30 41 1 15 37
M  V30 42 1 17 38
M  V30 43 1 21 39
M  V30 44 1 23 40
M  V30 45 1 24 41
M  V30 46 1 25 42
M  V30 47 1 26 43
M  V30 END BOND
M  V30 END CTAB
M  END
>  <Dataset>  (593) 
ChEMBL_Kinases

>  <Ligand_Instance>  (593) 
nan

>  <PDB_ID>  (593) 
nan

>  <Standardized_SMILES>  (593) 
Cc1ccc(-c2nc3ncccc3o2)cc1NC(=O)c1cc2ccccc2o1

>  <Name>  (593) 
nan

>  <Pocket>  (593) 
nan

>  <ATP_Site>  (593) 
nan

>  <Peripheral>  (593) 
nan

>  <Num_H_Atoms_ProtBoundConf>  (593) 
nan

>  <Num_Resolved_Atoms>  (593) 
nan

>  <Num_Not_Resolved_Atoms>  (593) 
nan

$$$$
CHEMBL1341194
     RDKit          3D

  0  0  0  0  0  0  0  0  0  0999 V3000
M  V30 BEGIN CTAB
M  V30 COUNTS 41 42 0 0 0
M  V30 BEGIN ATOM
M  V30 1 C 3.020959 -6.554120 2.099418 0
M  V30 2 C 4.085528 -5.621575 2.577625 0
M  V30 3 O 3.614582 -4.348705 2.969671 0
M  V30 4 C 2.946621 -3.484874 2.115548 0
M  V30 5 C 2.596883 -3.620037 0.787566 0
M  V30 6 C 1.922619 -2.593589 0.157155 0
M  V30 7 C 1.587448 -1.430423 0.822823 0
M  V30 8 N 0.891878 -0.420416 0.099074 0
M  V30 9 C 1.672761 0.551099 -0.570819 0
M  V30 10 O 2.941612 0.478313 -0.500715 0
M  V30 11 C 1.399284 1.740983 -1.410770 0
M  V30 12 O 0.044626 2.014337 -1.617637 0
M  V30 13 C -0.897846 2.310751 -0.668438 0
M  V30 14 C -0.848995 2.438948 0.714065 0
M  V30 15 C -1.979155 2.752503 1.434593 0
M  V30 16 C -3.200089 2.952222 0.826649 0
M  V30 17 O -4.254283 3.262138 1.672724 0
M  V30 18 C -5.552547 3.486852 1.149909 0
M  V30 19 C -3.278658 2.831487 -0.544668 0
M  V30 20 C -2.136304 2.512996 -1.288561 0
M  V30 21 C 1.931683 -1.273576 2.165540 0
M  V30 22 C 2.615651 -2.318921 2.798836 0
M  V30 23 H 2.009309 -6.092823 2.061337 0
M  V30 24 H 2.940158 -7.490019 2.688067 0
M  V30 25 H 3.244750 -6.842773 1.054227 0
M  V30 26 H 4.539846 -6.114727 3.482639 0
M  V30 27 H 4.889644 -5.571412 1.833087 0
M  V30 28 H 2.911754 -4.565664 0.382410 0
M  V30 29 H 1.690195 -2.795305 -0.893010 0
M  V30 30 H -0.116290 -0.212106 -0.071706 0
M  V30 31 H 1.831393 1.562693 -2.439317 0
M  V30 32 H 1.904591 2.668303 -1.007454 0
M  V30 33 H 0.158428 2.259017 1.064585 0
M  V30 34 H -1.772540 2.814118 2.488773 0
M  V30 35 H -5.786370 2.647978 0.454257 0
M  V30 36 H -5.606208 4.410029 0.543666 0
M  V30 37 H -6.259295 3.529612 1.997609 0
M  V30 38 H -4.251337 2.995435 -0.980725 0
M  V30 39 H -2.368301 2.454768 -2.363357 0
M  V30 40 H 1.647995 -0.352836 2.633263 0
M  V30 41 H 2.820853 -2.066733 3.837141 0
M  V30 END ATOM
M  V30 BEGIN BOND
M  V30 1 1 1 2
M  V30 2 1 2 3
M  V30 3 1 3 4
M  V30 4 2 4 5
M  V30 5 1 5 6
M  V30 6 2 6 7
M  V30 7 1 7 8
M  V30 8 1 8 9
M  V30 9 2 9 10
M  V30 10 1 9 11
M  V30 11 1 11 12
M  V30 12 1 12 13
M  V30 13 2 13 14
M  V30 14 1 14 15
M  V30 15 2 15 16
M  V30 16 1 16 17
M  V30 17 1 17 18
M  V30 18 1 16 19
M  V30 19 2 19 20
M  V30 20 1 7 21
M  V30 21 2 21 22
M  V30 22 1 22 4
M  V30 23 1 20 13
M  V30 24 1 1 23
M  V30 25 1 1 24
M  V30 26 1 1 25
M  V30 27 1 2 26
M  V30 28 1 2 27
M  V30 29 1 5 28
M  V30 30 1 6 29
M  V30 31 1 8 30
M  V30 32 1 11 31
M  V30 33 1 11 32
M  V30 34 1 14 33
M  V30 35 1 15 34
M  V30 36 1 18 35
M  V30 37 1 18 36
M  V30 38 1 18 37
M  V30 39 1 19 38
M  V30 40 1 20 39
M  V30 41 1 21 40
M  V30 42 1 22 41
M  V30 END BOND
M  V30 END CTAB
M  END
>  <Dataset>  (594) 
ChEMBL_Kinases

>  <Ligand_Instance>  (594) 
nan

>  <PDB_ID>  (594) 
nan

>  <Standardized_SMILES>  (594) 
CCOc1ccc(NC(=O)COc2ccc(OC)cc2)cc1

>  <Name>  (594) 
nan

>  <Pocket>  (594) 
nan

>  <ATP_Site>  (594) 
nan

>  <Peripheral>  (594) 
nan

>  <Num_H_Atoms_ProtBoundConf>  (594) 
nan

>  <Num_Resolved_Atoms>  (594) 
nan

>  <Num_Not_Resolved_Atoms>  (594) 
nan

$$$$
CHEMBL1341140
     RDKit          3D

  0  0  0  0  0  0  0  0  0  0999 V3000
M  V30 BEGIN CTAB
M  V30 COUNTS 30 32 0 0 0
M  V30 BEGIN ATOM
M  V30 1 C -2.627957 -1.331200 2.239748 0
M  V30 2 C -1.187807 -1.718493 2.568039 0
M  V30 3 N -0.302403 -1.210915 1.571851 0
M  V30 4 C 0.006937 -1.951404 0.466181 0
M  V30 5 O -0.528474 -3.086339 0.385086 0
M  V30 6 C 0.856540 -1.489488 -0.510455 0
M  V30 7 C 1.451098 -0.249747 -0.437380 0
M  V30 8 C 2.230914 -0.087310 -1.549692 0
M  V30 9 N 2.096208 -1.225351 -2.273811 0
M  V30 10 N 1.280500 -2.070700 -1.667858 0
M  V30 11 C 0.860762 -3.401117 -2.095195 0
M  V30 12 C 1.141842 0.501549 0.677072 0
M  V30 13 C 1.720223 1.758554 0.790244 0
M  V30 14 C 1.413289 2.515020 1.905243 0
M  V30 15 C 0.570769 2.079055 2.891974 0
M  V30 16 C 0.019620 0.805563 2.721670 0
M  V30 17 C 0.282319 -0.003041 1.634335 0
M  V30 18 H -2.749548 -1.649608 1.168625 0
M  V30 19 H -3.370022 -1.937395 2.793131 0
M  V30 20 H -2.811492 -0.254233 2.269669 0
M  V30 21 H -0.930702 -1.528742 3.615318 0
M  V30 22 H -1.175528 -2.837004 2.477734 0
M  V30 23 H 2.799310 0.802020 -1.724073 0
M  V30 24 H 1.245079 -3.629366 -3.087485 0
M  V30 25 H 1.162398 -4.133716 -1.319450 0
M  V30 26 H -0.253834 -3.485793 -2.147860 0
M  V30 27 H 2.389721 2.128695 0.025720 0
M  V30 28 H 1.877901 3.471434 1.952113 0
M  V30 29 H 0.379484 2.713038 3.721036 0
M  V30 30 H -0.644273 0.488890 3.521374 0
M  V30 END ATOM
M  V30 BEGIN BOND
M  V30 1 1 1 2
M  V30 2 1 2 3
M  V30 3 1 3 4
M  V30 4 2 4 5
M  V30 5 1 4 6
M  V30 6 2 6 7
M  V30 7 1 7 8
M  V30 8 2 8 9
M  V30 9 1 9 10
M  V30 10 1 10 11
M  V30 11 1 7 12
M  V30 12 2 12 13
M  V30 13 1 13 14
M  V30 14 2 14 15
M  V30 15 1 15 16
M  V30 16 2 16 17
M  V30 17 1 17 3
M  V30 18 1 10 6
M  V30 19 1 17 12
M  V30 20 1 1 18
M  V30 21 1 1 19
M  V30 22 1 1 20
M  V30 23 1 2 21
M  V30 24 1 2 22
M  V30 25 1 8 23
M  V30 26 1 11 24
M  V30 27 1 11 25
M  V30 28 1 11 26
M  V30 29 1 13 27
M  V30 30 1 14 28
M  V30 31 1 15 29
M  V30 32 1 16 30
M  V30 END BOND
M  V30 END CTAB
M  END
>  <Dataset>  (595) 
ChEMBL_Kinases

>  <Ligand_Instance>  (595) 
nan

>  <PDB_ID>  (595) 
nan

>  <Standardized_SMILES>  (595) 
CCn1c(=O)c2c(cnn2C)c2ccccc21

>  <Name>  (595) 
nan

>  <Pocket>  (595) 
nan

>  <ATP_Site>  (595) 
nan

>  <Peripheral>  (595) 
nan

>  <Num_H_Atoms_ProtBoundConf>  (595) 
nan

>  <Num_Resolved_Atoms>  (595) 
nan

>  <Num_Not_Resolved_Atoms>  (595) 
nan

$$$$
CHEMBL1341049
     RDKit          3D

  0  0  0  0  0  0  0  0  0  0999 V3000
M  V30 BEGIN CTAB
M  V30 COUNTS 41 43 0 0 0
M  V30 BEGIN ATOM
M  V30 1 C 1.487617 -1.354660 -2.171668 0
M  V30 2 C 2.218438 -1.655223 -0.926083 0
M  V30 3 C 3.034922 -2.756228 -0.776256 0
M  V30 4 C 3.672887 -2.949949 0.432789 0
M  V30 5 C 3.546887 -2.107640 1.511484 0
M  V30 6 C 4.234207 -2.314389 2.815647 0
M  V30 7 C 2.723627 -0.989460 1.373721 0
M  V30 8 N 2.590448 -0.159855 2.414688 0
M  V30 9 C 1.799204 0.924777 2.298105 0
M  V30 10 O 1.717107 1.734222 3.428795 0
M  V30 11 C 1.124776 1.191810 1.120945 0
M  V30 12 C 0.284869 2.418986 1.122929 0
M  V30 13 C -0.996566 2.130844 1.905703 0
M  V30 14 N -1.724275 1.045549 1.281819 0
M  V30 15 C -2.960443 0.538509 1.767941 0
M  V30 16 O -3.478681 1.039364 2.797878 0
M  V30 17 C -3.625034 -0.566853 1.064302 0
M  V30 18 C -3.151197 -1.188488 -0.071228 0
M  V30 19 C -4.070047 -2.162312 -0.399966 0
M  V30 20 C -5.063570 -2.088436 0.552861 0
M  V30 21 O -4.761600 -1.124721 1.408469 0
M  V30 22 C 1.276432 0.322066 0.058620 0
M  V30 23 C 2.079821 -0.798472 0.145759 0
M  V30 24 H 0.432476 -1.143415 -1.895745 0
M  V30 25 H 1.443023 -2.269101 -2.828194 0
M  V30 26 H 1.953663 -0.572414 -2.780614 0
M  V30 27 H 3.163693 -3.454468 -1.612047 0
M  V30 28 H 4.316027 -3.803786 0.572216 0
M  V30 29 H 4.465855 -3.389088 2.948623 0
M  V30 30 H 3.559052 -1.908704 3.604711 0
M  V30 31 H 5.154285 -1.692859 2.867866 0
M  V30 32 H 1.589456 2.739306 3.390305 0
M  V30 33 H 0.812771 3.270179 1.548303 0
M  V30 34 H -0.019738 2.569448 0.063289 0
M  V30 35 H -1.601003 3.018588 2.076106 0
M  V30 36 H -0.645930 1.748574 2.895731 0
M  V30 37 H -1.334526 0.597078 0.424446 0
M  V30 38 H -2.273200 -1.022269 -0.644969 0
M  V30 39 H -4.156533 -2.902802 -1.182641 0
M  V30 40 H -5.995614 -2.583714 0.790748 0
M  V30 41 H 0.729249 0.573955 -0.840307 0
M  V30 END ATOM
M  V30 BEGIN BOND
M  V30 1 1 1 2
M  V30 2 2 2 3
M  V30 3 1 3 4
M  V30 4 2 4 5
M  V30 5 1 5 6
M  V30 6 1 5 7
M  V30 7 2 7 8
M  V30 8 1 8 9
M  V30 9 1 9 10
M  V30 10 2 9 11
M  V30 11 1 11 12
M  V30 12 1 12 13
M  V30 13 1 13 14
M  V30 14 1 14 15
M  V30 15 2 15 16
M  V30 16 1 15 17
M  V30 17 2 17 18
M  V30 18 1 18 19
M  V30 19 2 19 20
M  V30 20 1 20 21
M  V30 21 1 11 22
M  V30 22 2 22 23
M  V30 23 1 23 2
M  V30 24 1 23 7
M  V30 25 1 21 17
M  V30 26 1 1 24
M  V30 27 1 1 25
M  V30 28 1 1 26
M  V30 29 1 3 27
M  V30 30 1 4 28
M  V30 31 1 6 29
M  V30 32 1 6 30
M  V30 33 1 6 31
M  V30 34 1 10 32
M  V30 35 1 12 33
M  V30 36 1 12 34
M  V30 37 1 13 35
M  V30 38 1 13 36
M  V30 39 1 14 37
M  V30 40 1 18 38
M  V30 41 1 19 39
M  V30 42 1 20 40
M  V30 43 1 22 41
M  V30 END BOND
M  V30 END CTAB
M  END
>  <Dataset>  (596) 
ChEMBL_Kinases

>  <Ligand_Instance>  (596) 
nan

>  <PDB_ID>  (596) 
nan

>  <Standardized_SMILES>  (596) 
Cc1ccc(C)c2nc(O)c(CCNC(=O)c3ccco3)cc12

>  <Name>  (596) 
nan

>  <Pocket>  (596) 
nan

>  <ATP_Site>  (596) 
nan

>  <Peripheral>  (596) 
nan

>  <Num_H_Atoms_ProtBoundConf>  (596) 
nan

>  <Num_Resolved_Atoms>  (596) 
nan

>  <Num_Not_Resolved_Atoms>  (596) 
nan

$$$$
CHEMBL1341031
     RDKit          3D

  0  0  0  0  0  0  0  0  0  0999 V3000
M  V30 BEGIN CTAB
M  V30 COUNTS 47 48 0 0 0
M  V30 BEGIN ATOM
M  V30 1 C -0.521582 -6.188058 0.796860 0
M  V30 2 C -0.188751 -4.849242 0.149759 0
M  V30 3 C -0.850086 -3.709084 0.892342 0
M  V30 4 C -0.535325 -2.356537 0.264206 0
M  V30 5 C 0.915681 -2.054705 0.246246 0
M  V30 6 C 1.318767 -0.745170 -0.348362 0
M  V30 7 N 0.785338 0.417273 0.279657 0
M  V30 8 C 1.472761 0.969709 1.323369 0
M  V30 9 N 2.693643 0.670279 2.025702 0
M  V30 10 C 2.959649 -0.155896 3.192785 0
M  V30 11 C 4.431035 -0.098352 3.481741 0
M  V30 12 N 0.810853 2.070853 1.786713 0
M  V30 13 C -0.304389 2.244525 1.054976 0
M  V30 14 C -0.289638 1.213549 0.139371 0
M  V30 15 C -1.280336 1.053269 -0.799540 0
M  V30 16 O -1.288103 0.128258 -1.640214 0
M  V30 17 N -2.281523 1.982396 -0.765433 0
M  V30 18 C -3.359687 1.849883 -1.748991 0
M  V30 19 C -2.295002 2.997973 0.138273 0
M  V30 20 O -3.226844 3.845713 0.155004 0
M  V30 21 N -1.312373 3.132627 1.046856 0
M  V30 22 C -1.333999 4.218597 2.007256 0
M  V30 23 H -0.284883 -6.967409 0.046266 0
M  V30 24 H 0.108538 -6.310706 1.722582 0
M  V30 25 H -1.576455 -6.286342 1.065390 0
M  V30 26 H -0.564084 -4.932706 -0.889630 0
M  V30 27 H 0.912735 -4.765123 0.208674 0
M  V30 28 H -0.574103 -3.733029 1.965533 0
M  V30 29 H -1.938775 -3.917503 0.858655 0
M  V30 30 H -0.912964 -2.455846 -0.796443 0
M  V30 31 H -1.160759 -1.629961 0.775460 0
M  V30 32 H 1.294827 -2.104757 1.305431 0
M  V30 33 H 1.469880 -2.871820 -0.270558 0
M  V30 34 H 2.422701 -0.708809 -0.432785 0
M  V30 35 H 0.965076 -0.709735 -1.421544 0
M  V30 36 H 3.465314 1.194085 1.519332 0
M  V30 37 H 2.446846 0.355328 4.050212 0
M  V30 38 H 2.556482 -1.168404 3.122060 0
M  V30 39 H 4.675147 0.390958 4.448059 0
M  V30 40 H 5.000794 0.464095 2.699826 0
M  V30 41 H 4.835847 -1.138525 3.554297 0
M  V30 42 H -4.257119 2.403037 -1.442869 0
M  V30 43 H -3.601669 0.764812 -1.779082 0
M  V30 44 H -2.959377 2.164461 -2.726590 0
M  V30 45 H -2.208083 4.001484 2.677115 0
M  V30 46 H -0.429774 4.162235 2.645142 0
M  V30 47 H -1.416144 5.218048 1.538483 0
M  V30 END ATOM
M  V30 BEGIN BOND
M  V30 1 1 1 2
M  V30 2 1 2 3
M  V30 3 1 3 4
M  V30 4 1 4 5
M  V30 5 1 5 6
M  V30 6 1 6 7
M  V30 7 1 7 8
M  V30 8 1 8 9
M  V30 9 1 9 10
M  V30 10 1 10 11
M  V30 11 2 8 12
M  V30 12 1 12 13
M  V30 13 2 13 14
M  V30 14 1 14 15
M  V30 15 2 15 16
M  V30 16 1 15 17
M  V30 17 1 17 18
M  V30 18 1 17 19
M  V30 19 2 19 20
M  V30 20 1 19 21
M  V30 21 1 21 22
M  V30 22 1 14 7
M  V30 23 1 21 13
M  V30 24 1 1 23
M  V30 25 1 1 24
M  V30 26 1 1 25
M  V30 27 1 2 26
M  V30 28 1 2 27
M  V30 29 1 3 28
M  V30 30 1 3 29
M  V30 31 1 4 30
M  V30 32 1 4 31
M  V30 33 1 5 32
M  V30 34 1 5 33
M  V30 35 1 6 34
M  V30 36 1 6 35
M  V30 37 1 9 36
M  V30 38 1 10 37
M  V30 39 1 10 38
M  V30 40 1 11 39
M  V30 41 1 11 40
M  V30 42 1 11 41
M  V30 43 1 18 42
M  V30 44 1 18 43
M  V30 45 1 18 44
M  V30 46 1 22 45
M  V30 47 1 22 46
M  V30 48 1 22 47
M  V30 END BOND
M  V30 END CTAB
M  END
>  <Dataset>  (597) 
ChEMBL_Kinases

>  <Ligand_Instance>  (597) 
nan

>  <PDB_ID>  (597) 
nan

>  <Standardized_SMILES>  (597) 
CCCCCCn1c(NCC)nc2c1c(=O)n(C)c(=O)n2C

>  <Name>  (597) 
nan

>  <Pocket>  (597) 
nan

>  <ATP_Site>  (597) 
nan

>  <Peripheral>  (597) 
nan

>  <Num_H_Atoms_ProtBoundConf>  (597) 
nan

>  <Num_Resolved_Atoms>  (597) 
nan

>  <Num_Not_Resolved_Atoms>  (597) 
nan

$$$$
CHEMBL1340876
     RDKit          3D

  0  0  0  0  0  0  0  0  0  0999 V3000
M  V30 BEGIN CTAB
M  V30 COUNTS 49 53 0 0 0
M  V30 BEGIN ATOM
M  V30 1 C -2.494486 -0.164880 -1.427426 0
M  V30 2 C -1.496129 -0.963890 -0.691784 0
M  V30 3 C -1.284426 -0.816159 0.671789 0
M  V30 4 C -0.351536 -1.574044 1.334375 0
M  V30 5 C 0.436663 -2.534323 0.682282 0
M  V30 6 N 1.334485 -3.219012 1.542358 0
M  V30 7 C 2.668197 -3.225064 1.509282 0
M  V30 8 S 3.750447 -2.422203 0.381803 0
M  V30 9 C 4.273276 -0.768830 0.875761 0
M  V30 10 C 3.224060 0.217667 0.926478 0
M  V30 11 O 2.878970 0.577455 2.132372 0
M  V30 12 N 2.405674 0.964333 0.159105 0
M  V30 13 C 1.404006 1.903958 0.005465 0
M  V30 14 C 0.945502 2.329934 1.262600 0
M  V30 15 C -0.097782 3.269062 1.389953 0
M  V30 16 C -0.658272 3.759114 0.242937 0
M  V30 17 C -0.179472 3.321599 -0.999147 0
M  V30 18 C 0.829795 2.412727 -1.111684 0
M  V30 19 O -0.939081 4.002068 -1.974606 0
M  V30 20 C -2.183830 4.351189 -1.338971 0
M  V30 21 O -1.696566 4.679733 -0.016676 0
M  V30 22 N 3.169889 -4.003571 2.520268 0
M  V30 23 N 2.110930 -4.472469 3.170676 0
M  V30 24 C 0.991499 -3.993676 2.572215 0
M  V30 25 C -0.305065 -4.365890 3.095142 0
M  V30 26 C -1.440736 -4.442732 2.232727 0
M  V30 27 C -2.655927 -4.798267 2.709126 0
M  V30 28 C -2.730813 -5.092206 4.133693 0
M  V30 29 S -0.930591 -4.812611 4.697690 0
M  V30 30 C 0.243406 -2.702488 -0.685550 0
M  V30 31 C -0.700606 -1.922282 -1.305043 0
M  V30 32 H -2.797427 0.693323 -0.794353 0
M  V30 33 H -2.079127 0.235767 -2.395336 0
M  V30 34 H -3.401077 -0.733245 -1.700200 0
M  V30 35 H -1.907429 -0.062750 1.137617 0
M  V30 36 H -0.303811 -1.343320 2.394909 0
M  V30 37 H 4.741207 -0.855825 1.908874 0
M  V30 38 H 5.100689 -0.496836 0.157857 0
M  V30 39 H 2.652341 0.638158 -0.870097 0
M  V30 40 H 1.226678 2.090714 2.287529 0
M  V30 41 H -0.514113 3.661462 2.299388 0
M  V30 42 H 1.226152 2.056202 -2.060348 0
M  V30 43 H -2.798440 3.417918 -1.261524 0
M  V30 44 H -2.690685 5.197223 -1.777687 0
M  V30 45 H -1.488527 -4.238770 1.159722 0
M  V30 46 H -3.688344 -4.996715 2.546224 0
M  V30 47 H -3.236639 -5.372234 5.010961 0
M  V30 48 H 0.870247 -3.436303 -1.122361 0
M  V30 49 H -0.840275 -2.056463 -2.372786 0
M  V30 END ATOM
M  V30 BEGIN BOND
M  V30 1 1 1 2
M  V30 2 2 2 3
M  V30 3 1 3 4
M  V30 4 2 4 5
M  V30 5 1 5 6
M  V30 6 1 6 7
M  V30 7 1 7 8
M  V30 8 1 8 9
M  V30 9 1 9 10
M  V30 10 2 10 11
M  V30 11 1 10 12
M  V30 12 1 12 13
M  V30 13 2 13 14
M  V30 14 1 14 15
M  V30 15 2 15 16
M  V30 16 1 16 17
M  V30 17 2 17 18
M  V30 18 1 17 19
M  V30 19 1 19 20
M  V30 20 1 20 21
M  V30 21 2 7 22
M  V30 22 1 22 23
M  V30 23 2 23 24
M  V30 24 1 24 25
M  V30 25 2 25 26
M  V30 26 1 26 27
M  V30 27 2 27 28
M  V30 28 1 28 29
M  V30 29 1 5 30
M  V30 30 2 30 31
M  V30 31 1 31 2
M  V30 32 1 24 6
M  V30 33 1 29 25
M  V30 34 1 18 13
M  V30 35 1 21 16
M  V30 36 1 1 32
M  V30 37 1 1 33
M  V30 38 1 1 34
M  V30 39 1 3 35
M  V30 40 1 4 36
M  V30 41 1 9 37
M  V30 42 1 9 38
M  V30 43 1 12 39
M  V30 44 1 14 40
M  V30 45 1 15 41
M  V30 46 1 18 42
M  V30 47 1 20 43
M  V30 48 1 20 44
M  V30 49 1 26 45
M  V30 50 1 27 46
M  V30 51 1 28 47
M  V30 52 1 30 48
M  V30 53 1 31 49
M  V30 END BOND
M  V30 END CTAB
M  END
>  <Dataset>  (598) 
ChEMBL_Kinases

>  <Ligand_Instance>  (598) 
nan

>  <PDB_ID>  (598) 
nan

>  <Standardized_SMILES>  (598) 
Cc1ccc(-n2c(SCC(=O)Nc3ccc4c(c3)OCO4)nnc2-c2cccs2)cc1

>  <Name>  (598) 
nan

>  <Pocket>  (598) 
nan

>  <ATP_Site>  (598) 
nan

>  <Peripheral>  (598) 
nan

>  <Num_H_Atoms_ProtBoundConf>  (598) 
nan

>  <Num_Resolved_Atoms>  (598) 
nan

>  <Num_Not_Resolved_Atoms>  (598) 
nan

$$$$
CHEMBL1340805
     RDKit          3D

  0  0  0  0  0  0  0  0  0  0999 V3000
M  V30 BEGIN CTAB
M  V30 COUNTS 44 46 0 0 0
M  V30 BEGIN ATOM
M  V30 1 O 2.331905 -0.535815 2.093695 0
M  V30 2 C 1.646920 0.059689 1.222362 0
M  V30 3 C 1.990588 -0.086935 -0.197022 0
M  V30 4 C 3.007214 -0.833994 -0.574133 0
M  V30 5 C 3.415079 -1.032942 -1.953922 0
M  V30 6 C 2.791619 -0.466046 -3.043140 0
M  V30 7 C 3.178462 -0.654716 -4.352507 0
M  V30 8 C 4.263559 -1.463830 -4.618304 0
M  V30 9 F 4.631469 -1.639469 -5.910117 0
M  V30 10 C 4.911928 -2.048094 -3.549992 0
M  V30 11 C 4.495607 -1.836349 -2.246558 0
M  V30 12 N 0.543148 0.873355 1.599239 0
M  V30 13 C -0.375640 1.644308 0.767216 0
M  V30 14 C -1.679727 0.897972 0.799131 0
M  V30 15 C -2.030464 0.271450 2.088482 0 CFG=1
M  V30 16 O -3.347987 0.655807 2.425944 0
M  V30 17 C -2.129202 -1.228550 1.878414 0
M  V30 18 C -2.882840 -1.930190 2.975426 0
M  V30 19 C -2.328018 -1.472789 4.297875 0
M  V30 20 C -1.001200 -0.772814 4.093084 0
M  V30 21 C -1.167089 0.493372 3.270753 0 CFG=1
M  V30 22 C 0.208813 1.014551 3.001561 0
M  V30 23 H 1.403697 0.423424 -0.944177 0
M  V30 24 H 3.544975 -1.310038 0.212912 0
M  V30 25 H 1.937415 0.175158 -2.885831 0
M  V30 26 H 2.641097 -0.175789 -5.172862 0
M  V30 27 H 5.760332 -2.683087 -3.729374 0
M  V30 28 H 5.063392 -2.335885 -1.458303 0
M  V30 29 H -0.445468 2.668898 1.168006 0
M  V30 30 H -0.023314 1.719458 -0.276142 0
M  V30 31 H -2.454663 1.630718 0.464502 0
M  V30 32 H -1.629659 0.154816 -0.043213 0
M  V30 33 H -3.953073 0.144715 1.849024 0
M  V30 34 H -1.136210 -1.680386 1.684783 0
M  V30 35 H -2.729923 -1.368080 0.940756 0
M  V30 36 H -3.950521 -1.728644 2.825417 0
M  V30 37 H -2.723383 -3.016668 2.816471 0
M  V30 38 H -3.021292 -0.825025 4.833958 0
M  V30 39 H -2.125648 -2.367537 4.920199 0
M  V30 40 H -0.228204 -1.434484 3.693175 0
M  V30 41 H -0.649457 -0.453034 5.096921 0
M  V30 42 H -1.643485 1.223029 3.964071 0
M  V30 43 H 0.988627 0.544275 3.626240 0
M  V30 44 H 0.298507 2.115375 3.223569 0
M  V30 END ATOM
M  V30 BEGIN BOND
M  V30 1 2 1 2
M  V30 2 1 2 3
M  V30 3 2 3 4
M  V30 4 1 4 5
M  V30 5 2 5 6
M  V30 6 1 6 7
M  V30 7 2 7 8
M  V30 8 1 8 9
M  V30 9 1 8 10
M  V30 10 2 10 11
M  V30 11 1 2 12
M  V30 12 1 12 13
M  V30 13 1 13 14
M  V30 14 1 14 15
M  V30 15 1 15 16 CFG=1
M  V30 16 1 15 17
M  V30 17 1 17 18
M  V30 18 1 18 19
M  V30 19 1 19 20
M  V30 20 1 20 21
M  V30 21 1 21 22
M  V30 22 1 11 5
M  V30 23 1 22 12
M  V30 24 1 21 15
M  V30 25 1 3 23
M  V30 26 1 4 24
M  V30 27 1 6 25
M  V30 28 1 7 26
M  V30 29 1 10 27
M  V30 30 1 11 28
M  V30 31 1 13 29
M  V30 32 1 13 30
M  V30 33 1 14 31
M  V30 34 1 14 32
M  V30 35 1 16 33
M  V30 36 1 17 34
M  V30 37 1 17 35
M  V30 38 1 18 36
M  V30 39 1 18 37
M  V30 40 1 19 38
M  V30 41 1 19 39
M  V30 42 1 20 40
M  V30 43 1 20 41
M  V30 44 1 21 42 CFG=1
M  V30 45 1 22 43
M  V30 46 1 22 44
M  V30 END BOND
M  V30 END CTAB
M  END
>  <Dataset>  (599) 
ChEMBL_Kinases

>  <Ligand_Instance>  (599) 
nan

>  <PDB_ID>  (599) 
nan

>  <Standardized_SMILES>  (599) 
O=C(/C=C/c1ccc(F)cc1)N1CC[C@@]2(O)CCCC[C@H]2C1

>  <Name>  (599) 
nan

>  <Pocket>  (599) 
nan

>  <ATP_Site>  (599) 
nan

>  <Peripheral>  (599) 
nan

>  <Num_H_Atoms_ProtBoundConf>  (599) 
nan

>  <Num_Resolved_Atoms>  (599) 
nan

>  <Num_Not_Resolved_Atoms>  (599) 
nan

$$$$
CHEMBL1340776
     RDKit          3D

  0  0  0  0  0  0  0  0  0  0999 V3000
M  V30 BEGIN CTAB
M  V30 COUNTS 37 39 0 0 0
M  V30 BEGIN ATOM
M  V30 1 C 1.005067 -5.394334 5.249799 0
M  V30 2 O 1.032891 -5.936128 3.930999 0
M  V30 3 C 0.849223 -5.083850 2.844807 0
M  V30 4 C 0.651443 -3.768975 3.161745 0
M  V30 5 C 0.459408 -2.821203 2.197529 0
M  V30 6 C 0.458180 -3.152518 0.875288 0
M  V30 7 C 0.348048 -2.606854 -0.508445 0
M  V30 8 C 0.221269 -1.216479 -0.124516 0
M  V30 9 C 0.086457 -0.249398 -1.127311 0
M  V30 10 C -0.035120 1.192689 -1.280095 0
M  V30 11 C -0.207432 1.924029 -0.127498 0
M  V30 12 C -0.296472 3.294491 -0.142932 0
M  V30 13 C -0.202420 3.881697 -1.378229 0
M  V30 14 O -0.283686 5.265543 -1.452912 0
M  V30 15 C -0.456944 6.124387 -0.367320 0
M  V30 16 C -0.032282 3.121411 -2.494958 0
M  V30 17 C 0.063436 1.752599 -2.547886 0
M  V30 18 N 0.132080 -1.089687 -2.173123 0
M  V30 19 N 0.265449 -2.260413 -1.733036 0
M  V30 20 C 0.662263 -4.513651 0.540622 0
M  V30 21 C 0.862016 -5.502172 1.527155 0
M  V30 22 H 1.462068 -6.140959 5.940458 0
M  V30 23 H 1.683024 -4.501582 5.306577 0
M  V30 24 H -0.019716 -5.188415 5.624362 0
M  V30 25 H 0.610106 -3.266279 4.118646 0
M  V30 26 H 0.287895 -1.769825 2.282651 0
M  V30 27 H 0.188253 -0.554273 0.789471 0
M  V30 28 H -0.280340 1.405879 0.840397 0
M  V30 29 H -0.435083 3.788807 0.801307 0
M  V30 30 H -0.015922 7.140446 -0.524885 0
M  V30 31 H -1.543442 6.238827 -0.131284 0
M  V30 32 H 0.010030 5.743523 0.574953 0
M  V30 33 H 0.038913 3.673979 -3.436680 0
M  V30 34 H 0.196992 1.170325 -3.437597 0
M  V30 35 H 0.082643 -0.981607 -3.233923 0
M  V30 36 H 0.715659 -5.104325 -0.396332 0
M  V30 37 H 1.033694 -6.572127 1.455165 0
M  V30 END ATOM
M  V30 BEGIN BOND
M  V30 1 1 1 2
M  V30 2 1 2 3
M  V30 3 2 3 4
M  V30 4 1 4 5
M  V30 5 2 5 6
M  V30 6 1 6 7
M  V30 7 1 7 8
M  V30 8 2 8 9
M  V30 9 1 9 10
M  V30 10 2 10 11
M  V30 11 1 11 12
M  V30 12 2 12 13
M  V30 13 1 13 14
M  V30 14 1 14 15
M  V30 15 1 13 16
M  V30 16 2 16 17
M  V30 17 1 9 18
M  V30 18 1 18 19
M  V30 19 1 6 20
M  V30 20 2 20 21
M  V30 21 1 21 3
M  V30 22 2 19 7
M  V30 23 1 17 10
M  V30 24 1 1 22
M  V30 25 1 1 23
M  V30 26 1 1 24
M  V30 27 1 4 25
M  V30 28 1 5 26
M  V30 29 1 8 27
M  V30 30 1 11 28
M  V30 31 1 12 29
M  V30 32 1 15 30
M  V30 33 1 15 31
M  V30 34 1 15 32
M  V30 35 1 16 33
M  V30 36 1 17 34
M  V30 37 1 18 35
M  V30 38 1 20 36
M  V30 39 1 21 37
M  V30 END BOND
M  V30 END CTAB
M  END
>  <Dataset>  (600) 
ChEMBL_Kinases

>  <Ligand_Instance>  (600) 
nan

>  <PDB_ID>  (600) 
nan

>  <Standardized_SMILES>  (600) 
COc1ccc(-c2cc(-c3ccc(OC)cc3)[nH]n2)cc1

>  <Name>  (600) 
nan

>  <Pocket>  (600) 
nan

>  <ATP_Site>  (600) 
nan

>  <Peripheral>  (600) 
nan

>  <Num_H_Atoms_ProtBoundConf>  (600) 
nan

>  <Num_Resolved_Atoms>  (600) 
nan

>  <Num_Not_Resolved_Atoms>  (600) 
nan

$$$$
CHEMBL1340718
     RDKit          3D

  0  0  0  0  0  0  0  0  0  0999 V3000
M  V30 BEGIN CTAB
M  V30 COUNTS 57 58 0 0 0
M  V30 BEGIN ATOM
M  V30 1 C -0.728194 -2.370036 4.347630 0
M  V30 2 C 0.757674 -2.551603 4.621610 0
M  V30 3 C 1.338633 -3.477894 3.585959 0
M  V30 4 O 1.197993 -2.997188 2.297532 0
M  V30 5 C 1.693300 -1.882302 1.692290 0
M  V30 6 C 2.506595 -0.851422 2.107524 0
M  V30 7 C 2.821309 0.154340 1.213478 0
M  V30 8 C 2.375333 0.202629 -0.081636 0
M  V30 9 C 2.705445 1.309638 -0.992590 0
M  V30 10 O 2.260639 1.256468 -2.192062 0
M  V30 11 C 3.514437 2.496250 -0.628252 0
M  V30 12 C 2.733470 3.447594 0.217409 0
M  V30 13 C 1.511048 3.975796 -0.402936 0
M  V30 14 O 0.951015 4.987899 -0.901095 0
M  V30 15 O 0.516812 3.029083 -0.525056 0
M  V30 16 C -0.744631 3.409764 -1.096014 0
M  V30 17 C -1.533460 2.175613 -1.183441 0
M  V30 18 O -0.430334 1.747626 -0.683497 0
M  V30 19 N -2.694647 1.432526 -1.502435 0
M  V30 20 C -2.652684 0.034722 -1.281999 0
M  V30 21 C -2.919623 -0.806125 -0.240531 0
M  V30 22 C -2.747623 -2.156544 -0.429004 0
M  V30 23 C -2.320250 -2.715421 -1.612787 0
M  V30 24 O -2.138669 -4.053153 -1.822656 0
M  V30 25 C -2.321114 -5.122330 -0.963590 0
M  V30 26 C -3.719565 -5.295644 -0.432936 0
M  V30 27 C -2.039903 -1.872589 -2.698039 0
M  V30 28 C -2.212687 -0.488638 -2.513118 0
M  V30 29 C 1.565733 -0.818236 -0.507987 0
M  V30 30 C 1.236363 -1.837727 0.370813 0
M  V30 31 H -1.298185 -2.770347 5.230910 0
M  V30 32 H -1.008549 -2.932609 3.431757 0
M  V30 33 H -0.941729 -1.275879 4.232860 0
M  V30 34 H 0.897947 -3.021211 5.623482 0
M  V30 35 H 1.230161 -1.567959 4.675843 0
M  V30 36 H 0.877362 -4.492192 3.659978 0
M  V30 37 H 2.417945 -3.659059 3.822151 0
M  V30 38 H 2.830068 -0.940017 3.110599 0
M  V30 39 H 3.463744 0.921905 1.611652 0
M  V30 40 H 3.870997 3.010847 -1.524113 0
M  V30 41 H 4.393333 2.161802 -0.023231 0
M  V30 42 H 2.487344 3.048591 1.239590 0
M  V30 43 H 3.421144 4.325337 0.407675 0
M  V30 44 H -1.250465 4.102151 -0.373691 0
M  V30 45 H -0.601900 3.883959 -2.079821 0
M  V30 46 H -3.260026 2.226739 -1.826218 0
M  V30 47 H -3.239285 -0.256843 0.617590 0
M  V30 48 H -2.970510 -2.782852 0.419717 0
M  V30 49 H -1.601072 -5.137705 -0.111250 0
M  V30 50 H -2.082765 -6.057830 -1.556089 0
M  V30 51 H -4.052780 -6.365006 -0.568654 0
M  V30 52 H -4.386199 -4.620478 -1.016869 0
M  V30 53 H -3.769515 -5.043076 0.651836 0
M  V30 54 H -1.704091 -2.333503 -3.627030 0
M  V30 55 H -1.954520 0.025990 -3.450170 0
M  V30 56 H 1.221478 -0.762006 -1.534771 0
M  V30 57 H 0.589668 -2.565594 -0.115227 0
M  V30 END ATOM
M  V30 BEGIN BOND
M  V30 1 1 1 2
M  V30 2 1 2 3
M  V30 3 1 3 4
M  V30 4 1 4 5
M  V30 5 2 5 6
M  V30 6 1 6 7
M  V30 7 2 7 8
M  V30 8 1 8 9
M  V30 9 2 9 10
M  V30 10 1 9 11
M  V30 11 1 11 12
M  V30 12 1 12 13
M  V30 13 2 13 14
M  V30 14 1 13 15
M  V30 15 1 15 16
M  V30 16 1 16 17
M  V30 17 2 17 18
M  V30 18 1 17 19
M  V30 19 1 19 20
M  V30 20 2 20 21
M  V30 21 1 21 22
M  V30 22 2 22 23
M  V30 23 1 23 24
M  V30 24 1 24 25
M  V30 25 1 25 26
M  V30 26 1 23 27
M  V30 27 2 27 28
M  V30 28 1 8 29
M  V30 29 2 29 30
M  V30 30 1 30 5
M  V30 31 1 28 20
M  V30 32 1 1 31
M  V30 33 1 1 32
M  V30 34 1 1 33
M  V30 35 1 2 34
M  V30 36 1 2 35
M  V30 37 1 3 36
M  V30 38 1 3 37
M  V30 39 1 6 38
M  V30 40 1 7 39
M  V30 41 1 11 40
M  V30 42 1 11 41
M  V30 43 1 12 42
M  V30 44 1 12 43
M  V30 45 1 16 44
M  V30 46 1 16 45
M  V30 47 1 19 46
M  V30 48 1 21 47
M  V30 49 1 22 48
M  V30 50 1 25 49
M  V30 51 1 25 50
M  V30 52 1 26 51
M  V30 53 1 26 52
M  V30 54 1 26 53
M  V30 55 1 27 54
M  V30 56 1 28 55
M  V30 57 1 29 56
M  V30 58 1 30 57
M  V30 END BOND
M  V30 END CTAB
M  END
>  <Dataset>  (601) 
ChEMBL_Kinases

>  <Ligand_Instance>  (601) 
nan

>  <PDB_ID>  (601) 
nan

>  <Standardized_SMILES>  (601) 
CCCOc1ccc(C(=O)CCC(=O)OCC(=O)Nc2ccc(OCC)cc2)cc1

>  <Name>  (601) 
nan

>  <Pocket>  (601) 
nan

>  <ATP_Site>  (601) 
nan

>  <Peripheral>  (601) 
nan

>  <Num_H_Atoms_ProtBoundConf>  (601) 
nan

>  <Num_Resolved_Atoms>  (601) 
nan

>  <Num_Not_Resolved_Atoms>  (601) 
nan

$$$$
CHEMBL1340626
     RDKit          3D

  0  0  0  0  0  0  0  0  0  0999 V3000
M  V30 BEGIN CTAB
M  V30 COUNTS 50 53 0 0 0
M  V30 BEGIN ATOM
M  V30 1 C -2.144002 -0.479627 3.428163 0
M  V30 2 O -0.860309 -0.570495 3.952229 0
M  V30 3 C 0.329172 -0.643588 3.285844 0
M  V30 4 C 1.447198 -0.726457 4.105523 0
M  V30 5 C 2.704332 -0.805119 3.540668 0
M  V30 6 C 2.893658 -0.804460 2.174512 0
M  V30 7 Cl 4.456449 -0.902222 1.379665 0
M  V30 8 C 1.780260 -0.721690 1.337688 0
M  V30 9 C 1.815196 -0.709063 -0.168512 0
M  V30 10 N 0.518099 -0.671928 -0.719392 0
M  V30 11 C -0.193270 0.402507 -1.106746 0
M  V30 12 N 0.091120 1.748721 -1.160226 0
M  V30 13 C 1.082705 2.692122 -0.916525 0
M  V30 14 C 1.473913 2.961300 0.492978 0
M  V30 15 C 2.475456 2.512110 1.319951 0
M  V30 16 C 2.388250 3.089262 2.568637 0
M  V30 17 C 1.279965 3.892526 2.404612 0
M  V30 18 O 0.772262 3.801782 1.203536 0
M  V30 19 N -1.384996 -0.132446 -1.523189 0
M  V30 20 C -1.399507 -1.446053 -1.399372 0
M  V30 21 C -0.200170 -1.813756 -0.890285 0
M  V30 22 C -0.010495 -3.168650 -0.681169 0
M  V30 23 O 1.061046 -3.570466 -0.218756 0
M  V30 24 N -0.978662 -4.040841 -0.976365 0
M  V30 25 C -0.771139 -5.465789 -0.753107 0
M  V30 26 C -2.140792 -3.587594 -1.479410 0
M  V30 27 O -3.004528 -4.446324 -1.734863 0
M  V30 28 N -2.406391 -2.268646 -1.714788 0
M  V30 29 C -3.680705 -1.860603 -2.257930 0
M  V30 30 C 0.522120 -0.643384 1.944581 0
M  V30 31 H -2.848781 -0.926036 4.189994 0
M  V30 32 H -2.318199 -1.053529 2.511045 0
M  V30 33 H -2.509906 0.546730 3.288350 0
M  V30 34 H 1.477897 -0.739106 5.190781 0
M  V30 35 H 3.635026 -0.872809 4.089119 0
M  V30 36 H 2.517823 0.055062 -0.550644 0
M  V30 37 H 2.328614 -1.649406 -0.443462 0
M  V30 38 H -0.731289 2.353889 -1.509612 0
M  V30 39 H 2.077726 2.454341 -1.411609 0
M  V30 40 H 0.902799 3.693372 -1.367009 0
M  V30 41 H 3.208100 1.789777 0.949697 0
M  V30 42 H 3.039366 2.922467 3.414044 0
M  V30 43 H 0.866059 4.537498 3.189948 0
M  V30 44 H -1.326172 -5.694142 0.203715 0
M  V30 45 H -1.182834 -6.092108 -1.549354 0
M  V30 46 H 0.282469 -5.679868 -0.558687 0
M  V30 47 H -3.912435 -0.834734 -1.940921 0
M  V30 48 H -4.469921 -2.577049 -1.935018 0
M  V30 49 H -3.661066 -1.920432 -3.386001 0
M  V30 50 H -0.389990 -0.576484 1.356934 0
M  V30 END ATOM
M  V30 BEGIN BOND
M  V30 1 1 1 2
M  V30 2 1 2 3
M  V30 3 2 3 4
M  V30 4 1 4 5
M  V30 5 2 5 6
M  V30 6 1 6 7
M  V30 7 1 6 8
M  V30 8 1 8 9
M  V30 9 1 9 10
M  V30 10 1 10 11
M  V30 11 1 11 12
M  V30 12 1 12 13
M  V30 13 1 13 14
M  V30 14 2 14 15
M  V30 15 1 15 16
M  V30 16 2 16 17
M  V30 17 1 17 18
M  V30 18 2 11 19
M  V30 19 1 19 20
M  V30 20 2 20 21
M  V30 21 1 21 22
M  V30 22 2 22 23
M  V30 23 1 22 24
M  V30 24 1 24 25
M  V30 25 1 24 26
M  V30 26 2 26 27
M  V30 27 1 26 28
M  V30 28 1 28 29
M  V30 29 2 8 30
M  V30 30 1 30 3
M  V30 31 1 21 10
M  V30 32 1 18 14
M  V30 33 1 28 20
M  V30 34 1 1 31
M  V30 35 1 1 32
M  V30 36 1 1 33
M  V30 37 1 4 34
M  V30 38 1 5 35
M  V30 39 1 9 36
M  V30 40 1 9 37
M  V30 41 1 12 38
M  V30 42 1 13 39
M  V30 43 1 13 40
M  V30 44 1 15 41
M  V30 45 1 16 42
M  V30 46 1 17 43
M  V30 47 1 25 44
M  V30 48 1 25 45
M  V30 49 1 25 46
M  V30 50 1 29 47
M  V30 51 1 29 48
M  V30 52 1 29 49
M  V30 53 1 30 50
M  V30 END BOND
M  V30 END CTAB
M  END
>  <Dataset>  (602) 
ChEMBL_Kinases

>  <Ligand_Instance>  (602) 
nan

>  <PDB_ID>  (602) 
nan

>  <Standardized_SMILES>  (602) 
COc1ccc(Cl)c(Cn2c(NCc3ccco3)nc3c2c(=O)n(C)c(=O)n3C)c1

>  <Name>  (602) 
nan

>  <Pocket>  (602) 
nan

>  <ATP_Site>  (602) 
nan

>  <Peripheral>  (602) 
nan

>  <Num_H_Atoms_ProtBoundConf>  (602) 
nan

>  <Num_Resolved_Atoms>  (602) 
nan

>  <Num_Not_Resolved_Atoms>  (602) 
nan

$$$$
CHEMBL1340620
     RDKit          3D

  0  0  0  0  0  0  0  0  0  0999 V3000
M  V30 BEGIN CTAB
M  V30 COUNTS 31 33 0 0 0
M  V30 BEGIN ATOM
M  V30 1 N 1.190033 -3.473888 2.738285 0
M  V30 2 C 2.400145 -3.482608 1.993456 0
M  V30 3 O 3.284195 -4.328168 2.251331 0
M  V30 4 C 2.608431 -2.506156 0.930635 0
M  V30 5 C 3.729598 -2.401375 0.132722 0
M  V30 6 N 3.524633 -1.372936 -0.722601 0
M  V30 7 N 2.322308 -0.843637 -0.480168 0
M  V30 8 C 1.641610 0.179243 -1.034090 0
M  V30 9 C 2.282904 0.923542 -2.144570 0
M  V30 10 F 3.174823 0.110080 -2.839711 0
M  V30 11 F 1.283382 1.268778 -3.045107 0
M  V30 12 F 3.013643 2.005396 -1.717548 0
M  V30 13 C 0.377705 0.555919 -0.607465 0
M  V30 14 C -0.196860 -0.152619 0.427278 0
M  V30 15 C -1.517642 0.138546 0.971001 0
M  V30 16 C -1.979378 -0.644915 2.007104 0
M  V30 17 C -3.234285 -0.436821 2.589241 0
M  V30 18 C -4.021313 0.594659 2.093289 0
M  V30 19 F -5.261761 0.845155 2.625891 0
M  V30 20 C -3.588534 1.399460 1.054809 0
M  V30 21 C -2.344175 1.147033 0.521610 0
M  V30 22 N 0.485392 -1.172984 0.977828 0
M  V30 23 C 1.725601 -1.519089 0.536731 0
M  V30 24 H 0.484088 -4.227503 2.887595 0
M  V30 25 H 0.580171 -2.878055 3.335979 0
M  V30 26 H 4.586510 -3.073404 0.241664 0
M  V30 27 H -0.164764 1.377335 -1.054884 0
M  V30 28 H -1.403149 -1.465127 2.432341 0
M  V30 29 H -3.594774 -1.052297 3.401807 0
M  V30 30 H -4.226742 2.194012 0.692685 0
M  V30 31 H -2.007160 1.768111 -0.281674 0
M  V30 END ATOM
M  V30 BEGIN BOND
M  V30 1 1 1 2
M  V30 2 2 2 3
M  V30 3 1 2 4
M  V30 4 1 4 5
M  V30 5 2 5 6
M  V30 6 1 6 7
M  V30 7 1 7 8
M  V30 8 1 8 9
M  V30 9 1 9 10
M  V30 10 1 9 11
M  V30 11 1 9 12
M  V30 12 2 8 13
M  V30 13 1 13 14
M  V30 14 1 14 15
M  V30 15 2 15 16
M  V30 16 1 16 17
M  V30 17 2 17 18
M  V30 18 1 18 19
M  V30 19 1 18 20
M  V30 20 2 20 21
M  V30 21 2 14 22
M  V30 22 1 22 23
M  V30 23 2 23 4
M  V30 24 1 23 7
M  V30 25 1 21 15
M  V30 26 1 1 24
M  V30 27 1 1 25
M  V30 28 1 5 26
M  V30 29 1 13 27
M  V30 30 1 16 28
M  V30 31 1 17 29
M  V30 32 1 20 30
M  V30 33 1 21 31
M  V30 END BOND
M  V30 END CTAB
M  END
>  <Dataset>  (603) 
ChEMBL_Kinases

>  <Ligand_Instance>  (603) 
nan

>  <PDB_ID>  (603) 
nan

>  <Standardized_SMILES>  (603) 
NC(=O)c1cnn2c(C(F)(F)F)cc(-c3ccc(F)cc3)nc12

>  <Name>  (603) 
nan

>  <Pocket>  (603) 
nan

>  <ATP_Site>  (603) 
nan

>  <Peripheral>  (603) 
nan

>  <Num_H_Atoms_ProtBoundConf>  (603) 
nan

>  <Num_Resolved_Atoms>  (603) 
nan

>  <Num_Not_Resolved_Atoms>  (603) 
nan

$$$$
CHEMBL1344423
     RDKit          3D

  0  0  0  0  0  0  0  0  0  0999 V3000
M  V30 BEGIN CTAB
M  V30 COUNTS 37 39 0 0 0
M  V30 BEGIN ATOM
M  V30 1 C 0.173456 -2.576639 5.156198 0
M  V30 2 O 0.137175 -2.055269 3.852318 0
M  V30 3 C 1.223700 -1.657640 3.119821 0
M  V30 4 O 2.298994 -1.809181 3.747748 0
M  V30 5 C 1.282685 -1.114896 1.784596 0
M  V30 6 N 2.295648 -0.715635 1.015134 0
M  V30 7 C 1.850339 -0.274003 -0.170724 0
M  V30 8 C 2.558767 0.258434 -1.338807 0
M  V30 9 C 1.777626 0.603272 -2.428824 0
M  V30 10 C 2.367063 1.107580 -3.579751 0
M  V30 11 C 3.755122 1.255155 -3.601859 0
M  V30 12 C 4.498207 0.897543 -2.486319 0
M  V30 13 C 3.933769 0.389797 -1.322291 0
M  V30 14 O 0.540151 -0.413966 -0.106458 0
M  V30 15 C 0.151961 -0.909311 1.032662 0
M  V30 16 N -1.244834 -1.087274 1.167346 0
M  V30 17 C -1.800695 0.022619 1.937792 0
M  V30 18 C -3.292132 0.021239 1.679218 0
M  V30 19 O -3.633499 -0.132055 0.355838 0
M  V30 20 C -3.111793 -1.241600 -0.254990 0
M  V30 21 C -2.253629 -2.045787 0.738076 0
M  V30 22 H 0.053413 -3.681793 5.209747 0
M  V30 23 H 1.135293 -2.322388 5.658034 0
M  V30 24 H -0.685233 -2.172616 5.735788 0
M  V30 25 H 0.685907 0.504149 -2.450315 0
M  V30 26 H 1.850832 1.402105 -4.477968 0
M  V30 27 H 4.323213 1.642940 -4.461392 0
M  V30 28 H 5.585895 0.994473 -2.448964 0
M  V30 29 H 4.528906 0.118836 -0.459541 0
M  V30 30 H -1.657459 -0.164516 3.016121 0
M  V30 31 H -1.393359 0.997995 1.617411 0
M  V30 32 H -3.690518 1.024878 1.990998 0
M  V30 33 H -3.776337 -0.716672 2.360300 0
M  V30 34 H -2.384039 -0.915192 -1.051127 0
M  V30 35 H -3.832668 -1.878558 -0.793414 0
M  V30 36 H -1.789292 -2.874208 0.155224 0
M  V30 37 H -2.864987 -2.438240 1.545340 0
M  V30 END ATOM
M  V30 BEGIN BOND
M  V30 1 1 1 2
M  V30 2 1 2 3
M  V30 3 2 3 4
M  V30 4 1 3 5
M  V30 5 1 5 6
M  V30 6 2 6 7
M  V30 7 1 7 8
M  V30 8 2 8 9
M  V30 9 1 9 10
M  V30 10 2 10 11
M  V30 11 1 11 12
M  V30 12 2 12 13
M  V30 13 1 7 14
M  V30 14 1 14 15
M  V30 15 1 15 16
M  V30 16 1 16 17
M  V30 17 1 17 18
M  V30 18 1 18 19
M  V30 19 1 19 20
M  V30 20 1 20 21
M  V30 21 2 15 5
M  V30 22 1 21 16
M  V30 23 1 13 8
M  V30 24 1 1 22
M  V30 25 1 1 23
M  V30 26 1 1 24
M  V30 27 1 9 25
M  V30 28 1 10 26
M  V30 29 1 11 27
M  V30 30 1 12 28
M  V30 31 1 13 29
M  V30 32 1 17 30
M  V30 33 1 17 31
M  V30 34 1 18 32
M  V30 35 1 18 33
M  V30 36 1 20 34
M  V30 37 1 20 35
M  V30 38 1 21 36
M  V30 39 1 21 37
M  V30 END BOND
M  V30 END CTAB
M  END
>  <Dataset>  (604) 
ChEMBL_Kinases

>  <Ligand_Instance>  (604) 
nan

>  <PDB_ID>  (604) 
nan

>  <Standardized_SMILES>  (604) 
COC(=O)c1nc(-c2ccccc2)oc1N1CCOCC1

>  <Name>  (604) 
nan

>  <Pocket>  (604) 
nan

>  <ATP_Site>  (604) 
nan

>  <Peripheral>  (604) 
nan

>  <Num_H_Atoms_ProtBoundConf>  (604) 
nan

>  <Num_Resolved_Atoms>  (604) 
nan

>  <Num_Not_Resolved_Atoms>  (604) 
nan

$$$$
CHEMBL1339701
     RDKit          3D

  0  0  0  0  0  0  0  0  0  0999 V3000
M  V30 BEGIN CTAB
M  V30 COUNTS 37 39 0 0 0
M  V30 BEGIN ATOM
M  V30 1 N -2.080330 -1.132290 5.987064 0
M  V30 2 C -1.445186 -1.213113 5.018074 0
M  V30 3 C -0.661809 -1.319684 3.827489 0
M  V30 4 N 0.586427 -0.992715 3.548789 0
M  V30 5 C 0.854938 -1.297349 2.267347 0
M  V30 6 C 2.134671 -1.098185 1.538306 0
M  V30 7 O 2.224844 0.143312 0.909161 0
M  V30 8 C 3.284061 0.614498 0.161412 0
M  V30 9 C 4.452713 -0.113503 -0.076314 0
M  V30 10 C 5.447648 0.456445 -0.838617 0
M  V30 11 C 5.264820 1.726580 -1.345580 0
M  V30 12 C 4.127294 2.482804 -1.136583 0
M  V30 13 Cl 3.940263 4.094149 -1.801962 0
M  V30 14 C 3.143685 1.875878 -0.362509 0
M  V30 15 O -0.241194 -1.809068 1.780502 0
M  V30 16 C -1.208027 -1.859333 2.657609 0
M  V30 17 N -2.474402 -2.384012 2.312326 0
M  V30 18 C -2.998669 -2.930275 1.082944 0
M  V30 19 C -2.925516 -1.877923 0.039057 0
M  V30 20 C -3.988492 -0.994347 -0.104178 0
M  V30 21 C -4.022180 0.019947 -1.050366 0
M  V30 22 N -2.965818 0.158984 -1.879081 0
M  V30 23 C -1.912936 -0.667354 -1.783959 0
M  V30 24 C -1.886989 -1.672299 -0.841743 0
M  V30 25 H 2.319360 -1.904621 0.795976 0
M  V30 26 H 2.953231 -1.157112 2.286622 0
M  V30 27 H 4.520412 -1.108467 0.358310 0
M  V30 28 H 6.364976 -0.100634 -1.031992 0
M  V30 29 H 6.052866 2.175365 -1.948090 0
M  V30 30 H 2.245242 2.476653 -0.199126 0
M  V30 31 H -3.114362 -2.340190 3.158686 0
M  V30 32 H -4.053525 -3.174515 1.207587 0
M  V30 33 H -2.457940 -3.847021 0.765870 0
M  V30 34 H -4.865858 -1.045288 0.522447 0
M  V30 35 H -4.863286 0.694293 -1.140016 0
M  V30 36 H -1.106828 -0.506689 -2.468388 0
M  V30 37 H -1.046458 -2.329346 -0.774104 0
M  V30 END ATOM
M  V30 BEGIN BOND
M  V30 1 3 1 2
M  V30 2 1 2 3
M  V30 3 1 3 4
M  V30 4 2 4 5
M  V30 5 1 5 6
M  V30 6 1 6 7
M  V30 7 1 7 8
M  V30 8 2 8 9
M  V30 9 1 9 10
M  V30 10 2 10 11
M  V30 11 1 11 12
M  V30 12 1 12 13
M  V30 13 2 12 14
M  V30 14 1 5 15
M  V30 15 1 15 16
M  V30 16 1 16 17
M  V30 17 1 17 18
M  V30 18 1 18 19
M  V30 19 2 19 20
M  V30 20 1 20 21
M  V30 21 2 21 22
M  V30 22 1 22 23
M  V30 23 2 23 24
M  V30 24 2 16 3
M  V30 25 1 24 19
M  V30 26 1 14 8
M  V30 27 1 6 25
M  V30 28 1 6 26
M  V30 29 1 9 27
M  V30 30 1 10 28
M  V30 31 1 11 29
M  V30 32 1 14 30
M  V30 33 1 17 31
M  V30 34 1 18 32
M  V30 35 1 18 33
M  V30 36 1 20 34
M  V30 37 1 21 35
M  V30 38 1 23 36
M  V30 39 1 24 37
M  V30 END BOND
M  V30 END CTAB
M  END
>  <Dataset>  (605) 
ChEMBL_Kinases

>  <Ligand_Instance>  (605) 
nan

>  <PDB_ID>  (605) 
nan

>  <Standardized_SMILES>  (605) 
N#Cc1nc(COc2cccc(Cl)c2)oc1NCc1ccncc1

>  <Name>  (605) 
nan

>  <Pocket>  (605) 
nan

>  <ATP_Site>  (605) 
nan

>  <Peripheral>  (605) 
nan

>  <Num_H_Atoms_ProtBoundConf>  (605) 
nan

>  <Num_Resolved_Atoms>  (605) 
nan

>  <Num_Not_Resolved_Atoms>  (605) 
nan

$$$$
CHEMBL1339723
     RDKit          3D

  0  0  0  0  0  0  0  0  0  0999 V3000
M  V30 BEGIN CTAB
M  V30 COUNTS 49 50 0 0 0
M  V30 BEGIN ATOM
M  V30 1 C 0.849649 -2.194143 -3.475790 0
M  V30 2 C 0.409007 -2.827711 -2.224298 0
M  V30 3 C 0.858058 -4.076521 -1.858263 0
M  V30 4 C 0.403660 -4.613821 -0.659192 0
M  V30 5 C -0.477759 -3.902566 0.139395 0
M  V30 6 C -0.830761 -4.666702 1.367586 0
M  V30 7 C -0.922601 -2.632711 -0.250603 0
M  V30 8 N -1.811780 -2.083473 0.708924 0
M  V30 9 C -1.464480 -1.355757 1.889672 0
M  V30 10 S -2.675435 -0.206473 2.490440 0
M  V30 11 N -0.308751 -1.663850 2.324916 0
M  V30 12 N 0.313706 -1.149178 3.434128 0
M  V30 13 C 1.248390 -0.331616 3.563280 0
M  V30 14 S 1.083983 -0.531718 5.347558 0
M  V30 15 N 2.132612 0.465377 2.829882 0
M  V30 16 C 1.531621 0.925895 1.644232 0
M  V30 17 C 1.458024 0.366336 0.409530 0
M  V30 18 C 0.846211 0.963805 -0.655244 0
M  V30 19 C 0.257962 2.214813 -0.488897 0
M  V30 20 C -0.440521 2.937344 -1.607736 0
M  V30 21 C -1.668369 2.144980 -2.076267 0
M  V30 22 C 0.493691 3.046764 -2.794210 0
M  V30 23 C 0.303205 2.818470 0.727356 0
M  V30 24 C 0.930194 2.181836 1.774015 0
M  V30 25 C -0.464438 -2.112683 -1.441981 0
M  V30 26 H 0.085508 -2.252803 -4.295189 0
M  V30 27 H 1.175825 -1.155585 -3.357034 0
M  V30 28 H 1.773304 -2.739767 -3.834069 0
M  V30 29 H 1.557017 -4.581212 -2.539746 0
M  V30 30 H 0.807523 -5.590219 -0.458342 0
M  V30 31 H 0.080351 -4.743958 2.021938 0
M  V30 32 H -1.635643 -4.182044 1.919172 0
M  V30 33 H -1.142918 -5.682645 1.100824 0
M  V30 34 H -2.784475 -2.309869 0.391748 0
M  V30 35 H -2.152242 1.096719 2.539220 0
M  V30 36 H 2.042229 -1.452841 5.815479 0
M  V30 37 H 3.033532 0.534280 3.333434 0
M  V30 38 H 1.933376 -0.609101 0.341154 0
M  V30 39 H 0.796408 0.524812 -1.616955 0
M  V30 40 H -0.749403 3.951606 -1.283385 0
M  V30 41 H -2.497813 2.864599 -2.263479 0
M  V30 42 H -1.488418 1.630229 -3.042357 0
M  V30 43 H -1.995593 1.426915 -1.325028 0
M  V30 44 H 0.076623 3.796370 -3.504984 0
M  V30 45 H 1.529930 3.299541 -2.509656 0
M  V30 46 H 0.549550 2.075934 -3.354683 0
M  V30 47 H -0.162743 3.808193 0.855672 0
M  V30 48 H 0.919489 2.743788 2.720012 0
M  V30 49 H -0.892836 -1.140385 -1.613833 0
M  V30 END ATOM
M  V30 BEGIN BOND
M  V30 1 1 1 2
M  V30 2 2 2 3
M  V30 3 1 3 4
M  V30 4 2 4 5
M  V30 5 1 5 6
M  V30 6 1 5 7
M  V30 7 1 7 8
M  V30 8 1 8 9
M  V30 9 1 9 10
M  V30 10 2 9 11 CFG=2
M  V30 11 1 11 12
M  V30 12 2 12 13 CFG=2
M  V30 13 1 13 14
M  V30 14 1 13 15
M  V30 15 1 15 16
M  V30 16 2 16 17
M  V30 17 1 17 18
M  V30 18 2 18 19
M  V30 19 1 19 20
M  V30 20 1 20 21
M  V30 21 1 20 22
M  V30 22 1 19 23
M  V30 23 2 23 24
M  V30 24 2 7 25
M  V30 25 1 25 2
M  V30 26 1 24 16
M  V30 27 1 1 26
M  V30 28 1 1 27
M  V30 29 1 1 28
M  V30 30 1 3 29
M  V30 31 1 4 30
M  V30 32 1 6 31
M  V30 33 1 6 32
M  V30 34 1 6 33
M  V30 35 1 8 34
M  V30 36 1 10 35
M  V30 37 1 14 36
M  V30 38 1 15 37
M  V30 39 1 17 38
M  V30 40 1 18 39
M  V30 41 1 20 40
M  V30 42 1 21 41
M  V30 43 1 21 42
M  V30 44 1 21 43
M  V30 45 1 22 44
M  V30 46 1 22 45
M  V30 47 1 22 46
M  V30 48 1 23 47
M  V30 49 1 24 48
M  V30 50 1 25 49
M  V30 END BOND
M  V30 END CTAB
M  END
>  <Dataset>  (606) 
ChEMBL_Kinases

>  <Ligand_Instance>  (606) 
nan

>  <PDB_ID>  (606) 
nan

>  <Standardized_SMILES>  (606) 
Cc1ccc(C)c(NC(S)=NN=C(S)Nc2ccc(C(C)C)cc2)c1

>  <Name>  (606) 
nan

>  <Pocket>  (606) 
nan

>  <ATP_Site>  (606) 
nan

>  <Peripheral>  (606) 
nan

>  <Num_H_Atoms_ProtBoundConf>  (606) 
nan

>  <Num_Resolved_Atoms>  (606) 
nan

>  <Num_Not_Resolved_Atoms>  (606) 
nan

$$$$
CHEMBL1339794
     RDKit          3D

  0  0  0  0  0  0  0  0  0  0999 V3000
M  V30 BEGIN CTAB
M  V30 COUNTS 32 35 0 0 0
M  V30 BEGIN ATOM
M  V30 1 N -1.778695 -4.135398 2.489015 0
M  V30 2 C -0.900698 -3.600844 1.938337 0
M  V30 3 C 0.203640 -2.957604 1.258898 0
M  V30 4 C 1.345390 -3.620830 1.296185 0
M  V30 5 N 1.471729 -4.866657 1.956777 0
M  V30 6 O 2.365012 -2.963068 0.625982 0
M  V30 7 C 2.092943 -1.746717 0.018719 0
M  V30 8 N 3.108502 -1.123132 -0.641658 0
M  V30 9 N 2.558843 -0.017411 -1.112929 0
M  V30 10 C 1.261760 0.043826 -0.761841 0
M  V30 11 C 0.264628 1.100106 -1.123532 0
M  V30 12 C 0.695510 2.248162 -1.828593 0
M  V30 13 C -0.240129 3.179720 -2.132248 0
M  V30 14 C -1.592003 2.900625 -1.700413 0
M  V30 15 S -1.320545 1.227895 -0.860970 0
M  V30 16 C 0.885834 -1.057520 -0.014417 0
M  V30 17 C -0.250556 -1.631699 0.687111 0
M  V30 18 C -0.898455 -0.829705 1.703204 0
M  V30 19 C -1.995436 -0.126142 2.166918 0
M  V30 20 C -1.972466 0.507407 3.374073 0
M  V30 21 C -0.819047 0.447672 4.163069 0
M  V30 22 S 0.289668 -0.612043 3.040087 0
M  V30 23 H 0.961355 -5.668020 1.540591 0
M  V30 24 H 2.100940 -4.710375 2.790963 0
M  V30 25 H 4.106024 -1.290930 -0.842250 0
M  V30 26 H 1.722745 2.452236 -2.152215 0
M  V30 27 H -0.109336 4.111326 -2.658416 0
M  V30 28 H -2.487050 3.598367 -1.887304 0
M  V30 29 H -1.017369 -1.917555 -0.066510 0
M  V30 30 H -2.751489 -0.216394 1.407094 0
M  V30 31 H -2.876437 1.032039 3.652597 0
M  V30 32 H -0.726926 0.898364 5.081048 0
M  V30 END ATOM
M  V30 BEGIN BOND
M  V30 1 3 1 2
M  V30 2 1 2 3
M  V30 3 2 3 4
M  V30 4 1 4 5
M  V30 5 1 4 6
M  V30 6 1 6 7
M  V30 7 1 7 8
M  V30 8 1 8 9
M  V30 9 2 9 10
M  V30 10 1 10 11
M  V30 11 2 11 12
M  V30 12 1 12 13
M  V30 13 2 13 14
M  V30 14 1 14 15
M  V30 15 1 10 16
M  V30 16 1 16 17
M  V30 17 1 17 18
M  V30 18 2 18 19
M  V30 19 1 19 20
M  V30 20 2 20 21
M  V30 21 1 21 22
M  V30 22 1 17 3
M  V30 23 1 22 18
M  V30 24 2 16 7
M  V30 25 1 15 11
M  V30 26 1 5 23
M  V30 27 1 5 24
M  V30 28 1 8 25
M  V30 29 1 12 26
M  V30 30 1 13 27
M  V30 31 1 14 28
M  V30 32 1 17 29
M  V30 33 1 19 30
M  V30 34 1 20 31
M  V30 35 1 21 32
M  V30 END BOND
M  V30 END CTAB
M  END
>  <Dataset>  (607) 
ChEMBL_Kinases

>  <Ligand_Instance>  (607) 
nan

>  <PDB_ID>  (607) 
nan

>  <Standardized_SMILES>  (607) 
N#CC1=C(N)Oc2[nH]nc(-c3cccs3)c2C1c1cccs1

>  <Name>  (607) 
nan

>  <Pocket>  (607) 
nan

>  <ATP_Site>  (607) 
nan

>  <Peripheral>  (607) 
nan

>  <Num_H_Atoms_ProtBoundConf>  (607) 
nan

>  <Num_Resolved_Atoms>  (607) 
nan

>  <Num_Not_Resolved_Atoms>  (607) 
nan

$$$$
CHEMBL1339805
     RDKit          3D

  0  0  0  0  0  0  0  0  0  0999 V3000
M  V30 BEGIN CTAB
M  V30 COUNTS 53 55 0 0 0
M  V30 BEGIN ATOM
M  V30 1 C 4.479052 -0.658581 4.226734 0
M  V30 2 O 3.992636 0.196921 3.194841 0
M  V30 3 C 4.652653 0.265076 1.991281 0
M  V30 4 C 5.785468 -0.460919 1.712145 0
M  V30 5 C 6.375365 -0.327926 0.483705 0
M  V30 6 C 5.896330 0.500059 -0.502417 0
M  V30 7 C 4.757997 1.209403 -0.179159 0
M  V30 8 C 4.108742 1.118481 1.055418 0
M  V30 9 N 2.953307 1.929110 1.191291 0
M  V30 10 C 1.735909 1.311270 0.796684 0
M  V30 11 O 2.005009 0.138920 0.406083 0
M  V30 12 N 0.539841 2.089887 0.914793 0
M  V30 13 C 0.413493 3.472423 1.401615 0
M  V30 14 C -0.856231 3.463852 2.213632 0
M  V30 15 C -1.537551 2.141303 1.899984 0
M  V30 16 C -0.840773 1.773878 0.607306 0
M  V30 17 C -0.996543 0.323035 0.342210 0
M  V30 18 O -0.445173 -0.803139 0.258458 0
M  V30 19 N -2.386095 0.065987 0.048025 0
M  V30 20 C -2.953615 -1.203674 -0.262304 0
M  V30 21 C -3.429378 -1.982256 0.772510 0
M  V30 22 C -3.990295 -3.220138 0.542701 0
M  V30 23 C -4.106386 -3.745263 -0.723756 0
M  V30 24 N -4.693170 -5.022087 -0.880257 0
M  V30 25 C -4.928062 -5.773945 -2.044892 0
M  V30 26 C -5.559232 -7.117117 -2.075721 0
M  V30 27 O -4.588294 -5.297272 -3.155273 0
M  V30 28 C -3.621738 -2.940939 -1.726786 0
M  V30 29 C -3.053211 -1.697943 -1.546906 0
M  V30 30 H 5.541103 -0.495294 4.427689 0
M  V30 31 H 3.881669 -0.558303 5.142999 0
M  V30 32 H 4.318963 -1.702793 3.830891 0
M  V30 33 H 6.165844 -1.111058 2.479611 0
M  V30 34 H 7.259835 -0.922250 0.324687 0
M  V30 35 H 6.375611 0.588638 -1.458842 0
M  V30 36 H 4.376060 1.870588 -0.968353 0
M  V30 37 H 3.067599 2.911703 1.566007 0
M  V30 38 H 1.265317 3.716242 2.095057 0
M  V30 39 H 0.420976 4.204819 0.586717 0
M  V30 40 H -0.706564 3.562866 3.287562 0
M  V30 41 H -1.490632 4.290727 1.817564 0
M  V30 42 H -2.627468 2.260884 1.773382 0
M  V30 43 H -1.299933 1.361805 2.644008 0
M  V30 44 H -1.191531 2.363431 -0.261287 0
M  V30 45 H -3.280202 0.631788 -0.021770 0
M  V30 46 H -3.376729 -1.646530 1.788352 0
M  V30 47 H -4.353025 -3.800332 1.393425 0
M  V30 48 H -5.023006 -5.535700 -0.032636 0
M  V30 49 H -6.620216 -7.076697 -2.376504 0
M  V30 50 H -4.936300 -7.750967 -2.753107 0
M  V30 51 H -5.532555 -7.550556 -1.068024 0
M  V30 52 H -3.670064 -3.266788 -2.739685 0
M  V30 53 H -2.688739 -1.108609 -2.372085 0
M  V30 END ATOM
M  V30 BEGIN BOND
M  V30 1 1 1 2
M  V30 2 1 2 3
M  V30 3 2 3 4
M  V30 4 1 4 5
M  V30 5 2 5 6
M  V30 6 1 6 7
M  V30 7 2 7 8
M  V30 8 1 8 9
M  V30 9 1 9 10
M  V30 10 2 10 11
M  V30 11 1 10 12
M  V30 12 1 12 13
M  V30 13 1 13 14
M  V30 14 1 14 15
M  V30 15 1 15 16
M  V30 16 1 16 17
M  V30 17 2 17 18
M  V30 18 1 17 19
M  V30 19 1 19 20
M  V30 20 2 20 21
M  V30 21 1 21 22
M  V30 22 2 22 23
M  V30 23 1 23 24
M  V30 24 1 24 25
M  V30 25 1 25 26
M  V30 26 2 25 27
M  V30 27 1 23 28
M  V30 28 2 28 29
M  V30 29 1 8 3
M  V30 30 1 16 12
M  V30 31 1 29 20
M  V30 32 1 1 30
M  V30 33 1 1 31
M  V30 34 1 1 32
M  V30 35 1 4 33
M  V30 36 1 5 34
M  V30 37 1 6 35
M  V30 38 1 7 36
M  V30 39 1 9 37
M  V30 40 1 13 38
M  V30 41 1 13 39
M  V30 42 1 14 40
M  V30 43 1 14 41
M  V30 44 1 15 42
M  V30 45 1 15 43
M  V30 46 1 16 44
M  V30 47 1 19 45
M  V30 48 1 21 46
M  V30 49 1 22 47
M  V30 50 1 24 48
M  V30 51 1 26 49
M  V30 52 1 26 50
M  V30 53 1 26 51
M  V30 54 1 28 52
M  V30 55 1 29 53
M  V30 END BOND
M  V30 END CTAB
M  END
>  <Dataset>  (608) 
ChEMBL_Kinases

>  <Ligand_Instance>  (608) 
nan

>  <PDB_ID>  (608) 
nan

>  <Standardized_SMILES>  (608) 
COc1ccccc1NC(=O)N1CCCC1C(=O)Nc1ccc(NC(C)=O)cc1

>  <Name>  (608) 
nan

>  <Pocket>  (608) 
nan

>  <ATP_Site>  (608) 
nan

>  <Peripheral>  (608) 
nan

>  <Num_H_Atoms_ProtBoundConf>  (608) 
nan

>  <Num_Resolved_Atoms>  (608) 
nan

>  <Num_Not_Resolved_Atoms>  (608) 
nan

$$$$
CHEMBL1339933
     RDKit          3D

  0  0  0  0  0  0  0  0  0  0999 V3000
M  V30 BEGIN CTAB
M  V30 COUNTS 51 54 0 0 0
M  V30 BEGIN ATOM
M  V30 1 C 4.228971 -4.447346 2.658069 0
M  V30 2 C 3.198143 -3.373439 2.725723 0
M  V30 3 N 3.657087 -2.162307 3.320291 0
M  V30 4 C 4.166045 -2.266943 4.621210 0
M  V30 5 C 3.513153 -1.410185 5.675018 0
M  V30 6 S 4.332797 -1.013548 2.299828 0
M  V30 7 O 4.716324 0.178615 3.132267 0
M  V30 8 O 5.597578 -1.520654 1.664269 0
M  V30 9 C 3.206675 -0.421977 1.078731 0
M  V30 10 C 3.172151 -1.110559 -0.121488 0
M  V30 11 C 2.294980 -0.659264 -1.088074 0
M  V30 12 C 1.484379 0.435129 -0.866836 0
M  V30 13 N 0.568650 1.056737 -1.628407 0
M  V30 14 C 0.013709 2.101959 -0.989751 0
M  V30 15 C -1.027101 3.074999 -1.410878 0
M  V30 16 O -2.333055 2.689219 -1.087659 0
M  V30 17 C -2.978310 1.546682 -1.519588 0
M  V30 18 O -2.393265 0.743711 -2.271312 0
M  V30 19 C -4.356645 1.288445 -1.085309 0
M  V30 20 N -5.157053 2.017084 -0.286908 0
M  V30 21 N -6.328086 1.433140 -0.144323 0
M  V30 22 C -6.384429 0.274198 -0.840320 0
M  V30 23 C -7.314020 -0.726627 -1.061037 0
M  V30 24 C -7.016945 -1.820130 -1.868909 0
M  V30 25 C -5.778272 -1.925114 -2.468892 0
M  V30 26 C -4.861489 -0.901194 -2.228293 0
M  V30 27 C -5.124110 0.191116 -1.436032 0
M  V30 28 N 0.621365 2.125615 0.233067 0
M  V30 29 C 1.515085 1.124478 0.327198 0
M  V30 30 C 2.392363 0.673842 1.295061 0
M  V30 31 H 4.524270 -4.825764 3.656631 0
M  V30 32 H 5.095098 -4.217270 2.031701 0
M  V30 33 H 3.719732 -5.330732 2.171050 0
M  V30 34 H 2.356832 -3.754453 3.349134 0
M  V30 35 H 2.751679 -3.232678 1.720648 0
M  V30 36 H 5.260162 -2.054761 4.636634 0
M  V30 37 H 4.032922 -3.332613 4.964605 0
M  V30 38 H 3.759932 -0.342699 5.500897 0
M  V30 39 H 2.421927 -1.532322 5.698305 0
M  V30 40 H 3.957717 -1.744881 6.655745 0
M  V30 41 H 3.816971 -1.971131 -0.281040 0
M  V30 42 H 2.259108 -1.191976 -2.034320 0
M  V30 43 H 0.328203 0.764934 -2.580553 0
M  V30 44 H -0.822511 4.039080 -0.879386 0
M  V30 45 H -0.909674 3.312721 -2.493727 0
M  V30 46 H -4.863133 2.931233 0.154343 0
M  V30 47 H -8.276881 -0.624213 -0.581685 0
M  V30 48 H -7.774145 -2.600851 -2.027274 0
M  V30 49 H -5.558914 -2.773283 -3.090700 0
M  V30 50 H -3.906330 -1.026156 -2.718297 0
M  V30 51 H 2.448061 1.185428 2.245233 0
M  V30 END ATOM
M  V30 BEGIN BOND
M  V30 1 1 1 2
M  V30 2 1 2 3
M  V30 3 1 3 4
M  V30 4 1 4 5
M  V30 5 1 3 6
M  V30 6 2 6 7
M  V30 7 2 6 8
M  V30 8 1 6 9
M  V30 9 2 9 10
M  V30 10 1 10 11
M  V30 11 2 11 12
M  V30 12 1 12 13
M  V30 13 1 13 14
M  V30 14 1 14 15
M  V30 15 1 15 16
M  V30 16 1 16 17
M  V30 17 2 17 18
M  V30 18 1 17 19
M  V30 19 1 19 20
M  V30 20 1 20 21
M  V30 21 2 21 22
M  V30 22 1 22 23
M  V30 23 2 23 24
M  V30 24 1 24 25
M  V30 25 2 25 26
M  V30 26 1 26 27
M  V30 27 2 14 28
M  V30 28 1 28 29
M  V30 29 2 29 30
M  V30 30 1 30 9
M  V30 31 1 29 12
M  V30 32 2 27 19
M  V30 33 1 27 22
M  V30 34 1 1 31
M  V30 35 1 1 32
M  V30 36 1 1 33
M  V30 37 1 2 34
M  V30 38 1 2 35
M  V30 39 1 4 36
M  V30 40 1 4 37
M  V30 41 1 5 38
M  V30 42 1 5 39
M  V30 43 1 5 40
M  V30 44 1 10 41
M  V30 45 1 11 42
M  V30 46 1 13 43
M  V30 47 1 15 44
M  V30 48 1 15 45
M  V30 49 1 20 46
M  V30 50 1 23 47
M  V30 51 1 24 48
M  V30 52 1 25 49
M  V30 53 1 26 50
M  V30 54 1 30 51
M  V30 END BOND
M  V30 END CTAB
M  END
>  <Dataset>  (609) 
ChEMBL_Kinases

>  <Ligand_Instance>  (609) 
nan

>  <PDB_ID>  (609) 
nan

>  <Standardized_SMILES>  (609) 
CCN(CC)S(=O)(=O)c1ccc2[nH]c(COC(=O)c3[nH]nc4ccccc34)nc2c1

>  <Name>  (609) 
nan

>  <Pocket>  (609) 
nan

>  <ATP_Site>  (609) 
nan

>  <Peripheral>  (609) 
nan

>  <Num_H_Atoms_ProtBoundConf>  (609) 
nan

>  <Num_Resolved_Atoms>  (609) 
nan

>  <Num_Not_Resolved_Atoms>  (609) 
nan

$$$$
CHEMBL1339950
     RDKit          3D

  0  0  0  0  0  0  0  0  0  0999 V3000
M  V30 BEGIN CTAB
M  V30 COUNTS 65 66 0 0 0
M  V30 BEGIN ATOM
M  V30 1 C 2.670763 -2.213780 5.462314 0
M  V30 2 C 3.738620 -1.218517 5.089656 0
M  V30 3 O 3.303142 -0.506861 3.947936 0
M  V30 4 C 2.995614 -1.079485 2.725346 0
M  V30 5 O 3.109125 -2.318857 2.614950 0
M  V30 6 C 2.547903 -0.222027 1.603165 0
M  V30 7 C 2.393340 1.140246 1.605095 0
M  V30 8 C 2.660724 2.042340 2.763450 0
M  V30 9 C 1.945318 1.542630 0.341119 0
M  V30 10 C 1.671939 2.909891 -0.008565 0
M  V30 11 C 2.031535 3.666238 -1.103875 0
M  V30 12 C 1.645212 4.975587 -1.232033 0
M  V30 13 C 0.886242 5.623544 -0.300297 0
M  V30 14 C 0.509574 4.913883 0.795583 0
M  V30 15 C 0.891962 3.586072 0.942730 0
M  V30 16 N 1.839955 0.424818 -0.390213 0
M  V30 17 C 1.410798 0.235517 -1.758590 0
M  V30 18 C -0.082365 -0.004761 -1.793438 0
M  V30 19 O -0.663185 -0.248052 -2.882686 0
M  V30 20 N -0.844664 0.041015 -0.597095 0
M  V30 21 C -2.265106 -0.166459 -0.436137 0
M  V30 22 C -2.579009 -1.589602 -0.893760 0
M  V30 23 C -4.036297 -1.897558 -0.757138 0
M  V30 24 N -4.364773 -3.197922 -1.116115 0
M  V30 25 C -4.299875 -3.666682 -2.443316 0
M  V30 26 C -2.932475 -3.833895 -3.026196 0
M  V30 27 C -5.045755 -4.037206 -0.204836 0
M  V30 28 C -4.211931 -4.428633 0.997440 0
M  V30 29 C 2.198534 -0.667870 0.345471 0
M  V30 30 C 2.237767 -2.114790 -0.037917 0
M  V30 31 H 2.060861 -1.803117 6.287338 0
M  V30 32 H 1.953366 -2.415771 4.637903 0
M  V30 33 H 3.100066 -3.188063 5.789282 0
M  V30 34 H 3.829198 -0.488929 5.934927 0
M  V30 35 H 4.729041 -1.696086 4.930164 0
M  V30 36 H 1.863190 1.919203 3.511680 0
M  V30 37 H 3.601516 1.698693 3.258298 0
M  V30 38 H 2.853842 3.089978 2.457072 0
M  V30 39 H 2.627094 3.140106 -1.811262 0
M  V30 40 H 1.963909 5.515102 -2.123476 0
M  V30 41 H 0.604300 6.653283 -0.437794 0
M  V30 42 H -0.095076 5.408803 1.550649 0
M  V30 43 H 0.533605 3.119573 1.860854 0
M  V30 44 H 1.870927 -0.622663 -2.255221 0
M  V30 45 H 1.545898 1.128468 -2.398229 0
M  V30 46 H -0.265443 0.260128 0.270623 0
M  V30 47 H -2.875693 0.566079 -0.998299 0
M  V30 48 H -2.528742 -0.104521 0.622488 0
M  V30 49 H -2.008198 -2.259953 -0.220423 0
M  V30 50 H -2.264060 -1.631264 -1.955167 0
M  V30 51 H -4.434561 -1.570605 0.237600 0
M  V30 52 H -4.560863 -1.170190 -1.466783 0
M  V30 53 H -4.833531 -2.878587 -3.077427 0
M  V30 54 H -4.860211 -4.635352 -2.559373 0
M  V30 55 H -2.174568 -3.954289 -2.223875 0
M  V30 56 H -2.932480 -4.805312 -3.607775 0
M  V30 57 H -2.700857 -3.038257 -3.764735 0
M  V30 58 H -5.409935 -4.942368 -0.734606 0
M  V30 59 H -5.927299 -3.458085 0.194138 0
M  V30 60 H -4.507157 -3.851866 1.913119 0
M  V30 61 H -3.125863 -4.346695 0.808392 0
M  V30 62 H -4.440970 -5.488476 1.220708 0
M  V30 63 H 3.273126 -2.471694 -0.236163 0
M  V30 64 H 1.698493 -2.205970 -1.005286 0
M  V30 65 H 1.793379 -2.767932 0.743399 0
M  V30 END ATOM
M  V30 BEGIN BOND
M  V30 1 1 1 2
M  V30 2 1 2 3
M  V30 3 1 3 4
M  V30 4 2 4 5
M  V30 5 1 4 6
M  V30 6 1 6 7
M  V30 7 1 7 8
M  V30 8 2 7 9
M  V30 9 1 9 10
M  V30 10 2 10 11
M  V30 11 1 11 12
M  V30 12 2 12 13
M  V30 13 1 13 14
M  V30 14 2 14 15
M  V30 15 1 9 16
M  V30 16 1 16 17
M  V30 17 1 17 18
M  V30 18 2 18 19
M  V30 19 1 18 20
M  V30 20 1 20 21
M  V30 21 1 21 22
M  V30 22 1 22 23
M  V30 23 1 23 24
M  V30 24 1 24 25
M  V30 25 1 25 26
M  V30 26 1 24 27
M  V30 27 1 27 28
M  V30 28 1 16 29
M  V30 29 1 29 30
M  V30 30 2 29 6
M  V30 31 1 15 10
M  V30 32 1 1 31
M  V30 33 1 1 32
M  V30 34 1 1 33
M  V30 35 1 2 34
M  V30 36 1 2 35
M  V30 37 1 8 36
M  V30 38 1 8 37
M  V30 39 1 8 38
M  V30 40 1 11 39
M  V30 41 1 12 40
M  V30 42 1 13 41
M  V30 43 1 14 42
M  V30 44 1 15 43
M  V30 45 1 17 44
M  V30 46 1 17 45
M  V30 47 1 20 46
M  V30 48 1 21 47
M  V30 49 1 21 48
M  V30 50 1 22 49
M  V30 51 1 22 50
M  V30 52 1 23 51
M  V30 53 1 23 52
M  V30 54 1 25 53
M  V30 55 1 25 54
M  V30 56 1 26 55
M  V30 57 1 26 56
M  V30 58 1 26 57
M  V30 59 1 27 58
M  V30 60 1 27 59
M  V30 61 1 28 60
M  V30 62 1 28 61
M  V30 63 1 28 62
M  V30 64 1 30 63
M  V30 65 1 30 64
M  V30 66 1 30 65
M  V30 END BOND
M  V30 END CTAB
M  END
>  <Dataset>  (610) 
ChEMBL_Kinases

>  <Ligand_Instance>  (610) 
nan

>  <PDB_ID>  (610) 
nan

>  <Standardized_SMILES>  (610) 
CCOC(=O)c1c(C)c(-c2ccccc2)n(CC(=O)NCCCN(CC)CC)c1C

>  <Name>  (610) 
nan

>  <Pocket>  (610) 
nan

>  <ATP_Site>  (610) 
nan

>  <Peripheral>  (610) 
nan

>  <Num_H_Atoms_ProtBoundConf>  (610) 
nan

>  <Num_Resolved_Atoms>  (610) 
nan

>  <Num_Not_Resolved_Atoms>  (610) 
nan

$$$$
CHEMBL1339977
     RDKit          3D

  0  0  0  0  0  0  0  0  0  0999 V3000
M  V30 BEGIN CTAB
M  V30 COUNTS 34 35 0 0 0
M  V30 BEGIN ATOM
M  V30 1 C -1.303548 -1.471269 4.213041 0
M  V30 2 C -0.608706 -2.723014 3.683425 0
M  V30 3 C -1.457462 -3.382102 2.635129 0
M  V30 4 S 1.020921 -2.224820 3.045695 0
M  V30 5 C 0.836799 -1.180061 1.610908 0
M  V30 6 N 0.727782 0.163014 1.640002 0
M  V30 7 C 0.605983 0.645194 0.386928 0
M  V30 8 C 0.643782 -0.474737 -0.453753 0
M  V30 9 C 0.533714 -0.214729 -1.808367 0
M  V30 10 O 0.563388 -1.195444 -2.605407 0
M  V30 11 N 0.398023 1.023169 -2.310557 0
M  V30 12 C 0.282007 1.302519 -3.728752 0
M  V30 13 C 0.376082 1.998659 -1.402185 0
M  V30 14 O 0.247706 3.179649 -1.863492 0
M  V30 15 N 0.470632 1.918627 -0.065684 0
M  V30 16 C 0.436783 3.029282 0.832380 0
M  V30 17 N 0.784401 -1.564273 0.324242 0
M  V30 18 C 0.861833 -2.922091 -0.188217 0
M  V30 19 H -0.898918 -0.617614 3.659660 0
M  V30 20 H -1.066176 -1.340812 5.300310 0
M  V30 21 H -2.384974 -1.574168 4.103293 0
M  V30 22 H -0.447041 -3.420169 4.526902 0
M  V30 23 H -0.901502 -3.965514 1.891170 0
M  V30 24 H -2.081898 -2.639205 2.083963 0
M  V30 25 H -2.161996 -4.119615 3.119402 0
M  V30 26 H 0.233340 2.372540 -3.928519 0
M  V30 27 H 1.165336 0.860632 -4.252914 0
M  V30 28 H -0.619689 0.807079 -4.166310 0
M  V30 29 H 1.412365 3.277572 1.262357 0
M  V30 30 H -0.261929 2.828872 1.669806 0
M  V30 31 H 0.048023 3.949777 0.328514 0
M  V30 32 H -0.128487 -3.222494 -0.638038 0
M  V30 33 H 1.580912 -2.991061 -1.035123 0
M  V30 34 H 1.090907 -3.656874 0.588435 0
M  V30 END ATOM
M  V30 BEGIN BOND
M  V30 1 1 1 2
M  V30 2 1 2 3
M  V30 3 1 2 4
M  V30 4 1 4 5
M  V30 5 2 5 6
M  V30 6 1 6 7
M  V30 7 2 7 8
M  V30 8 1 8 9
M  V30 9 2 9 10
M  V30 10 1 9 11
M  V30 11 1 11 12
M  V30 12 1 11 13
M  V30 13 2 13 14
M  V30 14 1 13 15
M  V30 15 1 15 16
M  V30 16 1 8 17
M  V30 17 1 17 18
M  V30 18 1 17 5
M  V30 19 1 15 7
M  V30 20 1 1 19
M  V30 21 1 1 20
M  V30 22 1 1 21
M  V30 23 1 2 22
M  V30 24 1 3 23
M  V30 25 1 3 24
M  V30 26 1 3 25
M  V30 27 1 12 26
M  V30 28 1 12 27
M  V30 29 1 12 28
M  V30 30 1 16 29
M  V30 31 1 16 30
M  V30 32 1 16 31
M  V30 33 1 18 32
M  V30 34 1 18 33
M  V30 35 1 18 34
M  V30 END BOND
M  V30 END CTAB
M  END
>  <Dataset>  (611) 
ChEMBL_Kinases

>  <Ligand_Instance>  (611) 
nan

>  <PDB_ID>  (611) 
nan

>  <Standardized_SMILES>  (611) 
CC(C)Sc1nc2c(c(=O)n(C)c(=O)n2C)n1C

>  <Name>  (611) 
nan

>  <Pocket>  (611) 
nan

>  <ATP_Site>  (611) 
nan

>  <Peripheral>  (611) 
nan

>  <Num_H_Atoms_ProtBoundConf>  (611) 
nan

>  <Num_Resolved_Atoms>  (611) 
nan

>  <Num_Not_Resolved_Atoms>  (611) 
nan

$$$$
CHEMBL1340607
     RDKit          3D

  0  0  0  0  0  0  0  0  0  0999 V3000
M  V30 BEGIN CTAB
M  V30 COUNTS 46 47 0 0 0
M  V30 BEGIN ATOM
M  V30 1 C -0.847741 -7.057374 2.023804 0
M  V30 2 O -1.147930 -5.677918 2.057956 0
M  V30 3 C -0.592801 -4.826526 1.120706 0
M  V30 4 C 0.257326 -5.289217 0.138660 0
M  V30 5 C 0.804194 -4.432199 -0.789475 0
M  V30 6 C 0.535246 -3.056736 -0.794234 0
M  V30 7 N 1.125437 -2.208277 -1.768753 0
M  V30 8 C 0.890368 -0.795732 -1.887929 0
M  V30 9 S 2.293736 0.239914 -2.288201 0
M  V30 10 N -0.307091 -0.442250 -1.694410 0
M  V30 11 C -0.886168 0.854602 -1.732538 0
M  V30 12 C -0.068798 1.969087 -1.166696 0
M  V30 13 N 0.281449 1.823939 0.224998 0
M  V30 14 C 1.081639 3.016039 0.553356 0
M  V30 15 C 1.528993 2.997527 1.976408 0
M  V30 16 C 0.428720 2.713639 2.963170 0
M  V30 17 C 1.113005 2.298092 4.258619 0
M  V30 18 C -0.507625 1.626042 2.472316 0
M  V30 19 C -0.915961 1.986983 1.062794 0
M  V30 20 C -0.314624 -2.657834 0.203982 0
M  V30 21 C -0.871817 -3.494662 1.140116 0
M  V30 22 Cl -1.952851 -2.900390 2.387651 0
M  V30 23 H -0.859212 -7.493994 1.009013 0
M  V30 24 H 0.158198 -7.227371 2.429550 0
M  V30 25 H -1.583141 -7.650644 2.628766 0
M  V30 26 H 0.525271 -6.334789 0.060036 0
M  V30 27 H 1.469819 -4.825173 -1.550751 0
M  V30 28 H 1.794408 -2.683106 -2.452132 0
M  V30 29 H 2.794578 0.776951 -1.088850 0
M  V30 30 H -1.887898 0.909666 -1.267411 0
M  V30 31 H -1.022595 1.105171 -2.825817 0
M  V30 32 H -0.736947 2.882292 -1.198410 0
M  V30 33 H 0.816621 2.232727 -1.743110 0
M  V30 34 H 0.422755 3.892156 0.402022 0
M  V30 35 H 1.988069 3.056093 -0.080672 0
M  V30 36 H 2.367326 2.295274 2.157144 0
M  V30 37 H 1.896409 4.020141 2.220218 0
M  V30 38 H -0.170798 3.619225 3.190541 0
M  V30 39 H 0.676310 1.374143 4.687792 0
M  V30 40 H 1.004731 3.085624 5.039042 0
M  V30 41 H 2.202312 2.126013 4.128453 0
M  V30 42 H 0.021775 0.656907 2.465124 0
M  V30 43 H -1.374317 1.614551 3.159669 0
M  V30 44 H -1.773337 1.421456 0.700507 0
M  V30 45 H -1.188732 3.048309 1.064137 0
M  V30 46 H -0.580015 -1.634840 0.290740 0
M  V30 END ATOM
M  V30 BEGIN BOND
M  V30 1 1 1 2
M  V30 2 1 2 3
M  V30 3 2 3 4
M  V30 4 1 4 5
M  V30 5 2 5 6
M  V30 6 1 6 7
M  V30 7 1 7 8
M  V30 8 1 8 9
M  V30 9 2 8 10 CFG=2
M  V30 10 1 10 11
M  V30 11 1 11 12
M  V30 12 1 12 13
M  V30 13 1 13 14
M  V30 14 1 14 15
M  V30 15 1 15 16
M  V30 16 1 16 17
M  V30 17 1 16 18
M  V30 18 1 18 19
M  V30 19 1 6 20
M  V30 20 2 20 21
M  V30 21 1 21 22
M  V30 22 1 21 3
M  V30 23 1 19 13
M  V30 24 1 1 23
M  V30 25 1 1 24
M  V30 26 1 1 25
M  V30 27 1 4 26
M  V30 28 1 5 27
M  V30 29 1 7 28
M  V30 30 1 9 29
M  V30 31 1 11 30
M  V30 32 1 11 31
M  V30 33 1 12 32
M  V30 34 1 12 33
M  V30 35 1 14 34
M  V30 36 1 14 35
M  V30 37 1 15 36
M  V30 38 1 15 37
M  V30 39 1 16 38
M  V30 40 1 17 39
M  V30 41 1 17 40
M  V30 42 1 17 41
M  V30 43 1 18 42
M  V30 44 1 18 43
M  V30 45 1 19 44
M  V30 46 1 19 45
M  V30 47 1 20 46
M  V30 END BOND
M  V30 END CTAB
M  END
>  <Dataset>  (612) 
ChEMBL_Kinases

>  <Ligand_Instance>  (612) 
nan

>  <PDB_ID>  (612) 
nan

>  <Standardized_SMILES>  (612) 
COc1ccc(NC(S)=NCCN2CCC(C)CC2)cc1Cl

>  <Name>  (612) 
nan

>  <Pocket>  (612) 
nan

>  <ATP_Site>  (612) 
nan

>  <Peripheral>  (612) 
nan

>  <Num_H_Atoms_ProtBoundConf>  (612) 
nan

>  <Num_Resolved_Atoms>  (612) 
nan

>  <Num_Not_Resolved_Atoms>  (612) 
nan

$$$$
CHEMBL134010
     RDKit          3D

  0  0  0  0  0  0  0  0  0  0999 V3000
M  V30 BEGIN CTAB
M  V30 COUNTS 54 57 0 0 0
M  V30 BEGIN ATOM
M  V30 1 C 2.052193 -1.392810 -6.190527 0
M  V30 2 S 3.428079 -0.296897 -5.942866 0 CHG=1 VAL=3
M  V30 3 O 4.768318 -0.757791 -6.843605 0 CHG=-1 VAL=1
M  V30 4 C 3.845716 -0.172414 -4.248620 0
M  V30 5 C 4.790870 -0.863225 -3.523928 0
M  V30 6 C 4.940527 -0.596613 -2.180787 0
M  V30 7 C 4.175937 0.345135 -1.515776 0
M  V30 8 N 4.342570 0.625432 -0.132651 0
M  V30 9 C 3.439921 1.506884 0.523701 0
M  V30 10 N 3.436296 2.867688 0.617017 0
M  V30 11 C 2.486836 3.519363 1.295473 0
M  V30 12 C 1.488162 2.791043 1.914837 0
M  V30 13 C 1.454244 1.411441 1.845736 0
M  V30 14 C 0.419398 0.607636 2.485232 0
M  V30 15 C 0.544209 -0.755971 2.312409 0
M  V30 16 C -0.361506 -1.616530 2.860720 0
M  V30 17 C -1.433987 -1.170978 3.606267 0
M  V30 18 S -2.614763 -2.237915 4.321843 0
M  V30 19 O -3.128154 -1.596513 5.582707 0
M  V30 20 O -1.989627 -3.534197 4.719859 0
M  V30 21 N -3.890128 -2.530921 3.275974 0
M  V30 22 C -4.678885 -1.443311 2.857823 0
M  V30 23 C -5.595337 -1.991341 1.752832 0
M  V30 24 N -6.237496 -3.217104 2.192782 0
M  V30 25 C -5.247519 -4.260932 2.375357 0
M  V30 26 C -3.832681 -3.684873 2.459821 0
M  V30 27 C -1.504574 0.197606 3.743389 0
M  V30 28 C -0.611662 1.119224 3.207462 0
M  V30 29 N 2.440803 0.864619 1.149588 0
M  V30 30 C 3.214336 1.046716 -2.255344 0
M  V30 31 C 3.069713 0.768883 -3.620201 0
M  V30 32 H 2.057837 -1.818925 -7.228294 0
M  V30 33 H 1.941290 -2.158226 -5.423933 0
M  V30 34 H 1.140104 -0.734533 -6.153749 0
M  V30 35 H 5.332843 -1.567150 -4.114770 0
M  V30 36 H 5.690434 -1.158579 -1.652273 0
M  V30 37 H 5.151605 0.150615 0.351667 0
M  V30 38 H 2.561281 4.594988 1.316943 0
M  V30 39 H 0.722473 3.326116 2.461900 0
M  V30 40 H 1.351938 -1.222509 1.742331 0
M  V30 41 H -0.269197 -2.691541 2.728261 0
M  V30 42 H -4.129262 -0.599609 2.404406 0
M  V30 43 H -5.262781 -1.068370 3.704693 0
M  V30 44 H -5.019577 -2.246653 0.857446 0
M  V30 45 H -6.347421 -1.223170 1.518585 0
M  V30 46 H -6.654755 -3.017551 3.142238 0
M  V30 47 H -5.475550 -4.818245 3.327407 0
M  V30 48 H -5.349642 -4.955615 1.519120 0
M  V30 49 H -3.138350 -4.400480 2.913589 0
M  V30 50 H -3.500442 -3.502116 1.405608 0
M  V30 51 H -2.319776 0.662432 4.317593 0
M  V30 52 H -0.708303 2.178523 3.341707 0
M  V30 53 H 2.629421 1.785148 -1.689307 0
M  V30 54 H 2.274982 1.410664 -4.028993 0
M  V30 END ATOM
M  V30 BEGIN BOND
M  V30 1 1 1 2
M  V30 2 1 2 3
M  V30 3 1 2 4
M  V30 4 2 4 5
M  V30 5 1 5 6
M  V30 6 2 6 7
M  V30 7 1 7 8
M  V30 8 1 8 9
M  V30 9 2 9 10
M  V30 10 1 10 11
M  V30 11 2 11 12
M  V30 12 1 12 13
M  V30 13 1 13 14
M  V30 14 2 14 15
M  V30 15 1 15 16
M  V30 16 2 16 17
M  V30 17 1 17 18
M  V30 18 2 18 19
M  V30 19 2 18 20
M  V30 20 1 18 21
M  V30 21 1 21 22
M  V30 22 1 22 23
M  V30 23 1 23 24
M  V30 24 1 24 25
M  V30 25 1 25 26
M  V30 26 1 17 27
M  V30 27 2 27 28
M  V30 28 2 13 29
M  V30 29 1 7 30
M  V30 30 2 30 31
M  V30 31 1 31 4
M  V30 32 1 29 9
M  V30 33 1 28 14
M  V30 34 1 26 21
M  V30 35 1 1 32
M  V30 36 1 1 33
M  V30 37 1 1 34
M  V30 38 1 5 35
M  V30 39 1 6 36
M  V30 40 1 8 37
M  V30 41 1 11 38
M  V30 42 1 12 39
M  V30 43 1 15 40
M  V30 44 1 16 41
M  V30 45 1 22 42
M  V30 46 1 22 43
M  V30 47 1 23 44
M  V30 48 1 23 45
M  V30 49 1 24 46
M  V30 50 1 25 47
M  V30 51 1 25 48
M  V30 52 1 26 49
M  V30 53 1 26 50
M  V30 54 1 27 51
M  V30 55 1 28 52
M  V30 56 1 30 53
M  V30 57 1 31 54
M  V30 END BOND
M  V30 END CTAB
M  END
>  <Dataset>  (613) 
ChEMBL_Kinases

>  <Ligand_Instance>  (613) 
nan

>  <PDB_ID>  (613) 
nan

>  <Standardized_SMILES>  (613) 
C[S+]([O-])c1ccc(Nc2nccc(-c3ccc(S(=O)(=O)N4CCNCC4)cc3)n2)cc1

>  <Name>  (613) 
nan

>  <Pocket>  (613) 
nan

>  <ATP_Site>  (613) 
nan

>  <Peripheral>  (613) 
nan

>  <Num_H_Atoms_ProtBoundConf>  (613) 
nan

>  <Num_Resolved_Atoms>  (613) 
nan

>  <Num_Not_Resolved_Atoms>  (613) 
nan

$$$$
CHEMBL1340124
     RDKit          3D

  0  0  0  0  0  0  0  0  0  0999 V3000
M  V30 BEGIN CTAB
M  V30 COUNTS 44 46 0 0 0
M  V30 BEGIN ATOM
M  V30 1 C 1.899661 -5.837404 0.977822 0
M  V30 2 O 1.874993 -4.767717 0.082971 0
M  V30 3 C 0.771844 -4.149026 -0.420339 0
M  V30 4 O 0.207093 -5.027735 0.318725 0
M  V30 5 C -0.364960 -3.424202 -1.011770 0
M  V30 6 C 0.086431 -2.315133 -1.941054 0
M  V30 7 N 0.902950 -1.339494 -1.254892 0
M  V30 8 C 2.229800 -1.661330 -0.769285 0
M  V30 9 C 2.929852 -0.320865 -0.833650 0
M  V30 10 C 1.794215 0.625207 -0.693895 0
M  V30 11 C 1.741669 1.956812 -0.366843 0
M  V30 12 C 0.536299 2.625547 -0.298420 0
M  V30 13 N 0.304969 3.990767 0.024540 0
M  V30 14 N -0.225889 4.348295 1.123743 0
M  V30 15 C -0.614660 3.352496 2.090790 0
M  V30 16 C -1.937423 3.135633 2.428616 0
M  V30 17 C -2.255578 2.155173 3.373012 0
M  V30 18 C -1.222337 1.435702 3.935666 0
M  V30 19 N -1.503564 0.430345 4.899036 0 CHG=1 VAL=4
M  V30 20 O -2.486196 -0.064887 5.458646 0
M  V30 21 O -0.484882 -0.298903 5.473836 0 CHG=-1 VAL=1
M  V30 22 C 0.115554 1.596532 3.648449 0
M  V30 23 C 0.383548 2.589456 2.697518 0
M  V30 24 C -0.655915 1.969656 -0.558765 0
M  V30 25 C -0.651171 0.613415 -0.896066 0
M  V30 26 C 0.587303 0.010734 -0.945296 0
M  V30 27 H 1.518172 -6.791610 0.603621 0
M  V30 28 H 2.983945 -5.929676 1.291133 0
M  V30 29 H 1.385856 -5.635556 1.958861 0
M  V30 30 H -1.018400 -2.959084 -0.224352 0
M  V30 31 H -0.999256 -4.085938 -1.602325 0
M  V30 32 H -0.794643 -1.783647 -2.344193 0
M  V30 33 H 0.656940 -2.709478 -2.803420 0
M  V30 34 H 2.165494 -1.966569 0.306036 0
M  V30 35 H 2.721485 -2.439197 -1.390165 0
M  V30 36 H 3.400571 -0.241197 -1.833799 0
M  V30 37 H 3.669024 -0.202680 -0.013398 0
M  V30 38 H 2.611863 2.567681 -0.144620 0
M  V30 39 H -2.720251 3.706537 1.977564 0
M  V30 40 H -3.263375 1.935753 3.680258 0
M  V30 41 H 0.911527 1.039750 4.084914 0
M  V30 42 H 1.420343 2.758660 2.433942 0
M  V30 43 H -1.660938 2.407248 -0.530520 0
M  V30 44 H -1.554078 0.029109 -1.115041 0
M  V30 END ATOM
M  V30 BEGIN BOND
M  V30 1 1 1 2
M  V30 2 1 2 3
M  V30 3 2 3 4
M  V30 4 1 3 5
M  V30 5 1 5 6
M  V30 6 1 6 7
M  V30 7 1 7 8
M  V30 8 1 8 9
M  V30 9 1 9 10
M  V30 10 2 10 11
M  V30 11 1 11 12
M  V30 12 1 12 13
M  V30 13 2 13 14 CFG=2
M  V30 14 1 14 15
M  V30 15 2 15 16
M  V30 16 1 16 17
M  V30 17 2 17 18
M  V30 18 1 18 19
M  V30 19 2 19 20
M  V30 20 1 19 21
M  V30 21 1 18 22
M  V30 22 2 22 23
M  V30 23 2 12 24
M  V30 24 1 24 25
M  V30 25 2 25 26
M  V30 26 1 26 7
M  V30 27 1 26 10
M  V30 28 1 23 15
M  V30 29 1 1 27
M  V30 30 1 1 28
M  V30 31 1 1 29
M  V30 32 1 5 30
M  V30 33 1 5 31
M  V30 34 1 6 32
M  V30 35 1 6 33
M  V30 36 1 8 34
M  V30 37 1 8 35
M  V30 38 1 9 36
M  V30 39 1 9 37
M  V30 40 1 11 38
M  V30 41 1 16 39
M  V30 42 1 17 40
M  V30 43 1 22 41
M  V30 44 1 23 42
M  V30 45 1 24 43
M  V30 46 1 25 44
M  V30 END BOND
M  V30 END CTAB
M  END
>  <Dataset>  (614) 
ChEMBL_Kinases

>  <Ligand_Instance>  (614) 
nan

>  <PDB_ID>  (614) 
nan

>  <Standardized_SMILES>  (614) 
COC(=O)CCN1CCc2cc(N=Nc3ccc([N+](=O)[O-])cc3)ccc21

>  <Name>  (614) 
nan

>  <Pocket>  (614) 
nan

>  <ATP_Site>  (614) 
nan

>  <Peripheral>  (614) 
nan

>  <Num_H_Atoms_ProtBoundConf>  (614) 
nan

>  <Num_Resolved_Atoms>  (614) 
nan

>  <Num_Not_Resolved_Atoms>  (614) 
nan

$$$$
CHEMBL1340207
     RDKit          3D

  0  0  0  0  0  0  0  0  0  0999 V3000
M  V30 BEGIN CTAB
M  V30 COUNTS 60 63 0 0 0
M  V30 BEGIN ATOM
M  V30 1 C -0.542016 -4.591015 5.900829 0
M  V30 2 O 0.533421 -4.573522 4.971827 0
M  V30 3 C 0.373225 -3.749324 3.864027 0
M  V30 4 C -0.734354 -2.945546 3.584898 0
M  V30 5 C -0.742800 -2.180638 2.440899 0
M  V30 6 C 0.332433 -2.193939 1.556967 0
M  V30 7 C 0.273460 -1.331925 0.332295 0
M  V30 8 C 0.680990 0.011775 0.695664 0
M  V30 9 O 1.858209 -0.089343 1.201813 0
M  V30 10 N 0.239224 1.346311 0.681854 0
M  V30 11 C 1.003585 2.457203 1.169984 0
M  V30 12 C 0.273638 3.229017 2.206620 0
M  V30 13 C 0.826954 4.586518 2.475629 0
M  V30 14 C 2.223052 4.704735 1.925284 0
M  V30 15 C 2.146725 4.544769 0.424369 0
M  V30 16 C 1.501281 3.267942 -0.006330 0
M  V30 17 N -0.998031 -1.434890 -0.318003 0
M  V30 18 C -1.375084 -2.826587 -0.549785 0
M  V30 19 C -0.604562 -3.332710 -1.740121 0
M  V30 20 C -1.325435 -2.779555 -2.967497 0
M  V30 21 C -1.734683 -1.381247 -2.693553 0
M  V30 22 C -1.107236 -0.700858 -1.524408 0
M  V30 23 O -0.562333 -2.897205 -4.129653 0
M  V30 24 C -1.401769 -3.463340 -5.088305 0
M  V30 25 C -2.377185 -4.288549 -4.269085 0
M  V30 26 O -2.474051 -3.536584 -3.120302 0
M  V30 27 C 1.408789 -2.999780 1.864216 0
M  V30 28 C 1.454462 -3.781395 3.003612 0
M  V30 29 H -0.795804 -3.565308 6.228243 0
M  V30 30 H -0.349060 -5.262533 6.768248 0
M  V30 31 H -1.453643 -4.994049 5.413016 0
M  V30 32 H -1.531584 -2.992120 4.324790 0
M  V30 33 H -1.641499 -1.576447 2.286719 0
M  V30 34 H 1.060432 -1.779255 -0.345096 0
M  V30 35 H -0.712925 1.389489 0.279416 0
M  V30 36 H 1.951706 2.052852 1.637773 0
M  V30 37 H 0.320820 2.633497 3.164495 0
M  V30 38 H -0.823059 3.340419 2.038596 0
M  V30 39 H 0.819383 4.808386 3.569839 0
M  V30 40 H 0.176330 5.403673 2.042825 0
M  V30 41 H 2.618586 5.730142 2.123714 0
M  V30 42 H 2.842915 3.914092 2.362585 0
M  V30 43 H 1.630608 5.448399 0.015878 0
M  V30 44 H 3.200600 4.605914 0.050412 0
M  V30 45 H 2.283248 2.627281 -0.510127 0
M  V30 46 H 0.756944 3.477275 -0.774298 0
M  V30 47 H -2.463925 -2.824756 -0.741779 0
M  V30 48 H -1.203470 -3.436511 0.360613 0
M  V30 49 H -0.672138 -4.449555 -1.737590 0
M  V30 50 H 0.430758 -2.981289 -1.797342 0
M  V30 51 H -2.842920 -1.243465 -2.644617 0
M  V30 52 H -1.432091 -0.775546 -3.599788 0
M  V30 53 H -0.138753 -0.252712 -1.821957 0
M  V30 54 H -1.813959 0.165367 -1.313739 0
M  V30 55 H -0.872087 -4.166041 -5.765173 0
M  V30 56 H -1.912560 -2.696902 -5.696783 0
M  V30 57 H -1.872644 -5.257876 -3.988822 0
M  V30 58 H -3.345637 -4.445662 -4.782196 0
M  V30 59 H 2.222824 -2.969465 1.140812 0
M  V30 60 H 2.369368 -4.342575 3.082460 0
M  V30 END ATOM
M  V30 BEGIN BOND
M  V30 1 1 1 2
M  V30 2 1 2 3
M  V30 3 2 3 4
M  V30 4 1 4 5
M  V30 5 2 5 6
M  V30 6 1 6 7
M  V30 7 1 7 8
M  V30 8 2 8 9
M  V30 9 1 8 10
M  V30 10 1 10 11
M  V30 11 1 11 12
M  V30 12 1 12 13
M  V30 13 1 13 14
M  V30 14 1 14 15
M  V30 15 1 15 16
M  V30 16 1 7 17
M  V30 17 1 17 18
M  V30 18 1 18 19
M  V30 19 1 19 20
M  V30 20 1 20 21
M  V30 21 1 21 22
M  V30 22 1 20 23
M  V30 23 1 23 24
M  V30 24 1 24 25
M  V30 25 1 25 26
M  V30 26 1 6 27
M  V30 27 2 27 28
M  V30 28 1 28 3
M  V30 29 1 16 11
M  V30 30 1 22 17
M  V30 31 1 26 20
M  V30 32 1 1 29
M  V30 33 1 1 30
M  V30 34 1 1 31
M  V30 35 1 4 32
M  V30 36 1 5 33
M  V30 37 1 7 34
M  V30 38 1 10 35
M  V30 39 1 11 36
M  V30 40 1 12 37
M  V30 41 1 12 38
M  V30 42 1 13 39
M  V30 43 1 13 40
M  V30 44 1 14 41
M  V30 45 1 14 42
M  V30 46 1 15 43
M  V30 47 1 15 44
M  V30 48 1 16 45
M  V30 49 1 16 46
M  V30 50 1 18 47
M  V30 51 1 18 48
M  V30 52 1 19 49
M  V30 53 1 19 50
M  V30 54 1 21 51
M  V30 55 1 21 52
M  V30 56 1 22 53
M  V30 57 1 22 54
M  V30 58 1 24 55
M  V30 59 1 24 56
M  V30 60 1 25 57
M  V30 61 1 25 58
M  V30 62 1 27 59
M  V30 63 1 28 60
M  V30 END BOND
M  V30 END CTAB
M  END
>  <Dataset>  (615) 
ChEMBL_Kinases

>  <Ligand_Instance>  (615) 
nan

>  <PDB_ID>  (615) 
nan

>  <Standardized_SMILES>  (615) 
COc1ccc(C(C(=O)NC2CCCCC2)N2CCC3(CC2)OCCO3)cc1

>  <Name>  (615) 
nan

>  <Pocket>  (615) 
nan

>  <ATP_Site>  (615) 
nan

>  <Peripheral>  (615) 
nan

>  <Num_H_Atoms_ProtBoundConf>  (615) 
nan

>  <Num_Resolved_Atoms>  (615) 
nan

>  <Num_Not_Resolved_Atoms>  (615) 
nan

$$$$
CHEMBL1340345
     RDKit          3D

  0  0  0  0  0  0  0  0  0  0999 V3000
M  V30 BEGIN CTAB
M  V30 COUNTS 44 46 0 0 0
M  V30 BEGIN ATOM
M  V30 1 O -0.319678 -0.100911 0.930183 0
M  V30 2 C 0.686155 0.031358 1.672823 0
M  V30 3 N 0.093440 0.344104 2.953271 0
M  V30 4 C -1.335085 0.435138 3.124011 0
M  V30 5 C -2.003743 -0.739618 3.474296 0
M  V30 6 C -3.375383 -0.627144 3.633064 0
M  V30 7 C -4.123445 0.523424 3.477899 0
M  V30 8 C -3.411664 1.657259 3.130919 0
M  V30 9 C -2.046018 1.617973 2.956710 0
M  V30 10 C 2.165255 0.017088 1.845725 0
M  V30 11 C 2.649905 1.468989 2.085924 0
M  V30 12 C 2.592861 2.052180 0.686511 0
M  V30 13 O 3.571051 3.029197 0.492632 0
M  V30 14 C 2.859991 0.822797 -0.201564 0
M  V30 15 N 2.914514 -0.278758 0.688369 0
M  V30 16 S 2.981160 -1.826179 0.082310 0
M  V30 17 O 4.272140 -2.094663 -0.662806 0
M  V30 18 O 3.024127 -2.790831 1.268502 0
M  V30 19 C 1.598270 -2.250311 -0.865153 0
M  V30 20 C 0.447094 -2.893708 -0.465686 0
M  V30 21 C -0.598230 -3.180431 -1.315599 0
M  V30 22 C -0.524946 -2.818750 -2.648555 0
M  V30 23 N -1.603549 -3.113603 -3.527552 0 CHG=1 VAL=4
M  V30 24 O -2.613910 -3.700522 -3.090046 0
M  V30 25 O -1.519071 -2.747960 -4.850794 0 CHG=-1 VAL=1
M  V30 26 C 0.608222 -2.181452 -3.058043 0
M  V30 27 C 1.657575 -1.890635 -2.216918 0
M  V30 28 H 0.426284 0.556646 3.940736 0
M  V30 29 H -1.539340 -1.708053 3.627172 0
M  V30 30 H -3.936989 -1.532239 3.909251 0
M  V30 31 H -5.185096 0.516563 3.621550 0
M  V30 32 H -3.916685 2.590042 2.991663 0
M  V30 33 H -1.438323 2.477396 2.684440 0
M  V30 34 H 2.438555 -0.634618 2.672472 0
M  V30 35 H 2.027760 1.999849 2.800280 0
M  V30 36 H 3.718254 1.364994 2.355333 0
M  V30 37 H 1.617494 2.519273 0.449298 0
M  V30 38 H 4.454032 2.785300 0.882161 0
M  V30 39 H 3.857484 0.977139 -0.650278 0
M  V30 40 H 2.061965 0.779272 -0.968377 0
M  V30 41 H 0.476750 -3.143018 0.607067 0
M  V30 42 H -1.459884 -3.693473 -0.887947 0
M  V30 43 H 0.646464 -1.905745 -4.108059 0
M  V30 44 H 2.502120 -1.384179 -2.649610 0
M  V30 END ATOM
M  V30 BEGIN BOND
M  V30 1 2 1 2
M  V30 2 1 2 3
M  V30 3 1 3 4
M  V30 4 2 4 5
M  V30 5 1 5 6
M  V30 6 2 6 7
M  V30 7 1 7 8
M  V30 8 2 8 9
M  V30 9 1 2 10
M  V30 10 1 10 11
M  V30 11 1 11 12
M  V30 12 1 12 13
M  V30 13 1 12 14
M  V30 14 1 14 15
M  V30 15 1 15 16
M  V30 16 2 16 17
M  V30 17 2 16 18
M  V30 18 1 16 19
M  V30 19 2 19 20
M  V30 20 1 20 21
M  V30 21 2 21 22
M  V30 22 1 22 23
M  V30 23 2 23 24
M  V30 24 1 23 25
M  V30 25 1 22 26
M  V30 26 2 26 27
M  V30 27 1 9 4
M  V30 28 1 15 10
M  V30 29 1 27 19
M  V30 30 1 3 28
M  V30 31 1 5 29
M  V30 32 1 6 30
M  V30 33 1 7 31
M  V30 34 1 8 32
M  V30 35 1 9 33
M  V30 36 1 10 34
M  V30 37 1 11 35
M  V30 38 1 11 36
M  V30 39 1 12 37
M  V30 40 1 13 38
M  V30 41 1 14 39
M  V30 42 1 14 40
M  V30 43 1 20 41
M  V30 44 1 21 42
M  V30 45 1 26 43
M  V30 46 1 27 44
M  V30 END BOND
M  V30 END CTAB
M  END
>  <Dataset>  (616) 
ChEMBL_Kinases

>  <Ligand_Instance>  (616) 
nan

>  <PDB_ID>  (616) 
nan

>  <Standardized_SMILES>  (616) 
O=C(Nc1ccccc1)C1CC(O)CN1S(=O)(=O)c1ccc([N+](=O)[O-])cc1

>  <Name>  (616) 
nan

>  <Pocket>  (616) 
nan

>  <ATP_Site>  (616) 
nan

>  <Peripheral>  (616) 
nan

>  <Num_H_Atoms_ProtBoundConf>  (616) 
nan

>  <Num_Resolved_Atoms>  (616) 
nan

>  <Num_Not_Resolved_Atoms>  (616) 
nan

$$$$
CHEMBL1340393
     RDKit          3D

  0  0  0  0  0  0  0  0  0  0999 V3000
M  V30 BEGIN CTAB
M  V30 COUNTS 38 41 0 0 0
M  V30 BEGIN ATOM
M  V30 1 C 0.719944 -5.506667 4.870183 0
M  V30 2 O 1.317525 -4.428978 4.175122 0
M  V30 3 C 0.600045 -3.609622 3.316384 0
M  V30 4 C -0.746591 -3.806758 3.094619 0
M  V30 5 C -1.431240 -2.972441 2.233258 0
M  V30 6 C -0.696594 -1.969925 1.637281 0
M  V30 7 C -1.254480 -0.964811 0.675057 0
M  V30 8 N -1.027800 -0.071199 0.022881 0
M  V30 9 N -1.786462 0.622095 -0.746022 0
M  V30 10 C -1.594797 1.686578 -1.544971 0
M  V30 11 C -0.477361 2.543654 -1.917300 0
M  V30 12 C -0.557373 3.925025 -1.888517 0
M  V30 13 C 0.523775 4.716906 -2.248798 0
M  V30 14 C 1.692045 4.098902 -2.640280 0
M  V30 15 C 1.775770 2.716755 -2.670322 0
M  V30 16 C 0.699711 1.930915 -2.311732 0
M  V30 17 N -2.757665 1.979498 -2.106789 0
M  V30 18 N -3.722923 1.189977 -1.745785 0
M  V30 19 C -3.096140 0.227927 -0.798670 0
M  V30 20 S -3.107650 -1.122859 0.280300 0
M  V30 21 C 0.638782 -1.731103 1.822469 0
M  V30 22 C 1.321463 -2.584465 2.698542 0
M  V30 23 O 2.676952 -2.424538 2.952635 0
M  V30 24 C 3.346404 -1.365976 2.293271 0
M  V30 25 H 1.286099 -5.754099 5.801267 0
M  V30 26 H -0.277756 -5.138219 5.248900 0
M  V30 27 H 0.545069 -6.385735 4.239753 0
M  V30 28 H -1.299720 -4.596093 3.570807 0
M  V30 29 H -2.477846 -3.028677 1.983217 0
M  V30 30 H -1.493190 4.389107 -1.574992 0
M  V30 31 H 0.367342 5.795908 -2.194982 0
M  V30 32 H 2.511330 4.759249 -2.913241 0
M  V30 33 H 2.719152 2.277559 -2.986358 0
M  V30 34 H 0.813268 0.859381 -2.351286 0
M  V30 35 H 1.228280 -0.969645 1.378677 0
M  V30 36 H 4.391311 -1.250861 2.670550 0
M  V30 37 H 2.796172 -0.420920 2.562080 0
M  V30 38 H 3.309870 -1.436978 1.194970 0
M  V30 END ATOM
M  V30 BEGIN BOND
M  V30 1 1 1 2
M  V30 2 1 2 3
M  V30 3 2 3 4
M  V30 4 1 4 5
M  V30 5 2 5 6
M  V30 6 1 6 7
M  V30 7 2 7 8
M  V30 8 1 8 9
M  V30 9 1 9 10
M  V30 10 1 10 11
M  V30 11 2 11 12
M  V30 12 1 12 13
M  V30 13 2 13 14
M  V30 14 1 14 15
M  V30 15 2 15 16
M  V30 16 2 10 17
M  V30 17 1 17 18
M  V30 18 2 18 19
M  V30 19 1 19 20
M  V30 20 1 6 21
M  V30 21 2 21 22
M  V30 22 1 22 23
M  V30 23 1 23 24
M  V30 24 1 22 3
M  V30 25 1 20 7
M  V30 26 1 19 9
M  V30 27 1 16 11
M  V30 28 1 1 25
M  V30 29 1 1 26
M  V30 30 1 1 27
M  V30 31 1 4 28
M  V30 32 1 5 29
M  V30 33 1 12 30
M  V30 34 1 13 31
M  V30 35 1 14 32
M  V30 36 1 15 33
M  V30 37 1 16 34
M  V30 38 1 21 35
M  V30 39 1 24 36
M  V30 40 1 24 37
M  V30 41 1 24 38
M  V30 END BOND
M  V30 END CTAB
M  END
>  <Dataset>  (617) 
ChEMBL_Kinases

>  <Ligand_Instance>  (617) 
nan

>  <PDB_ID>  (617) 
nan

>  <Standardized_SMILES>  (617) 
COc1ccc(-c2nn3c(-c4ccccc4)nnc3s2)cc1OC

>  <Name>  (617) 
nan

>  <Pocket>  (617) 
nan

>  <ATP_Site>  (617) 
nan

>  <Peripheral>  (617) 
nan

>  <Num_H_Atoms_ProtBoundConf>  (617) 
nan

>  <Num_Resolved_Atoms>  (617) 
nan

>  <Num_Not_Resolved_Atoms>  (617) 
nan

$$$$
CHEMBL1340532
     RDKit          3D

  0  0  0  0  0  0  0  0  0  0999 V3000
M  V30 BEGIN CTAB
M  V30 COUNTS 49 50 0 0 0
M  V30 BEGIN ATOM
M  V30 1 C -1.191740 -3.414220 3.287321 0
M  V30 2 C 0.232425 -2.852609 3.353149 0
M  V30 3 C 0.459303 -1.889056 2.213539 0
M  V30 4 N 1.742357 -1.295982 2.159618 0
M  V30 5 C 2.861808 -2.064913 1.863414 0
M  V30 6 C 4.198119 -1.411811 1.828800 0
M  V30 7 C 5.274648 -2.443140 1.484056 0
M  V30 8 C 1.832640 0.081551 2.387670 0
M  V30 9 C 1.208321 0.941502 1.312017 0
M  V30 10 N 1.787637 0.766762 0.008203 0
M  V30 11 S 1.042454 1.764211 -1.185039 0
M  V30 12 O 1.182251 3.215707 -0.933253 0
M  V30 13 O 1.648453 1.455032 -2.523225 0
M  V30 14 C -0.649856 1.265989 -1.255587 0
M  V30 15 C -1.550896 1.895714 -0.422549 0
M  V30 16 C -2.887185 1.520268 -0.458211 0
M  V30 17 C -3.289617 0.515320 -1.334702 0
M  V30 18 C -2.347393 -0.081658 -2.146183 0
M  V30 19 C -1.019585 0.265655 -2.135738 0
M  V30 20 O -2.998297 -0.981340 -2.859356 0
M  V30 21 C -4.279182 -0.954059 -2.517407 0
M  V30 22 O -5.140109 -1.709043 -3.038278 0
M  V30 23 N -4.501225 -0.023478 -1.559373 0
M  V30 24 C -5.749239 0.323452 -0.915068 0
M  V30 25 H -1.924535 -2.626849 3.542897 0
M  V30 26 H -1.363788 -3.666464 2.207597 0
M  V30 27 H -1.260330 -4.315869 3.896108 0
M  V30 28 H 0.959696 -3.661998 3.383255 0
M  V30 29 H 0.299647 -2.294895 4.308535 0
M  V30 30 H 0.275317 -2.442323 1.266194 0
M  V30 31 H -0.304698 -1.086020 2.228798 0
M  V30 32 H 2.933027 -2.882534 2.636559 0
M  V30 33 H 2.700770 -2.625675 0.902177 0
M  V30 34 H 4.446303 -0.882304 2.764621 0
M  V30 35 H 4.227793 -0.653914 1.026358 0
M  V30 36 H 5.701502 -2.256703 0.483188 0
M  V30 37 H 6.089487 -2.366814 2.241756 0
M  V30 38 H 4.827181 -3.473197 1.471590 0
M  V30 39 H 2.854724 0.429729 2.541798 0
M  V30 40 H 1.280438 0.331509 3.323196 0
M  V30 41 H 0.129451 0.698491 1.272103 0
M  V30 42 H 1.317991 2.016191 1.575377 0
M  V30 43 H 2.809823 1.034347 0.101704 0
M  V30 44 H -1.227314 2.682541 0.261881 0
M  V30 45 H -3.562433 2.033318 0.205937 0
M  V30 46 H -0.257797 -0.187498 -2.763054 0
M  V30 47 H -5.839006 -0.256790 0.033957 0
M  V30 48 H -6.623004 0.033553 -1.536855 0
M  V30 49 H -5.763439 1.422865 -0.743896 0
M  V30 END ATOM
M  V30 BEGIN BOND
M  V30 1 1 1 2
M  V30 2 1 2 3
M  V30 3 1 3 4
M  V30 4 1 4 5
M  V30 5 1 5 6
M  V30 6 1 6 7
M  V30 7 1 4 8
M  V30 8 1 8 9
M  V30 9 1 9 10
M  V30 10 1 10 11
M  V30 11 2 11 12
M  V30 12 2 11 13
M  V30 13 1 11 14
M  V30 14 2 14 15
M  V30 15 1 15 16
M  V30 16 2 16 17
M  V30 17 1 17 18
M  V30 18 2 18 19
M  V30 19 1 18 20
M  V30 20 1 20 21
M  V30 21 2 21 22
M  V30 22 1 21 23
M  V30 23 1 23 24
M  V30 24 1 19 14
M  V30 25 1 23 17
M  V30 26 1 1 25
M  V30 27 1 1 26
M  V30 28 1 1 27
M  V30 29 1 2 28
M  V30 30 1 2 29
M  V30 31 1 3 30
M  V30 32 1 3 31
M  V30 33 1 5 32
M  V30 34 1 5 33
M  V30 35 1 6 34
M  V30 36 1 6 35
M  V30 37 1 7 36
M  V30 38 1 7 37
M  V30 39 1 7 38
M  V30 40 1 8 39
M  V30 41 1 8 40
M  V30 42 1 9 41
M  V30 43 1 9 42
M  V30 44 1 10 43
M  V30 45 1 15 44
M  V30 46 1 16 45
M  V30 47 1 19 46
M  V30 48 1 24 47
M  V30 49 1 24 48
M  V30 50 1 24 49
M  V30 END BOND
M  V30 END CTAB
M  END
>  <Dataset>  (618) 
ChEMBL_Kinases

>  <Ligand_Instance>  (618) 
nan

>  <PDB_ID>  (618) 
nan

>  <Standardized_SMILES>  (618) 
CCCN(CCC)CCNS(=O)(=O)c1ccc2c(c1)oc(=O)n2C

>  <Name>  (618) 
nan

>  <Pocket>  (618) 
nan

>  <ATP_Site>  (618) 
nan

>  <Peripheral>  (618) 
nan

>  <Num_H_Atoms_ProtBoundConf>  (618) 
nan

>  <Num_Resolved_Atoms>  (618) 
nan

>  <Num_Not_Resolved_Atoms>  (618) 
nan

$$$$
CHEMBL1340543
     RDKit          3D

  0  0  0  0  0  0  0  0  0  0999 V3000
M  V30 BEGIN CTAB
M  V30 COUNTS 48 51 0 0 0
M  V30 BEGIN ATOM
M  V30 1 C 0.873503 3.854067 4.712971 0
M  V30 2 C 2.172409 3.449145 4.166497 0
M  V30 3 O 3.376070 3.879905 4.461137 0
M  V30 4 N 4.274526 3.286137 3.771163 0
M  V30 5 C 3.651980 2.391678 2.950515 0
M  V30 6 C 4.572641 1.637215 2.105316 0
M  V30 7 C 4.448193 1.455771 0.760824 0
M  V30 8 C 5.313305 0.726679 -0.024886 0
M  V30 9 C 6.390962 0.133844 0.598739 0
M  V30 10 C 6.612311 0.253628 1.953661 0
M  V30 11 C 5.693968 1.000230 2.650100 0
M  V30 12 C 2.299778 2.497723 3.206980 0
M  V30 13 C 1.408767 1.642582 2.465037 0
M  V30 14 O 1.630445 0.730465 1.596338 0
M  V30 15 N 0.011432 1.691611 2.602787 0
M  V30 16 C -0.758820 0.722767 1.746578 0
M  V30 17 N -1.142225 0.935901 0.687273 0
M  V30 18 N -1.807331 0.154048 -0.101709 0
M  V30 19 C -2.108945 -0.982085 0.252121 0
M  V30 20 N -2.812152 -2.119245 -0.299570 0
M  V30 21 C -2.979898 -3.343498 0.436906 0
M  V30 22 C -3.298819 -1.879761 -1.616063 0
M  V30 23 C -3.999623 -3.123193 -2.069485 0
M  V30 24 C -5.334557 -3.423920 -1.896823 0
M  V30 25 C -5.815139 -4.631584 -2.386087 0
M  V30 26 C -5.034396 -5.550212 -3.036042 0
M  V30 27 C -3.697871 -5.270241 -3.219486 0
M  V30 28 C -3.219201 -4.072605 -2.734776 0
M  V30 29 S -1.398545 -1.061626 1.927727 0
M  V30 30 H 1.117736 4.602699 5.531888 0
M  V30 31 H 0.222763 4.413848 4.038767 0
M  V30 32 H 0.352974 3.044630 5.301854 0
M  V30 33 H 3.631142 1.907649 0.233399 0
M  V30 34 H 5.171815 0.610515 -1.092221 0
M  V30 35 H 7.100157 -0.452452 0.013032 0
M  V30 36 H 7.442397 -0.195082 2.473459 0
M  V30 37 H 5.858718 1.103963 3.732451 0
M  V30 38 H -0.506531 2.316644 3.221159 0
M  V30 39 H -4.061093 -3.610199 0.525675 0
M  V30 40 H -2.625246 -3.165118 1.474911 0
M  V30 41 H -2.367546 -4.184774 0.051112 0
M  V30 42 H -2.501019 -1.656077 -2.352470 0
M  V30 43 H -4.039373 -1.057819 -1.676740 0
M  V30 44 H -5.915332 -2.678798 -1.382338 0
M  V30 45 H -6.870054 -4.846272 -2.238073 0
M  V30 46 H -5.424896 -6.486368 -3.410987 0
M  V30 47 H -3.015180 -5.952325 -3.727056 0
M  V30 48 H -2.150172 -3.867307 -2.890836 0
M  V30 END ATOM
M  V30 BEGIN BOND
M  V30 1 1 1 2
M  V30 2 1 2 3
M  V30 3 1 3 4
M  V30 4 2 4 5
M  V30 5 1 5 6
M  V30 6 2 6 7
M  V30 7 1 7 8
M  V30 8 2 8 9
M  V30 9 1 9 10
M  V30 10 2 10 11
M  V30 11 1 5 12
M  V30 12 1 12 13
M  V30 13 2 13 14
M  V30 14 1 13 15
M  V30 15 1 15 16
M  V30 16 2 16 17
M  V30 17 1 17 18
M  V30 18 2 18 19
M  V30 19 1 19 20
M  V30 20 1 20 21
M  V30 21 1 20 22
M  V30 22 1 22 23
M  V30 23 2 23 24
M  V30 24 1 24 25
M  V30 25 2 25 26
M  V30 26 1 26 27
M  V30 27 2 27 28
M  V30 28 1 19 29
M  V30 29 2 12 2
M  V30 30 1 29 16
M  V30 31 1 11 6
M  V30 32 1 28 23
M  V30 33 1 1 30
M  V30 34 1 1 31
M  V30 35 1 1 32
M  V30 36 1 7 33
M  V30 37 1 8 34
M  V30 38 1 9 35
M  V30 39 1 10 36
M  V30 40 1 11 37
M  V30 41 1 15 38
M  V30 42 1 21 39
M  V30 43 1 21 40
M  V30 44 1 21 41
M  V30 45 1 22 42
M  V30 46 1 22 43
M  V30 47 1 24 44
M  V30 48 1 25 45
M  V30 49 1 26 46
M  V30 50 1 27 47
M  V30 51 1 28 48
M  V30 END BOND
M  V30 END CTAB
M  END
>  <Dataset>  (619) 
ChEMBL_Kinases

>  <Ligand_Instance>  (619) 
nan

>  <PDB_ID>  (619) 
nan

>  <Standardized_SMILES>  (619) 
Cc1onc(-c2ccccc2)c1C(=O)Nc1nnc(N(C)Cc2ccccc2)s1

>  <Name>  (619) 
nan

>  <Pocket>  (619) 
nan

>  <ATP_Site>  (619) 
nan

>  <Peripheral>  (619) 
nan

>  <Num_H_Atoms_ProtBoundConf>  (619) 
nan

>  <Num_Resolved_Atoms>  (619) 
nan

>  <Num_Not_Resolved_Atoms>  (619) 
nan

$$$$
CHEMBL1340596
     RDKit          3D

  0  0  0  0  0  0  0  0  0  0999 V3000
M  V30 BEGIN CTAB
M  V30 COUNTS 41 42 0 0 0
M  V30 BEGIN ATOM
M  V30 1 C -0.903045 -2.394631 3.131068 0
M  V30 2 C 0.413474 -2.818497 3.680280 0
M  V30 3 C 1.551097 -2.770562 2.739243 0
M  V30 4 C 1.969805 -1.473531 2.169193 0
M  V30 5 N 1.002564 -0.727609 1.417102 0
M  V30 6 C 0.669275 -0.828992 0.104026 0
M  V30 7 N 1.237308 -1.785641 -0.777592 0
M  V30 8 C 0.827518 -1.828472 -2.169322 0
M  V30 9 C 1.113472 -0.521857 -2.880814 0
M  V30 10 C 2.581506 -0.183810 -2.863479 0
M  V30 11 N -0.256185 0.089321 -0.227522 0
M  V30 12 C -0.547025 0.812581 0.867389 0
M  V30 13 C 0.243303 0.300985 1.903008 0
M  V30 14 C 0.071955 0.939040 3.094325 0
M  V30 15 O 0.760435 0.522235 4.070441 0
M  V30 16 N -0.775789 1.959314 3.252864 0
M  V30 17 C -1.517311 2.420762 2.234268 0
M  V30 18 O -2.323671 3.374449 2.341350 0
M  V30 19 N -1.397881 1.836642 1.027931 0
M  V30 20 C -2.195999 2.327667 -0.083709 0
M  V30 21 H -1.312972 -1.484487 3.595083 0
M  V30 22 H -1.677709 -3.203334 3.322895 0
M  V30 23 H -0.931551 -2.295484 2.015973 0
M  V30 24 H 0.622357 -2.173607 4.563874 0
M  V30 25 H 0.329461 -3.886825 4.034699 0
M  V30 26 H 1.251770 -3.425990 1.852758 0
M  V30 27 H 2.416674 -3.343947 3.163916 0
M  V30 28 H 2.812077 -1.702661 1.447346 0
M  V30 29 H 2.463082 -0.831386 2.941145 0
M  V30 30 H 1.951314 -2.474132 -0.463852 0
M  V30 31 H 1.373873 -2.611097 -2.733224 0
M  V30 32 H -0.245018 -2.027388 -2.174065 0
M  V30 33 H 0.829973 -0.658730 -3.941019 0
M  V30 34 H 0.479555 0.283619 -2.481679 0
M  V30 35 H 2.715019 0.890904 -3.095272 0
M  V30 36 H 3.095345 -0.783740 -3.659168 0
M  V30 37 H 3.021640 -0.374549 -1.860289 0
M  V30 38 H -0.912439 2.450058 4.154565 0
M  V30 39 H -2.334794 1.556184 -0.873532 0
M  V30 40 H -1.685167 3.176567 -0.542792 0
M  V30 41 H -3.234463 2.574581 0.257669 0
M  V30 END ATOM
M  V30 BEGIN BOND
M  V30 1 1 1 2
M  V30 2 1 2 3
M  V30 3 1 3 4
M  V30 4 1 4 5
M  V30 5 1 5 6
M  V30 6 1 6 7
M  V30 7 1 7 8
M  V30 8 1 8 9
M  V30 9 1 9 10
M  V30 10 2 6 11
M  V30 11 1 11 12
M  V30 12 2 12 13
M  V30 13 1 13 14
M  V30 14 2 14 15
M  V30 15 1 14 16
M  V30 16 1 16 17
M  V30 17 2 17 18
M  V30 18 1 17 19
M  V30 19 1 19 20
M  V30 20 1 13 5
M  V30 21 1 19 12
M  V30 22 1 1 21
M  V30 23 1 1 22
M  V30 24 1 1 23
M  V30 25 1 2 24
M  V30 26 1 2 25
M  V30 27 1 3 26
M  V30 28 1 3 27
M  V30 29 1 4 28
M  V30 30 1 4 29
M  V30 31 1 7 30
M  V30 32 1 8 31
M  V30 33 1 8 32
M  V30 34 1 9 33
M  V30 35 1 9 34
M  V30 36 1 10 35
M  V30 37 1 10 36
M  V30 38 1 10 37
M  V30 39 1 16 38
M  V30 40 1 20 39
M  V30 41 1 20 40
M  V30 42 1 20 41
M  V30 END BOND
M  V30 END CTAB
M  END
>  <Dataset>  (620) 
ChEMBL_Kinases

>  <Ligand_Instance>  (620) 
nan

>  <PDB_ID>  (620) 
nan

>  <Standardized_SMILES>  (620) 
CCCCn1c(NCCC)nc2c1c(=O)[nH]c(=O)n2C

>  <Name>  (620) 
nan

>  <Pocket>  (620) 
nan

>  <ATP_Site>  (620) 
nan

>  <Peripheral>  (620) 
nan

>  <Num_H_Atoms_ProtBoundConf>  (620) 
nan

>  <Num_Resolved_Atoms>  (620) 
nan

>  <Num_Not_Resolved_Atoms>  (620) 
nan

$$$$
CHEMBL1340049
     RDKit          3D

  0  0  0  0  0  0  0  0  0  0999 V3000
M  V30 BEGIN CTAB
M  V30 COUNTS 58 63 0 0 0
M  V30 BEGIN ATOM
M  V30 1 N 3.544009 2.137587 4.572504 0
M  V30 2 C 3.953282 2.144348 3.480917 0
M  V30 3 C 4.442187 2.136986 2.120435 0
M  V30 4 C 5.643576 2.819295 1.796116 0
M  V30 5 N 6.617893 3.358594 1.528049 0
M  V30 6 C 3.747667 1.485435 1.203352 0
M  V30 7 C 4.229320 1.483974 -0.111366 0
M  V30 8 C 3.560439 0.820021 -1.137145 0
M  V30 9 C 2.371092 0.124945 -0.880939 0
M  V30 10 C 1.958820 0.170436 0.434212 0
M  V30 11 C 2.588067 0.812044 1.468854 0
M  V30 12 N 0.751926 -0.578482 0.413118 0
M  V30 13 C -0.215148 -0.881530 1.432878 0
M  V30 14 C 0.202639 -1.292404 2.740885 0
M  V30 15 C -0.743315 -1.320429 3.748120 0
M  V30 16 C -0.473715 -1.752714 5.047649 0
M  V30 17 C 0.794669 -2.182508 5.381792 0
M  V30 18 C 1.763293 -2.168718 4.402621 0
M  V30 19 C 1.422387 -1.730168 3.146845 0
M  V30 20 C -1.505866 -0.697719 1.065184 0
M  V30 21 C -1.792312 -0.223872 -0.287572 0
M  V30 22 C -3.234224 -0.343493 -0.599336 0
M  V30 23 C -4.051794 -1.415828 -0.320350 0
M  V30 24 C -5.382023 -1.507687 -0.629619 0
M  V30 25 C -5.986350 -0.456367 -1.274418 0
M  V30 26 C -5.261781 0.665336 -1.600353 0
M  V30 27 C -3.932121 0.680271 -1.255976 0
M  V30 28 C -0.884224 -0.713302 -1.385496 0
M  V30 29 C -1.527827 -1.939556 -1.984106 0
M  V30 30 C -0.633302 -2.603897 -3.011910 0
M  V30 31 C 0.723593 -2.929848 -2.454210 0
M  V30 32 C 0.706224 -2.588310 -0.978039 0
M  V30 33 C 0.486977 -1.071801 -0.920756 0
M  V30 34 N 1.586989 -0.527565 -1.659123 0
M  V30 35 H 5.146214 2.013416 -0.332749 0
M  V30 36 H 3.939866 0.822511 -2.156425 0
M  V30 37 H 2.276650 0.865342 2.485487 0
M  V30 38 H -1.774939 -1.026624 3.688071 0
M  V30 39 H -1.172711 -1.794073 5.868338 0
M  V30 40 H 1.057775 -2.526274 6.369798 0
M  V30 41 H 2.757517 -2.498033 4.637381 0
M  V30 42 H 2.209043 -1.765601 2.426042 0
M  V30 43 H -2.299526 -0.902664 1.765543 0
M  V30 44 H -1.607891 0.903285 -0.283454 0
M  V30 45 H -3.631349 -2.264533 0.193208 0
M  V30 46 H -5.960992 -2.387334 -0.376846 0
M  V30 47 H -7.031924 -0.500382 -1.530564 0
M  V30 48 H -5.693490 1.516132 -2.106655 0
M  V30 49 H -3.367588 1.586828 -1.524720 0
M  V30 50 H -0.792192 0.039298 -2.195526 0
M  V30 51 H -1.815580 -2.679268 -1.230542 0
M  V30 52 H -2.456602 -1.658707 -2.534472 0
M  V30 53 H -0.580335 -2.020080 -3.967505 0
M  V30 54 H -1.119984 -3.566302 -3.277471 0
M  V30 55 H 1.456153 -2.206676 -2.912357 0
M  V30 56 H 1.029419 -3.971310 -2.637983 0
M  V30 57 H 1.735725 -2.775720 -0.561981 0
M  V30 58 H -0.029696 -3.154151 -0.410169 0
M  V30 END ATOM
M  V30 BEGIN BOND
M  V30 1 3 1 2
M  V30 2 1 2 3
M  V30 3 1 3 4
M  V30 4 3 4 5
M  V30 5 2 3 6 CFG=2
M  V30 6 1 6 7
M  V30 7 2 7 8
M  V30 8 1 8 9
M  V30 9 1 9 10
M  V30 10 2 10 11
M  V30 11 1 10 12
M  V30 12 1 12 13
M  V30 13 1 13 14
M  V30 14 2 14 15
M  V30 15 1 15 16
M  V30 16 2 16 17
M  V30 17 1 17 18
M  V30 18 2 18 19
M  V30 19 2 13 20
M  V30 20 1 20 21
M  V30 21 1 21 22
M  V30 22 2 22 23
M  V30 23 1 23 24
M  V30 24 2 24 25
M  V30 25 1 25 26
M  V30 26 2 26 27
M  V30 27 1 21 28
M  V30 28 1 28 29
M  V30 29 1 29 30
M  V30 30 1 30 31
M  V30 31 1 31 32
M  V30 32 1 32 33
M  V30 33 1 33 34
M  V30 34 1 11 6
M  V30 35 1 33 12
M  V30 36 2 34 9
M  V30 37 1 19 14
M  V30 38 1 27 22
M  V30 39 1 33 28
M  V30 40 1 7 35
M  V30 41 1 8 36
M  V30 42 1 11 37
M  V30 43 1 15 38
M  V30 44 1 16 39
M  V30 45 1 17 40
M  V30 46 1 18 41
M  V30 47 1 19 42
M  V30 48 1 20 43
M  V30 49 1 21 44
M  V30 50 1 23 45
M  V30 51 1 24 46
M  V30 52 1 25 47
M  V30 53 1 26 48
M  V30 54 1 27 49
M  V30 55 1 28 50
M  V30 56 1 29 51
M  V30 57 1 29 52
M  V30 58 1 30 53
M  V30 59 1 30 54
M  V30 60 1 31 55
M  V30 61 1 31 56
M  V30 62 1 32 57
M  V30 63 1 32 58
M  V30 END BOND
M  V30 END CTAB
M  END
>  <Dataset>  (621) 
ChEMBL_Kinases

>  <Ligand_Instance>  (621) 
nan

>  <PDB_ID>  (621) 
nan

>  <Standardized_SMILES>  (621) 
N#CC(C#N)=c1ccc2c(c1)N1C(c3ccccc3)=CC(c3ccccc3)C3CCCCC31N=2

>  <Name>  (621) 
nan

>  <Pocket>  (621) 
nan

>  <ATP_Site>  (621) 
nan

>  <Peripheral>  (621) 
nan

>  <Num_H_Atoms_ProtBoundConf>  (621) 
nan

>  <Num_Resolved_Atoms>  (621) 
nan

>  <Num_Not_Resolved_Atoms>  (621) 
nan

$$$$
CHEMBL1344384
     RDKit          3D

  0  0  0  0  0  0  0  0  0  0999 V3000
M  V30 BEGIN CTAB
M  V30 COUNTS 37 38 0 0 0
M  V30 BEGIN ATOM
M  V30 1 C -2.074637 -3.762083 3.312840 0
M  V30 2 C -0.877745 -4.383438 2.700993 0
M  V30 3 C -0.876001 -4.513536 1.225410 0
M  V30 4 C -0.981257 -3.289800 0.417201 0
M  V30 5 N 0.047379 -2.315122 0.589540 0
M  V30 6 C -0.128180 -1.305548 1.581848 0
M  V30 7 C 0.638820 -0.139868 0.920050 0
M  V30 8 C -0.057866 0.255547 -0.337956 0
M  V30 9 O 0.718455 1.015654 -1.173843 0
M  V30 10 C 1.226340 2.247688 -0.893883 0
M  V30 11 C 1.971879 2.650560 -2.010671 0
M  V30 12 C 2.633452 3.871057 -2.066001 0
M  V30 13 C 2.575667 4.746508 -0.996449 0
M  V30 14 C 1.846874 4.366581 0.109461 0
M  V30 15 C 1.211070 3.164638 0.130503 0
M  V30 16 O 1.794581 -0.895355 0.514065 0
M  V30 17 C 1.313825 -2.059996 -0.019245 0
M  V30 18 O 1.772141 -2.872098 -0.887021 0
M  V30 19 H -1.828937 -3.103767 4.187239 0
M  V30 20 H -2.826056 -4.489448 3.711166 0
M  V30 21 H -2.661482 -3.113587 2.636196 0
M  V30 22 H 0.090693 -3.904552 2.997424 0
M  V30 23 H -0.805929 -5.411654 3.119904 0
M  V30 24 H 0.025056 -5.080320 0.913996 0
M  V30 25 H -1.738837 -5.165347 0.930916 0
M  V30 26 H -2.013664 -2.832138 0.438262 0
M  V30 27 H -0.913378 -3.632730 -0.649369 0
M  V30 28 H 0.393787 -1.540142 2.508810 0
M  V30 29 H -1.149975 -0.921972 1.705949 0
M  V30 30 H 0.882488 0.628493 1.633395 0
M  V30 31 H -1.076915 0.680607 -0.146671 0
M  V30 32 H -0.281989 -0.711604 -0.882860 0
M  V30 33 H 2.153668 2.130561 -2.953274 0
M  V30 34 H 3.226190 4.260790 -2.878601 0
M  V30 35 H 3.039615 5.718355 -0.908987 0
M  V30 36 H 1.712828 4.943871 1.014517 0
M  V30 37 H 0.615687 2.806770 0.948116 0
M  V30 END ATOM
M  V30 BEGIN BOND
M  V30 1 1 1 2
M  V30 2 1 2 3
M  V30 3 1 3 4
M  V30 4 1 4 5
M  V30 5 1 5 6
M  V30 6 1 6 7
M  V30 7 1 7 8
M  V30 8 1 8 9
M  V30 9 1 9 10
M  V30 10 2 10 11
M  V30 11 1 11 12
M  V30 12 2 12 13
M  V30 13 1 13 14
M  V30 14 2 14 15
M  V30 15 1 7 16
M  V30 16 1 16 17
M  V30 17 2 17 18
M  V30 18 1 17 5
M  V30 19 1 15 10
M  V30 20 1 1 19
M  V30 21 1 1 20
M  V30 22 1 1 21
M  V30 23 1 2 22
M  V30 24 1 2 23
M  V30 25 1 3 24
M  V30 26 1 3 25
M  V30 27 1 4 26
M  V30 28 1 4 27
M  V30 29 1 6 28
M  V30 30 1 6 29
M  V30 31 1 7 30
M  V30 32 1 8 31
M  V30 33 1 8 32
M  V30 34 1 11 33
M  V30 35 1 12 34
M  V30 36 1 13 35
M  V30 37 1 14 36
M  V30 38 1 15 37
M  V30 END BOND
M  V30 END CTAB
M  END
>  <Dataset>  (622) 
ChEMBL_Kinases

>  <Ligand_Instance>  (622) 
nan

>  <PDB_ID>  (622) 
nan

>  <Standardized_SMILES>  (622) 
CCCCN1CC(COc2ccccc2)OC1=O

>  <Name>  (622) 
nan

>  <Pocket>  (622) 
nan

>  <ATP_Site>  (622) 
nan

>  <Peripheral>  (622) 
nan

>  <Num_H_Atoms_ProtBoundConf>  (622) 
nan

>  <Num_Resolved_Atoms>  (622) 
nan

>  <Num_Not_Resolved_Atoms>  (622) 
nan

$$$$
CHEMBL1344285
     RDKit          3D

  0  0  0  0  0  0  0  0  0  0999 V3000
M  V30 BEGIN CTAB
M  V30 COUNTS 37 40 0 0 0
M  V30 BEGIN ATOM
M  V30 1 N 1.873688 1.353900 5.273923 0
M  V30 2 C 1.785345 1.139847 4.127097 0
M  V30 3 C 1.659575 0.881126 2.709433 0
M  V30 4 N 2.639278 0.696331 1.808538 0
M  V30 5 C 2.099924 0.481743 0.585347 0
M  V30 6 C 2.853620 0.240791 -0.646027 0
M  V30 7 C 2.136271 0.040186 -1.812750 0
M  V30 8 C 2.886096 -0.185778 -2.965692 0
M  V30 9 C 4.263849 -0.208732 -2.948739 0
M  V30 10 F 4.970247 -0.429195 -4.078150 0
M  V30 11 C 4.953610 -0.005294 -1.769437 0
M  V30 12 C 4.212410 0.219601 -0.620771 0
M  V30 13 O 0.793042 0.536290 0.744505 0
M  V30 14 C 0.464402 0.771793 1.989676 0
M  V30 15 N -0.839007 0.899109 2.543962 0
M  V30 16 C -2.025564 0.768345 1.723622 0
M  V30 17 C -2.145553 -0.547560 1.067284 0
M  V30 18 C -1.872046 -0.732223 -0.282382 0
M  V30 19 C -1.974091 -1.953260 -0.933583 0
M  V30 20 C -2.375897 -3.071668 -0.195039 0
M  V30 21 C -2.654724 -2.917490 1.150351 0
M  V30 22 C -2.531412 -1.669448 1.733931 0
M  V30 23 O -2.877217 -1.854629 3.065636 0
M  V30 24 C -2.841267 -3.248578 3.356247 0
M  V30 25 O -3.069224 -3.870116 2.092095 0
M  V30 26 H 1.055823 0.059774 -1.820792 0
M  V30 27 H 2.378074 -0.352375 -3.924559 0
M  V30 28 H 6.038966 -0.022545 -1.754315 0
M  V30 29 H 4.784692 0.378014 0.300734 0
M  V30 30 H -0.952261 1.091221 3.562437 0
M  V30 31 H -1.897808 1.528766 0.900431 0
M  V30 32 H -2.941069 1.044345 2.249001 0
M  V30 33 H -1.558715 0.134154 -0.864079 0
M  V30 34 H -1.748643 -2.036753 -1.983883 0
M  V30 35 H -2.439899 -3.989889 -0.739807 0
M  V30 36 H -1.862778 -3.556505 3.762028 0
M  V30 37 H -3.644090 -3.569723 4.036695 0
M  V30 END ATOM
M  V30 BEGIN BOND
M  V30 1 3 1 2
M  V30 2 1 2 3
M  V30 3 1 3 4
M  V30 4 2 4 5
M  V30 5 1 5 6
M  V30 6 2 6 7
M  V30 7 1 7 8
M  V30 8 2 8 9
M  V30 9 1 9 10
M  V30 10 1 9 11
M  V30 11 2 11 12
M  V30 12 1 5 13
M  V30 13 1 13 14
M  V30 14 1 14 15
M  V30 15 1 15 16
M  V30 16 1 16 17
M  V30 17 2 17 18
M  V30 18 1 18 19
M  V30 19 2 19 20
M  V30 20 1 20 21
M  V30 21 2 21 22
M  V30 22 1 22 23
M  V30 23 1 23 24
M  V30 24 1 24 25
M  V30 25 2 14 3
M  V30 26 1 22 17
M  V30 27 1 12 6
M  V30 28 1 25 21
M  V30 29 1 7 26
M  V30 30 1 8 27
M  V30 31 1 11 28
M  V30 32 1 12 29
M  V30 33 1 15 30
M  V30 34 1 16 31
M  V30 35 1 16 32
M  V30 36 1 18 33
M  V30 37 1 19 34
M  V30 38 1 20 35
M  V30 39 1 24 36
M  V30 40 1 24 37
M  V30 END BOND
M  V30 END CTAB
M  END
>  <Dataset>  (623) 
ChEMBL_Kinases

>  <Ligand_Instance>  (623) 
nan

>  <PDB_ID>  (623) 
nan

>  <Standardized_SMILES>  (623) 
N#Cc1nc(-c2ccc(F)cc2)oc1NCc1cccc2c1OCO2

>  <Name>  (623) 
nan

>  <Pocket>  (623) 
nan

>  <ATP_Site>  (623) 
nan

>  <Peripheral>  (623) 
nan

>  <Num_H_Atoms_ProtBoundConf>  (623) 
nan

>  <Num_Resolved_Atoms>  (623) 
nan

>  <Num_Not_Resolved_Atoms>  (623) 
nan

$$$$
CHEMBL1344278
     RDKit          3D

  0  0  0  0  0  0  0  0  0  0999 V3000
M  V30 BEGIN CTAB
M  V30 COUNTS 42 45 0 0 0
M  V30 BEGIN ATOM
M  V30 1 O 0.878456 1.427993 1.234443 0
M  V30 2 C 1.474763 1.258925 2.354631 0
M  V30 3 C 2.301994 2.487758 2.225590 0
M  V30 4 C 1.932157 3.102244 0.930531 0
M  V30 5 C 1.108820 4.215942 0.792584 0
M  V30 6 C 0.834072 4.692778 -0.475445 0
M  V30 7 C 1.353148 4.095724 -1.605955 0
M  V30 8 C 2.159839 3.001791 -1.434406 0
M  V30 9 C 2.686796 2.395762 -2.555615 0
M  V30 10 C 3.514188 1.284789 -2.483119 0
M  V30 11 C 3.815528 0.774623 -1.243374 0
M  V30 12 C 3.278776 1.395164 -0.136388 0
M  V30 13 C 2.457923 2.495561 -0.189503 0
M  V30 14 N 1.311741 0.229900 3.285142 0
M  V30 15 C 0.360924 -0.791933 2.985146 0
M  V30 16 N -0.843907 -0.797482 3.284561 0
M  V30 17 N -1.627058 -1.777255 2.964691 0
M  V30 18 C -1.281934 -2.762298 2.358960 0
M  V30 19 C -1.974524 -3.982268 1.889197 0
M  V30 20 C -3.319772 -4.054422 2.186094 0
M  V30 21 C -3.943631 -5.199373 1.737675 0
M  V30 22 C -3.349466 -6.212293 1.055736 0
M  V30 23 C -2.000810 -6.067169 0.796584 0
M  V30 24 N -1.330066 -7.100262 0.085690 0 CHG=1 VAL=4
M  V30 25 O -1.927668 -8.118620 -0.303905 0
M  V30 26 O -0.006041 -7.063371 -0.222117 0 CHG=-1 VAL=1
M  V30 27 C -1.286840 -4.959246 1.202896 0
M  V30 28 S 0.520073 -2.386746 2.104621 0
M  V30 29 H 1.942941 3.208401 3.007430 0
M  V30 30 H 3.364422 2.347935 2.396001 0
M  V30 31 H 0.732654 4.638860 1.714673 0
M  V30 32 H 0.193177 5.555070 -0.527222 0
M  V30 33 H 1.127374 4.483463 -2.595582 0
M  V30 34 H 2.497628 2.737996 -3.577291 0
M  V30 35 H 3.924396 0.815426 -3.382631 0
M  V30 36 H 4.463546 -0.099240 -1.141483 0
M  V30 37 H 3.545765 0.958096 0.811823 0
M  V30 38 H 1.965191 0.432628 4.064692 0
M  V30 39 H -3.808904 -3.254735 2.729517 0
M  V30 40 H -5.016267 -5.269721 1.966999 0
M  V30 41 H -3.941717 -7.071200 0.750311 0
M  V30 42 H -0.222796 -4.861740 0.989533 0
M  V30 END ATOM
M  V30 BEGIN BOND
M  V30 1 2 1 2
M  V30 2 1 2 3
M  V30 3 1 3 4
M  V30 4 2 4 5
M  V30 5 1 5 6
M  V30 6 2 6 7
M  V30 7 1 7 8
M  V30 8 2 8 9
M  V30 9 1 9 10
M  V30 10 2 10 11
M  V30 11 1 11 12
M  V30 12 2 12 13
M  V30 13 1 2 14
M  V30 14 1 14 15
M  V30 15 2 15 16
M  V30 16 1 16 17
M  V30 17 2 17 18
M  V30 18 1 18 19
M  V30 19 2 19 20
M  V30 20 1 20 21
M  V30 21 2 21 22
M  V30 22 1 22 23
M  V30 23 1 23 24
M  V30 24 2 24 25
M  V30 25 1 24 26
M  V30 26 2 23 27
M  V30 27 1 18 28
M  V30 28 1 13 4
M  V30 29 1 28 15
M  V30 30 1 13 8
M  V30 31 1 27 19
M  V30 32 1 3 29
M  V30 33 1 3 30
M  V30 34 1 5 31
M  V30 35 1 6 32
M  V30 36 1 7 33
M  V30 37 1 9 34
M  V30 38 1 10 35
M  V30 39 1 11 36
M  V30 40 1 12 37
M  V30 41 1 14 38
M  V30 42 1 20 39
M  V30 43 1 21 40
M  V30 44 1 22 41
M  V30 45 1 27 42
M  V30 END BOND
M  V30 END CTAB
M  END
>  <Dataset>  (624) 
ChEMBL_Kinases

>  <Ligand_Instance>  (624) 
nan

>  <PDB_ID>  (624) 
nan

>  <Standardized_SMILES>  (624) 
O=C(Cc1cccc2ccccc12)Nc1nnc(-c2cccc([N+](=O)[O-])c2)s1

>  <Name>  (624) 
nan

>  <Pocket>  (624) 
nan

>  <ATP_Site>  (624) 
nan

>  <Peripheral>  (624) 
nan

>  <Num_H_Atoms_ProtBoundConf>  (624) 
nan

>  <Num_Resolved_Atoms>  (624) 
nan

>  <Num_Not_Resolved_Atoms>  (624) 
nan

$$$$
CHEMBL1344207
     RDKit          3D

  0  0  0  0  0  0  0  0  0  0999 V3000
M  V30 BEGIN CTAB
M  V30 COUNTS 52 53 0 0 0
M  V30 BEGIN ATOM
M  V30 1 C 0.423079 -2.650418 2.817662 0
M  V30 2 O 0.125325 -3.335425 1.641271 0
M  V30 3 C 0.802719 -3.011856 0.466805 0
M  V30 4 C 1.771080 -2.002536 0.495108 0
M  V30 5 C 2.509774 -1.598736 -0.626874 0
M  V30 6 C 3.493346 -0.544542 -0.396624 0
M  V30 7 N 3.101230 0.804166 -0.495239 0
M  V30 8 C 4.224151 1.673388 -0.212869 0
M  V30 9 C 1.975199 1.245878 0.260269 0
M  V30 10 C 0.654546 0.804086 -0.180458 0
M  V30 11 O 0.475481 0.311601 -1.306193 0
M  V30 12 C -0.453689 0.966130 0.760541 0
M  V30 13 N -0.407243 1.473097 2.003588 0
M  V30 14 C -1.604617 1.487181 2.626579 0
M  V30 15 C -1.790360 2.009904 4.025864 0
M  V30 16 C -2.512167 0.953660 1.740393 0
M  V30 17 C -3.915590 0.819209 2.098402 0
M  V30 18 C -5.009377 0.258752 1.263273 0
M  V30 19 O -4.286134 1.214185 3.248385 0
M  V30 20 C -1.786860 0.645062 0.611323 0
M  V30 21 C -2.429222 0.049439 -0.587764 0
M  V30 22 C 2.225642 -2.268110 -1.801169 0
M  V30 23 C 1.274189 -3.264032 -1.842620 0
M  V30 24 C 0.545104 -3.665414 -0.744153 0
M  V30 25 O -0.418474 -4.632181 -0.657659 0
M  V30 26 C -0.903210 -5.460024 -1.669901 0
M  V30 27 F -0.761647 -6.791966 -1.366888 0
M  V30 28 F -2.232636 -5.172564 -1.982476 0
M  V30 29 H 1.481711 -2.860581 3.126317 0
M  V30 30 H 0.320571 -1.539275 2.739866 0
M  V30 31 H -0.266747 -2.983480 3.638719 0
M  V30 32 H 1.942435 -1.515398 1.466569 0
M  V30 33 H 3.993748 -0.771280 0.598063 0
M  V30 34 H 4.336736 -0.731485 -1.132774 0
M  V30 35 H 4.179479 2.610321 -0.785599 0
M  V30 36 H 5.199885 1.158161 -0.276538 0
M  V30 37 H 4.099023 1.987391 0.865156 0
M  V30 38 H 1.988604 2.376744 0.198535 0
M  V30 39 H 2.120228 1.003908 1.358961 0
M  V30 40 H 0.495593 1.826294 2.442202 0
M  V30 41 H -0.914860 2.572201 4.347361 0
M  V30 42 H -2.666186 2.684361 4.091246 0
M  V30 43 H -1.894656 1.126256 4.714898 0
M  V30 44 H -4.644411 -0.681774 0.751906 0
M  V30 45 H -5.369518 0.936394 0.490078 0
M  V30 46 H -5.846601 -0.111615 1.900432 0
M  V30 47 H -1.792103 0.129394 -1.488713 0
M  V30 48 H -3.378468 0.598767 -0.790912 0
M  V30 49 H -2.603772 -1.043981 -0.449830 0
M  V30 50 H 2.785108 -1.962077 -2.650050 0
M  V30 51 H 1.054430 -3.784589 -2.758010 0
M  V30 52 H -0.345524 -5.239137 -2.602771 0
M  V30 END ATOM
M  V30 BEGIN BOND
M  V30 1 1 1 2
M  V30 2 1 2 3
M  V30 3 2 3 4
M  V30 4 1 4 5
M  V30 5 1 5 6
M  V30 6 1 6 7
M  V30 7 1 7 8
M  V30 8 1 7 9
M  V30 9 1 9 10
M  V30 10 2 10 11
M  V30 11 1 10 12
M  V30 12 1 12 13
M  V30 13 1 13 14
M  V30 14 1 14 15
M  V30 15 2 14 16
M  V30 16 1 16 17
M  V30 17 1 17 18
M  V30 18 2 17 19
M  V30 19 1 16 20
M  V30 20 1 20 21
M  V30 21 2 5 22
M  V30 22 1 22 23
M  V30 23 2 23 24
M  V30 24 1 24 25
M  V30 25 1 25 26
M  V30 26 1 26 27
M  V30 27 1 26 28
M  V30 28 1 24 3
M  V30 29 2 20 12
M  V30 30 1 1 29
M  V30 31 1 1 30
M  V30 32 1 1 31
M  V30 33 1 4 32
M  V30 34 1 6 33
M  V30 35 1 6 34
M  V30 36 1 8 35
M  V30 37 1 8 36
M  V30 38 1 8 37
M  V30 39 1 9 38
M  V30 40 1 9 39
M  V30 41 1 13 40
M  V30 42 1 15 41
M  V30 43 1 15 42
M  V30 44 1 15 43
M  V30 45 1 18 44
M  V30 46 1 18 45
M  V30 47 1 18 46
M  V30 48 1 21 47
M  V30 49 1 21 48
M  V30 50 1 21 49
M  V30 51 1 22 50
M  V30 52 1 23 51
M  V30 53 1 26 52
M  V30 END BOND
M  V30 END CTAB
M  END
>  <Dataset>  (625) 
ChEMBL_Kinases

>  <Ligand_Instance>  (625) 
nan

>  <PDB_ID>  (625) 
nan

>  <Standardized_SMILES>  (625) 
COc1cc(CN(C)CC(=O)c2[nH]c(C)c(C(C)=O)c2C)ccc1OC(F)F

>  <Name>  (625) 
nan

>  <Pocket>  (625) 
nan

>  <ATP_Site>  (625) 
nan

>  <Peripheral>  (625) 
nan

>  <Num_H_Atoms_ProtBoundConf>  (625) 
nan

>  <Num_Resolved_Atoms>  (625) 
nan

>  <Num_Not_Resolved_Atoms>  (625) 
nan

$$$$
CHEMBL1344196
     RDKit          3D

  0  0  0  0  0  0  0  0  0  0999 V3000
M  V30 BEGIN CTAB
M  V30 COUNTS 55 58 0 0 0
M  V30 BEGIN ATOM
M  V30 1 C -2.177615 0.993078 4.812067 0
M  V30 2 O -2.149161 -0.027613 3.826275 0
M  V30 3 C -0.891739 -0.358488 3.311241 0
M  V30 4 C 0.224128 0.313575 3.790431 0
M  V30 5 C 1.501149 0.012430 3.304410 0
M  V30 6 C 1.678860 -0.974690 2.323135 0
M  V30 7 C 2.875639 -1.498588 1.708988 0
M  V30 8 C 3.458689 -0.897692 0.505335 0
M  V30 9 N 2.640925 -0.801300 -0.675875 0
M  V30 10 C 1.884745 0.276024 -1.273904 0
M  V30 11 C 0.524843 0.476557 -0.787706 0
M  V30 12 N 0.412094 1.399393 0.191563 0
M  V30 13 C -0.715022 1.768561 0.784981 0
M  V30 14 O -0.709915 2.745571 1.797905 0
M  V30 15 C -1.897346 1.184596 0.399869 0
M  V30 16 C -3.037767 1.585433 1.030161 0
M  V30 17 C -4.212339 0.985280 0.628605 0
M  V30 18 C -4.178321 0.020030 -0.378276 0
M  V30 19 C -2.985726 -0.365896 -1.002951 0
M  V30 20 C -1.808794 0.239608 -0.597173 0
M  V30 21 N -0.621004 -0.105400 -1.177053 0
M  V30 22 C 2.597452 -2.002573 -1.464572 0
M  V30 23 O 3.344937 -2.795594 -0.800193 0
M  V30 24 C 2.003733 -2.506195 -2.671113 0
M  V30 25 C 2.179808 -2.204230 -4.027683 0
M  V30 26 C 1.278291 -3.075843 -4.647550 0
M  V30 27 C 0.632271 -3.827900 -3.656969 0
M  V30 28 O 1.107819 -3.444169 -2.484337 0
M  V30 29 C 0.520631 -1.605136 1.887691 0
M  V30 30 C -0.752647 -1.347216 2.331280 0
M  V30 31 O -1.930673 -1.927321 1.947111 0
M  V30 32 C -1.989342 -2.945408 0.969740 0
M  V30 33 H -3.237722 1.192787 5.127919 0
M  V30 34 H -1.531511 0.738366 5.675447 0
M  V30 35 H -1.813700 1.953165 4.413967 0
M  V30 36 H 0.190415 1.089311 4.549136 0
M  V30 37 H 2.435414 0.462041 3.597725 0
M  V30 38 H 2.798103 -2.632222 1.629301 0
M  V30 39 H 3.695276 -1.413735 2.514459 0
M  V30 40 H 3.965486 0.097410 0.714003 0
M  V30 41 H 4.351609 -1.540278 0.225509 0
M  V30 42 H 2.476398 1.246111 -1.176080 0
M  V30 43 H 1.819394 0.161721 -2.386966 0
M  V30 44 H -0.172330 3.596597 1.675843 0
M  V30 45 H -3.010881 2.340771 1.809110 0
M  V30 46 H -5.122265 1.286828 1.114871 0
M  V30 47 H -5.125535 -0.420792 -0.658230 0
M  V30 48 H -3.001148 -1.123112 -1.784356 0
M  V30 49 H 2.869531 -1.467102 -4.355387 0
M  V30 50 H 1.174585 -3.085750 -5.725603 0
M  V30 51 H -0.098879 -4.551467 -3.963124 0
M  V30 52 H 0.493374 -2.391642 1.131331 0
M  V30 53 H -2.995635 -2.979265 0.480118 0
M  V30 54 H -1.782888 -3.951467 1.433487 0
M  V30 55 H -1.240613 -2.838096 0.159336 0
M  V30 END ATOM
M  V30 BEGIN BOND
M  V30 1 1 1 2
M  V30 2 1 2 3
M  V30 3 2 3 4
M  V30 4 1 4 5
M  V30 5 2 5 6
M  V30 6 1 6 7
M  V30 7 1 7 8
M  V30 8 1 8 9
M  V30 9 1 9 10
M  V30 10 1 10 11
M  V30 11 2 11 12
M  V30 12 1 12 13
M  V30 13 1 13 14
M  V30 14 2 13 15
M  V30 15 1 15 16
M  V30 16 2 16 17
M  V30 17 1 17 18
M  V30 18 2 18 19
M  V30 19 1 19 20
M  V30 20 2 20 21
M  V30 21 1 9 22
M  V30 22 2 22 23
M  V30 23 1 22 24
M  V30 24 2 24 25
M  V30 25 1 25 26
M  V30 26 2 26 27
M  V30 27 1 27 28
M  V30 28 1 6 29
M  V30 29 2 29 30
M  V30 30 1 30 31
M  V30 31 1 31 32
M  V30 32 1 30 3
M  V30 33 1 21 11
M  V30 34 1 28 24
M  V30 35 1 20 15
M  V30 36 1 1 33
M  V30 37 1 1 34
M  V30 38 1 1 35
M  V30 39 1 4 36
M  V30 40 1 5 37
M  V30 41 1 7 38
M  V30 42 1 7 39
M  V30 43 1 8 40
M  V30 44 1 8 41
M  V30 45 1 10 42
M  V30 46 1 10 43
M  V30 47 1 14 44
M  V30 48 1 16 45
M  V30 49 1 17 46
M  V30 50 1 18 47
M  V30 51 1 19 48
M  V30 52 1 25 49
M  V30 53 1 26 50
M  V30 54 1 27 51
M  V30 55 1 29 52
M  V30 56 1 32 53
M  V30 57 1 32 54
M  V30 58 1 32 55
M  V30 END BOND
M  V30 END CTAB
M  END
>  <Dataset>  (626) 
ChEMBL_Kinases

>  <Ligand_Instance>  (626) 
nan

>  <PDB_ID>  (626) 
nan

>  <Standardized_SMILES>  (626) 
COc1ccc(CCN(Cc2nc(O)c3ccccc3n2)C(=O)c2ccco2)cc1OC

>  <Name>  (626) 
nan

>  <Pocket>  (626) 
nan

>  <ATP_Site>  (626) 
nan

>  <Peripheral>  (626) 
nan

>  <Num_H_Atoms_ProtBoundConf>  (626) 
nan

>  <Num_Resolved_Atoms>  (626) 
nan

>  <Num_Not_Resolved_Atoms>  (626) 
nan

$$$$
CHEMBL1343836
     RDKit          3D

  0  0  0  0  0  0  0  0  0  0999 V3000
M  V30 BEGIN CTAB
M  V30 COUNTS 47 48 0 0 0
M  V30 BEGIN ATOM
M  V30 1 C 0.728096 -4.791689 2.704589 0
M  V30 2 C 0.376684 -3.433183 2.166428 0
M  V30 3 Cl -0.377170 -2.164896 3.076178 0
M  V30 4 C 0.617341 -3.042541 0.896372 0
M  V30 5 C 0.403441 -1.834114 0.104902 0
M  V30 6 N -0.238190 -0.739558 0.807475 0
M  V30 7 C 0.277477 0.287825 1.561138 0
M  V30 8 N 1.693731 0.219122 1.631955 0
M  V30 9 C 2.235281 1.552662 1.455195 0
M  V30 10 C 3.731874 1.488612 1.117671 0
M  V30 11 N 3.860286 0.722053 -0.089061 0
M  V30 12 C 5.195237 0.600987 -0.583703 0
M  V30 13 C 2.932597 1.037216 -1.122373 0
M  V30 14 N -0.744909 1.050956 1.984617 0
M  V30 15 C -1.910784 0.517991 1.505314 0
M  V30 16 C -1.583012 -0.617001 0.758977 0
M  V30 17 C -2.605023 -1.322055 0.152987 0
M  V30 18 O -2.331349 -2.356210 -0.535032 0
M  V30 19 N -3.904895 -0.994397 0.232278 0
M  V30 20 C -4.906256 -1.795861 -0.451864 0
M  V30 21 C -4.173948 0.100524 0.960530 0
M  V30 22 O -5.392328 0.438878 1.056285 0
M  V30 23 N -3.214979 0.821015 1.567596 0
M  V30 24 C -3.558150 1.982761 2.345165 0
M  V30 25 H -0.153270 -5.351315 3.069124 0
M  V30 26 H 1.118287 -5.386256 1.838612 0
M  V30 27 H 1.532849 -4.762728 3.458032 0
M  V30 28 H 1.104963 -3.826193 0.275978 0
M  V30 29 H 1.444406 -1.457104 -0.166944 0
M  V30 30 H -0.051848 -2.063501 -0.860138 0
M  V30 31 H 2.257245 -0.633122 1.794832 0
M  V30 32 H 2.129312 2.150188 2.401059 0
M  V30 33 H 1.729934 2.149190 0.676370 0
M  V30 34 H 4.288722 1.067531 1.955415 0
M  V30 35 H 4.048897 2.521973 0.880576 0
M  V30 36 H 5.897763 0.597392 0.271928 0
M  V30 37 H 5.364472 1.502859 -1.243270 0
M  V30 38 H 5.257292 -0.301544 -1.215555 0
M  V30 39 H 1.880745 0.822303 -0.790619 0
M  V30 40 H 2.988433 2.091912 -1.455894 0
M  V30 41 H 3.085068 0.301911 -1.969299 0
M  V30 42 H -4.644021 -2.851039 -0.327041 0
M  V30 43 H -5.890905 -1.626249 0.037086 0
M  V30 44 H -4.889862 -1.477351 -1.520168 0
M  V30 45 H -3.709932 1.704504 3.416497 0
M  V30 46 H -4.526203 2.376112 1.957479 0
M  V30 47 H -2.783311 2.777157 2.333917 0
M  V30 END ATOM
M  V30 BEGIN BOND
M  V30 1 1 1 2
M  V30 2 1 2 3
M  V30 3 2 2 4
M  V30 4 1 4 5
M  V30 5 1 5 6
M  V30 6 1 6 7
M  V30 7 1 7 8
M  V30 8 1 8 9
M  V30 9 1 9 10
M  V30 10 1 10 11
M  V30 11 1 11 12
M  V30 12 1 11 13
M  V30 13 2 7 14
M  V30 14 1 14 15
M  V30 15 2 15 16
M  V30 16 1 16 17
M  V30 17 2 17 18
M  V30 18 1 17 19
M  V30 19 1 19 20
M  V30 20 1 19 21
M  V30 21 2 21 22
M  V30 22 1 21 23
M  V30 23 1 23 24
M  V30 24 1 16 6
M  V30 25 1 23 15
M  V30 26 1 1 25
M  V30 27 1 1 26
M  V30 28 1 1 27
M  V30 29 1 4 28
M  V30 30 1 5 29
M  V30 31 1 5 30
M  V30 32 1 8 31
M  V30 33 1 9 32
M  V30 34 1 9 33
M  V30 35 1 10 34
M  V30 36 1 10 35
M  V30 37 1 12 36
M  V30 38 1 12 37
M  V30 39 1 12 38
M  V30 40 1 13 39
M  V30 41 1 13 40
M  V30 42 1 13 41
M  V30 43 1 20 42
M  V30 44 1 20 43
M  V30 45 1 20 44
M  V30 46 1 24 45
M  V30 47 1 24 46
M  V30 48 1 24 47
M  V30 END BOND
M  V30 END CTAB
M  END
>  <Dataset>  (627) 
ChEMBL_Kinases

>  <Ligand_Instance>  (627) 
nan

>  <PDB_ID>  (627) 
nan

>  <Standardized_SMILES>  (627) 
C/C(Cl)=C/Cn1c(NCCN(C)C)nc2c1c(=O)n(C)c(=O)n2C

>  <Name>  (627) 
nan

>  <Pocket>  (627) 
nan

>  <ATP_Site>  (627) 
nan

>  <Peripheral>  (627) 
nan

>  <Num_H_Atoms_ProtBoundConf>  (627) 
nan

>  <Num_Resolved_Atoms>  (627) 
nan

>  <Num_Not_Resolved_Atoms>  (627) 
nan

$$$$
CHEMBL1343823
     RDKit          3D

  0  0  0  0  0  0  0  0  0  0999 V3000
M  V30 BEGIN CTAB
M  V30 COUNTS 60 64 0 0 0
M  V30 BEGIN ATOM
M  V30 1 C 5.647095 0.019124 2.333067 0
M  V30 2 N 4.521767 -0.551042 3.049289 0
M  V30 3 C 4.748330 -0.990103 4.406714 0
M  V30 4 C 3.257027 -0.668463 2.435668 0
M  V30 5 C 2.219158 -1.216443 3.155356 0
M  V30 6 C 0.969863 -1.352642 2.603810 0
M  V30 7 C 0.684715 -0.955202 1.317228 0
M  V30 8 N -0.445398 -0.948100 0.463558 0 CHG=1 VAL=4
M  V30 9 C -1.219685 0.145415 0.469089 0
M  V30 10 C -1.090120 1.365741 1.242562 0
M  V30 11 C -1.157532 2.569746 0.521676 0
M  V30 12 C -1.069398 3.846123 1.067686 0
M  V30 13 C -0.903771 3.946451 2.413788 0
M  V30 14 C -0.832306 2.813479 3.160894 0
M  V30 15 C -0.924373 1.579277 2.578664 0
M  V30 16 C -2.326284 0.198259 -0.386903 0
M  V30 17 C -2.637386 -0.845836 -1.232893 0
M  V30 18 C -3.785979 -0.817284 -2.135920 0
M  V30 19 C -3.837090 -1.452172 -3.366152 0
M  V30 20 C -4.997730 -1.329879 -4.102433 0
M  V30 21 C -6.120335 -0.625162 -3.717575 0
M  V30 22 C -6.055334 0.005577 -2.483519 0
M  V30 23 C -4.906156 -0.100531 -1.726477 0
M  V30 24 C -1.806485 -1.942665 -1.194411 0
M  V30 25 C -0.703433 -1.978931 -0.331830 0
M  V30 26 C 0.066997 -3.201789 -0.443343 0
M  V30 27 C 0.538043 -4.080332 0.476331 0
M  V30 28 C 1.274818 -5.188066 0.199691 0
M  V30 29 C 1.603565 -5.500619 -1.100381 0
M  V30 30 C 1.168672 -4.666114 -2.107278 0
M  V30 31 C 0.425377 -3.559348 -1.754850 0
M  V30 32 C 1.746262 -0.396514 0.585998 0
M  V30 33 C 3.026028 -0.253524 1.141480 0
M  V30 34 H 5.285833 0.979036 1.888230 0
M  V30 35 H 6.002099 -0.714440 1.592179 0
M  V30 36 H 6.465823 0.308074 3.029966 0
M  V30 37 H 4.791375 -2.092425 4.518015 0
M  V30 38 H 3.916019 -0.606659 5.050803 0
M  V30 39 H 5.694795 -0.586817 4.813774 0
M  V30 40 H 2.277183 -1.576217 4.172619 0
M  V30 41 H 0.039160 -1.761444 3.025573 0
M  V30 42 H -1.290802 2.532485 -0.567506 0
M  V30 43 H -1.133612 4.708492 0.419523 0
M  V30 44 H -0.826867 4.892235 2.912424 0
M  V30 45 H -0.699037 2.838259 4.251914 0
M  V30 46 H -0.878407 0.695272 3.182852 0
M  V30 47 H -3.028394 1.043779 -0.465752 0
M  V30 48 H -2.976637 -1.995618 -3.667812 0
M  V30 49 H -5.062174 -1.817480 -5.068270 0
M  V30 50 H -7.003479 -0.562909 -4.335587 0
M  V30 51 H -6.919752 0.576640 -2.133922 0
M  V30 52 H -4.950144 0.430938 -0.768792 0
M  V30 53 H -2.065894 -2.766149 -1.872834 0
M  V30 54 H 0.274181 -3.848666 1.491428 0
M  V30 55 H 1.593292 -5.813293 1.028235 0
M  V30 56 H 2.190197 -6.393495 -1.249443 0
M  V30 57 H 1.412992 -4.891704 -3.119366 0
M  V30 58 H 0.114875 -2.942287 -2.610238 0
M  V30 59 H 1.770376 -0.009704 -0.443695 0
M  V30 60 H 3.884753 0.160703 0.651966 0
M  V30 END ATOM
M  V30 BEGIN BOND
M  V30 1 1 1 2
M  V30 2 1 2 3
M  V30 3 1 2 4
M  V30 4 2 4 5
M  V30 5 1 5 6
M  V30 6 2 6 7
M  V30 7 1 7 8
M  V30 8 1 8 9
M  V30 9 1 9 10
M  V30 10 2 10 11
M  V30 11 1 11 12
M  V30 12 2 12 13
M  V30 13 1 13 14
M  V30 14 2 14 15
M  V30 15 2 9 16
M  V30 16 1 16 17
M  V30 17 1 17 18
M  V30 18 2 18 19
M  V30 19 1 19 20
M  V30 20 2 20 21
M  V30 21 1 21 22
M  V30 22 2 22 23
M  V30 23 2 17 24
M  V30 24 1 24 25
M  V30 25 1 25 26
M  V30 26 2 26 27
M  V30 27 1 27 28
M  V30 28 2 28 29
M  V30 29 1 29 30
M  V30 30 2 30 31
M  V30 31 1 7 32
M  V30 32 2 32 33
M  V30 33 1 33 4
M  V30 34 2 25 8
M  V30 35 1 31 26
M  V30 36 1 15 10
M  V30 37 1 23 18
M  V30 38 1 1 34
M  V30 39 1 1 35
M  V30 40 1 1 36
M  V30 41 1 3 37
M  V30 42 1 3 38
M  V30 43 1 3 39
M  V30 44 1 5 40
M  V30 45 1 6 41
M  V30 46 1 11 42
M  V30 47 1 12 43
M  V30 48 1 13 44
M  V30 49 1 14 45
M  V30 50 1 15 46
M  V30 51 1 16 47
M  V30 52 1 19 48
M  V30 53 1 20 49
M  V30 54 1 21 50
M  V30 55 1 22 51
M  V30 56 1 23 52
M  V30 57 1 24 53
M  V30 58 1 27 54
M  V30 59 1 28 55
M  V30 60 1 29 56
M  V30 61 1 30 57
M  V30 62 1 31 58
M  V30 63 1 32 59
M  V30 64 1 33 60
M  V30 END BOND
M  V30 END CTAB
M  END
>  <Dataset>  (628) 
ChEMBL_Kinases

>  <Ligand_Instance>  (628) 
nan

>  <PDB_ID>  (628) 
nan

>  <Standardized_SMILES>  (628) 
CN(C)c1ccc(-[n+]2c(-c3ccccc3)cc(-c3ccccc3)cc2-c2ccccc2)cc1

>  <Name>  (628) 
nan

>  <Pocket>  (628) 
nan

>  <ATP_Site>  (628) 
nan

>  <Peripheral>  (628) 
nan

>  <Num_H_Atoms_ProtBoundConf>  (628) 
nan

>  <Num_Resolved_Atoms>  (628) 
nan

>  <Num_Not_Resolved_Atoms>  (628) 
nan

$$$$
CHEMBL1343821
     RDKit          3D

  0  0  0  0  0  0  0  0  0  0999 V3000
M  V30 BEGIN CTAB
M  V30 COUNTS 47 50 0 0 0
M  V30 BEGIN ATOM
M  V30 1 O -0.623333 -6.518064 1.702425 0
M  V30 2 C -1.425553 -5.594041 1.989054 0
M  V30 3 C -1.016106 -4.230035 1.665652 0
M  V30 4 C 0.132493 -3.975159 1.103333 0
M  V30 5 C 0.620604 -2.649790 0.746807 0
M  V30 6 C -0.086432 -1.488618 0.964793 0
M  V30 7 C 0.354920 -0.222414 0.636269 0
M  V30 8 C 1.600079 -0.099240 0.042793 0
M  V30 9 N 2.146266 1.167129 -0.334549 0
M  V30 10 C 3.443039 1.408316 -0.965191 0
M  V30 11 C 3.492078 2.899821 -1.032432 0
M  V30 12 C 2.167342 3.376521 -0.502809 0
M  V30 13 C 1.809172 4.795268 -0.452647 0
M  V30 14 C 2.655397 5.796423 -0.885129 0
M  V30 15 C 2.198300 7.099315 -0.784444 0
M  V30 16 C 0.956836 7.444509 -0.280702 0
M  V30 17 C 0.098188 6.433711 0.157784 0
M  V30 18 C 0.559582 5.131332 0.055180 0
M  V30 19 N 1.476547 2.376586 -0.136572 0
M  V30 20 C 2.345587 -1.238942 -0.195219 0
M  V30 21 C 1.854853 -2.483541 0.154270 0
M  V30 22 C -2.709393 -5.882622 2.618387 0
M  V30 23 C -3.656696 -4.945419 2.971436 0
M  V30 24 C -4.860318 -5.259368 3.565905 0
M  V30 25 C -5.167924 -6.577088 3.837809 0
M  V30 26 C -4.225786 -7.521365 3.487852 0
M  V30 27 C -3.028965 -7.198358 2.895661 0
M  V30 28 H -1.673875 -3.402534 1.893516 0
M  V30 29 H 0.762506 -4.825049 0.890496 0
M  V30 30 H -1.052669 -1.527652 1.419726 0
M  V30 31 H -0.231474 0.670449 0.823627 0
M  V30 32 H 4.289642 0.999984 -0.362816 0
M  V30 33 H 3.505678 0.960103 -1.965563 0
M  V30 34 H 3.577220 3.293330 -2.082045 0
M  V30 35 H 4.326767 3.281065 -0.408276 0
M  V30 36 H 3.622911 5.533300 -1.278075 0
M  V30 37 H 2.843846 7.912002 -1.117919 0
M  V30 38 H 0.596787 8.452022 -0.200108 0
M  V30 39 H -0.870749 6.652315 0.554646 0
M  V30 40 H -0.114726 4.363402 0.397694 0
M  V30 41 H 3.336305 -1.233595 -0.658574 0
M  V30 42 H 2.439313 -3.381727 -0.031703 0
M  V30 43 H -3.436333 -3.908597 2.767636 0
M  V30 44 H -5.534172 -4.444759 3.802772 0
M  V30 45 H -6.097562 -6.810861 4.296063 0
M  V30 46 H -4.460786 -8.569354 3.699653 0
M  V30 47 H -2.349321 -8.002983 2.655131 0
M  V30 END ATOM
M  V30 BEGIN BOND
M  V30 1 2 1 2
M  V30 2 1 2 3
M  V30 3 2 3 4
M  V30 4 1 4 5
M  V30 5 2 5 6
M  V30 6 1 6 7
M  V30 7 2 7 8
M  V30 8 1 8 9
M  V30 9 1 9 10
M  V30 10 1 10 11
M  V30 11 1 11 12
M  V30 12 1 12 13
M  V30 13 2 13 14
M  V30 14 1 14 15
M  V30 15 2 15 16
M  V30 16 1 16 17
M  V30 17 2 17 18
M  V30 18 2 12 19
M  V30 19 1 8 20
M  V30 20 2 20 21
M  V30 21 1 2 22
M  V30 22 2 22 23
M  V30 23 1 23 24
M  V30 24 2 24 25
M  V30 25 1 25 26
M  V30 26 2 26 27
M  V30 27 1 21 5
M  V30 28 1 27 22
M  V30 29 1 19 9
M  V30 30 1 18 13
M  V30 31 1 3 28
M  V30 32 1 4 29
M  V30 33 1 6 30
M  V30 34 1 7 31
M  V30 35 1 10 32
M  V30 36 1 10 33
M  V30 37 1 11 34
M  V30 38 1 11 35
M  V30 39 1 14 36
M  V30 40 1 15 37
M  V30 41 1 16 38
M  V30 42 1 17 39
M  V30 43 1 18 40
M  V30 44 1 20 41
M  V30 45 1 21 42
M  V30 46 1 23 43
M  V30 47 1 24 44
M  V30 48 1 25 45
M  V30 49 1 26 46
M  V30 50 1 27 47
M  V30 END BOND
M  V30 END CTAB
M  END
>  <Dataset>  (629) 
ChEMBL_Kinases

>  <Ligand_Instance>  (629) 
nan

>  <PDB_ID>  (629) 
nan

>  <Standardized_SMILES>  (629) 
O=C(/C=C/c1ccc(N2CCC(c3ccccc3)=N2)cc1)c1ccccc1

>  <Name>  (629) 
nan

>  <Pocket>  (629) 
nan

>  <ATP_Site>  (629) 
nan

>  <Peripheral>  (629) 
nan

>  <Num_H_Atoms_ProtBoundConf>  (629) 
nan

>  <Num_Resolved_Atoms>  (629) 
nan

>  <Num_Not_Resolved_Atoms>  (629) 
nan

$$$$
CHEMBL1343768
     RDKit          3D

  0  0  0  0  0  0  0  0  0  0999 V3000
M  V30 BEGIN CTAB
M  V30 COUNTS 46 48 0 0 0
M  V30 BEGIN ATOM
M  V30 1 O 1.712691 -1.624511 2.773376 0
M  V30 2 C 1.018021 -1.318540 1.788774 0
M  V30 3 N 0.708273 -2.343609 0.872318 0
M  V30 4 C 1.169545 -3.715080 1.045886 0
M  V30 5 C -0.042919 -4.563716 1.283531 0
M  V30 6 C -1.018393 -4.529316 0.146349 0
M  V30 7 C -0.418742 -4.735080 -1.206756 0
M  V30 8 C 0.545027 -5.886299 -1.221304 0
M  V30 9 C 1.779207 -5.658686 -0.406895 0
M  V30 10 C 2.029315 -4.204138 -0.075383 0
M  V30 11 C 0.572853 0.063313 1.645215 0
M  V30 12 C 0.947395 0.970052 2.615886 0
M  V30 13 C 0.561812 2.294456 2.543915 0
M  V30 14 C -0.211865 2.775867 1.505784 0
M  V30 15 N -0.622208 4.136481 1.408454 0
M  V30 16 C -0.271919 5.155601 2.380997 0
M  V30 17 C 0.093161 6.287022 1.409458 0
M  V30 18 C -1.104075 6.253904 0.486940 0
M  V30 19 C -1.411108 4.800004 0.424382 0
M  V30 20 O -2.215656 4.185065 -0.337455 0
M  V30 21 C -0.563905 1.836210 0.557529 0
M  V30 22 C -0.200559 0.500746 0.589457 0
M  V30 23 H 0.128073 -2.129542 0.032900 0
M  V30 24 H 1.757561 -3.721521 1.983695 0
M  V30 25 H -0.565806 -4.096449 2.168988 0
M  V30 26 H 0.194484 -5.593409 1.622753 0
M  V30 27 H -1.746506 -5.363964 0.307532 0
M  V30 28 H -1.612077 -3.592110 0.160102 0
M  V30 29 H -0.026628 -3.824158 -1.661388 0
M  V30 30 H -1.270225 -5.054656 -1.876169 0
M  V30 31 H 0.786107 -6.100137 -2.292502 0
M  V30 32 H -0.027549 -6.785860 -0.863296 0
M  V30 33 H 1.804469 -6.267660 0.524621 0
M  V30 34 H 2.649250 -6.013070 -0.997306 0
M  V30 35 H 1.900952 -3.619590 -1.002199 0
M  V30 36 H 3.115046 -4.146550 0.179258 0
M  V30 37 H 1.555103 0.655422 3.457365 0
M  V30 38 H 0.881689 2.954718 3.326223 0
M  V30 39 H 0.609194 4.944064 2.978622 0
M  V30 40 H -1.162357 5.499950 2.944548 0
M  V30 41 H 0.224663 7.245001 1.920155 0
M  V30 42 H 0.986422 5.944015 0.862424 0
M  V30 43 H -0.738328 6.570618 -0.506786 0
M  V30 44 H -1.946400 6.867654 0.858376 0
M  V30 45 H -1.166232 2.101268 -0.296024 0
M  V30 46 H -0.498562 -0.200251 -0.174450 0
M  V30 END ATOM
M  V30 BEGIN BOND
M  V30 1 2 1 2
M  V30 2 1 2 3
M  V30 3 1 3 4
M  V30 4 1 4 5
M  V30 5 1 5 6
M  V30 6 1 6 7
M  V30 7 1 7 8
M  V30 8 1 8 9
M  V30 9 1 9 10
M  V30 10 1 2 11
M  V30 11 2 11 12
M  V30 12 1 12 13
M  V30 13 2 13 14
M  V30 14 1 14 15
M  V30 15 1 15 16
M  V30 16 1 16 17
M  V30 17 1 17 18
M  V30 18 1 18 19
M  V30 19 2 19 20
M  V30 20 1 14 21
M  V30 21 2 21 22
M  V30 22 1 10 4
M  V30 23 1 22 11
M  V30 24 1 19 15
M  V30 25 1 3 23
M  V30 26 1 4 24
M  V30 27 1 5 25
M  V30 28 1 5 26
M  V30 29 1 6 27
M  V30 30 1 6 28
M  V30 31 1 7 29
M  V30 32 1 7 30
M  V30 33 1 8 31
M  V30 34 1 8 32
M  V30 35 1 9 33
M  V30 36 1 9 34
M  V30 37 1 10 35
M  V30 38 1 10 36
M  V30 39 1 12 37
M  V30 40 1 13 38
M  V30 41 1 16 39
M  V30 42 1 16 40
M  V30 43 1 17 41
M  V30 44 1 17 42
M  V30 45 1 18 43
M  V30 46 1 18 44
M  V30 47 1 21 45
M  V30 48 1 22 46
M  V30 END BOND
M  V30 END CTAB
M  END
>  <Dataset>  (630) 
ChEMBL_Kinases

>  <Ligand_Instance>  (630) 
nan

>  <PDB_ID>  (630) 
nan

>  <Standardized_SMILES>  (630) 
O=C(NC1CCCCCC1)c1ccc(N2CCCC2=O)cc1

>  <Name>  (630) 
nan

>  <Pocket>  (630) 
nan

>  <ATP_Site>  (630) 
nan

>  <Peripheral>  (630) 
nan

>  <Num_H_Atoms_ProtBoundConf>  (630) 
nan

>  <Num_Resolved_Atoms>  (630) 
nan

>  <Num_Not_Resolved_Atoms>  (630) 
nan

$$$$
CHEMBL1343734
     RDKit          3D

  0  0  0  0  0  0  0  0  0  0999 V3000
M  V30 BEGIN CTAB
M  V30 COUNTS 41 43 0 0 0
M  V30 BEGIN ATOM
M  V30 1 C 1.023505 -5.657225 -1.029498 0
M  V30 2 C 0.740887 -4.613738 0.005231 0
M  V30 3 C -0.726074 -4.692437 0.378159 0
M  V30 4 C 1.114945 -3.244176 -0.419199 0
M  V30 5 O 1.951785 -2.488725 0.156271 0
M  V30 6 N 0.439883 -2.768843 -1.599680 0
M  V30 7 C 0.731197 -1.477893 -2.077470 0
M  V30 8 N 1.479349 -0.862018 -2.833817 0
M  V30 9 N 1.457392 0.397822 -3.034579 0
M  V30 10 C 0.688396 1.185912 -2.504856 0
M  V30 11 S 0.234190 2.925881 -2.411295 0
M  V30 12 C 1.207871 3.710542 -1.101807 0
M  V30 13 C 0.856688 3.180560 0.239723 0
M  V30 14 O 1.480636 2.154448 0.679207 0
M  V30 15 N -0.130939 3.673554 1.167869 0
M  V30 16 C -0.062455 2.795358 2.313213 0
M  V30 17 C 0.800123 3.094808 3.345908 0
M  V30 18 C 0.846478 2.236846 4.430269 0
M  V30 19 C 0.003404 1.119659 4.391611 0
M  V30 20 C -0.869926 0.799554 3.366148 0
M  V30 21 C -0.890043 1.684286 2.292224 0
M  V30 22 O -1.516807 -0.395391 3.734086 0
M  V30 23 C -0.685280 -1.050894 4.704486 0
M  V30 24 O -0.139847 0.106514 5.353807 0
M  V30 25 S -0.326204 -0.014637 -1.415262 0
M  V30 26 H 0.539089 -5.427271 -2.009110 0
M  V30 27 H 2.078303 -5.926095 -1.142937 0
M  V30 28 H 0.504993 -6.586100 -0.680102 0
M  V30 29 H 1.339049 -4.875887 0.908950 0
M  V30 30 H -1.222136 -5.615243 0.029167 0
M  V30 31 H -1.273323 -3.841991 -0.099298 0
M  V30 32 H -0.891334 -4.619294 1.467237 0
M  V30 33 H -0.262886 -3.347273 -2.120118 0
M  V30 34 H 1.092510 4.798335 -1.162856 0
M  V30 35 H 2.272623 3.459271 -1.280092 0
M  V30 36 H -0.646487 4.527781 0.798143 0
M  V30 37 H 1.438300 3.955043 3.358000 0
M  V30 38 H 1.488407 2.385900 5.285619 0
M  V30 39 H -1.560378 1.448894 1.492526 0
M  V30 40 H -1.238622 -1.697883 5.382501 0
M  V30 41 H 0.185575 -1.534008 4.196702 0
M  V30 END ATOM
M  V30 BEGIN BOND
M  V30 1 1 1 2
M  V30 2 1 2 3
M  V30 3 1 2 4
M  V30 4 2 4 5
M  V30 5 1 4 6
M  V30 6 1 6 7
M  V30 7 2 7 8
M  V30 8 1 8 9
M  V30 9 2 9 10
M  V30 10 1 10 11
M  V30 11 1 11 12
M  V30 12 1 12 13
M  V30 13 2 13 14
M  V30 14 1 13 15
M  V30 15 1 15 16
M  V30 16 2 16 17
M  V30 17 1 17 18
M  V30 18 2 18 19
M  V30 19 1 19 20
M  V30 20 2 20 21
M  V30 21 1 20 22
M  V30 22 1 22 23
M  V30 23 1 23 24
M  V30 24 1 10 25
M  V30 25 1 25 7
M  V30 26 1 21 16
M  V30 27 1 24 19
M  V30 28 1 1 26
M  V30 29 1 1 27
M  V30 30 1 1 28
M  V30 31 1 2 29
M  V30 32 1 3 30
M  V30 33 1 3 31
M  V30 34 1 3 32
M  V30 35 1 6 33
M  V30 36 1 12 34
M  V30 37 1 12 35
M  V30 38 1 15 36
M  V30 39 1 17 37
M  V30 40 1 18 38
M  V30 41 1 21 39
M  V30 42 1 23 40
M  V30 43 1 23 41
M  V30 END BOND
M  V30 END CTAB
M  END
>  <Dataset>  (631) 
ChEMBL_Kinases

>  <Ligand_Instance>  (631) 
nan

>  <PDB_ID>  (631) 
nan

>  <Standardized_SMILES>  (631) 
CC(C)C(=O)Nc1nnc(SCC(=O)Nc2ccc3c(c2)OCO3)s1

>  <Name>  (631) 
nan

>  <Pocket>  (631) 
nan

>  <ATP_Site>  (631) 
nan

>  <Peripheral>  (631) 
nan

>  <Num_H_Atoms_ProtBoundConf>  (631) 
nan

>  <Num_Resolved_Atoms>  (631) 
nan

>  <Num_Not_Resolved_Atoms>  (631) 
nan

$$$$
CHEMBL1343727
     RDKit          3D

  0  0  0  0  0  0  0  0  0  0999 V3000
M  V30 BEGIN CTAB
M  V30 COUNTS 47 49 0 0 0
M  V30 BEGIN ATOM
M  V30 1 C 0.182581 -7.214713 0.104954 0
M  V30 2 O -0.847564 -6.275886 0.189621 0
M  V30 3 C -0.706159 -4.909799 -0.001615 0
M  V30 4 C 0.539452 -4.393902 -0.302194 0
M  V30 5 C 0.610825 -3.037657 -0.479124 0
M  V30 6 C -0.455491 -2.169263 -0.379108 0
M  V30 7 C -0.386585 -0.727566 -0.567014 0
M  V30 8 C 0.854382 -0.149159 -0.878112 0
M  V30 9 C 0.772291 1.243009 -1.031783 0
M  V30 10 C -0.355965 2.025749 -0.908525 0
M  V30 11 S -0.095651 3.748991 -1.166985 0
M  V30 12 C 0.321255 4.674550 0.318927 0
M  V30 13 C 1.642545 4.254652 0.896871 0
M  V30 14 O 2.802462 4.592923 0.561425 0
M  V30 15 N 1.582096 3.339240 1.985519 0
M  V30 16 C 2.822169 2.857932 2.589382 0
M  V30 17 C 2.446213 2.291260 3.941438 0
M  V30 18 O 1.652033 1.157149 3.832187 0
M  V30 19 C 0.596377 1.330287 2.950108 0
M  V30 20 C 0.387332 2.802007 2.612749 0
M  V30 21 N -1.503709 1.351556 -0.604404 0
M  V30 22 N -1.481062 0.042512 -0.449073 0
M  V30 23 C -1.665902 -2.761881 -0.075552 0
M  V30 24 C -1.847517 -4.134395 0.123982 0
M  V30 25 O -3.053728 -4.723219 0.425797 0
M  V30 26 C -4.199229 -3.905868 0.546630 0
M  V30 27 H 0.939063 -6.965507 -0.686148 0
M  V30 28 H -0.283968 -8.183485 -0.209241 0
M  V30 29 H 0.730662 -7.359635 1.045332 0
M  V30 30 H 1.419138 -5.010057 -0.396846 0
M  V30 31 H 1.573881 -2.649185 -0.711667 0
M  V30 32 H 1.766367 -0.682422 -0.988678 0
M  V30 33 H 1.754464 1.673364 -1.276466 0
M  V30 34 H -0.456996 4.719508 1.079257 0
M  V30 35 H 0.498998 5.727613 -0.020149 0
M  V30 36 H 3.607724 3.606525 2.666055 0
M  V30 37 H 3.115730 1.981291 1.957150 0
M  V30 38 H 1.867596 3.057410 4.491929 0
M  V30 39 H 3.345364 1.970710 4.520386 0
M  V30 40 H 0.766191 0.833098 1.965878 0
M  V30 41 H -0.372415 0.963331 3.341889 0
M  V30 42 H 0.109445 3.394510 3.513938 0
M  V30 43 H -0.419842 2.832378 1.854513 0
M  V30 44 H -2.571193 -2.181007 0.028490 0
M  V30 45 H -5.096934 -4.494396 0.838648 0
M  V30 46 H -3.994132 -3.100287 1.291516 0
M  V30 47 H -4.322507 -3.386536 -0.420290 0
M  V30 END ATOM
M  V30 BEGIN BOND
M  V30 1 1 1 2
M  V30 2 1 2 3
M  V30 3 2 3 4
M  V30 4 1 4 5
M  V30 5 2 5 6
M  V30 6 1 6 7
M  V30 7 2 7 8
M  V30 8 1 8 9
M  V30 9 2 9 10
M  V30 10 1 10 11
M  V30 11 1 11 12
M  V30 12 1 12 13
M  V30 13 2 13 14
M  V30 14 1 13 15
M  V30 15 1 15 16
M  V30 16 1 16 17
M  V30 17 1 17 18
M  V30 18 1 18 19
M  V30 19 1 19 20
M  V30 20 1 10 21
M  V30 21 2 21 22
M  V30 22 1 6 23
M  V30 23 2 23 24
M  V30 24 1 24 25
M  V30 25 1 25 26
M  V30 26 1 24 3
M  V30 27 1 22 7
M  V30 28 1 20 15
M  V30 29 1 1 27
M  V30 30 1 1 28
M  V30 31 1 1 29
M  V30 32 1 4 30
M  V30 33 1 5 31
M  V30 34 1 8 32
M  V30 35 1 9 33
M  V30 36 1 12 34
M  V30 37 1 12 35
M  V30 38 1 16 36
M  V30 39 1 16 37
M  V30 40 1 17 38
M  V30 41 1 17 39
M  V30 42 1 19 40
M  V30 43 1 19 41
M  V30 44 1 20 42
M  V30 45 1 20 43
M  V30 46 1 23 44
M  V30 47 1 26 45
M  V30 48 1 26 46
M  V30 49 1 26 47
M  V30 END BOND
M  V30 END CTAB
M  END
>  <Dataset>  (632) 
ChEMBL_Kinases

>  <Ligand_Instance>  (632) 
nan

>  <PDB_ID>  (632) 
nan

>  <Standardized_SMILES>  (632) 
COc1ccc(-c2ccc(SCC(=O)N3CCOCC3)nn2)cc1OC

>  <Name>  (632) 
nan

>  <Pocket>  (632) 
nan

>  <ATP_Site>  (632) 
nan

>  <Peripheral>  (632) 
nan

>  <Num_H_Atoms_ProtBoundConf>  (632) 
nan

>  <Num_Resolved_Atoms>  (632) 
nan

>  <Num_Not_Resolved_Atoms>  (632) 
nan

$$$$
CHEMBL1343526
     RDKit          3D

  0  0  0  0  0  0  0  0  0  0999 V3000
M  V30 BEGIN CTAB
M  V30 COUNTS 45 48 0 0 0
M  V30 BEGIN ATOM
M  V30 1 C 0.020178 -5.217130 0.557943 0
M  V30 2 C -0.437243 -3.812703 0.223415 0
M  V30 3 C -0.191071 -2.972262 1.482258 0
M  V30 4 N -0.382993 -1.592529 1.073983 0
M  V30 5 C 0.297090 -0.372713 1.345924 0
M  V30 6 N 0.785803 0.228234 0.231568 0
M  V30 7 C 1.465927 1.409865 0.321038 0
M  V30 8 C 1.986737 2.040983 -0.910125 0
M  V30 9 C 1.772562 1.417531 -2.126784 0
M  V30 10 C 2.238251 1.963560 -3.314140 0
M  V30 11 C 2.927873 3.157848 -3.246632 0
M  V30 12 C 3.158939 3.809359 -2.033852 0
M  V30 13 C 2.679110 3.233763 -0.871878 0
M  V30 14 N 1.675880 2.017002 1.500046 0
M  V30 15 C 1.197675 1.434888 2.618785 0
M  V30 16 C 1.363115 1.986339 3.894546 0
M  V30 17 C 0.839100 1.324993 5.008838 0
M  V30 18 C 0.154672 0.131242 4.896613 0
M  V30 19 C -0.019462 -0.430532 3.642311 0
M  V30 20 C 0.506696 0.241720 2.562795 0
M  V30 21 C -1.524127 -1.427534 0.191697 0
M  V30 22 C -2.424078 -2.604965 0.099856 0
M  V30 23 C -3.472589 -2.492718 1.198986 0
M  V30 24 O -1.820622 -3.832415 0.057434 0
M  V30 25 H -0.467070 -5.516301 1.508740 0
M  V30 26 H -0.312441 -5.914283 -0.220921 0
M  V30 27 H 1.130707 -5.244809 0.670738 0
M  V30 28 H 0.094257 -3.395091 -0.647190 0
M  V30 29 H -0.957400 -3.332449 2.200265 0
M  V30 30 H 0.840568 -3.161530 1.833259 0
M  V30 31 H 1.232989 0.483395 -2.179254 0
M  V30 32 H 2.064177 1.462408 -4.276710 0
M  V30 33 H 3.288545 3.578804 -4.174829 0
M  V30 34 H 3.712048 4.753161 -2.045699 0
M  V30 35 H 2.846585 3.718730 0.068190 0
M  V30 36 H 1.897339 2.910480 3.945634 0
M  V30 37 H 1.010229 1.818901 5.964536 0
M  V30 38 H -0.240971 -0.360305 5.775124 0
M  V30 39 H -0.554505 -1.364986 3.548813 0
M  V30 40 H -2.124539 -0.568986 0.614312 0
M  V30 41 H -1.159257 -1.060420 -0.795417 0
M  V30 42 H -2.982788 -2.501945 -0.876518 0
M  V30 43 H -3.044634 -2.150304 2.164216 0
M  V30 44 H -4.238987 -1.714896 0.927810 0
M  V30 45 H -4.003443 -3.454406 1.310424 0
M  V30 END ATOM
M  V30 BEGIN BOND
M  V30 1 1 1 2
M  V30 2 1 2 3
M  V30 3 1 3 4
M  V30 4 1 4 5
M  V30 5 2 5 6
M  V30 6 1 6 7
M  V30 7 1 7 8
M  V30 8 2 8 9
M  V30 9 1 9 10
M  V30 10 2 10 11
M  V30 11 1 11 12
M  V30 12 2 12 13
M  V30 13 2 7 14
M  V30 14 1 14 15
M  V30 15 2 15 16
M  V30 16 1 16 17
M  V30 17 2 17 18
M  V30 18 1 18 19
M  V30 19 2 19 20
M  V30 20 1 4 21
M  V30 21 1 21 22
M  V30 22 1 22 23
M  V30 23 1 22 24
M  V30 24 1 24 2
M  V30 25 1 20 5
M  V30 26 1 13 8
M  V30 27 1 20 15
M  V30 28 1 1 25
M  V30 29 1 1 26
M  V30 30 1 1 27
M  V30 31 1 2 28
M  V30 32 1 3 29
M  V30 33 1 3 30
M  V30 34 1 9 31
M  V30 35 1 10 32
M  V30 36 1 11 33
M  V30 37 1 12 34
M  V30 38 1 13 35
M  V30 39 1 16 36
M  V30 40 1 17 37
M  V30 41 1 18 38
M  V30 42 1 19 39
M  V30 43 1 21 40
M  V30 44 1 21 41
M  V30 45 1 22 42
M  V30 46 1 23 43
M  V30 47 1 23 44
M  V30 48 1 23 45
M  V30 END BOND
M  V30 END CTAB
M  END
>  <Dataset>  (633) 
ChEMBL_Kinases

>  <Ligand_Instance>  (633) 
nan

>  <PDB_ID>  (633) 
nan

>  <Standardized_SMILES>  (633) 
CC1CN(c2nc(-c3ccccc3)nc3ccccc23)CC(C)O1

>  <Name>  (633) 
nan

>  <Pocket>  (633) 
nan

>  <ATP_Site>  (633) 
nan

>  <Peripheral>  (633) 
nan

>  <Num_H_Atoms_ProtBoundConf>  (633) 
nan

>  <Num_Resolved_Atoms>  (633) 
nan

>  <Num_Not_Resolved_Atoms>  (633) 
nan

$$$$
CHEMBL1343493
     RDKit          3D

  0  0  0  0  0  0  0  0  0  0999 V3000
M  V30 BEGIN CTAB
M  V30 COUNTS 46 48 0 0 0
M  V30 BEGIN ATOM
M  V30 1 C 1.294543 -2.385466 -1.763092 0
M  V30 2 C 0.649277 -1.440198 -0.759777 0
M  V30 3 C 1.468694 -1.516312 0.510153 0
M  V30 4 C 2.516843 -0.484792 0.324727 0
M  V30 5 C 3.745358 -0.196140 0.883373 0
M  V30 6 C 4.515386 0.879961 0.478814 0
M  V30 7 C 4.078997 1.728730 -0.521659 0
M  V30 8 C 2.854615 1.454049 -1.089378 0
M  V30 9 C 2.070999 0.369214 -0.686330 0
M  V30 10 N 0.781620 -0.038759 -1.184130 0
M  V30 11 C -0.092698 0.812106 -1.916018 0
M  V30 12 S -0.203932 1.073921 -3.677558 0
M  V30 13 N -0.917418 1.480457 -1.147894 0
M  V30 14 C -0.888454 1.324178 0.267915 0
M  V30 15 C 0.034044 2.003524 1.041559 0
M  V30 16 C 0.015312 1.812665 2.412940 0
M  V30 17 C -0.915272 0.956993 2.967212 0
M  V30 18 C -1.825927 0.291363 2.164395 0
M  V30 19 S -3.012782 -0.797606 2.852293 0
M  V30 20 O -3.305096 -0.266632 4.248487 0
M  V30 21 O -4.323981 -0.719375 2.119024 0
M  V30 22 N -2.514072 -2.374829 2.977601 0
M  V30 23 C -1.416078 -2.701027 3.770696 0
M  V30 24 C -3.092881 -3.374867 2.169130 0
M  V30 25 C -1.830437 0.462478 0.794097 0
M  V30 26 H 1.862076 -3.181598 -1.217319 0
M  V30 27 H 0.555241 -2.845134 -2.450748 0
M  V30 28 H 2.035050 -1.845797 -2.405059 0
M  V30 29 H -0.401606 -1.734084 -0.608398 0
M  V30 30 H 0.794046 -1.148774 1.330218 0
M  V30 31 H 1.867111 -2.520234 0.671553 0
M  V30 32 H 4.074042 -0.877782 1.672605 0
M  V30 33 H 5.484357 1.079735 0.942938 0
M  V30 34 H 4.639680 2.573520 -0.867879 0
M  V30 35 H 2.507156 2.122407 -1.879666 0
M  V30 36 H 0.965515 0.685270 -4.331485 0
M  V30 37 H 0.758111 2.670779 0.598606 0
M  V30 38 H 0.692468 2.297322 3.090344 0
M  V30 39 H -0.979124 0.767216 4.032000 0
M  V30 40 H -1.148765 -1.844402 4.409528 0
M  V30 41 H -0.543110 -3.039953 3.147849 0
M  V30 42 H -1.716874 -3.526977 4.479822 0
M  V30 43 H -3.919404 -2.988056 1.574914 0
M  V30 44 H -2.344585 -3.785402 1.460163 0
M  V30 45 H -3.440493 -4.203017 2.835761 0
M  V30 46 H -2.539253 -0.055147 0.165575 0
M  V30 END ATOM
M  V30 BEGIN BOND
M  V30 1 1 1 2
M  V30 2 1 2 3
M  V30 3 1 3 4
M  V30 4 2 4 5
M  V30 5 1 5 6
M  V30 6 2 6 7
M  V30 7 1 7 8
M  V30 8 2 8 9
M  V30 9 1 9 10
M  V30 10 1 10 11
M  V30 11 1 11 12
M  V30 12 2 11 13 CFG=2
M  V30 13 1 13 14
M  V30 14 2 14 15
M  V30 15 1 15 16
M  V30 16 2 16 17
M  V30 17 1 17 18
M  V30 18 1 18 19
M  V30 19 2 19 20
M  V30 20 2 19 21
M  V30 21 1 19 22
M  V30 22 1 22 23
M  V30 23 1 22 24
M  V30 24 2 18 25
M  V30 25 1 10 2
M  V30 26 1 25 14
M  V30 27 1 9 4
M  V30 28 1 1 26
M  V30 29 1 1 27
M  V30 30 1 1 28
M  V30 31 1 2 29
M  V30 32 1 3 30
M  V30 33 1 3 31
M  V30 34 1 5 32
M  V30 35 1 6 33
M  V30 36 1 7 34
M  V30 37 1 8 35
M  V30 38 1 12 36
M  V30 39 1 15 37
M  V30 40 1 16 38
M  V30 41 1 17 39
M  V30 42 1 23 40
M  V30 43 1 23 41
M  V30 44 1 23 42
M  V30 45 1 24 43
M  V30 46 1 24 44
M  V30 47 1 24 45
M  V30 48 1 25 46
M  V30 END BOND
M  V30 END CTAB
M  END
>  <Dataset>  (634) 
ChEMBL_Kinases

>  <Ligand_Instance>  (634) 
nan

>  <PDB_ID>  (634) 
nan

>  <Standardized_SMILES>  (634) 
CC1Cc2ccccc2N1C(S)=Nc1cccc(S(=O)(=O)N(C)C)c1

>  <Name>  (634) 
nan

>  <Pocket>  (634) 
nan

>  <ATP_Site>  (634) 
nan

>  <Peripheral>  (634) 
nan

>  <Num_H_Atoms_ProtBoundConf>  (634) 
nan

>  <Num_Resolved_Atoms>  (634) 
nan

>  <Num_Not_Resolved_Atoms>  (634) 
nan

$$$$
CHEMBL1343408
     RDKit          3D

  0  0  0  0  0  0  0  0  0  0999 V3000
M  V30 BEGIN CTAB
M  V30 COUNTS 56 56 0 0 0
M  V30 BEGIN ATOM
M  V30 1 O -2.098811 -6.781719 3.707623 0
M  V30 2 C -1.731113 -5.631709 4.013023 0
M  V30 3 O -2.215903 -5.210985 5.256162 0
M  V30 4 C -0.858086 -4.667945 3.237425 0
M  V30 5 C 0.596151 -5.023775 3.444133 0
M  V30 6 C 0.974357 -6.373120 2.972888 0
M  V30 7 C 0.887280 -6.662077 1.518697 0
M  V30 8 C 1.837608 -5.853118 0.666778 0
M  V30 9 N 1.671028 -4.447508 0.676822 0
M  V30 10 C 0.679345 -3.522478 0.286407 0
M  V30 11 O -0.333903 -4.118080 -0.230576 0
M  V30 12 C 0.686228 -2.081071 0.404120 0
M  V30 13 C 1.763202 -1.425893 0.949955 0
M  V30 14 C 1.665693 -0.067047 1.053093 0
M  V30 15 C 0.641079 0.762757 0.690053 0
M  V30 16 C 0.570447 2.184833 0.853151 0
M  V30 17 O 1.472284 2.774190 1.493564 0
M  V30 18 N -0.489721 2.941631 0.310186 0
M  V30 19 C -0.670602 4.389098 0.419713 0
M  V30 20 C -1.923930 4.805247 -0.327024 0
M  V30 21 C -1.838249 4.451230 -1.807553 0
M  V30 22 C -0.678659 5.146380 -2.449789 0
M  V30 23 C -0.548126 4.841285 -3.902851 0
M  V30 24 C -0.356702 3.425279 -4.209759 0
M  V30 25 O -1.467280 2.805218 -4.395566 0
M  V30 26 O -0.277927 2.052886 -4.511841 0
M  V30 27 C -0.398843 -0.005207 0.145965 0
M  V30 28 C -0.448361 -1.379982 -0.024630 0
M  V30 29 H -2.843186 -5.756032 5.817060 0
M  V30 30 H -1.133357 -4.710424 2.190541 0
M  V30 31 H -1.090967 -3.664538 3.613953 0
M  V30 32 H 1.223012 -4.193948 3.067106 0
M  V30 33 H 0.746376 -5.000084 4.564279 0
M  V30 34 H 0.339017 -7.119694 3.517864 0
M  V30 35 H 2.054721 -6.526194 3.296876 0
M  V30 36 H -0.149294 -6.340975 1.195077 0
M  V30 37 H 0.926759 -7.740244 1.274220 0
M  V30 38 H 1.880565 -6.269443 -0.375995 0
M  V30 39 H 2.870598 -6.073375 1.068973 0
M  V30 40 H 2.487634 -3.870094 1.068430 0
M  V30 41 H 2.657574 -1.909210 1.295305 0
M  V30 42 H 2.535309 0.452381 1.487501 0
M  V30 43 H -1.217197 2.453954 -0.212783 0
M  V30 44 H -0.838020 4.674319 1.495802 0
M  V30 45 H 0.194186 4.961975 0.067622 0
M  V30 46 H -2.824093 4.284529 0.078791 0
M  V30 47 H -2.049882 5.880002 -0.231248 0
M  V30 48 H -1.863148 3.373681 -1.992532 0
M  V30 49 H -2.771850 4.880196 -2.250228 0
M  V30 50 H -0.881917 6.244925 -2.373600 0
M  V30 51 H 0.295088 4.982614 -1.940763 0
M  V30 52 H 0.352621 5.402747 -4.265529 0
M  V30 53 H -1.405311 5.279239 -4.480627 0
M  V30 54 H 0.635730 1.572380 -4.429783 0
M  V30 55 H -1.321921 0.479896 -0.208533 0
M  V30 56 H -1.294032 -1.882767 -0.455105 0
M  V30 END ATOM
M  V30 BEGIN BOND
M  V30 1 2 1 2
M  V30 2 1 2 3
M  V30 3 1 2 4
M  V30 4 1 4 5
M  V30 5 1 5 6
M  V30 6 1 6 7
M  V30 7 1 7 8
M  V30 8 1 8 9
M  V30 9 1 9 10
M  V30 10 2 10 11
M  V30 11 1 10 12
M  V30 12 2 12 13
M  V30 13 1 13 14
M  V30 14 2 14 15
M  V30 15 1 15 16
M  V30 16 2 16 17
M  V30 17 1 16 18
M  V30 18 1 18 19
M  V30 19 1 19 20
M  V30 20 1 20 21
M  V30 21 1 21 22
M  V30 22 1 22 23
M  V30 23 1 23 24
M  V30 24 2 24 25
M  V30 25 1 24 26
M  V30 26 1 15 27
M  V30 27 2 27 28
M  V30 28 1 28 12
M  V30 29 1 3 29
M  V30 30 1 4 30
M  V30 31 1 4 31
M  V30 32 1 5 32
M  V30 33 1 5 33
M  V30 34 1 6 34
M  V30 35 1 6 35
M  V30 36 1 7 36
M  V30 37 1 7 37
M  V30 38 1 8 38
M  V30 39 1 8 39
M  V30 40 1 9 40
M  V30 41 1 13 41
M  V30 42 1 14 42
M  V30 43 1 18 43
M  V30 44 1 19 44
M  V30 45 1 19 45
M  V30 46 1 20 46
M  V30 47 1 20 47
M  V30 48 1 21 48
M  V30 49 1 21 49
M  V30 50 1 22 50
M  V30 51 1 22 51
M  V30 52 1 23 52
M  V30 53 1 23 53
M  V30 54 1 26 54
M  V30 55 1 27 55
M  V30 56 1 28 56
M  V30 END BOND
M  V30 END CTAB
M  END
>  <Dataset>  (635) 
ChEMBL_Kinases

>  <Ligand_Instance>  (635) 
nan

>  <PDB_ID>  (635) 
nan

>  <Standardized_SMILES>  (635) 
O=C(O)CCCCCNC(=O)c1ccc(C(=O)NCCCCCC(=O)O)cc1

>  <Name>  (635) 
nan

>  <Pocket>  (635) 
nan

>  <ATP_Site>  (635) 
nan

>  <Peripheral>  (635) 
nan

>  <Num_H_Atoms_ProtBoundConf>  (635) 
nan

>  <Num_Resolved_Atoms>  (635) 
nan

>  <Num_Not_Resolved_Atoms>  (635) 
nan

$$$$
CHEMBL1343338
     RDKit          3D

  0  0  0  0  0  0  0  0  0  0999 V3000
M  V30 BEGIN CTAB
M  V30 COUNTS 48 50 0 0 0
M  V30 BEGIN ATOM
M  V30 1 C 1.021349 -5.486740 1.477131 0
M  V30 2 C -0.380217 -5.290135 1.983550 0
M  V30 3 O -1.111735 -4.317555 1.284007 0
M  V30 4 C -0.653217 -3.014143 1.244715 0
M  V30 5 C 0.514224 -2.672173 1.887644 0
M  V30 6 C 1.381765 -1.620600 1.690754 0
M  V30 7 C 1.087780 -0.487475 0.979399 0
M  V30 8 C -0.101044 0.024350 0.507116 0
M  V30 9 N -0.471047 1.202535 0.255813 0
M  V30 10 C 0.363698 2.349848 0.433516 0
M  V30 11 C 1.383403 2.516728 -0.637923 0
M  V30 12 C 2.501060 3.424463 -0.260252 0
M  V30 13 C 3.120735 3.002856 1.049045 0
M  V30 14 C 2.061007 3.221097 2.099930 0
M  V30 15 C 0.828954 2.428637 1.842732 0
M  V30 16 C -1.193938 -0.789946 0.207346 0
M  V30 17 C -2.334065 -0.455453 -0.507404 0
M  V30 18 C -2.555276 0.909675 -1.086384 0
M  V30 19 N -3.185396 -1.485261 -0.607877 0
M  V30 20 C -2.670077 -2.547438 0.023630 0
M  V30 21 C -3.286411 -3.882874 0.150607 0
M  V30 22 C -1.454475 -2.134196 0.525035 0
M  V30 23 H 1.700481 -5.537707 2.350917 0
M  V30 24 H 1.144299 -6.487770 0.976532 0
M  V30 25 H 1.371259 -4.692313 0.784499 0
M  V30 26 H -0.881085 -6.291023 1.932485 0
M  V30 27 H -0.332412 -4.962918 3.036387 0
M  V30 28 H 0.800738 -3.340614 2.680901 0
M  V30 29 H 2.376190 -1.644430 2.107866 0
M  V30 30 H 1.884865 0.160472 0.714432 0
M  V30 31 H -0.376330 3.230022 0.270016 0
M  V30 32 H 0.867420 3.038806 -1.512153 0
M  V30 33 H 1.773547 1.593862 -1.094794 0
M  V30 34 H 2.076571 4.457399 -0.101560 0
M  V30 35 H 3.239355 3.503002 -1.072094 0
M  V30 36 H 3.984332 3.663679 1.313514 0
M  V30 37 H 3.449299 1.943544 0.961494 0
M  V30 38 H 1.863078 4.313323 2.127517 0
M  V30 39 H 2.480869 2.906811 3.092829 0
M  V30 40 H 0.002723 2.980054 2.412533 0
M  V30 41 H 0.899798 1.476002 2.386364 0
M  V30 42 H -2.725911 1.680535 -0.335923 0
M  V30 43 H -1.713951 1.191931 -1.773181 0
M  V30 44 H -3.450162 0.897891 -1.759446 0
M  V30 45 H -4.097671 -1.489535 -1.087741 0
M  V30 46 H -2.679681 -4.614410 -0.421429 0
M  V30 47 H -3.443259 -4.202238 1.218164 0
M  V30 48 H -4.337414 -3.837788 -0.255534 0
M  V30 END ATOM
M  V30 BEGIN BOND
M  V30 1 1 1 2
M  V30 2 1 2 3
M  V30 3 1 3 4
M  V30 4 2 4 5
M  V30 5 1 5 6
M  V30 6 2 6 7
M  V30 7 1 7 8
M  V30 8 2 8 9 CFG=2
M  V30 9 1 9 10
M  V30 10 1 10 11
M  V30 11 1 11 12
M  V30 12 1 12 13
M  V30 13 1 13 14
M  V30 14 1 14 15
M  V30 15 1 8 16
M  V30 16 2 16 17
M  V30 17 1 17 18
M  V30 18 1 17 19
M  V30 19 1 19 20
M  V30 20 1 20 21
M  V30 21 2 20 22
M  V30 22 1 22 4
M  V30 23 1 15 10
M  V30 24 1 22 16
M  V30 25 1 1 23
M  V30 26 1 1 24
M  V30 27 1 1 25
M  V30 28 1 2 26
M  V30 29 1 2 27
M  V30 30 1 5 28
M  V30 31 1 6 29
M  V30 32 1 7 30
M  V30 33 1 10 31
M  V30 34 1 11 32
M  V30 35 1 11 33
M  V30 36 1 12 34
M  V30 37 1 12 35
M  V30 38 1 13 36
M  V30 39 1 13 37
M  V30 40 1 14 38
M  V30 41 1 14 39
M  V30 42 1 15 40
M  V30 43 1 15 41
M  V30 44 1 18 42
M  V30 45 1 18 43
M  V30 46 1 18 44
M  V30 47 1 19 45
M  V30 48 1 21 46
M  V30 49 1 21 47
M  V30 50 1 21 48
M  V30 END BOND
M  V30 END CTAB
M  END
>  <Dataset>  (636) 
ChEMBL_Kinases

>  <Ligand_Instance>  (636) 
nan

>  <PDB_ID>  (636) 
nan

>  <Standardized_SMILES>  (636) 
CCOc1cccc(=NC2CCCCC2)c2c(C)[nH]c(C)c12

>  <Name>  (636) 
nan

>  <Pocket>  (636) 
nan

>  <ATP_Site>  (636) 
nan

>  <Peripheral>  (636) 
nan

>  <Num_H_Atoms_ProtBoundConf>  (636) 
nan

>  <Num_Resolved_Atoms>  (636) 
nan

>  <Num_Not_Resolved_Atoms>  (636) 
nan

$$$$
CHEMBL1341760
     RDKit          3D

  0  0  0  0  0  0  0  0  0  0999 V3000
M  V30 BEGIN CTAB
M  V30 COUNTS 54 58 0 0 0
M  V30 BEGIN ATOM
M  V30 1 C 5.511790 -2.791144 -0.682958 0
M  V30 2 O 4.426300 -2.189443 -1.362733 0
M  V30 3 C 3.268522 -1.921530 -0.637147 0
M  V30 4 C 3.202034 -2.240685 0.702478 0
M  V30 5 C 2.095674 -2.002840 1.466302 0
M  V30 6 C 0.994457 -1.418550 0.877634 0
M  V30 7 C -0.348097 -1.051183 1.426379 0
M  V30 8 C -0.736150 0.335486 1.184396 0
M  V30 9 C -0.241120 1.518216 1.501417 0
M  V30 10 O 0.858877 1.942609 2.199411 0
M  V30 11 C 2.148283 1.700607 1.802481 0
M  V30 12 C 3.176816 2.254224 2.727916 0
M  V30 13 O 2.872660 1.156888 0.901061 0
M  V30 14 C -1.098097 2.595635 0.961019 0
M  V30 15 C -1.104016 3.985636 0.959528 0
M  V30 16 C -2.060650 4.766638 0.355167 0
M  V30 17 C -3.104155 4.160672 -0.306443 0
M  V30 18 C -3.138707 2.784986 -0.330538 0
M  V30 19 C -2.152547 2.013161 0.292546 0
M  V30 20 C -1.955169 0.554591 0.415332 0
M  V30 21 N -2.757820 -0.339438 -0.055782 0
M  V30 22 C -2.475020 -1.697949 0.169608 0
M  V30 23 C -1.351091 -1.998928 0.882888 0
M  V30 24 C -1.085347 -3.326123 1.122347 0
M  V30 25 O -0.127828 -3.850914 1.745933 0
M  V30 26 N -1.934010 -4.256359 0.648167 0
M  V30 27 C -1.791424 -5.674865 0.816428 0
M  V30 28 C -3.036367 -3.912733 -0.054977 0
M  V30 29 O -3.872135 -4.748736 -0.526832 0
M  V30 30 N -3.325674 -2.623413 -0.306485 0
M  V30 31 C -4.493836 -2.193182 -1.055252 0
M  V30 32 C 1.021486 -1.080103 -0.476384 0
M  V30 33 C 2.167030 -1.333010 -1.241258 0
M  V30 34 H 6.015237 -2.069751 0.015240 0
M  V30 35 H 6.278873 -3.105400 -1.433786 0
M  V30 36 H 5.192682 -3.704216 -0.138226 0
M  V30 37 H 4.027261 -2.700224 1.227316 0
M  V30 38 H 1.914948 -2.196598 2.503484 0
M  V30 39 H -0.348635 -1.225692 2.539853 0
M  V30 40 H 2.735491 2.692063 3.662356 0
M  V30 41 H 3.892218 1.491719 3.098048 0
M  V30 42 H 3.775063 3.030728 2.206619 0
M  V30 43 H -0.312979 4.500047 1.461162 0
M  V30 44 H -1.992821 5.844481 0.399866 0
M  V30 45 H -3.884404 4.719546 -0.799482 0
M  V30 46 H -3.963499 2.321095 -0.853452 0
M  V30 47 H -2.296611 -6.032491 1.738140 0
M  V30 48 H -2.056588 -6.207208 -0.096405 0
M  V30 49 H -0.702362 -5.915534 0.993678 0
M  V30 50 H -5.003264 -3.099100 -1.467100 0
M  V30 51 H -5.249024 -1.677767 -0.439592 0
M  V30 52 H -4.224801 -1.577461 -1.951937 0
M  V30 53 H 0.260210 -0.623325 -1.088021 0
M  V30 54 H 2.279297 -1.106585 -2.290711 0
M  V30 END ATOM
M  V30 BEGIN BOND
M  V30 1 1 1 2
M  V30 2 1 2 3
M  V30 3 2 3 4
M  V30 4 1 4 5
M  V30 5 2 5 6
M  V30 6 1 6 7
M  V30 7 1 7 8
M  V30 8 2 8 9
M  V30 9 1 9 10
M  V30 10 1 10 11
M  V30 11 1 11 12
M  V30 12 2 11 13
M  V30 13 1 9 14
M  V30 14 2 14 15
M  V30 15 1 15 16
M  V30 16 2 16 17
M  V30 17 1 17 18
M  V30 18 2 18 19
M  V30 19 1 19 20
M  V30 20 2 20 21
M  V30 21 1 21 22
M  V30 22 2 22 23
M  V30 23 1 23 24
M  V30 24 2 24 25
M  V30 25 1 24 26
M  V30 26 1 26 27
M  V30 27 1 26 28
M  V30 28 2 28 29
M  V30 29 1 28 30
M  V30 30 1 30 31
M  V30 31 1 6 32
M  V30 32 2 32 33
M  V30 33 1 33 3
M  V30 34 1 23 7
M  V30 35 1 20 8
M  V30 36 1 30 22
M  V30 37 1 19 14
M  V30 38 1 1 34
M  V30 39 1 1 35
M  V30 40 1 1 36
M  V30 41 1 4 37
M  V30 42 1 5 38
M  V30 43 1 7 39
M  V30 44 1 12 40
M  V30 45 1 12 41
M  V30 46 1 12 42
M  V30 47 1 15 43
M  V30 48 1 16 44
M  V30 49 1 17 45
M  V30 50 1 18 46
M  V30 51 1 27 47
M  V30 52 1 27 48
M  V30 53 1 27 49
M  V30 54 1 31 50
M  V30 55 1 31 51
M  V30 56 1 31 52
M  V30 57 1 32 53
M  V30 58 1 33 54
M  V30 END BOND
M  V30 END CTAB
M  END
>  <Dataset>  (637) 
ChEMBL_Kinases

>  <Ligand_Instance>  (637) 
nan

>  <PDB_ID>  (637) 
nan

>  <Standardized_SMILES>  (637) 
COc1ccc(C2C3=C(OC(C)=O)c4ccccc4C3=Nc3c2c(=O)n(C)c(=O)n3C)cc1

>  <Name>  (637) 
nan

>  <Pocket>  (637) 
nan

>  <ATP_Site>  (637) 
nan

>  <Peripheral>  (637) 
nan

>  <Num_H_Atoms_ProtBoundConf>  (637) 
nan

>  <Num_Resolved_Atoms>  (637) 
nan

>  <Num_Not_Resolved_Atoms>  (637) 
nan

$$$$
CHEMBL1341783
     RDKit          3D

  0  0  0  0  0  0  0  0  0  0999 V3000
M  V30 BEGIN CTAB
M  V30 COUNTS 37 39 0 0 0
M  V30 BEGIN ATOM
M  V30 1 C 1.498291 -5.842926 0.442172 0
M  V30 2 C 0.899243 -4.825791 1.361943 0
M  V30 3 O 0.838466 -3.532814 0.759310 0
M  V30 4 C 0.316907 -2.445151 1.441738 0
M  V30 5 O 0.046282 -3.069511 2.491152 0
M  V30 6 C 0.215604 -1.097250 0.909407 0
M  V30 7 C 0.662393 -0.805152 -0.358088 0
M  V30 8 N 0.390731 0.527437 -0.439836 0
M  V30 9 C 0.680853 1.326266 -1.606470 0
M  V30 10 C 0.551462 0.744600 -2.863729 0
M  V30 11 C 0.799957 1.403865 -4.060302 0
M  V30 12 C 1.200760 2.723456 -3.969064 0
M  V30 13 C 1.333873 3.317170 -2.712581 0
M  V30 14 C 1.082208 2.645426 -1.532848 0
M  V30 15 N -0.161636 0.991111 0.661351 0
M  V30 16 C -0.296846 -0.021066 1.565760 0
M  V30 17 C -0.865475 0.117746 2.897498 0
M  V30 18 C -0.374016 1.225426 3.591704 0
M  V30 19 C -0.814189 1.514924 4.882853 0
M  V30 20 N -1.716534 0.732946 5.476673 0
M  V30 21 C -2.198020 -0.342945 4.810204 0
M  V30 22 C -1.792025 -0.662538 3.540600 0
M  V30 23 H 2.603117 -5.753757 0.344693 0
M  V30 24 H 1.089935 -5.646606 -0.581930 0
M  V30 25 H 1.168065 -6.865647 0.688564 0
M  V30 26 H -0.113922 -5.179358 1.650298 0
M  V30 27 H 1.495742 -4.798389 2.306190 0
M  V30 28 H 1.109274 -1.436373 -1.104649 0
M  V30 29 H 0.232919 -0.302620 -2.924067 0
M  V30 30 H 0.674775 0.876761 -4.995546 0
M  V30 31 H 1.408186 3.284790 -4.880797 0
M  V30 32 H 1.653034 4.359676 -2.705241 0
M  V30 33 H 1.187406 3.110692 -0.570946 0
M  V30 34 H 0.352654 1.939112 3.238794 0
M  V30 35 H -0.489247 2.340686 5.481245 0
M  V30 36 H -2.935027 -1.009737 5.253268 0
M  V30 37 H -2.137551 -1.500885 2.953646 0
M  V30 END ATOM
M  V30 BEGIN BOND
M  V30 1 1 1 2
M  V30 2 1 2 3
M  V30 3 1 3 4
M  V30 4 2 4 5
M  V30 5 1 4 6
M  V30 6 2 6 7
M  V30 7 1 7 8
M  V30 8 1 8 9
M  V30 9 2 9 10
M  V30 10 1 10 11
M  V30 11 2 11 12
M  V30 12 1 12 13
M  V30 13 2 13 14
M  V30 14 1 8 15
M  V30 15 2 15 16
M  V30 16 1 16 17
M  V30 17 2 17 18
M  V30 18 1 18 19
M  V30 19 2 19 20
M  V30 20 1 20 21
M  V30 21 2 21 22
M  V30 22 1 16 6
M  V30 23 1 22 17
M  V30 24 1 14 9
M  V30 25 1 1 23
M  V30 26 1 1 24
M  V30 27 1 1 25
M  V30 28 1 2 26
M  V30 29 1 2 27
M  V30 30 1 7 28
M  V30 31 1 10 29
M  V30 32 1 11 30
M  V30 33 1 12 31
M  V30 34 1 13 32
M  V30 35 1 14 33
M  V30 36 1 18 34
M  V30 37 1 19 35
M  V30 38 1 21 36
M  V30 39 1 22 37
M  V30 END BOND
M  V30 END CTAB
M  END
>  <Dataset>  (638) 
ChEMBL_Kinases

>  <Ligand_Instance>  (638) 
nan

>  <PDB_ID>  (638) 
nan

>  <Standardized_SMILES>  (638) 
CCOC(=O)c1cn(-c2ccccc2)nc1-c1ccncc1

>  <Name>  (638) 
nan

>  <Pocket>  (638) 
nan

>  <ATP_Site>  (638) 
nan

>  <Peripheral>  (638) 
nan

>  <Num_H_Atoms_ProtBoundConf>  (638) 
nan

>  <Num_Resolved_Atoms>  (638) 
nan

>  <Num_Not_Resolved_Atoms>  (638) 
nan

$$$$
CHEMBL1341810
     RDKit          3D

  0  0  0  0  0  0  0  0  0  0999 V3000
M  V30 BEGIN CTAB
M  V30 COUNTS 52 55 0 0 0
M  V30 BEGIN ATOM
M  V30 1 O 1.907947 -2.267587 2.929527 0
M  V30 2 C 0.927053 -2.231592 2.141877 0
M  V30 3 C 0.981787 -3.334230 1.171486 0
M  V30 4 C 2.219727 -4.155640 1.451999 0
M  V30 5 C 3.435217 -3.595362 0.746337 0
M  V30 6 C 3.340094 -3.697032 -0.741906 0
M  V30 7 C 1.880370 -3.873421 -1.114918 0
M  V30 8 C 1.091173 -2.892475 -0.270088 0
M  V30 9 N -0.088866 -1.239398 2.206190 0
M  V30 10 C 0.038189 -0.232725 3.242413 0
M  V30 11 C 0.818859 0.940656 2.744157 0
M  V30 12 N 0.224629 1.607273 1.601361 0
M  V30 13 C 1.089255 2.717118 1.216719 0
M  V30 14 C 0.211056 3.894788 0.916104 0
M  V30 15 C -1.169399 3.267132 0.836737 0
M  V30 16 C -1.044580 2.231176 1.956153 0
M  V30 17 C -1.267848 -1.186248 1.269034 0
M  V30 18 N -1.329974 -0.646970 0.286748 0
M  V30 19 C -2.284988 -0.524741 -0.610213 0
M  V30 20 C -2.306863 0.156652 -1.810691 0
M  V30 21 C -3.437859 0.142179 -2.595911 0
M  V30 22 C -4.607185 -0.519381 -2.283450 0
M  V30 23 C -4.581612 -1.199316 -1.082879 0
M  V30 24 C -3.417043 -1.172795 -0.294555 0
M  V30 25 S -3.040910 -1.919814 1.274005 0
M  V30 26 H 0.096152 -3.959840 1.281010 0
M  V30 27 H 2.078161 -5.226091 1.214184 0
M  V30 28 H 2.414643 -4.103836 2.538676 0
M  V30 29 H 4.299942 -4.205367 1.080456 0
M  V30 30 H 3.591319 -2.551409 1.099349 0
M  V30 31 H 3.973013 -4.501208 -1.169259 0
M  V30 32 H 3.655435 -2.721371 -1.209058 0
M  V30 33 H 1.701768 -3.538185 -2.178506 0
M  V30 34 H 1.544977 -4.919889 -1.009748 0
M  V30 35 H 1.668210 -1.948477 -0.275663 0
M  V30 36 H 0.095902 -2.818106 -0.758084 0
M  V30 37 H 0.525043 -0.626945 4.131178 0
M  V30 38 H -0.989763 0.084884 3.584881 0
M  V30 39 H 1.053944 1.683769 3.505253 0
M  V30 40 H 1.805570 0.537660 2.398125 0
M  V30 41 H 1.796443 2.986971 2.039712 0
M  V30 42 H 1.657201 2.462981 0.299617 0
M  V30 43 H 0.193924 4.601457 1.792369 0
M  V30 44 H 0.492330 4.441486 -0.005024 0
M  V30 45 H -1.247215 2.768162 -0.138717 0
M  V30 46 H -1.987468 3.988529 1.018158 0
M  V30 47 H -1.905687 1.569062 1.894543 0
M  V30 48 H -0.913629 2.766341 2.917673 0
M  V30 49 H -1.469054 0.740281 -2.225139 0
M  V30 50 H -3.463069 0.684080 -3.556373 0
M  V30 51 H -5.524577 -0.575478 -2.843261 0
M  V30 52 H -5.367402 -1.784252 -0.628899 0
M  V30 END ATOM
M  V30 BEGIN BOND
M  V30 1 2 1 2
M  V30 2 1 2 3
M  V30 3 1 3 4
M  V30 4 1 4 5
M  V30 5 1 5 6
M  V30 6 1 6 7
M  V30 7 1 7 8
M  V30 8 1 2 9
M  V30 9 1 9 10
M  V30 10 1 10 11
M  V30 11 1 11 12
M  V30 12 1 12 13
M  V30 13 1 13 14
M  V30 14 1 14 15
M  V30 15 1 15 16
M  V30 16 1 9 17
M  V30 17 2 17 18
M  V30 18 1 18 19
M  V30 19 2 19 20
M  V30 20 1 20 21
M  V30 21 2 21 22
M  V30 22 1 22 23
M  V30 23 2 23 24
M  V30 24 1 24 25
M  V30 25 1 8 3
M  V30 26 1 16 12
M  V30 27 1 25 17
M  V30 28 1 24 19
M  V30 29 1 3 26
M  V30 30 1 4 27
M  V30 31 1 4 28
M  V30 32 1 5 29
M  V30 33 1 5 30
M  V30 34 1 6 31
M  V30 35 1 6 32
M  V30 36 1 7 33
M  V30 37 1 7 34
M  V30 38 1 8 35
M  V30 39 1 8 36
M  V30 40 1 10 37
M  V30 41 1 10 38
M  V30 42 1 11 39
M  V30 43 1 11 40
M  V30 44 1 13 41
M  V30 45 1 13 42
M  V30 46 1 14 43
M  V30 47 1 14 44
M  V30 48 1 15 45
M  V30 49 1 15 46
M  V30 50 1 16 47
M  V30 51 1 16 48
M  V30 52 1 20 49
M  V30 53 1 21 50
M  V30 54 1 22 51
M  V30 55 1 23 52
M  V30 END BOND
M  V30 END CTAB
M  END
>  <Dataset>  (639) 
ChEMBL_Kinases

>  <Ligand_Instance>  (639) 
nan

>  <PDB_ID>  (639) 
nan

>  <Standardized_SMILES>  (639) 
O=C(C1CCCCC1)N(CCN1CCCC1)c1nc2ccccc2s1

>  <Name>  (639) 
nan

>  <Pocket>  (639) 
nan

>  <ATP_Site>  (639) 
nan

>  <Peripheral>  (639) 
nan

>  <Num_H_Atoms_ProtBoundConf>  (639) 
nan

>  <Num_Resolved_Atoms>  (639) 
nan

>  <Num_Not_Resolved_Atoms>  (639) 
nan

$$$$
CHEMBL1341979
     RDKit          3D

  0  0  0  0  0  0  0  0  0  0999 V3000
M  V30 BEGIN CTAB
M  V30 COUNTS 46 49 0 0 0
M  V30 BEGIN ATOM
M  V30 1 S 1.494264 -3.905758 -0.463119 0
M  V30 2 C 1.425462 -2.362671 -0.923659 0
M  V30 3 N 0.251389 -2.068858 -1.663300 0
M  V30 4 C -0.832361 -2.926984 -2.036373 0
M  V30 5 C -1.875441 -2.196346 -2.817653 0
M  V30 6 C -1.947751 -2.033054 -4.201756 0
M  V30 7 C -3.072239 -1.289525 -4.526917 0
M  V30 8 C -3.641743 -1.032360 -3.279964 0
M  V30 9 O -2.926579 -1.569609 -2.311664 0
M  V30 10 N 2.469402 -1.459019 -0.585150 0
M  V30 11 C 3.592425 -1.918273 0.172297 0
M  V30 12 C 3.951158 -1.059919 1.350049 0
M  V30 13 N 3.174163 0.136086 1.443400 0
M  V30 14 C 2.397886 0.720282 2.573531 0
M  V30 15 N 1.314686 0.605582 2.865566 0
M  V30 16 C 0.656776 1.143325 3.886425 0
M  V30 17 C -0.761206 0.934174 4.180732 0
M  V30 18 C -1.409881 1.509603 5.251597 0
M  V30 19 C -2.740471 1.341806 5.562067 0
M  V30 20 C -3.507629 0.541654 4.757285 0
M  V30 21 Cl -5.210189 0.246233 5.040748 0
M  V30 22 C -2.929395 -0.071965 3.661757 0
M  V30 23 C -1.589797 0.139679 3.408778 0
M  V30 24 C 1.423799 1.972106 4.717878 0
M  V30 25 S 3.102909 1.881802 3.892711 0
M  V30 26 C 3.274801 0.749283 0.117287 0
M  V30 27 C 2.553570 -0.071882 -0.919427 0
M  V30 28 H 0.209214 -1.050979 -1.966294 0
M  V30 29 H -1.338100 -3.329693 -1.134475 0
M  V30 30 H -0.518207 -3.805879 -2.621374 0
M  V30 31 H -1.226846 -2.431700 -4.914599 0
M  V30 32 H -3.421155 -0.984095 -5.503134 0
M  V30 33 H -4.564264 -0.459846 -3.103795 0
M  V30 34 H 3.413484 -2.956541 0.555074 0
M  V30 35 H 4.453797 -2.034452 -0.536549 0
M  V30 36 H 3.954049 -1.630277 2.321189 0
M  V30 37 H 5.029497 -0.750410 1.224814 0
M  V30 38 H -0.849252 2.153051 5.922194 0
M  V30 39 H -3.184716 1.824871 6.419853 0
M  V30 40 H -3.468007 -0.725294 2.968083 0
M  V30 41 H -1.135084 -0.352548 2.533845 0
M  V30 42 H 1.126600 2.504999 5.581764 0
M  V30 43 H 2.750433 1.745486 0.150074 0
M  V30 44 H 4.327857 0.973417 -0.147411 0
M  V30 45 H 3.161167 0.002599 -1.861006 0
M  V30 46 H 1.529821 0.305431 -1.153479 0
M  V30 END ATOM
M  V30 BEGIN BOND
M  V30 1 2 1 2
M  V30 2 1 2 3
M  V30 3 1 3 4
M  V30 4 1 4 5
M  V30 5 2 5 6
M  V30 6 1 6 7
M  V30 7 2 7 8
M  V30 8 1 8 9
M  V30 9 1 2 10
M  V30 10 1 10 11
M  V30 11 1 11 12
M  V30 12 1 12 13
M  V30 13 1 13 14
M  V30 14 2 14 15
M  V30 15 1 15 16
M  V30 16 1 16 17
M  V30 17 2 17 18
M  V30 18 1 18 19
M  V30 19 2 19 20
M  V30 20 1 20 21
M  V30 21 1 20 22
M  V30 22 2 22 23
M  V30 23 2 16 24
M  V30 24 1 24 25
M  V30 25 1 13 26
M  V30 26 1 26 27
M  V30 27 1 9 5
M  V30 28 1 27 10
M  V30 29 1 25 14
M  V30 30 1 23 17
M  V30 31 1 3 28
M  V30 32 1 4 29
M  V30 33 1 4 30
M  V30 34 1 6 31
M  V30 35 1 7 32
M  V30 36 1 8 33
M  V30 37 1 11 34
M  V30 38 1 11 35
M  V30 39 1 12 36
M  V30 40 1 12 37
M  V30 41 1 18 38
M  V30 42 1 19 39
M  V30 43 1 22 40
M  V30 44 1 23 41
M  V30 45 1 24 42
M  V30 46 1 26 43
M  V30 47 1 26 44
M  V30 48 1 27 45
M  V30 49 1 27 46
M  V30 END BOND
M  V30 END CTAB
M  END
>  <Dataset>  (640) 
ChEMBL_Kinases

>  <Ligand_Instance>  (640) 
nan

>  <PDB_ID>  (640) 
nan

>  <Standardized_SMILES>  (640) 
S=C(NCc1ccco1)N1CCN(c2nc(-c3ccc(Cl)cc3)cs2)CC1

>  <Name>  (640) 
nan

>  <Pocket>  (640) 
nan

>  <ATP_Site>  (640) 
nan

>  <Peripheral>  (640) 
nan

>  <Num_H_Atoms_ProtBoundConf>  (640) 
nan

>  <Num_Resolved_Atoms>  (640) 
nan

>  <Num_Not_Resolved_Atoms>  (640) 
nan

$$$$
CHEMBL1341981
     RDKit          3D

  0  0  0  0  0  0  0  0  0  0999 V3000
M  V30 BEGIN CTAB
M  V30 COUNTS 58 59 0 0 0
M  V30 BEGIN ATOM
M  V30 1 C 2.833082 1.375453 -0.430866 0
M  V30 2 C 3.941974 1.277121 0.522037 0
M  V30 3 C 4.920944 0.342928 0.266718 0
M  V30 4 C 6.002880 0.229115 1.115066 0
M  V30 5 C 6.123951 1.043639 2.227987 0
M  V30 6 C 5.099991 1.961654 2.423214 0
M  V30 7 C 3.981352 2.124347 1.602463 0
M  V30 8 C 2.977605 3.135426 1.988737 0
M  V30 9 S 1.593503 2.477298 2.864534 0
M  V30 10 O 0.698667 3.621055 3.261689 0
M  V30 11 O 2.073695 1.879669 4.178219 0
M  V30 12 C 0.743983 1.282329 1.940783 0
M  V30 13 N 1.012072 -0.028558 2.006964 0
M  V30 14 N 0.179389 -0.652238 1.174573 0
M  V30 15 C -0.617422 0.285662 0.582889 0
M  V30 16 C -1.551467 -0.373419 -0.348516 0 CFG=2
M  V30 17 C -2.604142 0.471404 -0.947276 0
M  V30 18 C -3.603087 1.133760 -0.093682 0
M  V30 19 C -3.131136 2.106436 0.931333 0
M  V30 20 C -4.619695 0.147271 0.492202 0
M  V30 21 N -2.094501 -1.612969 0.212036 0
M  V30 22 C -1.773914 -2.871888 -0.368255 0
M  V30 23 O -1.014064 -2.928855 -1.377328 0
M  V30 24 O -2.188262 -4.128162 0.020824 0
M  V30 25 C -1.772018 -5.292481 -0.673301 0
M  V30 26 C -2.436416 -6.462675 0.055710 0
M  V30 27 C -2.254512 -5.337343 -2.087675 0
M  V30 28 C -0.266397 -5.510880 -0.550803 0
M  V30 29 O -0.227209 1.426646 1.086398 0
M  V30 30 H 2.225937 0.463881 -0.421263 0
M  V30 31 H 3.241129 1.443365 -1.480675 0
M  V30 32 H 2.208522 2.290274 -0.308440 0
M  V30 33 H 4.863859 -0.309597 -0.588424 0
M  V30 34 H 6.804651 -0.498622 0.952014 0
M  V30 35 H 6.940891 1.008283 2.929953 0
M  V30 36 H 5.189941 2.608199 3.300850 0
M  V30 37 H 2.635709 3.694198 1.092082 0
M  V30 38 H 3.485543 3.918564 2.625202 0
M  V30 39 H -0.919877 -0.727293 -1.221835 0
M  V30 40 H -3.172325 -0.184497 -1.666521 0
M  V30 41 H -2.088834 1.216529 -1.608432 0
M  V30 42 H -4.242667 1.754662 -0.803854 0
M  V30 43 H -2.782490 1.661131 1.863000 0
M  V30 44 H -2.435524 2.805630 0.427265 0
M  V30 45 H -4.014980 2.762256 1.192056 0
M  V30 46 H -4.404009 -0.050300 1.560129 0
M  V30 47 H -5.655565 0.549475 0.469159 0
M  V30 48 H -4.656709 -0.801137 -0.082278 0
M  V30 49 H -2.728064 -1.685600 1.038195 0
M  V30 50 H -2.120210 -7.366557 -0.511635 0
M  V30 51 H -3.531160 -6.362576 -0.095336 0
M  V30 52 H -2.147972 -6.477896 1.117465 0
M  V30 53 H -3.162055 -5.962347 -2.217755 0
M  V30 54 H -1.489759 -5.801231 -2.756240 0
M  V30 55 H -2.520689 -4.329457 -2.488664 0
M  V30 56 H 0.316985 -4.839714 -1.179339 0
M  V30 57 H -0.042838 -5.376991 0.532480 0
M  V30 58 H -0.081681 -6.562229 -0.858565 0
M  V30 END ATOM
M  V30 BEGIN BOND
M  V30 1 1 1 2
M  V30 2 2 2 3
M  V30 3 1 3 4
M  V30 4 2 4 5
M  V30 5 1 5 6
M  V30 6 2 6 7
M  V30 7 1 7 8
M  V30 8 1 8 9
M  V30 9 2 9 10
M  V30 10 2 9 11
M  V30 11 1 9 12
M  V30 12 2 12 13
M  V30 13 1 13 14
M  V30 14 2 14 15
M  V30 15 1 15 16
M  V30 16 1 16 17
M  V30 17 1 17 18
M  V30 18 1 18 19
M  V30 19 1 18 20
M  V30 20 1 16 21
M  V30 21 1 21 22
M  V30 22 2 22 23
M  V30 23 1 22 24
M  V30 24 1 24 25
M  V30 25 1 25 26
M  V30 26 1 25 27
M  V30 27 1 25 28
M  V30 28 1 15 29
M  V30 29 1 7 2
M  V30 30 1 29 12
M  V30 31 1 1 30
M  V30 32 1 1 31
M  V30 33 1 1 32
M  V30 34 1 3 33
M  V30 35 1 4 34
M  V30 36 1 5 35
M  V30 37 1 6 36
M  V30 38 1 8 37
M  V30 39 1 8 38
M  V30 40 1 16 39 CFG=3
M  V30 41 1 17 40
M  V30 42 1 17 41
M  V30 43 1 18 42
M  V30 44 1 19 43
M  V30 45 1 19 44
M  V30 46 1 19 45
M  V30 47 1 20 46
M  V30 48 1 20 47
M  V30 49 1 20 48
M  V30 50 1 21 49
M  V30 51 1 26 50
M  V30 52 1 26 51
M  V30 53 1 26 52
M  V30 54 1 27 53
M  V30 55 1 27 54
M  V30 56 1 27 55
M  V30 57 1 28 56
M  V30 58 1 28 57
M  V30 59 1 28 58
M  V30 END BOND
M  V30 END CTAB
M  END
>  <Dataset>  (641) 
ChEMBL_Kinases

>  <Ligand_Instance>  (641) 
nan

>  <PDB_ID>  (641) 
nan

>  <Standardized_SMILES>  (641) 
Cc1ccccc1CS(=O)(=O)c1nnc([C@H](CC(C)C)NC(=O)OC(C)(C)C)o1

>  <Name>  (641) 
nan

>  <Pocket>  (641) 
nan

>  <ATP_Site>  (641) 
nan

>  <Peripheral>  (641) 
nan

>  <Num_H_Atoms_ProtBoundConf>  (641) 
nan

>  <Num_Resolved_Atoms>  (641) 
nan

>  <Num_Not_Resolved_Atoms>  (641) 
nan

$$$$
CHEMBL1342119
     RDKit          3D

  0  0  0  0  0  0  0  0  0  0999 V3000
M  V30 BEGIN CTAB
M  V30 COUNTS 29 31 0 0 0
M  V30 BEGIN ATOM
M  V30 1 C -1.698701 -2.903884 5.690223 0
M  V30 2 O -0.792102 -3.220633 4.661444 0
M  V30 3 C -0.544246 -2.403854 3.578380 0
M  V30 4 C -1.155651 -1.163585 3.360964 0
M  V30 5 C -0.866156 -0.388949 2.255141 0
M  V30 6 C 0.061346 -0.914642 1.381604 0
M  V30 7 C 0.439467 -0.154451 0.160575 0
M  V30 8 N 1.197017 -0.326061 -0.781660 0
M  V30 9 C 1.371743 0.507227 -1.773671 0
M  V30 10 C 2.203469 0.386225 -2.867985 0
M  V30 11 C 2.262508 1.355655 -3.813660 0
M  V30 12 C 1.528881 2.523123 -3.789825 0
M  V30 13 C 0.662539 2.760536 -2.748817 0
M  V30 14 C 0.628893 1.694011 -1.753654 0
M  V30 15 S -0.326828 1.467644 -0.171885 0
M  V30 16 C 0.709913 -2.106605 1.502450 0
M  V30 17 C 0.378453 -2.849930 2.641116 0
M  V30 18 O 1.003987 -4.075132 2.824740 0
M  V30 19 H -2.119118 -3.827352 6.165848 0
M  V30 20 H -1.252605 -2.259995 6.472502 0
M  V30 21 H -2.584766 -2.364164 5.262876 0
M  V30 22 H -1.865879 -0.833577 4.094245 0
M  V30 23 H -1.333303 0.553145 2.093943 0
M  V30 24 H 2.838848 -0.467792 -3.028056 0
M  V30 25 H 2.913508 1.283150 -4.689883 0
M  V30 26 H 1.491537 3.354364 -4.473593 0
M  V30 27 H -0.005937 3.536727 -2.471851 0
M  V30 28 H 1.431447 -2.481057 0.792271 0
M  V30 29 H 1.144631 -4.732541 2.074910 0
M  V30 END ATOM
M  V30 BEGIN BOND
M  V30 1 1 1 2
M  V30 2 1 2 3
M  V30 3 2 3 4
M  V30 4 1 4 5
M  V30 5 2 5 6
M  V30 6 1 6 7
M  V30 7 2 7 8
M  V30 8 1 8 9
M  V30 9 2 9 10
M  V30 10 1 10 11
M  V30 11 2 11 12
M  V30 12 1 12 13
M  V30 13 2 13 14
M  V30 14 1 14 15
M  V30 15 1 6 16
M  V30 16 2 16 17
M  V30 17 1 17 18
M  V30 18 1 17 3
M  V30 19 1 15 7
M  V30 20 1 14 9
M  V30 21 1 1 19
M  V30 22 1 1 20
M  V30 23 1 1 21
M  V30 24 1 4 22
M  V30 25 1 5 23
M  V30 26 1 10 24
M  V30 27 1 11 25
M  V30 28 1 12 26
M  V30 29 1 13 27
M  V30 30 1 16 28
M  V30 31 1 18 29
M  V30 END BOND
M  V30 END CTAB
M  END
>  <Dataset>  (642) 
ChEMBL_Kinases

>  <Ligand_Instance>  (642) 
nan

>  <PDB_ID>  (642) 
nan

>  <Standardized_SMILES>  (642) 
COc1ccc(-c2nc3ccccc3s2)cc1O

>  <Name>  (642) 
nan

>  <Pocket>  (642) 
nan

>  <ATP_Site>  (642) 
nan

>  <Peripheral>  (642) 
nan

>  <Num_H_Atoms_ProtBoundConf>  (642) 
nan

>  <Num_Resolved_Atoms>  (642) 
nan

>  <Num_Not_Resolved_Atoms>  (642) 
nan

$$$$
CHEMBL1342248
     RDKit          3D

  0  0  0  0  0  0  0  0  0  0999 V3000
M  V30 BEGIN CTAB
M  V30 COUNTS 44 47 0 0 0
M  V30 BEGIN ATOM
M  V30 1 O 2.317971 -1.560917 0.965155 0
M  V30 2 C 1.386320 -2.385623 0.858240 0
M  V30 3 N 0.117419 -1.855234 1.099993 0
M  V30 4 C -0.437374 -0.614281 1.442084 0
M  V30 5 C 0.214117 0.507290 1.644515 0
M  V30 6 N 1.575566 0.844005 1.597342 0
M  V30 7 C 1.921553 1.523688 0.367811 0
M  V30 8 C 1.008436 1.793908 -0.616673 0
M  V30 9 C 1.345224 2.447232 -1.796542 0
M  V30 10 C 2.638482 2.846047 -2.003669 0
M  V30 11 F 3.016628 3.486769 -3.138201 0
M  V30 12 C 3.586181 2.600707 -1.053851 0
M  V30 13 C 3.225785 1.951603 0.106230 0
M  V30 14 C -0.502581 1.743996 2.000632 0
M  V30 15 O -0.002835 2.891946 2.223298 0
M  V30 16 C -1.952336 1.768461 2.140627 0
M  V30 17 C -2.702049 2.876659 2.469727 0
M  V30 18 C -4.071344 2.907565 2.603813 0
M  V30 19 C -4.677602 1.691202 2.374978 0
M  V30 20 C -4.001678 0.536633 2.041851 0
M  V30 21 C -2.630573 0.593755 1.928224 0
M  V30 22 C -1.884669 -0.596694 1.580240 0
M  V30 23 O -2.587864 -1.648751 1.398882 0
M  V30 24 C 1.739846 -3.746020 0.506829 0
M  V30 25 C 0.842791 -4.780739 0.347556 0
M  V30 26 C 1.177882 -6.075475 0.013246 0
M  V30 27 C 2.507611 -6.382989 -0.181955 0
M  V30 28 Cl 3.124617 -7.965424 -0.609760 0
M  V30 29 C 3.432357 -5.371145 -0.030605 0
M  V30 30 C 3.055887 -4.089014 0.304587 0
M  V30 31 H -0.504730 -2.666374 0.967580 0
M  V30 32 H 2.379112 0.718623 2.275121 0
M  V30 33 H -0.021651 1.497256 -0.494750 0
M  V30 34 H 0.600167 2.646974 -2.557309 0
M  V30 35 H 4.630281 2.915019 -1.205329 0
M  V30 36 H 4.006370 1.768430 0.849813 0
M  V30 37 H -2.159266 3.818997 2.640231 0
M  V30 38 H -4.602652 3.811855 2.864908 0
M  V30 39 H -5.768511 1.617389 2.458749 0
M  V30 40 H -4.544393 -0.371825 1.879276 0
M  V30 41 H -0.204631 -4.602105 0.486424 0
M  V30 42 H 0.474570 -6.861285 -0.105675 0
M  V30 43 H 4.494730 -5.568233 -0.175180 0
M  V30 44 H 3.834725 -3.334703 0.409125 0
M  V30 END ATOM
M  V30 BEGIN BOND
M  V30 1 2 1 2
M  V30 2 1 2 3
M  V30 3 1 3 4
M  V30 4 2 4 5
M  V30 5 1 5 6
M  V30 6 1 6 7
M  V30 7 2 7 8
M  V30 8 1 8 9
M  V30 9 2 9 10
M  V30 10 1 10 11
M  V30 11 1 10 12
M  V30 12 2 12 13
M  V30 13 1 5 14
M  V30 14 2 14 15
M  V30 15 1 14 16
M  V30 16 2 16 17
M  V30 17 1 17 18
M  V30 18 2 18 19
M  V30 19 1 19 20
M  V30 20 2 20 21
M  V30 21 1 21 22
M  V30 22 2 22 23
M  V30 23 1 2 24
M  V30 24 2 24 25
M  V30 25 1 25 26
M  V30 26 2 26 27
M  V30 27 1 27 28
M  V30 28 1 27 29
M  V30 29 2 29 30
M  V30 30 1 22 4
M  V30 31 1 30 24
M  V30 32 1 13 7
M  V30 33 1 21 16
M  V30 34 1 3 31
M  V30 35 1 6 32
M  V30 36 1 8 33
M  V30 37 1 9 34
M  V30 38 1 12 35
M  V30 39 1 13 36
M  V30 40 1 17 37
M  V30 41 1 18 38
M  V30 42 1 19 39
M  V30 43 1 20 40
M  V30 44 1 25 41
M  V30 45 1 26 42
M  V30 46 1 29 43
M  V30 47 1 30 44
M  V30 END BOND
M  V30 END CTAB
M  END
>  <Dataset>  (643) 
ChEMBL_Kinases

>  <Ligand_Instance>  (643) 
nan

>  <PDB_ID>  (643) 
nan

>  <Standardized_SMILES>  (643) 
O=C(NC1=C(Nc2ccc(F)cc2)C(=O)c2ccccc2C1=O)c1ccc(Cl)cc1

>  <Name>  (643) 
nan

>  <Pocket>  (643) 
nan

>  <ATP_Site>  (643) 
nan

>  <Peripheral>  (643) 
nan

>  <Num_H_Atoms_ProtBoundConf>  (643) 
nan

>  <Num_Resolved_Atoms>  (643) 
nan

>  <Num_Not_Resolved_Atoms>  (643) 
nan

$$$$
CHEMBL1342460
     RDKit          3D

  0  0  0  0  0  0  0  0  0  0999 V3000
M  V30 BEGIN CTAB
M  V30 COUNTS 54 55 0 0 0
M  V30 BEGIN ATOM
M  V30 1 C -1.612805 -3.301532 4.747835 0
M  V30 2 C -0.841225 -4.399832 4.050551 0
M  V30 3 N -0.352182 -3.987502 2.759719 0
M  V30 4 C 0.927893 -3.361835 2.520498 0
M  V30 5 O 1.564480 -3.226928 3.607832 0
M  V30 6 C 1.346521 -2.971082 1.168981 0
M  V30 7 N 2.507512 -2.441106 1.244988 0
M  V30 8 N 3.271271 -1.935893 0.209502 0
M  V30 9 C 3.263424 -0.669976 -0.418147 0
M  V30 10 C 4.100769 -0.296740 -1.441105 0
M  V30 11 C 3.990300 0.968291 -1.969265 0
M  V30 12 C 3.092716 1.919382 -1.553815 0
M  V30 13 C 2.251446 1.525631 -0.516690 0
M  V30 14 S 1.037726 2.653635 0.113100 0
M  V30 15 O 1.595919 4.046649 0.010475 0
M  V30 16 O 0.891703 2.300825 1.580169 0
M  V30 17 N -0.430009 2.509189 -0.688007 0
M  V30 18 C -1.044546 1.264336 -0.582508 0
M  V30 19 C -1.939922 1.062847 0.620848 0
M  V30 20 C -1.218328 3.606422 -0.971597 0
M  V30 21 C -2.215108 4.045817 0.072771 0
M  V30 22 C 2.339250 0.249678 0.039174 0
M  V30 23 C 0.416855 -3.238619 0.064779 0
M  V30 24 O 0.899970 -2.855428 -1.032843 0
M  V30 25 N -0.840809 -3.853405 0.299341 0
M  V30 26 C -1.673844 -4.077030 -0.845106 0
M  V30 27 C -2.606986 -2.924756 -1.163080 0
M  V30 28 C -1.212198 -4.221068 1.642643 0
M  V30 29 S -2.680516 -4.916839 1.757796 0
M  V30 30 H -0.906447 -2.588794 5.261619 0
M  V30 31 H -2.217077 -2.686010 4.076155 0
M  V30 32 H -2.200810 -3.757902 5.571407 0
M  V30 33 H 0.011206 -4.668145 4.702225 0
M  V30 34 H -1.456508 -5.323145 3.958574 0
M  V30 35 H 3.906922 -2.727509 -0.044550 0
M  V30 36 H 4.824485 -1.027283 -1.795240 0
M  V30 37 H 4.655009 1.267614 -2.779894 0
M  V30 38 H 3.038024 2.900015 -1.992649 0
M  V30 39 H -0.271689 0.429996 -0.521653 0
M  V30 40 H -1.678902 0.991553 -1.473861 0
M  V30 41 H -2.102668 -0.044694 0.684633 0
M  V30 42 H -2.926928 1.479083 0.399782 0
M  V30 43 H -1.485986 1.353281 1.576837 0
M  V30 44 H -0.563405 4.524058 -1.137113 0
M  V30 45 H -1.774738 3.503923 -1.939414 0
M  V30 46 H -2.062066 3.604097 1.065290 0
M  V30 47 H -3.223576 3.737623 -0.271701 0
M  V30 48 H -2.218550 5.151729 0.216394 0
M  V30 49 H 1.666936 0.004446 0.834134 0
M  V30 50 H -1.043824 -4.240394 -1.736562 0
M  V30 51 H -2.313254 -4.981648 -0.744869 0
M  V30 52 H -3.441519 -3.328487 -1.777793 0
M  V30 53 H -3.051442 -2.444571 -0.292801 0
M  V30 54 H -2.101512 -2.125422 -1.759089 0
M  V30 END ATOM
M  V30 BEGIN BOND
M  V30 1 1 1 2
M  V30 2 1 2 3
M  V30 3 1 3 4
M  V30 4 2 4 5
M  V30 5 1 4 6
M  V30 6 2 6 7 CFG=2
M  V30 7 1 7 8
M  V30 8 1 8 9
M  V30 9 2 9 10
M  V30 10 1 10 11
M  V30 11 2 11 12
M  V30 12 1 12 13
M  V30 13 1 13 14
M  V30 14 2 14 15
M  V30 15 2 14 16
M  V30 16 1 14 17
M  V30 17 1 17 18
M  V30 18 1 18 19
M  V30 19 1 17 20
M  V30 20 1 20 21
M  V30 21 2 13 22
M  V30 22 1 6 23
M  V30 23 2 23 24
M  V30 24 1 23 25
M  V30 25 1 25 26
M  V30 26 1 26 27
M  V30 27 1 25 28
M  V30 28 2 28 29
M  V30 29 1 28 3
M  V30 30 1 22 9
M  V30 31 1 1 30
M  V30 32 1 1 31
M  V30 33 1 1 32
M  V30 34 1 2 33
M  V30 35 1 2 34
M  V30 36 1 8 35
M  V30 37 1 10 36
M  V30 38 1 11 37
M  V30 39 1 12 38
M  V30 40 1 18 39
M  V30 41 1 18 40
M  V30 42 1 19 41
M  V30 43 1 19 42
M  V30 44 1 19 43
M  V30 45 1 20 44
M  V30 46 1 20 45
M  V30 47 1 21 46
M  V30 48 1 21 47
M  V30 49 1 21 48
M  V30 50 1 22 49
M  V30 51 1 26 50
M  V30 52 1 26 51
M  V30 53 1 27 52
M  V30 54 1 27 53
M  V30 55 1 27 54
M  V30 END BOND
M  V30 END CTAB
M  END
>  <Dataset>  (644) 
ChEMBL_Kinases

>  <Ligand_Instance>  (644) 
nan

>  <PDB_ID>  (644) 
nan

>  <Standardized_SMILES>  (644) 
CCN1C(=O)C(=NNc2cccc(S(=O)(=O)N(CC)CC)c2)C(=O)N(CC)C1=S

>  <Name>  (644) 
nan

>  <Pocket>  (644) 
nan

>  <ATP_Site>  (644) 
nan

>  <Peripheral>  (644) 
nan

>  <Num_H_Atoms_ProtBoundConf>  (644) 
nan

>  <Num_Resolved_Atoms>  (644) 
nan

>  <Num_Not_Resolved_Atoms>  (644) 
nan

$$$$
CHEMBL1343243
     RDKit          3D

  0  0  0  0  0  0  0  0  0  0999 V3000
M  V30 BEGIN CTAB
M  V30 COUNTS 61 63 0 0 0
M  V30 BEGIN ATOM
M  V30 1 C 6.906281 1.787552 4.397577 0
M  V30 2 O 5.609630 2.273687 4.681813 0
M  V30 3 C 4.529349 1.532055 4.232410 0
M  V30 4 C 4.633984 0.333928 3.514610 0
M  V30 5 C 3.476020 -0.300411 3.128778 0
M  V30 6 C 2.189783 0.145232 3.389744 0
M  V30 7 C 1.123141 -0.709547 2.879537 0
M  V30 8 C 0.036109 -0.272986 2.264571 0
M  V30 9 N -0.355563 1.043501 1.960380 0
M  V30 10 C -0.529382 1.583067 0.656020 0
M  V30 11 O -0.322480 0.858773 -0.378643 0
M  V30 12 C -0.940844 2.947980 0.367171 0
M  V30 13 C -1.095040 3.360778 -0.942660 0
M  V30 14 C -1.484179 4.648534 -1.224488 0
M  V30 15 C -1.744927 5.605557 -0.260000 0
M  V30 16 C -1.594544 5.207581 1.072696 0
M  V30 17 C -1.203904 3.911094 1.314143 0
M  V30 18 C -0.881039 -1.352503 1.838227 0
M  V30 19 O -0.641624 -2.590235 2.037817 0
M  V30 20 N -2.119919 -1.190297 1.169599 0
M  V30 21 N -2.601787 -2.518720 0.980801 0
M  V30 22 C -2.198116 -3.171443 -0.259340 0
M  V30 23 O -1.530198 -2.159436 -0.658797 0
M  V30 24 C -2.796469 -4.512199 -0.244344 0
M  V30 25 C -2.518273 -5.378486 -1.424570 0
M  V30 26 N -2.950099 -4.958876 -2.694225 0
M  V30 27 C -2.339681 -3.851167 -3.327786 0
M  V30 28 C -0.819809 -4.032205 -3.430226 0
M  V30 29 O -0.513458 -5.336792 -3.764940 0
M  V30 30 C -1.555167 -5.929616 -4.452108 0
M  V30 31 C -2.804988 -6.101148 -3.609735 0
M  V30 32 C 2.123558 1.325200 4.097444 0
M  V30 33 C 3.252532 1.981099 4.495997 0
M  V30 34 H 7.704310 2.312333 4.960401 0
M  V30 35 H 7.036377 1.876763 3.289690 0
M  V30 36 H 6.952571 0.692571 4.624378 0
M  V30 37 H 5.612603 -0.040675 3.293007 0
M  V30 38 H 3.658011 -1.229332 2.572379 0
M  V30 39 H 1.284294 -1.788933 3.049364 0
M  V30 40 H -0.564369 1.752848 2.678357 0
M  V30 41 H -0.921402 2.705890 -1.779264 0
M  V30 42 H -1.620002 5.017629 -2.250256 0
M  V30 43 H -2.050021 6.616816 -0.440957 0
M  V30 44 H -1.787676 5.922767 1.854014 0
M  V30 45 H -1.104265 3.664053 2.365147 0
M  V30 46 H -2.419717 -0.194161 0.964957 0
M  V30 47 H -3.189130 -2.745511 1.854436 0
M  V30 48 H -2.362415 -5.038394 0.660101 0
M  V30 49 H -3.886772 -4.472784 -0.027000 0
M  V30 50 H -1.419676 -5.620767 -1.500153 0
M  V30 51 H -2.968375 -6.411687 -1.260226 0
M  V30 52 H -2.690435 -3.881982 -4.417799 0
M  V30 53 H -2.629887 -2.855073 -2.996929 0
M  V30 54 H -0.463267 -3.351724 -4.236129 0
M  V30 55 H -0.338041 -3.777612 -2.484751 0
M  V30 56 H -1.761226 -5.399031 -5.406801 0
M  V30 57 H -1.248399 -6.963244 -4.761931 0
M  V30 58 H -2.710010 -7.031894 -3.049676 0
M  V30 59 H -3.682757 -6.176475 -4.284615 0
M  V30 60 H 1.122898 1.670066 4.307466 0
M  V30 61 H 3.080065 2.907376 5.050747 0
M  V30 END ATOM
M  V30 BEGIN BOND
M  V30 1 1 1 2
M  V30 2 1 2 3
M  V30 3 2 3 4
M  V30 4 1 4 5
M  V30 5 2 5 6
M  V30 6 1 6 7
M  V30 7 2 7 8
M  V30 8 1 8 9
M  V30 9 1 9 10
M  V30 10 2 10 11
M  V30 11 1 10 12
M  V30 12 2 12 13
M  V30 13 1 13 14
M  V30 14 2 14 15
M  V30 15 1 15 16
M  V30 16 2 16 17
M  V30 17 1 8 18
M  V30 18 2 18 19
M  V30 19 1 18 20
M  V30 20 1 20 21
M  V30 21 1 21 22
M  V30 22 2 22 23
M  V30 23 1 22 24
M  V30 24 1 24 25
M  V30 25 1 25 26
M  V30 26 1 26 27
M  V30 27 1 27 28
M  V30 28 1 28 29
M  V30 29 1 29 30
M  V30 30 1 30 31
M  V30 31 1 6 32
M  V30 32 2 32 33
M  V30 33 1 33 3
M  V30 34 1 17 12
M  V30 35 1 31 26
M  V30 36 1 1 34
M  V30 37 1 1 35
M  V30 38 1 1 36
M  V30 39 1 4 37
M  V30 40 1 5 38
M  V30 41 1 7 39
M  V30 42 1 9 40
M  V30 43 1 13 41
M  V30 44 1 14 42
M  V30 45 1 15 43
M  V30 46 1 16 44
M  V30 47 1 17 45
M  V30 48 1 20 46
M  V30 49 1 21 47
M  V30 50 1 24 48
M  V30 51 1 24 49
M  V30 52 1 25 50
M  V30 53 1 25 51
M  V30 54 1 27 52
M  V30 55 1 27 53
M  V30 56 1 28 54
M  V30 57 1 28 55
M  V30 58 1 30 56
M  V30 59 1 30 57
M  V30 60 1 31 58
M  V30 61 1 31 59
M  V30 62 1 32 60
M  V30 63 1 33 61
M  V30 END BOND
M  V30 END CTAB
M  END
>  <Dataset>  (645) 
ChEMBL_Kinases

>  <Ligand_Instance>  (645) 
nan

>  <PDB_ID>  (645) 
nan

>  <Standardized_SMILES>  (645) 
COc1ccc(/C=C(\NC(=O)c2ccccc2)C(=O)NNC(=O)CCN2CCOCC2)cc1

>  <Name>  (645) 
nan

>  <Pocket>  (645) 
nan

>  <ATP_Site>  (645) 
nan

>  <Peripheral>  (645) 
nan

>  <Num_H_Atoms_ProtBoundConf>  (645) 
nan

>  <Num_Resolved_Atoms>  (645) 
nan

>  <Num_Not_Resolved_Atoms>  (645) 
nan

$$$$
CHEMBL1342529
     RDKit          3D

  0  0  0  0  0  0  0  0  0  0999 V3000
M  V30 BEGIN CTAB
M  V30 COUNTS 32 33 0 0 0
M  V30 BEGIN ATOM
M  V30 1 O -1.512724 -0.935108 2.557123 0
M  V30 2 C -0.279665 -1.026378 2.317022 0
M  V30 3 C 0.120059 -2.433931 2.080381 0
M  V30 4 S 1.842161 -2.658918 1.663955 0
M  V30 5 C 2.306148 -1.985531 0.071781 0
M  V30 6 C 1.675786 -2.683333 -1.082418 0
M  V30 7 C 0.436089 -2.187283 -1.487806 0
M  V30 8 C -0.285748 -2.709217 -2.539740 0
M  V30 9 C 0.237957 -3.777446 -3.232086 0
M  V30 10 C 1.453621 -4.238517 -2.809044 0
M  V30 11 N 2.181585 -3.737840 -1.774258 0
M  V30 12 N 0.485969 0.190117 2.315370 0
M  V30 13 C -0.217835 1.404144 2.583590 0
M  V30 14 C -0.476557 2.052478 3.779503 0
M  V30 15 C -1.190568 3.230735 3.737530 0
M  V30 16 C -1.653429 3.786867 2.574683 0
M  V30 17 C -1.394142 3.135299 1.367073 0
M  V30 18 C -0.686942 1.964825 1.389185 0
M  V30 19 H -0.158109 -3.040505 2.957799 0
M  V30 20 H -0.550713 -2.807930 1.248952 0
M  V30 21 H 2.056769 -0.929618 0.015581 0
M  V30 22 H 3.411371 -2.057847 -0.040778 0
M  V30 23 H -0.019594 -1.341962 -0.969230 0
M  V30 24 H -1.240088 -2.314183 -2.838112 0
M  V30 25 H -0.260199 -4.262985 -4.084207 0
M  V30 26 H 1.889324 -5.083649 -3.341875 0
M  V30 27 H 1.491256 0.003515 2.113624 0
M  V30 28 H -0.065406 1.521629 4.608592 0
M  V30 29 H -1.343929 3.663980 4.715466 0
M  V30 30 H -2.209917 4.720757 2.631374 0
M  V30 31 H -1.789145 3.630947 0.493108 0
M  V30 32 H -0.555502 1.562588 0.385234 0
M  V30 END ATOM
M  V30 BEGIN BOND
M  V30 1 2 1 2
M  V30 2 1 2 3
M  V30 3 1 3 4
M  V30 4 1 4 5
M  V30 5 1 5 6
M  V30 6 2 6 7
M  V30 7 1 7 8
M  V30 8 2 8 9
M  V30 9 1 9 10
M  V30 10 2 10 11
M  V30 11 1 2 12
M  V30 12 1 12 13
M  V30 13 2 13 14
M  V30 14 1 14 15
M  V30 15 2 15 16
M  V30 16 1 16 17
M  V30 17 2 17 18
M  V30 18 1 11 6
M  V30 19 1 18 13
M  V30 20 1 3 19
M  V30 21 1 3 20
M  V30 22 1 5 21
M  V30 23 1 5 22
M  V30 24 1 7 23
M  V30 25 1 8 24
M  V30 26 1 9 25
M  V30 27 1 10 26
M  V30 28 1 12 27
M  V30 29 1 14 28
M  V30 30 1 15 29
M  V30 31 1 16 30
M  V30 32 1 17 31
M  V30 33 1 18 32
M  V30 END BOND
M  V30 END CTAB
M  END
>  <Dataset>  (646) 
ChEMBL_Kinases

>  <Ligand_Instance>  (646) 
nan

>  <PDB_ID>  (646) 
nan

>  <Standardized_SMILES>  (646) 
O=C(CSCc1ccccn1)Nc1ccccc1

>  <Name>  (646) 
nan

>  <Pocket>  (646) 
nan

>  <ATP_Site>  (646) 
nan

>  <Peripheral>  (646) 
nan

>  <Num_H_Atoms_ProtBoundConf>  (646) 
nan

>  <Num_Resolved_Atoms>  (646) 
nan

>  <Num_Not_Resolved_Atoms>  (646) 
nan

$$$$
CHEMBL1342589
     RDKit          3D

  0  0  0  0  0  0  0  0  0  0999 V3000
M  V30 BEGIN CTAB
M  V30 COUNTS 64 67 0 0 0
M  V30 BEGIN ATOM
M  V30 1 C 3.879382 -0.827037 4.562763 0
M  V30 2 O 4.009207 -1.872066 3.681724 0
M  V30 3 C 2.890794 -2.083579 2.913752 0
M  V30 4 C 2.573049 -0.868157 2.086144 0
M  V30 5 C 1.365699 -1.087411 1.201743 0
M  V30 6 O 0.803886 -2.222476 1.401596 0
M  V30 7 N 1.170479 0.072947 0.348270 0
M  V30 8 C 1.861850 1.329593 0.159389 0
M  V30 9 C 1.389947 2.446686 0.954504 0
M  V30 10 C 0.352083 3.220196 0.434283 0
M  V30 11 C -0.214965 4.327311 1.035966 0
M  V30 12 C 0.265748 4.729825 2.265711 0
M  V30 13 C 1.294764 3.998416 2.826869 0
M  V30 14 C 1.819483 2.906058 2.177742 0
M  V30 15 O 1.627480 4.563679 4.055016 0
M  V30 16 C 0.668687 5.547729 4.396760 0
M  V30 17 O -0.012019 5.736813 3.162675 0
M  V30 18 C -0.036435 -0.309384 -0.378936 0
M  V30 19 C 0.138887 -1.555471 -1.104636 0
M  V30 20 O 1.342640 -1.967069 -1.293508 0
M  V30 21 N -0.748575 -2.456064 -1.671100 0
M  V30 22 C -1.309639 -3.552413 -2.341724 0
M  V30 23 C -2.089577 -3.198500 -3.602723 0
M  V30 24 C -2.252110 -4.438768 -4.396211 0
M  V30 25 C -2.245193 -5.734663 -3.689530 0
M  V30 26 C -2.307032 -5.758864 -2.212886 0
M  V30 27 C -2.249849 -4.419051 -1.541582 0
M  V30 28 C -1.290926 -0.152165 0.382437 0
M  V30 29 C -1.627112 -0.249513 1.715309 0
M  V30 30 C -2.903593 -0.082433 2.192305 0
M  V30 31 N -3.936650 0.193410 1.389044 0
M  V30 32 C -3.722849 0.311713 0.072989 0
M  V30 33 C -2.441270 0.140550 -0.381477 0
M  V30 34 H 3.023294 -0.946385 5.271619 0
M  V30 35 H 4.770897 -0.783432 5.266365 0
M  V30 36 H 3.836557 0.116493 4.030384 0
M  V30 37 H 3.101045 -2.959382 2.253709 0
M  V30 38 H 1.979543 -2.292341 3.548523 0
M  V30 39 H 3.442345 -0.630507 1.466486 0
M  V30 40 H 2.379983 0.014089 2.739644 0
M  V30 41 H 2.959540 1.232256 0.291569 0
M  V30 42 H 1.745981 1.564375 -0.940985 0
M  V30 43 H -0.063948 2.944273 -0.529035 0
M  V30 44 H -1.021420 4.870994 0.553297 0
M  V30 45 H 2.617355 2.366616 2.639800 0
M  V30 46 H 1.143479 6.477086 4.765197 0
M  V30 47 H -0.022243 5.128279 5.183346 0
M  V30 48 H -0.122420 0.555984 -1.143491 0
M  V30 49 H -1.711922 -2.028201 -1.450028 0
M  V30 50 H -0.515298 -4.284406 -2.722012 0
M  V30 51 H -3.109067 -2.853237 -3.268654 0
M  V30 52 H -1.592257 -2.409982 -4.203851 0
M  V30 53 H -3.226570 -4.312242 -4.959868 0
M  V30 54 H -1.502309 -4.399903 -5.239483 0
M  V30 55 H -1.304115 -6.267885 -4.004040 0
M  V30 56 H -3.046575 -6.382639 -4.106138 0
M  V30 57 H -3.221259 -6.269332 -1.850516 0
M  V30 58 H -1.450865 -6.351691 -1.767364 0
M  V30 59 H -1.939328 -4.560412 -0.494045 0
M  V30 60 H -3.265698 -3.966915 -1.583553 0
M  V30 61 H -0.831331 -0.448996 2.384046 0
M  V30 62 H -3.026119 -0.188070 3.264465 0
M  V30 63 H -4.538107 0.531489 -0.592317 0
M  V30 64 H -2.344972 0.258803 -1.472031 0
M  V30 END ATOM
M  V30 BEGIN BOND
M  V30 1 1 1 2
M  V30 2 1 2 3
M  V30 3 1 3 4
M  V30 4 1 4 5
M  V30 5 2 5 6
M  V30 6 1 5 7
M  V30 7 1 7 8
M  V30 8 1 8 9
M  V30 9 2 9 10
M  V30 10 1 10 11
M  V30 11 2 11 12
M  V30 12 1 12 13
M  V30 13 2 13 14
M  V30 14 1 13 15
M  V30 15 1 15 16
M  V30 16 1 16 17
M  V30 17 1 7 18
M  V30 18 1 18 19
M  V30 19 2 19 20
M  V30 20 1 19 21
M  V30 21 1 21 22
M  V30 22 1 22 23
M  V30 23 1 23 24
M  V30 24 1 24 25
M  V30 25 1 25 26
M  V30 26 1 26 27
M  V30 27 1 18 28
M  V30 28 2 28 29
M  V30 29 1 29 30
M  V30 30 2 30 31
M  V30 31 1 31 32
M  V30 32 2 32 33
M  V30 33 1 14 9
M  V30 34 1 27 22
M  V30 35 1 33 28
M  V30 36 1 17 12
M  V30 37 1 1 34
M  V30 38 1 1 35
M  V30 39 1 1 36
M  V30 40 1 3 37
M  V30 41 1 3 38
M  V30 42 1 4 39
M  V30 43 1 4 40
M  V30 44 1 8 41
M  V30 45 1 8 42
M  V30 46 1 10 43
M  V30 47 1 11 44
M  V30 48 1 14 45
M  V30 49 1 16 46
M  V30 50 1 16 47
M  V30 51 1 18 48
M  V30 52 1 21 49
M  V30 53 1 22 50
M  V30 54 1 23 51
M  V30 55 1 23 52
M  V30 56 1 24 53
M  V30 57 1 24 54
M  V30 58 1 25 55
M  V30 59 1 25 56
M  V30 60 1 26 57
M  V30 61 1 26 58
M  V30 62 1 27 59
M  V30 63 1 27 60
M  V30 64 1 29 61
M  V30 65 1 30 62
M  V30 66 1 32 63
M  V30 67 1 33 64
M  V30 END BOND
M  V30 END CTAB
M  END
>  <Dataset>  (647) 
ChEMBL_Kinases

>  <Ligand_Instance>  (647) 
nan

>  <PDB_ID>  (647) 
nan

>  <Standardized_SMILES>  (647) 
COCCC(=O)N(Cc1ccc2c(c1)OCO2)C(C(=O)NC1CCCCC1)c1ccncc1

>  <Name>  (647) 
nan

>  <Pocket>  (647) 
nan

>  <ATP_Site>  (647) 
nan

>  <Peripheral>  (647) 
nan

>  <Num_H_Atoms_ProtBoundConf>  (647) 
nan

>  <Num_Resolved_Atoms>  (647) 
nan

>  <Num_Not_Resolved_Atoms>  (647) 
nan

$$$$
CHEMBL1342633
     RDKit          3D

  0  0  0  0  0  0  0  0  0  0999 V3000
M  V30 BEGIN CTAB
M  V30 COUNTS 45 47 0 0 0
M  V30 BEGIN ATOM
M  V30 1 C -1.110221 -5.471455 -0.259732 0
M  V30 2 O -0.837652 -4.118171 -0.515252 0
M  V30 3 C 0.410169 -3.561051 -0.658719 0
M  V30 4 C 1.599925 -4.281537 -0.567662 0
M  V30 5 C 2.802483 -3.617396 -0.729079 0
M  V30 6 C 2.823610 -2.261306 -0.976635 0
M  V30 7 C 1.661919 -1.557134 -1.065669 0
M  V30 8 N 1.647536 -0.157158 -1.320022 0
M  V30 9 C 1.679411 0.856473 -0.276738 0
M  V30 10 O 1.715450 0.047002 0.687863 0
M  V30 11 C 1.652636 2.164143 -0.938922 0
M  V30 12 C 1.634959 3.344114 -0.027354 0
M  V30 13 C 0.447725 3.538507 0.841929 0
M  V30 14 N 0.090933 2.498206 1.747721 0
M  V30 15 C 0.531321 2.262959 2.979384 0
M  V30 16 O 1.434695 3.069022 3.381137 0
M  V30 17 N 0.092305 1.271177 3.773577 0
M  V30 18 C -0.853027 0.428324 3.352091 0
M  V30 19 C -1.275958 -0.565953 4.181141 0
M  V30 20 C -2.244471 -1.452372 3.787066 0
M  V30 21 C -2.755889 -1.280083 2.523158 0
M  V30 22 C -2.334283 -0.266055 1.658999 0
M  V30 23 C -1.363806 0.602208 2.086786 0
M  V30 24 C -0.875124 1.644847 1.303940 0
M  V30 25 O -1.426085 1.702159 0.154127 0
M  V30 26 C 0.418994 -2.185201 -0.909462 0
M  V30 27 H -0.280497 -5.947247 0.305969 0
M  V30 28 H -1.291799 -5.994845 -1.223542 0
M  V30 29 H -2.003864 -5.551130 0.410247 0
M  V30 30 H 1.548029 -5.347059 -0.371952 0
M  V30 31 H 3.706671 -4.211838 -0.651337 0
M  V30 32 H 3.794280 -1.768911 -1.098975 0
M  V30 33 H 1.610700 -0.198983 -2.393723 0
M  V30 34 H 0.814435 2.199100 -1.676549 0
M  V30 35 H 2.571531 2.255025 -1.581919 0
M  V30 36 H 2.560289 3.334049 0.606337 0
M  V30 37 H 1.748489 4.312948 -0.608267 0
M  V30 38 H -0.456249 3.841058 0.248419 0
M  V30 39 H 0.658578 4.468752 1.453433 0
M  V30 40 H 0.520390 1.195216 4.719027 0
M  V30 41 H -0.851108 -0.675204 5.175260 0
M  V30 42 H -2.633834 -2.259754 4.372259 0
M  V30 43 H -3.524213 -1.932361 2.126578 0
M  V30 44 H -2.739836 -0.143590 0.680089 0
M  V30 45 H -0.490710 -1.602500 -0.984879 0
M  V30 END ATOM
M  V30 BEGIN BOND
M  V30 1 1 1 2
M  V30 2 1 2 3
M  V30 3 2 3 4
M  V30 4 1 4 5
M  V30 5 2 5 6
M  V30 6 1 6 7
M  V30 7 1 7 8
M  V30 8 1 8 9
M  V30 9 2 9 10
M  V30 10 1 9 11
M  V30 11 1 11 12
M  V30 12 1 12 13
M  V30 13 1 13 14
M  V30 14 1 14 15
M  V30 15 2 15 16
M  V30 16 1 15 17
M  V30 17 1 17 18
M  V30 18 2 18 19
M  V30 19 1 19 20
M  V30 20 2 20 21
M  V30 21 1 21 22
M  V30 22 2 22 23
M  V30 23 1 23 24
M  V30 24 2 24 25
M  V30 25 2 7 26
M  V30 26 1 26 3
M  V30 27 1 24 14
M  V30 28 1 23 18
M  V30 29 1 1 27
M  V30 30 1 1 28
M  V30 31 1 1 29
M  V30 32 1 4 30
M  V30 33 1 5 31
M  V30 34 1 6 32
M  V30 35 1 8 33
M  V30 36 1 11 34
M  V30 37 1 11 35
M  V30 38 1 12 36
M  V30 39 1 12 37
M  V30 40 1 13 38
M  V30 41 1 13 39
M  V30 42 1 17 40
M  V30 43 1 19 41
M  V30 44 1 20 42
M  V30 45 1 21 43
M  V30 46 1 22 44
M  V30 47 1 26 45
M  V30 END BOND
M  V30 END CTAB
M  END
>  <Dataset>  (648) 
ChEMBL_Kinases

>  <Ligand_Instance>  (648) 
nan

>  <PDB_ID>  (648) 
nan

>  <Standardized_SMILES>  (648) 
COc1cccc(NC(=O)CCCn2c(=O)[nH]c3ccccc3c2=O)c1

>  <Name>  (648) 
nan

>  <Pocket>  (648) 
nan

>  <ATP_Site>  (648) 
nan

>  <Peripheral>  (648) 
nan

>  <Num_H_Atoms_ProtBoundConf>  (648) 
nan

>  <Num_Resolved_Atoms>  (648) 
nan

>  <Num_Not_Resolved_Atoms>  (648) 
nan

$$$$
CHEMBL1342634
     RDKit          3D

  0  0  0  0  0  0  0  0  0  0999 V3000
M  V30 BEGIN CTAB
M  V30 COUNTS 34 36 0 0 0
M  V30 BEGIN ATOM
M  V30 1 C -0.558212 -0.702856 3.431112 0
M  V30 2 C 0.325982 -1.160871 2.335887 0
M  V30 3 C 0.807951 -2.459906 2.547665 0
M  V30 4 C 1.650577 -3.074950 1.647666 0
M  V30 5 O 2.081420 -4.230837 1.831998 0
M  V30 6 C 1.991578 -2.342324 0.531612 0
M  V30 7 C 2.839475 -2.942495 -0.371742 0
M  V30 8 C 3.223831 -2.256436 -1.503621 0
M  V30 9 C 2.740509 -0.978690 -1.693654 0
M  V30 10 C 1.894259 -0.437848 -0.748624 0
M  V30 11 C 1.473917 -1.071777 0.399844 0
M  V30 12 N 0.649457 -0.434411 1.251374 0
M  V30 13 C 0.128196 0.872295 1.052242 0
M  V30 14 C -1.163895 0.974675 0.378590 0
M  V30 15 C -1.421293 0.976024 -0.973008 0
M  V30 16 C -2.652481 1.083000 -1.579344 0
M  V30 17 C -3.772853 1.203473 -0.785865 0
M  V30 18 C -3.591714 1.209873 0.582727 0
M  V30 19 C -2.323816 1.098265 1.117135 0
M  V30 20 H -0.372677 -1.243266 4.388793 0
M  V30 21 H -1.641856 -0.923540 3.194695 0
M  V30 22 H -0.526266 0.368177 3.642372 0
M  V30 23 H 0.556310 -3.061477 3.418731 0
M  V30 24 H 3.201354 -3.943317 -0.195842 0
M  V30 25 H 3.890185 -2.777058 -2.177001 0
M  V30 26 H 3.067187 -0.477490 -2.593251 0
M  V30 27 H 1.599284 0.563133 -1.011848 0
M  V30 28 H 0.871681 1.524541 0.518962 0
M  V30 29 H 0.014242 1.417977 2.043412 0
M  V30 30 H -0.600541 0.886919 -1.666943 0
M  V30 31 H -2.771876 1.075953 -2.652061 0
M  V30 32 H -4.732226 1.286975 -1.243923 0
M  V30 33 H -4.509086 1.307023 1.144870 0
M  V30 34 H -2.370212 1.127764 2.195285 0
M  V30 END ATOM
M  V30 BEGIN BOND
M  V30 1 1 1 2
M  V30 2 2 2 3
M  V30 3 1 3 4
M  V30 4 2 4 5
M  V30 5 1 4 6
M  V30 6 2 6 7
M  V30 7 1 7 8
M  V30 8 2 8 9
M  V30 9 1 9 10
M  V30 10 2 10 11
M  V30 11 1 11 12
M  V30 12 1 12 13
M  V30 13 1 13 14
M  V30 14 2 14 15
M  V30 15 1 15 16
M  V30 16 2 16 17
M  V30 17 1 17 18
M  V30 18 2 18 19
M  V30 19 1 12 2
M  V30 20 1 19 14
M  V30 21 1 11 6
M  V30 22 1 1 20
M  V30 23 1 1 21
M  V30 24 1 1 22
M  V30 25 1 3 23
M  V30 26 1 7 24
M  V30 27 1 8 25
M  V30 28 1 9 26
M  V30 29 1 10 27
M  V30 30 1 13 28
M  V30 31 1 13 29
M  V30 32 1 15 30
M  V30 33 1 16 31
M  V30 34 1 17 32
M  V30 35 1 18 33
M  V30 36 1 19 34
M  V30 END BOND
M  V30 END CTAB
M  END
>  <Dataset>  (649) 
ChEMBL_Kinases

>  <Ligand_Instance>  (649) 
nan

>  <PDB_ID>  (649) 
nan

>  <Standardized_SMILES>  (649) 
Cc1cc(=O)c2ccccc2n1Cc1ccccc1

>  <Name>  (649) 
nan

>  <Pocket>  (649) 
nan

>  <ATP_Site>  (649) 
nan

>  <Peripheral>  (649) 
nan

>  <Num_H_Atoms_ProtBoundConf>  (649) 
nan

>  <Num_Resolved_Atoms>  (649) 
nan

>  <Num_Not_Resolved_Atoms>  (649) 
nan

$$$$
CHEMBL1342792
     RDKit          3D

  0  0  0  0  0  0  0  0  0  0999 V3000
M  V30 BEGIN CTAB
M  V30 COUNTS 55 58 0 0 0
M  V30 BEGIN ATOM
M  V30 1 C -0.327670 -5.073967 4.706283 0
M  V30 2 C -0.710452 -3.592943 4.761668 0
M  V30 3 N -0.824869 -3.102744 3.397698 0
M  V30 4 C 0.313676 -2.606814 2.870661 0
M  V30 5 C 0.303551 -2.115673 1.573018 0
M  V30 6 C 1.467928 -1.544486 0.869391 0
M  V30 7 O 2.090246 -2.246787 0.011842 0
M  V30 8 N 1.852080 -0.227467 1.176396 0
M  V30 9 C 2.970811 0.443784 0.558084 0
M  V30 10 C 2.747892 0.523312 -0.934572 0
M  V30 11 C 3.847792 1.329159 -1.601676 0
M  V30 12 O 3.813998 2.673074 -1.222665 0
M  V30 13 C 2.626492 3.241775 -0.770147 0
M  V30 14 C 2.724864 4.571501 -0.385533 0
M  V30 15 C 1.568966 5.169438 0.068483 0
M  V30 16 C 0.362212 4.507616 0.148134 0
M  V30 17 C 0.268196 3.176646 -0.237967 0
M  V30 18 C 1.426015 2.566182 -0.696238 0
M  V30 19 O 1.549122 1.253249 -1.127697 0
M  V30 20 C -0.864667 -2.131780 0.819028 0
M  V30 21 C -0.913927 -1.651053 -0.475376 0
M  V30 22 C -2.091407 -1.670138 -1.225541 0
M  V30 23 O -2.135066 -1.185625 -2.525641 0
M  V30 24 C -0.962199 -0.655941 -3.117149 0
M  V30 25 C -3.223200 -2.189470 -0.632492 0
M  V30 26 O -4.371079 -2.202487 -1.378286 0
M  V30 27 C -5.626635 -2.683358 -0.972848 0
M  V30 28 C -3.217470 -2.682595 0.664955 0
M  V30 29 C -2.029228 -2.653908 1.397464 0
M  V30 30 C -1.976303 -3.136181 2.700841 0
M  V30 31 O -3.007620 -3.609876 3.243230 0
M  V30 32 H -1.182956 -5.732642 4.993632 0
M  V30 33 H 0.049338 -5.345714 3.702936 0
M  V30 34 H 0.464333 -5.281894 5.476184 0
M  V30 35 H -0.039945 -3.012336 5.397315 0
M  V30 36 H -1.734987 -3.530394 5.226781 0
M  V30 37 H 1.259797 -2.560174 3.393329 0
M  V30 38 H 1.292065 0.302800 1.900538 0
M  V30 39 H 3.926096 -0.086785 0.793095 0
M  V30 40 H 3.070552 1.468446 0.921157 0
M  V30 41 H 2.661612 -0.467530 -1.389924 0
M  V30 42 H 4.859153 0.905835 -1.367213 0
M  V30 43 H 3.700015 1.263295 -2.699414 0
M  V30 44 H 3.594924 5.201333 -0.395784 0
M  V30 45 H 1.468183 6.202862 0.408347 0
M  V30 46 H -0.570067 4.933443 0.496781 0
M  V30 47 H -0.609923 2.551204 -0.224217 0
M  V30 48 H -0.005391 -1.241657 -0.931105 0
M  V30 49 H -1.196243 -0.264617 -4.124829 0
M  V30 50 H -0.137114 -1.418740 -3.191994 0
M  V30 51 H -0.584023 0.171317 -2.492267 0
M  V30 52 H -5.461962 -3.640295 -0.412633 0
M  V30 53 H -6.125074 -1.943782 -0.305504 0
M  V30 54 H -6.283503 -2.818786 -1.847163 0
M  V30 55 H -4.121845 -3.088568 1.115852 0
M  V30 END ATOM
M  V30 BEGIN BOND
M  V30 1 1 1 2
M  V30 2 1 2 3
M  V30 3 1 3 4
M  V30 4 2 4 5
M  V30 5 1 5 6
M  V30 6 2 6 7
M  V30 7 1 6 8
M  V30 8 1 8 9
M  V30 9 1 9 10
M  V30 10 1 10 11
M  V30 11 1 11 12
M  V30 12 1 12 13
M  V30 13 2 13 14
M  V30 14 1 14 15
M  V30 15 2 15 16
M  V30 16 1 16 17
M  V30 17 2 17 18
M  V30 18 1 18 19
M  V30 19 1 5 20
M  V30 20 2 20 21
M  V30 21 1 21 22
M  V30 22 1 22 23
M  V30 23 1 23 24
M  V30 24 2 22 25
M  V30 25 1 25 26
M  V30 26 1 26 27
M  V30 27 1 25 28
M  V30 28 2 28 29
M  V30 29 1 29 30
M  V30 30 2 30 31
M  V30 31 1 30 3
M  V30 32 1 19 10
M  V30 33 1 29 20
M  V30 34 1 18 13
M  V30 35 1 1 32
M  V30 36 1 1 33
M  V30 37 1 1 34
M  V30 38 1 2 35
M  V30 39 1 2 36
M  V30 40 1 4 37
M  V30 41 1 8 38
M  V30 42 1 9 39
M  V30 43 1 9 40
M  V30 44 1 10 41
M  V30 45 1 11 42
M  V30 46 1 11 43
M  V30 47 1 14 44
M  V30 48 1 15 45
M  V30 49 1 16 46
M  V30 50 1 17 47
M  V30 51 1 21 48
M  V30 52 1 24 49
M  V30 53 1 24 50
M  V30 54 1 24 51
M  V30 55 1 27 52
M  V30 56 1 27 53
M  V30 57 1 27 54
M  V30 58 1 28 55
M  V30 END BOND
M  V30 END CTAB
M  END
>  <Dataset>  (650) 
ChEMBL_Kinases

>  <Ligand_Instance>  (650) 
nan

>  <PDB_ID>  (650) 
nan

>  <Standardized_SMILES>  (650) 
CCn1cc(C(=O)NCC2COc3ccccc3O2)c2cc(OC)c(OC)cc2c1=O

>  <Name>  (650) 
nan

>  <Pocket>  (650) 
nan

>  <ATP_Site>  (650) 
nan

>  <Peripheral>  (650) 
nan

>  <Num_H_Atoms_ProtBoundConf>  (650) 
nan

>  <Num_Resolved_Atoms>  (650) 
nan

>  <Num_Not_Resolved_Atoms>  (650) 
nan

$$$$
CHEMBL1342825
     RDKit          3D

  0  0  0  0  0  0  0  0  0  0999 V3000
M  V30 BEGIN CTAB
M  V30 COUNTS 47 49 0 0 0
M  V30 BEGIN ATOM
M  V30 1 C 0.073995 -3.428166 2.171102 0
M  V30 2 C 0.997292 -3.496022 0.987378 0
M  V30 3 C 1.671287 -4.872331 1.001387 0
M  V30 4 C 0.241173 -3.377791 -0.310093 0
M  V30 5 C 2.098452 -2.434110 1.078217 0
M  V30 6 C 2.967325 -2.557873 -0.115151 0
M  V30 7 C 3.929380 -1.448705 -0.362117 0
M  V30 8 C 3.205018 -0.166579 -0.188160 0
M  V30 9 O 3.470077 0.985283 -0.699649 0
M  V30 10 N 2.609598 1.896933 -0.323792 0
M  V30 11 C 1.698538 1.315139 0.501826 0
M  V30 12 C 0.625684 2.113727 1.064488 0
M  V30 13 O 0.546324 3.327630 0.745044 0
M  V30 14 N -0.380519 1.686191 1.960445 0
M  V30 15 C -1.441939 2.508969 2.504380 0
M  V30 16 C -2.542544 2.749241 1.536570 0
M  V30 17 C -3.534712 1.772330 1.581832 0
M  V30 18 C -4.653593 1.816009 0.758335 0
M  V30 19 C -4.813191 2.860523 -0.151651 0
M  V30 20 F -5.871306 2.977395 -0.988407 0
M  V30 21 C -3.817080 3.827798 -0.186648 0
M  V30 22 C -2.713409 3.772627 0.634895 0
M  V30 23 C 2.086491 0.004595 0.580389 0
M  V30 24 C 1.477864 -1.097097 1.322457 0
M  V30 25 H 0.589063 -3.184721 3.108916 0
M  V30 26 H -0.758349 -2.750035 1.901280 0
M  V30 27 H -0.417686 -4.418864 2.354751 0
M  V30 28 H 2.070908 -5.128102 -0.018626 0
M  V30 29 H 2.474016 -4.934552 1.754625 0
M  V30 30 H 0.947240 -5.680369 1.221270 0
M  V30 31 H -0.841335 -3.613475 -0.127596 0
M  V30 32 H 0.246523 -2.326089 -0.698556 0
M  V30 33 H 0.602181 -4.116965 -1.035632 0
M  V30 34 H 2.694282 -2.700710 1.986185 0
M  V30 35 H 3.589825 -3.487292 0.010097 0
M  V30 36 H 2.407925 -2.734048 -1.066359 0
M  V30 37 H 4.793228 -1.468878 0.357242 0
M  V30 38 H 4.289730 -1.544928 -1.421810 0
M  V30 39 H -0.356714 0.686295 2.258237 0
M  V30 40 H -1.004985 3.512242 2.797444 0
M  V30 41 H -1.820642 2.054657 3.439695 0
M  V30 42 H -3.519281 0.918014 2.245885 0
M  V30 43 H -5.425570 1.053935 0.794755 0
M  V30 44 H -3.852645 4.680429 -0.862318 0
M  V30 45 H -1.917569 4.499258 0.646947 0
M  V30 46 H 0.404203 -1.157906 0.972515 0
M  V30 47 H 1.465530 -0.837876 2.399571 0
M  V30 END ATOM
M  V30 BEGIN BOND
M  V30 1 1 1 2
M  V30 2 1 2 3
M  V30 3 1 2 4
M  V30 4 1 2 5
M  V30 5 1 5 6
M  V30 6 1 6 7
M  V30 7 1 7 8
M  V30 8 1 8 9
M  V30 9 1 9 10
M  V30 10 2 10 11
M  V30 11 1 11 12
M  V30 12 2 12 13
M  V30 13 1 12 14
M  V30 14 1 14 15
M  V30 15 1 15 16
M  V30 16 2 16 17
M  V30 17 1 17 18
M  V30 18 2 18 19
M  V30 19 1 19 20
M  V30 20 1 19 21
M  V30 21 2 21 22
M  V30 22 1 11 23
M  V30 23 1 23 24
M  V30 24 1 24 5
M  V30 25 2 23 8
M  V30 26 1 22 16
M  V30 27 1 1 25
M  V30 28 1 1 26
M  V30 29 1 1 27
M  V30 30 1 3 28
M  V30 31 1 3 29
M  V30 32 1 3 30
M  V30 33 1 4 31
M  V30 34 1 4 32
M  V30 35 1 4 33
M  V30 36 1 5 34
M  V30 37 1 6 35
M  V30 38 1 6 36
M  V30 39 1 7 37
M  V30 40 1 7 38
M  V30 41 1 14 39
M  V30 42 1 15 40
M  V30 43 1 15 41
M  V30 44 1 17 42
M  V30 45 1 18 43
M  V30 46 1 21 44
M  V30 47 1 22 45
M  V30 48 1 24 46
M  V30 49 1 24 47
M  V30 END BOND
M  V30 END CTAB
M  END
>  <Dataset>  (651) 
ChEMBL_Kinases

>  <Ligand_Instance>  (651) 
nan

>  <PDB_ID>  (651) 
nan

>  <Standardized_SMILES>  (651) 
CC(C)(C)C1CCc2onc(C(=O)NCc3ccc(F)cc3)c2C1

>  <Name>  (651) 
nan

>  <Pocket>  (651) 
nan

>  <ATP_Site>  (651) 
nan

>  <Peripheral>  (651) 
nan

>  <Num_H_Atoms_ProtBoundConf>  (651) 
nan

>  <Num_Resolved_Atoms>  (651) 
nan

>  <Num_Not_Resolved_Atoms>  (651) 
nan

$$$$
CHEMBL1342894
     RDKit          3D

  0  0  0  0  0  0  0  0  0  0999 V3000
M  V30 BEGIN CTAB
M  V30 COUNTS 42 45 0 0 0
M  V30 BEGIN ATOM
M  V30 1 C -0.656218 -5.671012 2.444372 0
M  V30 2 N 0.084965 -4.496861 1.991062 0
M  V30 3 C 1.494149 -4.449981 2.129122 0
M  V30 4 C 2.111312 -3.378816 1.708158 0
M  V30 5 C 1.406381 -2.276558 1.122799 0
M  V30 6 C 2.014441 -1.231974 0.703299 0
M  V30 7 C 1.716573 0.024758 0.097327 0
M  V30 8 C 1.947168 0.220503 -1.283236 0
M  V30 9 C 1.761458 1.463928 -1.897711 0
M  V30 10 C 1.342908 2.514013 -1.113739 0
M  V30 11 C 1.153647 3.751385 -1.695754 0
M  V30 12 C 0.731354 4.801459 -0.898658 0
M  V30 13 C 0.490963 4.654407 0.473622 0
M  V30 14 C 0.688577 3.406596 1.032179 0
M  V30 15 C 1.106707 2.359834 0.248718 0
M  V30 16 N 1.296470 1.144760 0.798694 0 CHG=1 VAL=4
M  V30 17 C 1.048681 0.984721 2.231742 0
M  V30 18 C -0.002716 -2.302433 0.972370 0
M  V30 19 C -0.680033 -1.282873 0.399019 0
M  V30 20 C -2.042345 -1.278170 0.217544 0
M  V30 21 C -2.678586 -2.432185 0.679102 0
M  V30 22 C -2.043278 -3.505051 1.269014 0
M  V30 23 C -0.671019 -3.417263 1.408595 0
M  V30 24 H -1.289545 -5.414037 3.318182 0
M  V30 25 H 0.072499 -6.443489 2.774661 0
M  V30 26 H -1.233426 -6.133312 1.616356 0
M  V30 27 H 2.065591 -5.266831 2.570065 0
M  V30 28 H 3.179792 -3.314800 1.798138 0
M  V30 29 H 3.099780 -1.144048 0.773355 0
M  V30 30 H 2.271477 -0.617063 -1.860101 0
M  V30 31 H 1.960245 1.518627 -2.939611 0
M  V30 32 H 1.334281 3.896801 -2.763647 0
M  V30 33 H 0.570931 5.789643 -1.324705 0
M  V30 34 H 0.164309 5.519586 1.033944 0
M  V30 35 H 0.501155 3.297055 2.097134 0
M  V30 36 H -0.003571 1.122700 2.511403 0
M  V30 37 H 1.379467 -0.017211 2.567460 0
M  V30 38 H 1.617181 1.757362 2.812572 0
M  V30 39 H -0.420496 -0.363419 -0.030648 0
M  V30 40 H -2.766108 -0.597501 -0.198588 0
M  V30 41 H -3.744035 -2.600665 0.616326 0
M  V30 42 H -2.516196 -4.385127 1.621778 0
M  V30 END ATOM
M  V30 BEGIN BOND
M  V30 1 1 1 2
M  V30 2 1 2 3
M  V30 3 2 3 4
M  V30 4 1 4 5
M  V30 5 2 5 6
M  V30 6 1 6 7
M  V30 7 2 7 8
M  V30 8 1 8 9
M  V30 9 2 9 10
M  V30 10 1 10 11
M  V30 11 2 11 12
M  V30 12 1 12 13
M  V30 13 2 13 14
M  V30 14 1 14 15
M  V30 15 2 15 16
M  V30 16 1 16 17
M  V30 17 1 5 18
M  V30 18 2 18 19
M  V30 19 1 19 20
M  V30 20 2 20 21
M  V30 21 1 21 22
M  V30 22 2 22 23
M  V30 23 1 23 2
M  V30 24 1 16 7
M  V30 25 1 23 18
M  V30 26 1 15 10
M  V30 27 1 1 24
M  V30 28 1 1 25
M  V30 29 1 1 26
M  V30 30 1 3 27
M  V30 31 1 4 28
M  V30 32 1 6 29
M  V30 33 1 8 30
M  V30 34 1 9 31
M  V30 35 1 11 32
M  V30 36 1 12 33
M  V30 37 1 13 34
M  V30 38 1 14 35
M  V30 39 1 17 36
M  V30 40 1 17 37
M  V30 41 1 17 38
M  V30 42 1 19 39
M  V30 43 1 20 40
M  V30 44 1 21 41
M  V30 45 1 22 42
M  V30 END BOND
M  V30 END CTAB
M  END
>  <Dataset>  (652) 
ChEMBL_Kinases

>  <Ligand_Instance>  (652) 
nan

>  <PDB_ID>  (652) 
nan

>  <Standardized_SMILES>  (652) 
CN1C=C/C(=C/c2ccc3ccccc3[n+]2C)c2ccccc21

>  <Name>  (652) 
nan

>  <Pocket>  (652) 
nan

>  <ATP_Site>  (652) 
nan

>  <Peripheral>  (652) 
nan

>  <Num_H_Atoms_ProtBoundConf>  (652) 
nan

>  <Num_Resolved_Atoms>  (652) 
nan

>  <Num_Not_Resolved_Atoms>  (652) 
nan

$$$$
CHEMBL1343114
     RDKit          3D

  0  0  0  0  0  0  0  0  0  0999 V3000
M  V30 BEGIN CTAB
M  V30 COUNTS 32 34 0 0 0
M  V30 BEGIN ATOM
M  V30 1 Cl -3.740219 -5.374957 4.045795 0
M  V30 2 C -2.440249 -4.506673 3.264284 0
M  V30 3 C -1.746380 -3.464487 3.892904 0
M  V30 4 N -0.750042 -2.772737 3.343122 0
M  V30 5 C -0.311941 -3.020312 2.105325 0
M  V30 6 N 0.635951 -2.551355 1.244149 0
M  V30 7 C 0.561244 -3.269498 0.084034 0
M  V30 8 S 1.733793 -2.803051 -1.182231 0
M  V30 9 C 1.022398 -1.493887 -2.254334 0
M  V30 10 C 0.871846 -0.302113 -1.385640 0
M  V30 11 C 1.401657 0.883779 -1.497560 0
M  V30 12 C 1.194455 2.004886 -0.586644 0
M  V30 13 C 1.833949 3.209180 -0.842783 0
M  V30 14 C 1.629256 4.259890 0.027570 0
M  V30 15 C 0.810697 4.181292 1.158006 0
M  V30 16 C 0.188479 2.950132 1.373846 0
M  V30 17 C 0.382983 1.881104 0.508459 0
M  V30 18 N -0.418076 -4.198523 0.172333 0
M  V30 19 C -1.003260 -4.100441 1.402697 0
M  V30 20 C -2.036957 -4.817847 1.974208 0
M  V30 21 H -2.048131 -3.200043 4.914735 0
M  V30 22 H -0.272465 -2.003374 3.869660 0
M  V30 23 H 0.061471 -1.819139 -2.697515 0
M  V30 24 H 1.744389 -1.368419 -3.072367 0
M  V30 25 H 0.214332 -0.502750 -0.551989 0
M  V30 26 H 2.048010 0.993714 -2.365195 0
M  V30 27 H 2.494270 3.379174 -1.695117 0
M  V30 28 H 2.092438 5.238732 -0.097838 0
M  V30 29 H 0.650385 4.995235 1.833194 0
M  V30 30 H -0.449927 2.864650 2.242513 0
M  V30 31 H -0.138317 0.993302 0.768531 0
M  V30 32 H -2.518153 -5.609758 1.411218 0
M  V30 END ATOM
M  V30 BEGIN BOND
M  V30 1 1 1 2
M  V30 2 2 2 3
M  V30 3 1 3 4
M  V30 4 1 4 5
M  V30 5 2 5 6
M  V30 6 1 6 7
M  V30 7 1 7 8
M  V30 8 1 8 9
M  V30 9 1 9 10
M  V30 10 2 10 11
M  V30 11 1 11 12
M  V30 12 2 12 13
M  V30 13 1 13 14
M  V30 14 2 14 15
M  V30 15 1 15 16
M  V30 16 2 16 17
M  V30 17 2 7 18
M  V30 18 1 18 19
M  V30 19 2 19 20
M  V30 20 1 20 2
M  V30 21 1 19 5
M  V30 22 1 17 12
M  V30 23 1 3 21
M  V30 24 1 4 22
M  V30 25 1 9 23
M  V30 26 1 9 24
M  V30 27 1 10 25
M  V30 28 1 11 26
M  V30 29 1 13 27
M  V30 30 1 14 28
M  V30 31 1 15 29
M  V30 32 1 16 30
M  V30 33 1 17 31
M  V30 34 1 20 32
M  V30 END BOND
M  V30 END CTAB
M  END
>  <Dataset>  (653) 
ChEMBL_Kinases

>  <Ligand_Instance>  (653) 
nan

>  <PDB_ID>  (653) 
nan

>  <Standardized_SMILES>  (653) 
Clc1c[nH]c2nc(SC/C=C/c3ccccc3)nc-2c1

>  <Name>  (653) 
nan

>  <Pocket>  (653) 
nan

>  <ATP_Site>  (653) 
nan

>  <Peripheral>  (653) 
nan

>  <Num_H_Atoms_ProtBoundConf>  (653) 
nan

>  <Num_Resolved_Atoms>  (653) 
nan

>  <Num_Not_Resolved_Atoms>  (653) 
nan

$$$$
CHEMBL1342499
     RDKit          3D

  0  0  0  0  0  0  0  0  0  0999 V3000
M  V30 BEGIN CTAB
M  V30 COUNTS 73 76 0 0 0
M  V30 BEGIN ATOM
M  V30 1 C 3.748597 -2.822534 3.188032 0
M  V30 2 C 4.385195 -2.360858 1.920319 0
M  V30 3 C 5.068233 -3.542659 1.268843 0
M  V30 4 C 5.469326 -1.364140 2.295977 0
M  V30 5 C 3.444385 -1.687129 0.953093 0 CFG=2
M  V30 6 C 2.843076 -0.499865 1.573376 0
M  V30 7 C 1.608097 -0.032663 1.609632 0
M  V30 8 C 1.262381 1.186303 2.303416 0
M  V30 9 O 2.175432 1.818035 2.889075 0
M  V30 10 N -0.068420 1.665849 2.329166 0
M  V30 11 C -0.344860 2.892834 3.039371 0
M  V30 12 C -1.442063 3.693736 2.377590 0
M  V30 13 N -2.640604 2.966237 2.179455 0
M  V30 14 C -3.535334 3.497363 1.211411 0
M  V30 15 C -3.017797 3.613927 -0.153437 0
M  V30 16 C -2.366456 4.750140 -0.644879 0
M  V30 17 C -1.899186 4.790248 -1.955925 0
M  V30 18 C -2.080229 3.686202 -2.794071 0
M  V30 19 C -2.722377 2.558978 -2.318103 0
M  V30 20 C -3.188781 2.523876 -1.003673 0
M  V30 21 C -2.511033 1.537559 2.199000 0
M  V30 22 C -1.180635 1.025350 1.700467 0
M  V30 23 O 0.750704 -0.863179 0.908689 0
M  V30 24 C 1.218762 -1.777828 -0.069310 0 CFG=2
M  V30 25 O 0.224583 -2.686359 -0.427856 0
M  V30 26 C -0.096276 -2.638729 -1.781739 0
M  V30 27 C -1.160184 -3.630141 -2.099719 0
M  V30 28 C -2.487112 -3.242737 -1.999475 0
M  V30 29 C -3.497714 -4.150041 -2.293629 0
M  V30 30 C -3.227707 -5.457843 -2.692590 0
M  V30 31 C -4.379374 -6.358247 -2.985805 0
M  V30 32 O -4.678174 -6.192034 -4.341551 0
M  V30 33 C -1.906225 -5.815802 -2.783821 0
M  V30 34 C -0.883081 -4.923219 -2.493985 0
M  V30 35 C 2.389285 -2.580439 0.417831 0
M  V30 36 H 2.735949 -3.203944 3.063548 0
M  V30 37 H 4.410718 -3.605510 3.658870 0
M  V30 38 H 3.704209 -2.024440 3.986705 0
M  V30 39 H 5.724568 -3.196119 0.464291 0
M  V30 40 H 5.728608 -3.979641 2.065884 0
M  V30 41 H 4.375215 -4.335564 0.984136 0
M  V30 42 H 5.181531 -0.702680 3.138535 0
M  V30 43 H 5.763599 -0.708294 1.452666 0
M  V30 44 H 6.399185 -1.878871 2.617815 0
M  V30 45 H 4.092875 -1.354128 0.092835 0
M  V30 46 H 3.615317 0.086634 2.100978 0
M  V30 47 H 0.562374 3.502871 3.165921 0
M  V30 48 H -0.727682 2.687070 4.081618 0
M  V30 49 H -1.036482 3.985918 1.366599 0
M  V30 50 H -1.628263 4.636451 2.919492 0
M  V30 51 H -4.470109 2.904260 1.205169 0
M  V30 52 H -3.797840 4.542823 1.550006 0
M  V30 53 H -2.233612 5.602765 0.020745 0
M  V30 54 H -1.385355 5.679083 -2.353539 0
M  V30 55 H -1.710893 3.730522 -3.814525 0
M  V30 56 H -2.851727 1.712599 -2.987789 0
M  V30 57 H -3.674476 1.606008 -0.725802 0
M  V30 58 H -3.326309 1.112839 1.605138 0
M  V30 59 H -2.611506 1.212669 3.256948 0
M  V30 60 H -1.186795 1.134521 0.597158 0
M  V30 61 H -1.216168 -0.088515 1.894490 0
M  V30 62 H 1.513449 -1.233957 -0.987551 0
M  V30 63 H 0.790371 -2.909471 -2.427910 0
M  V30 64 H -0.423236 -1.626035 -2.094311 0
M  V30 65 H -2.690463 -2.230493 -1.691142 0
M  V30 66 H -4.493187 -3.776000 -2.192360 0
M  V30 67 H -4.071310 -7.401800 -2.762994 0
M  V30 68 H -5.268125 -6.090294 -2.398748 0
M  V30 69 H -5.132336 -5.299822 -4.413234 0
M  V30 70 H -1.680391 -6.836033 -3.094764 0
M  V30 71 H 0.152508 -5.201400 -2.564669 0
M  V30 72 H 2.094635 -3.372519 1.142733 0
M  V30 73 H 2.737457 -3.167317 -0.484991 0
M  V30 END ATOM
M  V30 BEGIN BOND
M  V30 1 1 1 2
M  V30 2 1 2 3
M  V30 3 1 2 4
M  V30 4 1 2 5
M  V30 5 1 5 6
M  V30 6 2 6 7
M  V30 7 1 7 8
M  V30 8 2 8 9
M  V30 9 1 8 10
M  V30 10 1 10 11
M  V30 11 1 11 12
M  V30 12 1 12 13
M  V30 13 1 13 14
M  V30 14 1 14 15
M  V30 15 2 15 16
M  V30 16 1 16 17
M  V30 17 2 17 18
M  V30 18 1 18 19
M  V30 19 2 19 20
M  V30 20 1 13 21
M  V30 21 1 21 22
M  V30 22 1 7 23
M  V30 23 1 23 24
M  V30 24 1 24 25
M  V30 25 1 25 26
M  V30 26 1 26 27
M  V30 27 2 27 28
M  V30 28 1 28 29
M  V30 29 2 29 30
M  V30 30 1 30 31
M  V30 31 1 31 32
M  V30 32 1 30 33
M  V30 33 2 33 34
M  V30 34 1 24 35
M  V30 35 1 35 5
M  V30 36 1 22 10
M  V30 37 1 34 27
M  V30 38 1 20 15
M  V30 39 1 1 36
M  V30 40 1 1 37
M  V30 41 1 1 38
M  V30 42 1 3 39
M  V30 43 1 3 40
M  V30 44 1 3 41
M  V30 45 1 4 42
M  V30 46 1 4 43
M  V30 47 1 4 44
M  V30 48 1 5 45 CFG=3
M  V30 49 1 6 46
M  V30 50 1 11 47
M  V30 51 1 11 48
M  V30 52 1 12 49
M  V30 53 1 12 50
M  V30 54 1 14 51
M  V30 55 1 14 52
M  V30 56 1 16 53
M  V30 57 1 17 54
M  V30 58 1 18 55
M  V30 59 1 19 56
M  V30 60 1 20 57
M  V30 61 1 21 58
M  V30 62 1 21 59
M  V30 63 1 22 60
M  V30 64 1 22 61
M  V30 65 1 24 62 CFG=3
M  V30 66 1 26 63
M  V30 67 1 26 64
M  V30 68 1 28 65
M  V30 69 1 29 66
M  V30 70 1 31 67
M  V30 71 1 31 68
M  V30 72 1 32 69
M  V30 73 1 33 70
M  V30 74 1 34 71
M  V30 75 1 35 72
M  V30 76 1 35 73
M  V30 END BOND
M  V30 END CTAB
M  END
>  <Dataset>  (654) 
ChEMBL_Kinases

>  <Ligand_Instance>  (654) 
nan

>  <PDB_ID>  (654) 
nan

>  <Standardized_SMILES>  (654) 
CC(C)(C)[C@@H]1C=C(C(=O)N2CCN(Cc3ccccc3)CC2)O[C@H](OCc2ccc(CO)cc2)C1

>  <Name>  (654) 
nan

>  <Pocket>  (654) 
nan

>  <ATP_Site>  (654) 
nan

>  <Peripheral>  (654) 
nan

>  <Num_H_Atoms_ProtBoundConf>  (654) 
nan

>  <Num_Resolved_Atoms>  (654) 
nan

>  <Num_Not_Resolved_Atoms>  (654) 
nan

$$$$
CHEMBL140550
     RDKit          3D

  0  0  0  0  0  0  0  0  0  0999 V3000
M  V30 BEGIN CTAB
M  V30 COUNTS 77 78 0 0 0
M  V30 BEGIN ATOM
M  V30 1 C 5.760683 1.650171 5.168734 0
M  V30 2 C 5.275169 0.316932 5.677493 0
M  V30 3 C 5.731707 -0.818990 4.782362 0
M  V30 4 C 5.197095 -0.640377 3.365097 0
M  V30 5 C 3.705442 -0.612772 3.331826 0
M  V30 6 C 3.153579 -0.432830 1.916949 0
M  V30 7 C 3.591143 -1.553726 1.020097 0
M  V30 8 C 3.095293 -1.355371 -0.367674 0
M  V30 9 C 1.652177 -1.278427 -0.480547 0
M  V30 10 C 0.718955 -0.433496 -0.961558 0
M  V30 11 C 1.217919 0.782404 -1.558298 0
M  V30 12 C 0.682084 2.059523 -1.055291 0
M  V30 13 C 0.704757 2.410697 0.353131 0
M  V30 14 C -0.050834 1.716060 1.395339 0
M  V30 15 C -1.535434 1.735935 1.425103 0
M  V30 16 C -2.289638 1.083393 0.303427 0
M  V30 17 C -3.794260 1.210072 0.531266 0
M  V30 18 C -4.667313 0.641955 -0.440723 0
M  V30 19 C -4.717348 -0.029662 -1.555018 0
M  V30 20 C -3.500717 -0.495850 -2.282792 0
M  V30 21 C -3.908677 -1.534617 -3.121555 0 CFG=2
M  V30 22 C -4.168071 -2.892821 -3.151702 0
M  V30 23 C -3.945529 -3.964799 -2.365458 0
M  V30 24 C -4.193776 -5.440414 -2.335394 0
M  V30 25 C -3.016069 -5.955485 -1.537876 0
M  V30 26 O -2.552747 -4.886571 -0.732937 0
M  V30 27 C -3.229732 -3.709579 -1.093827 0
M  V30 28 O -3.221254 -2.635434 -0.442403 0
M  V30 29 C -3.071824 -1.342859 -4.430441 0
M  V30 30 O -3.698928 -1.979410 -5.470623 0
M  V30 31 O -5.162335 -0.910303 -3.561722 0
M  V30 32 C -5.822151 -0.500488 -2.381215 0
M  V30 33 O -7.023369 -0.470277 -1.966918 0
M  V30 34 H 5.976677 2.321298 6.051369 0
M  V30 35 H 4.984420 2.173062 4.560518 0
M  V30 36 H 6.689422 1.550240 4.606141 0
M  V30 37 H 5.698655 0.090325 6.690534 0
M  V30 38 H 4.184172 0.337101 5.739859 0
M  V30 39 H 6.843087 -0.736933 4.680853 0
M  V30 40 H 5.463558 -1.790523 5.212910 0
M  V30 41 H 5.639922 0.286271 2.969070 0
M  V30 42 H 5.553317 -1.540323 2.813005 0
M  V30 43 H 3.340315 0.278997 3.885534 0
M  V30 44 H 3.258141 -1.498226 3.790557 0
M  V30 45 H 3.344489 0.574342 1.542319 0
M  V30 46 H 2.046480 -0.542449 2.047502 0
M  V30 47 H 3.270318 -2.543239 1.442602 0
M  V30 48 H 4.720142 -1.529776 0.966369 0
M  V30 49 H 3.616437 -0.410556 -0.729465 0
M  V30 50 H 3.431016 -2.192487 -1.050837 0
M  V30 51 H 1.272108 -2.208006 -0.020910 0
M  V30 52 H -0.315448 -0.709472 -0.883250 0
M  V30 53 H 1.014546 0.679274 -2.685484 0
M  V30 54 H 2.335944 0.868801 -1.550472 0
M  V30 55 H 1.411928 2.862676 -1.541256 0
M  V30 56 H -0.256300 2.382253 -1.569947 0
M  V30 57 H 1.808085 2.529371 0.671992 0
M  V30 58 H 0.369194 3.515579 0.403803 0
M  V30 59 H 0.273615 2.167851 2.392515 0
M  V30 60 H 0.289679 0.639229 1.527616 0
M  V30 61 H -1.918053 1.274926 2.398370 0
M  V30 62 H -1.825352 2.842782 1.497332 0
M  V30 63 H -1.990568 1.494148 -0.638619 0
M  V30 64 H -2.100880 -0.023706 0.451985 0
M  V30 65 H -3.950644 2.328766 0.633003 0
M  V30 66 H -4.039285 0.852276 1.581921 0
M  V30 67 H -5.694788 0.874765 -0.096829 0
M  V30 68 H -3.394709 0.437924 -2.961026 0
M  V30 69 H -2.553575 -0.425218 -1.788924 0
M  V30 70 H -4.706909 -3.276040 -4.050754 0
M  V30 71 H -5.174404 -5.702542 -1.895168 0
M  V30 72 H -4.146485 -5.812975 -3.378000 0
M  V30 73 H -2.223403 -6.257079 -2.263507 0
M  V30 74 H -3.292919 -6.847845 -0.972184 0
M  V30 75 H -2.922703 -0.265876 -4.594518 0
M  V30 76 H -2.094437 -1.806817 -4.186037 0
M  V30 77 H -3.289063 -2.887739 -5.571667 0
M  V30 END ATOM
M  V30 BEGIN BOND
M  V30 1 1 1 2
M  V30 2 1 2 3
M  V30 3 1 3 4
M  V30 4 1 4 5
M  V30 5 1 5 6
M  V30 6 1 6 7
M  V30 7 1 7 8
M  V30 8 1 8 9
M  V30 9 2 9 10
M  V30 10 1 10 11
M  V30 11 1 11 12
M  V30 12 1 12 13
M  V30 13 1 13 14
M  V30 14 1 14 15
M  V30 15 1 15 16
M  V30 16 1 16 17
M  V30 17 1 17 18
M  V30 18 2 18 19
M  V30 19 1 19 20
M  V30 20 1 20 21
M  V30 21 1 21 22
M  V30 22 2 22 23
M  V30 23 1 23 24
M  V30 24 1 24 25
M  V30 25 1 25 26
M  V30 26 1 26 27
M  V30 27 2 27 28
M  V30 28 1 21 29 CFG=3
M  V30 29 1 29 30
M  V30 30 1 21 31
M  V30 31 1 31 32
M  V30 32 2 32 33
M  V30 33 1 32 19
M  V30 34 1 27 23
M  V30 35 1 1 34
M  V30 36 1 1 35
M  V30 37 1 1 36
M  V30 38 1 2 37
M  V30 39 1 2 38
M  V30 40 1 3 39
M  V30 41 1 3 40
M  V30 42 1 4 41
M  V30 43 1 4 42
M  V30 44 1 5 43
M  V30 45 1 5 44
M  V30 46 1 6 45
M  V30 47 1 6 46
M  V30 48 1 7 47
M  V30 49 1 7 48
M  V30 50 1 8 49
M  V30 51 1 8 50
M  V30 52 1 9 51
M  V30 53 1 10 52
M  V30 54 1 11 53
M  V30 55 1 11 54
M  V30 56 1 12 55
M  V30 57 1 12 56
M  V30 58 1 13 57
M  V30 59 1 13 58
M  V30 60 1 14 59
M  V30 61 1 14 60
M  V30 62 1 15 61
M  V30 63 1 15 62
M  V30 64 1 16 63
M  V30 65 1 16 64
M  V30 66 1 17 65
M  V30 67 1 17 66
M  V30 68 1 18 67
M  V30 69 1 20 68
M  V30 70 1 20 69
M  V30 71 1 22 70
M  V30 72 1 24 71
M  V30 73 1 24 72
M  V30 74 1 25 73
M  V30 75 1 25 74
M  V30 76 1 29 75
M  V30 77 1 29 76
M  V30 78 1 30 77
M  V30 END BOND
M  V30 END CTAB
M  END
>  <Dataset>  (655) 
ChEMBL_Kinases

>  <Ligand_Instance>  (655) 
nan

>  <PDB_ID>  (655) 
nan

>  <Standardized_SMILES>  (655) 
CCCCCCCC/C=C\CCCCCCC/C=C1\C[C@](/C=C2/CCOC2=O)(CO)OC1=O

>  <Name>  (655) 
nan

>  <Pocket>  (655) 
nan

>  <ATP_Site>  (655) 
nan

>  <Peripheral>  (655) 
nan

>  <Num_H_Atoms_ProtBoundConf>  (655) 
nan

>  <Num_Resolved_Atoms>  (655) 
nan

>  <Num_Not_Resolved_Atoms>  (655) 
nan

$$$$
CHEMBL1405431
     RDKit          3D

  0  0  0  0  0  0  0  0  0  0999 V3000
M  V30 BEGIN CTAB
M  V30 COUNTS 57 59 0 0 0
M  V30 BEGIN ATOM
M  V30 1 C 0.522011 -6.808623 1.620514 0
M  V30 2 C 1.944530 -7.158664 1.340924 0
M  V30 3 O 2.898268 -6.268671 1.827002 0
M  V30 4 C 3.032426 -4.940239 1.509943 0
M  V30 5 C 4.032302 -4.176080 2.073691 0
M  V30 6 C 4.148412 -2.860098 1.745022 0
M  V30 7 C 3.314040 -2.211805 0.861986 0
M  V30 8 N 3.535749 -0.840447 0.598964 0
M  V30 9 C 2.824993 0.012437 -0.245295 0
M  V30 10 O 1.848040 -0.407481 -0.893083 0
M  V30 11 C 3.093598 1.435100 -0.487458 0
M  V30 12 C 2.060589 2.025846 -1.455854 0
M  V30 13 N 0.772899 1.857942 -0.849851 0
M  V30 14 C 0.514270 2.626373 0.308444 0
M  V30 15 C -0.830405 2.457927 0.906570 0
M  V30 16 N -1.794451 1.762106 0.057961 0
M  V30 17 C -3.019347 1.442651 0.704677 0
M  V30 18 C -3.302980 1.766750 2.020286 0
M  V30 19 C -4.459213 1.487864 2.697448 0
M  V30 20 C -5.452060 0.818257 2.019305 0
M  V30 21 C -5.253283 0.458310 0.708471 0
M  V30 22 C -4.057793 0.777328 0.098205 0
M  V30 23 O -3.954445 0.372871 -1.220238 0
M  V30 24 C -4.949152 -0.312805 -1.940504 0
M  V30 25 C -1.591107 1.401714 -1.313211 0
M  V30 26 C -0.246761 1.853775 -1.839417 0
M  V30 27 C 2.347579 -3.007969 0.335768 0
M  V30 28 C 2.165858 -4.347877 0.618735 0
M  V30 29 H 0.020371 -7.600350 2.229375 0
M  V30 30 H 0.467842 -5.852614 2.177678 0
M  V30 31 H -0.088904 -6.745414 0.689792 0
M  V30 32 H 2.135345 -7.286221 0.247008 0
M  V30 33 H 2.195507 -8.161490 1.791527 0
M  V30 34 H 4.725304 -4.607380 2.772359 0
M  V30 35 H 4.957429 -2.288346 2.216202 0
M  V30 36 H 4.324096 -0.339884 1.074422 0
M  V30 37 H 3.148712 2.072566 0.392252 0
M  V30 38 H 4.104456 1.524168 -0.981693 0
M  V30 39 H 2.325734 3.055555 -1.726713 0
M  V30 40 H 2.121115 1.446510 -2.412509 0
M  V30 41 H 0.654197 3.736966 0.141799 0
M  V30 42 H 1.277543 2.388830 1.084492 0
M  V30 43 H -0.752817 1.794168 1.818533 0
M  V30 44 H -1.259283 3.396883 1.290952 0
M  V30 45 H -2.554719 2.299565 2.611635 0
M  V30 46 H -4.613374 1.770638 3.725659 0
M  V30 47 H -6.380783 0.578662 2.517638 0
M  V30 48 H -6.055963 -0.069199 0.200740 0
M  V30 49 H -5.303814 -1.225053 -1.393779 0
M  V30 50 H -5.768604 0.393667 -2.112396 0
M  V30 51 H -4.478920 -0.631440 -2.909676 0
M  V30 52 H -1.647413 0.310378 -1.402883 0
M  V30 53 H -2.357220 1.891035 -1.945588 0
M  V30 54 H 0.054652 1.121533 -2.622571 0
M  V30 55 H -0.351942 2.819236 -2.391004 0
M  V30 56 H 1.648420 -2.601159 -0.360270 0
M  V30 57 H 1.370477 -4.922055 0.159103 0
M  V30 END ATOM
M  V30 BEGIN BOND
M  V30 1 1 1 2
M  V30 2 1 2 3
M  V30 3 1 3 4
M  V30 4 2 4 5
M  V30 5 1 5 6
M  V30 6 2 6 7
M  V30 7 1 7 8
M  V30 8 1 8 9
M  V30 9 2 9 10
M  V30 10 1 9 11
M  V30 11 1 11 12
M  V30 12 1 12 13
M  V30 13 1 13 14
M  V30 14 1 14 15
M  V30 15 1 15 16
M  V30 16 1 16 17
M  V30 17 2 17 18
M  V30 18 1 18 19
M  V30 19 2 19 20
M  V30 20 1 20 21
M  V30 21 2 21 22
M  V30 22 1 22 23
M  V30 23 1 23 24
M  V30 24 1 16 25
M  V30 25 1 25 26
M  V30 26 1 7 27
M  V30 27 2 27 28
M  V30 28 1 28 4
M  V30 29 1 26 13
M  V30 30 1 22 17
M  V30 31 1 1 29
M  V30 32 1 1 30
M  V30 33 1 1 31
M  V30 34 1 2 32
M  V30 35 1 2 33
M  V30 36 1 5 34
M  V30 37 1 6 35
M  V30 38 1 8 36
M  V30 39 1 11 37
M  V30 40 1 11 38
M  V30 41 1 12 39
M  V30 42 1 12 40
M  V30 43 1 14 41
M  V30 44 1 14 42
M  V30 45 1 15 43
M  V30 46 1 15 44
M  V30 47 1 18 45
M  V30 48 1 19 46
M  V30 49 1 20 47
M  V30 50 1 21 48
M  V30 51 1 24 49
M  V30 52 1 24 50
M  V30 53 1 24 51
M  V30 54 1 25 52
M  V30 55 1 25 53
M  V30 56 1 26 54
M  V30 57 1 26 55
M  V30 58 1 27 56
M  V30 59 1 28 57
M  V30 END BOND
M  V30 END CTAB
M  END
>  <Dataset>  (656) 
ChEMBL_Kinases

>  <Ligand_Instance>  (656) 
nan

>  <PDB_ID>  (656) 
nan

>  <Standardized_SMILES>  (656) 
CCOc1ccc(NC(=O)CCN2CCN(c3ccccc3OC)CC2)cc1

>  <Name>  (656) 
nan

>  <Pocket>  (656) 
nan

>  <ATP_Site>  (656) 
nan

>  <Peripheral>  (656) 
nan

>  <Num_H_Atoms_ProtBoundConf>  (656) 
nan

>  <Num_Resolved_Atoms>  (656) 
nan

>  <Num_Not_Resolved_Atoms>  (656) 
nan

$$$$
CHEMBL1405297
     RDKit          3D

  0  0  0  0  0  0  0  0  0  0999 V3000
M  V30 BEGIN CTAB
M  V30 COUNTS 61 64 0 0 0
M  V30 BEGIN ATOM
M  V30 1 C 3.865314 -3.169314 5.443364 0
M  V30 2 C 3.430402 -2.102738 6.407863 0
M  V30 3 O 3.622284 -0.792942 5.915047 0
M  V30 4 C 3.012629 -0.295421 4.773613 0
M  V30 5 C 3.311781 1.008057 4.390946 0
M  V30 6 C 2.760791 1.595303 3.268381 0
M  V30 7 C 1.883933 0.893523 2.480348 0
M  V30 8 N 1.155477 1.043511 1.270334 0
M  V30 9 C 1.478894 0.458167 0.004310 0
M  V30 10 S 2.899494 -0.322596 0.240385 0
M  V30 11 N 0.840548 0.470762 -1.271152 0
M  V30 12 C -0.282089 0.947464 -1.964291 0
M  V30 13 C -1.510200 1.480798 -1.383006 0
M  V30 14 C -2.392849 0.644375 -0.594013 0
M  V30 15 C -2.752710 0.200051 0.651375 0
M  V30 16 C -2.176429 0.823815 1.854894 0
M  V30 17 N -3.683732 -0.770093 0.704670 0
M  V30 18 C -3.994063 -1.021751 -0.559121 0
M  V30 19 C -4.901778 -1.955571 -0.999995 0
M  V30 20 C -5.095550 -2.104287 -2.348650 0
M  V30 21 C -4.397413 -1.333784 -3.239262 0
M  V30 22 C -4.578824 -1.465390 -4.698488 0
M  V30 23 C -3.513411 -0.424064 -2.710460 0
M  V30 24 C -3.232883 -0.185885 -1.367419 0
M  V30 25 C 1.654966 -0.221927 -2.308004 0
M  V30 26 C 1.783581 -1.662688 -2.024078 0
M  V30 27 C 2.626366 -2.670009 -1.628214 0
M  V30 28 C 1.948182 -3.875761 -1.585416 0
M  V30 29 C 0.664692 -3.534238 -1.975114 0
M  V30 30 O 0.611047 -2.260387 -2.217733 0
M  V30 31 C 1.582709 -0.423931 2.870015 0
M  V30 32 C 2.120236 -1.046712 3.996202 0
M  V30 33 H 4.228733 -2.791204 4.464114 0
M  V30 34 H 4.712701 -3.796410 5.830806 0
M  V30 35 H 3.050403 -3.904778 5.294647 0
M  V30 36 H 2.355868 -2.280736 6.652632 0
M  V30 37 H 4.032556 -2.210090 7.325114 0
M  V30 38 H 3.988274 1.671913 4.919584 0
M  V30 39 H 2.873627 2.563190 2.826155 0
M  V30 40 H 0.320125 1.591964 1.045962 0
M  V30 41 H 0.026829 1.706057 -2.772211 0
M  V30 42 H -0.617675 0.087746 -2.683807 0
M  V30 43 H -1.250423 2.439968 -0.777507 0
M  V30 44 H -2.109163 1.951404 -2.224013 0
M  V30 45 H -1.306200 0.253575 2.179111 0
M  V30 46 H -1.942636 1.883419 1.706856 0
M  V30 47 H -2.928649 0.755107 2.702482 0
M  V30 48 H -4.041916 -1.186671 1.569247 0
M  V30 49 H -5.468294 -2.579134 -0.328575 0
M  V30 50 H -5.804154 -2.827437 -2.721066 0
M  V30 51 H -5.583016 -1.024079 -4.962836 0
M  V30 52 H -4.609209 -2.535731 -4.967855 0
M  V30 53 H -3.769841 -0.925154 -5.227393 0
M  V30 54 H -2.972203 0.175499 -3.444121 0
M  V30 55 H 1.356548 -0.024726 -3.323399 0
M  V30 56 H 2.702187 0.193094 -2.124359 0
M  V30 57 H 3.648328 -2.442257 -1.436175 0
M  V30 58 H 2.508445 -4.768236 -1.282067 0
M  V30 59 H -0.048820 -4.356455 -2.010464 0
M  V30 60 H 0.919519 -1.180155 2.422557 0
M  V30 61 H 1.958848 -2.026633 4.384683 0
M  V30 END ATOM
M  V30 BEGIN BOND
M  V30 1 1 1 2
M  V30 2 1 2 3
M  V30 3 1 3 4
M  V30 4 2 4 5
M  V30 5 1 5 6
M  V30 6 2 6 7
M  V30 7 1 7 8
M  V30 8 1 8 9
M  V30 9 2 9 10
M  V30 10 1 9 11
M  V30 11 1 11 12
M  V30 12 1 12 13
M  V30 13 1 13 14
M  V30 14 2 14 15
M  V30 15 1 15 16
M  V30 16 1 15 17
M  V30 17 1 17 18
M  V30 18 2 18 19
M  V30 19 1 19 20
M  V30 20 2 20 21
M  V30 21 1 21 22
M  V30 22 1 21 23
M  V30 23 2 23 24
M  V30 24 1 11 25
M  V30 25 1 25 26
M  V30 26 2 26 27
M  V30 27 1 27 28
M  V30 28 2 28 29
M  V30 29 1 29 30
M  V30 30 1 7 31
M  V30 31 2 31 32
M  V30 32 1 32 4
M  V30 33 1 24 14
M  V30 34 1 30 26
M  V30 35 1 24 18
M  V30 36 1 1 33
M  V30 37 1 1 34
M  V30 38 1 1 35
M  V30 39 1 2 36
M  V30 40 1 2 37
M  V30 41 1 5 38
M  V30 42 1 6 39
M  V30 43 1 8 40
M  V30 44 1 12 41
M  V30 45 1 12 42
M  V30 46 1 13 43
M  V30 47 1 13 44
M  V30 48 1 16 45
M  V30 49 1 16 46
M  V30 50 1 16 47
M  V30 51 1 17 48
M  V30 52 1 19 49
M  V30 53 1 20 50
M  V30 54 1 22 51
M  V30 55 1 22 52
M  V30 56 1 22 53
M  V30 57 1 23 54
M  V30 58 1 25 55
M  V30 59 1 25 56
M  V30 60 1 27 57
M  V30 61 1 28 58
M  V30 62 1 29 59
M  V30 63 1 31 60
M  V30 64 1 32 61
M  V30 END BOND
M  V30 END CTAB
M  END
>  <Dataset>  (657) 
ChEMBL_Kinases

>  <Ligand_Instance>  (657) 
nan

>  <PDB_ID>  (657) 
nan

>  <Standardized_SMILES>  (657) 
CCOc1ccc(NC(=S)N(CCc2c(C)[nH]c3ccc(C)cc23)Cc2ccco2)cc1

>  <Name>  (657) 
nan

>  <Pocket>  (657) 
nan

>  <ATP_Site>  (657) 
nan

>  <Peripheral>  (657) 
nan

>  <Num_H_Atoms_ProtBoundConf>  (657) 
nan

>  <Num_Resolved_Atoms>  (657) 
nan

>  <Num_Not_Resolved_Atoms>  (657) 
nan

$$$$
CHEMBL1405142
     RDKit          3D

  0  0  0  0  0  0  0  0  0  0999 V3000
M  V30 BEGIN CTAB
M  V30 COUNTS 48 51 0 0 0
M  V30 BEGIN ATOM
M  V30 1 C -3.892507 -3.283997 0.800174 0
M  V30 2 C -2.803470 -2.634957 0.019481 0
M  V30 3 N -1.487041 -2.672394 0.530333 0
M  V30 4 C -1.218268 -1.684629 1.451310 0
M  V30 5 O -2.120297 -0.891173 1.832058 0
M  V30 6 C 0.068353 -1.536544 1.986482 0
M  V30 7 C 1.087603 -2.391877 1.585219 0
M  V30 8 S 2.737691 -2.191746 2.192570 0
M  V30 9 C 3.722265 -1.092981 1.097691 0
M  V30 10 C 3.144252 0.294479 1.139607 0
M  V30 11 O 1.867820 0.338047 1.020184 0
M  V30 12 N 3.594209 1.660568 1.281622 0
M  V30 13 C 2.338376 2.306295 1.224660 0
M  V30 14 C 1.817003 2.369034 2.522989 0
M  V30 15 C 0.564397 2.920619 2.811333 0
M  V30 16 C -0.109858 3.399594 1.686342 0
M  V30 17 C 0.431612 3.320491 0.428110 0
M  V30 18 C 1.661017 2.776927 0.162967 0
M  V30 19 O -0.370500 3.838078 -0.574423 0
M  V30 20 C -1.780570 3.658248 -0.583532 0
M  V30 21 C -2.371860 3.719569 0.807850 0
M  V30 22 O -1.369573 3.979205 1.798562 0
M  V30 23 C 0.811319 -3.375678 0.668686 0
M  V30 24 C 1.796810 -4.250287 0.235211 0
M  V30 25 C 1.519314 -5.249891 -0.703280 0
M  V30 26 C 0.229075 -5.337683 -1.186473 0
M  V30 27 C -0.772406 -4.476550 -0.768512 0
M  V30 28 C -0.487738 -3.488438 0.163151 0
M  V30 29 H -4.108628 -2.678792 1.719762 0
M  V30 30 H -3.817000 -4.356834 0.968462 0
M  V30 31 H -4.832944 -3.135704 0.178416 0
M  V30 32 H -3.096512 -1.541384 -0.115893 0
M  V30 33 H -2.869362 -3.002004 -1.056092 0
M  V30 34 H 0.185693 -0.749197 2.722313 0
M  V30 35 H 4.771679 -1.089990 1.379445 0
M  V30 36 H 3.627934 -1.481819 0.057633 0
M  V30 37 H 4.632056 1.657039 1.365555 0
M  V30 38 H 2.283438 2.017698 3.454822 0
M  V30 39 H 0.130479 2.993241 3.777168 0
M  V30 40 H 2.108368 2.694975 -0.800577 0
M  V30 41 H -2.321595 4.353849 -1.223196 0
M  V30 42 H -1.961002 2.611111 -0.958228 0
M  V30 43 H -3.097066 4.570626 0.881643 0
M  V30 44 H -2.962473 2.811509 1.036719 0
M  V30 45 H 2.816577 -4.198224 0.597968 0
M  V30 46 H 2.315611 -5.912429 -1.019088 0
M  V30 47 H 0.090478 -6.146251 -1.916208 0
M  V30 48 H -1.758734 -4.606963 -1.186270 0
M  V30 END ATOM
M  V30 BEGIN BOND
M  V30 1 1 1 2
M  V30 2 1 2 3
M  V30 3 1 3 4
M  V30 4 2 4 5
M  V30 5 1 4 6
M  V30 6 2 6 7
M  V30 7 1 7 8
M  V30 8 1 8 9
M  V30 9 1 9 10
M  V30 10 2 10 11
M  V30 11 1 10 12
M  V30 12 1 12 13
M  V30 13 2 13 14
M  V30 14 1 14 15
M  V30 15 2 15 16
M  V30 16 1 16 17
M  V30 17 2 17 18
M  V30 18 1 17 19
M  V30 19 1 19 20
M  V30 20 1 20 21
M  V30 21 1 21 22
M  V30 22 1 7 23
M  V30 23 2 23 24
M  V30 24 1 24 25
M  V30 25 2 25 26
M  V30 26 1 26 27
M  V30 27 2 27 28
M  V30 28 1 28 3
M  V30 29 1 18 13
M  V30 30 1 28 23
M  V30 31 1 22 16
M  V30 32 1 1 29
M  V30 33 1 1 30
M  V30 34 1 1 31
M  V30 35 1 2 32
M  V30 36 1 2 33
M  V30 37 1 6 34
M  V30 38 1 9 35
M  V30 39 1 9 36
M  V30 40 1 12 37
M  V30 41 1 14 38
M  V30 42 1 15 39
M  V30 43 1 18 40
M  V30 44 1 20 41
M  V30 45 1 20 42
M  V30 46 1 21 43
M  V30 47 1 21 44
M  V30 48 1 24 45
M  V30 49 1 25 46
M  V30 50 1 26 47
M  V30 51 1 27 48
M  V30 END BOND
M  V30 END CTAB
M  END
>  <Dataset>  (658) 
ChEMBL_Kinases

>  <Ligand_Instance>  (658) 
nan

>  <PDB_ID>  (658) 
nan

>  <Standardized_SMILES>  (658) 
CCn1c(=O)cc(SCC(=O)Nc2ccc3c(c2)OCCO3)c2ccccc21

>  <Name>  (658) 
nan

>  <Pocket>  (658) 
nan

>  <ATP_Site>  (658) 
nan

>  <Peripheral>  (658) 
nan

>  <Num_H_Atoms_ProtBoundConf>  (658) 
nan

>  <Num_Resolved_Atoms>  (658) 
nan

>  <Num_Not_Resolved_Atoms>  (658) 
nan

$$$$
CHEMBL1405054
     RDKit          3D

  0  0  0  0  0  0  0  0  0  0999 V3000
M  V30 BEGIN CTAB
M  V30 COUNTS 39 42 0 0 0
M  V30 BEGIN ATOM
M  V30 1 N 3.644248 -4.415383 3.243687 0
M  V30 2 C 3.183344 -4.617628 1.899984 0
M  V30 3 O 3.558802 -5.814013 1.940098 0
M  V30 4 C 2.548386 -3.577481 1.070509 0
M  V30 5 S 2.491761 -2.066838 2.093587 0
M  V30 6 C 1.727236 -0.805409 1.099464 0
M  V30 7 N 2.579725 -0.090768 0.360477 0
M  V30 8 C 2.074867 0.929212 -0.458916 0
M  V30 9 S 2.917201 2.017131 -1.521654 0
M  V30 10 C 1.449405 2.902175 -2.091904 0
M  V30 11 C 0.409699 2.273714 -1.402376 0
M  V30 12 C -0.962351 2.754640 -1.633970 0
M  V30 13 C -1.347340 3.776531 -2.471067 0
M  V30 14 C -2.707798 3.971881 -2.455698 0
M  V30 15 C -3.132153 3.015405 -1.565173 0
M  V30 16 O -2.098353 2.359072 -1.134740 0
M  V30 17 C 0.700432 1.263596 -0.562286 0
M  V30 18 C -0.070331 0.469944 0.234363 0
M  V30 19 O -1.312678 0.529685 0.352195 0
M  V30 20 N 0.428410 -0.495477 1.007074 0
M  V30 21 C -0.359025 -1.336515 1.847715 0
M  V30 22 C -0.893737 -2.581656 1.596067 0
M  V30 23 C -1.630915 -3.206650 2.580112 0
M  V30 24 C -1.840970 -2.608673 3.806742 0
M  V30 25 C -1.313421 -1.365421 4.073071 0
M  V30 26 C -0.566839 -0.727755 3.082189 0
M  V30 27 H 4.486932 -4.147857 3.810691 0
M  V30 28 H 3.450393 -4.413624 4.283528 0
M  V30 29 H 1.544081 -3.909171 0.758994 0
M  V30 30 H 3.124661 -3.408216 0.138406 0
M  V30 31 H 1.452311 3.695224 -2.783076 0
M  V30 32 H -0.696329 4.394042 -3.097377 0
M  V30 33 H -3.257136 4.706899 -3.020636 0
M  V30 34 H -4.171996 2.843527 -1.273830 0
M  V30 35 H -0.660198 -2.941833 0.603817 0
M  V30 36 H -2.023484 -4.178493 2.325063 0
M  V30 37 H -2.422668 -3.129381 4.549620 0
M  V30 38 H -1.510498 -0.946362 5.050762 0
M  V30 39 H -0.206706 0.241121 3.410596 0
M  V30 END ATOM
M  V30 BEGIN BOND
M  V30 1 1 1 2
M  V30 2 2 2 3
M  V30 3 1 2 4
M  V30 4 1 4 5
M  V30 5 1 5 6
M  V30 6 2 6 7
M  V30 7 1 7 8
M  V30 8 1 8 9
M  V30 9 1 9 10
M  V30 10 2 10 11
M  V30 11 1 11 12
M  V30 12 2 12 13
M  V30 13 1 13 14
M  V30 14 2 14 15
M  V30 15 1 15 16
M  V30 16 1 11 17
M  V30 17 1 17 18
M  V30 18 2 18 19
M  V30 19 1 18 20
M  V30 20 1 20 21
M  V30 21 2 21 22
M  V30 22 1 22 23
M  V30 23 2 23 24
M  V30 24 1 24 25
M  V30 25 2 25 26
M  V30 26 1 20 6
M  V30 27 1 26 21
M  V30 28 2 17 8
M  V30 29 1 16 12
M  V30 30 1 1 27
M  V30 31 1 1 28
M  V30 32 1 4 29
M  V30 33 1 4 30
M  V30 34 1 10 31
M  V30 35 1 13 32
M  V30 36 1 14 33
M  V30 37 1 15 34
M  V30 38 1 22 35
M  V30 39 1 23 36
M  V30 40 1 24 37
M  V30 41 1 25 38
M  V30 42 1 26 39
M  V30 END BOND
M  V30 END CTAB
M  END
>  <Dataset>  (659) 
ChEMBL_Kinases

>  <Ligand_Instance>  (659) 
nan

>  <PDB_ID>  (659) 
nan

>  <Standardized_SMILES>  (659) 
NC(=O)CSc1nc2scc(-c3ccco3)c2c(=O)n1-c1ccccc1

>  <Name>  (659) 
nan

>  <Pocket>  (659) 
nan

>  <ATP_Site>  (659) 
nan

>  <Peripheral>  (659) 
nan

>  <Num_H_Atoms_ProtBoundConf>  (659) 
nan

>  <Num_Resolved_Atoms>  (659) 
nan

>  <Num_Not_Resolved_Atoms>  (659) 
nan

$$$$
CHEMBL1404954
     RDKit          3D

  0  0  0  0  0  0  0  0  0  0999 V3000
M  V30 BEGIN CTAB
M  V30 COUNTS 40 42 0 0 0
M  V30 BEGIN ATOM
M  V30 1 C -0.453988 -6.339526 2.002642 0
M  V30 2 O -0.415995 -5.898860 0.697581 0
M  V30 3 C -0.493223 -4.521255 0.545917 0
M  V30 4 C 0.617197 -3.786206 1.209280 0
M  V30 5 N 0.557669 -2.344951 1.062454 0
M  V30 6 C 0.644586 -1.772557 -0.235753 0
M  V30 7 N 0.787812 -2.532832 -1.311924 0
M  V30 8 C 0.878007 -2.036124 -2.543058 0
M  V30 9 N 0.831103 -0.714543 -2.799163 0
M  V30 10 C 0.685977 0.130590 -1.751382 0
M  V30 11 C 0.631023 1.494613 -1.950564 0
M  V30 12 C 0.483808 2.353260 -0.892500 0
M  V30 13 C 0.390463 1.832082 0.385045 0
M  V30 14 C 0.233457 2.753080 1.509536 0
M  V30 15 C 1.237461 3.352955 2.273148 0
M  V30 16 C 2.693784 3.167360 2.086593 0
M  V30 17 N 0.687420 4.132607 3.213401 0
M  V30 18 O -0.620547 4.057432 3.084438 0
M  V30 19 C -0.920331 3.253514 2.090524 0
M  V30 20 C -2.297371 2.926411 1.650800 0
M  V30 21 C 0.449191 0.462657 0.547700 0
M  V30 22 C 0.594919 -0.416343 -0.482805 0
M  V30 23 H -1.421886 -5.988505 2.444790 0
M  V30 24 H -0.503360 -7.458440 2.024559 0
M  V30 25 H 0.377922 -6.025764 2.629442 0
M  V30 26 H -1.495065 -4.223275 0.928786 0
M  V30 27 H -0.542319 -4.320633 -0.549994 0
M  V30 28 H 1.569347 -4.087606 0.680026 0
M  V30 29 H 0.700821 -4.073952 2.272440 0
M  V30 30 H 0.451749 -1.814426 1.944761 0
M  V30 31 H 0.993231 -2.738777 -3.357129 0
M  V30 32 H 0.710148 1.824891 -2.970032 0
M  V30 33 H 0.449296 3.398154 -1.124676 0
M  V30 34 H 3.064401 2.314566 2.707950 0
M  V30 35 H 3.276320 4.052539 2.418104 0
M  V30 36 H 2.972560 2.943426 1.042942 0
M  V30 37 H -2.865783 3.898020 1.695945 0
M  V30 38 H -2.766963 2.225920 2.351140 0
M  V30 39 H -2.339984 2.540300 0.617370 0
M  V30 40 H 0.370624 0.131748 1.557495 0
M  V30 END ATOM
M  V30 BEGIN BOND
M  V30 1 1 1 2
M  V30 2 1 2 3
M  V30 3 1 3 4
M  V30 4 1 4 5
M  V30 5 1 5 6
M  V30 6 2 6 7
M  V30 7 1 7 8
M  V30 8 2 8 9
M  V30 9 1 9 10
M  V30 10 2 10 11
M  V30 11 1 11 12
M  V30 12 2 12 13
M  V30 13 1 13 14
M  V30 14 1 14 15
M  V30 15 1 15 16
M  V30 16 2 15 17
M  V30 17 1 17 18
M  V30 18 1 18 19
M  V30 19 1 19 20
M  V30 20 1 13 21
M  V30 21 2 21 22
M  V30 22 1 22 6
M  V30 23 1 22 10
M  V30 24 2 19 14
M  V30 25 1 1 23
M  V30 26 1 1 24
M  V30 27 1 1 25
M  V30 28 1 3 26
M  V30 29 1 3 27
M  V30 30 1 4 28
M  V30 31 1 4 29
M  V30 32 1 5 30
M  V30 33 1 8 31
M  V30 34 1 11 32
M  V30 35 1 12 33
M  V30 36 1 16 34
M  V30 37 1 16 35
M  V30 38 1 16 36
M  V30 39 1 20 37
M  V30 40 1 20 38
M  V30 41 1 20 39
M  V30 42 1 21 40
M  V30 END BOND
M  V30 END CTAB
M  END
>  <Dataset>  (660) 
ChEMBL_Kinases

>  <Ligand_Instance>  (660) 
nan

>  <PDB_ID>  (660) 
nan

>  <Standardized_SMILES>  (660) 
COCCNc1ncnc2ccc(-c3c(C)noc3C)cc12

>  <Name>  (660) 
nan

>  <Pocket>  (660) 
nan

>  <ATP_Site>  (660) 
nan

>  <Peripheral>  (660) 
nan

>  <Num_H_Atoms_ProtBoundConf>  (660) 
nan

>  <Num_Resolved_Atoms>  (660) 
nan

>  <Num_Not_Resolved_Atoms>  (660) 
nan

$$$$
CHEMBL1404814
     RDKit          3D

  0  0  0  0  0  0  0  0  0  0999 V3000
M  V30 BEGIN CTAB
M  V30 COUNTS 36 37 0 0 0
M  V30 BEGIN ATOM
M  V30 1 C 0.119486 -3.092033 -1.847102 0
M  V30 2 C 1.182983 -3.281167 -0.824828 0
M  V30 3 C 1.409477 -4.560169 -0.361029 0
M  V30 4 C 2.402641 -4.675497 0.581393 0
M  V30 5 N 3.110326 -3.635281 1.029930 0
M  V30 6 C 2.889169 -2.401067 0.579982 0
M  V30 7 N 3.637694 -1.291019 1.052166 0
M  V30 8 S 3.372788 0.323797 0.486528 0
M  V30 9 O 4.419435 1.255636 1.014656 0
M  V30 10 O 3.615561 0.256028 -1.014163 0
M  V30 11 C 1.761980 0.885066 0.838401 0
M  V30 12 C 0.732089 0.707209 -0.063247 0
M  V30 13 C -0.550137 1.146635 0.204693 0
M  V30 14 C -0.824035 1.781035 1.399183 0
M  V30 15 N -2.042707 2.314388 1.896094 0
M  V30 16 S -3.541384 1.457994 1.793568 0
M  V30 17 C -4.005148 1.144954 0.128891 0
M  V30 18 O -3.267815 0.101308 2.431758 0
M  V30 19 O -4.611506 2.097129 2.594140 0
M  V30 20 C 0.230792 1.954773 2.304799 0
M  V30 21 C 1.514419 1.517132 2.041365 0
M  V30 22 N 1.919285 -2.282628 -0.341507 0
M  V30 23 H 0.396129 -2.327249 -2.607748 0
M  V30 24 H -0.871451 -2.825144 -1.383357 0
M  V30 25 H -0.054358 -4.033628 -2.392496 0
M  V30 26 H 0.862979 -5.406322 -0.698885 0
M  V30 27 H 2.596033 -5.682038 0.960388 0
M  V30 28 H 4.376130 -1.455552 1.768008 0
M  V30 29 H 0.875732 0.219874 -1.017324 0
M  V30 30 H -1.421335 1.058301 -0.427801 0
M  V30 31 H -2.077480 3.251923 2.345325 0
M  V30 32 H -3.636140 0.156745 -0.265310 0
M  V30 33 H -3.643932 1.947263 -0.544739 0
M  V30 34 H -5.131483 1.151906 0.110917 0
M  V30 35 H 0.135402 2.444435 3.286186 0
M  V30 36 H 2.332048 1.648394 2.736148 0
M  V30 END ATOM
M  V30 BEGIN BOND
M  V30 1 1 1 2
M  V30 2 2 2 3
M  V30 3 1 3 4
M  V30 4 2 4 5
M  V30 5 1 5 6
M  V30 6 1 6 7
M  V30 7 1 7 8
M  V30 8 2 8 9
M  V30 9 2 8 10
M  V30 10 1 8 11
M  V30 11 2 11 12
M  V30 12 1 12 13
M  V30 13 2 13 14
M  V30 14 1 14 15
M  V30 15 1 15 16
M  V30 16 1 16 17
M  V30 17 2 16 18
M  V30 18 2 16 19
M  V30 19 1 14 20
M  V30 20 2 20 21
M  V30 21 2 6 22
M  V30 22 1 22 2
M  V30 23 1 21 11
M  V30 24 1 1 23
M  V30 25 1 1 24
M  V30 26 1 1 25
M  V30 27 1 3 26
M  V30 28 1 4 27
M  V30 29 1 7 28
M  V30 30 1 12 29
M  V30 31 1 13 30
M  V30 32 1 15 31
M  V30 33 1 17 32
M  V30 34 1 17 33
M  V30 35 1 17 34
M  V30 36 1 20 35
M  V30 37 1 21 36
M  V30 END BOND
M  V30 END CTAB
M  END
>  <Dataset>  (661) 
ChEMBL_Kinases

>  <Ligand_Instance>  (661) 
nan

>  <PDB_ID>  (661) 
nan

>  <Standardized_SMILES>  (661) 
Cc1ccnc(NS(=O)(=O)c2ccc(NS(C)(=O)=O)cc2)n1

>  <Name>  (661) 
nan

>  <Pocket>  (661) 
nan

>  <ATP_Site>  (661) 
nan

>  <Peripheral>  (661) 
nan

>  <Num_H_Atoms_ProtBoundConf>  (661) 
nan

>  <Num_Resolved_Atoms>  (661) 
nan

>  <Num_Not_Resolved_Atoms>  (661) 
nan

$$$$
CHEMBL1404734
     RDKit          3D

  0  0  0  0  0  0  0  0  0  0999 V3000
M  V30 BEGIN CTAB
M  V30 COUNTS 38 39 0 0 0
M  V30 BEGIN ATOM
M  V30 1 C 0.497841 -1.861905 5.831177 0
M  V30 2 C 0.051668 -2.856622 4.781355 0
M  V30 3 S 0.734575 -2.710795 3.189087 0
M  V30 4 C 0.269705 -1.452720 2.084660 0
M  V30 5 N 1.088742 -1.585248 0.995814 0
M  V30 6 C 1.024058 -0.802195 -0.089789 0
M  V30 7 C 1.824129 -0.882524 -1.224411 0
M  V30 8 C 1.676450 -0.024795 -2.288782 0
M  V30 9 O 2.472943 -0.107602 -3.416576 0
M  V30 10 C 3.500563 -1.020923 -3.650417 0
M  V30 11 C 0.715695 0.966676 -2.278626 0
M  V30 12 O 0.581957 1.822344 -3.362108 0
M  V30 13 C -0.416196 2.830249 -3.315740 0
M  V30 14 C -0.083752 1.056066 -1.158414 0
M  V30 15 C 0.077603 0.184176 -0.095323 0
M  V30 16 C -0.773357 0.369589 0.963064 0
M  V30 17 O -1.668576 1.221139 1.080240 0
M  V30 18 N -0.623504 -0.467877 1.995957 0
M  V30 19 C -1.497595 -0.402723 3.145664 0
M  V30 20 C -2.644045 -1.351954 2.838902 0
M  V30 21 H 1.060164 -1.019556 5.382621 0
M  V30 22 H 1.194608 -2.311499 6.574454 0
M  V30 23 H -0.403770 -1.539635 6.387277 0
M  V30 24 H 0.290299 -3.867890 5.221087 0
M  V30 25 H -1.082142 -2.889485 4.732206 0
M  V30 26 H 2.569409 -1.666226 -1.203108 0
M  V30 27 H 4.507533 -0.518035 -3.590749 0
M  V30 28 H 3.556148 -1.873144 -2.947340 0
M  V30 29 H 3.472920 -1.419802 -4.710473 0
M  V30 30 H -1.374925 2.331170 -3.094898 0
M  V30 31 H -0.543265 3.290680 -4.329410 0
M  V30 32 H -0.147112 3.625439 -2.592228 0
M  V30 33 H -0.829390 1.836854 -1.161515 0
M  V30 34 H -1.041663 -0.537583 4.106261 0
M  V30 35 H -1.949564 0.639707 3.117015 0
M  V30 36 H -3.373418 -1.446073 3.641356 0
M  V30 37 H -2.169170 -2.344410 2.658212 0
M  V30 38 H -3.070844 -1.034000 1.865677 0
M  V30 END ATOM
M  V30 BEGIN BOND
M  V30 1 1 1 2
M  V30 2 1 2 3
M  V30 3 1 3 4
M  V30 4 2 4 5
M  V30 5 1 5 6
M  V30 6 2 6 7
M  V30 7 1 7 8
M  V30 8 1 8 9
M  V30 9 1 9 10
M  V30 10 2 8 11
M  V30 11 1 11 12
M  V30 12 1 12 13
M  V30 13 1 11 14
M  V30 14 2 14 15
M  V30 15 1 15 16
M  V30 16 2 16 17
M  V30 17 1 16 18
M  V30 18 1 18 19
M  V30 19 1 19 20
M  V30 20 1 18 4
M  V30 21 1 15 6
M  V30 22 1 1 21
M  V30 23 1 1 22
M  V30 24 1 1 23
M  V30 25 1 2 24
M  V30 26 1 2 25
M  V30 27 1 7 26
M  V30 28 1 10 27
M  V30 29 1 10 28
M  V30 30 1 10 29
M  V30 31 1 13 30
M  V30 32 1 13 31
M  V30 33 1 13 32
M  V30 34 1 14 33
M  V30 35 1 19 34
M  V30 36 1 19 35
M  V30 37 1 20 36
M  V30 38 1 20 37
M  V30 39 1 20 38
M  V30 END BOND
M  V30 END CTAB
M  END
>  <Dataset>  (662) 
ChEMBL_Kinases

>  <Ligand_Instance>  (662) 
nan

>  <PDB_ID>  (662) 
nan

>  <Standardized_SMILES>  (662) 
CCSc1nc2cc(OC)c(OC)cc2c(=O)n1CC

>  <Name>  (662) 
nan

>  <Pocket>  (662) 
nan

>  <ATP_Site>  (662) 
nan

>  <Peripheral>  (662) 
nan

>  <Num_H_Atoms_ProtBoundConf>  (662) 
nan

>  <Num_Resolved_Atoms>  (662) 
nan

>  <Num_Not_Resolved_Atoms>  (662) 
nan

$$$$
CHEMBL1404701
     RDKit          3D

  0  0  0  0  0  0  0  0  0  0999 V3000
M  V30 BEGIN CTAB
M  V30 COUNTS 47 51 0 0 0
M  V30 BEGIN ATOM
M  V30 1 O 1.783345 -0.456192 2.824744 0
M  V30 2 C 0.850880 -0.024868 2.100001 0
M  V30 3 C 1.122032 1.277458 1.505406 0
M  V30 4 C 1.740837 1.204550 0.272454 0
M  V30 5 C 2.059495 2.359176 -0.412413 0
M  V30 6 C 2.682957 2.386868 -1.658991 0
M  V30 7 C 2.982209 3.562373 -2.306110 0
M  V30 8 C 2.655396 4.759946 -1.703545 0
M  V30 9 C 2.038851 4.723381 -0.470435 0
M  V30 10 C 1.738919 3.563393 0.177376 0
M  V30 11 O 1.152644 3.606333 1.346631 0
M  V30 12 C 0.839289 2.523442 2.017992 0
M  V30 13 O 0.277428 2.514479 3.140804 0
M  V30 14 N -0.324556 -0.808208 1.934813 0
M  V30 15 C -0.350497 -2.076317 2.636326 0
M  V30 16 C 0.187165 -3.202226 1.850538 0
M  V30 17 C 1.460255 -3.670686 1.775224 0
M  V30 18 C 1.809535 -4.745799 0.984982 0
M  V30 19 C 0.852367 -5.383986 0.236402 0
M  V30 20 C -0.449947 -4.925890 0.296277 0
M  V30 21 C -0.792381 -3.836636 1.099666 0
M  V30 22 O -1.191642 -5.755656 -0.556351 0
M  V30 23 C -0.263348 -6.391812 -1.439785 0
M  V30 24 O 0.882072 -6.454171 -0.626494 0
M  V30 25 C -1.425991 -0.352159 1.108720 0
M  V30 26 C -2.424230 0.441902 1.872281 0
M  V30 27 C -3.509679 -0.162611 2.497109 0
M  V30 28 C -4.270495 0.801196 3.129155 0
M  V30 29 C -3.591399 1.978999 2.850105 0
M  V30 30 O -2.533955 1.706599 2.120939 0
M  V30 31 H 2.018960 0.284600 -0.244563 0
M  V30 32 H 2.903331 1.409243 -2.058250 0
M  V30 33 H 3.465943 3.528853 -3.270949 0
M  V30 34 H 2.885478 5.684709 -2.201839 0
M  V30 35 H 1.794965 5.681462 -0.023646 0
M  V30 36 H -1.365581 -2.292878 3.046516 0
M  V30 37 H 0.294691 -2.023565 3.562275 0
M  V30 38 H 2.173954 -3.138046 2.379932 0
M  V30 39 H 2.853655 -5.050144 0.988174 0
M  V30 40 H -1.844026 -3.570686 1.063495 0
M  V30 41 H -0.103206 -5.778835 -2.345486 0
M  V30 42 H -0.671942 -7.397657 -1.670440 0
M  V30 43 H -1.041366 0.267043 0.252772 0
M  V30 44 H -1.929020 -1.213186 0.624395 0
M  V30 45 H -3.795232 -1.217670 2.536075 0
M  V30 46 H -5.186514 0.723460 3.716893 0
M  V30 47 H -3.851558 2.996150 3.162418 0
M  V30 END ATOM
M  V30 BEGIN BOND
M  V30 1 2 1 2
M  V30 2 1 2 3
M  V30 3 2 3 4
M  V30 4 1 4 5
M  V30 5 2 5 6
M  V30 6 1 6 7
M  V30 7 2 7 8
M  V30 8 1 8 9
M  V30 9 2 9 10
M  V30 10 1 10 11
M  V30 11 1 11 12
M  V30 12 2 12 13
M  V30 13 1 2 14
M  V30 14 1 14 15
M  V30 15 1 15 16
M  V30 16 2 16 17
M  V30 17 1 17 18
M  V30 18 2 18 19
M  V30 19 1 19 20
M  V30 20 2 20 21
M  V30 21 1 20 22
M  V30 22 1 22 23
M  V30 23 1 23 24
M  V30 24 1 14 25
M  V30 25 1 25 26
M  V30 26 2 26 27
M  V30 27 1 27 28
M  V30 28 2 28 29
M  V30 29 1 29 30
M  V30 30 1 12 3
M  V30 31 1 21 16
M  V30 32 1 30 26
M  V30 33 1 10 5
M  V30 34 1 24 19
M  V30 35 1 4 31
M  V30 36 1 6 32
M  V30 37 1 7 33
M  V30 38 1 8 34
M  V30 39 1 9 35
M  V30 40 1 15 36
M  V30 41 1 15 37
M  V30 42 1 17 38
M  V30 43 1 18 39
M  V30 44 1 21 40
M  V30 45 1 23 41
M  V30 46 1 23 42
M  V30 47 1 25 43
M  V30 48 1 25 44
M  V30 49 1 27 45
M  V30 50 1 28 46
M  V30 51 1 29 47
M  V30 END BOND
M  V30 END CTAB
M  END
>  <Dataset>  (663) 
ChEMBL_Kinases

>  <Ligand_Instance>  (663) 
nan

>  <PDB_ID>  (663) 
nan

>  <Standardized_SMILES>  (663) 
O=C(c1cc2ccccc2oc1=O)N(Cc1ccc2c(c1)OCO2)Cc1ccco1

>  <Name>  (663) 
nan

>  <Pocket>  (663) 
nan

>  <ATP_Site>  (663) 
nan

>  <Peripheral>  (663) 
nan

>  <Num_H_Atoms_ProtBoundConf>  (663) 
nan

>  <Num_Resolved_Atoms>  (663) 
nan

>  <Num_Not_Resolved_Atoms>  (663) 
nan

$$$$
CHEMBL1404673
     RDKit          3D

  0  0  0  0  0  0  0  0  0  0999 V3000
M  V30 BEGIN CTAB
M  V30 COUNTS 44 45 0 0 0
M  V30 BEGIN ATOM
M  V30 1 C 0.438464 -4.476804 1.825617 0
M  V30 2 C 1.432554 -4.385861 0.679199 0
M  V30 3 C 0.725912 -4.831269 -0.600190 0
M  V30 4 C 2.589175 -5.301983 0.904836 0
M  V30 5 C 1.844046 -2.976918 0.488166 0
M  V30 6 O 3.062414 -2.666468 0.659319 0
M  V30 7 N 1.010571 -1.913211 0.127936 0
M  V30 8 C 1.421425 -0.579723 -0.040236 0
M  V30 9 S 2.987852 -0.147268 0.191923 0
M  V30 10 N 0.488637 0.412533 -0.429768 0
M  V30 11 C 0.721610 1.790857 -0.639138 0
M  V30 12 C 1.438637 2.383772 -1.676736 0
M  V30 13 C 1.566537 3.753790 -1.776445 0
M  V30 14 C 0.963898 4.569714 -0.815990 0
M  V30 15 C 0.236562 4.006524 0.239420 0
M  V30 16 C 0.135898 2.609584 0.297347 0
M  V30 17 N -0.622302 2.219097 1.430819 0
M  V30 18 C -0.340931 1.511459 2.665126 0
M  V30 19 C -1.650152 0.925944 3.153237 0
M  V30 20 C -2.538580 1.114396 1.932824 0
M  V30 21 C -2.061518 2.518092 1.522814 0
M  V30 22 H -0.601019 -4.364273 1.521496 0
M  V30 23 H 0.562449 -5.499347 2.288166 0
M  V30 24 H 0.677559 -3.767550 2.624099 0
M  V30 25 H -0.365491 -4.651051 -0.479336 0
M  V30 26 H 1.069933 -4.315161 -1.496408 0
M  V30 27 H 0.850218 -5.918248 -0.756978 0
M  V30 28 H 2.809473 -5.409593 2.002303 0
M  V30 29 H 3.532938 -4.943976 0.405531 0
M  V30 30 H 2.418357 -6.342944 0.560914 0
M  V30 31 H -0.004398 -2.175404 -0.022635 0
M  V30 32 H -0.518814 0.182676 -0.598119 0
M  V30 33 H 1.873061 1.676944 -2.372314 0
M  V30 34 H 2.141770 4.157386 -2.607924 0
M  V30 35 H 1.063528 5.660505 -0.892690 0
M  V30 36 H -0.203677 4.709372 0.943035 0
M  V30 37 H 0.347315 0.659146 2.517227 0
M  V30 38 H 0.033636 2.210346 3.447511 0
M  V30 39 H -1.550643 -0.128065 3.449161 0
M  V30 40 H -2.076079 1.567849 3.961260 0
M  V30 41 H -2.204961 0.385759 1.178560 0
M  V30 42 H -3.610846 1.076790 2.147459 0
M  V30 43 H -2.203358 3.206533 2.357573 0
M  V30 44 H -2.493774 2.815227 0.559615 0
M  V30 END ATOM
M  V30 BEGIN BOND
M  V30 1 1 1 2
M  V30 2 1 2 3
M  V30 3 1 2 4
M  V30 4 1 2 5
M  V30 5 2 5 6
M  V30 6 1 5 7
M  V30 7 1 7 8
M  V30 8 2 8 9
M  V30 9 1 8 10
M  V30 10 1 10 11
M  V30 11 2 11 12
M  V30 12 1 12 13
M  V30 13 2 13 14
M  V30 14 1 14 15
M  V30 15 2 15 16
M  V30 16 1 16 17
M  V30 17 1 17 18
M  V30 18 1 18 19
M  V30 19 1 19 20
M  V30 20 1 20 21
M  V30 21 1 16 11
M  V30 22 1 21 17
M  V30 23 1 1 22
M  V30 24 1 1 23
M  V30 25 1 1 24
M  V30 26 1 3 25
M  V30 27 1 3 26
M  V30 28 1 3 27
M  V30 29 1 4 28
M  V30 30 1 4 29
M  V30 31 1 4 30
M  V30 32 1 7 31
M  V30 33 1 10 32
M  V30 34 1 12 33
M  V30 35 1 13 34
M  V30 36 1 14 35
M  V30 37 1 15 36
M  V30 38 1 18 37
M  V30 39 1 18 38
M  V30 40 1 19 39
M  V30 41 1 19 40
M  V30 42 1 20 41
M  V30 43 1 20 42
M  V30 44 1 21 43
M  V30 45 1 21 44
M  V30 END BOND
M  V30 END CTAB
M  END
>  <Dataset>  (664) 
ChEMBL_Kinases

>  <Ligand_Instance>  (664) 
nan

>  <PDB_ID>  (664) 
nan

>  <Standardized_SMILES>  (664) 
CC(C)(C)C(=O)NC(=S)Nc1ccccc1N1CCCC1

>  <Name>  (664) 
nan

>  <Pocket>  (664) 
nan

>  <ATP_Site>  (664) 
nan

>  <Peripheral>  (664) 
nan

>  <Num_H_Atoms_ProtBoundConf>  (664) 
nan

>  <Num_Resolved_Atoms>  (664) 
nan

>  <Num_Not_Resolved_Atoms>  (664) 
nan

$$$$
CHEMBL1404621
     RDKit          3D

  0  0  0  0  0  0  0  0  0  0999 V3000
M  V30 BEGIN CTAB
M  V30 COUNTS 59 62 0 0 0
M  V30 BEGIN ATOM
M  V30 1 O 0.311893 -2.130512 -0.160294 0
M  V30 2 C 0.783555 -2.719336 0.852019 0
M  V30 3 C 1.641570 -1.943393 1.789216 0
M  V30 4 N 1.777864 -0.560935 1.321898 0
M  V30 5 C 2.887580 -0.282312 0.431315 0
M  V30 6 C 4.091252 0.108486 1.244836 0
M  V30 7 C 5.272673 0.477397 0.409636 0
M  V30 8 C 5.322064 2.001283 0.489025 0
M  V30 9 C 4.022245 2.325038 1.156362 0
M  V30 10 O 3.820399 1.233784 1.993829 0
M  V30 11 C 0.746993 0.254825 1.864115 0
M  V30 12 O 0.091576 -0.562211 2.563842 0
M  V30 13 C 0.473083 1.694630 1.683144 0
M  V30 14 C -0.770021 2.111626 2.481115 0
M  V30 15 C -1.959618 1.333704 2.011987 0
M  V30 16 O -1.823599 0.493505 1.093228 0
M  V30 17 N -3.213646 1.545316 2.597174 0
M  V30 18 C -4.235698 0.735755 2.046571 0
M  V30 19 N -4.382272 -0.097608 1.217548 0
M  V30 20 C -5.523544 -0.696063 0.922497 0
M  V30 21 C -6.663215 -0.354098 1.610399 0
M  V30 22 S -5.957353 0.957728 2.777654 0
M  V30 23 N 0.554437 -4.086831 1.169793 0
M  V30 24 C -0.271383 -4.963614 0.331393 0
M  V30 25 C -0.790762 -4.184137 -0.848359 0
M  V30 26 C -0.040608 -4.150904 -2.011932 0
M  V30 27 C -0.469484 -3.451905 -3.122457 0
M  V30 28 C -1.664217 -2.765385 -3.098209 0
M  V30 29 C -2.419047 -2.800297 -1.923839 0
M  V30 30 C -2.006458 -3.499776 -0.788571 0
M  V30 31 O -3.581005 -2.034801 -2.142080 0
M  V30 32 C -3.181784 -1.085193 -3.142793 0
M  V30 33 O -2.420614 -1.968129 -3.979709 0
M  V30 34 H 1.329012 -2.012390 2.837495 0
M  V30 35 H 2.649559 -2.451914 1.757448 0
M  V30 36 H 2.575165 0.587402 -0.188082 0
M  V30 37 H 3.050403 -1.167967 -0.191550 0
M  V30 38 H 4.358816 -0.704694 1.958160 0
M  V30 39 H 6.213741 0.094709 0.891177 0
M  V30 40 H 5.194180 0.178475 -0.657205 0
M  V30 41 H 6.162841 2.368724 1.086215 0
M  V30 42 H 5.361384 2.451154 -0.524024 0
M  V30 43 H 4.122062 3.225518 1.791723 0
M  V30 44 H 3.207902 2.442868 0.404367 0
M  V30 45 H 1.290463 2.298822 2.128862 0
M  V30 46 H 0.403338 1.992621 0.625569 0
M  V30 47 H -0.934221 3.201927 2.395765 0
M  V30 48 H -0.530203 1.890064 3.542634 0
M  V30 49 H -3.326580 2.234479 3.350898 0
M  V30 50 H -5.437899 -1.443749 0.115790 0
M  V30 51 H -7.620678 -0.855915 1.363075 0
M  V30 52 H 0.959571 -4.544747 2.015874 0
M  V30 53 H -1.112963 -5.396643 0.881338 0
M  V30 54 H 0.405301 -5.741139 -0.068608 0
M  V30 55 H 0.902571 -4.680549 -2.061666 0
M  V30 56 H 0.073818 -3.390517 -4.057384 0
M  V30 57 H -2.591204 -3.518444 0.100370 0
M  V30 58 H -2.444415 -0.398784 -2.677687 0
M  V30 59 H -4.015953 -0.609890 -3.651364 0
M  V30 END ATOM
M  V30 BEGIN BOND
M  V30 1 2 1 2
M  V30 2 1 2 3
M  V30 3 1 3 4
M  V30 4 1 4 5
M  V30 5 1 5 6
M  V30 6 1 6 7
M  V30 7 1 7 8
M  V30 8 1 8 9
M  V30 9 1 9 10
M  V30 10 1 4 11
M  V30 11 2 11 12
M  V30 12 1 11 13
M  V30 13 1 13 14
M  V30 14 1 14 15
M  V30 15 2 15 16
M  V30 16 1 15 17
M  V30 17 1 17 18
M  V30 18 2 18 19
M  V30 19 1 19 20
M  V30 20 2 20 21
M  V30 21 1 21 22
M  V30 22 1 2 23
M  V30 23 1 23 24
M  V30 24 1 24 25
M  V30 25 2 25 26
M  V30 26 1 26 27
M  V30 27 2 27 28
M  V30 28 1 28 29
M  V30 29 2 29 30
M  V30 30 1 29 31
M  V30 31 1 31 32
M  V30 32 1 32 33
M  V30 33 1 10 6
M  V30 34 1 22 18
M  V30 35 1 30 25
M  V30 36 1 33 28
M  V30 37 1 3 34
M  V30 38 1 3 35
M  V30 39 1 5 36
M  V30 40 1 5 37
M  V30 41 1 6 38
M  V30 42 1 7 39
M  V30 43 1 7 40
M  V30 44 1 8 41
M  V30 45 1 8 42
M  V30 46 1 9 43
M  V30 47 1 9 44
M  V30 48 1 13 45
M  V30 49 1 13 46
M  V30 50 1 14 47
M  V30 51 1 14 48
M  V30 52 1 17 49
M  V30 53 1 20 50
M  V30 54 1 21 51
M  V30 55 1 23 52
M  V30 56 1 24 53
M  V30 57 1 24 54
M  V30 58 1 26 55
M  V30 59 1 27 56
M  V30 60 1 30 57
M  V30 61 1 32 58
M  V30 62 1 32 59
M  V30 END BOND
M  V30 END CTAB
M  END
>  <Dataset>  (665) 
ChEMBL_Kinases

>  <Ligand_Instance>  (665) 
nan

>  <PDB_ID>  (665) 
nan

>  <Standardized_SMILES>  (665) 
O=C(CN(CC1CCCO1)C(=O)CCC(=O)Nc1nccs1)NCc1ccc2c(c1)OCO2

>  <Name>  (665) 
nan

>  <Pocket>  (665) 
nan

>  <ATP_Site>  (665) 
nan

>  <Peripheral>  (665) 
nan

>  <Num_H_Atoms_ProtBoundConf>  (665) 
nan

>  <Num_Resolved_Atoms>  (665) 
nan

>  <Num_Not_Resolved_Atoms>  (665) 
nan

$$$$
CHEMBL1404557
     RDKit          3D

  0  0  0  0  0  0  0  0  0  0999 V3000
M  V30 BEGIN CTAB
M  V30 COUNTS 34 36 0 0 0
M  V30 BEGIN ATOM
M  V30 1 C -0.186439 -3.142146 4.579318 0
M  V30 2 O 0.123044 -2.552018 3.356384 0
M  V30 3 C -0.569762 -1.572255 2.693424 0
M  V30 4 O -1.493020 -1.425831 3.523006 0
M  V30 5 C -0.183389 -1.001312 1.411979 0
M  V30 6 C 0.957063 -1.415710 0.763513 0
M  V30 7 N 0.938347 -0.635500 -0.358207 0
M  V30 8 C 1.953491 -0.698158 -1.383512 0
M  V30 9 C 3.259449 -0.419953 -1.016509 0
M  V30 10 C 4.273840 -0.466681 -1.966399 0
M  V30 11 C 3.950317 -0.793258 -3.268006 0
M  V30 12 C 2.638084 -1.069964 -3.623450 0
M  V30 13 C 1.613772 -1.026440 -2.681472 0
M  V30 14 N -0.103882 0.160205 -0.376384 0
M  V30 15 C -0.864855 -0.022255 0.727731 0
M  V30 16 C -2.089874 0.691399 1.037670 0
M  V30 17 C -3.302997 0.207949 1.475394 0
M  V30 18 C -4.350661 1.062825 1.721099 0
M  V30 19 C -4.205797 2.427442 1.532684 0
M  V30 20 N -3.019556 2.920724 1.102285 0
M  V30 21 C -1.990970 2.074818 0.861857 0
M  V30 22 H -0.849695 -2.563674 5.224813 0
M  V30 23 H -0.745055 -4.093771 4.355462 0
M  V30 24 H 0.734154 -3.473818 5.133864 0
M  V30 25 H 1.673733 -2.163937 1.070228 0
M  V30 26 H 3.549894 -0.159584 -0.002193 0
M  V30 27 H 5.313546 -0.256743 -1.728516 0
M  V30 28 H 4.718880 -0.836332 -4.023741 0
M  V30 29 H 2.437141 -1.320419 -4.655623 0
M  V30 30 H 0.586632 -1.243216 -2.960537 0
M  V30 31 H -3.327312 -0.864214 1.589999 0
M  V30 32 H -5.248346 0.544909 2.061874 0
M  V30 33 H -5.085654 2.982374 1.756024 0
M  V30 34 H -1.105728 2.601057 0.524186 0
M  V30 END ATOM
M  V30 BEGIN BOND
M  V30 1 1 1 2
M  V30 2 1 2 3
M  V30 3 2 3 4
M  V30 4 1 3 5
M  V30 5 2 5 6
M  V30 6 1 6 7
M  V30 7 1 7 8
M  V30 8 2 8 9
M  V30 9 1 9 10
M  V30 10 2 10 11
M  V30 11 1 11 12
M  V30 12 2 12 13
M  V30 13 1 7 14
M  V30 14 2 14 15
M  V30 15 1 15 16
M  V30 16 2 16 17
M  V30 17 1 17 18
M  V30 18 2 18 19
M  V30 19 1 19 20
M  V30 20 2 20 21
M  V30 21 1 15 5
M  V30 22 1 21 16
M  V30 23 1 13 8
M  V30 24 1 1 22
M  V30 25 1 1 23
M  V30 26 1 1 24
M  V30 27 1 6 25
M  V30 28 1 9 26
M  V30 29 1 10 27
M  V30 30 1 11 28
M  V30 31 1 12 29
M  V30 32 1 13 30
M  V30 33 1 17 31
M  V30 34 1 18 32
M  V30 35 1 19 33
M  V30 36 1 21 34
M  V30 END BOND
M  V30 END CTAB
M  END
>  <Dataset>  (666) 
ChEMBL_Kinases

>  <Ligand_Instance>  (666) 
nan

>  <PDB_ID>  (666) 
nan

>  <Standardized_SMILES>  (666) 
COC(=O)c1cn(-c2ccccc2)nc1-c1cccnc1

>  <Name>  (666) 
nan

>  <Pocket>  (666) 
nan

>  <ATP_Site>  (666) 
nan

>  <Peripheral>  (666) 
nan

>  <Num_H_Atoms_ProtBoundConf>  (666) 
nan

>  <Num_Resolved_Atoms>  (666) 
nan

>  <Num_Not_Resolved_Atoms>  (666) 
nan

$$$$
CHEMBL1404538
     RDKit          3D

  0  0  0  0  0  0  0  0  0  0999 V3000
M  V30 BEGIN CTAB
M  V30 COUNTS 41 45 0 0 0
M  V30 BEGIN ATOM
M  V30 1 C 3.598845 -4.196291 0.984183 0
M  V30 2 C 2.547720 -3.173102 1.268289 0
M  V30 3 C 1.336338 -3.493468 1.869800 0
M  V30 4 C 0.682427 -2.289747 1.942868 0
M  V30 5 N 1.422564 -1.292269 1.428807 0
M  V30 6 N 2.549155 -1.850986 1.025984 0
M  V30 7 C 1.022257 0.092394 1.355116 0
M  V30 8 C 1.084080 0.622064 -0.030509 0
M  V30 9 C 0.032093 0.293429 -0.888135 0
M  V30 10 C 0.020559 0.749350 -2.190531 0
M  V30 11 C 1.056870 1.536295 -2.649047 0
M  V30 12 C 2.120739 1.877484 -1.806612 0
M  V30 13 C 2.116885 1.410102 -0.498038 0
M  V30 14 O 3.022335 2.677867 -2.531177 0
M  V30 15 C 2.196999 3.269033 -3.545470 0
M  V30 16 O 1.377167 2.161692 -3.866113 0
M  V30 17 N -0.303175 0.262101 1.918196 0
M  V30 18 C -1.168448 -0.710579 2.483813 0
M  V30 19 C -2.398172 -0.354749 2.969945 0
M  V30 20 C -2.854972 1.057847 2.916495 0
M  V30 21 C -3.171377 -1.391214 3.505945 0
M  V30 22 C -2.683133 -2.689245 3.524364 0
M  V30 23 C -1.422788 -3.010721 3.018228 0
M  V30 24 C -0.638937 -1.984526 2.479333 0
M  V30 25 H 3.634913 -4.940310 1.806859 0
M  V30 26 H 3.409839 -4.750830 0.036367 0
M  V30 27 H 4.602946 -3.734791 0.949246 0
M  V30 28 H 1.004692 -4.466276 2.196253 0
M  V30 29 H 1.733845 0.684738 1.966461 0
M  V30 30 H -0.781485 -0.332404 -0.505593 0
M  V30 31 H -0.788384 0.500250 -2.860163 0
M  V30 32 H 2.928893 1.663698 0.164136 0
M  V30 33 H 1.624613 4.078824 -3.008162 0
M  V30 34 H 2.802685 3.648281 -4.367904 0
M  V30 35 H -0.560556 1.288058 1.846052 0
M  V30 36 H -3.325374 1.284717 1.937761 0
M  V30 37 H -2.050546 1.784380 3.148356 0
M  V30 38 H -3.681897 1.236972 3.663526 0
M  V30 39 H -4.155026 -1.137306 3.900420 0
M  V30 40 H -3.334394 -3.450405 3.955380 0
M  V30 41 H -1.057959 -4.026410 3.040354 0
M  V30 END ATOM
M  V30 BEGIN BOND
M  V30 1 1 1 2
M  V30 2 1 2 3
M  V30 3 2 3 4
M  V30 4 1 4 5
M  V30 5 1 5 6
M  V30 6 1 5 7
M  V30 7 1 7 8
M  V30 8 2 8 9
M  V30 9 1 9 10
M  V30 10 2 10 11
M  V30 11 1 11 12
M  V30 12 2 12 13
M  V30 13 1 12 14
M  V30 14 1 14 15
M  V30 15 1 15 16
M  V30 16 1 7 17
M  V30 17 1 17 18
M  V30 18 2 18 19
M  V30 19 1 19 20
M  V30 20 1 19 21
M  V30 21 2 21 22
M  V30 22 1 22 23
M  V30 23 2 23 24
M  V30 24 2 6 2
M  V30 25 1 13 8
M  V30 26 1 24 18
M  V30 27 1 24 4
M  V30 28 1 16 11
M  V30 29 1 1 25
M  V30 30 1 1 26
M  V30 31 1 1 27
M  V30 32 1 3 28
M  V30 33 1 7 29
M  V30 34 1 9 30
M  V30 35 1 10 31
M  V30 36 1 13 32
M  V30 37 1 15 33
M  V30 38 1 15 34
M  V30 39 1 17 35
M  V30 40 1 20 36
M  V30 41 1 20 37
M  V30 42 1 20 38
M  V30 43 1 21 39
M  V30 44 1 22 40
M  V30 45 1 23 41
M  V30 END BOND
M  V30 END CTAB
M  END
>  <Dataset>  (667) 
ChEMBL_Kinases

>  <Ligand_Instance>  (667) 
nan

>  <PDB_ID>  (667) 
nan

>  <Standardized_SMILES>  (667) 
Cc1cc2n(n1)C(c1ccc3c(c1)OCO3)Nc1c(C)cccc1-2

>  <Name>  (667) 
nan

>  <Pocket>  (667) 
nan

>  <ATP_Site>  (667) 
nan

>  <Peripheral>  (667) 
nan

>  <Num_H_Atoms_ProtBoundConf>  (667) 
nan

>  <Num_Resolved_Atoms>  (667) 
nan

>  <Num_Not_Resolved_Atoms>  (667) 
nan

$$$$
CHEMBL1404474
     RDKit          3D

  0  0  0  0  0  0  0  0  0  0999 V3000
M  V30 BEGIN CTAB
M  V30 COUNTS 44 46 0 0 0
M  V30 BEGIN ATOM
M  V30 1 C 1.534230 -8.021993 -1.281274 0
M  V30 2 C 1.397644 -6.637372 -0.744965 0
M  V30 3 C 2.509398 -6.104727 -0.081347 0
M  V30 4 C 2.423244 -4.806123 0.438437 0
M  V30 5 C 1.252728 -4.090494 0.283738 0
M  V30 6 N 1.111374 -2.790794 0.783272 0
M  V30 7 C 1.410987 -1.575025 0.109089 0
M  V30 8 O 1.853643 -1.635864 -1.066129 0
M  V30 9 C 1.233637 -0.250966 0.704786 0
M  V30 10 C 1.567913 0.834154 -0.082335 0
M  V30 11 C 1.437968 2.148246 0.385195 0
M  V30 12 C 0.956430 2.353224 1.684151 0
M  V30 13 S 0.797387 3.954796 2.261760 0
M  V30 14 O 1.903364 4.785922 1.625869 0
M  V30 15 O 1.126867 3.942196 3.734258 0
M  V30 16 N -0.660000 4.745494 2.001940 0
M  V30 17 C -1.088639 4.968898 0.677703 0
M  V30 18 C -2.004805 3.843916 0.348657 0
M  V30 19 C -2.394655 3.251496 1.689219 0
M  V30 20 C -1.812197 4.215916 2.671360 0
M  V30 21 C 0.631319 1.247560 2.445227 0
M  V30 22 C 0.757750 -0.068913 1.986461 0
M  V30 23 C 0.177288 -4.633986 -0.370272 0
M  V30 24 C 0.213607 -5.906660 -0.898391 0
M  V30 25 H 1.467111 -8.722819 -0.416933 0
M  V30 26 H 0.696572 -8.264140 -1.963832 0
M  V30 27 H 2.532316 -8.065220 -1.753223 0
M  V30 28 H 3.404254 -6.692219 0.019647 0
M  V30 29 H 3.280555 -4.401028 0.947966 0
M  V30 30 H 0.743229 -2.755439 1.760175 0
M  V30 31 H 1.950426 0.770663 -1.105354 0
M  V30 32 H 1.704449 2.999191 -0.243662 0
M  V30 33 H -0.288785 5.138092 -0.062070 0
M  V30 34 H -1.682162 5.925485 0.674924 0
M  V30 35 H -1.581157 3.089303 -0.324969 0
M  V30 36 H -2.929106 4.232811 -0.133851 0
M  V30 37 H -3.513474 3.276099 1.819768 0
M  V30 38 H -2.022489 2.228079 1.822785 0
M  V30 39 H -1.596490 3.766300 3.657089 0
M  V30 40 H -2.541616 5.071789 2.764757 0
M  V30 41 H 0.260043 1.427943 3.449043 0
M  V30 42 H 0.496976 -0.919138 2.601787 0
M  V30 43 H -0.759348 -4.102434 -0.512017 0
M  V30 44 H -0.559897 -6.443041 -1.430852 0
M  V30 END ATOM
M  V30 BEGIN BOND
M  V30 1 1 1 2
M  V30 2 2 2 3
M  V30 3 1 3 4
M  V30 4 2 4 5
M  V30 5 1 5 6
M  V30 6 1 6 7
M  V30 7 2 7 8
M  V30 8 1 7 9
M  V30 9 2 9 10
M  V30 10 1 10 11
M  V30 11 2 11 12
M  V30 12 1 12 13
M  V30 13 2 13 14
M  V30 14 2 13 15
M  V30 15 1 13 16
M  V30 16 1 16 17
M  V30 17 1 17 18
M  V30 18 1 18 19
M  V30 19 1 19 20
M  V30 20 1 12 21
M  V30 21 2 21 22
M  V30 22 1 5 23
M  V30 23 2 23 24
M  V30 24 1 24 2
M  V30 25 1 22 9
M  V30 26 1 20 16
M  V30 27 1 1 25
M  V30 28 1 1 26
M  V30 29 1 1 27
M  V30 30 1 3 28
M  V30 31 1 4 29
M  V30 32 1 6 30
M  V30 33 1 10 31
M  V30 34 1 11 32
M  V30 35 1 17 33
M  V30 36 1 17 34
M  V30 37 1 18 35
M  V30 38 1 18 36
M  V30 39 1 19 37
M  V30 40 1 19 38
M  V30 41 1 20 39
M  V30 42 1 20 40
M  V30 43 1 21 41
M  V30 44 1 22 42
M  V30 45 1 23 43
M  V30 46 1 24 44
M  V30 END BOND
M  V30 END CTAB
M  END
>  <Dataset>  (668) 
ChEMBL_Kinases

>  <Ligand_Instance>  (668) 
nan

>  <PDB_ID>  (668) 
nan

>  <Standardized_SMILES>  (668) 
Cc1ccc(NC(=O)c2ccc(S(=O)(=O)N3CCCC3)cc2)cc1

>  <Name>  (668) 
nan

>  <Pocket>  (668) 
nan

>  <ATP_Site>  (668) 
nan

>  <Peripheral>  (668) 
nan

>  <Num_H_Atoms_ProtBoundConf>  (668) 
nan

>  <Num_Resolved_Atoms>  (668) 
nan

>  <Num_Not_Resolved_Atoms>  (668) 
nan

$$$$
CHEMBL1374585
     RDKit          3D

  0  0  0  0  0  0  0  0  0  0999 V3000
M  V30 BEGIN CTAB
M  V30 COUNTS 39 41 0 0 0
M  V30 BEGIN ATOM
M  V30 1 C -1.583688 -3.123918 0.571499 0
M  V30 2 O -0.844338 -2.504858 -0.438788 0
M  V30 3 C 0.526107 -2.503141 -0.464546 0
M  V30 4 C 1.315953 -3.118097 0.510754 0
M  V30 5 C 2.686778 -3.011953 0.313600 0
M  V30 6 C 3.338532 -2.377468 -0.720762 0
M  V30 7 C 2.472528 -1.801378 -1.631063 0
M  V30 8 C 1.096088 -1.845414 -1.534038 0
M  V30 9 C 0.249527 -1.183701 -2.573956 0
M  V30 10 N -0.274349 0.070259 -2.109759 0
M  V30 11 C -1.070628 0.435454 -0.993642 0
M  V30 12 C -0.369676 0.714410 0.167031 0
M  V30 13 C -0.891641 1.094479 1.382469 0
M  V30 14 C -0.128064 1.382915 2.592329 0
M  V30 15 C 1.258548 1.258986 2.588735 0
M  V30 16 C 1.940094 1.547490 3.776786 0
M  V30 17 C 1.212956 1.934312 4.875518 0
M  V30 18 C -0.170194 2.065458 4.904400 0
M  V30 19 C -0.817666 1.774895 3.718913 0
M  V30 20 Cl -2.552757 1.943275 3.755883 0
M  V30 21 N -2.243383 1.188180 1.379763 0
M  V30 22 C -2.979549 0.924388 0.265988 0
M  V30 23 N -2.425966 0.555849 -0.901151 0
M  V30 24 H -1.343660 -2.783672 1.599927 0
M  V30 25 H -1.371319 -4.209081 0.556616 0
M  V30 26 H -2.677745 -2.919228 0.405335 0
M  V30 27 H 0.856213 -3.620364 1.327130 0
M  V30 28 H 3.267692 -3.501858 1.089980 0
M  V30 29 H 4.403520 -2.353729 -0.778014 0
M  V30 30 H 2.907279 -1.269143 -2.492886 0
M  V30 31 H -0.542476 -1.935871 -2.837599 0
M  V30 32 H 0.856190 -1.052846 -3.490020 0
M  V30 33 H -0.155068 1.024296 -2.557068 0
M  V30 34 H 0.715985 0.633312 0.143165 0
M  V30 35 H 1.843452 0.959711 1.739872 0
M  V30 36 H 3.016104 1.455358 3.784372 0
M  V30 37 H 1.795062 2.142403 5.761352 0
M  V30 38 H -0.666858 2.375077 5.810212 0
M  V30 39 H -4.062619 0.994408 0.247776 0
M  V30 END ATOM
M  V30 BEGIN BOND
M  V30 1 1 1 2
M  V30 2 1 2 3
M  V30 3 2 3 4
M  V30 4 1 4 5
M  V30 5 2 5 6
M  V30 6 1 6 7
M  V30 7 2 7 8
M  V30 8 1 8 9
M  V30 9 1 9 10
M  V30 10 1 10 11
M  V30 11 2 11 12
M  V30 12 1 12 13
M  V30 13 1 13 14
M  V30 14 2 14 15
M  V30 15 1 15 16
M  V30 16 2 16 17
M  V30 17 1 17 18
M  V30 18 2 18 19
M  V30 19 1 19 20
M  V30 20 2 13 21
M  V30 21 1 21 22
M  V30 22 2 22 23
M  V30 23 1 8 3
M  V30 24 1 23 11
M  V30 25 1 19 14
M  V30 26 1 1 24
M  V30 27 1 1 25
M  V30 28 1 1 26
M  V30 29 1 4 27
M  V30 30 1 5 28
M  V30 31 1 6 29
M  V30 32 1 7 30
M  V30 33 1 9 31
M  V30 34 1 9 32
M  V30 35 1 10 33
M  V30 36 1 12 34
M  V30 37 1 15 35
M  V30 38 1 16 36
M  V30 39 1 17 37
M  V30 40 1 18 38
M  V30 41 1 22 39
M  V30 END BOND
M  V30 END CTAB
M  END
>  <Dataset>  (669) 
ChEMBL_Kinases

>  <Ligand_Instance>  (669) 
nan

>  <PDB_ID>  (669) 
nan

>  <Standardized_SMILES>  (669) 
COc1ccccc1CNc1cc(-c2ccccc2Cl)ncn1

>  <Name>  (669) 
nan

>  <Pocket>  (669) 
nan

>  <ATP_Site>  (669) 
nan

>  <Peripheral>  (669) 
nan

>  <Num_H_Atoms_ProtBoundConf>  (669) 
nan

>  <Num_Resolved_Atoms>  (669) 
nan

>  <Num_Not_Resolved_Atoms>  (669) 
nan

$$$$
CHEMBL1404093
     RDKit          3D

  0  0  0  0  0  0  0  0  0  0999 V3000
M  V30 BEGIN CTAB
M  V30 COUNTS 40 43 0 0 0
M  V30 BEGIN ATOM
M  V30 1 C -0.258386 -5.853966 1.311518 0
M  V30 2 N 0.464863 -4.665922 1.787140 0
M  V30 3 C 0.857273 -4.629429 3.184384 0
M  V30 4 C 0.917721 -3.452453 1.193505 0
M  V30 5 N 2.129019 -3.261215 0.641804 0
M  V30 6 C 2.422862 -2.044134 0.108116 0
M  V30 7 C 1.474749 -1.052840 0.150187 0
M  V30 8 N 1.747177 0.159136 -0.374306 0
M  V30 9 C 0.831142 1.147727 -0.345450 0
M  V30 10 C 1.037603 2.503310 -0.893785 0
M  V30 11 C 0.079865 3.131266 -1.662304 0
M  V30 12 C 0.379245 4.400140 -2.124105 0
M  V30 13 C 1.606707 4.998373 -1.811532 0
M  V30 14 Cl 1.989365 6.623251 -2.403785 0
M  V30 15 C 2.548217 4.321179 -1.027139 0
M  V30 16 C 2.262386 3.036723 -0.551156 0
M  V30 17 C -0.431733 0.956888 0.226703 0
M  V30 18 O -1.301474 1.835654 0.274457 0
M  V30 19 N -0.684014 -0.240436 0.738175 0
M  V30 20 C -1.935197 -0.623564 1.371211 0
M  V30 21 C -1.797134 -0.647043 2.901687 0
M  V30 22 C -2.719024 0.306668 2.189119 0
M  V30 23 C 0.216181 -1.240246 0.719516 0
M  V30 24 N 0.019845 -2.476495 1.220695 0
M  V30 25 H -1.179481 -6.040836 1.902473 0
M  V30 26 H -0.566695 -5.678793 0.245767 0
M  V30 27 H 0.389557 -6.743053 1.410756 0
M  V30 28 H 1.959293 -4.475292 3.284813 0
M  V30 29 H 0.626390 -5.597552 3.694806 0
M  V30 30 H 0.335985 -3.777219 3.655831 0
M  V30 31 H 3.405243 -1.924189 -0.327258 0
M  V30 32 H -0.859971 2.632407 -1.882053 0
M  V30 33 H -0.347615 4.925329 -2.730537 0
M  V30 34 H 3.508021 4.762850 -0.769879 0
M  V30 35 H 3.001210 2.546078 0.044522 0
M  V30 36 H -2.481201 -1.523769 0.964448 0
M  V30 37 H -0.933720 -0.158088 3.373749 0
M  V30 38 H -2.230439 -1.516990 3.442873 0
M  V30 39 H -2.497553 1.403698 2.233873 0
M  V30 40 H -3.782802 0.084403 2.336990 0
M  V30 END ATOM
M  V30 BEGIN BOND
M  V30 1 1 1 2
M  V30 2 1 2 3
M  V30 3 1 2 4
M  V30 4 2 4 5
M  V30 5 1 5 6
M  V30 6 2 6 7
M  V30 7 1 7 8
M  V30 8 2 8 9
M  V30 9 1 9 10
M  V30 10 2 10 11
M  V30 11 1 11 12
M  V30 12 2 12 13
M  V30 13 1 13 14
M  V30 14 1 13 15
M  V30 15 2 15 16
M  V30 16 1 9 17
M  V30 17 2 17 18
M  V30 18 1 17 19
M  V30 19 1 19 20
M  V30 20 1 20 21
M  V30 21 1 21 22
M  V30 22 1 19 23
M  V30 23 2 23 24
M  V30 24 1 24 4
M  V30 25 1 23 7
M  V30 26 1 16 10
M  V30 27 1 22 20
M  V30 28 1 1 25
M  V30 29 1 1 26
M  V30 30 1 1 27
M  V30 31 1 3 28
M  V30 32 1 3 29
M  V30 33 1 3 30
M  V30 34 1 6 31
M  V30 35 1 11 32
M  V30 36 1 12 33
M  V30 37 1 15 34
M  V30 38 1 16 35
M  V30 39 1 20 36
M  V30 40 1 21 37
M  V30 41 1 21 38
M  V30 42 1 22 39
M  V30 43 1 22 40
M  V30 END BOND
M  V30 END CTAB
M  END
>  <Dataset>  (670) 
ChEMBL_Kinases

>  <Ligand_Instance>  (670) 
nan

>  <PDB_ID>  (670) 
nan

>  <Standardized_SMILES>  (670) 
CN(C)c1ncc2nc(-c3ccc(Cl)cc3)c(=O)n(C3CC3)c2n1

>  <Name>  (670) 
nan

>  <Pocket>  (670) 
nan

>  <ATP_Site>  (670) 
nan

>  <Peripheral>  (670) 
nan

>  <Num_H_Atoms_ProtBoundConf>  (670) 
nan

>  <Num_Resolved_Atoms>  (670) 
nan

>  <Num_Not_Resolved_Atoms>  (670) 
nan

$$$$
CHEMBL1404078
     RDKit          3D

  0  0  0  0  0  0  0  0  0  0999 V3000
M  V30 BEGIN CTAB
M  V30 COUNTS 33 35 0 0 0
M  V30 BEGIN ATOM
M  V30 1 N 0.566527 -2.406860 4.347405 0
M  V30 2 C 0.674015 -1.802886 3.356083 0
M  V30 3 C 0.807097 -1.034604 2.134761 0
M  V30 4 C 1.841858 -1.242440 1.245845 0
M  V30 5 C 2.820866 -2.276626 1.571098 0
M  V30 6 C 3.932865 -2.668962 0.851144 0
M  V30 7 C 4.576411 -3.687574 1.536711 0
M  V30 8 C 3.792002 -3.859398 2.669211 0
M  V30 9 O 2.778298 -3.008334 2.638462 0
M  V30 10 C 1.933157 -0.485497 0.087879 0
M  V30 11 C 0.943773 0.466541 -0.111133 0
M  V30 12 N -0.074023 0.706487 0.713755 0
M  V30 13 C -1.056847 1.721787 0.419220 0
M  V30 14 C -2.189786 1.187284 -0.357486 0
M  V30 15 C -3.331313 0.658425 0.206569 0
M  V30 16 C -4.412300 0.148933 -0.466561 0
M  V30 17 C -4.299192 0.191754 -1.855082 0
M  V30 18 F -5.347907 -0.303043 -2.579456 0
M  V30 19 C -3.177643 0.710650 -2.507819 0
M  V30 20 C -2.116892 1.211340 -1.744974 0
M  V30 21 C -0.132168 -0.051660 1.835641 0
M  V30 22 O -1.062591 0.112445 2.666635 0
M  V30 23 H 4.256564 -2.254034 -0.095246 0
M  V30 24 H 5.476212 -4.242080 1.284215 0
M  V30 25 H 4.008190 -4.600532 3.455051 0
M  V30 26 H 2.743941 -0.644635 -0.613801 0
M  V30 27 H 1.063301 1.029294 -1.030846 0
M  V30 28 H -0.589776 2.598159 -0.092364 0
M  V30 29 H -1.421991 2.125745 1.400596 0
M  V30 30 H -3.386001 0.640713 1.293667 0
M  V30 31 H -5.274017 -0.249782 0.030257 0
M  V30 32 H -3.131003 0.724768 -3.572892 0
M  V30 33 H -1.270650 1.602549 -2.281437 0
M  V30 END ATOM
M  V30 BEGIN BOND
M  V30 1 3 1 2
M  V30 2 1 2 3
M  V30 3 2 3 4
M  V30 4 1 4 5
M  V30 5 2 5 6
M  V30 6 1 6 7
M  V30 7 2 7 8
M  V30 8 1 8 9
M  V30 9 1 4 10
M  V30 10 2 10 11
M  V30 11 1 11 12
M  V30 12 1 12 13
M  V30 13 1 13 14
M  V30 14 2 14 15
M  V30 15 1 15 16
M  V30 16 2 16 17
M  V30 17 1 17 18
M  V30 18 1 17 19
M  V30 19 2 19 20
M  V30 20 1 12 21
M  V30 21 2 21 22
M  V30 22 1 21 3
M  V30 23 1 9 5
M  V30 24 1 20 14
M  V30 25 1 6 23
M  V30 26 1 7 24
M  V30 27 1 8 25
M  V30 28 1 10 26
M  V30 29 1 11 27
M  V30 30 1 13 28
M  V30 31 1 13 29
M  V30 32 1 15 30
M  V30 33 1 16 31
M  V30 34 1 19 32
M  V30 35 1 20 33
M  V30 END BOND
M  V30 END CTAB
M  END
>  <Dataset>  (671) 
ChEMBL_Kinases

>  <Ligand_Instance>  (671) 
nan

>  <PDB_ID>  (671) 
nan

>  <Standardized_SMILES>  (671) 
N#Cc1c(-c2ccco2)ccn(Cc2ccc(F)cc2)c1=O

>  <Name>  (671) 
nan

>  <Pocket>  (671) 
nan

>  <ATP_Site>  (671) 
nan

>  <Peripheral>  (671) 
nan

>  <Num_H_Atoms_ProtBoundConf>  (671) 
nan

>  <Num_Resolved_Atoms>  (671) 
nan

>  <Num_Not_Resolved_Atoms>  (671) 
nan

$$$$
CHEMBL1404072
     RDKit          3D

  0  0  0  0  0  0  0  0  0  0999 V3000
M  V30 BEGIN CTAB
M  V30 COUNTS 53 57 0 0 0
M  V30 BEGIN ATOM
M  V30 1 C -0.122291 -1.964044 4.161463 0
M  V30 2 C -0.972229 -1.045641 3.347973 0
M  V30 3 C -2.409736 -1.444671 3.358245 0
M  V30 4 C -0.432051 -0.803932 1.971817 0
M  V30 5 C -0.302043 -2.045859 1.153852 0
M  V30 6 N 0.189312 -1.725417 -0.169555 0
M  V30 7 C 1.562525 -1.302095 0.043276 0
M  V30 8 C 1.630787 0.004497 0.794423 0
M  V30 9 C 3.062291 0.425384 0.971052 0
M  V30 10 C 3.884947 -0.558131 1.730314 0
M  V30 11 C 3.734332 0.714347 -0.334630 0
M  V30 12 C 0.805129 1.107327 0.185646 0
M  V30 13 N -0.541096 0.568463 0.009346 0
M  V30 14 C -1.154290 0.305868 1.279462 0
M  V30 15 C -0.522818 -0.652308 -0.776289 0
M  V30 16 C 0.143819 -0.260165 -2.080472 0
M  V30 17 O 1.360854 -0.036144 -2.417286 0
M  V30 18 N -0.804885 -0.111686 -3.164703 0
M  V30 19 C -2.053267 -0.555809 -2.580061 0
M  V30 20 C -3.249788 -0.665981 -3.295214 0
M  V30 21 C -4.358726 -1.188051 -2.669522 0
M  V30 22 C -4.247108 -1.587376 -1.347755 0
M  V30 23 C -3.026931 -1.437658 -0.728863 0
M  V30 24 C -1.863098 -0.927925 -1.259947 0
M  V30 25 C 0.990375 -0.297538 2.131870 0
M  V30 26 O 1.501419 -0.170079 3.228361 0
M  V30 27 H 0.774791 -2.354455 3.657959 0
M  V30 28 H 0.188334 -1.540140 5.136370 0
M  V30 29 H -0.728525 -2.873432 4.429144 0
M  V30 30 H -0.925824 -0.040582 3.860820 0
M  V30 31 H -2.606213 -2.307160 2.673972 0
M  V30 32 H -3.101413 -0.591131 3.129693 0
M  V30 33 H -2.682541 -1.790987 4.377635 0
M  V30 34 H 0.550840 -2.622584 1.636850 0
M  V30 35 H -1.134779 -2.745569 1.194825 0
M  V30 36 H 1.961185 -2.065429 0.789308 0
M  V30 37 H 2.226470 -1.395712 -0.806169 0
M  V30 38 H 3.041759 1.385535 1.534366 0
M  V30 39 H 3.282893 -1.334260 2.273873 0
M  V30 40 H 4.650108 -1.047466 1.089191 0
M  V30 41 H 4.463572 -0.022132 2.508628 0
M  V30 42 H 3.809233 -0.123523 -1.029547 0
M  V30 43 H 4.784041 1.028109 -0.109278 0
M  V30 44 H 3.217658 1.587015 -0.828684 0
M  V30 45 H 0.691776 1.886004 0.990303 0
M  V30 46 H 1.150994 1.512930 -0.751744 0
M  V30 47 H -1.122074 1.211594 1.946426 0
M  V30 48 H -2.198195 0.072769 1.159958 0
M  V30 49 H -0.642284 0.231913 -4.136469 0
M  V30 50 H -3.352123 -0.359445 -4.324814 0
M  V30 51 H -5.275511 -1.267257 -3.232059 0
M  V30 52 H -5.141650 -1.982385 -0.927583 0
M  V30 53 H -3.101889 -1.811581 0.281829 0
M  V30 END ATOM
M  V30 BEGIN BOND
M  V30 1 1 1 2
M  V30 2 1 2 3
M  V30 3 1 2 4
M  V30 4 1 4 5
M  V30 5 1 5 6
M  V30 6 1 6 7
M  V30 7 1 7 8
M  V30 8 1 8 9
M  V30 9 1 9 10
M  V30 10 1 9 11
M  V30 11 1 8 12
M  V30 12 1 12 13
M  V30 13 1 13 14
M  V30 14 1 13 15
M  V30 15 1 15 16
M  V30 16 2 16 17
M  V30 17 1 16 18
M  V30 18 1 18 19
M  V30 19 2 19 20
M  V30 20 1 20 21
M  V30 21 2 21 22
M  V30 22 1 22 23
M  V30 23 2 23 24
M  V30 24 1 8 25
M  V30 25 2 25 26
M  V30 26 1 14 4
M  V30 27 1 24 15
M  V30 28 1 25 4
M  V30 29 1 15 6
M  V30 30 1 24 19
M  V30 31 1 1 27
M  V30 32 1 1 28
M  V30 33 1 1 29
M  V30 34 1 2 30
M  V30 35 1 3 31
M  V30 36 1 3 32
M  V30 37 1 3 33
M  V30 38 1 5 34
M  V30 39 1 5 35
M  V30 40 1 7 36
M  V30 41 1 7 37
M  V30 42 1 9 38
M  V30 43 1 10 39
M  V30 44 1 10 40
M  V30 45 1 10 41
M  V30 46 1 11 42
M  V30 47 1 11 43
M  V30 48 1 11 44
M  V30 49 1 12 45
M  V30 50 1 12 46
M  V30 51 1 14 47
M  V30 52 1 14 48
M  V30 53 1 18 49
M  V30 54 1 20 50
M  V30 55 1 21 51
M  V30 56 1 22 52
M  V30 57 1 23 53
M  V30 END BOND
M  V30 END CTAB
M  END
>  <Dataset>  (672) 
ChEMBL_Kinases

>  <Ligand_Instance>  (672) 
nan

>  <PDB_ID>  (672) 
nan

>  <Standardized_SMILES>  (672) 
CC(C)C12CN3CC(C(C)C)(CN(C1)C31C(=O)Nc3ccccc31)C2=O

>  <Name>  (672) 
nan

>  <Pocket>  (672) 
nan

>  <ATP_Site>  (672) 
nan

>  <Peripheral>  (672) 
nan

>  <Num_H_Atoms_ProtBoundConf>  (672) 
nan

>  <Num_Resolved_Atoms>  (672) 
nan

>  <Num_Not_Resolved_Atoms>  (672) 
nan

$$$$
CHEMBL1404004
     RDKit          3D

  0  0  0  0  0  0  0  0  0  0999 V3000
M  V30 BEGIN CTAB
M  V30 COUNTS 67 68 0 0 0
M  V30 BEGIN ATOM
M  V30 1 C -2.815584 -3.123720 1.177021 0
M  V30 2 C -1.384660 -3.375617 1.558144 0 CFG=2
M  V30 3 N -0.645652 -2.161033 1.834531 0
M  V30 4 C 0.129244 -1.330228 2.677217 0
M  V30 5 O -0.024755 -2.227581 3.538048 0
M  V30 6 C 0.758941 0.003825 2.442300 0 CFG=2
M  V30 7 C 0.117349 0.906311 3.489270 0
M  V30 8 C 0.626773 2.298400 3.561499 0
M  V30 9 C 0.530174 3.152971 2.363758 0
M  V30 10 N 1.084354 4.482541 2.719542 0
M  V30 11 C 2.363214 4.590553 2.787925 0
M  V30 12 N 3.104315 5.761369 3.109538 0
M  V30 13 N 3.244755 3.505440 2.537356 0
M  V30 14 N 0.539526 0.428964 1.094788 0
M  V30 15 C -0.104152 0.978381 -0.029166 0
M  V30 16 O -1.211231 1.303322 0.442375 0
M  V30 17 C 0.024253 1.291422 -1.429104 0
M  V30 18 C 0.045423 2.659169 -1.566973 0
M  V30 19 C 0.184328 3.357507 -2.762008 0
M  V30 20 N 0.200562 4.775995 -2.855687 0 CHG=1 VAL=4
M  V30 21 O 0.330734 5.289996 -3.979878 0
M  V30 22 O 0.083205 5.650735 -1.795733 0 CHG=-1 VAL=1
M  V30 23 C 0.307785 2.557820 -3.873559 0
M  V30 24 C 0.285189 1.164629 -3.731063 0
M  V30 25 I 0.517088 0.188356 -5.608664 0
M  V30 26 C 0.143967 0.490646 -2.523614 0
M  V30 27 N 0.154708 -0.883443 -2.866805 0
M  V30 28 C -0.864421 -1.917423 -2.791853 0
M  V30 29 C -0.498101 -3.166210 -3.490468 0
M  V30 30 C 0.685011 -3.929889 -3.039573 0
M  V30 31 C 0.617314 -4.616000 -1.715401 0 CFG=1
M  V30 32 C 1.970617 -5.273627 -1.534589 0
M  V30 33 N 2.725043 -4.918831 -0.359527 0
M  V30 34 O 2.584622 -6.095872 -2.232650 0
M  V30 35 N 0.331861 -3.722509 -0.630609 0
M  V30 36 C -0.703055 -3.932614 0.328932 0
M  V30 37 O -1.300712 -4.994386 0.073262 0
M  V30 38 H -2.977849 -3.039300 0.085335 0
M  V30 39 H -3.183421 -2.174417 1.630257 0
M  V30 40 H -3.490374 -3.910147 1.578964 0
M  V30 41 H -1.376333 -4.090288 2.375631 0
M  V30 42 H -0.719475 -1.579019 0.975214 0
M  V30 43 H 1.821232 0.057331 2.669863 0
M  V30 44 H -0.997190 0.878526 3.393014 0
M  V30 45 H 0.359835 0.434714 4.489091 0
M  V30 46 H 0.063601 2.804399 4.394997 0
M  V30 47 H 1.709146 2.288662 3.873436 0
M  V30 48 H 1.253521 2.826046 1.558468 0
M  V30 49 H -0.471639 3.378309 1.996681 0
M  V30 50 H 3.378792 6.722889 2.880025 0
M  V30 51 H 3.699013 5.767270 3.984118 0
M  V30 52 H 3.881457 2.743131 2.821161 0
M  V30 53 H 3.559113 3.080530 1.623395 0
M  V30 54 H 1.343214 0.233331 0.466760 0
M  V30 55 H -0.056234 3.342028 -0.705891 0
M  V30 56 H 0.418529 3.097132 -4.812086 0
M  V30 57 H 1.066653 -1.225393 -3.257722 0
M  V30 58 H -1.092492 -2.093527 -1.749642 0
M  V30 59 H -1.740913 -1.453341 -3.346682 0
M  V30 60 H -1.385725 -3.869299 -3.350210 0
M  V30 61 H -0.513824 -3.008900 -4.605243 0
M  V30 62 H 1.627789 -3.322907 -3.094058 0
M  V30 63 H 0.850063 -4.768564 -3.794248 0
M  V30 64 H -0.121432 -5.456445 -1.739740 0
M  V30 65 H 3.391340 -4.514895 0.355424 0
M  V30 66 H 3.379071 -4.528977 0.365947 0
M  V30 67 H 0.531987 -2.863800 -0.111376 0
M  V30 END ATOM
M  V30 BEGIN BOND
M  V30 1 1 1 2
M  V30 2 1 2 3
M  V30 3 1 3 4
M  V30 4 2 4 5
M  V30 5 1 4 6
M  V30 6 1 6 7
M  V30 7 1 7 8
M  V30 8 1 8 9
M  V30 9 1 9 10
M  V30 10 2 10 11 CFG=2
M  V30 11 1 11 12
M  V30 12 1 11 13
M  V30 13 1 6 14
M  V30 14 1 14 15
M  V30 15 2 15 16
M  V30 16 1 15 17
M  V30 17 2 17 18
M  V30 18 1 18 19
M  V30 19 1 19 20
M  V30 20 2 20 21
M  V30 21 1 20 22
M  V30 22 2 19 23
M  V30 23 1 23 24
M  V30 24 1 24 25
M  V30 25 2 24 26
M  V30 26 1 26 27
M  V30 27 1 27 28
M  V30 28 1 28 29
M  V30 29 1 29 30
M  V30 30 1 30 31
M  V30 31 1 31 32
M  V30 32 1 32 33
M  V30 33 2 32 34
M  V30 34 1 31 35
M  V30 35 1 35 36
M  V30 36 2 36 37
M  V30 37 1 36 2
M  V30 38 1 26 17
M  V30 39 1 1 38
M  V30 40 1 1 39
M  V30 41 1 1 40
M  V30 42 1 2 41 CFG=1
M  V30 43 1 3 42
M  V30 44 1 6 43 CFG=1
M  V30 45 1 7 44
M  V30 46 1 7 45
M  V30 47 1 8 46
M  V30 48 1 8 47
M  V30 49 1 9 48
M  V30 50 1 9 49
M  V30 51 1 12 50
M  V30 52 1 12 51
M  V30 53 1 13 52
M  V30 54 1 13 53
M  V30 55 1 14 54
M  V30 56 1 18 55
M  V30 57 1 23 56
M  V30 58 1 27 57
M  V30 59 1 28 58
M  V30 60 1 28 59
M  V30 61 1 29 60
M  V30 62 1 29 61
M  V30 63 1 30 62
M  V30 64 1 30 63
M  V30 65 1 31 64 CFG=3
M  V30 66 1 33 65
M  V30 67 1 33 66
M  V30 68 1 35 67
M  V30 END BOND
M  V30 END CTAB
M  END
>  <Dataset>  (673) 
ChEMBL_Kinases

>  <Ligand_Instance>  (673) 
nan

>  <PDB_ID>  (673) 
nan

>  <Standardized_SMILES>  (673) 
C[C@@H]1NC(=O)[C@H](CCCN=C(N)N)NC(=O)c2cc([N+](=O)[O-])cc(I)c2NCCC[C@@H](C(N)=O)NC1=O

>  <Name>  (673) 
nan

>  <Pocket>  (673) 
nan

>  <ATP_Site>  (673) 
nan

>  <Peripheral>  (673) 
nan

>  <Num_H_Atoms_ProtBoundConf>  (673) 
nan

>  <Num_Resolved_Atoms>  (673) 
nan

>  <Num_Not_Resolved_Atoms>  (673) 
nan

$$$$
CHEMBL1403888
     RDKit          3D

  0  0  0  0  0  0  0  0  0  0999 V3000
M  V30 BEGIN CTAB
M  V30 COUNTS 41 42 0 0 0
M  V30 BEGIN ATOM
M  V30 1 C -1.507540 -3.706437 3.443335 0
M  V30 2 C -1.016819 -4.963667 2.802057 0
M  V30 3 O 0.338806 -4.868754 2.449639 0
M  V30 4 C 0.870332 -3.950505 1.584593 0
M  V30 5 C 2.232530 -4.054325 1.395111 0
M  V30 6 C 2.880238 -3.180150 0.542910 0
M  V30 7 C 2.213921 -2.186261 -0.142662 0
M  V30 8 N 2.874099 -1.283792 -1.021147 0
M  V30 9 N 2.759342 -0.022136 -0.941766 0
M  V30 10 C 1.970441 0.655089 0.017243 0
M  V30 11 C 0.999983 1.457600 -0.554209 0
M  V30 12 C 0.108128 2.217383 0.199990 0
M  V30 13 C -0.935545 3.080933 -0.386637 0
M  V30 14 C -1.923097 2.301435 -1.247969 0
M  V30 15 C -0.321757 4.208004 -1.191102 0
M  V30 16 C 0.273053 2.103390 1.584110 0
M  V30 17 C 1.221553 1.319932 2.195404 0
M  V30 18 C 2.052962 0.609713 1.380938 0
M  V30 19 O 3.055282 -0.220801 1.876884 0
M  V30 20 C 0.848492 -2.108248 0.068783 0
M  V30 21 C 0.160668 -2.961417 0.911752 0
M  V30 22 H -0.725702 -2.908590 3.479425 0
M  V30 23 H -2.413691 -3.294513 2.954726 0
M  V30 24 H -1.816326 -3.947737 4.501663 0
M  V30 25 H -1.146800 -5.840563 3.477055 0
M  V30 26 H -1.653252 -5.152059 1.905108 0
M  V30 27 H 2.847732 -4.808857 1.893567 0
M  V30 28 H 3.965209 -3.284715 0.410135 0
M  V30 29 H 0.839400 1.573148 -1.636715 0
M  V30 30 H -1.497025 3.567624 0.433973 0
M  V30 31 H -2.977600 2.494041 -0.919937 0
M  V30 32 H -1.720423 1.209222 -1.192679 0
M  V30 33 H -1.883752 2.667788 -2.314660 0
M  V30 34 H 0.585057 4.557716 -0.637545 0
M  V30 35 H -1.080943 5.015017 -1.302832 0
M  V30 36 H 0.004237 3.868300 -2.195856 0
M  V30 37 H -0.401457 2.679398 2.232527 0
M  V30 38 H 1.303629 1.269657 3.267552 0
M  V30 39 H 2.834863 -0.931267 2.568029 0
M  V30 40 H 0.236803 -1.363813 -0.422021 0
M  V30 41 H -0.902195 -2.912833 1.086310 0
M  V30 END ATOM
M  V30 BEGIN BOND
M  V30 1 1 1 2
M  V30 2 1 2 3
M  V30 3 1 3 4
M  V30 4 2 4 5
M  V30 5 1 5 6
M  V30 6 2 6 7
M  V30 7 1 7 8
M  V30 8 2 8 9 CFG=2
M  V30 9 1 9 10
M  V30 10 2 10 11
M  V30 11 1 11 12
M  V30 12 1 12 13
M  V30 13 1 13 14
M  V30 14 1 13 15
M  V30 15 2 12 16
M  V30 16 1 16 17
M  V30 17 2 17 18
M  V30 18 1 18 19
M  V30 19 1 7 20
M  V30 20 2 20 21
M  V30 21 1 21 4
M  V30 22 1 18 10
M  V30 23 1 1 22
M  V30 24 1 1 23
M  V30 25 1 1 24
M  V30 26 1 2 25
M  V30 27 1 2 26
M  V30 28 1 5 27
M  V30 29 1 6 28
M  V30 30 1 11 29
M  V30 31 1 13 30
M  V30 32 1 14 31
M  V30 33 1 14 32
M  V30 34 1 14 33
M  V30 35 1 15 34
M  V30 36 1 15 35
M  V30 37 1 15 36
M  V30 38 1 16 37
M  V30 39 1 17 38
M  V30 40 1 19 39
M  V30 41 1 20 40
M  V30 42 1 21 41
M  V30 END BOND
M  V30 END CTAB
M  END
>  <Dataset>  (674) 
ChEMBL_Kinases

>  <Ligand_Instance>  (674) 
nan

>  <PDB_ID>  (674) 
nan

>  <Standardized_SMILES>  (674) 
CCOc1ccc(N=Nc2cc(C(C)C)ccc2O)cc1

>  <Name>  (674) 
nan

>  <Pocket>  (674) 
nan

>  <ATP_Site>  (674) 
nan

>  <Peripheral>  (674) 
nan

>  <Num_H_Atoms_ProtBoundConf>  (674) 
nan

>  <Num_Resolved_Atoms>  (674) 
nan

>  <Num_Not_Resolved_Atoms>  (674) 
nan

$$$$
CHEMBL1403858
     RDKit          3D

  0  0  0  0  0  0  0  0  0  0999 V3000
M  V30 BEGIN CTAB
M  V30 COUNTS 33 36 0 0 0
M  V30 BEGIN ATOM
M  V30 1 C -0.568594 -1.902536 4.413661 0
M  V30 2 C 0.450687 -2.236672 3.384472 0
M  V30 3 C 1.512143 -3.115186 3.408221 0
M  V30 4 O 2.167136 -3.099883 2.271909 0
M  V30 5 C 1.594205 -2.230166 1.442374 0
M  V30 6 C 1.841245 -1.806816 0.151552 0
M  V30 7 C 2.994112 -2.412276 -0.542683 0
M  V30 8 C 1.058502 -0.860486 -0.482315 0
M  V30 9 O 1.303995 -0.463666 -1.715746 0
M  V30 10 C 0.557161 0.438675 -2.319349 0
M  V30 11 O 0.801409 0.809184 -3.496352 0
M  V30 12 C -0.528102 1.025117 -1.699863 0
M  V30 13 C -0.833174 0.640429 -0.390993 0
M  V30 14 C -0.016415 -0.318350 0.211207 0
M  V30 15 C -0.308121 -0.704329 1.500200 0
M  V30 16 C 0.505503 -1.665171 2.111946 0
M  V30 17 C -2.045549 1.412290 0.060015 0
M  V30 18 C -2.748255 1.546634 -1.298500 0
M  V30 19 C -1.547807 2.054837 -2.106255 0
M  V30 20 H -1.595954 -1.810568 3.980003 0
M  V30 21 H -0.355737 -0.928364 4.886942 0
M  V30 22 H -0.652692 -2.732464 5.149480 0
M  V30 23 H 1.757882 -3.738846 4.281528 0
M  V30 24 H 3.944797 -2.295891 0.017691 0
M  V30 25 H 3.136223 -1.940701 -1.557496 0
M  V30 26 H 2.766046 -3.494039 -0.720000 0
M  V30 27 H -1.156605 -0.278394 2.051757 0
M  V30 28 H -1.737628 2.445556 0.390657 0
M  V30 29 H -2.645675 0.871927 0.792891 0
M  V30 30 H -3.006917 0.494853 -1.567372 0
M  V30 31 H -3.586839 2.242830 -1.284030 0
M  V30 32 H -1.321652 3.056150 -1.717346 0
M  V30 33 H -1.794352 2.014253 -3.173097 0
M  V30 END ATOM
M  V30 BEGIN BOND
M  V30 1 1 1 2
M  V30 2 2 2 3
M  V30 3 1 3 4
M  V30 4 1 4 5
M  V30 5 2 5 6
M  V30 6 1 6 7
M  V30 7 1 6 8
M  V30 8 1 8 9
M  V30 9 1 9 10
M  V30 10 2 10 11
M  V30 11 1 10 12
M  V30 12 2 12 13
M  V30 13 1 13 14
M  V30 14 1 14 15
M  V30 15 2 15 16
M  V30 16 1 13 17
M  V30 17 1 17 18
M  V30 18 1 18 19
M  V30 19 1 16 2
M  V30 20 1 16 5
M  V30 21 2 14 8
M  V30 22 1 19 12
M  V30 23 1 1 20
M  V30 24 1 1 21
M  V30 25 1 1 22
M  V30 26 1 3 23
M  V30 27 1 7 24
M  V30 28 1 7 25
M  V30 29 1 7 26
M  V30 30 1 15 27
M  V30 31 1 17 28
M  V30 32 1 17 29
M  V30 33 1 18 30
M  V30 34 1 18 31
M  V30 35 1 19 32
M  V30 36 1 19 33
M  V30 END BOND
M  V30 END CTAB
M  END
>  <Dataset>  (675) 
ChEMBL_Kinases

>  <Ligand_Instance>  (675) 
nan

>  <PDB_ID>  (675) 
nan

>  <Standardized_SMILES>  (675) 
Cc1coc2c(C)c3oc(=O)c4c(c3cc12)CCC4

>  <Name>  (675) 
nan

>  <Pocket>  (675) 
nan

>  <ATP_Site>  (675) 
nan

>  <Peripheral>  (675) 
nan

>  <Num_H_Atoms_ProtBoundConf>  (675) 
nan

>  <Num_Resolved_Atoms>  (675) 
nan

>  <Num_Not_Resolved_Atoms>  (675) 
nan

$$$$
CHEMBL1403793
     RDKit          3D

  0  0  0  0  0  0  0  0  0  0999 V3000
M  V30 BEGIN CTAB
M  V30 COUNTS 46 50 0 0 0
M  V30 BEGIN ATOM
M  V30 1 C -0.781313 -3.411896 0.525972 0
M  V30 2 N -1.798268 -2.810097 -0.270378 0
M  V30 3 C -1.743883 -3.038796 -1.665299 0
M  V30 4 C -1.594115 -1.820982 -2.536950 0
M  V30 5 N -1.029033 -0.766226 -1.667575 0
M  V30 6 C 0.293096 -0.360553 -1.984608 0
M  V30 7 N 0.645836 -0.438695 -3.302936 0
M  V30 8 C 1.834128 -0.039812 -3.772034 0
M  V30 9 N 2.750904 0.467599 -2.933078 0
M  V30 10 C 2.525763 0.595236 -1.616369 0
M  V30 11 C 3.416911 1.091964 -0.690452 0
M  V30 12 C 3.130673 1.184091 0.657144 0
M  V30 13 C 1.870113 0.744939 1.072359 0
M  V30 14 C 1.562380 0.840728 2.503280 0
M  V30 15 C 2.073193 1.833784 3.313382 0
M  V30 16 C 1.776278 1.915398 4.666372 0
M  V30 17 C 0.926469 0.938033 5.186716 0
M  V30 18 C 0.399552 -0.068326 4.401111 0
M  V30 19 C 0.716147 -0.119525 3.057354 0
M  V30 20 O -0.401761 -0.868796 5.227089 0
M  V30 21 C -0.632277 -0.192477 6.472935 0
M  V30 22 O 0.438303 0.734617 6.476741 0
M  V30 23 C 0.991119 0.251846 0.135623 0
M  V30 24 C 1.289474 0.167706 -1.202061 0
M  V30 25 C -2.054556 -0.412912 -0.721452 0
M  V30 26 C -2.332541 -1.581354 0.189700 0
M  V30 27 H 0.163057 -3.561726 -0.057988 0
M  V30 28 H -1.135313 -4.459243 0.757382 0
M  V30 29 H -0.603955 -2.878136 1.470583 0
M  V30 30 H -0.829613 -3.679484 -1.849842 0
M  V30 31 H -2.660388 -3.601160 -1.957493 0
M  V30 32 H -0.903299 -2.040107 -3.375903 0
M  V30 33 H -2.543836 -1.440364 -2.955566 0
M  V30 34 H 2.020817 -0.141358 -4.833441 0
M  V30 35 H 4.382445 1.419641 -1.063122 0
M  V30 36 H 3.884109 1.584898 1.312479 0
M  V30 37 H 2.720465 2.571127 2.897382 0
M  V30 38 H 2.174609 2.689170 5.296284 0
M  V30 39 H 0.326726 -0.882972 2.421846 0
M  V30 40 H -0.591289 -0.893305 7.322609 0
M  V30 41 H -1.619297 0.302075 6.364142 0
M  V30 42 H 0.074079 -0.067399 0.564112 0
M  V30 43 H -1.947541 0.547040 -0.221176 0
M  V30 44 H -3.019064 -0.289066 -1.322618 0
M  V30 45 H -1.857986 -1.353005 1.167241 0
M  V30 46 H -3.419022 -1.708593 0.428405 0
M  V30 END ATOM
M  V30 BEGIN BOND
M  V30 1 1 1 2
M  V30 2 1 2 3
M  V30 3 1 3 4
M  V30 4 1 4 5
M  V30 5 1 5 6
M  V30 6 2 6 7
M  V30 7 1 7 8
M  V30 8 2 8 9
M  V30 9 1 9 10
M  V30 10 2 10 11
M  V30 11 1 11 12
M  V30 12 2 12 13
M  V30 13 1 13 14
M  V30 14 2 14 15
M  V30 15 1 15 16
M  V30 16 2 16 17
M  V30 17 1 17 18
M  V30 18 2 18 19
M  V30 19 1 18 20
M  V30 20 1 20 21
M  V30 21 1 21 22
M  V30 22 1 13 23
M  V30 23 2 23 24
M  V30 24 1 5 25
M  V30 25 1 25 26
M  V30 26 1 26 2
M  V30 27 1 24 6
M  V30 28 1 24 10
M  V30 29 1 19 14
M  V30 30 1 22 17
M  V30 31 1 1 27
M  V30 32 1 1 28
M  V30 33 1 1 29
M  V30 34 1 3 30
M  V30 35 1 3 31
M  V30 36 1 4 32
M  V30 37 1 4 33
M  V30 38 1 8 34
M  V30 39 1 11 35
M  V30 40 1 12 36
M  V30 41 1 15 37
M  V30 42 1 16 38
M  V30 43 1 19 39
M  V30 44 1 21 40
M  V30 45 1 21 41
M  V30 46 1 23 42
M  V30 47 1 25 43
M  V30 48 1 25 44
M  V30 49 1 26 45
M  V30 50 1 26 46
M  V30 END BOND
M  V30 END CTAB
M  END
>  <Dataset>  (676) 
ChEMBL_Kinases

>  <Ligand_Instance>  (676) 
nan

>  <PDB_ID>  (676) 
nan

>  <Standardized_SMILES>  (676) 
CN1CCN(c2ncnc3ccc(-c4ccc5c(c4)OCO5)cc23)CC1

>  <Name>  (676) 
nan

>  <Pocket>  (676) 
nan

>  <ATP_Site>  (676) 
nan

>  <Peripheral>  (676) 
nan

>  <Num_H_Atoms_ProtBoundConf>  (676) 
nan

>  <Num_Resolved_Atoms>  (676) 
nan

>  <Num_Not_Resolved_Atoms>  (676) 
nan

$$$$
CHEMBL1403768
     RDKit          3D

  0  0  0  0  0  0  0  0  0  0999 V3000
M  V30 BEGIN CTAB
M  V30 COUNTS 43 44 0 0 0
M  V30 BEGIN ATOM
M  V30 1 C 2.267195 -3.090104 -2.724442 0
M  V30 2 O 1.748282 -2.210612 -1.752987 0
M  V30 3 C 2.198198 -2.310633 -0.445809 0
M  V30 4 C 3.154323 -3.310969 -0.224497 0
M  V30 5 C 3.707770 -3.540615 1.037830 0
M  V30 6 C 3.277345 -2.740853 2.074455 0
M  V30 7 C 2.343295 -1.776108 1.819558 0
M  V30 8 O 1.871865 -0.949798 2.809531 0
M  V30 9 C 2.247360 -0.959323 4.154282 0
M  V30 10 C 1.753990 -1.488589 0.611204 0
M  V30 11 O 0.835188 -0.612504 0.122596 0
M  V30 12 C 1.081586 0.609851 -0.509947 0
M  V30 13 C 1.756961 1.682843 0.239080 0
M  V30 14 C 1.096003 2.242387 1.444290 0
M  V30 15 S -0.491417 3.009510 1.233014 0
M  V30 16 C -1.832879 1.940610 0.828201 0
M  V30 17 N -2.390442 1.477967 1.966708 0
M  V30 18 C -3.459594 0.645076 1.947030 0
M  V30 19 C -4.140329 0.083045 3.169072 0
M  V30 20 C -4.035810 0.225153 0.767858 0
M  V30 21 C -3.460459 0.702125 -0.384951 0
M  V30 22 O -3.871307 0.414009 -1.682280 0
M  V30 23 N -2.406603 1.521570 -0.309199 0
M  V30 24 H 3.369257 -3.010665 -2.819759 0
M  V30 25 H 2.040124 -4.131052 -2.370840 0
M  V30 26 H 1.783390 -2.951188 -3.714116 0
M  V30 27 H 3.538509 -3.973567 -0.981003 0
M  V30 28 H 4.434304 -4.286513 1.249813 0
M  V30 29 H 3.614364 -2.802297 3.098907 0
M  V30 30 H 3.276170 -0.591834 4.341616 0
M  V30 31 H 2.180986 -1.970251 4.604201 0
M  V30 32 H 1.554371 -0.293416 4.710211 0
M  V30 33 H 0.152602 1.007981 -0.988344 0
M  V30 34 H 1.698682 0.318212 -1.438524 0
M  V30 35 H 1.990437 2.515129 -0.504372 0
M  V30 36 H 2.809568 1.352775 0.534159 0
M  V30 37 H 1.052646 1.481706 2.277584 0
M  V30 38 H 1.786297 3.034818 1.850984 0
M  V30 39 H -5.215683 0.381119 3.115600 0
M  V30 40 H -4.097045 -1.020304 3.117314 0
M  V30 41 H -3.747448 0.517567 4.098619 0
M  V30 42 H -4.881900 -0.431388 0.660260 0
M  V30 43 H -4.615183 0.909750 -2.144116 0
M  V30 END ATOM
M  V30 BEGIN BOND
M  V30 1 1 1 2
M  V30 2 1 2 3
M  V30 3 2 3 4
M  V30 4 1 4 5
M  V30 5 2 5 6
M  V30 6 1 6 7
M  V30 7 1 7 8
M  V30 8 1 8 9
M  V30 9 2 7 10
M  V30 10 1 10 11
M  V30 11 1 11 12
M  V30 12 1 12 13
M  V30 13 1 13 14
M  V30 14 1 14 15
M  V30 15 1 15 16
M  V30 16 2 16 17
M  V30 17 1 17 18
M  V30 18 1 18 19
M  V30 19 2 18 20
M  V30 20 1 20 21
M  V30 21 1 21 22
M  V30 22 2 21 23
M  V30 23 1 10 3
M  V30 24 1 23 16
M  V30 25 1 1 24
M  V30 26 1 1 25
M  V30 27 1 1 26
M  V30 28 1 4 27
M  V30 29 1 5 28
M  V30 30 1 6 29
M  V30 31 1 9 30
M  V30 32 1 9 31
M  V30 33 1 9 32
M  V30 34 1 12 33
M  V30 35 1 12 34
M  V30 36 1 13 35
M  V30 37 1 13 36
M  V30 38 1 14 37
M  V30 39 1 14 38
M  V30 40 1 19 39
M  V30 41 1 19 40
M  V30 42 1 19 41
M  V30 43 1 20 42
M  V30 44 1 22 43
M  V30 END BOND
M  V30 END CTAB
M  END
>  <Dataset>  (677) 
ChEMBL_Kinases

>  <Ligand_Instance>  (677) 
nan

>  <PDB_ID>  (677) 
nan

>  <Standardized_SMILES>  (677) 
COc1cccc(OC)c1OCCCSc1nc(C)cc(O)n1

>  <Name>  (677) 
nan

>  <Pocket>  (677) 
nan

>  <ATP_Site>  (677) 
nan

>  <Peripheral>  (677) 
nan

>  <Num_H_Atoms_ProtBoundConf>  (677) 
nan

>  <Num_Resolved_Atoms>  (677) 
nan

>  <Num_Not_Resolved_Atoms>  (677) 
nan

$$$$
CHEMBL1403712
     RDKit          3D

  0  0  0  0  0  0  0  0  0  0999 V3000
M  V30 BEGIN CTAB
M  V30 COUNTS 25 26 0 0 0
M  V30 BEGIN ATOM
M  V30 1 N 0.043675 -2.468065 4.563103 0
M  V30 2 C 0.940471 -1.692180 3.806568 0
M  V30 3 O 1.978041 -1.158686 4.296211 0
M  V30 4 C 0.644438 -1.503198 2.388100 0
M  V30 5 C 1.662569 -0.654349 1.648384 0
M  V30 6 N 1.193881 -0.582927 0.256599 0
M  V30 7 C 1.498452 -1.424516 -0.748494 0
M  V30 8 O 2.245814 -2.435690 -0.684131 0
M  V30 9 O 0.875026 -1.013067 -1.839594 0
M  V30 10 C 0.176029 0.068015 -1.574807 0
M  V30 11 C -0.640361 0.880695 -2.345954 0
M  V30 12 C -1.271906 1.979006 -1.814821 0
M  V30 13 C -1.081143 2.273906 -0.470548 0
M  V30 14 C -0.270563 1.478396 0.322464 0
M  V30 15 C 0.364696 0.367059 -0.227563 0
M  V30 16 H -0.259935 -1.871547 5.372084 0
M  V30 17 H -0.352517 -3.420694 4.504900 0
M  V30 18 H 0.625091 -2.489856 1.882502 0
M  V30 19 H -0.335304 -0.974350 2.288004 0
M  V30 20 H 2.655421 -1.144793 1.699359 0
M  V30 21 H 1.720699 0.378348 2.019781 0
M  V30 22 H -0.738859 0.586878 -3.379911 0
M  V30 23 H -1.893533 2.577207 -2.451420 0
M  V30 24 H -1.581802 3.149727 -0.037269 0
M  V30 25 H -0.112932 1.690045 1.356416 0
M  V30 END ATOM
M  V30 BEGIN BOND
M  V30 1 1 1 2
M  V30 2 2 2 3
M  V30 3 1 2 4
M  V30 4 1 4 5
M  V30 5 1 5 6
M  V30 6 1 6 7
M  V30 7 2 7 8
M  V30 8 1 7 9
M  V30 9 1 9 10
M  V30 10 2 10 11
M  V30 11 1 11 12
M  V30 12 2 12 13
M  V30 13 1 13 14
M  V30 14 2 14 15
M  V30 15 1 15 6
M  V30 16 1 15 10
M  V30 17 1 1 16
M  V30 18 1 1 17
M  V30 19 1 4 18
M  V30 20 1 4 19
M  V30 21 1 5 20
M  V30 22 1 5 21
M  V30 23 1 11 22
M  V30 24 1 12 23
M  V30 25 1 13 24
M  V30 26 1 14 25
M  V30 END BOND
M  V30 END CTAB
M  END
>  <Dataset>  (678) 
ChEMBL_Kinases

>  <Ligand_Instance>  (678) 
nan

>  <PDB_ID>  (678) 
nan

>  <Standardized_SMILES>  (678) 
NC(=O)CCn1c(=O)oc2ccccc21

>  <Name>  (678) 
nan

>  <Pocket>  (678) 
nan

>  <ATP_Site>  (678) 
nan

>  <Peripheral>  (678) 
nan

>  <Num_H_Atoms_ProtBoundConf>  (678) 
nan

>  <Num_Resolved_Atoms>  (678) 
nan

>  <Num_Not_Resolved_Atoms>  (678) 
nan

$$$$
CHEMBL1403572
     RDKit          3D

  0  0  0  0  0  0  0  0  0  0999 V3000
M  V30 BEGIN CTAB
M  V30 COUNTS 32 33 0 0 0
M  V30 BEGIN ATOM
M  V30 1 C -0.533570 -3.152676 5.040007 0
M  V30 2 N -0.900731 -2.755531 3.706964 0
M  V30 3 C -0.015798 -2.798158 2.582279 0
M  V30 4 O 1.152410 -3.210524 2.786435 0
M  V30 5 C -0.413744 -2.390161 1.243913 0
M  V30 6 C 0.411344 -2.432410 0.207127 0
M  V30 7 N -0.159808 -1.993042 -1.020304 0
M  V30 8 N 0.163135 -0.731892 -1.533532 0
M  V30 9 C 1.051642 0.145643 -0.872394 0
M  V30 10 O 1.547161 -0.258836 0.211232 0
M  V30 11 C 1.429980 1.470362 -1.351505 0
M  V30 12 C 2.313313 2.185354 -0.568256 0
M  V30 13 C 2.707021 3.461887 -0.985280 0
M  V30 14 N 2.214126 3.955808 -2.136489 0
M  V30 15 C 1.362831 3.249499 -2.877534 0
M  V30 16 C 0.930488 1.985521 -2.529817 0
M  V30 17 C -1.800845 -1.928688 1.135058 0
M  V30 18 O -2.247295 -1.552229 0.019003 0
M  V30 19 N -2.700962 -1.876122 2.235382 0
M  V30 20 C -2.235681 -2.292093 3.510601 0
M  V30 21 S -3.281622 -2.225172 4.761486 0
M  V30 22 H -0.203610 -2.273562 5.633772 0
M  V30 23 H 0.308169 -3.876190 5.016396 0
M  V30 24 H -1.426838 -3.622273 5.515414 0
M  V30 25 H 1.395600 -2.791796 0.435771 0
M  V30 26 H -0.805894 -2.614568 -1.514247 0
M  V30 27 H -0.260814 -0.419595 -2.433646 0
M  V30 28 H 2.731392 1.806779 0.375926 0
M  V30 29 H 3.400672 4.000434 -0.351894 0
M  V30 30 H 0.998412 3.705650 -3.801451 0
M  V30 31 H 0.240131 1.426484 -3.141769 0
M  V30 32 H -3.672730 -1.542199 2.108725 0
M  V30 END ATOM
M  V30 BEGIN BOND
M  V30 1 1 1 2
M  V30 2 1 2 3
M  V30 3 2 3 4
M  V30 4 1 3 5
M  V30 5 2 5 6
M  V30 6 1 6 7
M  V30 7 1 7 8
M  V30 8 1 8 9
M  V30 9 2 9 10
M  V30 10 1 9 11
M  V30 11 2 11 12
M  V30 12 1 12 13
M  V30 13 2 13 14
M  V30 14 1 14 15
M  V30 15 2 15 16
M  V30 16 1 5 17
M  V30 17 2 17 18
M  V30 18 1 17 19
M  V30 19 1 19 20
M  V30 20 2 20 21
M  V30 21 1 20 2
M  V30 22 1 16 11
M  V30 23 1 1 22
M  V30 24 1 1 23
M  V30 25 1 1 24
M  V30 26 1 6 25
M  V30 27 1 7 26
M  V30 28 1 8 27
M  V30 29 1 12 28
M  V30 30 1 13 29
M  V30 31 1 15 30
M  V30 32 1 16 31
M  V30 33 1 19 32
M  V30 END BOND
M  V30 END CTAB
M  END
>  <Dataset>  (679) 
ChEMBL_Kinases

>  <Ligand_Instance>  (679) 
nan

>  <PDB_ID>  (679) 
nan

>  <Standardized_SMILES>  (679) 
CN1C(=O)/C(=C/NNC(=O)c2ccncc2)C(=O)NC1=S

>  <Name>  (679) 
nan

>  <Pocket>  (679) 
nan

>  <ATP_Site>  (679) 
nan

>  <Peripheral>  (679) 
nan

>  <Num_H_Atoms_ProtBoundConf>  (679) 
nan

>  <Num_Resolved_Atoms>  (679) 
nan

>  <Num_Not_Resolved_Atoms>  (679) 
nan

$$$$
CHEMBL1403562
     RDKit          3D

  0  0  0  0  0  0  0  0  0  0999 V3000
M  V30 BEGIN CTAB
M  V30 COUNTS 44 46 0 0 0
M  V30 BEGIN ATOM
M  V30 1 C 0.881989 -6.415611 -0.546374 0
M  V30 2 C 0.151431 -5.524941 0.390007 0
M  V30 3 C -1.152236 -5.740355 0.784675 0
M  V30 4 N -1.771079 -4.907492 1.633341 0
M  V30 5 C -1.153018 -3.807566 2.151957 0
M  V30 6 C -2.078009 -3.090120 3.064060 0
M  V30 7 N -2.942950 -2.177874 2.360806 0
M  V30 8 C -2.735290 -0.994385 1.624194 0
M  V30 9 C -1.535302 -0.356601 1.453050 0
M  V30 10 C -1.356947 0.794975 0.720564 0
M  V30 11 C -0.088024 1.481070 0.531972 0
M  V30 12 C -0.099660 2.627230 -0.236824 0
M  V30 13 C 1.074382 3.320513 -0.449723 0
M  V30 14 C 2.291919 2.932843 0.069349 0
M  V30 15 N 3.528772 3.608039 -0.115049 0
M  V30 16 C 4.752370 3.078578 0.497330 0
M  V30 17 C 3.661347 4.824502 -0.892663 0
M  V30 18 C 2.262581 1.783025 0.831763 0
M  V30 19 C 1.109695 1.061189 1.068283 0
M  V30 20 N -2.463410 1.300024 0.147352 0
M  V30 21 C -3.673235 0.703768 0.288932 0
M  V30 22 N -3.774553 -0.409137 1.011771 0
M  V30 23 C 0.145442 -3.592798 1.759519 0
M  V30 24 N 0.741851 -4.441866 0.908433 0
M  V30 25 H 0.168350 -6.934129 -1.243805 0
M  V30 26 H 1.591464 -5.809867 -1.140590 0
M  V30 27 H 1.476484 -7.160637 0.021805 0
M  V30 28 H -1.630627 -6.624114 0.360340 0
M  V30 29 H -2.615088 -3.796694 3.722090 0
M  V30 30 H -1.431582 -2.488539 3.754730 0
M  V30 31 H -3.950132 -2.507569 2.438964 0
M  V30 32 H -0.660656 -0.756504 1.914588 0
M  V30 33 H -1.003483 3.009877 -0.685592 0
M  V30 34 H 1.054727 4.216065 -1.052913 0
M  V30 35 H 5.643706 3.576833 0.105360 0
M  V30 36 H 4.764372 1.996789 0.173776 0
M  V30 37 H 4.703555 3.051955 1.584843 0
M  V30 38 H 2.713552 5.390635 -0.997563 0
M  V30 39 H 4.323782 5.518401 -0.294350 0
M  V30 40 H 4.197851 4.659761 -1.849296 0
M  V30 41 H 3.161498 1.395126 1.282910 0
M  V30 42 H 1.132425 0.170319 1.668837 0
M  V30 43 H -4.581980 1.083957 -0.158605 0
M  V30 44 H 0.561602 -2.719493 2.215334 0
M  V30 END ATOM
M  V30 BEGIN BOND
M  V30 1 1 1 2
M  V30 2 2 2 3
M  V30 3 1 3 4
M  V30 4 2 4 5
M  V30 5 1 5 6
M  V30 6 1 6 7
M  V30 7 1 7 8
M  V30 8 2 8 9
M  V30 9 1 9 10
M  V30 10 1 10 11
M  V30 11 2 11 12
M  V30 12 1 12 13
M  V30 13 2 13 14
M  V30 14 1 14 15
M  V30 15 1 15 16
M  V30 16 1 15 17
M  V30 17 1 14 18
M  V30 18 2 18 19
M  V30 19 2 10 20
M  V30 20 1 20 21
M  V30 21 2 21 22
M  V30 22 1 5 23
M  V30 23 2 23 24
M  V30 24 1 24 2
M  V30 25 1 22 8
M  V30 26 1 19 11
M  V30 27 1 1 25
M  V30 28 1 1 26
M  V30 29 1 1 27
M  V30 30 1 3 28
M  V30 31 1 6 29
M  V30 32 1 6 30
M  V30 33 1 7 31
M  V30 34 1 9 32
M  V30 35 1 12 33
M  V30 36 1 13 34
M  V30 37 1 16 35
M  V30 38 1 16 36
M  V30 39 1 16 37
M  V30 40 1 17 38
M  V30 41 1 17 39
M  V30 42 1 17 40
M  V30 43 1 18 41
M  V30 44 1 19 42
M  V30 45 1 21 43
M  V30 46 1 23 44
M  V30 END BOND
M  V30 END CTAB
M  END
>  <Dataset>  (680) 
ChEMBL_Kinases

>  <Ligand_Instance>  (680) 
nan

>  <PDB_ID>  (680) 
nan

>  <Standardized_SMILES>  (680) 
Cc1cnc(CNc2cc(-c3ccc(N(C)C)cc3)ncn2)cn1

>  <Name>  (680) 
nan

>  <Pocket>  (680) 
nan

>  <ATP_Site>  (680) 
nan

>  <Peripheral>  (680) 
nan

>  <Num_H_Atoms_ProtBoundConf>  (680) 
nan

>  <Num_Resolved_Atoms>  (680) 
nan

>  <Num_Not_Resolved_Atoms>  (680) 
nan

$$$$
CHEMBL1403519
     RDKit          3D

  0  0  0  0  0  0  0  0  0  0999 V3000
M  V30 BEGIN CTAB
M  V30 COUNTS 53 57 0 0 0
M  V30 BEGIN ATOM
M  V30 1 O 0.947788 -0.668166 1.345788 0
M  V30 2 C 1.715521 -1.679608 1.491843 0
M  V30 3 C 2.783924 -1.617622 2.514161 0
M  V30 4 S 4.254685 -0.733721 1.904105 0
M  V30 5 C 3.713004 0.978201 1.678714 0
M  V30 6 N 3.223435 1.277213 0.463286 0
M  V30 7 N 2.774477 2.490681 0.149492 0
M  V30 8 C 2.851301 3.397998 1.156246 0
M  V30 9 C 2.478428 4.745228 1.198934 0
M  V30 10 C 1.925030 5.503338 0.190385 0
M  V30 11 C 1.622194 6.825404 0.423871 0
M  V30 12 C 1.874952 7.389809 1.673219 0
M  V30 13 C 2.426491 6.574697 2.627992 0
M  V30 14 C 2.757009 5.248191 2.474157 0
M  V30 15 N 3.285463 4.263377 3.212524 0
M  V30 16 C 3.371482 3.130388 2.490816 0
M  V30 17 N 3.808654 1.857404 2.716007 0
M  V30 18 N 1.413736 -2.747670 0.620345 0
M  V30 19 C 0.307820 -2.457816 -0.239557 0
M  V30 20 C 0.443530 -1.920257 -1.523282 0
M  V30 21 C -0.663630 -1.654383 -2.300345 0
M  V30 22 C -1.898031 -1.938521 -1.761699 0
M  V30 23 C -2.111517 -2.474711 -0.489793 0
M  V30 24 S -3.746608 -2.761938 0.038916 0
M  V30 25 O -3.781355 -2.424091 1.507650 0
M  V30 26 O -4.661962 -1.785370 -0.663301 0
M  V30 27 N -4.299721 -4.357431 -0.248673 0
M  V30 28 C -4.511137 -5.099016 0.974305 0
M  V30 29 C -3.231357 -5.555517 1.607928 0
M  V30 30 O -2.196781 -5.747213 0.726001 0
M  V30 31 C -2.579816 -6.091402 -0.563351 0
M  V30 32 C -3.502686 -5.093059 -1.204194 0
M  V30 33 C -0.963742 -2.717280 0.233898 0
M  V30 34 H 3.072189 -2.644746 2.862670 0
M  V30 35 H 2.389035 -1.020643 3.372894 0
M  V30 36 H 2.397691 2.725964 -0.789495 0
M  V30 37 H 1.706108 5.128330 -0.797084 0
M  V30 38 H 1.185401 7.474405 -0.329906 0
M  V30 39 H 1.628686 8.420796 1.829713 0
M  V30 40 H 2.616711 7.023113 3.592608 0
M  V30 41 H 2.031740 -3.599428 0.716866 0
M  V30 42 H 1.438247 -1.732058 -1.860022 0
M  V30 43 H -0.561682 -1.237551 -3.296139 0
M  V30 44 H -2.761396 -1.722108 -2.390025 0
M  V30 45 H -5.113225 -4.467558 1.651419 0
M  V30 46 H -5.119232 -5.997069 0.734401 0
M  V30 47 H -2.923690 -4.719688 2.300949 0
M  V30 48 H -3.393561 -6.437284 2.282015 0
M  V30 49 H -2.952835 -7.132797 -0.578848 0
M  V30 50 H -1.636438 -6.086097 -1.164254 0
M  V30 51 H -4.184948 -5.649870 -1.881647 0
M  V30 52 H -2.955018 -4.365901 -1.833548 0
M  V30 53 H -1.108298 -3.130930 1.218649 0
M  V30 END ATOM
M  V30 BEGIN BOND
M  V30 1 2 1 2
M  V30 2 1 2 3
M  V30 3 1 3 4
M  V30 4 1 4 5
M  V30 5 2 5 6
M  V30 6 1 6 7
M  V30 7 1 7 8
M  V30 8 2 8 9
M  V30 9 1 9 10
M  V30 10 2 10 11
M  V30 11 1 11 12
M  V30 12 2 12 13
M  V30 13 1 13 14
M  V30 14 2 14 15
M  V30 15 1 15 16
M  V30 16 2 16 17
M  V30 17 1 2 18
M  V30 18 1 18 19
M  V30 19 2 19 20
M  V30 20 1 20 21
M  V30 21 2 21 22
M  V30 22 1 22 23
M  V30 23 1 23 24
M  V30 24 2 24 25
M  V30 25 2 24 26
M  V30 26 1 24 27
M  V30 27 1 27 28
M  V30 28 1 28 29
M  V30 29 1 29 30
M  V30 30 1 30 31
M  V30 31 1 31 32
M  V30 32 2 23 33
M  V30 33 1 17 5
M  V30 34 1 33 19
M  V30 35 1 16 8
M  V30 36 1 32 27
M  V30 37 1 14 9
M  V30 38 1 3 34
M  V30 39 1 3 35
M  V30 40 1 7 36
M  V30 41 1 10 37
M  V30 42 1 11 38
M  V30 43 1 12 39
M  V30 44 1 13 40
M  V30 45 1 18 41
M  V30 46 1 20 42
M  V30 47 1 21 43
M  V30 48 1 22 44
M  V30 49 1 28 45
M  V30 50 1 28 46
M  V30 51 1 29 47
M  V30 52 1 29 48
M  V30 53 1 31 49
M  V30 54 1 31 50
M  V30 55 1 32 51
M  V30 56 1 32 52
M  V30 57 1 33 53
M  V30 END BOND
M  V30 END CTAB
M  END
>  <Dataset>  (681) 
ChEMBL_Kinases

>  <Ligand_Instance>  (681) 
nan

>  <PDB_ID>  (681) 
nan

>  <Standardized_SMILES>  (681) 
O=C(CSc1n[nH]c2c3ccccc3nc-2n1)Nc1cccc(S(=O)(=O)N2CCOCC2)c1

>  <Name>  (681) 
nan

>  <Pocket>  (681) 
nan

>  <ATP_Site>  (681) 
nan

>  <Peripheral>  (681) 
nan

>  <Num_H_Atoms_ProtBoundConf>  (681) 
nan

>  <Num_Resolved_Atoms>  (681) 
nan

>  <Num_Not_Resolved_Atoms>  (681) 
nan

$$$$
CHEMBL1403474
     RDKit          3D

  0  0  0  0  0  0  0  0  0  0999 V3000
M  V30 BEGIN CTAB
M  V30 COUNTS 44 47 0 0 0
M  V30 BEGIN ATOM
M  V30 1 C -0.702340 -2.756783 4.968452 0
M  V30 2 C -1.760897 -3.132895 3.928527 0
M  V30 3 O -1.676124 -2.260275 2.835937 0
M  V30 4 C -0.515682 -2.135669 2.057332 0
M  V30 5 O 0.456804 -2.836859 2.371086 0
M  V30 6 C -0.493805 -1.205963 0.930374 0
M  V30 7 C -0.123630 0.127560 0.931475 0
M  V30 8 C 0.339770 0.904437 2.114915 0
M  V30 9 N -0.237242 0.652238 -0.305817 0
M  V30 10 O 0.007577 1.899568 -0.789014 0
M  V30 11 C 1.298307 2.285833 -1.244564 0
M  V30 12 C 2.320539 2.181736 -0.174156 0
M  V30 13 C 2.555311 3.281694 0.638183 0
M  V30 14 C 3.480843 3.341150 1.684846 0
M  V30 15 C 4.202802 2.175053 1.890133 0
M  V30 16 C 4.008417 1.053766 1.111407 0
M  V30 17 C 3.080191 1.060183 0.094989 0
M  V30 18 C -0.685002 -0.332968 -1.138624 0
M  V30 19 C -0.989506 -0.404461 -2.497624 0
M  V30 20 C -1.432935 -1.600365 -3.030651 0
M  V30 21 C -1.592986 -2.745193 -2.278504 0
M  V30 22 C -1.290126 -2.679258 -0.920002 0
M  V30 23 N -1.542633 -3.924454 -0.476310 0
M  V30 24 O -1.952413 -4.675386 -1.438033 0
M  V30 25 N -2.005739 -4.013796 -2.568815 0 CHG=1 VAL=4
M  V30 26 O -2.394703 -4.479417 -3.808946 0 CHG=-1 VAL=1
M  V30 27 C -0.842891 -1.477910 -0.376009 0
M  V30 28 H 0.271908 -3.177484 4.676170 0
M  V30 29 H -1.075384 -3.180322 5.939086 0
M  V30 30 H -0.608863 -1.659693 4.999326 0
M  V30 31 H -2.744209 -2.980210 4.397731 0
M  V30 32 H -1.621165 -4.202552 3.625110 0
M  V30 33 H -0.297870 0.696024 3.023643 0
M  V30 34 H 1.370055 0.615550 2.431260 0
M  V30 35 H 0.238389 1.992842 1.929653 0
M  V30 36 H 1.627601 1.698216 -2.122191 0
M  V30 37 H 1.269807 3.343688 -1.572266 0
M  V30 38 H 1.973543 4.181192 0.452495 0
M  V30 39 H 3.576831 4.255291 2.251085 0
M  V30 40 H 4.919958 2.258221 2.719857 0
M  V30 41 H 4.611666 0.180523 1.333901 0
M  V30 42 H 2.915978 0.186714 -0.525678 0
M  V30 43 H -0.867128 0.492469 -3.101289 0
M  V30 44 H -1.675140 -1.672850 -4.090893 0
M  V30 END ATOM
M  V30 BEGIN BOND
M  V30 1 1 1 2
M  V30 2 1 2 3
M  V30 3 1 3 4
M  V30 4 2 4 5
M  V30 5 1 4 6
M  V30 6 2 6 7
M  V30 7 1 7 8
M  V30 8 1 7 9
M  V30 9 1 9 10
M  V30 10 1 10 11
M  V30 11 1 11 12
M  V30 12 2 12 13
M  V30 13 1 13 14
M  V30 14 2 14 15
M  V30 15 1 15 16
M  V30 16 2 16 17
M  V30 17 1 9 18
M  V30 18 1 18 19
M  V30 19 2 19 20
M  V30 20 1 20 21
M  V30 21 1 21 22
M  V30 22 2 22 23
M  V30 23 1 23 24
M  V30 24 1 24 25
M  V30 25 1 25 26
M  V30 26 1 22 27
M  V30 27 1 27 6
M  V30 28 1 17 12
M  V30 29 2 27 18
M  V30 30 2 25 21
M  V30 31 1 1 28
M  V30 32 1 1 29
M  V30 33 1 1 30
M  V30 34 1 2 31
M  V30 35 1 2 32
M  V30 36 1 8 33
M  V30 37 1 8 34
M  V30 38 1 8 35
M  V30 39 1 11 36
M  V30 40 1 11 37
M  V30 41 1 13 38
M  V30 42 1 14 39
M  V30 43 1 15 40
M  V30 44 1 16 41
M  V30 45 1 17 42
M  V30 46 1 19 43
M  V30 47 1 20 44
M  V30 END BOND
M  V30 END CTAB
M  END
>  <Dataset>  (682) 
ChEMBL_Kinases

>  <Ligand_Instance>  (682) 
nan

>  <PDB_ID>  (682) 
nan

>  <Standardized_SMILES>  (682) 
CCOC(=O)c1c(C)n(OCc2ccccc2)c2ccc3c(no[n+]3[O-])c12

>  <Name>  (682) 
nan

>  <Pocket>  (682) 
nan

>  <ATP_Site>  (682) 
nan

>  <Peripheral>  (682) 
nan

>  <Num_H_Atoms_ProtBoundConf>  (682) 
nan

>  <Num_Resolved_Atoms>  (682) 
nan

>  <Num_Not_Resolved_Atoms>  (682) 
nan

$$$$
CHEMBL1403452
     RDKit          3D

  0  0  0  0  0  0  0  0  0  0999 V3000
M  V30 BEGIN CTAB
M  V30 COUNTS 24 24 0 0 0
M  V30 BEGIN ATOM
M  V30 1 N 1.866336 -1.863321 3.601614 0
M  V30 2 C 0.662165 -1.438828 3.413470 0
M  V30 3 N -0.170679 -0.479261 4.095708 0
M  V30 4 N -0.047299 -2.008402 2.302665 0
M  V30 5 N 0.552479 -3.004833 1.529285 0
M  V30 6 C 1.029384 -2.667414 0.382357 0
M  V30 7 C 1.047164 -1.365796 -0.267441 0
M  V30 8 C 1.590595 -1.124863 -1.506577 0
M  V30 9 N 1.428859 0.171027 -1.781888 0
M  V30 10 N 0.815291 0.803778 -0.808951 0
M  V30 11 C 0.480679 2.191302 -0.769304 0
M  V30 12 N 1.331697 3.026171 -0.227954 0
M  V30 13 N -0.769289 2.581002 -1.326633 0
M  V30 14 C 0.576921 -0.134189 0.126560 0
M  V30 15 H 2.410870 -1.480637 4.387647 0
M  V30 16 H -0.570112 -0.332476 5.061984 0
M  V30 17 H -0.536235 0.348688 3.565913 0
M  V30 18 H -0.988969 -1.863485 1.878192 0
M  V30 19 H 1.464549 -3.529059 -0.113347 0
M  V30 20 H 2.066686 -1.877525 -2.138273 0
M  V30 21 H 1.162289 4.046842 -0.161054 0
M  V30 22 H -1.519334 3.071236 -0.822859 0
M  V30 23 H -1.116461 2.435845 -2.309833 0
M  V30 24 H 0.084552 0.085943 1.042728 0
M  V30 END ATOM
M  V30 BEGIN BOND
M  V30 1 2 1 2 CFG=2
M  V30 2 1 2 3
M  V30 3 1 2 4
M  V30 4 1 4 5
M  V30 5 2 5 6
M  V30 6 1 6 7
M  V30 7 1 7 8
M  V30 8 2 8 9
M  V30 9 1 9 10
M  V30 10 1 10 11
M  V30 11 2 11 12 CFG=2
M  V30 12 1 11 13
M  V30 13 1 10 14
M  V30 14 2 14 7
M  V30 15 1 1 15
M  V30 16 1 3 16
M  V30 17 1 3 17
M  V30 18 1 4 18
M  V30 19 1 6 19
M  V30 20 1 8 20
M  V30 21 1 12 21
M  V30 22 1 13 22
M  V30 23 1 13 23
M  V30 24 1 14 24
M  V30 END BOND
M  V30 END CTAB
M  END
>  <Dataset>  (683) 
ChEMBL_Kinases

>  <Ligand_Instance>  (683) 
nan

>  <PDB_ID>  (683) 
nan

>  <Standardized_SMILES>  (683) 
N=C(N)N/N=C\c1cnn(C(=N)N)c1

>  <Name>  (683) 
nan

>  <Pocket>  (683) 
nan

>  <ATP_Site>  (683) 
nan

>  <Peripheral>  (683) 
nan

>  <Num_H_Atoms_ProtBoundConf>  (683) 
nan

>  <Num_Resolved_Atoms>  (683) 
nan

>  <Num_Not_Resolved_Atoms>  (683) 
nan

$$$$
CHEMBL1403419
     RDKit          3D

  0  0  0  0  0  0  0  0  0  0999 V3000
M  V30 BEGIN CTAB
M  V30 COUNTS 36 37 0 0 0
M  V30 BEGIN ATOM
M  V30 1 C -1.498486 -5.323590 3.680212 0
M  V30 2 O -1.583638 -4.739663 2.402672 0
M  V30 3 C -0.983602 -3.529308 2.080261 0
M  V30 4 C -0.253455 -2.806539 3.001356 0
M  V30 5 C 0.333447 -1.590304 2.629312 0
M  V30 6 C 0.205400 -1.080661 1.353378 0
M  V30 7 C 0.848849 0.196818 1.043237 0
M  V30 8 O 1.478150 0.730073 1.992728 0
M  V30 9 N 0.793293 0.825192 -0.222215 0
M  V30 10 C 1.421881 2.066087 -0.511132 0
M  V30 11 C 1.381085 2.667982 -1.688179 0
M  V30 12 C 0.696319 2.166007 -2.861745 0
M  V30 13 N 0.152953 1.760816 -3.814019 0
M  V30 14 C 2.136136 3.943504 -1.667330 0
M  V30 15 C 2.363258 4.241548 -0.224092 0
M  V30 16 C 2.217336 2.891510 0.436522 0
M  V30 17 C -0.531973 -1.833336 0.463020 0
M  V30 18 C -1.121814 -3.034638 0.800084 0
M  V30 19 O -1.854325 -3.769529 -0.106976 0
M  V30 20 C -2.084829 -3.402523 -1.441024 0
M  V30 21 H -0.439771 -5.545033 3.970375 0
M  V30 22 H -2.056737 -6.258117 3.695866 0
M  V30 23 H -1.899564 -4.661687 4.479229 0
M  V30 24 H -0.154487 -3.211407 4.006762 0
M  V30 25 H 0.888260 -1.095032 3.423659 0
M  V30 26 H 0.250904 0.314081 -0.951789 0
M  V30 27 H 1.573253 4.773754 -2.130523 0
M  V30 28 H 3.109083 3.746407 -2.165879 0
M  V30 29 H 3.394560 4.592569 0.019731 0
M  V30 30 H 1.582890 4.892222 0.223755 0
M  V30 31 H 1.757158 2.972230 1.443498 0
M  V30 32 H 3.197534 2.388473 0.568239 0
M  V30 33 H -0.648199 -1.458574 -0.540816 0
M  V30 34 H -1.217727 -2.855746 -1.910607 0
M  V30 35 H -3.007432 -2.793563 -1.582308 0
M  V30 36 H -2.232041 -4.306892 -2.100279 0
M  V30 END ATOM
M  V30 BEGIN BOND
M  V30 1 1 1 2
M  V30 2 1 2 3
M  V30 3 2 3 4
M  V30 4 1 4 5
M  V30 5 2 5 6
M  V30 6 1 6 7
M  V30 7 2 7 8
M  V30 8 1 7 9
M  V30 9 1 9 10
M  V30 10 2 10 11
M  V30 11 1 11 12
M  V30 12 3 12 13
M  V30 13 1 11 14
M  V30 14 1 14 15
M  V30 15 1 15 16
M  V30 16 1 6 17
M  V30 17 2 17 18
M  V30 18 1 18 19
M  V30 19 1 19 20
M  V30 20 1 18 3
M  V30 21 1 16 10
M  V30 22 1 1 21
M  V30 23 1 1 22
M  V30 24 1 1 23
M  V30 25 1 4 24
M  V30 26 1 5 25
M  V30 27 1 9 26
M  V30 28 1 14 27
M  V30 29 1 14 28
M  V30 30 1 15 29
M  V30 31 1 15 30
M  V30 32 1 16 31
M  V30 33 1 16 32
M  V30 34 1 17 33
M  V30 35 1 20 34
M  V30 36 1 20 35
M  V30 37 1 20 36
M  V30 END BOND
M  V30 END CTAB
M  END
>  <Dataset>  (684) 
ChEMBL_Kinases

>  <Ligand_Instance>  (684) 
nan

>  <PDB_ID>  (684) 
nan

>  <Standardized_SMILES>  (684) 
COc1ccc(C(=O)NC2=C(C#N)CCC2)cc1OC

>  <Name>  (684) 
nan

>  <Pocket>  (684) 
nan

>  <ATP_Site>  (684) 
nan

>  <Peripheral>  (684) 
nan

>  <Num_H_Atoms_ProtBoundConf>  (684) 
nan

>  <Num_Resolved_Atoms>  (684) 
nan

>  <Num_Not_Resolved_Atoms>  (684) 
nan

$$$$
CHEMBL1404106
     RDKit          3D

  0  0  0  0  0  0  0  0  0  0999 V3000
M  V30 BEGIN CTAB
M  V30 COUNTS 44 47 0 0 0
M  V30 BEGIN ATOM
M  V30 1 O -0.030093 0.823702 0.125106 0
M  V30 2 C 0.440276 -0.313715 0.348315 0
M  V30 3 N 0.454998 -1.135645 -0.799012 0
M  V30 4 C 0.034196 -0.891784 -2.127013 0
M  V30 5 C 0.171230 -1.898583 -3.051143 0
M  V30 6 C -0.204778 -1.768681 -4.366664 0
M  V30 7 C -0.748633 -0.599937 -4.834603 0
M  V30 8 C -0.903171 0.434162 -3.940574 0
M  V30 9 C -0.511970 0.248232 -2.646138 0
M  V30 10 C 0.929642 -0.777144 1.635001 0
M  V30 11 C 0.842281 0.101408 2.608820 0
M  V30 12 C 0.351510 1.455798 2.695864 0
M  V30 13 C 1.278619 2.393380 3.164969 0
M  V30 14 C 1.019999 3.731526 3.365142 0
M  V30 15 C -0.254026 4.168603 3.077621 0
M  V30 16 C -1.214831 3.299637 2.613435 0
M  V30 17 C -0.884593 1.978310 2.438590 0
M  V30 18 O -2.377008 4.029968 2.419731 0
M  V30 19 C -2.126230 5.409526 2.608437 0
M  V30 20 O -0.826967 5.427256 3.167533 0
M  V30 21 N 1.466637 -2.068606 1.857138 0
M  V30 22 C 0.858717 -3.356360 1.715249 0
M  V30 23 O -0.325805 -3.593727 1.350105 0
M  V30 24 C 1.697466 -4.512638 2.025619 0
M  V30 25 C 1.274961 -5.825326 1.943583 0
M  V30 26 C 2.311906 -6.680741 2.304740 0
M  V30 27 C 3.349359 -5.795785 2.597826 0
M  V30 28 O 2.938030 -4.584292 2.420394 0
M  V30 29 H 0.860403 -2.092422 -0.595528 0
M  V30 30 H 0.590078 -2.863923 -2.786216 0
M  V30 31 H -0.082443 -2.580530 -5.064701 0
M  V30 32 H -1.037169 -0.514029 -5.864371 0
M  V30 33 H -1.325322 1.347817 -4.294384 0
M  V30 34 H -0.661518 1.097809 -2.002479 0
M  V30 35 H 1.219088 -0.252576 3.583223 0
M  V30 36 H 2.311200 2.098011 3.410274 0
M  V30 37 H 1.775887 4.411885 3.730067 0
M  V30 38 H -1.653001 1.304271 2.101181 0
M  V30 39 H -2.058847 5.915351 1.616362 0
M  V30 40 H -2.880155 5.887379 3.259806 0
M  V30 41 H 2.459685 -1.993102 2.169705 0
M  V30 42 H 0.301004 -6.193210 1.650280 0
M  V30 43 H 2.242756 -7.778503 2.325981 0
M  V30 44 H 4.324519 -6.163592 2.920315 0
M  V30 END ATOM
M  V30 BEGIN BOND
M  V30 1 2 1 2
M  V30 2 1 2 3
M  V30 3 1 3 4
M  V30 4 2 4 5
M  V30 5 1 5 6
M  V30 6 2 6 7
M  V30 7 1 7 8
M  V30 8 2 8 9
M  V30 9 1 2 10
M  V30 10 2 10 11
M  V30 11 1 11 12
M  V30 12 2 12 13
M  V30 13 1 13 14
M  V30 14 2 14 15
M  V30 15 1 15 16
M  V30 16 2 16 17
M  V30 17 1 16 18
M  V30 18 1 18 19
M  V30 19 1 19 20
M  V30 20 1 10 21
M  V30 21 1 21 22
M  V30 22 2 22 23
M  V30 23 1 22 24
M  V30 24 2 24 25
M  V30 25 1 25 26
M  V30 26 2 26 27
M  V30 27 1 27 28
M  V30 28 1 9 4
M  V30 29 1 17 12
M  V30 30 1 28 24
M  V30 31 1 20 15
M  V30 32 1 3 29
M  V30 33 1 5 30
M  V30 34 1 6 31
M  V30 35 1 7 32
M  V30 36 1 8 33
M  V30 37 1 9 34
M  V30 38 1 11 35
M  V30 39 1 13 36
M  V30 40 1 14 37
M  V30 41 1 17 38
M  V30 42 1 19 39
M  V30 43 1 19 40
M  V30 44 1 21 41
M  V30 45 1 25 42
M  V30 46 1 26 43
M  V30 47 1 27 44
M  V30 END BOND
M  V30 END CTAB
M  END
>  <Dataset>  (685) 
ChEMBL_Kinases

>  <Ligand_Instance>  (685) 
nan

>  <PDB_ID>  (685) 
nan

>  <Standardized_SMILES>  (685) 
O=C(Nc1ccccc1)/C(=C\c1ccc2c(c1)OCO2)NC(=O)c1ccco1

>  <Name>  (685) 
nan

>  <Pocket>  (685) 
nan

>  <ATP_Site>  (685) 
nan

>  <Peripheral>  (685) 
nan

>  <Num_H_Atoms_ProtBoundConf>  (685) 
nan

>  <Num_Resolved_Atoms>  (685) 
nan

>  <Num_Not_Resolved_Atoms>  (685) 
nan

$$$$
CHEMBL1408664
     RDKit          3D

  0  0  0  0  0  0  0  0  0  0999 V3000
M  V30 BEGIN CTAB
M  V30 COUNTS 44 46 0 0 0
M  V30 BEGIN ATOM
M  V30 1 O -0.034160 -2.572122 1.314696 0
M  V30 2 C 0.679114 -1.821525 0.607965 0
M  V30 3 C 2.102427 -2.168788 0.866584 0
M  V30 4 N 3.025505 -1.353238 0.081218 0
M  V30 5 C 3.611559 -0.164890 0.354406 0
M  V30 6 N 4.382424 0.177211 -0.693023 0
M  V30 7 C 4.287927 -0.797835 -1.639682 0
M  V30 8 C 4.855328 -0.962484 -2.889158 0
M  V30 9 C 4.593549 -2.079562 -3.685519 0
M  V30 10 C 3.728595 -3.035999 -3.170204 0
M  V30 11 C 3.183886 -2.839418 -1.926704 0
M  V30 12 C 3.428272 -1.745569 -1.124258 0
M  V30 13 N 0.246696 -0.808657 -0.292406 0
M  V30 14 C -1.163489 -0.528359 -0.482608 0
M  V30 15 C -1.731507 -0.078064 0.840514 0
M  V30 16 C -1.070398 1.171877 1.376953 0
M  V30 17 N -1.580786 1.615850 2.619208 0
M  V30 18 C -2.910256 2.110904 2.610126 0
M  V30 19 C -3.926032 1.219476 3.251872 0
M  V30 20 O -3.496225 0.431690 4.253918 0
M  V30 21 C -2.207516 0.019069 4.310050 0
M  V30 22 C -1.163613 0.944512 3.792732 0
M  V30 23 H 2.316145 -2.022287 1.953758 0
M  V30 24 H 2.292946 -3.248827 0.682845 0
M  V30 25 H 3.428214 0.362218 1.303244 0
M  V30 26 H 5.535791 -0.201057 -3.283708 0
M  V30 27 H 5.030263 -2.220322 -4.660409 0
M  V30 28 H 3.508307 -3.921567 -3.773669 0
M  V30 29 H 2.523432 -3.606202 -1.575648 0
M  V30 30 H 1.013699 -0.289687 -0.798064 0
M  V30 31 H -1.339958 0.180000 -1.291898 0
M  V30 32 H -1.661752 -1.502841 -0.719013 0
M  V30 33 H -2.835078 0.095813 0.714837 0
M  V30 34 H -1.536130 -0.878766 1.571434 0
M  V30 35 H 0.021288 1.033233 1.457061 0
M  V30 36 H -1.208278 1.992428 0.621889 0
M  V30 37 H -2.923263 3.115790 3.088735 0
M  V30 38 H -3.219711 2.262620 1.556045 0
M  V30 39 H -4.736997 1.875338 3.637701 0
M  V30 40 H -4.436667 0.576271 2.478127 0
M  V30 41 H -2.034559 -1.027840 3.918112 0
M  V30 42 H -1.977495 -0.111153 5.411497 0
M  V30 43 H -0.985968 1.731066 4.580490 0
M  V30 44 H -0.217643 0.400875 3.627541 0
M  V30 END ATOM
M  V30 BEGIN BOND
M  V30 1 2 1 2
M  V30 2 1 2 3
M  V30 3 1 3 4
M  V30 4 1 4 5
M  V30 5 2 5 6
M  V30 6 1 6 7
M  V30 7 2 7 8
M  V30 8 1 8 9
M  V30 9 2 9 10
M  V30 10 1 10 11
M  V30 11 2 11 12
M  V30 12 1 2 13
M  V30 13 1 13 14
M  V30 14 1 14 15
M  V30 15 1 15 16
M  V30 16 1 16 17
M  V30 17 1 17 18
M  V30 18 1 18 19
M  V30 19 1 19 20
M  V30 20 1 20 21
M  V30 21 1 21 22
M  V30 22 1 12 4
M  V30 23 1 22 17
M  V30 24 1 12 7
M  V30 25 1 3 23
M  V30 26 1 3 24
M  V30 27 1 5 25
M  V30 28 1 8 26
M  V30 29 1 9 27
M  V30 30 1 10 28
M  V30 31 1 11 29
M  V30 32 1 13 30
M  V30 33 1 14 31
M  V30 34 1 14 32
M  V30 35 1 15 33
M  V30 36 1 15 34
M  V30 37 1 16 35
M  V30 38 1 16 36
M  V30 39 1 18 37
M  V30 40 1 18 38
M  V30 41 1 19 39
M  V30 42 1 19 40
M  V30 43 1 21 41
M  V30 44 1 21 42
M  V30 45 1 22 43
M  V30 46 1 22 44
M  V30 END BOND
M  V30 END CTAB
M  END
>  <Dataset>  (686) 
ChEMBL_Kinases

>  <Ligand_Instance>  (686) 
nan

>  <PDB_ID>  (686) 
nan

>  <Standardized_SMILES>  (686) 
O=C(Cn1cnc2ccccc21)NCCCN1CCOCC1

>  <Name>  (686) 
nan

>  <Pocket>  (686) 
nan

>  <ATP_Site>  (686) 
nan

>  <Peripheral>  (686) 
nan

>  <Num_H_Atoms_ProtBoundConf>  (686) 
nan

>  <Num_Resolved_Atoms>  (686) 
nan

>  <Num_Not_Resolved_Atoms>  (686) 
nan

$$$$
CHEMBL1408602
     RDKit          3D

  0  0  0  0  0  0  0  0  0  0999 V3000
M  V30 BEGIN CTAB
M  V30 COUNTS 43 46 0 0 0
M  V30 BEGIN ATOM
M  V30 1 C 1.305425 -5.824013 1.501187 0
M  V30 2 C 0.774056 -5.157446 0.291239 0
M  V30 3 C 0.060938 -5.877125 -0.654135 0
M  V30 4 C -0.414154 -5.219418 -1.760817 0
M  V30 5 C -0.222823 -3.874623 -1.990150 0
M  V30 6 C 0.488904 -3.145519 -1.051150 0
M  V30 7 C 0.736936 -1.699635 -1.221648 0
M  V30 8 C 0.879226 -1.183178 -2.493103 0
M  V30 9 C 1.110805 0.168882 -2.640961 0
M  V30 10 C 1.194784 0.972040 -1.523886 0
M  V30 11 N 1.420849 2.291382 -1.663552 0
M  V30 12 C 1.512592 3.121815 -0.608940 0
M  V30 13 N 1.370986 2.596320 0.610701 0
M  V30 14 C 1.143943 1.301658 0.865992 0
M  V30 15 N 1.007116 0.806686 2.182553 0
M  V30 16 C 1.082877 1.588060 3.385994 0
M  V30 17 C 0.040650 2.636505 3.509432 0
M  V30 18 C -1.147644 2.154795 4.076614 0
M  V30 19 C -2.260354 2.941962 4.301990 0
M  V30 20 C -2.169555 4.276766 3.938148 0
M  V30 21 N -1.038514 4.731757 3.399409 0
M  V30 22 C 0.048313 3.974414 3.176593 0
M  V30 23 C 1.057554 0.489203 -0.241605 0
M  V30 24 C 0.827952 -0.861175 -0.129814 0
M  V30 25 C 0.972484 -3.805331 0.071164 0
M  V30 26 H 0.520229 -5.909325 2.260876 0
M  V30 27 H 1.650883 -6.845813 1.196571 0
M  V30 28 H 2.155215 -5.228988 1.929122 0
M  V30 29 H -0.102363 -6.927591 -0.498565 0
M  V30 30 H -0.971770 -5.777021 -2.503322 0
M  V30 31 H -0.604363 -3.355744 -2.875106 0
M  V30 32 H 0.815144 -1.804180 -3.371630 0
M  V30 33 H 1.233334 0.640586 -3.624245 0
M  V30 34 H 1.689228 4.182225 -0.605679 0
M  V30 35 H 0.833580 -0.195438 2.404216 0
M  V30 36 H 1.101360 1.004149 4.323769 0
M  V30 37 H 2.115734 2.065399 3.358312 0
M  V30 38 H -1.292365 1.108505 4.389460 0
M  V30 39 H -3.166832 2.563595 4.737561 0
M  V30 40 H -3.008424 4.949045 4.088548 0
M  V30 41 H 0.990295 4.288512 2.751552 0
M  V30 42 H 0.708217 -1.333268 0.809369 0
M  V30 43 H 1.524518 -3.208811 0.786727 0
M  V30 END ATOM
M  V30 BEGIN BOND
M  V30 1 1 1 2
M  V30 2 2 2 3
M  V30 3 1 3 4
M  V30 4 2 4 5
M  V30 5 1 5 6
M  V30 6 1 6 7
M  V30 7 2 7 8
M  V30 8 1 8 9
M  V30 9 2 9 10
M  V30 10 1 10 11
M  V30 11 2 11 12
M  V30 12 1 12 13
M  V30 13 2 13 14
M  V30 14 1 14 15
M  V30 15 1 15 16
M  V30 16 1 16 17
M  V30 17 2 17 18
M  V30 18 1 18 19
M  V30 19 2 19 20
M  V30 20 1 20 21
M  V30 21 2 21 22
M  V30 22 1 14 23
M  V30 23 2 23 24
M  V30 24 2 6 25
M  V30 25 1 25 2
M  V30 26 1 24 7
M  V30 27 1 23 10
M  V30 28 1 22 17
M  V30 29 1 1 26
M  V30 30 1 1 27
M  V30 31 1 1 28
M  V30 32 1 3 29
M  V30 33 1 4 30
M  V30 34 1 5 31
M  V30 35 1 8 32
M  V30 36 1 9 33
M  V30 37 1 12 34
M  V30 38 1 15 35
M  V30 39 1 16 36
M  V30 40 1 16 37
M  V30 41 1 18 38
M  V30 42 1 19 39
M  V30 43 1 20 40
M  V30 44 1 22 41
M  V30 45 1 24 42
M  V30 46 1 25 43
M  V30 END BOND
M  V30 END CTAB
M  END
>  <Dataset>  (687) 
ChEMBL_Kinases

>  <Ligand_Instance>  (687) 
nan

>  <PDB_ID>  (687) 
nan

>  <Standardized_SMILES>  (687) 
Cc1cccc(-c2ccc3ncnc(NCc4cccnc4)c3c2)c1

>  <Name>  (687) 
nan

>  <Pocket>  (687) 
nan

>  <ATP_Site>  (687) 
nan

>  <Peripheral>  (687) 
nan

>  <Num_H_Atoms_ProtBoundConf>  (687) 
nan

>  <Num_Resolved_Atoms>  (687) 
nan

>  <Num_Not_Resolved_Atoms>  (687) 
nan

$$$$
CHEMBL1408538
     RDKit          3D

  0  0  0  0  0  0  0  0  0  0999 V3000
M  V30 BEGIN CTAB
M  V30 COUNTS 46 48 0 0 0
M  V30 BEGIN ATOM
M  V30 1 C 1.684615 -2.176706 3.413510 0
M  V30 2 C 2.041776 -2.392356 1.990112 0
M  V30 3 N 1.601070 -3.440996 1.273813 0
M  V30 4 O 2.072068 -3.373029 0.058738 0
M  V30 5 C 2.827487 -2.286228 -0.048537 0
M  V30 6 C 3.521463 -1.887626 -1.269363 0
M  V30 7 C 2.845455 -1.619103 1.154356 0
M  V30 8 C 3.482647 -0.397536 1.672237 0
M  V30 9 S 4.216435 0.682734 0.480667 0
M  V30 10 C 3.121142 1.528601 -0.630255 0
M  V30 11 C 2.225098 2.503714 0.076441 0
M  V30 12 O 2.465855 3.700851 0.387179 0
M  V30 13 O 1.003472 1.927587 0.385372 0
M  V30 14 C -0.057277 2.546683 1.047532 0
M  V30 15 C -1.180358 1.584636 1.139530 0
M  V30 16 O -2.029461 2.205177 1.787022 0
M  V30 17 N -1.323592 0.247818 0.630090 0
M  V30 18 C -0.494055 -0.541952 -0.222392 0
M  V30 19 C -1.357031 -0.889792 -1.416487 0
M  V30 20 O -1.085133 -0.600837 -2.627585 0
M  V30 21 N -2.573414 -1.602778 -1.129767 0
M  V30 22 C -3.154086 -1.319307 0.159063 0
M  V30 23 C -4.317862 -1.984567 0.477257 0
M  V30 24 C -4.914890 -1.754363 1.700530 0
M  V30 25 C -4.350863 -0.866876 2.595761 0
M  V30 26 C -3.191593 -0.231860 2.226603 0
M  V30 27 C -2.529488 -0.408390 1.013770 0
M  V30 28 H 2.355000 -2.740087 4.099455 0
M  V30 29 H 1.736040 -1.088219 3.685418 0
M  V30 30 H 0.666650 -2.501190 3.649312 0
M  V30 31 H 4.420497 -1.301597 -1.018463 0
M  V30 32 H 2.879553 -1.393808 -2.021109 0
M  V30 33 H 3.848290 -2.844622 -1.791793 0
M  V30 34 H 2.758222 0.101493 2.355377 0
M  V30 35 H 4.304864 -0.754692 2.368211 0
M  V30 36 H 2.562743 0.843191 -1.288815 0
M  V30 37 H 3.766919 2.140636 -1.325520 0
M  V30 38 H -0.337003 3.525538 0.606123 0
M  V30 39 H 0.290005 2.739738 2.109659 0
M  V30 40 H 0.416301 -0.035169 -0.608924 0
M  V30 41 H -0.221008 -1.499950 0.255854 0
M  V30 42 H -2.966829 -2.268206 -1.833729 0
M  V30 43 H -4.775929 -2.677467 -0.197510 0
M  V30 44 H -5.839250 -2.248007 2.016965 0
M  V30 45 H -4.779534 -0.648295 3.573569 0
M  V30 46 H -2.746714 0.450744 2.928624 0
M  V30 END ATOM
M  V30 BEGIN BOND
M  V30 1 1 1 2
M  V30 2 2 2 3
M  V30 3 1 3 4
M  V30 4 1 4 5
M  V30 5 1 5 6
M  V30 6 2 5 7
M  V30 7 1 7 8
M  V30 8 1 8 9
M  V30 9 1 9 10
M  V30 10 1 10 11
M  V30 11 2 11 12
M  V30 12 1 11 13
M  V30 13 1 13 14
M  V30 14 1 14 15
M  V30 15 2 15 16
M  V30 16 1 15 17
M  V30 17 1 17 18
M  V30 18 1 18 19
M  V30 19 2 19 20
M  V30 20 1 19 21
M  V30 21 1 21 22
M  V30 22 2 22 23
M  V30 23 1 23 24
M  V30 24 2 24 25
M  V30 25 1 25 26
M  V30 26 2 26 27
M  V30 27 1 7 2
M  V30 28 1 27 17
M  V30 29 1 27 22
M  V30 30 1 1 28
M  V30 31 1 1 29
M  V30 32 1 1 30
M  V30 33 1 6 31
M  V30 34 1 6 32
M  V30 35 1 6 33
M  V30 36 1 8 34
M  V30 37 1 8 35
M  V30 38 1 10 36
M  V30 39 1 10 37
M  V30 40 1 14 38
M  V30 41 1 14 39
M  V30 42 1 18 40
M  V30 43 1 18 41
M  V30 44 1 21 42
M  V30 45 1 23 43
M  V30 46 1 24 44
M  V30 47 1 25 45
M  V30 48 1 26 46
M  V30 END BOND
M  V30 END CTAB
M  END
>  <Dataset>  (688) 
ChEMBL_Kinases

>  <Ligand_Instance>  (688) 
nan

>  <PDB_ID>  (688) 
nan

>  <Standardized_SMILES>  (688) 
Cc1noc(C)c1CSCC(=O)OCC(=O)N1CC(=O)Nc2ccccc21

>  <Name>  (688) 
nan

>  <Pocket>  (688) 
nan

>  <ATP_Site>  (688) 
nan

>  <Peripheral>  (688) 
nan

>  <Num_H_Atoms_ProtBoundConf>  (688) 
nan

>  <Num_Resolved_Atoms>  (688) 
nan

>  <Num_Not_Resolved_Atoms>  (688) 
nan

$$$$
CHEMBL1408532
     RDKit          3D

  0  0  0  0  0  0  0  0  0  0999 V3000
M  V30 BEGIN CTAB
M  V30 COUNTS 36 39 0 0 0
M  V30 BEGIN ATOM
M  V30 1 N -0.920839 -1.303779 1.356038 0
M  V30 2 N -0.033809 -2.355900 1.357779 0
M  V30 3 C 0.784872 -2.642368 2.389484 0
M  V30 4 S 0.862100 -1.730938 3.910165 0
M  V30 5 C 2.077432 -0.421571 3.808578 0
M  V30 6 C 1.789904 0.627714 2.818867 0
M  V30 7 N 1.211434 1.805438 3.029422 0
M  V30 8 C 1.091229 2.487879 1.858603 0
M  V30 9 C 0.570023 3.725784 1.543271 0
M  V30 10 C 0.578932 4.173029 0.239325 0
M  V30 11 C 1.115330 3.375179 -0.770606 0
M  V30 12 C 1.612423 2.159286 -0.374100 0
M  V30 13 N 1.612009 1.705299 0.899735 0
M  V30 14 C 2.051965 0.551429 1.463103 0
M  V30 15 Br 2.898591 -0.830037 0.449805 0
M  V30 16 N 1.435596 -3.716316 1.927107 0
M  V30 17 N 1.042778 -4.055225 0.710772 0
M  V30 18 C 0.082729 -3.188590 0.304948 0
M  V30 19 C -0.669053 -3.122387 -0.943762 0
M  V30 20 C -2.053569 -3.162748 -0.775458 0
M  V30 21 C -2.900660 -3.105677 -1.873904 0
M  V30 22 C -2.297475 -3.009191 -3.108365 0
M  V30 23 N -0.953025 -2.970230 -3.276249 0
M  V30 24 C -0.118149 -3.025746 -2.206144 0
M  V30 25 H -1.514928 -1.124395 2.199050 0
M  V30 26 H -1.510828 -0.483737 1.162947 0
M  V30 27 H 2.309159 0.009174 4.812113 0
M  V30 28 H 3.036225 -0.909329 3.459196 0
M  V30 29 H 0.142199 4.380146 2.301496 0
M  V30 30 H 0.186518 5.140606 -0.099664 0
M  V30 31 H 1.142801 3.686704 -1.811227 0
M  V30 32 H 2.029882 1.541255 -1.167384 0
M  V30 33 H -2.526214 -3.238373 0.192085 0
M  V30 34 H -3.969515 -3.136913 -1.739277 0
M  V30 35 H -2.945073 -2.963233 -3.990034 0
M  V30 36 H 0.962672 -2.999109 -2.262729 0
M  V30 END ATOM
M  V30 BEGIN BOND
M  V30 1 1 1 2
M  V30 2 1 2 3
M  V30 3 1 3 4
M  V30 4 1 4 5
M  V30 5 1 5 6
M  V30 6 1 6 7
M  V30 7 2 7 8
M  V30 8 1 8 9
M  V30 9 2 9 10
M  V30 10 1 10 11
M  V30 11 2 11 12
M  V30 12 1 12 13
M  V30 13 1 13 14
M  V30 14 1 14 15
M  V30 15 2 3 16
M  V30 16 1 16 17
M  V30 17 2 17 18
M  V30 18 1 18 19
M  V30 19 2 19 20
M  V30 20 1 20 21
M  V30 21 2 21 22
M  V30 22 1 22 23
M  V30 23 2 23 24
M  V30 24 1 18 2
M  V30 25 1 24 19
M  V30 26 2 14 6
M  V30 27 1 13 8
M  V30 28 1 1 25
M  V30 29 1 1 26
M  V30 30 1 5 27
M  V30 31 1 5 28
M  V30 32 1 9 29
M  V30 33 1 10 30
M  V30 34 1 11 31
M  V30 35 1 12 32
M  V30 36 1 20 33
M  V30 37 1 21 34
M  V30 38 1 22 35
M  V30 39 1 24 36
M  V30 END BOND
M  V30 END CTAB
M  END
>  <Dataset>  (689) 
ChEMBL_Kinases

>  <Ligand_Instance>  (689) 
nan

>  <PDB_ID>  (689) 
nan

>  <Standardized_SMILES>  (689) 
Nn1c(SCc2nc3ccccn3c2Br)nnc1-c1cccnc1

>  <Name>  (689) 
nan

>  <Pocket>  (689) 
nan

>  <ATP_Site>  (689) 
nan

>  <Peripheral>  (689) 
nan

>  <Num_H_Atoms_ProtBoundConf>  (689) 
nan

>  <Num_Resolved_Atoms>  (689) 
nan

>  <Num_Not_Resolved_Atoms>  (689) 
nan

$$$$
CHEMBL1408479
     RDKit          3D

  0  0  0  0  0  0  0  0  0  0999 V3000
M  V30 BEGIN CTAB
M  V30 COUNTS 54 58 0 0 0
M  V30 BEGIN ATOM
M  V30 1 C 0.687907 -1.690034 3.098961 0
M  V30 2 C 2.029071 -2.277108 3.351937 0
M  V30 3 C 2.914496 -2.459184 2.156351 0
M  V30 4 C 4.210159 -3.089727 2.737885 0
M  V30 5 C 3.318173 -1.212651 1.453613 0
M  V30 6 C 2.185406 -0.685172 0.665961 0
M  V30 7 C 1.545285 -1.727040 -0.085110 0
M  V30 8 S 0.236409 -0.905155 -0.937040 0
M  V30 9 C 0.529478 0.695663 -0.331305 0
M  V30 10 C 1.602724 0.537525 0.485208 0
M  V30 11 C 2.077651 1.710583 1.078606 0
M  V30 12 O 3.072458 1.761149 1.876096 0
M  V30 13 N 1.449214 2.861935 0.795838 0
M  V30 14 C 1.948771 4.097533 1.423762 0
M  V30 15 C 0.391859 3.025563 -0.007698 0
M  V30 16 N -0.407493 3.958761 -0.501274 0
M  V30 17 N -1.310236 3.408694 -1.329024 0
M  V30 18 C -1.075108 2.063634 -1.362307 0
M  V30 19 S -2.177355 1.167063 -2.429075 0
M  V30 20 C -3.787789 0.930707 -1.744603 0
M  V30 21 C -4.051710 0.021222 -0.611889 0
M  V30 22 C -3.843072 -1.405969 -0.800102 0
M  V30 23 C -2.926779 -2.385481 -0.530279 0
M  V30 24 C -2.977442 -3.705567 -0.883123 0
M  V30 25 C -4.072084 -4.135480 -1.596299 0
M  V30 26 C -5.071540 -3.247086 -1.932378 0
M  V30 27 C -4.946364 -1.908122 -1.534681 0
M  V30 28 N -0.030470 1.883740 -0.549607 0
M  V30 29 C 2.110631 -3.080196 0.049234 0
M  V30 30 O 2.375905 -3.428200 1.357709 0
M  V30 31 H 0.095522 -1.848690 4.055971 0
M  V30 32 H 0.084799 -2.240379 2.339762 0
M  V30 33 H 0.653357 -0.601215 2.954779 0
M  V30 34 H 2.517073 -1.653818 4.147878 0
M  V30 35 H 1.858854 -3.270790 3.861862 0
M  V30 36 H 4.896507 -3.299642 1.901409 0
M  V30 37 H 3.878565 -4.059379 3.176528 0
M  V30 38 H 4.645849 -2.474615 3.525840 0
M  V30 39 H 4.172366 -1.504622 0.774345 0
M  V30 40 H 3.738879 -0.475157 2.159210 0
M  V30 41 H 3.044745 4.164921 1.299305 0
M  V30 42 H 1.617223 4.038385 2.482007 0
M  V30 43 H 1.499060 4.983488 0.978225 0
M  V30 44 H -4.179255 1.952945 -1.380286 0
M  V30 45 H -4.564228 0.707096 -2.550517 0
M  V30 46 H -3.416205 0.422972 0.248594 0
M  V30 47 H -5.100173 0.201142 -0.248765 0
M  V30 48 H -2.169548 -1.915660 0.047138 0
M  V30 49 H -2.117142 -4.264748 -0.545707 0
M  V30 50 H -4.071394 -5.187762 -1.855618 0
M  V30 51 H -5.875542 -3.671155 -2.480870 0
M  V30 52 H -5.836280 -1.361433 -1.892598 0
M  V30 53 H 1.466006 -3.850242 -0.379147 0
M  V30 54 H 3.043767 -3.096694 -0.576015 0
M  V30 END ATOM
M  V30 BEGIN BOND
M  V30 1 1 1 2
M  V30 2 1 2 3
M  V30 3 1 3 4
M  V30 4 1 3 5
M  V30 5 1 5 6
M  V30 6 2 6 7
M  V30 7 1 7 8
M  V30 8 1 8 9
M  V30 9 2 9 10
M  V30 10 1 10 11
M  V30 11 2 11 12
M  V30 12 1 11 13
M  V30 13 1 13 14
M  V30 14 1 13 15
M  V30 15 2 15 16
M  V30 16 1 16 17
M  V30 17 2 17 18
M  V30 18 1 18 19
M  V30 19 1 19 20
M  V30 20 1 20 21
M  V30 21 1 21 22
M  V30 22 2 22 23
M  V30 23 1 23 24
M  V30 24 2 24 25
M  V30 25 1 25 26
M  V30 26 2 26 27
M  V30 27 1 18 28
M  V30 28 1 7 29
M  V30 29 1 29 30
M  V30 30 1 30 3
M  V30 31 1 10 6
M  V30 32 1 28 15
M  V30 33 1 28 9
M  V30 34 1 27 22
M  V30 35 1 1 31
M  V30 36 1 1 32
M  V30 37 1 1 33
M  V30 38 1 2 34
M  V30 39 1 2 35
M  V30 40 1 4 36
M  V30 41 1 4 37
M  V30 42 1 4 38
M  V30 43 1 5 39
M  V30 44 1 5 40
M  V30 45 1 14 41
M  V30 46 1 14 42
M  V30 47 1 14 43
M  V30 48 1 20 44
M  V30 49 1 20 45
M  V30 50 1 21 46
M  V30 51 1 21 47
M  V30 52 1 23 48
M  V30 53 1 24 49
M  V30 54 1 25 50
M  V30 55 1 26 51
M  V30 56 1 27 52
M  V30 57 1 29 53
M  V30 58 1 29 54
M  V30 END BOND
M  V30 END CTAB
M  END
>  <Dataset>  (690) 
ChEMBL_Kinases

>  <Ligand_Instance>  (690) 
nan

>  <PDB_ID>  (690) 
nan

>  <Standardized_SMILES>  (690) 
CCC1(C)Cc2c(sc3c2c(=O)n(C)c2nnc(SCCc4ccccc4)n32)CO1

>  <Name>  (690) 
nan

>  <Pocket>  (690) 
nan

>  <ATP_Site>  (690) 
nan

>  <Peripheral>  (690) 
nan

>  <Num_H_Atoms_ProtBoundConf>  (690) 
nan

>  <Num_Resolved_Atoms>  (690) 
nan

>  <Num_Not_Resolved_Atoms>  (690) 
nan

$$$$
CHEMBL1408427
     RDKit          3D

  0  0  0  0  0  0  0  0  0  0999 V3000
M  V30 BEGIN CTAB
M  V30 COUNTS 37 40 0 0 0
M  V30 BEGIN ATOM
M  V30 1 C 2.091757 -4.610391 3.466759 0
M  V30 2 C 1.680920 -5.601211 2.619771 0
M  V30 3 N 1.594905 -5.524231 1.280875 0
M  V30 4 C 1.935995 -4.377147 0.659254 0
M  V30 5 C 2.363009 -3.322796 1.439986 0
M  V30 6 C 2.719518 -2.095686 0.686051 0
M  V30 7 N 1.572055 -1.206588 0.516943 0
M  V30 8 C 1.750433 0.015857 -0.186486 0
M  V30 9 N 2.956700 0.333507 -0.680249 0
M  V30 10 C 3.198923 1.470948 -1.355117 0
M  V30 11 N 2.189432 2.340035 -1.550511 0
M  V30 12 C 0.942927 2.115075 -1.095710 0
M  V30 13 C -0.069009 3.027247 -1.313298 0
M  V30 14 C -1.326069 2.733007 -0.818309 0
M  V30 15 C -1.564638 1.558874 -0.124702 0
M  V30 16 C -2.900036 1.252443 0.397571 0
M  V30 17 C -3.342638 0.551560 1.498722 0
M  V30 18 C -4.741280 0.601052 1.472870 0
M  V30 19 O -5.094103 1.297183 0.407976 0
M  V30 20 C -4.035854 1.693952 -0.244784 0
M  V30 21 C -0.509607 0.684925 0.060926 0
M  V30 22 C 0.747676 0.934275 -0.410154 0
M  V30 23 C 2.442955 -3.426193 2.814424 0
M  V30 24 H 2.154992 -4.685250 4.525746 0
M  V30 25 H 1.389879 -6.554097 3.045226 0
M  V30 26 H 1.854733 -4.350745 -0.417630 0
M  V30 27 H 3.202447 -2.336194 -0.280005 0
M  V30 28 H 3.494751 -1.575905 1.315028 0
M  V30 29 H 0.687880 -1.552589 0.939611 0
M  V30 30 H 4.215546 1.597475 -1.695412 0
M  V30 31 H 0.170899 3.911044 -1.851661 0
M  V30 32 H -2.133528 3.421010 -0.970666 0
M  V30 33 H -2.635118 0.094272 2.181250 0
M  V30 34 H -5.230949 0.085707 2.288425 0
M  V30 35 H -4.228675 2.284422 -1.151970 0
M  V30 36 H -0.741546 -0.197415 0.596201 0
M  V30 37 H 2.792365 -2.543858 3.376017 0
M  V30 END ATOM
M  V30 BEGIN BOND
M  V30 1 2 1 2
M  V30 2 1 2 3
M  V30 3 2 3 4
M  V30 4 1 4 5
M  V30 5 1 5 6
M  V30 6 1 6 7
M  V30 7 1 7 8
M  V30 8 2 8 9
M  V30 9 1 9 10
M  V30 10 2 10 11
M  V30 11 1 11 12
M  V30 12 2 12 13
M  V30 13 1 13 14
M  V30 14 2 14 15
M  V30 15 1 15 16
M  V30 16 1 16 17
M  V30 17 2 17 18
M  V30 18 1 18 19
M  V30 19 1 19 20
M  V30 20 1 15 21
M  V30 21 2 21 22
M  V30 22 2 5 23
M  V30 23 1 23 1
M  V30 24 1 22 8
M  V30 25 1 22 12
M  V30 26 2 20 16
M  V30 27 1 1 24
M  V30 28 1 2 25
M  V30 29 1 4 26
M  V30 30 1 6 27
M  V30 31 1 6 28
M  V30 32 1 7 29
M  V30 33 1 10 30
M  V30 34 1 13 31
M  V30 35 1 14 32
M  V30 36 1 17 33
M  V30 37 1 18 34
M  V30 38 1 20 35
M  V30 39 1 21 36
M  V30 40 1 23 37
M  V30 END BOND
M  V30 END CTAB
M  END
>  <Dataset>  (691) 
ChEMBL_Kinases

>  <Ligand_Instance>  (691) 
nan

>  <PDB_ID>  (691) 
nan

>  <Standardized_SMILES>  (691) 
c1cncc(CNc2ncnc3ccc(-c4ccoc4)cc23)c1

>  <Name>  (691) 
nan

>  <Pocket>  (691) 
nan

>  <ATP_Site>  (691) 
nan

>  <Peripheral>  (691) 
nan

>  <Num_H_Atoms_ProtBoundConf>  (691) 
nan

>  <Num_Resolved_Atoms>  (691) 
nan

>  <Num_Not_Resolved_Atoms>  (691) 
nan

$$$$
CHEMBL1408237
     RDKit          3D

  0  0  0  0  0  0  0  0  0  0999 V3000
M  V30 BEGIN CTAB
M  V30 COUNTS 74 79 0 0 0
M  V30 BEGIN ATOM
M  V30 1 C -1.629820 0.895271 -4.978029 0
M  V30 2 C -0.614840 0.367611 -5.913257 0
M  V30 3 C 0.057959 -0.910353 -5.500201 0
M  V30 4 C 0.837674 -0.830710 -4.226729 0
M  V30 5 C 0.110127 -0.540296 -2.999496 0
M  V30 6 C 0.240217 0.613821 -2.366130 0
M  V30 7 C -0.412347 1.041502 -1.142205 0
M  V30 8 C -0.138714 2.241592 -0.657849 0
M  V30 9 C 0.756407 3.232833 -1.190278 0
M  V30 10 C 2.012501 3.300583 -1.701053 0
M  V30 11 C 2.352104 4.581066 -2.069098 0
M  V30 12 C 1.207721 5.286271 -1.742876 0
M  V30 13 O 0.306305 4.488104 -1.239951 0
M  V30 14 C -0.869233 2.538254 0.596240 0
M  V30 15 O -0.867115 3.737314 0.982641 0
M  V30 16 C -1.633708 1.631867 1.513253 0
M  V30 17 C -2.868033 2.336379 1.949857 0
M  V30 18 O -0.841108 1.144758 2.555596 0
M  V30 19 C -1.212545 0.312579 3.575182 0
M  V30 20 O -2.436138 -0.048289 3.555671 0
M  V30 21 C -0.301114 -0.150957 4.629135 0
M  V30 22 C 1.033892 0.180431 4.729993 0
M  V30 23 C 1.817487 -0.313139 5.773997 0
M  V30 24 C 1.231855 -1.155211 6.726585 0
M  V30 25 O 1.980157 -1.678663 7.797544 0
M  V30 26 C 1.354869 -2.538126 8.758827 0
M  V30 27 C -0.102431 -1.502515 6.649011 0
M  V30 28 C -0.850905 -0.996203 5.601968 0
M  V30 29 C -2.045207 0.421800 0.704899 0
M  V30 30 O -2.991995 -0.341424 1.023687 0
M  V30 31 C -1.323922 0.085603 -0.528640 0
M  V30 32 C -1.485581 -1.094540 -1.128851 0
M  V30 33 N -0.802221 -1.455563 -2.348111 0
M  V30 34 C -1.012695 -2.769338 -2.915464 0
M  V30 35 C -0.720056 -3.802187 -1.849162 0
M  V30 36 C -1.695014 -4.326111 -1.010031 0
M  V30 37 C -1.342419 -5.257636 -0.059743 0
M  V30 38 C -0.056694 -5.712503 0.115063 0
M  V30 39 C 0.930352 -5.209929 -0.703663 0
M  V30 40 C 0.576797 -4.278365 -1.653663 0
M  V30 41 O 2.164795 -5.783539 -0.383500 0
M  V30 42 C 1.977971 -6.457244 0.864581 0
M  V30 43 O 0.565845 -6.627055 0.976778 0
M  V30 44 H -1.925931 0.156763 -4.221503 0
M  V30 45 H -1.289881 1.814928 -4.433544 0
M  V30 46 H -2.578861 1.204675 -5.518079 0
M  V30 47 H 0.161674 1.150729 -6.193495 0
M  V30 48 H -1.145846 0.171310 -6.898316 0
M  V30 49 H -0.780829 -1.674762 -5.468112 0
M  V30 50 H 0.722433 -1.295960 -6.320486 0
M  V30 51 H 1.512737 -1.726147 -4.115251 0
M  V30 52 H 1.592791 0.003639 -4.397678 0
M  V30 53 H 0.911656 1.312574 -2.840908 0
M  V30 54 H 2.642229 2.430148 -1.780800 0
M  V30 55 H 3.269942 4.945360 -2.500756 0
M  V30 56 H 1.048081 6.366630 -1.875877 0
M  V30 57 H -2.802118 3.400239 1.650687 0
M  V30 58 H -3.806768 1.939762 1.510505 0
M  V30 59 H -2.923233 2.370842 3.069366 0
M  V30 60 H 1.439427 0.834991 3.968378 0
M  V30 61 H 2.860832 -0.051660 5.848176 0
M  V30 62 H 0.755456 -3.332949 8.300450 0
M  V30 63 H 0.618041 -1.871448 9.295614 0
M  V30 64 H 2.081658 -2.851614 9.515825 0
M  V30 65 H -0.603489 -2.144298 7.351838 0
M  V30 66 H -1.901539 -1.267208 5.537362 0
M  V30 67 H -2.160695 -1.746511 -0.632485 0
M  V30 68 H -1.969243 -2.929551 -3.395882 0
M  V30 69 H -0.196382 -2.962603 -3.666254 0
M  V30 70 H -2.714898 -3.998451 -1.118901 0
M  V30 71 H -2.138265 -5.653245 0.589189 0
M  V30 72 H 1.381195 -3.897103 -2.288464 0
M  V30 73 H 2.522755 -7.404488 0.822174 0
M  V30 74 H 2.392101 -5.767544 1.626166 0
M  V30 END ATOM
M  V30 BEGIN BOND
M  V30 1 1 1 2
M  V30 2 1 2 3
M  V30 3 1 3 4
M  V30 4 1 4 5
M  V30 5 2 5 6
M  V30 6 1 6 7
M  V30 7 2 7 8
M  V30 8 1 8 9
M  V30 9 2 9 10
M  V30 10 1 10 11
M  V30 11 2 11 12
M  V30 12 1 12 13
M  V30 13 1 8 14
M  V30 14 2 14 15
M  V30 15 1 14 16
M  V30 16 1 16 17
M  V30 17 1 16 18
M  V30 18 1 18 19
M  V30 19 2 19 20
M  V30 20 1 19 21
M  V30 21 2 21 22
M  V30 22 1 22 23
M  V30 23 2 23 24
M  V30 24 1 24 25
M  V30 25 1 25 26
M  V30 26 1 24 27
M  V30 27 2 27 28
M  V30 28 1 16 29
M  V30 29 2 29 30
M  V30 30 1 29 31
M  V30 31 2 31 32
M  V30 32 1 32 33
M  V30 33 1 33 34
M  V30 34 1 34 35
M  V30 35 2 35 36
M  V30 36 1 36 37
M  V30 37 2 37 38
M  V30 38 1 38 39
M  V30 39 2 39 40
M  V30 40 1 39 41
M  V30 41 1 41 42
M  V30 42 1 42 43
M  V30 43 1 33 5
M  V30 44 1 40 35
M  V30 45 1 31 7
M  V30 46 1 43 38
M  V30 47 1 13 9
M  V30 48 1 28 21
M  V30 49 1 1 44
M  V30 50 1 1 45
M  V30 51 1 1 46
M  V30 52 1 2 47
M  V30 53 1 2 48
M  V30 54 1 3 49
M  V30 55 1 3 50
M  V30 56 1 4 51
M  V30 57 1 4 52
M  V30 58 1 6 53
M  V30 59 1 10 54
M  V30 60 1 11 55
M  V30 61 1 12 56
M  V30 62 1 17 57
M  V30 63 1 17 58
M  V30 64 1 17 59
M  V30 65 1 22 60
M  V30 66 1 23 61
M  V30 67 1 26 62
M  V30 68 1 26 63
M  V30 69 1 26 64
M  V30 70 1 27 65
M  V30 71 1 28 66
M  V30 72 1 32 67
M  V30 73 1 34 68
M  V30 74 1 34 69
M  V30 75 1 36 70
M  V30 76 1 37 71
M  V30 77 1 40 72
M  V30 78 1 42 73
M  V30 79 1 42 74
M  V30 END BOND
M  V30 END CTAB
M  END
>  <Dataset>  (692) 
ChEMBL_Kinases

>  <Ligand_Instance>  (692) 
nan

>  <PDB_ID>  (692) 
nan

>  <Standardized_SMILES>  (692) 
CCCCC1=CC2=C(c3ccco3)C(=O)C(C)(OC(=O)c3ccc(OC)cc3)C(=O)C2=CN1Cc1ccc2c(c1)OCO2

>  <Name>  (692) 
nan

>  <Pocket>  (692) 
nan

>  <ATP_Site>  (692) 
nan

>  <Peripheral>  (692) 
nan

>  <Num_H_Atoms_ProtBoundConf>  (692) 
nan

>  <Num_Resolved_Atoms>  (692) 
nan

>  <Num_Not_Resolved_Atoms>  (692) 
nan

$$$$
CHEMBL1408176
     RDKit          3D

  0  0  0  0  0  0  0  0  0  0999 V3000
M  V30 BEGIN CTAB
M  V30 COUNTS 43 46 0 0 0
M  V30 BEGIN ATOM
M  V30 1 C 2.805925 -3.304752 5.226329 0
M  V30 2 O 2.854068 -2.500970 4.087248 0
M  V30 3 C 2.062696 -2.692131 2.971818 0
M  V30 4 C 1.170997 -3.742056 2.986836 0
M  V30 5 C 0.384034 -3.945710 1.898020 0
M  V30 6 C 0.491276 -3.114973 0.822450 0
M  V30 7 C 1.359340 -2.034561 0.719425 0
M  V30 8 C 1.475229 -1.140041 -0.439707 0
M  V30 9 N 0.584795 -0.004187 -0.323423 0
M  V30 10 C 0.886899 1.150384 0.248930 0
M  V30 11 O 2.052160 1.200155 0.708793 0
M  V30 12 C 0.064956 2.243701 0.371966 0
M  V30 13 C 0.452539 3.490081 1.013353 0
M  V30 14 C 1.575741 3.889481 1.597031 0
M  V30 15 C 1.721498 5.116159 2.139180 0
M  V30 16 C 0.495811 5.959625 2.010112 0
M  V30 17 S -0.683032 4.821644 1.112150 0
M  V30 18 N -1.153892 2.080478 -0.153874 0
M  V30 19 C -1.560873 0.952067 -0.755790 0
M  V30 20 C -2.854571 0.876260 -1.278030 0
M  V30 21 N -3.250136 -0.265791 -1.883875 0
M  V30 22 C -2.386376 -1.280729 -1.960078 0
M  V30 23 O -2.842375 -2.423657 -2.589358 0
M  V30 24 C -2.063224 -3.586361 -2.756647 0
M  V30 25 N -1.154615 -1.180197 -1.451438 0
M  V30 26 C -0.676184 -0.100701 -0.838926 0
M  V30 27 C 2.136464 -1.885972 1.874258 0
M  V30 28 H 3.652322 -3.132190 5.895154 0
M  V30 29 H 1.871975 -3.179331 5.833598 0
M  V30 30 H 2.810613 -4.377969 4.919232 0
M  V30 31 H 1.083461 -4.400435 3.834979 0
M  V30 32 H -0.306607 -4.760098 1.911154 0
M  V30 33 H -0.157282 -3.330201 -0.010276 0
M  V30 34 H 2.517063 -0.839010 -0.661764 0
M  V30 35 H 1.155829 -1.716745 -1.356583 0
M  V30 36 H 2.434670 3.234585 1.662127 0
M  V30 37 H 2.574826 5.553176 2.635669 0
M  V30 38 H 0.581777 7.100937 2.495771 0
M  V30 39 H -3.541259 1.710257 -1.206640 0
M  V30 40 H -1.002663 -3.418166 -2.451285 0
M  V30 41 H -2.455711 -4.384863 -2.113564 0
M  V30 42 H -2.049937 -3.920305 -3.800541 0
M  V30 43 H 2.856739 -1.096271 1.945005 0
M  V30 END ATOM
M  V30 BEGIN BOND
M  V30 1 1 1 2
M  V30 2 1 2 3
M  V30 3 2 3 4
M  V30 4 1 4 5
M  V30 5 2 5 6
M  V30 6 1 6 7
M  V30 7 1 7 8
M  V30 8 1 8 9
M  V30 9 1 9 10
M  V30 10 2 10 11
M  V30 11 1 10 12
M  V30 12 1 12 13
M  V30 13 2 13 14
M  V30 14 1 14 15
M  V30 15 2 15 16
M  V30 16 1 16 17
M  V30 17 2 12 18
M  V30 18 1 18 19
M  V30 19 2 19 20
M  V30 20 1 20 21
M  V30 21 2 21 22
M  V30 22 1 22 23
M  V30 23 1 23 24
M  V30 24 1 22 25
M  V30 25 2 25 26
M  V30 26 2 7 27
M  V30 27 1 27 3
M  V30 28 1 26 9
M  V30 29 1 17 13
M  V30 30 1 26 19
M  V30 31 1 1 28
M  V30 32 1 1 29
M  V30 33 1 1 30
M  V30 34 1 4 31
M  V30 35 1 5 32
M  V30 36 1 6 33
M  V30 37 1 8 34
M  V30 38 1 8 35
M  V30 39 1 14 36
M  V30 40 1 15 37
M  V30 41 1 16 38
M  V30 42 1 20 39
M  V30 43 1 24 40
M  V30 44 1 24 41
M  V30 45 1 24 42
M  V30 46 1 27 43
M  V30 END BOND
M  V30 END CTAB
M  END
>  <Dataset>  (693) 
ChEMBL_Kinases

>  <Ligand_Instance>  (693) 
nan

>  <PDB_ID>  (693) 
nan

>  <Standardized_SMILES>  (693) 
COc1cccc(Cn2c(=O)c(-c3cccs3)nc3cnc(OC)nc32)c1

>  <Name>  (693) 
nan

>  <Pocket>  (693) 
nan

>  <ATP_Site>  (693) 
nan

>  <Peripheral>  (693) 
nan

>  <Num_H_Atoms_ProtBoundConf>  (693) 
nan

>  <Num_Resolved_Atoms>  (693) 
nan

>  <Num_Not_Resolved_Atoms>  (693) 
nan

$$$$
CHEMBL1407816
     RDKit          3D

  0  0  0  0  0  0  0  0  0  0999 V3000
M  V30 BEGIN CTAB
M  V30 COUNTS 39 40 0 0 0
M  V30 BEGIN ATOM
M  V30 1 O 0.214610 -6.292164 2.388851 0
M  V30 2 C 0.794704 -5.435076 3.104537 0
M  V30 3 O 1.027963 -5.908710 4.399292 0
M  V30 4 C 1.275949 -4.050603 2.869553 0
M  V30 5 C 1.006217 -3.575740 1.458708 0
M  V30 6 C -0.447658 -3.566435 1.099604 0
M  V30 7 C -0.637528 -3.080739 -0.332313 0
M  V30 8 C -0.107544 -1.679188 -0.532784 0
M  V30 9 N -0.787552 -0.736582 0.337480 0
M  V30 10 C -0.496064 0.681056 0.374704 0
M  V30 11 N 0.209401 1.016619 -0.678603 0
M  V30 12 C 0.578892 2.388697 -0.788291 0
M  V30 13 C 1.299956 2.964101 -1.779500 0
M  V30 14 C 1.608768 4.296991 -1.802692 0
M  V30 15 C 1.154249 5.073448 -0.757044 0
M  V30 16 C 0.407696 4.490983 0.274083 0
M  V30 17 C 0.103068 3.123054 0.277301 0
M  V30 18 C -0.688908 2.838094 1.494677 0
M  V30 19 C -1.049760 1.381054 1.558163 0
M  V30 20 H 0.505702 -6.670444 4.817181 0
M  V30 21 H 0.909600 -3.335400 3.619043 0
M  V30 22 H 2.381572 -4.088428 2.977179 0
M  V30 23 H 1.407042 -2.538304 1.414285 0
M  V30 24 H 1.608434 -4.189301 0.772364 0
M  V30 25 H -0.811959 -4.614903 1.110591 0
M  V30 26 H -1.063426 -2.994679 1.800800 0
M  V30 27 H -1.711569 -3.075477 -0.609732 0
M  V30 28 H -0.121627 -3.753506 -1.037984 0
M  V30 29 H 0.985063 -1.708627 -0.395283 0
M  V30 30 H -0.275857 -1.427354 -1.603506 0
M  V30 31 H -1.530322 -1.133437 0.966116 0
M  V30 32 H 1.614063 2.280867 -2.556136 0
M  V30 33 H 2.191454 4.636667 -2.649988 0
M  V30 34 H 1.422698 6.118590 -0.818999 0
M  V30 35 H 0.139972 5.268466 1.008132 0
M  V30 36 H -0.036381 3.040110 2.393783 0
M  V30 37 H -1.609891 3.477193 1.544485 0
M  V30 38 H -0.718355 0.896439 2.498410 0
M  V30 39 H -2.165706 1.241864 1.529645 0
M  V30 END ATOM
M  V30 BEGIN BOND
M  V30 1 2 1 2
M  V30 2 1 2 3
M  V30 3 1 2 4
M  V30 4 1 4 5
M  V30 5 1 5 6
M  V30 6 1 6 7
M  V30 7 1 7 8
M  V30 8 1 8 9
M  V30 9 1 9 10
M  V30 10 2 10 11
M  V30 11 1 11 12
M  V30 12 2 12 13
M  V30 13 1 13 14
M  V30 14 2 14 15
M  V30 15 1 15 16
M  V30 16 2 16 17
M  V30 17 1 17 18
M  V30 18 1 18 19
M  V30 19 1 19 10
M  V30 20 1 17 12
M  V30 21 1 3 20
M  V30 22 1 4 21
M  V30 23 1 4 22
M  V30 24 1 5 23
M  V30 25 1 5 24
M  V30 26 1 6 25
M  V30 27 1 6 26
M  V30 28 1 7 27
M  V30 29 1 7 28
M  V30 30 1 8 29
M  V30 31 1 8 30
M  V30 32 1 9 31
M  V30 33 1 13 32
M  V30 34 1 14 33
M  V30 35 1 15 34
M  V30 36 1 16 35
M  V30 37 1 18 36
M  V30 38 1 18 37
M  V30 39 1 19 38
M  V30 40 1 19 39
M  V30 END BOND
M  V30 END CTAB
M  END
>  <Dataset>  (694) 
ChEMBL_Kinases

>  <Ligand_Instance>  (694) 
nan

>  <PDB_ID>  (694) 
nan

>  <Standardized_SMILES>  (694) 
O=C(O)CCCCCNC1=Nc2ccccc2CC1

>  <Name>  (694) 
nan

>  <Pocket>  (694) 
nan

>  <ATP_Site>  (694) 
nan

>  <Peripheral>  (694) 
nan

>  <Num_H_Atoms_ProtBoundConf>  (694) 
nan

>  <Num_Resolved_Atoms>  (694) 
nan

>  <Num_Not_Resolved_Atoms>  (694) 
nan

$$$$
CHEMBL1407574
     RDKit          3D

  0  0  0  0  0  0  0  0  0  0999 V3000
M  V30 BEGIN CTAB
M  V30 COUNTS 53 56 0 0 0
M  V30 BEGIN ATOM
M  V30 1 C -2.328053 -3.613434 4.192599 0
M  V30 2 C -0.968468 -3.893270 3.538629 0
M  V30 3 O -1.200545 -3.665591 2.141875 0
M  V30 4 C -0.107430 -3.851918 1.291492 0
M  V30 5 O 0.904145 -4.195665 1.940769 0
M  V30 6 C -0.214138 -3.651720 -0.151267 0
M  V30 7 C 0.050995 -2.374471 -0.653770 0
M  V30 8 N 0.425017 -1.162090 -0.005130 0
M  V30 9 C 0.630775 -0.006812 -0.772662 0
M  V30 10 O 0.497602 0.004063 -2.022628 0
M  V30 11 C 1.014211 1.241696 -0.120572 0
M  V30 12 N 1.223097 2.383230 -0.827111 0
M  V30 13 C 1.566880 3.379295 0.041441 0
M  V30 14 N 1.565775 2.832788 1.289007 0
M  V30 15 N 1.230154 1.550632 1.153902 0
M  V30 16 C 1.909682 3.756272 2.325658 0
M  V30 17 C 1.492420 3.173703 3.658469 0
M  V30 18 F 0.128413 2.944534 3.691866 0
M  V30 19 F 1.743741 4.089986 4.670017 0
M  V30 20 C 1.262087 5.114104 2.195816 0
M  V30 21 C 1.429076 5.714841 0.839545 0
M  V30 22 C 0.104025 6.334189 0.433990 0
M  V30 23 N 1.891960 4.760124 -0.147435 0
M  V30 24 S -0.186464 -2.558479 -2.414772 0
M  V30 25 C -0.607196 -4.249065 -2.391009 0
M  V30 26 C -0.548955 -4.591978 -1.065553 0
M  V30 27 C -0.887306 -6.025934 -0.855634 0
M  V30 28 C -2.180437 -6.384859 -1.539254 0
M  V30 29 C -2.297814 -5.843533 -2.924971 0
M  V30 30 C -0.974808 -5.259883 -3.429546 0
M  V30 31 H -2.244517 -3.514174 5.292284 0
M  V30 32 H -2.677780 -2.661895 3.716899 0
M  V30 33 H -2.999625 -4.409282 3.850677 0
M  V30 34 H -0.805205 -4.986198 3.699705 0
M  V30 35 H -0.173343 -3.259663 3.944091 0
M  V30 36 H 0.519724 -1.223161 1.006537 0
M  V30 37 H 3.016002 3.898591 2.363219 0
M  V30 38 H 2.009423 2.215632 3.879981 0
M  V30 39 H 0.209160 5.107257 2.516243 0
M  V30 40 H 1.791071 5.775387 2.929923 0
M  V30 41 H 2.181507 6.540899 0.846097 0
M  V30 42 H -0.554792 5.501043 0.101351 0
M  V30 43 H 0.192679 7.065637 -0.376025 0
M  V30 44 H -0.355722 6.744732 1.353268 0
M  V30 45 H 2.448777 5.012664 -0.990304 0
M  V30 46 H -0.079093 -6.639629 -1.335289 0
M  V30 47 H -0.927429 -6.312714 0.208096 0
M  V30 48 H -3.010172 -5.997966 -0.923235 0
M  V30 49 H -2.301152 -7.484739 -1.585827 0
M  V30 50 H -3.030163 -5.010939 -2.937971 0
M  V30 51 H -2.692145 -6.600135 -3.620330 0
M  V30 52 H -1.276389 -4.697958 -4.361490 0
M  V30 53 H -0.223190 -6.028127 -3.594055 0
M  V30 END ATOM
M  V30 BEGIN BOND
M  V30 1 1 1 2
M  V30 2 1 2 3
M  V30 3 1 3 4
M  V30 4 2 4 5
M  V30 5 1 4 6
M  V30 6 2 6 7
M  V30 7 1 7 8
M  V30 8 1 8 9
M  V30 9 2 9 10
M  V30 10 1 9 11
M  V30 11 1 11 12
M  V30 12 2 12 13
M  V30 13 1 13 14
M  V30 14 1 14 15
M  V30 15 1 14 16
M  V30 16 1 16 17
M  V30 17 1 17 18
M  V30 18 1 17 19
M  V30 19 1 16 20
M  V30 20 1 20 21
M  V30 21 1 21 22
M  V30 22 1 21 23
M  V30 23 1 7 24
M  V30 24 1 24 25
M  V30 25 2 25 26
M  V30 26 1 26 27
M  V30 27 1 27 28
M  V30 28 1 28 29
M  V30 29 1 29 30
M  V30 30 1 26 6
M  V30 31 2 15 11
M  V30 32 1 30 25
M  V30 33 1 23 13
M  V30 34 1 1 31
M  V30 35 1 1 32
M  V30 36 1 1 33
M  V30 37 1 2 34
M  V30 38 1 2 35
M  V30 39 1 8 36
M  V30 40 1 16 37
M  V30 41 1 17 38
M  V30 42 1 20 39
M  V30 43 1 20 40
M  V30 44 1 21 41
M  V30 45 1 22 42
M  V30 46 1 22 43
M  V30 47 1 22 44
M  V30 48 1 23 45
M  V30 49 1 27 46
M  V30 50 1 27 47
M  V30 51 1 28 48
M  V30 52 1 28 49
M  V30 53 1 29 50
M  V30 54 1 29 51
M  V30 55 1 30 52
M  V30 56 1 30 53
M  V30 END BOND
M  V30 END CTAB
M  END
>  <Dataset>  (695) 
ChEMBL_Kinases

>  <Ligand_Instance>  (695) 
nan

>  <PDB_ID>  (695) 
nan

>  <Standardized_SMILES>  (695) 
CCOC(=O)c1c(NC(=O)c2nc3n(n2)C(C(F)F)CC(C)N3)sc2c1CCCC2

>  <Name>  (695) 
nan

>  <Pocket>  (695) 
nan

>  <ATP_Site>  (695) 
nan

>  <Peripheral>  (695) 
nan

>  <Num_H_Atoms_ProtBoundConf>  (695) 
nan

>  <Num_Resolved_Atoms>  (695) 
nan

>  <Num_Not_Resolved_Atoms>  (695) 
nan

$$$$
CHEMBL1407464
     RDKit          3D

  0  0  0  0  0  0  0  0  0  0999 V3000
M  V30 BEGIN CTAB
M  V30 COUNTS 36 37 0 0 0
M  V30 BEGIN ATOM
M  V30 1 C -1.077698 -1.647270 4.718829 0
M  V30 2 C 0.129269 -1.331100 3.850267 0
M  V30 3 O -0.214775 -1.200184 2.477338 0
M  V30 4 C 0.784073 -0.914632 1.583157 0
M  V30 5 O 1.920031 -0.806548 2.154728 0
M  V30 6 C 0.467837 -0.771274 0.152335 0
M  V30 7 C 0.531137 -1.893910 -0.597931 0
M  V30 8 N 0.835145 -3.209972 -0.338843 0
M  V30 9 C 2.210119 -3.620600 -0.459244 0
M  V30 10 C 2.687529 -5.002851 -0.211968 0
M  V30 11 O 3.091268 -2.767871 -0.796614 0
M  V30 12 S 0.064426 -1.282660 -2.331132 0
M  V30 13 C -0.148750 0.435710 -1.758831 0
M  V30 14 C 0.125193 0.438862 -0.398465 0
M  V30 15 C 0.040022 1.701472 0.381399 0
M  V30 16 C -1.183181 2.483157 -0.038901 0
M  V30 17 C -0.814132 3.496548 -1.100772 0
M  V30 18 N -0.909143 2.822079 -2.383441 0
M  V30 19 C -0.540895 1.486303 -2.704093 0
M  V30 20 O -0.533088 1.112660 -3.905466 0
M  V30 21 H -1.329110 -2.731831 4.680885 0
M  V30 22 H -0.793082 -1.411264 5.762547 0
M  V30 23 H -1.941149 -1.033254 4.426239 0
M  V30 24 H 0.479290 -0.327362 4.210389 0
M  V30 25 H 0.915900 -2.063106 4.029685 0
M  V30 26 H 0.145776 -3.943684 -0.059387 0
M  V30 27 H 2.808035 -5.551288 -1.162774 0
M  V30 28 H 3.685930 -5.006183 0.306306 0
M  V30 29 H 1.936360 -5.527701 0.408761 0
M  V30 30 H 0.948276 2.330194 0.282381 0
M  V30 31 H -0.119843 1.421152 1.452764 0
M  V30 32 H -1.908715 1.725827 -0.424241 0
M  V30 33 H -1.603320 3.003935 0.835353 0
M  V30 34 H -1.460637 4.395834 -1.060387 0
M  V30 35 H 0.272639 3.733862 -0.975439 0
M  V30 36 H -1.287069 3.330082 -3.210450 0
M  V30 END ATOM
M  V30 BEGIN BOND
M  V30 1 1 1 2
M  V30 2 1 2 3
M  V30 3 1 3 4
M  V30 4 2 4 5
M  V30 5 1 4 6
M  V30 6 2 6 7
M  V30 7 1 7 8
M  V30 8 1 8 9
M  V30 9 1 9 10
M  V30 10 2 9 11
M  V30 11 1 7 12
M  V30 12 1 12 13
M  V30 13 2 13 14
M  V30 14 1 14 15
M  V30 15 1 15 16
M  V30 16 1 16 17
M  V30 17 1 17 18
M  V30 18 1 18 19
M  V30 19 2 19 20
M  V30 20 1 14 6
M  V30 21 1 19 13
M  V30 22 1 1 21
M  V30 23 1 1 22
M  V30 24 1 1 23
M  V30 25 1 2 24
M  V30 26 1 2 25
M  V30 27 1 8 26
M  V30 28 1 10 27
M  V30 29 1 10 28
M  V30 30 1 10 29
M  V30 31 1 15 30
M  V30 32 1 15 31
M  V30 33 1 16 32
M  V30 34 1 16 33
M  V30 35 1 17 34
M  V30 36 1 17 35
M  V30 37 1 18 36
M  V30 END BOND
M  V30 END CTAB
M  END
>  <Dataset>  (696) 
ChEMBL_Kinases

>  <Ligand_Instance>  (696) 
nan

>  <PDB_ID>  (696) 
nan

>  <Standardized_SMILES>  (696) 
CCOC(=O)c1c(NC(C)=O)sc2c1CCCNC2=O

>  <Name>  (696) 
nan

>  <Pocket>  (696) 
nan

>  <ATP_Site>  (696) 
nan

>  <Peripheral>  (696) 
nan

>  <Num_H_Atoms_ProtBoundConf>  (696) 
nan

>  <Num_Resolved_Atoms>  (696) 
nan

>  <Num_Not_Resolved_Atoms>  (696) 
nan

$$$$
CHEMBL1407250
     RDKit          3D

  0  0  0  0  0  0  0  0  0  0999 V3000
M  V30 BEGIN CTAB
M  V30 COUNTS 48 52 0 0 0
M  V30 BEGIN ATOM
M  V30 1 O -0.377896 -5.593957 1.938126 0
M  V30 2 C -1.124220 -5.432908 0.950009 0
M  V30 3 N -1.000894 -4.311792 0.080422 0
M  V30 4 C -0.098942 -3.212942 0.110571 0
M  V30 5 C 1.130261 -3.254763 -0.550009 0
M  V30 6 C 1.978964 -2.171947 -0.499366 0
M  V30 7 C 1.544972 -1.098492 0.216442 0
M  V30 8 N 2.343072 -0.019636 0.292224 0
M  V30 9 C 2.007528 1.104453 0.979821 0
M  V30 10 C 3.009091 2.207394 0.978400 0
M  V30 11 C 3.830390 2.442687 -0.250226 0
M  V30 12 C 4.485265 1.715897 0.836684 0
M  V30 13 N 0.850385 1.251031 1.649206 0
M  V30 14 C 0.450478 2.417479 2.369335 0
M  V30 15 C -0.329425 3.376943 1.550925 0
M  V30 16 C -1.726030 3.280364 1.550459 0
M  V30 17 C -2.542610 4.119066 0.825729 0
M  V30 18 C -2.005231 5.117417 0.048194 0
M  V30 19 F -2.755954 5.956462 -0.673133 0
M  V30 20 C -0.636996 5.251745 0.016712 0
M  V30 21 C 0.141074 4.395061 0.753768 0
M  V30 22 C 0.052814 0.184762 1.579717 0
M  V30 23 O -1.073275 0.114401 2.135843 0
M  V30 24 C 0.348651 -0.983378 0.893253 0
M  V30 25 C -0.487406 -2.089933 0.825205 0
M  V30 26 C -2.160631 -6.421453 0.668717 0
M  V30 27 C -2.348297 -7.542004 1.465230 0
M  V30 28 C -3.413895 -8.226760 0.877532 0
M  V30 29 C -3.805240 -7.493829 -0.224328 0
M  V30 30 O -3.027214 -6.417682 -0.313828 0
M  V30 31 H -1.614162 -4.138290 -0.768550 0
M  V30 32 H 1.326114 -4.173377 -1.070964 0
M  V30 33 H 2.918252 -2.220006 -1.011507 0
M  V30 34 H 2.857718 3.097273 1.588425 0
M  V30 35 H 4.160311 3.457974 -0.490537 0
M  V30 36 H 3.549449 1.875267 -1.177135 0
M  V30 37 H 5.216148 2.180666 1.523238 0
M  V30 38 H 4.623885 0.625435 0.694518 0
M  V30 39 H -0.206130 2.111961 3.226153 0
M  V30 40 H 1.270936 2.989375 2.844215 0
M  V30 41 H -2.292273 2.551924 2.111847 0
M  V30 42 H -3.618441 4.063123 0.810300 0
M  V30 43 H -0.181454 6.017976 -0.577526 0
M  V30 44 H 1.206074 4.527228 0.708492 0
M  V30 45 H -1.440009 -2.031953 1.348780 0
M  V30 46 H -1.818883 -7.867492 2.356386 0
M  V30 47 H -3.860622 -9.162840 1.215274 0
M  V30 48 H -4.611674 -7.735142 -0.918315 0
M  V30 END ATOM
M  V30 BEGIN BOND
M  V30 1 2 1 2
M  V30 2 1 2 3
M  V30 3 1 3 4
M  V30 4 2 4 5
M  V30 5 1 5 6
M  V30 6 2 6 7
M  V30 7 1 7 8
M  V30 8 2 8 9
M  V30 9 1 9 10
M  V30 10 1 10 11
M  V30 11 1 11 12
M  V30 12 1 9 13
M  V30 13 1 13 14
M  V30 14 1 14 15
M  V30 15 2 15 16
M  V30 16 1 16 17
M  V30 17 2 17 18
M  V30 18 1 18 19
M  V30 19 1 18 20
M  V30 20 2 20 21
M  V30 21 1 13 22
M  V30 22 2 22 23
M  V30 23 1 22 24
M  V30 24 2 24 25
M  V30 25 1 2 26
M  V30 26 2 26 27
M  V30 27 1 27 28
M  V30 28 2 28 29
M  V30 29 1 29 30
M  V30 30 1 25 4
M  V30 31 1 30 26
M  V30 32 1 24 7
M  V30 33 1 12 10
M  V30 34 1 21 15
M  V30 35 1 3 31
M  V30 36 1 5 32
M  V30 37 1 6 33
M  V30 38 1 10 34
M  V30 39 1 11 35
M  V30 40 1 11 36
M  V30 41 1 12 37
M  V30 42 1 12 38
M  V30 43 1 14 39
M  V30 44 1 14 40
M  V30 45 1 16 41
M  V30 46 1 17 42
M  V30 47 1 20 43
M  V30 48 1 21 44
M  V30 49 1 25 45
M  V30 50 1 27 46
M  V30 51 1 28 47
M  V30 52 1 29 48
M  V30 END BOND
M  V30 END CTAB
M  END
>  <Dataset>  (697) 
ChEMBL_Kinases

>  <Ligand_Instance>  (697) 
nan

>  <PDB_ID>  (697) 
nan

>  <Standardized_SMILES>  (697) 
O=C(Nc1ccc2nc(C3CC3)n(Cc3ccc(F)cc3)c(=O)c2c1)c1ccco1

>  <Name>  (697) 
nan

>  <Pocket>  (697) 
nan

>  <ATP_Site>  (697) 
nan

>  <Peripheral>  (697) 
nan

>  <Num_H_Atoms_ProtBoundConf>  (697) 
nan

>  <Num_Resolved_Atoms>  (697) 
nan

>  <Num_Not_Resolved_Atoms>  (697) 
nan

$$$$
CHEMBL1407
     RDKit          3D

  0  0  0  0  0  0  0  0  0  0999 V3000
M  V30 BEGIN CTAB
M  V30 COUNTS 53 55 0 0 0
M  V30 BEGIN ATOM
M  V30 1 C 2.409603 -5.494899 1.564932 0
M  V30 2 O 1.146331 -5.272833 1.016594 0
M  V30 3 C 0.779424 -4.079144 0.387564 0
M  V30 4 C 1.612210 -2.985589 0.233205 0
M  V30 5 C 1.133358 -1.857374 -0.408996 0
M  V30 6 C -0.146498 -1.754101 -0.913911 0
M  V30 7 C -0.673894 -0.570707 -1.596582 0
M  V30 8 C -1.333292 0.436004 -0.688896 0
M  V30 9 C -0.386112 0.943954 0.324371 0
M  V30 10 C 0.629397 1.804596 -0.085835 0
M  V30 11 C 1.543567 2.310108 0.819659 0
M  V30 12 O 2.580975 3.171020 0.487192 0
M  V30 13 C 2.864113 3.656190 -0.788245 0
M  V30 14 C 1.426466 1.940888 2.145197 0
M  V30 15 O 2.334022 2.434849 3.081471 0
M  V30 16 C 2.227413 2.067789 4.434564 0
M  V30 17 C 0.443012 1.099847 2.578279 0
M  V30 18 C -0.437598 0.624955 1.648914 0
M  V30 19 C -1.543355 -0.299028 2.033240 0
M  V30 20 C -2.762781 0.088145 1.235669 0
M  V30 21 N -2.591613 0.006265 -0.178908 0
M  V30 22 C -3.744088 0.558191 -0.828956 0
M  V30 23 C -0.990043 -2.848536 -0.763069 0
M  V30 24 C -0.497739 -3.965853 -0.120545 0
M  V30 25 O -1.359950 -5.050310 0.019414 0
M  V30 26 C -2.686397 -5.017936 -0.472796 0
M  V30 27 H 3.205811 -5.382743 0.785808 0
M  V30 28 H 2.444838 -6.556292 1.886066 0
M  V30 29 H 2.665792 -4.809758 2.399778 0
M  V30 30 H 2.615628 -3.061324 0.626885 0
M  V30 31 H 1.787974 -1.000163 -0.529341 0
M  V30 32 H 0.109719 -0.028973 -2.173194 0
M  V30 33 H -1.437481 -0.892327 -2.339146 0
M  V30 34 H -1.550524 1.322357 -1.355027 0
M  V30 35 H 0.737585 2.105883 -1.121925 0
M  V30 36 H 2.968681 2.783442 -1.489486 0
M  V30 37 H 3.903702 4.088415 -0.734977 0
M  V30 38 H 2.182423 4.419135 -1.178423 0
M  V30 39 H 1.231502 2.391721 4.833942 0
M  V30 40 H 2.989702 2.622348 5.019434 0
M  V30 41 H 2.336719 0.978445 4.592524 0
M  V30 42 H 0.381751 0.831246 3.628965 0
M  V30 43 H -1.277898 -1.327764 1.737593 0
M  V30 44 H -1.780247 -0.190701 3.098152 0
M  V30 45 H -3.118268 1.111659 1.486788 0
M  V30 46 H -3.574371 -0.588421 1.562802 0
M  V30 47 H -4.604882 -0.096162 -0.550323 0
M  V30 48 H -3.565722 0.559366 -1.924571 0
M  V30 49 H -3.913326 1.609444 -0.517888 0
M  V30 50 H -2.003451 -2.834626 -1.134633 0
M  V30 51 H -3.276946 -4.266945 0.129158 0
M  V30 52 H -2.734962 -4.719274 -1.523119 0
M  V30 53 H -3.114215 -6.028463 -0.311764 0
M  V30 END ATOM
M  V30 BEGIN BOND
M  V30 1 1 1 2
M  V30 2 1 2 3
M  V30 3 2 3 4
M  V30 4 1 4 5
M  V30 5 2 5 6
M  V30 6 1 6 7
M  V30 7 1 7 8
M  V30 8 1 8 9
M  V30 9 2 9 10
M  V30 10 1 10 11
M  V30 11 1 11 12
M  V30 12 1 12 13
M  V30 13 2 11 14
M  V30 14 1 14 15
M  V30 15 1 15 16
M  V30 16 1 14 17
M  V30 17 2 17 18
M  V30 18 1 18 19
M  V30 19 1 19 20
M  V30 20 1 20 21
M  V30 21 1 21 22
M  V30 22 1 6 23
M  V30 23 2 23 24
M  V30 24 1 24 25
M  V30 25 1 25 26
M  V30 26 1 24 3
M  V30 27 1 21 8
M  V30 28 1 18 9
M  V30 29 1 1 27
M  V30 30 1 1 28
M  V30 31 1 1 29
M  V30 32 1 4 30
M  V30 33 1 5 31
M  V30 34 1 7 32
M  V30 35 1 7 33
M  V30 36 1 8 34
M  V30 37 1 10 35
M  V30 38 1 13 36
M  V30 39 1 13 37
M  V30 40 1 13 38
M  V30 41 1 16 39
M  V30 42 1 16 40
M  V30 43 1 16 41
M  V30 44 1 17 42
M  V30 45 1 19 43
M  V30 46 1 19 44
M  V30 47 1 20 45
M  V30 48 1 20 46
M  V30 49 1 22 47
M  V30 50 1 22 48
M  V30 51 1 22 49
M  V30 52 1 23 50
M  V30 53 1 26 51
M  V30 54 1 26 52
M  V30 55 1 26 53
M  V30 END BOND
M  V30 END CTAB
M  END
>  <Dataset>  (698) 
ChEMBL_Kinases

>  <Ligand_Instance>  (698) 
nan

>  <PDB_ID>  (698) 
nan

>  <Standardized_SMILES>  (698) 
COc1ccc(CC2c3cc(OC)c(OC)cc3CCN2C)cc1OC

>  <Name>  (698) 
LAUDANOSINE

>  <Pocket>  (698) 
nan

>  <ATP_Site>  (698) 
nan

>  <Peripheral>  (698) 
nan

>  <Num_H_Atoms_ProtBoundConf>  (698) 
nan

>  <Num_Resolved_Atoms>  (698) 
nan

>  <Num_Not_Resolved_Atoms>  (698) 
nan

$$$$
CHEMBL1406851
     RDKit          3D

  0  0  0  0  0  0  0  0  0  0999 V3000
M  V30 BEGIN CTAB
M  V30 COUNTS 54 57 0 0 0
M  V30 BEGIN ATOM
M  V30 1 C 0.708215 -5.511154 2.366743 0
M  V30 2 O 1.104597 -4.521107 1.454747 0
M  V30 3 C 1.650936 -3.334278 1.897286 0
M  V30 4 C 1.821932 -3.082670 3.239956 0
M  V30 5 C 2.373585 -1.883309 3.702866 0
M  V30 6 C 2.720120 -1.002931 2.710776 0
M  V30 7 N 3.275879 0.221148 2.898916 0
M  V30 8 C 3.455941 0.744446 1.661942 0
M  V30 9 C 3.018063 -0.135952 0.662539 0
M  V30 10 C 3.101972 0.172864 -0.763355 0
M  V30 11 C 1.845801 0.566102 -1.449549 0
M  V30 12 N 1.141673 1.714176 -0.980650 0
M  V30 13 C 0.459627 2.826291 -0.526443 0
M  V30 14 N 0.859956 4.068635 -0.217572 0
M  V30 15 C 0.079187 5.046570 0.227942 0
M  V30 16 N -1.208040 4.751281 0.373717 0
M  V30 17 C -1.721330 3.554449 0.100752 0
M  V30 18 C -0.901786 2.512596 -0.371099 0
M  V30 19 C -1.695282 1.315466 -0.604508 0
M  V30 20 C -2.866648 1.455594 -1.369182 0
M  V30 21 C -3.724494 0.423096 -1.678923 0
M  V30 22 C -3.378977 -0.811499 -1.189841 0
M  V30 23 C -2.247542 -1.043367 -0.428497 0
M  V30 24 N -2.003887 -2.347514 0.018766 0
M  V30 25 S -3.053428 -3.499507 0.718813 0
M  V30 26 C -4.387714 -3.996394 -0.315034 0
M  V30 27 O -2.229657 -4.751512 0.983138 0
M  V30 28 O -3.559607 -2.975011 2.014830 0
M  V30 29 C -1.452435 0.036066 -0.169282 0
M  V30 30 C 2.555342 -1.238885 1.340774 0
M  V30 31 C 2.016580 -2.412115 0.916196 0
M  V30 32 H -0.002525 -6.191070 1.822857 0
M  V30 33 H 1.564739 -6.173908 2.667516 0
M  V30 34 H 0.194034 -5.146761 3.262259 0
M  V30 35 H 1.541195 -3.809696 4.011418 0
M  V30 36 H 2.505727 -1.687394 4.738082 0
M  V30 37 H 3.542255 0.728722 3.774603 0
M  V30 38 H 3.893350 1.729726 1.479026 0
M  V30 39 H 3.533459 -0.690079 -1.359003 0
M  V30 40 H 3.864778 0.992382 -0.932193 0
M  V30 41 H 2.007563 0.616513 -2.569418 0
M  V30 42 H 1.133950 -0.332634 -1.387255 0
M  V30 43 H 2.102878 2.190018 -1.070418 0
M  V30 44 H 0.596929 5.981304 0.418020 0
M  V30 45 H -2.793866 3.511412 0.284166 0
M  V30 46 H -3.120088 2.453274 -1.744976 0
M  V30 47 H -4.606468 0.635414 -2.282051 0
M  V30 48 H -4.103525 -1.587946 -1.476337 0
M  V30 49 H -0.976133 -2.552357 -0.156923 0
M  V30 50 H -4.072417 -4.109686 -1.372202 0
M  V30 51 H -5.258296 -3.313351 -0.306946 0
M  V30 52 H -4.752662 -4.983504 0.097267 0
M  V30 53 H -0.569610 -0.086652 0.415193 0
M  V30 54 H 1.907112 -2.558752 -0.130751 0
M  V30 END ATOM
M  V30 BEGIN BOND
M  V30 1 1 1 2
M  V30 2 1 2 3
M  V30 3 2 3 4
M  V30 4 1 4 5
M  V30 5 2 5 6
M  V30 6 1 6 7
M  V30 7 1 7 8
M  V30 8 2 8 9
M  V30 9 1 9 10
M  V30 10 1 10 11
M  V30 11 1 11 12
M  V30 12 1 12 13
M  V30 13 2 13 14
M  V30 14 1 14 15
M  V30 15 2 15 16
M  V30 16 1 16 17
M  V30 17 2 17 18
M  V30 18 1 18 19
M  V30 19 2 19 20
M  V30 20 1 20 21
M  V30 21 2 21 22
M  V30 22 1 22 23
M  V30 23 1 23 24
M  V30 24 1 24 25
M  V30 25 1 25 26
M  V30 26 2 25 27
M  V30 27 2 25 28
M  V30 28 2 23 29
M  V30 29 1 9 30
M  V30 30 2 30 31
M  V30 31 1 31 3
M  V30 32 1 30 6
M  V30 33 1 18 13
M  V30 34 1 29 19
M  V30 35 1 1 32
M  V30 36 1 1 33
M  V30 37 1 1 34
M  V30 38 1 4 35
M  V30 39 1 5 36
M  V30 40 1 7 37
M  V30 41 1 8 38
M  V30 42 1 10 39
M  V30 43 1 10 40
M  V30 44 1 11 41
M  V30 45 1 11 42
M  V30 46 1 12 43
M  V30 47 1 15 44
M  V30 48 1 17 45
M  V30 49 1 20 46
M  V30 50 1 21 47
M  V30 51 1 22 48
M  V30 52 1 24 49
M  V30 53 1 26 50
M  V30 54 1 26 51
M  V30 55 1 26 52
M  V30 56 1 29 53
M  V30 57 1 31 54
M  V30 END BOND
M  V30 END CTAB
M  END
>  <Dataset>  (699) 
ChEMBL_Kinases

>  <Ligand_Instance>  (699) 
nan

>  <PDB_ID>  (699) 
nan

>  <Standardized_SMILES>  (699) 
COc1ccc2[nH]cc(CCNc3ncncc3-c3cccc(NS(C)(=O)=O)c3)c2c1

>  <Name>  (699) 
nan

>  <Pocket>  (699) 
nan

>  <ATP_Site>  (699) 
nan

>  <Peripheral>  (699) 
nan

>  <Num_H_Atoms_ProtBoundConf>  (699) 
nan

>  <Num_Resolved_Atoms>  (699) 
nan

>  <Num_Not_Resolved_Atoms>  (699) 
nan

$$$$
CHEMBL1405581
     RDKit          3D

  0  0  0  0  0  0  0  0  0  0999 V3000
M  V30 BEGIN CTAB
M  V30 COUNTS 49 51 0 0 0
M  V30 BEGIN ATOM
M  V30 1 N 1.233973 -3.055971 5.420077 0
M  V30 2 C 1.348390 -3.027353 4.269111 0
M  V30 3 N 1.493618 -3.016572 2.878425 0
M  V30 4 C 2.583545 -3.776185 2.321916 0
M  V30 5 C 3.872623 -3.126737 2.668050 0
M  V30 6 N 4.139659 -1.946879 3.417742 0
M  V30 7 O 4.778396 -3.812171 2.169792 0
M  V30 8 C 0.637843 -2.302146 2.006068 0
M  V30 9 N 0.992949 -1.009795 1.983971 0
M  V30 10 C 0.398583 -0.074018 1.259415 0
M  V30 11 N 0.739964 1.312467 1.215740 0
M  V30 12 C 0.024765 2.345800 0.521278 0
M  V30 13 C 0.876695 3.168485 -0.386324 0
M  V30 14 C 2.330236 3.004969 -0.274298 0
M  V30 15 C 2.892375 2.139217 0.782747 0
M  V30 16 C 1.903227 1.855125 1.894493 0
M  V30 17 N -0.632506 -0.481207 0.499994 0
M  V30 18 C -1.033313 -1.765027 0.482383 0
M  V30 19 N -2.111620 -2.051095 -0.392907 0
M  V30 20 C -2.313232 -1.212154 -1.564580 0
M  V30 21 C -3.559199 -0.393018 -1.496308 0
M  V30 22 C -4.677694 -1.195354 -0.870285 0
M  V30 23 C -4.390896 -2.689458 -0.974120 0
M  V30 24 C -3.114339 -3.094319 -0.311927 0
M  V30 25 N -0.415576 -2.693443 1.225903 0
M  V30 26 H 2.493367 -3.921277 1.208934 0
M  V30 27 H 2.562372 -4.802229 2.758811 0
M  V30 28 H 4.596660 -2.181493 4.320492 0
M  V30 29 H 3.770556 -1.195841 2.779819 0
M  V30 30 H -0.439805 2.996250 1.325174 0
M  V30 31 H -0.839525 1.883579 0.000249 0
M  V30 32 H 0.522142 2.984490 -1.434970 0
M  V30 33 H 0.611536 4.244182 -0.222077 0
M  V30 34 H 2.730791 2.629322 -1.266375 0
M  V30 35 H 2.845482 4.013570 -0.198388 0
M  V30 36 H 3.153854 1.142312 0.361643 0
M  V30 37 H 3.788584 2.591071 1.258095 0
M  V30 38 H 1.622615 2.792995 2.428841 0
M  V30 39 H 2.305444 1.092448 2.596852 0
M  V30 40 H -1.446870 -0.523286 -1.643842 0
M  V30 41 H -2.260247 -1.844154 -2.481123 0
M  V30 42 H -3.399422 0.511167 -0.882757 0
M  V30 43 H -3.821441 -0.081683 -2.539025 0
M  V30 44 H -5.607644 -1.026177 -1.475555 0
M  V30 45 H -4.895031 -0.960812 0.168821 0
M  V30 46 H -5.231926 -3.193697 -0.467229 0
M  V30 47 H -4.403663 -2.974967 -2.067504 0
M  V30 48 H -3.298528 -3.357392 0.764662 0
M  V30 49 H -2.764867 -4.028989 -0.794303 0
M  V30 END ATOM
M  V30 BEGIN BOND
M  V30 1 3 1 2
M  V30 2 1 2 3
M  V30 3 1 3 4
M  V30 4 1 4 5
M  V30 5 1 5 6
M  V30 6 2 5 7
M  V30 7 1 3 8
M  V30 8 2 8 9
M  V30 9 1 9 10
M  V30 10 1 10 11
M  V30 11 1 11 12
M  V30 12 1 12 13
M  V30 13 1 13 14
M  V30 14 1 14 15
M  V30 15 1 15 16
M  V30 16 2 10 17
M  V30 17 1 17 18
M  V30 18 1 18 19
M  V30 19 1 19 20
M  V30 20 1 20 21
M  V30 21 1 21 22
M  V30 22 1 22 23
M  V30 23 1 23 24
M  V30 24 2 18 25
M  V30 25 1 25 8
M  V30 26 1 16 11
M  V30 27 1 24 19
M  V30 28 1 4 26
M  V30 29 1 4 27
M  V30 30 1 6 28
M  V30 31 1 6 29
M  V30 32 1 12 30
M  V30 33 1 12 31
M  V30 34 1 13 32
M  V30 35 1 13 33
M  V30 36 1 14 34
M  V30 37 1 14 35
M  V30 38 1 15 36
M  V30 39 1 15 37
M  V30 40 1 16 38
M  V30 41 1 16 39
M  V30 42 1 20 40
M  V30 43 1 20 41
M  V30 44 1 21 42
M  V30 45 1 21 43
M  V30 46 1 22 44
M  V30 47 1 22 45
M  V30 48 1 23 46
M  V30 49 1 23 47
M  V30 50 1 24 48
M  V30 51 1 24 49
M  V30 END BOND
M  V30 END CTAB
M  END
>  <Dataset>  (700) 
ChEMBL_Kinases

>  <Ligand_Instance>  (700) 
nan

>  <PDB_ID>  (700) 
nan

>  <Standardized_SMILES>  (700) 
N#CN(CC(N)=O)c1nc(N2CCCCC2)nc(N2CCCCC2)n1

>  <Name>  (700) 
nan

>  <Pocket>  (700) 
nan

>  <ATP_Site>  (700) 
nan

>  <Peripheral>  (700) 
nan

>  <Num_H_Atoms_ProtBoundConf>  (700) 
nan

>  <Num_Resolved_Atoms>  (700) 
nan

>  <Num_Not_Resolved_Atoms>  (700) 
nan

$$$$
CHEMBL1405585
     RDKit          3D

  0  0  0  0  0  0  0  0  0  0999 V3000
M  V30 BEGIN CTAB
M  V30 COUNTS 28 29 0 0 0
M  V30 BEGIN ATOM
M  V30 1 O 0.654059 -1.050467 -0.271885 0
M  V30 2 C 0.561436 -1.591365 0.841886 0
M  V30 3 N 1.770910 -2.122824 1.362022 0
M  V30 4 C 3.010873 -2.010199 0.591199 0
M  V30 5 C 3.293083 -0.560295 0.373548 0
M  V30 6 C 4.058390 0.174122 1.282903 0
M  V30 7 C 4.125784 1.465844 0.787510 0
M  V30 8 C 3.393271 1.447372 -0.403891 0
M  V30 9 O 2.929170 0.238389 -0.597219 0
M  V30 10 N -0.613293 -1.744823 1.664945 0
M  V30 11 C -1.867530 -1.218804 1.175358 0
M  V30 12 C -2.702001 -2.011022 0.413630 0
M  V30 13 C -3.897012 -1.431248 -0.022833 0
M  V30 14 C -4.217930 -0.127305 0.298267 0
M  V30 15 C -3.370859 0.651266 1.061723 0
M  V30 16 C -2.170372 0.085857 1.506682 0
M  V30 17 Cl -1.156256 1.133615 2.464846 0
M  V30 18 H 1.795960 -2.599785 2.296989 0
M  V30 19 H 3.827331 -2.512547 1.125923 0
M  V30 20 H 2.838513 -2.434571 -0.429596 0
M  V30 21 H 4.522207 -0.144333 2.192123 0
M  V30 22 H 4.625980 2.333041 1.200273 0
M  V30 23 H 3.197742 2.250413 -1.100839 0
M  V30 24 H -0.539912 -2.225774 2.586541 0
M  V30 25 H -2.439906 -3.037755 0.165970 0
M  V30 26 H -4.513068 -2.095724 -0.615581 0
M  V30 27 H -5.168715 0.238740 -0.085349 0
M  V30 28 H -3.742249 1.647198 1.237466 0
M  V30 END ATOM
M  V30 BEGIN BOND
M  V30 1 2 1 2
M  V30 2 1 2 3
M  V30 3 1 3 4
M  V30 4 1 4 5
M  V30 5 2 5 6
M  V30 6 1 6 7
M  V30 7 2 7 8
M  V30 8 1 8 9
M  V30 9 1 2 10
M  V30 10 1 10 11
M  V30 11 2 11 12
M  V30 12 1 12 13
M  V30 13 2 13 14
M  V30 14 1 14 15
M  V30 15 2 15 16
M  V30 16 1 16 17
M  V30 17 1 9 5
M  V30 18 1 16 11
M  V30 19 1 3 18
M  V30 20 1 4 19
M  V30 21 1 4 20
M  V30 22 1 6 21
M  V30 23 1 7 22
M  V30 24 1 8 23
M  V30 25 1 10 24
M  V30 26 1 12 25
M  V30 27 1 13 26
M  V30 28 1 14 27
M  V30 29 1 15 28
M  V30 END BOND
M  V30 END CTAB
M  END
>  <Dataset>  (701) 
ChEMBL_Kinases

>  <Ligand_Instance>  (701) 
nan

>  <PDB_ID>  (701) 
nan

>  <Standardized_SMILES>  (701) 
O=C(NCc1ccco1)Nc1ccccc1Cl

>  <Name>  (701) 
nan

>  <Pocket>  (701) 
nan

>  <ATP_Site>  (701) 
nan

>  <Peripheral>  (701) 
nan

>  <Num_H_Atoms_ProtBoundConf>  (701) 
nan

>  <Num_Resolved_Atoms>  (701) 
nan

>  <Num_Not_Resolved_Atoms>  (701) 
nan

$$$$
CHEMBL1405618
     RDKit          3D

  0  0  0  0  0  0  0  0  0  0999 V3000
M  V30 BEGIN CTAB
M  V30 COUNTS 38 39 0 0 0
M  V30 BEGIN ATOM
M  V30 1 O 1.678142 -0.163364 2.906232 0 CHG=-1 VAL=1
M  V30 2 S 1.848937 -0.379265 1.282213 0 CHG=1 VAL=3
M  V30 3 C 2.124447 -2.076750 0.897208 0
M  V30 4 C 2.269784 -2.205221 -0.576235 0
M  V30 5 C 1.269940 -2.432464 -1.503791 0
M  V30 6 C 1.602433 -2.522296 -2.842437 0
M  V30 7 C 2.892139 -2.396763 -3.314868 0
M  V30 8 Cl 3.274539 -2.516786 -5.020816 0
M  V30 9 C 3.894119 -2.171155 -2.406453 0
M  V30 10 C 3.571084 -2.080569 -1.072926 0
M  V30 11 C 0.566365 0.275735 0.280556 0
M  V30 12 C 0.395204 1.756294 0.440080 0
M  V30 13 O 1.640813 2.310368 0.074444 0
M  V30 14 C -0.070608 2.236624 1.764357 0
M  V30 15 O -1.258803 1.860995 2.258147 0
M  V30 16 C -1.958092 0.797640 2.646697 0
M  V30 17 C -1.839204 -0.564395 2.769182 0
M  V30 18 C -2.799376 -1.432755 3.227942 0
M  V30 19 C -3.998924 -0.869748 3.600506 0
M  V30 20 Cl -5.191533 -2.013255 4.178173 0
M  V30 21 C -4.237367 0.486417 3.523134 0
M  V30 22 C -3.208668 1.315514 3.043748 0
M  V30 23 H 1.235276 -2.666009 1.188933 0
M  V30 24 H 3.020470 -2.487961 1.399218 0
M  V30 25 H 0.291222 -2.522396 -1.092190 0
M  V30 26 H 0.805681 -2.699614 -3.544058 0
M  V30 27 H 4.913413 -2.069068 -2.751213 0
M  V30 28 H 4.408880 -1.901340 -0.407072 0
M  V30 29 H -0.378536 -0.289290 0.272160 0
M  V30 30 H 0.939355 0.152744 -0.791942 0
M  V30 31 H -0.327471 2.105353 -0.325560 0
M  V30 32 H 1.701774 2.149601 -0.905080 0
M  V30 33 H 0.704717 2.081851 2.570548 0
M  V30 34 H -0.074332 3.379378 1.676555 0
M  V30 35 H -0.878841 -0.897368 2.466244 0
M  V30 36 H -2.509159 -2.473297 3.247873 0
M  V30 37 H -5.228086 0.757426 3.854626 0
M  V30 38 H -3.615013 2.344053 3.068047 0
M  V30 END ATOM
M  V30 BEGIN BOND
M  V30 1 1 1 2
M  V30 2 1 2 3
M  V30 3 1 3 4
M  V30 4 2 4 5
M  V30 5 1 5 6
M  V30 6 2 6 7
M  V30 7 1 7 8
M  V30 8 1 7 9
M  V30 9 2 9 10
M  V30 10 1 2 11
M  V30 11 1 11 12
M  V30 12 1 12 13
M  V30 13 1 12 14
M  V30 14 1 14 15
M  V30 15 1 15 16
M  V30 16 2 16 17
M  V30 17 1 17 18
M  V30 18 2 18 19
M  V30 19 1 19 20
M  V30 20 1 19 21
M  V30 21 2 21 22
M  V30 22 1 10 4
M  V30 23 1 22 16
M  V30 24 1 3 23
M  V30 25 1 3 24
M  V30 26 1 5 25
M  V30 27 1 6 26
M  V30 28 1 9 27
M  V30 29 1 10 28
M  V30 30 1 11 29
M  V30 31 1 11 30
M  V30 32 1 12 31
M  V30 33 1 13 32
M  V30 34 1 14 33
M  V30 35 1 14 34
M  V30 36 1 17 35
M  V30 37 1 18 36
M  V30 38 1 21 37
M  V30 39 1 22 38
M  V30 END BOND
M  V30 END CTAB
M  END
>  <Dataset>  (702) 
ChEMBL_Kinases

>  <Ligand_Instance>  (702) 
nan

>  <PDB_ID>  (702) 
nan

>  <Standardized_SMILES>  (702) 
[O-][S+](Cc1ccc(Cl)cc1)CC(O)COc1ccc(Cl)cc1

>  <Name>  (702) 
nan

>  <Pocket>  (702) 
nan

>  <ATP_Site>  (702) 
nan

>  <Peripheral>  (702) 
nan

>  <Num_H_Atoms_ProtBoundConf>  (702) 
nan

>  <Num_Resolved_Atoms>  (702) 
nan

>  <Num_Not_Resolved_Atoms>  (702) 
nan

$$$$
CHEMBL1405769
     RDKit          3D

  0  0  0  0  0  0  0  0  0  0999 V3000
M  V30 BEGIN CTAB
M  V30 COUNTS 33 36 0 0 0
M  V30 BEGIN ATOM
M  V30 1 F -2.093754 0.318656 4.343646 0
M  V30 2 C -1.522676 0.965336 3.276109 0
M  V30 3 C -2.063068 0.712002 2.023080 0
M  V30 4 C -1.429226 1.405567 0.992097 0
M  V30 5 C -0.370841 2.272289 1.109542 0
M  V30 6 C 0.178288 2.925065 -0.107429 0
M  V30 7 S 1.496534 1.922149 -0.849478 0
M  V30 8 C 0.934371 0.385898 -1.495671 0
M  V30 9 N 0.535837 0.398304 -2.778273 0
M  V30 10 C 0.080075 -0.719987 -3.396335 0
M  V30 11 N 0.006524 -1.913720 -2.737039 0
M  V30 12 C 0.394941 -1.976698 -1.449172 0
M  V30 13 C 0.855824 -0.826284 -0.838657 0
M  V30 14 O 1.193667 -1.056946 0.412932 0
M  V30 15 C 0.981345 -2.326205 0.685831 0
M  V30 16 C 1.151630 -3.119055 1.824546 0
M  V30 17 C 0.809699 -4.449921 1.730117 0
M  V30 18 C 0.311892 -5.074781 0.608111 0
M  V30 19 C 0.136168 -4.294468 -0.538621 0
M  V30 20 C 0.483106 -2.941475 -0.444871 0
M  V30 21 C 0.093589 2.457048 2.394464 0
M  V30 22 C -0.460985 1.821603 3.476557 0
M  V30 23 H -2.892351 0.052022 1.812029 0
M  V30 24 H -1.829204 1.230028 -0.013283 0
M  V30 25 H -0.612933 3.175903 -0.842332 0
M  V30 26 H 0.693745 3.863876 0.247885 0
M  V30 27 H -0.248742 -0.717356 -4.447498 0
M  V30 28 H 1.538829 -2.683475 2.734894 0
M  V30 29 H 0.927502 -5.103746 2.596463 0
M  V30 30 H 0.057984 -6.116017 0.579395 0
M  V30 31 H -0.248063 -4.686817 -1.472744 0
M  V30 32 H 0.931217 3.136701 2.526185 0
M  V30 33 H -0.079942 1.982433 4.472625 0
M  V30 END ATOM
M  V30 BEGIN BOND
M  V30 1 1 1 2
M  V30 2 2 2 3
M  V30 3 1 3 4
M  V30 4 2 4 5
M  V30 5 1 5 6
M  V30 6 1 6 7
M  V30 7 1 7 8
M  V30 8 2 8 9
M  V30 9 1 9 10
M  V30 10 2 10 11
M  V30 11 1 11 12
M  V30 12 2 12 13
M  V30 13 1 13 14
M  V30 14 1 14 15
M  V30 15 2 15 16
M  V30 16 1 16 17
M  V30 17 2 17 18
M  V30 18 1 18 19
M  V30 19 2 19 20
M  V30 20 1 5 21
M  V30 21 2 21 22
M  V30 22 1 22 2
M  V30 23 1 13 8
M  V30 24 1 20 15
M  V30 25 1 20 12
M  V30 26 1 3 23
M  V30 27 1 4 24
M  V30 28 1 6 25
M  V30 29 1 6 26
M  V30 30 1 10 27
M  V30 31 1 16 28
M  V30 32 1 17 29
M  V30 33 1 18 30
M  V30 34 1 19 31
M  V30 35 1 21 32
M  V30 36 1 22 33
M  V30 END BOND
M  V30 END CTAB
M  END
>  <Dataset>  (703) 
ChEMBL_Kinases

>  <Ligand_Instance>  (703) 
nan

>  <PDB_ID>  (703) 
nan

>  <Standardized_SMILES>  (703) 
Fc1ccc(CSc2ncnc3c2oc2ccccc23)cc1

>  <Name>  (703) 
nan

>  <Pocket>  (703) 
nan

>  <ATP_Site>  (703) 
nan

>  <Peripheral>  (703) 
nan

>  <Num_H_Atoms_ProtBoundConf>  (703) 
nan

>  <Num_Resolved_Atoms>  (703) 
nan

>  <Num_Not_Resolved_Atoms>  (703) 
nan

$$$$
CHEMBL1405979
     RDKit          3D

  0  0  0  0  0  0  0  0  0  0999 V3000
M  V30 BEGIN CTAB
M  V30 COUNTS 31 33 0 0 0
M  V30 BEGIN ATOM
M  V30 1 O -1.583319 -2.364313 1.326347 0
M  V30 2 C -0.605391 -2.451447 0.551038 0
M  V30 3 C 0.300240 -3.602467 0.323319 0
M  V30 4 C 1.255510 -3.793011 1.464246 0
M  V30 5 C 1.165879 -4.717631 2.478347 0
M  V30 6 C 2.160795 -4.699301 3.408911 0
M  V30 7 C 3.222087 -3.850331 3.416553 0
M  V30 8 C 3.266020 -2.944372 2.382499 0
M  V30 9 C 2.301662 -2.867877 1.367780 0
M  V30 10 N -0.255043 -1.337325 -0.243079 0
M  V30 11 C -0.740554 0.032100 -0.466104 0
M  V30 12 N -0.600159 1.029142 -0.009829 0
M  V30 13 C -0.985429 2.251053 -0.160944 0
M  V30 14 C -0.754516 3.447766 0.466084 0
M  V30 15 C -1.337942 4.610163 0.044892 0
M  V30 16 C -2.200912 4.683388 -1.041344 0
M  V30 17 C -2.501904 3.508749 -1.755309 0
M  V30 18 C -1.851421 2.350746 -1.241473 0
M  V30 19 S -1.927854 0.642715 -1.813299 0
M  V30 20 H 0.807948 -3.578560 -0.628782 0
M  V30 21 H -0.374773 -4.517074 0.392583 0
M  V30 22 H 0.300441 -5.342959 2.389753 0
M  V30 23 H 2.068341 -5.437913 4.198257 0
M  V30 24 H 3.984341 -3.880214 4.183682 0
M  V30 25 H 4.105168 -2.241627 2.358282 0
M  V30 26 H 2.459961 -2.108183 0.621748 0
M  V30 27 H 0.575531 -1.335332 -0.908196 0
M  V30 28 H -0.096338 3.540149 1.326649 0
M  V30 29 H -1.167587 5.575071 0.540827 0
M  V30 30 H -2.709471 5.536078 -1.453971 0
M  V30 31 H -3.126670 3.338503 -2.604006 0
M  V30 END ATOM
M  V30 BEGIN BOND
M  V30 1 2 1 2
M  V30 2 1 2 3
M  V30 3 1 3 4
M  V30 4 2 4 5
M  V30 5 1 5 6
M  V30 6 2 6 7
M  V30 7 1 7 8
M  V30 8 2 8 9
M  V30 9 1 2 10
M  V30 10 1 10 11
M  V30 11 2 11 12
M  V30 12 1 12 13
M  V30 13 2 13 14
M  V30 14 1 14 15
M  V30 15 2 15 16
M  V30 16 1 16 17
M  V30 17 2 17 18
M  V30 18 1 18 19
M  V30 19 1 9 4
M  V30 20 1 19 11
M  V30 21 1 18 13
M  V30 22 1 3 20
M  V30 23 1 3 21
M  V30 24 1 5 22
M  V30 25 1 6 23
M  V30 26 1 7 24
M  V30 27 1 8 25
M  V30 28 1 9 26
M  V30 29 1 10 27
M  V30 30 1 14 28
M  V30 31 1 15 29
M  V30 32 1 16 30
M  V30 33 1 17 31
M  V30 END BOND
M  V30 END CTAB
M  END
>  <Dataset>  (704) 
ChEMBL_Kinases

>  <Ligand_Instance>  (704) 
nan

>  <PDB_ID>  (704) 
nan

>  <Standardized_SMILES>  (704) 
O=C(Cc1ccccc1)Nc1nc2ccccc2s1

>  <Name>  (704) 
nan

>  <Pocket>  (704) 
nan

>  <ATP_Site>  (704) 
nan

>  <Peripheral>  (704) 
nan

>  <Num_H_Atoms_ProtBoundConf>  (704) 
nan

>  <Num_Resolved_Atoms>  (704) 
nan

>  <Num_Not_Resolved_Atoms>  (704) 
nan

$$$$
CHEMBL1405981
     RDKit          3D

  0  0  0  0  0  0  0  0  0  0999 V3000
M  V30 BEGIN CTAB
M  V30 COUNTS 38 41 0 0 0
M  V30 BEGIN ATOM
M  V30 1 Cl 0.654265 -2.385706 3.191391 0
M  V30 2 C 2.380172 -2.293568 3.168175 0
M  V30 3 C 3.164667 -2.666531 4.228670 0
M  V30 4 C 4.529604 -2.599434 4.224694 0
M  V30 5 C 5.180833 -2.129336 3.091448 0
M  V30 6 C 4.382222 -1.747876 2.007272 0
M  V30 7 C 2.985078 -1.814933 2.007139 0
M  V30 8 C 2.280075 -1.383705 0.806790 0
M  V30 9 C 2.817656 -1.855892 -0.370701 0
M  V30 10 C 2.168971 -1.463914 -1.547236 0
M  V30 11 C 1.059316 -0.654415 -1.530065 0
M  V30 12 N 0.453091 -0.291617 -2.682748 0
M  V30 13 C -0.626636 0.499381 -2.618629 0
M  V30 14 N -1.114098 0.934433 -1.450267 0
M  V30 15 C -0.579534 0.625804 -0.268866 0
M  V30 16 N -1.134344 1.116524 0.947622 0
M  V30 17 C -2.311978 1.973019 0.962196 0
M  V30 18 C -3.511682 1.426017 0.432383 0
M  V30 19 C -4.202796 1.357231 -0.741592 0
M  V30 20 C -5.392741 0.691777 -0.871554 0
M  V30 21 C -5.872668 0.064235 0.318947 0
M  V30 22 S -4.604695 0.453194 1.565047 0
M  V30 23 C 0.529053 -0.188736 -0.369980 0
M  V30 24 C 1.165352 -0.572717 0.791629 0
M  V30 25 H 2.635972 -3.034996 5.114679 0
M  V30 26 H 5.136870 -2.899874 5.075860 0
M  V30 27 H 6.256975 -2.037830 2.988748 0
M  V30 28 H 4.872514 -1.377678 1.111966 0
M  V30 29 H 3.683475 -2.494513 -0.487091 0
M  V30 30 H 2.544189 -1.804006 -2.523117 0
M  V30 31 H -1.178595 0.841255 -3.499525 0
M  V30 32 H -0.727181 0.886969 1.877772 0
M  V30 33 H -2.482597 2.321938 2.000443 0
M  V30 34 H -2.033294 2.925947 0.411165 0
M  V30 35 H -3.710893 1.885659 -1.542775 0
M  V30 36 H -5.924957 0.648421 -1.809816 0
M  V30 37 H -6.843886 -0.502463 0.294700 0
M  V30 38 H 0.846946 -0.273198 1.777407 0
M  V30 END ATOM
M  V30 BEGIN BOND
M  V30 1 1 1 2
M  V30 2 2 2 3
M  V30 3 1 3 4
M  V30 4 2 4 5
M  V30 5 1 5 6
M  V30 6 2 6 7
M  V30 7 1 7 8
M  V30 8 2 8 9
M  V30 9 1 9 10
M  V30 10 2 10 11
M  V30 11 1 11 12
M  V30 12 2 12 13
M  V30 13 1 13 14
M  V30 14 2 14 15
M  V30 15 1 15 16
M  V30 16 1 16 17
M  V30 17 1 17 18
M  V30 18 2 18 19
M  V30 19 1 19 20
M  V30 20 2 20 21
M  V30 21 1 21 22
M  V30 22 1 15 23
M  V30 23 2 23 24
M  V30 24 1 7 2
M  V30 25 1 24 8
M  V30 26 1 23 11
M  V30 27 1 22 18
M  V30 28 1 3 25
M  V30 29 1 4 26
M  V30 30 1 5 27
M  V30 31 1 6 28
M  V30 32 1 9 29
M  V30 33 1 10 30
M  V30 34 1 13 31
M  V30 35 1 16 32
M  V30 36 1 17 33
M  V30 37 1 17 34
M  V30 38 1 19 35
M  V30 39 1 20 36
M  V30 40 1 21 37
M  V30 41 1 24 38
M  V30 END BOND
M  V30 END CTAB
M  END
>  <Dataset>  (705) 
ChEMBL_Kinases

>  <Ligand_Instance>  (705) 
nan

>  <PDB_ID>  (705) 
nan

>  <Standardized_SMILES>  (705) 
Clc1ccccc1-c1ccc2ncnc(NCc3cccs3)c2c1

>  <Name>  (705) 
nan

>  <Pocket>  (705) 
nan

>  <ATP_Site>  (705) 
nan

>  <Peripheral>  (705) 
nan

>  <Num_H_Atoms_ProtBoundConf>  (705) 
nan

>  <Num_Resolved_Atoms>  (705) 
nan

>  <Num_Not_Resolved_Atoms>  (705) 
nan

$$$$
CHEMBL1406136
     RDKit          3D

  0  0  0  0  0  0  0  0  0  0999 V3000
M  V30 BEGIN CTAB
M  V30 COUNTS 46 49 0 0 0
M  V30 BEGIN ATOM
M  V30 1 C 2.719841 -7.128221 2.091862 0
M  V30 2 O 3.074940 -6.246984 1.017874 0
M  V30 3 C 2.411625 -5.021198 0.958207 0
M  V30 4 C 2.798535 -4.206733 -0.107215 0
M  V30 5 C 2.181064 -2.957834 -0.240322 0
M  V30 6 C 1.220176 -2.567294 0.669646 0
M  V30 7 C 0.639167 -1.249365 0.441560 0
M  V30 8 O 1.016185 -0.565294 -0.516797 0
M  V30 9 N -0.377793 -0.669768 1.283741 0
M  V30 10 C -0.724793 0.616542 0.788645 0
M  V30 11 C -0.124649 1.788083 1.185446 0
M  V30 12 C 0.904395 1.804445 2.158579 0
M  V30 13 C 1.716320 2.733722 2.774190 0
M  V30 14 C 2.625283 2.314794 3.705143 0
M  V30 15 C 2.717572 0.971502 4.015125 0
M  V30 16 S 1.413951 0.170115 2.912297 0
M  V30 17 C -0.580524 2.940907 0.595238 0
M  V30 18 O -0.049183 4.015832 0.940899 0
M  V30 19 C -1.583421 2.989345 -0.351110 0
M  V30 20 C -1.974846 4.197248 -0.888536 0
M  V30 21 C -2.978252 4.203128 -1.829133 0
M  V30 22 C -3.568365 2.995739 -2.211066 0
M  V30 23 C -3.149572 1.805973 -1.650573 0
M  V30 24 C -2.142742 1.778661 -0.703740 0
M  V30 25 N -1.712775 0.639871 -0.139985 0
M  V30 26 C -2.359642 -0.570427 -0.574779 0
M  V30 27 C 0.847414 -3.382975 1.718408 0
M  V30 28 C 1.449977 -4.628875 1.867835 0
M  V30 29 H 3.289701 -8.055598 2.053310 0
M  V30 30 H 2.810270 -6.565951 3.050148 0
M  V30 31 H 1.619931 -7.329115 1.933303 0
M  V30 32 H 3.559676 -4.522102 -0.823695 0
M  V30 33 H 2.514360 -2.359876 -1.083532 0
M  V30 34 H -0.716594 -1.222851 2.100679 0
M  V30 35 H 1.617534 3.767996 2.509043 0
M  V30 36 H 3.302282 2.962366 4.239485 0
M  V30 37 H 3.359272 0.440441 4.711242 0
M  V30 38 H -1.481306 5.093151 -0.552983 0
M  V30 39 H -3.253787 5.180287 -2.225351 0
M  V30 40 H -4.351261 3.072146 -2.955126 0
M  V30 41 H -3.631714 0.871532 -1.970023 0
M  V30 42 H -2.254535 -0.703895 -1.689542 0
M  V30 43 H -3.407324 -0.649169 -0.249108 0
M  V30 44 H -1.796462 -1.427608 -0.152930 0
M  V30 45 H 0.103881 -3.063511 2.410161 0
M  V30 46 H 1.194485 -5.305652 2.671385 0
M  V30 END ATOM
M  V30 BEGIN BOND
M  V30 1 1 1 2
M  V30 2 1 2 3
M  V30 3 2 3 4
M  V30 4 1 4 5
M  V30 5 2 5 6
M  V30 6 1 6 7
M  V30 7 2 7 8
M  V30 8 1 7 9
M  V30 9 1 9 10
M  V30 10 2 10 11
M  V30 11 1 11 12
M  V30 12 2 12 13
M  V30 13 1 13 14
M  V30 14 2 14 15
M  V30 15 1 15 16
M  V30 16 1 11 17
M  V30 17 2 17 18
M  V30 18 1 17 19
M  V30 19 2 19 20
M  V30 20 1 20 21
M  V30 21 2 21 22
M  V30 22 1 22 23
M  V30 23 2 23 24
M  V30 24 1 24 25
M  V30 25 1 25 26
M  V30 26 1 6 27
M  V30 27 2 27 28
M  V30 28 1 28 3
M  V30 29 1 25 10
M  V30 30 1 16 12
M  V30 31 1 24 19
M  V30 32 1 1 29
M  V30 33 1 1 30
M  V30 34 1 1 31
M  V30 35 1 4 32
M  V30 36 1 5 33
M  V30 37 1 9 34
M  V30 38 1 13 35
M  V30 39 1 14 36
M  V30 40 1 15 37
M  V30 41 1 20 38
M  V30 42 1 21 39
M  V30 43 1 22 40
M  V30 44 1 23 41
M  V30 45 1 26 42
M  V30 46 1 26 43
M  V30 47 1 26 44
M  V30 48 1 27 45
M  V30 49 1 28 46
M  V30 END BOND
M  V30 END CTAB
M  END
>  <Dataset>  (706) 
ChEMBL_Kinases

>  <Ligand_Instance>  (706) 
nan

>  <PDB_ID>  (706) 
nan

>  <Standardized_SMILES>  (706) 
COc1ccc(C(=O)Nc2c(-c3cccs3)c(=O)c3ccccc3n2C)cc1

>  <Name>  (706) 
nan

>  <Pocket>  (706) 
nan

>  <ATP_Site>  (706) 
nan

>  <Peripheral>  (706) 
nan

>  <Num_H_Atoms_ProtBoundConf>  (706) 
nan

>  <Num_Resolved_Atoms>  (706) 
nan

>  <Num_Not_Resolved_Atoms>  (706) 
nan

$$$$
CHEMBL1406197
     RDKit          3D

  0  0  0  0  0  0  0  0  0  0999 V3000
M  V30 BEGIN CTAB
M  V30 COUNTS 48 51 0 0 0
M  V30 BEGIN ATOM
M  V30 1 C 2.863403 -3.980045 4.444333 0
M  V30 2 C 2.335296 -2.728384 3.800142 0
M  V30 3 N 3.241283 -1.600769 3.913370 0
M  V30 4 C 4.405295 -1.838067 3.123081 0
M  V30 5 C 5.425761 -0.732858 3.154627 0
M  V30 6 C 2.560482 -0.356166 3.652908 0
M  V30 7 C 2.147816 -0.269382 2.205403 0
M  V30 8 O 1.475246 0.942502 1.920111 0
M  V30 9 C 1.006696 1.218905 0.629672 0
M  V30 10 C 1.797796 1.865666 -0.282081 0
M  V30 11 Br 3.538797 2.401182 0.181113 0
M  V30 12 C 1.215374 2.072680 -1.508179 0
M  V30 13 C -0.056663 1.675716 -1.826631 0
M  V30 14 C -0.863901 1.015365 -0.894880 0
M  V30 15 C -0.256894 0.830206 0.296703 0
M  V30 16 S -1.433065 -0.007002 1.305763 0
M  V30 17 C -2.737928 -0.047435 -0.039569 0
M  V30 18 N -3.988415 -0.567299 0.002796 0
M  V30 19 C -4.769217 -0.485831 -1.098432 0
M  V30 20 N -4.219519 0.118876 -2.162440 0
M  V30 21 C -2.978842 0.631705 -2.196778 0
M  V30 22 O -2.564817 1.186166 -3.273892 0
M  V30 23 C -2.141128 0.577352 -1.105609 0
M  V30 24 C -5.172837 0.126979 -3.255576 0
M  V30 25 C -6.240518 -0.862134 -2.845445 0
M  V30 26 C -6.137108 -0.953377 -1.333190 0
M  V30 27 H 2.164872 -4.379726 5.218439 0
M  V30 28 H 3.853472 -3.800162 4.934113 0
M  V30 29 H 2.970326 -4.772325 3.682557 0
M  V30 30 H 1.332116 -2.522017 4.232840 0
M  V30 31 H 2.139395 -2.959711 2.720205 0
M  V30 32 H 4.105825 -2.117159 2.094817 0
M  V30 33 H 4.907375 -2.737895 3.553207 0
M  V30 34 H 5.039888 0.193881 3.627875 0
M  V30 35 H 6.337161 -1.006093 3.754042 0
M  V30 36 H 5.814398 -0.526754 2.117469 0
M  V30 37 H 3.072149 0.529770 4.042169 0
M  V30 38 H 1.592044 -0.419609 4.230605 0
M  V30 39 H 2.979248 -0.434431 1.496158 0
M  V30 40 H 1.432743 -1.123563 2.043142 0
M  V30 41 H 1.828712 2.592481 -2.262358 0
M  V30 42 H -0.378274 1.912198 -2.842478 0
M  V30 43 H -4.752140 -0.219533 -4.216581 0
M  V30 44 H -5.600248 1.139793 -3.430816 0
M  V30 45 H -6.062160 -1.878741 -3.254256 0
M  V30 46 H -7.226803 -0.533380 -3.180767 0
M  V30 47 H -6.930293 -0.330147 -0.886799 0
M  V30 48 H -6.328175 -2.008643 -0.986177 0
M  V30 END ATOM
M  V30 BEGIN BOND
M  V30 1 1 1 2
M  V30 2 1 2 3
M  V30 3 1 3 4
M  V30 4 1 4 5
M  V30 5 1 3 6
M  V30 6 1 6 7
M  V30 7 1 7 8
M  V30 8 1 8 9
M  V30 9 2 9 10
M  V30 10 1 10 11
M  V30 11 1 10 12
M  V30 12 2 12 13
M  V30 13 1 13 14
M  V30 14 2 14 15
M  V30 15 1 15 16
M  V30 16 1 16 17
M  V30 17 1 17 18
M  V30 18 2 18 19
M  V30 19 1 19 20
M  V30 20 1 20 21
M  V30 21 2 21 22
M  V30 22 1 21 23
M  V30 23 1 20 24
M  V30 24 1 24 25
M  V30 25 1 25 26
M  V30 26 1 15 9
M  V30 27 2 23 17
M  V30 28 1 23 14
M  V30 29 1 26 19
M  V30 30 1 1 27
M  V30 31 1 1 28
M  V30 32 1 1 29
M  V30 33 1 2 30
M  V30 34 1 2 31
M  V30 35 1 4 32
M  V30 36 1 4 33
M  V30 37 1 5 34
M  V30 38 1 5 35
M  V30 39 1 5 36
M  V30 40 1 6 37
M  V30 41 1 6 38
M  V30 42 1 7 39
M  V30 43 1 7 40
M  V30 44 1 12 41
M  V30 45 1 13 42
M  V30 46 1 24 43
M  V30 47 1 24 44
M  V30 48 1 25 45
M  V30 49 1 25 46
M  V30 50 1 26 47
M  V30 51 1 26 48
M  V30 END BOND
M  V30 END CTAB
M  END
>  <Dataset>  (707) 
ChEMBL_Kinases

>  <Ligand_Instance>  (707) 
nan

>  <PDB_ID>  (707) 
nan

>  <Standardized_SMILES>  (707) 
CCN(CC)CCOc1c(Br)ccc2c1sc1nc3n(c(=O)c12)CCC3

>  <Name>  (707) 
nan

>  <Pocket>  (707) 
nan

>  <ATP_Site>  (707) 
nan

>  <Peripheral>  (707) 
nan

>  <Num_H_Atoms_ProtBoundConf>  (707) 
nan

>  <Num_Resolved_Atoms>  (707) 
nan

>  <Num_Not_Resolved_Atoms>  (707) 
nan

$$$$
CHEMBL1406799
     RDKit          3D

  0  0  0  0  0  0  0  0  0  0999 V3000
M  V30 BEGIN CTAB
M  V30 COUNTS 47 48 0 0 0
M  V30 BEGIN ATOM
M  V30 1 C 1.506449 -5.417333 3.163686 0
M  V30 2 O 0.653428 -4.617003 2.369632 0
M  V30 3 C 1.165648 -3.659111 1.509904 0
M  V30 4 C 2.479313 -3.315231 1.270682 0
M  V30 5 C 2.793257 -2.314501 0.360368 0
M  V30 6 C 1.845741 -1.603547 -0.357443 0
M  V30 7 C 2.442918 -0.666471 -1.269812 0
M  V30 8 C 3.078960 0.571994 -0.842628 0
M  V30 9 N 2.480173 1.631611 -0.154426 0
M  V30 10 C 3.548817 2.656388 0.012616 0
M  V30 11 C 1.267100 2.146054 0.455971 0
M  V30 12 S 1.302192 3.626856 1.195067 0
M  V30 13 N 0.028960 1.457223 0.486710 0
M  V30 14 C -1.038064 2.151030 1.163293 0
M  V30 15 O -0.944682 3.296671 1.710451 0
M  V30 16 C -2.457708 1.799254 1.422000 0
M  V30 17 C -2.652009 0.740808 2.286082 0
M  V30 18 C -3.937565 0.328176 2.606963 0
M  V30 19 C -4.976756 1.023121 2.023958 0
M  V30 20 F -6.288175 0.691955 2.274537 0
M  V30 21 C -4.821551 2.083758 1.157708 0
M  V30 22 C -3.518595 2.478146 0.852396 0
M  V30 23 Cl -3.109045 3.802810 -0.225265 0
M  V30 24 C 0.556498 -1.996708 -0.073083 0
M  V30 25 C 0.190654 -2.978092 0.816350 0
M  V30 26 O -1.175847 -3.227462 0.958224 0
M  V30 27 C -2.140548 -2.531642 0.215071 0
M  V30 28 H 1.751493 -6.392358 2.651870 0
M  V30 29 H 1.018415 -5.677624 4.137994 0
M  V30 30 H 2.438015 -4.895769 3.439463 0
M  V30 31 H 3.192635 -3.886780 1.843683 0
M  V30 32 H 3.869616 -2.186258 0.306603 0
M  V30 33 H 3.139112 -1.225325 -1.977625 0
M  V30 34 H 1.603118 -0.367226 -1.996245 0
M  V30 35 H 4.075634 0.363001 -0.311910 0
M  V30 36 H 3.499930 1.037270 -1.819173 0
M  V30 37 H 4.091816 2.414590 0.943913 0
M  V30 38 H 4.160492 2.643557 -0.896875 0
M  V30 39 H 3.082821 3.669478 0.137483 0
M  V30 40 H -0.506829 0.620348 0.221103 0
M  V30 41 H -1.877547 0.159541 2.774835 0
M  V30 42 H -4.208370 -0.496067 3.278074 0
M  V30 43 H -5.623251 2.634193 0.696030 0
M  V30 44 H -0.162423 -1.438721 -0.671318 0
M  V30 45 H -3.153237 -3.019310 0.297957 0
M  V30 46 H -1.841169 -2.553759 -0.872940 0
M  V30 47 H -2.239747 -1.505806 0.549662 0
M  V30 END ATOM
M  V30 BEGIN BOND
M  V30 1 1 1 2
M  V30 2 1 2 3
M  V30 3 2 3 4
M  V30 4 1 4 5
M  V30 5 2 5 6
M  V30 6 1 6 7
M  V30 7 1 7 8
M  V30 8 1 8 9
M  V30 9 1 9 10
M  V30 10 1 9 11
M  V30 11 2 11 12
M  V30 12 1 11 13
M  V30 13 1 13 14
M  V30 14 2 14 15
M  V30 15 1 14 16
M  V30 16 2 16 17
M  V30 17 1 17 18
M  V30 18 2 18 19
M  V30 19 1 19 20
M  V30 20 1 19 21
M  V30 21 2 21 22
M  V30 22 1 22 23
M  V30 23 1 6 24
M  V30 24 2 24 25
M  V30 25 1 25 26
M  V30 26 1 26 27
M  V30 27 1 25 3
M  V30 28 1 22 16
M  V30 29 1 1 28
M  V30 30 1 1 29
M  V30 31 1 1 30
M  V30 32 1 4 31
M  V30 33 1 5 32
M  V30 34 1 7 33
M  V30 35 1 7 34
M  V30 36 1 8 35
M  V30 37 1 8 36
M  V30 38 1 10 37
M  V30 39 1 10 38
M  V30 40 1 10 39
M  V30 41 1 13 40
M  V30 42 1 17 41
M  V30 43 1 18 42
M  V30 44 1 21 43
M  V30 45 1 24 44
M  V30 46 1 27 45
M  V30 47 1 27 46
M  V30 48 1 27 47
M  V30 END BOND
M  V30 END CTAB
M  END
>  <Dataset>  (708) 
ChEMBL_Kinases

>  <Ligand_Instance>  (708) 
nan

>  <PDB_ID>  (708) 
nan

>  <Standardized_SMILES>  (708) 
COc1ccc(CCN(C)C(=S)NC(=O)c2ccc(F)cc2Cl)cc1OC

>  <Name>  (708) 
nan

>  <Pocket>  (708) 
nan

>  <ATP_Site>  (708) 
nan

>  <Peripheral>  (708) 
nan

>  <Num_H_Atoms_ProtBoundConf>  (708) 
nan

>  <Num_Resolved_Atoms>  (708) 
nan

>  <Num_Not_Resolved_Atoms>  (708) 
nan

$$$$
CHEMBL1406238
     RDKit          3D

  0  0  0  0  0  0  0  0  0  0999 V3000
M  V30 BEGIN CTAB
M  V30 COUNTS 55 58 0 0 0
M  V30 BEGIN ATOM
M  V30 1 C 1.630568 2.697782 4.655135 0
M  V30 2 C 2.059178 1.302536 4.267964 0
M  V30 3 N 3.082021 1.347551 3.211399 0
M  V30 4 C 4.390162 1.400333 3.500777 0
M  V30 5 C 5.379355 1.449407 2.550725 0
M  V30 6 C 6.771698 1.503954 2.926743 0
M  V30 7 O 7.691881 1.547978 2.075090 0
M  V30 8 O 7.114208 1.506250 4.279493 0
M  V30 9 C 4.975611 1.443182 1.226576 0
M  V30 10 O 5.858643 1.486368 0.347209 0
M  V30 11 C 3.649246 1.390060 0.886413 0
M  V30 12 C 3.215895 1.384035 -0.425585 0
M  V30 13 N 1.878413 1.329585 -0.693635 0
M  V30 14 C 0.980552 1.283096 0.314114 0
M  V30 15 N -0.426703 1.223034 0.151836 0
M  V30 16 C -1.352420 1.088847 1.258171 0
M  V30 17 C -2.742934 0.724782 0.840918 0
M  V30 18 N -2.759315 -0.364812 -0.122007 0
M  V30 19 C -3.433624 -1.614886 0.082278 0
M  V30 20 S -4.099282 -1.607734 1.588306 0
M  V30 21 N -3.690993 -2.848684 -0.557974 0
M  V30 22 C -3.352212 -3.355921 -1.837332 0
M  V30 23 O -2.697319 -2.615833 -2.612225 0
M  V30 24 C -3.690015 -4.669124 -2.355414 0
M  V30 25 C -4.411766 -5.632373 -1.684554 0
M  V30 26 C -4.730631 -6.876079 -2.170146 0
M  V30 27 C -4.295659 -7.203077 -3.441234 0
M  V30 28 Br -4.721600 -8.921142 -4.145149 0
M  V30 29 C -3.574202 -6.284594 -4.155697 0
M  V30 30 C -3.287806 -5.053968 -3.610619 0
M  V30 31 C -1.981765 0.006951 -1.285960 0
M  V30 32 C -1.178162 1.274193 -1.090359 0
M  V30 33 N 1.422020 1.290228 1.584256 0
M  V30 34 C 2.719470 1.342034 1.913287 0
M  V30 35 H 2.072518 3.396333 3.922390 0
M  V30 36 H 0.528745 2.731437 4.543519 0
M  V30 37 H 1.907049 2.897339 5.687342 0
M  V30 38 H 2.558570 0.794193 5.111921 0
M  V30 39 H 1.227541 0.661110 3.926331 0
M  V30 40 H 4.683504 1.403962 4.556746 0
M  V30 41 H 7.972163 1.065884 4.610283 0
M  V30 42 H 3.940221 1.422387 -1.229736 0
M  V30 43 H -1.036667 0.338827 2.015035 0
M  V30 44 H -1.385668 2.054619 1.837034 0
M  V30 45 H -3.228415 1.604094 0.375344 0
M  V30 46 H -3.323986 0.356620 1.716922 0
M  V30 47 H -4.228555 -3.600022 -0.078328 0
M  V30 48 H -4.776950 -5.432307 -0.690339 0
M  V30 49 H -5.299703 -7.603222 -1.608193 0
M  V30 50 H -3.216316 -6.508621 -5.161725 0
M  V30 51 H -2.703048 -4.358987 -4.233778 0
M  V30 52 H -1.187147 -0.775722 -1.480650 0
M  V30 53 H -2.573778 0.097230 -2.190079 0
M  V30 54 H -1.865433 2.121648 -1.035937 0
M  V30 55 H -0.512076 1.418305 -1.959655 0
M  V30 END ATOM
M  V30 BEGIN BOND
M  V30 1 1 1 2
M  V30 2 1 2 3
M  V30 3 1 3 4
M  V30 4 2 4 5
M  V30 5 1 5 6
M  V30 6 2 6 7
M  V30 7 1 6 8
M  V30 8 1 5 9
M  V30 9 2 9 10
M  V30 10 1 9 11
M  V30 11 2 11 12
M  V30 12 1 12 13
M  V30 13 2 13 14
M  V30 14 1 14 15
M  V30 15 1 15 16
M  V30 16 1 16 17
M  V30 17 1 17 18
M  V30 18 1 18 19
M  V30 19 2 19 20
M  V30 20 1 19 21
M  V30 21 1 21 22
M  V30 22 2 22 23
M  V30 23 1 22 24
M  V30 24 2 24 25
M  V30 25 1 25 26
M  V30 26 2 26 27
M  V30 27 1 27 28
M  V30 28 1 27 29
M  V30 29 2 29 30
M  V30 30 1 18 31
M  V30 31 1 31 32
M  V30 32 1 14 33
M  V30 33 2 33 34
M  V30 34 1 34 3
M  V30 35 1 34 11
M  V30 36 1 32 15
M  V30 37 1 30 24
M  V30 38 1 1 35
M  V30 39 1 1 36
M  V30 40 1 1 37
M  V30 41 1 2 38
M  V30 42 1 2 39
M  V30 43 1 4 40
M  V30 44 1 8 41
M  V30 45 1 12 42
M  V30 46 1 16 43
M  V30 47 1 16 44
M  V30 48 1 17 45
M  V30 49 1 17 46
M  V30 50 1 21 47
M  V30 51 1 25 48
M  V30 52 1 26 49
M  V30 53 1 29 50
M  V30 54 1 30 51
M  V30 55 1 31 52
M  V30 56 1 31 53
M  V30 57 1 32 54
M  V30 58 1 32 55
M  V30 END BOND
M  V30 END CTAB
M  END
>  <Dataset>  (709) 
ChEMBL_Kinases

>  <Ligand_Instance>  (709) 
nan

>  <PDB_ID>  (709) 
nan

>  <Standardized_SMILES>  (709) 
CCn1cc(C(=O)O)c(=O)c2cnc(N3CCN(C(=S)NC(=O)c4ccc(Br)cc4)CC3)nc21

>  <Name>  (709) 
nan

>  <Pocket>  (709) 
nan

>  <ATP_Site>  (709) 
nan

>  <Peripheral>  (709) 
nan

>  <Num_H_Atoms_ProtBoundConf>  (709) 
nan

>  <Num_Resolved_Atoms>  (709) 
nan

>  <Num_Not_Resolved_Atoms>  (709) 
nan

$$$$
CHEMBL1406254
     RDKit          3D

  0  0  0  0  0  0  0  0  0  0999 V3000
M  V30 BEGIN CTAB
M  V30 COUNTS 41 42 0 0 0
M  V30 BEGIN ATOM
M  V30 1 C 0.539540 -5.268703 0.904207 0
M  V30 2 O 1.539010 -4.378393 1.362720 0
M  V30 3 C 1.837094 -3.558266 0.304887 0
M  V30 4 C 2.880427 -2.525816 0.551099 0
M  V30 5 C 2.594971 -1.540156 1.626402 0
M  V30 6 N 1.411013 -0.742341 1.430679 0
M  V30 7 C 1.454468 0.481315 0.725664 0
M  V30 8 O 2.417603 1.034366 0.197220 0
M  V30 9 C 0.102618 1.010199 0.728194 0
M  V30 10 C -0.292507 2.112534 0.167375 0
M  V30 11 C 0.510516 3.074151 -0.597095 0
M  V30 12 C 1.428983 3.040420 -1.645780 0
M  V30 13 C 1.982677 4.219749 -2.043182 0
M  V30 14 C 1.702062 5.428036 -1.490052 0
M  V30 15 S 0.443242 4.922456 -0.163005 0
M  V30 16 C -0.708481 0.047135 1.458139 0
M  V30 17 C -2.127657 0.172158 1.702220 0
M  V30 18 O -2.831002 1.136706 1.308971 0
M  V30 19 O -2.891801 -0.750807 2.397306 0
M  V30 20 C -4.262424 -0.552637 2.587330 0
M  V30 21 C 0.056339 -0.955416 1.856204 0
M  V30 22 C -0.414464 -2.125929 2.632142 0
M  V30 23 H -0.348252 -4.684293 0.586715 0
M  V30 24 H 0.867785 -5.830078 0.010475 0
M  V30 25 H 0.191608 -5.931052 1.737016 0
M  V30 26 H 0.894446 -3.115754 -0.076082 0
M  V30 27 H 2.190801 -4.223585 -0.532846 0
M  V30 28 H 3.851866 -3.012216 0.801231 0
M  V30 29 H 3.073719 -2.025470 -0.433501 0
M  V30 30 H 3.498317 -0.889688 1.719360 0
M  V30 31 H 2.543077 -2.077879 2.604088 0
M  V30 32 H -1.290595 2.469784 0.192328 0
M  V30 33 H 1.642993 2.089254 -2.100561 0
M  V30 34 H 2.701800 4.278973 -2.845327 0
M  V30 35 H 1.953171 6.401945 -1.585170 0
M  V30 36 H -4.467079 0.126675 3.444655 0
M  V30 37 H -4.802866 -1.513594 2.807248 0
M  V30 38 H -4.707346 -0.172769 1.633244 0
M  V30 39 H -1.115623 -1.836569 3.444784 0
M  V30 40 H -0.962097 -2.854598 2.011490 0
M  V30 41 H 0.464880 -2.575901 3.134290 0
M  V30 END ATOM
M  V30 BEGIN BOND
M  V30 1 1 1 2
M  V30 2 1 2 3
M  V30 3 1 3 4
M  V30 4 1 4 5
M  V30 5 1 5 6
M  V30 6 1 6 7
M  V30 7 2 7 8
M  V30 8 1 7 9
M  V30 9 2 9 10
M  V30 10 1 10 11
M  V30 11 2 11 12
M  V30 12 1 12 13
M  V30 13 2 13 14
M  V30 14 1 14 15
M  V30 15 1 9 16
M  V30 16 1 16 17
M  V30 17 2 17 18
M  V30 18 1 17 19
M  V30 19 1 19 20
M  V30 20 2 16 21
M  V30 21 1 21 22
M  V30 22 1 21 6
M  V30 23 1 15 11
M  V30 24 1 1 23
M  V30 25 1 1 24
M  V30 26 1 1 25
M  V30 27 1 3 26
M  V30 28 1 3 27
M  V30 29 1 4 28
M  V30 30 1 4 29
M  V30 31 1 5 30
M  V30 32 1 5 31
M  V30 33 1 10 32
M  V30 34 1 12 33
M  V30 35 1 13 34
M  V30 36 1 14 35
M  V30 37 1 20 36
M  V30 38 1 20 37
M  V30 39 1 20 38
M  V30 40 1 22 39
M  V30 41 1 22 40
M  V30 42 1 22 41
M  V30 END BOND
M  V30 END CTAB
M  END
>  <Dataset>  (710) 
ChEMBL_Kinases

>  <Ligand_Instance>  (710) 
nan

>  <PDB_ID>  (710) 
nan

>  <Standardized_SMILES>  (710) 
COCCCN1C(=O)/C(=C\c2cccs2)C(C(=O)OC)=C1C

>  <Name>  (710) 
nan

>  <Pocket>  (710) 
nan

>  <ATP_Site>  (710) 
nan

>  <Peripheral>  (710) 
nan

>  <Num_H_Atoms_ProtBoundConf>  (710) 
nan

>  <Num_Resolved_Atoms>  (710) 
nan

>  <Num_Not_Resolved_Atoms>  (710) 
nan

$$$$
CHEMBL1406275
     RDKit          3D

  0  0  0  0  0  0  0  0  0  0999 V3000
M  V30 BEGIN CTAB
M  V30 COUNTS 46 49 0 0 0
M  V30 BEGIN ATOM
M  V30 1 O 3.404007 -5.368842 5.104344 0
M  V30 2 C 2.399975 -4.658323 4.853697 0
M  V30 3 O 1.443370 -4.861301 5.819200 0
M  V30 4 C 2.528585 -3.821885 3.616460 0
M  V30 5 S 1.012907 -2.886624 3.426036 0
M  V30 6 C 1.096179 -1.848963 1.945719 0
M  V30 7 N 2.177726 -1.810095 1.114809 0
M  V30 8 N 1.913196 -0.947277 0.124414 0
M  V30 9 C 0.682756 -0.485943 0.378452 0
M  V30 10 C 0.028144 0.514933 -0.493950 0
M  V30 11 N 0.421818 1.849007 -0.003879 0
M  V30 12 N -0.227334 2.545852 0.900228 0
M  V30 13 N 0.375657 3.713736 1.133437 0
M  V30 14 C 1.465875 3.782654 0.347596 0
M  V30 15 C 2.451709 4.728519 0.159288 0
M  V30 16 C 3.478038 4.516483 -0.744205 0
M  V30 17 C 3.480154 3.330674 -1.446791 0
M  V30 18 C 2.495059 2.368094 -1.268928 0
M  V30 19 C 1.481061 2.598885 -0.363695 0
M  V30 20 N 0.144818 -1.015142 1.488392 0
M  V30 21 C -1.113367 -0.866862 2.158123 0
M  V30 22 C -2.170269 -1.832680 1.785153 0
M  V30 23 C -2.589630 -1.857613 0.382286 0
M  V30 24 C -3.616022 -1.068589 -0.100995 0
M  V30 25 C -3.963717 -1.137848 -1.432561 0
M  V30 26 C -3.308867 -1.982710 -2.309112 0
M  V30 27 C -2.273037 -2.790054 -1.859788 0
M  V30 28 C -1.963260 -2.687599 -0.532024 0
M  V30 29 H 1.655542 -4.829268 6.810561 0
M  V30 30 H 2.712490 -4.534091 2.783272 0
M  V30 31 H 3.414403 -3.173409 3.733139 0
M  V30 32 H 0.382365 0.462857 -1.539733 0
M  V30 33 H -1.062290 0.409292 -0.416717 0
M  V30 34 H 2.379710 5.633054 0.748577 0
M  V30 35 H 4.184767 5.313941 -0.808622 0
M  V30 36 H 4.288995 3.199161 -2.137791 0
M  V30 37 H 2.521367 1.440997 -1.836927 0
M  V30 38 H -1.536567 0.170584 2.004069 0
M  V30 39 H -0.948559 -0.905779 3.267514 0
M  V30 40 H -3.081431 -1.661102 2.417753 0
M  V30 41 H -1.858877 -2.869619 2.035979 0
M  V30 42 H -4.142034 -0.406745 0.544858 0
M  V30 43 H -4.760731 -0.535672 -1.844291 0
M  V30 44 H -3.588813 -2.027508 -3.343154 0
M  V30 45 H -1.774388 -3.439449 -2.548245 0
M  V30 46 H -1.153184 -3.314200 -0.164043 0
M  V30 END ATOM
M  V30 BEGIN BOND
M  V30 1 2 1 2
M  V30 2 1 2 3
M  V30 3 1 2 4
M  V30 4 1 4 5
M  V30 5 1 5 6
M  V30 6 2 6 7
M  V30 7 1 7 8
M  V30 8 2 8 9
M  V30 9 1 9 10
M  V30 10 1 10 11
M  V30 11 1 11 12
M  V30 12 2 12 13
M  V30 13 1 13 14
M  V30 14 2 14 15
M  V30 15 1 15 16
M  V30 16 2 16 17
M  V30 17 1 17 18
M  V30 18 2 18 19
M  V30 19 1 9 20
M  V30 20 1 20 21
M  V30 21 1 21 22
M  V30 22 1 22 23
M  V30 23 2 23 24
M  V30 24 1 24 25
M  V30 25 2 25 26
M  V30 26 1 26 27
M  V30 27 2 27 28
M  V30 28 1 20 6
M  V30 29 1 28 23
M  V30 30 1 19 11
M  V30 31 1 19 14
M  V30 32 1 3 29
M  V30 33 1 4 30
M  V30 34 1 4 31
M  V30 35 1 10 32
M  V30 36 1 10 33
M  V30 37 1 15 34
M  V30 38 1 16 35
M  V30 39 1 17 36
M  V30 40 1 18 37
M  V30 41 1 21 38
M  V30 42 1 21 39
M  V30 43 1 22 40
M  V30 44 1 22 41
M  V30 45 1 24 42
M  V30 46 1 25 43
M  V30 47 1 26 44
M  V30 48 1 27 45
M  V30 49 1 28 46
M  V30 END BOND
M  V30 END CTAB
M  END
>  <Dataset>  (711) 
ChEMBL_Kinases

>  <Ligand_Instance>  (711) 
nan

>  <PDB_ID>  (711) 
nan

>  <Standardized_SMILES>  (711) 
O=C(O)CSc1nnc(Cn2nnc3ccccc32)n1CCc1ccccc1

>  <Name>  (711) 
nan

>  <Pocket>  (711) 
nan

>  <ATP_Site>  (711) 
nan

>  <Peripheral>  (711) 
nan

>  <Num_H_Atoms_ProtBoundConf>  (711) 
nan

>  <Num_Resolved_Atoms>  (711) 
nan

>  <Num_Not_Resolved_Atoms>  (711) 
nan

$$$$
CHEMBL1406427
     RDKit          3D

  0  0  0  0  0  0  0  0  0  0999 V3000
M  V30 BEGIN CTAB
M  V30 COUNTS 38 40 0 0 0
M  V30 BEGIN ATOM
M  V30 1 C -2.302339 -3.830874 1.683742 0
M  V30 2 C -0.812308 -3.990860 1.501022 0
M  V30 3 O -0.346796 -3.171570 0.421425 0
M  V30 4 C 0.978556 -3.163859 0.082613 0
M  V30 5 O 1.699243 -3.923317 0.796719 0
M  V30 6 C 1.285625 -2.262276 -1.054391 0
M  V30 7 C 0.493346 -2.737125 -2.231944 0
M  V30 8 N 0.936559 -0.871175 -0.740482 0
M  V30 9 N 0.525243 -0.147343 -1.769145 0
M  V30 10 C 0.193415 1.134684 -1.532095 0
M  V30 11 C -0.280678 2.083874 -2.542151 0
M  V30 12 C 0.322625 1.558032 -0.214379 0
M  V30 13 S -0.039239 3.235261 0.470705 0
M  V30 14 C 0.406614 2.808799 2.133017 0
M  V30 15 C 0.391342 3.589803 3.247230 0
M  V30 16 C 0.776732 3.078151 4.465446 0
M  V30 17 C 1.157131 1.757495 4.421520 0
M  V30 18 C 1.174760 0.964770 3.301636 0
M  V30 19 C 0.784933 1.497014 2.091837 0
M  V30 20 C 0.755334 0.820686 0.904637 0
M  V30 21 C 1.062504 -0.468523 0.528631 0
M  V30 22 O 1.471806 -1.297596 1.385962 0
M  V30 23 H -2.676258 -3.096362 0.925300 0
M  V30 24 H -2.526835 -3.449017 2.702483 0
M  V30 25 H -2.854823 -4.786809 1.576502 0
M  V30 26 H -0.643695 -5.039007 1.174845 0
M  V30 27 H -0.293565 -3.734512 2.429954 0
M  V30 28 H 2.362555 -2.344130 -1.307630 0
M  V30 29 H 1.122103 -3.393967 -2.867412 0
M  V30 30 H -0.377914 -3.375595 -1.927988 0
M  V30 31 H 0.157304 -1.897083 -2.889216 0
M  V30 32 H 0.219792 1.940045 -3.520331 0
M  V30 33 H -1.393579 2.028181 -2.670575 0
M  V30 34 H -0.073298 3.119780 -2.218180 0
M  V30 35 H 0.068870 4.615946 3.141694 0
M  V30 36 H 0.771092 3.681950 5.358798 0
M  V30 37 H 1.470350 1.320354 5.379058 0
M  V30 38 H 1.508214 -0.074955 3.443324 0
M  V30 END ATOM
M  V30 BEGIN BOND
M  V30 1 1 1 2
M  V30 2 1 2 3
M  V30 3 1 3 4
M  V30 4 2 4 5
M  V30 5 1 4 6
M  V30 6 1 6 7
M  V30 7 1 6 8
M  V30 8 1 8 9
M  V30 9 2 9 10
M  V30 10 1 10 11
M  V30 11 1 10 12
M  V30 12 1 12 13
M  V30 13 1 13 14
M  V30 14 2 14 15
M  V30 15 1 15 16
M  V30 16 2 16 17
M  V30 17 1 17 18
M  V30 18 2 18 19
M  V30 19 1 19 20
M  V30 20 1 20 21
M  V30 21 2 21 22
M  V30 22 1 21 8
M  V30 23 2 20 12
M  V30 24 1 19 14
M  V30 25 1 1 23
M  V30 26 1 1 24
M  V30 27 1 1 25
M  V30 28 1 2 26
M  V30 29 1 2 27
M  V30 30 1 6 28
M  V30 31 1 7 29
M  V30 32 1 7 30
M  V30 33 1 7 31
M  V30 34 1 11 32
M  V30 35 1 11 33
M  V30 36 1 11 34
M  V30 37 1 15 35
M  V30 38 1 16 36
M  V30 39 1 17 37
M  V30 40 1 18 38
M  V30 END BOND
M  V30 END CTAB
M  END
>  <Dataset>  (712) 
ChEMBL_Kinases

>  <Ligand_Instance>  (712) 
nan

>  <PDB_ID>  (712) 
nan

>  <Standardized_SMILES>  (712) 
CCOC(=O)C(C)n1nc(C)c2sc3ccccc3c2c1=O

>  <Name>  (712) 
nan

>  <Pocket>  (712) 
nan

>  <ATP_Site>  (712) 
nan

>  <Peripheral>  (712) 
nan

>  <Num_H_Atoms_ProtBoundConf>  (712) 
nan

>  <Num_Resolved_Atoms>  (712) 
nan

>  <Num_Not_Resolved_Atoms>  (712) 
nan

$$$$
CHEMBL1406537
     RDKit          3D

  0  0  0  0  0  0  0  0  0  0999 V3000
M  V30 BEGIN CTAB
M  V30 COUNTS 28 30 0 0 0
M  V30 BEGIN ATOM
M  V30 1 C -2.984110 -0.598993 0.864276 0
M  V30 2 C -1.556842 -0.989247 1.033236 0
M  V30 3 N -1.111591 -1.137446 2.314320 0
M  V30 4 C 0.168454 -1.490458 2.518403 0
M  V30 5 C 0.712837 -1.665221 3.773292 0
M  V30 6 C 2.024064 -2.024504 3.865125 0
M  V30 7 C 2.820783 -2.218215 2.755280 0
M  V30 8 C 2.299857 -2.049534 1.479664 0
M  V30 9 C 0.961325 -1.683000 1.398809 0
M  V30 10 N 0.512641 -1.534037 0.136635 0
M  V30 11 C -0.757430 -1.183686 -0.070542 0
M  V30 12 C -1.254411 -1.014678 -1.463749 0
M  V30 13 S -1.341030 0.797821 -1.740849 0
M  V30 14 C 0.330345 1.413555 -1.700518 0
M  V30 15 N 0.751326 1.752556 -0.624741 0
M  V30 16 N 1.920066 2.220893 -0.368951 0
M  V30 17 C 2.789451 2.385952 -1.238850 0
M  V30 18 S 1.850707 1.779576 -2.773405 0
M  V30 19 H -3.668436 -1.497689 0.884139 0
M  V30 20 H -3.350022 0.028693 1.717926 0
M  V30 21 H -3.181597 -0.084912 -0.087244 0
M  V30 22 H 0.096815 -1.516044 4.653212 0
M  V30 23 H 2.444336 -2.160248 4.848330 0
M  V30 24 H 3.857366 -2.503376 2.875302 0
M  V30 25 H 2.920188 -2.199857 0.598047 0
M  V30 26 H -2.254651 -1.449324 -1.597312 0
M  V30 27 H -0.509967 -1.433595 -2.169607 0
M  V30 28 H 3.715132 2.802031 -0.777619 0
M  V30 END ATOM
M  V30 BEGIN BOND
M  V30 1 1 1 2
M  V30 2 2 2 3
M  V30 3 1 3 4
M  V30 4 2 4 5
M  V30 5 1 5 6
M  V30 6 2 6 7
M  V30 7 1 7 8
M  V30 8 2 8 9
M  V30 9 1 9 10
M  V30 10 2 10 11
M  V30 11 1 11 12
M  V30 12 1 12 13
M  V30 13 1 13 14
M  V30 14 2 14 15
M  V30 15 1 15 16
M  V30 16 2 16 17
M  V30 17 1 17 18
M  V30 18 1 11 2
M  V30 19 1 18 14
M  V30 20 1 9 4
M  V30 21 1 1 19
M  V30 22 1 1 20
M  V30 23 1 1 21
M  V30 24 1 5 22
M  V30 25 1 6 23
M  V30 26 1 7 24
M  V30 27 1 8 25
M  V30 28 1 12 26
M  V30 29 1 12 27
M  V30 30 1 17 28
M  V30 END BOND
M  V30 END CTAB
M  END
>  <Dataset>  (713) 
ChEMBL_Kinases

>  <Ligand_Instance>  (713) 
nan

>  <PDB_ID>  (713) 
nan

>  <Standardized_SMILES>  (713) 
Cc1nc2ccccc2nc1CSc1nncs1

>  <Name>  (713) 
nan

>  <Pocket>  (713) 
nan

>  <ATP_Site>  (713) 
nan

>  <Peripheral>  (713) 
nan

>  <Num_H_Atoms_ProtBoundConf>  (713) 
nan

>  <Num_Resolved_Atoms>  (713) 
nan

>  <Num_Not_Resolved_Atoms>  (713) 
nan

$$$$
CHEMBL1406590
     RDKit          3D

  0  0  0  0  0  0  0  0  0  0999 V3000
M  V30 BEGIN CTAB
M  V30 COUNTS 48 50 0 0 0
M  V30 BEGIN ATOM
M  V30 1 C -2.795169 0.228581 1.266228 0
M  V30 2 N -1.545880 -0.325764 1.829138 0
M  V30 3 C -0.430228 -0.028882 1.009656 0
M  V30 4 C 0.802447 0.476194 1.672879 0
M  V30 5 C 1.869245 0.756151 0.615439 0
M  V30 6 C 1.311552 1.788495 -0.297140 0
M  V30 7 O 0.391460 2.556577 -0.634935 0
M  V30 8 N 2.346843 1.996451 -1.255557 0
M  V30 9 C 2.206426 2.979158 -2.387409 0
M  V30 10 N 1.776868 2.723994 -3.423169 0
M  V30 11 N 1.617207 3.494498 -4.451437 0
M  V30 12 C 1.892692 4.615579 -4.498886 0
M  V30 13 S 2.565938 4.815230 -2.726626 0
M  V30 14 C 1.343098 -0.326019 2.768814 0
M  V30 15 C 1.131728 -0.127164 4.117082 0
M  V30 16 C 1.734395 -0.948619 5.051770 0
M  V30 17 C 2.558341 -1.982900 4.662108 0
M  V30 18 C 2.775317 -2.188163 3.298467 0
M  V30 19 C 2.174296 -1.367437 2.337655 0
M  V30 20 S -1.837565 -1.948163 2.220223 0
M  V30 21 O -3.009148 -2.004996 3.206729 0
M  V30 22 O -0.684918 -2.538584 2.954359 0
M  V30 23 C -2.259702 -2.903990 0.791130 0
M  V30 24 C -3.597847 -3.006615 0.432180 0
M  V30 25 C -3.902096 -3.756183 -0.684019 0
M  V30 26 C -2.903386 -4.369616 -1.399144 0
M  V30 27 C -1.561741 -4.268064 -1.041198 0
M  V30 28 C -1.235454 -3.518801 0.078075 0
M  V30 29 H -3.654059 -0.033144 1.902130 0
M  V30 30 H -2.998534 -0.209340 0.264029 0
M  V30 31 H -2.685375 1.321601 1.255945 0
M  V30 32 H -0.763586 0.795901 0.309666 0
M  V30 33 H -0.205068 -0.872277 0.303248 0
M  V30 34 H 0.533445 1.480091 2.119809 0
M  V30 35 H 2.103500 -0.182147 0.074203 0
M  V30 36 H 2.786612 1.116567 1.121666 0
M  V30 37 H 3.309758 1.623525 -1.439789 0
M  V30 38 H 2.098746 5.789415 -4.783618 0
M  V30 39 H 0.472895 0.705674 4.320237 0
M  V30 40 H 1.506313 -0.712166 6.096102 0
M  V30 41 H 2.995849 -2.584300 5.436325 0
M  V30 42 H 3.435452 -3.023790 3.117654 0
M  V30 43 H 2.471260 -1.697243 1.366718 0
M  V30 44 H -4.361653 -2.509191 1.019349 0
M  V30 45 H -4.940693 -3.865927 -1.005407 0
M  V30 46 H -3.106394 -4.967016 -2.282536 0
M  V30 47 H -0.781645 -4.742509 -1.593033 0
M  V30 48 H -0.207515 -3.421884 0.379615 0
M  V30 END ATOM
M  V30 BEGIN BOND
M  V30 1 1 1 2
M  V30 2 1 2 3
M  V30 3 1 3 4
M  V30 4 1 4 5
M  V30 5 1 5 6
M  V30 6 2 6 7
M  V30 7 1 6 8
M  V30 8 1 8 9
M  V30 9 2 9 10
M  V30 10 1 10 11
M  V30 11 2 11 12
M  V30 12 1 12 13
M  V30 13 1 4 14
M  V30 14 2 14 15
M  V30 15 1 15 16
M  V30 16 2 16 17
M  V30 17 1 17 18
M  V30 18 2 18 19
M  V30 19 1 2 20
M  V30 20 2 20 21
M  V30 21 2 20 22
M  V30 22 1 20 23
M  V30 23 2 23 24
M  V30 24 1 24 25
M  V30 25 2 25 26
M  V30 26 1 26 27
M  V30 27 2 27 28
M  V30 28 1 13 9
M  V30 29 1 19 14
M  V30 30 1 28 23
M  V30 31 1 1 29
M  V30 32 1 1 30
M  V30 33 1 1 31
M  V30 34 1 3 32
M  V30 35 1 3 33
M  V30 36 1 4 34
M  V30 37 1 5 35
M  V30 38 1 5 36
M  V30 39 1 8 37
M  V30 40 1 12 38
M  V30 41 1 15 39
M  V30 42 1 16 40
M  V30 43 1 17 41
M  V30 44 1 18 42
M  V30 45 1 19 43
M  V30 46 1 24 44
M  V30 47 1 25 45
M  V30 48 1 26 46
M  V30 49 1 27 47
M  V30 50 1 28 48
M  V30 END BOND
M  V30 END CTAB
M  END
>  <Dataset>  (714) 
ChEMBL_Kinases

>  <Ligand_Instance>  (714) 
nan

>  <PDB_ID>  (714) 
nan

>  <Standardized_SMILES>  (714) 
CN(CC(CC(=O)Nc1nncs1)c1ccccc1)S(=O)(=O)c1ccccc1

>  <Name>  (714) 
nan

>  <Pocket>  (714) 
nan

>  <ATP_Site>  (714) 
nan

>  <Peripheral>  (714) 
nan

>  <Num_H_Atoms_ProtBoundConf>  (714) 
nan

>  <Num_Resolved_Atoms>  (714) 
nan

>  <Num_Not_Resolved_Atoms>  (714) 
nan

$$$$
CHEMBL1406742
     RDKit          3D

  0  0  0  0  0  0  0  0  0  0999 V3000
M  V30 BEGIN CTAB
M  V30 COUNTS 34 37 0 0 0
M  V30 BEGIN ATOM
M  V30 1 O -1.500517 -1.876691 2.961485 0
M  V30 2 C -2.366640 -1.710410 2.061666 0
M  V30 3 N -1.843452 -1.818498 0.731227 0
M  V30 4 C -0.475517 -2.088320 0.387497 0
M  V30 5 C 0.001413 -3.383224 0.215348 0
M  V30 6 C 1.333326 -3.532108 -0.114368 0
M  V30 7 C 2.151259 -2.425738 -0.264673 0
M  V30 8 C 1.694885 -1.148968 -0.098303 0
M  V30 9 C 2.502363 0.057493 -0.241705 0
M  V30 10 C 3.842475 0.040417 -0.567699 0
M  V30 11 C 4.614177 1.175857 -0.705539 0
M  V30 12 C 4.040282 2.415207 -0.512273 0
M  V30 13 N 4.430877 3.702487 -0.551001 0
M  V30 14 N 3.390506 4.470983 -0.265022 0
M  V30 15 C 2.326121 3.669842 -0.041588 0
M  V30 16 N 2.732247 2.388103 -0.195987 0
M  V30 17 N 1.997697 1.295978 -0.065276 0
M  V30 18 C 0.366835 -0.984948 0.231135 0
M  V30 19 C -3.813705 -1.426000 2.175907 0
M  V30 20 C -4.743939 -1.247731 1.156306 0
M  V30 21 C -5.930810 -1.011944 1.852810 0
M  V30 22 C -5.671324 -1.057206 3.206500 0
M  V30 23 O -4.382587 -1.309394 3.369741 0
M  V30 24 H -2.421065 -1.708712 -0.139740 0
M  V30 25 H -0.675856 -4.206273 0.343857 0
M  V30 26 H 1.744909 -4.541235 -0.258209 0
M  V30 27 H 3.190002 -2.569717 -0.523032 0
M  V30 28 H 4.339394 -0.898605 -0.729209 0
M  V30 29 H 5.671486 1.137423 -0.963828 0
M  V30 30 H 1.329917 4.054130 0.216933 0
M  V30 31 H -0.049119 0.023943 0.376025 0
M  V30 32 H -4.507306 -1.298568 0.103181 0
M  V30 33 H -6.880020 -0.827893 1.326344 0
M  V30 34 H -6.439921 -0.903165 3.979733 0
M  V30 END ATOM
M  V30 BEGIN BOND
M  V30 1 2 1 2
M  V30 2 1 2 3
M  V30 3 1 3 4
M  V30 4 2 4 5
M  V30 5 1 5 6
M  V30 6 2 6 7
M  V30 7 1 7 8
M  V30 8 1 8 9
M  V30 9 1 9 10
M  V30 10 2 10 11
M  V30 11 1 11 12
M  V30 12 2 12 13
M  V30 13 1 13 14
M  V30 14 2 14 15
M  V30 15 1 15 16
M  V30 16 1 16 17
M  V30 17 2 8 18
M  V30 18 1 2 19
M  V30 19 2 19 20
M  V30 20 1 20 21
M  V30 21 2 21 22
M  V30 22 1 22 23
M  V30 23 1 18 4
M  V30 24 1 23 19
M  V30 25 2 17 9
M  V30 26 1 16 12
M  V30 27 1 3 24
M  V30 28 1 5 25
M  V30 29 1 6 26
M  V30 30 1 7 27
M  V30 31 1 10 28
M  V30 32 1 11 29
M  V30 33 1 15 30
M  V30 34 1 18 31
M  V30 35 1 20 32
M  V30 36 1 21 33
M  V30 37 1 22 34
M  V30 END BOND
M  V30 END CTAB
M  END
>  <Dataset>  (715) 
ChEMBL_Kinases

>  <Ligand_Instance>  (715) 
nan

>  <PDB_ID>  (715) 
nan

>  <Standardized_SMILES>  (715) 
O=C(Nc1cccc(-c2ccc3nncn3n2)c1)c1ccco1

>  <Name>  (715) 
nan

>  <Pocket>  (715) 
nan

>  <ATP_Site>  (715) 
nan

>  <Peripheral>  (715) 
nan

>  <Num_H_Atoms_ProtBoundConf>  (715) 
nan

>  <Num_Resolved_Atoms>  (715) 
nan

>  <Num_Not_Resolved_Atoms>  (715) 
nan

$$$$
CHEMBL1406782
     RDKit          3D

  0  0  0  0  0  0  0  0  0  0999 V3000
M  V30 BEGIN CTAB
M  V30 COUNTS 43 45 0 0 0
M  V30 BEGIN ATOM
M  V30 1 C -2.743705 -6.907153 -1.040997 0
M  V30 2 C -2.116443 -5.684847 -0.467787 0
M  V30 3 O -1.939498 -5.686051 0.778072 0
M  V30 4 N -1.706081 -4.533177 -1.195801 0
M  V30 5 C -1.137170 -3.546905 -0.292674 0
M  V30 6 C -0.706343 -2.336012 -1.062603 0
M  V30 7 N -0.123944 -1.292131 -0.245300 0
M  V30 8 C 0.318349 -0.103621 -0.865561 0
M  V30 9 N 0.203791 0.063645 -2.193881 0
M  V30 10 C 0.596498 1.152316 -2.848915 0
M  V30 11 N 1.145433 2.163504 -2.164480 0
M  V30 12 C 1.317001 2.118444 -0.818950 0
M  V30 13 C 1.882916 3.158012 -0.104425 0
M  V30 14 C 2.034568 3.060912 1.264165 0
M  V30 15 C 1.612396 1.911718 1.901974 0
M  V30 16 C 1.770600 1.803695 3.350645 0
M  V30 17 C 0.886740 2.175922 4.356053 0
M  V30 18 C -0.448916 2.783830 4.088338 0
M  V30 19 N 1.445336 1.894253 5.546991 0
M  V30 20 O 2.616094 1.372211 5.355802 0
M  V30 21 C 2.846394 1.301338 4.066469 0
M  V30 22 C 4.104507 0.750517 3.460996 0
M  V30 23 C 1.052430 0.895142 1.157201 0
M  V30 24 C 0.888705 0.961983 -0.201303 0
M  V30 25 H -3.779346 -7.015313 -0.606432 0
M  V30 26 H -2.849777 -6.880999 -2.133207 0
M  V30 27 H -2.203341 -7.825151 -0.714788 0
M  V30 28 H -1.881437 -4.593832 -2.236641 0
M  V30 29 H -1.921726 -3.329429 0.462158 0
M  V30 30 H -0.265986 -4.061067 0.198284 0
M  V30 31 H -1.614556 -1.928590 -1.553956 0
M  V30 32 H -0.030985 -2.677431 -1.870773 0
M  V30 33 H -0.084285 -1.524498 0.761871 0
M  V30 34 H 0.457127 1.184220 -3.927191 0
M  V30 35 H 2.179565 4.017674 -0.716078 0
M  V30 36 H 2.485280 3.908778 1.770859 0
M  V30 37 H -1.161698 2.073482 3.631199 0
M  V30 38 H -0.281068 3.650761 3.391327 0
M  V30 39 H -0.830010 3.157365 5.061472 0
M  V30 40 H 4.693411 1.631435 3.125822 0
M  V30 41 H 3.869507 0.179552 2.526350 0
M  V30 42 H 4.644770 0.133293 4.190244 0
M  V30 43 H 0.749864 0.042825 1.704243 0
M  V30 END ATOM
M  V30 BEGIN BOND
M  V30 1 1 1 2
M  V30 2 2 2 3
M  V30 3 1 2 4
M  V30 4 1 4 5
M  V30 5 1 5 6
M  V30 6 1 6 7
M  V30 7 1 7 8
M  V30 8 2 8 9
M  V30 9 1 9 10
M  V30 10 2 10 11
M  V30 11 1 11 12
M  V30 12 2 12 13
M  V30 13 1 13 14
M  V30 14 2 14 15
M  V30 15 1 15 16
M  V30 16 1 16 17
M  V30 17 1 17 18
M  V30 18 2 17 19
M  V30 19 1 19 20
M  V30 20 1 20 21
M  V30 21 1 21 22
M  V30 22 1 15 23
M  V30 23 2 23 24
M  V30 24 1 24 8
M  V30 25 1 24 12
M  V30 26 2 21 16
M  V30 27 1 1 25
M  V30 28 1 1 26
M  V30 29 1 1 27
M  V30 30 1 4 28
M  V30 31 1 5 29
M  V30 32 1 5 30
M  V30 33 1 6 31
M  V30 34 1 6 32
M  V30 35 1 7 33
M  V30 36 1 10 34
M  V30 37 1 13 35
M  V30 38 1 14 36
M  V30 39 1 18 37
M  V30 40 1 18 38
M  V30 41 1 18 39
M  V30 42 1 22 40
M  V30 43 1 22 41
M  V30 44 1 22 42
M  V30 45 1 23 43
M  V30 END BOND
M  V30 END CTAB
M  END
>  <Dataset>  (716) 
ChEMBL_Kinases

>  <Ligand_Instance>  (716) 
nan

>  <PDB_ID>  (716) 
nan

>  <Standardized_SMILES>  (716) 
CC(=O)NCCNc1ncnc2ccc(-c3c(C)noc3C)cc12

>  <Name>  (716) 
nan

>  <Pocket>  (716) 
nan

>  <ATP_Site>  (716) 
nan

>  <Peripheral>  (716) 
nan

>  <Num_H_Atoms_ProtBoundConf>  (716) 
nan

>  <Num_Resolved_Atoms>  (716) 
nan

>  <Num_Not_Resolved_Atoms>  (716) 
nan

$$$$
CHEMBL1406204
     RDKit          3D

  0  0  0  0  0  0  0  0  0  0999 V3000
M  V30 BEGIN CTAB
M  V30 COUNTS 39 42 0 0 0
M  V30 BEGIN ATOM
M  V30 1 C 2.556838 -5.139331 2.864557 0
M  V30 2 S 2.336811 -3.609857 3.737405 0
M  V30 3 O 1.315280 -3.744257 4.831171 0
M  V30 4 O 3.637879 -3.278238 4.409459 0
M  V30 5 C 1.944714 -2.358388 2.631026 0
M  V30 6 S 3.250478 -1.349435 1.840511 0
M  V30 7 C 2.094006 -0.333706 0.889961 0
M  V30 8 N 2.328776 0.692633 0.028099 0
M  V30 9 C 1.328483 1.332543 -0.577024 0
M  V30 10 C 1.559906 2.432507 -1.501046 0
M  V30 11 C 2.705785 2.987036 -1.905623 0
M  V30 12 C 2.650133 4.023378 -2.792505 0
M  V30 13 C 1.343332 4.439560 -3.225121 0
M  V30 14 S 0.250979 3.281973 -2.303201 0
M  V30 15 C 0.076404 0.869500 -0.256772 0
M  V30 16 C -0.216839 -0.159724 0.603358 0
M  V30 17 C -1.633159 -0.471062 0.737441 0
M  V30 18 C -2.386912 0.640927 1.117698 0
M  V30 19 C -3.754273 0.597349 1.293090 0
M  V30 20 C -4.440550 -0.580625 1.092526 0
M  V30 21 C -3.689610 -1.668766 0.718232 0
M  V30 22 C -2.333637 -1.642180 0.539815 0
M  V30 23 C 0.828995 -0.804772 1.217226 0
M  V30 24 C 0.748912 -1.837384 2.105724 0
M  V30 25 N -0.396067 -2.493219 2.621807 0
M  V30 26 H 1.629183 -5.712618 2.761662 0
M  V30 27 H 3.344850 -5.764737 3.346707 0
M  V30 28 H 2.972509 -4.881471 1.857173 0
M  V30 29 H 3.643326 2.608667 -1.527223 0
M  V30 30 H 3.541002 4.544323 -3.183622 0
M  V30 31 H 1.229662 5.299235 -3.964830 0
M  V30 32 H -0.735845 1.407757 -0.763905 0
M  V30 33 H -1.966568 1.639956 1.309829 0
M  V30 34 H -4.342573 1.455269 1.587390 0
M  V30 35 H -5.507984 -0.697383 1.209055 0
M  V30 36 H -4.105067 -2.667376 0.525483 0
M  V30 37 H -1.713817 -2.460556 0.236943 0
M  V30 38 H -0.849663 -1.772641 3.242205 0
M  V30 39 H -0.658715 -3.465692 2.391432 0
M  V30 END ATOM
M  V30 BEGIN BOND
M  V30 1 1 1 2
M  V30 2 2 2 3
M  V30 3 2 2 4
M  V30 4 1 2 5
M  V30 5 1 5 6
M  V30 6 1 6 7
M  V30 7 2 7 8
M  V30 8 1 8 9
M  V30 9 1 9 10
M  V30 10 2 10 11
M  V30 11 1 11 12
M  V30 12 2 12 13
M  V30 13 1 13 14
M  V30 14 2 9 15
M  V30 15 1 15 16
M  V30 16 1 16 17
M  V30 17 2 17 18
M  V30 18 1 18 19
M  V30 19 2 19 20
M  V30 20 1 20 21
M  V30 21 2 21 22
M  V30 22 2 16 23
M  V30 23 1 23 24
M  V30 24 1 24 25
M  V30 25 2 24 5
M  V30 26 1 23 7
M  V30 27 1 14 10
M  V30 28 1 22 17
M  V30 29 1 1 26
M  V30 30 1 1 27
M  V30 31 1 1 28
M  V30 32 1 11 29
M  V30 33 1 12 30
M  V30 34 1 13 31
M  V30 35 1 15 32
M  V30 36 1 18 33
M  V30 37 1 19 34
M  V30 38 1 20 35
M  V30 39 1 21 36
M  V30 40 1 22 37
M  V30 41 1 25 38
M  V30 42 1 25 39
M  V30 END BOND
M  V30 END CTAB
M  END
>  <Dataset>  (717) 
ChEMBL_Kinases

>  <Ligand_Instance>  (717) 
nan

>  <PDB_ID>  (717) 
nan

>  <Standardized_SMILES>  (717) 
CS(=O)(=O)c1sc2nc(-c3cccs3)cc(-c3ccccc3)c2c1N

>  <Name>  (717) 
nan

>  <Pocket>  (717) 
nan

>  <ATP_Site>  (717) 
nan

>  <Peripheral>  (717) 
nan

>  <Num_H_Atoms_ProtBoundConf>  (717) 
nan

>  <Num_Resolved_Atoms>  (717) 
nan

>  <Num_Not_Resolved_Atoms>  (717) 
nan

$$$$
CHEMBL1400043
     RDKit          3D

  0  0  0  0  0  0  0  0  0  0999 V3000
M  V30 BEGIN CTAB
M  V30 COUNTS 35 37 0 0 0
M  V30 BEGIN ATOM
M  V30 1 C -0.293419 -2.909761 4.074535 0
M  V30 2 O 0.306357 -2.059574 3.110391 0
M  V30 3 C 0.169786 -2.222317 1.737916 0
M  V30 4 N -0.547116 -3.205134 1.166844 0
M  V30 5 C -0.654062 -3.327277 -0.181821 0
M  V30 6 C 0.028721 -2.366124 -0.934549 0
M  V30 7 N -0.089798 -2.505766 -2.262574 0
M  V30 8 C 0.563410 -1.586610 -3.019700 0
M  V30 9 C 1.304894 -0.569502 -2.458560 0
M  V30 10 O 1.922726 0.299007 -3.128500 0
M  V30 11 N 1.419675 -0.435424 -1.107015 0
M  V30 12 C 2.190384 0.619341 -0.516022 0
M  V30 13 C 1.380057 1.885867 -0.257620 0
M  V30 14 C 0.248924 1.662298 0.650786 0
M  V30 15 C -0.941172 1.305757 0.029890 0
M  V30 16 C -2.106921 1.059671 0.760974 0
M  V30 17 C -2.047972 1.182239 2.153677 0
M  V30 18 C -0.849294 1.537738 2.732139 0
M  V30 19 C 0.310049 1.785350 2.042444 0
M  V30 20 C 0.767575 -1.353351 -0.337035 0
M  V30 21 N 0.822140 -1.303653 1.001849 0
M  V30 22 H -1.271148 -3.241451 3.651086 0
M  V30 23 H 0.291593 -3.814258 4.242574 0
M  V30 24 H -0.542397 -2.354769 4.997909 0
M  V30 25 H -1.229730 -4.117314 -0.597331 0
M  V30 26 H 0.544820 -1.592580 -4.089833 0
M  V30 27 H 2.996053 0.865236 -1.237769 0
M  V30 28 H 2.669841 0.266826 0.410209 0
M  V30 29 H 2.054042 2.613324 0.234961 0
M  V30 30 H 1.045555 2.333424 -1.194398 0
M  V30 31 H -1.045307 1.195967 -1.044647 0
M  V30 32 H -3.036928 0.783636 0.309339 0
M  V30 33 H -2.917815 1.006057 2.795755 0
M  V30 34 H -0.813486 1.630458 3.815263 0
M  V30 35 H 1.244126 2.061216 2.478124 0
M  V30 END ATOM
M  V30 BEGIN BOND
M  V30 1 1 1 2
M  V30 2 1 2 3
M  V30 3 2 3 4
M  V30 4 1 4 5
M  V30 5 2 5 6
M  V30 6 1 6 7
M  V30 7 2 7 8
M  V30 8 1 8 9
M  V30 9 2 9 10
M  V30 10 1 9 11
M  V30 11 1 11 12
M  V30 12 1 12 13
M  V30 13 1 13 14
M  V30 14 2 14 15
M  V30 15 1 15 16
M  V30 16 2 16 17
M  V30 17 1 17 18
M  V30 18 2 18 19
M  V30 19 1 11 20
M  V30 20 2 20 21
M  V30 21 1 21 3
M  V30 22 1 20 6
M  V30 23 1 19 14
M  V30 24 1 1 22
M  V30 25 1 1 23
M  V30 26 1 1 24
M  V30 27 1 5 25
M  V30 28 1 8 26
M  V30 29 1 12 27
M  V30 30 1 12 28
M  V30 31 1 13 29
M  V30 32 1 13 30
M  V30 33 1 15 31
M  V30 34 1 16 32
M  V30 35 1 17 33
M  V30 36 1 18 34
M  V30 37 1 19 35
M  V30 END BOND
M  V30 END CTAB
M  END
>  <Dataset>  (718) 
ChEMBL_Kinases

>  <Ligand_Instance>  (718) 
nan

>  <PDB_ID>  (718) 
nan

>  <Standardized_SMILES>  (718) 
COc1ncc2ncc(=O)n(CCc3ccccc3)c2n1

>  <Name>  (718) 
nan

>  <Pocket>  (718) 
nan

>  <ATP_Site>  (718) 
nan

>  <Peripheral>  (718) 
nan

>  <Num_H_Atoms_ProtBoundConf>  (718) 
nan

>  <Num_Resolved_Atoms>  (718) 
nan

>  <Num_Not_Resolved_Atoms>  (718) 
nan

$$$$
CHEMBL1400016
     RDKit          3D

  0  0  0  0  0  0  0  0  0  0999 V3000
M  V30 BEGIN CTAB
M  V30 COUNTS 44 46 0 0 0
M  V30 BEGIN ATOM
M  V30 1 C 0.699190 -5.237820 2.661207 0
M  V30 2 C 0.518314 -4.528012 1.340830 0
M  V30 3 N -0.187163 -3.267089 1.470908 0
M  V30 4 C 0.433740 -2.094536 1.689130 0
M  V30 5 S 2.230078 -2.217812 1.812642 0
M  V30 6 C 2.876346 -0.528078 2.102219 0
M  V30 7 C 2.609847 0.260927 0.882346 0
M  V30 8 O 2.066837 -0.668456 0.251739 0
M  V30 9 N 2.617490 1.414560 0.057107 0
M  V30 10 C 2.018350 1.201732 -1.244688 0
M  V30 11 C 1.288284 2.487956 -1.588517 0
M  V30 12 O 2.097225 3.596431 -1.604199 0
M  V30 13 C 3.296409 3.460035 -0.930801 0
M  V30 14 C 3.143995 2.725571 0.381210 0
M  V30 15 N -0.193847 -0.935642 1.809907 0
M  V30 16 C -1.532158 -0.817972 1.724833 0
M  V30 17 C -2.182292 -2.013285 1.501083 0
M  V30 18 C -1.525199 -3.219446 1.375669 0
M  V30 19 O -2.212924 -4.252802 1.172941 0
M  V30 20 S -3.930927 -1.571657 1.430729 0
M  V30 21 C -3.630651 0.199217 1.066510 0
M  V30 22 C -3.429100 0.305571 -0.425408 0
M  V30 23 C -2.358025 0.367211 1.835956 0
M  V30 24 H 0.579518 -4.521021 3.501484 0
M  V30 25 H 1.759153 -5.603184 2.764345 0
M  V30 26 H 0.047213 -6.119592 2.752697 0
M  V30 27 H -0.004324 -5.230353 0.657708 0
M  V30 28 H 1.530337 -4.332465 0.916700 0
M  V30 29 H 3.956710 -0.553182 2.338959 0
M  V30 30 H 2.277108 -0.129303 2.970950 0
M  V30 31 H 1.257332 0.403220 -1.249470 0
M  V30 32 H 2.774088 0.973708 -2.024516 0
M  V30 33 H 0.847259 2.405483 -2.613939 0
M  V30 34 H 0.431557 2.556846 -0.868725 0
M  V30 35 H 3.775099 4.442886 -0.734813 0
M  V30 36 H 3.973446 2.825745 -1.567587 0
M  V30 37 H 4.141238 2.694710 0.865941 0
M  V30 38 H 2.386828 3.233052 1.037607 0
M  V30 39 H -4.450724 0.798770 1.462197 0
M  V30 40 H -2.770707 -0.526125 -0.749304 0
M  V30 41 H -4.420521 0.130485 -0.891206 0
M  V30 42 H -2.999289 1.296727 -0.715352 0
M  V30 43 H -2.580074 0.683896 2.874690 0
M  V30 44 H -1.827183 1.232271 1.375872 0
M  V30 END ATOM
M  V30 BEGIN BOND
M  V30 1 1 1 2
M  V30 2 1 2 3
M  V30 3 1 3 4
M  V30 4 1 4 5
M  V30 5 1 5 6
M  V30 6 1 6 7
M  V30 7 2 7 8
M  V30 8 1 7 9
M  V30 9 1 9 10
M  V30 10 1 10 11
M  V30 11 1 11 12
M  V30 12 1 12 13
M  V30 13 1 13 14
M  V30 14 2 4 15
M  V30 15 1 15 16
M  V30 16 2 16 17
M  V30 17 1 17 18
M  V30 18 2 18 19
M  V30 19 1 17 20
M  V30 20 1 20 21
M  V30 21 1 21 22
M  V30 22 1 21 23
M  V30 23 1 18 3
M  V30 24 1 14 9
M  V30 25 1 23 16
M  V30 26 1 1 24
M  V30 27 1 1 25
M  V30 28 1 1 26
M  V30 29 1 2 27
M  V30 30 1 2 28
M  V30 31 1 6 29
M  V30 32 1 6 30
M  V30 33 1 10 31
M  V30 34 1 10 32
M  V30 35 1 11 33
M  V30 36 1 11 34
M  V30 37 1 13 35
M  V30 38 1 13 36
M  V30 39 1 14 37
M  V30 40 1 14 38
M  V30 41 1 21 39
M  V30 42 1 22 40
M  V30 43 1 22 41
M  V30 44 1 22 42
M  V30 45 1 23 43
M  V30 46 1 23 44
M  V30 END BOND
M  V30 END CTAB
M  END
>  <Dataset>  (719) 
ChEMBL_Kinases

>  <Ligand_Instance>  (719) 
nan

>  <PDB_ID>  (719) 
nan

>  <Standardized_SMILES>  (719) 
CCn1c(SCC(=O)N2CCOCC2)nc2c(c1=O)SC(C)C2

>  <Name>  (719) 
nan

>  <Pocket>  (719) 
nan

>  <ATP_Site>  (719) 
nan

>  <Peripheral>  (719) 
nan

>  <Num_H_Atoms_ProtBoundConf>  (719) 
nan

>  <Num_Resolved_Atoms>  (719) 
nan

>  <Num_Not_Resolved_Atoms>  (719) 
nan

$$$$
CHEMBL1399977
     RDKit          3D

  0  0  0  0  0  0  0  0  0  0999 V3000
M  V30 BEGIN CTAB
M  V30 COUNTS 49 51 0 0 0
M  V30 BEGIN ATOM
M  V30 1 C 0.809837 -7.424478 1.114555 0
M  V30 2 O 0.248905 -6.893117 -0.088891 0
M  V30 3 C 0.395411 -5.523728 -0.314782 0
M  V30 4 C 1.059780 -4.744205 0.605906 0
M  V30 5 C 1.194834 -3.394900 0.366806 0
M  V30 6 C 0.651931 -2.861796 -0.804483 0
M  V30 7 N 0.821757 -1.550936 -0.966719 0
M  V30 8 C 0.383203 -0.829722 -2.016744 0
M  V30 9 S 0.489045 0.865861 -2.431132 0
M  V30 10 C -0.760134 1.961742 -1.914030 0
M  V30 11 C -0.955350 2.302137 -0.524024 0
M  V30 12 O -1.976181 3.085622 -0.435505 0
M  V30 13 N -0.287032 1.970450 0.712238 0
M  V30 14 C 0.874839 1.132175 0.932783 0
M  V30 15 C -0.833308 2.550758 1.957665 0
M  V30 16 C 0.110106 3.504355 2.585687 0
M  V30 17 C 0.401385 3.288653 4.039735 0
M  V30 18 C 0.546913 1.840755 4.401454 0
M  V30 19 C -0.553858 0.974069 3.921626 0
M  V30 20 C -1.432683 1.533653 2.860101 0
M  V30 21 C -0.299261 -1.590598 -2.976781 0
M  V30 22 C -0.863036 -1.028163 -4.196032 0
M  V30 23 N -1.287766 -0.590789 -5.161059 0
M  V30 24 C -0.487670 -2.964282 -2.825513 0
M  V30 25 C -0.010439 -3.639868 -1.722150 0
M  V30 26 C -0.142425 -4.981065 -1.480288 0
M  V30 27 H 1.895746 -7.152123 1.182237 0
M  V30 28 H 0.763375 -8.531547 1.108525 0
M  V30 29 H 0.320774 -6.995972 2.001270 0
M  V30 30 H 1.483059 -5.176214 1.525104 0
M  V30 31 H 1.724038 -2.810807 1.113093 0
M  V30 32 H -0.636302 2.931086 -2.490919 0
M  V30 33 H -1.751579 1.587231 -2.327582 0
M  V30 34 H 1.617845 1.612042 1.608511 0
M  V30 35 H 1.426104 1.015282 -0.045796 0
M  V30 36 H 0.622125 0.103534 1.253311 0
M  V30 37 H -1.717960 3.159236 1.577469 0
M  V30 38 H 1.061940 3.521882 2.013241 0
M  V30 39 H -0.292149 4.537798 2.499266 0
M  V30 40 H -0.305823 3.792736 4.731171 0
M  V30 41 H 1.411089 3.747135 4.259952 0
M  V30 42 H 1.505803 1.507212 3.994683 0
M  V30 43 H 0.571397 1.805532 5.519909 0
M  V30 44 H -1.190291 0.644611 4.791842 0
M  V30 45 H -0.105047 0.017572 3.519509 0
M  V30 46 H -2.348121 1.981300 3.346854 0
M  V30 47 H -1.876947 0.724689 2.212963 0
M  V30 48 H -1.016660 -3.564412 -3.565663 0
M  V30 49 H -0.668321 -5.557838 -2.223773 0
M  V30 END ATOM
M  V30 BEGIN BOND
M  V30 1 1 1 2
M  V30 2 1 2 3
M  V30 3 2 3 4
M  V30 4 1 4 5
M  V30 5 2 5 6
M  V30 6 1 6 7
M  V30 7 2 7 8
M  V30 8 1 8 9
M  V30 9 1 9 10
M  V30 10 1 10 11
M  V30 11 2 11 12
M  V30 12 1 11 13
M  V30 13 1 13 14
M  V30 14 1 13 15
M  V30 15 1 15 16
M  V30 16 1 16 17
M  V30 17 1 17 18
M  V30 18 1 18 19
M  V30 19 1 19 20
M  V30 20 1 8 21
M  V30 21 1 21 22
M  V30 22 3 22 23
M  V30 23 2 21 24
M  V30 24 1 24 25
M  V30 25 2 25 26
M  V30 26 1 26 3
M  V30 27 1 25 6
M  V30 28 1 20 15
M  V30 29 1 1 27
M  V30 30 1 1 28
M  V30 31 1 1 29
M  V30 32 1 4 30
M  V30 33 1 5 31
M  V30 34 1 10 32
M  V30 35 1 10 33
M  V30 36 1 14 34
M  V30 37 1 14 35
M  V30 38 1 14 36
M  V30 39 1 15 37
M  V30 40 1 16 38
M  V30 41 1 16 39
M  V30 42 1 17 40
M  V30 43 1 17 41
M  V30 44 1 18 42
M  V30 45 1 18 43
M  V30 46 1 19 44
M  V30 47 1 19 45
M  V30 48 1 20 46
M  V30 49 1 20 47
M  V30 50 1 24 48
M  V30 51 1 26 49
M  V30 END BOND
M  V30 END CTAB
M  END
>  <Dataset>  (720) 
ChEMBL_Kinases

>  <Ligand_Instance>  (720) 
nan

>  <PDB_ID>  (720) 
nan

>  <Standardized_SMILES>  (720) 
COc1ccc2nc(SCC(=O)N(C)C3CCCCC3)c(C#N)cc2c1

>  <Name>  (720) 
nan

>  <Pocket>  (720) 
nan

>  <ATP_Site>  (720) 
nan

>  <Peripheral>  (720) 
nan

>  <Num_H_Atoms_ProtBoundConf>  (720) 
nan

>  <Num_Resolved_Atoms>  (720) 
nan

>  <Num_Not_Resolved_Atoms>  (720) 
nan

$$$$
CHEMBL1399952
     RDKit          3D

  0  0  0  0  0  0  0  0  0  0999 V3000
M  V30 BEGIN CTAB
M  V30 COUNTS 33 34 0 0 0
M  V30 BEGIN ATOM
M  V30 1 C -2.687859 -1.689026 3.786404 0
M  V30 2 C -2.683841 -3.126146 3.349723 0
M  V30 3 O -2.694717 -3.307089 1.967435 0
M  V30 4 C -1.743622 -2.862849 1.076290 0
M  V30 5 C -0.642654 -2.163494 1.526023 0
M  V30 6 C 0.320840 -1.709984 0.649177 0
M  V30 7 C 0.216363 -1.939891 -0.706652 0
M  V30 8 O 0.982294 -1.627744 -1.804967 0
M  V30 9 C 2.184376 -0.910788 -1.785464 0
M  V30 10 C 2.076733 0.462568 -1.271994 0
M  V30 11 C 1.762575 1.427478 -2.242277 0
M  V30 12 C 1.686066 2.676394 -1.660483 0
M  V30 13 C 1.964051 2.406915 -0.330457 0
M  V30 14 C 2.042344 3.312290 0.835866 0
M  V30 15 O 2.301044 3.007162 2.029803 0
M  V30 16 O 1.792974 4.665449 0.539447 0
M  V30 17 O 2.177243 1.145800 -0.161225 0
M  V30 18 C -0.906817 -2.653146 -1.161943 0
M  V30 19 C -1.889381 -3.116445 -0.273008 0
M  V30 20 H -1.835254 -1.447997 4.450065 0
M  V30 21 H -2.655520 -1.036813 2.876620 0
M  V30 22 H -3.655727 -1.476691 4.323225 0
M  V30 23 H -1.731369 -3.600493 3.731461 0
M  V30 24 H -3.539688 -3.665720 3.814931 0
M  V30 25 H -0.455811 -1.927575 2.551119 0
M  V30 26 H 1.225130 -1.162154 0.862624 0
M  V30 27 H 2.738166 -0.965918 -2.737663 0
M  V30 28 H 2.821159 -1.451269 -1.013906 0
M  V30 29 H 1.573731 1.391996 -3.322086 0
M  V30 30 H 1.477801 3.654334 -2.030778 0
M  V30 31 H 1.657155 5.309268 1.319038 0
M  V30 32 H -1.170531 -2.935078 -2.185921 0
M  V30 33 H -2.766272 -3.665418 -0.565318 0
M  V30 END ATOM
M  V30 BEGIN BOND
M  V30 1 1 1 2
M  V30 2 1 2 3
M  V30 3 1 3 4
M  V30 4 2 4 5
M  V30 5 1 5 6
M  V30 6 2 6 7
M  V30 7 1 7 8
M  V30 8 1 8 9
M  V30 9 1 9 10
M  V30 10 2 10 11
M  V30 11 1 11 12
M  V30 12 2 12 13
M  V30 13 1 13 14
M  V30 14 2 14 15
M  V30 15 1 14 16
M  V30 16 1 13 17
M  V30 17 1 7 18
M  V30 18 2 18 19
M  V30 19 1 19 4
M  V30 20 1 17 10
M  V30 21 1 1 20
M  V30 22 1 1 21
M  V30 23 1 1 22
M  V30 24 1 2 23
M  V30 25 1 2 24
M  V30 26 1 5 25
M  V30 27 1 6 26
M  V30 28 1 9 27
M  V30 29 1 9 28
M  V30 30 1 11 29
M  V30 31 1 12 30
M  V30 32 1 16 31
M  V30 33 1 18 32
M  V30 34 1 19 33
M  V30 END BOND
M  V30 END CTAB
M  END
>  <Dataset>  (721) 
ChEMBL_Kinases

>  <Ligand_Instance>  (721) 
nan

>  <PDB_ID>  (721) 
nan

>  <Standardized_SMILES>  (721) 
CCOc1ccc(OCc2ccc(C(=O)O)o2)cc1

>  <Name>  (721) 
nan

>  <Pocket>  (721) 
nan

>  <ATP_Site>  (721) 
nan

>  <Peripheral>  (721) 
nan

>  <Num_H_Atoms_ProtBoundConf>  (721) 
nan

>  <Num_Resolved_Atoms>  (721) 
nan

>  <Num_Not_Resolved_Atoms>  (721) 
nan

$$$$
CHEMBL1399950
     RDKit          3D

  0  0  0  0  0  0  0  0  0  0999 V3000
M  V30 BEGIN CTAB
M  V30 COUNTS 44 46 0 0 0
M  V30 BEGIN ATOM
M  V30 1 C -0.578977 -4.612159 0.668000 0
M  V30 2 C 0.298284 -3.470359 0.340304 0
M  V30 3 O 1.040847 -3.895659 -0.573003 0
M  V30 4 C 0.434010 -2.135324 0.821345 0
M  V30 5 C 1.451642 -1.357392 0.337612 0
M  V30 6 N 2.463795 -1.686361 -0.597592 0
M  V30 7 C 3.514574 -0.808564 -1.074349 0
M  V30 8 C 3.001803 0.362867 -1.837676 0
M  V30 9 C 2.737577 0.106535 -3.178366 0
M  V30 10 C 2.273368 1.045182 -4.069878 0
M  V30 11 C 2.045772 2.321278 -3.647099 0
M  V30 12 C 2.299715 2.598995 -2.326954 0
M  V30 13 C 2.761464 1.657875 -1.449282 0
M  V30 14 N 1.564032 -0.114063 0.782225 0
M  V30 15 C 0.759494 0.462146 1.677533 0
M  V30 16 O 0.886177 1.647175 2.086027 0
M  V30 17 N -0.253640 -0.250448 2.185602 0
M  V30 18 C -1.131471 0.320364 3.137648 0
M  V30 19 C -1.019181 0.100207 4.507116 0
M  V30 20 C -1.948207 0.723787 5.317262 0
M  V30 21 C -2.946826 1.528385 4.826909 0
M  V30 22 C -3.030120 1.727408 3.449097 0
M  V30 23 C -2.111667 1.115949 2.597262 0
M  V30 24 C -0.395655 -1.536273 1.745995 0
M  V30 25 C -1.544985 -2.266394 2.335050 0
M  V30 26 H -0.758803 -4.724909 1.771522 0
M  V30 27 H -0.121966 -5.615839 0.411113 0
M  V30 28 H -1.499707 -4.548783 0.075075 0
M  V30 29 H 2.644938 -2.581057 -1.102319 0
M  V30 30 H 4.257322 -1.299735 -1.725447 0
M  V30 31 H 4.118726 -0.425725 -0.191796 0
M  V30 32 H 2.884558 -0.878404 -3.620910 0
M  V30 33 H 2.075087 0.821883 -5.108556 0
M  V30 34 H 1.681668 3.094221 -4.306652 0
M  V30 35 H 2.140701 3.597028 -1.919503 0
M  V30 36 H 2.973216 1.872380 -0.422692 0
M  V30 37 H -0.234279 -0.529232 4.862467 0
M  V30 38 H -1.893327 0.575328 6.400669 0
M  V30 39 H -3.651561 1.992442 5.532411 0
M  V30 40 H -3.836966 2.373615 3.092220 0
M  V30 41 H -2.233671 1.312163 1.545026 0
M  V30 42 H -2.138644 -2.839712 1.590052 0
M  V30 43 H -2.278519 -1.524462 2.769158 0
M  V30 44 H -1.302714 -2.927179 3.164963 0
M  V30 END ATOM
M  V30 BEGIN BOND
M  V30 1 1 1 2
M  V30 2 2 2 3
M  V30 3 1 2 4
M  V30 4 1 4 5
M  V30 5 1 5 6
M  V30 6 1 6 7
M  V30 7 1 7 8
M  V30 8 2 8 9
M  V30 9 1 9 10
M  V30 10 2 10 11
M  V30 11 1 11 12
M  V30 12 2 12 13
M  V30 13 2 5 14
M  V30 14 1 14 15
M  V30 15 2 15 16
M  V30 16 1 15 17
M  V30 17 1 17 18
M  V30 18 2 18 19
M  V30 19 1 19 20
M  V30 20 2 20 21
M  V30 21 1 21 22
M  V30 22 2 22 23
M  V30 23 1 17 24
M  V30 24 1 24 25
M  V30 25 2 24 4
M  V30 26 1 13 8
M  V30 27 1 23 18
M  V30 28 1 1 26
M  V30 29 1 1 27
M  V30 30 1 1 28
M  V30 31 1 6 29
M  V30 32 1 7 30
M  V30 33 1 7 31
M  V30 34 1 9 32
M  V30 35 1 10 33
M  V30 36 1 11 34
M  V30 37 1 12 35
M  V30 38 1 13 36
M  V30 39 1 19 37
M  V30 40 1 20 38
M  V30 41 1 21 39
M  V30 42 1 22 40
M  V30 43 1 23 41
M  V30 44 1 25 42
M  V30 45 1 25 43
M  V30 46 1 25 44
M  V30 END BOND
M  V30 END CTAB
M  END
>  <Dataset>  (722) 
ChEMBL_Kinases

>  <Ligand_Instance>  (722) 
nan

>  <PDB_ID>  (722) 
nan

>  <Standardized_SMILES>  (722) 
CC(=O)c1c(NCc2ccccc2)nc(=O)n(-c2ccccc2)c1C

>  <Name>  (722) 
nan

>  <Pocket>  (722) 
nan

>  <ATP_Site>  (722) 
nan

>  <Peripheral>  (722) 
nan

>  <Num_H_Atoms_ProtBoundConf>  (722) 
nan

>  <Num_Resolved_Atoms>  (722) 
nan

>  <Num_Not_Resolved_Atoms>  (722) 
nan

$$$$
CHEMBL1399688
     RDKit          3D

  0  0  0  0  0  0  0  0  0  0999 V3000
M  V30 BEGIN CTAB
M  V30 COUNTS 22 23 0 0 0
M  V30 BEGIN ATOM
M  V30 1 Br -1.480670 1.621078 5.722403 0
M  V30 2 C -0.830352 1.098660 4.000141 0
M  V30 3 C 0.374808 0.442041 3.878013 0
M  V30 4 C 0.914430 0.029161 2.653284 0
M  V30 5 C 0.147666 0.324242 1.533614 0
M  V30 6 C 0.751032 -0.120561 0.279793 0
M  V30 7 C 2.104715 -0.175786 0.024102 0
M  V30 8 C 2.514417 -0.636583 -1.219181 0
M  V30 9 C 1.624980 -1.044322 -2.217003 0
M  V30 10 C 0.260793 -0.968953 -1.908710 0
M  V30 11 C -0.197496 -0.512577 -0.672442 0
M  V30 12 C -1.064875 0.977450 1.585341 0
M  V30 13 C -1.539613 1.357778 2.824073 0
M  V30 14 H 0.907782 0.251863 4.812872 0
M  V30 15 H 1.866639 -0.484519 2.607070 0
M  V30 16 H 2.768670 0.143081 0.807540 0
M  V30 17 H 3.571377 -0.683887 -1.428183 0
M  V30 18 H 1.996828 -1.392582 -3.156304 0
M  V30 19 H -0.449845 -1.284141 -2.676603 0
M  V30 20 H -1.265076 -0.498534 -0.549125 0
M  V30 21 H -1.617958 1.180327 0.672857 0
M  V30 22 H -2.471727 1.869182 2.942705 0
M  V30 END ATOM
M  V30 BEGIN BOND
M  V30 1 1 1 2
M  V30 2 2 2 3
M  V30 3 1 3 4
M  V30 4 2 4 5
M  V30 5 1 5 6
M  V30 6 2 6 7
M  V30 7 1 7 8
M  V30 8 2 8 9
M  V30 9 1 9 10
M  V30 10 2 10 11
M  V30 11 1 5 12
M  V30 12 2 12 13
M  V30 13 1 13 2
M  V30 14 1 11 6
M  V30 15 1 3 14
M  V30 16 1 4 15
M  V30 17 1 7 16
M  V30 18 1 8 17
M  V30 19 1 9 18
M  V30 20 1 10 19
M  V30 21 1 11 20
M  V30 22 1 12 21
M  V30 23 1 13 22
M  V30 END BOND
M  V30 END CTAB
M  END
>  <Dataset>  (723) 
ChEMBL_Kinases

>  <Ligand_Instance>  (723) 
nan

>  <PDB_ID>  (723) 
nan

>  <Standardized_SMILES>  (723) 
Brc1ccc(-c2ccccc2)cc1

>  <Name>  (723) 
nan

>  <Pocket>  (723) 
nan

>  <ATP_Site>  (723) 
nan

>  <Peripheral>  (723) 
nan

>  <Num_H_Atoms_ProtBoundConf>  (723) 
nan

>  <Num_Resolved_Atoms>  (723) 
nan

>  <Num_Not_Resolved_Atoms>  (723) 
nan

$$$$
CHEMBL1399556
     RDKit          3D

  0  0  0  0  0  0  0  0  0  0999 V3000
M  V30 BEGIN CTAB
M  V30 COUNTS 33 34 0 0 0
M  V30 BEGIN ATOM
M  V30 1 C -0.803839 -2.347473 3.907120 0
M  V30 2 C -1.083907 -3.432102 3.189601 0
M  V30 3 C -0.996812 -3.631114 1.697978 0
M  V30 4 N -0.544914 -2.414123 1.076662 0
M  V30 5 C 0.821821 -2.044449 1.366394 0
M  V30 6 C 1.401972 -0.958966 0.881210 0
M  V30 7 C 0.711289 -0.041657 0.011176 0
M  V30 8 C 1.238234 1.066685 -0.506009 0
M  V30 9 C 2.601802 1.394093 -0.183907 0
M  V30 10 C 3.160521 2.504931 -0.688133 0
M  V30 11 C 2.245309 3.254142 -1.534919 0
M  V30 12 N 1.497889 3.869230 -2.203096 0
M  V30 13 C 4.497425 2.958297 -0.457593 0
M  V30 14 N 5.581904 3.305209 -0.268586 0
M  V30 15 C -0.664220 -0.405480 -0.286193 0
M  V30 16 C -1.448028 0.364076 -1.098453 0
M  V30 17 C -2.762459 0.036586 -1.397499 0
M  V30 18 C -3.330824 -1.103493 -0.870394 0
M  V30 19 C -2.541358 -1.893160 -0.042789 0
M  V30 20 C -1.258726 -1.528636 0.218810 0
M  V30 21 H -0.544346 -1.403259 4.377629 0
M  V30 22 H -0.500048 -1.340193 4.132992 0
M  V30 23 H -1.271640 -3.689624 4.220661 0
M  V30 24 H -0.158689 -4.376019 1.540806 0
M  V30 25 H -1.875439 -4.101119 1.284717 0
M  V30 26 H 1.435197 -2.681656 2.022874 0
M  V30 27 H 2.424607 -0.762435 1.150343 0
M  V30 28 H 0.707417 1.735681 -1.151866 0
M  V30 29 H 3.288050 0.869992 0.426787 0
M  V30 30 H -1.117041 1.269880 -1.563424 0
M  V30 31 H -3.392165 0.650171 -2.045517 0
M  V30 32 H -4.367048 -1.344682 -1.116761 0
M  V30 33 H -3.010955 -2.761406 0.344487 0
M  V30 END ATOM
M  V30 BEGIN BOND
M  V30 1 2 1 2
M  V30 2 1 2 3
M  V30 3 1 3 4
M  V30 4 1 4 5
M  V30 5 2 5 6
M  V30 6 1 6 7
M  V30 7 2 7 8
M  V30 8 1 8 9
M  V30 9 2 9 10
M  V30 10 1 10 11
M  V30 11 3 11 12
M  V30 12 1 10 13
M  V30 13 3 13 14
M  V30 14 1 7 15
M  V30 15 2 15 16
M  V30 16 1 16 17
M  V30 17 2 17 18
M  V30 18 1 18 19
M  V30 19 2 19 20
M  V30 20 1 20 4
M  V30 21 1 20 15
M  V30 22 1 1 21
M  V30 23 1 1 22
M  V30 24 1 2 23
M  V30 25 1 3 24
M  V30 26 1 3 25
M  V30 27 1 5 26
M  V30 28 1 6 27
M  V30 29 1 8 28
M  V30 30 1 9 29
M  V30 31 1 16 30
M  V30 32 1 17 31
M  V30 33 1 18 32
M  V30 34 1 19 33
M  V30 END BOND
M  V30 END CTAB
M  END
>  <Dataset>  (724) 
ChEMBL_Kinases

>  <Ligand_Instance>  (724) 
nan

>  <PDB_ID>  (724) 
nan

>  <Standardized_SMILES>  (724) 
C=CCN1C=C/C(=C\C=C(C#N)C#N)c2ccccc21

>  <Name>  (724) 
nan

>  <Pocket>  (724) 
nan

>  <ATP_Site>  (724) 
nan

>  <Peripheral>  (724) 
nan

>  <Num_H_Atoms_ProtBoundConf>  (724) 
nan

>  <Num_Resolved_Atoms>  (724) 
nan

>  <Num_Not_Resolved_Atoms>  (724) 
nan

$$$$
CHEMBL1399549
     RDKit          3D

  0  0  0  0  0  0  0  0  0  0999 V3000
M  V30 BEGIN CTAB
M  V30 COUNTS 55 56 0 0 0
M  V30 BEGIN ATOM
M  V30 1 C -1.823065 -4.867298 2.598269 0
M  V30 2 C -0.570909 -4.174847 2.126173 0
M  V30 3 C 0.099784 -3.556371 3.346584 0
M  V30 4 C -0.833628 -3.138422 1.121071 0
M  V30 5 C -1.095976 -1.811113 1.386263 0
M  V30 6 C -1.339457 -0.857620 0.421488 0
M  V30 7 C -1.621688 0.551405 0.717858 0
M  V30 8 N -0.432544 1.362082 0.804469 0
M  V30 9 C 0.374857 1.387098 -0.376254 0
M  V30 10 C 1.767408 1.879784 0.045106 0
M  V30 11 N 1.600834 3.100048 0.760778 0
M  V30 12 C 1.847740 3.036411 2.161351 0
M  V30 13 C 3.287124 2.796769 2.541416 0
M  V30 14 C 3.440960 2.746836 4.014284 0
M  V30 15 N 3.573122 2.697014 5.182780 0
M  V30 16 C 0.281061 3.691589 0.560197 0
M  V30 17 C -0.750876 2.738045 1.157328 0
M  V30 18 C -1.303986 -1.331362 -0.888893 0
M  V30 19 C -1.044165 -2.664268 -1.228406 0
M  V30 20 C -1.038511 -3.020405 -2.679051 0
M  V30 21 C 0.325080 -2.827342 -3.275045 0
M  V30 22 C -2.027083 -2.097965 -3.374589 0
M  V30 23 C -0.809230 -3.562992 -0.208235 0
M  V30 24 O -0.558594 -4.863177 -0.598330 0
M  V30 25 H -1.885426 -4.888814 3.707034 0
M  V30 26 H -2.764257 -4.362091 2.253833 0
M  V30 27 H -1.837234 -5.947506 2.299623 0
M  V30 28 H 0.129248 -4.957981 1.725643 0
M  V30 29 H 0.463460 -4.335600 4.047159 0
M  V30 30 H 0.877415 -2.819956 3.090304 0
M  V30 31 H -0.724987 -3.009942 3.887913 0
M  V30 32 H -1.104628 -1.529688 2.432847 0
M  V30 33 H -2.080968 0.576685 1.734230 0
M  V30 34 H -2.366440 0.948036 0.013541 0
M  V30 35 H -0.005108 2.006201 -1.193992 0
M  V30 36 H 0.497724 0.352855 -0.815623 0
M  V30 37 H 2.442617 1.931993 -0.823425 0
M  V30 38 H 2.152763 1.042173 0.693437 0
M  V30 39 H 1.224205 2.286154 2.700499 0
M  V30 40 H 1.548275 4.032787 2.580021 0
M  V30 41 H 3.872678 3.681106 2.216985 0
M  V30 42 H 3.724094 1.918773 2.068594 0
M  V30 43 H 0.195148 4.638028 1.124454 0
M  V30 44 H 0.083780 3.939339 -0.492243 0
M  V30 45 H -0.681748 2.855582 2.257510 0
M  V30 46 H -1.763472 3.025632 0.795635 0
M  V30 47 H -1.492312 -0.626034 -1.705196 0
M  V30 48 H -1.419133 -4.055178 -2.805083 0
M  V30 49 H 0.312423 -1.994604 -4.018086 0
M  V30 50 H 0.766051 -3.730583 -3.711033 0
M  V30 51 H 1.030305 -2.463733 -2.478758 0
M  V30 52 H -2.492461 -2.579150 -4.254909 0
M  V30 53 H -1.506177 -1.172691 -3.678405 0
M  V30 54 H -2.830983 -1.823637 -2.665277 0
M  V30 55 H 0.231973 -5.092994 -1.196599 0
M  V30 END ATOM
M  V30 BEGIN BOND
M  V30 1 1 1 2
M  V30 2 1 2 3
M  V30 3 1 2 4
M  V30 4 2 4 5
M  V30 5 1 5 6
M  V30 6 1 6 7
M  V30 7 1 7 8
M  V30 8 1 8 9
M  V30 9 1 9 10
M  V30 10 1 10 11
M  V30 11 1 11 12
M  V30 12 1 12 13
M  V30 13 1 13 14
M  V30 14 3 14 15
M  V30 15 1 11 16
M  V30 16 1 16 17
M  V30 17 2 6 18
M  V30 18 1 18 19
M  V30 19 1 19 20
M  V30 20 1 20 21
M  V30 21 1 20 22
M  V30 22 2 19 23
M  V30 23 1 23 24
M  V30 24 1 23 4
M  V30 25 1 17 8
M  V30 26 1 1 25
M  V30 27 1 1 26
M  V30 28 1 1 27
M  V30 29 1 2 28
M  V30 30 1 3 29
M  V30 31 1 3 30
M  V30 32 1 3 31
M  V30 33 1 5 32
M  V30 34 1 7 33
M  V30 35 1 7 34
M  V30 36 1 9 35
M  V30 37 1 9 36
M  V30 38 1 10 37
M  V30 39 1 10 38
M  V30 40 1 12 39
M  V30 41 1 12 40
M  V30 42 1 13 41
M  V30 43 1 13 42
M  V30 44 1 16 43
M  V30 45 1 16 44
M  V30 46 1 17 45
M  V30 47 1 17 46
M  V30 48 1 18 47
M  V30 49 1 20 48
M  V30 50 1 21 49
M  V30 51 1 21 50
M  V30 52 1 21 51
M  V30 53 1 22 52
M  V30 54 1 22 53
M  V30 55 1 22 54
M  V30 56 1 24 55
M  V30 END BOND
M  V30 END CTAB
M  END
>  <Dataset>  (725) 
ChEMBL_Kinases

>  <Ligand_Instance>  (725) 
nan

>  <PDB_ID>  (725) 
nan

>  <Standardized_SMILES>  (725) 
CC(C)c1cc(CN2CCN(CCC#N)CC2)cc(C(C)C)c1O

>  <Name>  (725) 
nan

>  <Pocket>  (725) 
nan

>  <ATP_Site>  (725) 
nan

>  <Peripheral>  (725) 
nan

>  <Num_H_Atoms_ProtBoundConf>  (725) 
nan

>  <Num_Resolved_Atoms>  (725) 
nan

>  <Num_Not_Resolved_Atoms>  (725) 
nan

$$$$
CHEMBL1399528
     RDKit          3D

  0  0  0  0  0  0  0  0  0  0999 V3000
M  V30 BEGIN CTAB
M  V30 COUNTS 45 48 0 0 0
M  V30 BEGIN ATOM
M  V30 1 C 0.678525 -6.192184 1.316005 0
M  V30 2 O 0.470513 -4.789718 1.238189 0
M  V30 3 C 0.725902 -4.122724 0.049050 0
M  V30 4 C 1.178852 -4.688700 -1.118262 0
M  V30 5 C 1.407298 -3.948815 -2.259147 0
M  V30 6 C 1.167372 -2.592080 -2.210015 0
M  V30 7 C 0.705512 -1.939309 -1.061252 0
M  V30 8 C 0.474641 -0.501095 -1.091468 0
M  V30 9 C 0.060186 -0.040438 -2.347292 0
M  V30 10 C -0.178962 1.333931 -2.453290 0
M  V30 11 C -0.016632 2.187129 -1.383967 0
M  V30 12 N -0.226550 3.508758 -1.460590 0
M  V30 13 C -0.047068 4.308684 -0.403121 0
M  V30 14 N 0.350443 3.778726 0.758586 0
M  V30 15 C 0.596426 2.466262 0.974065 0
M  V30 16 N 0.955803 2.067014 2.287417 0
M  V30 17 C 1.550529 3.172362 3.087220 0
M  V30 18 C 0.891649 0.894572 3.113235 0
M  V30 19 C -0.530493 0.398031 3.226223 0
M  V30 20 C -1.477573 0.772741 4.164628 0
M  V30 21 C -2.665855 0.118182 3.966946 0
M  V30 22 C -2.390250 -0.675805 2.856538 0
M  V30 23 O -1.175012 -0.466111 2.496451 0
M  V30 24 C 0.389312 1.719695 -0.160168 0
M  V30 25 C 0.622331 0.388071 -0.055200 0
M  V30 26 C 0.508126 -2.763307 0.024392 0
M  V30 27 H 1.761212 -6.327538 1.469106 0
M  V30 28 H 0.339992 -6.724684 0.395724 0
M  V30 29 H 0.098896 -6.573080 2.182079 0
M  V30 30 H 1.352341 -5.760279 -1.106474 0
M  V30 31 H 1.764011 -4.441543 -3.153874 0
M  V30 32 H 1.360031 -2.036443 -3.136794 0
M  V30 33 H -0.103652 -0.603326 -3.258118 0
M  V30 34 H -0.505230 1.811644 -3.378345 0
M  V30 35 H -0.213623 5.391873 -0.447564 0
M  V30 36 H 1.572070 4.114324 2.544639 0
M  V30 37 H 2.557896 2.811255 3.377131 0
M  V30 38 H 0.967345 3.293172 4.021185 0
M  V30 39 H 1.097208 1.226785 4.190253 0
M  V30 40 H 1.622656 0.112419 2.933252 0
M  V30 41 H -1.313504 1.490024 4.959056 0
M  V30 42 H -3.597634 0.148601 4.477142 0
M  V30 43 H -3.053267 -1.366996 2.348160 0
M  V30 44 H 0.944886 -0.064698 0.832007 0
M  V30 45 H 0.152172 -2.268385 0.916407 0
M  V30 END ATOM
M  V30 BEGIN BOND
M  V30 1 1 1 2
M  V30 2 1 2 3
M  V30 3 2 3 4
M  V30 4 1 4 5
M  V30 5 2 5 6
M  V30 6 1 6 7
M  V30 7 1 7 8
M  V30 8 2 8 9
M  V30 9 1 9 10
M  V30 10 2 10 11
M  V30 11 1 11 12
M  V30 12 2 12 13
M  V30 13 1 13 14
M  V30 14 2 14 15
M  V30 15 1 15 16
M  V30 16 1 16 17
M  V30 17 1 16 18
M  V30 18 1 18 19
M  V30 19 2 19 20
M  V30 20 1 20 21
M  V30 21 2 21 22
M  V30 22 1 22 23
M  V30 23 1 15 24
M  V30 24 2 24 25
M  V30 25 2 7 26
M  V30 26 1 26 3
M  V30 27 1 25 8
M  V30 28 1 24 11
M  V30 29 1 23 19
M  V30 30 1 1 27
M  V30 31 1 1 28
M  V30 32 1 1 29
M  V30 33 1 4 30
M  V30 34 1 5 31
M  V30 35 1 6 32
M  V30 36 1 9 33
M  V30 37 1 10 34
M  V30 38 1 13 35
M  V30 39 1 17 36
M  V30 40 1 17 37
M  V30 41 1 17 38
M  V30 42 1 18 39
M  V30 43 1 18 40
M  V30 44 1 20 41
M  V30 45 1 21 42
M  V30 46 1 22 43
M  V30 47 1 25 44
M  V30 48 1 26 45
M  V30 END BOND
M  V30 END CTAB
M  END
>  <Dataset>  (726) 
ChEMBL_Kinases

>  <Ligand_Instance>  (726) 
nan

>  <PDB_ID>  (726) 
nan

>  <Standardized_SMILES>  (726) 
COc1cccc(-c2ccc3ncnc(N(C)Cc4ccco4)c3c2)c1

>  <Name>  (726) 
nan

>  <Pocket>  (726) 
nan

>  <ATP_Site>  (726) 
nan

>  <Peripheral>  (726) 
nan

>  <Num_H_Atoms_ProtBoundConf>  (726) 
nan

>  <Num_Resolved_Atoms>  (726) 
nan

>  <Num_Not_Resolved_Atoms>  (726) 
nan

$$$$
CHEMBL1399488
     RDKit          3D

  0  0  0  0  0  0  0  0  0  0999 V3000
M  V30 BEGIN CTAB
M  V30 COUNTS 26 26 0 0 0
M  V30 BEGIN ATOM
M  V30 1 C -0.901079 -3.368434 0.848140 0
M  V30 2 O -0.769381 -1.984240 0.579895 0
M  V30 3 C 0.280372 -1.276767 1.150605 0
M  V30 4 C 1.280068 -1.721853 1.987613 0
M  V30 5 C 2.234699 -0.836430 2.443105 0
M  V30 6 C 3.262515 -1.373376 3.324480 0
M  V30 7 O 3.233935 -2.605700 3.627208 0
M  V30 8 C 2.240149 0.492820 2.098309 0
M  V30 9 C 1.233917 0.925695 1.259794 0
M  V30 10 Br 1.275998 2.797020 0.799175 0
M  V30 11 C 0.261718 0.071767 0.783384 0
M  V30 12 O -0.668506 0.656402 -0.040183 0
M  V30 13 C -0.610980 0.787045 -1.423560 0
M  V30 14 C -1.871995 1.496999 -1.829842 0
M  V30 15 N -2.937454 1.959985 -0.996197 0
M  V30 16 O -1.972157 1.694739 -3.077549 0
M  V30 17 H -1.442232 -3.519905 1.826863 0
M  V30 18 H 0.064812 -3.894427 0.950883 0
M  V30 19 H -1.550230 -3.874259 0.104461 0
M  V30 20 H 1.211166 -2.776194 2.214574 0
M  V30 21 H 4.031834 -0.727193 3.709208 0
M  V30 22 H 3.005905 1.160741 2.474780 0
M  V30 23 H 0.268205 1.396397 -1.697154 0
M  V30 24 H -0.514212 -0.179971 -1.961402 0
M  V30 25 H -3.646188 1.198837 -1.058804 0
M  V30 26 H -3.224918 2.763375 -0.379640 0
M  V30 END ATOM
M  V30 BEGIN BOND
M  V30 1 1 1 2
M  V30 2 1 2 3
M  V30 3 2 3 4
M  V30 4 1 4 5
M  V30 5 1 5 6
M  V30 6 2 6 7
M  V30 7 2 5 8
M  V30 8 1 8 9
M  V30 9 1 9 10
M  V30 10 2 9 11
M  V30 11 1 11 12
M  V30 12 1 12 13
M  V30 13 1 13 14
M  V30 14 1 14 15
M  V30 15 2 14 16
M  V30 16 1 11 3
M  V30 17 1 1 17
M  V30 18 1 1 18
M  V30 19 1 1 19
M  V30 20 1 4 20
M  V30 21 1 6 21
M  V30 22 1 8 22
M  V30 23 1 13 23
M  V30 24 1 13 24
M  V30 25 1 15 25
M  V30 26 1 15 26
M  V30 END BOND
M  V30 END CTAB
M  END
>  <Dataset>  (727) 
ChEMBL_Kinases

>  <Ligand_Instance>  (727) 
nan

>  <PDB_ID>  (727) 
nan

>  <Standardized_SMILES>  (727) 
COc1cc(C=O)cc(Br)c1OCC(N)=O

>  <Name>  (727) 
nan

>  <Pocket>  (727) 
nan

>  <ATP_Site>  (727) 
nan

>  <Peripheral>  (727) 
nan

>  <Num_H_Atoms_ProtBoundConf>  (727) 
nan

>  <Num_Resolved_Atoms>  (727) 
nan

>  <Num_Not_Resolved_Atoms>  (727) 
nan

$$$$
CHEMBL1399370
     RDKit          3D

  0  0  0  0  0  0  0  0  0  0999 V3000
M  V30 BEGIN CTAB
M  V30 COUNTS 58 60 0 0 0
M  V30 BEGIN ATOM
M  V30 1 C 2.934187 1.671860 3.988572 0
M  V30 2 C 2.774124 0.284170 3.433204 0
M  V30 3 C 2.637599 -0.672022 4.621166 0
M  V30 4 C 4.028090 -0.082575 2.660602 0
M  V30 5 O 1.617813 0.166081 2.596902 0
M  V30 6 C 1.432627 0.904296 1.465428 0
M  V30 7 O 2.504094 1.545621 1.539513 0
M  V30 8 C 0.179957 0.667115 0.703555 0 CFG=2
M  V30 9 C -0.614014 1.980574 0.679003 0
M  V30 10 C 0.133542 3.066741 0.039850 0
M  V30 11 C 0.051500 3.281767 -1.336649 0
M  V30 12 C 0.728130 4.287102 -1.979433 0
M  V30 13 C 1.539369 5.148387 -1.264497 0
M  V30 14 C 1.658532 4.985089 0.092480 0
M  V30 15 C 0.959086 3.962094 0.686956 0
M  V30 16 N -0.648406 -0.333876 1.291900 0
M  V30 17 C -1.131026 -1.563279 0.707283 0
M  V30 18 O -0.570377 -1.374698 -0.391820 0
M  V30 19 C -1.957438 -2.375425 1.560339 0
M  V30 20 N -2.276483 -2.136210 2.841781 0
M  V30 21 C -3.024962 -3.176616 3.193087 0
M  V30 22 N -3.163636 -4.015810 2.184607 0
M  V30 23 C -2.494520 -3.554883 1.088601 0
M  V30 24 C -2.577278 -4.318047 -0.129015 0
M  V30 25 O -2.959264 -5.542250 -0.062289 0
M  V30 26 N -2.329573 -4.040857 -1.480637 0
M  V30 27 C -2.411879 -4.806503 -2.656957 0
M  V30 28 C -2.780781 -6.118935 -2.811246 0
M  V30 29 C -2.841803 -6.812688 -3.984491 0
M  V30 30 C -2.505061 -6.143898 -5.117810 0
M  V30 31 C -2.125124 -4.840585 -5.075009 0
M  V30 32 Cl -1.700515 -4.019505 -6.555634 0
M  V30 33 C -2.084947 -4.200775 -3.861995 0
M  V30 34 H 1.949053 2.159823 4.136025 0
M  V30 35 H 3.650263 2.304668 3.419376 0
M  V30 36 H 3.394241 1.578896 5.003749 0
M  V30 37 H 2.951574 -1.697862 4.333680 0
M  V30 38 H 3.274531 -0.359848 5.458198 0
M  V30 39 H 1.556100 -0.710182 4.904515 0
M  V30 40 H 4.582414 0.823949 2.320158 0
M  V30 41 H 4.704374 -0.605486 3.372604 0
M  V30 42 H 3.800409 -0.690239 1.757897 0
M  V30 43 H 0.501316 0.485251 -0.339014 0
M  V30 44 H -0.837449 2.277557 1.730752 0
M  V30 45 H -1.566877 1.836845 0.128935 0
M  V30 46 H -0.555503 2.661779 -1.977818 0
M  V30 47 H 0.689950 4.482552 -3.033891 0
M  V30 48 H 2.092118 5.954998 -1.726278 0
M  V30 49 H 2.287938 5.649369 0.665747 0
M  V30 50 H 1.076350 3.868906 1.753036 0
M  V30 51 H -0.834292 0.040739 2.285457 0
M  V30 52 H -1.986484 -1.310182 3.406947 0
M  V30 53 H -3.428798 -3.250803 4.191871 0
M  V30 54 H -2.044254 -3.049662 -1.602711 0
M  V30 55 H -3.056397 -6.690666 -1.940410 0
M  V30 56 H -3.136436 -7.834451 -4.044054 0
M  V30 57 H -2.534113 -6.638426 -6.070649 0
M  V30 58 H -1.766980 -3.146834 -3.914206 0
M  V30 END ATOM
M  V30 BEGIN BOND
M  V30 1 1 1 2
M  V30 2 1 2 3
M  V30 3 1 2 4
M  V30 4 1 2 5
M  V30 5 1 5 6
M  V30 6 2 6 7
M  V30 7 1 6 8
M  V30 8 1 8 9
M  V30 9 1 9 10
M  V30 10 2 10 11
M  V30 11 1 11 12
M  V30 12 2 12 13
M  V30 13 1 13 14
M  V30 14 2 14 15
M  V30 15 1 8 16
M  V30 16 1 16 17
M  V30 17 2 17 18
M  V30 18 1 17 19
M  V30 19 1 19 20
M  V30 20 1 20 21
M  V30 21 2 21 22
M  V30 22 1 22 23
M  V30 23 1 23 24
M  V30 24 2 24 25
M  V30 25 1 24 26
M  V30 26 1 26 27
M  V30 27 2 27 28
M  V30 28 1 28 29
M  V30 29 2 29 30
M  V30 30 1 30 31
M  V30 31 1 31 32
M  V30 32 2 31 33
M  V30 33 1 15 10
M  V30 34 2 23 19
M  V30 35 1 33 27
M  V30 36 1 1 34
M  V30 37 1 1 35
M  V30 38 1 1 36
M  V30 39 1 3 37
M  V30 40 1 3 38
M  V30 41 1 3 39
M  V30 42 1 4 40
M  V30 43 1 4 41
M  V30 44 1 4 42
M  V30 45 1 8 43 CFG=3
M  V30 46 1 9 44
M  V30 47 1 9 45
M  V30 48 1 11 46
M  V30 49 1 12 47
M  V30 50 1 13 48
M  V30 51 1 14 49
M  V30 52 1 15 50
M  V30 53 1 16 51
M  V30 54 1 20 52
M  V30 55 1 21 53
M  V30 56 1 26 54
M  V30 57 1 28 55
M  V30 58 1 29 56
M  V30 59 1 30 57
M  V30 60 1 33 58
M  V30 END BOND
M  V30 END CTAB
M  END
>  <Dataset>  (728) 
ChEMBL_Kinases

>  <Ligand_Instance>  (728) 
nan

>  <PDB_ID>  (728) 
nan

>  <Standardized_SMILES>  (728) 
CC(C)(C)OC(=O)[C@H](Cc1ccccc1)NC(=O)c1[nH]cnc1C(=O)Nc1cccc(Cl)c1

>  <Name>  (728) 
nan

>  <Pocket>  (728) 
nan

>  <ATP_Site>  (728) 
nan

>  <Peripheral>  (728) 
nan

>  <Num_H_Atoms_ProtBoundConf>  (728) 
nan

>  <Num_Resolved_Atoms>  (728) 
nan

>  <Num_Not_Resolved_Atoms>  (728) 
nan

$$$$
CHEMBL1399328
     RDKit          3D

  0  0  0  0  0  0  0  0  0  0999 V3000
M  V30 BEGIN CTAB
M  V30 COUNTS 51 54 0 0 0
M  V30 BEGIN ATOM
M  V30 1 C 2.280731 -5.196076 4.508410 0
M  V30 2 C 1.629577 -4.336283 3.436370 0
M  V30 3 C 2.629510 -3.540359 2.741375 0
M  V30 4 O 3.375979 -4.160358 3.509220 0
M  V30 5 N 3.056444 -2.588438 1.796650 0
M  V30 6 C 4.506192 -2.375971 1.779471 0
M  V30 7 C 4.833802 -1.229034 0.875872 0
M  V30 8 C 3.815357 -0.153554 1.020277 0
M  V30 9 C 2.502193 -0.638775 0.520342 0
M  V30 10 C 1.645463 0.057098 -0.305333 0
M  V30 11 C 0.450771 -0.509887 -0.696863 0
M  V30 12 S -0.658362 0.346544 -1.743273 0
M  V30 13 O -1.279509 -0.458673 -2.787660 0
M  V30 14 O 0.186611 1.398032 -2.463572 0
M  V30 15 N -1.776801 1.291260 -0.790614 0
M  V30 16 C -1.208740 2.349221 0.060973 0
M  V30 17 C -2.250170 3.355979 0.456189 0
M  V30 18 C -3.420328 3.404510 -0.490662 0
M  V30 19 C -4.044986 2.073141 -0.699151 0
M  V30 20 C -5.393340 1.796062 -0.756533 0
M  V30 21 C -5.794255 0.479396 -0.959729 0
M  V30 22 C -4.889195 -0.544808 -1.103700 0
M  V30 23 C -3.529224 -0.301142 -1.051230 0
M  V30 24 C -3.177324 1.033471 -0.845900 0
M  V30 25 C 0.126795 -1.791614 -0.245507 0
M  V30 26 C 0.968881 -2.519912 0.587928 0
M  V30 27 C 2.147538 -1.902314 0.945360 0
M  V30 28 H 2.917166 -5.936053 3.991156 0
M  V30 29 H 2.775148 -4.573989 5.254940 0
M  V30 30 H 1.446501 -5.759971 5.021236 0
M  V30 31 H 0.843960 -3.733017 3.925789 0
M  V30 32 H 1.152340 -5.041627 2.715265 0
M  V30 33 H 4.924554 -3.330263 1.379185 0
M  V30 34 H 4.909323 -2.165711 2.784245 0
M  V30 35 H 4.813408 -1.595588 -0.169857 0
M  V30 36 H 5.837209 -0.847106 1.156749 0
M  V30 37 H 3.674838 0.022538 2.118660 0
M  V30 38 H 4.110579 0.806712 0.552557 0
M  V30 39 H 1.950891 1.041950 -0.620288 0
M  V30 40 H -0.361888 2.830497 -0.464856 0
M  V30 41 H -0.875262 1.835771 0.986704 0
M  V30 42 H -2.633566 3.168235 1.479888 0
M  V30 43 H -1.773467 4.359436 0.430357 0
M  V30 44 H -3.098049 3.837178 -1.455068 0
M  V30 45 H -4.148863 4.109328 -0.039611 0
M  V30 46 H -6.057533 2.646450 -0.636066 0
M  V30 47 H -6.862720 0.308469 -0.997792 0
M  V30 48 H -5.198600 -1.564355 -1.261026 0
M  V30 49 H -2.792144 -1.094099 -1.161527 0
M  V30 50 H -0.805956 -2.284686 -0.525948 0
M  V30 51 H 0.766223 -3.504323 0.961258 0
M  V30 END ATOM
M  V30 BEGIN BOND
M  V30 1 1 1 2
M  V30 2 1 2 3
M  V30 3 2 3 4
M  V30 4 1 3 5
M  V30 5 1 5 6
M  V30 6 1 6 7
M  V30 7 1 7 8
M  V30 8 1 8 9
M  V30 9 2 9 10
M  V30 10 1 10 11
M  V30 11 1 11 12
M  V30 12 2 12 13
M  V30 13 2 12 14
M  V30 14 1 12 15
M  V30 15 1 15 16
M  V30 16 1 16 17
M  V30 17 1 17 18
M  V30 18 1 18 19
M  V30 19 2 19 20
M  V30 20 1 20 21
M  V30 21 2 21 22
M  V30 22 1 22 23
M  V30 23 2 23 24
M  V30 24 2 11 25
M  V30 25 1 25 26
M  V30 26 2 26 27
M  V30 27 1 27 5
M  V30 28 1 27 9
M  V30 29 1 24 15
M  V30 30 1 24 19
M  V30 31 1 1 28
M  V30 32 1 1 29
M  V30 33 1 1 30
M  V30 34 1 2 31
M  V30 35 1 2 32
M  V30 36 1 6 33
M  V30 37 1 6 34
M  V30 38 1 7 35
M  V30 39 1 7 36
M  V30 40 1 8 37
M  V30 41 1 8 38
M  V30 42 1 10 39
M  V30 43 1 16 40
M  V30 44 1 16 41
M  V30 45 1 17 42
M  V30 46 1 17 43
M  V30 47 1 18 44
M  V30 48 1 18 45
M  V30 49 1 20 46
M  V30 50 1 21 47
M  V30 51 1 22 48
M  V30 52 1 23 49
M  V30 53 1 25 50
M  V30 54 1 26 51
M  V30 END BOND
M  V30 END CTAB
M  END
>  <Dataset>  (729) 
ChEMBL_Kinases

>  <Ligand_Instance>  (729) 
nan

>  <PDB_ID>  (729) 
nan

>  <Standardized_SMILES>  (729) 
CCC(=O)N1CCCc2cc(S(=O)(=O)N3CCCc4ccccc43)ccc21

>  <Name>  (729) 
nan

>  <Pocket>  (729) 
nan

>  <ATP_Site>  (729) 
nan

>  <Peripheral>  (729) 
nan

>  <Num_H_Atoms_ProtBoundConf>  (729) 
nan

>  <Num_Resolved_Atoms>  (729) 
nan

>  <Num_Not_Resolved_Atoms>  (729) 
nan

$$$$
CHEMBL1399261
     RDKit          3D

  0  0  0  0  0  0  0  0  0  0999 V3000
M  V30 BEGIN CTAB
M  V30 COUNTS 33 35 0 0 0
M  V30 BEGIN ATOM
M  V30 1 O 0.496228 0.726038 3.974416 0
M  V30 2 C 0.037099 0.879911 2.791741 0
M  V30 3 C 0.516774 2.141290 2.218239 0
M  V30 4 S -0.043810 2.481678 0.549860 0
M  V30 5 C 0.668780 1.298176 -0.644314 0
M  V30 6 N 0.419348 0.299210 -1.085925 0
M  V30 7 C 1.013140 -0.480342 -1.956052 0
M  V30 8 C 0.637580 -1.713071 -2.454097 0
M  V30 9 C 1.422546 -2.349639 -3.363936 0
M  V30 10 C 2.614289 -1.878152 -3.871791 0
M  V30 11 C 2.996853 -0.629236 -3.368288 0
M  V30 12 C 2.181015 0.019886 -2.430826 0
M  V30 13 S 2.323022 1.554375 -1.591743 0
M  V30 14 N -0.753807 -0.275040 2.562877 0
M  V30 15 C -0.793908 -1.205737 3.675587 0
M  V30 16 C -2.155992 -1.863000 3.781040 0
M  V30 17 O -3.112480 -1.117191 3.058738 0
M  V30 18 C -2.795523 -1.379559 1.708434 0
M  V30 19 C -1.519478 -0.658080 1.401855 0
M  V30 20 H 0.129624 2.987322 2.850906 0
M  V30 21 H 1.624356 2.172011 2.307611 0
M  V30 22 H -0.275368 -2.267447 -2.183174 0
M  V30 23 H 1.155728 -3.334694 -3.782978 0
M  V30 24 H 3.263584 -2.349587 -4.590813 0
M  V30 25 H 3.888124 -0.098064 -3.640472 0
M  V30 26 H -0.594044 -0.702436 4.645321 0
M  V30 27 H 0.014327 -1.945002 3.514330 0
M  V30 28 H -2.489475 -1.961230 4.834922 0
M  V30 29 H -2.087633 -2.841971 3.264312 0
M  V30 30 H -2.626159 -2.470679 1.557099 0
M  V30 31 H -3.582975 -0.998771 1.027019 0
M  V30 32 H -1.777150 0.291824 0.877368 0
M  V30 33 H -0.853637 -1.314863 0.797845 0
M  V30 END ATOM
M  V30 BEGIN BOND
M  V30 1 2 1 2
M  V30 2 1 2 3
M  V30 3 1 3 4
M  V30 4 1 4 5
M  V30 5 2 5 6
M  V30 6 1 6 7
M  V30 7 2 7 8
M  V30 8 1 8 9
M  V30 9 2 9 10
M  V30 10 1 10 11
M  V30 11 2 11 12
M  V30 12 1 12 13
M  V30 13 1 2 14
M  V30 14 1 14 15
M  V30 15 1 15 16
M  V30 16 1 16 17
M  V30 17 1 17 18
M  V30 18 1 18 19
M  V30 19 1 13 5
M  V30 20 1 19 14
M  V30 21 1 12 7
M  V30 22 1 3 20
M  V30 23 1 3 21
M  V30 24 1 8 22
M  V30 25 1 9 23
M  V30 26 1 10 24
M  V30 27 1 11 25
M  V30 28 1 15 26
M  V30 29 1 15 27
M  V30 30 1 16 28
M  V30 31 1 16 29
M  V30 32 1 18 30
M  V30 33 1 18 31
M  V30 34 1 19 32
M  V30 35 1 19 33
M  V30 END BOND
M  V30 END CTAB
M  END
>  <Dataset>  (730) 
ChEMBL_Kinases

>  <Ligand_Instance>  (730) 
nan

>  <PDB_ID>  (730) 
nan

>  <Standardized_SMILES>  (730) 
O=C(CSc1nc2ccccc2s1)N1CCOCC1

>  <Name>  (730) 
nan

>  <Pocket>  (730) 
nan

>  <ATP_Site>  (730) 
nan

>  <Peripheral>  (730) 
nan

>  <Num_H_Atoms_ProtBoundConf>  (730) 
nan

>  <Num_Resolved_Atoms>  (730) 
nan

>  <Num_Not_Resolved_Atoms>  (730) 
nan

$$$$
CHEMBL1399227
     RDKit          3D

  0  0  0  0  0  0  0  0  0  0999 V3000
M  V30 BEGIN CTAB
M  V30 COUNTS 53 55 0 0 0
M  V30 BEGIN ATOM
M  V30 1 C 2.423663 -4.824988 1.692042 0
M  V30 2 O 2.254525 -3.608099 1.022490 0
M  V30 3 C 3.104787 -2.517457 1.109216 0
M  V30 4 C 4.195281 -2.675845 1.927477 0
M  V30 5 C 5.100799 -1.648845 2.079471 0
M  V30 6 C 4.871504 -0.481857 1.391022 0
M  V30 7 C 3.758892 -0.385692 0.586290 0
M  V30 8 C 2.822183 -1.374697 0.395786 0
M  V30 9 N 1.693656 -1.197696 -0.443446 0
M  V30 10 C 1.453610 -0.045441 -1.285637 0
M  V30 11 C 0.212551 0.682299 -0.762003 0
M  V30 12 N -0.781470 -0.262722 -0.358516 0
M  V30 13 C -2.123226 0.168040 -0.296684 0
M  V30 14 C -2.303154 1.278639 0.696357 0
M  V30 15 N -1.528303 2.425714 0.350107 0
M  V30 16 S -1.723138 3.715196 1.491100 0
M  V30 17 C -1.153457 3.140268 3.081320 0
M  V30 18 O -0.793590 4.818739 1.065061 0
M  V30 19 O -3.124615 4.193003 1.602809 0
M  V30 20 C -2.984342 -0.998259 0.059418 0
M  V30 21 C -4.168994 -1.241569 -0.645920 0
M  V30 22 C -4.980144 -2.321769 -0.320760 0
M  V30 23 C -4.651317 -3.180881 0.694721 0
M  V30 24 N -3.505898 -2.932088 1.364717 0
M  V30 25 C -2.698132 -1.895449 1.075401 0
M  V30 26 C -0.588352 -1.485852 -1.099751 0
M  V30 27 C 0.632782 -2.182377 -0.536095 0
M  V30 28 H 3.454700 -5.222250 1.664069 0
M  V30 29 H 1.791724 -5.582307 1.155505 0
M  V30 30 H 2.057972 -4.768517 2.751331 0
M  V30 31 H 4.373624 -3.590540 2.466279 0
M  V30 32 H 5.943335 -1.791054 2.720711 0
M  V30 33 H 5.599451 0.294626 1.535444 0
M  V30 34 H 3.696035 0.579738 0.106499 0
M  V30 35 H 2.318584 0.654998 -1.335871 0
M  V30 36 H 1.308720 -0.367777 -2.338506 0
M  V30 37 H 0.511575 1.412115 0.024614 0
M  V30 38 H -0.202726 1.243932 -1.648939 0
M  V30 39 H -2.445409 0.516416 -1.302147 0
M  V30 40 H -3.401659 1.491224 0.731806 0
M  V30 41 H -2.041647 0.930712 1.731007 0
M  V30 42 H -1.710715 2.761973 -0.626749 0
M  V30 43 H -1.758274 2.313123 3.482050 0
M  V30 44 H -0.076444 2.840721 2.925252 0
M  V30 45 H -1.132132 4.031334 3.748756 0
M  V30 46 H -4.481048 -0.595092 -1.461106 0
M  V30 47 H -5.912349 -2.520123 -0.870043 0
M  V30 48 H -5.233550 -4.049434 1.010742 0
M  V30 49 H -1.808083 -1.752654 1.640226 0
M  V30 50 H -0.430387 -1.281797 -2.154468 0
M  V30 51 H -1.476739 -2.158897 -1.032139 0
M  V30 52 H 0.925054 -2.998132 -1.244643 0
M  V30 53 H 0.300348 -2.566638 0.451932 0
M  V30 END ATOM
M  V30 BEGIN BOND
M  V30 1 1 1 2
M  V30 2 1 2 3
M  V30 3 2 3 4
M  V30 4 1 4 5
M  V30 5 2 5 6
M  V30 6 1 6 7
M  V30 7 2 7 8
M  V30 8 1 8 9
M  V30 9 1 9 10
M  V30 10 1 10 11
M  V30 11 1 11 12
M  V30 12 1 12 13
M  V30 13 1 13 14
M  V30 14 1 14 15
M  V30 15 1 15 16
M  V30 16 1 16 17
M  V30 17 2 16 18
M  V30 18 2 16 19
M  V30 19 1 13 20
M  V30 20 2 20 21
M  V30 21 1 21 22
M  V30 22 2 22 23
M  V30 23 1 23 24
M  V30 24 2 24 25
M  V30 25 1 12 26
M  V30 26 1 26 27
M  V30 27 1 8 3
M  V30 28 1 27 9
M  V30 29 1 25 20
M  V30 30 1 1 28
M  V30 31 1 1 29
M  V30 32 1 1 30
M  V30 33 1 4 31
M  V30 34 1 5 32
M  V30 35 1 6 33
M  V30 36 1 7 34
M  V30 37 1 10 35
M  V30 38 1 10 36
M  V30 39 1 11 37
M  V30 40 1 11 38
M  V30 41 1 13 39
M  V30 42 1 14 40
M  V30 43 1 14 41
M  V30 44 1 15 42
M  V30 45 1 17 43
M  V30 46 1 17 44
M  V30 47 1 17 45
M  V30 48 1 21 46
M  V30 49 1 22 47
M  V30 50 1 23 48
M  V30 51 1 25 49
M  V30 52 1 26 50
M  V30 53 1 26 51
M  V30 54 1 27 52
M  V30 55 1 27 53
M  V30 END BOND
M  V30 END CTAB
M  END
>  <Dataset>  (731) 
ChEMBL_Kinases

>  <Ligand_Instance>  (731) 
nan

>  <PDB_ID>  (731) 
nan

>  <Standardized_SMILES>  (731) 
COc1ccccc1N1CCN(C(CNS(C)(=O)=O)c2cccnc2)CC1

>  <Name>  (731) 
nan

>  <Pocket>  (731) 
nan

>  <ATP_Site>  (731) 
nan

>  <Peripheral>  (731) 
nan

>  <Num_H_Atoms_ProtBoundConf>  (731) 
nan

>  <Num_Resolved_Atoms>  (731) 
nan

>  <Num_Not_Resolved_Atoms>  (731) 
nan

$$$$
CHEMBL1399107
     RDKit          3D

  0  0  0  0  0  0  0  0  0  0999 V3000
M  V30 BEGIN CTAB
M  V30 COUNTS 35 36 0 0 0
M  V30 BEGIN ATOM
M  V30 1 C 2.603416 -3.685412 3.871085 0
M  V30 2 O 2.258335 -2.648232 2.972940 0
M  V30 3 C 1.217787 -2.876466 2.083961 0
M  V30 4 C 0.449152 -4.011859 1.951467 0
M  V30 5 C -0.553777 -4.131241 1.039856 0
M  V30 6 C -0.849934 -3.089744 0.186788 0
M  V30 7 C -0.099744 -1.944356 0.296242 0
M  V30 8 C -0.360650 -0.864941 -0.542343 0
M  V30 9 O -1.388642 -1.016756 -1.460563 0
M  V30 10 C 0.391871 0.308005 -0.445199 0
M  V30 11 C 0.007392 1.359721 -1.389874 0
M  V30 12 C -1.255115 2.060120 -0.991198 0
M  V30 13 C -1.495645 3.339268 -0.710804 0
M  V30 14 C -2.943754 3.561969 -0.357084 0
M  V30 15 Cl -0.056181 4.328997 -0.846645 0
M  V30 16 C 1.402261 0.403019 0.486758 0
M  V30 17 C 2.170147 1.648565 0.559853 0
M  V30 18 N 1.633475 -0.655356 1.285011 0
M  V30 19 C 0.930275 -1.809635 1.225762 0
M  V30 20 H 1.823610 -3.654677 4.687068 0
M  V30 21 H 3.572521 -3.484971 4.375604 0
M  V30 22 H 2.574496 -4.695468 3.422762 0
M  V30 23 H 0.700986 -4.813978 2.631273 0
M  V30 24 H -1.117537 -5.043667 0.986181 0
M  V30 25 H -1.646555 -3.204081 -0.526957 0
M  V30 26 H -2.291227 -1.269186 -1.028171 0
M  V30 27 H 0.766291 2.167161 -1.411362 0
M  V30 28 H -0.092318 0.988821 -2.437443 0
M  V30 29 H -1.982698 1.250590 -0.978404 0
M  V30 30 H -3.202944 2.828639 0.449628 0
M  V30 31 H -3.046767 4.580407 0.015987 0
M  V30 32 H -3.592070 3.346431 -1.238182 0
M  V30 33 H 1.708981 2.454371 1.157133 0
M  V30 34 H 3.113302 1.395211 1.128163 0
M  V30 35 H 2.545419 2.007276 -0.420005 0
M  V30 END ATOM
M  V30 BEGIN BOND
M  V30 1 1 1 2
M  V30 2 1 2 3
M  V30 3 2 3 4
M  V30 4 1 4 5
M  V30 5 2 5 6
M  V30 6 1 6 7
M  V30 7 2 7 8
M  V30 8 1 8 9
M  V30 9 1 8 10
M  V30 10 1 10 11
M  V30 11 1 11 12
M  V30 12 2 12 13
M  V30 13 1 13 14
M  V30 14 1 13 15
M  V30 15 2 10 16
M  V30 16 1 16 17
M  V30 17 1 16 18
M  V30 18 2 18 19
M  V30 19 1 19 3
M  V30 20 1 19 7
M  V30 21 1 1 20
M  V30 22 1 1 21
M  V30 23 1 1 22
M  V30 24 1 4 23
M  V30 25 1 5 24
M  V30 26 1 6 25
M  V30 27 1 9 26
M  V30 28 1 11 27
M  V30 29 1 11 28
M  V30 30 1 12 29
M  V30 31 1 14 30
M  V30 32 1 14 31
M  V30 33 1 14 32
M  V30 34 1 17 33
M  V30 35 1 17 34
M  V30 36 1 17 35
M  V30 END BOND
M  V30 END CTAB
M  END
>  <Dataset>  (732) 
ChEMBL_Kinases

>  <Ligand_Instance>  (732) 
nan

>  <PDB_ID>  (732) 
nan

>  <Standardized_SMILES>  (732) 
COc1cccc2c(O)c(C/C=C(/C)Cl)c(C)nc12

>  <Name>  (732) 
nan

>  <Pocket>  (732) 
nan

>  <ATP_Site>  (732) 
nan

>  <Peripheral>  (732) 
nan

>  <Num_H_Atoms_ProtBoundConf>  (732) 
nan

>  <Num_Resolved_Atoms>  (732) 
nan

>  <Num_Not_Resolved_Atoms>  (732) 
nan

$$$$
CHEMBL1403374
     RDKit          3D

  0  0  0  0  0  0  0  0  0  0999 V3000
M  V30 BEGIN CTAB
M  V30 COUNTS 44 46 0 0 0
M  V30 BEGIN ATOM
M  V30 1 O 3.186340 -0.663253 2.535129 0
M  V30 2 C 2.921716 -0.323492 1.324704 0
M  V30 3 C 3.801708 -1.106370 0.457071 0
M  V30 4 O 3.702289 -0.909889 -0.901926 0
M  V30 5 C 2.677483 -1.088130 -1.770816 0
M  V30 6 C 1.378059 -1.525551 -1.660671 0
M  V30 7 C 0.540086 -1.602884 -2.752700 0
M  V30 8 C 0.971912 -1.242584 -4.012094 0
M  V30 9 C 2.268633 -0.798990 -4.164219 0
M  V30 10 C 3.115435 -0.722610 -3.049726 0
M  V30 11 N 1.894172 0.674464 1.200042 0
M  V30 12 C 1.304390 1.179587 2.386836 0
M  V30 13 C 2.042469 2.294368 2.816159 0
M  V30 14 C 1.693730 2.996642 3.958566 0
M  V30 15 C 0.602296 2.592240 4.685464 0
M  V30 16 C -0.128632 1.501040 4.274295 0
M  V30 17 C 0.219001 0.806485 3.141519 0
M  V30 18 C -0.465586 -0.344872 2.614207 0
M  V30 19 O -0.094849 -0.930392 1.574406 0
M  V30 20 N -1.610872 -0.914493 3.219120 0
M  V30 21 C -2.354738 -2.073987 2.745607 0
M  V30 22 C -2.916444 -1.874064 1.389643 0
M  V30 23 C -2.525328 -2.100676 0.087894 0
M  V30 24 C -3.506474 -1.692849 -0.789800 0
M  V30 25 C -4.492963 -1.216264 0.046645 0
M  V30 26 O -4.125386 -1.333429 1.294642 0
M  V30 27 H 3.708319 -2.208959 0.663149 0
M  V30 28 H 4.869679 -0.884649 0.749824 0
M  V30 29 H 1.158890 -1.779491 -0.655017 0
M  V30 30 H -0.451755 -1.972764 -2.462543 0
M  V30 31 H 0.233228 -1.342213 -4.795762 0
M  V30 32 H 2.537460 -0.534903 -5.175249 0
M  V30 33 H 4.101352 -0.349387 -3.369935 0
M  V30 34 H 1.789281 0.831607 0.150411 0
M  V30 35 H 2.935204 2.740322 2.347669 0
M  V30 36 H 2.215279 3.857921 4.342424 0
M  V30 37 H 0.286193 3.104110 5.584485 0
M  V30 38 H -0.976827 1.169163 4.819938 0
M  V30 39 H -1.973687 -0.458237 4.109339 0
M  V30 40 H -3.106289 -2.402186 3.461450 0
M  V30 41 H -1.589758 -2.907839 2.723768 0
M  V30 42 H -1.555714 -2.545635 -0.083267 0
M  V30 43 H -3.439822 -1.764620 -1.868716 0
M  V30 44 H -5.441594 -0.803110 -0.314378 0
M  V30 END ATOM
M  V30 BEGIN BOND
M  V30 1 2 1 2
M  V30 2 1 2 3
M  V30 3 1 3 4
M  V30 4 1 4 5
M  V30 5 2 5 6
M  V30 6 1 6 7
M  V30 7 2 7 8
M  V30 8 1 8 9
M  V30 9 2 9 10
M  V30 10 1 2 11
M  V30 11 1 11 12
M  V30 12 2 12 13
M  V30 13 1 13 14
M  V30 14 2 14 15
M  V30 15 1 15 16
M  V30 16 2 16 17
M  V30 17 1 17 18
M  V30 18 2 18 19
M  V30 19 1 18 20
M  V30 20 1 20 21
M  V30 21 1 21 22
M  V30 22 2 22 23
M  V30 23 1 23 24
M  V30 24 2 24 25
M  V30 25 1 25 26
M  V30 26 1 10 5
M  V30 27 1 17 12
M  V30 28 1 26 22
M  V30 29 1 3 27
M  V30 30 1 3 28
M  V30 31 1 6 29
M  V30 32 1 7 30
M  V30 33 1 8 31
M  V30 34 1 9 32
M  V30 35 1 10 33
M  V30 36 1 11 34
M  V30 37 1 13 35
M  V30 38 1 14 36
M  V30 39 1 15 37
M  V30 40 1 16 38
M  V30 41 1 20 39
M  V30 42 1 21 40
M  V30 43 1 21 41
M  V30 44 1 23 42
M  V30 45 1 24 43
M  V30 46 1 25 44
M  V30 END BOND
M  V30 END CTAB
M  END
>  <Dataset>  (733) 
ChEMBL_Kinases

>  <Ligand_Instance>  (733) 
nan

>  <PDB_ID>  (733) 
nan

>  <Standardized_SMILES>  (733) 
O=C(COc1ccccc1)Nc1ccccc1C(=O)NCc1ccco1

>  <Name>  (733) 
nan

>  <Pocket>  (733) 
nan

>  <ATP_Site>  (733) 
nan

>  <Peripheral>  (733) 
nan

>  <Num_H_Atoms_ProtBoundConf>  (733) 
nan

>  <Num_Resolved_Atoms>  (733) 
nan

>  <Num_Not_Resolved_Atoms>  (733) 
nan

$$$$
CHEMBL1396742
     RDKit          3D

  0  0  0  0  0  0  0  0  0  0999 V3000
M  V30 BEGIN CTAB
M  V30 COUNTS 45 49 0 0 0
M  V30 BEGIN ATOM
M  V30 1 O 1.755309 -3.405292 2.109768 0
M  V30 2 C 1.603126 -2.248416 1.679515 0
M  V30 3 C 2.701004 -1.477998 1.347320 0
M  V30 4 C 4.058084 -2.027489 1.502737 0
M  V30 5 C 4.989716 -1.193015 2.090606 0
M  V30 6 C 6.294464 -1.608131 2.284974 0
M  V30 7 C 6.624199 -2.881917 1.869918 0
M  V30 8 F 7.892619 -3.359085 2.029645 0
M  V30 9 C 5.711980 -3.756222 1.271578 0
M  V30 10 C 4.401843 -3.308455 1.088694 0
M  V30 11 N 2.492613 -0.231395 0.885388 0
M  V30 12 C 1.260445 0.308223 0.728920 0
M  V30 13 C 1.187180 1.603538 0.243483 0
M  V30 14 N -0.080394 2.094643 0.106649 0
M  V30 15 C -1.151199 1.344500 0.430169 0
M  V30 16 N -2.430266 1.945534 0.252330 0
M  V30 17 C -2.510668 3.302430 -0.256003 0
M  V30 18 C -3.531849 3.368599 -1.370365 0
M  V30 19 O -4.657943 2.625109 -1.151767 0
M  V30 20 C -4.476396 1.329191 -0.751455 0
M  V30 21 C -3.675565 1.266083 0.555761 0
M  V30 22 N -1.049458 0.086589 0.900420 0
M  V30 23 C 0.176823 -0.490621 1.071286 0
M  V30 24 N 0.364928 -1.739766 1.534949 0
M  V30 25 C -0.807887 -2.514221 1.871499 0
M  V30 26 C -1.145895 -3.713722 1.012707 0
M  V30 27 C -2.026546 -2.469200 1.056470 0
M  V30 28 H 4.722049 -0.191204 2.414745 0
M  V30 29 H 7.015594 -0.948567 2.745435 0
M  V30 30 H 5.992451 -4.750449 0.953980 0
M  V30 31 H 3.646390 -3.929849 0.633942 0
M  V30 32 H 2.085853 2.149467 0.003491 0
M  V30 33 H -2.882367 3.999901 0.550762 0
M  V30 34 H -1.555275 3.678544 -0.649215 0
M  V30 35 H -3.015793 3.132904 -2.327554 0
M  V30 36 H -3.851922 4.430651 -1.446435 0
M  V30 37 H -5.465948 0.906721 -0.512064 0
M  V30 38 H -3.907121 0.684359 -1.449360 0
M  V30 39 H -3.549411 0.238078 0.887488 0
M  V30 40 H -4.211811 1.903716 1.313101 0
M  V30 41 H -0.956606 -2.611453 2.969011 0
M  V30 42 H -0.476507 -3.825242 0.120549 0
M  V30 43 H -1.616786 -4.610138 1.460188 0
M  V30 44 H -3.021979 -2.551798 1.555386 0
M  V30 45 H -2.092243 -1.928139 0.101502 0
M  V30 END ATOM
M  V30 BEGIN BOND
M  V30 1 2 1 2
M  V30 2 1 2 3
M  V30 3 1 3 4
M  V30 4 2 4 5
M  V30 5 1 5 6
M  V30 6 2 6 7
M  V30 7 1 7 8
M  V30 8 1 7 9
M  V30 9 2 9 10
M  V30 10 2 3 11
M  V30 11 1 11 12
M  V30 12 2 12 13
M  V30 13 1 13 14
M  V30 14 2 14 15
M  V30 15 1 15 16
M  V30 16 1 16 17
M  V30 17 1 17 18
M  V30 18 1 18 19
M  V30 19 1 19 20
M  V30 20 1 20 21
M  V30 21 1 15 22
M  V30 22 2 22 23
M  V30 23 1 23 24
M  V30 24 1 24 25
M  V30 25 1 25 26
M  V30 26 1 26 27
M  V30 27 1 24 2
M  V30 28 1 27 25
M  V30 29 1 10 4
M  V30 30 1 23 12
M  V30 31 1 21 16
M  V30 32 1 5 28
M  V30 33 1 6 29
M  V30 34 1 9 30
M  V30 35 1 10 31
M  V30 36 1 13 32
M  V30 37 1 17 33
M  V30 38 1 17 34
M  V30 39 1 18 35
M  V30 40 1 18 36
M  V30 41 1 20 37
M  V30 42 1 20 38
M  V30 43 1 21 39
M  V30 44 1 21 40
M  V30 45 1 25 41
M  V30 46 1 26 42
M  V30 47 1 26 43
M  V30 48 1 27 44
M  V30 49 1 27 45
M  V30 END BOND
M  V30 END CTAB
M  END
>  <Dataset>  (734) 
ChEMBL_Kinases

>  <Ligand_Instance>  (734) 
nan

>  <PDB_ID>  (734) 
nan

>  <Standardized_SMILES>  (734) 
O=c1c(-c2ccc(F)cc2)nc2cnc(N3CCOCC3)nc2n1C1CC1

>  <Name>  (734) 
nan

>  <Pocket>  (734) 
nan

>  <ATP_Site>  (734) 
nan

>  <Peripheral>  (734) 
nan

>  <Num_H_Atoms_ProtBoundConf>  (734) 
nan

>  <Num_Resolved_Atoms>  (734) 
nan

>  <Num_Not_Resolved_Atoms>  (734) 
nan

$$$$
CHEMBL1397079
     RDKit          3D

  0  0  0  0  0  0  0  0  0  0999 V3000
M  V30 BEGIN CTAB
M  V30 COUNTS 35 38 0 0 0
M  V30 BEGIN ATOM
M  V30 1 O 0.763397 -1.182297 -0.621464 0
M  V30 2 C 0.290409 -0.724751 0.444996 0
M  V30 3 C 0.669962 -1.210326 1.700965 0
M  V30 4 C 1.666872 -2.301947 1.722694 0
M  V30 5 C 1.595055 -3.445196 2.498244 0
M  V30 6 C 2.612507 -4.375871 2.403807 0
M  V30 7 C 3.706442 -4.233278 1.575184 0
M  V30 8 C 3.767133 -3.073257 0.796474 0
M  V30 9 Cl 5.166153 -2.919889 -0.244790 0
M  V30 10 C 2.754142 -2.142064 0.887568 0
M  V30 11 N 0.139219 -0.692874 2.825578 0
M  V30 12 C -0.770597 0.304042 2.793863 0
M  V30 13 C -1.309034 0.828114 3.951087 0
M  V30 14 N -2.209700 1.819892 3.833136 0
M  V30 15 C -2.533248 2.244107 2.579048 0
M  V30 16 N -2.032276 1.760443 1.431962 0
M  V30 17 C -1.116585 0.753098 1.534458 0
M  V30 18 N -0.616780 0.270983 0.383107 0
M  V30 19 C -1.020615 0.783555 -0.880919 0
M  V30 20 C -2.326094 1.022169 -1.253594 0
M  V30 21 C -2.668788 1.520922 -2.493244 0
M  V30 22 C -1.623806 1.777253 -3.366125 0
M  V30 23 C -0.319731 1.544955 -3.009714 0
M  V30 24 C 0.024113 1.039938 -1.753874 0
M  V30 25 H 0.737879 -3.530138 3.130487 0
M  V30 26 H 2.548201 -5.278810 3.021447 0
M  V30 27 H 4.490327 -4.980973 1.521927 0
M  V30 28 H 2.936154 -1.304273 0.231958 0
M  V30 29 H -1.017758 0.454576 4.931184 0
M  V30 30 H -3.256031 3.040567 2.474652 0
M  V30 31 H -3.083574 0.797352 -0.518744 0
M  V30 32 H -3.691908 1.701876 -2.769464 0
M  V30 33 H -1.881379 2.175307 -4.358586 0
M  V30 34 H 0.424961 1.775718 -3.757658 0
M  V30 35 H 1.079140 0.909621 -1.616359 0
M  V30 END ATOM
M  V30 BEGIN BOND
M  V30 1 2 1 2
M  V30 2 1 2 3
M  V30 3 1 3 4
M  V30 4 2 4 5
M  V30 5 1 5 6
M  V30 6 2 6 7
M  V30 7 1 7 8
M  V30 8 1 8 9
M  V30 9 2 8 10
M  V30 10 2 3 11
M  V30 11 1 11 12
M  V30 12 2 12 13
M  V30 13 1 13 14
M  V30 14 2 14 15
M  V30 15 1 15 16
M  V30 16 2 16 17
M  V30 17 1 17 18
M  V30 18 1 18 19
M  V30 19 2 19 20
M  V30 20 1 20 21
M  V30 21 2 21 22
M  V30 22 1 22 23
M  V30 23 2 23 24
M  V30 24 1 18 2
M  V30 25 1 24 19
M  V30 26 1 10 4
M  V30 27 1 17 12
M  V30 28 1 5 25
M  V30 29 1 6 26
M  V30 30 1 7 27
M  V30 31 1 10 28
M  V30 32 1 13 29
M  V30 33 1 15 30
M  V30 34 1 20 31
M  V30 35 1 21 32
M  V30 36 1 22 33
M  V30 37 1 23 34
M  V30 38 1 24 35
M  V30 END BOND
M  V30 END CTAB
M  END
>  <Dataset>  (735) 
ChEMBL_Kinases

>  <Ligand_Instance>  (735) 
nan

>  <PDB_ID>  (735) 
nan

>  <Standardized_SMILES>  (735) 
O=c1c(-c2cccc(Cl)c2)nc2cncnc2n1-c1ccccc1

>  <Name>  (735) 
nan

>  <Pocket>  (735) 
nan

>  <ATP_Site>  (735) 
nan

>  <Peripheral>  (735) 
nan

>  <Num_H_Atoms_ProtBoundConf>  (735) 
nan

>  <Num_Resolved_Atoms>  (735) 
nan

>  <Num_Not_Resolved_Atoms>  (735) 
nan

$$$$
CHEMBL1397427
     RDKit          3D

  0  0  0  0  0  0  0  0  0  0999 V3000
M  V30 BEGIN CTAB
M  V30 COUNTS 41 43 0 0 0
M  V30 BEGIN ATOM
M  V30 1 C -0.601059 -4.866829 -0.873995 0
M  V30 2 O 0.650628 -5.262853 -0.478944 0
M  V30 3 C 1.508253 -4.250429 -0.114169 0
M  V30 4 C 1.740277 -3.331241 -1.276495 0
M  V30 5 N 2.701443 -2.263376 -0.967755 0
M  V30 6 C 4.009990 -2.569543 -1.238954 0
M  V30 7 O 4.447576 -3.644812 -1.708246 0
M  V30 8 C 4.976660 -1.565622 -0.959842 0
M  V30 9 N 4.602531 -0.391529 -0.463300 0
M  V30 10 C 3.320221 -0.082549 -0.194537 0
M  V30 11 C 2.845399 1.110248 0.342030 0
M  V30 12 N 1.549478 1.278665 0.573688 0
M  V30 13 C 0.601456 0.289351 0.296791 0
M  V30 14 N -0.681812 0.731522 0.661853 0
M  V30 15 C -0.901375 1.320630 1.920416 0
M  V30 16 C 0.015008 1.411991 2.992459 0
M  V30 17 C -0.204961 1.992900 4.209480 0
M  V30 18 C -1.453048 2.509324 4.315740 0
M  V30 19 C -2.504799 2.568340 3.483765 0
M  V30 20 O -3.777731 3.052119 3.495376 0
M  V30 21 C -4.637241 2.923271 2.396177 0
M  V30 22 C -2.116007 1.926882 2.274670 0
M  V30 23 N 1.171594 -0.768874 -0.194679 0
M  V30 24 C 2.424522 -1.044471 -0.462156 0
M  V30 25 H -1.078881 -4.330025 -0.036492 0
M  V30 26 H -0.622289 -4.225633 -1.767852 0
M  V30 27 H -1.251592 -5.748237 -1.132801 0
M  V30 28 H 2.434401 -4.600455 0.349827 0
M  V30 29 H 0.965815 -3.703327 0.725660 0
M  V30 30 H 2.155428 -3.886942 -2.139016 0
M  V30 31 H 0.784332 -2.880858 -1.617750 0
M  V30 32 H 6.062329 -1.660923 -1.112843 0
M  V30 33 H 3.578559 1.868714 0.539910 0
M  V30 34 H -1.456682 0.617722 0.010498 0
M  V30 35 H 0.990742 0.944517 2.784564 0
M  V30 36 H 0.523433 2.038141 4.990862 0
M  V30 37 H -1.711274 3.003329 5.277832 0
M  V30 38 H -5.672050 3.208802 2.631059 0
M  V30 39 H -4.301152 3.487404 1.486982 0
M  V30 40 H -4.708295 1.833471 2.099664 0
M  V30 41 H -2.826990 1.865133 1.435604 0
M  V30 END ATOM
M  V30 BEGIN BOND
M  V30 1 1 1 2
M  V30 2 1 2 3
M  V30 3 1 3 4
M  V30 4 1 4 5
M  V30 5 1 5 6
M  V30 6 2 6 7
M  V30 7 1 6 8
M  V30 8 2 8 9
M  V30 9 1 9 10
M  V30 10 2 10 11
M  V30 11 1 11 12
M  V30 12 2 12 13
M  V30 13 1 13 14
M  V30 14 1 14 15
M  V30 15 2 15 16
M  V30 16 1 16 17
M  V30 17 2 17 18
M  V30 18 1 18 19
M  V30 19 1 19 20
M  V30 20 1 20 21
M  V30 21 2 19 22
M  V30 22 1 13 23
M  V30 23 2 23 24
M  V30 24 1 24 5
M  V30 25 1 24 10
M  V30 26 1 22 15
M  V30 27 1 1 25
M  V30 28 1 1 26
M  V30 29 1 1 27
M  V30 30 1 3 28
M  V30 31 1 3 29
M  V30 32 1 4 30
M  V30 33 1 4 31
M  V30 34 1 8 32
M  V30 35 1 11 33
M  V30 36 1 14 34
M  V30 37 1 16 35
M  V30 38 1 17 36
M  V30 39 1 18 37
M  V30 40 1 21 38
M  V30 41 1 21 39
M  V30 42 1 21 40
M  V30 43 1 22 41
M  V30 END BOND
M  V30 END CTAB
M  END
>  <Dataset>  (736) 
ChEMBL_Kinases

>  <Ligand_Instance>  (736) 
nan

>  <PDB_ID>  (736) 
nan

>  <Standardized_SMILES>  (736) 
COCCn1c(=O)cnc2cnc(Nc3cccc(OC)c3)nc21

>  <Name>  (736) 
nan

>  <Pocket>  (736) 
nan

>  <ATP_Site>  (736) 
nan

>  <Peripheral>  (736) 
nan

>  <Num_H_Atoms_ProtBoundConf>  (736) 
nan

>  <Num_Resolved_Atoms>  (736) 
nan

>  <Num_Not_Resolved_Atoms>  (736) 
nan

$$$$
CHEMBL1397636
     RDKit          3D

  0  0  0  0  0  0  0  0  0  0999 V3000
M  V30 BEGIN CTAB
M  V30 COUNTS 41 44 0 0 0
M  V30 BEGIN ATOM
M  V30 1 C 0.536082 -5.154804 2.355593 0
M  V30 2 O 0.664453 -3.999833 1.590052 0
M  V30 3 C 1.607431 -3.763455 0.612566 0
M  V30 4 C 2.613379 -4.600361 0.183318 0
M  V30 5 C 3.515367 -4.284959 -0.802831 0
M  V30 6 C 3.435122 -3.050714 -1.426977 0
M  V30 7 C 2.448452 -2.168861 -1.040258 0
M  V30 8 C 1.577027 -2.550990 -0.044124 0
M  V30 9 C 0.549030 -1.583329 0.331117 0
M  V30 10 N 0.494855 -0.380946 -0.309199 0
M  V30 11 C -0.458702 0.529436 0.038292 0
M  V30 12 N -0.630551 1.813232 -0.549273 0
M  V30 13 C 0.169003 2.896217 -0.030150 0
M  V30 14 C -0.030885 4.202569 -0.452864 0
M  V30 15 C 0.802427 5.178774 0.100841 0
M  V30 16 N 1.763507 4.926227 0.998435 0
M  V30 17 C 1.962414 3.660499 1.412987 0
M  V30 18 C 1.173110 2.648953 0.904998 0
M  V30 19 C -1.364188 0.229001 1.036625 0
M  V30 20 C -2.350121 1.109143 1.429445 0
M  V30 21 C -3.239707 0.762038 2.437679 0
M  V30 22 C -3.161861 -0.463837 3.069346 0
M  V30 23 C -2.182113 -1.383416 2.705225 0
M  V30 24 C -1.317477 -0.994907 1.695725 0
M  V30 25 N -0.349383 -1.838321 1.297098 0
M  V30 26 H -0.539381 -5.493514 2.349385 0
M  V30 27 H 1.197513 -5.947406 1.955253 0
M  V30 28 H 0.778242 -4.908902 3.419310 0
M  V30 29 H 2.688855 -5.566833 0.659928 0
M  V30 30 H 4.284229 -5.014083 -1.078032 0
M  V30 31 H 4.169079 -2.855713 -2.195755 0
M  V30 32 H 2.387389 -1.196735 -1.532570 0
M  V30 33 H -1.289311 2.048127 -1.329906 0
M  V30 34 H -0.805540 4.451468 -1.182758 0
M  V30 35 H 0.663892 6.224575 -0.217939 0
M  V30 36 H 2.754557 3.459765 2.152658 0
M  V30 37 H 1.369279 1.645277 1.268013 0
M  V30 38 H -2.443619 2.085487 0.954488 0
M  V30 39 H -4.034189 1.402107 2.793359 0
M  V30 40 H -3.826905 -0.807155 3.871192 0
M  V30 41 H -2.027923 -2.359873 3.124789 0
M  V30 END ATOM
M  V30 BEGIN BOND
M  V30 1 1 1 2
M  V30 2 1 2 3
M  V30 3 2 3 4
M  V30 4 1 4 5
M  V30 5 2 5 6
M  V30 6 1 6 7
M  V30 7 2 7 8
M  V30 8 1 8 9
M  V30 9 2 9 10
M  V30 10 1 10 11
M  V30 11 1 11 12
M  V30 12 1 12 13
M  V30 13 2 13 14
M  V30 14 1 14 15
M  V30 15 2 15 16
M  V30 16 1 16 17
M  V30 17 2 17 18
M  V30 18 2 11 19
M  V30 19 1 19 20
M  V30 20 2 20 21
M  V30 21 1 21 22
M  V30 22 2 22 23
M  V30 23 1 23 24
M  V30 24 2 24 25
M  V30 25 1 8 3
M  V30 26 1 25 9
M  V30 27 1 18 13
M  V30 28 1 24 19
M  V30 29 1 1 26
M  V30 30 1 1 27
M  V30 31 1 1 28
M  V30 32 1 4 29
M  V30 33 1 5 30
M  V30 34 1 6 31
M  V30 35 1 7 32
M  V30 36 1 12 33
M  V30 37 1 14 34
M  V30 38 1 15 35
M  V30 39 1 17 36
M  V30 40 1 18 37
M  V30 41 1 20 38
M  V30 42 1 21 39
M  V30 43 1 22 40
M  V30 44 1 23 41
M  V30 END BOND
M  V30 END CTAB
M  END
>  <Dataset>  (737) 
ChEMBL_Kinases

>  <Ligand_Instance>  (737) 
nan

>  <PDB_ID>  (737) 
nan

>  <Standardized_SMILES>  (737) 
COc1ccccc1-c1nc(Nc2ccncc2)c2ccccc2n1

>  <Name>  (737) 
nan

>  <Pocket>  (737) 
nan

>  <ATP_Site>  (737) 
nan

>  <Peripheral>  (737) 
nan

>  <Num_H_Atoms_ProtBoundConf>  (737) 
nan

>  <Num_Resolved_Atoms>  (737) 
nan

>  <Num_Not_Resolved_Atoms>  (737) 
nan

$$$$
CHEMBL1397851
     RDKit          3D

  0  0  0  0  0  0  0  0  0  0999 V3000
M  V30 BEGIN CTAB
M  V30 COUNTS 65 69 0 0 0
M  V30 BEGIN ATOM
M  V30 1 C 1.546788 -3.448192 2.752452 0
M  V30 2 C 1.744762 -2.588920 1.533446 0
M  V30 3 C 3.219377 -2.719343 1.138024 0
M  V30 4 O 1.544866 -1.210394 1.801859 0
M  V30 5 C 1.436640 -0.801804 0.444468 0
M  V30 6 C 1.495739 0.636815 0.259618 0
M  V30 7 O 2.783901 0.998648 0.833566 0
M  V30 8 C 1.730528 1.098619 -1.142465 0
M  V30 9 C 1.829653 0.434254 -2.339438 0
M  V30 10 C 2.046932 1.041839 -3.536428 0
M  V30 11 C 2.179350 2.413960 -3.568863 0
M  V30 12 C 2.089051 3.151877 -2.383548 0
M  V30 13 C 1.864403 2.495260 -1.167948 0
M  V30 14 C 0.584500 1.494598 1.004743 0
M  V30 15 C 0.704329 1.490811 2.385579 0
M  V30 16 C -0.044467 2.249261 3.259077 0
M  V30 17 C -0.990950 3.079348 2.700051 0
M  V30 18 C -1.168948 3.137885 1.335040 0
M  V30 19 C -0.385591 2.351239 0.514111 0
M  V30 20 C 0.323064 -1.667046 0.046322 0
M  V30 21 C -0.938691 -1.638851 0.853406 0
M  V30 22 O -0.723155 -1.597164 2.198583 0
M  V30 23 C -1.631429 -2.971664 0.600198 0
M  V30 24 C -1.389412 -3.908535 -0.377674 0
M  V30 25 C -2.134821 -5.061736 -0.446397 0
M  V30 26 C -3.143790 -5.344942 0.435199 0
M  V30 27 C -3.395951 -4.420676 1.414240 0
M  V30 28 C -2.651306 -3.243234 1.501880 0
M  V30 29 C -1.947124 -0.646018 0.449231 0
M  V30 30 C -2.151769 -0.397571 -0.909118 0
M  V30 31 C -3.097711 0.503097 -1.352439 0
M  V30 32 C -3.887102 1.201421 -0.462981 0
M  V30 33 C -3.694486 0.964891 0.891437 0
M  V30 34 C -2.747522 0.063813 1.328240 0
M  V30 35 O 0.918156 -2.913435 0.473322 0
M  V30 36 H 2.312907 -4.247657 2.758008 0
M  V30 37 H 0.577907 -4.005021 2.583501 0
M  V30 38 H 1.499392 -2.868664 3.690316 0
M  V30 39 H 3.795952 -1.796665 1.346401 0
M  V30 40 H 3.348001 -3.063779 0.098508 0
M  V30 41 H 3.739162 -3.507571 1.758333 0
M  V30 42 H 2.365460 -1.291248 -0.005518 0
M  V30 43 H 2.789021 1.968859 0.853640 0
M  V30 44 H 1.720433 -0.629018 -2.209089 0
M  V30 45 H 2.105648 0.426098 -4.398960 0
M  V30 46 H 2.350345 2.843192 -4.545789 0
M  V30 47 H 2.211015 4.192790 -2.565078 0
M  V30 48 H 1.831277 3.252043 -0.397146 0
M  V30 49 H 1.442243 0.850289 2.897461 0
M  V30 50 H 0.081551 2.216221 4.324731 0
M  V30 51 H -1.596206 3.687963 3.360358 0
M  V30 52 H -1.915670 3.792045 0.859880 0
M  V30 53 H -0.499030 2.368243 -0.555843 0
M  V30 54 H 0.103966 -1.816794 -1.000489 0
M  V30 55 H -1.089197 -2.292329 2.755694 0
M  V30 56 H -0.604932 -3.680965 -1.063361 0
M  V30 57 H -1.851633 -5.729487 -1.263809 0
M  V30 58 H -3.660188 -6.276657 0.286834 0
M  V30 59 H -4.213407 -4.709441 2.084477 0
M  V30 60 H -3.017655 -2.659771 2.337099 0
M  V30 61 H -1.615448 -0.863599 -1.694413 0
M  V30 62 H -3.285815 0.721859 -2.396451 0
M  V30 63 H -4.639498 1.916289 -0.770183 0
M  V30 64 H -4.304717 1.504306 1.610088 0
M  V30 65 H -2.579762 -0.137448 2.398795 0
M  V30 END ATOM
M  V30 BEGIN BOND
M  V30 1 1 1 2
M  V30 2 1 2 3
M  V30 3 1 2 4
M  V30 4 1 4 5
M  V30 5 1 5 6
M  V30 6 1 6 7
M  V30 7 1 6 8
M  V30 8 2 8 9
M  V30 9 1 9 10
M  V30 10 2 10 11
M  V30 11 1 11 12
M  V30 12 2 12 13
M  V30 13 1 6 14
M  V30 14 2 14 15
M  V30 15 1 15 16
M  V30 16 2 16 17
M  V30 17 1 17 18
M  V30 18 2 18 19
M  V30 19 1 5 20
M  V30 20 1 20 21
M  V30 21 1 21 22
M  V30 22 1 21 23
M  V30 23 2 23 24
M  V30 24 1 24 25
M  V30 25 2 25 26
M  V30 26 1 26 27
M  V30 27 2 27 28
M  V30 28 1 21 29
M  V30 29 2 29 30
M  V30 30 1 30 31
M  V30 31 2 31 32
M  V30 32 1 32 33
M  V30 33 2 33 34
M  V30 34 1 20 35
M  V30 35 1 35 2
M  V30 36 1 13 8
M  V30 37 1 19 14
M  V30 38 1 28 23
M  V30 39 1 34 29
M  V30 40 1 1 36
M  V30 41 1 1 37
M  V30 42 1 1 38
M  V30 43 1 3 39
M  V30 44 1 3 40
M  V30 45 1 3 41
M  V30 46 1 5 42
M  V30 47 1 7 43
M  V30 48 1 9 44
M  V30 49 1 10 45
M  V30 50 1 11 46
M  V30 51 1 12 47
M  V30 52 1 13 48
M  V30 53 1 15 49
M  V30 54 1 16 50
M  V30 55 1 17 51
M  V30 56 1 18 52
M  V30 57 1 19 53
M  V30 58 1 20 54
M  V30 59 1 22 55
M  V30 60 1 24 56
M  V30 61 1 25 57
M  V30 62 1 26 58
M  V30 63 1 27 59
M  V30 64 1 28 60
M  V30 65 1 30 61
M  V30 66 1 31 62
M  V30 67 1 32 63
M  V30 68 1 33 64
M  V30 69 1 34 65
M  V30 END BOND
M  V30 END CTAB
M  END
>  <Dataset>  (738) 
ChEMBL_Kinases

>  <Ligand_Instance>  (738) 
nan

>  <PDB_ID>  (738) 
nan

>  <Standardized_SMILES>  (738) 
CC1(C)OC(C(O)(c2ccccc2)c2ccccc2)C(C(O)(c2ccccc2)c2ccccc2)O1

>  <Name>  (738) 
nan

>  <Pocket>  (738) 
nan

>  <ATP_Site>  (738) 
nan

>  <Peripheral>  (738) 
nan

>  <Num_H_Atoms_ProtBoundConf>  (738) 
nan

>  <Num_Resolved_Atoms>  (738) 
nan

>  <Num_Not_Resolved_Atoms>  (738) 
nan

$$$$
CHEMBL1397882
     RDKit          3D

  0  0  0  0  0  0  0  0  0  0999 V3000
M  V30 BEGIN CTAB
M  V30 COUNTS 50 52 0 0 0
M  V30 BEGIN ATOM
M  V30 1 C 1.062157 -0.733767 4.761859 0
M  V30 2 C 0.025821 -1.741637 4.236197 0
M  V30 3 C -0.812739 -1.148866 3.201046 0
M  V30 4 C -0.298547 -0.598096 1.952786 0
M  V30 5 C 0.424109 -1.379494 0.953353 0 CFG=2
M  V30 6 C 1.679427 -2.055867 1.256063 0
M  V30 7 C 2.865286 -1.331432 1.716294 0
M  V30 8 C 4.103765 -1.949450 1.049958 0
M  V30 9 C 3.544823 -3.348004 0.747857 0
M  V30 10 C 2.230786 -2.895205 0.084027 0
M  V30 11 C 0.697804 -0.409974 -0.225948 0
M  V30 12 C -0.731324 -0.112600 -0.619916 0
M  V30 13 C -1.337757 1.005336 -1.130555 0
M  V30 14 C -2.676644 1.035200 -1.426942 0
M  V30 15 O -3.430704 2.054856 -1.935129 0
M  V30 16 C -2.952134 3.334217 -2.274979 0
M  V30 17 C -1.917096 3.272901 -3.334860 0
M  V30 18 O -1.482417 2.240061 -3.926718 0
M  V30 19 O -0.944311 3.525287 -4.285818 0
M  V30 20 C -3.433985 -0.097793 -1.202351 0
M  V30 21 Cl -5.155735 -0.245186 -1.520136 0
M  V30 22 C -2.850774 -1.254339 -0.683154 0
M  V30 23 Cl -3.772378 -2.735804 -0.377752 0
M  V30 24 C -1.480677 -1.273965 -0.383540 0
M  V30 25 C -0.529066 -2.270693 0.165928 0
M  V30 26 O -0.713490 -3.507675 -0.119697 0
M  V30 27 H 2.007830 -1.210473 5.038228 0
M  V30 28 H 1.291217 -0.046479 3.902321 0
M  V30 29 H 0.691232 -0.126217 5.585514 0
M  V30 30 H -0.606765 -1.935246 5.174112 0
M  V30 31 H 0.544315 -2.669697 4.095360 0
M  V30 32 H -1.668897 -1.879157 3.007552 0
M  V30 33 H -1.391919 -0.298513 3.698158 0
M  V30 34 H 0.264334 0.387008 2.100132 0
M  V30 35 H -1.231384 -0.168090 1.441782 0
M  V30 36 H 1.424042 -2.876181 1.995833 0
M  V30 37 H 2.871881 -0.234994 1.629844 0
M  V30 38 H 3.032847 -1.518932 2.799464 0
M  V30 39 H 4.953022 -1.989872 1.736143 0
M  V30 40 H 4.327890 -1.448715 0.092654 0
M  V30 41 H 4.180421 -3.922941 0.071893 0
M  V30 42 H 3.296024 -3.798540 1.706753 0
M  V30 43 H 1.647945 -3.792807 -0.104757 0
M  V30 44 H 2.543303 -2.298326 -0.767864 0
M  V30 45 H 1.205976 -0.889012 -1.056025 0
M  V30 46 H 1.115161 0.534679 0.116783 0
M  V30 47 H -0.800194 1.899648 -1.315447 0
M  V30 48 H -3.809795 3.971266 -2.566214 0
M  V30 49 H -2.504932 3.835619 -1.381928 0
M  V30 50 H -0.596231 4.456522 -4.508897 0
M  V30 END ATOM
M  V30 BEGIN BOND
M  V30 1 1 1 2
M  V30 2 1 2 3
M  V30 3 1 3 4
M  V30 4 1 5 4 CFG=1
M  V30 5 1 5 6
M  V30 6 1 6 7
M  V30 7 1 7 8
M  V30 8 1 8 9
M  V30 9 1 9 10
M  V30 10 1 5 11
M  V30 11 1 11 12
M  V30 12 2 12 13
M  V30 13 1 13 14
M  V30 14 1 14 15
M  V30 15 1 15 16
M  V30 16 1 16 17
M  V30 17 2 17 18
M  V30 18 1 17 19
M  V30 19 2 14 20
M  V30 20 1 20 21
M  V30 21 1 20 22
M  V30 22 1 22 23
M  V30 23 2 22 24
M  V30 24 1 24 25
M  V30 25 2 25 26
M  V30 26 1 25 5
M  V30 27 1 10 6
M  V30 28 1 24 12
M  V30 29 1 1 27
M  V30 30 1 1 28
M  V30 31 1 1 29
M  V30 32 1 2 30
M  V30 33 1 2 31
M  V30 34 1 3 32
M  V30 35 1 3 33
M  V30 36 1 4 34
M  V30 37 1 4 35
M  V30 38 1 6 36
M  V30 39 1 7 37
M  V30 40 1 7 38
M  V30 41 1 8 39
M  V30 42 1 8 40
M  V30 43 1 9 41
M  V30 44 1 9 42
M  V30 45 1 10 43
M  V30 46 1 10 44
M  V30 47 1 11 45
M  V30 48 1 11 46
M  V30 49 1 13 47
M  V30 50 1 16 48
M  V30 51 1 16 49
M  V30 52 1 19 50
M  V30 END BOND
M  V30 END CTAB
M  END
>  <Dataset>  (739) 
ChEMBL_Kinases

>  <Ligand_Instance>  (739) 
nan

>  <PDB_ID>  (739) 
nan

>  <Standardized_SMILES>  (739) 
CCCC[C@]1(C2CCCC2)Cc2cc(OCC(=O)O)c(Cl)c(Cl)c2C1=O

>  <Name>  (739) 
nan

>  <Pocket>  (739) 
nan

>  <ATP_Site>  (739) 
nan

>  <Peripheral>  (739) 
nan

>  <Num_H_Atoms_ProtBoundConf>  (739) 
nan

>  <Num_Resolved_Atoms>  (739) 
nan

>  <Num_Not_Resolved_Atoms>  (739) 
nan

$$$$
CHEMBL1398022
     RDKit          3D

  0  0  0  0  0  0  0  0  0  0999 V3000
M  V30 BEGIN CTAB
M  V30 COUNTS 46 49 0 0 0
M  V30 BEGIN ATOM
M  V30 1 O 4.556698 -5.232581 0.837064 0
M  V30 2 S 3.634197 -5.046336 -0.329351 0
M  V30 3 O 2.597780 -6.116204 -0.405128 0
M  V30 4 O 4.570797 -5.101152 -1.727051 0
M  V30 5 C 2.809542 -3.498595 -0.244329 0
M  V30 6 C 3.361670 -2.406462 0.374627 0
M  V30 7 C 2.673626 -1.204109 0.417267 0
M  V30 8 O 3.292426 -0.155403 1.055304 0
M  V30 9 C 1.430078 -1.119721 -0.168918 0
M  V30 10 C 0.741012 0.070839 -0.130159 0
M  V30 11 O 1.328584 1.130169 0.493750 0
M  V30 12 C -0.485240 0.306716 -0.659064 0
M  V30 13 N -1.336957 1.382602 -0.732236 0
M  V30 14 N -1.636824 2.187184 0.099072 0
M  V30 15 C -1.203225 2.273258 1.407749 0
M  V30 16 C -0.465884 3.450116 1.630463 0
M  V30 17 C 0.072552 3.752553 2.883287 0
M  V30 18 C -0.095120 2.917934 3.943227 0
M  V30 19 C -0.815498 1.759178 3.746254 0
M  V30 20 C -1.060768 0.836041 4.748482 0
M  V30 21 C -1.803924 -0.325753 4.515178 0
M  V30 22 C -2.323855 -0.582845 3.241576 0
M  V30 23 C -2.070641 0.337848 2.270450 0
M  V30 24 C -1.336932 1.478965 2.508947 0
M  V30 25 C -1.067026 -0.807328 -1.300884 0
M  V30 26 S -2.645385 -0.785771 -2.098028 0
M  V30 27 O -2.935630 -2.113745 -2.671775 0
M  V30 28 O -3.665214 -0.338117 -1.101375 0
M  V30 29 O -2.527365 0.371590 -3.310374 0
M  V30 30 C -0.367304 -2.026163 -1.343121 0
M  V30 31 C 0.862200 -2.204511 -0.793321 0
M  V30 32 C 1.560184 -3.380690 -0.822742 0
M  V30 33 H 4.258628 -5.819450 -2.341382 0
M  V30 34 H 4.337167 -2.509489 0.822760 0
M  V30 35 H 2.955735 0.168332 1.936189 0
M  V30 36 H 1.816561 1.858492 -0.040429 0
M  V30 37 H -0.244545 4.222439 0.877065 0
M  V30 38 H 0.640107 4.652932 3.064889 0
M  V30 39 H 0.263991 3.028786 4.955137 0
M  V30 40 H -0.658424 1.030734 5.743256 0
M  V30 41 H -1.983719 -1.042872 5.329970 0
M  V30 42 H -2.888300 -1.497269 3.129935 0
M  V30 43 H -2.500319 0.100201 1.312522 0
M  V30 44 H -3.088645 0.098983 -4.093163 0
M  V30 45 H -0.789526 -2.913877 -1.833542 0
M  V30 46 H 1.121032 -4.233918 -1.310149 0
M  V30 END ATOM
M  V30 BEGIN BOND
M  V30 1 2 1 2
M  V30 2 2 2 3
M  V30 3 1 2 4
M  V30 4 1 2 5
M  V30 5 2 5 6
M  V30 6 1 6 7
M  V30 7 1 7 8
M  V30 8 2 7 9
M  V30 9 1 9 10
M  V30 10 1 10 11
M  V30 11 2 10 12
M  V30 12 1 12 13
M  V30 13 2 13 14
M  V30 14 1 14 15
M  V30 15 2 15 16
M  V30 16 1 16 17
M  V30 17 2 17 18
M  V30 18 1 18 19
M  V30 19 2 19 20
M  V30 20 1 20 21
M  V30 21 2 21 22
M  V30 22 1 22 23
M  V30 23 2 23 24
M  V30 24 1 12 25
M  V30 25 1 25 26
M  V30 26 2 26 27
M  V30 27 2 26 28
M  V30 28 1 26 29
M  V30 29 2 25 30
M  V30 30 1 30 31
M  V30 31 2 31 32
M  V30 32 1 32 5
M  V30 33 1 31 9
M  V30 34 1 24 15
M  V30 35 1 24 19
M  V30 36 1 4 33
M  V30 37 1 6 34
M  V30 38 1 8 35
M  V30 39 1 11 36
M  V30 40 1 16 37
M  V30 41 1 17 38
M  V30 42 1 18 39
M  V30 43 1 20 40
M  V30 44 1 21 41
M  V30 45 1 22 42
M  V30 46 1 23 43
M  V30 47 1 29 44
M  V30 48 1 30 45
M  V30 49 1 32 46
M  V30 END BOND
M  V30 END CTAB
M  END
>  <Dataset>  (740) 
ChEMBL_Kinases

>  <Ligand_Instance>  (740) 
nan

>  <PDB_ID>  (740) 
nan

>  <Standardized_SMILES>  (740) 
O=S(=O)(O)c1cc(O)c2c(O)c(/N=N\c3cccc4ccccc34)c(S(=O)(=O)O)cc2c1

>  <Name>  (740) 
nan

>  <Pocket>  (740) 
nan

>  <ATP_Site>  (740) 
nan

>  <Peripheral>  (740) 
nan

>  <Num_H_Atoms_ProtBoundConf>  (740) 
nan

>  <Num_Resolved_Atoms>  (740) 
nan

>  <Num_Not_Resolved_Atoms>  (740) 
nan

$$$$
CHEMBL1399081
     RDKit          3D

  0  0  0  0  0  0  0  0  0  0999 V3000
M  V30 BEGIN CTAB
M  V30 COUNTS 46 48 0 0 0
M  V30 BEGIN ATOM
M  V30 1 C -1.950127 -4.906406 4.576877 0
M  V30 2 C -1.723988 -3.470375 4.201286 0
M  V30 3 C -0.467342 -2.916732 4.044005 0
M  V30 4 C -0.319549 -1.590358 3.699109 0
M  V30 5 C -1.413671 -0.748051 3.493200 0
M  V30 6 C -1.053774 0.621680 3.128641 0
M  V30 7 O -0.544394 1.407024 3.966431 0
M  V30 8 N -1.288094 1.064766 1.788619 0
M  V30 9 C -1.880202 0.218798 0.765461 0
M  V30 10 C -1.015937 0.389387 -0.434696 0
M  V30 11 N -0.232252 1.592088 -0.138238 0
M  V30 12 C 1.013066 2.269027 -0.454921 0
M  V30 13 O 1.173519 3.426927 0.081967 0
M  V30 14 C 2.256183 2.106141 -1.225436 0
M  V30 15 N 2.250982 0.790053 -1.839266 0
M  V30 16 C 2.421858 -0.244393 -0.833297 0
M  V30 17 C 2.237255 -1.576551 -1.504759 0
M  V30 18 O 2.041032 -1.446854 -2.899097 0
M  V30 19 C 3.116961 -0.742803 -3.456330 0
M  V30 20 C 3.250305 0.633646 -2.841888 0
M  V30 21 C -1.167124 2.154986 0.850554 0
M  V30 22 C -2.665883 -1.309818 3.652039 0
M  V30 23 C -2.788642 -2.637418 3.997337 0
M  V30 24 H -0.992691 -5.384676 4.877071 0
M  V30 25 H -2.755011 -4.978628 5.303777 0
M  V30 26 H -2.263341 -5.419975 3.628287 0
M  V30 27 H 0.397465 -3.543834 4.195442 0
M  V30 28 H 0.713679 -1.244642 3.596877 0
M  V30 29 H -2.933432 0.537476 0.560130 0
M  V30 30 H -1.928685 -0.832034 1.059291 0
M  V30 31 H -1.667115 0.714444 -1.298154 0
M  V30 32 H -0.426922 -0.484809 -0.681414 0
M  V30 33 H 3.134682 2.187273 -0.512459 0
M  V30 34 H 2.315818 2.902036 -1.988592 0
M  V30 35 H 1.779816 -0.108066 0.058959 0
M  V30 36 H 3.491625 -0.173339 -0.521892 0
M  V30 37 H 1.353375 -2.078076 -1.089562 0
M  V30 38 H 3.114864 -2.244823 -1.317046 0
M  V30 39 H 4.050044 -1.335663 -3.372706 0
M  V30 40 H 2.900213 -0.613340 -4.528964 0
M  V30 41 H 3.258393 1.432361 -3.615411 0
M  V30 42 H 4.269728 0.660428 -2.361276 0
M  V30 43 H -2.135407 2.358257 0.375743 0
M  V30 44 H -0.747329 3.069692 1.334968 0
M  V30 45 H -3.481143 -0.598003 3.476936 0
M  V30 46 H -3.810512 -2.953291 4.090299 0
M  V30 END ATOM
M  V30 BEGIN BOND
M  V30 1 1 1 2
M  V30 2 2 2 3
M  V30 3 1 3 4
M  V30 4 2 4 5
M  V30 5 1 5 6
M  V30 6 2 6 7
M  V30 7 1 6 8
M  V30 8 1 8 9
M  V30 9 1 9 10
M  V30 10 1 10 11
M  V30 11 1 11 12
M  V30 12 2 12 13
M  V30 13 1 12 14
M  V30 14 1 14 15
M  V30 15 1 15 16
M  V30 16 1 16 17
M  V30 17 1 17 18
M  V30 18 1 18 19
M  V30 19 1 19 20
M  V30 20 1 11 21
M  V30 21 1 5 22
M  V30 22 2 22 23
M  V30 23 1 23 2
M  V30 24 1 21 8
M  V30 25 1 20 15
M  V30 26 1 1 24
M  V30 27 1 1 25
M  V30 28 1 1 26
M  V30 29 1 3 27
M  V30 30 1 4 28
M  V30 31 1 9 29
M  V30 32 1 9 30
M  V30 33 1 10 31
M  V30 34 1 10 32
M  V30 35 1 14 33
M  V30 36 1 14 34
M  V30 37 1 16 35
M  V30 38 1 16 36
M  V30 39 1 17 37
M  V30 40 1 17 38
M  V30 41 1 19 39
M  V30 42 1 19 40
M  V30 43 1 20 41
M  V30 44 1 20 42
M  V30 45 1 21 43
M  V30 46 1 21 44
M  V30 47 1 22 45
M  V30 48 1 23 46
M  V30 END BOND
M  V30 END CTAB
M  END
>  <Dataset>  (741) 
ChEMBL_Kinases

>  <Ligand_Instance>  (741) 
nan

>  <PDB_ID>  (741) 
nan

>  <Standardized_SMILES>  (741) 
Cc1ccc(C(=O)N2CCN(C(=O)CN3CCOCC3)C2)cc1

>  <Name>  (741) 
nan

>  <Pocket>  (741) 
nan

>  <ATP_Site>  (741) 
nan

>  <Peripheral>  (741) 
nan

>  <Num_H_Atoms_ProtBoundConf>  (741) 
nan

>  <Num_Resolved_Atoms>  (741) 
nan

>  <Num_Not_Resolved_Atoms>  (741) 
nan

$$$$
CHEMBL1398250
     RDKit          3D

  0  0  0  0  0  0  0  0  0  0999 V3000
M  V30 BEGIN CTAB
M  V30 COUNTS 31 32 0 0 0
M  V30 BEGIN ATOM
M  V30 1 N -0.457779 -4.695611 2.452861 0
M  V30 2 C -0.616808 -3.621768 1.747069 0
M  V30 3 N -1.245001 -3.684900 0.471546 0
M  V30 4 S -0.066737 -2.015167 2.321249 0
M  V30 5 C -0.491106 -0.786935 1.060980 0
M  V30 6 C 0.277833 -1.010053 -0.198083 0
M  V30 7 C 1.515936 -1.632092 -0.013723 0
M  V30 8 C 2.299707 -1.878295 -1.129830 0
M  V30 9 C 1.859627 -1.514753 -2.384831 0
M  V30 10 C 0.651013 -0.907289 -2.566180 0
M  V30 11 C -0.143016 -0.654558 -1.463220 0
M  V30 12 C -0.232940 0.579169 1.617522 0
M  V30 13 C 0.871664 0.722885 2.457944 0
M  V30 14 C 1.034760 2.029370 2.930573 0
M  V30 15 C 0.220881 3.100973 2.630995 0
M  V30 16 C -0.846225 2.859160 1.791381 0
M  V30 17 C -1.092674 1.604675 1.272052 0
M  V30 18 H 0.012151 -4.613683 3.395062 0
M  V30 19 H -1.971939 -3.858909 -0.247141 0
M  V30 20 H -2.217058 -4.068679 0.641109 0
M  V30 21 H -1.584057 -0.864716 0.891645 0
M  V30 22 H 1.891549 -1.930363 0.957526 0
M  V30 23 H 3.267878 -2.363951 -0.995282 0
M  V30 24 H 2.528194 -1.738956 -3.220072 0
M  V30 25 H 0.298889 -0.618322 -3.548503 0
M  V30 26 H -1.105914 -0.182073 -1.508363 0
M  V30 27 H 1.530491 -0.072070 2.720150 0
M  V30 28 H 1.899813 2.157501 3.592664 0
M  V30 29 H 0.476565 4.053616 3.074918 0
M  V30 30 H -1.495108 3.691573 1.546801 0
M  V30 31 H -1.915951 1.389909 0.616642 0
M  V30 END ATOM
M  V30 BEGIN BOND
M  V30 1 2 1 2 CFG=2
M  V30 2 1 2 3
M  V30 3 1 2 4
M  V30 4 1 4 5
M  V30 5 1 5 6
M  V30 6 2 6 7
M  V30 7 1 7 8
M  V30 8 2 8 9
M  V30 9 1 9 10
M  V30 10 2 10 11
M  V30 11 1 5 12
M  V30 12 2 12 13
M  V30 13 1 13 14
M  V30 14 2 14 15
M  V30 15 1 15 16
M  V30 16 2 16 17
M  V30 17 1 11 6
M  V30 18 1 17 12
M  V30 19 1 1 18
M  V30 20 1 3 19
M  V30 21 1 3 20
M  V30 22 1 5 21
M  V30 23 1 7 22
M  V30 24 1 8 23
M  V30 25 1 9 24
M  V30 26 1 10 25
M  V30 27 1 11 26
M  V30 28 1 13 27
M  V30 29 1 14 28
M  V30 30 1 15 29
M  V30 31 1 16 30
M  V30 32 1 17 31
M  V30 END BOND
M  V30 END CTAB
M  END
>  <Dataset>  (742) 
ChEMBL_Kinases

>  <Ligand_Instance>  (742) 
nan

>  <PDB_ID>  (742) 
nan

>  <Standardized_SMILES>  (742) 
N=C(N)SC(c1ccccc1)c1ccccc1

>  <Name>  (742) 
nan

>  <Pocket>  (742) 
nan

>  <ATP_Site>  (742) 
nan

>  <Peripheral>  (742) 
nan

>  <Num_H_Atoms_ProtBoundConf>  (742) 
nan

>  <Num_Resolved_Atoms>  (742) 
nan

>  <Num_Not_Resolved_Atoms>  (742) 
nan

$$$$
CHEMBL1398474
     RDKit          3D

  0  0  0  0  0  0  0  0  0  0999 V3000
M  V30 BEGIN CTAB
M  V30 COUNTS 49 51 0 0 0
M  V30 BEGIN ATOM
M  V30 1 C -1.567126 -2.816095 1.987713 0
M  V30 2 C -1.024404 -1.834563 2.991242 0
M  V30 3 N 0.280016 -1.406463 2.619529 0
M  V30 4 C 0.911997 -0.555789 3.551559 0
M  V30 5 C 0.185448 0.778580 3.546645 0
M  V30 6 C 1.012714 -2.168061 1.703592 0
M  V30 7 C 2.336668 -1.778552 1.244276 0
M  V30 8 C 2.654467 -0.545682 0.529865 0
M  V30 9 C 2.050540 -0.211354 -0.775106 0
M  V30 10 N 0.658674 -0.070699 -0.836109 0
M  V30 11 C -0.054122 1.030686 -0.291668 0
M  V30 12 C 0.596835 2.078600 0.316748 0
M  V30 13 C 0.002679 3.190108 0.870445 0
M  V30 14 C -1.372019 3.284186 0.821235 0
M  V30 15 C -2.098778 2.270533 0.221923 0
M  V30 16 C -1.424431 1.198341 -0.305936 0
M  V30 17 O -2.211803 0.199747 -0.911026 0
M  V30 18 C -1.602907 -0.923430 -1.477012 0
M  V30 19 C -2.443825 -1.849935 -2.046570 0
M  V30 20 C -1.863628 -2.966083 -2.609367 0
M  V30 21 C -0.477573 -3.161556 -2.609052 0
M  V30 22 Cl 0.172806 -4.597883 -3.341508 0
M  V30 23 C 0.276500 -2.159552 -2.005176 0
M  V30 24 C -0.241545 -1.029962 -1.430432 0
M  V30 25 H -2.591568 -3.170200 2.266870 0
M  V30 26 H -1.694545 -2.345178 0.999903 0
M  V30 27 H -0.864530 -3.696611 1.917308 0
M  V30 28 H -1.021417 -2.286448 4.026376 0
M  V30 29 H -1.694892 -0.949349 3.035004 0
M  V30 30 H 0.760762 -0.940861 4.601418 0
M  V30 31 H 1.952092 -0.389475 3.325600 0
M  V30 32 H -0.526705 0.855888 2.683258 0
M  V30 33 H 0.896500 1.619972 3.386267 0
M  V30 34 H -0.446210 0.941925 4.439755 0
M  V30 35 H 1.149067 -3.184901 2.232461 0
M  V30 36 H 0.300468 -2.475799 0.901293 0
M  V30 37 H 2.776849 -2.625954 0.612438 0
M  V30 38 H 3.011355 -1.877082 2.160687 0
M  V30 39 H 2.648406 0.291296 1.260144 0
M  V30 40 H 3.796292 -0.559278 0.283932 0
M  V30 41 H 2.467662 0.817209 -1.083525 0
M  V30 42 H 2.522974 -0.846743 -1.543935 0
M  V30 43 H 1.673600 2.104207 0.377593 0
M  V30 44 H 0.548240 3.987329 1.340788 0
M  V30 45 H -1.943999 4.110525 1.226570 0
M  V30 46 H -3.177351 2.323337 0.172197 0
M  V30 47 H -3.517107 -1.697482 -2.047128 0
M  V30 48 H -2.519538 -3.713460 -3.067965 0
M  V30 49 H 1.329310 -2.355441 -2.027520 0
M  V30 END ATOM
M  V30 BEGIN BOND
M  V30 1 1 1 2
M  V30 2 1 2 3
M  V30 3 1 3 4
M  V30 4 1 4 5
M  V30 5 1 3 6
M  V30 6 1 6 7
M  V30 7 1 7 8
M  V30 8 1 8 9
M  V30 9 1 9 10
M  V30 10 1 10 11
M  V30 11 2 11 12
M  V30 12 1 12 13
M  V30 13 2 13 14
M  V30 14 1 14 15
M  V30 15 2 15 16
M  V30 16 1 16 17
M  V30 17 1 17 18
M  V30 18 2 18 19
M  V30 19 1 19 20
M  V30 20 2 20 21
M  V30 21 1 21 22
M  V30 22 1 21 23
M  V30 23 2 23 24
M  V30 24 1 24 10
M  V30 25 1 16 11
M  V30 26 1 24 18
M  V30 27 1 1 25
M  V30 28 1 1 26
M  V30 29 1 1 27
M  V30 30 1 2 28
M  V30 31 1 2 29
M  V30 32 1 4 30
M  V30 33 1 4 31
M  V30 34 1 5 32
M  V30 35 1 5 33
M  V30 36 1 5 34
M  V30 37 1 6 35
M  V30 38 1 6 36
M  V30 39 1 7 37
M  V30 40 1 7 38
M  V30 41 1 8 39
M  V30 42 1 8 40
M  V30 43 1 9 41
M  V30 44 1 9 42
M  V30 45 1 12 43
M  V30 46 1 13 44
M  V30 47 1 14 45
M  V30 48 1 15 46
M  V30 49 1 19 47
M  V30 50 1 20 48
M  V30 51 1 23 49
M  V30 END BOND
M  V30 END CTAB
M  END
>  <Dataset>  (743) 
ChEMBL_Kinases

>  <Ligand_Instance>  (743) 
nan

>  <PDB_ID>  (743) 
nan

>  <Standardized_SMILES>  (743) 
CCN(CC)CCCCN1c2ccccc2Oc2ccc(Cl)cc21

>  <Name>  (743) 
nan

>  <Pocket>  (743) 
nan

>  <ATP_Site>  (743) 
nan

>  <Peripheral>  (743) 
nan

>  <Num_H_Atoms_ProtBoundConf>  (743) 
nan

>  <Num_Resolved_Atoms>  (743) 
nan

>  <Num_Not_Resolved_Atoms>  (743) 
nan

$$$$
CHEMBL139856
     RDKit          3D

  0  0  0  0  0  0  0  0  0  0999 V3000
M  V30 BEGIN CTAB
M  V30 COUNTS 42 44 0 0 0
M  V30 BEGIN ATOM
M  V30 1 C 1.488130 -6.797376 2.793059 0
M  V30 2 O 2.135166 -6.455319 1.578101 0
M  V30 3 C 2.026700 -5.192308 1.012847 0
M  V30 4 C 2.656760 -4.872143 -0.162502 0
M  V30 5 C 2.532474 -3.618552 -0.697444 0
M  V30 6 C 1.765011 -2.623777 -0.072208 0
M  V30 7 C 1.800880 -1.408354 -0.832256 0
M  V30 8 O 2.415230 -1.227181 -1.909905 0
M  V30 9 C 1.130553 -0.201437 -0.468921 0
M  V30 10 C 0.946190 0.998410 -0.874041 0
M  V30 11 C 0.382607 2.287367 -0.733003 0
M  V30 12 C 0.847506 3.242400 -1.635855 0
M  V30 13 C 0.404082 4.536694 -1.636690 0
M  V30 14 C -0.533925 4.869318 -0.699273 0
M  V30 15 C -1.071449 4.028150 0.239232 0
M  V30 16 C -2.027145 4.409534 1.150336 0
M  V30 17 C -2.536288 3.500045 2.051377 0
M  V30 18 C -2.029598 2.200559 1.977391 0
M  V30 19 C -1.075002 1.876145 1.047020 0
M  V30 20 C -0.553368 2.760973 0.144280 0
M  V30 21 C 1.168277 -3.022476 1.096450 0
M  V30 22 O 0.429994 -2.032339 1.677973 0
M  V30 23 C -0.260009 -2.248857 2.886620 0
M  V30 24 C 1.259784 -4.261462 1.674437 0
M  V30 25 H 1.750154 -5.982243 3.521747 0
M  V30 26 H 1.883052 -7.723875 3.211119 0
M  V30 27 H 0.386012 -6.789038 2.716397 0
M  V30 28 H 3.230689 -5.662963 -0.602671 0
M  V30 29 H 3.090910 -3.513753 -1.634926 0
M  V30 30 H 0.616657 -0.237547 0.458938 0
M  V30 31 H 1.549556 0.840853 -1.792758 0
M  V30 32 H 1.604220 3.059430 -2.424364 0
M  V30 33 H 0.763046 5.262008 -2.327482 0
M  V30 34 H -0.875163 5.896650 -0.710117 0
M  V30 35 H -2.311101 5.448887 1.075032 0
M  V30 36 H -3.280192 3.899572 2.722734 0
M  V30 37 H -2.472917 1.532147 2.714511 0
M  V30 38 H -0.819982 0.855926 1.115684 0
M  V30 39 H 0.460895 -2.470075 3.726551 0
M  V30 40 H -0.840882 -1.374388 3.212987 0
M  V30 41 H -0.895877 -3.176116 2.840725 0
M  V30 42 H 0.723255 -4.406032 2.600581 0
M  V30 END ATOM
M  V30 BEGIN BOND
M  V30 1 1 1 2
M  V30 2 1 2 3
M  V30 3 2 3 4
M  V30 4 1 4 5
M  V30 5 2 5 6
M  V30 6 1 6 7
M  V30 7 2 7 8
M  V30 8 1 7 9
M  V30 9 2 9 10
M  V30 10 1 10 11
M  V30 11 2 11 12
M  V30 12 1 12 13
M  V30 13 2 13 14
M  V30 14 1 14 15
M  V30 15 2 15 16
M  V30 16 1 16 17
M  V30 17 2 17 18
M  V30 18 1 18 19
M  V30 19 2 19 20
M  V30 20 1 6 21
M  V30 21 1 21 22
M  V30 22 1 22 23
M  V30 23 2 21 24
M  V30 24 1 24 3
M  V30 25 1 20 11
M  V30 26 1 20 15
M  V30 27 1 1 25
M  V30 28 1 1 26
M  V30 29 1 1 27
M  V30 30 1 4 28
M  V30 31 1 5 29
M  V30 32 1 9 30
M  V30 33 1 10 31
M  V30 34 1 12 32
M  V30 35 1 13 33
M  V30 36 1 14 34
M  V30 37 1 16 35
M  V30 38 1 17 36
M  V30 39 1 18 37
M  V30 40 1 19 38
M  V30 41 1 23 39
M  V30 42 1 23 40
M  V30 43 1 23 41
M  V30 44 1 24 42
M  V30 END BOND
M  V30 END CTAB
M  END
>  <Dataset>  (744) 
ChEMBL_Kinases

>  <Ligand_Instance>  (744) 
nan

>  <PDB_ID>  (744) 
nan

>  <Standardized_SMILES>  (744) 
COc1ccc(C(=O)/C=C/c2cccc3ccccc23)c(OC)c1

>  <Name>  (744) 
nan

>  <Pocket>  (744) 
nan

>  <ATP_Site>  (744) 
nan

>  <Peripheral>  (744) 
nan

>  <Num_H_Atoms_ProtBoundConf>  (744) 
nan

>  <Num_Resolved_Atoms>  (744) 
nan

>  <Num_Not_Resolved_Atoms>  (744) 
nan

$$$$
CHEMBL1398581
     RDKit          3D

  0  0  0  0  0  0  0  0  0  0999 V3000
M  V30 BEGIN CTAB
M  V30 COUNTS 31 33 0 0 0
M  V30 BEGIN ATOM
M  V30 1 O 1.209375 -0.927008 2.835426 0
M  V30 2 C 0.016423 -0.636480 2.576125 0
M  V30 3 N -0.745125 -1.518610 1.795480 0
M  V30 4 C -0.341023 -2.777684 1.212550 0
M  V30 5 C 0.498857 -2.531761 0.003498 0
M  V30 6 C 1.863170 -2.428805 0.045172 0
M  V30 7 C 2.601377 -2.193618 -1.116147 0
M  V30 8 C 1.951535 -2.064482 -2.312217 0
M  V30 9 C 0.565088 -2.165891 -2.376745 0
M  V30 10 C -0.148448 -2.396467 -1.232257 0
M  V30 11 O 0.163702 -1.997046 -3.706601 0
M  V30 12 C 1.244497 -1.364724 -4.377990 0
M  V30 13 O 2.350144 -1.833272 -3.626008 0
M  V30 14 C -0.516265 0.614112 3.106063 0
M  V30 15 C 0.254625 1.453356 3.869865 0
M  V30 16 C -0.334513 2.614607 4.328101 0
M  V30 17 C -1.636910 2.931761 4.040433 0
M  V30 18 C -2.383336 2.066959 3.270678 0
M  V30 19 N -1.792565 0.940203 2.832946 0
M  V30 20 H -1.740951 -1.178977 1.635686 0
M  V30 21 H -1.239553 -3.321372 0.865431 0
M  V30 22 H 0.177258 -3.432809 1.942003 0
M  V30 23 H 2.394032 -2.527713 0.964765 0
M  V30 24 H 3.689260 -2.108047 -1.103685 0
M  V30 25 H -1.242046 -2.469728 -1.327101 0
M  V30 26 H 1.114897 -0.270619 -4.291637 0
M  V30 27 H 1.236200 -1.721120 -5.418802 0
M  V30 28 H 1.273921 1.236655 4.113100 0
M  V30 29 H 0.188307 3.339151 4.936093 0
M  V30 30 H -2.105725 3.842434 4.396644 0
M  V30 31 H -3.411573 2.302684 3.034596 0
M  V30 END ATOM
M  V30 BEGIN BOND
M  V30 1 2 1 2
M  V30 2 1 2 3
M  V30 3 1 3 4
M  V30 4 1 4 5
M  V30 5 2 5 6
M  V30 6 1 6 7
M  V30 7 2 7 8
M  V30 8 1 8 9
M  V30 9 2 9 10
M  V30 10 1 9 11
M  V30 11 1 11 12
M  V30 12 1 12 13
M  V30 13 1 2 14
M  V30 14 2 14 15
M  V30 15 1 15 16
M  V30 16 2 16 17
M  V30 17 1 17 18
M  V30 18 2 18 19
M  V30 19 1 10 5
M  V30 20 1 19 14
M  V30 21 1 13 8
M  V30 22 1 3 20
M  V30 23 1 4 21
M  V30 24 1 4 22
M  V30 25 1 6 23
M  V30 26 1 7 24
M  V30 27 1 10 25
M  V30 28 1 12 26
M  V30 29 1 12 27
M  V30 30 1 15 28
M  V30 31 1 16 29
M  V30 32 1 17 30
M  V30 33 1 18 31
M  V30 END BOND
M  V30 END CTAB
M  END
>  <Dataset>  (745) 
ChEMBL_Kinases

>  <Ligand_Instance>  (745) 
nan

>  <PDB_ID>  (745) 
nan

>  <Standardized_SMILES>  (745) 
O=C(NCc1ccc2c(c1)OCO2)c1ccccn1

>  <Name>  (745) 
nan

>  <Pocket>  (745) 
nan

>  <ATP_Site>  (745) 
nan

>  <Peripheral>  (745) 
nan

>  <Num_H_Atoms_ProtBoundConf>  (745) 
nan

>  <Num_Resolved_Atoms>  (745) 
nan

>  <Num_Not_Resolved_Atoms>  (745) 
nan

$$$$
CHEMBL1398667
     RDKit          3D

  0  0  0  0  0  0  0  0  0  0999 V3000
M  V30 BEGIN CTAB
M  V30 COUNTS 63 65 0 0 0
M  V30 BEGIN ATOM
M  V30 1 C 3.580614 -2.921955 3.119938 0
M  V30 2 C 3.400489 -1.680612 2.624753 0
M  V30 3 C 2.051639 -0.990425 2.658777 0 CFG=1
M  V30 4 C 1.622229 -1.037751 4.124947 0
M  V30 5 C 2.266981 0.397865 2.208295 0
M  V30 6 C 1.268065 0.920799 1.199024 0
M  V30 7 O 1.641229 1.967045 0.699221 0
M  V30 8 C 0.118177 -0.000631 1.113011 0 CFG=1
M  V30 9 O -0.385723 -0.041808 2.419395 0
M  V30 10 C -1.053509 0.418728 0.278627 0 CFG=1
M  V30 11 C -2.317583 -0.192547 0.862251 0
M  V30 12 C -1.242397 1.895096 0.274309 0 CFG=2
M  V30 13 O -2.524652 2.329981 0.649260 0
M  V30 14 C -1.063326 2.523144 -1.093626 0
M  V30 15 C -2.139879 1.819741 -1.932009 0
M  V30 16 C -1.527747 0.466672 -2.232041 0
M  V30 17 C -0.636372 0.715261 -3.463660 0
M  V30 18 C -2.662531 -0.358921 -2.797911 0
M  V30 19 C -0.762663 -0.137866 -1.123072 0 CFG=2
M  V30 20 C -0.700436 -1.617907 -1.143716 0 CFG=2
M  V30 21 O -1.873052 -2.294074 -1.440203 0
M  V30 22 C -0.139729 -2.263065 0.066620 0 CFG=2
M  V30 23 O -1.058653 -2.904666 0.918544 0
M  V30 24 C -1.049142 -4.249765 1.220884 0
M  V30 25 C -2.133661 -4.675042 2.149902 0
M  V30 26 O -0.192003 -5.022813 0.741952 0
M  V30 27 C 0.771061 -1.300397 0.749387 0 CFG=1
M  V30 28 C 1.986681 -1.196965 -0.129894 0
M  V30 29 O 1.223320 -1.818842 1.964287 0
M  V30 30 H 4.476898 -3.524319 3.159839 0
M  V30 31 H 2.754944 -3.440695 3.550064 0
M  V30 32 H 4.343160 -1.292954 2.222634 0
M  V30 33 H 0.748477 -1.700884 4.295219 0
M  V30 34 H 1.390200 -0.004302 4.517332 0
M  V30 35 H 2.406394 -1.412704 4.798814 0
M  V30 36 H 3.313366 0.614897 1.906557 0
M  V30 37 H 2.107994 1.092023 3.084217 0
M  V30 38 H -0.345271 0.878679 2.830481 0
M  V30 39 H -3.137119 0.550849 1.034631 0
M  V30 40 H -2.813337 -0.917091 0.195165 0
M  V30 41 H -2.158553 -0.587913 1.907343 0
M  V30 42 H -0.619765 2.467529 0.992171 0
M  V30 43 H -2.616378 2.430829 1.629629 0
M  V30 44 H -0.090158 2.323174 -1.559100 0
M  V30 45 H -1.319698 3.584298 -1.037256 0
M  V30 46 H -3.089792 1.741601 -1.378768 0
M  V30 47 H -2.326287 2.345246 -2.884620 0
M  V30 48 H -0.947159 1.592271 -4.046934 0
M  V30 49 H 0.412273 0.915139 -3.142440 0
M  V30 50 H -0.622512 -0.154609 -4.147304 0
M  V30 51 H -3.455182 -0.600806 -2.094739 0
M  V30 52 H -2.318829 -1.192853 -3.452164 0
M  V30 53 H -3.161871 0.332880 -3.542935 0
M  V30 54 H 0.292107 0.232243 -1.284928 0
M  V30 55 H -0.039888 -1.868068 -2.029591 0
M  V30 56 H -1.710082 -3.134195 -1.939556 0
M  V30 57 H 0.528670 -3.122703 -0.247710 0
M  V30 58 H -1.947707 -4.130500 3.106086 0
M  V30 59 H -2.144525 -5.774638 2.295595 0
M  V30 60 H -3.103345 -4.288125 1.761662 0
M  V30 61 H 1.833396 -1.600562 -1.163547 0
M  V30 62 H 2.830865 -1.831195 0.232781 0
M  V30 63 H 2.405821 -0.203388 -0.235590 0
M  V30 END ATOM
M  V30 BEGIN BOND
M  V30 1 2 1 2
M  V30 2 1 2 3
M  V30 3 1 3 4 CFG=1
M  V30 4 1 3 5
M  V30 5 1 5 6
M  V30 6 2 6 7
M  V30 7 1 6 8
M  V30 8 1 8 9 CFG=1
M  V30 9 1 8 10
M  V30 10 1 10 11 CFG=1
M  V30 11 1 10 12
M  V30 12 1 12 13
M  V30 13 1 12 14
M  V30 14 1 14 15
M  V30 15 1 15 16
M  V30 16 1 16 17
M  V30 17 1 16 18
M  V30 18 1 16 19
M  V30 19 1 19 20
M  V30 20 1 20 21
M  V30 21 1 20 22
M  V30 22 1 22 23
M  V30 23 1 23 24
M  V30 24 1 24 25
M  V30 25 2 24 26
M  V30 26 1 22 27
M  V30 27 1 27 28 CFG=3
M  V30 28 1 27 29
M  V30 29 1 29 3
M  V30 30 1 27 8
M  V30 31 1 19 10
M  V30 32 1 1 30
M  V30 33 1 1 31
M  V30 34 1 2 32
M  V30 35 1 4 33
M  V30 36 1 4 34
M  V30 37 1 4 35
M  V30 38 1 5 36
M  V30 39 1 5 37
M  V30 40 1 9 38
M  V30 41 1 11 39
M  V30 42 1 11 40
M  V30 43 1 11 41
M  V30 44 1 12 42 CFG=1
M  V30 45 1 13 43
M  V30 46 1 14 44
M  V30 47 1 14 45
M  V30 48 1 15 46
M  V30 49 1 15 47
M  V30 50 1 17 48
M  V30 51 1 17 49
M  V30 52 1 17 50
M  V30 53 1 18 51
M  V30 54 1 18 52
M  V30 55 1 18 53
M  V30 56 1 19 54 CFG=3
M  V30 57 1 20 55 CFG=3
M  V30 58 1 21 56
M  V30 59 1 22 57 CFG=3
M  V30 60 1 25 58
M  V30 61 1 25 59
M  V30 62 1 25 60
M  V30 63 1 28 61
M  V30 64 1 28 62
M  V30 65 1 28 63
M  V30 END BOND
M  V30 END CTAB
M  END
>  <Dataset>  (746) 
ChEMBL_Kinases

>  <Ligand_Instance>  (746) 
nan

>  <PDB_ID>  (746) 
nan

>  <Standardized_SMILES>  (746) 
C=C[C@@]1(C)CC(=O)[C@@]2(O)[C@@]3(C)[C@H](O)CCC(C)(C)[C@@H]3[C@H](O)[C@H](OC(C)=O)[C@]2(C)O1

>  <Name>  (746) 
nan

>  <Pocket>  (746) 
nan

>  <ATP_Site>  (746) 
nan

>  <Peripheral>  (746) 
nan

>  <Num_H_Atoms_ProtBoundConf>  (746) 
nan

>  <Num_Resolved_Atoms>  (746) 
nan

>  <Num_Not_Resolved_Atoms>  (746) 
nan

$$$$
CHEMBL1398751
     RDKit          3D

  0  0  0  0  0  0  0  0  0  0999 V3000
M  V30 BEGIN CTAB
M  V30 COUNTS 69 72 0 0 0
M  V30 BEGIN ATOM
M  V30 1 C 2.698576 -4.285747 6.589981 0
M  V30 2 O 2.577926 -4.558528 5.214813 0
M  V30 3 C 2.540959 -3.533738 4.295194 0
M  V30 4 C 2.608379 -2.173370 4.529324 0
M  V30 5 C 2.560333 -1.257276 3.524878 0
M  V30 6 C 2.438809 -1.633017 2.181158 0
M  V30 7 C 2.379503 -0.640387 1.084878 0
M  V30 8 N 1.163555 -0.323355 0.523437 0
M  V30 9 C 1.252666 0.564675 -0.586426 0
M  V30 10 C 0.355852 1.740000 -0.340799 0
M  V30 11 N -0.957371 1.242867 -0.070109 0
M  V30 12 C -2.043311 2.086776 -0.385936 0
M  V30 13 C -2.139413 2.437492 -1.817649 0
M  V30 14 C -1.720742 3.631232 -2.395680 0
M  V30 15 N -1.917791 3.648025 -3.722194 0
M  V30 16 C -1.672717 4.604419 -4.776050 0
M  V30 17 N -2.458318 2.483563 -4.014617 0
M  V30 18 C -2.609629 1.723628 -2.896588 0
M  V30 19 C -3.172996 0.403042 -2.923963 0
M  V30 20 C -4.142192 -0.151305 -2.132330 0
M  V30 21 C -4.594694 -1.437001 -2.245243 0
M  V30 22 C -4.061026 -2.258161 -3.210903 0
M  V30 23 C -3.078382 -1.733966 -4.031595 0
M  V30 24 C -2.646870 -0.436832 -3.890234 0
M  V30 25 C -1.119874 -0.151107 -0.124330 0
M  V30 26 C -0.054303 -0.911275 0.689560 0
M  V30 27 C -0.631195 -1.053370 2.074352 0
M  V30 28 C -0.844510 0.233676 2.800192 0
M  V30 29 O 0.277616 0.995195 3.010980 0
M  V30 30 C 2.370906 -3.012086 1.943729 0
M  V30 31 C 2.254397 -3.519983 0.552674 0
M  V30 32 C 2.418957 -3.953670 2.963942 0
M  V30 33 C 2.338823 -5.397265 2.614702 0
M  V30 34 H 2.521927 -5.272311 7.109703 0
M  V30 35 H 3.708528 -3.933052 6.866837 0
M  V30 36 H 1.962959 -3.539137 6.964047 0
M  V30 37 H 2.701929 -1.906947 5.581891 0
M  V30 38 H 2.620376 -0.212633 3.788521 0
M  V30 39 H 3.183397 -0.879751 0.309448 0
M  V30 40 H 2.808679 0.328366 1.507444 0
M  V30 41 H 0.858653 0.062758 -1.521486 0
M  V30 42 H 2.291275 0.886301 -0.818371 0
M  V30 43 H 0.418509 2.526974 -1.104948 0
M  V30 44 H 0.730082 2.221294 0.601477 0
M  V30 45 H -2.979642 1.611178 -0.055152 0
M  V30 46 H -1.898302 3.047883 0.191649 0
M  V30 47 H -1.275138 4.507692 -1.922104 0
M  V30 48 H -1.344892 5.574047 -4.382500 0
M  V30 49 H -0.859901 4.218781 -5.437849 0
M  V30 50 H -2.588104 4.698398 -5.402389 0
M  V30 51 H -4.565435 0.482400 -1.385257 0
M  V30 52 H -5.367905 -1.774147 -1.564799 0
M  V30 53 H -4.419100 -3.282408 -3.303713 0
M  V30 54 H -2.703143 -2.443262 -4.771472 0
M  V30 55 H -1.876128 -0.186590 -4.608648 0
M  V30 56 H -2.130461 -0.423625 0.235670 0
M  V30 57 H -1.073751 -0.490000 -1.194008 0
M  V30 58 H -0.113592 -1.950463 0.246069 0
M  V30 59 H -1.668927 -1.478204 1.905341 0
M  V30 60 H -0.147725 -1.826207 2.698385 0
M  V30 61 H -1.241607 -0.028943 3.821223 0
M  V30 62 H -1.698600 0.825278 2.353538 0
M  V30 63 H -0.028998 1.928726 3.167887 0
M  V30 64 H 2.296271 -2.734893 -0.201027 0
M  V30 65 H 2.957961 -4.369158 0.399872 0
M  V30 66 H 1.223454 -3.971658 0.473826 0
M  V30 67 H 3.358063 -5.855310 2.608488 0
M  V30 68 H 1.792699 -5.592665 1.691404 0
M  V30 69 H 1.783502 -5.947634 3.426178 0
M  V30 END ATOM
M  V30 BEGIN BOND
M  V30 1 1 1 2
M  V30 2 1 2 3
M  V30 3 2 3 4
M  V30 4 1 4 5
M  V30 5 2 5 6
M  V30 6 1 6 7
M  V30 7 1 7 8
M  V30 8 1 8 9
M  V30 9 1 9 10
M  V30 10 1 10 11
M  V30 11 1 11 12
M  V30 12 1 12 13
M  V30 13 2 13 14
M  V30 14 1 14 15
M  V30 15 1 15 16
M  V30 16 1 15 17
M  V30 17 2 17 18
M  V30 18 1 18 19
M  V30 19 2 19 20
M  V30 20 1 20 21
M  V30 21 2 21 22
M  V30 22 1 22 23
M  V30 23 2 23 24
M  V30 24 1 11 25
M  V30 25 1 25 26
M  V30 26 1 26 27
M  V30 27 1 27 28
M  V30 28 1 28 29
M  V30 29 1 6 30
M  V30 30 1 30 31
M  V30 31 2 30 32
M  V30 32 1 32 33
M  V30 33 1 32 3
M  V30 34 1 26 8
M  V30 35 1 18 13
M  V30 36 1 24 19
M  V30 37 1 1 34
M  V30 38 1 1 35
M  V30 39 1 1 36
M  V30 40 1 4 37
M  V30 41 1 5 38
M  V30 42 1 7 39
M  V30 43 1 7 40
M  V30 44 1 9 41
M  V30 45 1 9 42
M  V30 46 1 10 43
M  V30 47 1 10 44
M  V30 48 1 12 45
M  V30 49 1 12 46
M  V30 50 1 14 47
M  V30 51 1 16 48
M  V30 52 1 16 49
M  V30 53 1 16 50
M  V30 54 1 20 51
M  V30 55 1 21 52
M  V30 56 1 22 53
M  V30 57 1 23 54
M  V30 58 1 24 55
M  V30 59 1 25 56
M  V30 60 1 25 57
M  V30 61 1 26 58
M  V30 62 1 27 59
M  V30 63 1 27 60
M  V30 64 1 28 61
M  V30 65 1 28 62
M  V30 66 1 29 63
M  V30 67 1 31 64
M  V30 68 1 31 65
M  V30 69 1 31 66
M  V30 70 1 33 67
M  V30 71 1 33 68
M  V30 72 1 33 69
M  V30 END BOND
M  V30 END CTAB
M  END
>  <Dataset>  (747) 
ChEMBL_Kinases

>  <Ligand_Instance>  (747) 
nan

>  <PDB_ID>  (747) 
nan

>  <Standardized_SMILES>  (747) 
COc1ccc(CN2CCN(Cc3cn(C)nc3-c3ccccc3)CC2CCO)c(C)c1C

>  <Name>  (747) 
nan

>  <Pocket>  (747) 
nan

>  <ATP_Site>  (747) 
nan

>  <Peripheral>  (747) 
nan

>  <Num_H_Atoms_ProtBoundConf>  (747) 
nan

>  <Num_Resolved_Atoms>  (747) 
nan

>  <Num_Not_Resolved_Atoms>  (747) 
nan

$$$$
CHEMBL1398954
     RDKit          3D

  0  0  0  0  0  0  0  0  0  0999 V3000
M  V30 BEGIN CTAB
M  V30 COUNTS 60 62 0 0 0
M  V30 BEGIN ATOM
M  V30 1 C 0.168544 -5.622694 1.195358 0
M  V30 2 C 0.609453 -4.197808 0.998522 0
M  V30 3 C 0.859743 -3.817871 -0.426183 0
M  V30 4 C 2.303083 -3.504997 -0.738097 0
M  V30 5 C 2.892153 -2.468420 0.193365 0
M  V30 6 N 2.623526 -1.127022 -0.237753 0
M  V30 7 C 3.593073 -0.140985 -0.569236 0
M  V30 8 O 4.787072 -0.545502 -0.452871 0
M  V30 9 C 3.090534 1.204306 -0.998828 0
M  V30 10 C 2.253778 1.815770 0.104687 0
M  V30 11 C 1.074970 2.504425 -0.553994 0
M  V30 12 N 0.274205 1.428515 -1.111368 0
M  V30 13 C -0.967817 0.871528 -0.692400 0
M  V30 14 O -1.489909 -0.088613 -1.354225 0
M  V30 15 N -1.608171 1.391671 0.455406 0
M  V30 16 C -2.857035 0.810865 0.852857 0
M  V30 17 C -2.651124 0.184917 2.232025 0
M  V30 18 C -3.728525 -0.857870 2.414568 0
M  V30 19 C -5.017886 -0.338861 1.835584 0
M  V30 20 C -5.098000 1.169999 1.814318 0
M  V30 21 C -3.985079 1.788833 1.005962 0
M  V30 22 C 0.945384 0.899457 -2.295979 0
M  V30 23 C 2.409876 1.181877 -2.330779 0
M  V30 24 C 2.367853 -2.591734 1.607999 0
M  V30 25 C 1.799019 -3.950086 1.896325 0
M  V30 26 H -0.907210 -5.743678 0.933007 0
M  V30 27 H 0.820297 -6.343678 0.685320 0
M  V30 28 H 0.220223 -5.811301 2.295150 0
M  V30 29 H -0.219356 -3.549252 1.403444 0
M  V30 30 H 0.576830 -4.652291 -1.098147 0
M  V30 31 H 0.253674 -2.943118 -0.762261 0
M  V30 32 H 2.291789 -3.061118 -1.772495 0
M  V30 33 H 2.899105 -4.430847 -0.808201 0
M  V30 34 H 3.987486 -2.623865 0.230155 0
M  V30 35 H 1.587034 -1.009543 -0.262265 0
M  V30 36 H 3.962057 1.914952 -1.116173 0
M  V30 37 H 1.851682 1.017721 0.767895 0
M  V30 38 H 2.833356 2.492678 0.744526 0
M  V30 39 H 0.505594 3.094909 0.192144 0
M  V30 40 H 1.437751 3.203239 -1.311316 0
M  V30 41 H -1.239205 2.172983 1.041672 0
M  V30 42 H -3.198540 -0.004991 0.203385 0
M  V30 43 H -2.807607 0.995906 2.965777 0
M  V30 44 H -1.644270 -0.228747 2.361498 0
M  V30 45 H -3.811427 -1.166081 3.472016 0
M  V30 46 H -3.426172 -1.753640 1.819823 0
M  V30 47 H -5.836381 -0.683221 2.507703 0
M  V30 48 H -5.229690 -0.767677 0.846282 0
M  V30 49 H -6.057677 1.418476 1.315943 0
M  V30 50 H -5.140830 1.575670 2.833860 0
M  V30 51 H -3.641387 2.721010 1.464839 0
M  V30 52 H -4.331573 2.036072 -0.035377 0
M  V30 53 H 0.792597 -0.199443 -2.372657 0
M  V30 54 H 0.479630 1.409534 -3.164572 0
M  V30 55 H 2.636629 2.101209 -2.938519 0
M  V30 56 H 2.900968 0.360345 -2.918192 0
M  V30 57 H 3.180865 -2.380212 2.326224 0
M  V30 58 H 1.566649 -1.847801 1.781785 0
M  V30 59 H 1.444952 -3.931047 2.949115 0
M  V30 60 H 2.570114 -4.727820 1.838217 0
M  V30 END ATOM
M  V30 BEGIN BOND
M  V30 1 1 1 2
M  V30 2 1 2 3
M  V30 3 1 3 4
M  V30 4 1 4 5
M  V30 5 1 5 6
M  V30 6 1 6 7
M  V30 7 2 7 8
M  V30 8 1 7 9
M  V30 9 1 9 10
M  V30 10 1 10 11
M  V30 11 1 11 12
M  V30 12 1 12 13
M  V30 13 2 13 14
M  V30 14 1 13 15
M  V30 15 1 15 16
M  V30 16 1 16 17
M  V30 17 1 17 18
M  V30 18 1 18 19
M  V30 19 1 19 20
M  V30 20 1 20 21
M  V30 21 1 12 22
M  V30 22 1 22 23
M  V30 23 1 5 24
M  V30 24 1 24 25
M  V30 25 1 25 2
M  V30 26 1 23 9
M  V30 27 1 21 16
M  V30 28 1 1 26
M  V30 29 1 1 27
M  V30 30 1 1 28
M  V30 31 1 2 29
M  V30 32 1 3 30
M  V30 33 1 3 31
M  V30 34 1 4 32
M  V30 35 1 4 33
M  V30 36 1 5 34
M  V30 37 1 6 35
M  V30 38 1 9 36
M  V30 39 1 10 37
M  V30 40 1 10 38
M  V30 41 1 11 39
M  V30 42 1 11 40
M  V30 43 1 15 41
M  V30 44 1 16 42
M  V30 45 1 17 43
M  V30 46 1 17 44
M  V30 47 1 18 45
M  V30 48 1 18 46
M  V30 49 1 19 47
M  V30 50 1 19 48
M  V30 51 1 20 49
M  V30 52 1 20 50
M  V30 53 1 21 51
M  V30 54 1 21 52
M  V30 55 1 22 53
M  V30 56 1 22 54
M  V30 57 1 23 55
M  V30 58 1 23 56
M  V30 59 1 24 57
M  V30 60 1 24 58
M  V30 61 1 25 59
M  V30 62 1 25 60
M  V30 END BOND
M  V30 END CTAB
M  END
>  <Dataset>  (748) 
ChEMBL_Kinases

>  <Ligand_Instance>  (748) 
nan

>  <PDB_ID>  (748) 
nan

>  <Standardized_SMILES>  (748) 
CC1CCC(NC(=O)C2CCN(C(=O)NC3CCCCC3)CC2)CC1

>  <Name>  (748) 
nan

>  <Pocket>  (748) 
nan

>  <ATP_Site>  (748) 
nan

>  <Peripheral>  (748) 
nan

>  <Num_H_Atoms_ProtBoundConf>  (748) 
nan

>  <Num_Resolved_Atoms>  (748) 
nan

>  <Num_Not_Resolved_Atoms>  (748) 
nan

$$$$
CHEMBL1399018
     RDKit          3D

  0  0  0  0  0  0  0  0  0  0999 V3000
M  V30 BEGIN CTAB
M  V30 COUNTS 59 63 0 0 0
M  V30 BEGIN ATOM
M  V30 1 O 0.898471 -0.511681 3.457292 0
M  V30 2 C 1.375326 -0.987177 2.395550 0
M  V30 3 C 2.321795 -0.386895 1.469623 0
M  V30 4 O 3.427896 -0.853929 0.949639 0
M  V30 5 C 4.160574 -0.133410 0.110681 0
M  V30 6 O 5.214864 -0.683373 -0.333423 0
M  V30 7 C 3.812599 1.149999 -0.271812 0
M  V30 8 C 4.606417 1.859222 -1.150311 0
M  V30 9 C 4.243199 3.143109 -1.527323 0
M  V30 10 C 3.082580 3.679815 -1.005131 0
M  V30 11 C 2.309413 2.954016 -0.131712 0
M  V30 12 C 2.642420 1.686648 0.258026 0
M  V30 13 C 1.899612 0.902066 1.135313 0
M  V30 14 C 0.689739 1.586838 1.628765 0
M  V30 15 C 1.026500 2.252706 2.805949 0
M  V30 16 C 0.074815 2.987634 3.490517 0
M  V30 17 C -1.226021 3.063193 3.002236 0
M  V30 18 C -1.517145 2.390832 1.836254 0
M  V30 19 C -0.581530 1.657211 1.145986 0
M  V30 20 N 0.960030 -2.273643 2.015958 0
M  V30 21 C -0.005175 -3.015716 2.839091 0
M  V30 22 C -1.318435 -3.056357 2.031870 0
M  V30 23 N -1.014464 -3.435860 0.715088 0
M  V30 24 C -1.911859 -3.186139 -0.328173 0
M  V30 25 C -3.264843 -3.815956 -0.186730 0
M  V30 26 C -3.790168 -4.038984 -1.610764 0
M  V30 27 C -3.224656 -2.997611 -2.553182 0
M  V30 28 C -2.980135 -1.665769 -1.904176 0
M  V30 29 C -2.165867 -1.718152 -0.646903 0
M  V30 30 C 0.272252 -3.924951 0.409331 0
M  V30 31 C 1.384215 -3.016336 0.841908 0
M  V30 32 H 5.500414 1.441876 -1.551835 0
M  V30 33 H 4.867614 3.688874 -2.214069 0
M  V30 34 H 2.760994 4.683429 -1.274538 0
M  V30 35 H 1.421054 3.397756 0.255502 0
M  V30 36 H 1.981308 2.302607 3.323382 0
M  V30 37 H 0.247519 3.538259 4.415480 0
M  V30 38 H -2.055305 3.609032 3.452663 0
M  V30 39 H -2.503949 2.408115 1.399812 0
M  V30 40 H -0.685929 1.097687 0.234978 0
M  V30 41 H -0.134834 -2.599812 3.835338 0
M  V30 42 H 0.388625 -4.048639 2.919614 0
M  V30 43 H -2.083563 -3.641361 2.557604 0
M  V30 44 H -1.670718 -2.001468 2.017434 0
M  V30 45 H -1.457632 -3.610296 -1.276246 0
M  V30 46 H -3.953020 -3.043352 0.258008 0
M  V30 47 H -3.270492 -4.728734 0.415819 0
M  V30 48 H -3.334048 -4.999553 -1.940611 0
M  V30 49 H -4.873231 -4.147736 -1.652913 0
M  V30 50 H -2.324929 -3.358573 -3.105912 0
M  V30 51 H -3.999734 -2.846827 -3.337266 0
M  V30 52 H -3.965856 -1.192249 -1.709237 0
M  V30 53 H -2.424920 -1.052660 -2.643805 0
M  V30 54 H -1.200954 -1.179300 -0.725978 0
M  V30 55 H -2.760764 -1.328680 0.204697 0
M  V30 56 H 0.342921 -3.973907 -0.718038 0
M  V30 57 H 0.449323 -4.985427 0.718630 0
M  V30 58 H 1.791138 -2.372193 0.037166 0
M  V30 59 H 2.215415 -3.683157 1.224430 0
M  V30 END ATOM
M  V30 BEGIN BOND
M  V30 1 2 1 2
M  V30 2 1 2 3
M  V30 3 1 3 4
M  V30 4 1 4 5
M  V30 5 2 5 6
M  V30 6 1 5 7
M  V30 7 2 7 8
M  V30 8 1 8 9
M  V30 9 2 9 10
M  V30 10 1 10 11
M  V30 11 2 11 12
M  V30 12 1 12 13
M  V30 13 1 13 14
M  V30 14 2 14 15
M  V30 15 1 15 16
M  V30 16 2 16 17
M  V30 17 1 17 18
M  V30 18 2 18 19
M  V30 19 1 2 20
M  V30 20 1 20 21
M  V30 21 1 21 22
M  V30 22 1 22 23
M  V30 23 1 23 24
M  V30 24 1 24 25
M  V30 25 1 25 26
M  V30 26 1 26 27
M  V30 27 1 27 28
M  V30 28 1 28 29
M  V30 29 1 23 30
M  V30 30 1 30 31
M  V30 31 2 13 3
M  V30 32 1 19 14
M  V30 33 1 31 20
M  V30 34 1 12 7
M  V30 35 1 29 24
M  V30 36 1 8 32
M  V30 37 1 9 33
M  V30 38 1 10 34
M  V30 39 1 11 35
M  V30 40 1 15 36
M  V30 41 1 16 37
M  V30 42 1 17 38
M  V30 43 1 18 39
M  V30 44 1 19 40
M  V30 45 1 21 41
M  V30 46 1 21 42
M  V30 47 1 22 43
M  V30 48 1 22 44
M  V30 49 1 24 45
M  V30 50 1 25 46
M  V30 51 1 25 47
M  V30 52 1 26 48
M  V30 53 1 26 49
M  V30 54 1 27 50
M  V30 55 1 27 51
M  V30 56 1 28 52
M  V30 57 1 28 53
M  V30 58 1 29 54
M  V30 59 1 29 55
M  V30 60 1 30 56
M  V30 61 1 30 57
M  V30 62 1 31 58
M  V30 63 1 31 59
M  V30 END BOND
M  V30 END CTAB
M  END
>  <Dataset>  (749) 
ChEMBL_Kinases

>  <Ligand_Instance>  (749) 
nan

>  <PDB_ID>  (749) 
nan

>  <Standardized_SMILES>  (749) 
O=C(c1oc(=O)c2ccccc2c1-c1ccccc1)N1CCN(C2CCCCC2)CC1

>  <Name>  (749) 
nan

>  <Pocket>  (749) 
nan

>  <ATP_Site>  (749) 
nan

>  <Peripheral>  (749) 
nan

>  <Num_H_Atoms_ProtBoundConf>  (749) 
nan

>  <Num_Resolved_Atoms>  (749) 
nan

>  <Num_Not_Resolved_Atoms>  (749) 
nan

$$$$
CHEMBL1398137
     RDKit          3D

  0  0  0  0  0  0  0  0  0  0999 V3000
M  V30 BEGIN CTAB
M  V30 COUNTS 61 65 0 0 0
M  V30 BEGIN ATOM
M  V30 1 O 2.986141 -3.040020 0.260821 0
M  V30 2 C 2.176499 -2.169615 0.673959 0
M  V30 3 C 2.576592 -1.381417 1.753035 0
M  V30 4 C 3.938313 -1.622999 2.344749 0
M  V30 5 C 5.013216 -1.030068 1.446269 0
M  V30 6 C 4.743149 0.413257 1.355098 0
M  V30 7 C 5.318918 1.260937 2.273536 0
M  V30 8 C 5.086742 2.618710 2.218205 0
M  V30 9 C 4.268882 3.206531 1.245876 0
M  V30 10 C 3.686866 2.338200 0.315111 0
M  V30 11 C 3.939821 0.980487 0.397916 0
M  V30 12 N 1.719883 -0.447404 2.203768 0
M  V30 13 C 0.542407 -0.328828 1.595865 0
M  V30 14 C -0.319654 0.636444 2.069771 0
M  V30 15 N -1.504159 0.749628 1.445614 0
M  V30 16 C -1.869172 -0.017503 0.410254 0
M  V30 17 N -3.145809 0.216310 -0.153752 0
M  V30 18 C -3.738766 -0.516589 -1.242287 0
M  V30 19 C -4.474284 0.359701 -2.215357 0
M  V30 20 N -4.093484 1.751385 -2.116373 0
M  V30 21 C -4.288063 2.273671 -0.780259 0
M  V30 22 C -4.031228 1.246273 0.301056 0
M  V30 23 N -1.068348 -0.975256 -0.093498 0
M  V30 24 C 0.135253 -1.111133 0.518660 0
M  V30 25 N 0.970114 -2.054799 0.044336 0
M  V30 26 C 0.698424 -2.939089 -1.048910 0
M  V30 27 C 0.061065 -4.242436 -0.679326 0
M  V30 28 C -1.244717 -4.091056 -0.009505 0
M  V30 29 C -1.379480 -3.977646 1.359662 0
M  V30 30 C -2.644392 -3.842619 1.911407 0
M  V30 31 C -3.792050 -3.816426 1.136510 0
M  V30 32 C -3.635481 -3.932073 -0.242059 0
M  V30 33 C -2.376373 -4.067138 -0.799084 0
M  V30 34 H 3.997626 -1.080330 3.307231 0
M  V30 35 H 4.082710 -2.694324 2.550056 0
M  V30 36 H 5.988369 -1.203706 1.953796 0
M  V30 37 H 5.067335 -1.540927 0.474052 0
M  V30 38 H 5.954977 0.832500 3.035339 0
M  V30 39 H 5.579634 3.236370 2.984572 0
M  V30 40 H 4.117807 4.260623 1.241946 0
M  V30 41 H 3.073653 2.829655 -0.405183 0
M  V30 42 H 3.463632 0.339154 -0.350237 0
M  V30 43 H -0.081905 1.289425 2.905554 0
M  V30 44 H -4.502869 -1.236137 -0.833428 0
M  V30 45 H -2.927720 -1.096453 -1.734762 0
M  V30 46 H -4.256748 0.034590 -3.259973 0
M  V30 47 H -5.577782 0.292053 -2.095091 0
M  V30 48 H -3.178233 1.974982 -2.540635 0
M  V30 49 H -3.652518 3.167127 -0.689988 0
M  V30 50 H -5.353955 2.593964 -0.670584 0
M  V30 51 H -3.550845 1.823690 1.140434 0
M  V30 52 H -4.960268 0.826828 0.721421 0
M  V30 53 H -0.020277 -2.448623 -1.770402 0
M  V30 54 H 1.615055 -3.086103 -1.652821 0
M  V30 55 H 0.676171 -4.896861 -0.043183 0
M  V30 56 H -0.087280 -4.799518 -1.646068 0
M  V30 57 H -0.484454 -3.997889 1.969411 0
M  V30 58 H -2.652848 -3.760146 2.996685 0
M  V30 59 H -4.736737 -3.706594 1.664552 0
M  V30 60 H -4.536734 -3.909241 -0.826812 0
M  V30 61 H -2.340434 -4.152144 -1.891518 0
M  V30 END ATOM
M  V30 BEGIN BOND
M  V30 1 2 1 2
M  V30 2 1 2 3
M  V30 3 1 3 4
M  V30 4 1 4 5
M  V30 5 1 5 6
M  V30 6 2 6 7
M  V30 7 1 7 8
M  V30 8 2 8 9
M  V30 9 1 9 10
M  V30 10 2 10 11
M  V30 11 2 3 12
M  V30 12 1 12 13
M  V30 13 2 13 14
M  V30 14 1 14 15
M  V30 15 2 15 16
M  V30 16 1 16 17
M  V30 17 1 17 18
M  V30 18 1 18 19
M  V30 19 1 19 20
M  V30 20 1 20 21
M  V30 21 1 21 22
M  V30 22 1 16 23
M  V30 23 2 23 24
M  V30 24 1 24 25
M  V30 25 1 25 26
M  V30 26 1 26 27
M  V30 27 1 27 28
M  V30 28 2 28 29
M  V30 29 1 29 30
M  V30 30 2 30 31
M  V30 31 1 31 32
M  V30 32 2 32 33
M  V30 33 1 25 2
M  V30 34 1 33 28
M  V30 35 1 11 6
M  V30 36 1 24 13
M  V30 37 1 22 17
M  V30 38 1 4 34
M  V30 39 1 4 35
M  V30 40 1 5 36
M  V30 41 1 5 37
M  V30 42 1 7 38
M  V30 43 1 8 39
M  V30 44 1 9 40
M  V30 45 1 10 41
M  V30 46 1 11 42
M  V30 47 1 14 43
M  V30 48 1 18 44
M  V30 49 1 18 45
M  V30 50 1 19 46
M  V30 51 1 19 47
M  V30 52 1 20 48
M  V30 53 1 21 49
M  V30 54 1 21 50
M  V30 55 1 22 51
M  V30 56 1 22 52
M  V30 57 1 26 53
M  V30 58 1 26 54
M  V30 59 1 27 55
M  V30 60 1 27 56
M  V30 61 1 29 57
M  V30 62 1 30 58
M  V30 63 1 31 59
M  V30 64 1 32 60
M  V30 65 1 33 61
M  V30 END BOND
M  V30 END CTAB
M  END
>  <Dataset>  (750) 
ChEMBL_Kinases

>  <Ligand_Instance>  (750) 
nan

>  <PDB_ID>  (750) 
nan

>  <Standardized_SMILES>  (750) 
O=c1c(CCc2ccccc2)nc2cnc(N3CCNCC3)nc2n1CCc1ccccc1

>  <Name>  (750) 
nan

>  <Pocket>  (750) 
nan

>  <ATP_Site>  (750) 
nan

>  <Peripheral>  (750) 
nan

>  <Num_H_Atoms_ProtBoundConf>  (750) 
nan

>  <Num_Resolved_Atoms>  (750) 
nan

>  <Num_Not_Resolved_Atoms>  (750) 
nan

$$$$
CHEMBL1403344
     RDKit          3D

  0  0  0  0  0  0  0  0  0  0999 V3000
M  V30 BEGIN CTAB
M  V30 COUNTS 27 28 0 0 0
M  V30 BEGIN ATOM
M  V30 1 N 0.360107 2.336552 5.059857 0
M  V30 2 C 0.680788 1.237067 4.171694 0
M  V30 3 N 1.253837 0.250676 4.084385 0
M  V30 4 N 1.321592 -0.537692 3.062278 0
M  V30 5 C 0.774566 -0.349704 2.010710 0
M  V30 6 N 0.677648 -1.064636 0.761287 0
M  V30 7 C 1.787582 -1.136763 -0.180746 0
M  V30 8 C 1.329317 -1.138295 -1.617368 0
M  V30 9 C 0.087136 -0.308967 -1.704951 0
M  V30 10 C -1.167480 -1.116825 -1.527183 0
M  V30 11 C -1.033312 -2.223063 -0.506372 0
M  V30 12 C -0.682662 -1.559916 0.798565 0
M  V30 13 S -0.082902 1.299633 2.403895 0
M  V30 14 H 0.843498 3.220860 5.276913 0
M  V30 15 H -0.545044 2.132708 5.550891 0
M  V30 16 H 2.484264 -0.302917 0.014574 0
M  V30 17 H 2.307137 -2.118995 -0.025749 0
M  V30 18 H 2.129219 -0.690545 -2.254106 0
M  V30 19 H 1.140330 -2.162447 -1.994253 0
M  V30 20 H 0.089235 0.185509 -2.702492 0
M  V30 21 H 0.127907 0.456039 -0.925020 0
M  V30 22 H -1.953718 -0.413609 -1.137732 0
M  V30 23 H -1.535105 -1.533384 -2.490023 0
M  V30 24 H -0.254624 -2.954553 -0.735891 0
M  V30 25 H -2.025330 -2.718961 -0.472585 0
M  V30 26 H -1.411165 -0.700189 0.886934 0
M  V30 27 H -0.857160 -2.231944 1.670721 0
M  V30 END ATOM
M  V30 BEGIN BOND
M  V30 1 1 1 2
M  V30 2 2 2 3
M  V30 3 1 3 4
M  V30 4 2 4 5
M  V30 5 1 5 6
M  V30 6 1 6 7
M  V30 7 1 7 8
M  V30 8 1 8 9
M  V30 9 1 9 10
M  V30 10 1 10 11
M  V30 11 1 11 12
M  V30 12 1 5 13
M  V30 13 1 13 2
M  V30 14 1 12 6
M  V30 15 1 1 14
M  V30 16 1 1 15
M  V30 17 1 7 16
M  V30 18 1 7 17
M  V30 19 1 8 18
M  V30 20 1 8 19
M  V30 21 1 9 20
M  V30 22 1 9 21
M  V30 23 1 10 22
M  V30 24 1 10 23
M  V30 25 1 11 24
M  V30 26 1 11 25
M  V30 27 1 12 26
M  V30 28 1 12 27
M  V30 END BOND
M  V30 END CTAB
M  END
>  <Dataset>  (751) 
ChEMBL_Kinases

>  <Ligand_Instance>  (751) 
nan

>  <PDB_ID>  (751) 
nan

>  <Standardized_SMILES>  (751) 
Nc1nnc(N2CCCCCC2)s1

>  <Name>  (751) 
nan

>  <Pocket>  (751) 
nan

>  <ATP_Site>  (751) 
nan

>  <Peripheral>  (751) 
nan

>  <Num_H_Atoms_ProtBoundConf>  (751) 
nan

>  <Num_Resolved_Atoms>  (751) 
nan

>  <Num_Not_Resolved_Atoms>  (751) 
nan

$$$$
CHEMBL1403245
     RDKit          3D

  0  0  0  0  0  0  0  0  0  0999 V3000
M  V30 BEGIN CTAB
M  V30 COUNTS 64 65 0 0 0
M  V30 BEGIN ATOM
M  V30 1 C 5.150558 -1.451072 0.650004 0
M  V30 2 C 5.227437 -0.001282 1.076478 0
M  V30 3 C 5.883594 0.774141 -0.056969 0
M  V30 4 C 6.000321 2.249327 0.259420 0
M  V30 5 O 4.725998 2.829702 0.474924 0
M  V30 6 C 3.738066 2.877498 -0.479792 0
M  V30 7 O 4.025364 2.379317 -1.581806 0
M  V30 8 C 2.366220 3.472330 -0.298754 0
M  V30 9 C 2.127277 4.663398 -1.183859 0
M  V30 10 C 0.747952 5.264443 -1.008561 0
M  V30 11 N -0.272403 4.276701 -1.310525 0
M  V30 12 C -0.836789 3.439978 -0.326577 0
M  V30 13 O -0.557460 3.437392 0.922361 0
M  V30 14 C -1.825356 2.507893 -0.809337 0
M  V30 15 C -2.339382 1.464166 -0.263987 0
M  V30 16 S -1.892530 0.876672 1.390920 0
M  V30 17 C -2.508674 -0.805056 1.085164 0
M  V30 18 S -1.998518 -2.046447 1.990578 0
M  V30 19 N -3.423605 -0.725711 0.004069 0
M  V30 20 C -4.422202 -1.701868 -0.425869 0
M  V30 21 C -3.961746 -2.635233 -1.484302 0
M  V30 22 C -2.831211 -3.540196 -1.156417 0
M  V30 23 C -3.080027 -4.499730 -0.107300 0
M  V30 24 O -4.169340 -5.138225 -0.263950 0
M  V30 25 O -2.805865 -5.184083 1.058864 0
M  V30 26 C -3.680107 -6.190482 1.553323 0
M  V30 27 C -3.062187 -6.648832 2.851233 0
M  V30 28 C -3.035524 -5.447341 3.796836 0
M  V30 29 C -2.430200 -5.778366 5.134652 0
M  V30 30 C -3.326595 0.501503 -0.719490 0
M  V30 31 O -4.017925 0.860319 -1.741134 0
M  V30 32 S -2.254250 3.100994 -2.462591 0
M  V30 33 C -0.746632 4.096994 -2.639459 0
M  V30 34 S -0.076776 4.664045 -4.024449 0
M  V30 35 H 5.752620 -2.131715 1.277771 0
M  V30 36 H 5.550418 -1.564047 -0.398113 0
M  V30 37 H 4.104068 -1.838551 0.662064 0
M  V30 38 H 4.211780 0.436927 1.241450 0
M  V30 39 H 5.873892 0.043498 1.964316 0
M  V30 40 H 5.387776 0.587116 -1.012703 0
M  V30 41 H 6.933481 0.382145 -0.135554 0
M  V30 42 H 6.646321 2.352325 1.154078 0
M  V30 43 H 6.538329 2.713299 -0.588789 0
M  V30 44 H 1.597475 2.676209 -0.518309 0
M  V30 45 H 2.281129 3.742270 0.768538 0
M  V30 46 H 2.918280 5.443657 -1.051178 0
M  V30 47 H 2.268621 4.327937 -2.248120 0
M  V30 48 H 0.644265 6.154984 -1.642911 0
M  V30 49 H 0.621727 5.610823 0.039240 0
M  V30 50 H -4.706685 -2.345580 0.457981 0
M  V30 51 H -5.342871 -1.148900 -0.702479 0
M  V30 52 H -3.667013 -2.103164 -2.435253 0
M  V30 53 H -4.846071 -3.271004 -1.761363 0
M  V30 54 H -1.897349 -2.934132 -1.027001 0
M  V30 55 H -2.618052 -4.125829 -2.100061 0
M  V30 56 H -3.810518 -7.034079 0.837175 0
M  V30 57 H -4.668422 -5.778244 1.768199 0
M  V30 58 H -1.973297 -6.915319 2.711437 0
M  V30 59 H -3.547511 -7.526649 3.266727 0
M  V30 60 H -4.077572 -5.057324 3.888450 0
M  V30 61 H -2.431776 -4.657347 3.320628 0
M  V30 62 H -2.537043 -6.870467 5.295478 0
M  V30 63 H -3.036677 -5.285780 5.939685 0
M  V30 64 H -1.396344 -5.411328 5.258632 0
M  V30 END ATOM
M  V30 BEGIN BOND
M  V30 1 1 1 2
M  V30 2 1 2 3
M  V30 3 1 3 4
M  V30 4 1 4 5
M  V30 5 1 5 6
M  V30 6 2 6 7
M  V30 7 1 6 8
M  V30 8 1 8 9
M  V30 9 1 9 10
M  V30 10 1 10 11
M  V30 11 1 11 12
M  V30 12 2 12 13
M  V30 13 1 12 14
M  V30 14 2 14 15
M  V30 15 1 15 16
M  V30 16 1 16 17
M  V30 17 2 17 18
M  V30 18 1 17 19
M  V30 19 1 19 20
M  V30 20 1 20 21
M  V30 21 1 21 22
M  V30 22 1 22 23
M  V30 23 2 23 24
M  V30 24 1 23 25
M  V30 25 1 25 26
M  V30 26 1 26 27
M  V30 27 1 27 28
M  V30 28 1 28 29
M  V30 29 1 19 30
M  V30 30 2 30 31
M  V30 31 1 14 32
M  V30 32 1 32 33
M  V30 33 2 33 34
M  V30 34 1 33 11
M  V30 35 1 30 15
M  V30 36 1 1 35
M  V30 37 1 1 36
M  V30 38 1 1 37
M  V30 39 1 2 38
M  V30 40 1 2 39
M  V30 41 1 3 40
M  V30 42 1 3 41
M  V30 43 1 4 42
M  V30 44 1 4 43
M  V30 45 1 8 44
M  V30 46 1 8 45
M  V30 47 1 9 46
M  V30 48 1 9 47
M  V30 49 1 10 48
M  V30 50 1 10 49
M  V30 51 1 20 50
M  V30 52 1 20 51
M  V30 53 1 21 52
M  V30 54 1 21 53
M  V30 55 1 22 54
M  V30 56 1 22 55
M  V30 57 1 26 56
M  V30 58 1 26 57
M  V30 59 1 27 58
M  V30 60 1 27 59
M  V30 61 1 28 60
M  V30 62 1 28 61
M  V30 63 1 29 62
M  V30 64 1 29 63
M  V30 65 1 29 64
M  V30 END BOND
M  V30 END CTAB
M  END
>  <Dataset>  (752) 
ChEMBL_Kinases

>  <Ligand_Instance>  (752) 
nan

>  <PDB_ID>  (752) 
nan

>  <Standardized_SMILES>  (752) 
CCCCOC(=O)CCCN1C(=O)/C(=C2\SC(=S)N(CCCC(=O)OCCCC)C2=O)SC1=S

>  <Name>  (752) 
nan

>  <Pocket>  (752) 
nan

>  <ATP_Site>  (752) 
nan

>  <Peripheral>  (752) 
nan

>  <Num_H_Atoms_ProtBoundConf>  (752) 
nan

>  <Num_Resolved_Atoms>  (752) 
nan

>  <Num_Not_Resolved_Atoms>  (752) 
nan

$$$$
CHEMBL1403174
     RDKit          3D

  0  0  0  0  0  0  0  0  0  0999 V3000
M  V30 BEGIN CTAB
M  V30 COUNTS 40 42 0 0 0
M  V30 BEGIN ATOM
M  V30 1 C 3.049169 -6.660682 1.085080 0
M  V30 2 O 2.784554 -5.641771 2.022806 0
M  V30 3 C 2.633784 -4.312570 1.667984 0
M  V30 4 C 2.373477 -3.244798 2.512676 0
M  V30 5 C 2.233424 -1.952977 2.115147 0
M  V30 6 C 2.347824 -1.613606 0.783630 0
M  V30 7 N 2.238351 -0.412871 0.245998 0
M  V30 8 C 2.334200 -0.118693 -0.881146 0
M  V30 9 N 2.283709 0.986429 -1.784097 0
M  V30 10 S 1.966371 2.437576 -0.935012 0
M  V30 11 O 1.984497 3.598395 -1.908295 0
M  V30 12 O 3.015665 2.650452 0.118327 0
M  V30 13 C 0.426302 2.413078 -0.112890 0
M  V30 14 C -0.662084 2.865039 -0.837912 0
M  V30 15 C -1.948292 2.914295 -0.343225 0
M  V30 16 C -2.162779 2.487651 0.951394 0
M  V30 17 N -3.418074 2.467801 1.623371 0
M  V30 18 C -4.036620 1.211992 1.388612 0
M  V30 19 C -5.377191 0.780496 1.919999 0
M  V30 20 O -3.435482 0.367347 0.678842 0
M  V30 21 C -1.097121 2.031016 1.700672 0
M  V30 22 C 0.179950 1.993270 1.178443 0
M  V30 23 S 2.677912 -1.820959 -1.649018 0
M  V30 24 C 2.607989 -2.674744 -0.067611 0
M  V30 25 C 2.752269 -3.996908 0.331527 0
M  V30 26 H 2.291990 -6.736964 0.279504 0
M  V30 27 H 4.052597 -6.506489 0.617645 0
M  V30 28 H 2.999950 -7.624409 1.633656 0
M  V30 29 H 2.287606 -3.548214 3.569431 0
M  V30 30 H 2.029567 -1.251199 2.935983 0
M  V30 31 H 2.420559 0.914274 -2.807700 0
M  V30 32 H -0.561377 3.215368 -1.864096 0
M  V30 33 H -2.804561 3.262026 -0.891828 0
M  V30 34 H -3.943384 3.137669 2.212543 0
M  V30 35 H -5.319961 -0.324176 2.149395 0
M  V30 36 H -6.189667 0.943441 1.208257 0
M  V30 37 H -5.625461 1.286866 2.863769 0
M  V30 38 H -1.187411 1.679288 2.725311 0
M  V30 39 H 1.050292 1.646878 1.717961 0
M  V30 40 H 2.950935 -4.697061 -0.449306 0
M  V30 END ATOM
M  V30 BEGIN BOND
M  V30 1 1 1 2
M  V30 2 1 2 3
M  V30 3 2 3 4
M  V30 4 1 4 5
M  V30 5 2 5 6
M  V30 6 1 6 7
M  V30 7 2 7 8
M  V30 8 1 8 9
M  V30 9 1 9 10
M  V30 10 2 10 11
M  V30 11 2 10 12
M  V30 12 1 10 13
M  V30 13 2 13 14
M  V30 14 1 14 15
M  V30 15 2 15 16
M  V30 16 1 16 17
M  V30 17 1 17 18
M  V30 18 1 18 19
M  V30 19 2 18 20
M  V30 20 1 16 21
M  V30 21 2 21 22
M  V30 22 1 8 23
M  V30 23 1 23 24
M  V30 24 2 24 25
M  V30 25 1 25 3
M  V30 26 1 24 6
M  V30 27 1 22 13
M  V30 28 1 1 26
M  V30 29 1 1 27
M  V30 30 1 1 28
M  V30 31 1 4 29
M  V30 32 1 5 30
M  V30 33 1 9 31
M  V30 34 1 14 32
M  V30 35 1 15 33
M  V30 36 1 17 34
M  V30 37 1 19 35
M  V30 38 1 19 36
M  V30 39 1 19 37
M  V30 40 1 21 38
M  V30 41 1 22 39
M  V30 42 1 25 40
M  V30 END BOND
M  V30 END CTAB
M  END
>  <Dataset>  (753) 
ChEMBL_Kinases

>  <Ligand_Instance>  (753) 
nan

>  <PDB_ID>  (753) 
nan

>  <Standardized_SMILES>  (753) 
COc1ccc2nc(NS(=O)(=O)c3ccc(NC(C)=O)cc3)sc2c1

>  <Name>  (753) 
nan

>  <Pocket>  (753) 
nan

>  <ATP_Site>  (753) 
nan

>  <Peripheral>  (753) 
nan

>  <Num_H_Atoms_ProtBoundConf>  (753) 
nan

>  <Num_Resolved_Atoms>  (753) 
nan

>  <Num_Not_Resolved_Atoms>  (753) 
nan

$$$$
CHEMBL1402991
     RDKit          3D

  0  0  0  0  0  0  0  0  0  0999 V3000
M  V30 BEGIN CTAB
M  V30 COUNTS 51 55 0 0 0
M  V30 BEGIN ATOM
M  V30 1 O -1.814037 -0.995106 2.304326 0
M  V30 2 C -1.245134 -1.883639 1.615082 0
M  V30 3 N -0.063035 -1.956660 0.838032 0
M  V30 4 N 0.778847 -0.835424 0.718051 0
M  V30 5 C 1.857845 -0.523814 1.574899 0
M  V30 6 O 2.028519 -1.366904 2.511766 0
M  V30 7 C 2.500399 0.753854 1.104481 0
M  V30 8 C 1.413667 1.803708 1.171671 0
M  V30 9 C 1.962297 3.137118 0.723688 0
M  V30 10 C 2.377133 2.980025 -0.726723 0
M  V30 11 C 3.443011 1.912369 -0.815156 0
M  V30 12 C 4.628992 2.367492 0.012679 0
M  V30 13 C 4.207233 2.434600 1.452658 0
M  V30 14 C 3.115821 3.474769 1.613341 0
M  V30 15 C 3.685911 1.107323 1.946913 0
M  V30 16 C 2.899652 0.579004 -0.328159 0
M  V30 17 C -2.163485 -3.031212 1.773842 0 CFG=2
M  V30 18 C -1.817397 -4.408146 1.468080 0
M  V30 19 C -2.574372 -3.651674 0.401153 0 CFG=1
M  V30 20 C -4.003788 -3.938373 0.190338 0
M  V30 21 C -4.546594 -3.896358 -1.078257 0
M  V30 22 C -5.885510 -4.164430 -1.279512 0
M  V30 23 C -6.689109 -4.479584 -0.185196 0
M  V30 24 C -6.107957 -4.513709 1.087484 0
M  V30 25 C -4.768224 -4.246374 1.295956 0
M  V30 26 H 0.101442 -2.894963 0.387022 0
M  V30 27 H 0.317545 -0.434222 -0.128189 0
M  V30 28 H 0.911187 1.841653 2.142339 0
M  V30 29 H 0.631720 1.523974 0.431957 0
M  V30 30 H 1.179071 3.915060 0.821263 0
M  V30 31 H 2.803291 3.916752 -1.139725 0
M  V30 32 H 1.473553 2.719770 -1.307388 0
M  V30 33 H 3.718315 1.818114 -1.875811 0
M  V30 34 H 4.847897 3.412785 -0.316365 0
M  V30 35 H 5.522112 1.732196 -0.112518 0
M  V30 36 H 5.104835 2.706268 2.037511 0
M  V30 37 H 2.767729 3.377786 2.666515 0
M  V30 38 H 3.504496 4.496219 1.409358 0
M  V30 39 H 3.369882 1.234589 3.005115 0
M  V30 40 H 4.441069 0.319417 1.842210 0
M  V30 41 H 3.719749 -0.159477 -0.430872 0
M  V30 42 H 2.015403 0.361297 -0.960601 0
M  V30 43 H -3.046894 -2.809351 2.416446 0
M  V30 44 H -0.758075 -4.703440 1.289296 0
M  V30 45 H -2.368641 -5.205536 2.031244 0
M  V30 46 H -1.938915 -3.401408 -0.473273 0
M  V30 47 H -3.949325 -3.654567 -1.951125 0
M  V30 48 H -6.357578 -4.141672 -2.274202 0
M  V30 49 H -7.736754 -4.688029 -0.352948 0
M  V30 50 H -6.812724 -4.766516 1.861389 0
M  V30 51 H -4.433373 -4.302263 2.314576 0
M  V30 END ATOM
M  V30 BEGIN BOND
M  V30 1 2 1 2
M  V30 2 1 2 3
M  V30 3 1 3 4
M  V30 4 1 4 5
M  V30 5 2 5 6
M  V30 6 1 5 7
M  V30 7 1 7 8
M  V30 8 1 8 9
M  V30 9 1 9 10
M  V30 10 1 10 11
M  V30 11 1 11 12
M  V30 12 1 12 13
M  V30 13 1 13 14
M  V30 14 1 13 15
M  V30 15 1 11 16
M  V30 16 1 2 17
M  V30 17 1 17 18
M  V30 18 1 18 19
M  V30 19 1 19 20
M  V30 20 2 20 21
M  V30 21 1 21 22
M  V30 22 2 22 23
M  V30 23 1 23 24
M  V30 24 2 24 25
M  V30 25 1 15 7
M  V30 26 1 19 17
M  V30 27 1 25 20
M  V30 28 1 16 7
M  V30 29 1 14 9
M  V30 30 1 3 26
M  V30 31 1 4 27
M  V30 32 1 8 28
M  V30 33 1 8 29
M  V30 34 1 9 30
M  V30 35 1 10 31
M  V30 36 1 10 32
M  V30 37 1 11 33
M  V30 38 1 12 34
M  V30 39 1 12 35
M  V30 40 1 13 36
M  V30 41 1 14 37
M  V30 42 1 14 38
M  V30 43 1 15 39
M  V30 44 1 15 40
M  V30 45 1 16 41
M  V30 46 1 16 42
M  V30 47 1 17 43 CFG=1
M  V30 48 1 18 44
M  V30 49 1 18 45
M  V30 50 1 19 46 CFG=3
M  V30 51 1 21 47
M  V30 52 1 22 48
M  V30 53 1 23 49
M  V30 54 1 24 50
M  V30 55 1 25 51
M  V30 END BOND
M  V30 END CTAB
M  END
>  <Dataset>  (754) 
ChEMBL_Kinases

>  <Ligand_Instance>  (754) 
nan

>  <PDB_ID>  (754) 
nan

>  <Standardized_SMILES>  (754) 
O=C(NNC(=O)C12CC3CC(CC(C3)C1)C2)[C@@H]1C[C@H]1c1ccccc1

>  <Name>  (754) 
nan

>  <Pocket>  (754) 
nan

>  <ATP_Site>  (754) 
nan

>  <Peripheral>  (754) 
nan

>  <Num_H_Atoms_ProtBoundConf>  (754) 
nan

>  <Num_Resolved_Atoms>  (754) 
nan

>  <Num_Not_Resolved_Atoms>  (754) 
nan

$$$$
CHEMBL1402898
     RDKit          3D

  0  0  0  0  0  0  0  0  0  0999 V3000
M  V30 BEGIN CTAB
M  V30 COUNTS 65 68 0 0 0
M  V30 BEGIN ATOM
M  V30 1 C 2.454680 3.096682 6.509166 0
M  V30 2 C 3.238251 3.725235 5.387159 0
M  V30 3 C 2.308456 4.143420 4.241076 0
M  V30 4 C 1.601161 2.949129 3.719040 0
M  V30 5 N 1.841221 1.751824 4.258875 0
M  V30 6 C 1.253688 0.624152 3.854070 0
M  V30 7 C 1.503591 -0.610727 4.413250 0
M  V30 8 C 0.871856 -1.752860 3.961854 0
M  V30 9 C -0.047427 -1.672007 2.911628 0
M  V30 10 C -0.286915 -0.438587 2.364448 0
M  V30 11 C 0.340779 0.715335 2.808715 0
M  V30 12 C 0.099913 1.959038 2.257756 0
M  V30 13 C -0.863807 1.979400 1.189635 0
M  V30 14 O -0.065309 1.795864 0.240048 0
M  V30 15 O -1.670428 1.982269 0.138134 0
M  V30 16 C -1.340690 1.819569 -1.209656 0
M  V30 17 C -0.679898 0.522238 -1.529570 0
M  V30 18 N 0.595126 0.067105 -1.614707 0
M  V30 19 N 0.589278 -1.212516 -1.946144 0
M  V30 20 C -0.708319 -1.542103 -2.064757 0
M  V30 21 C -1.207618 -2.865599 -2.420228 0
M  V30 22 C -2.560857 -3.112113 -2.525285 0
M  V30 23 C -3.025331 -4.385200 -2.863406 0
M  V30 24 O -4.340869 -4.736892 -2.994132 0
M  V30 25 C -5.459037 -3.920455 -2.822710 0
M  V30 26 C -2.117116 -5.423560 -3.098873 0
M  V30 27 O -2.518081 -6.715519 -3.439718 0
M  V30 28 C -2.706635 -7.148914 -4.775421 0
M  V30 29 C -0.759722 -5.185780 -2.996055 0
M  V30 30 O 0.134161 -6.216387 -3.229968 0
M  V30 31 C 1.530445 -5.998163 -3.130922 0
M  V30 32 C -0.338119 -3.914975 -2.659841 0
M  V30 33 O -1.468749 -0.513476 -1.818023 0
M  V30 34 C 0.710752 3.121116 2.680775 0
M  V30 35 C 0.417982 4.446952 2.051110 0
M  V30 36 C 1.488209 4.922293 1.128246 0
M  V30 37 H 2.547366 2.000814 6.519458 0
M  V30 38 H 1.382427 3.440266 6.462245 0
M  V30 39 H 2.797672 3.445989 7.524158 0
M  V30 40 H 3.986859 2.985587 4.999272 0
M  V30 41 H 3.796408 4.574842 5.782272 0
M  V30 42 H 3.011626 4.489123 3.436108 0
M  V30 43 H 1.658630 4.925665 4.636284 0
M  V30 44 H 2.212492 -0.697478 5.228389 0
M  V30 45 H 1.047954 -2.748746 4.384396 0
M  V30 46 H -0.583281 -2.514612 2.500558 0
M  V30 47 H -1.005410 -0.346694 1.536495 0
M  V30 48 H -2.276758 1.941730 -1.828445 0
M  V30 49 H -0.632025 2.633282 -1.547970 0
M  V30 50 H -3.304172 -2.341169 -2.352789 0
M  V30 51 H -6.308780 -4.218039 -3.499558 0
M  V30 52 H -5.195897 -2.881720 -3.087900 0
M  V30 53 H -5.867188 -3.931583 -1.794621 0
M  V30 54 H -2.096146 -8.049673 -5.026820 0
M  V30 55 H -2.434491 -6.344586 -5.478533 0
M  V30 56 H -3.769256 -7.477711 -4.922304 0
M  V30 57 H 2.066494 -6.906342 -3.469309 0
M  V30 58 H 1.765733 -5.731364 -2.079034 0
M  V30 59 H 1.864470 -5.187432 -3.837739 0
M  V30 60 H 0.733495 -3.737436 -2.581697 0
M  V30 61 H 0.295138 5.184489 2.869006 0
M  V30 62 H -0.570298 4.397362 1.533498 0
M  V30 63 H 2.064123 5.730925 1.619436 0
M  V30 64 H 1.091970 5.379518 0.192780 0
M  V30 65 H 2.225157 4.121402 0.911584 0
M  V30 END ATOM
M  V30 BEGIN BOND
M  V30 1 1 1 2
M  V30 2 1 2 3
M  V30 3 1 3 4
M  V30 4 2 4 5
M  V30 5 1 5 6
M  V30 6 2 6 7
M  V30 7 1 7 8
M  V30 8 2 8 9
M  V30 9 1 9 10
M  V30 10 2 10 11
M  V30 11 1 11 12
M  V30 12 1 12 13
M  V30 13 2 13 14
M  V30 14 1 13 15
M  V30 15 1 15 16
M  V30 16 1 16 17
M  V30 17 2 17 18
M  V30 18 1 18 19
M  V30 19 2 19 20
M  V30 20 1 20 21
M  V30 21 2 21 22
M  V30 22 1 22 23
M  V30 23 1 23 24
M  V30 24 1 24 25
M  V30 25 2 23 26
M  V30 26 1 26 27
M  V30 27 1 27 28
M  V30 28 1 26 29
M  V30 29 1 29 30
M  V30 30 1 30 31
M  V30 31 2 29 32
M  V30 32 1 20 33
M  V30 33 2 12 34
M  V30 34 1 34 35
M  V30 35 1 35 36
M  V30 36 1 34 4
M  V30 37 1 11 6
M  V30 38 1 33 17
M  V30 39 1 32 21
M  V30 40 1 1 37
M  V30 41 1 1 38
M  V30 42 1 1 39
M  V30 43 1 2 40
M  V30 44 1 2 41
M  V30 45 1 3 42
M  V30 46 1 3 43
M  V30 47 1 7 44
M  V30 48 1 8 45
M  V30 49 1 9 46
M  V30 50 1 10 47
M  V30 51 1 16 48
M  V30 52 1 16 49
M  V30 53 1 22 50
M  V30 54 1 25 51
M  V30 55 1 25 52
M  V30 56 1 25 53
M  V30 57 1 28 54
M  V30 58 1 28 55
M  V30 59 1 28 56
M  V30 60 1 31 57
M  V30 61 1 31 58
M  V30 62 1 31 59
M  V30 63 1 32 60
M  V30 64 1 35 61
M  V30 65 1 35 62
M  V30 66 1 36 63
M  V30 67 1 36 64
M  V30 68 1 36 65
M  V30 END BOND
M  V30 END CTAB
M  END
>  <Dataset>  (755) 
ChEMBL_Kinases

>  <Ligand_Instance>  (755) 
nan

>  <PDB_ID>  (755) 
nan

>  <Standardized_SMILES>  (755) 
CCCc1nc2ccccc2c(C(=O)OCc2nnc(-c3cc(OC)c(OC)c(OC)c3)o2)c1CC

>  <Name>  (755) 
nan

>  <Pocket>  (755) 
nan

>  <ATP_Site>  (755) 
nan

>  <Peripheral>  (755) 
nan

>  <Num_H_Atoms_ProtBoundConf>  (755) 
nan

>  <Num_Resolved_Atoms>  (755) 
nan

>  <Num_Not_Resolved_Atoms>  (755) 
nan

$$$$
CHEMBL1402760
     RDKit          3D

  0  0  0  0  0  0  0  0  0  0999 V3000
M  V30 BEGIN CTAB
M  V30 COUNTS 48 51 0 0 0
M  V30 BEGIN ATOM
M  V30 1 N 1.823474 -5.457470 3.624247 0
M  V30 2 C 1.646635 -5.835295 2.267418 0
M  V30 3 O 1.645620 -7.076321 2.011006 0
M  V30 4 C 1.471275 -4.788297 1.212108 0
M  V30 5 S 1.531516 -3.165358 1.955288 0
M  V30 6 C 1.338963 -1.840834 0.821667 0
M  V30 7 N 2.556494 -1.547067 0.306303 0
M  V30 8 N 2.395240 -0.531627 -0.532955 0
M  V30 9 C 1.074915 -0.163719 -0.564398 0
M  V30 10 C 0.597689 0.941839 -1.398417 0
M  V30 11 C 0.534981 2.251212 -0.666319 0
M  V30 12 C -0.625280 2.671755 -0.055743 0
M  V30 13 C -0.693201 3.865820 0.619169 0
M  V30 14 C 0.398517 4.707205 0.720342 0
M  V30 15 C 1.554610 4.284570 0.109969 0
M  V30 16 C 1.645085 3.091027 -0.571819 0
M  V30 17 O 2.532895 5.272304 0.328626 0
M  V30 18 C 2.126748 6.019443 1.484295 0
M  V30 19 O 0.705367 5.952091 1.299387 0
M  V30 20 N 0.455514 -0.994385 0.285270 0
M  V30 21 C -0.902520 -1.018940 0.658857 0
M  V30 22 C -1.269659 -1.937420 1.770804 0
M  V30 23 C -1.651044 -3.269305 1.191504 0
M  V30 24 C -3.100126 -3.116456 0.691601 0
M  V30 25 C -3.177491 -1.840529 -0.109157 0
M  V30 26 C -1.812792 -1.298840 -0.508593 0
M  V30 27 H 2.418251 -5.082892 4.407951 0
M  V30 28 H 1.936894 -5.184419 4.623791 0
M  V30 29 H 0.554591 -5.022817 0.655140 0
M  V30 30 H 2.332937 -4.967943 0.505573 0
M  V30 31 H -0.307071 0.787386 -1.975265 0
M  V30 32 H 1.386114 1.151808 -2.194954 0
M  V30 33 H -1.528873 2.090469 -0.081094 0
M  V30 34 H -1.602231 4.187882 1.093031 0
M  V30 35 H 2.574036 2.796092 -1.036589 0
M  V30 36 H 2.354858 5.389427 2.354735 0
M  V30 37 H 2.515065 7.036967 1.501515 0
M  V30 38 H -1.149192 0.026831 1.044745 0
M  V30 39 H -0.583325 -1.975945 2.625131 0
M  V30 40 H -2.215940 -1.519529 2.235108 0
M  V30 41 H -1.549582 -4.124550 1.857154 0
M  V30 42 H -1.059055 -3.404005 0.238522 0
M  V30 43 H -3.815161 -3.020906 1.535551 0
M  V30 44 H -3.385159 -4.006099 0.078599 0
M  V30 45 H -3.801249 -1.058924 0.369602 0
M  V30 46 H -3.674865 -2.091062 -1.069531 0
M  V30 47 H -2.076750 -0.318206 -1.007181 0
M  V30 48 H -1.383694 -2.032180 -1.217269 0
M  V30 END ATOM
M  V30 BEGIN BOND
M  V30 1 1 1 2
M  V30 2 2 2 3
M  V30 3 1 2 4
M  V30 4 1 4 5
M  V30 5 1 5 6
M  V30 6 2 6 7
M  V30 7 1 7 8
M  V30 8 2 8 9
M  V30 9 1 9 10
M  V30 10 1 10 11
M  V30 11 2 11 12
M  V30 12 1 12 13
M  V30 13 2 13 14
M  V30 14 1 14 15
M  V30 15 2 15 16
M  V30 16 1 15 17
M  V30 17 1 17 18
M  V30 18 1 18 19
M  V30 19 1 9 20
M  V30 20 1 20 21
M  V30 21 1 21 22
M  V30 22 1 22 23
M  V30 23 1 23 24
M  V30 24 1 24 25
M  V30 25 1 25 26
M  V30 26 1 20 6
M  V30 27 1 26 21
M  V30 28 1 16 11
M  V30 29 1 19 14
M  V30 30 1 1 27
M  V30 31 1 1 28
M  V30 32 1 4 29
M  V30 33 1 4 30
M  V30 34 1 10 31
M  V30 35 1 10 32
M  V30 36 1 12 33
M  V30 37 1 13 34
M  V30 38 1 16 35
M  V30 39 1 18 36
M  V30 40 1 18 37
M  V30 41 1 21 38
M  V30 42 1 22 39
M  V30 43 1 22 40
M  V30 44 1 23 41
M  V30 45 1 23 42
M  V30 46 1 24 43
M  V30 47 1 24 44
M  V30 48 1 25 45
M  V30 49 1 25 46
M  V30 50 1 26 47
M  V30 51 1 26 48
M  V30 END BOND
M  V30 END CTAB
M  END
>  <Dataset>  (756) 
ChEMBL_Kinases

>  <Ligand_Instance>  (756) 
nan

>  <PDB_ID>  (756) 
nan

>  <Standardized_SMILES>  (756) 
NC(=O)CSc1nnc(Cc2ccc3c(c2)OCO3)n1C1CCCCC1

>  <Name>  (756) 
nan

>  <Pocket>  (756) 
nan

>  <ATP_Site>  (756) 
nan

>  <Peripheral>  (756) 
nan

>  <Num_H_Atoms_ProtBoundConf>  (756) 
nan

>  <Num_Resolved_Atoms>  (756) 
nan

>  <Num_Not_Resolved_Atoms>  (756) 
nan

$$$$
CHEMBL1402640
     RDKit          3D

  0  0  0  0  0  0  0  0  0  0999 V3000
M  V30 BEGIN CTAB
M  V30 COUNTS 46 48 0 0 0
M  V30 BEGIN ATOM
M  V30 1 C -1.474581 -6.164269 -0.819418 0
M  V30 2 O -1.400733 -4.940288 -0.162230 0
M  V30 3 C -0.509621 -3.931325 -0.426569 0
M  V30 4 O -0.044289 -4.654286 -1.311051 0
M  V30 5 C -0.352645 -2.628753 0.199202 0
M  V30 6 C 0.552520 -1.735708 -0.154627 0
M  V30 7 C 1.530141 -1.943103 -1.239683 0
M  V30 8 N 0.422197 -0.586156 0.651885 0
M  V30 9 C 1.110410 0.644122 0.652595 0
M  V30 10 C 0.703253 1.702473 1.430585 0
M  V30 11 C 1.319060 2.939878 1.488142 0
M  V30 12 C 2.431670 3.154529 0.711855 0
M  V30 13 O 3.095869 4.391446 0.729416 0
M  V30 14 C 2.602875 5.429078 1.559886 0
M  V30 15 C 2.927218 2.153974 -0.110200 0
M  V30 16 O 4.030549 2.430258 -0.852278 0
M  V30 17 C 4.719092 1.599675 -1.747482 0
M  V30 18 C 2.222452 0.975361 -0.070495 0
M  V30 19 C -0.663453 -0.825747 1.573056 0
M  V30 20 O -1.213657 -0.174443 2.500285 0
M  V30 21 C -1.185027 -2.159371 1.292612 0
M  V30 22 C -2.206814 -2.802053 1.865642 0
M  V30 23 C -2.916022 -2.130868 2.973549 0
M  V30 24 C -4.300900 -2.215138 2.711809 0
M  V30 25 C -5.020804 -1.604215 3.722350 0
M  V30 26 C -4.000271 -1.182353 4.544222 0
M  V30 27 O -2.826830 -1.501474 4.082704 0
M  V30 28 H -0.502027 -6.725822 -0.842467 0
M  V30 29 H -2.212884 -6.791215 -0.248929 0
M  V30 30 H -1.817634 -6.042723 -1.863463 0
M  V30 31 H 1.317747 -2.912167 -1.791210 0
M  V30 32 H 2.562799 -2.051224 -0.893847 0
M  V30 33 H 1.453639 -1.188479 -2.038581 0
M  V30 34 H -0.153610 1.693841 2.088991 0
M  V30 35 H 0.989909 3.764395 2.103503 0
M  V30 36 H 2.529000 5.024873 2.575428 0
M  V30 37 H 3.366710 6.256113 1.597490 0
M  V30 38 H 1.626870 5.814374 1.201172 0
M  V30 39 H 5.752858 1.368259 -1.347502 0
M  V30 40 H 4.251570 0.609544 -1.901231 0
M  V30 41 H 4.845971 2.095851 -2.757850 0
M  V30 42 H 2.667191 0.237209 -0.717306 0
M  V30 43 H -2.450533 -3.782578 1.487015 0
M  V30 44 H -5.000768 -2.618417 1.946840 0
M  V30 45 H -6.019316 -1.393836 4.003392 0
M  V30 46 H -3.870856 -0.645711 5.490694 0
M  V30 END ATOM
M  V30 BEGIN BOND
M  V30 1 1 1 2
M  V30 2 1 2 3
M  V30 3 2 3 4
M  V30 4 1 3 5
M  V30 5 2 5 6
M  V30 6 1 6 7
M  V30 7 1 6 8
M  V30 8 1 8 9
M  V30 9 2 9 10
M  V30 10 1 10 11
M  V30 11 2 11 12
M  V30 12 1 12 13
M  V30 13 1 13 14
M  V30 14 1 12 15
M  V30 15 1 15 16
M  V30 16 1 16 17
M  V30 17 2 15 18
M  V30 18 1 8 19
M  V30 19 2 19 20
M  V30 20 1 19 21
M  V30 21 2 21 22
M  V30 22 1 22 23
M  V30 23 2 23 24
M  V30 24 1 24 25
M  V30 25 2 25 26
M  V30 26 1 26 27
M  V30 27 1 21 5
M  V30 28 1 27 23
M  V30 29 1 18 9
M  V30 30 1 1 28
M  V30 31 1 1 29
M  V30 32 1 1 30
M  V30 33 1 7 31
M  V30 34 1 7 32
M  V30 35 1 7 33
M  V30 36 1 10 34
M  V30 37 1 11 35
M  V30 38 1 14 36
M  V30 39 1 14 37
M  V30 40 1 14 38
M  V30 41 1 17 39
M  V30 42 1 17 40
M  V30 43 1 17 41
M  V30 44 1 18 42
M  V30 45 1 22 43
M  V30 46 1 24 44
M  V30 47 1 25 45
M  V30 48 1 26 46
M  V30 END BOND
M  V30 END CTAB
M  END
>  <Dataset>  (757) 
ChEMBL_Kinases

>  <Ligand_Instance>  (757) 
nan

>  <PDB_ID>  (757) 
nan

>  <Standardized_SMILES>  (757) 
COC(=O)C1=C(C)N(c2ccc(OC)c(OC)c2)C(=O)/C1=C\c1ccco1

>  <Name>  (757) 
nan

>  <Pocket>  (757) 
nan

>  <ATP_Site>  (757) 
nan

>  <Peripheral>  (757) 
nan

>  <Num_H_Atoms_ProtBoundConf>  (757) 
nan

>  <Num_Resolved_Atoms>  (757) 
nan

>  <Num_Not_Resolved_Atoms>  (757) 
nan

$$$$
CHEMBL1402572
     RDKit          3D

  0  0  0  0  0  0  0  0  0  0999 V3000
M  V30 BEGIN CTAB
M  V30 COUNTS 41 44 0 0 0
M  V30 BEGIN ATOM
M  V30 1 C 0.603613 -4.827895 3.433072 0
M  V30 2 C 1.238615 -4.175445 2.256841 0
M  V30 3 C 1.371390 -2.783338 2.264337 0
M  V30 4 C 1.986235 -2.452535 1.064969 0
M  V30 5 N 2.421075 -1.263080 0.409408 0
M  V30 6 C 1.444468 -0.595598 -0.466340 0
M  V30 7 C 2.050898 0.617779 -1.068295 0
M  V30 8 C 1.374661 1.833630 -1.138232 0
M  V30 9 C 1.946887 2.951624 -1.697611 0
M  V30 10 C 3.230614 2.880056 -2.209140 0
M  V30 11 C 3.858858 1.642150 -2.112942 0
M  V30 12 N 3.296417 0.542560 -1.562997 0
M  V30 13 C 0.251692 -0.228260 0.370569 0
M  V30 14 C 0.500010 0.692554 1.378932 0
M  V30 15 C -0.520027 1.112027 2.219827 0
M  V30 16 C -1.764734 0.554786 1.977962 0
M  V30 17 C -2.830469 0.933258 2.785721 0
M  V30 18 C -4.083438 0.390850 2.564462 0
M  V30 19 C -4.306152 -0.530497 1.546926 0
M  V30 20 N -3.252036 -0.879638 0.777862 0
M  V30 21 C -2.021602 -0.357332 0.982792 0
M  V30 22 C -1.000282 -0.772351 0.146799 0
M  V30 23 O -1.141376 -1.678608 -0.880382 0
M  V30 24 N 2.188189 -3.632189 0.411281 0
M  V30 25 O 1.745021 -4.626198 1.123306 0
M  V30 26 H -0.408498 -4.381009 3.647781 0
M  V30 27 H 0.367508 -5.911406 3.217105 0
M  V30 28 H 1.185449 -4.713853 4.368976 0
M  V30 29 H 1.128063 -1.972198 2.929352 0
M  V30 30 H 3.415159 -1.121857 0.723778 0
M  V30 31 H 1.148155 -1.331448 -1.240438 0
M  V30 32 H 0.378924 1.921480 -0.751062 0
M  V30 33 H 1.416291 3.889633 -1.748006 0
M  V30 34 H 3.752021 3.716546 -2.666616 0
M  V30 35 H 4.871952 1.574938 -2.513870 0
M  V30 36 H 1.480584 1.117742 1.553198 0
M  V30 37 H -0.306957 1.821737 2.990019 0
M  V30 38 H -2.633920 1.654400 3.574645 0
M  V30 39 H -4.863853 0.735620 3.236175 0
M  V30 40 H -5.315701 -0.871486 1.482645 0
M  V30 41 H -0.650868 -2.573199 -0.827729 0
M  V30 END ATOM
M  V30 BEGIN BOND
M  V30 1 1 1 2
M  V30 2 2 2 3
M  V30 3 1 3 4
M  V30 4 1 4 5
M  V30 5 1 5 6
M  V30 6 1 6 7
M  V30 7 2 7 8
M  V30 8 1 8 9
M  V30 9 2 9 10
M  V30 10 1 10 11
M  V30 11 2 11 12
M  V30 12 1 6 13
M  V30 13 2 13 14
M  V30 14 1 14 15
M  V30 15 2 15 16
M  V30 16 1 16 17
M  V30 17 2 17 18
M  V30 18 1 18 19
M  V30 19 2 19 20
M  V30 20 1 20 21
M  V30 21 2 21 22
M  V30 22 1 22 23
M  V30 23 2 4 24
M  V30 24 1 24 25
M  V30 25 1 25 2
M  V30 26 1 12 7
M  V30 27 1 22 13
M  V30 28 1 21 16
M  V30 29 1 1 26
M  V30 30 1 1 27
M  V30 31 1 1 28
M  V30 32 1 3 29
M  V30 33 1 5 30
M  V30 34 1 6 31
M  V30 35 1 8 32
M  V30 36 1 9 33
M  V30 37 1 10 34
M  V30 38 1 11 35
M  V30 39 1 14 36
M  V30 40 1 15 37
M  V30 41 1 17 38
M  V30 42 1 18 39
M  V30 43 1 19 40
M  V30 44 1 23 41
M  V30 END BOND
M  V30 END CTAB
M  END
>  <Dataset>  (758) 
ChEMBL_Kinases

>  <Ligand_Instance>  (758) 
nan

>  <PDB_ID>  (758) 
nan

>  <Standardized_SMILES>  (758) 
Cc1cc(NC(c2ccccn2)c2ccc3cccnc3c2O)no1

>  <Name>  (758) 
nan

>  <Pocket>  (758) 
nan

>  <ATP_Site>  (758) 
nan

>  <Peripheral>  (758) 
nan

>  <Num_H_Atoms_ProtBoundConf>  (758) 
nan

>  <Num_Resolved_Atoms>  (758) 
nan

>  <Num_Not_Resolved_Atoms>  (758) 
nan

$$$$
CHEMBL1402568
     RDKit          3D

  0  0  0  0  0  0  0  0  0  0999 V3000
M  V30 BEGIN CTAB
M  V30 COUNTS 50 53 0 0 0
M  V30 BEGIN ATOM
M  V30 1 C 3.739231 -3.913879 4.287667 0
M  V30 2 C 5.052119 -3.801191 3.503681 0
M  V30 3 O 4.900398 -2.809619 2.481786 0
M  V30 4 C 4.592057 -1.494408 2.790953 0
M  V30 5 O 4.428471 -1.094101 3.971971 0
M  V30 6 N 4.428335 -0.468924 1.819487 0
M  V30 7 C 4.106388 0.872347 2.266836 0
M  V30 8 C 2.604508 1.026391 1.972375 0
M  V30 9 N 2.438507 0.837290 0.565413 0
M  V30 10 C 1.168963 1.076078 -0.062306 0
M  V30 11 N 1.147810 2.094788 -0.965108 0
M  V30 12 C 0.014727 2.447304 -1.635241 0
M  V30 13 N -1.168467 1.790196 -1.432812 0
M  V30 14 C -1.162171 0.783465 -0.545799 0
M  V30 15 C -0.024768 0.411927 0.141961 0
M  V30 16 C -0.254905 -0.637697 0.986413 0
M  V30 17 N -1.573561 -0.921363 0.814013 0
M  V30 18 N -2.095293 -0.074275 -0.093195 0
M  V30 19 C -3.469636 -0.142593 -0.472189 0
M  V30 20 C -4.370656 0.886749 -0.269177 0
M  V30 21 C -5.708838 0.770893 -0.658028 0
M  V30 22 C -6.131668 -0.419411 -1.264952 0
M  V30 23 O -7.457839 -0.543184 -1.653067 0
M  V30 24 C -8.010207 -1.686421 -2.272130 0
M  V30 25 C -5.234113 -1.460921 -1.474310 0
M  V30 26 C -3.909406 -1.325984 -1.080881 0
M  V30 27 C 3.527841 0.401092 -0.294845 0
M  V30 28 C 4.519926 -0.482550 0.393622 0
M  V30 29 H 4.034292 -3.899984 5.372962 0
M  V30 30 H 3.062688 -3.078822 4.023399 0
M  V30 31 H 3.246203 -4.897472 4.121951 0
M  V30 32 H 5.227403 -4.793018 3.045147 0
M  V30 33 H 5.915319 -3.576141 4.166831 0
M  V30 34 H 4.228038 0.928540 3.371433 0
M  V30 35 H 4.687540 1.665076 1.762360 0
M  V30 36 H 2.152244 0.190602 2.542311 0
M  V30 37 H 2.245782 2.025126 2.295160 0
M  V30 38 H 0.067415 3.280779 -2.352086 0
M  V30 39 H 0.416477 -1.139743 1.637218 0
M  V30 40 H -4.003542 1.794159 0.205026 0
M  V30 41 H -6.389019 1.597232 -0.484653 0
M  V30 42 H -7.726383 -2.639734 -1.783243 0
M  V30 43 H -7.625543 -1.740445 -3.314893 0
M  V30 44 H -9.109999 -1.546347 -2.308476 0
M  V30 45 H -5.540718 -2.397292 -1.945202 0
M  V30 46 H -3.199233 -2.117925 -1.232978 0
M  V30 47 H 3.987115 1.317351 -0.736736 0
M  V30 48 H 3.074768 -0.157819 -1.138596 0
M  V30 49 H 4.513568 -1.502309 -0.042044 0
M  V30 50 H 5.539353 -0.075251 0.142235 0
M  V30 END ATOM
M  V30 BEGIN BOND
M  V30 1 1 1 2
M  V30 2 1 2 3
M  V30 3 1 3 4
M  V30 4 2 4 5
M  V30 5 1 4 6
M  V30 6 1 6 7
M  V30 7 1 7 8
M  V30 8 1 8 9
M  V30 9 1 9 10
M  V30 10 2 10 11
M  V30 11 1 11 12
M  V30 12 2 12 13
M  V30 13 1 13 14
M  V30 14 2 14 15
M  V30 15 1 15 16
M  V30 16 2 16 17
M  V30 17 1 17 18
M  V30 18 1 18 19
M  V30 19 2 19 20
M  V30 20 1 20 21
M  V30 21 2 21 22
M  V30 22 1 22 23
M  V30 23 1 23 24
M  V30 24 1 22 25
M  V30 25 2 25 26
M  V30 26 1 9 27
M  V30 27 1 27 28
M  V30 28 1 28 6
M  V30 29 1 15 10
M  V30 30 1 26 19
M  V30 31 1 18 14
M  V30 32 1 1 29
M  V30 33 1 1 30
M  V30 34 1 1 31
M  V30 35 1 2 32
M  V30 36 1 2 33
M  V30 37 1 7 34
M  V30 38 1 7 35
M  V30 39 1 8 36
M  V30 40 1 8 37
M  V30 41 1 12 38
M  V30 42 1 16 39
M  V30 43 1 20 40
M  V30 44 1 21 41
M  V30 45 1 24 42
M  V30 46 1 24 43
M  V30 47 1 24 44
M  V30 48 1 25 45
M  V30 49 1 26 46
M  V30 50 1 27 47
M  V30 51 1 27 48
M  V30 52 1 28 49
M  V30 53 1 28 50
M  V30 END BOND
M  V30 END CTAB
M  END
>  <Dataset>  (759) 
ChEMBL_Kinases

>  <Ligand_Instance>  (759) 
nan

>  <PDB_ID>  (759) 
nan

>  <Standardized_SMILES>  (759) 
CCOC(=O)N1CCN(c2ncnc3c2cnn3-c2ccc(OC)cc2)CC1

>  <Name>  (759) 
nan

>  <Pocket>  (759) 
nan

>  <ATP_Site>  (759) 
nan

>  <Peripheral>  (759) 
nan

>  <Num_H_Atoms_ProtBoundConf>  (759) 
nan

>  <Num_Resolved_Atoms>  (759) 
nan

>  <Num_Not_Resolved_Atoms>  (759) 
nan

$$$$
CHEMBL1402563
     RDKit          3D

  0  0  0  0  0  0  0  0  0  0999 V3000
M  V30 BEGIN CTAB
M  V30 COUNTS 50 53 0 0 0
M  V30 BEGIN ATOM
M  V30 1 C 4.106055 -4.781541 4.127600 0
M  V30 2 O 2.878072 -5.225140 3.597186 0
M  V30 3 C 2.197362 -4.430540 2.688145 0
M  V30 4 C 2.606724 -3.197838 2.223740 0
M  V30 5 C 1.862170 -2.476588 1.316851 0
M  V30 6 C 0.665533 -2.928515 0.811605 0
M  V30 7 C -0.031515 -2.093180 -0.132080 0
M  V30 8 C 0.457199 -0.936331 -0.500699 0
M  V30 9 C -0.128502 0.033618 -1.452941 0
M  V30 10 C -0.337775 1.331289 -0.715532 0
M  V30 11 C -0.686529 1.257951 0.617830 0
M  V30 12 C -0.902691 2.381021 1.389443 0
M  V30 13 C -0.756426 3.616055 0.773728 0
M  V30 14 O -0.955374 4.790669 1.477257 0
M  V30 15 C -1.312675 4.840954 2.837489 0
M  V30 16 C -0.408710 3.708717 -0.556585 0
M  V30 17 O -0.270002 4.959019 -1.144198 0
M  V30 18 C 0.085467 5.084708 -2.505517 0
M  V30 19 C -0.196777 2.575367 -1.311574 0
M  V30 20 N -1.381150 -0.361766 -2.013492 0
M  V30 21 N -2.146167 0.278581 -2.875757 0
M  V30 22 N -3.207926 -0.472726 -3.109822 0
M  V30 23 N -3.087228 -1.581620 -2.382124 0
M  V30 24 C -1.943465 -1.535724 -1.681756 0
M  V30 25 N -1.268855 -2.360145 -0.765633 0
M  V30 26 C 0.281076 -4.155663 1.288795 0
M  V30 27 O -0.906765 -4.695542 0.841198 0
M  V30 28 C -1.360860 -5.943566 1.285801 0
M  V30 29 C 1.001225 -4.905250 2.196685 0
M  V30 30 H 4.945626 -4.808324 3.412450 0
M  V30 31 H 4.033602 -3.731547 4.510832 0
M  V30 32 H 4.380994 -5.400441 5.026827 0
M  V30 33 H 3.551708 -2.898106 2.656514 0
M  V30 34 H 2.379844 -1.556387 1.107028 0
M  V30 35 H 1.369617 -0.497683 -0.165847 0
M  V30 36 H 0.608465 0.217364 -2.272789 0
M  V30 37 H -0.794998 0.279441 1.077344 0
M  V30 38 H -1.170013 2.280566 2.413586 0
M  V30 39 H -0.425121 4.833711 3.507717 0
M  V30 40 H -1.891527 5.771218 3.064960 0
M  V30 41 H -1.975244 4.005425 3.146916 0
M  V30 42 H -0.497012 4.381806 -3.135244 0
M  V30 43 H -0.175965 6.125819 -2.801315 0
M  V30 44 H 1.183217 4.977001 -2.610361 0
M  V30 45 H 0.077230 2.585851 -2.356914 0
M  V30 46 H -1.772272 -3.244282 -0.567026 0
M  V30 47 H -0.664302 -6.773268 1.047844 0
M  V30 48 H -1.414067 -5.878661 2.410572 0
M  V30 49 H -2.322681 -6.217018 0.847655 0
M  V30 50 H 0.622931 -5.870197 2.522875 0
M  V30 END ATOM
M  V30 BEGIN BOND
M  V30 1 1 1 2
M  V30 2 1 2 3
M  V30 3 2 3 4
M  V30 4 1 4 5
M  V30 5 2 5 6
M  V30 6 1 6 7
M  V30 7 2 7 8
M  V30 8 1 8 9
M  V30 9 1 9 10
M  V30 10 2 10 11
M  V30 11 1 11 12
M  V30 12 2 12 13
M  V30 13 1 13 14
M  V30 14 1 14 15
M  V30 15 1 13 16
M  V30 16 1 16 17
M  V30 17 1 17 18
M  V30 18 2 16 19
M  V30 19 1 9 20
M  V30 20 1 20 21
M  V30 21 2 21 22
M  V30 22 1 22 23
M  V30 23 2 23 24
M  V30 24 1 24 25
M  V30 25 1 6 26
M  V30 26 1 26 27
M  V30 27 1 27 28
M  V30 28 2 26 29
M  V30 29 1 29 3
M  V30 30 1 25 7
M  V30 31 1 19 10
M  V30 32 1 24 20
M  V30 33 1 1 30
M  V30 34 1 1 31
M  V30 35 1 1 32
M  V30 36 1 4 33
M  V30 37 1 5 34
M  V30 38 1 8 35
M  V30 39 1 9 36
M  V30 40 1 11 37
M  V30 41 1 12 38
M  V30 42 1 15 39
M  V30 43 1 15 40
M  V30 44 1 15 41
M  V30 45 1 18 42
M  V30 46 1 18 43
M  V30 47 1 18 44
M  V30 48 1 19 45
M  V30 49 1 25 46
M  V30 50 1 28 47
M  V30 51 1 28 48
M  V30 52 1 28 49
M  V30 53 1 29 50
M  V30 END BOND
M  V30 END CTAB
M  END
>  <Dataset>  (760) 
ChEMBL_Kinases

>  <Ligand_Instance>  (760) 
nan

>  <PDB_ID>  (760) 
nan

>  <Standardized_SMILES>  (760) 
COc1ccc(C2=CC(c3ccc(OC)c(OC)c3)n3nnnc3N2)c(OC)c1

>  <Name>  (760) 
nan

>  <Pocket>  (760) 
nan

>  <ATP_Site>  (760) 
nan

>  <Peripheral>  (760) 
nan

>  <Num_H_Atoms_ProtBoundConf>  (760) 
nan

>  <Num_Resolved_Atoms>  (760) 
nan

>  <Num_Not_Resolved_Atoms>  (760) 
nan

$$$$
CHEMBL1402544
     RDKit          3D

  0  0  0  0  0  0  0  0  0  0999 V3000
M  V30 BEGIN CTAB
M  V30 COUNTS 41 42 0 0 0
M  V30 BEGIN ATOM
M  V30 1 O -0.655300 -2.140884 2.437563 0
M  V30 2 C -0.061337 -3.219551 2.183501 0
M  V30 3 N 0.250831 -3.534868 0.858086 0
M  V30 4 C -0.016614 -2.766610 -0.344106 0
M  V30 5 C 0.689523 -1.450598 -0.205826 0
M  V30 6 O 2.052031 -1.663308 -0.061939 0
M  V30 7 C 0.379377 -0.506916 -1.347245 0
M  V30 8 O 1.022154 0.714762 -1.048160 0
M  V30 9 C 0.994851 1.843019 -1.828422 0
M  V30 10 C 0.348826 2.033749 -3.051684 0
M  V30 11 C 0.410701 3.223651 -3.720295 0
M  V30 12 C 1.124871 4.276651 -3.189986 0
M  V30 13 N 1.215126 5.532692 -3.853305 0 CHG=1 VAL=4
M  V30 14 O 0.648806 5.734569 -4.948260 0
M  V30 15 O 1.941564 6.534386 -3.268679 0 CHG=-1 VAL=1
M  V30 16 C 1.779373 4.135578 -1.984601 0
M  V30 17 C 1.705938 2.911072 -1.313153 0
M  V30 18 N 0.243134 -4.032938 3.287140 0
M  V30 19 C -0.200726 -3.449617 4.532196 0
M  V30 20 C -1.487710 -3.739741 5.000344 0
M  V30 21 C -1.908928 -3.174986 6.199612 0
M  V30 22 C -1.089045 -2.348794 6.918334 0
M  V30 23 C 0.172711 -2.056296 6.472144 0
M  V30 24 C 0.606479 -2.610192 5.281042 0
M  V30 25 H 0.749484 -4.468946 0.761029 0
M  V30 26 H -1.132663 -2.598430 -0.347712 0
M  V30 27 H 0.259888 -3.332404 -1.229714 0
M  V30 28 H 0.330446 -0.942840 0.710309 0
M  V30 29 H 2.262956 -2.535020 -0.484344 0
M  V30 30 H -0.708781 -0.316342 -1.340759 0
M  V30 31 H 0.704404 -0.903596 -2.327226 0
M  V30 32 H -0.191998 1.158271 -3.402502 0
M  V30 33 H -0.101672 3.334790 -4.664375 0
M  V30 34 H 2.351209 4.960594 -1.548193 0
M  V30 35 H 2.248105 2.865859 -0.361253 0
M  V30 36 H 0.745312 -4.951397 3.103082 0
M  V30 37 H -2.113061 -4.398380 4.407002 0
M  V30 38 H -2.916316 -3.461284 6.472177 0
M  V30 39 H -1.519910 -1.958978 7.847172 0
M  V30 40 H 0.802983 -1.400768 7.057013 0
M  V30 41 H 1.615813 -2.392007 4.899072 0
M  V30 END ATOM
M  V30 BEGIN BOND
M  V30 1 2 1 2
M  V30 2 1 2 3
M  V30 3 1 3 4
M  V30 4 1 4 5
M  V30 5 1 5 6
M  V30 6 1 5 7
M  V30 7 1 7 8
M  V30 8 1 8 9
M  V30 9 2 9 10
M  V30 10 1 10 11
M  V30 11 2 11 12
M  V30 12 1 12 13
M  V30 13 2 13 14
M  V30 14 1 13 15
M  V30 15 1 12 16
M  V30 16 2 16 17
M  V30 17 1 2 18
M  V30 18 1 18 19
M  V30 19 2 19 20
M  V30 20 1 20 21
M  V30 21 2 21 22
M  V30 22 1 22 23
M  V30 23 2 23 24
M  V30 24 1 17 9
M  V30 25 1 24 19
M  V30 26 1 3 25
M  V30 27 1 4 26
M  V30 28 1 4 27
M  V30 29 1 5 28
M  V30 30 1 6 29
M  V30 31 1 7 30
M  V30 32 1 7 31
M  V30 33 1 10 32
M  V30 34 1 11 33
M  V30 35 1 16 34
M  V30 36 1 17 35
M  V30 37 1 18 36
M  V30 38 1 20 37
M  V30 39 1 21 38
M  V30 40 1 22 39
M  V30 41 1 23 40
M  V30 42 1 24 41
M  V30 END BOND
M  V30 END CTAB
M  END
>  <Dataset>  (761) 
ChEMBL_Kinases

>  <Ligand_Instance>  (761) 
nan

>  <PDB_ID>  (761) 
nan

>  <Standardized_SMILES>  (761) 
O=C(NCC(O)COc1ccc([N+](=O)[O-])cc1)Nc1ccccc1

>  <Name>  (761) 
nan

>  <Pocket>  (761) 
nan

>  <ATP_Site>  (761) 
nan

>  <Peripheral>  (761) 
nan

>  <Num_H_Atoms_ProtBoundConf>  (761) 
nan

>  <Num_Resolved_Atoms>  (761) 
nan

>  <Num_Not_Resolved_Atoms>  (761) 
nan

$$$$
CHEMBL1402196
     RDKit          3D

  0  0  0  0  0  0  0  0  0  0999 V3000
M  V30 BEGIN CTAB
M  V30 COUNTS 52 56 0 0 0
M  V30 BEGIN ATOM
M  V30 1 C -0.736901 -3.153102 6.700968 0
M  V30 2 O -1.267197 -3.935974 5.621659 0
M  V30 3 C -1.069737 -3.432440 4.332343 0
M  V30 4 C -0.393907 -2.239989 4.154540 0
M  V30 5 C -0.236544 -1.803667 2.847432 0
M  V30 6 N 0.421804 -0.642035 2.674473 0
M  V30 7 C 0.642599 -0.104706 1.438273 0
M  V30 8 N 1.342215 1.129663 1.253992 0
M  V30 9 C 1.563568 1.679723 -0.066984 0
M  V30 10 C 2.327018 2.975316 0.119691 0
M  V30 11 C 1.577629 3.976232 0.932067 0
M  V30 12 C 2.070956 5.293071 0.370249 0
M  V30 13 C 2.836656 4.913662 -0.865060 0
M  V30 14 O 2.579908 3.567325 -1.102932 0
M  V30 15 N 0.179456 -0.769449 0.344150 0
M  V30 16 N 0.222919 -0.531161 -0.956387 0
M  V30 17 C -0.390842 -1.506873 -1.650731 0
M  V30 18 C -0.546121 -1.592320 -3.113533 0
M  V30 19 C -1.863956 -1.683710 -3.538745 0
M  V30 20 C -2.167096 -1.770731 -4.885248 0
M  V30 21 C -1.108995 -1.762000 -5.767093 0
M  V30 22 N 0.168943 -1.673239 -5.352058 0
M  V30 23 C 0.487215 -1.587105 -4.037276 0
M  V30 24 N -0.830058 -2.383035 -0.728313 0
M  V30 25 C -0.480952 -1.934179 0.513367 0
M  V30 26 C -0.716368 -2.497243 1.753007 0
M  V30 27 C -1.390532 -3.687687 1.937882 0
M  V30 28 C -1.551080 -4.128924 3.240092 0
M  V30 29 O -2.212028 -5.303997 3.485068 0
M  V30 30 C -2.757620 -6.118514 2.447385 0
M  V30 31 H -1.132461 -2.114250 6.627405 0
M  V30 32 H -1.059247 -3.545340 7.676707 0
M  V30 33 H 0.363894 -3.089345 6.651130 0
M  V30 34 H -0.003052 -1.667036 4.981941 0
M  V30 35 H 1.680857 1.603208 2.145569 0
M  V30 36 H 0.675410 1.788123 -0.680268 0
M  V30 37 H 2.244139 0.979984 -0.604960 0
M  V30 38 H 3.304305 2.761080 0.597719 0
M  V30 39 H 1.904943 3.938984 2.011022 0
M  V30 40 H 0.479576 3.876922 0.878777 0
M  V30 41 H 1.212027 5.975450 0.130109 0
M  V30 42 H 2.772183 5.794824 1.066924 0
M  V30 43 H 2.448158 5.468324 -1.737691 0
M  V30 44 H 3.934233 5.120483 -0.775271 0
M  V30 45 H -2.716065 -1.693132 -2.873937 0
M  V30 46 H -3.142102 -1.845742 -5.339594 0
M  V30 47 H -1.178842 -1.822868 -6.849801 0
M  V30 48 H 1.471201 -1.513227 -3.613171 0
M  V30 49 H -1.759993 -4.218764 1.071429 0
M  V30 50 H -3.488584 -6.833393 2.872695 0
M  V30 51 H -3.360587 -5.476904 1.752933 0
M  V30 52 H -1.986604 -6.676837 1.891747 0
M  V30 END ATOM
M  V30 BEGIN BOND
M  V30 1 1 1 2
M  V30 2 1 2 3
M  V30 3 2 3 4
M  V30 4 1 4 5
M  V30 5 1 5 6
M  V30 6 2 6 7
M  V30 7 1 7 8
M  V30 8 1 8 9
M  V30 9 1 9 10
M  V30 10 1 10 11
M  V30 11 1 11 12
M  V30 12 1 12 13
M  V30 13 1 13 14
M  V30 14 1 7 15
M  V30 15 1 15 16
M  V30 16 2 16 17
M  V30 17 1 17 18
M  V30 18 2 18 19
M  V30 19 1 19 20
M  V30 20 2 20 21
M  V30 21 1 21 22
M  V30 22 2 22 23
M  V30 23 1 17 24
M  V30 24 2 24 25
M  V30 25 1 25 26
M  V30 26 1 26 27
M  V30 27 2 27 28
M  V30 28 1 28 29
M  V30 29 1 29 30
M  V30 30 1 28 3
M  V30 31 2 26 5
M  V30 32 1 14 10
M  V30 33 1 25 15
M  V30 34 1 23 18
M  V30 35 1 1 31
M  V30 36 1 1 32
M  V30 37 1 1 33
M  V30 38 1 4 34
M  V30 39 1 8 35
M  V30 40 1 9 36
M  V30 41 1 9 37
M  V30 42 1 10 38
M  V30 43 1 11 39
M  V30 44 1 11 40
M  V30 45 1 12 41
M  V30 46 1 12 42
M  V30 47 1 13 43
M  V30 48 1 13 44
M  V30 49 1 19 45
M  V30 50 1 20 46
M  V30 51 1 21 47
M  V30 52 1 23 48
M  V30 53 1 27 49
M  V30 54 1 30 50
M  V30 55 1 30 51
M  V30 56 1 30 52
M  V30 END BOND
M  V30 END CTAB
M  END
>  <Dataset>  (762) 
ChEMBL_Kinases

>  <Ligand_Instance>  (762) 
nan

>  <PDB_ID>  (762) 
nan

>  <Standardized_SMILES>  (762) 
COc1cc2nc(NCC3CCCO3)n3nc(-c4cccnc4)nc3c2cc1OC

>  <Name>  (762) 
nan

>  <Pocket>  (762) 
nan

>  <ATP_Site>  (762) 
nan

>  <Peripheral>  (762) 
nan

>  <Num_H_Atoms_ProtBoundConf>  (762) 
nan

>  <Num_Resolved_Atoms>  (762) 
nan

>  <Num_Not_Resolved_Atoms>  (762) 
nan

$$$$
CHEMBL1402071
     RDKit          3D

  0  0  0  0  0  0  0  0  0  0999 V3000
M  V30 BEGIN CTAB
M  V30 COUNTS 52 54 0 0 0
M  V30 BEGIN ATOM
M  V30 1 C 0.333062 -1.366728 3.522414 0
M  V30 2 C 1.591983 -1.308018 4.348711 0
M  V30 3 O 2.754045 -1.199356 3.516561 0
M  V30 4 C 3.052980 -2.177548 2.586041 0
M  V30 5 O 2.332019 -3.211657 2.414314 0
M  V30 6 N 4.220363 -1.977888 1.814322 0
M  V30 7 C 5.169865 -0.859589 1.869664 0
M  V30 8 C 5.320292 -0.239746 0.491345 0
M  V30 9 N 4.371539 -0.902437 -0.416195 0
M  V30 10 C 3.224479 -0.411138 -1.133315 0
M  V30 11 O 2.515803 -1.158330 -1.886032 0
M  V30 12 C 3.081417 1.033320 -0.814994 0
M  V30 13 S 1.666797 1.734835 -1.673225 0
M  V30 14 C 0.140126 1.033638 -1.065025 0
M  V30 15 N 0.157908 0.106995 -0.088887 0
M  V30 16 N -1.111457 -0.211872 0.138839 0
M  V30 17 C -1.910517 0.498501 -0.676245 0
M  V30 18 C -3.366937 0.419312 -0.717532 0
M  V30 19 C -4.118985 1.179699 -1.587352 0
M  V30 20 C -5.515984 1.106689 -1.627217 0
M  V30 21 C -6.071915 0.218284 -0.731640 0
M  V30 22 C -7.574804 0.131518 -0.766420 0
M  V30 23 C -5.411825 -0.584115 0.174988 0
M  V30 24 C -6.083413 -1.504321 1.095890 0
M  V30 25 C -4.038618 -0.434644 0.131794 0
M  V30 26 O -1.108938 1.243915 -1.392377 0
M  V30 27 C 4.741319 -2.318151 -0.553450 0
M  V30 28 C 4.592478 -2.974509 0.809928 0
M  V30 29 H 0.381558 -0.674160 2.669367 0
M  V30 30 H -0.504752 -1.129522 4.226497 0
M  V30 31 H 0.172468 -2.378905 3.080938 0
M  V30 32 H 1.718132 -2.206877 4.971542 0
M  V30 33 H 1.520988 -0.445706 5.022369 0
M  V30 34 H 4.839384 -0.118794 2.637039 0
M  V30 35 H 6.135496 -1.277404 2.172047 0
M  V30 36 H 5.135786 0.858912 0.513884 0
M  V30 37 H 6.324690 -0.413032 0.058862 0
M  V30 38 H 4.007720 1.578818 -1.085822 0
M  V30 39 H 2.957654 1.203435 0.276143 0
M  V30 40 H -3.642584 1.866228 -2.276764 0
M  V30 41 H -6.123963 1.691858 -2.298111 0
M  V30 42 H -7.943743 -0.312251 0.154328 0
M  V30 43 H -7.987632 1.179835 -0.788260 0
M  V30 44 H -7.907649 -0.361139 -1.687211 0
M  V30 45 H -6.379089 -1.000623 2.032843 0
M  V30 46 H -6.899541 -2.065837 0.598136 0
M  V30 47 H -5.326109 -2.295890 1.366596 0
M  V30 48 H -3.419117 -1.027473 0.811321 0
M  V30 49 H 4.052129 -2.828889 -1.252287 0
M  V30 50 H 5.772993 -2.440014 -0.952270 0
M  V30 51 H 5.607333 -3.334555 1.125155 0
M  V30 52 H 3.919109 -3.831218 0.822441 0
M  V30 END ATOM
M  V30 BEGIN BOND
M  V30 1 1 1 2
M  V30 2 1 2 3
M  V30 3 1 3 4
M  V30 4 2 4 5
M  V30 5 1 4 6
M  V30 6 1 6 7
M  V30 7 1 7 8
M  V30 8 1 8 9
M  V30 9 1 9 10
M  V30 10 2 10 11
M  V30 11 1 10 12
M  V30 12 1 12 13
M  V30 13 1 13 14
M  V30 14 2 14 15
M  V30 15 1 15 16
M  V30 16 2 16 17
M  V30 17 1 17 18
M  V30 18 2 18 19
M  V30 19 1 19 20
M  V30 20 2 20 21
M  V30 21 1 21 22
M  V30 22 1 21 23
M  V30 23 1 23 24
M  V30 24 2 23 25
M  V30 25 1 17 26
M  V30 26 1 9 27
M  V30 27 1 27 28
M  V30 28 1 28 6
M  V30 29 1 26 14
M  V30 30 1 25 18
M  V30 31 1 1 29
M  V30 32 1 1 30
M  V30 33 1 1 31
M  V30 34 1 2 32
M  V30 35 1 2 33
M  V30 36 1 7 34
M  V30 37 1 7 35
M  V30 38 1 8 36
M  V30 39 1 8 37
M  V30 40 1 12 38
M  V30 41 1 12 39
M  V30 42 1 19 40
M  V30 43 1 20 41
M  V30 44 1 22 42
M  V30 45 1 22 43
M  V30 46 1 22 44
M  V30 47 1 24 45
M  V30 48 1 24 46
M  V30 49 1 24 47
M  V30 50 1 25 48
M  V30 51 1 27 49
M  V30 52 1 27 50
M  V30 53 1 28 51
M  V30 54 1 28 52
M  V30 END BOND
M  V30 END CTAB
M  END
>  <Dataset>  (763) 
ChEMBL_Kinases

>  <Ligand_Instance>  (763) 
nan

>  <PDB_ID>  (763) 
nan

>  <Standardized_SMILES>  (763) 
CCOC(=O)N1CCN(C(=O)CSc2nnc(-c3ccc(C)c(C)c3)o2)CC1

>  <Name>  (763) 
nan

>  <Pocket>  (763) 
nan

>  <ATP_Site>  (763) 
nan

>  <Peripheral>  (763) 
nan

>  <Num_H_Atoms_ProtBoundConf>  (763) 
nan

>  <Num_Resolved_Atoms>  (763) 
nan

>  <Num_Not_Resolved_Atoms>  (763) 
nan

$$$$
CHEMBL1402018
     RDKit          3D

  0  0  0  0  0  0  0  0  0  0999 V3000
M  V30 BEGIN CTAB
M  V30 COUNTS 57 61 0 0 0
M  V30 BEGIN ATOM
M  V30 1 C 2.401317 0.511792 0.740728 0
M  V30 2 C 2.095895 1.860545 1.386348 0
M  V30 3 C 3.283225 2.249941 2.135806 0
M  V30 4 C 3.501041 1.680970 3.365009 0
M  V30 5 C 4.615151 1.998250 4.150546 0
M  V30 6 C 5.473743 2.933319 3.578803 0
M  V30 7 C 5.331593 3.542537 2.371054 0
M  V30 8 C 4.211306 3.180393 1.654712 0
M  V30 9 O 6.405783 4.401294 2.186015 0
M  V30 10 C 7.413631 3.926849 3.053784 0
M  V30 11 O 6.659144 3.429511 4.144239 0
M  V30 12 N 1.740893 2.786747 0.314374 0
M  V30 13 C 0.317191 2.716835 0.096566 0
M  V30 14 O -0.352128 3.123621 -0.912513 0
M  V30 15 N -0.270146 2.083896 1.252116 0
M  V30 16 C -1.694895 1.842714 1.386547 0
M  V30 17 C -2.051125 0.516168 0.832133 0
M  V30 18 O -0.838166 0.346791 0.544873 0
M  V30 19 N -3.353123 -0.016857 0.808838 0
M  V30 20 C -3.327417 -1.326413 0.197167 0
M  V30 21 C -3.141058 -2.482766 0.926406 0
M  V30 22 C -3.135678 -3.662313 0.224061 0
M  V30 23 C -3.302243 -3.738464 -1.127600 0
M  V30 24 N -3.303361 -4.941723 -1.889488 0
M  V30 25 C -3.466017 -4.922682 -3.336451 0
M  V30 26 C -3.198267 -6.304503 -3.861164 0
M  V30 27 O -4.166419 -7.148334 -3.348360 0
M  V30 28 C -4.044392 -7.282631 -1.979429 0
M  V30 29 C -3.152076 -6.259573 -1.350179 0
M  V30 30 C -3.482566 -2.548738 -1.788714 0
M  V30 31 C -3.502838 -1.317436 -1.170259 0
M  V30 32 C 0.833779 1.793718 2.131271 0
M  V30 33 O 0.584417 1.539867 3.334834 0
M  V30 34 H 3.479270 0.342127 0.629594 0
M  V30 35 H 1.966592 0.480206 -0.279469 0
M  V30 36 H 1.905431 -0.251810 1.379052 0
M  V30 37 H 2.809398 0.962686 3.766013 0
M  V30 38 H 4.794834 1.557708 5.115526 0
M  V30 39 H 4.056984 3.646797 0.675576 0
M  V30 40 H 8.112275 4.724293 3.335734 0
M  V30 41 H 7.906419 3.066077 2.522977 0
M  V30 42 H 2.276321 3.457853 -0.299614 0
M  V30 43 H -1.928294 1.971795 2.456481 0
M  V30 44 H -2.243944 2.615887 0.828209 0
M  V30 45 H -4.074032 0.611386 1.223903 0
M  V30 46 H -3.009184 -2.424400 1.997435 0
M  V30 47 H -2.991011 -4.575846 0.778191 0
M  V30 48 H -2.683966 -4.227465 -3.707612 0
M  V30 49 H -4.481621 -4.600038 -3.601537 0
M  V30 50 H -2.190736 -6.625606 -3.531313 0
M  V30 51 H -3.307179 -6.302825 -4.965970 0
M  V30 52 H -5.066854 -7.327313 -1.551647 0
M  V30 53 H -3.612112 -8.296021 -1.790855 0
M  V30 54 H -2.101018 -6.580505 -1.496187 0
M  V30 55 H -3.373580 -6.296166 -0.245576 0
M  V30 56 H -3.618506 -2.565325 -2.865349 0
M  V30 57 H -3.649665 -0.390576 -1.734547 0
M  V30 END ATOM
M  V30 BEGIN BOND
M  V30 1 1 1 2
M  V30 2 1 2 3
M  V30 3 2 3 4
M  V30 4 1 4 5
M  V30 5 2 5 6
M  V30 6 1 6 7
M  V30 7 2 7 8
M  V30 8 1 7 9
M  V30 9 1 9 10
M  V30 10 1 10 11
M  V30 11 1 2 12
M  V30 12 1 12 13
M  V30 13 2 13 14
M  V30 14 1 13 15
M  V30 15 1 15 16
M  V30 16 1 16 17
M  V30 17 2 17 18
M  V30 18 1 17 19
M  V30 19 1 19 20
M  V30 20 2 20 21
M  V30 21 1 21 22
M  V30 22 2 22 23
M  V30 23 1 23 24
M  V30 24 1 24 25
M  V30 25 1 25 26
M  V30 26 1 26 27
M  V30 27 1 27 28
M  V30 28 1 28 29
M  V30 29 1 23 30
M  V30 30 2 30 31
M  V30 31 1 15 32
M  V30 32 2 32 33
M  V30 33 1 32 2
M  V30 34 1 8 3
M  V30 35 1 31 20
M  V30 36 1 11 6
M  V30 37 1 29 24
M  V30 38 1 1 34
M  V30 39 1 1 35
M  V30 40 1 1 36
M  V30 41 1 4 37
M  V30 42 1 5 38
M  V30 43 1 8 39
M  V30 44 1 10 40
M  V30 45 1 10 41
M  V30 46 1 12 42
M  V30 47 1 16 43
M  V30 48 1 16 44
M  V30 49 1 19 45
M  V30 50 1 21 46
M  V30 51 1 22 47
M  V30 52 1 25 48
M  V30 53 1 25 49
M  V30 54 1 26 50
M  V30 55 1 26 51
M  V30 56 1 28 52
M  V30 57 1 28 53
M  V30 58 1 29 54
M  V30 59 1 29 55
M  V30 60 1 30 56
M  V30 61 1 31 57
M  V30 END BOND
M  V30 END CTAB
M  END
>  <Dataset>  (764) 
ChEMBL_Kinases

>  <Ligand_Instance>  (764) 
nan

>  <PDB_ID>  (764) 
nan

>  <Standardized_SMILES>  (764) 
CC1(c2ccc3c(c2)OCO3)NC(=O)N(CC(=O)Nc2ccc(N3CCOCC3)cc2)C1=O

>  <Name>  (764) 
nan

>  <Pocket>  (764) 
nan

>  <ATP_Site>  (764) 
nan

>  <Peripheral>  (764) 
nan

>  <Num_H_Atoms_ProtBoundConf>  (764) 
nan

>  <Num_Resolved_Atoms>  (764) 
nan

>  <Num_Not_Resolved_Atoms>  (764) 
nan

$$$$
CHEMBL1401753
     RDKit          3D

  0  0  0  0  0  0  0  0  0  0999 V3000
M  V30 BEGIN CTAB
M  V30 COUNTS 40 42 0 0 0
M  V30 BEGIN ATOM
M  V30 1 C 1.831974 -4.303832 1.283109 0
M  V30 2 C 1.214662 -3.706593 2.503642 0
M  V30 3 C -0.035232 -4.492701 2.845205 0
M  V30 4 C 0.887759 -2.267228 2.388025 0
M  V30 5 O 1.168413 -1.184515 2.984102 0
M  V30 6 N -0.000865 -1.986829 1.293866 0
M  V30 7 C -0.436300 -0.676493 1.016721 0
M  V30 8 C 0.049530 0.388253 0.285045 0
M  V30 9 C 1.323036 0.293023 -0.416329 0
M  V30 10 O 1.993778 -0.765409 -0.336340 0
M  V30 11 C 1.872237 1.382276 -1.220890 0
M  V30 12 C 1.143299 2.419030 -1.762724 0
M  V30 13 C 1.698092 3.439965 -2.505092 0
M  V30 14 C 3.063605 3.438364 -2.729245 0
M  V30 15 F 3.618664 4.435823 -3.456846 0
M  V30 16 C 3.859686 2.435229 -2.220565 0
M  V30 17 C 3.250027 1.425490 -1.475350 0
M  V30 18 O -0.788126 1.397135 0.350490 0
M  V30 19 C -1.841487 1.100121 1.092380 0
M  V30 20 C -2.986642 1.769613 1.481270 0
M  V30 21 C -3.941099 1.200765 2.279189 0
M  V30 22 C -3.766632 -0.108695 2.727602 0
M  V30 23 C -2.625362 -0.776864 2.340986 0
M  V30 24 C -1.651237 -0.194281 1.525659 0
M  V30 25 H 1.775702 -5.425321 1.408373 0
M  V30 26 H 1.209354 -4.113113 0.368212 0
M  V30 27 H 2.898708 -4.070606 1.134910 0
M  V30 28 H 1.945291 -3.868893 3.352518 0
M  V30 29 H -0.427419 -4.237842 3.852009 0
M  V30 30 H 0.153350 -5.584235 2.831585 0
M  V30 31 H -0.802740 -4.338256 2.031554 0
M  V30 32 H -0.437558 -2.626752 0.585764 0
M  V30 33 H 0.061379 2.414473 -1.583880 0
M  V30 34 H 1.093363 4.225655 -2.906817 0
M  V30 35 H 4.936224 2.398394 -2.372915 0
M  V30 36 H 3.888237 0.656210 -1.085883 0
M  V30 37 H -3.155847 2.796537 1.148627 0
M  V30 38 H -4.855460 1.657893 2.622443 0
M  V30 39 H -4.486167 -0.599762 3.353059 0
M  V30 40 H -2.494718 -1.794472 2.692357 0
M  V30 END ATOM
M  V30 BEGIN BOND
M  V30 1 1 1 2
M  V30 2 1 2 3
M  V30 3 1 2 4
M  V30 4 2 4 5
M  V30 5 1 4 6
M  V30 6 1 6 7
M  V30 7 2 7 8
M  V30 8 1 8 9
M  V30 9 2 9 10
M  V30 10 1 9 11
M  V30 11 2 11 12
M  V30 12 1 12 13
M  V30 13 2 13 14
M  V30 14 1 14 15
M  V30 15 1 14 16
M  V30 16 2 16 17
M  V30 17 1 8 18
M  V30 18 1 18 19
M  V30 19 2 19 20
M  V30 20 1 20 21
M  V30 21 2 21 22
M  V30 22 1 22 23
M  V30 23 2 23 24
M  V30 24 1 24 7
M  V30 25 1 17 11
M  V30 26 1 24 19
M  V30 27 1 1 25
M  V30 28 1 1 26
M  V30 29 1 1 27
M  V30 30 1 2 28
M  V30 31 1 3 29
M  V30 32 1 3 30
M  V30 33 1 3 31
M  V30 34 1 6 32
M  V30 35 1 12 33
M  V30 36 1 13 34
M  V30 37 1 16 35
M  V30 38 1 17 36
M  V30 39 1 20 37
M  V30 40 1 21 38
M  V30 41 1 22 39
M  V30 42 1 23 40
M  V30 END BOND
M  V30 END CTAB
M  END
>  <Dataset>  (765) 
ChEMBL_Kinases

>  <Ligand_Instance>  (765) 
nan

>  <PDB_ID>  (765) 
nan

>  <Standardized_SMILES>  (765) 
CC(C)C(=O)Nc1c(C(=O)c2ccc(F)cc2)oc2ccccc12

>  <Name>  (765) 
nan

>  <Pocket>  (765) 
nan

>  <ATP_Site>  (765) 
nan

>  <Peripheral>  (765) 
nan

>  <Num_H_Atoms_ProtBoundConf>  (765) 
nan

>  <Num_Resolved_Atoms>  (765) 
nan

>  <Num_Not_Resolved_Atoms>  (765) 
nan

$$$$
CHEMBL1400292
     RDKit          3D

  0  0  0  0  0  0  0  0  0  0999 V3000
M  V30 BEGIN CTAB
M  V30 COUNTS 56 60 0 0 0
M  V30 BEGIN ATOM
M  V30 1 C 8.818550 -0.256140 3.872036 0
M  V30 2 O 7.653822 -1.016419 3.898792 0
M  V30 3 C 6.536962 -0.845213 3.108595 0
M  V30 4 C 6.313097 0.096393 2.129502 0
M  V30 5 C 5.139144 0.152810 1.410530 0
M  V30 6 C 4.124158 -0.724650 1.626746 0
M  V30 7 N 2.874231 -0.759505 0.947394 0
M  V30 8 C 1.863534 0.037649 1.575679 0
M  V30 9 O 2.134456 0.670858 2.615966 0
M  V30 10 C 0.534168 0.079990 0.966042 0
M  V30 11 C 0.102410 -0.568234 -0.180899 0
M  V30 12 C -1.217412 -0.173901 -0.282372 0
M  V30 13 N -1.564972 0.649953 0.722789 0
M  V30 14 N -0.507243 0.798727 1.470182 0
M  V30 15 C -2.895240 1.207920 0.848064 0
M  V30 16 C -3.525313 0.703847 2.136901 0
M  V30 17 F -2.714394 1.125685 3.185937 0
M  V30 18 F -4.800053 1.202965 2.296335 0
M  V30 19 F -3.604981 -0.667298 2.143114 0
M  V30 20 C -3.761959 0.983112 -0.334148 0
M  V30 21 C -3.616595 -0.388303 -0.897969 0
M  V30 22 C -4.484159 -0.655850 -2.065736 0
M  V30 23 C -4.093823 -0.037199 -3.249885 0
M  V30 24 C -4.895188 -0.274980 -4.361021 0
M  V30 25 C -6.016704 -1.077665 -4.303650 0
M  V30 26 C -6.367199 -1.671345 -3.109406 0
M  V30 27 C -5.611159 -1.473073 -1.971809 0
M  V30 28 O -7.530126 -2.412583 -3.362040 0
M  V30 29 C -7.682105 -2.580404 -4.771685 0
M  V30 30 O -6.956903 -1.462854 -5.242572 0
M  V30 31 N -2.197608 -0.508653 -1.258609 0
M  V30 32 C 4.317644 -1.692416 2.612226 0
M  V30 33 C 5.496778 -1.743897 3.329680 0
M  V30 34 O 5.605277 -2.731406 4.284527 0
M  V30 35 C 4.565008 -3.644187 4.518762 0
M  V30 36 H 8.803795 0.498102 3.067844 0
M  V30 37 H 8.985576 0.254887 4.843264 0
M  V30 38 H 9.700627 -0.921787 3.647893 0
M  V30 39 H 7.125614 0.789365 1.965524 0
M  V30 40 H 4.993937 0.898401 0.653485 0
M  V30 41 H 2.647343 -1.292341 0.073591 0
M  V30 42 H 0.697420 -1.211745 -0.803004 0
M  V30 43 H -2.728490 2.324919 0.919923 0
M  V30 44 H -4.827801 1.110605 0.012759 0
M  V30 45 H -3.650571 1.780675 -1.113617 0
M  V30 46 H -3.879934 -1.095907 -0.083534 0
M  V30 47 H -3.223997 0.588469 -3.305209 0
M  V30 48 H -4.601466 0.200202 -5.285745 0
M  V30 49 H -5.877316 -1.935948 -1.023269 0
M  V30 50 H -7.241487 -3.554763 -5.062692 0
M  V30 51 H -8.741706 -2.584499 -5.041580 0
M  V30 52 H -1.873485 -0.826570 -2.192340 0
M  V30 53 H 3.520121 -2.422784 2.819013 0
M  V30 54 H 4.248667 -4.172936 3.578834 0
M  V30 55 H 4.846321 -4.440151 5.218915 0
M  V30 56 H 3.664237 -3.135789 4.924788 0
M  V30 END ATOM
M  V30 BEGIN BOND
M  V30 1 1 1 2
M  V30 2 1 2 3
M  V30 3 2 3 4
M  V30 4 1 4 5
M  V30 5 2 5 6
M  V30 6 1 6 7
M  V30 7 1 7 8
M  V30 8 2 8 9
M  V30 9 1 8 10
M  V30 10 1 10 11
M  V30 11 2 11 12
M  V30 12 1 12 13
M  V30 13 1 13 14
M  V30 14 1 13 15
M  V30 15 1 15 16
M  V30 16 1 16 17
M  V30 17 1 16 18
M  V30 18 1 16 19
M  V30 19 1 15 20
M  V30 20 1 20 21
M  V30 21 1 21 22
M  V30 22 2 22 23
M  V30 23 1 23 24
M  V30 24 2 24 25
M  V30 25 1 25 26
M  V30 26 2 26 27
M  V30 27 1 26 28
M  V30 28 1 28 29
M  V30 29 1 29 30
M  V30 30 1 21 31
M  V30 31 1 6 32
M  V30 32 2 32 33
M  V30 33 1 33 34
M  V30 34 1 34 35
M  V30 35 1 33 3
M  V30 36 2 14 10
M  V30 37 1 27 22
M  V30 38 1 31 12
M  V30 39 1 30 25
M  V30 40 1 1 36
M  V30 41 1 1 37
M  V30 42 1 1 38
M  V30 43 1 4 39
M  V30 44 1 5 40
M  V30 45 1 7 41
M  V30 46 1 11 42
M  V30 47 1 15 43
M  V30 48 1 20 44
M  V30 49 1 20 45
M  V30 50 1 21 46
M  V30 51 1 23 47
M  V30 52 1 24 48
M  V30 53 1 27 49
M  V30 54 1 29 50
M  V30 55 1 29 51
M  V30 56 1 31 52
M  V30 57 1 32 53
M  V30 58 1 35 54
M  V30 59 1 35 55
M  V30 60 1 35 56
M  V30 END BOND
M  V30 END CTAB
M  END
>  <Dataset>  (766) 
ChEMBL_Kinases

>  <Ligand_Instance>  (766) 
nan

>  <PDB_ID>  (766) 
nan

>  <Standardized_SMILES>  (766) 
COc1ccc(NC(=O)c2cc3n(n2)C(C(F)(F)F)CC(c2ccc4c(c2)OCO4)N3)cc1OC

>  <Name>  (766) 
nan

>  <Pocket>  (766) 
nan

>  <ATP_Site>  (766) 
nan

>  <Peripheral>  (766) 
nan

>  <Num_H_Atoms_ProtBoundConf>  (766) 
nan

>  <Num_Resolved_Atoms>  (766) 
nan

>  <Num_Not_Resolved_Atoms>  (766) 
nan

$$$$
CHEMBL140061
     RDKit          3D

  0  0  0  0  0  0  0  0  0  0999 V3000
M  V30 BEGIN CTAB
M  V30 COUNTS 17 17 0 0 0
M  V30 BEGIN ATOM
M  V30 1 O 0.208324 -1.023546 3.403951 0
M  V30 2 C 0.154032 -0.923747 2.137233 0
M  V30 3 C -0.724198 -1.792608 1.329890 0
M  V30 4 Br -2.037848 -0.625072 0.467397 0
M  V30 5 C 1.005650 0.099385 1.503520 0
M  V30 6 C 1.800936 0.885239 2.273790 0
M  V30 7 C 2.603998 1.873526 1.698258 0
M  V30 8 C 2.560430 2.023232 0.313370 0
M  V30 9 Cl 3.558913 3.265881 -0.452751 0
M  V30 10 C 1.759918 1.239336 -0.512575 0
M  V30 11 C 0.988500 0.273738 0.148379 0
M  V30 12 H -0.116887 -2.329383 0.593109 0
M  V30 13 H -1.306126 -2.456972 2.017804 0
M  V30 14 H 1.876885 0.813616 3.366788 0
M  V30 15 H 3.258369 2.522356 2.295868 0
M  V30 16 H 1.750238 1.383436 -1.577111 0
M  V30 17 H 0.375816 -0.321360 -0.529896 0
M  V30 END ATOM
M  V30 BEGIN BOND
M  V30 1 2 1 2
M  V30 2 1 2 3
M  V30 3 1 3 4
M  V30 4 1 2 5
M  V30 5 2 5 6
M  V30 6 1 6 7
M  V30 7 2 7 8
M  V30 8 1 8 9
M  V30 9 1 8 10
M  V30 10 2 10 11
M  V30 11 1 11 5
M  V30 12 1 3 12
M  V30 13 1 3 13
M  V30 14 1 6 14
M  V30 15 1 7 15
M  V30 16 1 10 16
M  V30 17 1 11 17
M  V30 END BOND
M  V30 END CTAB
M  END
>  <Dataset>  (767) 
ChEMBL_Kinases

>  <Ligand_Instance>  (767) 
nan

>  <PDB_ID>  (767) 
nan

>  <Standardized_SMILES>  (767) 
O=C(CBr)c1ccc(Cl)cc1

>  <Name>  (767) 
nan

>  <Pocket>  (767) 
nan

>  <ATP_Site>  (767) 
nan

>  <Peripheral>  (767) 
nan

>  <Num_H_Atoms_ProtBoundConf>  (767) 
nan

>  <Num_Resolved_Atoms>  (767) 
nan

>  <Num_Not_Resolved_Atoms>  (767) 
nan

$$$$
CHEMBL1400928
     RDKit          3D

  0  0  0  0  0  0  0  0  0  0999 V3000
M  V30 BEGIN CTAB
M  V30 COUNTS 36 36 0 0 0
M  V30 BEGIN ATOM
M  V30 1 C 1.250990 -3.797596 3.552520 0
M  V30 2 N 0.235344 -3.263047 2.643569 0
M  V30 3 C -1.125314 -3.325198 3.160678 0
M  V30 4 C 0.711666 -2.775160 1.412834 0
M  V30 5 O 1.956384 -2.879041 1.268247 0
M  V30 6 N -0.148087 -2.215777 0.426650 0
M  V30 7 C 0.382325 -1.724559 -0.832365 0
M  V30 8 N 0.183526 -0.331279 -1.025430 0
M  V30 9 C 1.022277 0.307649 -1.796426 0
M  V30 10 S 2.466564 -0.253265 -2.718790 0
M  V30 11 N 0.702325 1.714195 -1.906074 0
M  V30 12 C 0.257897 2.449255 -0.743208 0
M  V30 13 C -1.033688 2.522448 -0.309350 0
M  V30 14 C -1.372098 3.252244 0.813748 0
M  V30 15 C -0.381246 3.927084 1.519014 0
M  V30 16 C 0.934743 3.881872 1.118751 0
M  V30 17 C 1.189067 3.135452 -0.006415 0
M  V30 18 C -0.319675 -2.501073 -1.916246 0
M  V30 19 Cl 0.059249 -4.225910 -1.651190 0
M  V30 20 Cl 0.160645 -2.066492 -3.546983 0
M  V30 21 Cl -2.060307 -2.171240 -1.757817 0
M  V30 22 H 2.280460 -3.614052 3.194997 0
M  V30 23 H 1.141032 -3.251302 4.507805 0
M  V30 24 H 1.009556 -4.870747 3.710838 0
M  V30 25 H -1.146575 -3.171589 4.236528 0
M  V30 26 H -1.787851 -2.552228 2.679125 0
M  V30 27 H -1.573089 -4.319323 2.916252 0
M  V30 28 H -1.171024 -2.179086 0.659469 0
M  V30 29 H 1.477714 -1.903465 -0.802588 0
M  V30 30 H 2.932884 -1.476861 -2.222062 0
M  V30 31 H 0.793162 2.218802 -2.835521 0
M  V30 32 H -1.788921 1.982498 -0.882376 0
M  V30 33 H -2.387154 3.319634 1.168468 0
M  V30 34 H -0.586331 4.520263 2.414702 0
M  V30 35 H 1.705719 4.405840 1.665446 0
M  V30 36 H 2.241499 3.104180 -0.321814 0
M  V30 END ATOM
M  V30 BEGIN BOND
M  V30 1 1 1 2
M  V30 2 1 2 3
M  V30 3 1 2 4
M  V30 4 2 4 5
M  V30 5 1 4 6
M  V30 6 1 6 7
M  V30 7 1 7 8
M  V30 8 2 8 9 CFG=2
M  V30 9 1 9 10
M  V30 10 1 9 11
M  V30 11 1 11 12
M  V30 12 2 12 13
M  V30 13 1 13 14
M  V30 14 2 14 15
M  V30 15 1 15 16
M  V30 16 2 16 17
M  V30 17 1 7 18
M  V30 18 1 18 19
M  V30 19 1 18 20
M  V30 20 1 18 21
M  V30 21 1 17 12
M  V30 22 1 1 22
M  V30 23 1 1 23
M  V30 24 1 1 24
M  V30 25 1 3 25
M  V30 26 1 3 26
M  V30 27 1 3 27
M  V30 28 1 6 28
M  V30 29 1 7 29
M  V30 30 1 10 30
M  V30 31 1 11 31
M  V30 32 1 13 32
M  V30 33 1 14 33
M  V30 34 1 15 34
M  V30 35 1 16 35
M  V30 36 1 17 36
M  V30 END BOND
M  V30 END CTAB
M  END
>  <Dataset>  (768) 
ChEMBL_Kinases

>  <Ligand_Instance>  (768) 
nan

>  <PDB_ID>  (768) 
nan

>  <Standardized_SMILES>  (768) 
CN(C)C(=O)NC(N=C(S)Nc1ccccc1)C(Cl)(Cl)Cl

>  <Name>  (768) 
nan

>  <Pocket>  (768) 
nan

>  <ATP_Site>  (768) 
nan

>  <Peripheral>  (768) 
nan

>  <Num_H_Atoms_ProtBoundConf>  (768) 
nan

>  <Num_Resolved_Atoms>  (768) 
nan

>  <Num_Not_Resolved_Atoms>  (768) 
nan

$$$$
CHEMBL1400945
     RDKit          3D

  0  0  0  0  0  0  0  0  0  0999 V3000
M  V30 BEGIN CTAB
M  V30 COUNTS 56 59 0 0 0
M  V30 BEGIN ATOM
M  V30 1 C -0.977409 -6.437425 0.487651 0
M  V30 2 C -1.278516 -5.113948 -0.169491 0
M  V30 3 O -2.004107 -5.118018 -1.175940 0
M  V30 4 C -0.576301 -4.077698 0.617970 0 CFG=1
M  V30 5 C 0.906007 -4.395278 0.583034 0 CFG=2
M  V30 6 C 1.208371 -5.044750 1.863364 0
M  V30 7 N 1.455840 -5.559997 2.868828 0
M  V30 8 C 1.646591 -3.079112 0.450886 0
M  V30 9 C 0.555707 -2.088240 0.688818 0 CFG=1
M  V30 10 C 0.799045 -0.694264 0.256335 0 CFG=2
M  V30 11 C 2.029376 -0.112350 0.903123 0
M  V30 12 C 1.858963 1.269209 1.370940 0
M  V30 13 C 0.853761 2.070038 1.125567 0
M  V30 14 C 0.718400 3.468542 1.620337 0
M  V30 15 C -0.069624 4.333104 0.686695 0 CFG=1
M  V30 16 O 0.708450 4.583503 -0.452642 0
M  V30 17 C -1.401546 3.730545 0.385934 0
M  V30 18 C -1.511831 2.279265 0.712011 0
M  V30 19 C -0.273596 1.542876 0.268077 0 CFG=1
M  V30 20 C 0.020189 1.665978 -1.195780 0
M  V30 21 C -0.406865 0.106248 0.710215 0 CFG=1
M  V30 22 C -1.719171 -0.461018 0.311087 0
M  V30 23 C -1.856242 -1.925877 0.537627 0
M  V30 24 C -0.654643 -2.690242 0.031714 0 CFG=2
M  V30 25 C -0.638270 -2.679326 -1.457909 0
M  V30 26 H -1.502272 -7.244417 -0.049086 0
M  V30 27 H 0.112166 -6.615501 0.315321 0
M  V30 28 H -1.188491 -6.427832 1.571745 0
M  V30 29 H -0.958288 -4.006416 1.660945 0
M  V30 30 H 1.193922 -4.998862 -0.297200 0
M  V30 31 H 2.385766 -2.965213 1.272447 0
M  V30 32 H 2.130618 -2.959526 -0.525956 0
M  V30 33 H 0.324297 -2.059984 1.785091 0
M  V30 34 H 0.975866 -0.594958 -0.846303 0
M  V30 35 H 2.287266 -0.750747 1.772399 0
M  V30 36 H 2.913578 -0.129771 0.208020 0
M  V30 37 H 2.667480 1.658416 1.990824 0
M  V30 38 H 0.152236 3.455024 2.593939 0
M  V30 39 H 1.713119 3.912877 1.818725 0
M  V30 40 H -0.202654 5.328743 1.197160 0
M  V30 41 H 1.418503 5.241088 -0.164757 0
M  V30 42 H -2.175373 4.264152 0.987916 0
M  V30 43 H -1.594283 3.893931 -0.702770 0
M  V30 44 H -1.605343 2.155004 1.799346 0
M  V30 45 H -2.428042 1.896083 0.184619 0
M  V30 46 H -0.531606 2.477155 -1.708139 0
M  V30 47 H -0.333746 0.728962 -1.673903 0
M  V30 48 H 1.104506 1.711397 -1.419741 0
M  V30 49 H -0.350862 0.108499 1.831220 0
M  V30 50 H -2.481768 0.025596 0.989396 0
M  V30 51 H -2.028871 -0.142920 -0.719614 0
M  V30 52 H -1.894629 -2.084240 1.652668 0
M  V30 53 H -2.786907 -2.278646 0.048230 0
M  V30 54 H 0.059563 -3.421874 -1.882538 0
M  V30 55 H -0.443867 -1.663554 -1.816107 0
M  V30 56 H -1.700957 -2.890095 -1.779501 0
M  V30 END ATOM
M  V30 BEGIN BOND
M  V30 1 1 1 2
M  V30 2 2 2 3
M  V30 3 1 2 4
M  V30 4 1 4 5
M  V30 5 1 5 6
M  V30 6 3 6 7
M  V30 7 1 5 8
M  V30 8 1 8 9
M  V30 9 1 9 10
M  V30 10 1 10 11
M  V30 11 1 11 12
M  V30 12 2 12 13
M  V30 13 1 13 14
M  V30 14 1 14 15
M  V30 15 1 15 16
M  V30 16 1 15 17
M  V30 17 1 17 18
M  V30 18 1 18 19
M  V30 19 1 19 20 CFG=3
M  V30 20 1 19 21
M  V30 21 1 21 22
M  V30 22 1 22 23
M  V30 23 1 23 24
M  V30 24 1 24 25 CFG=3
M  V30 25 1 24 4
M  V30 26 1 24 9
M  V30 27 1 21 10
M  V30 28 1 19 13
M  V30 29 1 1 26
M  V30 30 1 1 27
M  V30 31 1 1 28
M  V30 32 1 4 29 CFG=1
M  V30 33 1 5 30 CFG=3
M  V30 34 1 8 31
M  V30 35 1 8 32
M  V30 36 1 9 33 CFG=1
M  V30 37 1 10 34 CFG=3
M  V30 38 1 11 35
M  V30 39 1 11 36
M  V30 40 1 12 37
M  V30 41 1 14 38
M  V30 42 1 14 39
M  V30 43 1 15 40 CFG=1
M  V30 44 1 16 41
M  V30 45 1 17 42
M  V30 46 1 17 43
M  V30 47 1 18 44
M  V30 48 1 18 45
M  V30 49 1 20 46
M  V30 50 1 20 47
M  V30 51 1 20 48
M  V30 52 1 21 49 CFG=1
M  V30 53 1 22 50
M  V30 54 1 22 51
M  V30 55 1 23 52
M  V30 56 1 23 53
M  V30 57 1 25 54
M  V30 58 1 25 55
M  V30 59 1 25 56
M  V30 END BOND
M  V30 END CTAB
M  END
>  <Dataset>  (769) 
ChEMBL_Kinases

>  <Ligand_Instance>  (769) 
nan

>  <PDB_ID>  (769) 
nan

>  <Standardized_SMILES>  (769) 
CC(=O)[C@H]1[C@H](C#N)C[C@H]2[C@@H]3CC=C4C[C@@H](O)CC[C@]4(C)[C@H]3CC[C@@]21C

>  <Name>  (769) 
PREGNENOLONE CARBONITRILE 

>  <Pocket>  (769) 
nan

>  <ATP_Site>  (769) 
nan

>  <Peripheral>  (769) 
nan

>  <Num_H_Atoms_ProtBoundConf>  (769) 
nan

>  <Num_Resolved_Atoms>  (769) 
nan

>  <Num_Not_Resolved_Atoms>  (769) 
nan

$$$$
CHEMBL1400989
     RDKit          3D

  0  0  0  0  0  0  0  0  0  0999 V3000
M  V30 BEGIN CTAB
M  V30 COUNTS 35 38 0 0 0
M  V30 BEGIN ATOM
M  V30 1 C -1.268108 -3.079499 1.968498 0
M  V30 2 N -1.041284 -1.711433 1.495586 0
M  V30 3 C 0.178315 -1.434824 0.874454 0
M  V30 4 C 1.246617 -2.162983 0.593960 0
M  V30 5 C 2.486621 -1.882651 -0.037349 0
M  V30 6 O 2.989671 -3.068668 0.059682 0
M  V30 7 C 3.477859 -1.088866 -0.696799 0
M  V30 8 C 4.661632 -1.693654 -1.062367 0
M  V30 9 C 5.688072 -1.000634 -1.710213 0
M  V30 10 C 5.444179 0.310973 -1.957491 0
M  V30 11 Cl 6.753938 1.167522 -2.776610 0
M  V30 12 C 4.324307 1.013391 -1.647061 0
M  V30 13 C 3.381755 0.243305 -1.015825 0
M  V30 14 S 0.110916 0.292461 0.435461 0
M  V30 15 C -1.518137 0.553958 1.093782 0
M  V30 16 C -2.250512 1.719453 1.105120 0
M  V30 17 C -3.503922 1.717379 1.666860 0
M  V30 18 C -3.925923 0.518243 2.181498 0
M  V30 19 C -3.165888 -0.633281 2.153992 0
M  V30 20 C -1.891984 -0.638221 1.584972 0
M  V30 21 O -5.201065 0.750377 2.689402 0
M  V30 22 C -5.697408 1.945781 2.121077 0
M  V30 23 O -4.485864 2.663379 1.849538 0
M  V30 24 H -0.904339 -3.215348 2.993124 0
M  V30 25 H -2.369701 -3.214667 1.977479 0
M  V30 26 H -0.890593 -3.830960 1.251578 0
M  V30 27 H 1.023397 -3.179737 0.970085 0
M  V30 28 H 4.917714 -2.751112 -0.889612 0
M  V30 29 H 6.604460 -1.495767 -1.985883 0
M  V30 30 H 4.225423 2.058060 -1.886708 0
M  V30 31 H 2.509544 0.823267 -0.782987 0
M  V30 32 H -1.860781 2.633530 0.682353 0
M  V30 33 H -3.623566 -1.530278 2.602873 0
M  V30 34 H -6.301107 1.770735 1.223231 0
M  V30 35 H -6.230078 2.559314 2.903590 0
M  V30 END ATOM
M  V30 BEGIN BOND
M  V30 1 1 1 2
M  V30 2 1 2 3
M  V30 3 2 3 4
M  V30 4 1 4 5
M  V30 5 2 5 6
M  V30 6 1 5 7
M  V30 7 2 7 8
M  V30 8 1 8 9
M  V30 9 2 9 10
M  V30 10 1 10 11
M  V30 11 1 10 12
M  V30 12 2 12 13
M  V30 13 1 3 14
M  V30 14 1 14 15
M  V30 15 2 15 16
M  V30 16 1 16 17
M  V30 17 2 17 18
M  V30 18 1 18 19
M  V30 19 2 19 20
M  V30 20 1 18 21
M  V30 21 1 21 22
M  V30 22 1 22 23
M  V30 23 1 20 2
M  V30 24 1 13 7
M  V30 25 1 20 15
M  V30 26 1 23 17
M  V30 27 1 1 24
M  V30 28 1 1 25
M  V30 29 1 1 26
M  V30 30 1 4 27
M  V30 31 1 8 28
M  V30 32 1 9 29
M  V30 33 1 12 30
M  V30 34 1 13 31
M  V30 35 1 16 32
M  V30 36 1 19 33
M  V30 37 1 22 34
M  V30 38 1 22 35
M  V30 END BOND
M  V30 END CTAB
M  END
>  <Dataset>  (770) 
ChEMBL_Kinases

>  <Ligand_Instance>  (770) 
nan

>  <PDB_ID>  (770) 
nan

>  <Standardized_SMILES>  (770) 
CN1/C(=C/C(=O)c2ccc(Cl)cc2)Sc2cc3c(cc21)OCO3

>  <Name>  (770) 
nan

>  <Pocket>  (770) 
nan

>  <ATP_Site>  (770) 
nan

>  <Peripheral>  (770) 
nan

>  <Num_H_Atoms_ProtBoundConf>  (770) 
nan

>  <Num_Resolved_Atoms>  (770) 
nan

>  <Num_Not_Resolved_Atoms>  (770) 
nan

$$$$
CHEMBL1401004
     RDKit          3D

  0  0  0  0  0  0  0  0  0  0999 V3000
M  V30 BEGIN CTAB
M  V30 COUNTS 29 30 0 0 0
M  V30 BEGIN ATOM
M  V30 1 O -0.711330 -1.031105 1.713032 0
M  V30 2 C 0.020531 -1.883389 1.148306 0
M  V30 3 C 0.976400 -2.651393 1.980246 0
M  V30 4 C 0.879808 -2.241185 3.419961 0
M  V30 5 C 1.558844 -1.245961 4.107277 0
M  V30 6 C 1.296976 -1.065077 5.426555 0
M  V30 7 C 0.342763 -1.883792 6.087145 0
M  V30 8 S -0.233069 -3.020165 4.683615 0
M  V30 9 N -0.030392 -2.137660 -0.238759 0
M  V30 10 C -0.906008 -1.473040 -1.181565 0
M  V30 11 C -0.479267 -0.116216 -1.532581 0
M  V30 12 C 0.370418 0.166833 -2.582670 0
M  V30 13 C 0.801520 1.413460 -2.958569 0
M  V30 14 C 0.353590 2.516177 -2.226661 0
M  V30 15 C -0.493941 2.288642 -1.171556 0
M  V30 16 F -0.909134 3.378234 -0.483205 0
M  V30 17 C -0.892016 1.023179 -0.840971 0
M  V30 18 H 2.022306 -2.556380 1.702236 0
M  V30 19 H 0.669129 -3.728376 1.909168 0
M  V30 20 H 2.267508 -0.662203 3.548625 0
M  V30 21 H 1.776096 -0.318613 6.035911 0
M  V30 22 H 0.026818 -1.874837 7.090320 0
M  V30 23 H 0.619288 -2.872356 -0.637363 0
M  V30 24 H -1.029920 -2.066423 -2.092631 0
M  V30 25 H -1.933122 -1.374908 -0.749583 0
M  V30 26 H 0.756451 -0.641261 -3.193247 0
M  V30 27 H 1.466652 1.590054 -3.787003 0
M  V30 28 H 0.688764 3.485338 -2.519218 0
M  V30 29 H -1.552770 0.930023 -0.008121 0
M  V30 END ATOM
M  V30 BEGIN BOND
M  V30 1 2 1 2
M  V30 2 1 2 3
M  V30 3 1 3 4
M  V30 4 2 4 5
M  V30 5 1 5 6
M  V30 6 2 6 7
M  V30 7 1 7 8
M  V30 8 1 2 9
M  V30 9 1 9 10
M  V30 10 1 10 11
M  V30 11 2 11 12
M  V30 12 1 12 13
M  V30 13 2 13 14
M  V30 14 1 14 15
M  V30 15 1 15 16
M  V30 16 2 15 17
M  V30 17 1 8 4
M  V30 18 1 17 11
M  V30 19 1 3 18
M  V30 20 1 3 19
M  V30 21 1 5 20
M  V30 22 1 6 21
M  V30 23 1 7 22
M  V30 24 1 9 23
M  V30 25 1 10 24
M  V30 26 1 10 25
M  V30 27 1 12 26
M  V30 28 1 13 27
M  V30 29 1 14 28
M  V30 30 1 17 29
M  V30 END BOND
M  V30 END CTAB
M  END
>  <Dataset>  (771) 
ChEMBL_Kinases

>  <Ligand_Instance>  (771) 
nan

>  <PDB_ID>  (771) 
nan

>  <Standardized_SMILES>  (771) 
O=C(Cc1cccs1)NCc1cccc(F)c1

>  <Name>  (771) 
nan

>  <Pocket>  (771) 
nan

>  <ATP_Site>  (771) 
nan

>  <Peripheral>  (771) 
nan

>  <Num_H_Atoms_ProtBoundConf>  (771) 
nan

>  <Num_Resolved_Atoms>  (771) 
nan

>  <Num_Not_Resolved_Atoms>  (771) 
nan

$$$$
CHEMBL1401044
     RDKit          3D

  0  0  0  0  0  0  0  0  0  0999 V3000
M  V30 BEGIN CTAB
M  V30 COUNTS 53 56 0 0 0
M  V30 BEGIN ATOM
M  V30 1 C 6.462408 -7.050442 4.022969 0
M  V30 2 O 5.103373 -6.637893 4.013073 0
M  V30 3 C 4.693072 -5.464367 3.395951 0
M  V30 4 C 5.502729 -4.558947 2.728184 0
M  V30 5 C 4.931914 -3.417114 2.157006 0
M  V30 6 C 3.576446 -3.181115 2.249523 0
M  V30 7 C 3.003308 -1.982371 1.642673 0
M  V30 8 C 1.661411 -1.619294 1.657387 0
M  V30 9 C 1.612192 -0.426652 0.965177 0
M  V30 10 C 0.360473 0.296994 0.748646 0
M  V30 11 O -0.705174 -0.186716 1.210862 0
M  V30 12 N 0.216033 1.519626 0.053833 0
M  V30 13 C -1.163166 1.885689 0.067558 0
M  V30 14 C -2.036715 2.609538 0.853848 0
M  V30 15 C -3.287877 2.561360 0.271571 0
M  V30 16 C -4.460741 3.246736 0.876395 0
M  V30 17 N -3.156099 1.819883 -0.842998 0
M  V30 18 C -4.259655 1.533160 -1.740758 0
M  V30 19 C -4.408297 2.534448 -2.801722 0
M  V30 20 C -5.187339 3.665481 -2.706498 0
M  V30 21 C -5.313840 4.601692 -3.728050 0
M  V30 22 C -4.595056 4.325014 -4.872251 0
M  V30 23 Cl -4.707170 5.465313 -6.207627 0
M  V30 24 C -3.787070 3.224178 -5.069783 0
M  V30 25 C -3.724165 2.349866 -3.998874 0
M  V30 26 N -1.904725 1.412896 -0.977581 0
M  V30 27 N 2.864137 -0.123949 0.574730 0
M  V30 28 O 3.692534 -1.053977 0.980180 0
M  V30 29 C 2.748173 -4.065800 2.908334 0
M  V30 30 C 3.354576 -5.181462 3.458164 0
M  V30 31 O 2.462556 -6.044489 4.115201 0
M  V30 32 C 1.089049 -5.785598 4.196697 0
M  V30 33 H 6.886806 -6.824999 3.032412 0
M  V30 34 H 7.024507 -6.616329 4.871956 0
M  V30 35 H 6.457096 -8.149231 4.201033 0
M  V30 36 H 6.550788 -4.799606 2.690467 0
M  V30 37 H 5.578461 -2.727686 1.643573 0
M  V30 38 H 0.878519 -2.190566 2.126221 0
M  V30 39 H 1.079004 1.951426 -0.343300 0
M  V30 40 H -1.619127 3.063427 1.737758 0
M  V30 41 H -4.569639 4.286512 0.517972 0
M  V30 42 H -5.402797 2.651126 0.718352 0
M  V30 43 H -4.349481 3.301477 1.979815 0
M  V30 44 H -4.110673 0.531264 -2.237484 0
M  V30 45 H -5.221999 1.448599 -1.163365 0
M  V30 46 H -5.718878 3.812835 -1.780069 0
M  V30 47 H -5.928545 5.487621 -3.643348 0
M  V30 48 H -3.245012 3.057805 -5.990625 0
M  V30 49 H -3.092531 1.462934 -4.116191 0
M  V30 50 H 1.686627 -3.869382 2.973847 0
M  V30 51 H 0.616813 -6.605538 4.769557 0
M  V30 52 H 0.582994 -5.759502 3.204340 0
M  V30 53 H 0.865837 -4.797855 4.672861 0
M  V30 END ATOM
M  V30 BEGIN BOND
M  V30 1 1 1 2
M  V30 2 1 2 3
M  V30 3 2 3 4
M  V30 4 1 4 5
M  V30 5 2 5 6
M  V30 6 1 6 7
M  V30 7 2 7 8
M  V30 8 1 8 9
M  V30 9 1 9 10
M  V30 10 2 10 11
M  V30 11 1 10 12
M  V30 12 1 12 13
M  V30 13 1 13 14
M  V30 14 2 14 15
M  V30 15 1 15 16
M  V30 16 1 15 17
M  V30 17 1 17 18
M  V30 18 1 18 19
M  V30 19 2 19 20
M  V30 20 1 20 21
M  V30 21 2 21 22
M  V30 22 1 22 23
M  V30 23 1 22 24
M  V30 24 2 24 25
M  V30 25 1 17 26
M  V30 26 2 9 27
M  V30 27 1 27 28
M  V30 28 1 6 29
M  V30 29 2 29 30
M  V30 30 1 30 31
M  V30 31 1 31 32
M  V30 32 1 30 3
M  V30 33 1 28 7
M  V30 34 2 26 13
M  V30 35 1 25 19
M  V30 36 1 1 33
M  V30 37 1 1 34
M  V30 38 1 1 35
M  V30 39 1 4 36
M  V30 40 1 5 37
M  V30 41 1 8 38
M  V30 42 1 12 39
M  V30 43 1 14 40
M  V30 44 1 16 41
M  V30 45 1 16 42
M  V30 46 1 16 43
M  V30 47 1 18 44
M  V30 48 1 18 45
M  V30 49 1 20 46
M  V30 50 1 21 47
M  V30 51 1 24 48
M  V30 52 1 25 49
M  V30 53 1 29 50
M  V30 54 1 32 51
M  V30 55 1 32 52
M  V30 56 1 32 53
M  V30 END BOND
M  V30 END CTAB
M  END
>  <Dataset>  (772) 
ChEMBL_Kinases

>  <Ligand_Instance>  (772) 
nan

>  <PDB_ID>  (772) 
nan

>  <Standardized_SMILES>  (772) 
COc1ccc(-c2cc(C(=O)Nc3cc(C)n(Cc4ccc(Cl)cc4)n3)no2)cc1OC

>  <Name>  (772) 
nan

>  <Pocket>  (772) 
nan

>  <ATP_Site>  (772) 
nan

>  <Peripheral>  (772) 
nan

>  <Num_H_Atoms_ProtBoundConf>  (772) 
nan

>  <Num_Resolved_Atoms>  (772) 
nan

>  <Num_Not_Resolved_Atoms>  (772) 
nan

$$$$
CHEMBL1401075
     RDKit          3D

  0  0  0  0  0  0  0  0  0  0999 V3000
M  V30 BEGIN CTAB
M  V30 COUNTS 53 55 0 0 0
M  V30 BEGIN ATOM
M  V30 1 C 1.544830 -6.660704 -0.256676 0
M  V30 2 C 2.577117 -6.335853 0.825307 0
M  V30 3 C 2.452395 -4.919922 1.202291 0
M  V30 4 C 1.574774 -4.603273 2.243858 0
M  V30 5 C 1.404204 -3.283148 2.656699 0
M  V30 6 C 2.104012 -2.269045 2.037882 0
M  V30 7 C 2.976044 -2.549543 1.008532 0
M  V30 8 O 3.764725 -1.683262 0.264521 0
M  V30 9 C 3.816473 -0.295174 0.435764 0
M  V30 10 C 2.423956 0.229905 0.195099 0
M  V30 11 O 1.233940 -0.129354 -0.103849 0
M  V30 12 N 2.364545 1.656771 0.346934 0
M  V30 13 C 1.063117 2.244382 0.133221 0
M  V30 14 C 0.245296 2.355954 1.257367 0
M  V30 15 C -0.983022 2.909438 1.056030 0
M  V30 16 C -1.431984 3.350945 -0.188903 0
M  V30 17 S -3.040061 4.034266 -0.256537 0
M  V30 18 O -3.384173 4.807301 0.969875 0
M  V30 19 O -3.040490 5.004379 -1.411773 0
M  V30 20 N -4.215571 2.790329 -0.585941 0
M  V30 21 C -4.301914 1.747437 0.401555 0
M  V30 22 O -5.062317 1.695313 1.467761 0
M  V30 23 N -4.879333 0.605235 2.132570 0
M  V30 24 C -3.962398 -0.142149 1.523894 0
M  V30 25 C -3.410186 -1.483250 1.902210 0
M  V30 26 C -3.568260 0.562282 0.405191 0
M  V30 27 C -2.559793 0.110730 -0.574421 0
M  V30 28 C -0.602613 3.229869 -1.289959 0
M  V30 29 C 0.651226 2.670556 -1.112058 0
M  V30 30 C 3.126979 -3.867402 0.618236 0
M  V30 31 H 1.803573 -7.621910 -0.737093 0
M  V30 32 H 1.465061 -5.841273 -0.997438 0
M  V30 33 H 0.562466 -6.735330 0.275358 0
M  V30 34 H 2.345367 -6.985625 1.685654 0
M  V30 35 H 3.588192 -6.565712 0.429099 0
M  V30 36 H 1.019149 -5.366968 2.742180 0
M  V30 37 H 0.739238 -3.031082 3.447828 0
M  V30 38 H 2.045139 -1.217521 2.281262 0
M  V30 39 H 4.070409 0.002727 1.469878 0
M  V30 40 H 4.455876 0.131801 -0.341885 0
M  V30 41 H 3.083197 2.377434 0.585487 0
M  V30 42 H 0.550061 2.028108 2.241013 0
M  V30 43 H -1.623597 3.000400 1.919314 0
M  V30 44 H -4.891128 2.638891 -1.374288 0
M  V30 45 H -2.292002 -1.382715 1.939291 0
M  V30 46 H -3.751145 -1.773254 2.908650 0
M  V30 47 H -3.685133 -2.233541 1.148750 0
M  V30 48 H -2.800054 0.482445 -1.592427 0
M  V30 49 H -2.571559 -1.012021 -0.649923 0
M  V30 50 H -1.552311 0.380887 -0.241188 0
M  V30 51 H -0.965298 3.576735 -2.248103 0
M  V30 52 H 1.321834 2.561219 -1.945575 0
M  V30 53 H 3.787214 -4.210691 -0.182919 0
M  V30 END ATOM
M  V30 BEGIN BOND
M  V30 1 1 1 2
M  V30 2 1 2 3
M  V30 3 2 3 4
M  V30 4 1 4 5
M  V30 5 2 5 6
M  V30 6 1 6 7
M  V30 7 1 7 8
M  V30 8 1 8 9
M  V30 9 1 9 10
M  V30 10 2 10 11
M  V30 11 1 10 12
M  V30 12 1 12 13
M  V30 13 2 13 14
M  V30 14 1 14 15
M  V30 15 2 15 16
M  V30 16 1 16 17
M  V30 17 2 17 18
M  V30 18 2 17 19
M  V30 19 1 17 20
M  V30 20 1 20 21
M  V30 21 1 21 22
M  V30 22 1 22 23
M  V30 23 2 23 24
M  V30 24 1 24 25
M  V30 25 1 24 26
M  V30 26 1 26 27
M  V30 27 1 16 28
M  V30 28 2 28 29
M  V30 29 2 7 30
M  V30 30 1 30 3
M  V30 31 1 29 13
M  V30 32 2 26 21
M  V30 33 1 1 31
M  V30 34 1 1 32
M  V30 35 1 1 33
M  V30 36 1 2 34
M  V30 37 1 2 35
M  V30 38 1 4 36
M  V30 39 1 5 37
M  V30 40 1 6 38
M  V30 41 1 9 39
M  V30 42 1 9 40
M  V30 43 1 12 41
M  V30 44 1 14 42
M  V30 45 1 15 43
M  V30 46 1 20 44
M  V30 47 1 25 45
M  V30 48 1 25 46
M  V30 49 1 25 47
M  V30 50 1 27 48
M  V30 51 1 27 49
M  V30 52 1 27 50
M  V30 53 1 28 51
M  V30 54 1 29 52
M  V30 55 1 30 53
M  V30 END BOND
M  V30 END CTAB
M  END
>  <Dataset>  (773) 
ChEMBL_Kinases

>  <Ligand_Instance>  (773) 
nan

>  <PDB_ID>  (773) 
nan

>  <Standardized_SMILES>  (773) 
CCc1cccc(OCC(=O)Nc2ccc(S(=O)(=O)Nc3onc(C)c3C)cc2)c1

>  <Name>  (773) 
nan

>  <Pocket>  (773) 
nan

>  <ATP_Site>  (773) 
nan

>  <Peripheral>  (773) 
nan

>  <Num_H_Atoms_ProtBoundConf>  (773) 
nan

>  <Num_Resolved_Atoms>  (773) 
nan

>  <Num_Not_Resolved_Atoms>  (773) 
nan

$$$$
CHEMBL1401742
     RDKit          3D

  0  0  0  0  0  0  0  0  0  0999 V3000
M  V30 BEGIN CTAB
M  V30 COUNTS 45 47 0 0 0
M  V30 BEGIN ATOM
M  V30 1 C -0.144123 -6.160226 1.474278 0
M  V30 2 C -0.371971 -6.029501 -0.021792 0
M  V30 3 N 0.105584 -4.723368 -0.500196 0
M  V30 4 C 1.440289 -4.443384 -0.974168 0
M  V30 5 O 2.374271 -5.297884 -1.141674 0
M  V30 6 C 1.528684 -2.978478 -1.231626 0
M  V30 7 C 0.402375 -2.438967 -0.450044 0
M  V30 8 N -0.052716 -1.141357 -0.769431 0
M  V30 9 C 0.883928 -0.075799 -0.639142 0
M  V30 10 C 0.810688 0.646763 0.668930 0
M  V30 11 C -0.549577 1.236863 0.914797 0
M  V30 12 N -0.543480 2.685505 0.974048 0
M  V30 13 C 0.169417 3.462279 1.921744 0
M  V30 14 C 0.118684 4.855610 1.893281 0
M  V30 15 C 0.807295 5.615575 2.813240 0
M  V30 16 C 1.574822 5.033623 3.799915 0
M  V30 17 F 2.263311 5.762145 4.718745 0
M  V30 18 C 1.640881 3.648771 3.848676 0
M  V30 19 C 0.946182 2.920165 2.921634 0
M  V30 20 C -1.507744 0.711167 -0.104802 0
M  V30 21 C -1.325657 -0.798685 -0.182097 0
M  V30 22 C -0.639990 -3.490328 -0.591291 0
M  V30 23 O -1.896959 -3.576121 -0.755646 0
M  V30 24 H -0.293714 -5.123530 1.892473 0
M  V30 25 H 0.914886 -6.407632 1.728811 0
M  V30 26 H -0.886570 -6.781999 1.982010 0
M  V30 27 H -1.437430 -6.188791 -0.240511 0
M  V30 28 H 0.284201 -6.787983 -0.496303 0
M  V30 29 H 2.540539 -2.685859 -0.829241 0
M  V30 30 H 1.464567 -2.868532 -2.314204 0
M  V30 31 H 0.689774 -2.457161 0.633482 0
M  V30 32 H 1.909706 -0.418748 -0.827763 0
M  V30 33 H 0.675480 0.659944 -1.442860 0
M  V30 34 H 1.167022 0.005554 1.523880 0
M  V30 35 H 1.522336 1.519400 0.700754 0
M  V30 36 H -0.841831 0.914581 1.940265 0
M  V30 37 H -1.112367 3.183790 0.257404 0
M  V30 38 H -0.470069 5.355351 1.137888 0
M  V30 39 H 0.750275 6.688939 2.767850 0
M  V30 40 H 2.243313 3.196469 4.623240 0
M  V30 41 H 1.041127 1.868440 3.019847 0
M  V30 42 H -1.274416 1.117417 -1.109328 0
M  V30 43 H -2.575346 0.926367 0.169426 0
M  V30 44 H -1.395674 -1.262231 0.822217 0
M  V30 45 H -2.121169 -1.251162 -0.806568 0
M  V30 END ATOM
M  V30 BEGIN BOND
M  V30 1 1 1 2
M  V30 2 1 2 3
M  V30 3 1 3 4
M  V30 4 2 4 5
M  V30 5 1 4 6
M  V30 6 1 6 7
M  V30 7 1 7 8
M  V30 8 1 8 9
M  V30 9 1 9 10
M  V30 10 1 10 11
M  V30 11 1 11 12
M  V30 12 1 12 13
M  V30 13 2 13 14
M  V30 14 1 14 15
M  V30 15 2 15 16
M  V30 16 1 16 17
M  V30 17 1 16 18
M  V30 18 2 18 19
M  V30 19 1 11 20
M  V30 20 1 20 21
M  V30 21 1 7 22
M  V30 22 2 22 23
M  V30 23 1 22 3
M  V30 24 1 21 8
M  V30 25 1 19 13
M  V30 26 1 1 24
M  V30 27 1 1 25
M  V30 28 1 1 26
M  V30 29 1 2 27
M  V30 30 1 2 28
M  V30 31 1 6 29
M  V30 32 1 6 30
M  V30 33 1 7 31
M  V30 34 1 9 32
M  V30 35 1 9 33
M  V30 36 1 10 34
M  V30 37 1 10 35
M  V30 38 1 11 36
M  V30 39 1 12 37
M  V30 40 1 14 38
M  V30 41 1 15 39
M  V30 42 1 18 40
M  V30 43 1 19 41
M  V30 44 1 20 42
M  V30 45 1 20 43
M  V30 46 1 21 44
M  V30 47 1 21 45
M  V30 END BOND
M  V30 END CTAB
M  END
>  <Dataset>  (774) 
ChEMBL_Kinases

>  <Ligand_Instance>  (774) 
nan

>  <PDB_ID>  (774) 
nan

>  <Standardized_SMILES>  (774) 
CCN1C(=O)CC(N2CCC(Nc3ccc(F)cc3)CC2)C1=O

>  <Name>  (774) 
nan

>  <Pocket>  (774) 
nan

>  <ATP_Site>  (774) 
nan

>  <Peripheral>  (774) 
nan

>  <Num_H_Atoms_ProtBoundConf>  (774) 
nan

>  <Num_Resolved_Atoms>  (774) 
nan

>  <Num_Not_Resolved_Atoms>  (774) 
nan

$$$$
CHEMBL1401091
     RDKit          3D

  0  0  0  0  0  0  0  0  0  0999 V3000
M  V30 BEGIN CTAB
M  V30 COUNTS 41 42 0 0 0
M  V30 BEGIN ATOM
M  V30 1 C 2.010066 -3.779323 1.100376 0
M  V30 2 C 1.710507 -2.461934 1.085250 0
M  V30 3 C 0.726317 -1.907871 0.158923 0
M  V30 4 C 1.254614 -0.864807 -0.763574 0
M  V30 5 C 2.010293 -1.303054 -1.829081 0
M  V30 6 C 2.321655 -2.724682 -2.061693 0
M  V30 7 N 2.444868 -0.326744 -2.645776 0
M  V30 8 C 2.172869 0.974717 -2.451988 0
M  V30 9 S 2.776173 2.258833 -3.575901 0
M  V30 10 C 1.539721 2.516817 -4.903810 0
M  V30 11 N 1.431825 1.334068 -1.394579 0
M  V30 12 C 0.941981 0.447551 -0.508853 0
M  V30 13 N 0.213198 0.975641 0.553295 0
M  V30 14 C -0.379747 0.623512 1.780851 0
M  V30 15 C 0.433485 0.203392 2.816862 0
M  V30 16 C -0.007719 -0.188449 4.062792 0
M  V30 17 C -1.369298 -0.149595 4.268577 0
M  V30 18 C -1.835649 -0.565398 5.586122 0
M  V30 19 C -3.239104 -0.616811 6.066534 0
M  V30 20 O -1.001417 -0.931631 6.453273 0
M  V30 21 C -2.263588 0.256725 3.293436 0
M  V30 22 C -1.724335 0.629093 2.080958 0
M  V30 23 H 1.439635 -4.358043 0.354623 0
M  V30 24 H 2.724889 -4.259399 1.756230 0
M  V30 25 H 2.279588 -1.904944 1.821494 0
M  V30 26 H -0.168438 -1.565649 0.683747 0
M  V30 27 H 0.343302 -2.780461 -0.470170 0
M  V30 28 H 2.710715 -2.793826 -3.122320 0
M  V30 29 H 3.190292 -3.090802 -1.459647 0
M  V30 30 H 1.463367 -3.404249 -2.049581 0
M  V30 31 H 0.670626 3.081931 -4.530443 0
M  V30 32 H 1.178763 1.503959 -5.215277 0
M  V30 33 H 2.029676 3.081450 -5.696162 0
M  V30 34 H -0.054490 1.981885 0.572248 0
M  V30 35 H 1.500231 0.180408 2.650554 0
M  V30 36 H 0.701470 -0.503181 4.813944 0
M  V30 37 H -3.372083 -0.052414 7.018592 0
M  V30 38 H -3.946554 -0.178099 5.334804 0
M  V30 39 H -3.588070 -1.678376 6.185318 0
M  V30 40 H -3.322297 0.286303 3.454143 0
M  V30 41 H -2.394504 0.957407 1.280990 0
M  V30 END ATOM
M  V30 BEGIN BOND
M  V30 1 2 1 2
M  V30 2 1 2 3
M  V30 3 1 3 4
M  V30 4 2 4 5
M  V30 5 1 5 6
M  V30 6 1 5 7
M  V30 7 2 7 8
M  V30 8 1 8 9
M  V30 9 1 9 10
M  V30 10 1 8 11
M  V30 11 2 11 12
M  V30 12 1 12 13
M  V30 13 1 13 14
M  V30 14 2 14 15
M  V30 15 1 15 16
M  V30 16 2 16 17
M  V30 17 1 17 18
M  V30 18 1 18 19
M  V30 19 2 18 20
M  V30 20 1 17 21
M  V30 21 2 21 22
M  V30 22 1 12 4
M  V30 23 1 22 14
M  V30 24 1 1 23
M  V30 25 1 1 24
M  V30 26 1 2 25
M  V30 27 1 3 26
M  V30 28 1 3 27
M  V30 29 1 6 28
M  V30 30 1 6 29
M  V30 31 1 6 30
M  V30 32 1 10 31
M  V30 33 1 10 32
M  V30 34 1 10 33
M  V30 35 1 13 34
M  V30 36 1 15 35
M  V30 37 1 16 36
M  V30 38 1 19 37
M  V30 39 1 19 38
M  V30 40 1 19 39
M  V30 41 1 21 40
M  V30 42 1 22 41
M  V30 END BOND
M  V30 END CTAB
M  END
>  <Dataset>  (775) 
ChEMBL_Kinases

>  <Ligand_Instance>  (775) 
nan

>  <PDB_ID>  (775) 
nan

>  <Standardized_SMILES>  (775) 
C=CCc1c(C)nc(SC)nc1Nc1ccc(C(C)=O)cc1

>  <Name>  (775) 
nan

>  <Pocket>  (775) 
nan

>  <ATP_Site>  (775) 
nan

>  <Peripheral>  (775) 
nan

>  <Num_H_Atoms_ProtBoundConf>  (775) 
nan

>  <Num_Resolved_Atoms>  (775) 
nan

>  <Num_Not_Resolved_Atoms>  (775) 
nan

$$$$
CHEMBL1401138
     RDKit          3D

  0  0  0  0  0  0  0  0  0  0999 V3000
M  V30 BEGIN CTAB
M  V30 COUNTS 30 31 0 0 0
M  V30 BEGIN ATOM
M  V30 1 C -0.096392 -2.959655 5.448962 0
M  V30 2 C 1.087993 -3.406589 4.598205 0
M  V30 3 O 0.910347 -3.065191 3.222228 0
M  V30 4 C 0.753567 -1.743276 2.809369 0
M  V30 5 O 0.818170 -1.117023 3.898916 0
M  V30 6 C 0.570064 -1.366437 1.407159 0
M  V30 7 C 0.555405 -2.383233 0.473642 0
M  V30 8 C 0.378710 -1.959346 -0.828659 0
M  V30 9 C 0.228927 -0.618423 -1.162379 0
M  V30 10 N 0.055099 -0.193446 -2.437343 0
M  V30 11 C -0.089592 1.105350 -2.757030 0
M  V30 12 C -0.279151 1.514032 -4.190395 0
M  V30 13 C -0.063472 2.074186 -1.755094 0
M  V30 14 C 0.111665 1.682329 -0.442028 0
M  V30 15 O 0.125175 2.710229 0.489587 0
M  V30 16 C 0.255665 0.339340 -0.163421 0
M  V30 17 C 0.428570 -0.014578 1.158742 0
M  V30 18 H -0.899580 -2.629622 4.748330 0
M  V30 19 H -0.453445 -3.756091 6.122964 0
M  V30 20 H 0.184310 -2.050292 6.024844 0
M  V30 21 H 2.048301 -3.014153 4.990703 0
M  V30 22 H 1.071571 -4.530939 4.621163 0
M  V30 23 H 0.671702 -3.409816 0.744196 0
M  V30 24 H 0.355828 -2.709612 -1.629090 0
M  V30 25 H -1.349269 1.698586 -4.412035 0
M  V30 26 H 0.271056 2.446293 -4.423069 0
M  V30 27 H 0.017739 0.668003 -4.835365 0
M  V30 28 H -0.187472 3.100622 -2.096992 0
M  V30 29 H -0.728565 2.854889 1.026402 0
M  V30 30 H 0.449950 0.716721 1.930392 0
M  V30 END ATOM
M  V30 BEGIN BOND
M  V30 1 1 1 2
M  V30 2 1 2 3
M  V30 3 1 3 4
M  V30 4 2 4 5
M  V30 5 1 4 6
M  V30 6 2 6 7
M  V30 7 1 7 8
M  V30 8 2 8 9
M  V30 9 1 9 10
M  V30 10 2 10 11
M  V30 11 1 11 12
M  V30 12 1 11 13
M  V30 13 2 13 14
M  V30 14 1 14 15
M  V30 15 1 14 16
M  V30 16 2 16 17
M  V30 17 1 17 6
M  V30 18 1 16 9
M  V30 19 1 1 18
M  V30 20 1 1 19
M  V30 21 1 1 20
M  V30 22 1 2 21
M  V30 23 1 2 22
M  V30 24 1 7 23
M  V30 25 1 8 24
M  V30 26 1 12 25
M  V30 27 1 12 26
M  V30 28 1 12 27
M  V30 29 1 13 28
M  V30 30 1 15 29
M  V30 31 1 17 30
M  V30 END BOND
M  V30 END CTAB
M  END
>  <Dataset>  (776) 
ChEMBL_Kinases

>  <Ligand_Instance>  (776) 
nan

>  <PDB_ID>  (776) 
nan

>  <Standardized_SMILES>  (776) 
CCOC(=O)c1ccc2nc(C)cc(O)c2c1

>  <Name>  (776) 
nan

>  <Pocket>  (776) 
nan

>  <ATP_Site>  (776) 
nan

>  <Peripheral>  (776) 
nan

>  <Num_H_Atoms_ProtBoundConf>  (776) 
nan

>  <Num_Resolved_Atoms>  (776) 
nan

>  <Num_Not_Resolved_Atoms>  (776) 
nan

$$$$
CHEMBL1401296
     RDKit          3D

  0  0  0  0  0  0  0  0  0  0999 V3000
M  V30 BEGIN CTAB
M  V30 COUNTS 75 76 0 0 0
M  V30 BEGIN ATOM
M  V30 1 C 4.579454 0.190750 4.030078 0
M  V30 2 O 4.384951 0.973114 2.898584 0
M  V30 3 C 4.212138 0.464247 1.614928 0
M  V30 4 C 4.260666 -0.929028 1.602505 0
M  V30 5 C 4.092373 -1.516072 0.338156 0
M  V30 6 C 3.889624 -0.847517 -0.867423 0
M  V30 7 C 3.817775 -1.674043 -2.028280 0
M  V30 8 C 2.598889 -2.322523 -2.503575 0
M  V30 9 N 1.490169 -1.633483 -2.945958 0
M  V30 10 C 0.484020 -2.584493 -3.477433 0
M  V30 11 C 0.889937 -0.535202 -2.340623 0
M  V30 12 C 0.181186 -0.850517 -1.002414 0
M  V30 13 C -0.455522 0.390198 -0.523798 0
M  V30 14 C -1.256015 0.390475 0.710385 0 CFG=1
M  V30 15 C -1.692933 1.822350 0.880092 0
M  V30 16 N -2.026101 2.942838 1.023964 0
M  V30 17 C -2.559100 -0.326683 0.593955 0
M  V30 18 C -3.003129 -0.902028 -0.549328 0
M  V30 19 C -4.189445 -1.580430 -0.727854 0
M  V30 20 O -4.649449 -2.175219 -1.891493 0
M  V30 21 C -3.834741 -2.095682 -3.043983 0
M  V30 22 C -5.037602 -1.692877 0.379970 0
M  V30 23 O -6.252137 -2.365961 0.279752 0
M  V30 24 C -6.320783 -3.756768 0.552876 0
M  V30 25 C -4.608532 -1.107895 1.577279 0
M  V30 26 O -5.520027 -1.270614 2.639327 0
M  V30 27 C -5.128728 -0.685351 3.878840 0
M  V30 28 C -3.411320 -0.449897 1.666569 0
M  V30 29 C -0.576694 0.035951 1.977422 0
M  V30 30 C 0.035412 -1.327258 2.046819 0
M  V30 31 C 0.477434 1.077716 2.369406 0
M  V30 32 C 3.868266 0.505305 -0.681137 0
M  V30 33 C 4.015875 1.206973 0.474298 0
M  V30 34 O 4.014035 2.531060 0.754194 0
M  V30 35 C 3.819503 3.506965 -0.226442 0
M  V30 36 H 3.763822 -0.526509 4.111534 0
M  V30 37 H 4.546840 0.854026 4.921145 0
M  V30 38 H 5.591466 -0.300698 3.924228 0
M  V30 39 H 4.412427 -1.553710 2.470884 0
M  V30 40 H 4.131821 -2.616147 0.356748 0
M  V30 41 H 4.582033 -2.527812 -1.878527 0
M  V30 42 H 4.336940 -1.157472 -2.932630 0
M  V30 43 H 2.238703 -3.014081 -1.657363 0
M  V30 44 H 2.925504 -3.135951 -3.277585 0
M  V30 45 H 0.812448 -2.984321 -4.438743 0
M  V30 46 H -0.484894 -2.079216 -3.593556 0
M  V30 47 H 0.363947 -3.388348 -2.727974 0
M  V30 48 H 0.056088 -0.108188 -3.014494 0
M  V30 49 H 1.579003 0.314816 -2.254341 0
M  V30 50 H 1.070001 -1.062274 -0.313710 0
M  V30 51 H -0.384443 -1.746478 -1.147062 0
M  V30 52 H -1.109225 0.872006 -1.321201 0
M  V30 53 H 0.367167 1.157976 -0.420184 0
M  V30 54 H -2.449641 -0.860499 -1.472299 0
M  V30 55 H -2.769649 -2.262120 -2.867821 0
M  V30 56 H -4.259361 -2.852016 -3.773090 0
M  V30 57 H -4.014169 -1.106521 -3.559933 0
M  V30 58 H -7.075690 -3.982452 1.342940 0
M  V30 59 H -5.330255 -4.073084 0.968785 0
M  V30 60 H -6.462681 -4.356313 -0.357445 0
M  V30 61 H -5.015976 0.421573 3.719264 0
M  V30 62 H -4.245364 -1.144481 4.328656 0
M  V30 63 H -6.032190 -0.779709 4.556812 0
M  V30 64 H -3.251575 -0.062685 2.647305 0
M  V30 65 H -1.314314 0.101325 2.801502 0
M  V30 66 H 1.157553 -1.229517 2.057616 0
M  V30 67 H -0.165158 -1.794666 3.057661 0
M  V30 68 H -0.341778 -2.056982 1.329874 0
M  V30 69 H 0.728905 1.029116 3.449559 0
M  V30 70 H 1.413924 0.913337 1.808609 0
M  V30 71 H 0.075575 2.113878 2.192905 0
M  V30 72 H 3.717409 1.101633 -1.570340 0
M  V30 73 H 4.819141 3.924880 -0.494959 0
M  V30 74 H 3.371787 3.145112 -1.170873 0
M  V30 75 H 3.210529 4.323055 0.219292 0
M  V30 END ATOM
M  V30 BEGIN BOND
M  V30 1 1 1 2
M  V30 2 1 2 3
M  V30 3 2 3 4
M  V30 4 1 4 5
M  V30 5 2 5 6
M  V30 6 1 6 7
M  V30 7 1 7 8
M  V30 8 1 8 9
M  V30 9 1 9 10
M  V30 10 1 9 11
M  V30 11 1 11 12
M  V30 12 1 12 13
M  V30 13 1 13 14
M  V30 14 1 14 15 CFG=1
M  V30 15 3 15 16
M  V30 16 1 14 17
M  V30 17 2 17 18
M  V30 18 1 18 19
M  V30 19 1 19 20
M  V30 20 1 20 21
M  V30 21 2 19 22
M  V30 22 1 22 23
M  V30 23 1 23 24
M  V30 24 1 22 25
M  V30 25 1 25 26
M  V30 26 1 26 27
M  V30 27 2 25 28
M  V30 28 1 14 29
M  V30 29 1 29 30
M  V30 30 1 29 31
M  V30 31 1 6 32
M  V30 32 2 32 33
M  V30 33 1 33 34
M  V30 34 1 34 35
M  V30 35 1 33 3
M  V30 36 1 28 17
M  V30 37 1 1 36
M  V30 38 1 1 37
M  V30 39 1 1 38
M  V30 40 1 4 39
M  V30 41 1 5 40
M  V30 42 1 7 41
M  V30 43 1 7 42
M  V30 44 1 8 43
M  V30 45 1 8 44
M  V30 46 1 10 45
M  V30 47 1 10 46
M  V30 48 1 10 47
M  V30 49 1 11 48
M  V30 50 1 11 49
M  V30 51 1 12 50
M  V30 52 1 12 51
M  V30 53 1 13 52
M  V30 54 1 13 53
M  V30 55 1 18 54
M  V30 56 1 21 55
M  V30 57 1 21 56
M  V30 58 1 21 57
M  V30 59 1 24 58
M  V30 60 1 24 59
M  V30 61 1 24 60
M  V30 62 1 27 61
M  V30 63 1 27 62
M  V30 64 1 27 63
M  V30 65 1 28 64
M  V30 66 1 29 65
M  V30 67 1 30 66
M  V30 68 1 30 67
M  V30 69 1 30 68
M  V30 70 1 31 69
M  V30 71 1 31 70
M  V30 72 1 31 71
M  V30 73 1 32 72
M  V30 74 1 35 73
M  V30 75 1 35 74
M  V30 76 1 35 75
M  V30 END BOND
M  V30 END CTAB
M  END
>  <Dataset>  (777) 
ChEMBL_Kinases

>  <Ligand_Instance>  (777) 
nan

>  <PDB_ID>  (777) 
nan

>  <Standardized_SMILES>  (777) 
COc1ccc(CCN(C)CCC[C@@](C#N)(c2cc(OC)c(OC)c(OC)c2)C(C)C)cc1OC

>  <Name>  (777) 
nan

>  <Pocket>  (777) 
nan

>  <ATP_Site>  (777) 
nan

>  <Peripheral>  (777) 
nan

>  <Num_H_Atoms_ProtBoundConf>  (777) 
nan

>  <Num_Resolved_Atoms>  (777) 
nan

>  <Num_Not_Resolved_Atoms>  (777) 
nan

$$$$
CHEMBL1401341
     RDKit          3D

  0  0  0  0  0  0  0  0  0  0999 V3000
M  V30 BEGIN CTAB
M  V30 COUNTS 39 42 0 0 0
M  V30 BEGIN ATOM
M  V30 1 N -2.119536 -5.223406 6.253394 0
M  V30 2 C -1.763675 -4.556092 5.381391 0
M  V30 3 C -1.317194 -3.717793 4.324111 0
M  V30 4 C -0.426210 -4.134750 3.344022 0
M  V30 5 C -0.013791 -3.288821 2.328699 0
M  V30 6 C -0.516932 -2.001732 2.313629 0
M  V30 7 C -0.140965 -1.038640 1.284301 0
M  V30 8 C 0.195217 0.277170 1.604754 0
M  V30 9 N 0.489481 0.903729 0.451597 0 CHG=1 VAL=4
M  V30 10 C 0.887452 2.239178 0.224357 0
M  V30 11 C 2.240733 2.512203 0.016939 0
M  V30 12 C 2.564592 3.847898 -0.200948 0
M  V30 13 C 1.600403 4.835966 -0.209789 0
M  V30 14 C 0.268310 4.527698 -0.000382 0
M  V30 15 C -0.102068 3.202733 0.221970 0
M  V30 16 C 0.349250 0.028703 -0.572456 0
M  V30 17 N -0.034840 -1.141920 -0.030354 0
M  V30 18 C -0.260708 -2.261297 -0.888156 0
M  V30 19 C 0.931052 -2.645060 -1.737635 0
M  V30 20 C 1.216942 -1.607999 -2.789204 0
M  V30 21 S 0.529244 0.011807 -2.370182 0
M  V30 22 C -1.418070 -1.547533 3.287321 0
M  V30 23 C -1.816232 -2.418645 4.296971 0
M  V30 24 H -0.062265 -5.141563 3.395904 0
M  V30 25 H 0.676380 -3.599212 1.562699 0
M  V30 26 H 0.231187 0.758034 2.567366 0
M  V30 27 H 2.950679 1.694814 0.035354 0
M  V30 28 H 3.629430 4.055079 -0.363141 0
M  V30 29 H 1.898571 5.879470 -0.385729 0
M  V30 30 H -0.469751 5.322007 -0.012188 0
M  V30 31 H -1.141364 2.937051 0.388683 0
M  V30 32 H -0.754947 -3.111594 -0.427486 0
M  V30 33 H -1.012432 -1.902944 -1.655814 0
M  V30 34 H 0.603915 -3.576871 -2.284217 0
M  V30 35 H 1.840090 -2.876871 -1.184696 0
M  V30 36 H 2.319998 -1.457216 -2.894949 0
M  V30 37 H 0.846614 -1.910404 -3.786800 0
M  V30 38 H -1.793650 -0.517559 3.238642 0
M  V30 39 H -2.517947 -1.996419 5.018132 0
M  V30 END ATOM
M  V30 BEGIN BOND
M  V30 1 3 1 2
M  V30 2 1 2 3
M  V30 3 2 3 4
M  V30 4 1 4 5
M  V30 5 2 5 6
M  V30 6 1 6 7
M  V30 7 2 7 8
M  V30 8 1 8 9
M  V30 9 1 9 10
M  V30 10 2 10 11
M  V30 11 1 11 12
M  V30 12 2 12 13
M  V30 13 1 13 14
M  V30 14 2 14 15
M  V30 15 2 9 16
M  V30 16 1 16 17
M  V30 17 1 17 18
M  V30 18 1 18 19
M  V30 19 1 19 20
M  V30 20 1 20 21
M  V30 21 1 6 22
M  V30 22 2 22 23
M  V30 23 1 23 3
M  V30 24 1 17 7
M  V30 25 1 15 10
M  V30 26 1 21 16
M  V30 27 1 4 24
M  V30 28 1 5 25
M  V30 29 1 8 26
M  V30 30 1 11 27
M  V30 31 1 12 28
M  V30 32 1 13 29
M  V30 33 1 14 30
M  V30 34 1 15 31
M  V30 35 1 18 32
M  V30 36 1 18 33
M  V30 37 1 19 34
M  V30 38 1 19 35
M  V30 39 1 20 36
M  V30 40 1 20 37
M  V30 41 1 22 38
M  V30 42 1 23 39
M  V30 END BOND
M  V30 END CTAB
M  END
>  <Dataset>  (778) 
ChEMBL_Kinases

>  <Ligand_Instance>  (778) 
nan

>  <PDB_ID>  (778) 
nan

>  <Standardized_SMILES>  (778) 
N#Cc1ccc(-c2c[n+](-c3ccccc3)c3n2CCCS3)cc1

>  <Name>  (778) 
nan

>  <Pocket>  (778) 
nan

>  <ATP_Site>  (778) 
nan

>  <Peripheral>  (778) 
nan

>  <Num_H_Atoms_ProtBoundConf>  (778) 
nan

>  <Num_Resolved_Atoms>  (778) 
nan

>  <Num_Not_Resolved_Atoms>  (778) 
nan

$$$$
CHEMBL1401348
     RDKit          3D

  0  0  0  0  0  0  0  0  0  0999 V3000
M  V30 BEGIN CTAB
M  V30 COUNTS 29 29 0 0 0
M  V30 BEGIN ATOM
M  V30 1 O 0.527944 0.464119 5.409641 0
M  V30 2 C 0.272948 0.463695 4.176345 0
M  V30 3 O -0.996022 -0.043706 3.842840 0
M  V30 4 C 1.414304 1.013548 3.404678 0
M  V30 5 C 1.177702 1.022890 1.907072 0
M  V30 6 C 0.952629 -0.387519 1.463348 0
M  V30 7 N 0.710974 -0.564720 0.074235 0
M  V30 8 C -0.499577 -0.058962 -0.425348 0
M  V30 9 C -1.316618 -0.896770 -1.324419 0
M  V30 10 C -0.911659 -2.341632 -1.406110 0
M  V30 11 C 0.602664 -2.320329 -1.660564 0
M  V30 12 C 1.143621 -1.853411 -0.322040 0
M  V30 13 H -1.298564 -0.940688 4.222914 0
M  V30 14 H 2.293367 0.368207 3.627729 0
M  V30 15 H 1.656886 2.002123 3.801703 0
M  V30 16 H 2.127402 1.412857 1.469475 0
M  V30 17 H 0.405451 1.727988 1.603894 0
M  V30 18 H 1.913402 -0.941313 1.683469 0
M  V30 19 H 0.188733 -0.933780 2.041571 0
M  V30 20 H -1.169688 0.310021 0.405731 0
M  V30 21 H -0.268050 0.905891 -0.972229 0
M  V30 22 H -2.395486 -0.881934 -1.061963 0
M  V30 23 H -1.291735 -0.520204 -2.387219 0
M  V30 24 H -1.364628 -2.795841 -2.295524 0
M  V30 25 H -1.066684 -2.894200 -0.472908 0
M  V30 26 H 0.871166 -1.549011 -2.403836 0
M  V30 27 H 1.010802 -3.309612 -1.878244 0
M  V30 28 H 2.248973 -1.893082 -0.290085 0
M  V30 29 H 0.782639 -2.617023 0.414537 0
M  V30 END ATOM
M  V30 BEGIN BOND
M  V30 1 2 1 2
M  V30 2 1 2 3
M  V30 3 1 2 4
M  V30 4 1 4 5
M  V30 5 1 5 6
M  V30 6 1 6 7
M  V30 7 1 7 8
M  V30 8 1 8 9
M  V30 9 1 9 10
M  V30 10 1 10 11
M  V30 11 1 11 12
M  V30 12 1 12 7
M  V30 13 1 3 13
M  V30 14 1 4 14
M  V30 15 1 4 15
M  V30 16 1 5 16
M  V30 17 1 5 17
M  V30 18 1 6 18
M  V30 19 1 6 19
M  V30 20 1 8 20
M  V30 21 1 8 21
M  V30 22 1 9 22
M  V30 23 1 9 23
M  V30 24 1 10 24
M  V30 25 1 10 25
M  V30 26 1 11 26
M  V30 27 1 11 27
M  V30 28 1 12 28
M  V30 29 1 12 29
M  V30 END BOND
M  V30 END CTAB
M  END
>  <Dataset>  (779) 
ChEMBL_Kinases

>  <Ligand_Instance>  (779) 
nan

>  <PDB_ID>  (779) 
nan

>  <Standardized_SMILES>  (779) 
O=C(O)CCCN1CCCCC1

>  <Name>  (779) 
nan

>  <Pocket>  (779) 
nan

>  <ATP_Site>  (779) 
nan

>  <Peripheral>  (779) 
nan

>  <Num_H_Atoms_ProtBoundConf>  (779) 
nan

>  <Num_Resolved_Atoms>  (779) 
nan

>  <Num_Not_Resolved_Atoms>  (779) 
nan

$$$$
CHEMBL1401480
     RDKit          3D

  0  0  0  0  0  0  0  0  0  0999 V3000
M  V30 BEGIN CTAB
M  V30 COUNTS 21 20 0 0 0
M  V30 BEGIN ATOM
M  V30 1 C -0.055039 2.954380 1.610781 0
M  V30 2 C 0.782758 2.426985 2.527807 0
M  V30 3 C 0.535501 1.008160 2.535387 0
M  V30 4 O -0.267544 1.557699 1.655435 0
M  V30 5 N 0.301696 -0.348064 2.545133 0
M  V30 6 C -0.639407 -1.129350 1.765827 0
M  V30 7 N -0.394688 -0.981904 0.340798 0
M  V30 8 C 0.884463 -1.374425 -0.187755 0
M  V30 9 O 1.624632 -1.808503 0.728126 0
M  V30 10 C 1.180360 -1.243797 -1.615468 0
M  V30 11 C 2.310136 -1.562983 -2.220863 0
M  V30 12 H 0.136688 4.035065 1.608392 0
M  V30 13 H 0.316117 3.943515 1.801198 0
M  V30 14 H 1.511271 2.134677 3.294196 0
M  V30 15 H 1.064434 -0.422508 3.301338 0
M  V30 16 H -0.432262 -2.186429 2.003085 0
M  V30 17 H -1.680789 -0.875089 2.002896 0
M  V30 18 H -1.138652 -0.592253 -0.312057 0
M  V30 19 H 0.392450 -0.845357 -2.231265 0
M  V30 20 H 2.438252 -1.428280 -3.297244 0
M  V30 21 H 3.177464 -1.976377 -1.687190 0
M  V30 END ATOM
M  V30 BEGIN BOND
M  V30 1 2 1 2
M  V30 2 1 2 3
M  V30 3 2 3 4
M  V30 4 1 3 5
M  V30 5 1 5 6
M  V30 6 1 6 7
M  V30 7 1 7 8
M  V30 8 2 8 9
M  V30 9 1 8 10
M  V30 10 2 10 11
M  V30 11 1 1 12
M  V30 12 1 1 13
M  V30 13 1 2 14
M  V30 14 1 5 15
M  V30 15 1 6 16
M  V30 16 1 6 17
M  V30 17 1 7 18
M  V30 18 1 10 19
M  V30 19 1 11 20
M  V30 20 1 11 21
M  V30 END BOND
M  V30 END CTAB
M  END
>  <Dataset>  (780) 
ChEMBL_Kinases

>  <Ligand_Instance>  (780) 
nan

>  <PDB_ID>  (780) 
nan

>  <Standardized_SMILES>  (780) 
C=CC(=O)NCNC(=O)C=C

>  <Name>  (780) 
nan

>  <Pocket>  (780) 
nan

>  <ATP_Site>  (780) 
nan

>  <Peripheral>  (780) 
nan

>  <Num_H_Atoms_ProtBoundConf>  (780) 
nan

>  <Num_Resolved_Atoms>  (780) 
nan

>  <Num_Not_Resolved_Atoms>  (780) 
nan

$$$$
CHEMBL1401606
     RDKit          3D

  0  0  0  0  0  0  0  0  0  0999 V3000
M  V30 BEGIN CTAB
M  V30 COUNTS 57 61 0 0 0
M  V30 BEGIN ATOM
M  V30 1 C 1.812219 -4.768400 2.160217 0
M  V30 2 C 2.021626 -4.092745 0.797875 0
M  V30 3 C 3.284398 -3.274172 0.892801 0
M  V30 4 C 0.878463 -3.169505 0.582686 0
M  V30 5 N 1.042557 -1.911252 1.081695 0
M  V30 6 C 0.069127 -0.994889 0.953446 0
M  V30 7 O -0.174646 0.240368 1.261454 0
M  V30 8 C -1.423680 0.616314 0.827373 0
M  V30 9 C -1.359615 1.863789 1.280236 0
M  V30 10 N -1.293735 3.148166 1.746466 0
M  V30 11 C 0.059696 3.250598 2.259118 0
M  V30 12 C 1.068770 3.292435 1.134060 0
M  V30 13 C 2.438765 3.633726 1.643503 0
M  V30 14 C 2.272519 5.081904 2.047975 0
M  V30 15 C 1.132533 5.526807 1.148815 0
M  V30 16 O 0.750748 4.441413 0.382437 0
M  V30 17 N -2.659060 2.171854 0.809049 0
M  V30 18 C -3.504900 1.325599 0.145222 0
M  V30 19 N -3.228361 0.018177 -0.177683 0
M  V30 20 C -2.021399 -0.410727 0.211960 0
M  V30 21 C -1.073145 -1.405309 0.301551 0
M  V30 22 C -1.311013 -2.660175 -0.229710 0
M  V30 23 C -0.269160 -3.587294 -0.074670 0
M  V30 24 C -0.386874 -4.966312 -0.596753 0
M  V30 25 O -1.575056 -5.205977 -1.236823 0
M  V30 26 C -2.106438 -4.119118 -1.922829 0
M  V30 27 C -1.154710 -3.501043 -2.912492 0
M  V30 28 C -3.292365 -4.652173 -2.719689 0
M  V30 29 C -2.583365 -3.047401 -0.937132 0
M  V30 30 H 2.357173 -5.729778 2.190311 0
M  V30 31 H 0.740228 -4.986088 2.333167 0
M  V30 32 H 2.127041 -4.103736 2.985063 0
M  V30 33 H 2.088276 -4.863146 0.001661 0
M  V30 34 H 3.803073 -3.482797 1.832915 0
M  V30 35 H 3.024785 -2.176187 0.938639 0
M  V30 36 H 3.930083 -3.457593 0.007027 0
M  V30 37 H -1.742700 4.041350 1.894140 0
M  V30 38 H 0.191021 4.192967 2.824179 0
M  V30 39 H 0.299332 2.455021 3.017822 0
M  V30 40 H 1.058329 2.443018 0.461730 0
M  V30 41 H 3.140274 3.604605 0.758469 0
M  V30 42 H 2.815572 3.013726 2.454898 0
M  V30 43 H 3.185822 5.690296 1.915417 0
M  V30 44 H 1.995715 5.147000 3.131899 0
M  V30 45 H 1.561884 6.310594 0.456164 0
M  V30 46 H 0.310250 6.013135 1.675526 0
M  V30 47 H -4.550736 1.457767 -0.274885 0
M  V30 48 H -0.327699 -5.632884 0.287570 0
M  V30 49 H 0.499738 -5.170997 -1.232153 0
M  V30 50 H -0.102459 -3.521131 -2.569839 0
M  V30 51 H -1.154805 -4.051318 -3.901839 0
M  V30 52 H -1.461330 -2.449437 -3.054901 0
M  V30 53 H -3.903611 -3.827757 -3.146685 0
M  V30 54 H -3.005472 -5.431852 -3.419211 0
M  V30 55 H -3.977044 -5.119812 -1.953222 0
M  V30 56 H -2.951948 -2.205805 -1.522680 0
M  V30 57 H -3.302677 -3.517568 -0.260249 0
M  V30 END ATOM
M  V30 BEGIN BOND
M  V30 1 1 1 2
M  V30 2 1 2 3
M  V30 3 1 2 4
M  V30 4 2 4 5
M  V30 5 1 5 6
M  V30 6 1 6 7
M  V30 7 1 7 8
M  V30 8 2 8 9
M  V30 9 1 9 10
M  V30 10 1 10 11
M  V30 11 1 11 12
M  V30 12 1 12 13
M  V30 13 1 13 14
M  V30 14 1 14 15
M  V30 15 1 15 16
M  V30 16 1 9 17
M  V30 17 2 17 18
M  V30 18 1 18 19
M  V30 19 2 19 20
M  V30 20 1 20 21
M  V30 21 1 21 22
M  V30 22 2 22 23
M  V30 23 1 23 24
M  V30 24 1 24 25
M  V30 25 1 25 26
M  V30 26 1 26 27
M  V30 27 1 26 28
M  V30 28 1 26 29
M  V30 29 1 23 4
M  V30 30 2 21 6
M  V30 31 1 29 22
M  V30 32 1 20 8
M  V30 33 1 16 12
M  V30 34 1 1 30
M  V30 35 1 1 31
M  V30 36 1 1 32
M  V30 37 1 2 33
M  V30 38 1 3 34
M  V30 39 1 3 35
M  V30 40 1 3 36
M  V30 41 1 10 37
M  V30 42 1 11 38
M  V30 43 1 11 39
M  V30 44 1 12 40
M  V30 45 1 13 41
M  V30 46 1 13 42
M  V30 47 1 14 43
M  V30 48 1 14 44
M  V30 49 1 15 45
M  V30 50 1 15 46
M  V30 51 1 18 47
M  V30 52 1 24 48
M  V30 53 1 24 49
M  V30 54 1 27 50
M  V30 55 1 27 51
M  V30 56 1 27 52
M  V30 57 1 28 53
M  V30 58 1 28 54
M  V30 59 1 28 55
M  V30 60 1 29 56
M  V30 61 1 29 57
M  V30 END BOND
M  V30 END CTAB
M  END
>  <Dataset>  (781) 
ChEMBL_Kinases

>  <Ligand_Instance>  (781) 
nan

>  <PDB_ID>  (781) 
nan

>  <Standardized_SMILES>  (781) 
CC(C)c1nc2oc3c(NCC4CCCO4)ncnc3c2c2c1COC(C)(C)C2

>  <Name>  (781) 
nan

>  <Pocket>  (781) 
nan

>  <ATP_Site>  (781) 
nan

>  <Peripheral>  (781) 
nan

>  <Num_H_Atoms_ProtBoundConf>  (781) 
nan

>  <Num_Resolved_Atoms>  (781) 
nan

>  <Num_Not_Resolved_Atoms>  (781) 
nan

$$$$
CHEMBL1401672
     RDKit          3D

  0  0  0  0  0  0  0  0  0  0999 V3000
M  V30 BEGIN CTAB
M  V30 COUNTS 45 48 0 0 0
M  V30 BEGIN ATOM
M  V30 1 C 1.513739 -5.223352 1.357602 0
M  V30 2 O 0.888727 -4.013461 1.050678 0
M  V30 3 C 0.845923 -3.433579 -0.194501 0
M  V30 4 C 1.457507 -4.069823 -1.242886 0
M  V30 5 C 1.410078 -3.483027 -2.485812 0
M  V30 6 C 0.750910 -2.279701 -2.630896 0
M  V30 7 C 0.117605 -1.601649 -1.592370 0
M  V30 8 C -0.577256 -0.306778 -1.812101 0
M  V30 9 N 0.334399 0.804469 -1.621369 0
M  V30 10 C 1.060214 1.308549 -2.640125 0
M  V30 11 O 0.982823 0.846677 -3.786097 0
M  V30 12 C 1.940367 2.362677 -2.514724 0
M  V30 13 N 2.103619 2.946042 -1.299899 0
M  V30 14 C 1.406647 2.478749 -0.270505 0
M  V30 15 C 1.579782 3.079735 0.960622 0
M  V30 16 N 0.861594 2.588019 1.987058 0
M  V30 17 C 0.004054 1.556489 1.850856 0
M  V30 18 N -0.734221 1.068200 2.958375 0
M  V30 19 C -1.668737 -0.026475 2.881061 0
M  V30 20 C -2.482457 0.029489 4.160854 0
M  V30 21 O -1.678748 -0.162970 5.280144 0
M  V30 22 C -0.511145 0.561057 5.273738 0
M  V30 23 C -0.562658 1.684201 4.260520 0
M  V30 24 N -0.135524 0.998704 0.633906 0
M  V30 25 C 0.538826 1.421280 -0.449811 0
M  V30 26 C 0.200499 -2.239793 -0.374866 0
M  V30 27 H 1.365019 -5.969371 0.572811 0
M  V30 28 H 1.083419 -5.593194 2.313052 0
M  V30 29 H 2.615434 -5.113481 1.527694 0
M  V30 30 H 1.970031 -5.008772 -1.121737 0
M  V30 31 H 1.890945 -3.982886 -3.311362 0
M  V30 32 H 0.755333 -1.885098 -3.624538 0
M  V30 33 H -1.029609 -0.238648 -2.821372 0
M  V30 34 H -1.387681 -0.213918 -1.058097 0
M  V30 35 H 2.518409 2.759955 -3.338821 0
M  V30 36 H 2.256224 3.909987 1.118735 0
M  V30 37 H -1.201040 -1.020232 2.827237 0
M  V30 38 H -2.386081 0.071965 2.040508 0
M  V30 39 H -3.277272 -0.714942 4.188417 0
M  V30 40 H -2.971381 1.019067 4.263894 0
M  V30 41 H 0.331062 -0.101337 4.922594 0
M  V30 42 H -0.226127 0.997421 6.236446 0
M  V30 43 H -1.318641 2.441007 4.483526 0
M  V30 44 H 0.453480 2.165568 4.281244 0
M  V30 45 H -0.259256 -1.789825 0.480461 0
M  V30 END ATOM
M  V30 BEGIN BOND
M  V30 1 1 1 2
M  V30 2 1 2 3
M  V30 3 2 3 4
M  V30 4 1 4 5
M  V30 5 2 5 6
M  V30 6 1 6 7
M  V30 7 1 7 8
M  V30 8 1 8 9
M  V30 9 1 9 10
M  V30 10 2 10 11
M  V30 11 1 10 12
M  V30 12 2 12 13
M  V30 13 1 13 14
M  V30 14 2 14 15
M  V30 15 1 15 16
M  V30 16 2 16 17
M  V30 17 1 17 18
M  V30 18 1 18 19
M  V30 19 1 19 20
M  V30 20 1 20 21
M  V30 21 1 21 22
M  V30 22 1 22 23
M  V30 23 1 17 24
M  V30 24 2 24 25
M  V30 25 2 7 26
M  V30 26 1 26 3
M  V30 27 1 25 9
M  V30 28 1 25 14
M  V30 29 1 23 18
M  V30 30 1 1 27
M  V30 31 1 1 28
M  V30 32 1 1 29
M  V30 33 1 4 30
M  V30 34 1 5 31
M  V30 35 1 6 32
M  V30 36 1 8 33
M  V30 37 1 8 34
M  V30 38 1 12 35
M  V30 39 1 15 36
M  V30 40 1 19 37
M  V30 41 1 19 38
M  V30 42 1 20 39
M  V30 43 1 20 40
M  V30 44 1 22 41
M  V30 45 1 22 42
M  V30 46 1 23 43
M  V30 47 1 23 44
M  V30 48 1 26 45
M  V30 END BOND
M  V30 END CTAB
M  END
>  <Dataset>  (782) 
ChEMBL_Kinases

>  <Ligand_Instance>  (782) 
nan

>  <PDB_ID>  (782) 
nan

>  <Standardized_SMILES>  (782) 
COc1cccc(Cn2c(=O)cnc3cnc(N4CCOCC4)nc32)c1

>  <Name>  (782) 
nan

>  <Pocket>  (782) 
nan

>  <ATP_Site>  (782) 
nan

>  <Peripheral>  (782) 
nan

>  <Num_H_Atoms_ProtBoundConf>  (782) 
nan

>  <Num_Resolved_Atoms>  (782) 
nan

>  <Num_Not_Resolved_Atoms>  (782) 
nan

$$$$
CHEMBL1401083
     RDKit          3D

  0  0  0  0  0  0  0  0  0  0999 V3000
M  V30 BEGIN CTAB
M  V30 COUNTS 50 52 0 0 0
M  V30 BEGIN ATOM
M  V30 1 C 1.850072 -2.207989 3.816171 0
M  V30 2 C 2.089899 -3.508704 3.103516 0
M  V30 3 O 2.856105 -3.222964 1.928382 0
M  V30 4 C 2.289567 -2.358531 1.001998 0
M  V30 5 O 1.151444 -1.866393 1.217837 0
M  V30 6 C 3.076875 -2.055283 -0.221583 0
M  V30 7 C 4.408491 -1.415591 0.064095 0
M  V30 8 C 4.260845 -0.174530 0.889247 0
M  V30 9 C 3.122027 0.639497 0.370656 0
M  V30 10 N 2.774618 0.256654 -0.974001 0
M  V30 11 C 1.838578 1.168510 -1.579342 0
M  V30 12 C 0.559751 1.235744 -0.798733 0
M  V30 13 N 0.365769 2.115747 0.199635 0
M  V30 14 C -0.798695 2.159728 0.893004 0
M  V30 15 N -1.013549 3.087947 1.951782 0
M  V30 16 N -1.707547 1.281743 0.511208 0
M  V30 17 C -1.614005 0.371100 -0.462191 0
M  V30 18 N -2.604509 -0.563516 -0.855779 0
M  V30 19 C -3.899612 -0.737616 -0.310294 0
M  V30 20 C -4.442154 -0.013463 0.724435 0
M  V30 21 C -5.701757 -0.186169 1.251555 0
M  V30 22 C -6.512194 -1.163936 0.714136 0
M  V30 23 Cl -8.114779 -1.416321 1.351756 0
M  V30 24 C -6.015896 -1.917274 -0.324347 0
M  V30 25 C -4.747880 -1.699929 -0.811004 0
M  V30 26 N -0.447524 0.399519 -1.083437 0
M  V30 27 C 2.331649 -1.094442 -1.124262 0
M  V30 28 H 1.864702 -2.444234 4.914474 0
M  V30 29 H 0.929649 -1.684930 3.537709 0
M  V30 30 H 2.735921 -1.545928 3.618809 0
M  V30 31 H 2.526816 -4.297898 3.717723 0
M  V30 32 H 1.082228 -3.814030 2.694650 0
M  V30 33 H 3.313654 -3.002670 -0.785118 0
M  V30 34 H 4.810816 -1.091612 -0.918973 0
M  V30 35 H 5.142644 -2.132348 0.482243 0
M  V30 36 H 4.107318 -0.486088 1.955019 0
M  V30 37 H 5.215920 0.409216 0.858551 0
M  V30 38 H 3.457616 1.706683 0.299870 0
M  V30 39 H 2.299282 0.629312 1.089687 0
M  V30 40 H 2.293055 2.174425 -1.664882 0
M  V30 41 H 1.573532 0.773768 -2.573211 0
M  V30 42 H -1.084100 2.761586 2.956339 0
M  V30 43 H -1.056948 3.992118 1.419749 0
M  V30 44 H -2.354722 -1.209027 -1.647972 0
M  V30 45 H -3.870643 0.762068 1.190422 0
M  V30 46 H -6.075803 0.415703 2.068720 0
M  V30 47 H -6.637811 -2.699082 -0.768598 0
M  V30 48 H -4.425546 -2.336324 -1.634280 0
M  V30 49 H 1.250104 -1.257748 -0.893917 0
M  V30 50 H 2.448246 -1.377933 -2.192189 0
M  V30 END ATOM
M  V30 BEGIN BOND
M  V30 1 1 1 2
M  V30 2 1 2 3
M  V30 3 1 3 4
M  V30 4 2 4 5
M  V30 5 1 4 6
M  V30 6 1 6 7
M  V30 7 1 7 8
M  V30 8 1 8 9
M  V30 9 1 9 10
M  V30 10 1 10 11
M  V30 11 1 11 12
M  V30 12 2 12 13
M  V30 13 1 13 14
M  V30 14 1 14 15
M  V30 15 2 14 16
M  V30 16 1 16 17
M  V30 17 1 17 18
M  V30 18 1 18 19
M  V30 19 2 19 20
M  V30 20 1 20 21
M  V30 21 2 21 22
M  V30 22 1 22 23
M  V30 23 1 22 24
M  V30 24 2 24 25
M  V30 25 2 17 26
M  V30 26 1 10 27
M  V30 27 1 27 6
M  V30 28 1 26 12
M  V30 29 1 25 19
M  V30 30 1 1 28
M  V30 31 1 1 29
M  V30 32 1 1 30
M  V30 33 1 2 31
M  V30 34 1 2 32
M  V30 35 1 6 33
M  V30 36 1 7 34
M  V30 37 1 7 35
M  V30 38 1 8 36
M  V30 39 1 8 37
M  V30 40 1 9 38
M  V30 41 1 9 39
M  V30 42 1 11 40
M  V30 43 1 11 41
M  V30 44 1 15 42
M  V30 45 1 15 43
M  V30 46 1 18 44
M  V30 47 1 20 45
M  V30 48 1 21 46
M  V30 49 1 24 47
M  V30 50 1 25 48
M  V30 51 1 27 49
M  V30 52 1 27 50
M  V30 END BOND
M  V30 END CTAB
M  END
>  <Dataset>  (783) 
ChEMBL_Kinases

>  <Ligand_Instance>  (783) 
nan

>  <PDB_ID>  (783) 
nan

>  <Standardized_SMILES>  (783) 
CCOC(=O)C1CCCN(Cc2nc(N)nc(Nc3ccc(Cl)cc3)n2)C1

>  <Name>  (783) 
nan

>  <Pocket>  (783) 
nan

>  <ATP_Site>  (783) 
nan

>  <Peripheral>  (783) 
nan

>  <Num_H_Atoms_ProtBoundConf>  (783) 
nan

>  <Num_Resolved_Atoms>  (783) 
nan

>  <Num_Not_Resolved_Atoms>  (783) 
nan

$$$$
CHEMBL1416552
     RDKit          3D

  0  0  0  0  0  0  0  0  0  0999 V3000
M  V30 BEGIN CTAB
M  V30 COUNTS 47 50 0 0 0
M  V30 BEGIN ATOM
M  V30 1 C 1.282894 -5.181660 3.249097 0
M  V30 2 C 1.559360 -4.327972 2.011364 0
M  V30 3 C 2.456708 -3.595279 2.401672 0
M  V30 4 C 2.468222 -2.367065 1.451598 0
M  V30 5 O 2.976595 -1.251317 1.201228 0
M  V30 6 N 1.511309 -2.387377 0.351849 0
M  V30 7 N 1.002991 -1.854150 -0.700730 0
M  V30 8 C 0.545592 -1.456473 -1.579313 0
M  V30 9 N 0.576317 -0.227358 -2.198641 0
M  V30 10 C 1.214979 0.890997 -2.787380 0
M  V30 11 C 1.289765 2.004237 -1.624915 0
M  V30 12 C 0.285872 1.672743 -0.661866 0
M  V30 13 C -0.068285 2.211932 0.622350 0
M  V30 14 O -0.968923 3.060739 0.604804 0
M  V30 15 N 0.493750 1.794376 1.829508 0
M  V30 16 C 0.107923 2.182287 3.244402 0
M  V30 17 C -1.162049 1.143234 3.173115 0
M  V30 18 C -0.668018 -0.133306 2.953951 0
M  V30 19 C -1.694005 -1.070789 2.755899 0
M  V30 20 C -3.033613 -0.888645 2.754699 0
M  V30 21 N -3.400473 0.361946 2.971509 0
M  V30 22 C -2.585097 1.387363 3.176484 0
M  V30 23 C -1.108864 1.279537 -1.271883 0
M  V30 24 C -0.882679 0.157463 -2.223139 0
M  V30 25 S -0.373426 -3.023785 -1.354530 0
M  V30 26 C 0.511630 -3.537177 0.087183 0
M  V30 27 N 0.688798 -4.395531 1.062783 0
M  V30 28 H 2.052812 -5.582439 3.828811 0
M  V30 29 H 0.441210 -5.847435 3.013600 0
M  V30 30 H 0.721650 -4.362085 3.942197 0
M  V30 31 H 3.278570 -3.093582 2.912645 0
M  V30 32 H 2.250303 0.769622 -3.129070 0
M  V30 33 H 0.649783 1.346922 -3.538522 0
M  V30 34 H 1.038250 3.003477 -2.076631 0
M  V30 35 H 2.337379 1.978525 -1.262463 0
M  V30 36 H 0.512204 0.506932 -0.343074 0
M  V30 37 H 1.440043 1.246492 1.831910 0
M  V30 38 H -0.278640 3.160198 3.260477 0
M  V30 39 H 0.752271 1.721723 3.912379 0
M  V30 40 H 0.297418 -0.553642 2.878626 0
M  V30 41 H -1.491433 -2.085733 2.602880 0
M  V30 42 H -3.833720 -1.685221 2.561613 0
M  V30 43 H -2.732574 2.368319 3.439349 0
M  V30 44 H -1.469445 2.184105 -1.787550 0
M  V30 45 H -1.729898 0.959126 -0.419199 0
M  V30 46 H -1.239084 0.314195 -3.207358 0
M  V30 47 H -1.434285 -0.742738 -1.800123 0
M  V30 END ATOM
M  V30 BEGIN BOND
M  V30 1 1 1 2
M  V30 2 2 2 3
M  V30 3 1 3 4
M  V30 4 2 4 5
M  V30 5 1 4 6
M  V30 6 1 6 7
M  V30 7 2 7 8
M  V30 8 1 8 9
M  V30 9 1 9 10
M  V30 10 1 10 11
M  V30 11 1 11 12
M  V30 12 1 12 13
M  V30 13 2 13 14
M  V30 14 1 13 15
M  V30 15 1 15 16
M  V30 16 1 16 17
M  V30 17 2 17 18
M  V30 18 1 18 19
M  V30 19 2 19 20
M  V30 20 1 20 21
M  V30 21 2 21 22
M  V30 22 1 12 23
M  V30 23 1 23 24
M  V30 24 1 8 25
M  V30 25 1 25 26
M  V30 26 2 26 27
M  V30 27 1 27 2
M  V30 28 1 26 6
M  V30 29 1 24 9
M  V30 30 1 22 17
M  V30 31 1 1 28
M  V30 32 1 1 29
M  V30 33 1 1 30
M  V30 34 1 3 31
M  V30 35 1 10 32
M  V30 36 1 10 33
M  V30 37 1 11 34
M  V30 38 1 11 35
M  V30 39 1 12 36
M  V30 40 1 15 37
M  V30 41 1 16 38
M  V30 42 1 16 39
M  V30 43 1 18 40
M  V30 44 1 19 41
M  V30 45 1 20 42
M  V30 46 1 22 43
M  V30 47 1 23 44
M  V30 48 1 23 45
M  V30 49 1 24 46
M  V30 50 1 24 47
M  V30 END BOND
M  V30 END CTAB
M  END
>  <Dataset>  (784) 
ChEMBL_Kinases

>  <Ligand_Instance>  (784) 
nan

>  <PDB_ID>  (784) 
nan

>  <Standardized_SMILES>  (784) 
Cc1cc(=O)n2nc(N3CCC(C(=O)NCc4cccnc4)CC3)sc2n1

>  <Name>  (784) 
nan

>  <Pocket>  (784) 
nan

>  <ATP_Site>  (784) 
nan

>  <Peripheral>  (784) 
nan

>  <Num_H_Atoms_ProtBoundConf>  (784) 
nan

>  <Num_Resolved_Atoms>  (784) 
nan

>  <Num_Not_Resolved_Atoms>  (784) 
nan

$$$$
CHEMBL1416394
     RDKit          3D

  0  0  0  0  0  0  0  0  0  0999 V3000
M  V30 BEGIN CTAB
M  V30 COUNTS 46 49 0 0 0
M  V30 BEGIN ATOM
M  V30 1 C -0.838629 -7.600952 -1.535438 0
M  V30 2 O -0.656334 -6.527381 -0.797608 0
M  V30 3 C -0.384968 -5.438930 -0.194966 0
M  V30 4 C 0.495581 -4.535349 -0.798690 0
M  V30 5 C 0.793740 -3.354748 -0.151967 0
M  V30 6 C 0.211496 -3.084658 1.091171 0
M  V30 7 C 0.579315 -1.817009 1.699009 0
M  V30 8 C -0.009596 -1.485080 3.013666 0
M  V30 9 S 0.734688 0.205073 3.393942 0
M  V30 10 C 1.670443 0.145740 1.757778 0
M  V30 11 N 2.581239 1.126497 1.170805 0
M  V30 12 C 1.818744 2.030560 0.377325 0
M  V30 13 O 0.549932 1.956446 0.234849 0
M  V30 14 C 2.548618 3.139684 -0.337244 0
M  V30 15 C 3.063601 4.104941 0.736821 0
M  V30 16 O 1.944202 4.286946 1.613305 0
M  V30 17 C 0.741762 4.733642 1.045439 0
M  V30 18 C -0.171962 5.342816 1.875564 0
M  V30 19 C -1.353418 5.767663 1.252852 0
M  V30 20 C -1.535410 5.560240 -0.118178 0
M  V30 21 C -0.563519 4.933900 -0.900205 0
M  V30 22 C 0.593794 4.514152 -0.307347 0
M  V30 23 O 1.581530 3.887922 -1.052834 0
M  V30 24 N 1.387843 -0.865332 1.255923 0
M  V30 25 C -0.652448 -3.967164 1.687678 0
M  V30 26 C -0.941954 -5.143914 1.030463 0
M  V30 27 O -1.815985 -6.069555 1.602595 0
M  V30 28 C -2.417137 -5.805376 2.872090 0
M  V30 29 H -0.311406 -7.526980 -2.547562 0
M  V30 30 H -0.493008 -8.587113 -1.116707 0
M  V30 31 H -1.948669 -7.749391 -1.754201 0
M  V30 32 H 0.964150 -4.713106 -1.761165 0
M  V30 33 H 1.480238 -2.633518 -0.606338 0
M  V30 34 H -0.740746 -2.077154 3.673706 0
M  V30 35 H 3.600638 1.237705 1.248330 0
M  V30 36 H 3.351203 2.739758 -0.967348 0
M  V30 37 H 3.861013 3.595043 1.299863 0
M  V30 38 H 3.384603 5.056273 0.304320 0
M  V30 39 H 0.027549 5.472577 2.923010 0
M  V30 40 H -2.109452 6.253875 1.858110 0
M  V30 41 H -2.494141 5.934016 -0.488763 0
M  V30 42 H -0.780910 4.812791 -1.945526 0
M  V30 43 H -1.099994 -3.766998 2.636866 0
M  V30 44 H -2.854259 -4.770251 2.894593 0
M  V30 45 H -3.261811 -6.487483 3.051249 0
M  V30 46 H -1.641871 -5.877285 3.668665 0
M  V30 END ATOM
M  V30 BEGIN BOND
M  V30 1 1 1 2
M  V30 2 1 2 3
M  V30 3 2 3 4
M  V30 4 1 4 5
M  V30 5 2 5 6
M  V30 6 1 6 7
M  V30 7 2 7 8
M  V30 8 1 8 9
M  V30 9 1 9 10
M  V30 10 1 10 11
M  V30 11 1 11 12
M  V30 12 2 12 13
M  V30 13 1 12 14
M  V30 14 1 14 15
M  V30 15 1 15 16
M  V30 16 1 16 17
M  V30 17 2 17 18
M  V30 18 1 18 19
M  V30 19 2 19 20
M  V30 20 1 20 21
M  V30 21 2 21 22
M  V30 22 1 22 23
M  V30 23 2 10 24
M  V30 24 1 6 25
M  V30 25 2 25 26
M  V30 26 1 26 27
M  V30 27 1 27 28
M  V30 28 1 26 3
M  V30 29 1 24 7
M  V30 30 1 23 14
M  V30 31 1 22 17
M  V30 32 1 1 29
M  V30 33 1 1 30
M  V30 34 1 1 31
M  V30 35 1 4 32
M  V30 36 1 5 33
M  V30 37 1 8 34
M  V30 38 1 11 35
M  V30 39 1 14 36
M  V30 40 1 15 37
M  V30 41 1 15 38
M  V30 42 1 18 39
M  V30 43 1 19 40
M  V30 44 1 20 41
M  V30 45 1 21 42
M  V30 46 1 25 43
M  V30 47 1 28 44
M  V30 48 1 28 45
M  V30 49 1 28 46
M  V30 END BOND
M  V30 END CTAB
M  END
>  <Dataset>  (785) 
ChEMBL_Kinases

>  <Ligand_Instance>  (785) 
nan

>  <PDB_ID>  (785) 
nan

>  <Standardized_SMILES>  (785) 
COc1ccc(-c2csc(NC(=O)C3COc4ccccc4O3)n2)cc1OC

>  <Name>  (785) 
nan

>  <Pocket>  (785) 
nan

>  <ATP_Site>  (785) 
nan

>  <Peripheral>  (785) 
nan

>  <Num_H_Atoms_ProtBoundConf>  (785) 
nan

>  <Num_Resolved_Atoms>  (785) 
nan

>  <Num_Not_Resolved_Atoms>  (785) 
nan

$$$$
CHEMBL1416324
     RDKit          3D

  0  0  0  0  0  0  0  0  0  0999 V3000
M  V30 BEGIN CTAB
M  V30 COUNTS 67 71 0 0 0
M  V30 BEGIN ATOM
M  V30 1 O 2.942385 -3.122662 3.212761 0
M  V30 2 C 2.225046 -2.296422 2.564889 0
M  V30 3 N 2.852132 -1.233665 1.872844 0
M  V30 4 C 4.258507 -0.904885 1.769263 0
M  V30 5 C 4.585879 0.501875 2.201793 0
M  V30 6 C 4.631997 1.447213 1.010473 0
M  V30 7 N 3.496640 1.155607 0.123549 0
M  V30 8 C 3.447978 2.291900 -0.795615 0
M  V30 9 C 2.365306 2.200061 -1.783103 0
M  V30 10 C 2.397860 1.625248 -3.038392 0
M  V30 11 C 1.285952 1.619855 -3.854692 0
M  V30 12 C 0.096591 2.179720 -3.469437 0
M  V30 13 C 0.015662 2.770770 -2.213014 0
M  V30 14 C 1.148007 2.771278 -1.392800 0
M  V30 15 C 3.826187 -0.063549 -0.549394 0
M  V30 16 C 4.627919 -1.019177 0.303691 0
M  V30 17 C 0.748642 -2.365934 2.479314 0
M  V30 18 C 0.371636 -2.516620 1.021999 0
M  V30 19 C -1.119946 -2.413443 0.814429 0
M  V30 20 N -1.736992 -1.372938 1.558025 0
M  V30 21 S -2.954909 -1.885612 2.651281 0
M  V30 22 O -2.471321 -2.796932 3.714704 0
M  V30 23 O -3.522422 -0.616547 3.271755 0
M  V30 24 C -4.243328 -2.651261 1.747999 0
M  V30 25 C -4.575409 -3.974253 2.002381 0
M  V30 26 C -5.583478 -4.638944 1.324036 0
M  V30 27 C -6.287256 -3.965952 0.358323 0
M  V30 28 C -5.967011 -2.632801 0.088204 0
M  V30 29 C -6.696057 -1.984088 -0.891222 0
M  V30 30 C -6.369798 -0.665344 -1.149359 0
M  V30 31 C -5.364099 -0.025113 -0.462708 0
M  V30 32 N -4.664368 -0.680981 0.491726 0
M  V30 33 C -4.949190 -1.970867 0.777084 0
M  V30 34 C -0.799495 -0.450932 2.153099 0
M  V30 35 C 0.170088 -1.131690 3.093546 0
M  V30 36 H 2.314309 -0.525034 1.324280 0
M  V30 37 H 4.843680 -1.633589 2.335778 0
M  V30 38 H 3.901644 0.931020 2.938885 0
M  V30 39 H 5.608701 0.480745 2.645353 0
M  V30 40 H 4.641857 2.485841 1.359980 0
M  V30 41 H 5.554774 1.189276 0.453281 0
M  V30 42 H 3.366108 3.231590 -0.218468 0
M  V30 43 H 4.421053 2.299630 -1.355676 0
M  V30 44 H 3.338711 1.197342 -3.309831 0
M  V30 45 H 1.402129 1.147830 -4.820783 0
M  V30 46 H -0.770679 2.171802 -4.114385 0
M  V30 47 H -0.898966 3.223070 -1.868348 0
M  V30 48 H 1.019829 3.254333 -0.410831 0
M  V30 49 H 2.896900 -0.538143 -0.948412 0
M  V30 50 H 4.445466 0.188840 -1.432712 0
M  V30 51 H 5.713404 -0.926914 0.151445 0
M  V30 52 H 4.318320 -2.038271 -0.020091 0
M  V30 53 H 0.402729 -3.269291 3.039128 0
M  V30 54 H 0.744616 -3.498251 0.686006 0
M  V30 55 H 0.866811 -1.686682 0.475888 0
M  V30 56 H -1.557642 -3.403999 1.028069 0
M  V30 57 H -1.296676 -2.205104 -0.269993 0
M  V30 58 H -4.002807 -4.484269 2.771858 0
M  V30 59 H -5.821175 -5.689484 1.550934 0
M  V30 60 H -7.084887 -4.460959 -0.191811 0
M  V30 61 H -7.479404 -2.520627 -1.409667 0
M  V30 62 H -6.981763 -0.215041 -1.930719 0
M  V30 63 H -5.159211 1.004838 -0.712148 0
M  V30 64 H -0.196622 -0.030314 1.321511 0
M  V30 65 H -1.334617 0.368948 2.628897 0
M  V30 66 H 0.963281 -0.396236 3.331896 0
M  V30 67 H -0.358446 -1.336027 4.068031 0
M  V30 END ATOM
M  V30 BEGIN BOND
M  V30 1 2 1 2
M  V30 2 1 2 3
M  V30 3 1 3 4
M  V30 4 1 4 5
M  V30 5 1 5 6
M  V30 6 1 6 7
M  V30 7 1 7 8
M  V30 8 1 8 9
M  V30 9 2 9 10
M  V30 10 1 10 11
M  V30 11 2 11 12
M  V30 12 1 12 13
M  V30 13 2 13 14
M  V30 14 1 7 15
M  V30 15 1 15 16
M  V30 16 1 2 17
M  V30 17 1 17 18
M  V30 18 1 18 19
M  V30 19 1 19 20
M  V30 20 1 20 21
M  V30 21 2 21 22
M  V30 22 2 21 23
M  V30 23 1 21 24
M  V30 24 2 24 25
M  V30 25 1 25 26
M  V30 26 2 26 27
M  V30 27 1 27 28
M  V30 28 2 28 29
M  V30 29 1 29 30
M  V30 30 2 30 31
M  V30 31 1 31 32
M  V30 32 2 32 33
M  V30 33 1 20 34
M  V30 34 1 34 35
M  V30 35 1 16 4
M  V30 36 1 35 17
M  V30 37 1 14 9
M  V30 38 1 33 24
M  V30 39 1 33 28
M  V30 40 1 3 36
M  V30 41 1 4 37
M  V30 42 1 5 38
M  V30 43 1 5 39
M  V30 44 1 6 40
M  V30 45 1 6 41
M  V30 46 1 8 42
M  V30 47 1 8 43
M  V30 48 1 10 44
M  V30 49 1 11 45
M  V30 50 1 12 46
M  V30 51 1 13 47
M  V30 52 1 14 48
M  V30 53 1 15 49
M  V30 54 1 15 50
M  V30 55 1 16 51
M  V30 56 1 16 52
M  V30 57 1 17 53
M  V30 58 1 18 54
M  V30 59 1 18 55
M  V30 60 1 19 56
M  V30 61 1 19 57
M  V30 62 1 25 58
M  V30 63 1 26 59
M  V30 64 1 27 60
M  V30 65 1 29 61
M  V30 66 1 30 62
M  V30 67 1 31 63
M  V30 68 1 34 64
M  V30 69 1 34 65
M  V30 70 1 35 66
M  V30 71 1 35 67
M  V30 END BOND
M  V30 END CTAB
M  END
>  <Dataset>  (786) 
ChEMBL_Kinases

>  <Ligand_Instance>  (786) 
nan

>  <PDB_ID>  (786) 
nan

>  <Standardized_SMILES>  (786) 
O=C(NC1CCN(Cc2ccccc2)CC1)C1CCN(S(=O)(=O)c2cccc3cccnc23)CC1

>  <Name>  (786) 
nan

>  <Pocket>  (786) 
nan

>  <ATP_Site>  (786) 
nan

>  <Peripheral>  (786) 
nan

>  <Num_H_Atoms_ProtBoundConf>  (786) 
nan

>  <Num_Resolved_Atoms>  (786) 
nan

>  <Num_Not_Resolved_Atoms>  (786) 
nan

$$$$
CHEMBL1416280
     RDKit          3D

  0  0  0  0  0  0  0  0  0  0999 V3000
M  V30 BEGIN CTAB
M  V30 COUNTS 41 43 0 0 0
M  V30 BEGIN ATOM
M  V30 1 C 1.016437 -3.850969 2.347856 0
M  V30 2 N 1.928094 -3.536304 1.244116 0
M  V30 3 C 3.302560 -3.971948 1.241686 0
M  V30 4 O 3.949879 -4.236184 2.311044 0
M  V30 5 S 3.679606 -3.993522 -0.543269 0
M  V30 6 C 2.622993 -2.560363 -0.898563 0
M  V30 7 C 2.639528 -1.577045 -1.762061 0
M  V30 8 C 1.683544 -0.482559 -1.899807 0
M  V30 9 C 1.244400 -0.457514 -3.226099 0
M  V30 10 C 0.335036 0.503870 -3.679585 0
M  V30 11 C -0.135539 1.444188 -2.797926 0
M  V30 12 C 0.326070 1.378920 -1.504971 0
M  V30 13 C 1.212332 0.471926 -0.989127 0
M  V30 14 O 1.738496 0.304647 0.230701 0
M  V30 15 C 1.625989 0.930178 1.441531 0
M  V30 16 C 0.304932 0.977429 2.073438 0
M  V30 17 C -0.641459 1.991941 1.999565 0
M  V30 18 C -1.873265 1.960954 2.617955 0
M  V30 19 C -2.121858 0.822485 3.342137 0
M  V30 20 C -3.417412 0.779725 3.998339 0
M  V30 21 O -4.241774 1.751753 3.888810 0
M  V30 22 O -4.162773 -0.060285 4.807213 0
M  V30 23 C -1.271212 -0.247752 3.492287 0
M  V30 24 C -0.065747 -0.118332 2.833978 0
M  V30 25 C 1.545736 -2.771918 0.089502 0
M  V30 26 O 0.362453 -2.310002 -0.074185 0
M  V30 27 H 0.713914 -4.897989 2.390513 0
M  V30 28 H 1.486982 -3.597465 3.328291 0
M  V30 29 H 0.107020 -3.233745 2.303804 0
M  V30 30 H 3.503904 -1.660977 -2.414382 0
M  V30 31 H 1.515287 -1.123558 -4.043864 0
M  V30 32 H -0.040033 0.572878 -4.691978 0
M  V30 33 H -0.835850 2.204690 -3.093055 0
M  V30 34 H -0.027729 2.107353 -0.807552 0
M  V30 35 H 2.320386 0.403222 2.171135 0
M  V30 36 H 2.031406 1.994617 1.432768 0
M  V30 37 H -0.358587 2.850895 1.416311 0
M  V30 38 H -2.558292 2.786975 2.515369 0
M  V30 39 H -4.989561 -0.567288 4.445819 0
M  V30 40 H -1.516286 -1.116380 4.071385 0
M  V30 41 H 0.613231 -0.962598 2.945955 0
M  V30 END ATOM
M  V30 BEGIN BOND
M  V30 1 1 1 2
M  V30 2 1 2 3
M  V30 3 2 3 4
M  V30 4 1 3 5
M  V30 5 1 5 6
M  V30 6 2 6 7
M  V30 7 1 7 8
M  V30 8 2 8 9
M  V30 9 1 9 10
M  V30 10 2 10 11
M  V30 11 1 11 12
M  V30 12 2 12 13
M  V30 13 1 13 14
M  V30 14 1 14 15
M  V30 15 1 15 16
M  V30 16 2 16 17
M  V30 17 1 17 18
M  V30 18 2 18 19
M  V30 19 1 19 20
M  V30 20 2 20 21
M  V30 21 1 20 22
M  V30 22 1 19 23
M  V30 23 2 23 24
M  V30 24 1 6 25
M  V30 25 2 25 26
M  V30 26 1 25 2
M  V30 27 1 13 8
M  V30 28 1 24 16
M  V30 29 1 1 27
M  V30 30 1 1 28
M  V30 31 1 1 29
M  V30 32 1 7 30
M  V30 33 1 9 31
M  V30 34 1 10 32
M  V30 35 1 11 33
M  V30 36 1 12 34
M  V30 37 1 15 35
M  V30 38 1 15 36
M  V30 39 1 17 37
M  V30 40 1 18 38
M  V30 41 1 22 39
M  V30 42 1 23 40
M  V30 43 1 24 41
M  V30 END BOND
M  V30 END CTAB
M  END
>  <Dataset>  (787) 
ChEMBL_Kinases

>  <Ligand_Instance>  (787) 
nan

>  <PDB_ID>  (787) 
nan

>  <Standardized_SMILES>  (787) 
CN1C(=O)S/C(=C/c2ccccc2OCc2ccc(C(=O)O)cc2)C1=O

>  <Name>  (787) 
nan

>  <Pocket>  (787) 
nan

>  <ATP_Site>  (787) 
nan

>  <Peripheral>  (787) 
nan

>  <Num_H_Atoms_ProtBoundConf>  (787) 
nan

>  <Num_Resolved_Atoms>  (787) 
nan

>  <Num_Not_Resolved_Atoms>  (787) 
nan

$$$$
CHEMBL1416218
     RDKit          3D

  0  0  0  0  0  0  0  0  0  0999 V3000
M  V30 BEGIN CTAB
M  V30 COUNTS 38 41 0 0 0
M  V30 BEGIN ATOM
M  V30 1 O 3.507728 -1.464170 2.255488 0
M  V30 2 C 3.275851 -2.317527 1.362335 0
M  V30 3 O 4.075688 -3.417387 1.594886 0
M  V30 4 C 2.345467 -2.210745 0.265777 0
M  V30 5 C 2.277923 -3.299165 -0.591538 0
M  V30 6 C 1.438602 -3.343344 -1.683675 0
M  V30 7 C 0.627397 -2.255495 -1.937425 0
M  V30 8 Cl -0.475576 -2.203790 -3.294848 0
M  V30 9 C 0.726425 -1.178186 -1.048171 0
M  V30 10 C 1.563665 -1.124170 0.048412 0
M  V30 11 C 1.604826 0.041785 0.928629 0
M  V30 12 C 1.017869 -0.167416 2.277810 0
M  V30 13 C 0.427262 0.978857 2.678786 0
M  V30 14 C 0.550252 2.078431 1.651193 0
M  V30 15 C 0.879692 1.239340 0.428626 0
M  V30 16 C -0.368682 0.987999 -0.349053 0
M  V30 17 C -1.559089 0.702160 0.494646 0
M  V30 18 C -1.856632 -0.525787 1.045060 0
M  V30 19 C -2.958500 -0.788451 1.829867 0
M  V30 20 C -3.843769 0.229768 2.100591 0
M  V30 21 C -3.531448 1.450912 1.542495 0
M  V30 22 N -2.454941 1.691240 0.780605 0
M  V30 23 N -0.111266 -0.054226 -1.311346 0
M  V30 24 H 4.402542 -3.741827 2.482147 0
M  V30 25 H 2.902871 -4.180883 -0.427031 0
M  V30 26 H 1.387231 -4.196853 -2.353922 0
M  V30 27 H 2.666931 0.382608 1.121265 0
M  V30 28 H 0.925338 -0.970770 3.031676 0
M  V30 29 H -0.119335 1.271164 3.592777 0
M  V30 30 H -0.388258 2.615144 1.506831 0
M  V30 31 H 1.381977 2.759463 1.927965 0
M  V30 32 H 1.541843 1.893938 -0.197552 0
M  V30 33 H -0.592704 1.935443 -0.905136 0
M  V30 34 H -1.200004 -1.350846 0.860470 0
M  V30 35 H -3.147705 -1.764711 2.237184 0
M  V30 36 H -4.734688 0.128618 2.702598 0
M  V30 37 H -4.147777 2.328256 1.681601 0
M  V30 38 H -0.562286 0.019492 -2.247842 0
M  V30 END ATOM
M  V30 BEGIN BOND
M  V30 1 2 1 2
M  V30 2 1 2 3
M  V30 3 1 2 4
M  V30 4 2 4 5
M  V30 5 1 5 6
M  V30 6 2 6 7
M  V30 7 1 7 8
M  V30 8 1 7 9
M  V30 9 2 9 10
M  V30 10 1 10 11
M  V30 11 1 11 12
M  V30 12 2 12 13
M  V30 13 1 13 14
M  V30 14 1 14 15
M  V30 15 1 15 16
M  V30 16 1 16 17
M  V30 17 2 17 18
M  V30 18 1 18 19
M  V30 19 2 19 20
M  V30 20 1 20 21
M  V30 21 2 21 22
M  V30 22 1 16 23
M  V30 23 1 10 4
M  V30 24 1 15 11
M  V30 25 1 22 17
M  V30 26 1 23 9
M  V30 27 1 3 24
M  V30 28 1 5 25
M  V30 29 1 6 26
M  V30 30 1 11 27
M  V30 31 1 12 28
M  V30 32 1 13 29
M  V30 33 1 14 30
M  V30 34 1 14 31
M  V30 35 1 15 32
M  V30 36 1 16 33
M  V30 37 1 18 34
M  V30 38 1 19 35
M  V30 39 1 20 36
M  V30 40 1 21 37
M  V30 41 1 23 38
M  V30 END BOND
M  V30 END CTAB
M  END
>  <Dataset>  (788) 
ChEMBL_Kinases

>  <Ligand_Instance>  (788) 
nan

>  <PDB_ID>  (788) 
nan

>  <Standardized_SMILES>  (788) 
O=C(O)c1ccc(Cl)c2c1C1C=CCC1C(c1ccccn1)N2

>  <Name>  (788) 
nan

>  <Pocket>  (788) 
nan

>  <ATP_Site>  (788) 
nan

>  <Peripheral>  (788) 
nan

>  <Num_H_Atoms_ProtBoundConf>  (788) 
nan

>  <Num_Resolved_Atoms>  (788) 
nan

>  <Num_Not_Resolved_Atoms>  (788) 
nan

$$$$
CHEMBL1416207
     RDKit          3D

  0  0  0  0  0  0  0  0  0  0999 V3000
M  V30 BEGIN CTAB
M  V30 COUNTS 44 47 0 0 0
M  V30 BEGIN ATOM
M  V30 1 C -1.714546 -6.724926 0.514320 0
M  V30 2 O -1.820048 -5.461906 -0.137432 0
M  V30 3 C -1.132222 -4.357754 0.395740 0
M  V30 4 C -0.391706 -4.583144 1.534675 0
M  V30 5 C 0.294268 -3.455745 2.050242 0
M  V30 6 C 0.134398 -2.294329 1.358116 0
M  V30 7 C -0.598928 -2.043685 0.220485 0
M  V30 8 C -0.649044 -0.768518 -0.466408 0
M  V30 9 C -1.162468 -0.558081 -1.724250 0
M  V30 10 C -1.130665 0.696554 -2.318481 0
M  V30 11 C -0.585140 1.793249 -1.686244 0
M  V30 12 N -0.542140 3.022338 -2.210890 0
M  V30 13 C -0.001509 4.049775 -1.540382 0
M  V30 14 N 0.520709 3.876288 -0.309914 0
M  V30 15 C 0.507309 2.645225 0.281925 0
M  V30 16 N 1.153386 2.502290 1.548524 0
M  V30 17 C 0.912489 2.105353 2.890353 0
M  V30 18 C 1.900081 1.048304 3.303524 0
M  V30 19 N 2.824152 0.626991 2.314590 0
M  V30 20 C 3.362556 1.598055 1.439428 0
M  V30 21 C 2.561642 2.893921 1.369342 0
M  V30 22 C -0.063109 1.610816 -0.434987 0
M  V30 23 C -0.112958 0.372046 0.116436 0
M  V30 24 C -1.279792 -3.171072 -0.285340 0
M  V30 25 H -0.646099 -6.985299 0.680529 0
M  V30 26 H -2.291999 -7.521723 0.013143 0
M  V30 27 H -2.159740 -6.575565 1.528999 0
M  V30 28 H -0.316969 -5.524139 2.028108 0
M  V30 29 H 0.874878 -3.599537 2.931079 0
M  V30 30 H 0.696849 -1.486409 1.838412 0
M  V30 31 H -1.599587 -1.406179 -2.259467 0
M  V30 32 H -1.546478 0.847861 -3.325176 0
M  V30 33 H 0.056473 5.076591 -1.891855 0
M  V30 34 H -0.134002 1.854153 3.147025 0
M  V30 35 H 1.143014 3.004899 3.544738 0
M  V30 36 H 1.317734 0.121257 3.594200 0
M  V30 37 H 2.460508 1.289907 4.235474 0
M  V30 38 H 2.772850 -0.313752 1.956395 0
M  V30 39 H 4.424330 1.802300 1.663479 0
M  V30 40 H 3.340512 1.174666 0.390969 0
M  V30 41 H 2.832412 3.539836 2.218268 0
M  V30 42 H 2.763060 3.433215 0.421515 0
M  V30 43 H 0.299849 0.274109 1.099323 0
M  V30 44 H -1.876424 -3.099058 -1.160940 0
M  V30 END ATOM
M  V30 BEGIN BOND
M  V30 1 1 1 2
M  V30 2 1 2 3
M  V30 3 2 3 4
M  V30 4 1 4 5
M  V30 5 2 5 6
M  V30 6 1 6 7
M  V30 7 1 7 8
M  V30 8 2 8 9
M  V30 9 1 9 10
M  V30 10 2 10 11
M  V30 11 1 11 12
M  V30 12 2 12 13
M  V30 13 1 13 14
M  V30 14 2 14 15
M  V30 15 1 15 16
M  V30 16 1 16 17
M  V30 17 1 17 18
M  V30 18 1 18 19
M  V30 19 1 19 20
M  V30 20 1 20 21
M  V30 21 1 15 22
M  V30 22 2 22 23
M  V30 23 2 7 24
M  V30 24 1 24 3
M  V30 25 1 23 8
M  V30 26 1 22 11
M  V30 27 1 21 16
M  V30 28 1 1 25
M  V30 29 1 1 26
M  V30 30 1 1 27
M  V30 31 1 4 28
M  V30 32 1 5 29
M  V30 33 1 6 30
M  V30 34 1 9 31
M  V30 35 1 10 32
M  V30 36 1 13 33
M  V30 37 1 17 34
M  V30 38 1 17 35
M  V30 39 1 18 36
M  V30 40 1 18 37
M  V30 41 1 19 38
M  V30 42 1 20 39
M  V30 43 1 20 40
M  V30 44 1 21 41
M  V30 45 1 21 42
M  V30 46 1 23 43
M  V30 47 1 24 44
M  V30 END BOND
M  V30 END CTAB
M  END
>  <Dataset>  (789) 
ChEMBL_Kinases

>  <Ligand_Instance>  (789) 
nan

>  <PDB_ID>  (789) 
nan

>  <Standardized_SMILES>  (789) 
COc1cccc(-c2ccc3ncnc(N4CCNCC4)c3c2)c1

>  <Name>  (789) 
nan

>  <Pocket>  (789) 
nan

>  <ATP_Site>  (789) 
nan

>  <Peripheral>  (789) 
nan

>  <Num_H_Atoms_ProtBoundConf>  (789) 
nan

>  <Num_Resolved_Atoms>  (789) 
nan

>  <Num_Not_Resolved_Atoms>  (789) 
nan

$$$$
CHEMBL1416200
     RDKit          3D

  0  0  0  0  0  0  0  0  0  0999 V3000
M  V30 BEGIN CTAB
M  V30 COUNTS 43 45 0 0 0
M  V30 BEGIN ATOM
M  V30 1 C -3.520576 -1.965394 -1.824968 0
M  V30 2 C -2.064181 -1.663453 -1.789422 0
M  V30 3 O -1.406142 -2.517935 -2.479769 0
M  V30 4 N -1.033461 -0.809399 -1.308898 0
M  V30 5 C 0.268958 -1.242378 -1.799746 0
M  V30 6 C 0.649825 -0.621969 -3.077217 0
M  V30 7 C 0.551523 -0.869197 -4.523444 0
M  V30 8 C 1.091360 0.057812 -5.335659 0
M  V30 9 C 1.735749 1.239410 -4.772782 0
M  V30 10 S 1.560920 1.014040 -2.984531 0
M  V30 11 C -1.003334 0.377205 -0.441741 0
M  V30 12 C -0.814187 0.045527 0.986232 0
M  V30 13 C 0.477299 0.189897 1.522753 0
M  V30 14 C 0.873207 -0.077418 2.817795 0
M  V30 15 C 2.187319 0.117618 3.190983 0
M  V30 16 C 2.511818 -0.174894 4.523383 0
M  V30 17 C 3.905056 0.009052 5.004023 0
M  V30 18 C 1.551463 -0.634173 5.403495 0
M  V30 19 C 1.843350 -0.957012 6.825362 0
M  V30 20 C 0.243866 -0.813087 4.976517 0
M  V30 21 C -0.129271 -0.539652 3.673423 0
M  V30 22 N -1.379058 -0.689125 3.191037 0
M  V30 23 C -1.716309 -0.414738 1.918450 0
M  V30 24 Cl -3.354136 -0.613029 1.357117 0
M  V30 25 H -3.712319 -2.860441 -1.177035 0
M  V30 26 H -4.127738 -1.098092 -1.488014 0
M  V30 27 H -3.794840 -2.276364 -2.857458 0
M  V30 28 H 0.357596 -2.364678 -1.850652 0
M  V30 29 H 1.015989 -0.982311 -0.999312 0
M  V30 30 H 0.042879 -1.789644 -4.683236 0
M  V30 31 H 0.995937 -0.164559 -6.385143 0
M  V30 32 H 2.154145 1.950501 -5.558630 0
M  V30 33 H -0.165966 1.010355 -0.775276 0
M  V30 34 H -1.950974 0.953013 -0.551719 0
M  V30 35 H 1.260029 0.550389 0.855898 0
M  V30 36 H 2.925186 0.477900 2.488062 0
M  V30 37 H 4.239687 -0.933122 5.500444 0
M  V30 38 H 3.900476 0.789679 5.792003 0
M  V30 39 H 4.587871 0.313451 4.200873 0
M  V30 40 H 2.886108 -1.312267 6.976415 0
M  V30 41 H 1.644271 -0.109063 7.502292 0
M  V30 42 H 1.205976 -1.808860 7.191576 0
M  V30 43 H -0.520405 -1.172978 5.655309 0
M  V30 END ATOM
M  V30 BEGIN BOND
M  V30 1 1 1 2
M  V30 2 2 2 3
M  V30 3 1 2 4
M  V30 4 1 4 5
M  V30 5 1 5 6
M  V30 6 2 6 7
M  V30 7 1 7 8
M  V30 8 2 8 9
M  V30 9 1 9 10
M  V30 10 1 4 11
M  V30 11 1 11 12
M  V30 12 2 12 13
M  V30 13 1 13 14
M  V30 14 2 14 15
M  V30 15 1 15 16
M  V30 16 1 16 17
M  V30 17 2 16 18
M  V30 18 1 18 19
M  V30 19 1 18 20
M  V30 20 2 20 21
M  V30 21 1 21 22
M  V30 22 2 22 23
M  V30 23 1 23 24
M  V30 24 1 10 6
M  V30 25 1 23 12
M  V30 26 1 21 14
M  V30 27 1 1 25
M  V30 28 1 1 26
M  V30 29 1 1 27
M  V30 30 1 5 28
M  V30 31 1 5 29
M  V30 32 1 7 30
M  V30 33 1 8 31
M  V30 34 1 9 32
M  V30 35 1 11 33
M  V30 36 1 11 34
M  V30 37 1 13 35
M  V30 38 1 15 36
M  V30 39 1 17 37
M  V30 40 1 17 38
M  V30 41 1 17 39
M  V30 42 1 19 40
M  V30 43 1 19 41
M  V30 44 1 19 42
M  V30 45 1 20 43
M  V30 END BOND
M  V30 END CTAB
M  END
>  <Dataset>  (790) 
ChEMBL_Kinases

>  <Ligand_Instance>  (790) 
nan

>  <PDB_ID>  (790) 
nan

>  <Standardized_SMILES>  (790) 
CC(=O)N(Cc1cccs1)Cc1cc2cc(C)c(C)cc2nc1Cl

>  <Name>  (790) 
nan

>  <Pocket>  (790) 
nan

>  <ATP_Site>  (790) 
nan

>  <Peripheral>  (790) 
nan

>  <Num_H_Atoms_ProtBoundConf>  (790) 
nan

>  <Num_Resolved_Atoms>  (790) 
nan

>  <Num_Not_Resolved_Atoms>  (790) 
nan

$$$$
CHEMBL1416180
     RDKit          3D

  0  0  0  0  0  0  0  0  0  0999 V3000
M  V30 BEGIN CTAB
M  V30 COUNTS 34 36 0 0 0
M  V30 BEGIN ATOM
M  V30 1 O -0.754040 0.188903 0.609283 0
M  V30 2 C -0.667252 -0.672706 1.537539 0
M  V30 3 C 0.044316 -1.490834 2.519876 0
M  V30 4 C 1.515708 -1.324396 2.600023 0
M  V30 5 N 2.254839 -1.617898 1.401615 0
M  V30 6 C 2.602505 -2.999108 1.283981 0
M  V30 7 O 2.386238 -3.971220 1.983532 0
M  V30 8 S 3.552081 -3.117628 -0.287124 0
M  V30 9 C 3.391109 -1.273089 -0.644137 0
M  V30 10 C 3.881143 -0.542151 -1.713762 0
M  V30 11 C 3.623508 0.801486 -1.721811 0
M  V30 12 C 2.909110 1.269782 -0.668785 0
M  V30 13 C 2.415690 0.562799 0.398252 0
M  V30 14 C 2.647120 -0.784034 0.451107 0
M  V30 15 N -2.075003 -0.994327 1.653562 0
M  V30 16 C -3.073061 -0.366003 0.827050 0
M  V30 17 C -3.496010 -0.842602 -0.399105 0
M  V30 18 C -4.460566 -0.144290 -1.090486 0
M  V30 19 C -5.003695 1.009436 -0.583080 0
M  V30 20 N -4.565484 1.452288 0.627252 0
M  V30 21 C -3.619889 0.792250 1.333984 0
M  V30 22 H -0.357500 -1.243210 3.537295 0
M  V30 23 H -0.204511 -2.569413 2.371747 0
M  V30 24 H 1.763101 -0.251107 2.841282 0
M  V30 25 H 1.886463 -1.885797 3.478600 0
M  V30 26 H 4.423249 -1.134714 -2.434512 0
M  V30 27 H 4.003358 1.352114 -2.545676 0
M  V30 28 H 2.698365 2.355898 -0.670649 0
M  V30 29 H 1.861099 1.081543 1.164530 0
M  V30 30 H -2.713793 -1.630466 2.226417 0
M  V30 31 H -3.019689 -1.771481 -0.746311 0
M  V30 32 H -4.766690 -0.536333 -2.033480 0
M  V30 33 H -5.772711 1.562812 -1.138276 0
M  V30 34 H -3.310716 1.190012 2.288507 0
M  V30 END ATOM
M  V30 BEGIN BOND
M  V30 1 2 1 2
M  V30 2 1 2 3
M  V30 3 1 3 4
M  V30 4 1 4 5
M  V30 5 1 5 6
M  V30 6 2 6 7
M  V30 7 1 6 8
M  V30 8 1 8 9
M  V30 9 2 9 10
M  V30 10 1 10 11
M  V30 11 2 11 12
M  V30 12 1 12 13
M  V30 13 2 13 14
M  V30 14 1 2 15
M  V30 15 1 15 16
M  V30 16 2 16 17
M  V30 17 1 17 18
M  V30 18 2 18 19
M  V30 19 1 19 20
M  V30 20 2 20 21
M  V30 21 1 14 5
M  V30 22 1 21 16
M  V30 23 1 14 9
M  V30 24 1 3 22
M  V30 25 1 3 23
M  V30 26 1 4 24
M  V30 27 1 4 25
M  V30 28 1 10 26
M  V30 29 1 11 27
M  V30 30 1 12 28
M  V30 31 1 13 29
M  V30 32 1 15 30
M  V30 33 1 17 31
M  V30 34 1 18 32
M  V30 35 1 19 33
M  V30 36 1 21 34
M  V30 END BOND
M  V30 END CTAB
M  END
>  <Dataset>  (791) 
ChEMBL_Kinases

>  <Ligand_Instance>  (791) 
nan

>  <PDB_ID>  (791) 
nan

>  <Standardized_SMILES>  (791) 
O=C(CCn1c(=O)sc2ccccc21)Nc1cccnc1

>  <Name>  (791) 
nan

>  <Pocket>  (791) 
nan

>  <ATP_Site>  (791) 
nan

>  <Peripheral>  (791) 
nan

>  <Num_H_Atoms_ProtBoundConf>  (791) 
nan

>  <Num_Resolved_Atoms>  (791) 
nan

>  <Num_Not_Resolved_Atoms>  (791) 
nan

$$$$
CHEMBL1416105
     RDKit          3D

  0  0  0  0  0  0  0  0  0  0999 V3000
M  V30 BEGIN CTAB
M  V30 COUNTS 64 66 0 0 0
M  V30 BEGIN ATOM
M  V30 1 C 5.517005 -0.503597 6.804224 0
M  V30 2 C 4.359258 0.333237 7.259441 0
M  V30 3 O 3.570448 0.687687 6.146347 0
M  V30 4 C 2.981126 -0.316289 5.371763 0
M  V30 5 O 3.308406 -1.397219 5.875701 0
M  V30 6 N 2.176879 -0.000422 4.239803 0
M  V30 7 C 1.866948 1.308156 3.743741 0
M  V30 8 C 1.808047 1.394819 2.233338 0
M  V30 9 N 0.857847 0.375855 1.829526 0
M  V30 10 C 0.226554 0.468587 0.569986 0
M  V30 11 O 0.935077 1.524023 0.438975 0
M  V30 12 C -0.569914 0.300210 -0.639049 0
M  V30 13 N -1.423818 -0.803172 -0.695218 0
M  V30 14 C -2.822404 -0.622904 -0.632384 0
M  V30 15 C -3.373690 -0.391391 0.742146 0
M  V30 16 C -4.856439 -0.535521 0.754377 0
M  V30 17 C -5.589221 -0.092608 -0.447391 0
M  V30 18 C -4.822455 0.288713 -1.653411 0
M  V30 19 C -3.346137 0.517160 -1.473545 0
M  V30 20 S -0.967126 -2.268735 -1.302480 0
M  V30 21 O -2.171846 -3.200355 -1.194308 0
M  V30 22 O 0.085289 -2.936648 -0.462471 0
M  V30 23 C -0.491406 -2.319451 -2.972849 0
M  V30 24 C -1.345174 -2.558742 -4.031060 0
M  V30 25 C -0.897407 -2.580042 -5.338405 0
M  V30 26 C 0.447032 -2.359212 -5.655464 0
M  V30 27 C 0.906061 -2.381440 -7.062858 0
M  V30 28 C 1.280805 -2.123316 -4.590667 0
M  V30 29 C 0.840669 -2.100055 -3.270869 0
M  V30 30 C 0.489700 -0.775352 2.633356 0
M  V30 31 C 1.637821 -1.131930 3.548931 0
M  V30 32 H 5.724059 -0.406719 5.704808 0
M  V30 33 H 5.351557 -1.581347 7.003097 0
M  V30 34 H 6.442345 -0.141857 7.317575 0
M  V30 35 H 4.698369 1.287831 7.709385 0
M  V30 36 H 3.682637 -0.216531 7.959685 0
M  V30 37 H 0.880094 1.602223 4.153587 0
M  V30 38 H 2.594836 2.048116 4.082680 0
M  V30 39 H 1.471460 2.425181 1.995420 0
M  V30 40 H 2.816881 1.162875 1.838494 0
M  V30 41 H 0.110389 0.336396 -1.534766 0
M  V30 42 H -1.198407 1.225093 -0.784333 0
M  V30 43 H -3.330414 -1.551314 -1.021160 0
M  V30 44 H -3.128593 0.666763 1.009369 0
M  V30 45 H -2.944013 -1.099093 1.506975 0
M  V30 46 H -5.085433 -1.608294 1.025085 0
M  V30 47 H -5.207300 0.037859 1.657897 0
M  V30 48 H -6.277859 0.766450 -0.184945 0
M  V30 49 H -6.317458 -0.895449 -0.728186 0
M  V30 50 H -5.225857 1.212279 -2.127975 0
M  V30 51 H -4.915583 -0.496024 -2.457385 0
M  V30 52 H -2.877247 0.489500 -2.478580 0
M  V30 53 H -3.187390 1.502252 -1.032926 0
M  V30 54 H -2.376536 -2.729508 -3.803670 0
M  V30 55 H -1.580850 -2.772301 -6.163267 0
M  V30 56 H 0.008671 -2.490624 -7.710833 0
M  V30 57 H 1.659778 -3.139558 -7.273881 0
M  V30 58 H 1.284416 -1.354886 -7.286112 0
M  V30 59 H 2.318267 -1.957392 -4.881189 0
M  V30 60 H 1.588699 -1.902075 -2.486314 0
M  V30 61 H -0.402645 -0.651149 3.240356 0
M  V30 62 H 0.295330 -1.667430 1.967705 0
M  V30 63 H 1.285286 -1.919268 4.242409 0
M  V30 64 H 2.435042 -1.567424 2.905488 0
M  V30 END ATOM
M  V30 BEGIN BOND
M  V30 1 1 1 2
M  V30 2 1 2 3
M  V30 3 1 3 4
M  V30 4 2 4 5
M  V30 5 1 4 6
M  V30 6 1 6 7
M  V30 7 1 7 8
M  V30 8 1 8 9
M  V30 9 1 9 10
M  V30 10 2 10 11
M  V30 11 1 10 12
M  V30 12 1 12 13
M  V30 13 1 13 14
M  V30 14 1 14 15
M  V30 15 1 15 16
M  V30 16 1 16 17
M  V30 17 1 17 18
M  V30 18 1 18 19
M  V30 19 1 13 20
M  V30 20 2 20 21
M  V30 21 2 20 22
M  V30 22 1 20 23
M  V30 23 2 23 24
M  V30 24 1 24 25
M  V30 25 2 25 26
M  V30 26 1 26 27
M  V30 27 1 26 28
M  V30 28 2 28 29
M  V30 29 1 9 30
M  V30 30 1 30 31
M  V30 31 1 31 6
M  V30 32 1 19 14
M  V30 33 1 29 23
M  V30 34 1 1 32
M  V30 35 1 1 33
M  V30 36 1 1 34
M  V30 37 1 2 35
M  V30 38 1 2 36
M  V30 39 1 7 37
M  V30 40 1 7 38
M  V30 41 1 8 39
M  V30 42 1 8 40
M  V30 43 1 12 41
M  V30 44 1 12 42
M  V30 45 1 14 43
M  V30 46 1 15 44
M  V30 47 1 15 45
M  V30 48 1 16 46
M  V30 49 1 16 47
M  V30 50 1 17 48
M  V30 51 1 17 49
M  V30 52 1 18 50
M  V30 53 1 18 51
M  V30 54 1 19 52
M  V30 55 1 19 53
M  V30 56 1 24 54
M  V30 57 1 25 55
M  V30 58 1 27 56
M  V30 59 1 27 57
M  V30 60 1 27 58
M  V30 61 1 28 59
M  V30 62 1 29 60
M  V30 63 1 30 61
M  V30 64 1 30 62
M  V30 65 1 31 63
M  V30 66 1 31 64
M  V30 END BOND
M  V30 END CTAB
M  END
>  <Dataset>  (792) 
ChEMBL_Kinases

>  <Ligand_Instance>  (792) 
nan

>  <PDB_ID>  (792) 
nan

>  <Standardized_SMILES>  (792) 
CCOC(=O)N1CCN(C(=O)CN(C2CCCCC2)S(=O)(=O)c2ccc(C)cc2)CC1

>  <Name>  (792) 
nan

>  <Pocket>  (792) 
nan

>  <ATP_Site>  (792) 
nan

>  <Peripheral>  (792) 
nan

>  <Num_H_Atoms_ProtBoundConf>  (792) 
nan

>  <Num_Resolved_Atoms>  (792) 
nan

>  <Num_Not_Resolved_Atoms>  (792) 
nan

$$$$
CHEMBL1416028
     RDKit          3D

  0  0  0  0  0  0  0  0  0  0999 V3000
M  V30 BEGIN CTAB
M  V30 COUNTS 50 52 0 0 0
M  V30 BEGIN ATOM
M  V30 1 C -1.751796 -4.072724 6.387092 0
M  V30 2 C -0.834196 -3.182069 5.574214 0
M  V30 3 O -0.812080 -3.560162 4.230248 0
M  V30 4 C -0.033035 -2.871721 3.316156 0
M  V30 5 C 0.718953 -1.805621 3.764832 0
M  V30 6 C 1.506641 -1.097200 2.881469 0
M  V30 7 C 1.538263 -1.460714 1.546797 0
M  V30 8 C 2.362316 -0.745927 0.535619 0
M  V30 9 C 1.565417 0.370957 -0.074176 0
M  V30 10 O 0.791857 -0.164597 0.756217 0
M  V30 11 N 2.118844 1.203999 -1.063313 0
M  V30 12 C 1.150392 2.191471 -1.479514 0
M  V30 13 C 0.881818 3.472518 -0.999121 0
M  V30 14 C 1.623785 4.054975 0.111926 0
M  V30 15 N 1.237176 5.384182 0.498886 0
M  V30 16 O 2.525550 3.416782 0.665911 0
M  V30 17 O -0.085882 3.941460 -1.721383 0
M  V30 18 C -0.480370 3.085838 -2.635079 0
M  V30 19 C -1.475618 3.174263 -3.610908 0
M  V30 20 C -1.629783 2.065456 -4.426129 0
M  V30 21 C -0.877664 0.904971 -4.335677 0
M  V30 22 C 0.092973 0.839868 -3.371475 0
M  V30 23 C 0.278060 1.921216 -2.540552 0
M  V30 24 C 0.782326 -2.523148 1.126475 0
M  V30 25 C -0.017948 -3.257395 1.975860 0
M  V30 26 O -0.811222 -4.340976 1.638485 0
M  V30 27 C -0.903701 -4.851068 0.325920 0
M  V30 28 C -1.418827 -3.829399 -0.664802 0
M  V30 29 H -2.056735 -3.557076 7.313574 0
M  V30 30 H -1.186097 -4.975839 6.663062 0
M  V30 31 H -2.658810 -4.301765 5.806518 0
M  V30 32 H -1.211077 -2.137919 5.666618 0
M  V30 33 H 0.194721 -3.174844 6.008465 0
M  V30 34 H 0.733485 -1.481553 4.779380 0
M  V30 35 H 2.108636 -0.255725 3.200965 0
M  V30 36 H 3.253820 -0.338861 1.053788 0
M  V30 37 H 2.651254 -1.459803 -0.263237 0
M  V30 38 H 3.103195 0.985427 -1.329679 0
M  V30 39 H 1.091195 5.739820 1.477772 0
M  V30 40 H 1.040138 6.203323 -0.110744 0
M  V30 41 H -2.098125 4.052120 -3.734648 0
M  V30 42 H -2.416710 2.161417 -5.182302 0
M  V30 43 H -1.031468 0.070946 -4.987954 0
M  V30 44 H 0.702357 -0.037156 -3.260774 0
M  V30 45 H 0.785790 -2.831470 0.090617 0
M  V30 46 H -1.534895 -5.739746 0.257151 0
M  V30 47 H 0.148259 -5.085375 0.027524 0
M  V30 48 H -1.604177 -2.898477 -0.113275 0
M  V30 49 H -2.422090 -4.138828 -1.059044 0
M  V30 50 H -0.733393 -3.705288 -1.548491 0
M  V30 END ATOM
M  V30 BEGIN BOND
M  V30 1 1 1 2
M  V30 2 1 2 3
M  V30 3 1 3 4
M  V30 4 2 4 5
M  V30 5 1 5 6
M  V30 6 2 6 7
M  V30 7 1 7 8
M  V30 8 1 8 9
M  V30 9 2 9 10
M  V30 10 1 9 11
M  V30 11 1 11 12
M  V30 12 2 12 13
M  V30 13 1 13 14
M  V30 14 1 14 15
M  V30 15 2 14 16
M  V30 16 1 13 17
M  V30 17 1 17 18
M  V30 18 2 18 19
M  V30 19 1 19 20
M  V30 20 2 20 21
M  V30 21 1 21 22
M  V30 22 2 22 23
M  V30 23 1 7 24
M  V30 24 2 24 25
M  V30 25 1 25 26
M  V30 26 1 26 27
M  V30 27 1 27 28
M  V30 28 1 25 4
M  V30 29 1 23 12
M  V30 30 1 23 18
M  V30 31 1 1 29
M  V30 32 1 1 30
M  V30 33 1 1 31
M  V30 34 1 2 32
M  V30 35 1 2 33
M  V30 36 1 5 34
M  V30 37 1 6 35
M  V30 38 1 8 36
M  V30 39 1 8 37
M  V30 40 1 11 38
M  V30 41 1 15 39
M  V30 42 1 15 40
M  V30 43 1 19 41
M  V30 44 1 20 42
M  V30 45 1 21 43
M  V30 46 1 22 44
M  V30 47 1 24 45
M  V30 48 1 27 46
M  V30 49 1 27 47
M  V30 50 1 28 48
M  V30 51 1 28 49
M  V30 52 1 28 50
M  V30 END BOND
M  V30 END CTAB
M  END
>  <Dataset>  (793) 
ChEMBL_Kinases

>  <Ligand_Instance>  (793) 
nan

>  <PDB_ID>  (793) 
nan

>  <Standardized_SMILES>  (793) 
CCOc1ccc(CC(=O)Nc2c(C(N)=O)oc3ccccc23)cc1OCC

>  <Name>  (793) 
nan

>  <Pocket>  (793) 
nan

>  <ATP_Site>  (793) 
nan

>  <Peripheral>  (793) 
nan

>  <Num_H_Atoms_ProtBoundConf>  (793) 
nan

>  <Num_Resolved_Atoms>  (793) 
nan

>  <Num_Not_Resolved_Atoms>  (793) 
nan

$$$$
CHEMBL1415937
     RDKit          3D

  0  0  0  0  0  0  0  0  0  0999 V3000
M  V30 BEGIN CTAB
M  V30 COUNTS 48 50 0 0 0
M  V30 BEGIN ATOM
M  V30 1 C -1.215760 0.628191 4.552447 0
M  V30 2 C -0.011421 0.255050 3.755636 0
M  V30 3 O -0.298780 -0.930127 3.012624 0
M  V30 4 C 0.655749 -1.458563 2.180097 0
M  V30 5 O 1.489997 -0.572222 2.434166 0
M  V30 6 C 0.876560 -2.554960 1.277204 0
M  V30 7 C 2.071731 -2.628384 0.631335 0
M  V30 8 N 3.140465 -1.752655 0.652153 0
M  V30 9 C 2.915939 -0.793671 -0.414286 0
M  V30 10 O 1.842641 -1.122732 -0.970629 0
M  V30 11 C 4.021300 0.231742 -0.468511 0
M  V30 12 S 3.841759 1.371098 0.939592 0
M  V30 13 C 2.273519 2.244357 0.805079 0
M  V30 14 N 1.821353 3.160012 1.676286 0
M  V30 15 N 0.624790 3.569108 1.216068 0
M  V30 16 C 0.357850 2.909185 0.081013 0
M  V30 17 C -0.844821 3.097029 -0.704464 0
M  V30 18 C -1.207970 2.502506 -1.884786 0
M  V30 19 C -2.354508 2.746310 -2.588372 0
M  V30 20 C -3.297885 3.684887 -2.117246 0
M  V30 21 N -2.894496 4.222639 -0.980400 0
M  V30 22 C -1.820187 4.030221 -0.270399 0
M  V30 23 O 1.370546 2.113718 -0.144427 0
M  V30 24 S 1.806881 -4.182456 -0.284731 0
M  V30 25 C 0.166390 -4.530978 0.297800 0
M  V30 26 C -0.438711 -5.755722 -0.223587 0
M  V30 27 C -1.747503 -6.356018 0.024998 0
M  V30 28 O 0.268876 -6.433809 -1.032360 0
M  V30 29 C -0.131030 -3.469552 1.160994 0
M  V30 30 C -1.477865 -3.532525 1.773345 0
M  V30 31 H -1.428221 -0.128641 5.350678 0
M  V30 32 H -2.069252 0.742133 3.866654 0
M  V30 33 H -1.073878 1.632816 5.012077 0
M  V30 34 H 0.877907 0.038359 4.417690 0
M  V30 35 H 0.282770 1.076095 3.081573 0
M  V30 36 H 3.959780 -1.758014 1.299347 0
M  V30 37 H 4.982520 -0.282399 -0.383221 0
M  V30 38 H 3.925009 0.746238 -1.439284 0
M  V30 39 H -0.480903 1.758875 -2.263523 0
M  V30 40 H -2.478173 2.168278 -3.521362 0
M  V30 41 H -4.127591 3.760481 -2.768975 0
M  V30 42 H -1.637589 4.553387 0.662620 0
M  V30 43 H -1.658081 -7.464186 -0.006921 0
M  V30 44 H -2.281299 -6.007567 0.923303 0
M  V30 45 H -2.387827 -6.078736 -0.869054 0
M  V30 46 H -1.497464 -4.398693 2.459435 0
M  V30 47 H -2.240353 -3.628762 0.970102 0
M  V30 48 H -1.728737 -2.588562 2.316952 0
M  V30 END ATOM
M  V30 BEGIN BOND
M  V30 1 1 1 2
M  V30 2 1 2 3
M  V30 3 1 3 4
M  V30 4 2 4 5
M  V30 5 1 4 6
M  V30 6 2 6 7
M  V30 7 1 7 8
M  V30 8 1 8 9
M  V30 9 2 9 10
M  V30 10 1 9 11
M  V30 11 1 11 12
M  V30 12 1 12 13
M  V30 13 2 13 14
M  V30 14 1 14 15
M  V30 15 2 15 16
M  V30 16 1 16 17
M  V30 17 2 17 18
M  V30 18 1 18 19
M  V30 19 2 19 20
M  V30 20 1 20 21
M  V30 21 2 21 22
M  V30 22 1 16 23
M  V30 23 1 7 24
M  V30 24 1 24 25
M  V30 25 1 25 26
M  V30 26 1 26 27
M  V30 27 2 26 28
M  V30 28 2 25 29
M  V30 29 1 29 30
M  V30 30 1 29 6
M  V30 31 1 23 13
M  V30 32 1 22 17
M  V30 33 1 1 31
M  V30 34 1 1 32
M  V30 35 1 1 33
M  V30 36 1 2 34
M  V30 37 1 2 35
M  V30 38 1 8 36
M  V30 39 1 11 37
M  V30 40 1 11 38
M  V30 41 1 18 39
M  V30 42 1 19 40
M  V30 43 1 20 41
M  V30 44 1 22 42
M  V30 45 1 27 43
M  V30 46 1 27 44
M  V30 47 1 27 45
M  V30 48 1 30 46
M  V30 49 1 30 47
M  V30 50 1 30 48
M  V30 END BOND
M  V30 END CTAB
M  END
>  <Dataset>  (794) 
ChEMBL_Kinases

>  <Ligand_Instance>  (794) 
nan

>  <PDB_ID>  (794) 
nan

>  <Standardized_SMILES>  (794) 
CCOC(=O)c1c(NC(=O)CSc2nnc(-c3cccnc3)o2)sc(C(C)=O)c1C

>  <Name>  (794) 
nan

>  <Pocket>  (794) 
nan

>  <ATP_Site>  (794) 
nan

>  <Peripheral>  (794) 
nan

>  <Num_H_Atoms_ProtBoundConf>  (794) 
nan

>  <Num_Resolved_Atoms>  (794) 
nan

>  <Num_Not_Resolved_Atoms>  (794) 
nan

$$$$
CHEMBL1415889
     RDKit          3D

  0  0  0  0  0  0  0  0  0  0999 V3000
M  V30 BEGIN CTAB
M  V30 COUNTS 44 45 0 0 0
M  V30 BEGIN ATOM
M  V30 1 C 1.304540 -3.307811 3.543652 0
M  V30 2 C 0.115811 -2.442122 3.779235 0
M  V30 3 N -0.280207 -1.661555 2.596131 0
M  V30 4 C 0.264609 -0.437062 2.470124 0
M  V30 5 S 1.411876 0.270705 3.626899 0
M  V30 6 C 3.092373 -0.153466 3.135881 0
M  V30 7 C 3.551875 0.502881 1.895245 0
M  V30 8 O 4.707288 0.054537 1.573596 0
M  V30 9 N 2.989638 1.479196 1.043415 0
M  V30 10 C 3.699269 1.923059 -0.123750 0
M  V30 11 C 2.798474 2.968630 -0.797001 0
M  V30 12 O 1.613169 2.310023 -1.108019 0
M  V30 13 C 0.743847 3.230971 -1.731662 0
M  V30 14 N -0.154966 0.202258 1.371692 0
M  V30 15 C -1.030018 -0.345259 0.501413 0
M  V30 16 S -1.730691 0.301184 -1.018966 0
M  V30 17 C -2.717506 -1.150082 -1.371091 0
M  V30 18 C -3.582936 -1.290541 -2.537568 0
M  V30 19 C -2.442849 -1.995606 -0.326618 0
M  V30 20 C -3.140683 -3.337277 -0.329600 0
M  V30 21 C -1.575515 -1.626449 0.669005 0
M  V30 22 C -1.145289 -2.285300 1.797754 0
M  V30 23 O -1.560160 -3.447430 2.066067 0
M  V30 24 H 2.118126 -3.084085 4.287243 0
M  V30 25 H 1.031218 -4.385267 3.710370 0
M  V30 26 H 1.799186 -3.148289 2.556966 0
M  V30 27 H 0.341147 -1.744901 4.630679 0
M  V30 28 H -0.745391 -3.057937 4.131746 0
M  V30 29 H 3.267760 -1.267218 3.091627 0
M  V30 30 H 3.776215 0.166053 3.973122 0
M  V30 31 H 2.061144 1.792059 1.393630 0
M  V30 32 H 4.639830 2.460889 0.102599 0
M  V30 33 H 3.904361 1.129862 -0.862206 0
M  V30 34 H 2.557434 3.691414 0.028999 0
M  V30 35 H 3.299843 3.444231 -1.636356 0
M  V30 36 H 0.531061 4.090994 -1.034949 0
M  V30 37 H -0.216636 2.781229 -1.990843 0
M  V30 38 H 1.270743 3.705658 -2.590272 0
M  V30 39 H -2.991063 -0.949061 -3.435138 0
M  V30 40 H -4.474545 -0.638090 -2.520159 0
M  V30 41 H -3.772967 -2.348920 -2.701095 0
M  V30 42 H -4.054337 -3.332426 -0.919499 0
M  V30 43 H -3.417718 -3.649287 0.709081 0
M  V30 44 H -2.459474 -4.091212 -0.773790 0
M  V30 END ATOM
M  V30 BEGIN BOND
M  V30 1 1 1 2
M  V30 2 1 2 3
M  V30 3 1 3 4
M  V30 4 1 4 5
M  V30 5 1 5 6
M  V30 6 1 6 7
M  V30 7 2 7 8
M  V30 8 1 7 9
M  V30 9 1 9 10
M  V30 10 1 10 11
M  V30 11 1 11 12
M  V30 12 1 12 13
M  V30 13 2 4 14
M  V30 14 1 14 15
M  V30 15 1 15 16
M  V30 16 1 16 17
M  V30 17 1 17 18
M  V30 18 2 17 19
M  V30 19 1 19 20
M  V30 20 1 19 21
M  V30 21 1 21 22
M  V30 22 2 22 23
M  V30 23 1 22 3
M  V30 24 2 21 15
M  V30 25 1 1 24
M  V30 26 1 1 25
M  V30 27 1 1 26
M  V30 28 1 2 27
M  V30 29 1 2 28
M  V30 30 1 6 29
M  V30 31 1 6 30
M  V30 32 1 9 31
M  V30 33 1 10 32
M  V30 34 1 10 33
M  V30 35 1 11 34
M  V30 36 1 11 35
M  V30 37 1 13 36
M  V30 38 1 13 37
M  V30 39 1 13 38
M  V30 40 1 18 39
M  V30 41 1 18 40
M  V30 42 1 18 41
M  V30 43 1 20 42
M  V30 44 1 20 43
M  V30 45 1 20 44
M  V30 END BOND
M  V30 END CTAB
M  END
>  <Dataset>  (795) 
ChEMBL_Kinases

>  <Ligand_Instance>  (795) 
nan

>  <PDB_ID>  (795) 
nan

>  <Standardized_SMILES>  (795) 
CCn1c(SCC(=O)NCCOC)nc2sc(C)c(C)c2c1=O

>  <Name>  (795) 
nan

>  <Pocket>  (795) 
nan

>  <ATP_Site>  (795) 
nan

>  <Peripheral>  (795) 
nan

>  <Num_H_Atoms_ProtBoundConf>  (795) 
nan

>  <Num_Resolved_Atoms>  (795) 
nan

>  <Num_Not_Resolved_Atoms>  (795) 
nan

$$$$
CHEMBL1415808
     RDKit          3D

  0  0  0  0  0  0  0  0  0  0999 V3000
M  V30 BEGIN CTAB
M  V30 COUNTS 48 51 0 0 0
M  V30 BEGIN ATOM
M  V30 1 O 1.610145 -1.236769 3.924084 0
M  V30 2 C 0.482493 -1.443442 3.404477 0
M  V30 3 O 0.356658 -1.955864 2.136947 0
M  V30 4 C 1.456830 -2.295899 1.304994 0
M  V30 5 C 2.311531 -1.080636 1.048606 0
M  V30 6 N 3.374340 -0.629765 1.772243 0
M  V30 7 N 3.845281 0.464843 1.213129 0
M  V30 8 C 3.086639 0.721465 0.127870 0
M  V30 9 C 3.286413 1.863623 -0.775740 0
M  V30 10 C 2.427909 2.007668 -1.860021 0
M  V30 11 C 2.609816 3.089760 -2.724243 0
M  V30 12 C 3.623283 4.007133 -2.513427 0
M  V30 13 C 4.456359 3.830228 -1.424736 0
M  V30 14 C 4.288943 2.766605 -0.562783 0
M  V30 15 O 2.192804 -0.203160 0.055543 0
M  V30 16 C -0.756127 -1.145090 4.132297 0
M  V30 17 C -1.609676 -0.110416 3.389713 0
M  V30 18 C -2.101791 -0.663913 2.081030 0
M  V30 19 N -2.547624 -1.994420 2.113683 0
M  V30 20 S -3.719379 -2.477449 1.002136 0
M  V30 21 O -4.926161 -1.570254 1.206692 0
M  V30 22 O -4.139453 -3.877440 1.284323 0
M  V30 23 C -3.102996 -2.294242 -0.621234 0
M  V30 24 C -2.813728 -2.998583 -1.787063 0
M  V30 25 C -2.311577 -2.334114 -2.846174 0
M  V30 26 C -2.082993 -0.921686 -2.760896 0
M  V30 27 S -2.638785 -0.539343 -1.017229 0
M  V30 28 C -2.084455 -2.892706 3.069434 0
M  V30 29 C -1.646113 -2.324478 4.376598 0
M  V30 30 H 2.059554 -3.129985 1.695472 0
M  V30 31 H 1.031934 -2.598772 0.324918 0
M  V30 32 H 1.623189 1.342950 -2.090056 0
M  V30 33 H 2.007964 3.306906 -3.598593 0
M  V30 34 H 3.852291 4.866989 -3.107468 0
M  V30 35 H 5.280908 4.494236 -1.172243 0
M  V30 36 H 4.912391 2.577726 0.307494 0
M  V30 37 H -0.527280 -0.688918 5.118614 0
M  V30 38 H -1.015222 0.799781 3.205556 0
M  V30 39 H -2.450231 0.134321 4.059845 0
M  V30 40 H -2.923885 0.022758 1.746089 0
M  V30 41 H -1.321409 -0.555507 1.308500 0
M  V30 42 H -3.050531 -4.036611 -1.658130 0
M  V30 43 H -2.091090 -2.882653 -3.740811 0
M  V30 44 H -1.695345 -0.344586 -3.545702 0
M  V30 45 H -2.902212 -3.630784 3.311355 0
M  V30 46 H -1.253117 -3.555742 2.696589 0
M  V30 47 H -1.171894 -3.110043 4.994148 0
M  V30 48 H -2.550575 -1.940936 4.888894 0
M  V30 END ATOM
M  V30 BEGIN BOND
M  V30 1 2 1 2
M  V30 2 1 2 3
M  V30 3 1 3 4
M  V30 4 1 4 5
M  V30 5 2 5 6
M  V30 6 1 6 7
M  V30 7 2 7 8
M  V30 8 1 8 9
M  V30 9 2 9 10
M  V30 10 1 10 11
M  V30 11 2 11 12
M  V30 12 1 12 13
M  V30 13 2 13 14
M  V30 14 1 8 15
M  V30 15 1 2 16
M  V30 16 1 16 17
M  V30 17 1 17 18
M  V30 18 1 18 19
M  V30 19 1 19 20
M  V30 20 2 20 21
M  V30 21 2 20 22
M  V30 22 1 20 23
M  V30 23 2 23 24
M  V30 24 1 24 25
M  V30 25 2 25 26
M  V30 26 1 26 27
M  V30 27 1 19 28
M  V30 28 1 28 29
M  V30 29 1 15 5
M  V30 30 1 29 16
M  V30 31 1 14 9
M  V30 32 1 27 23
M  V30 33 1 4 30
M  V30 34 1 4 31
M  V30 35 1 10 32
M  V30 36 1 11 33
M  V30 37 1 12 34
M  V30 38 1 13 35
M  V30 39 1 14 36
M  V30 40 1 16 37
M  V30 41 1 17 38
M  V30 42 1 17 39
M  V30 43 1 18 40
M  V30 44 1 18 41
M  V30 45 1 24 42
M  V30 46 1 25 43
M  V30 47 1 26 44
M  V30 48 1 28 45
M  V30 49 1 28 46
M  V30 50 1 29 47
M  V30 51 1 29 48
M  V30 END BOND
M  V30 END CTAB
M  END
>  <Dataset>  (796) 
ChEMBL_Kinases

>  <Ligand_Instance>  (796) 
nan

>  <PDB_ID>  (796) 
nan

>  <Standardized_SMILES>  (796) 
O=C(OCc1nnc(-c2ccccc2)o1)C1CCN(S(=O)(=O)c2cccs2)CC1

>  <Name>  (796) 
nan

>  <Pocket>  (796) 
nan

>  <ATP_Site>  (796) 
nan

>  <Peripheral>  (796) 
nan

>  <Num_H_Atoms_ProtBoundConf>  (796) 
nan

>  <Num_Resolved_Atoms>  (796) 
nan

>  <Num_Not_Resolved_Atoms>  (796) 
nan

$$$$
CHEMBL1415791
     RDKit          3D

  0  0  0  0  0  0  0  0  0  0999 V3000
M  V30 BEGIN CTAB
M  V30 COUNTS 52 55 0 0 0
M  V30 BEGIN ATOM
M  V30 1 C 1.429331 -2.982898 2.464602 0
M  V30 2 C 2.723242 -3.270988 3.148649 0
M  V30 3 C 2.698035 -2.780697 4.578857 0
M  V30 4 C 2.551510 -1.283410 4.589221 0
M  V30 5 C 3.226003 -0.572882 3.488313 0
M  V30 6 N 4.085943 -1.312972 2.644346 0
M  V30 7 S 4.478664 -0.477620 1.208263 0
M  V30 8 O 5.418272 -1.273121 0.347398 0
M  V30 9 O 5.137316 0.832974 1.606970 0
M  V30 10 C 3.081431 -0.121341 0.211881 0
M  V30 11 C 2.388819 1.062396 0.386881 0
M  V30 12 C 1.275354 1.400490 -0.371415 0
M  V30 13 C 0.860508 0.486206 -1.344989 0
M  V30 14 N -0.292837 0.878865 -2.102232 0
M  V30 15 C -1.470954 0.408362 -1.448321 0
M  V30 16 O -1.198918 -0.230976 -0.374387 0
M  V30 17 C -2.821651 0.640309 -1.961863 0
M  V30 18 C -3.137787 1.325281 -3.115818 0
M  V30 19 C -4.447114 1.480540 -3.499576 0
M  V30 20 C -5.454988 0.938896 -2.711266 0
M  V30 21 C -5.171768 0.242826 -1.542367 0
M  V30 22 N -6.173826 -0.328369 -0.705115 0
M  V30 23 C -6.902578 -0.026140 0.398476 0
M  V30 24 N -7.694744 -1.064874 0.655662 0
M  V30 25 N -7.478089 -2.007056 -0.259936 0
M  V30 26 N -6.548128 -1.545146 -1.084007 0
M  V30 27 C -3.839827 0.098727 -1.174673 0
M  V30 28 C 1.528199 -0.707803 -1.548793 0
M  V30 29 C 2.637804 -1.001255 -0.764259 0
M  V30 30 C 3.938576 -2.697390 2.514956 0
M  V30 31 H 1.582337 -2.478747 1.496498 0
M  V30 32 H 0.814458 -3.912529 2.302945 0
M  V30 33 H 0.804740 -2.351348 3.134617 0
M  V30 34 H 2.821326 -4.389645 3.215282 0
M  V30 35 H 3.673294 -3.032404 5.019859 0
M  V30 36 H 1.832691 -3.273078 5.075563 0
M  V30 37 H 2.943772 -0.958656 5.593214 0
M  V30 38 H 1.460629 -1.071856 4.634681 0
M  V30 39 H 3.786286 0.301161 3.884251 0
M  V30 40 H 2.436152 -0.137937 2.825688 0
M  V30 41 H 2.736177 1.764397 1.159880 0
M  V30 42 H 0.744375 2.349167 -0.209930 0
M  V30 43 H -0.397488 1.419857 -2.998576 0
M  V30 44 H -2.298234 1.719017 -3.678292 0
M  V30 45 H -4.680901 2.011584 -4.393121 0
M  V30 46 H -6.501548 1.031667 -2.966663 0
M  V30 47 H -6.676709 0.964682 0.803957 0
M  V30 48 H -3.629240 -0.452362 -0.250574 0
M  V30 49 H 1.171406 -1.388580 -2.315931 0
M  V30 50 H 3.169049 -1.938709 -0.918025 0
M  V30 51 H 4.816457 -3.231645 2.918186 0
M  V30 52 H 3.929515 -2.951517 1.414723 0
M  V30 END ATOM
M  V30 BEGIN BOND
M  V30 1 1 1 2
M  V30 2 1 2 3
M  V30 3 1 3 4
M  V30 4 1 4 5
M  V30 5 1 5 6
M  V30 6 1 6 7
M  V30 7 2 7 8
M  V30 8 2 7 9
M  V30 9 1 7 10
M  V30 10 2 10 11
M  V30 11 1 11 12
M  V30 12 2 12 13
M  V30 13 1 13 14
M  V30 14 1 14 15
M  V30 15 2 15 16
M  V30 16 1 15 17
M  V30 17 2 17 18
M  V30 18 1 18 19
M  V30 19 2 19 20
M  V30 20 1 20 21
M  V30 21 1 21 22
M  V30 22 1 22 23
M  V30 23 2 23 24
M  V30 24 1 24 25
M  V30 25 2 25 26
M  V30 26 2 21 27
M  V30 27 1 13 28
M  V30 28 2 28 29
M  V30 29 1 6 30
M  V30 30 1 30 2
M  V30 31 1 29 10
M  V30 32 1 27 17
M  V30 33 1 26 22
M  V30 34 1 1 31
M  V30 35 1 1 32
M  V30 36 1 1 33
M  V30 37 1 2 34
M  V30 38 1 3 35
M  V30 39 1 3 36
M  V30 40 1 4 37
M  V30 41 1 4 38
M  V30 42 1 5 39
M  V30 43 1 5 40
M  V30 44 1 11 41
M  V30 45 1 12 42
M  V30 46 1 14 43
M  V30 47 1 18 44
M  V30 48 1 19 45
M  V30 49 1 20 46
M  V30 50 1 23 47
M  V30 51 1 27 48
M  V30 52 1 28 49
M  V30 53 1 29 50
M  V30 54 1 30 51
M  V30 55 1 30 52
M  V30 END BOND
M  V30 END CTAB
M  END
>  <Dataset>  (797) 
ChEMBL_Kinases

>  <Ligand_Instance>  (797) 
nan

>  <PDB_ID>  (797) 
nan

>  <Standardized_SMILES>  (797) 
CC1CCCN(S(=O)(=O)c2ccc(NC(=O)c3cccc(-n4cnnn4)c3)cc2)C1

>  <Name>  (797) 
nan

>  <Pocket>  (797) 
nan

>  <ATP_Site>  (797) 
nan

>  <Peripheral>  (797) 
nan

>  <Num_H_Atoms_ProtBoundConf>  (797) 
nan

>  <Num_Resolved_Atoms>  (797) 
nan

>  <Num_Not_Resolved_Atoms>  (797) 
nan

$$$$
CHEMBL1415672
     RDKit          3D

  0  0  0  0  0  0  0  0  0  0999 V3000
M  V30 BEGIN CTAB
M  V30 COUNTS 57 59 0 0 0
M  V30 BEGIN ATOM
M  V30 1 C 1.645731 -0.630486 5.153654 0
M  V30 2 C 2.235895 -0.981714 3.808285 0
M  V30 3 N 2.858778 0.077364 3.140168 0
M  V30 4 C 4.057120 0.631843 3.607621 0
M  V30 5 C 3.923683 1.395342 4.906984 0
M  V30 6 C 2.485447 0.331563 1.777403 0
M  V30 7 C 1.086312 0.829601 1.780505 0
M  V30 8 C 0.462742 1.158860 0.483844 0
M  V30 9 N 0.349126 0.117757 -0.481990 0
M  V30 10 C 1.257222 -0.177876 -1.426454 0
M  V30 11 C 2.517704 0.587913 -1.568744 0
M  V30 12 C 1.070934 -1.207680 -2.324304 0
M  V30 13 C -0.070285 -1.992230 -2.295303 0
M  V30 14 C -1.040983 -1.716671 -1.325197 0
M  V30 15 C -0.741231 -0.675231 -0.496469 0
M  V30 16 O -1.618333 -0.425055 0.381469 0
M  V30 17 C -2.285130 -2.514412 -1.231612 0
M  V30 18 C -3.478412 -1.631875 -1.301894 0
M  V30 19 C -4.243953 -1.300641 -0.185939 0
M  V30 20 C -5.343958 -0.491172 -0.178462 0
M  V30 21 C -5.738839 0.051780 -1.386230 0
M  V30 22 C -5.026910 -0.233724 -2.537385 0
M  V30 23 C -3.937728 -1.050570 -2.468335 0
M  V30 24 C -2.285603 -3.562670 -2.284692 0
M  V30 25 C -3.474240 -4.401961 -2.276142 0
M  V30 26 N -4.437479 -5.067194 -2.284890 0
M  V30 27 C -1.370831 -3.809566 -3.187184 0
M  V30 28 N -1.582570 -4.889624 -4.120765 0
M  V30 29 O -0.235323 -3.020453 -3.208258 0
M  V30 30 H 2.245329 -1.040929 6.012768 0
M  V30 31 H 0.635778 -1.097495 5.285764 0
M  V30 32 H 1.476965 0.444670 5.289125 0
M  V30 33 H 1.486773 -1.526464 3.183388 0
M  V30 34 H 3.018846 -1.765379 4.029014 0
M  V30 35 H 4.483299 1.323083 2.835382 0
M  V30 36 H 4.811177 -0.176209 3.786089 0
M  V30 37 H 3.790497 0.746098 5.786979 0
M  V30 38 H 3.091196 2.124766 4.827983 0
M  V30 39 H 4.857886 1.993151 5.068066 0
M  V30 40 H 3.188395 1.135833 1.417680 0
M  V30 41 H 2.670082 -0.524120 1.103471 0
M  V30 42 H 0.434097 0.186473 2.433133 0
M  V30 43 H 1.117313 1.799882 2.363074 0
M  V30 44 H 0.949957 2.062820 0.063768 0
M  V30 45 H -0.581904 1.500649 0.706472 0
M  V30 46 H 2.456088 1.049399 -2.599428 0
M  V30 47 H 2.599582 1.440608 -0.886112 0
M  V30 48 H 3.412346 -0.068986 -1.551921 0
M  V30 49 H 1.806909 -1.443352 -3.085868 0
M  V30 50 H -2.343009 -2.995260 -0.207731 0
M  V30 51 H -3.970711 -1.713176 0.794004 0
M  V30 52 H -5.890072 -0.274811 0.715348 0
M  V30 53 H -6.607965 0.696657 -1.398322 0
M  V30 54 H -5.365707 0.209006 -3.466913 0
M  V30 55 H -3.398793 -1.256648 -3.388159 0
M  V30 56 H -1.743052 -5.837774 -3.725606 0
M  V30 57 H -1.608180 -4.907460 -5.170040 0
M  V30 END ATOM
M  V30 BEGIN BOND
M  V30 1 1 1 2
M  V30 2 1 2 3
M  V30 3 1 3 4
M  V30 4 1 4 5
M  V30 5 1 3 6
M  V30 6 1 6 7
M  V30 7 1 7 8
M  V30 8 1 8 9
M  V30 9 1 9 10
M  V30 10 1 10 11
M  V30 11 2 10 12
M  V30 12 1 12 13
M  V30 13 2 13 14
M  V30 14 1 14 15
M  V30 15 2 15 16
M  V30 16 1 14 17
M  V30 17 1 17 18
M  V30 18 2 18 19
M  V30 19 1 19 20
M  V30 20 2 20 21
M  V30 21 1 21 22
M  V30 22 2 22 23
M  V30 23 1 17 24
M  V30 24 1 24 25
M  V30 25 3 25 26
M  V30 26 2 24 27
M  V30 27 1 27 28
M  V30 28 1 27 29
M  V30 29 1 15 9
M  V30 30 1 23 18
M  V30 31 1 29 13
M  V30 32 1 1 30
M  V30 33 1 1 31
M  V30 34 1 1 32
M  V30 35 1 2 33
M  V30 36 1 2 34
M  V30 37 1 4 35
M  V30 38 1 4 36
M  V30 39 1 5 37
M  V30 40 1 5 38
M  V30 41 1 5 39
M  V30 42 1 6 40
M  V30 43 1 6 41
M  V30 44 1 7 42
M  V30 45 1 7 43
M  V30 46 1 8 44
M  V30 47 1 8 45
M  V30 48 1 11 46
M  V30 49 1 11 47
M  V30 50 1 11 48
M  V30 51 1 12 49
M  V30 52 1 17 50
M  V30 53 1 19 51
M  V30 54 1 20 52
M  V30 55 1 21 53
M  V30 56 1 22 54
M  V30 57 1 23 55
M  V30 58 1 28 56
M  V30 59 1 28 57
M  V30 END BOND
M  V30 END CTAB
M  END
>  <Dataset>  (798) 
ChEMBL_Kinases

>  <Ligand_Instance>  (798) 
nan

>  <PDB_ID>  (798) 
nan

>  <Standardized_SMILES>  (798) 
CCN(CC)CCCn1c(C)cc2c(c1=O)C(c1ccccc1)C(C#N)=C(N)O2

>  <Name>  (798) 
nan

>  <Pocket>  (798) 
nan

>  <ATP_Site>  (798) 
nan

>  <Peripheral>  (798) 
nan

>  <Num_H_Atoms_ProtBoundConf>  (798) 
nan

>  <Num_Resolved_Atoms>  (798) 
nan

>  <Num_Not_Resolved_Atoms>  (798) 
nan

$$$$
CHEMBL1408765
     RDKit          3D

  0  0  0  0  0  0  0  0  0  0999 V3000
M  V30 BEGIN CTAB
M  V30 COUNTS 39 40 0 0 0
M  V30 BEGIN ATOM
M  V30 1 C 1.297945 -3.618532 2.037569 0
M  V30 2 C 0.962318 -2.404340 1.629440 0
M  V30 3 C 0.273208 -1.872267 0.446536 0
M  V30 4 C 1.081387 -0.920013 -0.359414 0
M  V30 5 C 2.050721 -1.460139 -1.177677 0
M  V30 6 C 2.323709 -2.905098 -1.253675 0
M  V30 7 N 2.734557 -0.558591 -1.904911 0
M  V30 8 C 2.514501 0.766438 -1.859429 0
M  V30 9 S 3.479616 1.894071 -2.868422 0
M  V30 10 C 2.626885 2.084829 -4.456311 0
M  V30 11 N 1.557949 1.225491 -1.042124 0
M  V30 12 C 0.807703 0.422429 -0.265553 0
M  V30 13 N -0.124570 1.065366 0.562595 0
M  V30 14 C -0.993323 0.843898 1.629003 0
M  V30 15 C -0.382449 0.456541 2.809582 0
M  V30 16 C -1.044432 0.172383 3.984354 0
M  V30 17 C -2.418663 0.280849 3.988757 0
M  V30 18 C -3.163903 -0.014174 5.224811 0
M  V30 19 O -4.408668 0.067815 5.291589 0
M  V30 20 O -2.491133 -0.393193 6.353791 0
M  V30 21 C -3.076612 0.663345 2.838746 0
M  V30 22 C -2.362403 0.939244 1.678280 0
M  V30 23 H 0.864218 -4.073073 1.153637 0
M  V30 24 H 1.235977 -4.669373 1.734239 0
M  V30 25 H 1.411055 -2.048644 2.523682 0
M  V30 26 H -0.682207 -1.434601 0.727056 0
M  V30 27 H 0.009362 -2.778902 -0.175502 0
M  V30 28 H 3.020797 -3.094218 -2.102644 0
M  V30 29 H 2.895633 -3.250741 -0.344730 0
M  V30 30 H 1.421351 -3.519947 -1.444139 0
M  V30 31 H 1.542919 2.279530 -4.294999 0
M  V30 32 H 2.665840 1.114549 -5.028187 0
M  V30 33 H 3.090980 2.873753 -5.089833 0
M  V30 34 H -0.334095 2.058037 0.446300 0
M  V30 35 H 0.702665 0.343338 2.903064 0
M  V30 36 H -0.550228 -0.128837 4.896916 0
M  V30 37 H -2.956304 -1.050808 6.998722 0
M  V30 38 H -4.170840 0.757775 2.815207 0
M  V30 39 H -2.824502 1.245006 0.739787 0
M  V30 END ATOM
M  V30 BEGIN BOND
M  V30 1 2 1 2
M  V30 2 1 2 3
M  V30 3 1 3 4
M  V30 4 2 4 5
M  V30 5 1 5 6
M  V30 6 1 5 7
M  V30 7 2 7 8
M  V30 8 1 8 9
M  V30 9 1 9 10
M  V30 10 1 8 11
M  V30 11 2 11 12
M  V30 12 1 12 13
M  V30 13 1 13 14
M  V30 14 2 14 15
M  V30 15 1 15 16
M  V30 16 2 16 17
M  V30 17 1 17 18
M  V30 18 2 18 19
M  V30 19 1 18 20
M  V30 20 1 17 21
M  V30 21 2 21 22
M  V30 22 1 12 4
M  V30 23 1 22 14
M  V30 24 1 1 23
M  V30 25 1 1 24
M  V30 26 1 2 25
M  V30 27 1 3 26
M  V30 28 1 3 27
M  V30 29 1 6 28
M  V30 30 1 6 29
M  V30 31 1 6 30
M  V30 32 1 10 31
M  V30 33 1 10 32
M  V30 34 1 10 33
M  V30 35 1 13 34
M  V30 36 1 15 35
M  V30 37 1 16 36
M  V30 38 1 20 37
M  V30 39 1 21 38
M  V30 40 1 22 39
M  V30 END BOND
M  V30 END CTAB
M  END
>  <Dataset>  (799) 
ChEMBL_Kinases

>  <Ligand_Instance>  (799) 
nan

>  <PDB_ID>  (799) 
nan

>  <Standardized_SMILES>  (799) 
C=CCc1c(C)nc(SC)nc1Nc1ccc(C(=O)O)cc1

>  <Name>  (799) 
nan

>  <Pocket>  (799) 
nan

>  <ATP_Site>  (799) 
nan

>  <Peripheral>  (799) 
nan

>  <Num_H_Atoms_ProtBoundConf>  (799) 
nan

>  <Num_Resolved_Atoms>  (799) 
nan

>  <Num_Not_Resolved_Atoms>  (799) 
nan

$$$$
CHEMBL1414038
     RDKit          3D

  0  0  0  0  0  0  0  0  0  0999 V3000
M  V30 BEGIN CTAB
M  V30 COUNTS 42 45 0 0 0
M  V30 BEGIN ATOM
M  V30 1 C 2.968442 -5.607383 1.667294 0
M  V30 2 C 2.080907 -4.428044 1.515518 0
M  V30 3 C 0.884061 -4.419569 2.198396 0
M  V30 4 C 0.005764 -3.365058 2.111353 0
M  V30 5 N -1.213337 -3.124406 2.675465 0
M  V30 6 C -1.623571 -1.920716 2.235410 0
M  V30 7 N -0.715408 -1.384527 1.413286 0
M  V30 8 C -0.783318 -0.155532 0.746757 0
M  V30 9 O 0.255206 0.105475 0.042439 0
M  V30 10 C -1.691400 0.920846 0.619182 0
M  V30 11 C -1.238813 2.173885 0.184923 0
M  V30 12 C 0.022020 2.790917 -0.207181 0
M  V30 13 C 0.558336 2.845319 -1.480171 0
M  V30 14 Cl -0.395042 2.085865 -2.741322 0
M  V30 15 C 1.770897 3.467784 -1.702634 0
M  V30 16 C 2.492382 4.055504 -0.679383 0
M  V30 17 C 1.951779 4.001045 0.605768 0
M  V30 18 C 0.737630 3.377038 0.824675 0
M  V30 19 Cl 0.157227 3.370483 2.480721 0
M  V30 20 N -2.298541 3.036544 0.123717 0
M  V30 21 O -3.373060 2.401931 0.489191 0
M  V30 22 C -3.035652 1.148510 0.785694 0
M  V30 23 C -4.034388 0.170080 1.230420 0
M  V30 24 C 0.289421 -2.270917 1.334561 0
M  V30 25 C 1.493519 -2.327843 0.674581 0
M  V30 26 C 2.404907 -3.360761 0.730499 0
M  V30 27 C 3.682302 -3.355551 -0.006392 0
M  V30 28 H 4.015708 -5.349026 1.479859 0
M  V30 29 H 2.928051 -5.958143 2.740148 0
M  V30 30 H 2.600267 -6.486823 1.093302 0
M  V30 31 H 0.549129 -5.240991 2.851702 0
M  V30 32 H -2.566080 -1.646628 2.634129 0
M  V30 33 H 2.151327 3.483070 -2.729500 0
M  V30 34 H 3.445680 4.542120 -0.868864 0
M  V30 35 H 2.515535 4.464673 1.428531 0
M  V30 36 H -4.144598 0.129066 2.336062 0
M  V30 37 H -5.049268 0.453332 0.857322 0
M  V30 38 H -3.859343 -0.848587 0.777555 0
M  V30 39 H 1.809913 -1.512051 0.032780 0
M  V30 40 H 4.456611 -3.016910 0.736502 0
M  V30 41 H 3.659287 -2.675137 -0.888292 0
M  V30 42 H 4.000406 -4.361430 -0.322289 0
M  V30 END ATOM
M  V30 BEGIN BOND
M  V30 1 1 1 2
M  V30 2 2 2 3
M  V30 3 1 3 4
M  V30 4 1 4 5
M  V30 5 2 5 6
M  V30 6 1 6 7
M  V30 7 1 7 8
M  V30 8 2 8 9
M  V30 9 1 8 10
M  V30 10 1 10 11
M  V30 11 1 11 12
M  V30 12 2 12 13
M  V30 13 1 13 14
M  V30 14 1 13 15
M  V30 15 2 15 16
M  V30 16 1 16 17
M  V30 17 2 17 18
M  V30 18 1 18 19
M  V30 19 2 11 20
M  V30 20 1 20 21
M  V30 21 1 21 22
M  V30 22 1 22 23
M  V30 23 1 7 24
M  V30 24 1 24 25
M  V30 25 2 25 26
M  V30 26 1 26 27
M  V30 27 1 26 2
M  V30 28 2 24 4
M  V30 29 2 22 10
M  V30 30 1 18 12
M  V30 31 1 1 28
M  V30 32 1 1 29
M  V30 33 1 1 30
M  V30 34 1 3 31
M  V30 35 1 6 32
M  V30 36 1 15 33
M  V30 37 1 16 34
M  V30 38 1 17 35
M  V30 39 1 23 36
M  V30 40 1 23 37
M  V30 41 1 23 38
M  V30 42 1 25 39
M  V30 43 1 27 40
M  V30 44 1 27 41
M  V30 45 1 27 42
M  V30 END BOND
M  V30 END CTAB
M  END
>  <Dataset>  (800) 
ChEMBL_Kinases

>  <Ligand_Instance>  (800) 
nan

>  <PDB_ID>  (800) 
nan

>  <Standardized_SMILES>  (800) 
Cc1cc2ncn(C(=O)c3c(-c4c(Cl)cccc4Cl)noc3C)c2cc1C

>  <Name>  (800) 
nan

>  <Pocket>  (800) 
nan

>  <ATP_Site>  (800) 
nan

>  <Peripheral>  (800) 
nan

>  <Num_H_Atoms_ProtBoundConf>  (800) 
nan

>  <Num_Resolved_Atoms>  (800) 
nan

>  <Num_Not_Resolved_Atoms>  (800) 
nan

$$$$
CHEMBL1414101
     RDKit          3D

  0  0  0  0  0  0  0  0  0  0999 V3000
M  V30 BEGIN CTAB
M  V30 COUNTS 58 60 0 0 0
M  V30 BEGIN ATOM
M  V30 1 C 0.865993 -1.517347 -2.507217 0
M  V30 2 C 1.772443 -1.789449 -1.347331 0
M  V30 3 C 2.809231 -0.664790 -1.270063 0
M  V30 4 O 3.625166 -0.981876 -0.163696 0
M  V30 5 C 3.615137 -0.349293 1.054886 0
M  V30 6 C 4.382964 -0.806176 2.104973 0
M  V30 7 C 4.374240 -0.167192 3.339599 0
M  V30 8 C 3.581185 0.965347 3.554539 0
M  V30 9 C 3.557655 1.655368 4.852724 0
M  V30 10 C 2.807894 1.428367 2.502712 0
M  V30 11 C 2.843090 0.768860 1.294745 0
M  V30 12 N 2.026157 1.294500 0.255731 0
M  V30 13 C 1.173717 2.432682 0.330072 0
M  V30 14 C -0.214139 2.148682 0.763361 0
M  V30 15 O -0.900688 3.215319 0.799614 0
M  V30 16 N -0.838460 0.922271 1.120555 0
M  V30 17 C -2.212034 1.228704 1.462725 0
M  V30 18 C -2.995462 0.028108 1.862552 0
M  V30 19 C -3.106632 -1.027728 0.852717 0
M  V30 20 C -4.192719 -0.907792 -0.007585 0
M  V30 21 C -4.435765 -1.831028 -1.014184 0
M  V30 22 C -3.569528 -2.913736 -1.173703 0
M  V30 23 O -3.776269 -3.843231 -2.153442 0
M  V30 24 C -4.829615 -3.833462 -3.079488 0
M  V30 25 C -2.487863 -3.049042 -0.330400 0
M  V30 26 O -1.654554 -4.117079 -0.505706 0
M  V30 27 C -0.515829 -4.451627 0.220641 0
M  V30 28 C -2.277764 -2.109631 0.660658 0
M  V30 29 C 2.074708 0.599358 -0.987540 0
M  V30 30 O 1.492745 0.973611 -2.019535 0
M  V30 31 H 1.303931 -0.953877 -3.330076 0
M  V30 32 H 0.530786 -2.506339 -2.902289 0
M  V30 33 H -0.018340 -0.936581 -2.151380 0
M  V30 34 H 2.264734 -2.779703 -1.419897 0
M  V30 35 H 1.165606 -1.815091 -0.402101 0
M  V30 36 H 3.364615 -0.669636 -2.206622 0
M  V30 37 H 5.015629 -1.680014 1.991982 0
M  V30 38 H 4.968948 -0.507027 4.180229 0
M  V30 39 H 2.825237 1.151009 5.499329 0
M  V30 40 H 3.235090 2.709289 4.727305 0
M  V30 41 H 4.559899 1.670383 5.330963 0
M  V30 42 H 2.193919 2.295643 2.650744 0
M  V30 43 H 1.583584 3.266838 0.965979 0
M  V30 44 H 1.072089 2.908710 -0.680704 0
M  V30 45 H -0.167699 0.116120 1.050491 0
M  V30 46 H -2.709936 1.729941 0.600087 0
M  V30 47 H -2.196178 1.928600 2.321956 0
M  V30 48 H -4.004568 0.382096 2.183287 0
M  V30 49 H -2.536971 -0.391493 2.783644 0
M  V30 50 H -4.905387 -0.082468 0.067753 0
M  V30 51 H -5.282099 -1.705354 -1.656506 0
M  V30 52 H -5.687296 -4.381613 -2.612101 0
M  V30 53 H -4.588823 -4.419079 -3.999708 0
M  V30 54 H -5.191322 -2.829175 -3.352898 0
M  V30 55 H -0.613442 -4.028335 1.246061 0
M  V30 56 H 0.435243 -4.088020 -0.194431 0
M  V30 57 H -0.419131 -5.550958 0.381435 0
M  V30 58 H -1.448518 -2.172419 1.341820 0
M  V30 END ATOM
M  V30 BEGIN BOND
M  V30 1 1 1 2
M  V30 2 1 2 3
M  V30 3 1 3 4
M  V30 4 1 4 5
M  V30 5 2 5 6
M  V30 6 1 6 7
M  V30 7 2 7 8
M  V30 8 1 8 9
M  V30 9 1 8 10
M  V30 10 2 10 11
M  V30 11 1 11 12
M  V30 12 1 12 13
M  V30 13 1 13 14
M  V30 14 2 14 15
M  V30 15 1 14 16
M  V30 16 1 16 17
M  V30 17 1 17 18
M  V30 18 1 18 19
M  V30 19 2 19 20
M  V30 20 1 20 21
M  V30 21 2 21 22
M  V30 22 1 22 23
M  V30 23 1 23 24
M  V30 24 1 22 25
M  V30 25 1 25 26
M  V30 26 1 26 27
M  V30 27 2 25 28
M  V30 28 1 12 29
M  V30 29 2 29 30
M  V30 30 1 29 3
M  V30 31 1 11 5
M  V30 32 1 28 19
M  V30 33 1 1 31
M  V30 34 1 1 32
M  V30 35 1 1 33
M  V30 36 1 2 34
M  V30 37 1 2 35
M  V30 38 1 3 36
M  V30 39 1 6 37
M  V30 40 1 7 38
M  V30 41 1 9 39
M  V30 42 1 9 40
M  V30 43 1 9 41
M  V30 44 1 10 42
M  V30 45 1 13 43
M  V30 46 1 13 44
M  V30 47 1 16 45
M  V30 48 1 17 46
M  V30 49 1 17 47
M  V30 50 1 18 48
M  V30 51 1 18 49
M  V30 52 1 20 50
M  V30 53 1 21 51
M  V30 54 1 24 52
M  V30 55 1 24 53
M  V30 56 1 24 54
M  V30 57 1 27 55
M  V30 58 1 27 56
M  V30 59 1 27 57
M  V30 60 1 28 58
M  V30 END BOND
M  V30 END CTAB
M  END
>  <Dataset>  (801) 
ChEMBL_Kinases

>  <Ligand_Instance>  (801) 
nan

>  <PDB_ID>  (801) 
nan

>  <Standardized_SMILES>  (801) 
CCC1Oc2ccc(C)cc2N(CC(=O)NCCc2ccc(OC)c(OC)c2)C1=O

>  <Name>  (801) 
nan

>  <Pocket>  (801) 
nan

>  <ATP_Site>  (801) 
nan

>  <Peripheral>  (801) 
nan

>  <Num_H_Atoms_ProtBoundConf>  (801) 
nan

>  <Num_Resolved_Atoms>  (801) 
nan

>  <Num_Not_Resolved_Atoms>  (801) 
nan

$$$$
CHEMBL1414128
     RDKit          3D

  0  0  0  0  0  0  0  0  0  0999 V3000
M  V30 BEGIN CTAB
M  V30 COUNTS 45 47 0 0 0
M  V30 BEGIN ATOM
M  V30 1 C -1.282441 -4.345996 1.986827 0
M  V30 2 N -1.269976 -4.338060 0.543520 0
M  V30 3 C -1.594804 -3.052026 -0.014474 0
M  V30 4 C -0.411955 -2.114035 -0.054024 0
M  V30 5 N 0.718870 -2.702578 -0.676134 0
M  V30 6 S 2.213163 -2.354165 0.039181 0
M  V30 7 O 3.308751 -2.998208 -0.754500 0
M  V30 8 O 2.337426 -2.775406 1.467320 0
M  V30 9 C 2.470898 -0.624139 -0.042331 0
M  V30 10 C 3.100845 0.030941 -1.093161 0
M  V30 11 C 3.265577 1.400274 -1.082353 0
M  V30 12 C 2.813458 2.176052 -0.031134 0
M  V30 13 C 2.178305 1.578387 1.043361 0
M  V30 14 S 1.555253 2.446087 2.444072 0
M  V30 15 O 1.584740 1.475675 3.616825 0
M  V30 16 O 2.456366 3.584713 2.783886 0
M  V30 17 C -0.088657 2.931304 2.199211 0
M  V30 18 C -1.109134 2.078633 2.581075 0
M  V30 19 C -2.449704 2.360357 2.434115 0
M  V30 20 C -2.804977 3.583131 1.863963 0
M  V30 21 Cl -4.510442 3.917003 1.688322 0
M  V30 22 C -1.790459 4.430941 1.484275 0
M  V30 23 Cl -2.303412 5.950549 0.774825 0
M  V30 24 C -0.454887 4.136779 1.636928 0
M  V30 25 C 2.039844 0.203720 0.980939 0
M  V30 26 C 0.542536 -4.062081 -1.091945 0
M  V30 27 C -0.074833 -4.918835 -0.009006 0
M  V30 28 H -0.664606 -5.124795 2.431005 0
M  V30 29 H -1.035030 -3.304957 2.328302 0
M  V30 30 H -2.332345 -4.506508 2.307081 0
M  V30 31 H -2.403931 -2.610854 0.591023 0
M  V30 32 H -1.943227 -3.210648 -1.053462 0
M  V30 33 H -0.699314 -1.238396 -0.683843 0
M  V30 34 H -0.186449 -1.697105 0.953462 0
M  V30 35 H 3.453458 -0.585317 -1.915702 0
M  V30 36 H 3.758968 1.903281 -1.907814 0
M  V30 37 H 2.919034 3.254664 0.023686 0
M  V30 38 H -0.854929 1.115280 3.029957 0
M  V30 39 H -3.188265 1.627165 2.764198 0
M  V30 40 H 0.318555 4.813686 1.333306 0
M  V30 41 H 1.546096 -0.275367 1.812756 0
M  V30 42 H -0.181705 -4.061554 -1.939266 0
M  V30 43 H 1.512239 -4.464977 -1.374972 0
M  V30 44 H 0.723738 -5.104963 0.743248 0
M  V30 45 H -0.353806 -5.900653 -0.442399 0
M  V30 END ATOM
M  V30 BEGIN BOND
M  V30 1 1 1 2
M  V30 2 1 2 3
M  V30 3 1 3 4
M  V30 4 1 4 5
M  V30 5 1 5 6
M  V30 6 2 6 7
M  V30 7 2 6 8
M  V30 8 1 6 9
M  V30 9 2 9 10
M  V30 10 1 10 11
M  V30 11 2 11 12
M  V30 12 1 12 13
M  V30 13 1 13 14
M  V30 14 2 14 15
M  V30 15 2 14 16
M  V30 16 1 14 17
M  V30 17 2 17 18
M  V30 18 1 18 19
M  V30 19 2 19 20
M  V30 20 1 20 21
M  V30 21 1 20 22
M  V30 22 1 22 23
M  V30 23 2 22 24
M  V30 24 2 13 25
M  V30 25 1 5 26
M  V30 26 1 26 27
M  V30 27 1 27 2
M  V30 28 1 25 9
M  V30 29 1 24 17
M  V30 30 1 1 28
M  V30 31 1 1 29
M  V30 32 1 1 30
M  V30 33 1 3 31
M  V30 34 1 3 32
M  V30 35 1 4 33
M  V30 36 1 4 34
M  V30 37 1 10 35
M  V30 38 1 11 36
M  V30 39 1 12 37
M  V30 40 1 18 38
M  V30 41 1 19 39
M  V30 42 1 24 40
M  V30 43 1 25 41
M  V30 44 1 26 42
M  V30 45 1 26 43
M  V30 46 1 27 44
M  V30 47 1 27 45
M  V30 END BOND
M  V30 END CTAB
M  END
>  <Dataset>  (802) 
ChEMBL_Kinases

>  <Ligand_Instance>  (802) 
nan

>  <PDB_ID>  (802) 
nan

>  <Standardized_SMILES>  (802) 
CN1CCN(S(=O)(=O)c2cccc(S(=O)(=O)c3ccc(Cl)c(Cl)c3)c2)CC1

>  <Name>  (802) 
nan

>  <Pocket>  (802) 
nan

>  <ATP_Site>  (802) 
nan

>  <Peripheral>  (802) 
nan

>  <Num_H_Atoms_ProtBoundConf>  (802) 
nan

>  <Num_Resolved_Atoms>  (802) 
nan

>  <Num_Not_Resolved_Atoms>  (802) 
nan

$$$$
CHEMBL1414148
     RDKit          3D

  0  0  0  0  0  0  0  0  0  0999 V3000
M  V30 BEGIN CTAB
M  V30 COUNTS 63 65 0 0 0
M  V30 BEGIN ATOM
M  V30 1 C 1.841387 -3.744350 2.949217 0
M  V30 2 C 1.886703 -2.431703 3.227317 0
M  V30 3 C 1.909365 -1.459767 2.081767 0 CFG=2
M  V30 4 C 3.220124 -1.786087 1.352197 0
M  V30 5 C 1.995883 -0.067837 2.593949 0
M  V30 6 C 0.892218 0.811290 2.205493 0
M  V30 7 O 1.025450 1.981234 2.559727 0
M  V30 8 C -0.321102 0.354551 1.435664 0 CFG=1
M  V30 9 O -1.399575 0.761517 2.225761 0
M  V30 10 C -0.358708 0.877099 0.048404 0 CFG=1
M  V30 11 C -1.518452 1.871543 0.004307 0
M  V30 12 C 0.859202 1.739774 -0.244706 0
M  V30 13 O 0.657631 3.077932 0.141935 0
M  V30 14 C 1.324029 1.634837 -1.654662 0
M  V30 15 C 0.271452 1.450991 -2.693206 0
M  V30 16 C -0.719239 0.339927 -2.369298 0
M  V30 17 C -0.369022 -0.815190 -3.324596 0
M  V30 18 C -2.109627 0.724908 -2.682477 0
M  V30 19 C -0.400378 -0.172701 -1.016829 0
M  V30 20 C -1.178506 -1.411033 -0.728146 0
M  V30 21 O -2.405747 -1.496374 -1.397699 0
M  V30 22 C -1.437556 -1.669880 0.716991 0
M  V30 23 O -1.755729 -3.015882 0.962734 0
M  V30 24 C -2.964854 -3.457146 1.468575 0
M  V30 25 C -3.078536 -4.922035 1.646462 0
M  V30 26 O -3.829829 -2.606075 1.723613 0
M  V30 27 C -0.314196 -1.150572 1.550173 0 CFG=2
M  V30 28 C -0.704933 -1.506462 2.973481 0
M  V30 29 O 0.914919 -1.643326 1.169451 0
M  V30 30 H 1.824179 -4.010685 1.897797 0
M  V30 31 H 1.824928 -4.448502 3.775466 0
M  V30 32 H 1.906387 -2.088995 4.275372 0
M  V30 33 H 3.101872 -2.763515 0.806433 0
M  V30 34 H 4.026262 -1.924201 2.089104 0
M  V30 35 H 3.402860 -1.025586 0.587270 0
M  V30 36 H 2.938209 0.446137 2.243397 0
M  V30 37 H 2.069191 -0.058122 3.716349 0
M  V30 38 H -1.179632 0.853886 3.170385 0
M  V30 39 H -2.465204 1.453000 0.365196 0
M  V30 40 H -1.548712 2.490191 -0.883978 0
M  V30 41 H -1.236861 2.598799 0.827159 0
M  V30 42 H 1.735766 1.409592 0.377149 0
M  V30 43 H 1.543434 3.496773 0.291507 0
M  V30 44 H 2.143307 0.877891 -1.795523 0
M  V30 45 H 1.826241 2.605252 -1.895780 0
M  V30 46 H -0.265059 2.421259 -2.910475 0
M  V30 47 H 0.817970 1.267731 -3.649135 0
M  V30 48 H -1.295811 -1.384492 -3.576119 0
M  V30 49 H 0.334666 -1.530748 -2.879969 0
M  V30 50 H 0.014240 -0.432450 -4.277835 0
M  V30 51 H -2.847266 0.743892 -1.895156 0
M  V30 52 H -2.584528 0.137552 -3.514883 0
M  V30 53 H -2.090868 1.771450 -3.108712 0
M  V30 54 H 0.665467 -0.510592 -1.106780 0
M  V30 55 H -0.648704 -2.340731 -1.096244 0
M  V30 56 H -3.170914 -1.681457 -0.797221 0
M  V30 57 H -2.339414 -1.078371 1.009941 0
M  V30 58 H -2.385762 -5.222836 2.464701 0
M  V30 59 H -2.837119 -5.472930 0.696824 0
M  V30 60 H -4.136113 -5.109617 1.946580 0
M  V30 61 H -0.150048 -0.971320 3.743763 0
M  V30 62 H -0.816392 -2.597290 3.129694 0
M  V30 63 H -1.764412 -1.122714 3.068417 0
M  V30 END ATOM
M  V30 BEGIN BOND
M  V30 1 2 1 2
M  V30 2 1 2 3
M  V30 3 1 3 4 CFG=3
M  V30 4 1 3 5
M  V30 5 1 5 6
M  V30 6 2 6 7
M  V30 7 1 6 8
M  V30 8 1 8 9 CFG=1
M  V30 9 1 8 10
M  V30 10 1 10 11 CFG=1
M  V30 11 1 10 12
M  V30 12 1 12 13
M  V30 13 1 12 14
M  V30 14 1 14 15
M  V30 15 1 15 16
M  V30 16 1 16 17
M  V30 17 1 16 18
M  V30 18 1 16 19
M  V30 19 1 19 20
M  V30 20 1 20 21
M  V30 21 1 20 22
M  V30 22 1 22 23
M  V30 23 1 23 24
M  V30 24 1 24 25
M  V30 25 2 24 26
M  V30 26 1 22 27
M  V30 27 1 27 28 CFG=1
M  V30 28 1 27 29
M  V30 29 1 29 3
M  V30 30 1 27 8
M  V30 31 1 19 10
M  V30 32 1 1 30
M  V30 33 1 1 31
M  V30 34 1 2 32
M  V30 35 1 4 33
M  V30 36 1 4 34
M  V30 37 1 4 35
M  V30 38 1 5 36
M  V30 39 1 5 37
M  V30 40 1 9 38
M  V30 41 1 11 39
M  V30 42 1 11 40
M  V30 43 1 11 41
M  V30 44 1 12 42
M  V30 45 1 13 43
M  V30 46 1 14 44
M  V30 47 1 14 45
M  V30 48 1 15 46
M  V30 49 1 15 47
M  V30 50 1 17 48
M  V30 51 1 17 49
M  V30 52 1 17 50
M  V30 53 1 18 51
M  V30 54 1 18 52
M  V30 55 1 18 53
M  V30 56 1 19 54
M  V30 57 1 20 55
M  V30 58 1 21 56
M  V30 59 1 22 57
M  V30 60 1 25 58
M  V30 61 1 25 59
M  V30 62 1 25 60
M  V30 63 1 28 61
M  V30 64 1 28 62
M  V30 65 1 28 63
M  V30 END BOND
M  V30 END CTAB
M  END
>  <Dataset>  (803) 
ChEMBL_Kinases

>  <Ligand_Instance>  (803) 
nan

>  <PDB_ID>  (803) 
nan

>  <Standardized_SMILES>  (803) 
C=C[C@]1(C)CC(=O)[C@@]2(O)[C@@]3(C)C(O)CCC(C)(C)C3C(O)C(OC(C)=O)[C@@]2(C)O1

>  <Name>  (803) 
nan

>  <Pocket>  (803) 
nan

>  <ATP_Site>  (803) 
nan

>  <Peripheral>  (803) 
nan

>  <Num_H_Atoms_ProtBoundConf>  (803) 
nan

>  <Num_Resolved_Atoms>  (803) 
nan

>  <Num_Not_Resolved_Atoms>  (803) 
nan

$$$$
CHEMBL1414184
     RDKit          3D

  0  0  0  0  0  0  0  0  0  0999 V3000
M  V30 BEGIN CTAB
M  V30 COUNTS 29 30 0 0 0
M  V30 BEGIN ATOM
M  V30 1 C 0.396222 -4.080600 4.247760 0
M  V30 2 O 0.809118 -2.727465 4.308373 0
M  V30 3 C 0.689438 -1.902145 3.200393 0
M  V30 4 O 0.193278 -2.669270 2.358333 0
M  V30 5 C 1.134113 -0.546208 3.356449 0
M  V30 6 S 1.814518 0.203899 4.781518 0
M  V30 7 C 2.023010 1.880143 3.922949 0
M  V30 8 C 1.524473 1.672609 2.572456 0
M  V30 9 C 1.091027 0.421559 2.357028 0
M  V30 10 N 0.602219 0.201062 1.048072 0
M  V30 11 C 0.522006 1.108988 -0.012044 0
M  V30 12 O 0.913835 2.287028 0.140757 0
M  V30 13 C -0.010984 0.719798 -1.306185 0
M  V30 14 C -0.051665 1.703712 -2.311800 0
M  V30 15 S -0.792229 0.830022 -3.812217 0
M  V30 16 C -0.951476 -0.754959 -2.884943 0
M  V30 17 C -1.506199 -1.934651 -3.538932 0
M  V30 18 C -0.482543 -0.509137 -1.659838 0
M  V30 19 H 0.687803 -4.619087 5.155249 0
M  V30 20 H 0.764790 -4.588825 3.341970 0
M  V30 21 H -0.717666 -4.059380 4.227112 0
M  V30 22 H 2.484526 2.651974 4.654008 0
M  V30 23 H 1.703135 2.665849 2.233602 0
M  V30 24 H 0.250633 -0.750881 0.816914 0
M  V30 25 H 0.234093 2.775298 -2.389923 0
M  V30 26 H -2.111563 -2.506395 -2.794490 0
M  V30 27 H -0.765422 -2.578991 -4.063360 0
M  V30 28 H -2.229442 -1.613886 -4.335259 0
M  V30 29 H -0.496152 -1.332459 -0.965260 0
M  V30 END ATOM
M  V30 BEGIN BOND
M  V30 1 1 1 2
M  V30 2 1 2 3
M  V30 3 2 3 4
M  V30 4 1 3 5
M  V30 5 1 5 6
M  V30 6 1 6 7
M  V30 7 2 7 8
M  V30 8 1 8 9
M  V30 9 1 9 10
M  V30 10 1 10 11
M  V30 11 2 11 12
M  V30 12 1 11 13
M  V30 13 2 13 14
M  V30 14 1 14 15
M  V30 15 1 15 16
M  V30 16 1 16 17
M  V30 17 2 16 18
M  V30 18 2 9 5
M  V30 19 1 18 13
M  V30 20 1 1 19
M  V30 21 1 1 20
M  V30 22 1 1 21
M  V30 23 1 7 22
M  V30 24 1 8 23
M  V30 25 1 10 24
M  V30 26 1 14 25
M  V30 27 1 17 26
M  V30 28 1 17 27
M  V30 29 1 17 28
M  V30 30 1 18 29
M  V30 END BOND
M  V30 END CTAB
M  END
>  <Dataset>  (804) 
ChEMBL_Kinases

>  <Ligand_Instance>  (804) 
nan

>  <PDB_ID>  (804) 
nan

>  <Standardized_SMILES>  (804) 
COC(=O)c1sccc1NC(=O)c1csc(C)c1

>  <Name>  (804) 
nan

>  <Pocket>  (804) 
nan

>  <ATP_Site>  (804) 
nan

>  <Peripheral>  (804) 
nan

>  <Num_H_Atoms_ProtBoundConf>  (804) 
nan

>  <Num_Resolved_Atoms>  (804) 
nan

>  <Num_Not_Resolved_Atoms>  (804) 
nan

$$$$
CHEMBL1414221
     RDKit          3D

  0  0  0  0  0  0  0  0  0  0999 V3000
M  V30 BEGIN CTAB
M  V30 COUNTS 32 33 0 0 0
M  V30 BEGIN ATOM
M  V30 1 C 0.881457 -5.066585 3.230847 0
M  V30 2 O 2.184284 -4.659867 3.259992 0
M  V30 3 C 2.685437 -4.193974 2.052315 0
M  V30 4 C 1.886813 -3.007944 1.651465 0
M  V30 5 O 0.900908 -2.336338 2.114254 0
M  V30 6 N 2.306087 -2.437189 0.419905 0
M  V30 7 C 1.554822 -1.257791 -0.034108 0
M  V30 8 N 0.641666 -0.593029 0.343027 0
M  V30 9 C 0.180755 0.455930 -0.328704 0
M  V30 10 C -0.962570 1.202195 0.248341 0
M  V30 11 C -2.022442 1.576723 -0.556631 0
M  V30 12 C -3.130737 2.270355 -0.125076 0
M  V30 13 C -3.181386 2.617319 1.223969 0
M  V30 14 C -2.142750 2.260355 2.055268 0
M  V30 15 C -1.051606 1.564906 1.577439 0
M  V30 16 C 0.778961 0.798348 -1.515749 0
M  V30 17 C 0.414144 1.914543 -2.392170 0
M  V30 18 S 2.039025 -0.481913 -1.597566 0
M  V30 19 H 0.596366 -5.416462 4.245187 0
M  V30 20 H 0.130786 -4.353664 2.910356 0
M  V30 21 H 0.828881 -5.979289 2.572928 0
M  V30 22 H 3.745188 -3.917020 2.116349 0
M  V30 23 H 2.575696 -5.032244 1.333667 0
M  V30 24 H 3.098322 -2.818832 -0.142980 0
M  V30 25 H -2.057020 1.344025 -1.614468 0
M  V30 26 H -3.947131 2.554877 -0.761929 0
M  V30 27 H -4.041558 3.166075 1.602886 0
M  V30 28 H -2.174574 2.523861 3.094749 0
M  V30 29 H -0.204398 1.260695 2.200476 0
M  V30 30 H 0.096452 2.724218 -1.728620 0
M  V30 31 H -0.287743 1.692915 -3.195586 0
M  V30 32 H 1.375749 2.280503 -2.852460 0
M  V30 END ATOM
M  V30 BEGIN BOND
M  V30 1 1 1 2
M  V30 2 1 2 3
M  V30 3 1 3 4
M  V30 4 2 4 5
M  V30 5 1 4 6
M  V30 6 1 6 7
M  V30 7 2 7 8
M  V30 8 1 8 9
M  V30 9 1 9 10
M  V30 10 2 10 11
M  V30 11 1 11 12
M  V30 12 2 12 13
M  V30 13 1 13 14
M  V30 14 2 14 15
M  V30 15 2 9 16
M  V30 16 1 16 17
M  V30 17 1 16 18
M  V30 18 1 18 7
M  V30 19 1 15 10
M  V30 20 1 1 19
M  V30 21 1 1 20
M  V30 22 1 1 21
M  V30 23 1 3 22
M  V30 24 1 3 23
M  V30 25 1 6 24
M  V30 26 1 11 25
M  V30 27 1 12 26
M  V30 28 1 13 27
M  V30 29 1 14 28
M  V30 30 1 15 29
M  V30 31 1 17 30
M  V30 32 1 17 31
M  V30 33 1 17 32
M  V30 END BOND
M  V30 END CTAB
M  END
>  <Dataset>  (805) 
ChEMBL_Kinases

>  <Ligand_Instance>  (805) 
nan

>  <PDB_ID>  (805) 
nan

>  <Standardized_SMILES>  (805) 
COCC(=O)Nc1nc(-c2ccccc2)c(C)s1

>  <Name>  (805) 
nan

>  <Pocket>  (805) 
nan

>  <ATP_Site>  (805) 
nan

>  <Peripheral>  (805) 
nan

>  <Num_H_Atoms_ProtBoundConf>  (805) 
nan

>  <Num_Resolved_Atoms>  (805) 
nan

>  <Num_Not_Resolved_Atoms>  (805) 
nan

$$$$
CHEMBL1414251
     RDKit          3D

  0  0  0  0  0  0  0  0  0  0999 V3000
M  V30 BEGIN CTAB
M  V30 COUNTS 37 40 0 0 0
M  V30 BEGIN ATOM
M  V30 1 C 0.702555 -4.420072 3.747870 0
M  V30 2 C 0.678560 -5.512725 2.896270 0
M  V30 3 N 1.240466 -5.445267 1.654032 0
M  V30 4 C 1.836538 -4.298664 1.228681 0
M  V30 5 C 1.866500 -3.203736 2.068382 0
M  V30 6 C 2.516997 -1.889894 1.656017 0
M  V30 7 N 1.625037 -0.998873 1.014106 0
M  V30 8 C 0.747241 -0.100476 0.372531 0
M  V30 9 N 1.008149 1.115515 -0.116974 0
M  V30 10 C 0.183077 1.957822 -0.719650 0
M  V30 11 C 0.647253 3.258696 -1.194842 0
M  V30 12 C -0.085212 4.434003 -1.031993 0
M  V30 13 C 0.708556 5.411788 -1.617885 0
M  V30 14 O 1.823550 4.869105 -2.092436 0
M  V30 15 C 1.822850 3.580276 -1.857710 0
M  V30 16 N -1.058321 1.500946 -0.835390 0
M  V30 17 C -1.487851 0.311642 -0.402306 0
M  V30 18 C -2.821520 0.048947 -0.631059 0
M  V30 19 C -3.293673 -1.171009 -0.194758 0
M  V30 20 C -2.444901 -2.056528 0.434037 0
M  V30 21 C -1.133629 -1.684141 0.606567 0
M  V30 22 C -0.560228 -0.497907 0.212233 0
M  V30 23 C 1.307462 -3.225530 3.341904 0
M  V30 24 H 0.244144 -4.492831 4.746579 0
M  V30 25 H 0.197213 -6.443935 3.235350 0
M  V30 26 H 2.291874 -4.228337 0.235032 0
M  V30 27 H 3.389302 -2.225371 1.016079 0
M  V30 28 H 3.004210 -1.471624 2.593991 0
M  V30 29 H 2.485219 -0.363525 0.944164 0
M  V30 30 H -1.046790 4.504272 -0.550411 0
M  V30 31 H 0.370217 6.441698 -1.631224 0
M  V30 32 H 2.568477 2.827798 -2.104214 0
M  V30 33 H -3.468134 0.746632 -1.120673 0
M  V30 34 H -4.318710 -1.467922 -0.326971 0
M  V30 35 H -2.792156 -3.018022 0.784430 0
M  V30 36 H -0.497836 -2.391926 1.098384 0
M  V30 37 H 1.341163 -2.357250 3.984826 0
M  V30 END ATOM
M  V30 BEGIN BOND
M  V30 1 2 1 2
M  V30 2 1 2 3
M  V30 3 2 3 4
M  V30 4 1 4 5
M  V30 5 1 5 6
M  V30 6 1 6 7
M  V30 7 1 7 8
M  V30 8 2 8 9
M  V30 9 1 9 10
M  V30 10 1 10 11
M  V30 11 1 11 12
M  V30 12 2 12 13
M  V30 13 1 13 14
M  V30 14 1 14 15
M  V30 15 2 10 16
M  V30 16 1 16 17
M  V30 17 2 17 18
M  V30 18 1 18 19
M  V30 19 2 19 20
M  V30 20 1 20 21
M  V30 21 2 21 22
M  V30 22 2 5 23
M  V30 23 1 23 1
M  V30 24 1 22 8
M  V30 25 2 15 11
M  V30 26 1 22 17
M  V30 27 1 1 24
M  V30 28 1 2 25
M  V30 29 1 4 26
M  V30 30 1 6 27
M  V30 31 1 6 28
M  V30 32 1 7 29
M  V30 33 1 12 30
M  V30 34 1 13 31
M  V30 35 1 15 32
M  V30 36 1 18 33
M  V30 37 1 19 34
M  V30 38 1 20 35
M  V30 39 1 21 36
M  V30 40 1 23 37
M  V30 END BOND
M  V30 END CTAB
M  END
>  <Dataset>  (806) 
ChEMBL_Kinases

>  <Ligand_Instance>  (806) 
nan

>  <PDB_ID>  (806) 
nan

>  <Standardized_SMILES>  (806) 
c1cncc(CNc2nc(-c3ccoc3)nc3ccccc23)c1

>  <Name>  (806) 
nan

>  <Pocket>  (806) 
nan

>  <ATP_Site>  (806) 
nan

>  <Peripheral>  (806) 
nan

>  <Num_H_Atoms_ProtBoundConf>  (806) 
nan

>  <Num_Resolved_Atoms>  (806) 
nan

>  <Num_Not_Resolved_Atoms>  (806) 
nan

$$$$
CHEMBL1415608
     RDKit          3D

  0  0  0  0  0  0  0  0  0  0999 V3000
M  V30 BEGIN CTAB
M  V30 COUNTS 46 48 0 0 0
M  V30 BEGIN ATOM
M  V30 1 C -0.944232 -5.699376 4.046210 0
M  V30 2 C -2.357735 -5.168575 4.044794 0
M  V30 3 O -2.467323 -3.832474 4.454178 0
M  V30 4 C -1.816579 -2.845483 3.739266 0
M  V30 5 C -1.017910 -2.872634 2.617602 0
M  V30 6 C -0.491232 -1.704630 2.113090 0
M  V30 7 C -0.734181 -0.478569 2.695543 0
M  V30 8 N -0.165644 0.699844 2.134616 0
M  V30 9 C 1.136925 1.188471 2.549196 0
M  V30 10 C 2.276014 0.644761 1.748976 0
M  V30 11 S -1.020966 1.597090 0.926057 0
M  V30 12 O -1.278885 3.005385 1.384813 0
M  V30 13 O -2.318753 0.955224 0.582968 0
M  V30 14 C -0.032445 1.575547 -0.519025 0
M  V30 15 C 0.928813 2.539199 -0.802790 0
M  V30 16 C 1.685589 2.481751 -1.955740 0
M  V30 17 C 1.513358 1.465805 -2.865380 0
M  V30 18 C 0.561365 0.505680 -2.590916 0
M  V30 19 C -0.179923 0.573405 -1.448521 0
M  V30 20 O 0.581641 -0.357742 -3.603487 0
M  V30 21 C 1.471784 -0.005740 -4.481725 0
M  V30 22 O 1.802987 -0.544803 -5.571674 0
M  V30 23 N 2.069871 1.135441 -4.041391 0
M  V30 24 C 3.130973 1.879043 -4.719288 0
M  V30 25 C -1.531483 -0.429106 3.819478 0
M  V30 26 C -2.065420 -1.605528 4.332588 0
M  V30 27 H -0.622001 -6.106022 3.064954 0
M  V30 28 H -0.829749 -6.490886 4.835000 0
M  V30 29 H -0.244677 -4.889384 4.310462 0
M  V30 30 H -2.769076 -5.208987 3.000270 0
M  V30 31 H -2.981988 -5.831513 4.706082 0
M  V30 32 H -0.898878 -3.879556 2.247116 0
M  V30 33 H 0.121386 -1.830464 1.232074 0
M  V30 34 H 1.228067 0.904463 3.634535 0
M  V30 35 H 1.070317 2.312541 2.512114 0
M  V30 36 H 2.806121 -0.179165 2.266954 0
M  V30 37 H 2.985701 1.487286 1.559168 0
M  V30 38 H 1.911341 0.302945 0.761099 0
M  V30 39 H 1.046650 3.328071 -0.073620 0
M  V30 40 H 2.418404 3.235078 -2.150790 0
M  V30 41 H -0.909689 -0.207506 -1.289272 0
M  V30 42 H 3.623689 1.189432 -5.435268 0
M  V30 43 H 2.654311 2.704943 -5.308082 0
M  V30 44 H 3.904470 2.252357 -4.032713 0
M  V30 45 H -1.688507 0.553055 4.233427 0
M  V30 46 H -2.674203 -1.395140 5.224953 0
M  V30 END ATOM
M  V30 BEGIN BOND
M  V30 1 1 1 2
M  V30 2 1 2 3
M  V30 3 1 3 4
M  V30 4 2 4 5
M  V30 5 1 5 6
M  V30 6 2 6 7
M  V30 7 1 7 8
M  V30 8 1 8 9
M  V30 9 1 9 10
M  V30 10 1 8 11
M  V30 11 2 11 12
M  V30 12 2 11 13
M  V30 13 1 11 14
M  V30 14 2 14 15
M  V30 15 1 15 16
M  V30 16 2 16 17
M  V30 17 1 17 18
M  V30 18 2 18 19
M  V30 19 1 18 20
M  V30 20 1 20 21
M  V30 21 2 21 22
M  V30 22 1 21 23
M  V30 23 1 23 24
M  V30 24 1 7 25
M  V30 25 2 25 26
M  V30 26 1 26 4
M  V30 27 1 19 14
M  V30 28 1 23 17
M  V30 29 1 1 27
M  V30 30 1 1 28
M  V30 31 1 1 29
M  V30 32 1 2 30
M  V30 33 1 2 31
M  V30 34 1 5 32
M  V30 35 1 6 33
M  V30 36 1 9 34
M  V30 37 1 9 35
M  V30 38 1 10 36
M  V30 39 1 10 37
M  V30 40 1 10 38
M  V30 41 1 15 39
M  V30 42 1 16 40
M  V30 43 1 19 41
M  V30 44 1 24 42
M  V30 45 1 24 43
M  V30 46 1 24 44
M  V30 47 1 25 45
M  V30 48 1 26 46
M  V30 END BOND
M  V30 END CTAB
M  END
>  <Dataset>  (807) 
ChEMBL_Kinases

>  <Ligand_Instance>  (807) 
nan

>  <PDB_ID>  (807) 
nan

>  <Standardized_SMILES>  (807) 
CCOc1ccc(N(CC)S(=O)(=O)c2ccc3c(c2)oc(=O)n3C)cc1

>  <Name>  (807) 
nan

>  <Pocket>  (807) 
nan

>  <ATP_Site>  (807) 
nan

>  <Peripheral>  (807) 
nan

>  <Num_H_Atoms_ProtBoundConf>  (807) 
nan

>  <Num_Resolved_Atoms>  (807) 
nan

>  <Num_Not_Resolved_Atoms>  (807) 
nan

$$$$
CHEMBL1414426
     RDKit          3D

  0  0  0  0  0  0  0  0  0  0999 V3000
M  V30 BEGIN CTAB
M  V30 COUNTS 50 52 0 0 0
M  V30 BEGIN ATOM
M  V30 1 C 3.967003 -6.775323 0.049817 0
M  V30 2 O 3.148145 -5.701614 -0.361705 0
M  V30 3 C 3.466799 -4.408912 0.024995 0
M  V30 4 C 4.583840 -4.216688 0.805788 0
M  V30 5 C 4.881426 -2.922666 1.178422 0
M  V30 6 C 4.091334 -1.868152 0.783856 0
M  V30 7 C 2.967017 -2.023175 0.003071 0
M  V30 8 N 2.201548 -0.893597 -0.364893 0
M  V30 9 C 1.037232 -0.779445 -1.137106 0
M  V30 10 O 0.553360 -1.828547 -1.603413 0
M  V30 11 N 0.397200 0.452684 -1.406588 0
M  V30 12 C 0.790900 1.792872 -0.962001 0
M  V30 13 C -0.490901 2.545711 -0.631078 0
M  V30 14 N -1.508843 1.627325 -0.131982 0
M  V30 15 C -1.913590 1.630782 1.213578 0
M  V30 16 C -1.088037 2.291909 2.098382 0
M  V30 17 C -1.347820 2.348306 3.449871 0
M  V30 18 C -2.453132 1.746620 4.013387 0
M  V30 19 C -3.290032 1.081254 3.144748 0
M  V30 20 C -4.513981 0.396549 3.655398 0
M  V30 21 C -3.013018 1.036380 1.795061 0
M  V30 22 C -3.961334 0.318514 0.907605 0
M  V30 23 C -1.949372 0.763322 -1.231994 0
M  V30 24 C -0.807043 0.492126 -2.217165 0
M  V30 25 C 2.709270 -3.322852 -0.343375 0
M  V30 26 H 4.175539 -6.719228 1.145133 0
M  V30 27 H 4.944757 -6.629153 -0.459532 0
M  V30 28 H 3.533717 -7.753511 -0.154776 0
M  V30 29 H 5.248385 -4.984383 1.153431 0
M  V30 30 H 5.742107 -2.722371 1.786932 0
M  V30 31 H 4.383108 -0.864912 1.114042 0
M  V30 32 H 2.541190 0.049269 -0.010500 0
M  V30 33 H 1.265945 2.253182 -1.873202 0
M  V30 34 H 1.501347 1.793860 -0.136454 0
M  V30 35 H -0.281056 3.393042 0.016002 0
M  V30 36 H -0.888468 2.979525 -1.599415 0
M  V30 37 H -0.164496 2.834588 1.910526 0
M  V30 38 H -0.739611 2.852449 4.208830 0
M  V30 39 H -2.734862 1.737015 5.044582 0
M  V30 40 H -4.629853 -0.616875 3.219403 0
M  V30 41 H -4.432750 0.284236 4.753652 0
M  V30 42 H -5.391678 1.027504 3.434672 0
M  V30 43 H -4.970722 0.345804 1.440297 0
M  V30 44 H -4.170007 0.822624 -0.035090 0
M  V30 45 H -3.760780 -0.774226 0.839490 0
M  V30 46 H -2.221330 -0.235221 -0.855403 0
M  V30 47 H -2.719742 1.262856 -1.849051 0
M  V30 48 H -0.709337 1.268766 -2.985298 0
M  V30 49 H -0.941954 -0.470317 -2.725492 0
M  V30 50 H 1.864104 -3.559340 -0.946194 0
M  V30 END ATOM
M  V30 BEGIN BOND
M  V30 1 1 1 2
M  V30 2 1 2 3
M  V30 3 2 3 4
M  V30 4 1 4 5
M  V30 5 2 5 6
M  V30 6 1 6 7
M  V30 7 1 7 8
M  V30 8 1 8 9
M  V30 9 2 9 10
M  V30 10 1 9 11
M  V30 11 1 11 12
M  V30 12 1 12 13
M  V30 13 1 13 14
M  V30 14 1 14 15
M  V30 15 2 15 16
M  V30 16 1 16 17
M  V30 17 2 17 18
M  V30 18 1 18 19
M  V30 19 1 19 20
M  V30 20 2 19 21
M  V30 21 1 21 22
M  V30 22 1 14 23
M  V30 23 1 23 24
M  V30 24 2 7 25
M  V30 25 1 25 3
M  V30 26 1 24 11
M  V30 27 1 21 15
M  V30 28 1 1 26
M  V30 29 1 1 27
M  V30 30 1 1 28
M  V30 31 1 4 29
M  V30 32 1 5 30
M  V30 33 1 6 31
M  V30 34 1 8 32
M  V30 35 1 12 33
M  V30 36 1 12 34
M  V30 37 1 13 35
M  V30 38 1 13 36
M  V30 39 1 16 37
M  V30 40 1 17 38
M  V30 41 1 18 39
M  V30 42 1 20 40
M  V30 43 1 20 41
M  V30 44 1 20 42
M  V30 45 1 22 43
M  V30 46 1 22 44
M  V30 47 1 22 45
M  V30 48 1 23 46
M  V30 49 1 23 47
M  V30 50 1 24 48
M  V30 51 1 24 49
M  V30 52 1 25 50
M  V30 END BOND
M  V30 END CTAB
M  END
>  <Dataset>  (808) 
ChEMBL_Kinases

>  <Ligand_Instance>  (808) 
nan

>  <PDB_ID>  (808) 
nan

>  <Standardized_SMILES>  (808) 
COc1cccc(NC(=O)N2CCN(c3cccc(C)c3C)CC2)c1

>  <Name>  (808) 
nan

>  <Pocket>  (808) 
nan

>  <ATP_Site>  (808) 
nan

>  <Peripheral>  (808) 
nan

>  <Num_H_Atoms_ProtBoundConf>  (808) 
nan

>  <Num_Resolved_Atoms>  (808) 
nan

>  <Num_Not_Resolved_Atoms>  (808) 
nan

$$$$
CHEMBL1414502
     RDKit          3D

  0  0  0  0  0  0  0  0  0  0999 V3000
M  V30 BEGIN CTAB
M  V30 COUNTS 35 36 0 0 0
M  V30 BEGIN ATOM
M  V30 1 O -0.392805 -0.230955 4.445811 0
M  V30 2 C -0.073301 -0.676003 3.228130 0
M  V30 3 C 0.570556 -1.999985 3.469673 0
M  V30 4 O 1.026621 -2.467274 2.294894 0
M  V30 5 C 1.479548 -3.104318 1.234107 0
M  V30 6 O 1.407434 -3.909343 2.057329 0
M  V30 7 C 1.677866 -2.329409 -0.021792 0
M  V30 8 C 2.100522 -3.128690 -1.108377 0
M  V30 9 C 2.483354 -2.811184 -2.368587 0
M  V30 10 C 2.449815 -1.530891 -2.658627 0
M  V30 11 O 2.758129 -0.759276 -3.772051 0
M  V30 12 C 2.041434 -0.620878 -1.719151 0
M  V30 13 C 1.678894 -1.121776 -0.429420 0
M  V30 14 N -0.479771 0.268989 2.424866 0
M  V30 15 C -0.966089 1.347539 1.707880 0
M  V30 16 C -0.420468 2.505677 1.274529 0
M  V30 17 C -1.245289 3.229797 0.428526 0
M  V30 18 C -2.467532 2.881499 0.034548 0
M  V30 19 C -3.037073 1.699541 0.500809 0
M  V30 20 C -2.267908 0.910746 1.349830 0
M  V30 21 N -2.954876 -0.230065 1.753005 0 CHG=1 VAL=4
M  V30 22 O -3.884419 -0.928724 1.546616 0
M  V30 23 O -2.815899 -1.099681 2.806246 0 CHG=-1 VAL=1
M  V30 24 H 1.046918 -2.041452 4.409579 0
M  V30 25 H -0.421392 -2.645792 3.688730 0
M  V30 26 H 2.183326 -4.228160 -0.920658 0
M  V30 27 H 2.757022 -3.386835 -3.214992 0
M  V30 28 H 3.613273 -0.270478 -3.827329 0
M  V30 29 H 1.955092 0.485503 -1.697239 0
M  V30 30 H 1.324180 -0.295150 0.280998 0
M  V30 31 H 0.079990 -0.207383 1.729238 0
M  V30 32 H 0.559870 2.741096 1.621960 0
M  V30 33 H -0.823038 4.166662 0.055308 0
M  V30 34 H -2.990249 3.444574 -0.720646 0
M  V30 35 H -4.059570 1.470626 0.145550 0
M  V30 END ATOM
M  V30 BEGIN BOND
M  V30 1 2 1 2
M  V30 2 1 2 3
M  V30 3 1 3 4
M  V30 4 1 4 5
M  V30 5 2 5 6
M  V30 6 1 5 7
M  V30 7 2 7 8
M  V30 8 1 8 9
M  V30 9 2 9 10
M  V30 10 1 10 11
M  V30 11 1 10 12
M  V30 12 2 12 13
M  V30 13 1 2 14
M  V30 14 1 14 15
M  V30 15 2 15 16
M  V30 16 1 16 17
M  V30 17 2 17 18
M  V30 18 1 18 19
M  V30 19 2 19 20
M  V30 20 1 20 21
M  V30 21 2 21 22
M  V30 22 1 21 23
M  V30 23 1 13 7
M  V30 24 1 20 15
M  V30 25 1 3 24
M  V30 26 1 3 25
M  V30 27 1 8 26
M  V30 28 1 9 27
M  V30 29 1 11 28
M  V30 30 1 12 29
M  V30 31 1 13 30
M  V30 32 1 14 31
M  V30 33 1 16 32
M  V30 34 1 17 33
M  V30 35 1 18 34
M  V30 36 1 19 35
M  V30 END BOND
M  V30 END CTAB
M  END
>  <Dataset>  (809) 
ChEMBL_Kinases

>  <Ligand_Instance>  (809) 
nan

>  <PDB_ID>  (809) 
nan

>  <Standardized_SMILES>  (809) 
O=C(COC(=O)c1ccc(O)cc1)Nc1ccccc1[N+](=O)[O-]

>  <Name>  (809) 
nan

>  <Pocket>  (809) 
nan

>  <ATP_Site>  (809) 
nan

>  <Peripheral>  (809) 
nan

>  <Num_H_Atoms_ProtBoundConf>  (809) 
nan

>  <Num_Resolved_Atoms>  (809) 
nan

>  <Num_Not_Resolved_Atoms>  (809) 
nan

$$$$
CHEMBL1414636
     RDKit          3D

  0  0  0  0  0  0  0  0  0  0999 V3000
M  V30 BEGIN CTAB
M  V30 COUNTS 45 46 0 0 0
M  V30 BEGIN ATOM
M  V30 1 C -1.679107 -6.096082 0.043205 0
M  V30 2 C -1.029997 -4.775377 -0.210234 0
M  V30 3 C 0.348248 -4.731770 -0.261214 0
M  V30 4 C 0.932068 -3.491196 -0.498594 0
M  V30 5 C 0.268681 -2.315086 -0.685726 0
M  V30 6 C 0.912907 -1.049944 -0.931962 0
M  V30 7 C 2.276023 -0.916288 -1.003228 0
M  V30 8 C 2.893977 0.310392 -1.244184 0
M  V30 9 C 2.026740 1.380726 -1.405369 0
M  V30 10 O 2.554888 2.521880 -1.627664 0
M  V30 11 N 0.687352 1.247787 -1.334898 0
M  V30 12 C -0.090775 2.460903 -1.524571 0
M  V30 13 C -0.277661 3.090249 -0.193699 0
M  V30 14 O -0.911761 4.182579 -0.017684 0
M  V30 15 N 0.246376 2.508109 0.992789 0
M  V30 16 C 0.152677 2.994561 2.350764 0
M  V30 17 C 0.850068 2.060084 3.319971 0
M  V30 18 N 0.285206 0.741255 3.309093 0
M  V30 19 C -1.040947 0.638686 3.834033 0
M  V30 20 C 1.212885 -0.185124 3.881216 0
M  V30 21 N 0.172713 0.056187 -1.104125 0
M  V30 22 C -1.105915 -2.403339 -0.627099 0
M  V30 23 C -1.751839 -3.611952 -0.393402 0
M  V30 24 H -0.957738 -6.760392 0.573268 0
M  V30 25 H -2.588200 -6.024631 0.647133 0
M  V30 26 H -1.933186 -6.581870 -0.918649 0
M  V30 27 H 0.945986 -5.631118 -0.120756 0
M  V30 28 H 2.012701 -3.522224 -0.527124 0
M  V30 29 H 2.939034 -1.748334 -0.876363 0
M  V30 30 H 3.952628 0.435377 -1.303133 0
M  V30 31 H 0.470497 3.146254 -2.209250 0
M  V30 32 H -1.092666 2.211225 -1.937140 0
M  V30 33 H 0.769578 1.601925 0.838941 0
M  V30 34 H -0.862240 3.276952 2.655062 0
M  V30 35 H 0.775802 3.935600 2.368552 0
M  V30 36 H 1.899313 1.950739 2.936452 0
M  V30 37 H 0.927675 2.522819 4.303768 0
M  V30 38 H -1.223691 1.285061 4.712999 0
M  V30 39 H -1.210456 -0.429231 4.104655 0
M  V30 40 H -1.759447 0.867856 3.013783 0
M  V30 41 H 0.726379 -1.200737 3.825195 0
M  V30 42 H 2.108833 -0.184090 3.192762 0
M  V30 43 H 1.572422 0.052470 4.885112 0
M  V30 44 H -1.749290 -1.542199 -0.758702 0
M  V30 45 H -2.827910 -3.651699 -0.353839 0
M  V30 END ATOM
M  V30 BEGIN BOND
M  V30 1 1 1 2
M  V30 2 2 2 3
M  V30 3 1 3 4
M  V30 4 2 4 5
M  V30 5 1 5 6
M  V30 6 1 6 7
M  V30 7 2 7 8
M  V30 8 1 8 9
M  V30 9 2 9 10
M  V30 10 1 9 11
M  V30 11 1 11 12
M  V30 12 1 12 13
M  V30 13 2 13 14
M  V30 14 1 13 15
M  V30 15 1 15 16
M  V30 16 1 16 17
M  V30 17 1 17 18
M  V30 18 1 18 19
M  V30 19 1 18 20
M  V30 20 1 11 21
M  V30 21 1 5 22
M  V30 22 2 22 23
M  V30 23 1 23 2
M  V30 24 2 21 6
M  V30 25 1 1 24
M  V30 26 1 1 25
M  V30 27 1 1 26
M  V30 28 1 3 27
M  V30 29 1 4 28
M  V30 30 1 7 29
M  V30 31 1 8 30
M  V30 32 1 12 31
M  V30 33 1 12 32
M  V30 34 1 15 33
M  V30 35 1 16 34
M  V30 36 1 16 35
M  V30 37 1 17 36
M  V30 38 1 17 37
M  V30 39 1 19 38
M  V30 40 1 19 39
M  V30 41 1 19 40
M  V30 42 1 20 41
M  V30 43 1 20 42
M  V30 44 1 20 43
M  V30 45 1 22 44
M  V30 46 1 23 45
M  V30 END BOND
M  V30 END CTAB
M  END
>  <Dataset>  (810) 
ChEMBL_Kinases

>  <Ligand_Instance>  (810) 
nan

>  <PDB_ID>  (810) 
nan

>  <Standardized_SMILES>  (810) 
Cc1ccc(-c2ccc(=O)n(CC(=O)NCCN(C)C)n2)cc1

>  <Name>  (810) 
nan

>  <Pocket>  (810) 
nan

>  <ATP_Site>  (810) 
nan

>  <Peripheral>  (810) 
nan

>  <Num_H_Atoms_ProtBoundConf>  (810) 
nan

>  <Num_Resolved_Atoms>  (810) 
nan

>  <Num_Not_Resolved_Atoms>  (810) 
nan

$$$$
CHEMBL1414671
     RDKit          3D

  0  0  0  0  0  0  0  0  0  0999 V3000
M  V30 BEGIN CTAB
M  V30 COUNTS 23 24 0 0 0
M  V30 BEGIN ATOM
M  V30 1 C -0.061556 -3.186127 3.859394 0
M  V30 2 O 0.468292 -3.296106 2.546530 0
M  V30 3 C 0.540950 -2.194343 1.728973 0
M  V30 4 C 1.033271 -2.201780 0.454996 0
M  V30 5 C 1.126676 -1.127227 -0.400905 0
M  V30 6 C 0.676309 0.112160 0.060898 0
M  V30 7 C 0.706949 1.267399 -0.678065 0
M  V30 8 Cl 1.283254 1.512614 -2.314288 0
M  V30 9 C 0.231755 2.403693 -0.092907 0
M  V30 10 C 0.061403 3.785389 -0.439290 0
M  V30 11 N 0.487124 4.141696 -1.747913 0
M  V30 12 O -0.423482 4.652853 0.324427 0
M  V30 13 S -0.288409 1.841848 1.578307 0
M  V30 14 C 0.186197 0.131966 1.322079 0
M  V30 15 C 0.105484 -0.956605 2.153031 0
M  V30 16 H 0.541713 -2.468714 4.471792 0
M  V30 17 H -1.091965 -2.786360 3.773403 0
M  V30 18 H -0.032128 -4.147372 4.374303 0
M  V30 19 H 1.390937 -3.179448 0.084468 0
M  V30 20 H 1.551572 -1.308411 -1.400653 0
M  V30 21 H 0.589958 4.326476 -2.751099 0
M  V30 22 H -0.262067 3.943350 -2.428844 0
M  V30 23 H -0.307592 -0.790112 3.130476 0
M  V30 END ATOM
M  V30 BEGIN BOND
M  V30 1 1 1 2
M  V30 2 1 2 3
M  V30 3 2 3 4
M  V30 4 1 4 5
M  V30 5 2 5 6
M  V30 6 1 6 7
M  V30 7 1 7 8
M  V30 8 2 7 9
M  V30 9 1 9 10
M  V30 10 1 10 11
M  V30 11 2 10 12
M  V30 12 1 9 13
M  V30 13 1 13 14
M  V30 14 2 14 15
M  V30 15 1 15 3
M  V30 16 1 14 6
M  V30 17 1 1 16
M  V30 18 1 1 17
M  V30 19 1 1 18
M  V30 20 1 4 19
M  V30 21 1 5 20
M  V30 22 1 11 21
M  V30 23 1 11 22
M  V30 24 1 15 23
M  V30 END BOND
M  V30 END CTAB
M  END
>  <Dataset>  (811) 
ChEMBL_Kinases

>  <Ligand_Instance>  (811) 
nan

>  <PDB_ID>  (811) 
nan

>  <Standardized_SMILES>  (811) 
COc1ccc2c(Cl)c(C(N)=O)sc2c1

>  <Name>  (811) 
nan

>  <Pocket>  (811) 
nan

>  <ATP_Site>  (811) 
nan

>  <Peripheral>  (811) 
nan

>  <Num_H_Atoms_ProtBoundConf>  (811) 
nan

>  <Num_Resolved_Atoms>  (811) 
nan

>  <Num_Not_Resolved_Atoms>  (811) 
nan

$$$$
CHEMBL1414688
     RDKit          3D

  0  0  0  0  0  0  0  0  0  0999 V3000
M  V30 BEGIN CTAB
M  V30 COUNTS 46 49 0 0 0
M  V30 BEGIN ATOM
M  V30 1 C 3.513876 -5.285853 1.051292 0
M  V30 2 N 2.925804 -4.062715 0.487650 0
M  V30 3 C 2.143580 -4.060494 -0.733572 0
M  V30 4 C 3.135464 -2.832914 1.172015 0
M  V30 5 N 3.853906 -2.783274 2.308562 0
M  V30 6 C 4.082554 -1.648607 2.994951 0
M  V30 7 N 3.605836 -0.455278 2.596644 0
M  V30 8 C 2.872073 -0.445128 1.453515 0
M  V30 9 C 2.631978 -1.608457 0.740929 0
M  V30 10 N 1.894196 -1.298442 -0.321443 0
M  V30 11 C 1.666419 0.032149 -0.291091 0
M  V30 12 N 2.262451 0.565420 0.794595 0
M  V30 13 C 2.297969 1.938890 1.248613 0
M  V30 14 C 1.129639 2.265193 2.186170 0
M  V30 15 N -0.133041 2.066926 1.533861 0
M  V30 16 C -0.826648 3.001039 0.822311 0
M  V30 17 N -1.971177 2.503816 0.338566 0
M  V30 18 C -2.060614 1.217243 0.723315 0
M  V30 19 C -3.024415 0.257732 0.499110 0
M  V30 20 N -4.171448 0.629695 -0.280421 0
M  V30 21 C -4.090776 1.105638 -1.666254 0
M  V30 22 C -5.427848 0.489437 0.437190 0
M  V30 23 N -2.807795 -0.956737 1.033828 0
M  V30 24 C -1.693307 -1.200988 1.751562 0
M  V30 25 N -0.741155 -0.254827 1.973652 0
M  V30 26 C -0.916755 0.979398 1.455615 0
M  V30 27 H 3.148887 -6.179954 0.545589 0
M  V30 28 H 4.604034 -5.151208 1.074058 0
M  V30 29 H 3.150444 -5.282948 2.113994 0
M  V30 30 H 1.169504 -3.549597 -0.589203 0
M  V30 31 H 2.709336 -3.708890 -1.620253 0
M  V30 32 H 1.891472 -5.129783 -0.957134 0
M  V30 33 H 4.676655 -1.750390 3.893332 0
M  V30 34 H 1.098865 0.617298 -1.007754 0
M  V30 35 H 2.134363 2.585880 0.350939 0
M  V30 36 H 3.253761 2.247437 1.670866 0
M  V30 37 H 1.228420 1.694498 3.127124 0
M  V30 38 H 1.236696 3.349238 2.405109 0
M  V30 39 H -0.466733 4.014865 0.684040 0
M  V30 40 H -4.265597 0.271680 -2.381576 0
M  V30 41 H -3.067342 1.532389 -1.794779 0
M  V30 42 H -4.813489 1.913438 -1.849710 0
M  V30 43 H -5.428287 1.193677 1.315929 0
M  V30 44 H -6.236725 0.878267 -0.242984 0
M  V30 45 H -5.691737 -0.538615 0.688969 0
M  V30 46 H -1.594996 -2.212612 2.150182 0
M  V30 END ATOM
M  V30 BEGIN BOND
M  V30 1 1 1 2
M  V30 2 1 2 3
M  V30 3 1 2 4
M  V30 4 2 4 5
M  V30 5 1 5 6
M  V30 6 2 6 7
M  V30 7 1 7 8
M  V30 8 2 8 9
M  V30 9 1 9 10
M  V30 10 2 10 11
M  V30 11 1 11 12
M  V30 12 1 12 13
M  V30 13 1 13 14
M  V30 14 1 14 15
M  V30 15 1 15 16
M  V30 16 2 16 17
M  V30 17 1 17 18
M  V30 18 2 18 19
M  V30 19 1 19 20
M  V30 20 1 20 21
M  V30 21 1 20 22
M  V30 22 1 19 23
M  V30 23 2 23 24
M  V30 24 1 24 25
M  V30 25 2 25 26
M  V30 26 1 9 4
M  V30 27 1 26 15
M  V30 28 1 12 8
M  V30 29 1 26 18
M  V30 30 1 1 27
M  V30 31 1 1 28
M  V30 32 1 1 29
M  V30 33 1 3 30
M  V30 34 1 3 31
M  V30 35 1 3 32
M  V30 36 1 6 33
M  V30 37 1 11 34
M  V30 38 1 13 35
M  V30 39 1 13 36
M  V30 40 1 14 37
M  V30 41 1 14 38
M  V30 42 1 16 39
M  V30 43 1 21 40
M  V30 44 1 21 41
M  V30 45 1 21 42
M  V30 46 1 22 43
M  V30 47 1 22 44
M  V30 48 1 22 45
M  V30 49 1 24 46
M  V30 END BOND
M  V30 END CTAB
M  END
>  <Dataset>  (812) 
ChEMBL_Kinases

>  <Ligand_Instance>  (812) 
nan

>  <PDB_ID>  (812) 
nan

>  <Standardized_SMILES>  (812) 
CN(C)c1ncnc2c1ncn2CCn1cnc2c(N(C)C)ncnc21

>  <Name>  (812) 
nan

>  <Pocket>  (812) 
nan

>  <ATP_Site>  (812) 
nan

>  <Peripheral>  (812) 
nan

>  <Num_H_Atoms_ProtBoundConf>  (812) 
nan

>  <Num_Resolved_Atoms>  (812) 
nan

>  <Num_Not_Resolved_Atoms>  (812) 
nan

$$$$
CHEMBL1414724
     RDKit          3D

  0  0  0  0  0  0  0  0  0  0999 V3000
M  V30 BEGIN CTAB
M  V30 COUNTS 37 40 0 0 0
M  V30 BEGIN ATOM
M  V30 1 O -0.181482 -1.346836 2.941202 0
M  V30 2 C 0.267651 -2.018102 1.952405 0
M  V30 3 C -0.218928 -2.745777 3.121929 0
M  V30 4 C 0.306266 -4.093515 3.467697 0
M  V30 5 C -1.071761 -3.991891 2.869892 0
M  V30 6 N 0.739958 -1.311899 0.817193 0
M  V30 7 C 1.200384 -2.213284 -0.180690 0
M  V30 8 C 2.002597 -1.600501 -1.266109 0
M  V30 9 C 2.506315 -0.296841 -0.834197 0
M  V30 10 S 3.988314 0.527966 -1.429900 0
M  V30 11 C 3.803151 2.009248 -0.377151 0
M  V30 12 C 2.658372 1.749860 0.316184 0
M  V30 13 C 2.000994 0.568097 0.076702 0
M  V30 14 C 0.734052 0.103810 0.739780 0
M  V30 15 C -0.475527 0.704807 0.132508 0
M  V30 16 C -1.108805 1.822622 0.691460 0
M  V30 17 C -2.225855 2.447081 0.208788 0
M  V30 18 C -2.794831 1.942669 -0.933658 0
M  V30 19 Cl -4.220360 2.634405 -1.664389 0
M  V30 20 C -2.235876 0.848669 -1.544025 0
M  V30 21 C -1.109602 0.262913 -1.009523 0
M  V30 22 H -0.603224 -2.099737 3.964608 0
M  V30 23 H 1.108204 -4.548139 2.858079 0
M  V30 24 H 0.331502 -4.374620 4.531480 0
M  V30 25 H -1.155241 -4.343514 1.824487 0
M  V30 26 H -1.947643 -4.177818 3.510913 0
M  V30 27 H 1.814992 -3.057303 0.253470 0
M  V30 28 H 0.323257 -2.752925 -0.641410 0
M  V30 29 H 2.897687 -2.239691 -1.529522 0
M  V30 30 H 1.395301 -1.552322 -2.196289 0
M  V30 31 H 4.486940 2.815220 -0.389257 0
M  V30 32 H 2.355331 2.516699 1.015527 0
M  V30 33 H 0.727255 0.468528 1.813810 0
M  V30 34 H -0.685465 2.256929 1.605880 0
M  V30 35 H -2.653072 3.295145 0.688342 0
M  V30 36 H -2.668291 0.431890 -2.448729 0
M  V30 37 H -0.694914 -0.598266 -1.514512 0
M  V30 END ATOM
M  V30 BEGIN BOND
M  V30 1 2 1 2
M  V30 2 1 2 3
M  V30 3 1 3 4
M  V30 4 1 4 5
M  V30 5 1 2 6
M  V30 6 1 6 7
M  V30 7 1 7 8
M  V30 8 1 8 9
M  V30 9 1 9 10
M  V30 10 1 10 11
M  V30 11 2 11 12
M  V30 12 1 12 13
M  V30 13 1 13 14
M  V30 14 1 14 15
M  V30 15 2 15 16
M  V30 16 1 16 17
M  V30 17 2 17 18
M  V30 18 1 18 19
M  V30 19 1 18 20
M  V30 20 2 20 21
M  V30 21 1 5 3
M  V30 22 1 14 6
M  V30 23 1 21 15
M  V30 24 2 13 9
M  V30 25 1 3 22
M  V30 26 1 4 23
M  V30 27 1 4 24
M  V30 28 1 5 25
M  V30 29 1 5 26
M  V30 30 1 7 27
M  V30 31 1 7 28
M  V30 32 1 8 29
M  V30 33 1 8 30
M  V30 34 1 11 31
M  V30 35 1 12 32
M  V30 36 1 14 33
M  V30 37 1 16 34
M  V30 38 1 17 35
M  V30 39 1 20 36
M  V30 40 1 21 37
M  V30 END BOND
M  V30 END CTAB
M  END
>  <Dataset>  (813) 
ChEMBL_Kinases

>  <Ligand_Instance>  (813) 
nan

>  <PDB_ID>  (813) 
nan

>  <Standardized_SMILES>  (813) 
O=C(C1CC1)N1CCc2sccc2C1c1ccc(Cl)cc1

>  <Name>  (813) 
nan

>  <Pocket>  (813) 
nan

>  <ATP_Site>  (813) 
nan

>  <Peripheral>  (813) 
nan

>  <Num_H_Atoms_ProtBoundConf>  (813) 
nan

>  <Num_Resolved_Atoms>  (813) 
nan

>  <Num_Not_Resolved_Atoms>  (813) 
nan

$$$$
CHEMBL1415054
     RDKit          3D

  0  0  0  0  0  0  0  0  0  0999 V3000
M  V30 BEGIN CTAB
M  V30 COUNTS 40 42 0 0 0
M  V30 BEGIN ATOM
M  V30 1 C 0.139421 -5.114302 2.400637 0
M  V30 2 C 0.676654 -5.527409 1.060647 0
M  V30 3 O 1.606808 -4.624100 0.509733 0
M  V30 4 C 1.315056 -3.298809 0.221630 0
M  V30 5 C 0.101091 -2.696428 0.430130 0
M  V30 6 C -0.097470 -1.371159 0.112831 0
M  V30 7 C 0.905174 -0.592883 -0.424881 0
M  V30 8 C 0.751456 0.857583 -0.793156 0
M  V30 9 C -0.329899 1.024130 -1.840320 0
M  V30 10 C -1.666584 0.922770 -1.249916 0
M  V30 11 O -2.528138 0.140490 -1.777400 0
M  V30 12 N -1.971691 1.700911 -0.100556 0
M  V30 13 C -0.860821 2.057300 0.714783 0
M  V30 14 C 0.355724 1.660560 0.374012 0
M  V30 15 C 1.452771 2.058270 1.252249 0
M  V30 16 O 2.614965 1.607227 1.123764 0
M  V30 17 C 1.232472 3.032936 2.355880 0
M  V30 18 C -0.097014 2.595645 2.975500 0
M  V30 19 C -1.149807 2.871381 1.923964 0
M  V30 20 C 2.121564 -1.247988 -0.619029 0
M  V30 21 C 2.359769 -2.567819 -0.315706 0
M  V30 22 H 0.526764 -4.134551 2.726974 0
M  V30 23 H 0.434150 -5.856911 3.198814 0
M  V30 24 H -0.987796 -5.098984 2.390753 0
M  V30 25 H 1.161710 -6.508600 1.160034 0
M  V30 26 H -0.144666 -5.631632 0.306740 0
M  V30 27 H -0.696995 -3.280938 0.847940 0
M  V30 28 H -1.052195 -0.915315 0.282698 0
M  V30 29 H 1.735583 1.207600 -1.171955 0
M  V30 30 H -0.179233 0.375640 -2.711425 0
M  V30 31 H -0.211947 2.090041 -2.195781 0
M  V30 32 H -2.984118 1.963374 0.077002 0
M  V30 33 H 2.039467 3.051514 3.081238 0
M  V30 34 H 1.028644 4.027206 1.867867 0
M  V30 35 H -0.310059 3.064730 3.931860 0
M  V30 36 H -0.050601 1.485630 3.108627 0
M  V30 37 H -2.123825 2.507433 2.335743 0
M  V30 38 H -1.197682 3.958436 1.684663 0
M  V30 39 H 2.936972 -0.667935 -1.041117 0
M  V30 40 H 3.347807 -2.973493 -0.509641 0
M  V30 END ATOM
M  V30 BEGIN BOND
M  V30 1 1 1 2
M  V30 2 1 2 3
M  V30 3 1 3 4
M  V30 4 2 4 5
M  V30 5 1 5 6
M  V30 6 2 6 7
M  V30 7 1 7 8
M  V30 8 1 8 9
M  V30 9 1 9 10
M  V30 10 2 10 11
M  V30 11 1 10 12
M  V30 12 1 12 13
M  V30 13 2 13 14
M  V30 14 1 14 15
M  V30 15 2 15 16
M  V30 16 1 15 17
M  V30 17 1 17 18
M  V30 18 1 18 19
M  V30 19 1 7 20
M  V30 20 2 20 21
M  V30 21 1 21 4
M  V30 22 1 14 8
M  V30 23 1 19 13
M  V30 24 1 1 22
M  V30 25 1 1 23
M  V30 26 1 1 24
M  V30 27 1 2 25
M  V30 28 1 2 26
M  V30 29 1 5 27
M  V30 30 1 6 28
M  V30 31 1 8 29
M  V30 32 1 9 30
M  V30 33 1 9 31
M  V30 34 1 12 32
M  V30 35 1 17 33
M  V30 36 1 17 34
M  V30 37 1 18 35
M  V30 38 1 18 36
M  V30 39 1 19 37
M  V30 40 1 19 38
M  V30 41 1 20 39
M  V30 42 1 21 40
M  V30 END BOND
M  V30 END CTAB
M  END
>  <Dataset>  (814) 
ChEMBL_Kinases

>  <Ligand_Instance>  (814) 
nan

>  <PDB_ID>  (814) 
nan

>  <Standardized_SMILES>  (814) 
CCOc1ccc(C2CC(=O)NC3=C2C(=O)CCC3)cc1

>  <Name>  (814) 
nan

>  <Pocket>  (814) 
nan

>  <ATP_Site>  (814) 
nan

>  <Peripheral>  (814) 
nan

>  <Num_H_Atoms_ProtBoundConf>  (814) 
nan

>  <Num_Resolved_Atoms>  (814) 
nan

>  <Num_Not_Resolved_Atoms>  (814) 
nan

$$$$
CHEMBL1415510
     RDKit          3D

  0  0  0  0  0  0  0  0  0  0999 V3000
M  V30 BEGIN CTAB
M  V30 COUNTS 51 55 0 0 0
M  V30 BEGIN ATOM
M  V30 1 C 1.348275 -6.396266 3.626456 0
M  V30 2 O 2.491022 -5.643745 3.209758 0
M  V30 3 C 2.276099 -4.472457 2.470467 0
M  V30 4 C 0.978905 -4.081060 2.167825 0
M  V30 5 C 0.784618 -2.927530 1.440361 0
M  V30 6 C 1.864228 -2.176632 1.021516 0
M  V30 7 N 1.762538 -0.967857 0.262519 0
M  V30 8 C 1.760789 -1.032326 -1.178990 0
M  V30 9 O 2.102167 -1.925460 -2.020242 0
M  V30 10 C 1.229058 0.270238 -1.721083 0
M  V30 11 C 0.879834 1.042834 -0.442503 0
M  V30 12 C 1.653814 0.401980 0.619507 0
M  V30 13 O 2.202155 0.793221 1.705577 0
M  V30 14 C -0.625925 0.736313 -0.315020 0
M  V30 15 C -1.314021 1.631129 0.609884 0
M  V30 16 O -1.819072 2.237241 -0.360498 0
M  V30 17 C -1.481890 1.885937 2.026104 0
M  V30 18 C -0.905720 1.171550 3.051476 0
M  V30 19 C -1.137644 1.511676 4.365478 0
M  V30 20 C -1.961547 2.584608 4.593387 0
M  V30 21 C -2.548232 3.312858 3.581544 0
M  V30 22 C -2.315981 2.972426 2.268369 0
M  V30 23 N -0.952209 0.985504 -1.693716 0
M  V30 24 C -2.216702 0.563049 -2.166692 0
M  V30 25 C -1.899584 0.252504 -3.640349 0
M  V30 26 C -0.360647 0.269233 -3.718382 0
M  V30 27 C -0.106677 -0.043524 -2.287789 0
M  V30 28 C 3.143440 -2.585717 1.334379 0
M  V30 29 C 3.384600 -3.743060 2.066350 0
M  V30 30 H 0.683199 -6.625535 2.767428 0
M  V30 31 H 0.795653 -5.825645 4.389216 0
M  V30 32 H 1.702951 -7.343613 4.053933 0
M  V30 33 H 0.134294 -4.670686 2.496873 0
M  V30 34 H -0.202547 -2.586683 1.183270 0
M  V30 35 H 1.932953 0.788817 -2.363755 0
M  V30 36 H 1.043148 2.125359 -0.556808 0
M  V30 37 H -0.701184 -0.338273 -0.098016 0
M  V30 38 H -0.273558 0.342077 2.784263 0
M  V30 39 H -0.664270 0.922670 5.138486 0
M  V30 40 H -2.144860 2.853286 5.625878 0
M  V30 41 H -3.193967 4.156483 3.847306 0
M  V30 42 H -2.804955 3.582641 1.529842 0
M  V30 43 H -2.525010 -0.348659 -1.617417 0
M  V30 44 H -3.003803 1.333203 -2.162074 0
M  V30 45 H -2.361427 0.979210 -4.309843 0
M  V30 46 H -2.213120 -0.793624 -3.810061 0
M  V30 47 H -0.060228 1.306297 -3.937691 0
M  V30 48 H 0.016693 -0.475751 -4.437143 0
M  V30 49 H -0.497016 -1.043259 -2.011286 0
M  V30 50 H 3.997054 -2.031863 1.028051 0
M  V30 51 H 4.372010 -4.059829 2.308510 0
M  V30 END ATOM
M  V30 BEGIN BOND
M  V30 1 1 1 2
M  V30 2 1 2 3
M  V30 3 2 3 4
M  V30 4 1 4 5
M  V30 5 2 5 6
M  V30 6 1 6 7
M  V30 7 1 7 8
M  V30 8 2 8 9
M  V30 9 1 8 10
M  V30 10 1 10 11
M  V30 11 1 11 12
M  V30 12 2 12 13
M  V30 13 1 11 14
M  V30 14 1 14 15
M  V30 15 2 15 16
M  V30 16 1 15 17
M  V30 17 2 17 18
M  V30 18 1 18 19
M  V30 19 2 19 20
M  V30 20 1 20 21
M  V30 21 2 21 22
M  V30 22 1 14 23
M  V30 23 1 23 24
M  V30 24 1 24 25
M  V30 25 1 25 26
M  V30 26 1 26 27
M  V30 27 1 6 28
M  V30 28 2 28 29
M  V30 29 1 29 3
M  V30 30 1 12 7
M  V30 31 1 22 17
M  V30 32 1 27 23
M  V30 33 1 27 10
M  V30 34 1 1 30
M  V30 35 1 1 31
M  V30 36 1 1 32
M  V30 37 1 4 33
M  V30 38 1 5 34
M  V30 39 1 10 35
M  V30 40 1 11 36
M  V30 41 1 14 37
M  V30 42 1 18 38
M  V30 43 1 19 39
M  V30 44 1 20 40
M  V30 45 1 21 41
M  V30 46 1 22 42
M  V30 47 1 24 43
M  V30 48 1 24 44
M  V30 49 1 25 45
M  V30 50 1 25 46
M  V30 51 1 26 47
M  V30 52 1 26 48
M  V30 53 1 27 49
M  V30 54 1 28 50
M  V30 55 1 29 51
M  V30 END BOND
M  V30 END CTAB
M  END
>  <Dataset>  (815) 
ChEMBL_Kinases

>  <Ligand_Instance>  (815) 
nan

>  <PDB_ID>  (815) 
nan

>  <Standardized_SMILES>  (815) 
COc1ccc(N2C(=O)C3C(C2=O)C(C(=O)c2ccccc2)N2CCCC32)cc1

>  <Name>  (815) 
nan

>  <Pocket>  (815) 
nan

>  <ATP_Site>  (815) 
nan

>  <Peripheral>  (815) 
nan

>  <Num_H_Atoms_ProtBoundConf>  (815) 
nan

>  <Num_Resolved_Atoms>  (815) 
nan

>  <Num_Not_Resolved_Atoms>  (815) 
nan

$$$$
CHEMBL1414392
     RDKit          3D

  0  0  0  0  0  0  0  0  0  0999 V3000
M  V30 BEGIN CTAB
M  V30 COUNTS 62 63 0 0 0
M  V30 BEGIN ATOM
M  V30 1 C 0.312418 1.810516 4.224599 0
M  V30 2 C 0.454527 1.050607 2.907262 0
M  V30 3 N 1.725294 0.554940 2.660252 0
M  V30 4 C 2.818747 1.398755 2.401802 0
M  V30 5 C 3.297250 2.232117 3.571702 0
M  V30 6 C 1.991293 -0.788929 2.491854 0
M  V30 7 C 1.645193 -1.576725 1.285947 0
M  V30 8 C 0.265346 -1.659618 0.816014 0
M  V30 9 C -0.444981 -0.489471 0.350479 0
M  V30 10 C 0.167177 0.495592 -0.408745 0
M  V30 11 C -0.495805 1.601355 -0.888321 0
M  V30 12 C -1.835575 1.803973 -0.640208 0
M  V30 13 N -2.587128 2.905175 -1.100867 0
M  V30 14 C -3.981455 3.218998 -0.904078 0
M  V30 15 C -1.863962 3.875764 -1.897274 0
M  V30 16 C -2.459878 0.814058 0.127007 0
M  V30 17 C -1.800207 -0.296428 0.610778 0
M  V30 18 C 0.085111 -2.824568 -0.116387 0
M  V30 19 C 0.679872 -2.950912 -1.354362 0
M  V30 20 O 1.520557 -1.938473 -1.786048 0
M  V30 21 C 0.469828 -4.035780 -2.165739 0
M  V30 22 C -0.356526 -5.090831 -1.806902 0
M  V30 23 O -0.622901 -6.205943 -2.548411 0
M  V30 24 C -0.133608 -6.534808 -3.811991 0
M  V30 25 C -0.975160 -5.012211 -0.577000 0
M  V30 26 C -0.745578 -3.906475 0.222216 0
M  V30 27 O -1.385505 -3.865828 1.449321 0
M  V30 28 C -2.242837 -4.825378 1.977262 0
M  V30 29 H 0.772245 1.251243 5.081905 0
M  V30 30 H 0.659237 2.838900 4.187861 0
M  V30 31 H -0.773959 1.845623 4.446711 0
M  V30 32 H -0.032160 1.694494 2.152660 0
M  V30 33 H -0.242393 0.169285 3.059130 0
M  V30 34 H 2.694737 2.040263 1.480886 0
M  V30 35 H 3.693173 0.748960 2.118601 0
M  V30 36 H 4.425215 2.313219 3.601777 0
M  V30 37 H 3.055410 1.742922 4.545791 0
M  V30 38 H 2.926993 3.261887 3.576853 0
M  V30 39 H 1.438556 -1.328517 3.362730 0
M  V30 40 H 3.098566 -1.029084 2.676691 0
M  V30 41 H 1.924192 -2.654284 1.583245 0
M  V30 42 H 2.400878 -1.425732 0.453785 0
M  V30 43 H -0.323343 -1.992090 1.753993 0
M  V30 44 H 1.191386 0.493605 -0.681276 0
M  V30 45 H -0.040694 2.386821 -1.485014 0
M  V30 46 H -4.125533 4.017686 -0.143921 0
M  V30 47 H -4.485562 2.310075 -0.523535 0
M  V30 48 H -4.461464 3.508770 -1.874981 0
M  V30 49 H -0.942975 4.203792 -1.343682 0
M  V30 50 H -1.497073 3.380361 -2.830700 0
M  V30 51 H -2.415155 4.802700 -2.100048 0
M  V30 52 H -3.498494 0.827237 0.408190 0
M  V30 53 H -2.274691 -1.069426 1.202569 0
M  V30 54 H 1.783519 -1.882404 -2.750823 0
M  V30 55 H 0.949034 -4.094139 -3.119793 0
M  V30 56 H 0.374963 -7.543729 -3.802215 0
M  V30 57 H -1.008949 -6.657298 -4.493979 0
M  V30 58 H 0.592469 -5.802884 -4.162463 0
M  V30 59 H -1.643587 -5.795468 -0.208396 0
M  V30 60 H -3.070706 -5.056566 1.259419 0
M  V30 61 H -1.677083 -5.711676 2.292198 0
M  V30 62 H -2.769443 -4.376253 2.869377 0
M  V30 END ATOM
M  V30 BEGIN BOND
M  V30 1 1 1 2
M  V30 2 1 2 3
M  V30 3 1 3 4
M  V30 4 1 4 5
M  V30 5 1 3 6
M  V30 6 1 6 7
M  V30 7 1 7 8
M  V30 8 1 8 9
M  V30 9 2 9 10
M  V30 10 1 10 11
M  V30 11 2 11 12
M  V30 12 1 12 13
M  V30 13 1 13 14
M  V30 14 1 13 15
M  V30 15 1 12 16
M  V30 16 2 16 17
M  V30 17 1 8 18
M  V30 18 2 18 19
M  V30 19 1 19 20
M  V30 20 1 19 21
M  V30 21 2 21 22
M  V30 22 1 22 23
M  V30 23 1 23 24
M  V30 24 1 22 25
M  V30 25 2 25 26
M  V30 26 1 26 27
M  V30 27 1 27 28
M  V30 28 1 17 9
M  V30 29 1 26 18
M  V30 30 1 1 29
M  V30 31 1 1 30
M  V30 32 1 1 31
M  V30 33 1 2 32
M  V30 34 1 2 33
M  V30 35 1 4 34
M  V30 36 1 4 35
M  V30 37 1 5 36
M  V30 38 1 5 37
M  V30 39 1 5 38
M  V30 40 1 6 39
M  V30 41 1 6 40
M  V30 42 1 7 41
M  V30 43 1 7 42
M  V30 44 1 8 43
M  V30 45 1 10 44
M  V30 46 1 11 45
M  V30 47 1 14 46
M  V30 48 1 14 47
M  V30 49 1 14 48
M  V30 50 1 15 49
M  V30 51 1 15 50
M  V30 52 1 15 51
M  V30 53 1 16 52
M  V30 54 1 17 53
M  V30 55 1 20 54
M  V30 56 1 21 55
M  V30 57 1 24 56
M  V30 58 1 24 57
M  V30 59 1 24 58
M  V30 60 1 25 59
M  V30 61 1 28 60
M  V30 62 1 28 61
M  V30 63 1 28 62
M  V30 END BOND
M  V30 END CTAB
M  END
>  <Dataset>  (816) 
ChEMBL_Kinases

>  <Ligand_Instance>  (816) 
nan

>  <PDB_ID>  (816) 
nan

>  <Standardized_SMILES>  (816) 
CCN(CC)CCC(c1ccc(N(C)C)cc1)c1c(O)cc(OC)cc1OC

>  <Name>  (816) 
nan

>  <Pocket>  (816) 
nan

>  <ATP_Site>  (816) 
nan

>  <Peripheral>  (816) 
nan

>  <Num_H_Atoms_ProtBoundConf>  (816) 
nan

>  <Num_Resolved_Atoms>  (816) 
nan

>  <Num_Not_Resolved_Atoms>  (816) 
nan

$$$$
CHEMBL1418531
     RDKit          3D

  0  0  0  0  0  0  0  0  0  0999 V3000
M  V30 BEGIN CTAB
M  V30 COUNTS 31 33 0 0 0
M  V30 BEGIN ATOM
M  V30 1 C -0.386967 1.275137 1.807412 0
M  V30 2 N -0.026422 -0.127749 1.751413 0
M  V30 3 C 1.113022 -0.699454 1.323504 0
M  V30 4 C 2.223144 0.147431 0.816518 0
M  V30 5 C 2.738294 0.959342 1.917242 0
M  V30 6 N 3.168106 1.599840 2.799687 0
M  V30 7 C 1.888763 0.944470 -0.366058 0
M  V30 8 O 1.978580 2.209525 -0.249632 0
M  V30 9 C 1.479352 0.259598 -1.588292 0
M  V30 10 C 1.308500 -1.057044 -1.962661 0
M  V30 11 C 0.900130 -1.144347 -3.259876 0
M  V30 12 C 0.829484 0.182763 -3.660880 0
M  V30 13 O 1.167133 0.957587 -2.680731 0
M  V30 14 N 0.947693 -2.036953 1.477848 0
M  V30 15 C -0.269268 -2.294157 1.991226 0
M  V30 16 C -0.819541 -3.515391 2.295128 0
M  V30 17 C -2.108112 -3.487914 2.819245 0
M  V30 18 C -2.806165 -2.299872 3.026977 0
M  V30 19 C -2.184518 -1.114231 2.696259 0
M  V30 20 C -0.905894 -1.082272 2.172341 0
M  V30 21 H 0.477302 1.931696 2.036812 0
M  V30 22 H -1.109411 1.479511 2.626814 0
M  V30 23 H -0.916820 1.623456 0.879121 0
M  V30 24 H 3.058911 -0.546957 0.502835 0
M  V30 25 H 1.497220 -1.841634 -1.255913 0
M  V30 26 H 0.686421 -2.021436 -3.829334 0
M  V30 27 H 0.538881 0.551818 -4.640755 0
M  V30 28 H -0.275512 -4.426438 2.132264 0
M  V30 29 H -2.558589 -4.439662 3.064914 0
M  V30 30 H -3.788655 -2.349367 3.431177 0
M  V30 31 H -2.690425 -0.161610 2.840861 0
M  V30 END ATOM
M  V30 BEGIN BOND
M  V30 1 1 1 2
M  V30 2 1 2 3
M  V30 3 1 3 4
M  V30 4 1 4 5
M  V30 5 3 5 6
M  V30 6 1 4 7
M  V30 7 2 7 8
M  V30 8 1 7 9
M  V30 9 2 9 10
M  V30 10 1 10 11
M  V30 11 2 11 12
M  V30 12 1 12 13
M  V30 13 2 3 14
M  V30 14 1 14 15
M  V30 15 2 15 16
M  V30 16 1 16 17
M  V30 17 2 17 18
M  V30 18 1 18 19
M  V30 19 2 19 20
M  V30 20 1 20 2
M  V30 21 1 13 9
M  V30 22 1 20 15
M  V30 23 1 1 21
M  V30 24 1 1 22
M  V30 25 1 1 23
M  V30 26 1 4 24
M  V30 27 1 10 25
M  V30 28 1 11 26
M  V30 29 1 12 27
M  V30 30 1 16 28
M  V30 31 1 17 29
M  V30 32 1 18 30
M  V30 33 1 19 31
M  V30 END BOND
M  V30 END CTAB
M  END
>  <Dataset>  (817) 
ChEMBL_Kinases

>  <Ligand_Instance>  (817) 
nan

>  <PDB_ID>  (817) 
nan

>  <Standardized_SMILES>  (817) 
Cn1c(C(C#N)C(=O)c2ccco2)nc2ccccc21

>  <Name>  (817) 
nan

>  <Pocket>  (817) 
nan

>  <ATP_Site>  (817) 
nan

>  <Peripheral>  (817) 
nan

>  <Num_H_Atoms_ProtBoundConf>  (817) 
nan

>  <Num_Resolved_Atoms>  (817) 
nan

>  <Num_Not_Resolved_Atoms>  (817) 
nan

$$$$
CHEMBL1418485
     RDKit          3D

  0  0  0  0  0  0  0  0  0  0999 V3000
M  V30 BEGIN CTAB
M  V30 COUNTS 41 44 0 0 0
M  V30 BEGIN ATOM
M  V30 1 F -0.500494 -6.534700 0.486275 0
M  V30 2 C 0.570585 -5.729884 0.286325 0
M  V30 3 C 1.789330 -6.069730 0.850396 0
M  V30 4 C 2.852749 -5.194472 0.604576 0
M  V30 5 C 2.701072 -4.044971 -0.162841 0
M  V30 6 C 1.483728 -3.731294 -0.709892 0
M  V30 7 C 1.212674 -2.549199 -1.532500 0
M  V30 8 N 0.798065 -1.431774 -0.688283 0
M  V30 9 C 0.490490 -0.207138 -1.340061 0
M  V30 10 N 0.575158 -0.083815 -2.675008 0
M  V30 11 C 0.295633 1.049429 -3.342989 0
M  V30 12 N -0.101416 2.168514 -2.674749 0
M  V30 13 C -0.218175 2.144753 -1.317097 0
M  V30 14 C -0.617694 3.256008 -0.604590 0
M  V30 15 C -0.734584 3.225091 0.770482 0
M  V30 16 C -0.433555 2.028918 1.410548 0
M  V30 17 C -0.555815 1.987297 2.872635 0
M  V30 18 C -0.912997 0.779732 3.449923 0
M  V30 19 C -1.045127 0.669362 4.818524 0
M  V30 20 C -0.829480 1.746567 5.664468 0
M  V30 21 C -0.476160 2.925228 5.038859 0
M  V30 22 Cl -0.187286 4.325409 6.027936 0
M  V30 23 C -0.331397 3.086003 3.676071 0
M  V30 24 C -0.036856 0.936900 0.666555 0
M  V30 25 C 0.085894 0.947654 -0.706702 0
M  V30 26 C 0.410525 -4.578061 -0.484905 0
M  V30 27 H 1.890694 -6.959852 1.440245 0
M  V30 28 H 3.805258 -5.450323 1.039497 0
M  V30 29 H 3.535292 -3.393199 -0.333770 0
M  V30 30 H 0.444157 -2.777827 -2.293938 0
M  V30 31 H 2.142089 -2.268144 -2.102794 0
M  V30 32 H 0.753170 -1.598537 0.333978 0
M  V30 33 H 0.405771 1.011587 -4.420958 0
M  V30 34 H -0.839055 4.166569 -1.174595 0
M  V30 35 H -1.045445 4.096042 1.304779 0
M  V30 36 H -1.096702 -0.099235 2.858529 0
M  V30 37 H -1.329846 -0.302329 5.239801 0
M  V30 38 H -0.927564 1.680718 6.739869 0
M  V30 39 H -0.060688 3.987151 3.185842 0
M  V30 40 H 0.169975 0.073508 1.245763 0
M  V30 41 H -0.579135 -4.384005 -0.891123 0
M  V30 END ATOM
M  V30 BEGIN BOND
M  V30 1 1 1 2
M  V30 2 2 2 3
M  V30 3 1 3 4
M  V30 4 2 4 5
M  V30 5 1 5 6
M  V30 6 1 6 7
M  V30 7 1 7 8
M  V30 8 1 8 9
M  V30 9 2 9 10
M  V30 10 1 10 11
M  V30 11 2 11 12
M  V30 12 1 12 13
M  V30 13 2 13 14
M  V30 14 1 14 15
M  V30 15 2 15 16
M  V30 16 1 16 17
M  V30 17 2 17 18
M  V30 18 1 18 19
M  V30 19 2 19 20
M  V30 20 1 20 21
M  V30 21 1 21 22
M  V30 22 2 21 23
M  V30 23 1 16 24
M  V30 24 2 24 25
M  V30 25 2 6 26
M  V30 26 1 26 2
M  V30 27 1 25 9
M  V30 28 1 25 13
M  V30 29 1 23 17
M  V30 30 1 3 27
M  V30 31 1 4 28
M  V30 32 1 5 29
M  V30 33 1 7 30
M  V30 34 1 7 31
M  V30 35 1 8 32
M  V30 36 1 11 33
M  V30 37 1 14 34
M  V30 38 1 15 35
M  V30 39 1 18 36
M  V30 40 1 19 37
M  V30 41 1 20 38
M  V30 42 1 23 39
M  V30 43 1 24 40
M  V30 44 1 26 41
M  V30 END BOND
M  V30 END CTAB
M  END
>  <Dataset>  (818) 
ChEMBL_Kinases

>  <Ligand_Instance>  (818) 
nan

>  <PDB_ID>  (818) 
nan

>  <Standardized_SMILES>  (818) 
Fc1cccc(CNc2ncnc3ccc(-c4cccc(Cl)c4)cc23)c1

>  <Name>  (818) 
nan

>  <Pocket>  (818) 
nan

>  <ATP_Site>  (818) 
nan

>  <Peripheral>  (818) 
nan

>  <Num_H_Atoms_ProtBoundConf>  (818) 
nan

>  <Num_Resolved_Atoms>  (818) 
nan

>  <Num_Not_Resolved_Atoms>  (818) 
nan

$$$$
CHEMBL1418407
     RDKit          3D

  0  0  0  0  0  0  0  0  0  0999 V3000
M  V30 BEGIN CTAB
M  V30 COUNTS 21 23 0 0 0
M  V30 BEGIN ATOM
M  V30 1 C 0.831666 0.860172 4.996799 0
M  V30 2 C 0.841361 0.183120 3.632242 0
M  V30 3 N 0.647671 0.587613 2.569388 0
M  V30 4 C 0.668858 -0.045835 1.416272 0
M  V30 5 C 0.959431 -1.382478 1.438376 0
M  V30 6 N 0.955083 -1.947125 0.178456 0
M  V30 7 C 0.651075 -0.901718 -0.605262 0
M  V30 8 C 0.533807 -0.995170 -1.977720 0
M  V30 9 C 0.216088 0.127515 -2.731858 0
M  V30 10 C 0.028862 1.321710 -2.028740 0
M  V30 11 Br -0.410988 2.890298 -3.042047 0
M  V30 12 C 0.149881 1.394084 -0.664258 0
M  V30 13 C 0.466947 0.273972 0.088899 0
M  V30 14 S 1.200187 -1.649146 3.268117 0
M  V30 15 H 0.925979 0.089037 5.788847 0
M  V30 16 H -0.184917 1.294739 5.129968 0
M  V30 17 H 1.607534 1.621094 5.052150 0
M  V30 18 H 1.163986 -2.944726 0.115455 0
M  V30 19 H 0.672490 -1.906418 -2.556037 0
M  V30 20 H 0.114583 0.105753 -3.792280 0
M  V30 21 H 0.008256 2.308673 -0.108209 0
M  V30 END ATOM
M  V30 BEGIN BOND
M  V30 1 1 1 2
M  V30 2 2 2 3
M  V30 3 1 3 4
M  V30 4 2 4 5
M  V30 5 1 5 6
M  V30 6 1 6 7
M  V30 7 2 7 8
M  V30 8 1 8 9
M  V30 9 2 9 10
M  V30 10 1 10 11
M  V30 11 1 10 12
M  V30 12 2 12 13
M  V30 13 1 5 14
M  V30 14 1 14 2
M  V30 15 1 13 4
M  V30 16 1 13 7
M  V30 17 1 1 15
M  V30 18 1 1 16
M  V30 19 1 1 17
M  V30 20 1 6 18
M  V30 21 1 8 19
M  V30 22 1 9 20
M  V30 23 1 12 21
M  V30 END BOND
M  V30 END CTAB
M  END
>  <Dataset>  (819) 
ChEMBL_Kinases

>  <Ligand_Instance>  (819) 
nan

>  <PDB_ID>  (819) 
nan

>  <Standardized_SMILES>  (819) 
Cc1nc2c([nH]c3ccc(Br)cc32)s1

>  <Name>  (819) 
nan

>  <Pocket>  (819) 
nan

>  <ATP_Site>  (819) 
nan

>  <Peripheral>  (819) 
nan

>  <Num_H_Atoms_ProtBoundConf>  (819) 
nan

>  <Num_Resolved_Atoms>  (819) 
nan

>  <Num_Not_Resolved_Atoms>  (819) 
nan

$$$$
CHEMBL1418387
     RDKit          3D

  0  0  0  0  0  0  0  0  0  0999 V3000
M  V30 BEGIN CTAB
M  V30 COUNTS 36 39 0 0 0
M  V30 BEGIN ATOM
M  V30 1 C -0.306436 -2.048988 3.901828 0
M  V30 2 N 0.248969 -2.459942 2.747278 0
M  V30 3 C 0.366156 -1.662163 1.673663 0
M  V30 4 N 0.971238 -2.225097 0.514526 0
M  V30 5 C 0.269549 -2.345419 -0.776099 0
M  V30 6 C 0.232266 -3.833359 -1.134784 0
M  V30 7 O 1.516519 -4.372079 -1.146735 0
M  V30 8 C 2.122186 -4.253251 0.103518 0
M  V30 9 C 2.327205 -2.771517 0.358468 0
M  V30 10 C -0.108710 -0.379613 1.787275 0
M  V30 11 C 0.006820 0.449362 0.691475 0
M  V30 12 C -0.455147 1.751308 0.753884 0
M  V30 13 C -0.352159 2.662489 -0.381686 0
M  V30 14 C -0.396592 2.406626 -1.743140 0
M  V30 15 C -0.244717 3.668482 -2.330432 0
M  V30 16 O -0.122118 4.586121 -1.404461 0
M  V30 17 C -0.178995 4.039009 -0.191102 0
M  V30 18 C -1.034541 2.188975 1.950148 0
M  V30 19 C -1.126182 1.324398 3.012800 0
M  V30 20 C -0.674868 0.021414 2.980603 0
M  V30 21 N -0.787065 -0.777923 4.041273 0
M  V30 22 H -0.417699 -2.666691 4.790690 0
M  V30 23 H -0.761810 -1.986963 -0.729789 0
M  V30 24 H 0.889048 -1.853922 -1.544730 0
M  V30 25 H -0.464031 -4.362404 -0.470914 0
M  V30 26 H -0.155215 -3.899009 -2.171265 0
M  V30 27 H 3.057269 -4.828791 0.122970 0
M  V30 28 H 1.443393 -4.613872 0.914307 0
M  V30 29 H 2.915371 -2.574143 1.279539 0
M  V30 30 H 2.806816 -2.313039 -0.540001 0
M  V30 31 H 0.455626 0.101037 -0.227385 0
M  V30 32 H -0.521980 1.433766 -2.175188 0
M  V30 33 H -0.234197 3.830308 -3.407793 0
M  V30 34 H -0.091737 4.677194 0.665783 0
M  V30 35 H -1.388111 3.218832 1.966161 0
M  V30 36 H -1.592456 1.741992 3.914297 0
M  V30 END ATOM
M  V30 BEGIN BOND
M  V30 1 2 1 2
M  V30 2 1 2 3
M  V30 3 1 3 4
M  V30 4 1 4 5
M  V30 5 1 5 6
M  V30 6 1 6 7
M  V30 7 1 7 8
M  V30 8 1 8 9
M  V30 9 2 3 10
M  V30 10 1 10 11
M  V30 11 2 11 12
M  V30 12 1 12 13
M  V30 13 1 13 14
M  V30 14 2 14 15
M  V30 15 1 15 16
M  V30 16 1 16 17
M  V30 17 1 12 18
M  V30 18 2 18 19
M  V30 19 1 19 20
M  V30 20 2 20 21
M  V30 21 1 21 1
M  V30 22 1 9 4
M  V30 23 1 20 10
M  V30 24 2 17 13
M  V30 25 1 1 22
M  V30 26 1 5 23
M  V30 27 1 5 24
M  V30 28 1 6 25
M  V30 29 1 6 26
M  V30 30 1 8 27
M  V30 31 1 8 28
M  V30 32 1 9 29
M  V30 33 1 9 30
M  V30 34 1 11 31
M  V30 35 1 14 32
M  V30 36 1 15 33
M  V30 37 1 17 34
M  V30 38 1 18 35
M  V30 39 1 19 36
M  V30 END BOND
M  V30 END CTAB
M  END
>  <Dataset>  (820) 
ChEMBL_Kinases

>  <Ligand_Instance>  (820) 
nan

>  <PDB_ID>  (820) 
nan

>  <Standardized_SMILES>  (820) 
c1nc(N2CCOCC2)c2cc(-c3ccoc3)ccc2n1

>  <Name>  (820) 
nan

>  <Pocket>  (820) 
nan

>  <ATP_Site>  (820) 
nan

>  <Peripheral>  (820) 
nan

>  <Num_H_Atoms_ProtBoundConf>  (820) 
nan

>  <Num_Resolved_Atoms>  (820) 
nan

>  <Num_Not_Resolved_Atoms>  (820) 
nan

$$$$
CHEMBL1418238
     RDKit          3D

  0  0  0  0  0  0  0  0  0  0999 V3000
M  V30 BEGIN CTAB
M  V30 COUNTS 41 43 0 0 0
M  V30 BEGIN ATOM
M  V30 1 C 0.771680 -5.127883 -0.292978 0
M  V30 2 C 2.255209 -4.881024 -0.311024 0
M  V30 3 C 2.714272 -4.622914 1.119073 0
M  V30 4 C 2.635831 -3.731906 -1.215158 0
M  V30 5 C 2.005586 -2.469420 -0.800707 0
M  V30 6 O 1.273716 -2.561699 0.213252 0
M  V30 7 N 2.172720 -1.226102 -1.450048 0
M  V30 8 C 1.605901 0.026450 -1.117315 0
M  V30 9 C 1.921114 1.095039 -1.905745 0
M  V30 10 C 1.422128 2.357181 -1.667373 0
M  V30 11 C 0.570914 2.617133 -0.613584 0
M  V30 12 C 0.242261 1.547789 0.193144 0
M  V30 13 C -0.654582 1.756931 1.325515 0
M  V30 14 N -1.074742 0.830700 2.206142 0
M  V30 15 C -1.897972 1.406284 3.114407 0
M  V30 16 C -2.576897 0.895418 4.200350 0
M  V30 17 C -3.351947 1.742063 4.951250 0
M  V30 18 C -3.453301 3.091900 4.625850 0
M  V30 19 C -2.750237 3.539657 3.529079 0
M  V30 20 C -1.951665 2.749911 2.727152 0
M  V30 21 N -1.190486 2.950844 1.636721 0
M  V30 22 C 0.767651 0.304142 -0.086993 0
M  V30 23 H 0.249267 -4.629571 -1.142484 0
M  V30 24 H 0.340409 -4.767578 0.664049 0
M  V30 25 H 0.613439 -6.221158 -0.428274 0
M  V30 26 H 2.808166 -5.767024 -0.676246 0
M  V30 27 H 3.211350 -5.524383 1.528496 0
M  V30 28 H 3.449404 -3.772211 1.137876 0
M  V30 29 H 1.867952 -4.412760 1.801997 0
M  V30 30 H 3.744407 -3.630195 -1.151138 0
M  V30 31 H 2.395211 -4.025921 -2.252106 0
M  V30 32 H 2.808082 -1.321486 -2.270319 0
M  V30 33 H 2.586238 0.967870 -2.755108 0
M  V30 34 H 1.711722 3.155888 -2.329147 0
M  V30 35 H 0.199934 3.616893 -0.457351 0
M  V30 36 H -2.457568 -0.145877 4.396141 0
M  V30 37 H -3.885542 1.356896 5.799148 0
M  V30 38 H -4.069250 3.732926 5.233478 0
M  V30 39 H -2.851158 4.593649 3.304224 0
M  V30 40 H -1.092047 3.888122 1.184173 0
M  V30 41 H 0.465663 -0.480624 0.586661 0
M  V30 END ATOM
M  V30 BEGIN BOND
M  V30 1 1 1 2
M  V30 2 1 2 3
M  V30 3 1 2 4
M  V30 4 1 4 5
M  V30 5 2 5 6
M  V30 6 1 5 7
M  V30 7 1 7 8
M  V30 8 2 8 9
M  V30 9 1 9 10
M  V30 10 2 10 11
M  V30 11 1 11 12
M  V30 12 1 12 13
M  V30 13 2 13 14
M  V30 14 1 14 15
M  V30 15 2 15 16
M  V30 16 1 16 17
M  V30 17 2 17 18
M  V30 18 1 18 19
M  V30 19 2 19 20
M  V30 20 1 20 21
M  V30 21 2 12 22
M  V30 22 1 22 8
M  V30 23 1 21 13
M  V30 24 1 20 15
M  V30 25 1 1 23
M  V30 26 1 1 24
M  V30 27 1 1 25
M  V30 28 1 2 26
M  V30 29 1 3 27
M  V30 30 1 3 28
M  V30 31 1 3 29
M  V30 32 1 4 30
M  V30 33 1 4 31
M  V30 34 1 7 32
M  V30 35 1 9 33
M  V30 36 1 10 34
M  V30 37 1 11 35
M  V30 38 1 16 36
M  V30 39 1 17 37
M  V30 40 1 18 38
M  V30 41 1 19 39
M  V30 42 1 21 40
M  V30 43 1 22 41
M  V30 END BOND
M  V30 END CTAB
M  END
>  <Dataset>  (821) 
ChEMBL_Kinases

>  <Ligand_Instance>  (821) 
nan

>  <PDB_ID>  (821) 
nan

>  <Standardized_SMILES>  (821) 
CC(C)CC(=O)Nc1cccc(-c2nc3ccccc3[nH]2)c1

>  <Name>  (821) 
nan

>  <Pocket>  (821) 
nan

>  <ATP_Site>  (821) 
nan

>  <Peripheral>  (821) 
nan

>  <Num_H_Atoms_ProtBoundConf>  (821) 
nan

>  <Num_Resolved_Atoms>  (821) 
nan

>  <Num_Not_Resolved_Atoms>  (821) 
nan

$$$$
CHEMBL1418225
     RDKit          3D

  0  0  0  0  0  0  0  0  0  0999 V3000
M  V30 BEGIN CTAB
M  V30 COUNTS 42 45 0 0 0
M  V30 BEGIN ATOM
M  V30 1 C 0.320513 -6.226164 4.082874 0
M  V30 2 O 0.802094 -4.884773 4.147155 0
M  V30 3 C 0.484818 -3.944091 3.189277 0
M  V30 4 C 0.968964 -2.659206 3.285477 0
M  V30 5 C 0.613873 -1.765478 2.296040 0
M  V30 6 C -0.199372 -2.023268 1.183267 0
M  V30 7 C -0.348192 -0.945902 0.275191 0
M  V30 8 N 0.673145 -0.043119 0.176591 0
M  V30 9 C 0.667660 1.041358 -0.612102 0
M  V30 10 N 1.731208 1.970305 -0.709862 0
M  V30 11 C 1.714704 3.135660 -1.568891 0
M  V30 12 C 1.717101 4.380254 -0.697771 0
M  V30 13 O 2.978941 4.448673 -0.144525 0
M  V30 14 C 3.245819 3.354733 0.630156 0
M  V30 15 C 3.001195 2.038637 -0.067323 0
M  V30 16 N -0.400667 1.342307 -1.409706 0
M  V30 17 C -1.488540 0.537285 -1.413710 0
M  V30 18 N -2.707961 0.519570 -2.010158 0
M  V30 19 N -3.375500 -0.557433 -1.553155 0
M  V30 20 C -2.614070 -1.217984 -0.689033 0
M  V30 21 N -3.198044 -2.347849 -0.081682 0
M  V30 22 C -1.400953 -0.615090 -0.531106 0
M  V30 23 C -0.599921 -3.328428 1.220213 0
M  V30 24 C -0.322474 -4.305435 2.134946 0
M  V30 25 H -0.755990 -6.269676 4.327646 0
M  V30 26 H 0.475984 -6.616945 3.035504 0
M  V30 27 H 0.856427 -6.891661 4.758247 0
M  V30 28 H 1.597463 -2.431732 4.131233 0
M  V30 29 H 1.061137 -0.781940 2.499191 0
M  V30 30 H 1.557283 -0.103677 0.693818 0
M  V30 31 H 2.533001 3.164231 -2.308494 0
M  V30 32 H 0.749711 3.189362 -2.153685 0
M  V30 33 H 1.503105 5.235644 -1.342541 0
M  V30 34 H 0.917727 4.252689 0.059702 0
M  V30 35 H 2.590919 3.406187 1.536388 0
M  V30 36 H 4.282473 3.443120 1.007221 0
M  V30 37 H 3.103207 1.206035 0.657098 0
M  V30 38 H 3.845216 1.953273 -0.813724 0
M  V30 39 H -3.300536 -2.282433 0.971557 0
M  V30 40 H -3.524479 -3.210522 -0.571688 0
M  V30 41 H -1.177416 -3.659198 0.378369 0
M  V30 42 H -0.714683 -5.299867 2.033706 0
M  V30 END ATOM
M  V30 BEGIN BOND
M  V30 1 1 1 2
M  V30 2 1 2 3
M  V30 3 2 3 4
M  V30 4 1 4 5
M  V30 5 2 5 6
M  V30 6 1 6 7
M  V30 7 1 7 8
M  V30 8 1 8 9
M  V30 9 1 9 10
M  V30 10 1 10 11
M  V30 11 1 11 12
M  V30 12 1 12 13
M  V30 13 1 13 14
M  V30 14 1 14 15
M  V30 15 2 9 16
M  V30 16 1 16 17
M  V30 17 2 17 18
M  V30 18 1 18 19
M  V30 19 2 19 20
M  V30 20 1 20 21
M  V30 21 1 20 22
M  V30 22 1 6 23
M  V30 23 2 23 24
M  V30 24 1 24 3
M  V30 25 2 22 7
M  V30 26 1 15 10
M  V30 27 1 22 17
M  V30 28 1 1 25
M  V30 29 1 1 26
M  V30 30 1 1 27
M  V30 31 1 4 28
M  V30 32 1 5 29
M  V30 33 1 8 30
M  V30 34 1 11 31
M  V30 35 1 11 32
M  V30 36 1 12 33
M  V30 37 1 12 34
M  V30 38 1 14 35
M  V30 39 1 14 36
M  V30 40 1 15 37
M  V30 41 1 15 38
M  V30 42 1 21 39
M  V30 43 1 21 40
M  V30 44 1 23 41
M  V30 45 1 24 42
M  V30 END BOND
M  V30 END CTAB
M  END
>  <Dataset>  (822) 
ChEMBL_Kinases

>  <Ligand_Instance>  (822) 
nan

>  <PDB_ID>  (822) 
nan

>  <Standardized_SMILES>  (822) 
COc1ccc(-c2[nH]c(N3CCOCC3)nc3nnc(N)c2-3)cc1

>  <Name>  (822) 
nan

>  <Pocket>  (822) 
nan

>  <ATP_Site>  (822) 
nan

>  <Peripheral>  (822) 
nan

>  <Num_H_Atoms_ProtBoundConf>  (822) 
nan

>  <Num_Resolved_Atoms>  (822) 
nan

>  <Num_Not_Resolved_Atoms>  (822) 
nan

$$$$
CHEMBL1418182
     RDKit          3D

  0  0  0  0  0  0  0  0  0  0999 V3000
M  V30 BEGIN CTAB
M  V30 COUNTS 46 46 0 0 0
M  V30 BEGIN ATOM
M  V30 1 C -0.860109 -2.323372 4.235634 0
M  V30 2 O -1.647542 -2.872522 3.215752 0
M  V30 3 C -1.341994 -2.689067 1.875909 0
M  V30 4 C -0.274883 -1.976497 1.407327 0
M  V30 5 C -0.039421 -1.840248 0.074318 0
M  V30 6 C 1.077024 -1.096056 -0.494102 0
M  V30 7 O 1.230960 -1.013595 -1.747961 0
M  V30 8 N 2.029884 -0.438438 0.331556 0
M  V30 9 C 3.156190 0.313176 -0.199306 0
M  V30 10 C 2.795702 1.451693 -1.064990 0
M  V30 11 C 1.935578 2.531856 -0.590197 0
M  V30 12 C 2.287172 3.388541 0.548261 0
M  V30 13 C 2.418776 2.676491 1.858225 0
M  V30 14 C 2.744768 3.675609 2.959170 0
M  V30 15 O 2.864631 4.905418 2.695781 0
M  V30 16 O 2.901064 3.178667 4.243138 0
M  V30 17 C -0.932113 -2.457511 -0.773911 0
M  V30 18 C -2.021245 -3.185747 -0.352029 0
M  V30 19 O -2.898013 -3.793429 -1.268929 0
M  V30 20 C -2.618362 -3.628115 -2.647244 0
M  V30 21 C -2.233804 -3.306243 0.997974 0
M  V30 22 O -3.335911 -4.043564 1.401148 0
M  V30 23 C -4.584508 -3.428472 1.594194 0
M  V30 24 H 0.217493 -2.391043 3.949926 0
M  V30 25 H -1.090856 -1.244766 4.421401 0
M  V30 26 H -0.980949 -2.879776 5.190620 0
M  V30 27 H 0.383808 -1.519676 2.112518 0
M  V30 28 H 1.964222 -0.464989 1.372540 0
M  V30 29 H 3.961192 0.416142 0.514180 0
M  V30 30 H 3.612712 -0.465125 -0.944610 0
M  V30 31 H 2.319992 1.037553 -2.000622 0
M  V30 32 H 3.754520 1.912461 -1.444740 0
M  V30 33 H 1.795825 3.230257 -1.494803 0
M  V30 34 H 0.867589 2.154353 -0.460953 0
M  V30 35 H 1.485034 4.178547 0.719004 0
M  V30 36 H 3.205179 4.020593 0.357753 0
M  V30 37 H 1.497859 2.193485 2.194278 0
M  V30 38 H 3.246576 1.968448 1.904937 0
M  V30 39 H 3.132605 3.796559 5.021464 0
M  V30 40 H -0.771515 -2.367334 -1.844108 0
M  V30 41 H -2.688973 -2.560616 -2.945003 0
M  V30 42 H -1.577284 -3.975916 -2.817287 0
M  V30 43 H -3.281204 -4.276604 -3.228225 0
M  V30 44 H -4.500847 -2.382771 1.912326 0
M  V30 45 H -5.104173 -3.985494 2.415254 0
M  V30 46 H -5.214349 -3.469333 0.682333 0
M  V30 END ATOM
M  V30 BEGIN BOND
M  V30 1 1 1 2
M  V30 2 1 2 3
M  V30 3 2 3 4
M  V30 4 1 4 5
M  V30 5 1 5 6
M  V30 6 2 6 7
M  V30 7 1 6 8
M  V30 8 1 8 9
M  V30 9 1 9 10
M  V30 10 1 10 11
M  V30 11 1 11 12
M  V30 12 1 12 13
M  V30 13 1 13 14
M  V30 14 2 14 15
M  V30 15 1 14 16
M  V30 16 2 5 17
M  V30 17 1 17 18
M  V30 18 1 18 19
M  V30 19 1 19 20
M  V30 20 2 18 21
M  V30 21 1 21 22
M  V30 22 1 22 23
M  V30 23 1 21 3
M  V30 24 1 1 24
M  V30 25 1 1 25
M  V30 26 1 1 26
M  V30 27 1 4 27
M  V30 28 1 8 28
M  V30 29 1 9 29
M  V30 30 1 9 30
M  V30 31 1 10 31
M  V30 32 1 10 32
M  V30 33 1 11 33
M  V30 34 1 11 34
M  V30 35 1 12 35
M  V30 36 1 12 36
M  V30 37 1 13 37
M  V30 38 1 13 38
M  V30 39 1 16 39
M  V30 40 1 17 40
M  V30 41 1 20 41
M  V30 42 1 20 42
M  V30 43 1 20 43
M  V30 44 1 23 44
M  V30 45 1 23 45
M  V30 46 1 23 46
M  V30 END BOND
M  V30 END CTAB
M  END
>  <Dataset>  (823) 
ChEMBL_Kinases

>  <Ligand_Instance>  (823) 
nan

>  <PDB_ID>  (823) 
nan

>  <Standardized_SMILES>  (823) 
COc1cc(C(=O)NCCCCCC(=O)O)cc(OC)c1OC

>  <Name>  (823) 
CAPOBENIC ACID

>  <Pocket>  (823) 
nan

>  <ATP_Site>  (823) 
nan

>  <Peripheral>  (823) 
nan

>  <Num_H_Atoms_ProtBoundConf>  (823) 
nan

>  <Num_Resolved_Atoms>  (823) 
nan

>  <Num_Not_Resolved_Atoms>  (823) 
nan

$$$$
CHEMBL1418088
     RDKit          3D

  0  0  0  0  0  0  0  0  0  0999 V3000
M  V30 BEGIN CTAB
M  V30 COUNTS 48 50 0 0 0
M  V30 BEGIN ATOM
M  V30 1 O 0.498541 -2.450816 0.352887 0
M  V30 2 C 0.705591 -1.951402 -0.769772 0
M  V30 3 C 0.550185 -3.109348 -1.668485 0
M  V30 4 N 0.236850 -4.313056 -0.954889 0
M  V30 5 C 1.274567 -4.836274 -0.126954 0
M  V30 6 C 0.695179 -5.067621 1.247886 0
M  V30 7 C -0.766628 -4.776895 1.160909 0
M  V30 8 C -0.994821 -4.307543 -0.239117 0
M  V30 9 N 0.997302 -0.603706 -0.927733 0
M  V30 10 C 1.156843 0.570900 -0.133962 0
M  V30 11 C 0.003104 1.082527 0.644641 0
M  V30 12 C 0.480886 2.337767 1.354167 0
M  V30 13 C 1.043995 2.162932 2.623414 0
M  V30 14 C 1.531013 3.169424 3.423824 0
M  V30 15 C 1.448855 4.455285 2.913996 0
M  V30 16 C 0.900849 4.668515 1.667173 0
M  V30 17 C 0.422237 3.634376 0.892730 0
M  V30 18 C -0.578356 0.225150 1.704686 0
M  V30 19 C -1.880895 -0.423510 1.311713 0
M  V30 20 O -2.869933 0.509023 1.012823 0
M  V30 21 C -2.353743 1.730889 0.601560 0
M  V30 22 C -1.160250 1.478389 -0.254040 0
M  V30 23 H -0.286539 -2.969242 -2.410888 0
M  V30 24 H 1.449186 -3.331905 -2.287383 0
M  V30 25 H 1.653219 -5.828268 -0.515338 0
M  V30 26 H 2.159042 -4.187654 -0.011298 0
M  V30 27 H 1.202421 -4.487764 2.048865 0
M  V30 28 H 0.825440 -6.141590 1.556032 0
M  V30 29 H -1.057630 -4.047076 1.945892 0
M  V30 30 H -1.372041 -5.695471 1.394742 0
M  V30 31 H -1.652549 -5.073858 -0.746337 0
M  V30 32 H -1.545811 -3.347084 -0.323143 0
M  V30 33 H 1.123228 -0.511441 -1.989718 0
M  V30 34 H 2.073964 0.438565 0.510788 0
M  V30 35 H 1.474860 1.419563 -0.809453 0
M  V30 36 H 1.127167 1.175432 3.054928 0
M  V30 37 H 1.952224 2.990724 4.386660 0
M  V30 38 H 1.833413 5.272224 3.538854 0
M  V30 39 H 0.830820 5.667107 1.258628 0
M  V30 40 H -0.014006 3.751703 -0.086090 0
M  V30 41 H -0.835132 0.859432 2.621166 0
M  V30 42 H 0.113124 -0.509666 2.073866 0
M  V30 43 H -2.241055 -0.999939 2.189092 0
M  V30 44 H -1.834200 -1.099873 0.460474 0
M  V30 45 H -3.154893 2.297141 0.083634 0
M  V30 46 H -2.108353 2.268115 1.552563 0
M  V30 47 H -0.925768 2.211257 -1.015182 0
M  V30 48 H -1.387475 0.527350 -0.824083 0
M  V30 END ATOM
M  V30 BEGIN BOND
M  V30 1 2 1 2
M  V30 2 1 2 3
M  V30 3 1 3 4
M  V30 4 1 4 5
M  V30 5 1 5 6
M  V30 6 1 6 7
M  V30 7 1 7 8
M  V30 8 1 2 9
M  V30 9 1 9 10
M  V30 10 1 10 11
M  V30 11 1 11 12
M  V30 12 2 12 13
M  V30 13 1 13 14
M  V30 14 2 14 15
M  V30 15 1 15 16
M  V30 16 2 16 17
M  V30 17 1 11 18
M  V30 18 1 18 19
M  V30 19 1 19 20
M  V30 20 1 20 21
M  V30 21 1 21 22
M  V30 22 1 8 4
M  V30 23 1 22 11
M  V30 24 1 17 12
M  V30 25 1 3 23
M  V30 26 1 3 24
M  V30 27 1 5 25
M  V30 28 1 5 26
M  V30 29 1 6 27
M  V30 30 1 6 28
M  V30 31 1 7 29
M  V30 32 1 7 30
M  V30 33 1 8 31
M  V30 34 1 8 32
M  V30 35 1 9 33
M  V30 36 1 10 34
M  V30 37 1 10 35
M  V30 38 1 13 36
M  V30 39 1 14 37
M  V30 40 1 15 38
M  V30 41 1 16 39
M  V30 42 1 17 40
M  V30 43 1 18 41
M  V30 44 1 18 42
M  V30 45 1 19 43
M  V30 46 1 19 44
M  V30 47 1 21 45
M  V30 48 1 21 46
M  V30 49 1 22 47
M  V30 50 1 22 48
M  V30 END BOND
M  V30 END CTAB
M  END
>  <Dataset>  (824) 
ChEMBL_Kinases

>  <Ligand_Instance>  (824) 
nan

>  <PDB_ID>  (824) 
nan

>  <Standardized_SMILES>  (824) 
O=C(CN1CCCC1)NCC1(c2ccccc2)CCOCC1

>  <Name>  (824) 
nan

>  <Pocket>  (824) 
nan

>  <ATP_Site>  (824) 
nan

>  <Peripheral>  (824) 
nan

>  <Num_H_Atoms_ProtBoundConf>  (824) 
nan

>  <Num_Resolved_Atoms>  (824) 
nan

>  <Num_Not_Resolved_Atoms>  (824) 
nan

$$$$
CHEMBL1417991
     RDKit          3D

  0  0  0  0  0  0  0  0  0  0999 V3000
M  V30 BEGIN CTAB
M  V30 COUNTS 26 27 0 0 0
M  V30 BEGIN ATOM
M  V30 1 Cl -0.246805 -2.335700 3.400828 0
M  V30 2 C 1.039816 -1.798201 2.313797 0
M  V30 3 C 2.265293 -1.669336 2.981191 0
M  V30 4 C 3.376578 -1.260405 2.288201 0
M  V30 5 Br 5.093869 -1.045484 3.071496 0
M  V30 6 C 3.283306 -0.978967 0.942283 0
M  V30 7 C 2.065121 -1.117201 0.323327 0
M  V30 8 C 0.923771 -1.516198 0.942948 0
M  V30 9 O -0.354737 -1.723616 0.568549 0
M  V30 10 C -1.009063 -1.596249 -0.634895 0
M  V30 11 C -1.024565 -0.206821 -1.231366 0
M  V30 12 N -1.684037 0.713723 -0.302169 0
M  V30 13 C -0.983515 1.381008 0.642479 0
M  V30 14 C -1.824847 2.178903 1.385859 0
M  V30 15 N -3.052214 1.974882 0.864004 0
M  V30 16 C -2.972815 1.095966 -0.149760 0
M  V30 17 H 2.431129 -1.867324 4.028960 0
M  V30 18 H 4.113364 -0.653253 0.334506 0
M  V30 19 H 1.932870 -0.921158 -0.710445 0
M  V30 20 H -2.081697 -1.934332 -0.513594 0
M  V30 21 H -0.609434 -2.267777 -1.431837 0
M  V30 22 H -1.671544 -0.188286 -2.157906 0
M  V30 23 H -0.012349 0.158154 -1.462693 0
M  V30 24 H 0.074586 1.334687 0.831456 0
M  V30 25 H -1.569460 2.826252 2.204731 0
M  V30 26 H -3.726661 0.679803 -0.811806 0
M  V30 END ATOM
M  V30 BEGIN BOND
M  V30 1 1 1 2
M  V30 2 2 2 3
M  V30 3 1 3 4
M  V30 4 1 4 5
M  V30 5 2 4 6
M  V30 6 1 6 7
M  V30 7 2 7 8
M  V30 8 1 8 9
M  V30 9 1 9 10
M  V30 10 1 10 11
M  V30 11 1 11 12
M  V30 12 1 12 13
M  V30 13 2 13 14
M  V30 14 1 14 15
M  V30 15 2 15 16
M  V30 16 1 8 2
M  V30 17 1 16 12
M  V30 18 1 3 17
M  V30 19 1 6 18
M  V30 20 1 7 19
M  V30 21 1 10 20
M  V30 22 1 10 21
M  V30 23 1 11 22
M  V30 24 1 11 23
M  V30 25 1 13 24
M  V30 26 1 14 25
M  V30 27 1 16 26
M  V30 END BOND
M  V30 END CTAB
M  END
>  <Dataset>  (825) 
ChEMBL_Kinases

>  <Ligand_Instance>  (825) 
nan

>  <PDB_ID>  (825) 
nan

>  <Standardized_SMILES>  (825) 
Clc1cc(Br)ccc1OCCn1ccnc1

>  <Name>  (825) 
nan

>  <Pocket>  (825) 
nan

>  <ATP_Site>  (825) 
nan

>  <Peripheral>  (825) 
nan

>  <Num_H_Atoms_ProtBoundConf>  (825) 
nan

>  <Num_Resolved_Atoms>  (825) 
nan

>  <Num_Not_Resolved_Atoms>  (825) 
nan

$$$$
CHEMBL1417970
     RDKit          3D

  0  0  0  0  0  0  0  0  0  0999 V3000
M  V30 BEGIN CTAB
M  V30 COUNTS 38 39 0 0 0
M  V30 BEGIN ATOM
M  V30 1 C 3.136433 -1.840234 1.168866 0
M  V30 2 C 2.411936 -3.085807 0.788286 0
M  V30 3 O 1.448624 -2.933723 -0.222715 0
M  V30 4 C 1.705123 -2.483623 -1.511087 0
M  V30 5 O 2.918603 -2.188360 -1.783136 0
M  V30 6 C 0.710198 -2.319591 -2.577408 0
M  V30 7 S -0.045633 -0.727909 -2.631639 0
M  V30 8 O 0.993348 0.336309 -2.814214 0
M  V30 9 O -1.027932 -0.734965 -3.764627 0
M  V30 10 C -0.873227 -0.399380 -1.124926 0
M  V30 11 N -0.224671 0.209784 -0.094578 0
M  V30 12 C -0.842631 0.470957 1.071068 0
M  V30 13 C -0.083874 1.126927 2.131867 0
M  V30 14 C 1.231192 1.433925 1.852766 0
M  V30 15 C 2.036340 2.062914 2.807390 0
M  V30 16 C 1.510750 2.386512 4.057868 0
M  V30 17 F 2.285362 2.995783 4.986858 0
M  V30 18 C 0.195535 2.052358 4.267781 0
M  V30 19 C -0.629836 1.434981 3.359135 0
M  V30 20 C -2.163391 0.086067 1.156039 0
M  V30 21 C -2.844340 -0.527495 0.140642 0
M  V30 22 C -4.267755 -0.923043 0.281412 0
M  V30 23 F -4.477040 -2.247868 -0.108885 0
M  V30 24 F -5.096946 -0.140509 -0.472188 0
M  V30 25 F -4.593302 -0.864370 1.629077 0
M  V30 26 N -2.177980 -0.773027 -1.024193 0
M  V30 27 H 4.147516 -2.116457 1.584080 0
M  V30 28 H 3.204243 -1.170661 0.307299 0
M  V30 29 H 2.633802 -1.329383 2.022204 0
M  V30 30 H 3.157384 -3.874459 0.571593 0
M  V30 31 H 1.836064 -3.461390 1.682302 0
M  V30 32 H -0.127731 -3.058395 -2.511822 0
M  V30 33 H 1.190774 -2.514426 -3.547091 0
M  V30 34 H 1.718993 1.219010 0.910186 0
M  V30 35 H 3.073703 2.310784 2.601787 0
M  V30 36 H -0.254747 2.291104 5.240865 0
M  V30 37 H -1.657863 1.195000 3.577332 0
M  V30 38 H -2.682305 0.281526 2.073990 0
M  V30 END ATOM
M  V30 BEGIN BOND
M  V30 1 1 1 2
M  V30 2 1 2 3
M  V30 3 1 3 4
M  V30 4 2 4 5
M  V30 5 1 4 6
M  V30 6 1 6 7
M  V30 7 2 7 8
M  V30 8 2 7 9
M  V30 9 1 7 10
M  V30 10 2 10 11
M  V30 11 1 11 12
M  V30 12 1 12 13
M  V30 13 2 13 14
M  V30 14 1 14 15
M  V30 15 2 15 16
M  V30 16 1 16 17
M  V30 17 1 16 18
M  V30 18 2 18 19
M  V30 19 2 12 20
M  V30 20 1 20 21
M  V30 21 1 21 22
M  V30 22 1 22 23
M  V30 23 1 22 24
M  V30 24 1 22 25
M  V30 25 2 21 26
M  V30 26 1 26 10
M  V30 27 1 19 13
M  V30 28 1 1 27
M  V30 29 1 1 28
M  V30 30 1 1 29
M  V30 31 1 2 30
M  V30 32 1 2 31
M  V30 33 1 6 32
M  V30 34 1 6 33
M  V30 35 1 14 34
M  V30 36 1 15 35
M  V30 37 1 18 36
M  V30 38 1 19 37
M  V30 39 1 20 38
M  V30 END BOND
M  V30 END CTAB
M  END
>  <Dataset>  (826) 
ChEMBL_Kinases

>  <Ligand_Instance>  (826) 
nan

>  <PDB_ID>  (826) 
nan

>  <Standardized_SMILES>  (826) 
CCOC(=O)CS(=O)(=O)c1nc(-c2ccc(F)cc2)cc(C(F)(F)F)n1

>  <Name>  (826) 
nan

>  <Pocket>  (826) 
nan

>  <ATP_Site>  (826) 
nan

>  <Peripheral>  (826) 
nan

>  <Num_H_Atoms_ProtBoundConf>  (826) 
nan

>  <Num_Resolved_Atoms>  (826) 
nan

>  <Num_Not_Resolved_Atoms>  (826) 
nan

$$$$
CHEMBL1417930
     RDKit          3D

  0  0  0  0  0  0  0  0  0  0999 V3000
M  V30 BEGIN CTAB
M  V30 COUNTS 38 41 0 0 0
M  V30 BEGIN ATOM
M  V30 1 C -1.854033 -2.958422 -1.338730 0
M  V30 2 O -1.031482 -2.141718 -0.526935 0
M  V30 3 C 0.304968 -2.008176 -0.874575 0
M  V30 4 C 0.921318 -2.605308 -1.954814 0
M  V30 5 C 2.252130 -2.431154 -2.243484 0
M  V30 6 C 2.984165 -1.616713 -1.398671 0
M  V30 7 C 2.384666 -1.005517 -0.305527 0
M  V30 8 C 1.037081 -1.196107 -0.033107 0
M  V30 9 N 0.458366 -0.541483 1.112375 0
M  V30 10 C 0.137960 0.758200 0.985097 0
M  V30 11 C 0.357852 1.497066 -0.252617 0
M  V30 12 C -0.322535 1.834620 -1.421276 0
M  V30 13 C 0.578930 2.589645 -2.163244 0
M  V30 14 O 1.701737 2.703070 -1.511953 0
M  V30 15 C 1.626512 2.069681 -0.363427 0
M  V30 16 N -0.407826 1.412361 2.035566 0
M  V30 17 C -0.618758 0.736091 3.196424 0
M  V30 18 C -1.184504 1.451118 4.255318 0
M  V30 19 C -1.364007 0.691419 5.392882 0
M  V30 20 C -1.058353 -0.639880 5.588608 0
M  V30 21 C -0.503324 -1.279973 4.499890 0
M  V30 22 C -0.281667 -0.597091 3.302558 0
M  V30 23 C 0.278331 -1.276238 2.231191 0
M  V30 24 O 0.598125 -2.491828 2.291911 0
M  V30 25 H -1.588348 -4.008000 -1.062290 0
M  V30 26 H -2.934064 -2.764614 -1.153318 0
M  V30 27 H -1.685878 -2.825564 -2.421801 0
M  V30 28 H 0.306443 -3.233196 -2.585937 0
M  V30 29 H 2.666568 -2.934165 -3.111576 0
M  V30 30 H 4.034732 -1.470451 -1.614276 0
M  V30 31 H 3.018590 -0.385887 0.306443 0
M  V30 32 H -1.329952 1.453768 -1.473976 0
M  V30 33 H 0.209153 2.945680 -3.127163 0
M  V30 34 H 2.564290 2.158985 0.190880 0
M  V30 35 H -1.465688 2.483056 4.231899 0
M  V30 36 H -1.808634 1.225196 6.247983 0
M  V30 37 H -1.262754 -1.093153 6.549353 0
M  V30 38 H -0.245388 -2.326451 4.602502 0
M  V30 END ATOM
M  V30 BEGIN BOND
M  V30 1 1 1 2
M  V30 2 1 2 3
M  V30 3 2 3 4
M  V30 4 1 4 5
M  V30 5 2 5 6
M  V30 6 1 6 7
M  V30 7 2 7 8
M  V30 8 1 8 9
M  V30 9 1 9 10
M  V30 10 1 10 11
M  V30 11 1 11 12
M  V30 12 2 12 13
M  V30 13 1 13 14
M  V30 14 1 14 15
M  V30 15 2 10 16
M  V30 16 1 16 17
M  V30 17 2 17 18
M  V30 18 1 18 19
M  V30 19 2 19 20
M  V30 20 1 20 21
M  V30 21 2 21 22
M  V30 22 1 22 23
M  V30 23 2 23 24
M  V30 24 1 8 3
M  V30 25 1 23 9
M  V30 26 2 15 11
M  V30 27 1 22 17
M  V30 28 1 1 25
M  V30 29 1 1 26
M  V30 30 1 1 27
M  V30 31 1 4 28
M  V30 32 1 5 29
M  V30 33 1 6 30
M  V30 34 1 7 31
M  V30 35 1 12 32
M  V30 36 1 13 33
M  V30 37 1 15 34
M  V30 38 1 18 35
M  V30 39 1 19 36
M  V30 40 1 20 37
M  V30 41 1 21 38
M  V30 END BOND
M  V30 END CTAB
M  END
>  <Dataset>  (827) 
ChEMBL_Kinases

>  <Ligand_Instance>  (827) 
nan

>  <PDB_ID>  (827) 
nan

>  <Standardized_SMILES>  (827) 
COc1ccccc1-n1c(-c2ccoc2)nc2ccccc2c1=O

>  <Name>  (827) 
nan

>  <Pocket>  (827) 
nan

>  <ATP_Site>  (827) 
nan

>  <Peripheral>  (827) 
nan

>  <Num_H_Atoms_ProtBoundConf>  (827) 
nan

>  <Num_Resolved_Atoms>  (827) 
nan

>  <Num_Not_Resolved_Atoms>  (827) 
nan

$$$$
CHEMBL1417897
     RDKit          3D

  0  0  0  0  0  0  0  0  0  0999 V3000
M  V30 BEGIN CTAB
M  V30 COUNTS 50 53 0 0 0
M  V30 BEGIN ATOM
M  V30 1 O 3.171905 -1.160119 0.084306 0
M  V30 2 C 2.928439 -0.822808 -1.132163 0
M  V30 3 C 1.690188 -0.067304 -1.284313 0
M  V30 4 C 1.116542 0.442268 -2.362095 0
M  V30 5 O 1.510140 0.412724 -3.683354 0
M  V30 6 C -0.121196 1.140871 -2.043813 0
M  V30 7 O -0.927856 1.737072 -2.801747 0
M  V30 8 N -0.235988 1.003298 -0.628259 0
M  V30 9 C -1.256137 1.615265 0.202174 0
M  V30 10 C -2.481048 0.818015 0.414574 0
M  V30 11 N -3.251630 0.472386 -0.745026 0
M  V30 12 C -4.390444 -0.385422 -0.390465 0
M  V30 13 C -5.670424 0.017372 -1.056211 0
M  V30 14 O -5.569344 0.334192 -2.393779 0
M  V30 15 C -4.452147 1.118502 -2.678646 0
M  V30 16 C -3.862549 1.623729 -1.378204 0
M  V30 17 C 0.804180 0.191272 -0.083291 0
M  V30 18 C 0.336418 -1.131381 0.432936 0
M  V30 19 C -0.487490 -1.909397 -0.383968 0
M  V30 20 C -0.942625 -3.152262 0.070195 0
M  V30 21 C -0.537103 -3.541427 1.331005 0
M  V30 22 C 0.277606 -2.794413 2.163435 0
M  V30 23 C 0.719644 -1.571238 1.705175 0
M  V30 24 C 3.957610 -1.301471 -1.942078 0
M  V30 25 C 4.287909 -1.289514 -3.241303 0
M  V30 26 C 5.380371 -1.845862 -3.793489 0
M  V30 27 C 6.232118 -2.502503 -2.825508 0
M  V30 28 S 5.317979 -2.229742 -1.152107 0
M  V30 29 H 2.254819 1.010486 -3.999440 0
M  V30 30 H -0.801319 1.787173 1.202236 0
M  V30 31 H -1.474398 2.663278 -0.154876 0
M  V30 32 H -2.231691 -0.104616 0.964560 0
M  V30 33 H -3.127236 1.402483 1.134939 0
M  V30 34 H -4.523923 -0.259497 0.712022 0
M  V30 35 H -4.144156 -1.453140 -0.565349 0
M  V30 36 H -6.270459 0.764912 -0.461943 0
M  V30 37 H -6.331210 -0.906039 -1.026136 0
M  V30 38 H -4.611468 1.893328 -3.426815 0
M  V30 39 H -3.697509 0.387934 -3.096402 0
M  V30 40 H -4.676530 1.973328 -0.708007 0
M  V30 41 H -3.217202 2.473215 -1.553744 0
M  V30 42 H 1.424993 0.695942 0.670299 0
M  V30 43 H -0.743678 -1.502304 -1.362544 0
M  V30 44 H -1.578382 -3.748396 -0.563559 0
M  V30 45 H -0.915298 -4.513118 1.642543 0
M  V30 46 H 0.545117 -3.183800 3.141917 0
M  V30 47 H 1.353784 -0.970472 2.330120 0
M  V30 48 H 3.766035 -0.850218 -4.066035 0
M  V30 49 H 5.940454 -2.035343 -4.679308 0
M  V30 50 H 7.198876 -3.093498 -2.686975 0
M  V30 END ATOM
M  V30 BEGIN BOND
M  V30 1 2 1 2
M  V30 2 1 2 3
M  V30 3 2 3 4
M  V30 4 1 4 5
M  V30 5 1 4 6
M  V30 6 2 6 7
M  V30 7 1 6 8
M  V30 8 1 8 9
M  V30 9 1 9 10
M  V30 10 1 10 11
M  V30 11 1 11 12
M  V30 12 1 12 13
M  V30 13 1 13 14
M  V30 14 1 14 15
M  V30 15 1 15 16
M  V30 16 1 8 17
M  V30 17 1 17 18
M  V30 18 2 18 19
M  V30 19 1 19 20
M  V30 20 2 20 21
M  V30 21 1 21 22
M  V30 22 2 22 23
M  V30 23 1 2 24
M  V30 24 2 24 25
M  V30 25 1 25 26
M  V30 26 2 26 27
M  V30 27 1 27 28
M  V30 28 1 17 3
M  V30 29 1 23 18
M  V30 30 1 28 24
M  V30 31 1 16 11
M  V30 32 1 5 29
M  V30 33 1 9 30
M  V30 34 1 9 31
M  V30 35 1 10 32
M  V30 36 1 10 33
M  V30 37 1 12 34
M  V30 38 1 12 35
M  V30 39 1 13 36
M  V30 40 1 13 37
M  V30 41 1 15 38
M  V30 42 1 15 39
M  V30 43 1 16 40
M  V30 44 1 16 41
M  V30 45 1 17 42
M  V30 46 1 19 43
M  V30 47 1 20 44
M  V30 48 1 21 45
M  V30 49 1 22 46
M  V30 50 1 23 47
M  V30 51 1 25 48
M  V30 52 1 26 49
M  V30 53 1 27 50
M  V30 END BOND
M  V30 END CTAB
M  END
>  <Dataset>  (828) 
ChEMBL_Kinases

>  <Ligand_Instance>  (828) 
nan

>  <PDB_ID>  (828) 
nan

>  <Standardized_SMILES>  (828) 
O=C(C1=C(O)C(=O)N(CCN2CCOCC2)C1c1ccccc1)c1cccs1

>  <Name>  (828) 
nan

>  <Pocket>  (828) 
nan

>  <ATP_Site>  (828) 
nan

>  <Peripheral>  (828) 
nan

>  <Num_H_Atoms_ProtBoundConf>  (828) 
nan

>  <Num_Resolved_Atoms>  (828) 
nan

>  <Num_Not_Resolved_Atoms>  (828) 
nan

$$$$
CHEMBL141784
     RDKit          3D

  0  0  0  0  0  0  0  0  0  0999 V3000
M  V30 BEGIN CTAB
M  V30 COUNTS 65 65 0 0 0
M  V30 BEGIN ATOM
M  V30 1 C 3.693403 -2.593643 4.190654 0
M  V30 2 C 4.269099 -3.856105 3.677607 0
M  V30 3 C 4.392818 -4.073175 2.223982 0
M  V30 4 C 5.240965 -3.132298 1.429109 0
M  V30 5 C 4.829582 -1.739424 1.343692 0
M  V30 6 C 3.563729 -1.343653 0.723440 0
M  V30 7 C 3.331149 -1.665324 -0.714363 0
M  V30 8 C 1.940963 -1.149900 -1.140765 0
M  V30 9 C 1.666230 -1.450869 -2.571486 0
M  V30 10 C 0.323918 -0.960969 -3.000797 0
M  V30 11 C 0.139093 0.537730 -2.861076 0
M  V30 12 C -1.218186 0.982059 -3.305722 0
M  V30 13 C -1.427499 2.468635 -3.187071 0
M  V30 14 C -1.279241 2.936831 -1.769018 0
M  V30 15 O -2.259948 2.244521 -0.991917 0
M  V30 16 C -2.278523 2.540472 0.353854 0
M  V30 17 O -1.519268 3.358027 0.966125 0
M  V30 18 C -3.264567 1.857952 1.192883 0
M  V30 19 C -4.122594 0.981180 0.695058 0
M  V30 20 C -5.176546 0.193473 1.338916 0 CFG=2
M  V30 21 C -6.299616 -0.094081 0.380089 0
M  V30 22 O -7.265181 -0.923949 0.904990 0
M  V30 23 C -5.599793 0.816566 2.612112 0
M  V30 24 C -4.808217 0.069751 3.653469 0
M  V30 25 C -4.228681 -1.118262 2.969066 0
M  V30 26 O -3.536353 -1.939812 3.638770 0
M  V30 27 O -4.594454 -1.070909 1.653393 0
M  V30 28 H 4.502569 -1.889586 4.540191 0
M  V30 29 H 3.053834 -2.057255 3.501368 0
M  V30 30 H 3.134906 -2.802993 5.159435 0
M  V30 31 H 5.309788 -3.962585 4.139798 0
M  V30 32 H 3.675058 -4.706855 4.146833 0
M  V30 33 H 4.680674 -5.141730 2.063176 0
M  V30 34 H 3.358803 -4.006866 1.792174 0
M  V30 35 H 5.430257 -3.657425 0.465913 0
M  V30 36 H 6.272796 -3.219230 1.911782 0
M  V30 37 H 4.954047 -1.253651 2.328125 0
M  V30 38 H 5.661476 -1.207194 0.759711 0
M  V30 39 H 3.414805 -0.249617 0.840688 0
M  V30 40 H 2.696237 -1.790461 1.250752 0
M  V30 41 H 4.024515 -1.121580 -1.395092 0
M  V30 42 H 3.366478 -2.700799 -1.013209 0
M  V30 43 H 1.899587 -0.040378 -0.933157 0
M  V30 44 H 1.189225 -1.630423 -0.512676 0
M  V30 45 H 1.659811 -2.554387 -2.685972 0
M  V30 46 H 2.468718 -1.061155 -3.252431 0
M  V30 47 H 0.129097 -1.223346 -4.061371 0
M  V30 48 H -0.452655 -1.498639 -2.410123 0
M  V30 49 H 0.877034 1.025014 -3.523754 0
M  V30 50 H 0.345245 0.877123 -1.836092 0
M  V30 51 H -1.950688 0.522433 -2.579008 0
M  V30 52 H -1.475023 0.650213 -4.327522 0
M  V30 53 H -2.453765 2.712218 -3.532529 0
M  V30 54 H -0.702117 3.035137 -3.818756 0
M  V30 55 H -0.292934 2.707663 -1.330036 0
M  V30 56 H -1.426755 4.038969 -1.682934 0
M  V30 57 H -3.370102 2.007281 2.258357 0
M  V30 58 H -4.026430 0.818244 -0.377745 0
M  V30 59 H -5.851307 -0.616295 -0.492504 0
M  V30 60 H -6.756158 0.845016 -0.042633 0
M  V30 61 H -7.033895 -1.375583 1.739930 0
M  V30 62 H -6.692652 0.777942 2.802524 0
M  V30 63 H -5.340070 1.890216 2.698063 0
M  V30 64 H -5.461673 -0.291885 4.473000 0
M  V30 65 H -4.012080 0.669818 4.135520 0
M  V30 END ATOM
M  V30 BEGIN BOND
M  V30 1 1 1 2
M  V30 2 1 2 3
M  V30 3 1 3 4
M  V30 4 1 4 5
M  V30 5 1 5 6
M  V30 6 1 6 7
M  V30 7 1 7 8
M  V30 8 1 8 9
M  V30 9 1 9 10
M  V30 10 1 10 11
M  V30 11 1 11 12
M  V30 12 1 12 13
M  V30 13 1 13 14
M  V30 14 1 14 15
M  V30 15 1 15 16
M  V30 16 2 16 17
M  V30 17 1 16 18
M  V30 18 2 18 19
M  V30 19 1 19 20
M  V30 20 1 20 21 CFG=3
M  V30 21 1 21 22
M  V30 22 1 20 23
M  V30 23 1 23 24
M  V30 24 1 24 25
M  V30 25 2 25 26
M  V30 26 1 25 27
M  V30 27 1 27 20
M  V30 28 1 1 28
M  V30 29 1 1 29
M  V30 30 1 1 30
M  V30 31 1 2 31
M  V30 32 1 2 32
M  V30 33 1 3 33
M  V30 34 1 3 34
M  V30 35 1 4 35
M  V30 36 1 4 36
M  V30 37 1 5 37
M  V30 38 1 5 38
M  V30 39 1 6 39
M  V30 40 1 6 40
M  V30 41 1 7 41
M  V30 42 1 7 42
M  V30 43 1 8 43
M  V30 44 1 8 44
M  V30 45 1 9 45
M  V30 46 1 9 46
M  V30 47 1 10 47
M  V30 48 1 10 48
M  V30 49 1 11 49
M  V30 50 1 11 50
M  V30 51 1 12 51
M  V30 52 1 12 52
M  V30 53 1 13 53
M  V30 54 1 13 54
M  V30 55 1 14 55
M  V30 56 1 14 56
M  V30 57 1 18 57
M  V30 58 1 19 58
M  V30 59 1 21 59
M  V30 60 1 21 60
M  V30 61 1 22 61
M  V30 62 1 23 62
M  V30 63 1 23 63
M  V30 64 1 24 64
M  V30 65 1 24 65
M  V30 END BOND
M  V30 END CTAB
M  END
>  <Dataset>  (829) 
ChEMBL_Kinases

>  <Ligand_Instance>  (829) 
nan

>  <PDB_ID>  (829) 
nan

>  <Standardized_SMILES>  (829) 
CCCCCCCCCCCCCCOC(=O)/C=C/[C@]1(CO)CCC(=O)O1

>  <Name>  (829) 
nan

>  <Pocket>  (829) 
nan

>  <ATP_Site>  (829) 
nan

>  <Peripheral>  (829) 
nan

>  <Num_H_Atoms_ProtBoundConf>  (829) 
nan

>  <Num_Resolved_Atoms>  (829) 
nan

>  <Num_Not_Resolved_Atoms>  (829) 
nan

$$$$
CHEMBL1417837
     RDKit          3D

  0  0  0  0  0  0  0  0  0  0999 V3000
M  V30 BEGIN CTAB
M  V30 COUNTS 44 47 0 0 0
M  V30 BEGIN ATOM
M  V30 1 C 3.387506 -5.629325 3.968716 0
M  V30 2 O 3.705635 -4.654830 3.026039 0
M  V30 3 C 2.930036 -3.538650 2.748424 0
M  V30 4 C 1.750528 -3.335451 3.428465 0
M  V30 5 C 1.002925 -2.217216 3.129304 0
M  V30 6 C 1.482241 -1.364223 2.162467 0
M  V30 7 C 2.649673 -1.513348 1.450593 0
M  V30 8 N 3.133499 -0.638630 0.447920 0
M  V30 9 C 2.478566 0.486505 -0.120211 0
M  V30 10 N 3.150234 1.205954 -1.034228 0
M  V30 11 C 2.688817 2.283443 -1.669641 0
M  V30 12 C 1.412679 2.696747 -1.364034 0
M  V30 13 N 0.937989 3.776777 -1.991430 0
M  V30 14 C -0.327130 4.202841 -1.698005 0
M  V30 15 C -1.026610 3.471078 -0.760640 0
M  V30 16 O -2.182849 3.961705 -0.573123 0
M  V30 17 N -0.512224 2.381144 -0.145500 0
M  V30 18 C -1.350071 1.713210 0.808110 0
M  V30 19 C -2.209368 0.655582 0.243354 0
M  V30 20 C -3.498906 0.923844 -0.175344 0
M  V30 21 C -4.387820 -0.007919 -0.724385 0
M  V30 22 C -3.900304 -1.313669 -0.846934 0
M  V30 23 F -4.744954 -2.245627 -1.379235 0
M  V30 24 C -2.638770 -1.648382 -0.454174 0
M  V30 25 C -1.846616 -0.664280 0.070967 0
M  V30 26 C 0.735249 1.961894 -0.435046 0
M  V30 27 N 1.236125 0.887218 0.178478 0
M  V30 28 C 3.348869 -2.644997 1.794052 0
M  V30 29 H 3.657271 -5.360645 5.011687 0
M  V30 30 H 3.863862 -6.577978 3.634868 0
M  V30 31 H 2.284223 -5.820089 3.915900 0
M  V30 32 H 1.385793 -4.014152 4.186344 0
M  V30 33 H 0.077040 -2.045153 3.653444 0
M  V30 34 H 0.850143 -0.508961 1.983113 0
M  V30 35 H 4.093201 -0.866531 0.097565 0
M  V30 36 H 3.286660 2.807928 -2.389996 0
M  V30 37 H -0.683669 5.078235 -2.220542 0
M  V30 38 H -1.999126 2.467855 1.304900 0
M  V30 39 H -0.688964 1.337104 1.643919 0
M  V30 40 H -3.936165 1.910262 -0.106886 0
M  V30 41 H -5.374072 0.233752 -1.036429 0
M  V30 42 H -2.260922 -2.675249 -0.552847 0
M  V30 43 H -0.850785 -0.963379 0.372219 0
M  V30 44 H 4.288445 -2.865210 1.295372 0
M  V30 END ATOM
M  V30 BEGIN BOND
M  V30 1 1 1 2
M  V30 2 1 2 3
M  V30 3 2 3 4
M  V30 4 1 4 5
M  V30 5 2 5 6
M  V30 6 1 6 7
M  V30 7 1 7 8
M  V30 8 1 8 9
M  V30 9 2 9 10
M  V30 10 1 10 11
M  V30 11 2 11 12
M  V30 12 1 12 13
M  V30 13 2 13 14
M  V30 14 1 14 15
M  V30 15 2 15 16
M  V30 16 1 15 17
M  V30 17 1 17 18
M  V30 18 1 18 19
M  V30 19 2 19 20
M  V30 20 1 20 21
M  V30 21 2 21 22
M  V30 22 1 22 23
M  V30 23 1 22 24
M  V30 24 2 24 25
M  V30 25 1 17 26
M  V30 26 2 26 27
M  V30 27 2 7 28
M  V30 28 1 28 3
M  V30 29 1 27 9
M  V30 30 1 26 12
M  V30 31 1 25 19
M  V30 32 1 1 29
M  V30 33 1 1 30
M  V30 34 1 1 31
M  V30 35 1 4 32
M  V30 36 1 5 33
M  V30 37 1 6 34
M  V30 38 1 8 35
M  V30 39 1 11 36
M  V30 40 1 14 37
M  V30 41 1 18 38
M  V30 42 1 18 39
M  V30 43 1 20 40
M  V30 44 1 21 41
M  V30 45 1 24 42
M  V30 46 1 25 43
M  V30 47 1 28 44
M  V30 END BOND
M  V30 END CTAB
M  END
>  <Dataset>  (830) 
ChEMBL_Kinases

>  <Ligand_Instance>  (830) 
nan

>  <PDB_ID>  (830) 
nan

>  <Standardized_SMILES>  (830) 
COc1cccc(Nc2ncc3ncc(=O)n(Cc4ccc(F)cc4)c3n2)c1

>  <Name>  (830) 
nan

>  <Pocket>  (830) 
nan

>  <ATP_Site>  (830) 
nan

>  <Peripheral>  (830) 
nan

>  <Num_H_Atoms_ProtBoundConf>  (830) 
nan

>  <Num_Resolved_Atoms>  (830) 
nan

>  <Num_Not_Resolved_Atoms>  (830) 
nan

$$$$
CHEMBL1417789
     RDKit          3D

  0  0  0  0  0  0  0  0  0  0999 V3000
M  V30 BEGIN CTAB
M  V30 COUNTS 47 51 0 0 0
M  V30 BEGIN ATOM
M  V30 1 C 0.279310 -5.824715 5.104329 0
M  V30 2 O 0.307286 -5.849391 3.681231 0
M  V30 3 C 1.066118 -4.929512 2.976850 0
M  V30 4 C 1.814940 -3.964400 3.649097 0
M  V30 5 C 2.586608 -3.026489 2.991586 0
M  V30 6 C 2.590212 -3.080041 1.607633 0
M  V30 7 O 3.351391 -2.157796 0.889627 0
M  V30 8 C 2.834621 -0.933463 0.478099 0
M  V30 9 N 3.642114 -0.086589 -0.219728 0
M  V30 10 C 3.200293 1.117632 -0.648075 0
M  V30 11 C 1.905903 1.514781 -0.381947 0
M  V30 12 N 1.434230 2.696987 -0.789012 0
M  V30 13 C 0.179448 3.115278 -0.547202 0
M  V30 14 C -0.205710 4.420887 -1.044879 0
M  V30 15 C -1.474706 5.027633 -0.889528 0
M  V30 16 C -1.657668 6.263854 -1.425175 0
M  V30 17 C -0.477796 6.847667 -2.127274 0
M  V30 18 S 0.802710 5.483301 -1.918666 0
M  V30 19 C -0.580004 2.212771 0.160615 0
M  V30 20 O -1.758420 2.544136 0.417568 0
M  V30 21 N -0.179748 1.024357 0.596028 0
M  V30 22 C -1.079115 0.159496 1.335216 0
M  V30 23 C -1.862978 -0.754824 0.547738 0
M  V30 24 C -3.137209 -0.694024 -0.066985 0
M  V30 25 C -3.573944 -1.789991 -0.752314 0
M  V30 26 C -2.815970 -2.944800 -0.862168 0
M  V30 27 S -1.253822 -2.452897 0.132090 0
M  V30 28 C 1.087695 0.658292 0.324355 0
M  V30 29 N 1.570970 -0.529865 0.730195 0
M  V30 30 C 1.849034 -4.035482 0.937949 0
M  V30 31 C 1.081724 -4.967435 1.607444 0
M  V30 32 H -0.130417 -4.874337 5.458454 0
M  V30 33 H -0.344959 -6.643778 5.490977 0
M  V30 34 H 1.298741 -5.915606 5.529624 0
M  V30 35 H 1.803229 -3.932934 4.748641 0
M  V30 36 H 3.158909 -2.287424 3.539893 0
M  V30 37 H 3.842257 1.800709 -1.207623 0
M  V30 38 H -2.330461 4.609550 -0.382898 0
M  V30 39 H -2.532933 6.892066 -1.419909 0
M  V30 40 H -0.541999 7.904951 -2.618123 0
M  V30 41 H -0.545254 -0.341388 2.197302 0
M  V30 42 H -1.790479 0.855541 1.870025 0
M  V30 43 H -3.633834 0.247633 0.083552 0
M  V30 44 H -4.545271 -1.753899 -1.225198 0
M  V30 45 H -3.045570 -3.836248 -1.356468 0
M  V30 46 H 1.894105 -4.024564 -0.145969 0
M  V30 47 H 0.506507 -5.709901 1.064617 0
M  V30 END ATOM
M  V30 BEGIN BOND
M  V30 1 1 1 2
M  V30 2 1 2 3
M  V30 3 2 3 4
M  V30 4 1 4 5
M  V30 5 2 5 6
M  V30 6 1 6 7
M  V30 7 1 7 8
M  V30 8 2 8 9
M  V30 9 1 9 10
M  V30 10 2 10 11
M  V30 11 1 11 12
M  V30 12 2 12 13
M  V30 13 1 13 14
M  V30 14 2 14 15
M  V30 15 1 15 16
M  V30 16 2 16 17
M  V30 17 1 17 18
M  V30 18 1 13 19
M  V30 19 2 19 20
M  V30 20 1 19 21
M  V30 21 1 21 22
M  V30 22 1 22 23
M  V30 23 2 23 24
M  V30 24 1 24 25
M  V30 25 2 25 26
M  V30 26 1 26 27
M  V30 27 1 21 28
M  V30 28 2 28 29
M  V30 29 1 6 30
M  V30 30 2 30 31
M  V30 31 1 31 3
M  V30 32 1 29 8
M  V30 33 1 28 11
M  V30 34 1 18 14
M  V30 35 1 27 23
M  V30 36 1 1 32
M  V30 37 1 1 33
M  V30 38 1 1 34
M  V30 39 1 4 35
M  V30 40 1 5 36
M  V30 41 1 10 37
M  V30 42 1 15 38
M  V30 43 1 16 39
M  V30 44 1 17 40
M  V30 45 1 22 41
M  V30 46 1 22 42
M  V30 47 1 24 43
M  V30 48 1 25 44
M  V30 49 1 26 45
M  V30 50 1 30 46
M  V30 51 1 31 47
M  V30 END BOND
M  V30 END CTAB
M  END
>  <Dataset>  (831) 
ChEMBL_Kinases

>  <Ligand_Instance>  (831) 
nan

>  <PDB_ID>  (831) 
nan

>  <Standardized_SMILES>  (831) 
COc1ccc(Oc2ncc3nc(-c4cccs4)c(=O)n(Cc4cccs4)c3n2)cc1

>  <Name>  (831) 
nan

>  <Pocket>  (831) 
nan

>  <ATP_Site>  (831) 
nan

>  <Peripheral>  (831) 
nan

>  <Num_H_Atoms_ProtBoundConf>  (831) 
nan

>  <Num_Resolved_Atoms>  (831) 
nan

>  <Num_Not_Resolved_Atoms>  (831) 
nan

$$$$
CHEMBL1416556
     RDKit          3D

  0  0  0  0  0  0  0  0  0  0999 V3000
M  V30 BEGIN CTAB
M  V30 COUNTS 32 35 0 0 0
M  V30 BEGIN ATOM
M  V30 1 C -2.559580 -1.063562 3.542174 0
M  V30 2 N -1.586440 -1.087102 2.480165 0
M  V30 3 N -1.158160 -2.244577 1.955536 0
M  V30 4 C -0.259085 -1.991833 0.988047 0
M  V30 5 C 0.468208 -2.946947 0.147551 0
M  V30 6 C -0.153847 -4.037257 -0.458906 0
M  V30 7 C 0.556291 -4.929993 -1.251883 0
M  V30 8 C 1.902408 -4.669983 -1.398401 0
M  V30 9 C 2.606335 -3.624110 -0.842725 0
M  V30 10 C 1.839591 -2.778548 -0.068769 0
M  V30 11 C -0.083638 -0.617099 0.865378 0
M  V30 12 N 0.613222 0.250253 0.149005 0
M  V30 13 C 0.457507 1.566001 0.384414 0
M  V30 14 C 1.226020 2.420860 -0.410680 0
M  V30 15 C 1.128828 3.797138 -0.236037 0
M  V30 16 C 0.258007 4.250896 0.735899 0
M  V30 17 C -0.521581 3.451888 1.545855 0
M  V30 18 C -0.406290 2.091195 1.352260 0
M  V30 19 N -1.111693 1.204961 2.077003 0
M  V30 20 C -0.938492 -0.104791 1.822834 0
M  V30 21 H -2.945177 -0.056160 3.752642 0
M  V30 22 H -3.389209 -1.753930 3.257665 0
M  V30 23 H -2.085459 -1.503570 4.443842 0
M  V30 24 H -1.225107 -4.185216 -0.301335 0
M  V30 25 H 0.087103 -5.772737 -1.723462 0
M  V30 26 H 2.438397 -5.386284 -2.026442 0
M  V30 27 H 3.649556 -3.485181 -0.999756 0
M  V30 28 H 2.326940 -1.915815 0.412288 0
M  V30 29 H 1.911431 2.080222 -1.174852 0
M  V30 30 H 1.680215 4.539718 -0.800048 0
M  V30 31 H 0.159387 5.321287 0.896834 0
M  V30 32 H -1.187802 3.835980 2.291278 0
M  V30 END ATOM
M  V30 BEGIN BOND
M  V30 1 1 1 2
M  V30 2 1 2 3
M  V30 3 2 3 4
M  V30 4 1 4 5
M  V30 5 2 5 6
M  V30 6 1 6 7
M  V30 7 2 7 8
M  V30 8 1 8 9
M  V30 9 2 9 10
M  V30 10 1 4 11
M  V30 11 2 11 12
M  V30 12 1 12 13
M  V30 13 2 13 14
M  V30 14 1 14 15
M  V30 15 2 15 16
M  V30 16 1 16 17
M  V30 17 2 17 18
M  V30 18 1 18 19
M  V30 19 2 19 20
M  V30 20 1 20 2
M  V30 21 1 10 5
M  V30 22 1 20 11
M  V30 23 1 18 13
M  V30 24 1 1 21
M  V30 25 1 1 22
M  V30 26 1 1 23
M  V30 27 1 6 24
M  V30 28 1 7 25
M  V30 29 1 8 26
M  V30 30 1 9 27
M  V30 31 1 10 28
M  V30 32 1 14 29
M  V30 33 1 15 30
M  V30 34 1 16 31
M  V30 35 1 17 32
M  V30 END BOND
M  V30 END CTAB
M  END
>  <Dataset>  (832) 
ChEMBL_Kinases

>  <Ligand_Instance>  (832) 
nan

>  <PDB_ID>  (832) 
nan

>  <Standardized_SMILES>  (832) 
Cn1nc(-c2ccccc2)c2nc3ccccc3nc21

>  <Name>  (832) 
nan

>  <Pocket>  (832) 
nan

>  <ATP_Site>  (832) 
nan

>  <Peripheral>  (832) 
nan

>  <Num_H_Atoms_ProtBoundConf>  (832) 
nan

>  <Num_Resolved_Atoms>  (832) 
nan

>  <Num_Not_Resolved_Atoms>  (832) 
nan

$$$$
CHEMBL1416632
     RDKit          3D

  0  0  0  0  0  0  0  0  0  0999 V3000
M  V30 BEGIN CTAB
M  V30 COUNTS 49 50 0 0 0
M  V30 BEGIN ATOM
M  V30 1 C 2.775250 -4.857202 3.524599 0
M  V30 2 N 3.632853 -4.920031 2.356830 0
M  V30 3 C 4.471041 -6.095036 2.438466 0
M  V30 4 S 4.654979 -3.534213 2.396771 0
M  V30 5 O 5.409135 -3.552642 3.700625 0
M  V30 6 O 5.656538 -3.514215 1.301877 0
M  V30 7 C 3.683997 -2.062979 2.317384 0
M  V30 8 C 3.355035 -1.476882 1.112399 0
M  V30 9 C 2.599146 -0.327345 0.994908 0
M  V30 10 C 2.170420 0.230116 2.199222 0
M  V30 11 N 1.383040 1.431012 2.030139 0
M  V30 12 C -0.053569 1.356504 1.893028 0
M  V30 13 O -0.013055 0.077476 1.993421 0
M  V30 14 C -0.543771 2.735380 1.740851 0
M  V30 15 C -2.005026 2.936320 1.577820 0
M  V30 16 N -2.646845 2.377535 0.435315 0
M  V30 17 C -2.953526 1.172787 -0.227649 0
M  V30 18 O -2.510496 0.182398 0.407428 0
M  V30 19 C -3.680211 1.032171 -1.477899 0
M  V30 20 C -4.210789 2.035862 -2.260864 0
M  V30 21 C -4.889488 1.811829 -3.439323 0
M  V30 22 C -5.060307 0.515775 -3.881377 0
M  V30 23 N -5.758179 0.261912 -5.095878 0 CHG=1 VAL=4
M  V30 24 O -5.881238 -0.931905 -5.444753 0
M  V30 25 O -6.288952 1.267513 -5.879024 0 CHG=-1 VAL=1
M  V30 26 C -4.530974 -0.491420 -3.100951 0
M  V30 27 C -3.853007 -0.259667 -1.922824 0
M  V30 28 C 2.460824 -0.300387 3.439176 0
M  V30 29 C 3.223379 -1.454930 3.488678 0
M  V30 30 H 2.092647 -3.988026 3.353666 0
M  V30 31 H 2.173217 -5.790308 3.597613 0
M  V30 32 H 3.391800 -4.699092 4.417885 0
M  V30 33 H 4.947376 -6.212064 3.431483 0
M  V30 34 H 3.844964 -6.967993 2.180355 0
M  V30 35 H 5.253293 -6.024630 1.657828 0
M  V30 36 H 3.716876 -1.957089 0.226525 0
M  V30 37 H 2.361003 0.103436 0.035591 0
M  V30 38 H 2.157556 2.183956 2.050135 0
M  V30 39 H 0.048879 3.249983 0.944203 0
M  V30 40 H -0.224572 3.282571 2.682399 0
M  V30 41 H -2.227033 4.026094 1.671487 0
M  V30 42 H -2.556410 2.471828 2.467343 0
M  V30 43 H -3.064062 3.160610 -0.171276 0
M  V30 44 H -4.073184 3.043789 -1.909037 0
M  V30 45 H -5.265820 2.674945 -3.976933 0
M  V30 46 H -4.650401 -1.518468 -3.424187 0
M  V30 47 H -3.469500 -1.118317 -1.372537 0
M  V30 48 H 2.084941 0.202546 4.304300 0
M  V30 49 H 3.455126 -1.876961 4.460364 0
M  V30 END ATOM
M  V30 BEGIN BOND
M  V30 1 1 1 2
M  V30 2 1 2 3
M  V30 3 1 2 4
M  V30 4 2 4 5
M  V30 5 2 4 6
M  V30 6 1 4 7
M  V30 7 2 7 8
M  V30 8 1 8 9
M  V30 9 2 9 10
M  V30 10 1 10 11
M  V30 11 1 11 12
M  V30 12 2 12 13
M  V30 13 1 12 14
M  V30 14 1 14 15
M  V30 15 1 15 16
M  V30 16 1 16 17
M  V30 17 2 17 18
M  V30 18 1 17 19
M  V30 19 2 19 20
M  V30 20 1 20 21
M  V30 21 2 21 22
M  V30 22 1 22 23
M  V30 23 2 23 24
M  V30 24 1 23 25
M  V30 25 1 22 26
M  V30 26 2 26 27
M  V30 27 1 10 28
M  V30 28 2 28 29
M  V30 29 1 29 7
M  V30 30 1 27 19
M  V30 31 1 1 30
M  V30 32 1 1 31
M  V30 33 1 1 32
M  V30 34 1 3 33
M  V30 35 1 3 34
M  V30 36 1 3 35
M  V30 37 1 8 36
M  V30 38 1 9 37
M  V30 39 1 11 38
M  V30 40 1 14 39
M  V30 41 1 14 40
M  V30 42 1 15 41
M  V30 43 1 15 42
M  V30 44 1 16 43
M  V30 45 1 20 44
M  V30 46 1 21 45
M  V30 47 1 26 46
M  V30 48 1 27 47
M  V30 49 1 28 48
M  V30 50 1 29 49
M  V30 END BOND
M  V30 END CTAB
M  END
>  <Dataset>  (833) 
ChEMBL_Kinases

>  <Ligand_Instance>  (833) 
nan

>  <PDB_ID>  (833) 
nan

>  <Standardized_SMILES>  (833) 
CN(C)S(=O)(=O)c1ccc(NC(=O)CCNC(=O)c2ccc([N+](=O)[O-])cc2)cc1

>  <Name>  (833) 
nan

>  <Pocket>  (833) 
nan

>  <ATP_Site>  (833) 
nan

>  <Peripheral>  (833) 
nan

>  <Num_H_Atoms_ProtBoundConf>  (833) 
nan

>  <Num_Resolved_Atoms>  (833) 
nan

>  <Num_Not_Resolved_Atoms>  (833) 
nan

$$$$
CHEMBL1416669
     RDKit          3D

  0  0  0  0  0  0  0  0  0  0999 V3000
M  V30 BEGIN CTAB
M  V30 COUNTS 50 53 0 0 0
M  V30 BEGIN ATOM
M  V30 1 C 1.388471 -3.011082 0.833312 0
M  V30 2 C 1.547856 -2.830085 -0.653535 0
M  V30 3 N 2.081194 -1.554355 -1.013425 0
M  V30 4 C 3.432392 -1.394558 -1.115977 0
M  V30 5 C 4.557174 -2.204163 -0.952295 0
M  V30 6 C 5.828939 -1.702538 -1.141082 0
M  V30 7 C 6.046104 -0.389422 -1.496839 0
M  V30 8 C 4.961792 0.449430 -1.670345 0
M  V30 9 C 3.713975 -0.088376 -1.472988 0
M  V30 10 C 2.482606 0.525140 -1.580145 0
M  V30 11 N 2.019783 1.739986 -1.881374 0
M  V30 12 N 0.724123 2.017273 -1.897545 0
M  V30 13 C -0.240334 1.093525 -1.610506 0
M  V30 14 S -1.810194 1.928781 -1.767441 0
M  V30 15 C -2.341061 2.693045 -0.236078 0
M  V30 16 C -2.707754 1.773326 0.834871 0
M  V30 17 O -3.028072 2.462557 1.859730 0
M  V30 18 N -2.954209 0.572276 1.518224 0
M  V30 19 C -3.390670 0.545071 2.881596 0
M  V30 20 C -2.450970 -0.269632 3.760429 0
M  V30 21 C -1.319107 0.601043 4.230938 0
M  V30 22 O -1.971138 -1.378016 3.089026 0
M  V30 23 C -2.849134 -1.753145 2.093364 0
M  V30 24 C -2.367797 -3.066990 1.478796 0
M  V30 25 C -2.821353 -0.744365 0.972388 0
M  V30 26 N 0.173589 -0.147525 -1.300379 0
M  V30 27 C 1.489633 -0.379580 -1.296999 0
M  V30 28 H 2.349517 -3.463324 1.220135 0
M  V30 29 H 0.631142 -3.806493 1.057780 0
M  V30 30 H 1.079866 -2.118013 1.377603 0
M  V30 31 H 0.540764 -2.975691 -1.094315 0
M  V30 32 H 2.154755 -3.680106 -1.050188 0
M  V30 33 H 4.380240 -3.232368 -0.672940 0
M  V30 34 H 6.695807 -2.359210 -1.005794 0
M  V30 35 H 7.051801 -0.011215 -1.640671 0
M  V30 36 H 5.075888 1.483953 -1.948804 0
M  V30 37 H -1.603692 3.436213 0.146479 0
M  V30 38 H -3.251319 3.309453 -0.459111 0
M  V30 39 H -4.359970 -0.036115 2.878223 0
M  V30 40 H -3.626481 1.499777 3.346331 0
M  V30 41 H -2.996982 -0.636431 4.656690 0
M  V30 42 H -1.642166 1.366962 4.955933 0
M  V30 43 H -0.501953 -0.020035 4.670919 0
M  V30 44 H -0.885423 1.087719 3.337552 0
M  V30 45 H -3.879128 -1.962465 2.441875 0
M  V30 46 H -2.171993 -3.847451 2.226308 0
M  V30 47 H -3.223412 -3.435178 0.848879 0
M  V30 48 H -1.554615 -2.872239 0.768892 0
M  V30 49 H -1.897886 -0.892162 0.389914 0
M  V30 50 H -3.659077 -0.964642 0.251853 0
M  V30 END ATOM
M  V30 BEGIN BOND
M  V30 1 1 1 2
M  V30 2 1 2 3
M  V30 3 1 3 4
M  V30 4 2 4 5
M  V30 5 1 5 6
M  V30 6 2 6 7
M  V30 7 1 7 8
M  V30 8 2 8 9
M  V30 9 1 9 10
M  V30 10 2 10 11
M  V30 11 1 11 12
M  V30 12 2 12 13
M  V30 13 1 13 14
M  V30 14 1 14 15
M  V30 15 1 15 16
M  V30 16 2 16 17
M  V30 17 1 16 18
M  V30 18 1 18 19
M  V30 19 1 19 20
M  V30 20 1 20 21
M  V30 21 1 20 22
M  V30 22 1 22 23
M  V30 23 1 23 24
M  V30 24 1 23 25
M  V30 25 1 13 26
M  V30 26 2 26 27
M  V30 27 1 27 3
M  V30 28 1 9 4
M  V30 29 1 27 10
M  V30 30 1 25 18
M  V30 31 1 1 28
M  V30 32 1 1 29
M  V30 33 1 1 30
M  V30 34 1 2 31
M  V30 35 1 2 32
M  V30 36 1 5 33
M  V30 37 1 6 34
M  V30 38 1 7 35
M  V30 39 1 8 36
M  V30 40 1 15 37
M  V30 41 1 15 38
M  V30 42 1 19 39
M  V30 43 1 19 40
M  V30 44 1 20 41
M  V30 45 1 21 42
M  V30 46 1 21 43
M  V30 47 1 21 44
M  V30 48 1 23 45
M  V30 49 1 24 46
M  V30 50 1 24 47
M  V30 51 1 24 48
M  V30 52 1 25 49
M  V30 53 1 25 50
M  V30 END BOND
M  V30 END CTAB
M  END
>  <Dataset>  (834) 
ChEMBL_Kinases

>  <Ligand_Instance>  (834) 
nan

>  <PDB_ID>  (834) 
nan

>  <Standardized_SMILES>  (834) 
CCn1c2ccccc2c2nnc(SCC(=O)N3CC(C)OC(C)C3)nc21

>  <Name>  (834) 
nan

>  <Pocket>  (834) 
nan

>  <ATP_Site>  (834) 
nan

>  <Peripheral>  (834) 
nan

>  <Num_H_Atoms_ProtBoundConf>  (834) 
nan

>  <Num_Resolved_Atoms>  (834) 
nan

>  <Num_Not_Resolved_Atoms>  (834) 
nan

$$$$
CHEMBL1416710
     RDKit          3D

  0  0  0  0  0  0  0  0  0  0999 V3000
M  V30 BEGIN CTAB
M  V30 COUNTS 42 45 0 0 0
M  V30 BEGIN ATOM
M  V30 1 C 0.656235 -7.128717 0.402099 0
M  V30 2 C 0.373029 -5.670872 0.360778 0
M  V30 3 C -0.789112 -5.198017 -0.205668 0
M  V30 4 C -1.028687 -3.845672 -0.232033 0
M  V30 5 C -0.168914 -2.899366 0.280413 0
M  V30 6 C -0.452616 -1.473301 0.236597 0
M  V30 7 C -1.621106 -1.006955 -0.333438 0
M  V30 8 C -1.719553 0.364437 -0.285487 0
M  V30 9 C -0.544494 0.705624 0.346123 0
M  V30 10 C -0.077323 2.061707 0.685167 0
M  V30 11 O 1.002841 2.350979 1.264072 0
M  V30 12 N -0.882229 3.178647 0.349767 0
M  V30 13 C -0.251459 4.410069 0.764361 0
M  V30 14 C 0.568709 4.981986 -0.168415 0
M  V30 15 C 1.234140 6.163278 0.100494 0
M  V30 16 C 1.030257 6.729620 1.345540 0
M  V30 17 C 0.200530 6.143640 2.278611 0
M  V30 18 C -0.471523 4.959683 2.020028 0
M  V30 19 O 0.129706 -0.373869 0.616633 0
M  V30 20 C 0.968961 -3.413674 0.831332 0
M  V30 21 C 1.927114 -2.615517 1.383945 0
M  V30 22 C 3.081820 -3.073541 1.947622 0
M  V30 23 C 3.356785 -4.422087 1.992549 0
M  V30 24 C 2.414030 -5.265967 1.444599 0
M  V30 25 C 1.262851 -4.759904 0.886206 0
M  V30 26 H -0.088977 -7.651920 -0.222661 0
M  V30 27 H 1.638085 -7.285751 -0.122601 0
M  V30 28 H 0.749162 -7.523689 1.418916 0
M  V30 29 H -1.483565 -5.898850 -0.615005 0
M  V30 30 H -1.959857 -3.559153 -0.692563 0
M  V30 31 H -2.422172 -1.592762 -0.789467 0
M  V30 32 H -2.499088 1.023400 -0.640697 0
M  V30 33 H -1.818034 3.083934 -0.140540 0
M  V30 34 H 0.739211 4.553890 -1.144519 0
M  V30 35 H 1.885263 6.650654 -0.592359 0
M  V30 36 H 1.513861 7.656112 1.638202 0
M  V30 37 H 0.051071 6.604932 3.257267 0
M  V30 38 H -1.131211 4.450878 2.700507 0
M  V30 39 H 1.819597 -1.559970 1.404432 0
M  V30 40 H 3.839125 -2.421568 2.385917 0
M  V30 41 H 4.238948 -4.881018 2.415325 0
M  V30 42 H 2.593480 -6.343874 1.459666 0
M  V30 END ATOM
M  V30 BEGIN BOND
M  V30 1 1 1 2
M  V30 2 2 2 3
M  V30 3 1 3 4
M  V30 4 2 4 5
M  V30 5 1 5 6
M  V30 6 2 6 7
M  V30 7 1 7 8
M  V30 8 2 8 9
M  V30 9 1 9 10
M  V30 10 2 10 11
M  V30 11 1 10 12
M  V30 12 1 12 13
M  V30 13 2 13 14
M  V30 14 1 14 15
M  V30 15 2 15 16
M  V30 16 1 16 17
M  V30 17 2 17 18
M  V30 18 1 9 19
M  V30 19 1 5 20
M  V30 20 2 20 21
M  V30 21 1 21 22
M  V30 22 2 22 23
M  V30 23 1 23 24
M  V30 24 2 24 25
M  V30 25 1 25 2
M  V30 26 1 19 6
M  V30 27 1 25 20
M  V30 28 1 18 13
M  V30 29 1 1 26
M  V30 30 1 1 27
M  V30 31 1 1 28
M  V30 32 1 3 29
M  V30 33 1 4 30
M  V30 34 1 7 31
M  V30 35 1 8 32
M  V30 36 1 12 33
M  V30 37 1 14 34
M  V30 38 1 15 35
M  V30 39 1 16 36
M  V30 40 1 17 37
M  V30 41 1 18 38
M  V30 42 1 21 39
M  V30 43 1 22 40
M  V30 44 1 23 41
M  V30 45 1 24 42
M  V30 END BOND
M  V30 END CTAB
M  END
>  <Dataset>  (835) 
ChEMBL_Kinases

>  <Ligand_Instance>  (835) 
nan

>  <PDB_ID>  (835) 
nan

>  <Standardized_SMILES>  (835) 
Cc1ccc(-c2ccc(C(=O)Nc3ccccc3)o2)c2ccccc12

>  <Name>  (835) 
nan

>  <Pocket>  (835) 
nan

>  <ATP_Site>  (835) 
nan

>  <Peripheral>  (835) 
nan

>  <Num_H_Atoms_ProtBoundConf>  (835) 
nan

>  <Num_Resolved_Atoms>  (835) 
nan

>  <Num_Not_Resolved_Atoms>  (835) 
nan

$$$$
CHEMBL1416727
     RDKit          3D

  0  0  0  0  0  0  0  0  0  0999 V3000
M  V30 BEGIN CTAB
M  V30 COUNTS 35 36 0 0 0
M  V30 BEGIN ATOM
M  V30 1 C 1.092254 -0.764967 5.057400 0
M  V30 2 O 1.365279 -1.988732 4.381242 0
M  V30 3 C 1.186272 -2.022731 3.003676 0
M  V30 4 C 1.473285 -3.247310 2.427565 0
M  V30 5 C 1.341523 -3.429675 1.071013 0
M  V30 6 C 0.921007 -2.395131 0.261183 0
M  V30 7 O 0.732973 -2.398388 -1.115196 0
M  V30 8 C 0.978184 -3.569908 -1.880225 0
M  V30 9 C 0.629963 -1.159014 0.833066 0
M  V30 10 N 0.186250 0.024008 0.177751 0
M  V30 11 C 1.024595 1.034949 -0.351294 0
M  V30 12 O 2.272213 0.824119 -0.204813 0
M  V30 13 C 0.490804 2.247996 -1.025235 0
M  V30 14 N -0.955248 2.145632 -1.006215 0
M  V30 15 C -1.798462 1.589262 -1.904174 0
M  V30 16 C -3.090203 1.754296 -1.417756 0
M  V30 17 C -3.044901 2.419694 -0.206363 0
M  V30 18 C -1.691020 2.647684 0.017685 0
M  V30 19 C 0.765351 -0.985584 2.196576 0
M  V30 20 H 0.141287 -0.292871 4.735897 0
M  V30 21 H 1.894011 -0.012034 4.852230 0
M  V30 22 H 0.965628 -0.939171 6.155551 0
M  V30 23 H 1.814053 -4.143338 2.958238 0
M  V30 24 H 1.542906 -4.338378 0.559042 0
M  V30 25 H 0.055231 -4.169637 -1.913632 0
M  V30 26 H 1.772181 -4.207476 -1.463760 0
M  V30 27 H 1.193707 -3.296414 -2.950739 0
M  V30 28 H -0.858873 0.105538 0.106802 0
M  V30 29 H 0.802655 2.180860 -2.096942 0
M  V30 30 H 0.849380 3.193744 -0.571913 0
M  V30 31 H -1.478634 1.117096 -2.814013 0
M  V30 32 H -4.013230 1.414359 -1.908198 0
M  V30 33 H -3.886371 2.695847 0.419149 0
M  V30 34 H -1.344686 3.156927 0.900291 0
M  V30 35 H 0.564799 -0.062705 2.745404 0
M  V30 END ATOM
M  V30 BEGIN BOND
M  V30 1 1 1 2
M  V30 2 1 2 3
M  V30 3 2 3 4
M  V30 4 1 4 5
M  V30 5 2 5 6
M  V30 6 1 6 7
M  V30 7 1 7 8
M  V30 8 1 6 9
M  V30 9 1 9 10
M  V30 10 1 10 11
M  V30 11 2 11 12
M  V30 12 1 11 13
M  V30 13 1 13 14
M  V30 14 1 14 15
M  V30 15 2 15 16
M  V30 16 1 16 17
M  V30 17 2 17 18
M  V30 18 2 9 19
M  V30 19 1 19 3
M  V30 20 1 18 14
M  V30 21 1 1 20
M  V30 22 1 1 21
M  V30 23 1 1 22
M  V30 24 1 4 23
M  V30 25 1 5 24
M  V30 26 1 8 25
M  V30 27 1 8 26
M  V30 28 1 8 27
M  V30 29 1 10 28
M  V30 30 1 13 29
M  V30 31 1 13 30
M  V30 32 1 15 31
M  V30 33 1 16 32
M  V30 34 1 17 33
M  V30 35 1 18 34
M  V30 36 1 19 35
M  V30 END BOND
M  V30 END CTAB
M  END
>  <Dataset>  (836) 
ChEMBL_Kinases

>  <Ligand_Instance>  (836) 
nan

>  <PDB_ID>  (836) 
nan

>  <Standardized_SMILES>  (836) 
COc1ccc(OC)c(NC(=O)Cn2cccc2)c1

>  <Name>  (836) 
nan

>  <Pocket>  (836) 
nan

>  <ATP_Site>  (836) 
nan

>  <Peripheral>  (836) 
nan

>  <Num_H_Atoms_ProtBoundConf>  (836) 
nan

>  <Num_Resolved_Atoms>  (836) 
nan

>  <Num_Not_Resolved_Atoms>  (836) 
nan

$$$$
CHEMBL1416752
     RDKit          3D

  0  0  0  0  0  0  0  0  0  0999 V3000
M  V30 BEGIN CTAB
M  V30 COUNTS 50 52 0 0 0
M  V30 BEGIN ATOM
M  V30 1 C -1.634437 1.616899 5.155468 0
M  V30 2 S -0.153194 2.489621 4.591227 0
M  V30 3 C 1.344739 1.577377 4.938813 0
M  V30 4 C 1.508189 0.285785 4.190370 0
M  V30 5 C 1.552657 0.505591 2.745168 0
M  V30 6 N 1.735333 -0.691086 1.945784 0
M  V30 7 C 2.803390 -0.748294 1.033675 0
M  V30 8 O 3.596088 0.219925 0.904631 0
M  V30 9 C 3.069135 -1.904287 0.187585 0
M  V30 10 C 4.101893 -1.998867 -0.721282 0
M  V30 11 C 4.037807 -3.247405 -1.343550 0
M  V30 12 C 2.940575 -3.839651 -0.752699 0
M  V30 13 O 2.394427 -3.032580 0.137504 0
M  V30 14 C 0.260151 1.106290 2.256700 0
M  V30 15 O -0.764058 1.773344 2.015033 0
M  V30 16 O -0.474348 0.522161 1.275011 0
M  V30 17 C -1.676716 0.891405 0.680313 0
M  V30 18 C -1.945995 -0.185614 -0.358004 0
M  V30 19 C -2.893695 -1.167405 -0.128473 0
M  V30 20 C -3.164365 -2.160502 -1.047809 0
M  V30 21 N -4.162755 -3.138072 -0.727534 0 CHG=1 VAL=4
M  V30 22 O -4.430316 -4.048099 -1.537749 0
M  V30 23 O -4.836381 -3.094752 0.460556 0 CHG=-1 VAL=1
M  V30 24 C -2.441168 -2.151702 -2.246109 0
M  V30 25 C -1.498460 -1.170369 -2.467912 0
M  V30 26 C -1.242865 -0.186147 -1.535685 0
M  V30 27 O -0.268432 0.785193 -1.824403 0
M  V30 28 C 0.685726 0.379982 -2.817739 0
M  V30 29 O 0.048376 -0.105595 -3.943050 0
M  V30 30 C -0.758280 -1.195054 -3.740258 0
M  V30 31 H -1.880970 0.749681 4.512224 0
M  V30 32 H -2.514271 2.276910 5.191923 0
M  V30 33 H -1.403033 1.165585 6.157772 0
M  V30 34 H 2.266805 2.216674 4.812215 0
M  V30 35 H 1.343000 1.394411 6.060705 0
M  V30 36 H 0.668635 -0.353946 4.546698 0
M  V30 37 H 2.496010 -0.133881 4.549132 0
M  V30 38 H 2.348301 1.216395 2.487140 0
M  V30 39 H 1.086065 -1.506694 2.039230 0
M  V30 40 H 4.865912 -1.263782 -0.958404 0
M  V30 41 H 4.711093 -3.621082 -2.105075 0
M  V30 42 H 2.613387 -4.850140 -1.027628 0
M  V30 43 H -2.498005 0.818760 1.439692 0
M  V30 44 H -1.672872 1.824136 0.107761 0
M  V30 45 H -3.418949 -1.109104 0.831158 0
M  V30 46 H -2.692366 -2.941714 -2.917461 0
M  V30 47 H 1.257983 -0.451181 -2.355791 0
M  V30 48 H 1.349978 1.194359 -3.115375 0
M  V30 49 H -0.227311 -2.175068 -3.856729 0
M  V30 50 H -1.530890 -1.179848 -4.555504 0
M  V30 END ATOM
M  V30 BEGIN BOND
M  V30 1 1 1 2
M  V30 2 1 2 3
M  V30 3 1 3 4
M  V30 4 1 4 5
M  V30 5 1 5 6
M  V30 6 1 6 7
M  V30 7 2 7 8
M  V30 8 1 7 9
M  V30 9 2 9 10
M  V30 10 1 10 11
M  V30 11 2 11 12
M  V30 12 1 12 13
M  V30 13 1 5 14
M  V30 14 2 14 15
M  V30 15 1 14 16
M  V30 16 1 16 17
M  V30 17 1 17 18
M  V30 18 2 18 19
M  V30 19 1 19 20
M  V30 20 1 20 21
M  V30 21 2 21 22
M  V30 22 1 21 23
M  V30 23 2 20 24
M  V30 24 1 24 25
M  V30 25 2 25 26
M  V30 26 1 26 27
M  V30 27 1 27 28
M  V30 28 1 28 29
M  V30 29 1 29 30
M  V30 30 1 13 9
M  V30 31 1 26 18
M  V30 32 1 30 25
M  V30 33 1 1 31
M  V30 34 1 1 32
M  V30 35 1 1 33
M  V30 36 1 3 34
M  V30 37 1 3 35
M  V30 38 1 4 36
M  V30 39 1 4 37
M  V30 40 1 5 38
M  V30 41 1 6 39
M  V30 42 1 10 40
M  V30 43 1 11 41
M  V30 44 1 12 42
M  V30 45 1 17 43
M  V30 46 1 17 44
M  V30 47 1 19 45
M  V30 48 1 24 46
M  V30 49 1 28 47
M  V30 50 1 28 48
M  V30 51 1 30 49
M  V30 52 1 30 50
M  V30 END BOND
M  V30 END CTAB
M  END
>  <Dataset>  (837) 
ChEMBL_Kinases

>  <Ligand_Instance>  (837) 
nan

>  <PDB_ID>  (837) 
nan

>  <Standardized_SMILES>  (837) 
CSCCC(NC(=O)c1ccco1)C(=O)OCc1cc([N+](=O)[O-])cc2c1OCOC2

>  <Name>  (837) 
nan

>  <Pocket>  (837) 
nan

>  <ATP_Site>  (837) 
nan

>  <Peripheral>  (837) 
nan

>  <Num_H_Atoms_ProtBoundConf>  (837) 
nan

>  <Num_Resolved_Atoms>  (837) 
nan

>  <Num_Not_Resolved_Atoms>  (837) 
nan

$$$$
CHEMBL1416760
     RDKit          3D

  0  0  0  0  0  0  0  0  0  0999 V3000
M  V30 BEGIN CTAB
M  V30 COUNTS 71 74 0 0 0
M  V30 BEGIN ATOM
M  V30 1 C 2.265198 -3.792029 3.006480 0
M  V30 2 N 2.835774 -2.641281 2.329761 0
M  V30 3 C 2.436822 -1.426347 2.728998 0
M  V30 4 O 1.604037 -1.238877 3.649061 0
M  V30 5 C 2.992045 -0.352706 2.071852 0
M  V30 6 C 3.911340 -0.451631 1.052340 0
M  V30 7 O 4.542142 0.488762 0.315956 0
M  V30 8 C 4.478922 1.866135 0.328560 0
M  V30 9 C 3.159844 2.493314 0.036568 0
M  V30 10 C 2.684908 2.088623 -1.344151 0
M  V30 11 C 1.370206 2.682481 -1.696066 0
M  V30 12 O 0.744277 3.436605 -0.886884 0
M  V30 13 N 0.870554 2.350442 -2.986359 0
M  V30 14 C -0.395024 2.862498 -3.451793 0
M  V30 15 C -1.569313 2.448973 -2.579097 0
M  V30 16 C -1.737232 0.974871 -2.502992 0
M  V30 17 N -2.793149 0.460319 -1.731566 0
M  V30 18 C -2.937975 -0.955232 -1.667515 0
M  V30 19 C -3.769349 -1.416108 -0.490602 0
M  V30 20 N -3.266690 -0.966072 0.764831 0
M  V30 21 C -4.269498 -0.716278 1.772559 0
M  V30 22 C -5.068894 -1.888385 2.145020 0
M  V30 23 C -4.581297 -2.687236 3.183212 0
M  V30 24 C -5.190387 -3.816522 3.667972 0
M  V30 25 C -6.390177 -4.155409 3.043602 0
M  V30 26 C -6.942502 -3.424466 2.013464 0
M  V30 27 C -6.247070 -2.306624 1.603827 0
M  V30 28 C -2.461384 0.199715 0.602643 0
M  V30 29 C -3.091667 1.055515 -0.482748 0
M  V30 30 C 4.263677 -1.740606 0.708187 0
M  V30 31 C 5.171008 -2.055225 -0.289353 0
M  V30 32 C 5.553915 -3.317628 -0.668356 0
M  V30 33 C 4.990887 -4.385857 -0.002656 0
M  V30 34 C 4.076388 -4.169734 1.006410 0
M  V30 35 C 3.736615 -2.875550 1.336530 0
M  V30 36 H 3.075308 -4.462297 3.411853 0
M  V30 37 H 1.742165 -4.398730 2.234581 0
M  V30 38 H 1.538538 -3.521797 3.769917 0
M  V30 39 H 2.721765 0.656871 2.342787 0
M  V30 40 H 4.941592 2.290202 1.268995 0
M  V30 41 H 5.188238 2.231842 -0.473593 0
M  V30 42 H 2.399470 2.426810 0.816940 0
M  V30 43 H 3.366013 3.605045 -0.058615 0
M  V30 44 H 2.697917 1.000091 -1.515654 0
M  V30 45 H 3.408826 2.519675 -2.081451 0
M  V30 46 H 1.416584 1.716718 -3.641449 0
M  V30 47 H -0.566179 2.611688 -4.508904 0
M  V30 48 H -0.332657 3.974428 -3.403433 0
M  V30 49 H -2.471369 2.877384 -3.076648 0
M  V30 50 H -1.443809 2.956648 -1.622849 0
M  V30 51 H -1.835748 0.572556 -3.540189 0
M  V30 52 H -0.773546 0.548079 -2.124217 0
M  V30 53 H -1.924942 -1.418197 -1.546207 0
M  V30 54 H -3.408957 -1.404057 -2.569697 0
M  V30 55 H -3.752714 -2.527001 -0.499020 0
M  V30 56 H -4.829475 -1.108788 -0.590166 0
M  V30 57 H -4.937347 0.090207 1.384932 0
M  V30 58 H -3.834390 -0.301082 2.702310 0
M  V30 59 H -3.645270 -2.420966 3.669252 0
M  V30 60 H -4.757047 -4.388589 4.475712 0
M  V30 61 H -6.928068 -5.041115 3.377906 0
M  V30 62 H -7.874873 -3.707240 1.544104 0
M  V30 63 H -6.656800 -1.724655 0.810277 0
M  V30 64 H -1.457004 -0.147891 0.258292 0
M  V30 65 H -2.288472 0.768691 1.534545 0
M  V30 66 H -2.704593 2.069197 -0.303468 0
M  V30 67 H -4.202653 0.998879 -0.345628 0
M  V30 68 H 5.628536 -1.237310 -0.827621 0
M  V30 69 H 6.260246 -3.473243 -1.447618 0
M  V30 70 H 5.259822 -5.393120 -0.265371 0
M  V30 71 H 3.641216 -4.996812 1.521299 0
M  V30 END ATOM
M  V30 BEGIN BOND
M  V30 1 1 1 2
M  V30 2 1 2 3
M  V30 3 2 3 4
M  V30 4 1 3 5
M  V30 5 2 5 6
M  V30 6 1 6 7
M  V30 7 1 7 8
M  V30 8 1 8 9
M  V30 9 1 9 10
M  V30 10 1 10 11
M  V30 11 2 11 12
M  V30 12 1 11 13
M  V30 13 1 13 14
M  V30 14 1 14 15
M  V30 15 1 15 16
M  V30 16 1 16 17
M  V30 17 1 17 18
M  V30 18 1 18 19
M  V30 19 1 19 20
M  V30 20 1 20 21
M  V30 21 1 21 22
M  V30 22 2 22 23
M  V30 23 1 23 24
M  V30 24 2 24 25
M  V30 25 1 25 26
M  V30 26 2 26 27
M  V30 27 1 20 28
M  V30 28 1 28 29
M  V30 29 1 6 30
M  V30 30 2 30 31
M  V30 31 1 31 32
M  V30 32 2 32 33
M  V30 33 1 33 34
M  V30 34 2 34 35
M  V30 35 1 35 2
M  V30 36 1 29 17
M  V30 37 1 35 30
M  V30 38 1 27 22
M  V30 39 1 1 36
M  V30 40 1 1 37
M  V30 41 1 1 38
M  V30 42 1 5 39
M  V30 43 1 8 40
M  V30 44 1 8 41
M  V30 45 1 9 42
M  V30 46 1 9 43
M  V30 47 1 10 44
M  V30 48 1 10 45
M  V30 49 1 13 46
M  V30 50 1 14 47
M  V30 51 1 14 48
M  V30 52 1 15 49
M  V30 53 1 15 50
M  V30 54 1 16 51
M  V30 55 1 16 52
M  V30 56 1 18 53
M  V30 57 1 18 54
M  V30 58 1 19 55
M  V30 59 1 19 56
M  V30 60 1 21 57
M  V30 61 1 21 58
M  V30 62 1 23 59
M  V30 63 1 24 60
M  V30 64 1 25 61
M  V30 65 1 26 62
M  V30 66 1 27 63
M  V30 67 1 28 64
M  V30 68 1 28 65
M  V30 69 1 29 66
M  V30 70 1 29 67
M  V30 71 1 31 68
M  V30 72 1 32 69
M  V30 73 1 33 70
M  V30 74 1 34 71
M  V30 END BOND
M  V30 END CTAB
M  END
>  <Dataset>  (838) 
ChEMBL_Kinases

>  <Ligand_Instance>  (838) 
nan

>  <PDB_ID>  (838) 
nan

>  <Standardized_SMILES>  (838) 
Cn1c(=O)cc(OCCCC(=O)NCCCN2CCN(Cc3ccccc3)CC2)c2ccccc21

>  <Name>  (838) 
nan

>  <Pocket>  (838) 
nan

>  <ATP_Site>  (838) 
nan

>  <Peripheral>  (838) 
nan

>  <Num_H_Atoms_ProtBoundConf>  (838) 
nan

>  <Num_Resolved_Atoms>  (838) 
nan

>  <Num_Not_Resolved_Atoms>  (838) 
nan

$$$$
CHEMBL1416773
     RDKit          3D

  0  0  0  0  0  0  0  0  0  0999 V3000
M  V30 BEGIN CTAB
M  V30 COUNTS 35 38 0 0 0
M  V30 BEGIN ATOM
M  V30 1 C -4.121820 -4.346484 2.153583 0
M  V30 2 O -3.131377 -3.368464 2.499035 0
M  V30 3 C -2.255681 -2.931160 1.503273 0
M  V30 4 C -2.262724 -3.364201 0.204289 0
M  V30 5 C -1.365297 -2.882106 -0.712922 0
M  V30 6 C -0.410317 -1.944762 -0.396604 0
M  V30 7 C 0.541090 -1.439609 -1.385239 0
M  V30 8 N 0.797454 -2.131676 -2.510014 0
M  V30 9 N 1.663798 -1.548018 -3.282419 0
M  V30 10 C 2.012025 -0.383505 -2.628908 0
M  V30 11 S 2.961627 1.225906 -2.468024 0
M  V30 12 C 2.177674 1.599086 -0.834412 0
M  V30 13 C 2.571869 2.837229 -0.173544 0
M  V30 14 C 3.406521 3.830373 -0.468380 0
M  V30 15 C 3.536430 4.870313 0.407961 0
M  V30 16 C 2.748547 4.811749 1.602074 0
M  V30 17 S 1.840871 3.209472 1.378647 0
M  V30 18 N 1.439598 0.669781 -0.625946 0
M  V30 19 N 1.308133 -0.335640 -1.460378 0
M  V30 20 C -0.381029 -1.484904 0.925034 0
M  V30 21 C -1.305358 -1.988358 1.847768 0
M  V30 22 O -1.265651 -1.523723 3.155051 0
M  V30 23 C -0.315387 -0.566232 3.541162 0
M  V30 24 H -3.628033 -5.323616 2.012340 0
M  V30 25 H -4.640123 -4.060555 1.222494 0
M  V30 26 H -4.860856 -4.454158 2.964448 0
M  V30 27 H -3.011546 -4.112458 -0.082417 0
M  V30 28 H -1.382258 -3.229873 -1.726394 0
M  V30 29 H 3.953514 3.775996 -1.396100 0
M  V30 30 H 4.207247 5.727726 0.232200 0
M  V30 31 H 2.801782 5.630190 2.370182 0
M  V30 32 H 0.366284 -0.738992 1.207978 0
M  V30 33 H -0.326293 -0.438781 4.644778 0
M  V30 34 H 0.689602 -0.901312 3.215027 0
M  V30 35 H -0.466154 0.439310 3.093664 0
M  V30 END ATOM
M  V30 BEGIN BOND
M  V30 1 1 1 2
M  V30 2 1 2 3
M  V30 3 2 3 4
M  V30 4 1 4 5
M  V30 5 2 5 6
M  V30 6 1 6 7
M  V30 7 2 7 8
M  V30 8 1 8 9
M  V30 9 2 9 10
M  V30 10 1 10 11
M  V30 11 1 11 12
M  V30 12 1 12 13
M  V30 13 2 13 14
M  V30 14 1 14 15
M  V30 15 2 15 16
M  V30 16 1 16 17
M  V30 17 2 12 18
M  V30 18 1 18 19
M  V30 19 1 6 20
M  V30 20 2 20 21
M  V30 21 1 21 22
M  V30 22 1 22 23
M  V30 23 1 21 3
M  V30 24 1 19 7
M  V30 25 1 19 10
M  V30 26 1 17 13
M  V30 27 1 1 24
M  V30 28 1 1 25
M  V30 29 1 1 26
M  V30 30 1 4 27
M  V30 31 1 5 28
M  V30 32 1 14 29
M  V30 33 1 15 30
M  V30 34 1 16 31
M  V30 35 1 20 32
M  V30 36 1 23 33
M  V30 37 1 23 34
M  V30 38 1 23 35
M  V30 END BOND
M  V30 END CTAB
M  END
>  <Dataset>  (839) 
ChEMBL_Kinases

>  <Ligand_Instance>  (839) 
nan

>  <PDB_ID>  (839) 
nan

>  <Standardized_SMILES>  (839) 
COc1ccc(-c2nnc3sc(-c4cccs4)nn23)cc1OC

>  <Name>  (839) 
nan

>  <Pocket>  (839) 
nan

>  <ATP_Site>  (839) 
nan

>  <Peripheral>  (839) 
nan

>  <Num_H_Atoms_ProtBoundConf>  (839) 
nan

>  <Num_Resolved_Atoms>  (839) 
nan

>  <Num_Not_Resolved_Atoms>  (839) 
nan

$$$$
CHEMBL1417771
     RDKit          3D

  0  0  0  0  0  0  0  0  0  0999 V3000
M  V30 BEGIN CTAB
M  V30 COUNTS 49 53 0 0 0
M  V30 BEGIN ATOM
M  V30 1 C -1.161975 -1.957511 3.465347 0
M  V30 2 O -0.492234 -3.037682 2.869759 0
M  V30 3 C 0.648263 -2.961107 2.101125 0
M  V30 4 C 1.121042 -4.179265 1.621271 0
M  V30 5 C 2.255462 -4.251662 0.837659 0
M  V30 6 C 2.961804 -3.118202 0.501453 0
M  V30 7 N 4.053917 -2.816650 -0.199074 0
M  V30 8 C 4.240215 -1.486175 -0.151967 0
M  V30 9 C 3.239058 -0.855825 0.607828 0
M  V30 10 C 3.293296 0.613121 0.726485 0
M  V30 11 C 2.410085 1.365938 -0.209778 0
M  V30 12 N 0.998249 1.142163 -0.079027 0
M  V30 13 C 0.353134 1.614872 1.092620 0
M  V30 14 N 1.020567 2.274992 2.051210 0
M  V30 15 C 0.435638 2.752092 3.164200 0
M  V30 16 N -0.892798 2.551173 3.315500 0
M  V30 17 C -1.575763 1.891738 2.364707 0
M  V30 18 C -0.999797 1.385931 1.202736 0
M  V30 19 C -1.867928 0.678225 0.274400 0
M  V30 20 C -3.014979 1.419194 -0.028490 0
M  V30 21 C -3.982539 0.950092 -0.875535 0
M  V30 22 C -3.854174 -0.286364 -1.465928 0
M  V30 23 C -2.711474 -1.026772 -1.165411 0
M  V30 24 C -1.744787 -0.543522 -0.310857 0
M  V30 25 O -2.782445 -2.225910 -1.857436 0
M  V30 26 C -4.133338 -2.428324 -2.228719 0
M  V30 27 O -4.591351 -1.087980 -2.351934 0
M  V30 28 C 2.470468 -1.927771 0.989604 0
M  V30 29 C 1.349782 -1.824152 1.768687 0
M  V30 30 H -1.030110 -1.955295 4.565250 0
M  V30 31 H -0.939643 -0.975167 3.002124 0
M  V30 32 H -2.261578 -2.137850 3.282000 0
M  V30 33 H 0.668228 -5.157463 1.805145 0
M  V30 34 H 2.649713 -5.199064 0.446937 0
M  V30 35 H 4.613362 -3.552202 -0.673693 0
M  V30 36 H 5.103894 -1.067866 -0.682462 0
M  V30 37 H 4.341381 0.992744 0.695563 0
M  V30 38 H 2.952173 0.919367 1.767074 0
M  V30 39 H 2.573919 2.476631 -0.050697 0
M  V30 40 H 2.760055 1.218284 -1.270382 0
M  V30 41 H 0.536845 0.645265 -0.867646 0
M  V30 42 H 1.078612 3.264850 3.859893 0
M  V30 43 H -2.632743 1.813947 2.634541 0
M  V30 44 H -3.249796 2.402059 0.360340 0
M  V30 45 H -4.885079 1.464381 -1.151715 0
M  V30 46 H -0.845563 -1.070170 -0.035906 0
M  V30 47 H -4.177096 -2.961723 -3.198285 0
M  V30 48 H -4.676420 -2.954506 -1.433983 0
M  V30 49 H 0.967347 -0.898332 2.161066 0
M  V30 END ATOM
M  V30 BEGIN BOND
M  V30 1 1 1 2
M  V30 2 1 2 3
M  V30 3 2 3 4
M  V30 4 1 4 5
M  V30 5 2 5 6
M  V30 6 1 6 7
M  V30 7 1 7 8
M  V30 8 2 8 9
M  V30 9 1 9 10
M  V30 10 1 10 11
M  V30 11 1 11 12
M  V30 12 1 12 13
M  V30 13 2 13 14
M  V30 14 1 14 15
M  V30 15 2 15 16
M  V30 16 1 16 17
M  V30 17 2 17 18
M  V30 18 1 18 19
M  V30 19 2 19 20
M  V30 20 1 20 21
M  V30 21 2 21 22
M  V30 22 1 22 23
M  V30 23 2 23 24
M  V30 24 1 23 25
M  V30 25 1 25 26
M  V30 26 1 26 27
M  V30 27 1 9 28
M  V30 28 2 28 29
M  V30 29 1 29 3
M  V30 30 1 28 6
M  V30 31 1 18 13
M  V30 32 1 24 19
M  V30 33 1 27 22
M  V30 34 1 1 30
M  V30 35 1 1 31
M  V30 36 1 1 32
M  V30 37 1 4 33
M  V30 38 1 5 34
M  V30 39 1 7 35
M  V30 40 1 8 36
M  V30 41 1 10 37
M  V30 42 1 10 38
M  V30 43 1 11 39
M  V30 44 1 11 40
M  V30 45 1 12 41
M  V30 46 1 15 42
M  V30 47 1 17 43
M  V30 48 1 20 44
M  V30 49 1 21 45
M  V30 50 1 24 46
M  V30 51 1 26 47
M  V30 52 1 26 48
M  V30 53 1 29 49
M  V30 END BOND
M  V30 END CTAB
M  END
>  <Dataset>  (840) 
ChEMBL_Kinases

>  <Ligand_Instance>  (840) 
nan

>  <PDB_ID>  (840) 
nan

>  <Standardized_SMILES>  (840) 
COc1ccc2[nH]cc(CCNc3ncncc3-c3ccc4c(c3)OCO4)c2c1

>  <Name>  (840) 
nan

>  <Pocket>  (840) 
nan

>  <ATP_Site>  (840) 
nan

>  <Peripheral>  (840) 
nan

>  <Num_H_Atoms_ProtBoundConf>  (840) 
nan

>  <Num_Resolved_Atoms>  (840) 
nan

>  <Num_Not_Resolved_Atoms>  (840) 
nan

$$$$
CHEMBL1417025
     RDKit          3D

  0  0  0  0  0  0  0  0  0  0999 V3000
M  V30 BEGIN CTAB
M  V30 COUNTS 42 45 0 0 0
M  V30 BEGIN ATOM
M  V30 1 O 1.823735 -3.721436 3.535203 0
M  V30 2 C 2.313104 -2.578180 3.393081 0
M  V30 3 C 3.473384 -2.314168 4.102647 0
M  V30 4 N 4.030010 -1.112519 3.983224 0
M  V30 5 C 3.466961 -0.199873 3.193707 0
M  V30 6 C 4.001206 1.062732 3.032345 0
M  V30 7 N 3.407744 1.964159 2.226068 0
M  V30 8 C 2.283625 1.684769 1.548712 0
M  V30 9 O 1.868126 2.757219 0.795428 0
M  V30 10 C 0.742270 2.774495 -0.010034 0
M  V30 11 C -0.207967 1.829192 -0.279092 0
M  V30 12 C -1.243044 2.124279 -1.139098 0
M  V30 13 C -1.368035 3.359891 -1.756460 0
M  V30 14 C -0.413506 4.322328 -1.491688 0
M  V30 15 Cl -0.632257 5.842144 -2.297130 0
M  V30 16 C 0.633450 4.025435 -0.622489 0
M  V30 17 N 1.771013 0.459849 1.709290 0
M  V30 18 C 2.317778 -0.468523 2.493991 0
M  V30 19 N 1.712498 -1.666441 2.577330 0
M  V30 20 C 0.516802 -2.041754 1.890256 0
M  V30 21 C 0.755078 -2.652877 0.542681 0
M  V30 22 C -0.585260 -2.990318 -0.047262 0
M  V30 23 C -1.362333 -2.173402 -0.830103 0
M  V30 24 C -2.578076 -2.624318 -1.302185 0
M  V30 25 C -2.958982 -3.903675 -0.954653 0
M  V30 26 C -2.207397 -4.731336 -0.181148 0
M  V30 27 C -0.985414 -4.286627 0.297068 0
M  V30 28 H 3.917564 -3.066534 4.739338 0
M  V30 29 H 4.907585 1.267923 3.587091 0
M  V30 30 H -0.029618 0.914101 0.238931 0
M  V30 31 H -1.960956 1.354745 -1.318692 0
M  V30 32 H -2.205137 3.532581 -2.423747 0
M  V30 33 H 1.298126 4.885520 -0.519385 0
M  V30 34 H -0.182701 -1.178996 1.715011 0
M  V30 35 H -0.099386 -2.754603 2.495560 0
M  V30 36 H 1.178898 -1.871329 -0.152307 0
M  V30 37 H 1.433362 -3.506420 0.542058 0
M  V30 38 H -0.916883 -1.206525 -1.006117 0
M  V30 39 H -3.145874 -1.935804 -1.914065 0
M  V30 40 H -3.914849 -4.259064 -1.325452 0
M  V30 41 H -2.557794 -5.732885 0.062218 0
M  V30 42 H -0.431957 -4.976303 0.901582 0
M  V30 END ATOM
M  V30 BEGIN BOND
M  V30 1 2 1 2
M  V30 2 1 2 3
M  V30 3 2 3 4
M  V30 4 1 4 5
M  V30 5 2 5 6
M  V30 6 1 6 7
M  V30 7 2 7 8
M  V30 8 1 8 9
M  V30 9 1 9 10
M  V30 10 2 10 11
M  V30 11 1 11 12
M  V30 12 2 12 13
M  V30 13 1 13 14
M  V30 14 1 14 15
M  V30 15 2 14 16
M  V30 16 1 8 17
M  V30 17 2 17 18
M  V30 18 1 18 19
M  V30 19 1 19 20
M  V30 20 1 20 21
M  V30 21 1 21 22
M  V30 22 2 22 23
M  V30 23 1 23 24
M  V30 24 2 24 25
M  V30 25 1 25 26
M  V30 26 2 26 27
M  V30 27 1 19 2
M  V30 28 1 27 22
M  V30 29 1 18 5
M  V30 30 1 16 10
M  V30 31 1 3 28
M  V30 32 1 6 29
M  V30 33 1 11 30
M  V30 34 1 12 31
M  V30 35 1 13 32
M  V30 36 1 16 33
M  V30 37 1 20 34
M  V30 38 1 20 35
M  V30 39 1 21 36
M  V30 40 1 21 37
M  V30 41 1 23 38
M  V30 42 1 24 39
M  V30 43 1 25 40
M  V30 44 1 26 41
M  V30 45 1 27 42
M  V30 END BOND
M  V30 END CTAB
M  END
>  <Dataset>  (841) 
ChEMBL_Kinases

>  <Ligand_Instance>  (841) 
nan

>  <PDB_ID>  (841) 
nan

>  <Standardized_SMILES>  (841) 
O=c1cnc2cnc(Oc3cccc(Cl)c3)nc2n1CCc1ccccc1

>  <Name>  (841) 
nan

>  <Pocket>  (841) 
nan

>  <ATP_Site>  (841) 
nan

>  <Peripheral>  (841) 
nan

>  <Num_H_Atoms_ProtBoundConf>  (841) 
nan

>  <Num_Resolved_Atoms>  (841) 
nan

>  <Num_Not_Resolved_Atoms>  (841) 
nan

$$$$
CHEMBL1417097
     RDKit          3D

  0  0  0  0  0  0  0  0  0  0999 V3000
M  V30 BEGIN CTAB
M  V30 COUNTS 40 43 0 0 0
M  V30 BEGIN ATOM
M  V30 1 C 4.346430 -2.102804 1.519156 0
M  V30 2 O 3.686835 -0.889305 1.216210 0
M  V30 3 C 2.824992 -0.744639 0.131171 0
M  V30 4 C 2.507455 -1.736316 -0.771597 0
M  V30 5 C 1.633486 -1.494392 -1.829822 0
M  V30 6 C 1.054547 -0.234755 -2.002936 0
M  V30 7 C 0.134787 -0.063227 -3.158502 0
M  V30 8 C 1.370016 0.777367 -1.091883 0
M  V30 9 C 2.249651 0.513752 -0.036987 0
M  V30 10 N 2.559021 1.557171 0.834620 0
M  V30 11 N 3.098668 2.738254 0.625166 0
M  V30 12 N 3.181810 3.287854 1.815064 0
M  V30 13 N 2.699224 2.460638 2.759905 0
M  V30 14 C 2.287671 1.321317 2.119889 0
M  V30 15 S 1.661845 0.368704 3.443323 0
M  V30 16 C 0.862551 -1.161833 3.082301 0
M  V30 17 C -0.491829 -0.997188 2.410272 0
M  V30 18 N -1.522775 -0.834172 2.938418 0
M  V30 19 C -2.719593 -0.706875 2.389727 0
M  V30 20 C -3.937623 -0.512286 3.052746 0
M  V30 21 C -5.080714 -0.403207 2.296346 0
M  V30 22 C -5.156064 -0.466645 0.922516 0
M  V30 23 C -3.960373 -0.657962 0.266125 0
M  V30 24 C -2.792540 -0.770681 1.015652 0
M  V30 25 S -1.058319 -1.019474 0.610445 0
M  V30 26 H 3.672862 -2.958624 1.263794 0
M  V30 27 H 5.325795 -2.196365 1.009207 0
M  V30 28 H 4.556291 -2.183498 2.609525 0
M  V30 29 H 2.958110 -2.700530 -0.629596 0
M  V30 30 H 1.452366 -2.336829 -2.477955 0
M  V30 31 H -0.327373 -1.040874 -3.398792 0
M  V30 32 H -0.680231 0.641682 -2.858581 0
M  V30 33 H 0.692505 0.326285 -4.047952 0
M  V30 34 H 0.899964 1.740564 -1.260075 0
M  V30 35 H 1.488478 -1.849433 2.462140 0
M  V30 36 H 0.663803 -1.711755 4.019842 0
M  V30 37 H -4.060492 -0.438271 4.127611 0
M  V30 38 H -6.051122 -0.249656 2.796243 0
M  V30 39 H -6.037922 -0.384339 0.313768 0
M  V30 40 H -3.788715 -0.736101 -0.780676 0
M  V30 END ATOM
M  V30 BEGIN BOND
M  V30 1 1 1 2
M  V30 2 1 2 3
M  V30 3 2 3 4
M  V30 4 1 4 5
M  V30 5 2 5 6
M  V30 6 1 6 7
M  V30 7 1 6 8
M  V30 8 2 8 9
M  V30 9 1 9 10
M  V30 10 1 10 11
M  V30 11 2 11 12
M  V30 12 1 12 13
M  V30 13 2 13 14
M  V30 14 1 14 15
M  V30 15 1 15 16
M  V30 16 1 16 17
M  V30 17 2 17 18
M  V30 18 1 18 19
M  V30 19 2 19 20
M  V30 20 1 20 21
M  V30 21 2 21 22
M  V30 22 1 22 23
M  V30 23 2 23 24
M  V30 24 1 24 25
M  V30 25 1 9 3
M  V30 26 1 14 10
M  V30 27 1 25 17
M  V30 28 1 24 19
M  V30 29 1 1 26
M  V30 30 1 1 27
M  V30 31 1 1 28
M  V30 32 1 4 29
M  V30 33 1 5 30
M  V30 34 1 7 31
M  V30 35 1 7 32
M  V30 36 1 7 33
M  V30 37 1 8 34
M  V30 38 1 16 35
M  V30 39 1 16 36
M  V30 40 1 20 37
M  V30 41 1 21 38
M  V30 42 1 22 39
M  V30 43 1 23 40
M  V30 END BOND
M  V30 END CTAB
M  END
>  <Dataset>  (842) 
ChEMBL_Kinases

>  <Ligand_Instance>  (842) 
nan

>  <PDB_ID>  (842) 
nan

>  <Standardized_SMILES>  (842) 
COc1ccc(C)cc1-n1nnnc1SCc1nc2ccccc2s1

>  <Name>  (842) 
nan

>  <Pocket>  (842) 
nan

>  <ATP_Site>  (842) 
nan

>  <Peripheral>  (842) 
nan

>  <Num_H_Atoms_ProtBoundConf>  (842) 
nan

>  <Num_Resolved_Atoms>  (842) 
nan

>  <Num_Not_Resolved_Atoms>  (842) 
nan

$$$$
CHEMBL1417243
     RDKit          3D

  0  0  0  0  0  0  0  0  0  0999 V3000
M  V30 BEGIN CTAB
M  V30 COUNTS 50 54 0 0 0
M  V30 BEGIN ATOM
M  V30 1 O 1.794069 -3.775682 4.275553 0
M  V30 2 C 2.207557 -4.057449 2.953021 0
M  V30 3 C 1.140614 -3.541769 2.015663 0
M  V30 4 N 1.480234 -3.785940 0.643779 0
M  V30 5 C 2.572247 -3.056935 0.131361 0
M  V30 6 C 2.250733 -1.958494 -0.834328 0
M  V30 7 N 0.781509 -1.842879 -0.822807 0
M  V30 8 C 0.094505 -0.679700 -0.380430 0
M  V30 9 N 0.862756 0.327341 0.052195 0
M  V30 10 C 0.361515 1.490620 0.503989 0
M  V30 11 C 1.294233 2.521546 0.956363 0
M  V30 12 C 0.812822 3.726952 1.434896 0
M  V30 13 C 1.708608 4.684889 1.861114 0
M  V30 14 C 3.068489 4.410895 1.797106 0
M  V30 15 C 3.541476 3.215159 1.322166 0
M  V30 16 C 2.648132 2.242974 0.890199 0
M  V30 17 N -0.963749 1.691538 0.538821 0
M  V30 18 C -1.785172 0.716727 0.117139 0
M  V30 19 C -1.269607 -0.476952 -0.346068 0
M  V30 20 O -2.205451 -1.302321 -0.711034 0
M  V30 21 C -3.385728 -0.716699 -0.515644 0
M  V30 22 C -4.677816 -1.164570 -0.740679 0
M  V30 23 C -5.697562 -0.282785 -0.420547 0
M  V30 24 C -5.484683 0.969757 0.091396 0
M  V30 25 C -4.208233 1.409654 0.312781 0
M  V30 26 C -3.163823 0.547968 0.001608 0
M  V30 27 C 0.174709 -3.067170 -1.316378 0
M  V30 28 C 0.384737 -4.063733 -0.205046 0
M  V30 29 H 1.543281 -2.817224 4.340730 0
M  V30 30 H 3.163062 -3.552284 2.758850 0
M  V30 31 H 2.398793 -5.143463 2.848544 0
M  V30 32 H 1.092538 -2.442963 2.167468 0
M  V30 33 H 0.166835 -3.998976 2.246746 0
M  V30 34 H 3.292621 -3.758308 -0.337814 0
M  V30 35 H 3.120172 -2.583897 0.972823 0
M  V30 36 H 2.606918 -2.236531 -1.842135 0
M  V30 37 H 2.680003 -0.981134 -0.544179 0
M  V30 38 H -0.252913 3.920674 1.476456 0
M  V30 39 H 1.413327 5.641190 2.244377 0
M  V30 40 H 3.814235 5.142157 2.124347 0
M  V30 41 H 4.583761 2.980923 1.263130 0
M  V30 42 H 3.020488 1.316271 0.521651 0
M  V30 43 H -4.887614 -2.147634 -1.144056 0
M  V30 44 H -6.714421 -0.591557 -0.580606 0
M  V30 45 H -6.297467 1.658411 0.341172 0
M  V30 46 H -4.003002 2.392392 0.715825 0
M  V30 47 H -0.862367 -2.980544 -1.614765 0
M  V30 48 H 0.725799 -3.481649 -2.201609 0
M  V30 49 H -0.545342 -4.064989 0.402193 0
M  V30 50 H 0.505693 -5.095246 -0.596077 0
M  V30 END ATOM
M  V30 BEGIN BOND
M  V30 1 1 1 2
M  V30 2 1 2 3
M  V30 3 1 3 4
M  V30 4 1 4 5
M  V30 5 1 5 6
M  V30 6 1 6 7
M  V30 7 1 7 8
M  V30 8 2 8 9
M  V30 9 1 9 10
M  V30 10 1 10 11
M  V30 11 2 11 12
M  V30 12 1 12 13
M  V30 13 2 13 14
M  V30 14 1 14 15
M  V30 15 2 15 16
M  V30 16 2 10 17
M  V30 17 1 17 18
M  V30 18 2 18 19
M  V30 19 1 19 20
M  V30 20 1 20 21
M  V30 21 2 21 22
M  V30 22 1 22 23
M  V30 23 2 23 24
M  V30 24 1 24 25
M  V30 25 2 25 26
M  V30 26 1 7 27
M  V30 27 1 27 28
M  V30 28 1 28 4
M  V30 29 1 19 8
M  V30 30 1 26 21
M  V30 31 1 16 11
M  V30 32 1 26 18
M  V30 33 1 1 29
M  V30 34 1 2 30
M  V30 35 1 2 31
M  V30 36 1 3 32
M  V30 37 1 3 33
M  V30 38 1 5 34
M  V30 39 1 5 35
M  V30 40 1 6 36
M  V30 41 1 6 37
M  V30 42 1 12 38
M  V30 43 1 13 39
M  V30 44 1 14 40
M  V30 45 1 15 41
M  V30 46 1 16 42
M  V30 47 1 22 43
M  V30 48 1 23 44
M  V30 49 1 24 45
M  V30 50 1 25 46
M  V30 51 1 27 47
M  V30 52 1 27 48
M  V30 53 1 28 49
M  V30 54 1 28 50
M  V30 END BOND
M  V30 END CTAB
M  END
>  <Dataset>  (843) 
ChEMBL_Kinases

>  <Ligand_Instance>  (843) 
nan

>  <PDB_ID>  (843) 
nan

>  <Standardized_SMILES>  (843) 
OCCN1CCN(c2nc(-c3ccccc3)nc3c2oc2ccccc23)CC1

>  <Name>  (843) 
nan

>  <Pocket>  (843) 
nan

>  <ATP_Site>  (843) 
nan

>  <Peripheral>  (843) 
nan

>  <Num_H_Atoms_ProtBoundConf>  (843) 
nan

>  <Num_Resolved_Atoms>  (843) 
nan

>  <Num_Not_Resolved_Atoms>  (843) 
nan

$$$$
CHEMBL1417376
     RDKit          3D

  0  0  0  0  0  0  0  0  0  0999 V3000
M  V30 BEGIN CTAB
M  V30 COUNTS 34 37 0 0 0
M  V30 BEGIN ATOM
M  V30 1 N 1.970442 -3.697866 5.865087 0
M  V30 2 C 1.888617 -3.042941 4.924968 0
M  V30 3 C 1.760404 -2.220366 3.735899 0
M  V30 4 S 3.095997 -1.265610 2.990472 0
M  V30 5 C 2.172902 -0.610581 1.692720 0
M  V30 6 N 2.536922 0.216357 0.695506 0
M  V30 7 C 1.660254 0.618131 -0.246391 0
M  V30 8 C 2.114456 1.502360 -1.285576 0
M  V30 9 C 1.433049 2.026508 -2.313909 0
M  V30 10 C 2.033740 2.859624 -3.218098 0
M  V30 11 C 3.463267 3.097970 -2.931278 0
M  V30 12 S 3.766216 2.127011 -1.442436 0
M  V30 13 C 0.393158 0.111448 -0.087582 0
M  V30 14 C -0.010928 -0.736378 0.922358 0
M  V30 15 C -1.429135 -1.052560 0.810963 0
M  V30 16 C -2.423662 -0.899333 1.754235 0
M  V30 17 C -3.721651 -1.272026 1.483913 0
M  V30 18 C -4.097259 -1.811433 0.272535 0
M  V30 19 F -5.391726 -2.157444 0.070409 0
M  V30 20 C -3.129731 -1.977605 -0.691778 0
M  V30 21 C -1.839985 -1.594438 -0.388592 0
M  V30 22 C 0.929531 -1.117163 1.860518 0
M  V30 23 C 0.647558 -1.957158 2.897215 0
M  V30 24 N -0.545428 -2.620523 3.278732 0
M  V30 25 H 0.383489 1.788310 -2.436136 0
M  V30 26 H 1.562368 3.325188 -4.073430 0
M  V30 27 H 4.033962 3.809956 -3.679131 0
M  V30 28 H -0.264764 0.482009 -0.891161 0
M  V30 29 H -2.116074 -0.463458 2.694506 0
M  V30 30 H -4.432417 -1.107944 2.302579 0
M  V30 31 H -3.403701 -2.398720 -1.648717 0
M  V30 32 H -1.134805 -1.756479 -1.198948 0
M  V30 33 H -0.857160 -3.336461 2.573589 0
M  V30 34 H -1.049512 -2.411869 4.165198 0
M  V30 END ATOM
M  V30 BEGIN BOND
M  V30 1 3 1 2
M  V30 2 1 2 3
M  V30 3 1 3 4
M  V30 4 1 4 5
M  V30 5 2 5 6
M  V30 6 1 6 7
M  V30 7 1 7 8
M  V30 8 2 8 9
M  V30 9 1 9 10
M  V30 10 2 10 11
M  V30 11 1 11 12
M  V30 12 2 7 13
M  V30 13 1 13 14
M  V30 14 1 14 15
M  V30 15 2 15 16
M  V30 16 1 16 17
M  V30 17 2 17 18
M  V30 18 1 18 19
M  V30 19 1 18 20
M  V30 20 2 20 21
M  V30 21 2 14 22
M  V30 22 1 22 23
M  V30 23 1 23 24
M  V30 24 2 23 3
M  V30 25 1 22 5
M  V30 26 1 12 8
M  V30 27 1 21 15
M  V30 28 1 9 25
M  V30 29 1 10 26
M  V30 30 1 11 27
M  V30 31 1 13 28
M  V30 32 1 16 29
M  V30 33 1 17 30
M  V30 34 1 20 31
M  V30 35 1 21 32
M  V30 36 1 24 33
M  V30 37 1 24 34
M  V30 END BOND
M  V30 END CTAB
M  END
>  <Dataset>  (844) 
ChEMBL_Kinases

>  <Ligand_Instance>  (844) 
nan

>  <PDB_ID>  (844) 
nan

>  <Standardized_SMILES>  (844) 
N#Cc1sc2nc(-c3cccs3)cc(-c3ccc(F)cc3)c2c1N

>  <Name>  (844) 
nan

>  <Pocket>  (844) 
nan

>  <ATP_Site>  (844) 
nan

>  <Peripheral>  (844) 
nan

>  <Num_H_Atoms_ProtBoundConf>  (844) 
nan

>  <Num_Resolved_Atoms>  (844) 
nan

>  <Num_Not_Resolved_Atoms>  (844) 
nan

$$$$
CHEMBL1417587
     RDKit          3D

  0  0  0  0  0  0  0  0  0  0999 V3000
M  V30 BEGIN CTAB
M  V30 COUNTS 21 21 0 0 0
M  V30 BEGIN ATOM
M  V30 1 C 0.907090 1.596668 4.210342 0
M  V30 2 C 0.934888 0.979519 2.882170 0
M  V30 3 C 1.541395 -0.073441 2.304950 0
M  V30 4 C 1.296994 -0.329854 0.980310 0
M  V30 5 C 1.954701 -1.481006 0.375787 0
M  V30 6 O 2.751028 -2.291040 0.915765 0
M  V30 7 O 1.778136 -1.851880 -0.940770 0
M  V30 8 C 0.452947 0.485951 0.296188 0
M  V30 9 S -0.112486 0.537593 -1.339261 0
M  V30 10 C -1.561266 -0.467822 -1.511018 0
M  V30 11 O 0.896607 0.131559 -2.353802 0
M  V30 12 O -0.593076 1.965278 -1.608836 0
M  V30 13 S -0.047813 1.697726 1.557218 0
M  V30 14 H 0.958382 2.711825 4.093842 0
M  V30 15 H 0.045627 1.296825 4.828733 0
M  V30 16 H 1.827112 1.271017 4.770168 0
M  V30 17 H 2.174208 -0.606341 2.996641 0
M  V30 18 H 2.445311 -2.313479 -1.532643 0
M  V30 19 H -1.317078 -1.546422 -1.553244 0
M  V30 20 H -2.019872 -0.211561 -2.504768 0
M  V30 21 H -2.264994 -0.215951 -0.699218 0
M  V30 END ATOM
M  V30 BEGIN BOND
M  V30 1 1 1 2
M  V30 2 2 2 3
M  V30 3 1 3 4
M  V30 4 1 4 5
M  V30 5 2 5 6
M  V30 6 1 5 7
M  V30 7 2 4 8
M  V30 8 1 8 9
M  V30 9 1 9 10
M  V30 10 2 9 11
M  V30 11 2 9 12
M  V30 12 1 8 13
M  V30 13 1 13 2
M  V30 14 1 1 14
M  V30 15 1 1 15
M  V30 16 1 1 16
M  V30 17 1 3 17
M  V30 18 1 7 18
M  V30 19 1 10 19
M  V30 20 1 10 20
M  V30 21 1 10 21
M  V30 END BOND
M  V30 END CTAB
M  END
>  <Dataset>  (845) 
ChEMBL_Kinases

>  <Ligand_Instance>  (845) 
nan

>  <PDB_ID>  (845) 
nan

>  <Standardized_SMILES>  (845) 
Cc1cc(C(=O)O)c(S(C)(=O)=O)s1

>  <Name>  (845) 
nan

>  <Pocket>  (845) 
nan

>  <ATP_Site>  (845) 
nan

>  <Peripheral>  (845) 
nan

>  <Num_H_Atoms_ProtBoundConf>  (845) 
nan

>  <Num_Resolved_Atoms>  (845) 
nan

>  <Num_Not_Resolved_Atoms>  (845) 
nan

$$$$
CHEMBL1417636
     RDKit          3D

  0  0  0  0  0  0  0  0  0  0999 V3000
M  V30 BEGIN CTAB
M  V30 COUNTS 27 29 0 0 0
M  V30 BEGIN ATOM
M  V30 1 Cl 1.434727 -4.350218 0.792082 0
M  V30 2 C 0.344394 -3.484863 1.879293 0
M  V30 3 C -0.212526 -4.225240 2.907144 0
M  V30 4 C -1.076163 -3.584598 3.786214 0
M  V30 5 C -1.350728 -2.243063 3.610957 0
M  V30 6 C -0.804176 -1.484012 2.589269 0
M  V30 7 C 0.061890 -2.141898 1.713894 0
M  V30 8 C 0.690740 -1.430057 0.602843 0
M  V30 9 N 1.540997 -2.024426 -0.277131 0
M  V30 10 C 2.082159 -1.313985 -1.272421 0
M  V30 11 C 1.812954 0.026091 -1.454269 0
M  V30 12 C 0.940192 0.632906 -0.549685 0
M  V30 13 N 0.594249 2.011160 -0.645932 0
M  V30 14 C -0.594119 2.223715 -1.277878 0
M  V30 15 C -0.812404 3.599542 -1.304885 0
M  V30 16 N 0.237746 4.177402 -0.695422 0
M  V30 17 C 1.084732 3.212765 -0.299193 0
M  V30 18 N 0.428792 -0.139121 0.431104 0
M  V30 19 H -0.047291 -5.271645 3.108148 0
M  V30 20 H -1.566150 -4.088061 4.631418 0
M  V30 21 H -2.014470 -1.646917 4.245083 0
M  V30 22 H -1.001532 -0.440947 2.431800 0
M  V30 23 H 2.763438 -1.735642 -1.999333 0
M  V30 24 H 2.241362 0.621004 -2.255168 0
M  V30 25 H -1.366749 1.605423 -1.739162 0
M  V30 26 H -1.616943 4.211503 -1.701522 0
M  V30 27 H 2.050539 3.138820 0.220986 0
M  V30 END ATOM
M  V30 BEGIN BOND
M  V30 1 1 1 2
M  V30 2 2 2 3
M  V30 3 1 3 4
M  V30 4 2 4 5
M  V30 5 1 5 6
M  V30 6 2 6 7
M  V30 7 1 7 8
M  V30 8 2 8 9
M  V30 9 1 9 10
M  V30 10 2 10 11
M  V30 11 1 11 12
M  V30 12 1 12 13
M  V30 13 1 13 14
M  V30 14 2 14 15
M  V30 15 1 15 16
M  V30 16 2 16 17
M  V30 17 2 12 18
M  V30 18 1 7 2
M  V30 19 1 18 8
M  V30 20 1 17 13
M  V30 21 1 3 19
M  V30 22 1 4 20
M  V30 23 1 5 21
M  V30 24 1 6 22
M  V30 25 1 10 23
M  V30 26 1 11 24
M  V30 27 1 14 25
M  V30 28 1 15 26
M  V30 29 1 17 27
M  V30 END BOND
M  V30 END CTAB
M  END
>  <Dataset>  (846) 
ChEMBL_Kinases

>  <Ligand_Instance>  (846) 
nan

>  <PDB_ID>  (846) 
nan

>  <Standardized_SMILES>  (846) 
Clc1ccccc1-c1nccc(-n2ccnc2)n1

>  <Name>  (846) 
nan

>  <Pocket>  (846) 
nan

>  <ATP_Site>  (846) 
nan

>  <Peripheral>  (846) 
nan

>  <Num_H_Atoms_ProtBoundConf>  (846) 
nan

>  <Num_Resolved_Atoms>  (846) 
nan

>  <Num_Not_Resolved_Atoms>  (846) 
nan

$$$$
CHEMBL1417648
     RDKit          3D

  0  0  0  0  0  0  0  0  0  0999 V3000
M  V30 BEGIN CTAB
M  V30 COUNTS 61 64 0 0 0
M  V30 BEGIN ATOM
M  V30 1 C 3.587825 -0.994454 5.601691 0
M  V30 2 C 2.860338 0.218151 5.079594 0
M  V30 3 C 3.695217 1.059161 4.169932 0
M  V30 4 C 2.957067 2.270776 3.653130 0
M  V30 5 N 1.780373 1.979768 2.903648 0
M  V30 6 C 1.852026 1.212655 1.723803 0
M  V30 7 N 3.018017 0.735513 1.270533 0
M  V30 8 C 3.119367 0.000157 0.147172 0
M  V30 9 C 4.424795 -0.533662 -0.360065 0
M  V30 10 N 2.011864 -0.277937 -0.564732 0
M  V30 11 C 0.791835 0.171385 -0.168487 0
M  V30 12 C 0.723954 0.920149 0.984227 0
M  V30 13 N -0.582072 1.213661 1.114991 0
M  V30 14 C -1.276038 0.661907 0.078760 0
M  V30 15 C -2.717385 0.779412 -0.109449 0
M  V30 16 C -3.622430 0.281765 0.813133 0
M  V30 17 C -4.986888 0.390954 0.638913 0
M  V30 18 C -5.484391 1.018600 -0.495151 0
M  V30 19 C -4.554487 1.501418 -1.391202 0
M  V30 20 C -3.186493 1.403775 -1.238055 0
M  V30 21 N -0.435218 0.003422 -0.738616 0
M  V30 22 C -0.664447 -0.732532 -1.936415 0
M  V30 23 C -0.921876 -2.206129 -1.739357 0
M  V30 24 C -1.136129 -2.785375 -3.132982 0
M  V30 25 C -2.061950 -3.960414 -3.074955 0
M  V30 26 N -1.970315 -4.680932 -1.840310 0
M  V30 27 C -0.691600 -5.272694 -1.590998 0
M  V30 28 C -2.490505 -3.876087 -0.777024 0
M  V30 29 C -2.143932 -2.400099 -0.901494 0
M  V30 30 H 4.480830 -0.741590 6.191071 0
M  V30 31 H 2.895254 -1.541099 6.273886 0
M  V30 32 H 3.836609 -1.713885 4.780246 0
M  V30 33 H 1.979869 -0.171851 4.507432 0
M  V30 34 H 2.564446 0.827373 5.941619 0
M  V30 35 H 4.175250 0.534605 3.338790 0
M  V30 36 H 4.530812 1.460920 4.806980 0
M  V30 37 H 2.676553 2.858111 4.566433 0
M  V30 38 H 3.647615 2.911479 3.081549 0
M  V30 39 H 0.830999 2.334271 3.219070 0
M  V30 40 H 4.520936 -1.629087 -0.137220 0
M  V30 41 H 4.580177 -0.320954 -1.425947 0
M  V30 42 H 5.235632 -0.039645 0.190005 0
M  V30 43 H -3.234348 -0.211663 1.704724 0
M  V30 44 H -5.637040 -0.015151 1.390299 0
M  V30 45 H -6.551450 1.119556 -0.659834 0
M  V30 46 H -4.971254 1.991761 -2.276744 0
M  V30 47 H -2.516562 1.809068 -1.988262 0
M  V30 48 H -1.511951 -0.353417 -2.540779 0
M  V30 49 H 0.251175 -0.628098 -2.585097 0
M  V30 50 H -0.051071 -2.727223 -1.274928 0
M  V30 51 H -1.623091 -2.011115 -3.791477 0
M  V30 52 H -0.171675 -3.019301 -3.628632 0
M  V30 53 H -3.121111 -3.576963 -3.127086 0
M  V30 54 H -1.939249 -4.612928 -3.968591 0
M  V30 55 H -0.794610 -6.380417 -1.619389 0
M  V30 56 H 0.074903 -4.922946 -2.322863 0
M  V30 57 H -0.398813 -5.011704 -0.545062 0
M  V30 58 H -3.607407 -3.947506 -0.793150 0
M  V30 59 H -2.170402 -4.223198 0.232248 0
M  V30 60 H -1.916659 -1.986125 0.101896 0
M  V30 61 H -2.988706 -1.824207 -1.325995 0
M  V30 END ATOM
M  V30 BEGIN BOND
M  V30 1 1 1 2
M  V30 2 1 2 3
M  V30 3 1 3 4
M  V30 4 1 4 5
M  V30 5 1 5 6
M  V30 6 2 6 7
M  V30 7 1 7 8
M  V30 8 1 8 9
M  V30 9 2 8 10
M  V30 10 1 10 11
M  V30 11 2 11 12
M  V30 12 1 12 13
M  V30 13 2 13 14
M  V30 14 1 14 15
M  V30 15 2 15 16
M  V30 16 1 16 17
M  V30 17 2 17 18
M  V30 18 1 18 19
M  V30 19 2 19 20
M  V30 20 1 14 21
M  V30 21 1 21 22
M  V30 22 1 22 23
M  V30 23 1 23 24
M  V30 24 1 24 25
M  V30 25 1 25 26
M  V30 26 1 26 27
M  V30 27 1 26 28
M  V30 28 1 28 29
M  V30 29 1 12 6
M  V30 30 1 20 15
M  V30 31 1 29 23
M  V30 32 1 21 11
M  V30 33 1 1 30
M  V30 34 1 1 31
M  V30 35 1 1 32
M  V30 36 1 2 33
M  V30 37 1 2 34
M  V30 38 1 3 35
M  V30 39 1 3 36
M  V30 40 1 4 37
M  V30 41 1 4 38
M  V30 42 1 5 39
M  V30 43 1 9 40
M  V30 44 1 9 41
M  V30 45 1 9 42
M  V30 46 1 16 43
M  V30 47 1 17 44
M  V30 48 1 18 45
M  V30 49 1 19 46
M  V30 50 1 20 47
M  V30 51 1 22 48
M  V30 52 1 22 49
M  V30 53 1 23 50
M  V30 54 1 24 51
M  V30 55 1 24 52
M  V30 56 1 25 53
M  V30 57 1 25 54
M  V30 58 1 27 55
M  V30 59 1 27 56
M  V30 60 1 27 57
M  V30 61 1 28 58
M  V30 62 1 28 59
M  V30 63 1 29 60
M  V30 64 1 29 61
M  V30 END BOND
M  V30 END CTAB
M  END
>  <Dataset>  (847) 
ChEMBL_Kinases

>  <Ligand_Instance>  (847) 
nan

>  <PDB_ID>  (847) 
nan

>  <Standardized_SMILES>  (847) 
CCCCNc1nc(C)nc2c1nc(-c1ccccc1)n2CC1CCN(C)CC1

>  <Name>  (847) 
nan

>  <Pocket>  (847) 
nan

>  <ATP_Site>  (847) 
nan

>  <Peripheral>  (847) 
nan

>  <Num_H_Atoms_ProtBoundConf>  (847) 
nan

>  <Num_Resolved_Atoms>  (847) 
nan

>  <Num_Not_Resolved_Atoms>  (847) 
nan

$$$$
CHEMBL1416952
     RDKit          3D

  0  0  0  0  0  0  0  0  0  0999 V3000
M  V30 BEGIN CTAB
M  V30 COUNTS 42 43 0 0 0
M  V30 BEGIN ATOM
M  V30 1 C 3.485368 -3.574903 1.974853 0
M  V30 2 C 2.337900 -2.944423 1.176171 0
M  V30 3 C 2.169098 -3.847760 -0.046389 0
M  V30 4 C 2.750173 -1.606453 0.656798 0
M  V30 5 C 1.545703 -0.735393 0.501786 0
M  V30 6 N 1.294938 -0.314556 -0.692044 0
M  V30 7 O 0.208682 0.480925 -0.879929 0
M  V30 8 C 0.242832 1.789824 -1.326039 0
M  V30 9 O 0.347669 0.620721 -0.937759 0
M  V30 10 C -1.090084 2.419065 -1.438909 0
M  V30 11 C -1.152844 3.734282 -1.879913 0
M  V30 12 C -2.324146 4.468985 -2.040679 0
M  V30 13 C -3.508375 3.814776 -1.729762 0
M  V30 14 C -3.464144 2.512441 -1.291729 0
M  V30 15 C -2.301608 1.788053 -1.133800 0
M  V30 16 C 0.852875 -0.524821 1.821518 0
M  V30 17 C 0.730279 -1.800722 2.605474 0
M  V30 18 C 1.372544 -1.586813 3.956638 0
M  V30 19 C -0.766651 -1.978444 2.899333 0
M  V30 20 N 1.151737 -2.980270 1.946285 0
M  V30 21 H 3.267718 -4.630693 2.210408 0
M  V30 22 H 3.776292 -2.954807 2.841874 0
M  V30 23 H 4.410469 -3.624498 1.328399 0
M  V30 24 H 1.094899 -3.933706 -0.346203 0
M  V30 25 H 2.490027 -4.900077 0.178726 0
M  V30 26 H 2.808504 -3.532158 -0.897678 0
M  V30 27 H 3.340996 -1.695517 -0.277202 0
M  V30 28 H 3.367238 -1.135590 1.476050 0
M  V30 29 H -0.209504 4.233585 -2.120190 0
M  V30 30 H -2.256974 5.489937 -2.391747 0
M  V30 31 H -4.423103 4.343730 -1.840120 0
M  V30 32 H -4.356816 1.956635 -1.036119 0
M  V30 33 H -2.232355 0.772366 -0.794797 0
M  V30 34 H 1.523329 0.215884 2.348590 0
M  V30 35 H -0.105718 0.021448 1.707791 0
M  V30 36 H 0.756625 -0.934252 4.609875 0
M  V30 37 H 2.374881 -1.115284 3.893429 0
M  V30 38 H 1.495640 -2.529418 4.523202 0
M  V30 39 H -0.953091 -2.598378 3.784309 0
M  V30 40 H -1.304334 -2.429928 2.046414 0
M  V30 41 H -1.266679 -1.004345 3.093601 0
M  V30 42 H 0.384902 -3.541996 1.551199 0
M  V30 END ATOM
M  V30 BEGIN BOND
M  V30 1 1 1 2
M  V30 2 1 2 3
M  V30 3 1 2 4
M  V30 4 1 4 5
M  V30 5 2 5 6 CFG=2
M  V30 6 1 6 7
M  V30 7 1 7 8
M  V30 8 2 8 9
M  V30 9 1 8 10
M  V30 10 2 10 11
M  V30 11 1 11 12
M  V30 12 2 12 13
M  V30 13 1 13 14
M  V30 14 2 14 15
M  V30 15 1 5 16
M  V30 16 1 16 17
M  V30 17 1 17 18
M  V30 18 1 17 19
M  V30 19 1 17 20
M  V30 20 1 20 2
M  V30 21 1 15 10
M  V30 22 1 1 21
M  V30 23 1 1 22
M  V30 24 1 1 23
M  V30 25 1 3 24
M  V30 26 1 3 25
M  V30 27 1 3 26
M  V30 28 1 4 27
M  V30 29 1 4 28
M  V30 30 1 11 29
M  V30 31 1 12 30
M  V30 32 1 13 31
M  V30 33 1 14 32
M  V30 34 1 15 33
M  V30 35 1 16 34
M  V30 36 1 16 35
M  V30 37 1 18 36
M  V30 38 1 18 37
M  V30 39 1 18 38
M  V30 40 1 19 39
M  V30 41 1 19 40
M  V30 42 1 19 41
M  V30 43 1 20 42
M  V30 END BOND
M  V30 END CTAB
M  END
>  <Dataset>  (848) 
ChEMBL_Kinases

>  <Ligand_Instance>  (848) 
nan

>  <PDB_ID>  (848) 
nan

>  <Standardized_SMILES>  (848) 
CC1(C)CC(=NOC(=O)c2ccccc2)CC(C)(C)N1

>  <Name>  (848) 
nan

>  <Pocket>  (848) 
nan

>  <ATP_Site>  (848) 
nan

>  <Peripheral>  (848) 
nan

>  <Num_H_Atoms_ProtBoundConf>  (848) 
nan

>  <Num_Resolved_Atoms>  (848) 
nan

>  <Num_Not_Resolved_Atoms>  (848) 
nan

$$$$
CHEMBL1411311
     RDKit          3D

  0  0  0  0  0  0  0  0  0  0999 V3000
M  V30 BEGIN CTAB
M  V30 COUNTS 25 26 0 0 0
M  V30 BEGIN ATOM
M  V30 1 C 2.190433 -3.738559 1.802613 0
M  V30 2 O 1.006485 -2.976552 1.988629 0
M  V30 3 C 0.842513 -1.741176 1.372812 0
M  V30 4 C 1.820127 -1.198910 0.553983 0
M  V30 5 C 1.667045 0.041219 -0.070219 0
M  V30 6 C 0.470425 0.683195 0.190591 0
M  V30 7 C 0.270524 1.984227 -0.443809 0
M  V30 8 N -0.783363 2.819611 -0.367377 0
M  V30 9 N -0.572426 3.906547 -1.094929 0
M  V30 10 C 0.650134 3.735691 -1.636930 0
M  V30 11 O 1.152885 2.575891 -1.241043 0
M  V30 12 C -0.526542 0.174893 1.000250 0
M  V30 13 C -0.334073 -1.054922 1.598012 0
M  V30 14 O -1.296109 -1.620035 2.421668 0
M  V30 15 C -2.512486 -0.918336 2.658872 0
M  V30 16 H 2.266629 -4.477863 2.626475 0
M  V30 17 H 3.103423 -3.096426 1.920761 0
M  V30 18 H 2.231994 -4.196494 0.795925 0
M  V30 19 H 2.738845 -1.755731 0.390061 0
M  V30 20 H 2.432423 0.462027 -0.709171 0
M  V30 21 H 1.128498 4.443178 -2.288769 0
M  V30 22 H -1.446499 0.702366 1.181500 0
M  V30 23 H -3.132919 -1.399639 3.413768 0
M  V30 24 H -2.218387 0.087510 3.064715 0
M  V30 25 H -3.064133 -0.846345 1.701572 0
M  V30 END ATOM
M  V30 BEGIN BOND
M  V30 1 1 1 2
M  V30 2 1 2 3
M  V30 3 2 3 4
M  V30 4 1 4 5
M  V30 5 2 5 6
M  V30 6 1 6 7
M  V30 7 2 7 8
M  V30 8 1 8 9
M  V30 9 2 9 10
M  V30 10 1 10 11
M  V30 11 1 6 12
M  V30 12 2 12 13
M  V30 13 1 13 14
M  V30 14 1 14 15
M  V30 15 1 13 3
M  V30 16 1 11 7
M  V30 17 1 1 16
M  V30 18 1 1 17
M  V30 19 1 1 18
M  V30 20 1 4 19
M  V30 21 1 5 20
M  V30 22 1 10 21
M  V30 23 1 12 22
M  V30 24 1 15 23
M  V30 25 1 15 24
M  V30 26 1 15 25
M  V30 END BOND
M  V30 END CTAB
M  END
>  <Dataset>  (849) 
ChEMBL_Kinases

>  <Ligand_Instance>  (849) 
nan

>  <PDB_ID>  (849) 
nan

>  <Standardized_SMILES>  (849) 
COc1ccc(-c2nnco2)cc1OC

>  <Name>  (849) 
nan

>  <Pocket>  (849) 
nan

>  <ATP_Site>  (849) 
nan

>  <Peripheral>  (849) 
nan

>  <Num_H_Atoms_ProtBoundConf>  (849) 
nan

>  <Num_Resolved_Atoms>  (849) 
nan

>  <Num_Not_Resolved_Atoms>  (849) 
nan

$$$$
CHEMBL1411303
     RDKit          3D

  0  0  0  0  0  0  0  0  0  0999 V3000
M  V30 BEGIN CTAB
M  V30 COUNTS 41 44 0 0 0
M  V30 BEGIN ATOM
M  V30 1 C -0.237692 -7.184567 1.675368 0
M  V30 2 O 0.233994 -6.313130 0.653307 0
M  V30 3 C 0.001867 -4.955471 0.833062 0
M  V30 4 C -0.655614 -4.448828 1.946854 0
M  V30 5 C -0.849447 -3.087453 2.055656 0
M  V30 6 C -0.416351 -2.196945 1.100356 0
M  V30 7 C 0.234660 -2.751400 0.007127 0
M  V30 8 C 0.700990 -1.823480 -1.016041 0
M  V30 9 N 0.528849 -1.753527 -2.347191 0
M  V30 10 N 1.157987 -0.712151 -2.857280 0
M  V30 11 C 1.783777 -0.032988 -1.886847 0
M  V30 12 S 2.765007 1.431013 -2.022455 0
M  V30 13 C 1.755761 2.935605 -1.856427 0
M  V30 14 C 1.183984 3.063859 -0.486672 0
M  V30 15 N 1.674385 3.664067 0.628602 0
M  V30 16 C 0.786456 3.515279 1.635517 0
M  V30 17 C 0.790292 3.930841 2.970010 0
M  V30 18 C -0.250161 3.653902 3.819420 0
M  V30 19 C -1.300628 2.941668 3.280898 0
M  V30 20 C -1.376298 2.498277 1.976743 0
M  V30 21 C -0.302499 2.794644 1.134106 0
M  V30 22 N -0.026518 2.537110 -0.159071 0
M  V30 23 N 1.467828 -0.756311 -0.800048 0
M  V30 24 N 1.939147 -0.370277 0.456374 0
M  V30 25 C 0.461280 -4.104139 -0.163432 0
M  V30 26 H 0.215812 -6.789748 2.628702 0
M  V30 27 H 0.007051 -8.234093 1.498262 0
M  V30 28 H -1.351697 -7.050774 1.797719 0
M  V30 29 H -1.006508 -5.117551 2.712028 0
M  V30 30 H -1.372720 -2.719756 2.948087 0
M  V30 31 H -0.560513 -1.128519 1.170776 0
M  V30 32 H 0.947580 2.955377 -2.587316 0
M  V30 33 H 2.426437 3.792376 -2.070087 0
M  V30 34 H 1.649166 4.483778 3.315666 0
M  V30 35 H -0.273982 3.964201 4.860870 0
M  V30 36 H -2.180817 2.669784 3.878143 0
M  V30 37 H -2.216206 1.942412 1.590932 0
M  V30 38 H -0.697264 2.000572 -0.767591 0
M  V30 39 H 2.172661 -0.172869 1.430155 0
M  V30 40 H 2.760596 0.267590 0.629618 0
M  V30 41 H 0.982181 -4.434432 -1.058821 0
M  V30 END ATOM
M  V30 BEGIN BOND
M  V30 1 1 1 2
M  V30 2 1 2 3
M  V30 3 2 3 4
M  V30 4 1 4 5
M  V30 5 2 5 6
M  V30 6 1 6 7
M  V30 7 1 7 8
M  V30 8 2 8 9
M  V30 9 1 9 10
M  V30 10 2 10 11
M  V30 11 1 11 12
M  V30 12 1 12 13
M  V30 13 1 13 14
M  V30 14 2 14 15
M  V30 15 1 15 16
M  V30 16 2 16 17
M  V30 17 1 17 18
M  V30 18 2 18 19
M  V30 19 1 19 20
M  V30 20 2 20 21
M  V30 21 1 21 22
M  V30 22 1 11 23
M  V30 23 1 23 24
M  V30 24 2 7 25
M  V30 25 1 25 3
M  V30 26 1 23 8
M  V30 27 1 22 14
M  V30 28 1 21 16
M  V30 29 1 1 26
M  V30 30 1 1 27
M  V30 31 1 1 28
M  V30 32 1 4 29
M  V30 33 1 5 30
M  V30 34 1 6 31
M  V30 35 1 13 32
M  V30 36 1 13 33
M  V30 37 1 17 34
M  V30 38 1 18 35
M  V30 39 1 19 36
M  V30 40 1 20 37
M  V30 41 1 22 38
M  V30 42 1 24 39
M  V30 43 1 24 40
M  V30 44 1 25 41
M  V30 END BOND
M  V30 END CTAB
M  END
>  <Dataset>  (850) 
ChEMBL_Kinases

>  <Ligand_Instance>  (850) 
nan

>  <PDB_ID>  (850) 
nan

>  <Standardized_SMILES>  (850) 
COc1cccc(-c2nnc(SCc3nc4ccccc4[nH]3)n2N)c1

>  <Name>  (850) 
nan

>  <Pocket>  (850) 
nan

>  <ATP_Site>  (850) 
nan

>  <Peripheral>  (850) 
nan

>  <Num_H_Atoms_ProtBoundConf>  (850) 
nan

>  <Num_Resolved_Atoms>  (850) 
nan

>  <Num_Not_Resolved_Atoms>  (850) 
nan

$$$$
CHEMBL1411259
     RDKit          3D

  0  0  0  0  0  0  0  0  0  0999 V3000
M  V30 BEGIN CTAB
M  V30 COUNTS 56 58 0 0 0
M  V30 BEGIN ATOM
M  V30 1 C 2.118252 -5.727530 4.032262 0
M  V30 2 C 1.922193 -4.790334 2.900895 0
M  V30 3 C 0.696077 -4.456728 2.387357 0
M  V30 4 C 0.555860 -3.579561 1.332968 0
M  V30 5 C 1.643100 -2.987509 0.734780 0
M  V30 6 S 1.587036 -1.861634 -0.604932 0
M  V30 7 O 0.469021 -2.271854 -1.488262 0
M  V30 8 O 2.873670 -2.039415 -1.367333 0
M  V30 9 C 1.473870 -0.206260 -0.052448 0
M  V30 10 C 2.568567 0.591546 0.209189 0
M  V30 11 C 4.024298 0.305084 0.106827 0
M  V30 12 N 2.045285 1.758047 0.601751 0
M  V30 13 N 0.703918 1.697297 0.587849 0
M  V30 14 C -0.183980 2.796917 0.960451 0
M  V30 15 C -1.163153 2.370571 2.057686 0
M  V30 16 C 0.651285 3.933368 1.524740 0
M  V30 17 C -0.992033 3.291747 -0.188435 0
M  V30 18 C 0.294472 0.469363 0.179014 0
M  V30 19 O -1.007892 0.089147 0.057913 0
M  V30 20 C -1.792083 0.252919 -1.096868 0
M  V30 21 O -1.579946 0.739373 -2.251241 0
M  V30 22 C -3.178968 -0.276778 -0.871088 0
M  V30 23 C -3.047657 -1.749370 -0.559311 0
M  V30 24 C -2.975521 -2.353856 -1.940274 0
M  V30 25 C -4.162145 -1.677735 -2.596957 0
M  V30 26 C -4.026672 -0.244144 -2.097890 0
M  V30 27 C 2.882542 -3.342679 1.275222 0
M  V30 28 C 3.032751 -4.218375 2.328759 0
M  V30 29 H 2.774545 -5.260357 4.785038 0
M  V30 30 H 2.629347 -6.653680 3.691421 0
M  V30 31 H 1.168006 -5.978137 4.552742 0
M  V30 32 H -0.173800 -4.914498 2.846723 0
M  V30 33 H -0.408337 -3.323289 0.936243 0
M  V30 34 H 4.347095 -0.202521 1.038874 0
M  V30 35 H 4.579555 1.261300 0.030594 0
M  V30 36 H 4.293791 -0.280303 -0.779343 0
M  V30 37 H -1.828908 1.591781 1.640963 0
M  V30 38 H -1.757404 3.278382 2.296280 0
M  V30 39 H -0.583416 1.974862 2.914055 0
M  V30 40 H 0.796989 4.670340 0.688656 0
M  V30 41 H 0.095060 4.420969 2.336250 0
M  V30 42 H 1.623665 3.534482 1.860412 0
M  V30 43 H -0.537880 3.030738 -1.146576 0
M  V30 44 H -2.057996 2.974254 -0.137477 0
M  V30 45 H -1.048359 4.415093 -0.117843 0
M  V30 46 H -3.634441 0.269147 -0.013396 0
M  V30 47 H -3.905887 -2.132469 0.026466 0
M  V30 48 H -2.078856 -1.921711 -0.058895 0
M  V30 49 H -2.080706 -1.952699 -2.445206 0
M  V30 50 H -3.039330 -3.445884 -1.937526 0
M  V30 51 H -5.100051 -2.158948 -2.248340 0
M  V30 52 H -4.068728 -1.641417 -3.695443 0
M  V30 53 H -5.063613 0.068309 -1.805013 0
M  V30 54 H -3.580729 0.421720 -2.852813 0
M  V30 55 H 3.801039 -2.910347 0.850538 0
M  V30 56 H 4.030705 -4.452601 2.702837 0
M  V30 END ATOM
M  V30 BEGIN BOND
M  V30 1 1 1 2
M  V30 2 2 2 3
M  V30 3 1 3 4
M  V30 4 2 4 5
M  V30 5 1 5 6
M  V30 6 2 6 7
M  V30 7 2 6 8
M  V30 8 1 6 9
M  V30 9 1 9 10
M  V30 10 1 10 11
M  V30 11 2 10 12
M  V30 12 1 12 13
M  V30 13 1 13 14
M  V30 14 1 14 15
M  V30 15 1 14 16
M  V30 16 1 14 17
M  V30 17 1 13 18
M  V30 18 1 18 19
M  V30 19 1 19 20
M  V30 20 2 20 21
M  V30 21 1 20 22
M  V30 22 1 22 23
M  V30 23 1 23 24
M  V30 24 1 24 25
M  V30 25 1 25 26
M  V30 26 1 5 27
M  V30 27 2 27 28
M  V30 28 1 28 2
M  V30 29 2 18 9
M  V30 30 1 26 22
M  V30 31 1 1 29
M  V30 32 1 1 30
M  V30 33 1 1 31
M  V30 34 1 3 32
M  V30 35 1 4 33
M  V30 36 1 11 34
M  V30 37 1 11 35
M  V30 38 1 11 36
M  V30 39 1 15 37
M  V30 40 1 15 38
M  V30 41 1 15 39
M  V30 42 1 16 40
M  V30 43 1 16 41
M  V30 44 1 16 42
M  V30 45 1 17 43
M  V30 46 1 17 44
M  V30 47 1 17 45
M  V30 48 1 22 46
M  V30 49 1 23 47
M  V30 50 1 23 48
M  V30 51 1 24 49
M  V30 52 1 24 50
M  V30 53 1 25 51
M  V30 54 1 25 52
M  V30 55 1 26 53
M  V30 56 1 26 54
M  V30 57 1 27 55
M  V30 58 1 28 56
M  V30 END BOND
M  V30 END CTAB
M  END
>  <Dataset>  (851) 
ChEMBL_Kinases

>  <Ligand_Instance>  (851) 
nan

>  <PDB_ID>  (851) 
nan

>  <Standardized_SMILES>  (851) 
Cc1ccc(S(=O)(=O)c2c(C)nn(C(C)(C)C)c2OC(=O)C2CCCC2)cc1

>  <Name>  (851) 
nan

>  <Pocket>  (851) 
nan

>  <ATP_Site>  (851) 
nan

>  <Peripheral>  (851) 
nan

>  <Num_H_Atoms_ProtBoundConf>  (851) 
nan

>  <Num_Resolved_Atoms>  (851) 
nan

>  <Num_Not_Resolved_Atoms>  (851) 
nan

$$$$
CHEMBL1411246
     RDKit          3D

  0  0  0  0  0  0  0  0  0  0999 V3000
M  V30 BEGIN CTAB
M  V30 COUNTS 18 17 0 0 0
M  V30 BEGIN ATOM
M  V30 1 S 0.884771 -0.778010 3.951047 0
M  V30 2 C -0.193966 -0.766383 2.729406 0
M  V30 3 S -1.362802 -2.145483 2.708151 0
M  V30 4 N -0.057609 0.326073 1.852200 0
M  V30 5 C 0.814103 1.486940 1.741809 0
M  V30 6 C 2.192787 0.918328 1.401218 0
M  V30 7 N 2.147461 0.161772 0.170196 0
M  V30 8 C 1.959139 0.426349 -1.209267 0
M  V30 9 S 1.721125 1.992549 -1.667602 0
M  V30 10 S 1.936981 -0.711152 -2.618876 0
M  V30 11 H -1.404513 -2.662531 1.385612 0
M  V30 12 H -0.812195 0.200263 1.115685 0
M  V30 13 H 0.421331 2.164551 0.988079 0
M  V30 14 H 0.905250 1.998648 2.709145 0
M  V30 15 H 2.483936 0.249438 2.228762 0
M  V30 16 H 2.953678 1.734807 1.368914 0
M  V30 17 H 2.282471 -0.891792 0.230836 0
M  V30 18 H 1.316030 -1.880974 -2.125861 0
M  V30 END ATOM
M  V30 BEGIN BOND
M  V30 1 2 1 2
M  V30 2 1 2 3
M  V30 3 1 2 4
M  V30 4 1 4 5
M  V30 5 1 5 6
M  V30 6 1 6 7
M  V30 7 1 7 8
M  V30 8 2 8 9
M  V30 9 1 8 10
M  V30 10 1 3 11
M  V30 11 1 4 12
M  V30 12 1 5 13
M  V30 13 1 5 14
M  V30 14 1 6 15
M  V30 15 1 6 16
M  V30 16 1 7 17
M  V30 17 1 10 18
M  V30 END BOND
M  V30 END CTAB
M  END
>  <Dataset>  (852) 
ChEMBL_Kinases

>  <Ligand_Instance>  (852) 
nan

>  <PDB_ID>  (852) 
nan

>  <Standardized_SMILES>  (852) 
S=C(S)NCCNC(=S)S

>  <Name>  (852) 
nan

>  <Pocket>  (852) 
nan

>  <ATP_Site>  (852) 
nan

>  <Peripheral>  (852) 
nan

>  <Num_H_Atoms_ProtBoundConf>  (852) 
nan

>  <Num_Resolved_Atoms>  (852) 
nan

>  <Num_Not_Resolved_Atoms>  (852) 
nan

$$$$
CHEMBL1411129
     RDKit          3D

  0  0  0  0  0  0  0  0  0  0999 V3000
M  V30 BEGIN CTAB
M  V30 COUNTS 47 50 0 0 0
M  V30 BEGIN ATOM
M  V30 1 C -1.214612 -4.469068 4.133985 0
M  V30 2 C -1.342237 -3.562005 2.989232 0
M  V30 3 N -0.587493 -2.633947 2.550926 0
M  V30 4 N -0.373765 -1.742245 1.707769 0
M  V30 5 C 0.645861 -0.836367 1.559292 0
M  V30 6 C 0.827932 0.073792 0.557260 0
M  V30 7 C 1.909776 0.898019 0.487091 0
M  V30 8 N 2.150841 1.803320 -0.586620 0
M  V30 9 C 1.530195 1.734100 -1.895821 0
M  V30 10 C 0.838242 2.980116 -2.334867 0
M  V30 11 C 1.691342 4.215533 -2.198356 0
M  V30 12 C 2.429883 4.248419 -0.905386 0
M  V30 13 C 3.053084 2.919480 -0.561194 0
M  V30 14 C 2.868903 0.826537 1.462799 0
M  V30 15 C 2.751924 -0.083199 2.523716 0
M  V30 16 C 1.628243 -0.901111 2.542648 0
M  V30 17 N 1.579183 -1.789572 3.638018 0
M  V30 18 C -1.486930 -1.869262 0.928976 0
M  V30 19 O -1.634184 -1.095400 -0.079956 0
M  V30 20 C -2.546117 -2.763242 1.072979 0
M  V30 21 C -3.634693 -2.789247 0.202436 0
M  V30 22 C -4.567366 -3.725563 0.503277 0
M  V30 23 C -4.591458 -4.654791 1.551933 0
M  V30 24 C -3.470583 -4.538696 2.347453 0
M  V30 25 C -2.455287 -3.617089 2.128166 0
M  V30 26 H -1.141082 -5.554184 3.848475 0
M  V30 27 H -0.291290 -4.266565 4.700010 0
M  V30 28 H -2.083245 -4.320892 4.807741 0
M  V30 29 H 0.099289 0.150195 -0.203190 0
M  V30 30 H 2.336593 1.510156 -2.677335 0
M  V30 31 H 0.805099 0.901841 -1.880787 0
M  V30 32 H 0.497159 2.936395 -3.391594 0
M  V30 33 H -0.093851 3.108677 -1.742769 0
M  V30 34 H 0.991446 5.086767 -2.194453 0
M  V30 35 H 2.371025 4.363825 -3.046130 0
M  V30 36 H 3.245059 4.985460 -0.955421 0
M  V30 37 H 1.750426 4.575574 -0.085927 0
M  V30 38 H 3.920442 2.670217 -1.228908 0
M  V30 39 H 3.480175 2.991850 0.467998 0
M  V30 40 H 3.775311 1.400845 1.521658 0
M  V30 41 H 3.494797 -0.159477 3.307947 0
M  V30 42 H 2.373279 -2.151020 4.192852 0
M  V30 43 H 0.962827 -2.331753 4.242394 0
M  V30 44 H -3.656492 -2.097306 -0.617501 0
M  V30 45 H -5.454067 -3.787033 -0.152309 0
M  V30 46 H -5.392212 -5.354048 1.688604 0
M  V30 47 H -3.401287 -5.232308 3.194486 0
M  V30 END ATOM
M  V30 BEGIN BOND
M  V30 1 1 1 2
M  V30 2 2 2 3
M  V30 3 1 3 4
M  V30 4 1 4 5
M  V30 5 2 5 6
M  V30 6 1 6 7
M  V30 7 1 7 8
M  V30 8 1 8 9
M  V30 9 1 9 10
M  V30 10 1 10 11
M  V30 11 1 11 12
M  V30 12 1 12 13
M  V30 13 2 7 14
M  V30 14 1 14 15
M  V30 15 2 15 16
M  V30 16 1 16 17
M  V30 17 1 4 18
M  V30 18 2 18 19
M  V30 19 1 18 20
M  V30 20 2 20 21
M  V30 21 1 21 22
M  V30 22 2 22 23
M  V30 23 1 23 24
M  V30 24 2 24 25
M  V30 25 1 25 2
M  V30 26 1 16 5
M  V30 27 1 25 20
M  V30 28 1 13 8
M  V30 29 1 1 26
M  V30 30 1 1 27
M  V30 31 1 1 28
M  V30 32 1 6 29
M  V30 33 1 9 30
M  V30 34 1 9 31
M  V30 35 1 10 32
M  V30 36 1 10 33
M  V30 37 1 11 34
M  V30 38 1 11 35
M  V30 39 1 12 36
M  V30 40 1 12 37
M  V30 41 1 13 38
M  V30 42 1 13 39
M  V30 43 1 14 40
M  V30 44 1 15 41
M  V30 45 1 17 42
M  V30 46 1 17 43
M  V30 47 1 21 44
M  V30 48 1 22 45
M  V30 49 1 23 46
M  V30 50 1 24 47
M  V30 END BOND
M  V30 END CTAB
M  END
>  <Dataset>  (853) 
ChEMBL_Kinases

>  <Ligand_Instance>  (853) 
nan

>  <PDB_ID>  (853) 
nan

>  <Standardized_SMILES>  (853) 
Cc1nn(-c2cc(N3CCCCC3)ccc2N)c(=O)c2ccccc12

>  <Name>  (853) 
nan

>  <Pocket>  (853) 
nan

>  <ATP_Site>  (853) 
nan

>  <Peripheral>  (853) 
nan

>  <Num_H_Atoms_ProtBoundConf>  (853) 
nan

>  <Num_Resolved_Atoms>  (853) 
nan

>  <Num_Not_Resolved_Atoms>  (853) 
nan

$$$$
CHEMBL1411081
     RDKit          3D

  0  0  0  0  0  0  0  0  0  0999 V3000
M  V30 BEGIN CTAB
M  V30 COUNTS 61 65 0 0 0
M  V30 BEGIN ATOM
M  V30 1 O 2.287490 1.762162 2.981322 0
M  V30 2 C 2.833752 0.723449 2.471586 0
M  V30 3 N 3.942378 0.085543 3.129359 0
M  V30 4 C 4.218998 0.822375 4.324845 0
M  V30 5 C 5.381984 0.180276 5.043969 0
M  V30 6 C 5.282196 -1.247919 5.502428 0
M  V30 7 C 6.229218 -0.848854 4.367134 0
M  V30 8 C 2.205934 0.284012 1.177670 0 CFG=2
M  V30 9 C 1.741161 1.401389 0.270658 0
M  V30 10 C 0.745351 0.519672 0.978615 0 CFG=1
M  V30 11 C -0.051475 -0.468196 0.152036 0 CFG=1
M  V30 12 N -1.434067 -0.068385 0.077566 0
M  V30 13 P -2.348994 -1.194552 -0.862607 0
M  V30 14 O -1.507171 -1.901577 -1.899864 0
M  V30 15 C -3.081267 -2.473513 0.152409 0
M  V30 16 C -3.505368 -2.191435 1.442327 0
M  V30 17 C -4.075241 -3.152351 2.255933 0
M  V30 18 C -4.230430 -4.433542 1.777755 0
M  V30 19 C -3.815774 -4.736006 0.498258 0
M  V30 20 C -3.239603 -3.763154 -0.323438 0
M  V30 21 C -3.663435 -0.342719 -1.744586 0
M  V30 22 C -5.000207 -0.510736 -1.402060 0
M  V30 23 C -6.032441 0.127122 -2.057414 0
M  V30 24 C -5.740070 0.975681 -3.105184 0
M  V30 25 C -4.416334 1.174295 -3.483006 0
M  V30 26 C -3.403912 0.511574 -2.795763 0
M  V30 27 C 0.547184 -0.736227 -1.158271 0
M  V30 28 C 0.414998 0.043699 -2.283618 0
M  V30 29 C 1.012775 -0.277361 -3.487427 0
M  V30 30 C 1.782345 -1.416624 -3.612265 0
M  V30 31 C 1.946571 -2.228680 -2.522162 0
M  V30 32 C 1.337511 -1.872572 -1.352526 0
M  V30 33 H 4.229411 -0.726955 2.555500 0
M  V30 34 H 3.363957 0.836853 5.031990 0
M  V30 35 H 4.499299 1.868155 4.106013 0
M  V30 36 H 5.973949 0.845572 5.731991 0
M  V30 37 H 4.429022 -1.884364 5.229811 0
M  V30 38 H 5.777579 -1.556209 6.455330 0
M  V30 39 H 7.316040 -0.916433 4.607314 0
M  V30 40 H 5.992376 -1.274751 3.394867 0
M  V30 41 H 2.598538 -0.590157 0.660713 0
M  V30 42 H 1.909576 2.447092 0.649837 0
M  V30 43 H 1.908726 1.332254 -0.808282 0
M  V30 44 H 0.171487 1.069381 1.773308 0
M  V30 45 H -0.039858 -1.417977 0.744811 0
M  V30 46 H -1.792547 -0.135010 1.076376 0
M  V30 47 H -3.396809 -1.200666 1.841703 0
M  V30 48 H -4.404634 -2.925544 3.263141 0
M  V30 49 H -4.674276 -5.166047 2.422371 0
M  V30 50 H -3.947673 -5.748701 0.144156 0
M  V30 51 H -2.927005 -4.029662 -1.314435 0
M  V30 52 H -5.244874 -1.173259 -0.582282 0
M  V30 53 H -7.074841 -0.023522 -1.766814 0
M  V30 54 H -6.509574 1.505480 -3.658801 0
M  V30 55 H -4.170322 1.835485 -4.301339 0
M  V30 56 H -2.389474 0.689603 -3.116271 0
M  V30 57 H -0.185746 0.940377 -2.200306 0
M  V30 58 H 0.903180 0.342358 -4.367667 0
M  V30 59 H 2.259117 -1.688149 -4.542023 0
M  V30 60 H 2.543435 -3.123287 -2.597481 0
M  V30 61 H 1.490070 -2.539379 -0.511780 0
M  V30 END ATOM
M  V30 BEGIN BOND
M  V30 1 2 1 2
M  V30 2 1 2 3
M  V30 3 1 3 4
M  V30 4 1 4 5
M  V30 5 1 5 6
M  V30 6 1 6 7
M  V30 7 1 2 8
M  V30 8 1 8 9
M  V30 9 1 9 10
M  V30 10 1 10 11
M  V30 11 1 11 12
M  V30 12 1 12 13
M  V30 13 2 13 14
M  V30 14 1 13 15
M  V30 15 2 15 16
M  V30 16 1 16 17
M  V30 17 2 17 18
M  V30 18 1 18 19
M  V30 19 2 19 20
M  V30 20 1 13 21
M  V30 21 2 21 22
M  V30 22 1 22 23
M  V30 23 2 23 24
M  V30 24 1 24 25
M  V30 25 2 25 26
M  V30 26 1 11 27
M  V30 27 2 27 28
M  V30 28 1 28 29
M  V30 29 2 29 30
M  V30 30 1 30 31
M  V30 31 2 31 32
M  V30 32 1 7 5
M  V30 33 1 10 8
M  V30 34 1 20 15
M  V30 35 1 26 21
M  V30 36 1 32 27
M  V30 37 1 3 33
M  V30 38 1 4 34
M  V30 39 1 4 35
M  V30 40 1 5 36
M  V30 41 1 6 37
M  V30 42 1 6 38
M  V30 43 1 7 39
M  V30 44 1 7 40
M  V30 45 1 8 41 CFG=3
M  V30 46 1 9 42
M  V30 47 1 9 43
M  V30 48 1 10 44 CFG=1
M  V30 49 1 11 45 CFG=1
M  V30 50 1 12 46
M  V30 51 1 16 47
M  V30 52 1 17 48
M  V30 53 1 18 49
M  V30 54 1 19 50
M  V30 55 1 20 51
M  V30 56 1 22 52
M  V30 57 1 23 53
M  V30 58 1 24 54
M  V30 59 1 25 55
M  V30 60 1 26 56
M  V30 61 1 28 57
M  V30 62 1 29 58
M  V30 63 1 30 59
M  V30 64 1 31 60
M  V30 65 1 32 61
M  V30 END BOND
M  V30 END CTAB
M  END
>  <Dataset>  (854) 
ChEMBL_Kinases

>  <Ligand_Instance>  (854) 
nan

>  <PDB_ID>  (854) 
nan

>  <Standardized_SMILES>  (854) 
O=C(NCC1CC1)[C@@H]1C[C@H]1[C@@H](NP(=O)(c1ccccc1)c1ccccc1)c1ccccc1

>  <Name>  (854) 
nan

>  <Pocket>  (854) 
nan

>  <ATP_Site>  (854) 
nan

>  <Peripheral>  (854) 
nan

>  <Num_H_Atoms_ProtBoundConf>  (854) 
nan

>  <Num_Resolved_Atoms>  (854) 
nan

>  <Num_Not_Resolved_Atoms>  (854) 
nan

$$$$
CHEMBL1411065
     RDKit          3D

  0  0  0  0  0  0  0  0  0  0999 V3000
M  V30 BEGIN CTAB
M  V30 COUNTS 43 45 0 0 0
M  V30 BEGIN ATOM
M  V30 1 C 3.117246 -4.419718 2.193961 0
M  V30 2 O 2.114661 -4.563087 1.195168 0
M  V30 3 C 1.354201 -3.464043 0.814887 0
M  V30 4 C 1.513477 -2.185184 1.365090 0
M  V30 5 C 0.686078 -1.140970 0.904283 0
M  V30 6 C -0.230216 -1.467141 -0.068431 0
M  V30 7 C -0.388459 -2.712365 -0.607344 0
M  V30 8 C 0.413742 -3.744932 -0.166801 0
M  V30 9 O 0.246373 -4.989329 -0.713861 0
M  V30 10 C -0.743002 -5.165322 -1.709544 0
M  V30 11 C -0.949838 -0.240671 -0.367053 0
M  V30 12 C -2.021377 -0.368652 -1.425312 0
M  V30 13 N -0.753383 0.872305 0.169262 0
M  V30 14 C 0.175758 1.231942 1.165483 0
M  V30 15 C 1.020068 2.368464 0.588784 0
M  V30 16 C 1.586160 3.279440 1.639824 0
M  V30 17 C 0.521378 3.886994 2.521159 0
M  V30 18 C -0.822879 3.225072 2.316526 0
M  V30 19 C -0.555912 1.732595 2.416530 0
M  V30 20 C 1.032952 0.096809 1.618281 0
M  V30 21 H 4.014170 -3.888934 1.791523 0
M  V30 22 H 2.763528 -3.877439 3.092573 0
M  V30 23 H 3.461468 -5.409368 2.548572 0
M  V30 24 H 2.298949 -2.145447 2.123912 0
M  V30 25 H -1.155826 -2.780968 -1.357894 0
M  V30 26 H -0.363685 -4.643650 -2.615744 0
M  V30 27 H -0.743227 -6.257198 -1.950621 0
M  V30 28 H -1.741248 -4.826998 -1.378610 0
M  V30 29 H -2.896592 -0.805538 -0.912875 0
M  V30 30 H -2.289682 0.644524 -1.781420 0
M  V30 31 H -1.686923 -1.026688 -2.251898 0
M  V30 32 H 1.871211 1.906122 0.048369 0
M  V30 33 H 0.423703 2.946412 -0.145563 0
M  V30 34 H 2.061415 4.120227 1.094126 0
M  V30 35 H 2.389917 2.777550 2.215476 0
M  V30 36 H 0.395180 4.963313 2.423135 0
M  V30 37 H 0.823307 3.667086 3.569711 0
M  V30 38 H -1.270258 3.429685 1.332027 0
M  V30 39 H -1.462201 3.488157 3.183547 0
M  V30 40 H -1.467597 1.180924 2.635871 0
M  V30 41 H 0.148579 1.618828 3.265004 0
M  V30 42 H 0.973335 -0.051815 2.736509 0
M  V30 43 H 2.110413 0.359623 1.372169 0
M  V30 END ATOM
M  V30 BEGIN BOND
M  V30 1 1 1 2
M  V30 2 1 2 3
M  V30 3 2 3 4
M  V30 4 1 4 5
M  V30 5 2 5 6
M  V30 6 1 6 7
M  V30 7 2 7 8
M  V30 8 1 8 9
M  V30 9 1 9 10
M  V30 10 1 6 11
M  V30 11 1 11 12
M  V30 12 2 11 13
M  V30 13 1 13 14
M  V30 14 1 14 15
M  V30 15 1 15 16
M  V30 16 1 16 17
M  V30 17 1 17 18
M  V30 18 1 18 19
M  V30 19 1 14 20
M  V30 20 1 8 3
M  V30 21 1 19 14
M  V30 22 1 20 5
M  V30 23 1 1 21
M  V30 24 1 1 22
M  V30 25 1 1 23
M  V30 26 1 4 24
M  V30 27 1 7 25
M  V30 28 1 10 26
M  V30 29 1 10 27
M  V30 30 1 10 28
M  V30 31 1 12 29
M  V30 32 1 12 30
M  V30 33 1 12 31
M  V30 34 1 15 32
M  V30 35 1 15 33
M  V30 36 1 16 34
M  V30 37 1 16 35
M  V30 38 1 17 36
M  V30 39 1 17 37
M  V30 40 1 18 38
M  V30 41 1 18 39
M  V30 42 1 19 40
M  V30 43 1 19 41
M  V30 44 1 20 42
M  V30 45 1 20 43
M  V30 END BOND
M  V30 END CTAB
M  END
>  <Dataset>  (855) 
ChEMBL_Kinases

>  <Ligand_Instance>  (855) 
nan

>  <PDB_ID>  (855) 
nan

>  <Standardized_SMILES>  (855) 
COc1cc2c(cc1OC)C(C)=NC1(CCCCC1)C2

>  <Name>  (855) 
nan

>  <Pocket>  (855) 
nan

>  <ATP_Site>  (855) 
nan

>  <Peripheral>  (855) 
nan

>  <Num_H_Atoms_ProtBoundConf>  (855) 
nan

>  <Num_Resolved_Atoms>  (855) 
nan

>  <Num_Not_Resolved_Atoms>  (855) 
nan

$$$$
CHEMBL1411045
     RDKit          3D

  0  0  0  0  0  0  0  0  0  0999 V3000
M  V30 BEGIN CTAB
M  V30 COUNTS 44 46 0 0 0
M  V30 BEGIN ATOM
M  V30 1 C 1.002739 -6.000710 0.080332 0
M  V30 2 C 1.709636 -4.852230 0.747382 0
M  V30 3 C 3.001753 -5.146294 1.425649 0
M  V30 4 C 1.194656 -3.648653 0.722748 0
M  V30 5 C 1.903761 -2.530177 1.384274 0 CFG=1
M  V30 6 C 1.342251 -1.115315 1.144024 0 CFG=1
M  V30 7 C 0.160126 -1.062042 0.224792 0
M  V30 8 O -0.353649 0.227734 0.004335 0
M  V30 9 C 0.311772 1.293365 -0.536012 0
M  V30 10 O 1.511983 1.171009 -0.893497 0
M  V30 11 C -0.352942 2.599318 -0.711782 0
M  V30 12 C -1.671405 2.724816 -0.316021 0
M  V30 13 C -2.288589 3.957182 -0.485202 0
M  V30 14 C -1.620394 5.033607 -1.030069 0
M  V30 15 C -0.302898 4.873977 -1.415203 0
M  V30 16 C 0.353585 3.649843 -1.261436 0
M  V30 17 Cl 2.023446 3.418766 -1.740892 0
M  V30 18 O -2.526186 6.090858 -1.051441 0
M  V30 19 C -3.682820 5.789589 -0.298059 0
M  V30 20 O -3.596140 4.380086 -0.182845 0
M  V30 21 C 1.299125 -1.751802 2.481018 0
M  V30 22 C -0.036753 -2.150345 3.071937 0
M  V30 23 C 2.276018 -1.237156 3.525355 0
M  V30 24 H 1.653810 -6.886548 0.013979 0
M  V30 25 H 0.071488 -6.211026 0.621141 0
M  V30 26 H 0.734946 -5.747698 -0.966661 0
M  V30 27 H 3.322607 -4.392364 2.145434 0
M  V30 28 H 3.779975 -5.324905 0.636460 0
M  V30 29 H 2.941791 -6.132270 1.964501 0
M  V30 30 H 0.251234 -3.475248 0.218267 0
M  V30 31 H 3.007001 -2.573260 1.278475 0
M  V30 32 H 2.069900 -0.292941 0.956200 0
M  V30 33 H 0.387017 -1.589374 -0.743394 0
M  V30 34 H -0.664716 -1.658190 0.666272 0
M  V30 35 H -2.226315 1.907272 0.113397 0
M  V30 36 H 0.228820 5.712917 -1.843448 0
M  V30 37 H -3.551934 6.237934 0.709100 0
M  V30 38 H -4.621459 6.109458 -0.790760 0
M  V30 39 H 0.061410 -2.706056 4.007546 0
M  V30 40 H -0.613606 -1.223253 3.278197 0
M  V30 41 H -0.664468 -2.753542 2.386184 0
M  V30 42 H 3.325112 -1.510132 3.274485 0
M  V30 43 H 2.069209 -1.732255 4.499663 0
M  V30 44 H 2.176987 -0.144765 3.563163 0
M  V30 END ATOM
M  V30 BEGIN BOND
M  V30 1 1 1 2
M  V30 2 1 2 3
M  V30 3 2 2 4 CFG=2
M  V30 4 1 4 5
M  V30 5 1 5 6
M  V30 6 1 6 7
M  V30 7 1 7 8
M  V30 8 1 8 9
M  V30 9 2 9 10
M  V30 10 1 9 11
M  V30 11 2 11 12
M  V30 12 1 12 13
M  V30 13 2 13 14
M  V30 14 1 14 15
M  V30 15 2 15 16
M  V30 16 1 16 17
M  V30 17 1 14 18
M  V30 18 1 18 19
M  V30 19 1 19 20
M  V30 20 1 6 21
M  V30 21 1 21 22
M  V30 22 1 21 23
M  V30 23 1 21 5
M  V30 24 1 16 11
M  V30 25 1 20 13
M  V30 26 1 1 24
M  V30 27 1 1 25
M  V30 28 1 1 26
M  V30 29 1 3 27
M  V30 30 1 3 28
M  V30 31 1 3 29
M  V30 32 1 4 30
M  V30 33 1 5 31 CFG=1
M  V30 34 1 6 32 CFG=1
M  V30 35 1 7 33
M  V30 36 1 7 34
M  V30 37 1 12 35
M  V30 38 1 15 36
M  V30 39 1 19 37
M  V30 40 1 19 38
M  V30 41 1 22 39
M  V30 42 1 22 40
M  V30 43 1 22 41
M  V30 44 1 23 42
M  V30 45 1 23 43
M  V30 46 1 23 44
M  V30 END BOND
M  V30 END CTAB
M  END
>  <Dataset>  (856) 
ChEMBL_Kinases

>  <Ligand_Instance>  (856) 
nan

>  <PDB_ID>  (856) 
nan

>  <Standardized_SMILES>  (856) 
CC(C)=C[C@H]1[C@@H](COC(=O)c2cc3c(cc2Cl)OCO3)C1(C)C

>  <Name>  (856) 
nan

>  <Pocket>  (856) 
nan

>  <ATP_Site>  (856) 
nan

>  <Peripheral>  (856) 
nan

>  <Num_H_Atoms_ProtBoundConf>  (856) 
nan

>  <Num_Resolved_Atoms>  (856) 
nan

>  <Num_Not_Resolved_Atoms>  (856) 
nan

$$$$
CHEMBL1411002
     RDKit          3D

  0  0  0  0  0  0  0  0  0  0999 V3000
M  V30 BEGIN CTAB
M  V30 COUNTS 59 62 0 0 0
M  V30 BEGIN ATOM
M  V30 1 C 7.525798 1.116044 6.749061 0
M  V30 2 C 6.175899 1.445192 6.147503 0
M  V30 3 O 6.245704 1.309896 4.752596 0
M  V30 4 C 5.155105 1.528704 3.917193 0
M  V30 5 C 5.402941 1.342751 2.565539 0
M  V30 6 C 4.251064 1.580434 1.791335 0
M  V30 7 C 3.046371 1.947718 2.338892 0
M  V30 8 N 1.999487 2.105629 1.386470 0
M  V30 9 C 1.400449 2.996492 0.462574 0
M  V30 10 O 1.860122 4.135295 0.303268 0
M  V30 11 C 0.239993 2.490426 -0.259155 0
M  V30 12 C -0.122067 3.304668 -1.313536 0
M  V30 13 C -1.215134 2.932632 -2.061686 0
M  V30 14 C -1.952445 1.781767 -1.791377 0
M  V30 15 F -3.021016 1.468905 -2.533978 0
M  V30 16 C -1.608868 0.958620 -0.744630 0
M  V30 17 S -2.415016 -0.514769 -0.271724 0
M  V30 18 O -3.867947 -0.129822 -0.039150 0
M  V30 19 O -1.866895 -0.960625 1.071430 0
M  V30 20 N -2.356570 -1.783043 -1.357878 0
M  V30 21 C -2.941907 -1.588458 -2.605261 0
M  V30 22 C -3.374213 -2.869421 -3.304116 0
M  V30 23 N -3.017916 -4.020230 -2.460751 0
M  V30 24 C -3.971997 -5.033148 -2.101421 0
M  V30 25 C -3.796156 -6.251322 -1.439313 0
M  V30 26 C -4.877542 -7.032786 -1.197860 0
M  V30 27 C -6.174919 -6.748632 -1.546253 0
M  V30 28 C -6.294461 -5.535792 -2.199033 0
M  V30 29 N -5.256655 -4.731881 -2.457374 0
M  V30 30 C -1.637796 -4.033224 -2.019069 0
M  V30 31 C -1.454662 -2.838604 -1.135089 0
M  V30 32 C -0.499064 1.368667 -0.014551 0
M  V30 33 C 2.883998 2.111591 3.687279 0
M  V30 34 C 3.984490 1.895292 4.534025 0
M  V30 35 H 7.377516 0.715548 7.766547 0
M  V30 36 H 8.174475 2.010102 6.734313 0
M  V30 37 H 7.970853 0.279359 6.137141 0
M  V30 38 H 5.888417 2.492308 6.392795 0
M  V30 39 H 5.395921 0.805141 6.604744 0
M  V30 40 H 6.372893 1.050780 2.198614 0
M  V30 41 H 4.389270 1.448819 0.707601 0
M  V30 42 H 1.625788 1.144286 1.519417 0
M  V30 43 H 0.390117 4.209196 -1.593275 0
M  V30 44 H -1.560957 3.520238 -2.916911 0
M  V30 45 H -2.331763 -0.964324 -3.288938 0
M  V30 46 H -3.909383 -1.029131 -2.456710 0
M  V30 47 H -4.428587 -2.885365 -3.588461 0
M  V30 48 H -2.765132 -2.966878 -4.225558 0
M  V30 49 H -2.775357 -6.414786 -1.198300 0
M  V30 50 H -4.675201 -7.969140 -0.677575 0
M  V30 51 H -6.958930 -7.441262 -1.299883 0
M  V30 52 H -7.311438 -5.256562 -2.502409 0
M  V30 53 H -1.377214 -4.956018 -1.471521 0
M  V30 54 H -1.002353 -4.020073 -2.927110 0
M  V30 55 H -1.580369 -3.197971 -0.072379 0
M  V30 56 H -0.392004 -2.500896 -1.187871 0
M  V30 57 H -0.179034 0.768433 0.818765 0
M  V30 58 H 1.944447 2.392786 4.082718 0
M  V30 59 H 3.938720 2.001507 5.599833 0
M  V30 END ATOM
M  V30 BEGIN BOND
M  V30 1 1 1 2
M  V30 2 1 2 3
M  V30 3 1 3 4
M  V30 4 2 4 5
M  V30 5 1 5 6
M  V30 6 2 6 7
M  V30 7 1 7 8
M  V30 8 1 8 9
M  V30 9 2 9 10
M  V30 10 1 9 11
M  V30 11 2 11 12
M  V30 12 1 12 13
M  V30 13 2 13 14
M  V30 14 1 14 15
M  V30 15 1 14 16
M  V30 16 1 16 17
M  V30 17 2 17 18
M  V30 18 2 17 19
M  V30 19 1 17 20
M  V30 20 1 20 21
M  V30 21 1 21 22
M  V30 22 1 22 23
M  V30 23 1 23 24
M  V30 24 2 24 25
M  V30 25 1 25 26
M  V30 26 2 26 27
M  V30 27 1 27 28
M  V30 28 2 28 29
M  V30 29 1 23 30
M  V30 30 1 30 31
M  V30 31 2 16 32
M  V30 32 1 7 33
M  V30 33 2 33 34
M  V30 34 1 34 4
M  V30 35 1 32 11
M  V30 36 1 31 20
M  V30 37 1 29 24
M  V30 38 1 1 35
M  V30 39 1 1 36
M  V30 40 1 1 37
M  V30 41 1 2 38
M  V30 42 1 2 39
M  V30 43 1 5 40
M  V30 44 1 6 41
M  V30 45 1 8 42
M  V30 46 1 12 43
M  V30 47 1 13 44
M  V30 48 1 21 45
M  V30 49 1 21 46
M  V30 50 1 22 47
M  V30 51 1 22 48
M  V30 52 1 25 49
M  V30 53 1 26 50
M  V30 54 1 27 51
M  V30 55 1 28 52
M  V30 56 1 30 53
M  V30 57 1 30 54
M  V30 58 1 31 55
M  V30 59 1 31 56
M  V30 60 1 32 57
M  V30 61 1 33 58
M  V30 62 1 34 59
M  V30 END BOND
M  V30 END CTAB
M  END
>  <Dataset>  (857) 
ChEMBL_Kinases

>  <Ligand_Instance>  (857) 
nan

>  <PDB_ID>  (857) 
nan

>  <Standardized_SMILES>  (857) 
CCOc1ccc(NC(=O)c2ccc(F)c(S(=O)(=O)N3CCN(c4ccccn4)CC3)c2)cc1

>  <Name>  (857) 
nan

>  <Pocket>  (857) 
nan

>  <ATP_Site>  (857) 
nan

>  <Peripheral>  (857) 
nan

>  <Num_H_Atoms_ProtBoundConf>  (857) 
nan

>  <Num_Resolved_Atoms>  (857) 
nan

>  <Num_Not_Resolved_Atoms>  (857) 
nan

$$$$
CHEMBL1410971
     RDKit          3D

  0  0  0  0  0  0  0  0  0  0999 V3000
M  V30 BEGIN CTAB
M  V30 COUNTS 58 60 0 0 0
M  V30 BEGIN ATOM
M  V30 1 C 0.713801 -2.231504 5.382141 0
M  V30 2 C 1.616926 -1.134089 5.009945 0
M  V30 3 O 1.264509 -0.724290 3.701301 0
M  V30 4 C 1.906509 0.279457 3.027958 0
M  V30 5 O 2.852596 0.818610 3.677635 0
M  V30 6 C 1.833246 0.943105 1.744352 0
M  V30 7 C 2.440468 0.678700 0.535598 0
M  V30 8 C 3.368019 -0.464556 0.312294 0
M  V30 9 N 2.080276 1.578689 -0.386923 0
M  V30 10 C 1.221300 2.459296 0.208585 0
M  V30 11 C 0.698485 3.571449 -0.641176 0
M  V30 12 C 1.061630 2.065186 1.546945 0
M  V30 13 C 0.194066 2.869837 2.382273 0
M  V30 14 O 0.954498 3.779699 2.867726 0
M  V30 15 C -1.227281 2.946631 2.814101 0
M  V30 16 S -2.275855 3.603473 1.464101 0
M  V30 17 C -2.323059 2.293136 0.212651 0
M  V30 18 N -2.950893 2.367465 -0.991715 0
M  V30 19 N -2.756782 1.199295 -1.622848 0
M  V30 20 C -2.018768 0.407760 -0.821704 0
M  V30 21 C -1.592666 -0.953481 -1.142850 0
M  V30 22 C -0.892748 -1.715090 -0.214389 0
M  V30 23 C -0.506426 -2.995063 -0.564058 0
M  V30 24 O 0.191802 -3.867752 0.254189 0
M  V30 25 C 0.596544 -3.535934 1.563826 0
M  V30 26 C -0.803638 -3.502311 -1.796315 0
M  V30 27 O -0.437955 -4.776494 -2.197703 0
M  V30 28 C -1.265365 -5.911464 -2.047834 0
M  V30 29 C -1.494317 -2.792565 -2.755524 0
M  V30 30 O -1.790831 -3.310384 -3.998593 0
M  V30 31 C -2.493107 -2.588784 -4.974015 0
M  V30 32 C -1.879881 -1.497427 -2.384861 0
M  V30 33 O -1.774701 1.083118 0.262532 0
M  V30 34 H 0.328394 -2.196267 6.452640 0
M  V30 35 H 0.179028 -2.287861 5.349493 0
M  V30 36 H -0.079535 -2.470515 4.574727 0
M  V30 37 H 1.502141 -0.351952 5.750049 0
M  V30 38 H 2.628388 -1.540270 5.081128 0
M  V30 39 H 4.416024 -0.111012 0.198598 0
M  V30 40 H 3.378641 -1.170141 1.166785 0
M  V30 41 H 3.070208 -1.069868 -0.581531 0
M  V30 42 H 2.445480 1.541426 -1.377396 0
M  V30 43 H 0.043290 3.128210 -1.394618 0
M  V30 44 H 1.579703 4.062967 -1.130228 0
M  V30 45 H 0.199614 4.316429 -0.019374 0
M  V30 46 H -1.543789 1.935326 3.132579 0
M  V30 47 H -1.364090 3.602128 3.677517 0
M  V30 48 H -0.637840 -1.350058 0.769293 0
M  V30 49 H 1.615992 -3.145695 1.565971 0
M  V30 50 H 0.610348 -4.444779 2.225801 0
M  V30 51 H -0.111282 -2.840789 2.056163 0
M  V30 52 H -0.870675 -6.677448 -1.377186 0
M  V30 53 H -2.272384 -5.535267 -1.719439 0
M  V30 54 H -1.467364 -6.337836 -3.076945 0
M  V30 55 H -2.205639 -1.520209 -5.020796 0
M  V30 56 H -3.588951 -2.652847 -4.793865 0
M  V30 57 H -2.193733 -2.998267 -5.975726 0
M  V30 58 H -2.427764 -0.866975 -3.074020 0
M  V30 END ATOM
M  V30 BEGIN BOND
M  V30 1 1 1 2
M  V30 2 1 2 3
M  V30 3 1 3 4
M  V30 4 2 4 5
M  V30 5 1 4 6
M  V30 6 2 6 7
M  V30 7 1 7 8
M  V30 8 1 7 9
M  V30 9 1 9 10
M  V30 10 1 10 11
M  V30 11 2 10 12
M  V30 12 1 12 13
M  V30 13 2 13 14
M  V30 14 1 13 15
M  V30 15 1 15 16
M  V30 16 1 16 17
M  V30 17 2 17 18
M  V30 18 1 18 19
M  V30 19 2 19 20
M  V30 20 1 20 21
M  V30 21 2 21 22
M  V30 22 1 22 23
M  V30 23 1 23 24
M  V30 24 1 24 25
M  V30 25 2 23 26
M  V30 26 1 26 27
M  V30 27 1 27 28
M  V30 28 1 26 29
M  V30 29 1 29 30
M  V30 30 1 30 31
M  V30 31 2 29 32
M  V30 32 1 20 33
M  V30 33 1 12 6
M  V30 34 1 33 17
M  V30 35 1 32 21
M  V30 36 1 1 34
M  V30 37 1 1 35
M  V30 38 1 1 36
M  V30 39 1 2 37
M  V30 40 1 2 38
M  V30 41 1 8 39
M  V30 42 1 8 40
M  V30 43 1 8 41
M  V30 44 1 9 42
M  V30 45 1 11 43
M  V30 46 1 11 44
M  V30 47 1 11 45
M  V30 48 1 15 46
M  V30 49 1 15 47
M  V30 50 1 22 48
M  V30 51 1 25 49
M  V30 52 1 25 50
M  V30 53 1 25 51
M  V30 54 1 28 52
M  V30 55 1 28 53
M  V30 56 1 28 54
M  V30 57 1 31 55
M  V30 58 1 31 56
M  V30 59 1 31 57
M  V30 60 1 32 58
M  V30 END BOND
M  V30 END CTAB
M  END
>  <Dataset>  (858) 
ChEMBL_Kinases

>  <Ligand_Instance>  (858) 
nan

>  <PDB_ID>  (858) 
nan

>  <Standardized_SMILES>  (858) 
CCOC(=O)c1c(C)[nH]c(C)c1C(=O)CSc1nnc(-c2cc(OC)c(OC)c(OC)c2)o1

>  <Name>  (858) 
nan

>  <Pocket>  (858) 
nan

>  <ATP_Site>  (858) 
nan

>  <Peripheral>  (858) 
nan

>  <Num_H_Atoms_ProtBoundConf>  (858) 
nan

>  <Num_Resolved_Atoms>  (858) 
nan

>  <Num_Not_Resolved_Atoms>  (858) 
nan

$$$$
CHEMBL1410926
     RDKit          3D

  0  0  0  0  0  0  0  0  0  0999 V3000
M  V30 BEGIN CTAB
M  V30 COUNTS 49 53 0 0 0
M  V30 BEGIN ATOM
M  V30 1 C -2.508715 -4.530047 4.757445 0
M  V30 2 O -1.247324 -3.916406 4.948442 0
M  V30 3 C -0.731260 -2.932910 4.115584 0
M  V30 4 N 0.484732 -2.494616 4.490508 0
M  V30 5 C 1.129936 -1.526567 3.774757 0
M  V30 6 C 0.462713 -1.042147 2.667500 0
M  V30 7 N 1.054872 -0.085385 1.927626 0
M  V30 8 C 0.484250 0.448645 0.833659 0
M  V30 9 C 1.203358 1.479825 0.097300 0
M  V30 10 C 0.863695 2.185229 -1.035118 0
M  V30 11 N 1.826333 3.054774 -1.386743 0
M  V30 12 C 1.796266 3.964398 -2.538471 0
M  V30 13 C 2.801095 2.910867 -0.471205 0
M  V30 14 C 3.992674 3.605954 -0.433128 0
M  V30 15 C 4.889635 3.336570 0.579458 0
M  V30 16 C 4.589044 2.386592 1.531473 0
M  V30 17 C 3.385128 1.723848 1.443916 0
M  V30 18 C 2.450032 1.946249 0.460800 0
M  V30 19 C -0.760827 -0.022291 0.477166 0
M  V30 20 O -1.327168 0.437082 -0.520607 0
M  V30 21 N -1.418259 -0.985535 1.175599 0
M  V30 22 C -2.728663 -1.464831 0.781062 0
M  V30 23 C -2.679078 -2.610108 -0.149337 0
M  V30 24 C -2.656491 -3.929180 0.247626 0
M  V30 25 C -2.610576 -5.018835 -0.597256 0
M  V30 26 C -2.584615 -4.787187 -1.956927 0
M  V30 27 F -2.539402 -5.814683 -2.836789 0
M  V30 28 C -2.604519 -3.497122 -2.441168 0
M  V30 29 C -2.650535 -2.461320 -1.535506 0
M  V30 30 C -0.783945 -1.471657 2.258339 0
M  V30 31 N -1.340200 -2.427125 3.025759 0
M  V30 32 H -2.699829 -4.537050 3.664619 0
M  V30 33 H -2.496964 -5.602137 5.053339 0
M  V30 34 H -3.337946 -3.971122 5.218672 0
M  V30 35 H 2.112119 -1.149083 4.048410 0
M  V30 36 H -0.048760 2.069629 -1.581461 0
M  V30 37 H 0.751653 4.226048 -2.804084 0
M  V30 38 H 2.306566 3.514086 -3.421070 0
M  V30 39 H 2.289621 4.914435 -2.296328 0
M  V30 40 H 4.298898 4.355406 -1.132002 0
M  V30 41 H 5.857969 3.828671 0.700760 0
M  V30 42 H 5.290725 2.163784 2.338653 0
M  V30 43 H 3.155055 0.980254 2.193038 0
M  V30 44 H -3.294818 -0.618826 0.294714 0
M  V30 45 H -3.313906 -1.755597 1.680530 0
M  V30 46 H -2.675679 -4.167853 1.295382 0
M  V30 47 H -2.594689 -6.034491 -0.225686 0
M  V30 48 H -2.584256 -3.314151 -3.504958 0
M  V30 49 H -2.665041 -1.471535 -1.968696 0
M  V30 END ATOM
M  V30 BEGIN BOND
M  V30 1 1 1 2
M  V30 2 1 2 3
M  V30 3 2 3 4
M  V30 4 1 4 5
M  V30 5 2 5 6
M  V30 6 1 6 7
M  V30 7 2 7 8
M  V30 8 1 8 9
M  V30 9 2 9 10
M  V30 10 1 10 11
M  V30 11 1 11 12
M  V30 12 1 11 13
M  V30 13 2 13 14
M  V30 14 1 14 15
M  V30 15 2 15 16
M  V30 16 1 16 17
M  V30 17 2 17 18
M  V30 18 1 8 19
M  V30 19 2 19 20
M  V30 20 1 19 21
M  V30 21 1 21 22
M  V30 22 1 22 23
M  V30 23 2 23 24
M  V30 24 1 24 25
M  V30 25 2 25 26
M  V30 26 1 26 27
M  V30 27 1 26 28
M  V30 28 2 28 29
M  V30 29 1 21 30
M  V30 30 2 30 31
M  V30 31 1 31 3
M  V30 32 1 30 6
M  V30 33 1 18 9
M  V30 34 1 29 23
M  V30 35 1 18 13
M  V30 36 1 1 32
M  V30 37 1 1 33
M  V30 38 1 1 34
M  V30 39 1 5 35
M  V30 40 1 10 36
M  V30 41 1 12 37
M  V30 42 1 12 38
M  V30 43 1 12 39
M  V30 44 1 14 40
M  V30 45 1 15 41
M  V30 46 1 16 42
M  V30 47 1 17 43
M  V30 48 1 22 44
M  V30 49 1 22 45
M  V30 50 1 24 46
M  V30 51 1 25 47
M  V30 52 1 28 48
M  V30 53 1 29 49
M  V30 END BOND
M  V30 END CTAB
M  END
>  <Dataset>  (859) 
ChEMBL_Kinases

>  <Ligand_Instance>  (859) 
nan

>  <PDB_ID>  (859) 
nan

>  <Standardized_SMILES>  (859) 
COc1ncc2nc(-c3cn(C)c4ccccc34)c(=O)n(Cc3ccc(F)cc3)c2n1

>  <Name>  (859) 
nan

>  <Pocket>  (859) 
nan

>  <ATP_Site>  (859) 
nan

>  <Peripheral>  (859) 
nan

>  <Num_H_Atoms_ProtBoundConf>  (859) 
nan

>  <Num_Resolved_Atoms>  (859) 
nan

>  <Num_Not_Resolved_Atoms>  (859) 
nan

$$$$
CHEMBL1410899
     RDKit          3D

  0  0  0  0  0  0  0  0  0  0999 V3000
M  V30 BEGIN CTAB
M  V30 COUNTS 35 37 0 0 0
M  V30 BEGIN ATOM
M  V30 1 C 0.019173 -2.446113 5.495161 0
M  V30 2 O 0.354393 -1.401571 4.629744 0
M  V30 3 C 0.856863 -1.621630 3.375259 0
M  V30 4 C 1.055614 -2.901502 2.907690 0
M  V30 5 C 1.563198 -3.049883 1.639777 0
M  V30 6 C 1.877196 -1.984186 0.827266 0
M  V30 7 O 2.393224 -2.060090 -0.464169 0
M  V30 8 C 2.593655 -3.401408 -0.936345 0
M  V30 9 C 1.687315 -0.693821 1.272052 0
M  V30 10 N 1.938998 0.538670 0.604425 0
M  V30 11 C 1.217018 0.806101 -0.676917 0
M  V30 12 N 0.204961 1.271493 -0.777337 0
M  V30 13 C -0.571024 1.581739 -1.779496 0
M  V30 14 C -1.903475 2.195984 -1.819742 0
M  V30 15 C -2.652129 2.589911 -0.791755 0
M  V30 16 C -3.873294 3.141646 -0.973231 0
M  V30 17 C -4.280352 3.261687 -2.343335 0
M  V30 18 S -2.800649 2.537578 -3.256753 0
M  V30 19 C 0.000241 1.254789 -2.995402 0
M  V30 20 S 1.664100 0.506678 -2.498952 0
M  V30 21 C 1.170453 -0.524662 2.563669 0
M  V30 22 H 0.870825 -2.745013 6.171132 0
M  V30 23 H -0.447980 -3.306052 4.984958 0
M  V30 24 H -0.754039 -2.057376 6.205033 0
M  V30 25 H 0.835587 -3.786984 3.482443 0
M  V30 26 H 1.744608 -4.030318 1.207713 0
M  V30 27 H 2.946266 -3.426518 -1.979156 0
M  V30 28 H 3.366488 -3.902298 -0.298202 0
M  V30 29 H 1.652872 -3.964760 -0.847750 0
M  V30 30 H 2.607695 1.272176 0.965267 0
M  V30 31 H -2.297099 2.478400 0.246581 0
M  V30 32 H -4.590593 3.505657 -0.252235 0
M  V30 33 H -5.274978 3.699779 -2.715688 0
M  V30 34 H -0.268418 1.322270 -4.141527 0
M  V30 35 H 0.987450 0.468171 2.999112 0
M  V30 END ATOM
M  V30 BEGIN BOND
M  V30 1 1 1 2
M  V30 2 1 2 3
M  V30 3 2 3 4
M  V30 4 1 4 5
M  V30 5 2 5 6
M  V30 6 1 6 7
M  V30 7 1 7 8
M  V30 8 1 6 9
M  V30 9 1 9 10
M  V30 10 1 10 11
M  V30 11 2 11 12
M  V30 12 1 12 13
M  V30 13 1 13 14
M  V30 14 2 14 15
M  V30 15 1 15 16
M  V30 16 2 16 17
M  V30 17 1 17 18
M  V30 18 2 13 19
M  V30 19 1 19 20
M  V30 20 2 9 21
M  V30 21 1 21 3
M  V30 22 1 20 11
M  V30 23 1 18 14
M  V30 24 1 1 22
M  V30 25 1 1 23
M  V30 26 1 1 24
M  V30 27 1 4 25
M  V30 28 1 5 26
M  V30 29 1 8 27
M  V30 30 1 8 28
M  V30 31 1 8 29
M  V30 32 1 10 30
M  V30 33 1 15 31
M  V30 34 1 16 32
M  V30 35 1 17 33
M  V30 36 1 19 34
M  V30 37 1 21 35
M  V30 END BOND
M  V30 END CTAB
M  END
>  <Dataset>  (860) 
ChEMBL_Kinases

>  <Ligand_Instance>  (860) 
nan

>  <PDB_ID>  (860) 
nan

>  <Standardized_SMILES>  (860) 
COc1ccc(OC)c(Nc2nc(-c3cccs3)cs2)c1

>  <Name>  (860) 
nan

>  <Pocket>  (860) 
nan

>  <ATP_Site>  (860) 
nan

>  <Peripheral>  (860) 
nan

>  <Num_H_Atoms_ProtBoundConf>  (860) 
nan

>  <Num_Resolved_Atoms>  (860) 
nan

>  <Num_Not_Resolved_Atoms>  (860) 
nan

$$$$
CHEMBL1410859
     RDKit          3D

  0  0  0  0  0  0  0  0  0  0999 V3000
M  V30 BEGIN CTAB
M  V30 COUNTS 35 38 0 0 0
M  V30 BEGIN ATOM
M  V30 1 C 2.545634 -3.082853 4.264583 0
M  V30 2 C 3.740175 -3.176099 3.544032 0
M  V30 3 S 3.209338 -3.452801 1.800916 0
M  V30 4 C 1.451617 -3.417542 2.199183 0
M  V30 5 C 0.313741 -3.579623 1.273299 0
M  V30 6 N -0.081824 -2.270824 0.792967 0
M  V30 7 C 0.803704 -1.463548 0.033136 0
M  V30 8 N 2.039529 -1.880061 -0.279168 0
M  V30 9 C 2.927324 -1.171688 -0.997101 0
M  V30 10 N 2.593932 0.061848 -1.461939 0
M  V30 11 C 1.360263 0.563746 -1.192349 0
M  V30 12 C 1.020807 1.814396 -1.662533 0
M  V30 13 C -0.224293 2.354943 -1.406314 0
M  V30 14 C -1.089161 1.575177 -0.662965 0
M  V30 15 C -2.422207 2.119323 -0.370198 0
M  V30 16 C -2.869341 3.410256 -0.168147 0
M  V30 17 C -4.240878 3.328006 0.072670 0
M  V30 18 O -4.610866 2.049751 0.019848 0
M  V30 19 C -3.542332 1.315709 -0.242530 0
M  V30 20 C -0.748386 0.323242 -0.192874 0
M  V30 21 C 0.494927 -0.210991 -0.451379 0
M  V30 22 C 1.421555 -3.214083 3.521684 0
M  V30 23 H 2.630140 -2.916927 5.330280 0
M  V30 24 H 4.812212 -3.090183 3.998438 0
M  V30 25 H 0.610233 -4.237877 0.412869 0
M  V30 26 H -0.480560 -4.112862 1.801783 0
M  V30 27 H -1.037296 -2.009795 1.056842 0
M  V30 28 H 3.891706 -1.630680 -1.175660 0
M  V30 29 H 1.688822 2.432498 -2.244099 0
M  V30 30 H -0.556272 3.321577 -1.740115 0
M  V30 31 H -2.210789 4.262670 -0.207677 0
M  V30 32 H -4.817495 4.224986 0.261194 0
M  V30 33 H -3.677070 0.239610 -0.318962 0
M  V30 34 H -1.499175 -0.202215 0.378191 0
M  V30 35 H 0.446448 -3.148540 4.041386 0
M  V30 END ATOM
M  V30 BEGIN BOND
M  V30 1 2 1 2
M  V30 2 1 2 3
M  V30 3 1 3 4
M  V30 4 1 4 5
M  V30 5 1 5 6
M  V30 6 1 6 7
M  V30 7 2 7 8
M  V30 8 1 8 9
M  V30 9 2 9 10
M  V30 10 1 10 11
M  V30 11 2 11 12
M  V30 12 1 12 13
M  V30 13 2 13 14
M  V30 14 1 14 15
M  V30 15 1 15 16
M  V30 16 2 16 17
M  V30 17 1 17 18
M  V30 18 1 18 19
M  V30 19 1 14 20
M  V30 20 2 20 21
M  V30 21 2 4 22
M  V30 22 1 22 1
M  V30 23 1 21 7
M  V30 24 1 21 11
M  V30 25 2 19 15
M  V30 26 1 1 23
M  V30 27 1 2 24
M  V30 28 1 5 25
M  V30 29 1 5 26
M  V30 30 1 6 27
M  V30 31 1 9 28
M  V30 32 1 12 29
M  V30 33 1 13 30
M  V30 34 1 16 31
M  V30 35 1 17 32
M  V30 36 1 19 33
M  V30 37 1 20 34
M  V30 38 1 22 35
M  V30 END BOND
M  V30 END CTAB
M  END
>  <Dataset>  (861) 
ChEMBL_Kinases

>  <Ligand_Instance>  (861) 
nan

>  <PDB_ID>  (861) 
nan

>  <Standardized_SMILES>  (861) 
c1csc(CNc2ncnc3ccc(-c4ccoc4)cc23)c1

>  <Name>  (861) 
nan

>  <Pocket>  (861) 
nan

>  <ATP_Site>  (861) 
nan

>  <Peripheral>  (861) 
nan

>  <Num_H_Atoms_ProtBoundConf>  (861) 
nan

>  <Num_Resolved_Atoms>  (861) 
nan

>  <Num_Not_Resolved_Atoms>  (861) 
nan

$$$$
CHEMBL1410827
     RDKit          3D

  0  0  0  0  0  0  0  0  0  0999 V3000
M  V30 BEGIN CTAB
M  V30 COUNTS 37 38 0 0 0
M  V30 BEGIN ATOM
M  V30 1 C -1.068792 -3.220517 1.594554 0
M  V30 2 C -0.277444 -2.383324 0.621827 0
M  V30 3 C 0.519803 -3.236519 -0.335882 0
M  V30 4 C 1.503317 -4.121988 0.355445 0
M  V30 5 C 2.503362 -3.399775 1.151480 0
M  V30 6 C 2.432284 -3.028344 2.482896 0
M  V30 7 C 3.611790 -2.373742 2.774302 0
M  V30 8 C 4.350334 -2.376562 1.601807 0
M  V30 9 O 3.675539 -2.981967 0.676989 0
M  V30 10 N -1.191998 -1.501605 -0.074734 0
M  V30 11 C -1.013628 -0.078077 0.046240 0
M  V30 12 O -0.070941 0.416764 0.751128 0
M  V30 13 N -1.830958 0.922961 -0.578240 0
M  V30 14 C -1.450505 2.287945 -0.304580 0
M  V30 15 C -0.538261 2.794255 -1.221984 0
M  V30 16 C -0.078090 4.090059 -1.093017 0
M  V30 17 C -0.538570 4.868179 -0.042006 0
M  V30 18 C -1.445032 4.361265 0.867414 0
M  V30 19 F -1.914042 5.082960 1.897583 0
M  V30 20 C -1.907791 3.065783 0.742049 0
M  V30 21 H -0.741057 -2.963700 2.630940 0
M  V30 22 H -0.884693 -4.292052 1.397790 0
M  V30 23 H -2.142924 -3.046737 1.480548 0
M  V30 24 H 0.432555 -1.716984 1.149601 0
M  V30 25 H -0.213455 -3.899404 -0.842414 0
M  V30 26 H 0.977433 -2.608795 -1.121915 0
M  V30 27 H 2.004663 -4.719428 -0.458458 0
M  V30 28 H 1.025824 -4.885672 0.998888 0
M  V30 29 H 1.614616 -3.212095 3.167468 0
M  V30 30 H 3.899903 -1.946842 3.722138 0
M  V30 31 H 5.334522 -1.931902 1.511568 0
M  V30 32 H -1.993575 -1.776025 -0.675474 0
M  V30 33 H -2.620157 0.557390 -1.168816 0
M  V30 34 H -0.137955 2.235250 -2.068873 0
M  V30 35 H 0.624754 4.563667 -1.752348 0
M  V30 36 H -0.242341 5.907780 0.157881 0
M  V30 37 H -2.610841 2.591373 1.401176 0
M  V30 END ATOM
M  V30 BEGIN BOND
M  V30 1 1 1 2
M  V30 2 1 2 3
M  V30 3 1 3 4
M  V30 4 1 4 5
M  V30 5 2 5 6
M  V30 6 1 6 7
M  V30 7 2 7 8
M  V30 8 1 8 9
M  V30 9 1 2 10
M  V30 10 1 10 11
M  V30 11 2 11 12
M  V30 12 1 11 13
M  V30 13 1 13 14
M  V30 14 2 14 15
M  V30 15 1 15 16
M  V30 16 2 16 17
M  V30 17 1 17 18
M  V30 18 1 18 19
M  V30 19 2 18 20
M  V30 20 1 9 5
M  V30 21 1 20 14
M  V30 22 1 1 21
M  V30 23 1 1 22
M  V30 24 1 1 23
M  V30 25 1 2 24
M  V30 26 1 3 25
M  V30 27 1 3 26
M  V30 28 1 4 27
M  V30 29 1 4 28
M  V30 30 1 6 29
M  V30 31 1 7 30
M  V30 32 1 8 31
M  V30 33 1 10 32
M  V30 34 1 13 33
M  V30 35 1 15 34
M  V30 36 1 16 35
M  V30 37 1 17 36
M  V30 38 1 20 37
M  V30 END BOND
M  V30 END CTAB
M  END
>  <Dataset>  (862) 
ChEMBL_Kinases

>  <Ligand_Instance>  (862) 
nan

>  <PDB_ID>  (862) 
nan

>  <Standardized_SMILES>  (862) 
CC(CCc1ccco1)NC(=O)Nc1cccc(F)c1

>  <Name>  (862) 
nan

>  <Pocket>  (862) 
nan

>  <ATP_Site>  (862) 
nan

>  <Peripheral>  (862) 
nan

>  <Num_H_Atoms_ProtBoundConf>  (862) 
nan

>  <Num_Resolved_Atoms>  (862) 
nan

>  <Num_Not_Resolved_Atoms>  (862) 
nan

$$$$
CHEMBL1410677
     RDKit          3D

  0  0  0  0  0  0  0  0  0  0999 V3000
M  V30 BEGIN CTAB
M  V30 COUNTS 55 58 0 0 0
M  V30 BEGIN ATOM
M  V30 1 C 1.584107 -5.747261 4.488561 0
M  V30 2 O 2.149553 -4.571507 5.021198 0
M  V30 3 C 2.361094 -3.413095 4.300506 0
M  V30 4 C 2.930434 -2.386852 5.038041 0
M  V30 5 C 3.204726 -1.150103 4.442780 0
M  V30 6 C 2.897794 -0.975083 3.112131 0
M  V30 7 N 3.127078 0.187599 2.445995 0
M  V30 8 C 2.806046 0.313373 1.127894 0
M  V30 9 O 3.153653 1.597991 0.708988 0
M  V30 10 C 2.228046 -0.698360 0.348982 0
M  V30 11 C 1.937654 -0.362980 -1.052795 0
M  V30 12 N 0.711788 0.367598 -1.288912 0
M  V30 13 C 0.269576 1.720383 -1.353755 0
M  V30 14 C -0.251257 2.301566 -0.054733 0
M  V30 15 C -0.606281 3.737645 -0.254441 0
M  V30 16 C -2.007336 3.842053 0.280521 0
M  V30 17 C -2.169748 2.578631 1.051851 0
M  V30 18 O -1.319137 1.644393 0.483591 0
M  V30 19 C -0.371224 -0.513575 -1.545519 0
M  V30 20 O 0.106681 -1.669210 -1.464255 0
M  V30 21 N -1.720161 -0.363608 -1.840366 0
M  V30 22 C -2.714281 -1.335776 -2.074363 0
M  V30 23 C -2.551758 -2.699849 -2.068142 0
M  V30 24 C -3.527744 -3.643802 -2.295146 0
M  V30 25 C -4.805468 -3.149513 -2.556853 0
M  V30 26 C -5.029089 -1.790167 -2.576295 0
M  V30 27 C -3.996715 -0.911062 -2.338435 0
M  V30 28 C 2.012892 -1.858644 1.057310 0
M  V30 29 C 2.332338 -2.001203 2.388677 0
M  V30 30 C 2.057953 -3.225465 2.967882 0
M  V30 31 H 0.809595 -5.477643 3.735035 0
M  V30 32 H 2.334865 -6.383513 3.949209 0
M  V30 33 H 1.070582 -6.352791 5.274115 0
M  V30 34 H 3.203129 -2.438915 6.088351 0
M  V30 35 H 3.652859 -0.321010 4.993625 0
M  V30 36 H 3.958380 1.700968 0.111032 0
M  V30 37 H 1.994821 -1.290589 -1.661215 0
M  V30 38 H 2.828912 0.236537 -1.412983 0
M  V30 39 H -0.452992 1.917147 -2.169249 0
M  V30 40 H 1.143852 2.402877 -1.622550 0
M  V30 41 H 0.605367 2.272440 0.673082 0
M  V30 42 H 0.037737 4.366077 0.396741 0
M  V30 43 H -0.541320 4.055696 -1.321534 0
M  V30 44 H -2.160872 4.763371 0.879878 0
M  V30 45 H -2.765095 3.804732 -0.554873 0
M  V30 46 H -3.206958 2.211636 1.123579 0
M  V30 47 H -1.813429 2.750512 2.089339 0
M  V30 48 H -1.978790 0.635911 -1.895207 0
M  V30 49 H -1.586443 -3.118221 -1.872124 0
M  V30 50 H -3.330980 -4.704600 -2.275136 0
M  V30 51 H -5.624398 -3.829387 -2.745402 0
M  V30 52 H -6.009218 -1.379404 -2.776877 0
M  V30 53 H -4.221463 0.155721 -2.363536 0
M  V30 54 H 1.580414 -2.680283 0.517752 0
M  V30 55 H 1.615314 -4.062321 2.445299 0
M  V30 END ATOM
M  V30 BEGIN BOND
M  V30 1 1 1 2
M  V30 2 1 2 3
M  V30 3 2 3 4
M  V30 4 1 4 5
M  V30 5 2 5 6
M  V30 6 1 6 7
M  V30 7 2 7 8
M  V30 8 1 8 9
M  V30 9 1 8 10
M  V30 10 1 10 11
M  V30 11 1 11 12
M  V30 12 1 12 13
M  V30 13 1 13 14
M  V30 14 1 14 15
M  V30 15 1 15 16
M  V30 16 1 16 17
M  V30 17 1 17 18
M  V30 18 1 12 19
M  V30 19 2 19 20
M  V30 20 1 19 21
M  V30 21 1 21 22
M  V30 22 2 22 23
M  V30 23 1 23 24
M  V30 24 2 24 25
M  V30 25 1 25 26
M  V30 26 2 26 27
M  V30 27 2 10 28
M  V30 28 1 28 29
M  V30 29 2 29 30
M  V30 30 1 30 3
M  V30 31 1 29 6
M  V30 32 1 18 14
M  V30 33 1 27 22
M  V30 34 1 1 31
M  V30 35 1 1 32
M  V30 36 1 1 33
M  V30 37 1 4 34
M  V30 38 1 5 35
M  V30 39 1 9 36
M  V30 40 1 11 37
M  V30 41 1 11 38
M  V30 42 1 13 39
M  V30 43 1 13 40
M  V30 44 1 14 41
M  V30 45 1 15 42
M  V30 46 1 15 43
M  V30 47 1 16 44
M  V30 48 1 16 45
M  V30 49 1 17 46
M  V30 50 1 17 47
M  V30 51 1 21 48
M  V30 52 1 23 49
M  V30 53 1 24 50
M  V30 54 1 25 51
M  V30 55 1 26 52
M  V30 56 1 27 53
M  V30 57 1 28 54
M  V30 58 1 30 55
M  V30 END BOND
M  V30 END CTAB
M  END
>  <Dataset>  (863) 
ChEMBL_Kinases

>  <Ligand_Instance>  (863) 
nan

>  <PDB_ID>  (863) 
nan

>  <Standardized_SMILES>  (863) 
COc1ccc2nc(O)c(CN(CC3CCCO3)C(=O)Nc3ccccc3)cc2c1

>  <Name>  (863) 
nan

>  <Pocket>  (863) 
nan

>  <ATP_Site>  (863) 
nan

>  <Peripheral>  (863) 
nan

>  <Num_H_Atoms_ProtBoundConf>  (863) 
nan

>  <Num_Resolved_Atoms>  (863) 
nan

>  <Num_Not_Resolved_Atoms>  (863) 
nan

$$$$
CHEMBL1414026
     RDKit          3D

  0  0  0  0  0  0  0  0  0  0999 V3000
M  V30 BEGIN CTAB
M  V30 COUNTS 27 27 0 0 0
M  V30 BEGIN ATOM
M  V30 1 C -1.669747 -0.557243 3.335986 0
M  V30 2 N -0.806443 -1.190047 2.363887 0
M  V30 3 C -1.270390 -2.490971 1.970722 0
M  V30 4 C 0.586305 -1.156155 2.768913 0
M  V30 5 C 1.348155 -1.853235 1.651257 0
M  V30 6 N 1.148968 -1.151693 0.400608 0
M  V30 7 C 1.513016 0.193559 0.187387 0
M  V30 8 O 2.038634 0.895240 1.058412 0
M  V30 9 C 1.275412 0.805277 -1.089070 0
M  V30 10 C 0.726144 0.303534 -2.219308 0
M  V30 11 C 0.609591 1.110044 -3.326706 0
M  V30 12 C 1.070665 2.407066 -3.210232 0
M  V30 13 Cl 1.079477 3.683449 -4.397425 0
M  V30 14 S 1.694358 2.465010 -1.440529 0
M  V30 15 H -2.636256 -1.069816 3.437140 0
M  V30 16 H -1.889542 0.489984 3.006992 0
M  V30 17 H -1.212393 -0.534504 4.341854 0
M  V30 18 H -0.706267 -3.270767 2.487989 0
M  V30 19 H -2.344632 -2.638693 2.204278 0
M  V30 20 H -1.164663 -2.544404 0.852397 0
M  V30 21 H 0.887010 -0.102058 2.823747 0
M  V30 22 H 0.762636 -1.610573 3.742130 0
M  V30 23 H 1.071868 -2.904607 1.557887 0
M  V30 24 H 2.454498 -1.819482 1.870602 0
M  V30 25 H 0.702778 -1.676580 -0.406958 0
M  V30 26 H 0.390193 -0.728571 -2.221445 0
M  V30 27 H 0.186286 0.801872 -4.272279 0
M  V30 END ATOM
M  V30 BEGIN BOND
M  V30 1 1 1 2
M  V30 2 1 2 3
M  V30 3 1 2 4
M  V30 4 1 4 5
M  V30 5 1 5 6
M  V30 6 1 6 7
M  V30 7 2 7 8
M  V30 8 1 7 9
M  V30 9 2 9 10
M  V30 10 1 10 11
M  V30 11 2 11 12
M  V30 12 1 12 13
M  V30 13 1 12 14
M  V30 14 1 14 9
M  V30 15 1 1 15
M  V30 16 1 1 16
M  V30 17 1 1 17
M  V30 18 1 3 18
M  V30 19 1 3 19
M  V30 20 1 3 20
M  V30 21 1 4 21
M  V30 22 1 4 22
M  V30 23 1 5 23
M  V30 24 1 5 24
M  V30 25 1 6 25
M  V30 26 1 10 26
M  V30 27 1 11 27
M  V30 END BOND
M  V30 END CTAB
M  END
>  <Dataset>  (864) 
ChEMBL_Kinases

>  <Ligand_Instance>  (864) 
nan

>  <PDB_ID>  (864) 
nan

>  <Standardized_SMILES>  (864) 
CN(C)CCNC(=O)c1ccc(Cl)s1

>  <Name>  (864) 
nan

>  <Pocket>  (864) 
nan

>  <ATP_Site>  (864) 
nan

>  <Peripheral>  (864) 
nan

>  <Num_H_Atoms_ProtBoundConf>  (864) 
nan

>  <Num_Resolved_Atoms>  (864) 
nan

>  <Num_Not_Resolved_Atoms>  (864) 
nan

$$$$
CHEMBL1408854
     RDKit          3D

  0  0  0  0  0  0  0  0  0  0999 V3000
M  V30 BEGIN CTAB
M  V30 COUNTS 55 59 0 0 0
M  V30 BEGIN ATOM
M  V30 1 O 2.519870 -1.433482 1.652795 0
M  V30 2 C 2.735657 -0.647858 0.694443 0
M  V30 3 C 2.994130 -1.453231 -0.477745 0
M  V30 4 C 4.287779 -1.914792 -0.727250 0
M  V30 5 C 4.521262 -2.693404 -1.867515 0
M  V30 6 C 3.444175 -2.961466 -2.687735 0
M  V30 7 C 2.159529 -2.521906 -2.469658 0
M  V30 8 F 1.169543 -2.838590 -3.335315 0
M  V30 9 C 1.941307 -1.745496 -1.326843 0
M  V30 10 N 2.641550 0.691573 1.133456 0
M  V30 11 C 2.329228 0.853872 2.536271 0
M  V30 12 C 0.891017 1.318174 2.616757 0
M  V30 13 C 0.595345 2.195828 1.438780 0
M  V30 14 C 1.755001 2.973670 0.949498 0
M  V30 15 C 2.794559 1.971183 0.467722 0
M  V30 16 C -0.119994 1.522686 0.291380 0
M  V30 17 N -1.309309 1.593579 1.161671 0
M  V30 18 C -2.441706 0.752753 1.428793 0
M  V30 19 C -3.567915 1.089070 2.156872 0
M  V30 20 C -4.566239 0.148645 2.328231 0
M  V30 21 C -4.469689 -1.128016 1.788664 0
M  V30 22 C -3.368955 -1.497793 1.061769 0
M  V30 23 C -3.175426 -2.825806 0.459662 0
M  V30 24 C -2.449511 -2.870263 -0.702163 0
M  V30 25 C -2.215573 -4.072904 -1.330565 0
M  V30 26 C -2.709485 -5.258417 -0.800203 0
M  V30 27 C -3.444372 -5.218386 0.374359 0
M  V30 28 C -3.662813 -3.985043 0.984956 0
M  V30 29 C -2.392944 -0.533287 0.910829 0
M  V30 30 C -0.736192 2.877417 1.577751 0
M  V30 31 H 5.100503 -1.668193 -0.040588 0
M  V30 32 H 5.526668 -3.052032 -2.062286 0
M  V30 33 H 3.657342 -3.572175 -3.574078 0
M  V30 34 H 0.918689 -1.420442 -1.190592 0
M  V30 35 H 3.009618 1.621172 2.999661 0
M  V30 36 H 2.451826 -0.065062 3.135411 0
M  V30 37 H 0.262597 0.432620 2.680616 0
M  V30 38 H 0.782355 1.927189 3.535314 0
M  V30 39 H 2.171278 3.688028 1.683233 0
M  V30 40 H 1.390731 3.563910 0.061935 0
M  V30 41 H 3.819523 2.371416 0.627678 0
M  V30 42 H 2.669427 1.843700 -0.627372 0
M  V30 43 H -0.200720 2.253577 -0.564239 0
M  V30 44 H 0.178012 0.514343 0.021340 0
M  V30 45 H -3.578624 2.086460 2.544729 0
M  V30 46 H -5.424538 0.461776 2.903490 0
M  V30 47 H -5.253919 -1.859776 1.926319 0
M  V30 48 H -2.002345 -2.043480 -1.236234 0
M  V30 49 H -1.650931 -4.187275 -2.249884 0
M  V30 50 H -2.527744 -6.199872 -1.287819 0
M  V30 51 H -3.851097 -6.133103 0.826234 0
M  V30 52 H -4.227363 -3.934568 1.891121 0
M  V30 53 H -1.511278 -0.834039 0.327001 0
M  V30 54 H -0.941241 3.708599 0.864912 0
M  V30 55 H -0.973517 3.167981 2.621677 0
M  V30 END ATOM
M  V30 BEGIN BOND
M  V30 1 2 1 2
M  V30 2 1 2 3
M  V30 3 2 3 4
M  V30 4 1 4 5
M  V30 5 2 5 6
M  V30 6 1 6 7
M  V30 7 1 7 8
M  V30 8 2 7 9
M  V30 9 1 2 10
M  V30 10 1 10 11
M  V30 11 1 11 12
M  V30 12 1 12 13
M  V30 13 1 13 14
M  V30 14 1 14 15
M  V30 15 1 13 16
M  V30 16 1 16 17
M  V30 17 1 17 18
M  V30 18 2 18 19
M  V30 19 1 19 20
M  V30 20 2 20 21
M  V30 21 1 21 22
M  V30 22 1 22 23
M  V30 23 2 23 24
M  V30 24 1 24 25
M  V30 25 2 25 26
M  V30 26 1 26 27
M  V30 27 2 27 28
M  V30 28 2 22 29
M  V30 29 1 17 30
M  V30 30 1 9 3
M  V30 31 1 15 10
M  V30 32 1 29 18
M  V30 33 1 30 13
M  V30 34 1 28 23
M  V30 35 1 4 31
M  V30 36 1 5 32
M  V30 37 1 6 33
M  V30 38 1 9 34
M  V30 39 1 11 35
M  V30 40 1 11 36
M  V30 41 1 12 37
M  V30 42 1 12 38
M  V30 43 1 14 39
M  V30 44 1 14 40
M  V30 45 1 15 41
M  V30 46 1 15 42
M  V30 47 1 16 43
M  V30 48 1 16 44
M  V30 49 1 19 45
M  V30 50 1 20 46
M  V30 51 1 21 47
M  V30 52 1 24 48
M  V30 53 1 25 49
M  V30 54 1 26 50
M  V30 55 1 27 51
M  V30 56 1 28 52
M  V30 57 1 29 53
M  V30 58 1 30 54
M  V30 59 1 30 55
M  V30 END BOND
M  V30 END CTAB
M  END
>  <Dataset>  (865) 
ChEMBL_Kinases

>  <Ligand_Instance>  (865) 
nan

>  <PDB_ID>  (865) 
nan

>  <Standardized_SMILES>  (865) 
O=C(c1cccc(F)c1)N1CCC2(CC1)CN(c1cccc(-c3ccccc3)c1)C2

>  <Name>  (865) 
nan

>  <Pocket>  (865) 
nan

>  <ATP_Site>  (865) 
nan

>  <Peripheral>  (865) 
nan

>  <Num_H_Atoms_ProtBoundConf>  (865) 
nan

>  <Num_Resolved_Atoms>  (865) 
nan

>  <Num_Not_Resolved_Atoms>  (865) 
nan

$$$$
CHEMBL1408861
     RDKit          3D

  0  0  0  0  0  0  0  0  0  0999 V3000
M  V30 BEGIN CTAB
M  V30 COUNTS 48 51 0 0 0
M  V30 BEGIN ATOM
M  V30 1 C -4.523404 -6.620434 1.437385 0
M  V30 2 O -3.715884 -6.830695 0.269926 0
M  V30 3 C -2.761481 -5.860347 -0.044127 0
M  V30 4 C -2.674069 -4.773957 0.799181 0
M  V30 5 C -1.729661 -3.783605 0.514744 0
M  V30 6 C -0.937651 -3.963034 -0.606743 0
M  V30 7 C 0.066389 -2.932456 -0.929171 0
M  V30 8 N 0.306457 -1.799606 -0.232160 0
M  V30 9 C 1.297901 -1.099373 -0.827761 0
M  V30 10 C 1.669589 0.160083 -0.180494 0
M  V30 11 C 2.386083 0.282513 0.997372 0
M  V30 12 C 2.667594 1.545564 1.497627 0
M  V30 13 C 2.246197 2.691365 0.842432 0
M  V30 14 N 2.575703 3.949785 1.421681 0
M  V30 15 C 1.553256 4.363965 2.314963 0
M  V30 16 O 0.585135 3.592991 2.436056 0
M  V30 17 C 1.567558 5.605712 3.079817 0
M  V30 18 C 0.479653 5.833357 3.897795 0
M  V30 19 C 0.443474 7.010815 4.653932 0
M  V30 20 N 1.453861 7.895962 4.577528 0
M  V30 21 C 2.522145 7.671833 3.773961 0
M  V30 22 C 2.600621 6.517564 3.005945 0
M  V30 23 C 1.521200 2.567612 -0.349445 0
M  V30 24 C 1.232976 1.305136 -0.860684 0
M  V30 25 N 1.648025 -1.843207 -1.903617 0
M  V30 26 O 0.912847 -2.917282 -1.946495 0
M  V30 27 C -1.029004 -5.053295 -1.448635 0
M  V30 28 C -1.972991 -6.047177 -1.167789 0
M  V30 29 O -2.161613 -7.170078 -1.919795 0
M  V30 30 C -1.468015 -7.521872 -3.072221 0
M  V30 31 H -3.915645 -6.464176 2.340525 0
M  V30 32 H -5.103536 -5.686512 1.244541 0
M  V30 33 H -5.249361 -7.426061 1.558898 0
M  V30 34 H -3.292137 -4.643110 1.666260 0
M  V30 35 H -1.574084 -2.890667 1.105853 0
M  V30 36 H 2.681624 -0.655350 1.452757 0
M  V30 37 H 3.231412 1.591497 2.422911 0
M  V30 38 H 3.409955 4.586411 1.299949 0
M  V30 39 H -0.368564 5.137409 3.991176 0
M  V30 40 H -0.399070 7.231581 5.315051 0
M  V30 41 H 3.316024 8.422502 3.748355 0
M  V30 42 H 3.447134 6.327770 2.361614 0
M  V30 43 H 1.195415 3.474184 -0.855440 0
M  V30 44 H 0.666746 1.250627 -1.790232 0
M  V30 45 H -0.404125 -5.175232 -2.316129 0
M  V30 46 H -0.629646 -8.199307 -2.736784 0
M  V30 47 H -2.058351 -8.151361 -3.769744 0
M  V30 48 H -0.972657 -6.675255 -3.576044 0
M  V30 END ATOM
M  V30 BEGIN BOND
M  V30 1 1 1 2
M  V30 2 1 2 3
M  V30 3 2 3 4
M  V30 4 1 4 5
M  V30 5 2 5 6
M  V30 6 1 6 7
M  V30 7 2 7 8
M  V30 8 1 8 9
M  V30 9 1 9 10
M  V30 10 2 10 11
M  V30 11 1 11 12
M  V30 12 2 12 13
M  V30 13 1 13 14
M  V30 14 1 14 15
M  V30 15 2 15 16
M  V30 16 1 15 17
M  V30 17 2 17 18
M  V30 18 1 18 19
M  V30 19 2 19 20
M  V30 20 1 20 21
M  V30 21 2 21 22
M  V30 22 1 13 23
M  V30 23 2 23 24
M  V30 24 2 9 25
M  V30 25 1 25 26
M  V30 26 1 6 27
M  V30 27 2 27 28
M  V30 28 1 28 29
M  V30 29 1 29 30
M  V30 30 1 28 3
M  V30 31 1 26 7
M  V30 32 1 24 10
M  V30 33 1 22 17
M  V30 34 1 1 31
M  V30 35 1 1 32
M  V30 36 1 1 33
M  V30 37 1 4 34
M  V30 38 1 5 35
M  V30 39 1 11 36
M  V30 40 1 12 37
M  V30 41 1 14 38
M  V30 42 1 18 39
M  V30 43 1 19 40
M  V30 44 1 21 41
M  V30 45 1 22 42
M  V30 46 1 23 43
M  V30 47 1 24 44
M  V30 48 1 27 45
M  V30 49 1 30 46
M  V30 50 1 30 47
M  V30 51 1 30 48
M  V30 END BOND
M  V30 END CTAB
M  END
>  <Dataset>  (866) 
ChEMBL_Kinases

>  <Ligand_Instance>  (866) 
nan

>  <PDB_ID>  (866) 
nan

>  <Standardized_SMILES>  (866) 
COc1ccc(-c2nc(-c3ccc(NC(=O)c4ccncc4)cc3)no2)cc1OC

>  <Name>  (866) 
nan

>  <Pocket>  (866) 
nan

>  <ATP_Site>  (866) 
nan

>  <Peripheral>  (866) 
nan

>  <Num_H_Atoms_ProtBoundConf>  (866) 
nan

>  <Num_Resolved_Atoms>  (866) 
nan

>  <Num_Not_Resolved_Atoms>  (866) 
nan

$$$$
CHEMBL1408956
     RDKit          3D

  0  0  0  0  0  0  0  0  0  0999 V3000
M  V30 BEGIN CTAB
M  V30 COUNTS 45 48 0 0 0
M  V30 BEGIN ATOM
M  V30 1 C -5.991301 -4.711335 -0.603528 0
M  V30 2 O -4.628100 -4.423839 -0.739673 0
M  V30 3 C -4.112385 -3.207434 -1.163639 0
M  V30 4 C -2.738788 -3.160789 -1.219299 0
M  V30 5 C -2.070781 -2.025612 -1.620288 0
M  V30 6 C -2.762467 -0.876959 -1.986268 0
M  V30 7 O -2.366125 0.357359 -2.412693 0
M  V30 8 C -1.080844 0.843051 -2.609503 0
M  V30 9 C -0.222013 0.867013 -1.400785 0
M  V30 10 O 0.907895 1.336906 -1.781806 0
M  V30 11 N -0.399476 0.503828 -0.036450 0
M  V30 12 C 0.714064 0.688183 0.831506 0
M  V30 13 C 0.894460 1.878784 1.506466 0
M  V30 14 C 1.973834 2.054751 2.347326 0
M  V30 15 C 2.910079 1.061932 2.549544 0
M  V30 16 C 2.672606 -0.102104 1.846596 0
M  V30 17 C 1.616926 -0.344205 0.991902 0
M  V30 18 N 3.685096 -0.962743 2.163459 0
M  V30 19 C 4.511343 -0.344300 3.029850 0
M  V30 20 N 4.053490 0.870518 3.266599 0
M  V30 21 C 4.598318 1.881145 4.117645 0
M  V30 22 C 5.612084 1.412175 5.101747 0
M  V30 23 S 6.787592 0.356868 4.231589 0
M  V30 24 C 5.722339 -0.987981 3.586090 0
M  V30 25 C -4.162248 -0.932678 -1.926798 0
M  V30 26 C -4.825634 -2.095964 -1.516516 0
M  V30 27 H -6.168489 -5.761345 -0.943965 0
M  V30 28 H -6.328928 -4.698177 0.457487 0
M  V30 29 H -6.642421 -4.057098 -1.187635 0
M  V30 30 H -2.095591 -3.989661 -0.959447 0
M  V30 31 H -1.001111 -1.855137 -1.708570 0
M  V30 32 H -0.588057 0.166049 -3.365152 0
M  V30 33 H -1.151681 1.842419 -3.087169 0
M  V30 34 H -1.354094 0.155149 0.096417 0
M  V30 35 H 0.167466 2.657190 1.353046 0
M  V30 36 H 2.132341 2.979741 2.884441 0
M  V30 37 H 1.474377 -1.257629 0.470862 0
M  V30 38 H 3.800981 2.367610 4.756408 0
M  V30 39 H 5.051355 2.665498 3.447060 0
M  V30 40 H 6.073611 2.246903 5.622773 0
M  V30 41 H 5.082724 0.746438 5.839018 0
M  V30 42 H 5.506313 -1.752897 4.337730 0
M  V30 43 H 6.345286 -1.464383 2.789838 0
M  V30 44 H -4.873323 -0.128331 -2.176458 0
M  V30 45 H -5.901889 -2.171914 -1.459612 0
M  V30 END ATOM
M  V30 BEGIN BOND
M  V30 1 1 1 2
M  V30 2 1 2 3
M  V30 3 2 3 4
M  V30 4 1 4 5
M  V30 5 2 5 6
M  V30 6 1 6 7
M  V30 7 1 7 8
M  V30 8 1 8 9
M  V30 9 2 9 10
M  V30 10 1 9 11
M  V30 11 1 11 12
M  V30 12 2 12 13
M  V30 13 1 13 14
M  V30 14 2 14 15
M  V30 15 1 15 16
M  V30 16 2 16 17
M  V30 17 1 16 18
M  V30 18 2 18 19
M  V30 19 1 19 20
M  V30 20 1 20 21
M  V30 21 1 21 22
M  V30 22 1 22 23
M  V30 23 1 23 24
M  V30 24 1 6 25
M  V30 25 2 25 26
M  V30 26 1 26 3
M  V30 27 1 17 12
M  V30 28 1 24 19
M  V30 29 1 20 15
M  V30 30 1 1 27
M  V30 31 1 1 28
M  V30 32 1 1 29
M  V30 33 1 4 30
M  V30 34 1 5 31
M  V30 35 1 8 32
M  V30 36 1 8 33
M  V30 37 1 11 34
M  V30 38 1 13 35
M  V30 39 1 14 36
M  V30 40 1 17 37
M  V30 41 1 21 38
M  V30 42 1 21 39
M  V30 43 1 22 40
M  V30 44 1 22 41
M  V30 45 1 24 42
M  V30 46 1 24 43
M  V30 47 1 25 44
M  V30 48 1 26 45
M  V30 END BOND
M  V30 END CTAB
M  END
>  <Dataset>  (867) 
ChEMBL_Kinases

>  <Ligand_Instance>  (867) 
nan

>  <PDB_ID>  (867) 
nan

>  <Standardized_SMILES>  (867) 
COc1ccc(OCC(=O)Nc2ccc3c(c2)nc2n3CCSC2)cc1

>  <Name>  (867) 
nan

>  <Pocket>  (867) 
nan

>  <ATP_Site>  (867) 
nan

>  <Peripheral>  (867) 
nan

>  <Num_H_Atoms_ProtBoundConf>  (867) 
nan

>  <Num_Resolved_Atoms>  (867) 
nan

>  <Num_Not_Resolved_Atoms>  (867) 
nan

$$$$
CHEMBL1408995
     RDKit          3D

  0  0  0  0  0  0  0  0  0  0999 V3000
M  V30 BEGIN CTAB
M  V30 COUNTS 40 43 0 0 0
M  V30 BEGIN ATOM
M  V30 1 C 1.376463 -6.493960 0.763948 0
M  V30 2 C 2.077508 -5.186360 0.834081 0
M  V30 3 C 3.035276 -4.896794 1.918344 0
M  V30 4 S 3.596149 -3.172516 1.522356 0
M  V30 5 C 2.614256 -2.996851 0.097314 0
M  V30 6 C 2.625331 -1.762012 -0.705109 0
M  V30 7 N 1.608680 -0.833455 -0.207593 0
M  V30 8 C 1.489218 0.419511 -0.873284 0
M  V30 9 N 2.269613 0.735096 -1.905511 0
M  V30 10 C 2.207777 1.899176 -2.575749 0
M  V30 11 N 1.303281 2.844166 -2.208471 0
M  V30 12 C 0.481185 2.605608 -1.180560 0
M  V30 13 C -0.439750 3.571530 -0.809644 0
M  V30 14 C -1.293600 3.340681 0.246420 0
M  V30 15 C -1.198148 2.129865 0.910355 0
M  V30 16 C -2.114512 1.913689 2.023026 0
M  V30 17 C -1.752398 1.134350 3.102441 0
M  V30 18 C -2.599433 0.902431 4.186794 0
M  V30 19 C -3.847658 1.489557 4.153076 0
M  V30 20 N -4.227119 2.255258 3.111536 0
M  V30 21 C -3.387019 2.471910 2.059626 0
M  V30 22 C -0.270031 1.188208 0.516445 0
M  V30 23 C 0.580033 1.398219 -0.522445 0
M  V30 24 C 1.944701 -4.146068 -0.032766 0
M  V30 25 H 1.106452 -6.667995 -0.317556 0
M  V30 26 H 2.068367 -7.315230 1.036977 0
M  V30 27 H 0.445360 -6.477968 1.337109 0
M  V30 28 H 3.224147 -5.751325 2.736790 0
M  V30 29 H 3.642836 -1.325545 -0.663109 0
M  V30 30 H 2.406100 -2.058676 -1.753613 0
M  V30 31 H 1.037346 -1.148134 0.601545 0
M  V30 32 H 2.893199 2.061779 -3.409593 0
M  V30 33 H -0.509417 4.531163 -1.342260 0
M  V30 34 H -2.019453 4.070324 0.558859 0
M  V30 35 H -0.754408 0.702209 3.063564 0
M  V30 36 H -2.220099 0.275351 4.984581 0
M  V30 37 H -4.481034 1.290998 5.008258 0
M  V30 38 H -3.727819 3.095596 1.237235 0
M  V30 39 H -0.260417 0.284261 1.077886 0
M  V30 40 H 1.272514 -4.226491 -0.875477 0
M  V30 END ATOM
M  V30 BEGIN BOND
M  V30 1 1 1 2
M  V30 2 2 2 3
M  V30 3 1 3 4
M  V30 4 1 4 5
M  V30 5 1 5 6
M  V30 6 1 6 7
M  V30 7 1 7 8
M  V30 8 2 8 9
M  V30 9 1 9 10
M  V30 10 2 10 11
M  V30 11 1 11 12
M  V30 12 2 12 13
M  V30 13 1 13 14
M  V30 14 2 14 15
M  V30 15 1 15 16
M  V30 16 2 16 17
M  V30 17 1 17 18
M  V30 18 2 18 19
M  V30 19 1 19 20
M  V30 20 2 20 21
M  V30 21 1 15 22
M  V30 22 2 22 23
M  V30 23 2 5 24
M  V30 24 1 24 2
M  V30 25 1 23 8
M  V30 26 1 23 12
M  V30 27 1 21 16
M  V30 28 1 1 25
M  V30 29 1 1 26
M  V30 30 1 1 27
M  V30 31 1 3 28
M  V30 32 1 6 29
M  V30 33 1 6 30
M  V30 34 1 7 31
M  V30 35 1 10 32
M  V30 36 1 13 33
M  V30 37 1 14 34
M  V30 38 1 17 35
M  V30 39 1 18 36
M  V30 40 1 19 37
M  V30 41 1 21 38
M  V30 42 1 22 39
M  V30 43 1 24 40
M  V30 END BOND
M  V30 END CTAB
M  END
>  <Dataset>  (868) 
ChEMBL_Kinases

>  <Ligand_Instance>  (868) 
nan

>  <PDB_ID>  (868) 
nan

>  <Standardized_SMILES>  (868) 
Cc1csc(CNc2ncnc3ccc(-c4cccnc4)cc23)c1

>  <Name>  (868) 
nan

>  <Pocket>  (868) 
nan

>  <ATP_Site>  (868) 
nan

>  <Peripheral>  (868) 
nan

>  <Num_H_Atoms_ProtBoundConf>  (868) 
nan

>  <Num_Resolved_Atoms>  (868) 
nan

>  <Num_Not_Resolved_Atoms>  (868) 
nan

$$$$
CHEMBL1409185
     RDKit          3D

  0  0  0  0  0  0  0  0  0  0999 V3000
M  V30 BEGIN CTAB
M  V30 COUNTS 33 35 0 0 0
M  V30 BEGIN ATOM
M  V30 1 C -1.694706 -0.300162 3.105842 0
M  V30 2 C -1.448244 -1.784403 3.223336 0
M  V30 3 S -2.263375 -2.645885 1.875052 0
M  V30 4 C -1.500799 -2.204290 0.322787 0
M  V30 5 N -0.474200 -1.337002 0.351380 0
M  V30 6 C 0.141890 -0.965442 -0.796368 0
M  V30 7 C -0.333619 -1.517869 -1.988034 0
M  V30 8 C 0.486895 -0.953263 -2.970983 0
M  V30 9 N 1.353744 -0.143730 -2.346045 0
M  V30 10 N 1.169411 -0.131467 -1.037831 0
M  V30 11 C 1.848033 0.572931 -0.004429 0
M  V30 12 C 2.986245 0.256469 0.706118 0
M  V30 13 C 3.449425 1.120342 1.672896 0
M  V30 14 C 2.821869 2.314726 1.977461 0
M  V30 15 C 1.673321 2.632185 1.259370 0
M  V30 16 C 1.186179 1.773572 0.276812 0
M  V30 17 C -1.390393 -2.411371 -2.024085 0
M  V30 18 O -1.790939 -2.889155 -3.126861 0
M  V30 19 N -1.943199 -2.724211 -0.834944 0
M  V30 20 N -3.017640 -3.626109 -0.824582 0
M  V30 21 H -0.934223 0.224307 3.724610 0
M  V30 22 H -2.712345 -0.050288 3.484021 0
M  V30 23 H -1.604829 0.001656 2.057526 0
M  V30 24 H -1.824230 -2.163644 4.208871 0
M  V30 25 H -0.348061 -1.953511 3.203870 0
M  V30 26 H 0.405051 -1.155894 -4.015567 0
M  V30 27 H 3.398910 -0.681944 0.401563 0
M  V30 28 H 4.346824 0.794813 2.181032 0
M  V30 29 H 3.229307 2.949339 2.742444 0
M  V30 30 H 1.215389 3.570318 1.526997 0
M  V30 31 H 0.292840 2.153703 -0.190012 0
M  V30 32 H -2.943983 -4.586270 -0.438453 0
M  V30 33 H -3.839570 -3.120522 -1.268683 0
M  V30 END ATOM
M  V30 BEGIN BOND
M  V30 1 1 1 2
M  V30 2 1 2 3
M  V30 3 1 3 4
M  V30 4 2 4 5
M  V30 5 1 5 6
M  V30 6 2 6 7
M  V30 7 1 7 8
M  V30 8 2 8 9
M  V30 9 1 9 10
M  V30 10 1 10 11
M  V30 11 2 11 12
M  V30 12 1 12 13
M  V30 13 2 13 14
M  V30 14 1 14 15
M  V30 15 2 15 16
M  V30 16 1 7 17
M  V30 17 2 17 18
M  V30 18 1 17 19
M  V30 19 1 19 20
M  V30 20 1 19 4
M  V30 21 1 10 6
M  V30 22 1 16 11
M  V30 23 1 1 21
M  V30 24 1 1 22
M  V30 25 1 1 23
M  V30 26 1 2 24
M  V30 27 1 2 25
M  V30 28 1 8 26
M  V30 29 1 12 27
M  V30 30 1 13 28
M  V30 31 1 14 29
M  V30 32 1 15 30
M  V30 33 1 16 31
M  V30 34 1 20 32
M  V30 35 1 20 33
M  V30 END BOND
M  V30 END CTAB
M  END
>  <Dataset>  (869) 
ChEMBL_Kinases

>  <Ligand_Instance>  (869) 
nan

>  <PDB_ID>  (869) 
nan

>  <Standardized_SMILES>  (869) 
CCSc1nc2c(cnn2-c2ccccc2)c(=O)n1N

>  <Name>  (869) 
nan

>  <Pocket>  (869) 
nan

>  <ATP_Site>  (869) 
nan

>  <Peripheral>  (869) 
nan

>  <Num_H_Atoms_ProtBoundConf>  (869) 
nan

>  <Num_Resolved_Atoms>  (869) 
nan

>  <Num_Not_Resolved_Atoms>  (869) 
nan

$$$$
CHEMBL1409307
     RDKit          3D

  0  0  0  0  0  0  0  0  0  0999 V3000
M  V30 BEGIN CTAB
M  V30 COUNTS 31 33 0 0 0
M  V30 BEGIN ATOM
M  V30 1 O -0.553101 -3.549058 2.976065 0
M  V30 2 S -0.132028 -3.190992 1.558395 0
M  V30 3 O -0.163947 -4.452583 0.763979 0
M  V30 4 C 1.477803 -2.565290 1.582935 0
M  V30 5 C 2.655662 -2.924234 1.058728 0
M  V30 6 C 3.780300 -2.187426 1.274823 0
M  V30 7 C 3.641823 -1.056749 2.059001 0
M  V30 8 S 1.836921 -1.053650 2.499206 0
M  V30 9 N -1.251676 -2.059346 0.874729 0
M  V30 10 C -0.838145 -1.819587 -0.490520 0
M  V30 11 C -1.638408 -0.715513 -1.154541 0
M  V30 12 C -1.172652 0.538067 -0.499519 0
M  V30 13 C -0.871262 1.740985 -1.105032 0
M  V30 14 C -0.448907 2.808648 -0.331182 0
M  V30 15 C -0.332047 2.660885 1.046231 0
M  V30 16 C -0.632254 1.464309 1.645103 0
M  V30 17 C -1.059331 0.382743 0.867810 0
M  V30 18 C -1.349528 -0.849658 1.647945 0
M  V30 19 H 2.608949 -3.829618 0.469063 0
M  V30 20 H 4.748325 -2.461736 0.857724 0
M  V30 21 H 4.476349 -0.360590 2.318538 0
M  V30 22 H 0.217040 -1.420260 -0.425771 0
M  V30 23 H -0.774888 -2.722833 -1.090379 0
M  V30 24 H -2.731000 -0.891180 -0.944283 0
M  V30 25 H -1.461558 -0.750183 -2.236322 0
M  V30 26 H -1.005820 1.709915 -2.162874 0
M  V30 27 H -0.235278 3.709538 -0.886987 0
M  V30 28 H 0.006716 3.579144 1.504425 0
M  V30 29 H -0.507632 1.456275 2.721400 0
M  V30 30 H -0.706535 -0.921513 2.541837 0
M  V30 31 H -2.429251 -0.792823 1.974938 0
M  V30 END ATOM
M  V30 BEGIN BOND
M  V30 1 2 1 2
M  V30 2 2 2 3
M  V30 3 1 2 4
M  V30 4 2 4 5
M  V30 5 1 5 6
M  V30 6 2 6 7
M  V30 7 1 7 8
M  V30 8 1 2 9
M  V30 9 1 9 10
M  V30 10 1 10 11
M  V30 11 1 11 12
M  V30 12 2 12 13
M  V30 13 1 13 14
M  V30 14 2 14 15
M  V30 15 1 15 16
M  V30 16 2 16 17
M  V30 17 1 17 18
M  V30 18 1 8 4
M  V30 19 1 18 9
M  V30 20 1 17 12
M  V30 21 1 5 19
M  V30 22 1 6 20
M  V30 23 1 7 21
M  V30 24 1 10 22
M  V30 25 1 10 23
M  V30 26 1 11 24
M  V30 27 1 11 25
M  V30 28 1 13 26
M  V30 29 1 14 27
M  V30 30 1 15 28
M  V30 31 1 16 29
M  V30 32 1 18 30
M  V30 33 1 18 31
M  V30 END BOND
M  V30 END CTAB
M  END
>  <Dataset>  (870) 
ChEMBL_Kinases

>  <Ligand_Instance>  (870) 
nan

>  <PDB_ID>  (870) 
nan

>  <Standardized_SMILES>  (870) 
O=S(=O)(c1cccs1)N1CCc2ccccc2C1

>  <Name>  (870) 
nan

>  <Pocket>  (870) 
nan

>  <ATP_Site>  (870) 
nan

>  <Peripheral>  (870) 
nan

>  <Num_H_Atoms_ProtBoundConf>  (870) 
nan

>  <Num_Resolved_Atoms>  (870) 
nan

>  <Num_Not_Resolved_Atoms>  (870) 
nan

$$$$
CHEMBL1409421
     RDKit          3D

  0  0  0  0  0  0  0  0  0  0999 V3000
M  V30 BEGIN CTAB
M  V30 COUNTS 43 46 0 0 0
M  V30 BEGIN ATOM
M  V30 1 C -1.170247 -3.472895 -1.415315 0
M  V30 2 C 0.138182 -3.843756 -0.864817 0
M  V30 3 C 1.308096 -3.122726 -0.612723 0
M  V30 4 C 1.437936 -1.699601 -0.882856 0
M  V30 5 O 2.570065 -1.213609 -0.595110 0
M  V30 6 O 0.498855 -0.867942 -1.394517 0
M  V30 7 C 0.606187 0.509006 -1.657274 0
M  V30 8 C 0.901103 1.269310 -0.388267 0
M  V30 9 O 1.985959 1.114971 0.425875 0
M  V30 10 C 0.047516 2.214674 0.046315 0
M  V30 11 C -1.132467 2.428513 -0.782035 0
M  V30 12 N -2.068067 2.610979 -1.455083 0
M  V30 13 C 0.276829 2.982808 1.265023 0
M  V30 14 N 1.301236 3.598751 1.870146 0
M  V30 15 C 0.890595 4.133264 3.047788 0
M  V30 16 C 1.523039 4.845383 4.034579 0
M  V30 17 C 0.786482 5.248975 5.148753 0
M  V30 18 C -0.552103 4.963580 5.304168 0
M  V30 19 C -1.186464 4.238104 4.292797 0
M  V30 20 C -0.461738 3.831539 3.177351 0
M  V30 21 N -0.820752 3.126461 2.074231 0
M  V30 22 O 2.199096 -3.953697 -0.113002 0
M  V30 23 C 1.686463 -5.160359 -0.025321 0
M  V30 24 C 2.246274 -6.337719 0.434661 0
M  V30 25 C 1.519886 -7.504842 0.438416 0
M  V30 26 C 0.202801 -7.499326 -0.028381 0
M  V30 27 C -0.374075 -6.327476 -0.493195 0
M  V30 28 C 0.389325 -5.157910 -0.483257 0
M  V30 29 H -2.008534 -3.523863 -0.667541 0
M  V30 30 H -1.474764 -4.193813 -2.223444 0
M  V30 31 H -1.137536 -2.458094 -1.856978 0
M  V30 32 H -0.380168 0.833087 -2.045475 0
M  V30 33 H 1.392153 0.671092 -2.426641 0
M  V30 34 H 2.682990 1.811102 0.628080 0
M  V30 35 H 2.575756 5.067210 3.907316 0
M  V30 36 H 1.318124 5.815977 5.920496 0
M  V30 37 H -1.104895 5.295370 6.197997 0
M  V30 38 H -2.234605 4.015860 4.418153 0
M  V30 39 H -1.827611 2.790861 1.970911 0
M  V30 40 H 3.270179 -6.302257 0.788572 0
M  V30 41 H 1.953026 -8.425731 0.799792 0
M  V30 42 H -0.407529 -8.416718 -0.036794 0
M  V30 43 H -1.391632 -6.313920 -0.854603 0
M  V30 END ATOM
M  V30 BEGIN BOND
M  V30 1 1 1 2
M  V30 2 2 2 3
M  V30 3 1 3 4
M  V30 4 2 4 5
M  V30 5 1 4 6
M  V30 6 1 6 7
M  V30 7 1 7 8
M  V30 8 1 8 9
M  V30 9 2 8 10
M  V30 10 1 10 11
M  V30 11 3 11 12
M  V30 12 1 10 13
M  V30 13 2 13 14
M  V30 14 1 14 15
M  V30 15 2 15 16
M  V30 16 1 16 17
M  V30 17 2 17 18
M  V30 18 1 18 19
M  V30 19 2 19 20
M  V30 20 1 20 21
M  V30 21 1 3 22
M  V30 22 1 22 23
M  V30 23 2 23 24
M  V30 24 1 24 25
M  V30 25 2 25 26
M  V30 26 1 26 27
M  V30 27 2 27 28
M  V30 28 1 28 2
M  V30 29 1 21 13
M  V30 30 1 28 23
M  V30 31 1 20 15
M  V30 32 1 1 29
M  V30 33 1 1 30
M  V30 34 1 1 31
M  V30 35 1 7 32
M  V30 36 1 7 33
M  V30 37 1 9 34
M  V30 38 1 16 35
M  V30 39 1 17 36
M  V30 40 1 18 37
M  V30 41 1 19 38
M  V30 42 1 21 39
M  V30 43 1 24 40
M  V30 44 1 25 41
M  V30 45 1 26 42
M  V30 46 1 27 43
M  V30 END BOND
M  V30 END CTAB
M  END
>  <Dataset>  (871) 
ChEMBL_Kinases

>  <Ligand_Instance>  (871) 
nan

>  <PDB_ID>  (871) 
nan

>  <Standardized_SMILES>  (871) 
Cc1c(C(=O)OC/C(O)=C(\C#N)c2nc3ccccc3[nH]2)oc2ccccc12

>  <Name>  (871) 
nan

>  <Pocket>  (871) 
nan

>  <ATP_Site>  (871) 
nan

>  <Peripheral>  (871) 
nan

>  <Num_H_Atoms_ProtBoundConf>  (871) 
nan

>  <Num_Resolved_Atoms>  (871) 
nan

>  <Num_Not_Resolved_Atoms>  (871) 
nan

$$$$
CHEMBL1410566
     RDKit          3D

  0  0  0  0  0  0  0  0  0  0999 V3000
M  V30 BEGIN CTAB
M  V30 COUNTS 34 36 0 0 0
M  V30 BEGIN ATOM
M  V30 1 C -0.009374 -3.090353 3.071266 0
M  V30 2 N 1.064672 -3.374991 2.153269 0
M  V30 3 C 2.301343 -3.877119 2.440797 0
M  V30 4 C 2.994594 -3.985802 1.232210 0
M  V30 5 N 2.156294 -3.549195 0.275195 0
M  V30 6 C 0.979684 -3.174558 0.818982 0
M  V30 7 C -0.105968 -2.652716 -0.035721 0
M  V30 8 O -1.365912 -2.902110 0.539299 0
M  V30 9 C -0.032668 -1.178399 -0.185593 0
M  V30 10 N 1.026546 -0.690633 -0.856920 0
M  V30 11 N 0.909679 0.627069 -0.881450 0
M  V30 12 C -0.227701 0.962185 -0.222411 0
M  V30 13 C -0.612403 2.361507 -0.092741 0
M  V30 14 C 0.120527 3.439406 -0.608994 0
M  V30 15 C -0.358741 4.718196 -0.415186 0
M  V30 16 C -1.528947 4.988992 0.264615 0
M  V30 17 C -2.254252 3.926941 0.774956 0
M  V30 18 C -1.788813 2.640056 0.590179 0
M  V30 19 O -0.801488 -0.162173 0.203336 0
M  V30 20 C -0.099362 -3.271130 -1.414333 0
M  V30 21 F -1.167998 -2.694420 -2.112241 0
M  V30 22 F -0.215576 -4.626123 -1.422544 0
M  V30 23 F 1.085024 -2.930811 -2.075322 0
M  V30 24 H 0.218271 -3.523027 4.090315 0
M  V30 25 H -0.226494 -2.039098 3.239129 0
M  V30 26 H -0.965501 -3.601010 2.751970 0
M  V30 27 H 2.664270 -4.139887 3.437080 0
M  V30 28 H 4.015321 -4.366781 1.208121 0
M  V30 29 H -1.730729 -2.125928 1.020883 0
M  V30 30 H 1.019403 3.153932 -1.126145 0
M  V30 31 H 0.324285 5.435753 -0.875997 0
M  V30 32 H -1.775355 6.058946 0.334250 0
M  V30 33 H -3.162729 4.190084 1.298899 0
M  V30 34 H -2.451503 1.909715 1.039090 0
M  V30 END ATOM
M  V30 BEGIN BOND
M  V30 1 1 1 2
M  V30 2 1 2 3
M  V30 3 2 3 4
M  V30 4 1 4 5
M  V30 5 2 5 6
M  V30 6 1 6 7
M  V30 7 1 7 8
M  V30 8 1 7 9
M  V30 9 2 9 10
M  V30 10 1 10 11
M  V30 11 2 11 12
M  V30 12 1 12 13
M  V30 13 2 13 14
M  V30 14 1 14 15
M  V30 15 2 15 16
M  V30 16 1 16 17
M  V30 17 2 17 18
M  V30 18 1 12 19
M  V30 19 1 7 20
M  V30 20 1 20 21
M  V30 21 1 20 22
M  V30 22 1 20 23
M  V30 23 1 6 2
M  V30 24 1 19 9
M  V30 25 1 18 13
M  V30 26 1 1 24
M  V30 27 1 1 25
M  V30 28 1 1 26
M  V30 29 1 3 27
M  V30 30 1 4 28
M  V30 31 1 8 29
M  V30 32 1 14 30
M  V30 33 1 15 31
M  V30 34 1 16 32
M  V30 35 1 17 33
M  V30 36 1 18 34
M  V30 END BOND
M  V30 END CTAB
M  END
>  <Dataset>  (872) 
ChEMBL_Kinases

>  <Ligand_Instance>  (872) 
nan

>  <PDB_ID>  (872) 
nan

>  <Standardized_SMILES>  (872) 
Cn1ccnc1C(O)(c1nnc(-c2ccccc2)o1)C(F)(F)F

>  <Name>  (872) 
nan

>  <Pocket>  (872) 
nan

>  <ATP_Site>  (872) 
nan

>  <Peripheral>  (872) 
nan

>  <Num_H_Atoms_ProtBoundConf>  (872) 
nan

>  <Num_Resolved_Atoms>  (872) 
nan

>  <Num_Not_Resolved_Atoms>  (872) 
nan

$$$$
CHEMBL1409689
     RDKit          3D

  0  0  0  0  0  0  0  0  0  0999 V3000
M  V30 BEGIN CTAB
M  V30 COUNTS 33 36 0 0 0
M  V30 BEGIN ATOM
M  V30 1 Cl 1.782813 -1.180734 2.909722 0
M  V30 2 C 0.799580 -2.643606 2.779512 0
M  V30 3 C 1.070711 -3.648782 3.688274 0
M  V30 4 C 0.292650 -4.787384 3.573482 0
M  V30 5 C -0.678753 -4.860213 2.594392 0
M  V30 6 C -0.938686 -3.848648 1.693476 0
M  V30 7 C -0.170062 -2.708716 1.797497 0
M  V30 8 C -0.345728 -1.566723 0.904609 0
M  V30 9 N 0.412462 -0.466298 1.022129 0
M  V30 10 C 0.311638 0.622411 0.241177 0
M  V30 11 N 1.159169 1.748563 0.436964 0
M  V30 12 C 2.465775 1.497842 0.127355 0
M  V30 13 C 3.186430 2.662155 0.357457 0
M  V30 14 N 2.308498 3.584826 0.797591 0
M  V30 15 C 1.089992 3.010577 0.837647 0
M  V30 16 C -0.659504 0.546442 -0.735705 0
M  V30 17 C -0.814662 1.648548 -1.582255 0
M  V30 18 C -1.789954 1.603851 -2.582899 0
M  V30 19 C -2.587514 0.482751 -2.729120 0
M  V30 20 C -2.438737 -0.618757 -1.889669 0
M  V30 21 C -1.470650 -0.555475 -0.908139 0
M  V30 22 N -1.278404 -1.595511 -0.060953 0
M  V30 23 H 1.838929 -3.532758 4.426350 0
M  V30 24 H 0.487003 -5.592233 4.277162 0
M  V30 25 H -1.258900 -5.782041 2.553938 0
M  V30 26 H -1.690326 -3.900454 0.933070 0
M  V30 27 H 3.087565 0.669553 -0.238165 0
M  V30 28 H 4.204925 3.025933 0.288216 0
M  V30 29 H 0.102294 3.350517 1.117978 0
M  V30 30 H -0.177313 2.505595 -1.441325 0
M  V30 31 H -1.929328 2.444801 -3.250974 0
M  V30 32 H -3.367794 0.400024 -3.500585 0
M  V30 33 H -3.063140 -1.498127 -2.003101 0
M  V30 END ATOM
M  V30 BEGIN BOND
M  V30 1 1 1 2
M  V30 2 2 2 3
M  V30 3 1 3 4
M  V30 4 2 4 5
M  V30 5 1 5 6
M  V30 6 2 6 7
M  V30 7 1 7 8
M  V30 8 2 8 9
M  V30 9 1 9 10
M  V30 10 1 10 11
M  V30 11 1 11 12
M  V30 12 2 12 13
M  V30 13 1 13 14
M  V30 14 2 14 15
M  V30 15 2 10 16
M  V30 16 1 16 17
M  V30 17 2 17 18
M  V30 18 1 18 19
M  V30 19 2 19 20
M  V30 20 1 20 21
M  V30 21 2 21 22
M  V30 22 1 7 2
M  V30 23 1 22 8
M  V30 24 1 15 11
M  V30 25 1 21 16
M  V30 26 1 3 23
M  V30 27 1 4 24
M  V30 28 1 5 25
M  V30 29 1 6 26
M  V30 30 1 12 27
M  V30 31 1 13 28
M  V30 32 1 15 29
M  V30 33 1 17 30
M  V30 34 1 18 31
M  V30 35 1 19 32
M  V30 36 1 20 33
M  V30 END BOND
M  V30 END CTAB
M  END
>  <Dataset>  (873) 
ChEMBL_Kinases

>  <Ligand_Instance>  (873) 
nan

>  <PDB_ID>  (873) 
nan

>  <Standardized_SMILES>  (873) 
Clc1ccccc1-c1nc(-n2ccnc2)c2ccccc2n1

>  <Name>  (873) 
nan

>  <Pocket>  (873) 
nan

>  <ATP_Site>  (873) 
nan

>  <Peripheral>  (873) 
nan

>  <Num_H_Atoms_ProtBoundConf>  (873) 
nan

>  <Num_Resolved_Atoms>  (873) 
nan

>  <Num_Not_Resolved_Atoms>  (873) 
nan

$$$$
CHEMBL1409852
     RDKit          3D

  0  0  0  0  0  0  0  0  0  0999 V3000
M  V30 BEGIN CTAB
M  V30 COUNTS 34 36 0 0 0
M  V30 BEGIN ATOM
M  V30 1 C 2.314591 -3.944262 4.745145 0
M  V30 2 O 1.098291 -4.242792 4.126346 0
M  V30 3 C 0.544636 -3.442754 3.138373 0
M  V30 4 C -0.654742 -3.820637 2.591084 0
M  V30 5 C -1.227756 -3.044731 1.607919 0
M  V30 6 C -0.543387 -1.911769 1.227991 0
M  V30 7 C 0.658329 -1.482531 1.738158 0
M  V30 8 N 1.365808 -0.319544 1.351796 0
M  V30 9 C 1.008554 0.643294 0.375725 0
M  V30 10 N 1.806552 1.698804 0.136218 0
M  V30 11 C 1.543761 2.653052 -0.767503 0
M  V30 12 C 0.393027 2.586028 -1.520342 0
M  V30 13 N 0.051600 3.494727 -2.444649 0
M  V30 14 C -1.086504 3.401464 -3.168973 0
M  V30 15 C -1.919770 2.314813 -2.930614 0
M  V30 16 O -3.002662 2.176044 -3.582029 0
M  V30 17 N -1.589817 1.380042 -1.994635 0
M  V30 18 C -2.433374 0.231332 -1.716675 0
M  V30 19 C -0.446418 1.517370 -1.299863 0
M  V30 20 N -0.095778 0.624646 -0.381228 0
M  V30 21 C 1.160758 -2.308641 2.710217 0
M  V30 22 H 3.196620 -4.107527 4.093904 0
M  V30 23 H 2.318639 -2.882857 5.057227 0
M  V30 24 H 2.418575 -4.598390 5.643160 0
M  V30 25 H -1.161530 -4.717129 2.915817 0
M  V30 26 H -2.166120 -3.321780 1.165750 0
M  V30 27 H -1.025668 -1.332287 0.456115 0
M  V30 28 H 2.277986 -0.144885 1.854591 0
M  V30 29 H 2.226603 3.474877 -0.911032 0
M  V30 30 H -1.339592 4.160944 -3.918929 0
M  V30 31 H -3.316937 0.236880 -2.368264 0
M  V30 32 H -1.843271 -0.669494 -2.027859 0
M  V30 33 H -2.644289 0.230549 -0.639537 0
M  V30 34 H 2.111679 -2.076341 3.194839 0
M  V30 END ATOM
M  V30 BEGIN BOND
M  V30 1 1 1 2
M  V30 2 1 2 3
M  V30 3 2 3 4
M  V30 4 1 4 5
M  V30 5 2 5 6
M  V30 6 1 6 7
M  V30 7 1 7 8
M  V30 8 1 8 9
M  V30 9 2 9 10
M  V30 10 1 10 11
M  V30 11 2 11 12
M  V30 12 1 12 13
M  V30 13 2 13 14
M  V30 14 1 14 15
M  V30 15 2 15 16
M  V30 16 1 15 17
M  V30 17 1 17 18
M  V30 18 1 17 19
M  V30 19 2 19 20
M  V30 20 2 7 21
M  V30 21 1 21 3
M  V30 22 1 20 9
M  V30 23 1 19 12
M  V30 24 1 1 22
M  V30 25 1 1 23
M  V30 26 1 1 24
M  V30 27 1 4 25
M  V30 28 1 5 26
M  V30 29 1 6 27
M  V30 30 1 8 28
M  V30 31 1 11 29
M  V30 32 1 14 30
M  V30 33 1 18 31
M  V30 34 1 18 32
M  V30 35 1 18 33
M  V30 36 1 21 34
M  V30 END BOND
M  V30 END CTAB
M  END
>  <Dataset>  (874) 
ChEMBL_Kinases

>  <Ligand_Instance>  (874) 
nan

>  <PDB_ID>  (874) 
nan

>  <Standardized_SMILES>  (874) 
COc1cccc(Nc2ncc3ncc(=O)n(C)c3n2)c1

>  <Name>  (874) 
nan

>  <Pocket>  (874) 
nan

>  <ATP_Site>  (874) 
nan

>  <Peripheral>  (874) 
nan

>  <Num_H_Atoms_ProtBoundConf>  (874) 
nan

>  <Num_Resolved_Atoms>  (874) 
nan

>  <Num_Not_Resolved_Atoms>  (874) 
nan

$$$$
CHEMBL1409889
     RDKit          3D

  0  0  0  0  0  0  0  0  0  0999 V3000
M  V30 BEGIN CTAB
M  V30 COUNTS 47 48 0 0 0
M  V30 BEGIN ATOM
M  V30 1 C -1.424806 -5.069647 0.735908 0
M  V30 2 C 0.046976 -4.730480 0.869749 0
M  V30 3 O 0.228283 -3.521919 0.133371 0
M  V30 4 C 1.421183 -2.865557 -0.007140 0
M  V30 5 O 2.400439 -3.402783 0.570808 0
M  V30 6 C 1.242291 -1.646942 -0.834853 0
M  V30 7 C 0.722700 -2.039261 -2.203858 0
M  V30 8 C -0.527105 -1.281098 -2.592570 0
M  V30 9 C -0.206470 0.203185 -2.406093 0
M  V30 10 N 0.064990 0.403193 -1.039801 0
M  V30 11 C 0.105792 1.703950 -0.517149 0
M  V30 12 C 0.396173 1.765139 0.946726 0
M  V30 13 C 1.622432 2.124457 1.469636 0
M  V30 14 C 1.829880 2.161004 2.842501 0
M  V30 15 C 0.793511 1.832793 3.701999 0
M  V30 16 O 0.934727 1.849204 5.084225 0
M  V30 17 C 2.150032 2.202666 5.691040 0
M  V30 18 C -0.423291 1.476873 3.145645 0
M  V30 19 C -0.678532 1.425876 1.776504 0
M  V30 20 O -1.904202 1.066788 1.259812 0
M  V30 21 C -3.040980 0.711157 1.978681 0
M  V30 22 C 0.215815 -0.705803 -0.189586 0
M  V30 23 H -1.732134 -4.793667 -0.292609 0
M  V30 24 H -1.969912 -4.377189 1.432324 0
M  V30 25 H -1.651538 -6.104579 1.000471 0
M  V30 26 H 0.324057 -4.581714 1.929414 0
M  V30 27 H 0.671081 -5.549843 0.467420 0
M  V30 28 H 2.210232 -1.122232 -0.919294 0
M  V30 29 H 1.491691 -1.849273 -2.965548 0
M  V30 30 H 0.519971 -3.139306 -2.250200 0
M  V30 31 H -1.393056 -1.590911 -2.003837 0
M  V30 32 H -0.688848 -1.440201 -3.665573 0
M  V30 33 H 0.716215 0.393155 -3.000104 0
M  V30 34 H -1.032978 0.809826 -2.824773 0
M  V30 35 H 0.919840 2.253634 -1.055709 0
M  V30 36 H -0.822777 2.256934 -0.705501 0
M  V30 37 H 2.404217 2.373809 0.761281 0
M  V30 38 H 2.795767 2.445107 3.239849 0
M  V30 39 H 3.044870 1.770893 5.210286 0
M  V30 40 H 2.103199 1.891627 6.752639 0
M  V30 41 H 2.231635 3.327002 5.629994 0
M  V30 42 H -1.217797 1.223844 3.836736 0
M  V30 43 H -3.071958 1.070245 3.006458 0
M  V30 44 H -3.257191 -0.390331 1.886524 0
M  V30 45 H -3.913087 1.196845 1.451149 0
M  V30 46 H -0.699284 -1.285176 0.016306 0
M  V30 47 H 0.638036 -0.395567 0.768337 0
M  V30 END ATOM
M  V30 BEGIN BOND
M  V30 1 1 1 2
M  V30 2 1 2 3
M  V30 3 1 3 4
M  V30 4 2 4 5
M  V30 5 1 4 6
M  V30 6 1 6 7
M  V30 7 1 7 8
M  V30 8 1 8 9
M  V30 9 1 9 10
M  V30 10 1 10 11
M  V30 11 1 11 12
M  V30 12 2 12 13
M  V30 13 1 13 14
M  V30 14 2 14 15
M  V30 15 1 15 16
M  V30 16 1 16 17
M  V30 17 1 15 18
M  V30 18 2 18 19
M  V30 19 1 19 20
M  V30 20 1 20 21
M  V30 21 1 10 22
M  V30 22 1 22 6
M  V30 23 1 19 12
M  V30 24 1 1 23
M  V30 25 1 1 24
M  V30 26 1 1 25
M  V30 27 1 2 26
M  V30 28 1 2 27
M  V30 29 1 6 28
M  V30 30 1 7 29
M  V30 31 1 7 30
M  V30 32 1 8 31
M  V30 33 1 8 32
M  V30 34 1 9 33
M  V30 35 1 9 34
M  V30 36 1 11 35
M  V30 37 1 11 36
M  V30 38 1 13 37
M  V30 39 1 14 38
M  V30 40 1 17 39
M  V30 41 1 17 40
M  V30 42 1 17 41
M  V30 43 1 18 42
M  V30 44 1 21 43
M  V30 45 1 21 44
M  V30 46 1 21 45
M  V30 47 1 22 46
M  V30 48 1 22 47
M  V30 END BOND
M  V30 END CTAB
M  END
>  <Dataset>  (875) 
ChEMBL_Kinases

>  <Ligand_Instance>  (875) 
nan

>  <PDB_ID>  (875) 
nan

>  <Standardized_SMILES>  (875) 
CCOC(=O)C1CCCN(Cc2ccc(OC)cc2OC)C1

>  <Name>  (875) 
nan

>  <Pocket>  (875) 
nan

>  <ATP_Site>  (875) 
nan

>  <Peripheral>  (875) 
nan

>  <Num_H_Atoms_ProtBoundConf>  (875) 
nan

>  <Num_Resolved_Atoms>  (875) 
nan

>  <Num_Not_Resolved_Atoms>  (875) 
nan

$$$$
CHEMBL1409935
     RDKit          3D

  0  0  0  0  0  0  0  0  0  0999 V3000
M  V30 BEGIN CTAB
M  V30 COUNTS 42 46 0 0 0
M  V30 BEGIN ATOM
M  V30 1 O -0.675864 -2.907007 -3.458573 0
M  V30 2 C -0.234936 -2.328618 -2.460316 0
M  V30 3 C -0.817141 -3.038420 -1.281278 0
M  V30 4 C -0.156915 -2.360706 -0.068307 0
M  V30 5 C -0.556294 -0.932224 -0.186708 0
M  V30 6 C -1.312515 -0.304458 0.777830 0
M  V30 7 C -1.606115 1.023936 0.528198 0
M  V30 8 C -1.189038 1.709802 -0.597631 0
M  V30 9 C -0.430662 1.051299 -1.548212 0
M  V30 10 C -0.133457 -0.251473 -1.319579 0
M  V30 11 C 0.674982 -1.173941 -2.202751 0
M  V30 12 C 1.832835 -1.559294 -1.305392 0
M  V30 13 C 2.189651 -0.423379 -0.388539 0
M  V30 14 O 2.293196 0.791581 -0.723352 0
M  V30 15 N 2.401194 -0.888109 0.927484 0
M  V30 16 C 2.783953 -0.209024 2.142769 0
M  V30 17 C 1.590274 0.273994 2.897175 0
M  V30 18 C 1.006658 -0.571291 3.845482 0
M  V30 19 C -0.100040 -0.279738 4.628637 0
M  V30 20 C -0.662648 0.964159 4.439667 0
M  V30 21 C -0.119072 1.849848 3.503698 0
M  V30 22 C 0.976347 1.515068 2.753278 0
M  V30 23 C 2.155072 -2.288542 0.885179 0
M  V30 24 O 2.550759 -3.175947 1.698353 0
M  V30 25 C 1.321978 -2.579874 -0.314193 0
M  V30 26 H -0.457534 -4.085441 -1.275229 0
M  V30 27 H -1.916372 -2.958368 -1.251812 0
M  V30 28 H -0.498361 -2.811478 0.876314 0
M  V30 29 H -1.647410 -0.825944 1.664976 0
M  V30 30 H -2.197595 1.594506 1.236813 0
M  V30 31 H -1.423005 2.747132 -0.784383 0
M  V30 32 H -0.044457 1.472558 -2.467681 0
M  V30 33 H 0.992482 -0.669973 -3.118146 0
M  V30 34 H 2.703425 -1.925244 -1.878745 0
M  V30 35 H 3.328286 -0.898548 2.827705 0
M  V30 36 H 3.435776 0.666645 1.943384 0
M  V30 37 H 1.461984 -1.545713 3.981113 0
M  V30 38 H -0.455629 -1.013784 5.323801 0
M  V30 39 H -1.526818 1.188446 5.053003 0
M  V30 40 H -0.584814 2.817506 3.380525 0
M  V30 41 H 1.421785 2.171748 2.023300 0
M  V30 42 H 1.490945 -3.624237 -0.676147 0
M  V30 END ATOM
M  V30 BEGIN BOND
M  V30 1 2 1 2
M  V30 2 1 2 3
M  V30 3 1 3 4
M  V30 4 1 4 5
M  V30 5 2 5 6
M  V30 6 1 6 7
M  V30 7 2 7 8
M  V30 8 1 8 9
M  V30 9 2 9 10
M  V30 10 1 10 11
M  V30 11 1 11 12
M  V30 12 1 12 13
M  V30 13 2 13 14
M  V30 14 1 13 15
M  V30 15 1 15 16
M  V30 16 1 16 17
M  V30 17 2 17 18
M  V30 18 1 18 19
M  V30 19 2 19 20
M  V30 20 1 20 21
M  V30 21 2 21 22
M  V30 22 1 15 23
M  V30 23 2 23 24
M  V30 24 1 23 25
M  V30 25 1 11 2
M  V30 26 1 25 12
M  V30 27 1 25 4
M  V30 28 1 10 5
M  V30 29 1 22 17
M  V30 30 1 3 26
M  V30 31 1 3 27
M  V30 32 1 4 28
M  V30 33 1 6 29
M  V30 34 1 7 30
M  V30 35 1 8 31
M  V30 36 1 9 32
M  V30 37 1 11 33
M  V30 38 1 12 34
M  V30 39 1 16 35
M  V30 40 1 16 36
M  V30 41 1 18 37
M  V30 42 1 19 38
M  V30 43 1 20 39
M  V30 44 1 21 40
M  V30 45 1 22 41
M  V30 46 1 25 42
M  V30 END BOND
M  V30 END CTAB
M  END
>  <Dataset>  (876) 
ChEMBL_Kinases

>  <Ligand_Instance>  (876) 
nan

>  <PDB_ID>  (876) 
nan

>  <Standardized_SMILES>  (876) 
O=C1CC2c3ccccc3C1C1C(=O)N(Cc3ccccc3)C(=O)C21

>  <Name>  (876) 
nan

>  <Pocket>  (876) 
nan

>  <ATP_Site>  (876) 
nan

>  <Peripheral>  (876) 
nan

>  <Num_H_Atoms_ProtBoundConf>  (876) 
nan

>  <Num_Resolved_Atoms>  (876) 
nan

>  <Num_Not_Resolved_Atoms>  (876) 
nan

$$$$
CHEMBL1410177
     RDKit          3D

  0  0  0  0  0  0  0  0  0  0999 V3000
M  V30 BEGIN CTAB
M  V30 COUNTS 42 45 0 0 0
M  V30 BEGIN ATOM
M  V30 1 O -0.278519 -2.506428 -1.876483 0
M  V30 2 C 0.788899 -2.501489 -1.242496 0
M  V30 3 C 1.505547 -3.204484 -0.188902 0
M  V30 4 C 2.634827 -3.986816 -0.238856 0
M  V30 5 C 3.079671 -4.518318 0.945366 0
M  V30 6 C 2.477038 -4.324903 2.176428 0
M  V30 7 C 1.329220 -3.529961 2.223128 0
M  V30 8 C 0.851834 -2.973425 1.028239 0
M  V30 9 N 1.522589 -1.408988 -1.771082 0
M  V30 10 C 0.855015 -0.624890 -2.837325 0
M  V30 11 C 0.686937 0.802935 -2.274357 0
M  V30 12 N 1.152252 0.800264 -0.895233 0
M  V30 13 C 0.359263 1.064917 0.276830 0
M  V30 14 N 0.382479 1.270766 1.420958 0
M  V30 15 C -0.606088 1.444524 2.267677 0
M  V30 16 C -0.492093 1.688584 3.639981 0
M  V30 17 C -1.641187 1.837862 4.369959 0
M  V30 18 C -2.915837 1.767864 3.862136 0
M  V30 19 N -4.129427 1.902135 4.586070 0 CHG=1 VAL=4
M  V30 20 O -3.945479 2.122940 5.811638 0
M  V30 21 O -5.310937 1.781602 3.901817 0 CHG=-1 VAL=1
M  V30 22 C -3.042870 1.532062 2.520895 0
M  V30 23 C -1.899921 1.370163 1.719683 0
M  V30 24 S -1.521250 1.048706 -0.025985 0
M  V30 25 C 2.524013 0.446378 -0.673390 0
M  V30 26 C 2.815644 -0.827923 -1.498634 0
M  V30 27 H 3.021198 -4.077074 -1.228412 0
M  V30 28 H 3.990988 -5.131371 0.841605 0
M  V30 29 H 2.929579 -4.796465 3.050116 0
M  V30 30 H 0.885090 -3.395254 3.182615 0
M  V30 31 H -0.040420 -2.382888 1.220039 0
M  V30 32 H 1.559290 -0.588956 -3.679718 0
M  V30 33 H -0.103060 -1.068539 -3.142509 0
M  V30 34 H -0.401636 0.983981 -2.249312 0
M  V30 35 H 1.183910 1.529243 -2.911395 0
M  V30 36 H 0.419828 1.773026 4.203492 0
M  V30 37 H -1.608841 2.028968 5.456665 0
M  V30 38 H -3.945879 1.438676 1.923805 0
M  V30 39 H 3.259820 1.242381 -0.885841 0
M  V30 40 H 2.686816 0.154909 0.410514 0
M  V30 41 H 3.517564 -1.507412 -0.970514 0
M  V30 42 H 3.329027 -0.469847 -2.417500 0
M  V30 END ATOM
M  V30 BEGIN BOND
M  V30 1 2 1 2
M  V30 2 1 2 3
M  V30 3 2 3 4
M  V30 4 1 4 5
M  V30 5 2 5 6
M  V30 6 1 6 7
M  V30 7 2 7 8
M  V30 8 1 2 9
M  V30 9 1 9 10
M  V30 10 1 10 11
M  V30 11 1 11 12
M  V30 12 1 12 13
M  V30 13 2 13 14
M  V30 14 1 14 15
M  V30 15 2 15 16
M  V30 16 1 16 17
M  V30 17 2 17 18
M  V30 18 1 18 19
M  V30 19 2 19 20
M  V30 20 1 19 21
M  V30 21 1 18 22
M  V30 22 2 22 23
M  V30 23 1 23 24
M  V30 24 1 12 25
M  V30 25 1 25 26
M  V30 26 1 8 3
M  V30 27 1 26 9
M  V30 28 1 24 13
M  V30 29 1 23 15
M  V30 30 1 4 27
M  V30 31 1 5 28
M  V30 32 1 6 29
M  V30 33 1 7 30
M  V30 34 1 8 31
M  V30 35 1 10 32
M  V30 36 1 10 33
M  V30 37 1 11 34
M  V30 38 1 11 35
M  V30 39 1 16 36
M  V30 40 1 17 37
M  V30 41 1 22 38
M  V30 42 1 25 39
M  V30 43 1 25 40
M  V30 44 1 26 41
M  V30 45 1 26 42
M  V30 END BOND
M  V30 END CTAB
M  END
>  <Dataset>  (877) 
ChEMBL_Kinases

>  <Ligand_Instance>  (877) 
nan

>  <PDB_ID>  (877) 
nan

>  <Standardized_SMILES>  (877) 
O=C(c1ccccc1)N1CCN(c2nc3ccc([N+](=O)[O-])cc3s2)CC1

>  <Name>  (877) 
nan

>  <Pocket>  (877) 
nan

>  <ATP_Site>  (877) 
nan

>  <Peripheral>  (877) 
nan

>  <Num_H_Atoms_ProtBoundConf>  (877) 
nan

>  <Num_Resolved_Atoms>  (877) 
nan

>  <Num_Not_Resolved_Atoms>  (877) 
nan

$$$$
CHEMBL1410295
     RDKit          3D

  0  0  0  0  0  0  0  0  0  0999 V3000
M  V30 BEGIN CTAB
M  V30 COUNTS 30 31 0 0 0
M  V30 BEGIN ATOM
M  V30 1 C -1.527222 -0.995398 3.626732 0
M  V30 2 N -0.594317 -1.835917 2.981923 0
M  V30 3 C -1.048590 -2.526246 1.846057 0
M  V30 4 C -0.013360 -2.963965 0.870789 0
M  V30 5 N 1.150581 -2.135040 0.822069 0
M  V30 6 N 1.092224 -1.134794 -0.132816 0
M  V30 7 C 0.588589 0.172636 0.054285 0
M  V30 8 O 0.107903 0.626159 1.146807 0
M  V30 9 C 0.587664 1.137769 -1.053056 0
M  V30 10 C 1.022416 0.960417 -2.309059 0
M  V30 11 C 0.938429 1.990650 -3.212348 0
M  V30 12 C 0.368997 3.207786 -2.700380 0
M  V30 13 Cl 0.120439 4.699727 -3.582210 0
M  V30 14 S -0.001188 2.741886 -0.921128 0
M  V30 15 C 1.713879 -1.789366 2.076267 0
M  V30 16 C 0.766696 -1.624984 3.207835 0
M  V30 17 H -1.129728 -0.548568 4.532724 0
M  V30 18 H -1.970176 -0.282274 2.914824 0
M  V30 19 H -2.387247 -1.651022 3.951838 0
M  V30 20 H -1.698583 -3.371630 2.155424 0
M  V30 21 H -1.736446 -1.828494 1.285043 0
M  V30 22 H -0.407681 -3.053847 -0.164782 0
M  V30 23 H 0.331016 -4.006322 1.138643 0
M  V30 24 H 1.471441 -1.430882 -1.065647 0
M  V30 25 H 1.440035 0.013477 -2.622091 0
M  V30 26 H 1.248496 1.985215 -4.247422 0
M  V30 27 H 2.461347 -2.601418 2.317937 0
M  V30 28 H 2.350387 -0.883153 1.942459 0
M  V30 29 H 0.884402 -0.597526 3.654704 0
M  V30 30 H 1.072471 -2.292017 4.067484 0
M  V30 END ATOM
M  V30 BEGIN BOND
M  V30 1 1 1 2
M  V30 2 1 2 3
M  V30 3 1 3 4
M  V30 4 1 4 5
M  V30 5 1 5 6
M  V30 6 1 6 7
M  V30 7 2 7 8
M  V30 8 1 7 9
M  V30 9 2 9 10
M  V30 10 1 10 11
M  V30 11 2 11 12
M  V30 12 1 12 13
M  V30 13 1 12 14
M  V30 14 1 5 15
M  V30 15 1 15 16
M  V30 16 1 16 2
M  V30 17 1 14 9
M  V30 18 1 1 17
M  V30 19 1 1 18
M  V30 20 1 1 19
M  V30 21 1 3 20
M  V30 22 1 3 21
M  V30 23 1 4 22
M  V30 24 1 4 23
M  V30 25 1 6 24
M  V30 26 1 10 25
M  V30 27 1 11 26
M  V30 28 1 15 27
M  V30 29 1 15 28
M  V30 30 1 16 29
M  V30 31 1 16 30
M  V30 END BOND
M  V30 END CTAB
M  END
>  <Dataset>  (878) 
ChEMBL_Kinases

>  <Ligand_Instance>  (878) 
nan

>  <PDB_ID>  (878) 
nan

>  <Standardized_SMILES>  (878) 
CN1CCN(NC(=O)c2ccc(Cl)s2)CC1

>  <Name>  (878) 
nan

>  <Pocket>  (878) 
nan

>  <ATP_Site>  (878) 
nan

>  <Peripheral>  (878) 
nan

>  <Num_H_Atoms_ProtBoundConf>  (878) 
nan

>  <Num_Resolved_Atoms>  (878) 
nan

>  <Num_Not_Resolved_Atoms>  (878) 
nan

$$$$
CHEMBL1410385
     RDKit          3D

  0  0  0  0  0  0  0  0  0  0999 V3000
M  V30 BEGIN CTAB
M  V30 COUNTS 55 58 0 0 0
M  V30 BEGIN ATOM
M  V30 1 C -5.766471 3.026794 -4.811066 0
M  V30 2 O -4.800967 3.479090 -3.877215 0
M  V30 3 C -4.590110 2.852094 -2.663359 0
M  V30 4 C -5.253265 1.735265 -2.204193 0
M  V30 5 C -4.993024 1.158537 -0.979064 0
M  V30 6 C -4.034209 1.688938 -0.141393 0
M  V30 7 C -3.607934 1.205614 1.197588 0
M  V30 8 C -2.398765 0.348564 0.946295 0
M  V30 9 O -2.197935 0.354840 -0.304587 0
M  V30 10 N -1.665387 -0.315620 1.978589 0
M  V30 11 C -0.567098 -1.046255 1.414601 0
M  V30 12 O -0.408349 -2.271084 0.970363 0
M  V30 13 C 0.823861 -2.448735 0.545368 0
M  V30 14 C 1.357342 -3.684173 -0.013420 0
M  V30 15 C 0.823917 -4.152246 -1.218851 0
M  V30 16 C 1.235399 -5.303531 -1.847189 0
M  V30 17 C 2.227868 -6.065511 -1.286220 0
M  V30 18 C 2.783332 -5.642165 -0.096314 0
M  V30 19 C 2.344870 -4.478023 0.508135 0
M  V30 20 C 1.560092 -1.291215 0.700768 0
M  V30 21 C 2.945264 -0.951269 0.398355 0
M  V30 22 C 4.130967 -1.393401 0.931047 0
M  V30 23 C 5.341245 -0.924074 0.476104 0
M  V30 24 C 5.401232 0.024988 -0.550494 0
M  V30 25 C 4.215615 0.471147 -1.087710 0
M  V30 26 C 2.984431 -0.000097 -0.631598 0
M  V30 27 C 0.657680 -0.378964 1.265968 0
M  V30 28 C 0.989148 0.992533 1.610821 0
M  V30 29 N 1.248526 2.081501 1.903547 0
M  V30 30 C -3.368291 2.822869 -0.618184 0
M  V30 31 C -3.623324 3.404894 -1.842031 0
M  V30 32 O -2.927170 4.528829 -2.255976 0
M  V30 33 C -1.936469 5.160785 -1.504354 0
M  V30 34 H -6.734620 3.562007 -4.606192 0
M  V30 35 H -5.947593 1.948615 -4.776441 0
M  V30 36 H -5.431119 3.330557 -5.837953 0
M  V30 37 H -6.004228 1.306344 -2.842823 0
M  V30 38 H -5.488019 0.298324 -0.600643 0
M  V30 39 H -4.442120 0.609056 1.607300 0
M  V30 40 H -3.335266 2.063427 1.811911 0
M  V30 41 H -1.990742 -0.203083 2.956873 0
M  V30 42 H 0.034528 -3.578739 -1.698793 0
M  V30 43 H 0.790044 -5.624841 -2.777794 0
M  V30 44 H 2.619582 -6.985378 -1.701544 0
M  V30 45 H 3.568338 -6.197447 0.395963 0
M  V30 46 H 2.780028 -4.151303 1.441461 0
M  V30 47 H 3.974870 -2.111316 1.707352 0
M  V30 48 H 6.211259 -1.336869 0.963722 0
M  V30 49 H 6.386073 0.371881 -0.881704 0
M  V30 50 H 4.343253 1.206149 -1.878435 0
M  V30 51 H 2.144953 0.450509 -1.157889 0
M  V30 52 H -2.597792 3.298024 -0.012383 0
M  V30 53 H -2.286776 5.262411 -0.441078 0
M  V30 54 H -0.954152 4.646066 -1.548128 0
M  V30 55 H -1.773378 6.213564 -1.848071 0
M  V30 END ATOM
M  V30 BEGIN BOND
M  V30 1 1 1 2
M  V30 2 1 2 3
M  V30 3 2 3 4
M  V30 4 1 4 5
M  V30 5 2 5 6
M  V30 6 1 6 7
M  V30 7 1 7 8
M  V30 8 2 8 9
M  V30 9 1 8 10
M  V30 10 1 10 11
M  V30 11 1 11 12
M  V30 12 1 12 13
M  V30 13 1 13 14
M  V30 14 2 14 15
M  V30 15 1 15 16
M  V30 16 2 16 17
M  V30 17 1 17 18
M  V30 18 2 18 19
M  V30 19 2 13 20
M  V30 20 1 20 21
M  V30 21 2 21 22
M  V30 22 1 22 23
M  V30 23 2 23 24
M  V30 24 1 24 25
M  V30 25 2 25 26
M  V30 26 1 20 27
M  V30 27 1 27 28
M  V30 28 3 28 29
M  V30 29 1 6 30
M  V30 30 2 30 31
M  V30 31 1 31 32
M  V30 32 1 32 33
M  V30 33 1 31 3
M  V30 34 2 27 11
M  V30 35 1 19 14
M  V30 36 1 26 21
M  V30 37 1 1 34
M  V30 38 1 1 35
M  V30 39 1 1 36
M  V30 40 1 4 37
M  V30 41 1 5 38
M  V30 42 1 7 39
M  V30 43 1 7 40
M  V30 44 1 10 41
M  V30 45 1 15 42
M  V30 46 1 16 43
M  V30 47 1 17 44
M  V30 48 1 18 45
M  V30 49 1 19 46
M  V30 50 1 22 47
M  V30 51 1 23 48
M  V30 52 1 24 49
M  V30 53 1 25 50
M  V30 54 1 26 51
M  V30 55 1 30 52
M  V30 56 1 33 53
M  V30 57 1 33 54
M  V30 58 1 33 55
M  V30 END BOND
M  V30 END CTAB
M  END
>  <Dataset>  (879) 
ChEMBL_Kinases

>  <Ligand_Instance>  (879) 
nan

>  <PDB_ID>  (879) 
nan

>  <Standardized_SMILES>  (879) 
COc1ccc(CC(=O)Nc2oc(-c3ccccc3)c(-c3ccccc3)c2C#N)cc1OC

>  <Name>  (879) 
nan

>  <Pocket>  (879) 
nan

>  <ATP_Site>  (879) 
nan

>  <Peripheral>  (879) 
nan

>  <Num_H_Atoms_ProtBoundConf>  (879) 
nan

>  <Num_Resolved_Atoms>  (879) 
nan

>  <Num_Not_Resolved_Atoms>  (879) 
nan

$$$$
CHEMBL1410407
     RDKit          3D

  0  0  0  0  0  0  0  0  0  0999 V3000
M  V30 BEGIN CTAB
M  V30 COUNTS 35 37 0 0 0
M  V30 BEGIN ATOM
M  V30 1 C -1.904244 -2.830314 3.149791 0
M  V30 2 N -0.795588 -3.254948 2.300679 0
M  V30 3 C -0.704406 -4.650681 1.916879 0
M  V30 4 C 0.204263 -2.359106 1.829941 0
M  V30 5 C 1.262480 -2.743563 1.024301 0
M  V30 6 C 2.198052 -1.818993 0.603752 0
M  V30 7 C 2.122956 -0.483304 0.962780 0
M  V30 8 N 3.124407 0.409710 0.490339 0
M  V30 9 N 2.907448 1.286683 -0.377917 0
M  V30 10 C 1.635684 1.468954 -0.971516 0
M  V30 11 C 1.206835 0.714294 -2.050627 0
M  V30 12 C -0.019677 0.853955 -2.662023 0
M  V30 13 C -0.895059 1.803368 -2.183252 0
M  V30 14 C -0.524202 2.588530 -1.107311 0
M  V30 15 C -1.204493 3.597393 -0.443338 0
M  V30 16 C -0.319426 3.998784 0.538679 0
M  V30 17 O 0.778082 3.288560 0.455472 0
M  V30 18 C 0.715097 2.412199 -0.527463 0
M  V30 19 C 1.062351 -0.117303 1.765778 0
M  V30 20 C 0.109981 -1.013940 2.204152 0
M  V30 21 H -2.326241 -3.715419 3.660796 0
M  V30 22 H -1.578859 -2.085940 3.917647 0
M  V30 23 H -2.649472 -2.362960 2.497302 0
M  V30 24 H -1.044169 -4.744220 0.883725 0
M  V30 25 H -1.379936 -5.286862 2.546792 0
M  V30 26 H 0.317559 -5.061584 2.063858 0
M  V30 27 H 1.311187 -3.795720 0.748563 0
M  V30 28 H 3.022705 -2.169264 -0.035765 0
M  V30 29 H 1.874145 -0.045806 -2.454746 0
M  V30 30 H -0.330898 0.252470 -3.503111 0
M  V30 31 H -1.846838 1.915258 -2.653919 0
M  V30 32 H -2.199908 3.953508 -0.678073 0
M  V30 33 H -0.565453 4.790201 1.238199 0
M  V30 34 H 1.009680 0.945745 2.046719 0
M  V30 35 H -0.679880 -0.611139 2.832204 0
M  V30 END ATOM
M  V30 BEGIN BOND
M  V30 1 1 1 2
M  V30 2 1 2 3
M  V30 3 1 2 4
M  V30 4 2 4 5
M  V30 5 1 5 6
M  V30 6 2 6 7
M  V30 7 1 7 8
M  V30 8 2 8 9
M  V30 9 1 9 10
M  V30 10 2 10 11
M  V30 11 1 11 12
M  V30 12 2 12 13
M  V30 13 1 13 14
M  V30 14 1 14 15
M  V30 15 2 15 16
M  V30 16 1 16 17
M  V30 17 1 17 18
M  V30 18 1 7 19
M  V30 19 2 19 20
M  V30 20 1 20 4
M  V30 21 1 18 10
M  V30 22 2 18 14
M  V30 23 1 1 21
M  V30 24 1 1 22
M  V30 25 1 1 23
M  V30 26 1 3 24
M  V30 27 1 3 25
M  V30 28 1 3 26
M  V30 29 1 5 27
M  V30 30 1 6 28
M  V30 31 1 11 29
M  V30 32 1 12 30
M  V30 33 1 13 31
M  V30 34 1 15 32
M  V30 35 1 16 33
M  V30 36 1 19 34
M  V30 37 1 20 35
M  V30 END BOND
M  V30 END CTAB
M  END
>  <Dataset>  (880) 
ChEMBL_Kinases

>  <Ligand_Instance>  (880) 
nan

>  <PDB_ID>  (880) 
nan

>  <Standardized_SMILES>  (880) 
CN(C)c1ccc(/N=N\c2cccc3ccoc23)cc1

>  <Name>  (880) 
nan

>  <Pocket>  (880) 
nan

>  <ATP_Site>  (880) 
nan

>  <Peripheral>  (880) 
nan

>  <Num_H_Atoms_ProtBoundConf>  (880) 
nan

>  <Num_Resolved_Atoms>  (880) 
nan

>  <Num_Not_Resolved_Atoms>  (880) 
nan

$$$$
CHEMBL1409634
     RDKit          3D

  0  0  0  0  0  0  0  0  0  0999 V3000
M  V30 BEGIN CTAB
M  V30 COUNTS 52 54 0 0 0
M  V30 BEGIN ATOM
M  V30 1 C 1.686694 -4.523277 3.060938 0
M  V30 2 C 1.370033 -3.140842 2.510582 0
M  V30 3 C 2.108081 -2.079173 3.321451 0
M  V30 4 C 3.581887 -2.263196 3.276754 0
M  V30 5 C 4.243875 -2.211215 1.954565 0
M  V30 6 C 4.121135 -0.957186 1.171725 0
M  V30 7 N 2.782103 -0.576366 0.791343 0
M  V30 8 C 2.895738 0.665138 0.060190 0
M  V30 9 O 4.077108 1.089714 -0.057533 0
M  V30 10 C 1.798566 1.426962 -0.522679 0
M  V30 11 C 2.092210 2.611859 -1.153152 0
M  V30 12 C 1.016569 3.296463 -1.677414 0
M  V30 13 C -0.230717 2.756075 -1.533141 0
M  V30 14 C -0.556091 1.574853 -0.909069 0
M  V30 15 C -1.940378 1.155469 -0.877142 0
M  V30 16 C -2.935117 2.008017 -1.315053 0
M  V30 17 C -4.268570 1.671474 -1.324373 0
M  V30 18 C -4.684020 0.440383 -0.887491 0
M  V30 19 C -6.118944 0.043333 -0.883546 0
M  V30 20 C -3.729675 -0.439349 -0.443576 0
M  V30 21 C -4.153069 -1.676836 -0.013456 0
M  V30 22 C -3.240035 -2.620120 0.441237 0
M  V30 23 C -1.900902 -2.244092 0.434708 0
M  V30 24 C -1.538336 -0.995447 -0.005580 0
M  V30 25 C -2.416697 -0.043542 -0.459637 0
M  V30 26 N 0.551580 1.010522 -0.448345 0
M  V30 27 H 2.489002 -4.973791 2.451130 0
M  V30 28 H 2.074247 -4.419397 4.114183 0
M  V30 29 H 0.793045 -5.172047 3.135205 0
M  V30 30 H 1.640617 -3.141809 1.446863 0
M  V30 31 H 0.289940 -2.957160 2.616483 0
M  V30 32 H 1.734078 -1.066002 3.167466 0
M  V30 33 H 1.802933 -2.320772 4.392459 0
M  V30 34 H 4.095594 -1.570055 4.006329 0
M  V30 35 H 3.805140 -3.280970 3.714330 0
M  V30 36 H 4.002735 -3.110990 1.313241 0
M  V30 37 H 5.351037 -2.353941 2.149940 0
M  V30 38 H 4.709066 -1.073122 0.212997 0
M  V30 39 H 4.640398 -0.119372 1.691952 0
M  V30 40 H 1.763903 -0.831718 0.825394 0
M  V30 41 H 3.111707 2.936055 -1.204988 0
M  V30 42 H 1.272184 4.227827 -2.170006 0
M  V30 43 H -0.945568 3.429983 -2.010541 0
M  V30 44 H -2.799938 3.011023 -1.688258 0
M  V30 45 H -5.065388 2.328027 -1.664699 0
M  V30 46 H -6.274618 -0.737660 -1.652625 0
M  V30 47 H -6.724711 0.966943 -1.086604 0
M  V30 48 H -6.442236 -0.299415 0.140681 0
M  V30 49 H -5.217076 -1.944958 -0.020047 0
M  V30 50 H -3.610564 -3.561670 0.763587 0
M  V30 51 H -1.250872 -3.017010 0.795083 0
M  V30 52 H -0.493339 -0.824160 0.031826 0
M  V30 END ATOM
M  V30 BEGIN BOND
M  V30 1 1 1 2
M  V30 2 1 2 3
M  V30 3 1 3 4
M  V30 4 1 4 5
M  V30 5 1 5 6
M  V30 6 1 6 7
M  V30 7 1 7 8
M  V30 8 2 8 9
M  V30 9 1 8 10
M  V30 10 2 10 11
M  V30 11 1 11 12
M  V30 12 2 12 13
M  V30 13 1 13 14
M  V30 14 1 14 15
M  V30 15 2 15 16
M  V30 16 1 16 17
M  V30 17 2 17 18
M  V30 18 1 18 19
M  V30 19 1 18 20
M  V30 20 2 20 21
M  V30 21 1 21 22
M  V30 22 2 22 23
M  V30 23 1 23 24
M  V30 24 2 24 25
M  V30 25 2 14 26
M  V30 26 1 26 10
M  V30 27 1 25 15
M  V30 28 1 25 20
M  V30 29 1 1 27
M  V30 30 1 1 28
M  V30 31 1 1 29
M  V30 32 1 2 30
M  V30 33 1 2 31
M  V30 34 1 3 32
M  V30 35 1 3 33
M  V30 36 1 4 34
M  V30 37 1 4 35
M  V30 38 1 5 36
M  V30 39 1 5 37
M  V30 40 1 6 38
M  V30 41 1 6 39
M  V30 42 1 7 40
M  V30 43 1 11 41
M  V30 44 1 12 42
M  V30 45 1 13 43
M  V30 46 1 16 44
M  V30 47 1 17 45
M  V30 48 1 19 46
M  V30 49 1 19 47
M  V30 50 1 19 48
M  V30 51 1 21 49
M  V30 52 1 22 50
M  V30 53 1 23 51
M  V30 54 1 24 52
M  V30 END BOND
M  V30 END CTAB
M  END
>  <Dataset>  (881) 
ChEMBL_Kinases

>  <Ligand_Instance>  (881) 
nan

>  <PDB_ID>  (881) 
nan

>  <Standardized_SMILES>  (881) 
CCCCCCNC(=O)c1cccc(-c2ccc(C)c3ccccc23)n1

>  <Name>  (881) 
nan

>  <Pocket>  (881) 
nan

>  <ATP_Site>  (881) 
nan

>  <Peripheral>  (881) 
nan

>  <Num_H_Atoms_ProtBoundConf>  (881) 
nan

>  <Num_Resolved_Atoms>  (881) 
nan

>  <Num_Not_Resolved_Atoms>  (881) 
nan

$$$$
CHEMBL1414002
     RDKit          3D

  0  0  0  0  0  0  0  0  0  0999 V3000
M  V30 BEGIN CTAB
M  V30 COUNTS 46 49 0 0 0
M  V30 BEGIN ATOM
M  V30 1 O -4.205909 -2.700626 -3.457576 0
M  V30 2 C -3.227745 -2.141427 -2.872010 0
M  V30 3 C -2.559448 -3.095620 -1.964921 0
M  V30 4 O -1.471710 -2.591118 -1.261106 0
M  V30 5 C -1.450067 -1.577638 -0.342063 0
M  V30 6 O -2.518345 -0.983257 -0.043110 0
M  V30 7 C -0.114594 -1.259658 0.241340 0
M  V30 8 C 0.507671 -2.413027 0.961920 0
M  V30 9 C 1.831603 -1.942173 1.507119 0
M  V30 10 C 1.649164 -0.806336 2.513375 0
M  V30 11 C 0.932814 0.332421 1.836147 0
M  V30 12 C 1.749743 0.874614 0.703065 0
M  V30 13 C 2.081049 -0.241564 -0.246542 0
M  V30 14 C 2.758995 -1.406368 0.445603 0
M  V30 15 C 0.817883 -0.801908 -0.848350 0
M  V30 16 C -0.361416 -0.174126 1.268509 0
M  V30 17 N -2.953872 -0.790772 -3.162666 0
M  V30 18 C -3.764658 -0.045708 -4.102130 0
M  V30 19 C -3.248318 1.360991 -4.217581 0
M  V30 20 C -2.281366 1.760954 -5.141206 0
M  V30 21 C -2.105574 3.126823 -4.899701 0
M  V30 22 C -2.967275 3.462348 -3.857532 0
M  V30 23 O -3.609320 2.393875 -3.498460 0
M  V30 24 H -2.144042 -3.896405 -2.643215 0
M  V30 25 H -3.304927 -3.612064 -1.327747 0
M  V30 26 H -0.096229 -2.747860 1.814685 0
M  V30 27 H 0.737409 -3.272957 0.299211 0
M  V30 28 H 2.330292 -2.783621 2.043869 0
M  V30 29 H 1.143921 -1.140642 3.421721 0
M  V30 30 H 2.680605 -0.436291 2.739984 0
M  V30 31 H 0.706104 1.085848 2.610739 0
M  V30 32 H 1.115912 1.590258 0.136011 0
M  V30 33 H 2.644389 1.433742 0.998247 0
M  V30 34 H 2.725790 0.148084 -1.052850 0
M  V30 35 H 3.650172 -1.027616 0.946270 0
M  V30 36 H 2.947407 -2.159802 -0.348649 0
M  V30 37 H 1.065506 -1.688230 -1.464538 0
M  V30 38 H 0.310924 -0.088151 -1.532987 0
M  V30 39 H -0.968500 0.600929 0.786293 0
M  V30 40 H -0.980788 -0.632256 2.070737 0
M  V30 41 H -2.132453 -0.407948 -2.651875 0
M  V30 42 H -4.832496 -0.019896 -3.798928 0
M  V30 43 H -3.674509 -0.520853 -5.098841 0
M  V30 44 H -1.819465 1.072780 -5.860781 0
M  V30 45 H -1.369892 3.610779 -5.545539 0
M  V30 46 H -2.932808 4.493517 -3.568493 0
M  V30 END ATOM
M  V30 BEGIN BOND
M  V30 1 2 1 2
M  V30 2 1 2 3
M  V30 3 1 3 4
M  V30 4 1 4 5
M  V30 5 2 5 6
M  V30 6 1 5 7
M  V30 7 1 7 8
M  V30 8 1 8 9
M  V30 9 1 9 10
M  V30 10 1 10 11
M  V30 11 1 11 12
M  V30 12 1 12 13
M  V30 13 1 13 14
M  V30 14 1 13 15
M  V30 15 1 11 16
M  V30 16 1 2 17
M  V30 17 1 17 18
M  V30 18 1 18 19
M  V30 19 2 19 20
M  V30 20 1 20 21
M  V30 21 2 21 22
M  V30 22 1 22 23
M  V30 23 1 15 7
M  V30 24 1 23 19
M  V30 25 1 16 7
M  V30 26 1 14 9
M  V30 27 1 3 24
M  V30 28 1 3 25
M  V30 29 1 8 26
M  V30 30 1 8 27
M  V30 31 1 9 28
M  V30 32 1 10 29
M  V30 33 1 10 30
M  V30 34 1 11 31
M  V30 35 1 12 32
M  V30 36 1 12 33
M  V30 37 1 13 34
M  V30 38 1 14 35
M  V30 39 1 14 36
M  V30 40 1 15 37
M  V30 41 1 15 38
M  V30 42 1 16 39
M  V30 43 1 16 40
M  V30 44 1 17 41
M  V30 45 1 18 42
M  V30 46 1 18 43
M  V30 47 1 20 44
M  V30 48 1 21 45
M  V30 49 1 22 46
M  V30 END BOND
M  V30 END CTAB
M  END
>  <Dataset>  (882) 
ChEMBL_Kinases

>  <Ligand_Instance>  (882) 
nan

>  <PDB_ID>  (882) 
nan

>  <Standardized_SMILES>  (882) 
O=C(COC(=O)C12CC3CC(CC(C3)C1)C2)NCc1ccco1

>  <Name>  (882) 
nan

>  <Pocket>  (882) 
nan

>  <ATP_Site>  (882) 
nan

>  <Peripheral>  (882) 
nan

>  <Num_H_Atoms_ProtBoundConf>  (882) 
nan

>  <Num_Resolved_Atoms>  (882) 
nan

>  <Num_Not_Resolved_Atoms>  (882) 
nan

$$$$
CHEMBL1413946
     RDKit          3D

  0  0  0  0  0  0  0  0  0  0999 V3000
M  V30 BEGIN CTAB
M  V30 COUNTS 27 29 0 0 0
M  V30 BEGIN ATOM
M  V30 1 N 0.818733 -4.346832 4.282917 0
M  V30 2 C 0.589472 -3.243843 4.061013 0
M  V30 3 C 0.278266 -1.841247 3.762987 0
M  V30 4 C 1.511496 -1.006299 3.690597 0
M  V30 5 S 2.703851 -1.496735 2.447019 0
M  V30 6 C 2.199916 -1.189941 0.783248 0
M  V30 7 N 3.151210 -1.651125 -0.083182 0
M  V30 8 C 2.976288 -1.505402 -1.429184 0
M  V30 9 N 1.866841 -0.906243 -1.930052 0
M  V30 10 C 0.921647 -0.445571 -1.123651 0
M  V30 11 C 1.107448 -0.597381 0.234549 0
M  V30 12 O 0.116503 -0.104295 0.886753 0
M  V30 13 C -0.792325 0.403211 0.093407 0
M  V30 14 C -1.999246 1.024730 0.337031 0
M  V30 15 C -2.689243 1.430327 -0.811620 0
M  V30 16 C -2.239046 1.245903 -2.106150 0
M  V30 17 C -1.012177 0.612087 -2.293277 0
M  V30 18 C -0.305596 0.198980 -1.179922 0
M  V30 19 H -0.359731 -1.762379 2.903368 0
M  V30 20 H -0.307578 -1.466297 4.656423 0
M  V30 21 H 1.158586 0.028681 3.389764 0
M  V30 22 H 1.971278 -0.839113 4.688359 0
M  V30 23 H 3.671954 -1.838513 -2.184929 0
M  V30 24 H -2.391804 1.190552 1.321717 0
M  V30 25 H -3.647496 1.926301 -0.696081 0
M  V30 26 H -2.836916 1.591677 -2.942919 0
M  V30 27 H -0.616673 0.444403 -3.279951 0
M  V30 END ATOM
M  V30 BEGIN BOND
M  V30 1 3 1 2
M  V30 2 1 2 3
M  V30 3 1 3 4
M  V30 4 1 4 5
M  V30 5 1 5 6
M  V30 6 2 6 7
M  V30 7 1 7 8
M  V30 8 2 8 9
M  V30 9 1 9 10
M  V30 10 2 10 11
M  V30 11 1 11 12
M  V30 12 1 12 13
M  V30 13 2 13 14
M  V30 14 1 14 15
M  V30 15 2 15 16
M  V30 16 1 16 17
M  V30 17 2 17 18
M  V30 18 1 11 6
M  V30 19 1 18 13
M  V30 20 1 18 10
M  V30 21 1 3 19
M  V30 22 1 3 20
M  V30 23 1 4 21
M  V30 24 1 4 22
M  V30 25 1 8 23
M  V30 26 1 14 24
M  V30 27 1 15 25
M  V30 28 1 16 26
M  V30 29 1 17 27
M  V30 END BOND
M  V30 END CTAB
M  END
>  <Dataset>  (883) 
ChEMBL_Kinases

>  <Ligand_Instance>  (883) 
nan

>  <PDB_ID>  (883) 
nan

>  <Standardized_SMILES>  (883) 
N#CCCSc1ncnc2c1oc1ccccc12

>  <Name>  (883) 
nan

>  <Pocket>  (883) 
nan

>  <ATP_Site>  (883) 
nan

>  <Peripheral>  (883) 
nan

>  <Num_H_Atoms_ProtBoundConf>  (883) 
nan

>  <Num_Resolved_Atoms>  (883) 
nan

>  <Num_Not_Resolved_Atoms>  (883) 
nan

$$$$
CHEMBL1413788
     RDKit          3D

  0  0  0  0  0  0  0  0  0  0999 V3000
M  V30 BEGIN CTAB
M  V30 COUNTS 39 41 0 0 0
M  V30 BEGIN ATOM
M  V30 1 C 4.975055 -5.915845 0.172427 0
M  V30 2 O 3.962753 -5.144522 -0.446492 0
M  V30 3 C 3.411262 -4.078537 0.247430 0
M  V30 4 C 3.838952 -3.771171 1.520034 0
M  V30 5 C 3.243097 -2.697161 2.145537 0
M  V30 6 C 2.253424 -1.943998 1.538800 0
M  V30 7 O 1.685392 -0.873303 2.209742 0
M  V30 8 C 2.121663 -0.555385 3.515128 0
M  V30 9 C 1.810852 -2.234020 0.266743 0
M  V30 10 C 0.778680 -1.500788 -0.450814 0
M  V30 11 C 0.040612 -0.405588 -0.057997 0
M  V30 12 C -0.822375 -0.057176 -1.078007 0
M  V30 13 C -1.814694 1.007047 -1.198990 0
M  V30 14 O -2.550438 1.220539 -2.197867 0
M  V30 15 N -1.919105 1.844372 -0.066287 0
M  V30 16 C -2.754099 2.971235 0.196701 0
M  V30 17 C -4.023940 2.961592 0.780233 0
M  V30 18 C -4.492271 4.279027 0.853992 0
M  V30 19 C -5.790969 4.761628 1.398076 0
M  V30 20 O -3.537963 4.993188 0.339750 0
M  V30 21 N -2.523221 4.288858 -0.050289 0
M  V30 22 N -0.558384 -0.969763 -2.045022 0
M  V30 23 O 0.360127 -1.783120 -1.661743 0
M  V30 24 C 2.429943 -3.312862 -0.323962 0
M  V30 25 H 5.419941 -6.653372 -0.516374 0
M  V30 26 H 5.748947 -5.324095 0.681364 0
M  V30 27 H 4.438534 -6.527644 0.947198 0
M  V30 28 H 4.599393 -4.320754 2.033081 0
M  V30 29 H 3.556322 -2.428015 3.147845 0
M  V30 30 H 2.081820 -1.464678 4.177247 0
M  V30 31 H 3.186082 -0.209010 3.522049 0
M  V30 32 H 1.549524 0.283819 3.953629 0
M  V30 33 H 0.092845 0.115055 0.863560 0
M  V30 34 H -1.373004 1.778751 0.821577 0
M  V30 35 H -4.573441 2.078653 1.126927 0
M  V30 36 H -5.607336 5.429718 2.270579 0
M  V30 37 H -6.441760 5.234036 0.642697 0
M  V30 38 H -6.336379 3.871487 1.796994 0
M  V30 39 H 2.121124 -3.589000 -1.329382 0
M  V30 END ATOM
M  V30 BEGIN BOND
M  V30 1 1 1 2
M  V30 2 1 2 3
M  V30 3 2 3 4
M  V30 4 1 4 5
M  V30 5 2 5 6
M  V30 6 1 6 7
M  V30 7 1 7 8
M  V30 8 1 6 9
M  V30 9 1 9 10
M  V30 10 2 10 11
M  V30 11 1 11 12
M  V30 12 1 12 13
M  V30 13 2 13 14
M  V30 14 1 13 15
M  V30 15 1 15 16
M  V30 16 1 16 17
M  V30 17 2 17 18
M  V30 18 1 18 19
M  V30 19 1 18 20
M  V30 20 1 20 21
M  V30 21 2 12 22
M  V30 22 1 22 23
M  V30 23 2 9 24
M  V30 24 1 24 3
M  V30 25 1 23 10
M  V30 26 2 21 16
M  V30 27 1 1 25
M  V30 28 1 1 26
M  V30 29 1 1 27
M  V30 30 1 4 28
M  V30 31 1 5 29
M  V30 32 1 8 30
M  V30 33 1 8 31
M  V30 34 1 8 32
M  V30 35 1 11 33
M  V30 36 1 15 34
M  V30 37 1 17 35
M  V30 38 1 19 36
M  V30 39 1 19 37
M  V30 40 1 19 38
M  V30 41 1 24 39
M  V30 END BOND
M  V30 END CTAB
M  END
>  <Dataset>  (884) 
ChEMBL_Kinases

>  <Ligand_Instance>  (884) 
nan

>  <PDB_ID>  (884) 
nan

>  <Standardized_SMILES>  (884) 
COc1ccc(OC)c(-c2cc(C(=O)Nc3cc(C)on3)no2)c1

>  <Name>  (884) 
nan

>  <Pocket>  (884) 
nan

>  <ATP_Site>  (884) 
nan

>  <Peripheral>  (884) 
nan

>  <Num_H_Atoms_ProtBoundConf>  (884) 
nan

>  <Num_Resolved_Atoms>  (884) 
nan

>  <Num_Not_Resolved_Atoms>  (884) 
nan

$$$$
CHEMBL1413677
     RDKit          3D

  0  0  0  0  0  0  0  0  0  0999 V3000
M  V30 BEGIN CTAB
M  V30 COUNTS 32 34 0 0 0
M  V30 BEGIN ATOM
M  V30 1 N -0.303884 -5.904754 1.099267 0
M  V30 2 C 0.259167 -4.732366 1.711234 0
M  V30 3 N 0.986493 -4.785379 2.856718 0
M  V30 4 C 1.504971 -3.672015 3.412589 0
M  V30 5 N 1.289079 -2.479550 2.806091 0
M  V30 6 C 0.576907 -2.384996 1.674819 0
M  V30 7 C 0.028693 -3.525593 1.078774 0
M  V30 8 N -0.627475 -3.120169 -0.035618 0
M  V30 9 C -0.502976 -1.783481 -0.144304 0
M  V30 10 N 0.228628 -1.345821 0.896720 0
M  V30 11 C 0.558528 0.073733 1.089381 0 CFG=2
M  V30 12 O -0.587249 0.790533 1.288962 0
M  V30 13 C -0.724464 1.707280 0.260763 0 CFG=1
M  V30 14 C -1.320999 2.959043 0.857834 0
M  V30 15 O -1.507321 3.954293 -0.075610 0
M  V30 16 C 0.630472 1.930157 -0.332398 0 CFG=2
M  V30 17 O 0.570178 2.159947 -1.708597 0
M  V30 18 C 1.293021 0.587519 -0.099970 0 CFG=2
M  V30 19 O 1.083445 -0.187834 -1.231524 0
M  V30 20 H -0.011621 -6.590887 0.371096 0
M  V30 21 H -1.223932 -5.977958 1.587660 0
M  V30 22 H 2.082077 -3.731386 4.325421 0
M  V30 23 H -0.967736 -1.280968 -0.982414 0
M  V30 24 H 1.212869 0.178366 1.977534 0
M  V30 25 H -1.408386 1.277384 -0.501305 0
M  V30 26 H -2.303803 2.683041 1.295578 0
M  V30 27 H -0.689000 3.294998 1.704830 0
M  V30 28 H -2.464928 4.129545 -0.230797 0
M  V30 29 H 1.185836 2.745788 0.175023 0
M  V30 30 H 0.611396 3.104245 -1.940186 0
M  V30 31 H 2.386782 0.718924 0.086755 0
M  V30 32 H 1.853118 -0.135937 -1.866951 0
M  V30 END ATOM
M  V30 BEGIN BOND
M  V30 1 1 1 2
M  V30 2 2 2 3
M  V30 3 1 3 4
M  V30 4 2 4 5
M  V30 5 1 5 6
M  V30 6 2 6 7
M  V30 7 1 7 8
M  V30 8 2 8 9
M  V30 9 1 9 10
M  V30 10 1 10 11
M  V30 11 1 11 12
M  V30 12 1 12 13
M  V30 13 1 13 14
M  V30 14 1 14 15
M  V30 15 1 13 16
M  V30 16 1 16 17
M  V30 17 1 16 18
M  V30 18 1 18 19
M  V30 19 1 7 2
M  V30 20 1 18 11
M  V30 21 1 10 6
M  V30 22 1 1 20
M  V30 23 1 1 21
M  V30 24 1 4 22
M  V30 25 1 9 23
M  V30 26 1 11 24 CFG=1
M  V30 27 1 13 25 CFG=3
M  V30 28 1 14 26
M  V30 29 1 14 27
M  V30 30 1 15 28
M  V30 31 1 16 29 CFG=1
M  V30 32 1 17 30
M  V30 33 1 18 31 CFG=1
M  V30 34 1 19 32
M  V30 END BOND
M  V30 END CTAB
M  END
>  <Dataset>  (885) 
ChEMBL_Kinases

>  <Ligand_Instance>  (885) 
nan

>  <PDB_ID>  (885) 
nan

>  <Standardized_SMILES>  (885) 
Nc1ncnc2c1ncn2[C@@H]1O[C@@H](CO)[C@H](O)[C@@H]1O

>  <Name>  (885) 
nan

>  <Pocket>  (885) 
nan

>  <ATP_Site>  (885) 
nan

>  <Peripheral>  (885) 
nan

>  <Num_H_Atoms_ProtBoundConf>  (885) 
nan

>  <Num_Resolved_Atoms>  (885) 
nan

>  <Num_Not_Resolved_Atoms>  (885) 
nan

$$$$
CHEMBL1413255
     RDKit          3D

  0  0  0  0  0  0  0  0  0  0999 V3000
M  V30 BEGIN CTAB
M  V30 COUNTS 49 51 0 0 0
M  V30 BEGIN ATOM
M  V30 1 C 2.201349 -5.245613 -0.870422 0
M  V30 2 C 2.532917 -4.220623 -1.947978 0
M  V30 3 O 2.835635 -2.953285 -1.396727 0
M  V30 4 C 3.893186 -2.742944 -0.512936 0
M  V30 5 O 4.430822 -3.869071 -0.371541 0
M  V30 6 C 4.087436 -1.355410 -0.013699 0
M  V30 7 C 5.473120 -0.837479 -0.167074 0
M  V30 8 N 3.101296 -0.443478 -0.561551 0
M  V30 9 C 3.204700 -0.248733 -1.961973 0
M  V30 10 O 3.831663 -0.840335 -2.903514 0
M  V30 11 S 2.179778 1.182651 -2.398823 0
M  V30 12 C 1.252109 1.099057 -0.851617 0
M  V30 13 C 0.066411 1.590098 -0.480103 0
M  V30 14 C -0.614459 1.480912 0.794751 0
M  V30 15 C -0.500589 1.639452 2.142691 0
M  V30 16 C -1.654332 1.287017 2.798750 0
M  V30 17 C -1.664044 1.415069 4.295513 0
M  V30 18 N -2.533976 0.892988 1.862397 0
M  V30 19 C -3.809763 0.479615 2.322020 0
M  V30 20 C -5.029180 1.154366 2.308602 0
M  V30 21 C -6.147459 0.532617 2.820098 0
M  V30 22 N -6.096736 -0.711879 3.334153 0
M  V30 23 C -4.939681 -1.410782 3.371482 0
M  V30 24 C -3.808419 -0.805667 2.864381 0
M  V30 25 C -1.929847 1.001781 0.653998 0
M  V30 26 C -2.807429 0.590714 -0.490884 0
M  V30 27 C 2.052492 0.282211 0.028899 0
M  V30 28 O 1.905266 0.152528 1.271975 0
M  V30 29 H 2.838391 -6.154302 -1.075519 0
M  V30 30 H 1.143994 -5.571928 -1.010294 0
M  V30 31 H 2.400474 -4.899540 0.145182 0
M  V30 32 H 3.377655 -4.595852 -2.598835 0
M  V30 33 H 1.644804 -4.062092 -2.620788 0
M  V30 34 H 3.877498 -1.407548 1.090751 0
M  V30 35 H 5.399456 0.227522 -0.529160 0
M  V30 36 H 6.061096 -1.398194 -0.910890 0
M  V30 37 H 6.005218 -0.746042 0.812934 0
M  V30 38 H -0.367716 2.138821 -1.325648 0
M  V30 39 H 0.450599 2.020956 2.488064 0
M  V30 40 H -1.345241 2.438498 4.554363 0
M  V30 41 H -2.675350 1.163007 4.661513 0
M  V30 42 H -0.891505 0.734346 4.713843 0
M  V30 43 H -4.944079 2.139558 1.873469 0
M  V30 44 H -7.072587 1.129526 2.773110 0
M  V30 45 H -4.951439 -2.389957 3.787787 0
M  V30 46 H -2.916605 -1.431459 2.929303 0
M  V30 47 H -2.259229 0.807583 -1.449929 0
M  V30 48 H -2.961183 -0.507870 -0.477669 0
M  V30 49 H -3.733619 1.161738 -0.526856 0
M  V30 END ATOM
M  V30 BEGIN BOND
M  V30 1 1 1 2
M  V30 2 1 2 3
M  V30 3 1 3 4
M  V30 4 2 4 5
M  V30 5 1 4 6
M  V30 6 1 6 7
M  V30 7 1 6 8
M  V30 8 1 8 9
M  V30 9 2 9 10
M  V30 10 1 9 11
M  V30 11 1 11 12
M  V30 12 2 12 13
M  V30 13 1 13 14
M  V30 14 1 14 15
M  V30 15 2 15 16
M  V30 16 1 16 17
M  V30 17 1 16 18
M  V30 18 1 18 19
M  V30 19 2 19 20
M  V30 20 1 20 21
M  V30 21 2 21 22
M  V30 22 1 22 23
M  V30 23 2 23 24
M  V30 24 1 18 25
M  V30 25 1 25 26
M  V30 26 1 12 27
M  V30 27 2 27 28
M  V30 28 1 27 8
M  V30 29 2 25 14
M  V30 30 1 24 19
M  V30 31 1 1 29
M  V30 32 1 1 30
M  V30 33 1 1 31
M  V30 34 1 2 32
M  V30 35 1 2 33
M  V30 36 1 6 34
M  V30 37 1 7 35
M  V30 38 1 7 36
M  V30 39 1 7 37
M  V30 40 1 13 38
M  V30 41 1 15 39
M  V30 42 1 17 40
M  V30 43 1 17 41
M  V30 44 1 17 42
M  V30 45 1 20 43
M  V30 46 1 21 44
M  V30 47 1 23 45
M  V30 48 1 24 46
M  V30 49 1 26 47
M  V30 50 1 26 48
M  V30 51 1 26 49
M  V30 END BOND
M  V30 END CTAB
M  END
>  <Dataset>  (886) 
ChEMBL_Kinases

>  <Ligand_Instance>  (886) 
nan

>  <PDB_ID>  (886) 
nan

>  <Standardized_SMILES>  (886) 
CCOC(=O)C(C)N1C(=O)S/C(=C/c2cc(C)n(-c3ccncc3)c2C)C1=O

>  <Name>  (886) 
nan

>  <Pocket>  (886) 
nan

>  <ATP_Site>  (886) 
nan

>  <Peripheral>  (886) 
nan

>  <Num_H_Atoms_ProtBoundConf>  (886) 
nan

>  <Num_Resolved_Atoms>  (886) 
nan

>  <Num_Not_Resolved_Atoms>  (886) 
nan

$$$$
CHEMBL1413235
     RDKit          3D

  0  0  0  0  0  0  0  0  0  0999 V3000
M  V30 BEGIN CTAB
M  V30 COUNTS 51 54 0 0 0
M  V30 BEGIN ATOM
M  V30 1 C 2.714798 -7.182743 2.163621 0
M  V30 2 C 3.887120 -6.199428 2.080355 0
M  V30 3 C 3.329752 -4.804020 1.845500 0
M  V30 4 N 2.899336 -3.704801 2.392846 0
M  V30 5 N 2.514096 -2.750634 1.630834 0
M  V30 6 C 2.495657 -2.731483 0.432513 0
M  V30 7 N 2.040794 -1.635104 -0.428438 0
M  V30 8 C 3.118439 -0.763988 -0.651168 0
M  V30 9 O 4.226482 -1.097883 -0.086404 0
M  V30 10 C 3.344842 0.474737 -1.381090 0
M  V30 11 S 1.891541 1.206504 -2.155624 0
M  V30 12 C 0.745434 1.870044 -0.978077 0
M  V30 13 N 1.189600 3.150811 -0.766500 0
M  V30 14 N 0.377442 3.746536 0.100962 0
M  V30 15 C -0.592919 2.889881 0.467583 0
M  V30 16 C -1.667786 3.141182 1.399554 0
M  V30 17 C -2.746479 2.342451 1.667506 0
M  V30 18 C -3.737102 2.590595 2.567561 0
M  V30 19 C -3.640563 3.778053 3.285955 0
M  V30 20 C -2.569626 4.639122 3.064392 0
M  V30 21 C -1.601627 4.288977 2.113758 0
M  V30 22 O -0.550255 5.192299 1.934568 0
M  V30 23 N -0.339097 1.762254 -0.205089 0
M  V30 24 C -0.959192 0.498007 -0.271636 0
M  V30 25 C -1.674148 0.291775 -1.455893 0
M  V30 26 C -2.340108 -0.907188 -1.678211 0
M  V30 27 C -2.321281 -1.943038 -0.735126 0
M  V30 28 C -3.018429 -3.241199 -0.926061 0
M  V30 29 C -1.606954 -1.699061 0.413746 0
M  V30 30 C -0.929229 -0.530231 0.684891 0
M  V30 31 S 3.140544 -4.370431 -0.019335 0
M  V30 32 H 2.336108 -7.462664 1.175594 0
M  V30 33 H 2.993263 -8.090330 2.697775 0
M  V30 34 H 1.904339 -6.584455 2.662400 0
M  V30 35 H 4.523752 -6.523054 1.238328 0
M  V30 36 H 4.427903 -6.138914 3.029466 0
M  V30 37 H 1.224280 -1.288297 -0.925895 0
M  V30 38 H 4.150541 0.287135 -2.141015 0
M  V30 39 H 3.782615 1.236095 -0.660410 0
M  V30 40 H -2.862608 1.426012 1.121842 0
M  V30 41 H -4.565571 1.929467 2.742470 0
M  V30 42 H -4.399372 4.020875 4.012033 0
M  V30 43 H -2.470112 5.562849 3.606398 0
M  V30 44 H -0.237409 5.736612 2.722564 0
M  V30 45 H -1.754343 1.023498 -2.251632 0
M  V30 46 H -2.901308 -1.070340 -2.603010 0
M  V30 47 H -3.480216 -3.235657 -1.946387 0
M  V30 48 H -2.324005 -4.107785 -0.860099 0
M  V30 49 H -3.786488 -3.370745 -0.134023 0
M  V30 50 H -1.573448 -2.480581 1.160868 0
M  V30 51 H -0.361300 -0.298426 1.569899 0
M  V30 END ATOM
M  V30 BEGIN BOND
M  V30 1 1 1 2
M  V30 2 1 2 3
M  V30 3 2 3 4
M  V30 4 1 4 5
M  V30 5 2 5 6
M  V30 6 1 6 7
M  V30 7 1 7 8
M  V30 8 2 8 9
M  V30 9 1 8 10
M  V30 10 1 10 11
M  V30 11 1 11 12
M  V30 12 2 12 13
M  V30 13 1 13 14
M  V30 14 2 14 15
M  V30 15 1 15 16
M  V30 16 2 16 17
M  V30 17 1 17 18
M  V30 18 2 18 19
M  V30 19 1 19 20
M  V30 20 2 20 21
M  V30 21 1 21 22
M  V30 22 1 15 23
M  V30 23 1 23 24
M  V30 24 2 24 25
M  V30 25 1 25 26
M  V30 26 2 26 27
M  V30 27 1 27 28
M  V30 28 1 27 29
M  V30 29 2 29 30
M  V30 30 1 6 31
M  V30 31 1 31 3
M  V30 32 1 23 12
M  V30 33 1 30 24
M  V30 34 1 21 16
M  V30 35 1 1 32
M  V30 36 1 1 33
M  V30 37 1 1 34
M  V30 38 1 2 35
M  V30 39 1 2 36
M  V30 40 1 7 37
M  V30 41 1 10 38
M  V30 42 1 10 39
M  V30 43 1 17 40
M  V30 44 1 18 41
M  V30 45 1 19 42
M  V30 46 1 20 43
M  V30 47 1 22 44
M  V30 48 1 25 45
M  V30 49 1 26 46
M  V30 50 1 28 47
M  V30 51 1 28 48
M  V30 52 1 28 49
M  V30 53 1 29 50
M  V30 54 1 30 51
M  V30 END BOND
M  V30 END CTAB
M  END
>  <Dataset>  (887) 
ChEMBL_Kinases

>  <Ligand_Instance>  (887) 
nan

>  <PDB_ID>  (887) 
nan

>  <Standardized_SMILES>  (887) 
CCc1nnc(NC(=O)CSc2nnc(-c3ccccc3O)n2-c2ccc(C)cc2)s1

>  <Name>  (887) 
nan

>  <Pocket>  (887) 
nan

>  <ATP_Site>  (887) 
nan

>  <Peripheral>  (887) 
nan

>  <Num_H_Atoms_ProtBoundConf>  (887) 
nan

>  <Num_Resolved_Atoms>  (887) 
nan

>  <Num_Not_Resolved_Atoms>  (887) 
nan

$$$$
CHEMBL1413201
     RDKit          3D

  0  0  0  0  0  0  0  0  0  0999 V3000
M  V30 BEGIN CTAB
M  V30 COUNTS 42 44 0 0 0
M  V30 BEGIN ATOM
M  V30 1 C -0.141994 -4.265777 0.488474 0
M  V30 2 C 1.230174 -4.028262 1.009596 0
M  V30 3 C 1.830426 -5.006445 1.782040 0
M  V30 4 C 3.093001 -4.859484 2.297567 0
M  V30 5 C 3.739040 -3.692762 2.012126 0
M  V30 6 F 4.991861 -3.505825 2.502987 0
M  V30 7 C 3.120804 -2.733609 1.240864 0
M  V30 8 C 1.859505 -2.855759 0.713453 0
M  V30 9 N 1.185035 -1.901513 -0.081457 0
M  V30 10 C 1.629450 -0.639794 -0.509139 0
M  V30 11 O 2.751364 -0.214540 -0.199804 0
M  V30 12 C 0.837383 0.294493 -1.348825 0
M  V30 13 C 1.573046 1.559680 -1.641926 0
M  V30 14 C 1.666322 2.497857 -0.492738 0
M  V30 15 C 0.844808 2.149515 0.709008 0
M  V30 16 N -0.371192 1.447777 0.450781 0
M  V30 17 C -1.504950 1.558797 1.307094 0
M  V30 18 N -2.657822 0.903806 1.075723 0
M  V30 19 C -3.749020 0.982666 1.859869 0
M  V30 20 C -3.661195 1.805820 2.987498 0
M  V30 21 C -2.474234 2.472985 3.215379 0
M  V30 22 N -1.406637 2.364274 2.402889 0
M  V30 23 C -0.503488 0.571987 -0.723116 0
M  V30 24 H -0.819997 -3.625050 1.080798 0
M  V30 25 H -0.419100 -5.313904 0.640810 0
M  V30 26 H -0.207877 -4.087617 -0.604876 0
M  V30 27 H 1.264291 -5.906842 1.970774 0
M  V30 28 H 3.503311 -5.646657 2.885210 0
M  V30 29 H 3.695027 -1.843354 1.061028 0
M  V30 30 H 0.224195 -2.102807 -0.428287 0
M  V30 31 H 0.632271 -0.202484 -2.322321 0
M  V30 32 H 1.095219 2.033405 -2.531108 0
M  V30 33 H 2.585627 1.268502 -1.989767 0
M  V30 34 H 1.417761 3.525573 -0.872432 0
M  V30 35 H 2.720674 2.569257 -0.160355 0
M  V30 36 H 1.434080 1.544965 1.452618 0
M  V30 37 H 0.609915 3.133070 1.210925 0
M  V30 38 H -4.645511 0.413829 1.594512 0
M  V30 39 H -4.526472 1.886456 3.635313 0
M  V30 40 H -2.450767 3.096654 4.096231 0
M  V30 41 H -0.880234 -0.391209 -0.319178 0
M  V30 42 H -1.249205 0.949779 -1.426526 0
M  V30 END ATOM
M  V30 BEGIN BOND
M  V30 1 1 1 2
M  V30 2 2 2 3
M  V30 3 1 3 4
M  V30 4 2 4 5
M  V30 5 1 5 6
M  V30 6 1 5 7
M  V30 7 2 7 8
M  V30 8 1 8 9
M  V30 9 1 9 10
M  V30 10 2 10 11
M  V30 11 1 10 12
M  V30 12 1 12 13
M  V30 13 1 13 14
M  V30 14 1 14 15
M  V30 15 1 15 16
M  V30 16 1 16 17
M  V30 17 2 17 18
M  V30 18 1 18 19
M  V30 19 2 19 20
M  V30 20 1 20 21
M  V30 21 2 21 22
M  V30 22 1 16 23
M  V30 23 1 8 2
M  V30 24 1 23 12
M  V30 25 1 22 17
M  V30 26 1 1 24
M  V30 27 1 1 25
M  V30 28 1 1 26
M  V30 29 1 3 27
M  V30 30 1 4 28
M  V30 31 1 7 29
M  V30 32 1 9 30
M  V30 33 1 12 31
M  V30 34 1 13 32
M  V30 35 1 13 33
M  V30 36 1 14 34
M  V30 37 1 14 35
M  V30 38 1 15 36
M  V30 39 1 15 37
M  V30 40 1 19 38
M  V30 41 1 20 39
M  V30 42 1 21 40
M  V30 43 1 23 41
M  V30 44 1 23 42
M  V30 END BOND
M  V30 END CTAB
M  END
>  <Dataset>  (888) 
ChEMBL_Kinases

>  <Ligand_Instance>  (888) 
nan

>  <PDB_ID>  (888) 
nan

>  <Standardized_SMILES>  (888) 
Cc1ccc(F)cc1NC(=O)C1CCCN(c2ncccn2)C1

>  <Name>  (888) 
nan

>  <Pocket>  (888) 
nan

>  <ATP_Site>  (888) 
nan

>  <Peripheral>  (888) 
nan

>  <Num_H_Atoms_ProtBoundConf>  (888) 
nan

>  <Num_Resolved_Atoms>  (888) 
nan

>  <Num_Not_Resolved_Atoms>  (888) 
nan

$$$$
CHEMBL1413159
     RDKit          3D

  0  0  0  0  0  0  0  0  0  0999 V3000
M  V30 BEGIN CTAB
M  V30 COUNTS 57 60 0 0 0
M  V30 BEGIN ATOM
M  V30 1 C 1.670334 -4.433450 1.294902 0
M  V30 2 C 3.025374 -4.576584 0.651202 0
M  V30 3 C 3.561874 -3.238256 0.254988 0
M  V30 4 C 4.330565 -2.508646 1.140458 0
M  V30 5 C 4.812886 -1.288633 0.763661 0
M  V30 6 C 4.549998 -0.751925 -0.500957 0
M  V30 7 N 5.127583 0.522898 -0.724561 0
M  V30 8 S 4.208786 1.775883 -1.451450 0
M  V30 9 O 3.669229 1.241960 -2.760581 0
M  V30 10 O 5.034850 2.999091 -1.660718 0
M  V30 11 C 2.806759 2.209127 -0.493679 0
M  V30 12 C 2.880599 3.191152 0.472597 0
M  V30 13 C 1.769694 3.524960 1.221958 0
M  V30 14 C 0.551133 2.904307 1.045462 0
M  V30 15 N -0.569995 3.169443 1.729160 0
M  V30 16 C -1.727809 2.529871 1.511038 0
M  V30 17 C -1.885251 1.538111 0.565896 0
M  V30 18 C -3.179826 0.909326 0.409341 0
M  V30 19 O -4.119848 1.301744 1.154803 0
M  V30 20 N -3.581646 -0.109989 -0.473231 0
M  V30 21 C -4.896075 -0.666245 -0.546234 0
M  V30 22 C -5.336361 -1.304590 0.732898 0
M  V30 23 C -4.394771 -2.417075 1.170060 0
M  V30 24 C -5.369875 -3.302198 1.921046 0
M  V30 25 C -6.536120 -3.198432 0.927716 0
M  V30 26 O -6.611382 -1.842043 0.646856 0
M  V30 27 C -0.728088 1.276622 -0.127468 0
M  V30 28 O -0.755053 0.303509 -1.102129 0
M  V30 29 C 0.469390 1.923662 0.083512 0
M  V30 30 C 1.579512 1.592776 -0.662611 0
M  V30 31 C 3.776790 -1.508884 -1.363440 0
M  V30 32 C 3.289444 -2.734867 -0.990943 0
M  V30 33 H 1.105904 -5.396233 1.188578 0
M  V30 34 H 1.079851 -3.615227 0.854383 0
M  V30 35 H 1.803078 -4.249959 2.384158 0
M  V30 36 H 3.715022 -5.047796 1.396969 0
M  V30 37 H 2.951237 -5.259285 -0.214463 0
M  V30 38 H 4.510046 -2.967148 2.116532 0
M  V30 39 H 5.408078 -0.799397 1.541872 0
M  V30 40 H 6.108188 0.706652 -0.450621 0
M  V30 41 H 3.806782 3.711584 0.655980 0
M  V30 42 H 1.809538 4.291654 1.983000 0
M  V30 43 H -2.517233 2.883546 2.161429 0
M  V30 44 H -2.871906 -0.480135 -1.112827 0
M  V30 45 H -4.974470 -1.423520 -1.347938 0
M  V30 46 H -5.601024 0.177999 -0.759863 0
M  V30 47 H -5.361142 -0.601239 1.588922 0
M  V30 48 H -4.032112 -2.949208 0.287660 0
M  V30 49 H -3.590758 -2.034007 1.828731 0
M  V30 50 H -5.024375 -4.339971 2.025717 0
M  V30 51 H -5.690323 -2.810551 2.843662 0
M  V30 52 H -7.456103 -3.608071 1.343025 0
M  V30 53 H -6.174141 -3.708884 0.007872 0
M  V30 54 H -0.217369 -0.537019 -1.014421 0
M  V30 55 H 1.551340 0.828890 -1.425094 0
M  V30 56 H 3.606481 -1.055703 -2.311707 0
M  V30 57 H 2.694728 -3.263348 -1.720016 0
M  V30 END ATOM
M  V30 BEGIN BOND
M  V30 1 1 1 2
M  V30 2 1 2 3
M  V30 3 2 3 4
M  V30 4 1 4 5
M  V30 5 2 5 6
M  V30 6 1 6 7
M  V30 7 1 7 8
M  V30 8 2 8 9
M  V30 9 2 8 10
M  V30 10 1 8 11
M  V30 11 2 11 12
M  V30 12 1 12 13
M  V30 13 2 13 14
M  V30 14 1 14 15
M  V30 15 2 15 16
M  V30 16 1 16 17
M  V30 17 1 17 18
M  V30 18 2 18 19
M  V30 19 1 18 20
M  V30 20 1 20 21
M  V30 21 1 21 22
M  V30 22 1 22 23
M  V30 23 1 23 24
M  V30 24 1 24 25
M  V30 25 1 25 26
M  V30 26 2 17 27
M  V30 27 1 27 28
M  V30 28 1 27 29
M  V30 29 2 29 30
M  V30 30 1 6 31
M  V30 31 2 31 32
M  V30 32 1 32 3
M  V30 33 1 30 11
M  V30 34 1 29 14
M  V30 35 1 26 22
M  V30 36 1 1 33
M  V30 37 1 1 34
M  V30 38 1 1 35
M  V30 39 1 2 36
M  V30 40 1 2 37
M  V30 41 1 4 38
M  V30 42 1 5 39
M  V30 43 1 7 40
M  V30 44 1 12 41
M  V30 45 1 13 42
M  V30 46 1 16 43
M  V30 47 1 20 44
M  V30 48 1 21 45
M  V30 49 1 21 46
M  V30 50 1 22 47
M  V30 51 1 23 48
M  V30 52 1 23 49
M  V30 53 1 24 50
M  V30 54 1 24 51
M  V30 55 1 25 52
M  V30 56 1 25 53
M  V30 57 1 28 54
M  V30 58 1 30 55
M  V30 59 1 31 56
M  V30 60 1 32 57
M  V30 END BOND
M  V30 END CTAB
M  END
>  <Dataset>  (889) 
ChEMBL_Kinases

>  <Ligand_Instance>  (889) 
nan

>  <PDB_ID>  (889) 
nan

>  <Standardized_SMILES>  (889) 
CCc1ccc(NS(=O)(=O)c2ccc3ncc(C(=O)NCC4CCCO4)c(O)c3c2)cc1

>  <Name>  (889) 
nan

>  <Pocket>  (889) 
nan

>  <ATP_Site>  (889) 
nan

>  <Peripheral>  (889) 
nan

>  <Num_H_Atoms_ProtBoundConf>  (889) 
nan

>  <Num_Resolved_Atoms>  (889) 
nan

>  <Num_Not_Resolved_Atoms>  (889) 
nan

$$$$
CHEMBL1413158
     RDKit          3D

  0  0  0  0  0  0  0  0  0  0999 V3000
M  V30 BEGIN CTAB
M  V30 COUNTS 48 52 0 0 0
M  V30 BEGIN ATOM
M  V30 1 C -3.391791 -1.164085 3.501310 0
M  V30 2 N -2.312895 -1.887799 2.855406 0
M  V30 3 C -2.048371 -3.160282 3.203673 0
M  V30 4 O -2.740079 -3.727453 4.094617 0
M  V30 5 N -1.038195 -3.819424 2.590574 0
M  V30 6 C -0.301453 -3.204343 1.636353 0
M  V30 7 O 0.626432 -3.860621 1.098154 0
M  V30 8 C -0.584432 -1.900303 1.289725 0
M  V30 9 C -1.613004 -1.225859 1.912967 0
M  V30 10 N -1.593607 -0.009449 1.337789 0
M  V30 11 C -0.595496 0.037670 0.411042 0
M  V30 12 S -0.373170 1.570383 -0.492959 0
M  V30 13 C 0.759319 2.670218 0.351419 0
M  V30 14 N 2.111756 2.857376 0.311876 0
M  V30 15 C 2.446338 3.836195 1.169817 0
M  V30 16 C 3.691583 4.356726 1.457393 0
M  V30 17 C 3.794741 5.378658 2.391980 0
M  V30 18 C 2.629521 5.842249 3.007482 0
M  V30 19 C 1.390972 5.309107 2.707119 0
M  V30 20 C 1.264765 4.278586 1.768163 0
M  V30 21 N 0.243384 3.553675 1.255017 0
M  V30 22 N 0.056791 -1.162794 0.369463 0
M  V30 23 C 1.147611 -1.354120 -0.524438 0
M  V30 24 C 0.804434 -1.830495 -1.895435 0
M  V30 25 C 0.116137 -3.113665 -1.987279 0
M  V30 26 C 0.694789 -4.383089 -2.106585 0
M  V30 27 C -0.085525 -5.519862 -2.184125 0
M  V30 28 C -1.461163 -5.472177 -2.149107 0
M  V30 29 C -2.074006 -4.244428 -2.032535 0
M  V30 30 C -1.268167 -3.109905 -1.955751 0
M  V30 31 H -4.382368 -1.469780 3.119125 0
M  V30 32 H -3.275250 -0.067084 3.376283 0
M  V30 33 H -3.407799 -1.333424 4.598979 0
M  V30 34 H -0.879089 -4.809152 2.903981 0
M  V30 35 H 4.589318 3.997067 0.980849 0
M  V30 36 H 4.725659 5.850019 2.683462 0
M  V30 37 H 2.594703 6.644410 3.759387 0
M  V30 38 H 0.481639 5.660331 3.177627 0
M  V30 39 H -0.726134 3.755030 1.595613 0
M  V30 40 H 1.734272 -0.403278 -0.662642 0
M  V30 41 H 1.884781 -2.041516 -0.022825 0
M  V30 42 H 1.769142 -1.896647 -2.456192 0
M  V30 43 H 0.206548 -1.085440 -2.473836 0
M  V30 44 H 1.780653 -4.385683 -2.131313 0
M  V30 45 H 0.406433 -6.493271 -2.276663 0
M  V30 46 H -2.100747 -6.325300 -2.206126 0
M  V30 47 H -3.153578 -4.141931 -1.999664 0
M  V30 48 H -1.801378 -2.162254 -1.864448 0
M  V30 END ATOM
M  V30 BEGIN BOND
M  V30 1 1 1 2
M  V30 2 1 2 3
M  V30 3 2 3 4
M  V30 4 1 3 5
M  V30 5 1 5 6
M  V30 6 2 6 7
M  V30 7 1 6 8
M  V30 8 2 8 9
M  V30 9 1 9 10
M  V30 10 2 10 11
M  V30 11 1 11 12
M  V30 12 1 12 13
M  V30 13 2 13 14
M  V30 14 1 14 15
M  V30 15 2 15 16
M  V30 16 1 16 17
M  V30 17 2 17 18
M  V30 18 1 18 19
M  V30 19 2 19 20
M  V30 20 1 20 21
M  V30 21 1 11 22
M  V30 22 1 22 23
M  V30 23 1 23 24
M  V30 24 1 24 25
M  V30 25 2 25 26
M  V30 26 1 26 27
M  V30 27 2 27 28
M  V30 28 1 28 29
M  V30 29 2 29 30
M  V30 30 1 9 2
M  V30 31 1 21 13
M  V30 32 1 30 25
M  V30 33 1 22 8
M  V30 34 1 20 15
M  V30 35 1 1 31
M  V30 36 1 1 32
M  V30 37 1 1 33
M  V30 38 1 5 34
M  V30 39 1 16 35
M  V30 40 1 17 36
M  V30 41 1 18 37
M  V30 42 1 19 38
M  V30 43 1 21 39
M  V30 44 1 23 40
M  V30 45 1 23 41
M  V30 46 1 24 42
M  V30 47 1 24 43
M  V30 48 1 26 44
M  V30 49 1 27 45
M  V30 50 1 28 46
M  V30 51 1 29 47
M  V30 52 1 30 48
M  V30 END BOND
M  V30 END CTAB
M  END
>  <Dataset>  (890) 
ChEMBL_Kinases

>  <Ligand_Instance>  (890) 
nan

>  <PDB_ID>  (890) 
nan

>  <Standardized_SMILES>  (890) 
Cn1c(=O)[nH]c(=O)c2c1nc(Sc1nc3ccccc3[nH]1)n2CCc1ccccc1

>  <Name>  (890) 
nan

>  <Pocket>  (890) 
nan

>  <ATP_Site>  (890) 
nan

>  <Peripheral>  (890) 
nan

>  <Num_H_Atoms_ProtBoundConf>  (890) 
nan

>  <Num_Resolved_Atoms>  (890) 
nan

>  <Num_Not_Resolved_Atoms>  (890) 
nan

$$$$
CHEMBL1413040
     RDKit          3D

  0  0  0  0  0  0  0  0  0  0999 V3000
M  V30 BEGIN CTAB
M  V30 COUNTS 28 29 0 0 0
M  V30 BEGIN ATOM
M  V30 1 C -0.128201 -1.533938 5.138935 0
M  V30 2 C 0.078751 -1.535588 3.659203 0
M  V30 3 C 0.182433 -2.812239 3.050683 0
M  V30 4 S 0.429986 -2.354782 1.232446 0
M  V30 5 C 0.368117 -0.649942 1.497955 0
M  V30 6 C 0.472723 0.370088 0.571300 0
M  V30 7 N 0.686656 0.089276 -0.807739 0
M  V30 8 C 0.539749 1.268190 -1.679750 0
M  V30 9 C 1.015461 -1.092219 -1.532175 0
M  V30 10 C -0.221476 -1.478801 -2.362872 0
M  V30 11 O 0.051530 -2.634389 -3.094880 0
M  V30 12 N 0.382142 1.659065 1.011455 0
M  V30 13 C 0.195947 1.813222 2.332467 0
M  V30 14 N 0.095091 0.817353 3.221826 0
M  V30 15 C 0.180040 -0.480439 2.821724 0
M  V30 16 H 0.258780 -0.582222 5.579881 0
M  V30 17 H -1.188267 -1.611754 5.415497 0
M  V30 18 H 0.427579 -2.338114 5.634201 0
M  V30 19 H 0.126817 -3.831909 3.551183 0
M  V30 20 H 0.832444 2.192795 -1.136671 0
M  V30 21 H 1.145556 1.166332 -2.600458 0
M  V30 22 H -0.561968 1.326116 -1.916356 0
M  V30 23 H 1.767888 -0.791378 -2.337876 0
M  V30 24 H 1.439470 -1.925603 -0.976731 0
M  V30 25 H -1.106214 -1.622950 -1.710159 0
M  V30 26 H -0.407676 -0.675843 -3.087046 0
M  V30 27 H 1.020064 -2.841520 -3.074082 0
M  V30 28 H 0.122183 2.838210 2.700647 0
M  V30 END ATOM
M  V30 BEGIN BOND
M  V30 1 1 1 2
M  V30 2 2 2 3
M  V30 3 1 3 4
M  V30 4 1 4 5
M  V30 5 2 5 6
M  V30 6 1 6 7
M  V30 7 1 7 8
M  V30 8 1 7 9
M  V30 9 1 9 10
M  V30 10 1 10 11
M  V30 11 1 6 12
M  V30 12 2 12 13
M  V30 13 1 13 14
M  V30 14 2 14 15
M  V30 15 1 15 2
M  V30 16 1 15 5
M  V30 17 1 1 16
M  V30 18 1 1 17
M  V30 19 1 1 18
M  V30 20 1 3 19
M  V30 21 1 8 20
M  V30 22 1 8 21
M  V30 23 1 8 22
M  V30 24 1 9 23
M  V30 25 1 9 24
M  V30 26 1 10 25
M  V30 27 1 10 26
M  V30 28 1 11 27
M  V30 29 1 13 28
M  V30 END BOND
M  V30 END CTAB
M  END
>  <Dataset>  (891) 
ChEMBL_Kinases

>  <Ligand_Instance>  (891) 
nan

>  <PDB_ID>  (891) 
nan

>  <Standardized_SMILES>  (891) 
Cc1csc2c(N(C)CCO)ncnc12

>  <Name>  (891) 
nan

>  <Pocket>  (891) 
nan

>  <ATP_Site>  (891) 
nan

>  <Peripheral>  (891) 
nan

>  <Num_H_Atoms_ProtBoundConf>  (891) 
nan

>  <Num_Resolved_Atoms>  (891) 
nan

>  <Num_Not_Resolved_Atoms>  (891) 
nan

$$$$
CHEMBL1413015
     RDKit          3D

  0  0  0  0  0  0  0  0  0  0999 V3000
M  V30 BEGIN CTAB
M  V30 COUNTS 39 41 0 0 0
M  V30 BEGIN ATOM
M  V30 1 O 0.305145 -3.006276 3.493908 0
M  V30 2 C 0.884862 -2.967986 2.381291 0
M  V30 3 C 2.341537 -3.024733 2.324678 0
M  V30 4 C 3.015875 -1.975466 2.944340 0
M  V30 5 C 4.369011 -2.211615 2.781773 0
M  V30 6 C 4.439866 -3.397195 2.068839 0
M  V30 7 O 3.233930 -3.834877 1.824492 0
M  V30 8 N 0.201160 -2.870230 1.134740 0
M  V30 9 C 0.718709 -2.815885 -0.227866 0
M  V30 10 C -0.182336 -1.907875 -1.069783 0
M  V30 11 N -0.743029 -0.878001 -0.217548 0
M  V30 12 C -0.261600 0.434108 -0.456721 0
M  V30 13 O 0.578396 0.298998 -1.411559 0
M  V30 14 N -0.585214 1.661305 0.171772 0
M  V30 15 C -1.415098 2.232013 1.208244 0
M  V30 16 C -2.246802 3.223276 0.406759 0
M  V30 17 C -1.132950 3.847802 -0.443157 0
M  V30 18 C 0.055717 2.894223 -0.249999 0
M  V30 19 C -1.714575 -1.432724 0.737105 0
M  V30 20 C -1.254816 -2.812896 1.200207 0
M  V30 21 H 2.702808 -1.087953 3.481431 0
M  V30 22 H 5.251223 -1.672619 3.091345 0
M  V30 23 H 5.321038 -3.915073 1.744372 0
M  V30 24 H 0.800324 -3.804102 -0.692791 0
M  V30 25 H 1.747080 -2.401272 -0.132359 0
M  V30 26 H -0.992832 -2.604679 -1.432069 0
M  V30 27 H 0.403024 -1.539330 -1.909740 0
M  V30 28 H -0.763764 2.838127 1.890149 0
M  V30 29 H -2.063944 1.542989 1.735869 0
M  V30 30 H -2.945291 2.711514 -0.253819 0
M  V30 31 H -2.715216 3.972805 1.065630 0
M  V30 32 H -0.914780 4.829728 0.014379 0
M  V30 33 H -1.455632 3.887209 -1.489135 0
M  V30 34 H 0.687889 3.279621 0.603344 0
M  V30 35 H 0.651857 2.814885 -1.157254 0
M  V30 36 H -2.702541 -1.573355 0.266229 0
M  V30 37 H -1.754383 -0.826441 1.659807 0
M  V30 38 H -1.630403 -3.542356 0.454736 0
M  V30 39 H -1.647277 -3.006467 2.204475 0
M  V30 END ATOM
M  V30 BEGIN BOND
M  V30 1 2 1 2
M  V30 2 1 2 3
M  V30 3 2 3 4
M  V30 4 1 4 5
M  V30 5 2 5 6
M  V30 6 1 6 7
M  V30 7 1 2 8
M  V30 8 1 8 9
M  V30 9 1 9 10
M  V30 10 1 10 11
M  V30 11 1 11 12
M  V30 12 2 12 13
M  V30 13 1 12 14
M  V30 14 1 14 15
M  V30 15 1 15 16
M  V30 16 1 16 17
M  V30 17 1 17 18
M  V30 18 1 11 19
M  V30 19 1 19 20
M  V30 20 1 7 3
M  V30 21 1 20 8
M  V30 22 1 18 14
M  V30 23 1 4 21
M  V30 24 1 5 22
M  V30 25 1 6 23
M  V30 26 1 9 24
M  V30 27 1 9 25
M  V30 28 1 10 26
M  V30 29 1 10 27
M  V30 30 1 15 28
M  V30 31 1 15 29
M  V30 32 1 16 30
M  V30 33 1 16 31
M  V30 34 1 17 32
M  V30 35 1 17 33
M  V30 36 1 18 34
M  V30 37 1 18 35
M  V30 38 1 19 36
M  V30 39 1 19 37
M  V30 40 1 20 38
M  V30 41 1 20 39
M  V30 END BOND
M  V30 END CTAB
M  END
>  <Dataset>  (892) 
ChEMBL_Kinases

>  <Ligand_Instance>  (892) 
nan

>  <PDB_ID>  (892) 
nan

>  <Standardized_SMILES>  (892) 
O=C(c1ccco1)N1CCN(C(=O)N2CCCC2)CC1

>  <Name>  (892) 
nan

>  <Pocket>  (892) 
nan

>  <ATP_Site>  (892) 
nan

>  <Peripheral>  (892) 
nan

>  <Num_H_Atoms_ProtBoundConf>  (892) 
nan

>  <Num_Resolved_Atoms>  (892) 
nan

>  <Num_Not_Resolved_Atoms>  (892) 
nan

$$$$
CHEMBL1412835
     RDKit          3D

  0  0  0  0  0  0  0  0  0  0999 V3000
M  V30 BEGIN CTAB
M  V30 COUNTS 53 56 0 0 0
M  V30 BEGIN ATOM
M  V30 1 C 3.739818 -6.725120 4.224385 0
M  V30 2 O 4.397949 -6.458080 2.991979 0
M  V30 3 C 4.010696 -5.304079 2.312257 0
M  V30 4 C 3.018934 -4.480482 2.855436 0
M  V30 5 C 2.664350 -3.339287 2.142422 0
M  V30 6 C 3.257596 -2.998447 0.924510 0
M  V30 7 O 2.754849 -1.832988 0.398428 0
M  V30 8 C 3.181255 -1.267043 -0.821907 0
M  V30 9 C 2.453111 -0.010705 -1.120118 0
M  V30 10 O 2.883530 0.438660 -2.229130 0
M  V30 11 N 1.458480 0.613106 -0.350041 0
M  V30 12 C 0.971622 0.090350 0.924125 0
M  V30 13 C 0.050917 1.164430 1.495988 0
M  V30 14 N -1.056159 1.411077 0.599172 0
M  V30 15 C -2.147738 0.514146 0.815794 0
M  V30 16 C -3.309781 0.704453 -0.059294 0
M  V30 17 C -3.654630 -0.100418 -1.151118 0
M  V30 18 N -4.781718 0.380153 -1.713396 0
M  V30 19 C -5.199600 1.480827 -1.030561 0
M  V30 20 C -6.257840 2.344887 -1.159762 0
M  V30 21 C -6.414477 3.390264 -0.292435 0
M  V30 22 C -5.519406 3.623589 0.748467 0
M  V30 23 C -4.461378 2.745081 0.863470 0
M  V30 24 C -4.280885 1.682632 0.001282 0
M  V30 25 C -0.658146 1.601493 -0.755955 0
M  V30 26 C 0.857336 1.845821 -0.812926 0
M  V30 27 C 4.233500 -3.822498 0.404690 0
M  V30 28 C 4.581713 -4.948162 1.110184 0
M  V30 29 H 4.182364 -7.635263 4.645554 0
M  V30 30 H 3.880070 -5.891939 4.946415 0
M  V30 31 H 2.634486 -6.804631 4.050614 0
M  V30 32 H 2.566853 -4.747936 3.791675 0
M  V30 33 H 1.892063 -2.759182 2.631275 0
M  V30 34 H 4.278867 -1.125976 -0.845545 0
M  V30 35 H 2.901923 -1.981187 -1.629203 0
M  V30 36 H 1.862580 -0.030168 1.573451 0
M  V30 37 H 0.454804 -0.868867 0.804524 0
M  V30 38 H -0.375726 0.749016 2.429874 0
M  V30 39 H 0.635786 2.051626 1.746251 0
M  V30 40 H -2.489173 0.637585 1.878614 0
M  V30 41 H -1.767763 -0.528365 0.729593 0
M  V30 42 H -3.133087 -0.981516 -1.527633 0
M  V30 43 H -5.265749 -0.016771 -2.537962 0
M  V30 44 H -6.932800 2.120578 -1.991227 0
M  V30 45 H -7.299359 3.989287 -0.519670 0
M  V30 46 H -5.721710 4.470422 1.382348 0
M  V30 47 H -3.761055 2.937961 1.687501 0
M  V30 48 H -0.781809 0.629907 -1.299117 0
M  V30 49 H -1.207507 2.380679 -1.293788 0
M  V30 50 H 1.139242 1.997359 -1.867550 0
M  V30 51 H 1.127147 2.716564 -0.175959 0
M  V30 52 H 4.646478 -3.502524 -0.531501 0
M  V30 53 H 5.345242 -5.564298 0.673123 0
M  V30 END ATOM
M  V30 BEGIN BOND
M  V30 1 1 1 2
M  V30 2 1 2 3
M  V30 3 2 3 4
M  V30 4 1 4 5
M  V30 5 2 5 6
M  V30 6 1 6 7
M  V30 7 1 7 8
M  V30 8 1 8 9
M  V30 9 2 9 10
M  V30 10 1 9 11
M  V30 11 1 11 12
M  V30 12 1 12 13
M  V30 13 1 13 14
M  V30 14 1 14 15
M  V30 15 1 15 16
M  V30 16 2 16 17
M  V30 17 1 17 18
M  V30 18 1 18 19
M  V30 19 2 19 20
M  V30 20 1 20 21
M  V30 21 2 21 22
M  V30 22 1 22 23
M  V30 23 2 23 24
M  V30 24 1 14 25
M  V30 25 1 25 26
M  V30 26 1 6 27
M  V30 27 2 27 28
M  V30 28 1 28 3
M  V30 29 1 26 11
M  V30 30 1 24 16
M  V30 31 1 24 19
M  V30 32 1 1 29
M  V30 33 1 1 30
M  V30 34 1 1 31
M  V30 35 1 4 32
M  V30 36 1 5 33
M  V30 37 1 8 34
M  V30 38 1 8 35
M  V30 39 1 12 36
M  V30 40 1 12 37
M  V30 41 1 13 38
M  V30 42 1 13 39
M  V30 43 1 15 40
M  V30 44 1 15 41
M  V30 45 1 17 42
M  V30 46 1 18 43
M  V30 47 1 20 44
M  V30 48 1 21 45
M  V30 49 1 22 46
M  V30 50 1 23 47
M  V30 51 1 25 48
M  V30 52 1 25 49
M  V30 53 1 26 50
M  V30 54 1 26 51
M  V30 55 1 27 52
M  V30 56 1 28 53
M  V30 END BOND
M  V30 END CTAB
M  END
>  <Dataset>  (893) 
ChEMBL_Kinases

>  <Ligand_Instance>  (893) 
nan

>  <PDB_ID>  (893) 
nan

>  <Standardized_SMILES>  (893) 
COc1ccc(OCC(=O)N2CCN(Cc3c[nH]c4ccccc34)CC2)cc1

>  <Name>  (893) 
nan

>  <Pocket>  (893) 
nan

>  <ATP_Site>  (893) 
nan

>  <Peripheral>  (893) 
nan

>  <Num_H_Atoms_ProtBoundConf>  (893) 
nan

>  <Num_Resolved_Atoms>  (893) 
nan

>  <Num_Not_Resolved_Atoms>  (893) 
nan

$$$$
CHEMBL1412755
     RDKit          3D

  0  0  0  0  0  0  0  0  0  0999 V3000
M  V30 BEGIN CTAB
M  V30 COUNTS 36 36 0 0 0
M  V30 BEGIN ATOM
M  V30 1 C -1.773683 -3.308712 2.786370 0
M  V30 2 C -1.091828 -3.384201 1.444354 0
M  V30 3 C -1.178241 -4.789999 0.933048 0
M  V30 4 C 0.358796 -2.937700 1.580717 0
M  V30 5 C 0.349693 -1.510156 2.086724 0
M  V30 6 O -0.333112 -0.719026 1.160183 0
M  V30 7 C 0.047783 -0.555050 -0.159039 0
M  V30 8 O 1.065587 -1.123384 -0.630171 0
M  V30 9 C -0.625414 0.264937 -1.194433 0
M  V30 10 C 0.143408 0.145653 -2.490096 0
M  V30 11 S -0.828300 1.989485 -0.720422 0
M  V30 12 C 0.719077 2.835943 -0.570858 0
M  V30 13 N 1.301500 3.470427 -1.605818 0
M  V30 14 N 2.459713 4.104864 -1.495472 0
M  V30 15 C 3.046782 4.087235 -0.267488 0
M  V30 16 O 4.278313 4.735416 -0.059980 0
M  V30 17 N 2.501014 3.464224 0.800676 0
M  V30 18 C 1.330154 2.825382 0.680649 0
M  V30 19 O 0.810052 2.200506 1.806742 0
M  V30 20 H -2.640527 -4.009561 2.779665 0
M  V30 21 H -2.087546 -2.271176 2.980301 0
M  V30 22 H -1.005368 -3.588158 3.542927 0
M  V30 23 H -1.577157 -2.698397 0.718302 0
M  V30 24 H -2.183484 -4.944292 0.480928 0
M  V30 25 H -1.016724 -5.502393 1.750669 0
M  V30 26 H -0.414170 -4.911294 0.135697 0
M  V30 27 H 0.888251 -3.066670 0.633621 0
M  V30 28 H 0.824620 -3.627767 2.315965 0
M  V30 29 H -0.187689 -1.533394 3.051549 0
M  V30 30 H 1.398172 -1.180163 2.254985 0
M  V30 31 H -1.665631 -0.129837 -1.386857 0
M  V30 32 H 0.522928 -0.913085 -2.547569 0
M  V30 33 H 0.991166 0.862191 -2.427455 0
M  V30 34 H -0.497798 0.376858 -3.350333 0
M  V30 35 H 4.472536 5.130950 0.858087 0
M  V30 36 H -0.189209 2.083474 1.918817 0
M  V30 END ATOM
M  V30 BEGIN BOND
M  V30 1 1 1 2
M  V30 2 1 2 3
M  V30 3 1 2 4
M  V30 4 1 4 5
M  V30 5 1 5 6
M  V30 6 1 6 7
M  V30 7 2 7 8
M  V30 8 1 7 9
M  V30 9 1 9 10
M  V30 10 1 9 11
M  V30 11 1 11 12
M  V30 12 2 12 13
M  V30 13 1 13 14
M  V30 14 2 14 15
M  V30 15 1 15 16
M  V30 16 1 15 17
M  V30 17 2 17 18
M  V30 18 1 18 19
M  V30 19 1 18 12
M  V30 20 1 1 20
M  V30 21 1 1 21
M  V30 22 1 1 22
M  V30 23 1 2 23
M  V30 24 1 3 24
M  V30 25 1 3 25
M  V30 26 1 3 26
M  V30 27 1 4 27
M  V30 28 1 4 28
M  V30 29 1 5 29
M  V30 30 1 5 30
M  V30 31 1 9 31
M  V30 32 1 10 32
M  V30 33 1 10 33
M  V30 34 1 10 34
M  V30 35 1 16 35
M  V30 36 1 19 36
M  V30 END BOND
M  V30 END CTAB
M  END
>  <Dataset>  (894) 
ChEMBL_Kinases

>  <Ligand_Instance>  (894) 
nan

>  <PDB_ID>  (894) 
nan

>  <Standardized_SMILES>  (894) 
CC(C)CCOC(=O)C(C)Sc1nnc(O)nc1O

>  <Name>  (894) 
nan

>  <Pocket>  (894) 
nan

>  <ATP_Site>  (894) 
nan

>  <Peripheral>  (894) 
nan

>  <Num_H_Atoms_ProtBoundConf>  (894) 
nan

>  <Num_Resolved_Atoms>  (894) 
nan

>  <Num_Not_Resolved_Atoms>  (894) 
nan

$$$$
CHEMBL1412746
     RDKit          3D

  0  0  0  0  0  0  0  0  0  0999 V3000
M  V30 BEGIN CTAB
M  V30 COUNTS 36 38 0 0 0
M  V30 BEGIN ATOM
M  V30 1 C 0.442008 -3.952402 3.776579 0
M  V30 2 C 0.669197 -4.671612 2.473946 0
M  V30 3 C -0.145427 -4.068955 1.353898 0
M  V30 4 C 0.182976 -2.632440 1.111973 0
M  V30 5 C -0.651556 -2.056000 -0.018623 0
M  V30 6 N -0.324110 -0.663951 -0.243390 0
M  V30 7 C 0.637904 -0.333679 -1.105401 0
M  V30 8 O 1.292801 -1.206079 -1.751126 0
M  V30 9 C 0.954779 0.992406 -1.323988 0
M  V30 10 C 1.955624 1.356954 -2.219678 0
M  V30 11 C 2.227671 2.697692 -2.396486 0
M  V30 12 C 1.569477 3.716865 -1.739866 0
M  V30 13 C 0.568923 3.341219 -0.845039 0
M  V30 14 C 0.295234 2.007650 -0.666346 0
M  V30 15 N -0.660672 1.636936 0.187908 0
M  V30 16 C -1.479751 2.316663 0.973444 0
M  V30 17 S -1.686004 4.054556 1.255380 0
M  V30 18 N -2.257463 1.471812 1.639301 0
M  V30 19 N -1.960559 0.211974 1.300144 0
M  V30 20 C -0.958372 0.343222 0.390696 0
M  V30 21 H 1.296068 -3.271174 4.036180 0
M  V30 22 H 0.344425 -4.663129 4.596682 0
M  V30 23 H -0.431485 -3.253308 3.675207 0
M  V30 24 H 0.337127 -5.715744 2.598553 0
M  V30 25 H 1.740141 -4.566287 2.203179 0
M  V30 26 H -1.200608 -4.268197 1.537462 0
M  V30 27 H 0.134209 -4.621706 0.427610 0
M  V30 28 H -0.011277 -1.978212 1.992129 0
M  V30 29 H 1.267179 -2.549587 0.895597 0
M  V30 30 H -0.499204 -2.654502 -0.939044 0
M  V30 31 H -1.722755 -2.093687 0.258987 0
M  V30 32 H 2.512925 0.604210 -2.769730 0
M  V30 33 H 3.015090 2.955388 -3.102739 0
M  V30 34 H 1.832268 4.751686 -1.924623 0
M  V30 35 H 0.090552 4.170089 -0.363065 0
M  V30 36 H -1.163672 4.464458 2.519273 0
M  V30 END ATOM
M  V30 BEGIN BOND
M  V30 1 1 1 2
M  V30 2 1 2 3
M  V30 3 1 3 4
M  V30 4 1 4 5
M  V30 5 1 5 6
M  V30 6 1 6 7
M  V30 7 2 7 8
M  V30 8 1 7 9
M  V30 9 2 9 10
M  V30 10 1 10 11
M  V30 11 2 11 12
M  V30 12 1 12 13
M  V30 13 2 13 14
M  V30 14 1 14 15
M  V30 15 1 15 16
M  V30 16 1 16 17
M  V30 17 2 16 18
M  V30 18 1 18 19
M  V30 19 2 19 20
M  V30 20 1 20 6
M  V30 21 1 14 9
M  V30 22 1 20 15
M  V30 23 1 1 21
M  V30 24 1 1 22
M  V30 25 1 1 23
M  V30 26 1 2 24
M  V30 27 1 2 25
M  V30 28 1 3 26
M  V30 29 1 3 27
M  V30 30 1 4 28
M  V30 31 1 4 29
M  V30 32 1 5 30
M  V30 33 1 5 31
M  V30 34 1 10 32
M  V30 35 1 11 33
M  V30 36 1 12 34
M  V30 37 1 13 35
M  V30 38 1 17 36
M  V30 END BOND
M  V30 END CTAB
M  END
>  <Dataset>  (895) 
ChEMBL_Kinases

>  <Ligand_Instance>  (895) 
nan

>  <PDB_ID>  (895) 
nan

>  <Standardized_SMILES>  (895) 
CCCCCn1c(=O)c2ccccc2n2c(S)nnc12

>  <Name>  (895) 
nan

>  <Pocket>  (895) 
nan

>  <ATP_Site>  (895) 
nan

>  <Peripheral>  (895) 
nan

>  <Num_H_Atoms_ProtBoundConf>  (895) 
nan

>  <Num_Resolved_Atoms>  (895) 
nan

>  <Num_Not_Resolved_Atoms>  (895) 
nan

$$$$
CHEMBL1412745
     RDKit          3D

  0  0  0  0  0  0  0  0  0  0999 V3000
M  V30 BEGIN CTAB
M  V30 COUNTS 47 49 0 0 0
M  V30 BEGIN ATOM
M  V30 1 C 2.133865 -5.119923 2.257760 0
M  V30 2 O 2.201811 -4.322933 1.096648 0
M  V30 3 C 2.158453 -2.950779 1.070183 0
M  V30 4 O 2.049019 -2.289867 2.147112 0
M  V30 5 C 2.241598 -2.289569 -0.221534 0
M  V30 6 N 2.358043 -2.816700 -1.453512 0
M  V30 7 C 2.404342 -1.885182 -2.415510 0
M  V30 8 C 2.513220 -1.859834 -3.789826 0
M  V30 9 C 2.530895 -0.670334 -4.512492 0
M  V30 10 C 2.435430 0.544919 -3.828415 0
M  V30 11 C 2.327541 0.534125 -2.471080 0
M  V30 12 C 2.310751 -0.662434 -1.758677 0
M  V30 13 C 2.209714 -0.922359 -0.392094 0
M  V30 14 N 2.094283 0.152149 0.571782 0
M  V30 15 C 0.682726 0.380476 0.704895 0
M  V30 16 O 0.132342 -0.464350 -0.083425 0
M  V30 17 C 0.138637 1.423932 1.614963 0
M  V30 18 N -1.303306 1.380240 1.508673 0
M  V30 19 C -1.900611 0.193054 2.065561 0
M  V30 20 C -1.633222 0.095092 3.554741 0
M  V30 21 C -2.065568 1.415152 4.185639 0
M  V30 22 C -3.577793 1.543068 3.984330 0
M  V30 23 C -3.788415 1.676860 2.477706 0
M  V30 24 C -3.402528 0.315732 1.884347 0
M  V30 25 H 2.393901 -4.576278 3.176753 0
M  V30 26 H 1.084269 -5.498396 2.400196 0
M  V30 27 H 2.767966 -6.036210 2.184157 0
M  V30 28 H 2.408642 -3.831178 -1.665569 0
M  V30 29 H 2.585968 -2.822875 -4.297685 0
M  V30 30 H 2.618703 -0.691719 -5.604663 0
M  V30 31 H 2.447257 1.478912 -4.378728 0
M  V30 32 H 2.253565 1.499102 -1.951823 0
M  V30 33 H 2.791717 0.733199 1.133391 0
M  V30 34 H 0.465275 2.404316 1.233268 0
M  V30 35 H 0.465140 1.326751 2.648350 0
M  V30 36 H -1.601590 1.401757 0.495287 0
M  V30 37 H -1.504063 -0.693815 1.537840 0
M  V30 38 H -0.592697 -0.161989 3.803604 0
M  V30 39 H -2.332197 -0.663431 3.964170 0
M  V30 40 H -1.839288 1.365064 5.266832 0
M  V30 41 H -1.514733 2.221994 3.676941 0
M  V30 42 H -4.007819 2.411896 4.494629 0
M  V30 43 H -4.025528 0.573798 4.255733 0
M  V30 44 H -3.110560 2.457734 2.092022 0
M  V30 45 H -4.827853 1.962028 2.220246 0
M  V30 46 H -3.943094 -0.472319 2.438166 0
M  V30 47 H -3.644119 0.266855 0.800708 0
M  V30 END ATOM
M  V30 BEGIN BOND
M  V30 1 1 1 2
M  V30 2 1 2 3
M  V30 3 2 3 4
M  V30 4 1 3 5
M  V30 5 1 5 6
M  V30 6 1 6 7
M  V30 7 2 7 8
M  V30 8 1 8 9
M  V30 9 2 9 10
M  V30 10 1 10 11
M  V30 11 2 11 12
M  V30 12 1 12 13
M  V30 13 1 13 14
M  V30 14 1 14 15
M  V30 15 2 15 16
M  V30 16 1 15 17
M  V30 17 1 17 18
M  V30 18 1 18 19
M  V30 19 1 19 20
M  V30 20 1 20 21
M  V30 21 1 21 22
M  V30 22 1 22 23
M  V30 23 1 23 24
M  V30 24 2 13 5
M  V30 25 1 24 19
M  V30 26 1 12 7
M  V30 27 1 1 25
M  V30 28 1 1 26
M  V30 29 1 1 27
M  V30 30 1 6 28
M  V30 31 1 8 29
M  V30 32 1 9 30
M  V30 33 1 10 31
M  V30 34 1 11 32
M  V30 35 1 14 33
M  V30 36 1 17 34
M  V30 37 1 17 35
M  V30 38 1 18 36
M  V30 39 1 19 37
M  V30 40 1 20 38
M  V30 41 1 20 39
M  V30 42 1 21 40
M  V30 43 1 21 41
M  V30 44 1 22 42
M  V30 45 1 22 43
M  V30 46 1 23 44
M  V30 47 1 23 45
M  V30 48 1 24 46
M  V30 49 1 24 47
M  V30 END BOND
M  V30 END CTAB
M  END
>  <Dataset>  (896) 
ChEMBL_Kinases

>  <Ligand_Instance>  (896) 
nan

>  <PDB_ID>  (896) 
nan

>  <Standardized_SMILES>  (896) 
COC(=O)c1[nH]c2ccccc2c1NC(=O)CNC1CCCCC1

>  <Name>  (896) 
nan

>  <Pocket>  (896) 
nan

>  <ATP_Site>  (896) 
nan

>  <Peripheral>  (896) 
nan

>  <Num_H_Atoms_ProtBoundConf>  (896) 
nan

>  <Num_Resolved_Atoms>  (896) 
nan

>  <Num_Not_Resolved_Atoms>  (896) 
nan

$$$$
CHEMBL1411358
     RDKit          3D

  0  0  0  0  0  0  0  0  0  0999 V3000
M  V30 BEGIN CTAB
M  V30 COUNTS 38 40 0 0 0
M  V30 BEGIN ATOM
M  V30 1 N 0.029925 -1.503586 6.085747 0
M  V30 2 C 0.054680 -1.226463 4.958114 0
M  V30 3 C 0.098634 -0.867258 3.561809 0
M  V30 4 N -0.020422 -1.827035 2.598206 0
M  V30 5 C 0.016294 -1.526581 1.293030 0
M  V30 6 N -0.109309 -2.539288 0.296324 0
M  V30 7 C -0.278590 -3.911066 0.684843 0
M  V30 8 C -1.174656 -4.696511 -0.222759 0
M  V30 9 C -1.296402 -4.148896 -1.597478 0
M  V30 10 C -0.139053 -3.287727 -2.038010 0
M  V30 11 C -0.059155 -2.128014 -1.104418 0
M  V30 12 N 0.176417 -0.231170 0.969065 0
M  V30 13 C 0.298389 0.752408 1.854054 0
M  V30 14 N 0.466362 2.111070 1.462238 0
M  V30 15 C 0.508986 2.456435 0.053973 0
M  V30 16 C 1.558971 3.542638 -0.170124 0
M  V30 17 O 1.509557 4.531309 0.789401 0
M  V30 18 C 1.771635 4.015677 2.043921 0
M  V30 19 C 0.594069 3.143442 2.470448 0
M  V30 20 N 0.258521 0.426462 3.157691 0
M  V30 21 H 0.740982 -4.381657 0.576477 0
M  V30 22 H -0.530128 -3.973424 1.750771 0
M  V30 23 H -0.878014 -5.757539 -0.242950 0
M  V30 24 H -2.199104 -4.659663 0.249661 0
M  V30 25 H -1.341225 -5.000377 -2.316754 0
M  V30 26 H -2.230823 -3.553805 -1.718016 0
M  V30 27 H -0.340770 -2.933394 -3.051839 0
M  V30 28 H 0.808654 -3.879933 -1.959619 0
M  V30 29 H -0.881561 -1.400643 -1.316946 0
M  V30 30 H 0.876997 -1.571621 -1.305732 0
M  V30 31 H -0.478915 2.785130 -0.328928 0
M  V30 32 H 0.822848 1.599071 -0.578827 0
M  V30 33 H 2.560776 3.118834 -0.347603 0
M  V30 34 H 1.267497 3.999172 -1.160674 0
M  V30 35 H 1.927951 4.851287 2.756808 0
M  V30 36 H 2.648593 3.344437 2.032799 0
M  V30 37 H 0.755077 2.716337 3.467672 0
M  V30 38 H -0.318970 3.790810 2.429806 0
M  V30 END ATOM
M  V30 BEGIN BOND
M  V30 1 3 1 2
M  V30 2 1 2 3
M  V30 3 2 3 4
M  V30 4 1 4 5
M  V30 5 1 5 6
M  V30 6 1 6 7
M  V30 7 1 7 8
M  V30 8 1 8 9
M  V30 9 1 9 10
M  V30 10 1 10 11
M  V30 11 2 5 12
M  V30 12 1 12 13
M  V30 13 1 13 14
M  V30 14 1 14 15
M  V30 15 1 15 16
M  V30 16 1 16 17
M  V30 17 1 17 18
M  V30 18 1 18 19
M  V30 19 2 13 20
M  V30 20 1 20 3
M  V30 21 1 11 6
M  V30 22 1 19 14
M  V30 23 1 7 21
M  V30 24 1 7 22
M  V30 25 1 8 23
M  V30 26 1 8 24
M  V30 27 1 9 25
M  V30 28 1 9 26
M  V30 29 1 10 27
M  V30 30 1 10 28
M  V30 31 1 11 29
M  V30 32 1 11 30
M  V30 33 1 15 31
M  V30 34 1 15 32
M  V30 35 1 16 33
M  V30 36 1 16 34
M  V30 37 1 18 35
M  V30 38 1 18 36
M  V30 39 1 19 37
M  V30 40 1 19 38
M  V30 END BOND
M  V30 END CTAB
M  END
>  <Dataset>  (897) 
ChEMBL_Kinases

>  <Ligand_Instance>  (897) 
nan

>  <PDB_ID>  (897) 
nan

>  <Standardized_SMILES>  (897) 
N#Cc1nc(N2CCCCC2)nc(N2CCOCC2)n1

>  <Name>  (897) 
nan

>  <Pocket>  (897) 
nan

>  <ATP_Site>  (897) 
nan

>  <Peripheral>  (897) 
nan

>  <Num_H_Atoms_ProtBoundConf>  (897) 
nan

>  <Num_Resolved_Atoms>  (897) 
nan

>  <Num_Not_Resolved_Atoms>  (897) 
nan

$$$$
CHEMBL1411379
     RDKit          3D

  0  0  0  0  0  0  0  0  0  0999 V3000
M  V30 BEGIN CTAB
M  V30 COUNTS 51 54 0 0 0
M  V30 BEGIN ATOM
M  V30 1 C 3.391932 -0.999201 -4.192296 0
M  V30 2 O 2.095651 -1.523692 -3.870549 0
M  V30 3 C 1.650727 -1.477316 -2.557114 0
M  V30 4 C 2.486366 -0.921446 -1.607432 0
M  V30 5 C 2.082790 -0.855620 -0.289167 0
M  V30 6 C 2.905333 -0.300918 0.664877 0
M  V30 7 O 4.019209 0.136873 0.319906 0
M  V30 8 N 2.391295 -0.294632 1.912232 0
M  V30 9 C 3.229203 0.285049 2.959531 0
M  V30 10 C 2.866833 1.746427 2.993617 0
M  V30 11 C 3.504307 2.700648 2.234802 0
M  V30 12 C 2.882548 3.898939 2.552794 0
M  V30 13 C 1.898364 3.606748 3.490156 0
M  V30 14 O 1.939677 2.322994 3.707764 0
M  V30 15 C 1.182116 -0.790286 2.181448 0
M  V30 16 O 0.824469 -0.719873 3.394250 0
M  V30 17 N 0.352901 -1.343759 1.250902 0
M  V30 18 C -0.919455 -1.825615 1.745664 0
M  V30 19 C -1.970853 -0.783365 1.675047 0
M  V30 20 O -1.768686 0.380450 1.235815 0
M  V30 21 C -3.303916 -1.104205 2.130576 0
M  V30 22 C -4.285522 -0.140325 2.067787 0
M  V30 23 C -5.592947 -0.365629 2.484731 0
M  V30 24 C -5.887644 -1.616247 2.976697 0
M  V30 25 Br -7.670687 -1.952544 3.554866 0
M  V30 26 C -4.915694 -2.594324 3.046728 0
M  V30 27 C -3.622316 -2.354428 2.628624 0
M  V30 28 C 0.833694 -1.365353 -0.000803 0
M  V30 29 C -0.009437 -1.921988 -0.938099 0
M  V30 30 C 0.404804 -1.982264 -2.252285 0
M  V30 31 O -0.349272 -2.514235 -3.271323 0
M  V30 32 C -1.625594 -3.069655 -3.161700 0
M  V30 33 H 3.551116 -0.958113 -5.268575 0
M  V30 34 H 4.175791 -1.536565 -3.649429 0
M  V30 35 H 3.419772 0.058451 -3.802443 0
M  V30 36 H 3.469257 -0.522927 -1.847632 0
M  V30 37 H 4.302193 0.144803 2.713065 0
M  V30 38 H 2.951597 -0.144266 3.954948 0
M  V30 39 H 4.305549 2.631014 1.532709 0
M  V30 40 H 3.137333 4.882236 2.130089 0
M  V30 41 H 1.238009 4.361375 3.930628 0
M  V30 42 H -1.170752 -2.742562 1.186235 0
M  V30 43 H -0.816154 -2.129826 2.834765 0
M  V30 44 H -4.070239 0.847076 1.683873 0
M  V30 45 H -6.332517 0.433969 2.413068 0
M  V30 46 H -5.224014 -3.547887 3.443711 0
M  V30 47 H -2.855272 -3.137416 2.687582 0
M  V30 48 H -0.975531 -2.314317 -0.729524 0
M  V30 49 H -2.207328 -2.672063 -2.315201 0
M  V30 50 H -1.528872 -4.187469 -3.101250 0
M  V30 51 H -2.142434 -2.853431 -4.140004 0
M  V30 END ATOM
M  V30 BEGIN BOND
M  V30 1 1 1 2
M  V30 2 1 2 3
M  V30 3 2 3 4
M  V30 4 1 4 5
M  V30 5 1 5 6
M  V30 6 2 6 7
M  V30 7 1 6 8
M  V30 8 1 8 9
M  V30 9 1 9 10
M  V30 10 2 10 11
M  V30 11 1 11 12
M  V30 12 2 12 13
M  V30 13 1 13 14
M  V30 14 1 8 15
M  V30 15 2 15 16
M  V30 16 1 15 17
M  V30 17 1 17 18
M  V30 18 1 18 19
M  V30 19 2 19 20
M  V30 20 1 19 21
M  V30 21 2 21 22
M  V30 22 1 22 23
M  V30 23 2 23 24
M  V30 24 1 24 25
M  V30 25 1 24 26
M  V30 26 2 26 27
M  V30 27 1 17 28
M  V30 28 1 28 29
M  V30 29 2 29 30
M  V30 30 1 30 31
M  V30 31 1 31 32
M  V30 32 1 30 3
M  V30 33 2 28 5
M  V30 34 1 14 10
M  V30 35 1 27 21
M  V30 36 1 1 33
M  V30 37 1 1 34
M  V30 38 1 1 35
M  V30 39 1 4 36
M  V30 40 1 9 37
M  V30 41 1 9 38
M  V30 42 1 11 39
M  V30 43 1 12 40
M  V30 44 1 13 41
M  V30 45 1 18 42
M  V30 46 1 18 43
M  V30 47 1 22 44
M  V30 48 1 23 45
M  V30 49 1 26 46
M  V30 50 1 27 47
M  V30 51 1 29 48
M  V30 52 1 32 49
M  V30 53 1 32 50
M  V30 54 1 32 51
M  V30 END BOND
M  V30 END CTAB
M  END
>  <Dataset>  (898) 
ChEMBL_Kinases

>  <Ligand_Instance>  (898) 
nan

>  <PDB_ID>  (898) 
nan

>  <Standardized_SMILES>  (898) 
COc1cc2c(=O)n(Cc3ccco3)c(=O)n(CC(=O)c3ccc(Br)cc3)c2cc1OC

>  <Name>  (898) 
nan

>  <Pocket>  (898) 
nan

>  <ATP_Site>  (898) 
nan

>  <Peripheral>  (898) 
nan

>  <Num_H_Atoms_ProtBoundConf>  (898) 
nan

>  <Num_Resolved_Atoms>  (898) 
nan

>  <Num_Not_Resolved_Atoms>  (898) 
nan

$$$$
CHEMBL1411430
     RDKit          3D

  0  0  0  0  0  0  0  0  0  0999 V3000
M  V30 BEGIN CTAB
M  V30 COUNTS 67 71 0 0 0
M  V30 BEGIN ATOM
M  V30 1 C 2.768366 -1.658898 6.869578 0
M  V30 2 O 2.797160 -0.568415 5.972588 0
M  V30 3 C 2.575521 -0.848194 4.621773 0
M  V30 4 C 2.334640 -2.108930 4.130703 0
M  V30 5 C 2.127970 -2.251472 2.768105 0
M  V30 6 O 1.908358 -3.633139 2.545565 0
M  V30 7 C 2.152454 -1.162457 1.859654 0
M  V30 8 C 1.962475 -1.668244 0.540254 0
M  V30 9 C 1.515664 -0.876991 -0.629506 0
M  V30 10 C 0.142788 -0.298149 -0.604527 0
M  V30 11 N -0.231487 0.716127 0.295182 0
M  V30 12 C -1.703308 0.662011 0.463046 0
M  V30 13 C -2.439389 1.601318 -0.418929 0
M  V30 14 N -1.871598 1.708542 -1.738150 0
M  V30 15 C -2.472415 1.336937 -2.961515 0
M  V30 16 C -3.691163 0.703501 -3.046443 0
M  V30 17 C -4.247619 0.361213 -4.251624 0
M  V30 18 C -3.624390 0.628411 -5.453626 0
M  V30 19 C -2.394789 1.268300 -5.349023 0
M  V30 20 C -1.828728 1.615670 -4.143176 0
M  V30 21 C -0.569857 2.255283 -1.639902 0
M  V30 22 C 0.008157 2.057670 -0.275160 0
M  V30 23 C 0.859490 -2.810722 0.635211 0
M  V30 24 C 1.120695 -4.012981 0.008621 0
M  V30 25 C 0.191586 -5.026006 0.079523 0
M  V30 26 C -0.982213 -4.835068 0.769487 0
M  V30 27 C -1.207038 -3.640872 1.373839 0
M  V30 28 C -0.326941 -2.579565 1.347844 0
M  V30 29 O -2.459421 -3.741055 1.985323 0
M  V30 30 C -3.189597 -4.805268 1.354947 0
M  V30 31 O -2.086722 -5.658331 1.009985 0
M  V30 32 C 2.405018 0.026458 2.482889 0
M  V30 33 O 2.439411 1.043489 1.597919 0
M  V30 34 C 2.694545 2.348456 2.068692 0
M  V30 35 C 2.617931 0.248160 3.819268 0
M  V30 36 H 1.780745 -2.183867 6.877541 0
M  V30 37 H 3.532409 -2.423714 6.628248 0
M  V30 38 H 2.901223 -1.228308 7.892514 0
M  V30 39 H 2.339855 -2.853389 4.908367 0
M  V30 40 H 2.668714 -4.295083 2.493014 0
M  V30 41 H 2.848713 -2.253620 0.240861 0
M  V30 42 H 1.535945 -1.528576 -1.560832 0
M  V30 43 H 2.285789 -0.100484 -0.943543 0
M  V30 44 H -0.119676 0.130128 -1.643571 0
M  V30 45 H -0.643124 -1.113651 -0.546598 0
M  V30 46 H -2.056119 -0.377876 0.203474 0
M  V30 47 H -2.002550 0.807956 1.511290 0
M  V30 48 H -2.414001 2.629799 0.040705 0
M  V30 49 H -3.521923 1.303763 -0.475504 0
M  V30 50 H -4.243351 0.457366 -2.175058 0
M  V30 51 H -5.207473 -0.138888 -4.320985 0
M  V30 52 H -4.060498 0.360412 -6.391451 0
M  V30 53 H -1.873929 1.495130 -6.281971 0
M  V30 54 H -0.867785 2.110518 -4.197896 0
M  V30 55 H 0.142413 1.960759 -2.443589 0
M  V30 56 H -0.684649 3.381941 -1.755400 0
M  V30 57 H 1.099418 2.221685 -0.269802 0
M  V30 58 H -0.431516 2.770356 0.448087 0
M  V30 59 H 2.059548 -4.147757 -0.536423 0
M  V30 60 H 0.430099 -5.941941 -0.419115 0
M  V30 61 H -0.472942 -1.617169 1.816646 0
M  V30 62 H -3.888246 -5.287624 2.039218 0
M  V30 63 H -3.628532 -4.483454 0.383594 0
M  V30 64 H 3.651102 2.400354 2.637982 0
M  V30 65 H 2.895265 2.964721 1.144036 0
M  V30 66 H 1.859529 2.823024 2.581794 0
M  V30 67 H 2.800758 1.260484 4.130728 0
M  V30 END ATOM
M  V30 BEGIN BOND
M  V30 1 1 1 2
M  V30 2 1 2 3
M  V30 3 2 3 4
M  V30 4 1 4 5
M  V30 5 1 5 6
M  V30 6 2 5 7
M  V30 7 1 7 8
M  V30 8 1 8 9
M  V30 9 1 9 10
M  V30 10 1 10 11
M  V30 11 1 11 12
M  V30 12 1 12 13
M  V30 13 1 13 14
M  V30 14 1 14 15
M  V30 15 2 15 16
M  V30 16 1 16 17
M  V30 17 2 17 18
M  V30 18 1 18 19
M  V30 19 2 19 20
M  V30 20 1 14 21
M  V30 21 1 21 22
M  V30 22 1 8 23
M  V30 23 2 23 24
M  V30 24 1 24 25
M  V30 25 2 25 26
M  V30 26 1 26 27
M  V30 27 2 27 28
M  V30 28 1 27 29
M  V30 29 1 29 30
M  V30 30 1 30 31
M  V30 31 1 7 32
M  V30 32 1 32 33
M  V30 33 1 33 34
M  V30 34 2 32 35
M  V30 35 1 35 3
M  V30 36 1 22 11
M  V30 37 1 28 23
M  V30 38 1 20 15
M  V30 39 1 31 26
M  V30 40 1 1 36
M  V30 41 1 1 37
M  V30 42 1 1 38
M  V30 43 1 4 39
M  V30 44 1 6 40
M  V30 45 1 8 41
M  V30 46 1 9 42
M  V30 47 1 9 43
M  V30 48 1 10 44
M  V30 49 1 10 45
M  V30 50 1 12 46
M  V30 51 1 12 47
M  V30 52 1 13 48
M  V30 53 1 13 49
M  V30 54 1 16 50
M  V30 55 1 17 51
M  V30 56 1 18 52
M  V30 57 1 19 53
M  V30 58 1 20 54
M  V30 59 1 21 55
M  V30 60 1 21 56
M  V30 61 1 22 57
M  V30 62 1 22 58
M  V30 63 1 24 59
M  V30 64 1 25 60
M  V30 65 1 28 61
M  V30 66 1 30 62
M  V30 67 1 30 63
M  V30 68 1 34 64
M  V30 69 1 34 65
M  V30 70 1 34 66
M  V30 71 1 35 67
M  V30 END BOND
M  V30 END CTAB
M  END
>  <Dataset>  (899) 
ChEMBL_Kinases

>  <Ligand_Instance>  (899) 
nan

>  <PDB_ID>  (899) 
nan

>  <Standardized_SMILES>  (899) 
COc1cc(O)c(C(CCN2CCN(c3ccccc3)CC2)c2ccc3c(c2)OCO3)c(OC)c1

>  <Name>  (899) 
nan

>  <Pocket>  (899) 
nan

>  <ATP_Site>  (899) 
nan

>  <Peripheral>  (899) 
nan

>  <Num_H_Atoms_ProtBoundConf>  (899) 
nan

>  <Num_Resolved_Atoms>  (899) 
nan

>  <Num_Not_Resolved_Atoms>  (899) 
nan

$$$$
CHEMBL1411449
     RDKit          3D

  0  0  0  0  0  0  0  0  0  0999 V3000
M  V30 BEGIN CTAB
M  V30 COUNTS 40 43 0 0 0
M  V30 BEGIN ATOM
M  V30 1 O -0.564828 -0.701403 2.173273 0
M  V30 2 C -0.296853 -0.315502 0.984563 0
M  V30 3 C 0.345399 1.021483 0.795922 0
M  V30 4 O 0.568864 1.681500 1.988362 0
M  V30 5 N 0.993934 2.961163 2.051897 0
M  V30 6 N 0.807137 3.481530 3.262551 0
M  V30 7 N 1.239359 4.745077 3.283874 0
M  V30 8 C 1.720728 5.072080 2.072014 0
M  V30 9 C 2.295891 6.137160 1.395303 0
M  V30 10 C 2.664690 6.033390 0.061582 0
M  V30 11 C 2.469430 4.849192 -0.649636 0
M  V30 12 C 2.904413 4.860424 -2.070494 0
M  V30 13 F 3.096322 3.553704 -2.530244 0
M  V30 14 F 4.186768 5.423731 -2.077007 0
M  V30 15 F 2.055993 5.553049 -2.896594 0
M  V30 16 C 1.894014 3.771544 0.013526 0
M  V30 17 C 1.550696 3.927093 1.322532 0
M  V30 18 N -0.587950 -1.111585 -0.156789 0
M  V30 19 C -1.196973 -2.354284 0.184611 0
M  V30 20 N -2.556290 -2.428296 0.264755 0
M  V30 21 N -2.878695 -3.684628 0.596688 0
M  V30 22 C -1.730274 -4.373564 0.718837 0
M  V30 23 C -1.610625 -5.786537 1.070401 0
M  V30 24 C -2.714262 -6.566926 1.317446 0
M  V30 25 C -2.633463 -7.917215 1.654904 0
M  V30 26 C -1.367503 -8.492660 1.743033 0
M  V30 27 C -0.254393 -7.703405 1.493314 0
M  V30 28 C -0.357125 -6.358894 1.158308 0
M  V30 29 O -0.748628 -3.536050 0.462893 0
M  V30 30 H -0.160417 1.632197 0.055725 0
M  V30 31 H 1.364740 0.765605 0.377687 0
M  V30 32 H 2.426568 7.038306 1.995560 0
M  V30 33 H 3.107562 6.931104 -0.370602 0
M  V30 34 H 1.761919 2.887561 -0.562025 0
M  V30 35 H -0.361840 -0.777080 -1.102717 0
M  V30 36 H -3.692633 -6.086292 1.240260 0
M  V30 37 H -3.539381 -8.496271 1.842150 0
M  V30 38 H -1.263134 -9.552889 2.006137 0
M  V30 39 H 0.724175 -8.173769 1.567894 0
M  V30 40 H 0.540147 -5.758088 0.965934 0
M  V30 END ATOM
M  V30 BEGIN BOND
M  V30 1 2 1 2
M  V30 2 1 2 3
M  V30 3 1 3 4
M  V30 4 1 4 5
M  V30 5 1 5 6
M  V30 6 2 6 7
M  V30 7 1 7 8
M  V30 8 2 8 9
M  V30 9 1 9 10
M  V30 10 2 10 11
M  V30 11 1 11 12
M  V30 12 1 12 13
M  V30 13 1 12 14
M  V30 14 1 12 15
M  V30 15 1 11 16
M  V30 16 2 16 17
M  V30 17 1 2 18
M  V30 18 1 18 19
M  V30 19 2 19 20
M  V30 20 1 20 21
M  V30 21 2 21 22
M  V30 22 1 22 23
M  V30 23 2 23 24
M  V30 24 1 24 25
M  V30 25 2 25 26
M  V30 26 1 26 27
M  V30 27 2 27 28
M  V30 28 1 22 29
M  V30 29 1 17 5
M  V30 30 1 29 19
M  V30 31 1 17 8
M  V30 32 1 28 23
M  V30 33 1 3 30
M  V30 34 1 3 31
M  V30 35 1 9 32
M  V30 36 1 10 33
M  V30 37 1 16 34
M  V30 38 1 18 35
M  V30 39 1 24 36
M  V30 40 1 25 37
M  V30 41 1 26 38
M  V30 42 1 27 39
M  V30 43 1 28 40
M  V30 END BOND
M  V30 END CTAB
M  END
>  <Dataset>  (900) 
ChEMBL_Kinases

>  <Ligand_Instance>  (900) 
nan

>  <PDB_ID>  (900) 
nan

>  <Standardized_SMILES>  (900) 
O=C(COn1nnc2ccc(C(F)(F)F)cc21)Nc1nnc(-c2ccccc2)o1

>  <Name>  (900) 
nan

>  <Pocket>  (900) 
nan

>  <ATP_Site>  (900) 
nan

>  <Peripheral>  (900) 
nan

>  <Num_H_Atoms_ProtBoundConf>  (900) 
nan

>  <Num_Resolved_Atoms>  (900) 
nan

>  <Num_Not_Resolved_Atoms>  (900) 
nan

$$$$
CHEMBL1411575
     RDKit          3D

  0  0  0  0  0  0  0  0  0  0999 V3000
M  V30 BEGIN CTAB
M  V30 COUNTS 55 57 0 0 0
M  V30 BEGIN ATOM
M  V30 1 C 0.509166 -4.547013 3.150959 0
M  V30 2 C 1.486526 -5.484271 2.522130 0
M  V30 3 O 1.964714 -5.027820 1.244620 0
M  V30 4 C 2.623027 -3.816787 1.251673 0
M  V30 5 O 2.513548 -3.611397 2.487176 0
M  V30 6 C 3.345258 -2.575597 0.992716 0
M  V30 7 C 3.551747 -1.762101 2.238408 0
M  V30 8 C 2.361850 -1.039333 2.752277 0
M  V30 9 C 1.424000 -0.484053 1.740936 0
M  V30 10 N 1.848215 -0.768531 0.383627 0
M  V30 11 C 1.323394 0.021152 -0.674547 0
M  V30 12 O 1.519288 -0.014213 -1.897411 0
M  V30 13 C 0.378646 1.126532 -0.608285 0
M  V30 14 C 0.800262 2.413683 -0.456209 0
M  V30 15 N -0.104309 3.413214 -0.399891 0
M  V30 16 C 0.392419 4.778176 -0.236091 0
M  V30 17 C -1.447636 3.265245 -0.482314 0
M  V30 18 O -2.210230 4.259430 -0.419444 0
M  V30 19 C -1.855773 1.955871 -0.635948 0
M  V30 20 C -3.228106 1.721111 -0.729031 0
M  V30 21 C -3.670728 0.413289 -0.884590 0
M  V30 22 O -5.035443 0.177191 -0.977467 0
M  V30 23 C -5.953728 1.233539 -0.916389 0
M  V30 24 C -2.803373 -0.664579 -0.950689 0
M  V30 25 O -3.346484 -1.933205 -1.107253 0
M  V30 26 C -2.522042 -3.081750 -1.181945 0
M  V30 27 C -1.459901 -0.368064 -0.852783 0
M  V30 28 C -0.981019 0.905600 -0.698900 0
M  V30 29 C 2.756818 -1.759854 -0.131739 0
M  V30 30 H 0.893122 -4.126486 4.081653 0
M  V30 31 H 0.184255 -3.726263 2.479946 0
M  V30 32 H -0.400877 -5.150046 3.410928 0
M  V30 33 H 2.346741 -5.609139 3.241551 0
M  V30 34 H 1.089720 -6.494032 2.389156 0
M  V30 35 H 4.371325 -2.872717 0.664538 0
M  V30 36 H 4.371559 -1.032559 2.047616 0
M  V30 37 H 3.927836 -2.444012 3.031584 0
M  V30 38 H 1.804195 -1.639674 3.508791 0
M  V30 39 H 2.763757 -0.169046 3.354202 0
M  V30 40 H 0.424666 -0.990697 1.857337 0
M  V30 41 H 1.267048 0.613436 1.875661 0
M  V30 42 H 1.852456 2.667730 -0.377624 0
M  V30 43 H 1.332446 4.724951 0.317569 0
M  V30 44 H 0.511421 5.258595 -1.234153 0
M  V30 45 H -0.372436 5.377141 0.302717 0
M  V30 46 H -3.898226 2.544584 -0.678839 0
M  V30 47 H -6.949248 0.861529 -1.263744 0
M  V30 48 H -6.127779 1.563623 0.129602 0
M  V30 49 H -5.665038 2.063009 -1.577581 0
M  V30 50 H -2.386469 -3.366363 -2.244947 0
M  V30 51 H -3.153458 -3.910041 -0.745007 0
M  V30 52 H -1.608673 -3.031025 -0.590078 0
M  V30 53 H -0.768958 -1.198523 -0.902626 0
M  V30 54 H 3.607739 -1.182612 -0.593064 0
M  V30 55 H 2.347852 -2.417763 -0.901539 0
M  V30 END ATOM
M  V30 BEGIN BOND
M  V30 1 1 1 2
M  V30 2 1 2 3
M  V30 3 1 3 4
M  V30 4 2 4 5
M  V30 5 1 4 6
M  V30 6 1 6 7
M  V30 7 1 7 8
M  V30 8 1 8 9
M  V30 9 1 9 10
M  V30 10 1 10 11
M  V30 11 2 11 12
M  V30 12 1 11 13
M  V30 13 2 13 14
M  V30 14 1 14 15
M  V30 15 1 15 16
M  V30 16 1 15 17
M  V30 17 2 17 18
M  V30 18 1 17 19
M  V30 19 2 19 20
M  V30 20 1 20 21
M  V30 21 1 21 22
M  V30 22 1 22 23
M  V30 23 2 21 24
M  V30 24 1 24 25
M  V30 25 1 25 26
M  V30 26 1 24 27
M  V30 27 2 27 28
M  V30 28 1 10 29
M  V30 29 1 29 6
M  V30 30 1 28 13
M  V30 31 1 28 19
M  V30 32 1 1 30
M  V30 33 1 1 31
M  V30 34 1 1 32
M  V30 35 1 2 33
M  V30 36 1 2 34
M  V30 37 1 6 35
M  V30 38 1 7 36
M  V30 39 1 7 37
M  V30 40 1 8 38
M  V30 41 1 8 39
M  V30 42 1 9 40
M  V30 43 1 9 41
M  V30 44 1 14 42
M  V30 45 1 16 43
M  V30 46 1 16 44
M  V30 47 1 16 45
M  V30 48 1 20 46
M  V30 49 1 23 47
M  V30 50 1 23 48
M  V30 51 1 23 49
M  V30 52 1 26 50
M  V30 53 1 26 51
M  V30 54 1 26 52
M  V30 55 1 27 53
M  V30 56 1 29 54
M  V30 57 1 29 55
M  V30 END BOND
M  V30 END CTAB
M  END
>  <Dataset>  (901) 
ChEMBL_Kinases

>  <Ligand_Instance>  (901) 
nan

>  <PDB_ID>  (901) 
nan

>  <Standardized_SMILES>  (901) 
CCOC(=O)C1CCCN(C(=O)c2cn(C)c(=O)c3cc(OC)c(OC)cc23)C1

>  <Name>  (901) 
nan

>  <Pocket>  (901) 
nan

>  <ATP_Site>  (901) 
nan

>  <Peripheral>  (901) 
nan

>  <Num_H_Atoms_ProtBoundConf>  (901) 
nan

>  <Num_Resolved_Atoms>  (901) 
nan

>  <Num_Not_Resolved_Atoms>  (901) 
nan

$$$$
CHEMBL1411589
     RDKit          3D

  0  0  0  0  0  0  0  0  0  0999 V3000
M  V30 BEGIN CTAB
M  V30 COUNTS 45 47 0 0 0
M  V30 BEGIN ATOM
M  V30 1 C 1.256202 -4.742805 1.965490 0
M  V30 2 C 0.933457 -3.658337 0.965021 0
M  V30 3 C 0.517014 -4.224317 -0.366975 0
M  V30 4 C 1.682094 -4.641244 -1.220089 0
M  V30 5 C 2.609325 -3.436424 -1.366249 0
M  V30 6 C 3.133879 -3.139423 0.008786 0
M  V30 7 C 2.021414 -2.627065 0.863215 0
M  V30 8 N 1.439757 -1.390018 0.460813 0
M  V30 9 C 1.437540 -0.252049 1.313295 0
M  V30 10 O 1.966984 -0.374886 2.435544 0
M  V30 11 C 0.804383 1.010542 0.811993 0
M  V30 12 C 0.935723 2.053435 1.898959 0
M  V30 13 S 0.241877 3.608407 1.481148 0
M  V30 14 O 0.955181 4.139898 0.258346 0
M  V30 15 O 0.548097 4.557784 2.604537 0
M  V30 16 C -1.462559 3.517339 1.136198 0
M  V30 17 C -2.027304 3.873224 -0.072266 0
M  V30 18 C -3.383441 3.791600 -0.320828 0
M  V30 19 C -4.195582 3.331322 0.696265 0
M  V30 20 C -3.709979 2.957926 1.926354 0
M  V30 21 N -4.226467 2.482267 3.091671 0
M  V30 22 O -3.251282 2.302683 3.945725 0
M  V30 23 N -2.130921 2.636105 3.397218 0
M  V30 24 C -2.337354 3.062228 2.116474 0
M  V30 25 H 1.826443 -4.260329 2.790586 0
M  V30 26 H 0.301054 -5.100882 2.390471 0
M  V30 27 H 1.842466 -5.563466 1.497725 0
M  V30 28 H 0.039028 -3.109843 1.365505 0
M  V30 29 H -0.081958 -3.503287 -0.920706 0
M  V30 30 H -0.076086 -5.150851 -0.158655 0
M  V30 31 H 1.281910 -4.846849 -2.239724 0
M  V30 32 H 2.224720 -5.512271 -0.826439 0
M  V30 33 H 1.997062 -2.580365 -1.715684 0
M  V30 34 H 3.438851 -3.671730 -2.065842 0
M  V30 35 H 4.037525 -2.523357 0.014963 0
M  V30 36 H 3.433999 -4.120170 0.439286 0
M  V30 37 H 2.437538 -2.510277 1.906320 0
M  V30 38 H 0.997975 -1.297860 -0.483431 0
M  V30 39 H 1.373318 1.287383 -0.098113 0
M  V30 40 H -0.218309 0.776860 0.519631 0
M  V30 41 H 2.043853 2.228318 2.009492 0
M  V30 42 H 0.601095 1.677742 2.878792 0
M  V30 43 H -1.375805 4.231976 -0.858477 0
M  V30 44 H -3.789198 4.080426 -1.282987 0
M  V30 45 H -5.264683 3.257634 0.526788 0
M  V30 END ATOM
M  V30 BEGIN BOND
M  V30 1 1 1 2
M  V30 2 1 2 3
M  V30 3 1 3 4
M  V30 4 1 4 5
M  V30 5 1 5 6
M  V30 6 1 6 7
M  V30 7 1 7 8
M  V30 8 1 8 9
M  V30 9 2 9 10
M  V30 10 1 9 11
M  V30 11 1 11 12
M  V30 12 1 12 13
M  V30 13 2 13 14
M  V30 14 2 13 15
M  V30 15 1 13 16
M  V30 16 2 16 17
M  V30 17 1 17 18
M  V30 18 2 18 19
M  V30 19 1 19 20
M  V30 20 2 20 21
M  V30 21 1 21 22
M  V30 22 1 22 23
M  V30 23 2 23 24
M  V30 24 1 7 2
M  V30 25 1 24 16
M  V30 26 1 24 20
M  V30 27 1 1 25
M  V30 28 1 1 26
M  V30 29 1 1 27
M  V30 30 1 2 28
M  V30 31 1 3 29
M  V30 32 1 3 30
M  V30 33 1 4 31
M  V30 34 1 4 32
M  V30 35 1 5 33
M  V30 36 1 5 34
M  V30 37 1 6 35
M  V30 38 1 6 36
M  V30 39 1 7 37
M  V30 40 1 8 38
M  V30 41 1 11 39
M  V30 42 1 11 40
M  V30 43 1 12 41
M  V30 44 1 12 42
M  V30 45 1 17 43
M  V30 46 1 18 44
M  V30 47 1 19 45
M  V30 END BOND
M  V30 END CTAB
M  END
>  <Dataset>  (902) 
ChEMBL_Kinases

>  <Ligand_Instance>  (902) 
nan

>  <PDB_ID>  (902) 
nan

>  <Standardized_SMILES>  (902) 
CC1CCCCC1NC(=O)CCS(=O)(=O)c1cccc2nonc12

>  <Name>  (902) 
nan

>  <Pocket>  (902) 
nan

>  <ATP_Site>  (902) 
nan

>  <Peripheral>  (902) 
nan

>  <Num_H_Atoms_ProtBoundConf>  (902) 
nan

>  <Num_Resolved_Atoms>  (902) 
nan

>  <Num_Not_Resolved_Atoms>  (902) 
nan

$$$$
CHEMBL1411716
     RDKit          3D

  0  0  0  0  0  0  0  0  0  0999 V3000
M  V30 BEGIN CTAB
M  V30 COUNTS 40 41 0 0 0
M  V30 BEGIN ATOM
M  V30 1 C -1.836024 -6.375213 3.052618 0
M  V30 2 S -0.304885 -6.188625 2.078047 0
M  V30 3 C 0.063045 -4.462463 1.795762 0
M  V30 4 C -0.427166 -3.812064 0.681646 0
M  V30 5 C -0.123147 -2.480690 0.496396 0
M  V30 6 C 0.649156 -1.722020 1.351167 0
M  V30 7 C 0.964148 -0.312968 1.152471 0
M  V30 8 O 1.714008 0.161695 2.073205 0
M  V30 9 C 0.443703 0.439646 -0.010945 0
M  V30 10 C 1.028133 -0.227680 -1.240828 0
M  V30 11 C -1.066393 0.341141 -0.103387 0
M  V30 12 N 0.811342 1.802611 -0.028175 0
M  V30 13 C 0.469413 2.520103 -1.225582 0
M  V30 14 C 1.145731 3.878921 -1.092191 0
M  V30 15 O 2.126588 3.917051 -0.127766 0
M  V30 16 C 1.672828 3.647335 1.164757 0
M  V30 17 C 0.592659 2.586484 1.144055 0
M  V30 18 C 1.097240 -2.447909 2.435742 0
M  V30 19 C 0.844417 -3.774996 2.700731 0
M  V30 20 H -1.792641 -5.573586 3.844522 0
M  V30 21 H -2.728801 -6.162251 2.454851 0
M  V30 22 H -1.860500 -7.336833 3.582293 0
M  V30 23 H -1.030045 -4.381559 0.003128 0
M  V30 24 H -0.539429 -2.065705 -0.387069 0
M  V30 25 H 0.281023 -0.488531 -1.992596 0
M  V30 26 H 1.854454 0.414958 -1.669550 0
M  V30 27 H 1.580430 -1.179122 -0.987351 0
M  V30 28 H -1.435337 0.023896 -1.083856 0
M  V30 29 H -1.501313 -0.236632 0.759263 0
M  V30 30 H -1.476526 1.371695 0.046980 0
M  V30 31 H 0.687547 1.995446 -2.142116 0
M  V30 32 H -0.618768 2.726399 -1.196881 0
M  V30 33 H 1.637876 4.091468 -2.058414 0
M  V30 34 H 0.418148 4.698372 -0.880849 0
M  V30 35 H 2.533445 3.241881 1.730250 0
M  V30 36 H 1.286851 4.554755 1.645175 0
M  V30 37 H -0.360672 3.163126 0.941863 0
M  V30 38 H 0.444229 2.022087 2.034353 0
M  V30 39 H 1.722765 -1.950863 3.187117 0
M  V30 40 H 1.235946 -4.267807 3.576994 0
M  V30 END ATOM
M  V30 BEGIN BOND
M  V30 1 1 1 2
M  V30 2 1 2 3
M  V30 3 2 3 4
M  V30 4 1 4 5
M  V30 5 2 5 6
M  V30 6 1 6 7
M  V30 7 2 7 8
M  V30 8 1 7 9
M  V30 9 1 9 10
M  V30 10 1 9 11
M  V30 11 1 9 12
M  V30 12 1 12 13
M  V30 13 1 13 14
M  V30 14 1 14 15
M  V30 15 1 15 16
M  V30 16 1 16 17
M  V30 17 1 6 18
M  V30 18 2 18 19
M  V30 19 1 19 3
M  V30 20 1 17 12
M  V30 21 1 1 20
M  V30 22 1 1 21
M  V30 23 1 1 22
M  V30 24 1 4 23
M  V30 25 1 5 24
M  V30 26 1 10 25
M  V30 27 1 10 26
M  V30 28 1 10 27
M  V30 29 1 11 28
M  V30 30 1 11 29
M  V30 31 1 11 30
M  V30 32 1 13 31
M  V30 33 1 13 32
M  V30 34 1 14 33
M  V30 35 1 14 34
M  V30 36 1 16 35
M  V30 37 1 16 36
M  V30 38 1 17 37
M  V30 39 1 17 38
M  V30 40 1 18 39
M  V30 41 1 19 40
M  V30 END BOND
M  V30 END CTAB
M  END
>  <Dataset>  (903) 
ChEMBL_Kinases

>  <Ligand_Instance>  (903) 
nan

>  <PDB_ID>  (903) 
nan

>  <Standardized_SMILES>  (903) 
CSc1ccc(C(=O)C(C)(C)N2CCOCC2)cc1

>  <Name>  (903) 
nan

>  <Pocket>  (903) 
nan

>  <ATP_Site>  (903) 
nan

>  <Peripheral>  (903) 
nan

>  <Num_H_Atoms_ProtBoundConf>  (903) 
nan

>  <Num_Resolved_Atoms>  (903) 
nan

>  <Num_Not_Resolved_Atoms>  (903) 
nan

$$$$
CHEMBL1411719
     RDKit          3D

  0  0  0  0  0  0  0  0  0  0999 V3000
M  V30 BEGIN CTAB
M  V30 COUNTS 48 51 0 0 0
M  V30 BEGIN ATOM
M  V30 1 O 1.490926 -0.306683 3.348264 0
M  V30 2 C 1.123172 -0.831804 2.254111 0
M  V30 3 C 0.980922 -0.084725 1.009839 0
M  V30 4 C 2.052028 0.042734 0.136849 0
M  V30 5 N 1.604963 0.776331 -0.899608 0
M  V30 6 C 2.151506 1.276054 -2.118977 0
M  V30 7 C 2.430861 2.621206 -2.321675 0
M  V30 8 C 2.961623 3.016961 -3.540387 0
M  V30 9 C 3.215809 2.090356 -4.554778 0
M  V30 10 C 2.927316 0.743242 -4.329222 0
M  V30 11 C 2.391438 0.334825 -3.102181 0
M  V30 12 N 0.321367 1.089699 -0.683311 0
M  V30 13 C -0.088258 0.571536 0.486314 0
M  V30 14 C -1.404141 0.667154 1.109794 0
M  V30 15 C -2.444745 0.436122 0.205400 0
M  V30 16 C -3.748481 0.499531 0.680251 0
M  V30 17 C -4.024935 0.781474 2.004436 0
M  V30 18 C -2.983537 1.006450 2.881122 0
M  V30 19 N -3.242996 1.298403 4.248482 0 CHG=1 VAL=4
M  V30 20 O -2.294483 1.498976 5.027197 0
M  V30 21 O -4.535627 1.356109 4.695752 0 CHG=-1 VAL=1
M  V30 22 C -1.687452 0.944507 2.414047 0
M  V30 23 N 0.833101 -2.233877 2.244662 0
M  V30 24 C 0.405855 -2.907106 1.028113 0
M  V30 25 C -0.434641 -4.124844 1.330340 0
M  V30 26 C -1.235083 -3.765148 2.588103 0
M  V30 27 C -0.249472 -3.865318 3.743672 0
M  V30 28 C 0.953453 -3.033857 3.442369 0
M  V30 29 H 3.064011 -0.283004 0.106408 0
M  V30 30 H 2.229909 3.318830 -1.533200 0
M  V30 31 H 3.194953 4.060911 -3.740394 0
M  V30 32 H 3.632539 2.389421 -5.516152 0
M  V30 33 H 3.142688 0.065995 -5.147098 0
M  V30 34 H 2.181240 -0.726173 -2.968511 0
M  V30 35 H -2.373596 0.204944 -0.858185 0
M  V30 36 H -4.608573 0.327564 0.019275 0
M  V30 37 H -5.043410 0.820826 2.328981 0
M  V30 38 H -0.851120 1.109595 3.047080 0
M  V30 39 H 1.275095 -3.171420 0.386692 0
M  V30 40 H -0.253612 -2.176146 0.492982 0
M  V30 41 H -1.098641 -4.345743 0.485276 0
M  V30 42 H 0.186614 -4.998173 1.615494 0
M  V30 43 H -1.550474 -2.702529 2.492199 0
M  V30 44 H -2.074126 -4.469627 2.731787 0
M  V30 45 H 0.043809 -4.927466 3.825449 0
M  V30 46 H -0.760272 -3.574883 4.697413 0
M  V30 47 H 1.073799 -2.320383 4.309567 0
M  V30 48 H 1.862703 -3.668059 3.390686 0
M  V30 END ATOM
M  V30 BEGIN BOND
M  V30 1 2 1 2
M  V30 2 1 2 3
M  V30 3 2 3 4
M  V30 4 1 4 5
M  V30 5 1 5 6
M  V30 6 2 6 7
M  V30 7 1 7 8
M  V30 8 2 8 9
M  V30 9 1 9 10
M  V30 10 2 10 11
M  V30 11 1 5 12
M  V30 12 2 12 13
M  V30 13 1 13 14
M  V30 14 2 14 15
M  V30 15 1 15 16
M  V30 16 2 16 17
M  V30 17 1 17 18
M  V30 18 1 18 19
M  V30 19 2 19 20
M  V30 20 1 19 21
M  V30 21 2 18 22
M  V30 22 1 2 23
M  V30 23 1 23 24
M  V30 24 1 24 25
M  V30 25 1 25 26
M  V30 26 1 26 27
M  V30 27 1 27 28
M  V30 28 1 13 3
M  V30 29 1 22 14
M  V30 30 1 28 23
M  V30 31 1 11 6
M  V30 32 1 4 29
M  V30 33 1 7 30
M  V30 34 1 8 31
M  V30 35 1 9 32
M  V30 36 1 10 33
M  V30 37 1 11 34
M  V30 38 1 15 35
M  V30 39 1 16 36
M  V30 40 1 17 37
M  V30 41 1 22 38
M  V30 42 1 24 39
M  V30 43 1 24 40
M  V30 44 1 25 41
M  V30 45 1 25 42
M  V30 46 1 26 43
M  V30 47 1 26 44
M  V30 48 1 27 45
M  V30 49 1 27 46
M  V30 50 1 28 47
M  V30 51 1 28 48
M  V30 END BOND
M  V30 END CTAB
M  END
>  <Dataset>  (904) 
ChEMBL_Kinases

>  <Ligand_Instance>  (904) 
nan

>  <PDB_ID>  (904) 
nan

>  <Standardized_SMILES>  (904) 
O=C(c1cn(-c2ccccc2)nc1-c1cccc([N+](=O)[O-])c1)N1CCCCC1

>  <Name>  (904) 
nan

>  <Pocket>  (904) 
nan

>  <ATP_Site>  (904) 
nan

>  <Peripheral>  (904) 
nan

>  <Num_H_Atoms_ProtBoundConf>  (904) 
nan

>  <Num_Resolved_Atoms>  (904) 
nan

>  <Num_Not_Resolved_Atoms>  (904) 
nan

$$$$
CHEMBL1412637
     RDKit          3D

  0  0  0  0  0  0  0  0  0  0999 V3000
M  V30 BEGIN CTAB
M  V30 COUNTS 42 45 0 0 0
M  V30 BEGIN ATOM
M  V30 1 O 2.322824 0.232142 3.438134 0
M  V30 2 C 3.013439 0.581712 2.416256 0
M  V30 3 C 3.952982 1.597148 2.888717 0
M  V30 4 O 4.816555 2.135924 1.946308 0
M  V30 5 C 4.485435 2.834255 0.804524 0
M  V30 6 C 3.277841 3.213901 0.245755 0
M  V30 7 C 3.247447 3.921040 -0.928866 0
M  V30 8 C 4.395319 4.277197 -1.590600 0
M  V30 9 Br 4.162613 5.253757 -3.201221 0
M  V30 10 C 5.613926 3.918135 -1.066701 0
M  V30 11 C 5.658283 3.196682 0.130870 0
M  V30 12 N 2.720964 -0.052747 1.173051 0
M  V30 13 C 1.682858 -1.028279 1.146155 0
M  V30 14 C 0.400065 -0.561788 0.875036 0
M  V30 15 C -0.695437 -1.417938 0.822025 0
M  V30 16 C -0.437383 -2.757768 1.053872 0
M  V30 17 C -1.583998 -3.669401 1.000785 0
M  V30 18 N -1.625761 -5.002644 1.183435 0
M  V30 19 N -2.892066 -5.429877 1.042462 0
M  V30 20 C -3.625483 -4.335299 0.770261 0
M  V30 21 C -5.067009 -4.316181 0.537997 0
M  V30 22 C -5.837388 -3.206069 0.257671 0
M  V30 23 C -7.135827 -3.651418 0.114149 0
M  V30 24 C -7.099582 -5.031983 0.315981 0
M  V30 25 O -5.871069 -5.351541 0.556992 0
M  V30 26 O -2.829344 -3.293839 0.749167 0
M  V30 27 C 0.814554 -3.278372 1.327763 0
M  V30 28 C 1.875030 -2.381591 1.369399 0
M  V30 29 H 4.572568 1.229795 3.734279 0
M  V30 30 H 3.391549 2.472065 3.334016 0
M  V30 31 H 2.458427 2.867835 0.870924 0
M  V30 32 H 2.217253 4.146541 -1.241866 0
M  V30 33 H 6.481922 4.220836 -1.622655 0
M  V30 34 H 6.696581 2.984381 0.421540 0
M  V30 35 H 3.382679 0.348851 0.448828 0
M  V30 36 H 0.239856 0.505138 0.697549 0
M  V30 37 H -1.685963 -1.043889 0.610682 0
M  V30 38 H -5.517758 -2.193918 0.164807 0
M  V30 39 H -7.989248 -3.025398 -0.110651 0
M  V30 40 H -7.978849 -5.668261 0.266334 0
M  V30 41 H 0.972594 -4.331029 1.502788 0
M  V30 42 H 2.883495 -2.700650 1.575764 0
M  V30 END ATOM
M  V30 BEGIN BOND
M  V30 1 2 1 2
M  V30 2 1 2 3
M  V30 3 1 3 4
M  V30 4 1 4 5
M  V30 5 2 5 6
M  V30 6 1 6 7
M  V30 7 2 7 8
M  V30 8 1 8 9
M  V30 9 1 8 10
M  V30 10 2 10 11
M  V30 11 1 2 12
M  V30 12 1 12 13
M  V30 13 2 13 14
M  V30 14 1 14 15
M  V30 15 2 15 16
M  V30 16 1 16 17
M  V30 17 2 17 18
M  V30 18 1 18 19
M  V30 19 2 19 20
M  V30 20 1 20 21
M  V30 21 2 21 22
M  V30 22 1 22 23
M  V30 23 2 23 24
M  V30 24 1 24 25
M  V30 25 1 20 26
M  V30 26 1 16 27
M  V30 27 2 27 28
M  V30 28 1 11 5
M  V30 29 1 28 13
M  V30 30 1 26 17
M  V30 31 1 25 21
M  V30 32 1 3 29
M  V30 33 1 3 30
M  V30 34 1 6 31
M  V30 35 1 7 32
M  V30 36 1 10 33
M  V30 37 1 11 34
M  V30 38 1 12 35
M  V30 39 1 14 36
M  V30 40 1 15 37
M  V30 41 1 22 38
M  V30 42 1 23 39
M  V30 43 1 24 40
M  V30 44 1 27 41
M  V30 45 1 28 42
M  V30 END BOND
M  V30 END CTAB
M  END
>  <Dataset>  (905) 
ChEMBL_Kinases

>  <Ligand_Instance>  (905) 
nan

>  <PDB_ID>  (905) 
nan

>  <Standardized_SMILES>  (905) 
O=C(COc1ccc(Br)cc1)Nc1ccc(-c2nnc(-c3ccco3)o2)cc1

>  <Name>  (905) 
nan

>  <Pocket>  (905) 
nan

>  <ATP_Site>  (905) 
nan

>  <Peripheral>  (905) 
nan

>  <Num_H_Atoms_ProtBoundConf>  (905) 
nan

>  <Num_Resolved_Atoms>  (905) 
nan

>  <Num_Not_Resolved_Atoms>  (905) 
nan

$$$$
CHEMBL1412005
     RDKit          3D

  0  0  0  0  0  0  0  0  0  0999 V3000
M  V30 BEGIN CTAB
M  V30 COUNTS 32 35 0 0 0
M  V30 BEGIN ATOM
M  V30 1 O -2.403510 -1.155182 2.314041 0
M  V30 2 C -1.233045 -1.652362 1.770029 0
M  V30 3 C -0.927050 -2.995560 1.962570 0
M  V30 4 C 0.256753 -3.493533 1.411009 0
M  V30 5 N 1.066449 -2.674250 0.713706 0
M  V30 6 C 0.775160 -1.365487 0.522108 0
M  V30 7 C 1.404931 -0.323663 -0.131879 0
M  V30 8 C 0.582750 0.788943 0.039626 0
M  V30 9 C 0.869572 2.135759 -0.498935 0
M  V30 10 C 2.022558 2.353901 -1.230159 0
M  V30 11 C 2.261351 3.618461 -1.718077 0
M  V30 12 C 1.349956 4.647846 -1.471694 0
M  V30 13 F 1.522856 5.924440 -1.924580 0
M  V30 14 C 0.200667 4.394432 -0.732890 0
M  V30 15 C -0.066619 3.128149 -0.227921 0
M  V30 16 N -0.496140 0.393174 0.776735 0
M  V30 17 N -0.369047 -0.899677 1.059501 0
M  V30 18 C 0.392132 -4.952136 1.734664 0
M  V30 19 C -0.990753 -5.338299 2.190985 0
M  V30 20 C -1.655385 -4.081534 2.686099 0
M  V30 21 H -2.498715 -0.299871 2.814129 0
M  V30 22 H 2.336150 -0.408222 -0.650491 0
M  V30 23 H 2.734387 1.558801 -1.425032 0
M  V30 24 H 3.154129 3.852933 -2.302368 0
M  V30 25 H -0.556625 5.131141 -0.495443 0
M  V30 26 H -0.962903 2.905766 0.355063 0
M  V30 27 H 0.675788 -5.500543 0.814653 0
M  V30 28 H 1.110756 -5.102924 2.545329 0
M  V30 29 H -0.930842 -6.068966 3.015852 0
M  V30 30 H -1.558796 -5.792154 1.348715 0
M  V30 31 H -1.643743 -3.949324 3.772710 0
M  V30 32 H -2.725288 -4.124356 2.369320 0
M  V30 END ATOM
M  V30 BEGIN BOND
M  V30 1 1 1 2
M  V30 2 2 2 3
M  V30 3 1 3 4
M  V30 4 2 4 5
M  V30 5 1 5 6
M  V30 6 2 6 7
M  V30 7 1 7 8
M  V30 8 1 8 9
M  V30 9 2 9 10
M  V30 10 1 10 11
M  V30 11 2 11 12
M  V30 12 1 12 13
M  V30 13 1 12 14
M  V30 14 2 14 15
M  V30 15 2 8 16
M  V30 16 1 16 17
M  V30 17 1 4 18
M  V30 18 1 18 19
M  V30 19 1 19 20
M  V30 20 1 17 2
M  V30 21 1 20 3
M  V30 22 1 17 6
M  V30 23 1 15 9
M  V30 24 1 1 21
M  V30 25 1 7 22
M  V30 26 1 10 23
M  V30 27 1 11 24
M  V30 28 1 14 25
M  V30 29 1 15 26
M  V30 30 1 18 27
M  V30 31 1 18 28
M  V30 32 1 19 29
M  V30 33 1 19 30
M  V30 34 1 20 31
M  V30 35 1 20 32
M  V30 END BOND
M  V30 END CTAB
M  END
>  <Dataset>  (906) 
ChEMBL_Kinases

>  <Ligand_Instance>  (906) 
nan

>  <PDB_ID>  (906) 
nan

>  <Standardized_SMILES>  (906) 
Oc1c2c(nc3cc(-c4ccc(F)cc4)nn13)CCC2

>  <Name>  (906) 
nan

>  <Pocket>  (906) 
nan

>  <ATP_Site>  (906) 
nan

>  <Peripheral>  (906) 
nan

>  <Num_H_Atoms_ProtBoundConf>  (906) 
nan

>  <Num_Resolved_Atoms>  (906) 
nan

>  <Num_Not_Resolved_Atoms>  (906) 
nan

$$$$
CHEMBL1412222
     RDKit          3D

  0  0  0  0  0  0  0  0  0  0999 V3000
M  V30 BEGIN CTAB
M  V30 COUNTS 38 39 0 0 0
M  V30 BEGIN ATOM
M  V30 1 C -2.610399 -1.592329 2.022343 0
M  V30 2 C -1.132082 -1.550176 1.862540 0
M  V30 3 N -0.716251 -1.079579 0.534202 0
M  V30 4 C -0.523999 -2.037063 -0.543349 0
M  V30 5 C 0.836541 -2.568807 -0.633558 0
M  V30 6 C 1.133563 -3.728915 0.090919 0
M  V30 7 C 2.375362 -4.319706 0.083742 0
M  V30 8 C 3.403850 -3.769995 -0.662814 0
M  V30 9 C 3.133944 -2.624632 -1.386135 0
M  V30 10 C 1.882130 -2.054391 -1.360853 0
M  V30 11 C -0.469545 0.268976 0.167837 0
M  V30 12 O -0.107764 0.707488 -0.976350 0
M  V30 13 C -0.507828 1.539398 0.808215 0
M  V30 14 C -1.678050 2.309980 0.817707 0
M  V30 15 C -1.834439 3.546758 1.401760 0
M  V30 16 C -0.706309 4.036173 2.026020 0
M  V30 17 C 0.475901 3.361614 2.069848 0
M  V30 18 C 0.570666 2.107927 1.456741 0
M  V30 19 C 1.814939 1.299601 1.452308 0
M  V30 20 H -3.062882 -0.661414 2.414861 0
M  V30 21 H -3.153626 -1.876126 1.097459 0
M  V30 22 H -2.851853 -2.374125 2.773245 0
M  V30 23 H -0.705199 -2.525314 2.099235 0
M  V30 24 H -0.748495 -0.764393 2.570189 0
M  V30 25 H -1.217621 -2.903621 -0.455677 0
M  V30 26 H -0.780840 -1.585042 -1.537274 0
M  V30 27 H 0.347770 -4.191596 0.691738 0
M  V30 28 H 2.575741 -5.220687 0.656857 0
M  V30 29 H 4.368636 -4.237686 -0.662195 0
M  V30 30 H 3.931058 -2.202915 -1.961653 0
M  V30 31 H 1.673623 -1.159633 -1.926722 0
M  V30 32 H -2.545021 1.871438 0.305867 0
M  V30 33 H -2.785060 4.043850 1.343215 0
M  V30 34 H -0.777543 5.020825 2.508616 0
M  V30 35 H 1.356529 3.743511 2.557088 0
M  V30 36 H 1.751131 0.435918 2.145745 0
M  V30 37 H 2.683547 1.898091 1.812606 0
M  V30 38 H 2.074594 1.015463 0.417858 0
M  V30 END ATOM
M  V30 BEGIN BOND
M  V30 1 1 1 2
M  V30 2 1 2 3
M  V30 3 1 3 4
M  V30 4 1 4 5
M  V30 5 2 5 6
M  V30 6 1 6 7
M  V30 7 2 7 8
M  V30 8 1 8 9
M  V30 9 2 9 10
M  V30 10 1 3 11
M  V30 11 2 11 12
M  V30 12 1 11 13
M  V30 13 2 13 14
M  V30 14 1 14 15
M  V30 15 2 15 16
M  V30 16 1 16 17
M  V30 17 2 17 18
M  V30 18 1 18 19
M  V30 19 1 10 5
M  V30 20 1 18 13
M  V30 21 1 1 20
M  V30 22 1 1 21
M  V30 23 1 1 22
M  V30 24 1 2 23
M  V30 25 1 2 24
M  V30 26 1 4 25
M  V30 27 1 4 26
M  V30 28 1 6 27
M  V30 29 1 7 28
M  V30 30 1 8 29
M  V30 31 1 9 30
M  V30 32 1 10 31
M  V30 33 1 14 32
M  V30 34 1 15 33
M  V30 35 1 16 34
M  V30 36 1 17 35
M  V30 37 1 19 36
M  V30 38 1 19 37
M  V30 39 1 19 38
M  V30 END BOND
M  V30 END CTAB
M  END
>  <Dataset>  (907) 
ChEMBL_Kinases

>  <Ligand_Instance>  (907) 
nan

>  <PDB_ID>  (907) 
nan

>  <Standardized_SMILES>  (907) 
CCN(Cc1ccccc1)C(=O)c1ccccc1C

>  <Name>  (907) 
nan

>  <Pocket>  (907) 
nan

>  <ATP_Site>  (907) 
nan

>  <Peripheral>  (907) 
nan

>  <Num_H_Atoms_ProtBoundConf>  (907) 
nan

>  <Num_Resolved_Atoms>  (907) 
nan

>  <Num_Not_Resolved_Atoms>  (907) 
nan

$$$$
CHEMBL1412261
     RDKit          3D

  0  0  0  0  0  0  0  0  0  0999 V3000
M  V30 BEGIN CTAB
M  V30 COUNTS 48 51 0 0 0
M  V30 BEGIN ATOM
M  V30 1 C -0.859297 -5.443945 1.419914 0
M  V30 2 C 0.292935 -4.476759 1.308891 0
M  V30 3 O 1.536628 -4.721712 1.431731 0
M  V30 4 O -0.151268 -3.201723 1.041423 0
M  V30 5 C 0.598332 -2.048782 0.870580 0
M  V30 6 C 0.328848 -1.478373 -0.478089 0
M  V30 7 C 0.955787 -0.154440 -0.739866 0
M  V30 8 C -0.083674 0.740033 -1.384037 0
M  V30 9 C 2.013164 -0.350202 -1.790417 0
M  V30 10 O 2.002357 -1.000746 -2.817195 0
M  V30 11 C 3.228224 0.431307 -1.397402 0
M  V30 12 C 3.156466 0.333509 0.095619 0
M  V30 13 C 1.656850 0.518796 0.375514 0
M  V30 14 C 1.329650 0.112719 1.766698 0
M  V30 15 C 0.938937 1.297470 2.619234 0
M  V30 16 C -0.227042 2.057701 2.033613 0
M  V30 17 C -1.288227 1.017435 1.782664 0
M  V30 18 C -2.539664 1.583121 1.631434 0
M  V30 19 C -3.642262 0.789835 1.397385 0
M  V30 20 O -4.912000 1.327319 1.241040 0
M  V30 21 C -3.479200 -0.577437 1.316190 0
M  V30 22 C -2.206377 -1.083759 1.475353 0
M  V30 23 C -1.054558 -0.362577 1.711281 0
M  V30 24 C 0.276597 -0.962341 1.871515 0
M  V30 25 H -1.515304 -5.163461 2.275262 0
M  V30 26 H -1.494007 -5.403736 0.516073 0
M  V30 27 H -0.471794 -6.474025 1.508661 0
M  V30 28 H 1.692248 -2.231306 0.972423 0
M  V30 29 H -0.784163 -1.428810 -0.586680 0
M  V30 30 H 0.641149 -2.240922 -1.221489 0
M  V30 31 H -0.044547 0.694508 -2.491695 0
M  V30 32 H 0.090682 1.810443 -1.078367 0
M  V30 33 H -1.119687 0.499342 -1.065637 0
M  V30 34 H 3.151269 1.474456 -1.751564 0
M  V30 35 H 4.160027 -0.020164 -1.790938 0
M  V30 36 H 3.511413 -0.656925 0.433582 0
M  V30 37 H 3.735807 1.169011 0.529051 0
M  V30 38 H 1.513395 1.615782 0.277040 0
M  V30 39 H 2.242060 -0.308057 2.242940 0
M  V30 40 H 0.819838 1.060824 3.671340 0
M  V30 41 H 1.804781 2.019619 2.561479 0
M  V30 42 H -0.623313 2.681435 2.885544 0
M  V30 43 H 0.006986 2.661907 1.163808 0
M  V30 44 H -2.749918 2.630202 1.680298 0
M  V30 45 H -5.519187 0.856985 0.562052 0
M  V30 46 H -4.340933 -1.192414 1.133725 0
M  V30 47 H -2.168634 -2.161368 1.399560 0
M  V30 48 H 0.334654 -1.406987 2.885184 0
M  V30 END ATOM
M  V30 BEGIN BOND
M  V30 1 1 1 2
M  V30 2 2 2 3
M  V30 3 1 2 4
M  V30 4 1 4 5
M  V30 5 1 5 6
M  V30 6 1 6 7
M  V30 7 1 7 8
M  V30 8 1 7 9
M  V30 9 2 9 10
M  V30 10 1 9 11
M  V30 11 1 11 12
M  V30 12 1 12 13
M  V30 13 1 13 14
M  V30 14 1 14 15
M  V30 15 1 15 16
M  V30 16 1 16 17
M  V30 17 2 17 18
M  V30 18 1 18 19
M  V30 19 1 19 20
M  V30 20 2 19 21
M  V30 21 1 21 22
M  V30 22 2 22 23
M  V30 23 1 23 24
M  V30 24 1 24 5
M  V30 25 1 13 7
M  V30 26 1 24 14
M  V30 27 1 23 17
M  V30 28 1 1 25
M  V30 29 1 1 26
M  V30 30 1 1 27
M  V30 31 1 5 28
M  V30 32 1 6 29
M  V30 33 1 6 30
M  V30 34 1 8 31
M  V30 35 1 8 32
M  V30 36 1 8 33
M  V30 37 1 11 34
M  V30 38 1 11 35
M  V30 39 1 12 36
M  V30 40 1 12 37
M  V30 41 1 13 38
M  V30 42 1 14 39
M  V30 43 1 15 40
M  V30 44 1 15 41
M  V30 45 1 16 42
M  V30 46 1 16 43
M  V30 47 1 18 44
M  V30 48 1 20 45
M  V30 49 1 21 46
M  V30 50 1 22 47
M  V30 51 1 24 48
M  V30 END BOND
M  V30 END CTAB
M  END
>  <Dataset>  (908) 
ChEMBL_Kinases

>  <Ligand_Instance>  (908) 
nan

>  <PDB_ID>  (908) 
nan

>  <Standardized_SMILES>  (908) 
CC(=O)OC1CC2(C)C(=O)CCC2C2CCc3cc(O)ccc3C12

>  <Name>  (908) 
nan

>  <Pocket>  (908) 
nan

>  <ATP_Site>  (908) 
nan

>  <Peripheral>  (908) 
nan

>  <Num_H_Atoms_ProtBoundConf>  (908) 
nan

>  <Num_Resolved_Atoms>  (908) 
nan

>  <Num_Not_Resolved_Atoms>  (908) 
nan

$$$$
CHEMBL1412390
     RDKit          3D

  0  0  0  0  0  0  0  0  0  0999 V3000
M  V30 BEGIN CTAB
M  V30 COUNTS 47 50 0 0 0
M  V30 BEGIN ATOM
M  V30 1 C -0.281535 -4.783001 2.115665 0
M  V30 2 O 0.691482 -4.552105 3.098879 0
M  V30 3 C 1.735059 -3.652684 2.941850 0
M  V30 4 C 2.601101 -3.564550 4.034129 0
M  V30 5 C 3.692316 -2.690513 3.993140 0
M  V30 6 C 3.857150 -1.941206 2.840303 0
M  V30 7 N 4.808048 -1.042253 2.549228 0
M  V30 8 C 4.608549 -0.527291 1.303059 0
M  V30 9 C 3.471861 -1.124500 0.764223 0
M  V30 10 C 2.743684 -0.998058 -0.526729 0
M  V30 11 C 1.486284 -0.212007 -0.423148 0
M  V30 12 N 1.637309 1.148168 0.022730 0
M  V30 13 C 0.477251 1.993862 0.168032 0
M  V30 14 C 0.600025 3.296149 0.583215 0
M  V30 15 C -0.547778 4.053751 0.705186 0
M  V30 16 N -1.769727 3.530348 0.423353 0
M  V30 17 C -1.878923 2.234871 0.011725 0
M  V30 18 C -3.172077 1.631462 -0.300346 0
M  V30 19 C -4.300913 2.432506 -0.169901 0
M  V30 20 C -5.540812 1.901797 -0.456270 0
M  V30 21 C -5.695205 0.589821 -0.871387 0
M  V30 22 C -4.572135 -0.196231 -0.997847 0
M  V30 23 C -4.685446 -1.554176 -1.421925 0
M  V30 24 N -4.773361 -2.662525 -1.747264 0
M  V30 25 C -3.344098 0.326396 -0.715206 0
M  V30 26 N -0.748584 1.478135 -0.111909 0
M  V30 27 C 3.024817 -1.999956 1.742551 0
M  V30 28 C 1.963874 -2.877475 1.833764 0
M  V30 29 H -0.679424 -5.827982 2.149630 0
M  V30 30 H -1.148923 -4.084499 2.218215 0
M  V30 31 H 0.164555 -4.671419 1.121181 0
M  V30 32 H 2.454965 -4.162857 4.933532 0
M  V30 33 H 4.352580 -2.630705 4.840066 0
M  V30 34 H 5.596734 -0.754834 3.157148 0
M  V30 35 H 5.144107 0.200371 0.728011 0
M  V30 36 H 3.396283 -0.499433 -1.289303 0
M  V30 37 H 2.479726 -1.984461 -0.959839 0
M  V30 38 H 0.789698 -0.727507 0.288236 0
M  V30 39 H 0.971662 -0.282325 -1.410439 0
M  V30 40 H 2.569771 1.558243 0.250156 0
M  V30 41 H 1.554933 3.738970 0.813925 0
M  V30 42 H -0.568069 5.089415 1.023393 0
M  V30 43 H -4.303620 3.459012 0.142244 0
M  V30 44 H -6.478987 2.440499 -0.386905 0
M  V30 45 H -6.662327 0.153702 -1.101543 0
M  V30 46 H -2.408468 -0.229934 -0.789725 0
M  V30 47 H 1.276675 -2.967260 1.004511 0
M  V30 END ATOM
M  V30 BEGIN BOND
M  V30 1 1 1 2
M  V30 2 1 2 3
M  V30 3 2 3 4
M  V30 4 1 4 5
M  V30 5 2 5 6
M  V30 6 1 6 7
M  V30 7 1 7 8
M  V30 8 2 8 9
M  V30 9 1 9 10
M  V30 10 1 10 11
M  V30 11 1 11 12
M  V30 12 1 12 13
M  V30 13 2 13 14
M  V30 14 1 14 15
M  V30 15 2 15 16
M  V30 16 1 16 17
M  V30 17 1 17 18
M  V30 18 2 18 19
M  V30 19 1 19 20
M  V30 20 2 20 21
M  V30 21 1 21 22
M  V30 22 1 22 23
M  V30 23 3 23 24
M  V30 24 2 22 25
M  V30 25 2 17 26
M  V30 26 1 9 27
M  V30 27 2 27 28
M  V30 28 1 28 3
M  V30 29 1 27 6
M  V30 30 1 26 13
M  V30 31 1 25 18
M  V30 32 1 1 29
M  V30 33 1 1 30
M  V30 34 1 1 31
M  V30 35 1 4 32
M  V30 36 1 5 33
M  V30 37 1 7 34
M  V30 38 1 8 35
M  V30 39 1 10 36
M  V30 40 1 10 37
M  V30 41 1 11 38
M  V30 42 1 11 39
M  V30 43 1 12 40
M  V30 44 1 14 41
M  V30 45 1 15 42
M  V30 46 1 19 43
M  V30 47 1 20 44
M  V30 48 1 21 45
M  V30 49 1 25 46
M  V30 50 1 28 47
M  V30 END BOND
M  V30 END CTAB
M  END
>  <Dataset>  (909) 
ChEMBL_Kinases

>  <Ligand_Instance>  (909) 
nan

>  <PDB_ID>  (909) 
nan

>  <Standardized_SMILES>  (909) 
COc1ccc2[nH]cc(CCNc3ccnc(-c4cccc(C#N)c4)n3)c2c1

>  <Name>  (909) 
nan

>  <Pocket>  (909) 
nan

>  <ATP_Site>  (909) 
nan

>  <Peripheral>  (909) 
nan

>  <Num_H_Atoms_ProtBoundConf>  (909) 
nan

>  <Num_Resolved_Atoms>  (909) 
nan

>  <Num_Not_Resolved_Atoms>  (909) 
nan

$$$$
CHEMBL1412489
     RDKit          3D

  0  0  0  0  0  0  0  0  0  0999 V3000
M  V30 BEGIN CTAB
M  V30 COUNTS 45 48 0 0 0
M  V30 BEGIN ATOM
M  V30 1 C -1.250898 0.295797 3.384392 0
M  V30 2 C -0.570590 -0.956664 2.918314 0 CFG=2
M  V30 3 C 0.904220 -0.934989 3.027155 0
M  V30 4 C 1.577634 -0.228383 1.901958 0
M  V30 5 C 1.104855 -0.755874 0.571340 0 CFG=2
M  V30 6 C 1.817284 -0.186378 -0.568458 0
M  V30 7 C 3.195108 -0.225682 -0.523630 0
M  V30 8 C 3.955809 0.291581 -1.561591 0
M  V30 9 C 3.299553 0.851902 -2.650849 0
M  V30 10 O 4.056375 1.375449 -3.701110 0
M  V30 11 C 1.906770 0.887091 -2.687205 0
M  V30 12 O 1.338523 1.468954 -3.821021 0
M  V30 13 C 1.151435 0.366653 -1.643112 0
M  V30 14 C -0.331545 0.431428 -1.735625 0
M  V30 15 C -0.917828 -0.689857 -0.867456 0
M  V30 16 C -0.400056 -0.471536 0.512292 0 CFG=1
M  V30 17 C -0.976423 -1.385390 1.524683 0 CFG=2
M  V30 18 C -2.443668 -1.435171 1.680325 0
M  V30 19 C -2.559889 -2.266232 2.967170 0
M  V30 20 C -1.212972 -2.112740 3.681799 0 CFG=2
M  V30 21 O -1.334498 -1.882204 5.027498 0
M  V30 22 H -0.655384 0.709141 4.227931 0
M  V30 23 H -1.393692 1.071955 2.629573 0
M  V30 24 H -2.251855 0.072923 3.809035 0
M  V30 25 H 1.154482 -0.364765 3.963293 0
M  V30 26 H 1.313568 -1.944970 3.164580 0
M  V30 27 H 1.454763 0.873347 1.948459 0
M  V30 28 H 2.667392 -0.421657 2.000466 0
M  V30 29 H 1.203018 -1.867503 0.577436 0
M  V30 30 H 3.764097 -0.647219 0.294048 0
M  V30 31 H 5.035134 0.265276 -1.535303 0
M  V30 32 H 4.175105 0.771327 -4.517106 0
M  V30 33 H 0.355497 1.679771 -3.890840 0
M  V30 34 H -0.683619 0.221075 -2.770629 0
M  V30 35 H -0.704320 1.424508 -1.378082 0
M  V30 36 H -0.545285 -1.632151 -1.329977 0
M  V30 37 H -2.008917 -0.609793 -0.881267 0
M  V30 38 H -0.493803 0.604002 0.749280 0
M  V30 39 H -0.535265 -2.394919 1.367414 0
M  V30 40 H -3.018011 -1.877387 0.848991 0
M  V30 41 H -2.803027 -0.399828 1.894855 0
M  V30 42 H -2.649918 -3.325711 2.600366 0
M  V30 43 H -3.402886 -1.951182 3.596195 0
M  V30 44 H -0.570365 -3.001042 3.549751 0
M  V30 45 H -0.887074 -1.065960 5.364807 0
M  V30 END ATOM
M  V30 BEGIN BOND
M  V30 1 1 2 1 CFG=1
M  V30 2 1 2 3
M  V30 3 1 3 4
M  V30 4 1 4 5
M  V30 5 1 5 6
M  V30 6 2 6 7
M  V30 7 1 7 8
M  V30 8 2 8 9
M  V30 9 1 9 10
M  V30 10 1 9 11
M  V30 11 1 11 12
M  V30 12 2 11 13
M  V30 13 1 13 14
M  V30 14 1 14 15
M  V30 15 1 15 16
M  V30 16 1 16 17
M  V30 17 1 17 18
M  V30 18 1 18 19
M  V30 19 1 19 20
M  V30 20 1 20 21
M  V30 21 1 17 2
M  V30 22 1 20 2
M  V30 23 1 16 5
M  V30 24 1 13 6
M  V30 25 1 1 22
M  V30 26 1 1 23
M  V30 27 1 1 24
M  V30 28 1 3 25
M  V30 29 1 3 26
M  V30 30 1 4 27
M  V30 31 1 4 28
M  V30 32 1 5 29 CFG=1
M  V30 33 1 7 30
M  V30 34 1 8 31
M  V30 35 1 10 32
M  V30 36 1 12 33
M  V30 37 1 14 34
M  V30 38 1 14 35
M  V30 39 1 15 36
M  V30 40 1 15 37
M  V30 41 1 16 38 CFG=1
M  V30 42 1 17 39 CFG=3
M  V30 43 1 18 40
M  V30 44 1 18 41
M  V30 45 1 19 42
M  V30 46 1 19 43
M  V30 47 1 20 44 CFG=1
M  V30 48 1 21 45
M  V30 END BOND
M  V30 END CTAB
M  END
>  <Dataset>  (910) 
ChEMBL_Kinases

>  <Ligand_Instance>  (910) 
nan

>  <PDB_ID>  (910) 
nan

>  <Standardized_SMILES>  (910) 
C[C@]12CC[C@@H]3c4ccc(O)c(O)c4CC[C@H]3[C@@H]1CC[C@@H]2O

>  <Name>  (910) 
nan

>  <Pocket>  (910) 
nan

>  <ATP_Site>  (910) 
nan

>  <Peripheral>  (910) 
nan

>  <Num_H_Atoms_ProtBoundConf>  (910) 
nan

>  <Num_Resolved_Atoms>  (910) 
nan

>  <Num_Not_Resolved_Atoms>  (910) 
nan

$$$$
CHEMBL1412509
     RDKit          3D

  0  0  0  0  0  0  0  0  0  0999 V3000
M  V30 BEGIN CTAB
M  V30 COUNTS 49 51 0 0 0
M  V30 BEGIN ATOM
M  V30 1 C 6.317153 -0.943206 -0.898609 0
M  V30 2 C 5.528471 -0.781513 -2.165765 0
M  V30 3 O 4.157714 -0.496965 -1.956768 0
M  V30 4 C 3.717152 0.623272 -1.272235 0
M  V30 5 O 4.871844 1.082871 -1.030310 0
M  V30 6 C 2.250575 0.905879 -1.059216 0
M  V30 7 C 2.128406 2.196543 -0.266626 0
M  V30 8 C 1.660703 1.901931 1.152321 0
M  V30 9 C 0.273384 1.277262 1.005360 0
M  V30 10 N 0.370959 0.140260 0.189885 0
M  V30 11 S -1.052245 -0.338318 -0.537660 0
M  V30 12 O -1.574662 0.902414 -1.266310 0
M  V30 13 O -0.889303 -1.313899 -1.664142 0
M  V30 14 C -2.332897 -0.791552 0.559946 0
M  V30 15 C -3.564791 -0.163554 0.610209 0
M  V30 16 C -4.584726 -0.507800 1.462494 0
M  V30 17 C -4.367017 -1.571299 2.346305 0
M  V30 18 O -5.264011 -2.070161 3.276730 0
M  V30 19 C -6.582932 -1.523531 3.446614 0
M  V30 20 C -3.153084 -2.229553 2.333917 0
M  V30 21 C -2.860716 -3.271948 3.158392 0
M  V30 22 C -1.652814 -3.978720 3.192985 0
M  V30 23 C -0.695360 -3.537581 2.282668 0
M  V30 24 C -0.969038 -2.472585 1.427104 0
M  V30 25 C -2.180469 -1.816976 1.442515 0
M  V30 26 C 1.617251 -0.233788 -0.266256 0
M  V30 27 H 7.038775 -1.779619 -1.006922 0
M  V30 28 H 6.878717 -0.031967 -0.617338 0
M  V30 29 H 5.673289 -1.191183 -0.030968 0
M  V30 30 H 5.541443 -1.787107 -2.684125 0
M  V30 31 H 6.005163 -0.087525 -2.884959 0
M  V30 32 H 1.803696 1.065408 -2.042274 0
M  V30 33 H 3.081161 2.724054 -0.301114 0
M  V30 34 H 1.333158 2.802624 -0.729093 0
M  V30 35 H 1.571469 2.854395 1.711402 0
M  V30 36 H 2.322816 1.215892 1.685147 0
M  V30 37 H -0.107650 1.084644 2.039809 0
M  V30 38 H -0.428027 2.025138 0.529692 0
M  V30 39 H -3.753825 0.672531 -0.074160 0
M  V30 40 H -5.549326 -0.033433 1.517993 0
M  V30 41 H -7.244775 -2.286060 3.908646 0
M  V30 42 H -6.977443 -1.363126 2.414127 0
M  V30 43 H -6.591559 -0.562783 3.961312 0
M  V30 44 H -3.621479 -3.599472 3.861175 0
M  V30 45 H -1.531892 -4.792340 3.894844 0
M  V30 46 H 0.230547 -4.098711 2.328419 0
M  V30 47 H -0.107377 -2.285149 0.801066 0
M  V30 48 H 1.507180 -1.061333 -1.034716 0
M  V30 49 H 2.349291 -0.579810 0.494088 0
M  V30 END ATOM
M  V30 BEGIN BOND
M  V30 1 1 1 2
M  V30 2 1 2 3
M  V30 3 1 3 4
M  V30 4 2 4 5
M  V30 5 1 4 6
M  V30 6 1 6 7
M  V30 7 1 7 8
M  V30 8 1 8 9
M  V30 9 1 9 10
M  V30 10 1 10 11
M  V30 11 2 11 12
M  V30 12 2 11 13
M  V30 13 1 11 14
M  V30 14 2 14 15
M  V30 15 1 15 16
M  V30 16 2 16 17
M  V30 17 1 17 18
M  V30 18 1 18 19
M  V30 19 1 17 20
M  V30 20 2 20 21
M  V30 21 1 21 22
M  V30 22 2 22 23
M  V30 23 1 23 24
M  V30 24 2 24 25
M  V30 25 1 10 26
M  V30 26 1 26 6
M  V30 27 1 25 14
M  V30 28 1 25 20
M  V30 29 1 1 27
M  V30 30 1 1 28
M  V30 31 1 1 29
M  V30 32 1 2 30
M  V30 33 1 2 31
M  V30 34 1 6 32
M  V30 35 1 7 33
M  V30 36 1 7 34
M  V30 37 1 8 35
M  V30 38 1 8 36
M  V30 39 1 9 37
M  V30 40 1 9 38
M  V30 41 1 15 39
M  V30 42 1 16 40
M  V30 43 1 19 41
M  V30 44 1 19 42
M  V30 45 1 19 43
M  V30 46 1 21 44
M  V30 47 1 22 45
M  V30 48 1 23 46
M  V30 49 1 24 47
M  V30 50 1 26 48
M  V30 51 1 26 49
M  V30 END BOND
M  V30 END CTAB
M  END
>  <Dataset>  (911) 
ChEMBL_Kinases

>  <Ligand_Instance>  (911) 
nan

>  <PDB_ID>  (911) 
nan

>  <Standardized_SMILES>  (911) 
CCOC(=O)C1CCCN(S(=O)(=O)c2ccc(OC)c3ccccc23)C1

>  <Name>  (911) 
nan

>  <Pocket>  (911) 
nan

>  <ATP_Site>  (911) 
nan

>  <Peripheral>  (911) 
nan

>  <Num_H_Atoms_ProtBoundConf>  (911) 
nan

>  <Num_Resolved_Atoms>  (911) 
nan

>  <Num_Not_Resolved_Atoms>  (911) 
nan

$$$$
CHEMBL1412556
     RDKit          3D

  0  0  0  0  0  0  0  0  0  0999 V3000
M  V30 BEGIN CTAB
M  V30 COUNTS 70 74 0 0 0
M  V30 BEGIN ATOM
M  V30 1 O 0.426301 1.114444 3.314687 0
M  V30 2 C 0.063855 -0.024163 2.866586 0
M  V30 3 N 1.065672 -0.899654 2.370136 0
M  V30 4 C 2.457757 -0.636124 2.321767 0
M  V30 5 C 2.947164 0.497556 1.499627 0
M  V30 6 C 2.702436 0.442501 0.043693 0
M  V30 7 N 1.370222 0.420706 -0.436801 0
M  V30 8 C 0.640568 1.632250 -0.274487 0
M  V30 9 C -0.622067 1.526349 -1.112618 0
M  V30 10 N -0.237382 1.738943 -2.472054 0
M  V30 11 C -0.385541 3.037356 -3.001052 0
M  V30 12 C 0.321679 4.127455 -2.335088 0
M  V30 13 C 1.583166 4.607924 -2.607457 0
M  V30 14 C 2.192070 5.644133 -1.935554 0
M  V30 15 C 1.505548 6.266557 -0.905093 0
M  V30 16 C 0.232495 5.832113 -0.580436 0
M  V30 17 C -0.329402 4.788532 -1.287337 0
M  V30 18 C 1.030773 1.132537 -2.785742 0
M  V30 19 C 1.339696 0.008980 -1.804088 0
M  V30 20 C -1.373815 -0.425525 2.866291 0
M  V30 21 C -1.458282 -1.647004 3.744552 0
M  V30 22 C -2.864262 -2.209864 3.707405 0
M  V30 23 N -3.096585 -2.563171 2.314228 0
M  V30 24 C -3.375154 -3.951577 1.875443 0
M  V30 25 N -3.980564 -4.932302 1.606074 0
M  V30 26 N -3.459159 -6.035521 1.185348 0
M  V30 27 C -2.311337 -6.251630 1.000572 0
M  V30 28 N -1.663599 -7.490090 0.522018 0
M  V30 29 C -1.614955 -7.705527 -0.782861 0
M  V30 30 C -0.971612 -8.907508 -0.988525 0
M  V30 31 C -0.657396 -9.363660 0.269286 0
M  V30 32 C -1.086913 -8.482383 1.223848 0
M  V30 33 S -1.643603 -4.567463 1.499642 0
M  V30 34 C -3.048435 -1.499100 1.324378 0
M  V30 35 C -1.829456 -0.633533 1.476379 0
M  V30 36 H 0.702202 -1.832364 2.008027 0
M  V30 37 H 3.030814 -1.573294 2.042920 0
M  V30 38 H 2.777858 -0.485596 3.402280 0
M  V30 39 H 2.667338 1.486530 1.958594 0
M  V30 40 H 4.076167 0.498331 1.619762 0
M  V30 41 H 3.171928 -0.529098 -0.312745 0
M  V30 42 H 3.342515 1.217405 -0.449431 0
M  V30 43 H 0.374400 1.922572 0.743341 0
M  V30 44 H 1.279287 2.468352 -0.677099 0
M  V30 45 H -1.438529 2.142962 -0.757472 0
M  V30 46 H -0.946864 0.456561 -1.046729 0
M  V30 47 H 0.003785 3.022565 -4.062788 0
M  V30 48 H -1.469646 3.346639 -3.044466 0
M  V30 49 H 2.120648 4.131975 -3.409982 0
M  V30 50 H 3.189576 5.952049 -2.222634 0
M  V30 51 H 1.969950 7.082347 -0.367843 0
M  V30 52 H -0.287827 6.330456 0.226899 0
M  V30 53 H -1.339563 4.526221 -0.948413 0
M  V30 54 H 0.918719 0.651603 -3.778147 0
M  V30 55 H 1.873548 1.839308 -2.849642 0
M  V30 56 H 2.329490 -0.396932 -2.088254 0
M  V30 57 H 0.607845 -0.811050 -1.902379 0
M  V30 58 H -1.944810 0.374417 3.374871 0
M  V30 59 H -0.791277 -2.452939 3.360026 0
M  V30 60 H -1.224375 -1.331462 4.772810 0
M  V30 61 H -3.006360 -3.049272 4.384558 0
M  V30 62 H -3.528627 -1.372865 4.010440 0
M  V30 63 H -1.990065 -7.097243 -1.617305 0
M  V30 64 H -0.745291 -9.413210 -1.917337 0
M  V30 65 H -0.140871 -10.289935 0.512344 0
M  V30 66 H -1.030243 -8.480638 2.320933 0
M  V30 67 H -3.008450 -1.967252 0.326723 0
M  V30 68 H -4.005700 -0.934042 1.380532 0
M  V30 69 H -2.114365 0.358647 1.069042 0
M  V30 70 H -1.011321 -1.018606 0.834299 0
M  V30 END ATOM
M  V30 BEGIN BOND
M  V30 1 2 1 2
M  V30 2 1 2 3
M  V30 3 1 3 4
M  V30 4 1 4 5
M  V30 5 1 5 6
M  V30 6 1 6 7
M  V30 7 1 7 8
M  V30 8 1 8 9
M  V30 9 1 9 10
M  V30 10 1 10 11
M  V30 11 1 11 12
M  V30 12 2 12 13
M  V30 13 1 13 14
M  V30 14 2 14 15
M  V30 15 1 15 16
M  V30 16 2 16 17
M  V30 17 1 10 18
M  V30 18 1 18 19
M  V30 19 1 2 20
M  V30 20 1 20 21
M  V30 21 1 21 22
M  V30 22 1 22 23
M  V30 23 1 23 24
M  V30 24 2 24 25
M  V30 25 1 25 26
M  V30 26 2 26 27
M  V30 27 1 27 28
M  V30 28 1 28 29
M  V30 29 2 29 30
M  V30 30 1 30 31
M  V30 31 2 31 32
M  V30 32 1 27 33
M  V30 33 1 23 34
M  V30 34 1 34 35
M  V30 35 1 19 7
M  V30 36 1 35 20
M  V30 37 1 17 12
M  V30 38 1 33 24
M  V30 39 1 32 28
M  V30 40 1 3 36
M  V30 41 1 4 37
M  V30 42 1 4 38
M  V30 43 1 5 39
M  V30 44 1 5 40
M  V30 45 1 6 41
M  V30 46 1 6 42
M  V30 47 1 8 43
M  V30 48 1 8 44
M  V30 49 1 9 45
M  V30 50 1 9 46
M  V30 51 1 11 47
M  V30 52 1 11 48
M  V30 53 1 13 49
M  V30 54 1 14 50
M  V30 55 1 15 51
M  V30 56 1 16 52
M  V30 57 1 17 53
M  V30 58 1 18 54
M  V30 59 1 18 55
M  V30 60 1 19 56
M  V30 61 1 19 57
M  V30 62 1 20 58
M  V30 63 1 21 59
M  V30 64 1 21 60
M  V30 65 1 22 61
M  V30 66 1 22 62
M  V30 67 1 29 63
M  V30 68 1 30 64
M  V30 69 1 31 65
M  V30 70 1 32 66
M  V30 71 1 34 67
M  V30 72 1 34 68
M  V30 73 1 35 69
M  V30 74 1 35 70
M  V30 END BOND
M  V30 END CTAB
M  END
>  <Dataset>  (912) 
ChEMBL_Kinases

>  <Ligand_Instance>  (912) 
nan

>  <PDB_ID>  (912) 
nan

>  <Standardized_SMILES>  (912) 
O=C(NCCCN1CCN(Cc2ccccc2)CC1)C1CCN(c2nnc(-n3cccc3)s2)CC1

>  <Name>  (912) 
nan

>  <Pocket>  (912) 
nan

>  <ATP_Site>  (912) 
nan

>  <Peripheral>  (912) 
nan

>  <Num_H_Atoms_ProtBoundConf>  (912) 
nan

>  <Num_Resolved_Atoms>  (912) 
nan

>  <Num_Not_Resolved_Atoms>  (912) 
nan

$$$$
CHEMBL1412622
     RDKit          3D

  0  0  0  0  0  0  0  0  0  0999 V3000
M  V30 BEGIN CTAB
M  V30 COUNTS 29 30 0 0 0
M  V30 BEGIN ATOM
M  V30 1 N -1.079565 -5.231712 3.030617 0
M  V30 2 C -0.400074 -4.306117 2.906243 0
M  V30 3 C 0.435347 -3.131904 2.746844 0
M  V30 4 C 1.297937 -3.025312 1.664942 0
M  V30 5 N 2.053979 -1.917198 1.541309 0
M  V30 6 C 1.941481 -0.945785 2.482538 0
M  V30 7 S 3.034536 0.445439 2.051151 0
M  V30 8 C 2.015384 1.536913 0.973419 0
M  V30 9 C 1.725043 0.786757 -0.300376 0
M  V30 10 O 2.765927 0.169850 -0.689403 0
M  V30 11 C 0.444393 0.762920 -0.987273 0
M  V30 12 C -0.669214 1.458897 -0.574619 0
M  V30 13 C -1.881588 1.372865 -1.221763 0
M  V30 14 C -1.888954 0.522806 -2.332119 0
M  V30 15 C -0.812235 -0.198218 -2.795364 0
M  V30 16 C 0.395678 -0.074553 -2.100221 0
M  V30 17 N 1.128732 -0.985659 3.552754 0
M  V30 18 C 0.355356 -2.103073 3.692763 0
M  V30 19 N -0.515628 -2.173081 4.818320 0
M  V30 20 H 1.290061 -3.869271 0.987821 0
M  V30 21 H 2.564675 2.454140 0.755718 0
M  V30 22 H 1.094501 1.789496 1.528023 0
M  V30 23 H -0.584943 2.106295 0.307588 0
M  V30 24 H -2.728843 1.933957 -0.863772 0
M  V30 25 H -2.862390 0.467042 -2.831001 0
M  V30 26 H -0.948584 -0.831480 -3.669346 0
M  V30 27 H 1.218615 -0.651377 -2.488068 0
M  V30 28 H -0.773337 -3.108309 5.214168 0
M  V30 29 H -0.893394 -1.306726 5.247804 0
M  V30 END ATOM
M  V30 BEGIN BOND
M  V30 1 3 1 2
M  V30 2 1 2 3
M  V30 3 2 3 4
M  V30 4 1 4 5
M  V30 5 2 5 6
M  V30 6 1 6 7
M  V30 7 1 7 8
M  V30 8 1 8 9
M  V30 9 2 9 10
M  V30 10 1 9 11
M  V30 11 2 11 12
M  V30 12 1 12 13
M  V30 13 2 13 14
M  V30 14 1 14 15
M  V30 15 2 15 16
M  V30 16 1 6 17
M  V30 17 2 17 18
M  V30 18 1 18 19
M  V30 19 1 18 3
M  V30 20 1 16 11
M  V30 21 1 4 20
M  V30 22 1 8 21
M  V30 23 1 8 22
M  V30 24 1 12 23
M  V30 25 1 13 24
M  V30 26 1 14 25
M  V30 27 1 15 26
M  V30 28 1 16 27
M  V30 29 1 19 28
M  V30 30 1 19 29
M  V30 END BOND
M  V30 END CTAB
M  END
>  <Dataset>  (913) 
ChEMBL_Kinases

>  <Ligand_Instance>  (913) 
nan

>  <PDB_ID>  (913) 
nan

>  <Standardized_SMILES>  (913) 
N#Cc1cnc(SCC(=O)c2ccccc2)nc1N

>  <Name>  (913) 
nan

>  <Pocket>  (913) 
nan

>  <ATP_Site>  (913) 
nan

>  <Peripheral>  (913) 
nan

>  <Num_H_Atoms_ProtBoundConf>  (913) 
nan

>  <Num_Resolved_Atoms>  (913) 
nan

>  <Num_Not_Resolved_Atoms>  (913) 
nan

$$$$
CHEMBL1382622
     RDKit          3D

  0  0  0  0  0  0  0  0  0  0999 V3000
M  V30 BEGIN CTAB
M  V30 COUNTS 51 53 0 0 0
M  V30 BEGIN ATOM
M  V30 1 C -0.146639 -3.452063 3.141715 0
M  V30 2 C 1.231874 -3.632646 3.671035 0
M  V30 3 O 2.204102 -4.015265 2.821174 0
M  V30 4 C 2.537934 -3.232661 1.760905 0
M  V30 5 C 1.437026 -3.107862 0.783660 0
M  V30 6 O 0.307975 -3.226064 0.186952 0
M  V30 7 N 1.948252 -2.247105 -0.275405 0
M  V30 8 C 1.202121 -1.850836 -1.450832 0
M  V30 9 C 0.383445 -0.759811 -1.659017 0
M  V30 10 C 0.151815 0.224763 -0.606556 0
M  V30 11 O 0.708032 0.081485 0.518205 0
M  V30 12 N -0.677131 1.369419 -0.751738 0
M  V30 13 C -0.670778 2.112545 0.485751 0
M  V30 14 C 0.295026 3.084374 0.632250 0
M  V30 15 C 0.313841 3.812817 1.825978 0
M  V30 16 C -0.622456 3.519538 2.773023 0
M  V30 17 O -0.532805 4.288108 3.925213 0
M  V30 18 C -1.469934 4.056383 4.976859 0
M  V30 19 C -1.591763 2.548351 2.632982 0
M  V30 20 C -1.632901 1.805194 1.448877 0
M  V30 21 O -2.569419 0.810507 1.218981 0
M  V30 22 C -3.518696 0.543918 2.230776 0
M  V30 23 O -0.099945 -0.771453 -2.860336 0
M  V30 24 C 0.320882 -1.812428 -3.542863 0
M  V30 25 C 0.171356 -2.356018 -4.802375 0
M  V30 26 C 0.788403 -3.518556 -5.204928 0
M  V30 27 C 1.615558 -4.208784 -4.317022 0
M  V30 28 C 1.791678 -3.709228 -3.064874 0
M  V30 29 C 1.154850 -2.526195 -2.676991 0
M  V30 30 H -0.328430 -2.474397 2.671661 0
M  V30 31 H -0.831487 -3.486618 4.043929 0
M  V30 32 H -0.448493 -4.297430 2.529342 0
M  V30 33 H 1.144404 -4.389443 4.505922 0
M  V30 34 H 1.569695 -2.681424 4.186278 0
M  V30 35 H 2.809039 -2.200552 2.097043 0
M  V30 36 H 3.451667 -3.595353 1.228438 0
M  V30 37 H 2.871618 -1.729752 -0.479875 0
M  V30 38 H -1.157801 1.520298 -1.679216 0
M  V30 39 H 1.009485 3.257318 -0.175765 0
M  V30 40 H 1.076259 4.579543 1.940882 0
M  V30 41 H -1.203829 4.618598 5.880665 0
M  V30 42 H -2.490091 4.301641 4.615718 0
M  V30 43 H -1.448476 2.958305 5.150634 0
M  V30 44 H -2.317668 2.346201 3.409574 0
M  V30 45 H -4.327248 -0.129712 1.882975 0
M  V30 46 H -2.955216 0.073866 3.078825 0
M  V30 47 H -3.982191 1.487136 2.583298 0
M  V30 48 H -0.456300 -1.839126 -5.487423 0
M  V30 49 H 0.665519 -3.930354 -6.182597 0
M  V30 50 H 2.131001 -5.123461 -4.560495 0
M  V30 51 H 2.434546 -4.222418 -2.336551 0
M  V30 END ATOM
M  V30 BEGIN BOND
M  V30 1 1 1 2
M  V30 2 1 2 3
M  V30 3 1 3 4
M  V30 4 1 4 5
M  V30 5 2 5 6
M  V30 6 1 5 7
M  V30 7 1 7 8
M  V30 8 2 8 9
M  V30 9 1 9 10
M  V30 10 2 10 11
M  V30 11 1 10 12
M  V30 12 1 12 13
M  V30 13 2 13 14
M  V30 14 1 14 15
M  V30 15 2 15 16
M  V30 16 1 16 17
M  V30 17 1 17 18
M  V30 18 1 16 19
M  V30 19 2 19 20
M  V30 20 1 20 21
M  V30 21 1 21 22
M  V30 22 1 9 23
M  V30 23 1 23 24
M  V30 24 2 24 25
M  V30 25 1 25 26
M  V30 26 2 26 27
M  V30 27 1 27 28
M  V30 28 2 28 29
M  V30 29 1 29 8
M  V30 30 1 20 13
M  V30 31 1 29 24
M  V30 32 1 1 30
M  V30 33 1 1 31
M  V30 34 1 1 32
M  V30 35 1 2 33
M  V30 36 1 2 34
M  V30 37 1 4 35
M  V30 38 1 4 36
M  V30 39 1 7 37
M  V30 40 1 12 38
M  V30 41 1 14 39
M  V30 42 1 15 40
M  V30 43 1 18 41
M  V30 44 1 18 42
M  V30 45 1 18 43
M  V30 46 1 19 44
M  V30 47 1 22 45
M  V30 48 1 22 46
M  V30 49 1 22 47
M  V30 50 1 25 48
M  V30 51 1 26 49
M  V30 52 1 27 50
M  V30 53 1 28 51
M  V30 END BOND
M  V30 END CTAB
M  END
>  <Dataset>  (914) 
ChEMBL_Kinases

>  <Ligand_Instance>  (914) 
nan

>  <PDB_ID>  (914) 
nan

>  <Standardized_SMILES>  (914) 
CCOCC(=O)Nc1c(C(=O)Nc2ccc(OC)cc2OC)oc2ccccc12

>  <Name>  (914) 
nan

>  <Pocket>  (914) 
nan

>  <ATP_Site>  (914) 
nan

>  <Peripheral>  (914) 
nan

>  <Num_H_Atoms_ProtBoundConf>  (914) 
nan

>  <Num_Resolved_Atoms>  (914) 
nan

>  <Num_Not_Resolved_Atoms>  (914) 
nan

$$$$
CHEMBL1382511
     RDKit          3D

  0  0  0  0  0  0  0  0  0  0999 V3000
M  V30 BEGIN CTAB
M  V30 COUNTS 38 39 0 0 0
M  V30 BEGIN ATOM
M  V30 1 C 0.449228 -3.340295 5.911661 0
M  V30 2 O 1.041105 -2.668276 4.834059 0
M  V30 3 C 0.569397 -2.649124 3.549066 0
M  V30 4 O -0.473255 -3.350908 3.584500 0
M  V30 5 C 1.259663 -1.917126 2.492221 0
M  V30 6 C 2.419221 -1.193026 2.672238 0
M  V30 7 C 2.677404 -0.695155 1.413726 0
M  V30 8 C 1.724653 -1.079822 0.456370 0
M  V30 9 S 1.761930 -0.587601 -1.207549 0
M  V30 10 O 1.795380 -1.791090 -2.129227 0
M  V30 11 O 3.081246 0.131115 -1.469051 0
M  V30 12 N 0.525258 0.431921 -1.720783 0
M  V30 13 C -0.810732 -0.027301 -1.660976 0
M  V30 14 C -1.468412 0.607474 -0.450186 0
M  V30 15 C -1.748475 2.047386 -0.786555 0
M  V30 16 O -2.855505 2.062376 -1.631172 0
M  V30 17 C -0.571771 2.604852 -1.535340 0
M  V30 18 C 0.690193 1.810773 -1.307565 0
M  V30 19 N 0.897833 -1.823802 1.202673 0
M  V30 20 C -0.272642 -2.499316 0.686411 0
M  V30 21 H 1.249786 -3.407898 6.705642 0
M  V30 22 H 0.141602 -4.374077 5.704241 0
M  V30 23 H -0.348856 -2.733652 6.401685 0
M  V30 24 H 3.013307 -1.027759 3.557986 0
M  V30 25 H 3.548328 -0.066208 1.219725 0
M  V30 26 H -0.921510 -1.105481 -1.726997 0
M  V30 27 H -1.359419 0.431187 -2.545077 0
M  V30 28 H -2.401755 0.032597 -0.224185 0
M  V30 29 H -0.819351 0.597728 0.444922 0
M  V30 30 H -2.007074 2.630281 0.102108 0
M  V30 31 H -2.834027 2.899049 -2.185832 0
M  V30 32 H -0.800030 2.720011 -2.615366 0
M  V30 33 H -0.386624 3.636045 -1.148740 0
M  V30 34 H 0.986897 1.913542 -0.245898 0
M  V30 35 H 1.479351 2.251335 -1.953700 0
M  V30 36 H -1.211488 -1.959048 0.793923 0
M  V30 37 H -0.441800 -3.469903 1.253704 0
M  V30 38 H -0.104338 -2.861938 -0.360483 0
M  V30 END ATOM
M  V30 BEGIN BOND
M  V30 1 1 1 2
M  V30 2 1 2 3
M  V30 3 2 3 4
M  V30 4 1 3 5
M  V30 5 2 5 6
M  V30 6 1 6 7
M  V30 7 2 7 8
M  V30 8 1 8 9
M  V30 9 2 9 10
M  V30 10 2 9 11
M  V30 11 1 9 12
M  V30 12 1 12 13
M  V30 13 1 13 14
M  V30 14 1 14 15
M  V30 15 1 15 16
M  V30 16 1 15 17
M  V30 17 1 17 18
M  V30 18 1 8 19
M  V30 19 1 19 20
M  V30 20 1 19 5
M  V30 21 1 18 12
M  V30 22 1 1 21
M  V30 23 1 1 22
M  V30 24 1 1 23
M  V30 25 1 6 24
M  V30 26 1 7 25
M  V30 27 1 13 26
M  V30 28 1 13 27
M  V30 29 1 14 28
M  V30 30 1 14 29
M  V30 31 1 15 30
M  V30 32 1 16 31
M  V30 33 1 17 32
M  V30 34 1 17 33
M  V30 35 1 18 34
M  V30 36 1 18 35
M  V30 37 1 20 36
M  V30 38 1 20 37
M  V30 39 1 20 38
M  V30 END BOND
M  V30 END CTAB
M  END
>  <Dataset>  (915) 
ChEMBL_Kinases

>  <Ligand_Instance>  (915) 
nan

>  <PDB_ID>  (915) 
nan

>  <Standardized_SMILES>  (915) 
COC(=O)c1ccc(S(=O)(=O)N2CCC(O)CC2)n1C

>  <Name>  (915) 
nan

>  <Pocket>  (915) 
nan

>  <ATP_Site>  (915) 
nan

>  <Peripheral>  (915) 
nan

>  <Num_H_Atoms_ProtBoundConf>  (915) 
nan

>  <Num_Resolved_Atoms>  (915) 
nan

>  <Num_Not_Resolved_Atoms>  (915) 
nan

$$$$
CHEMBL1382363
     RDKit          3D

  0  0  0  0  0  0  0  0  0  0999 V3000
M  V30 BEGIN CTAB
M  V30 COUNTS 30 32 0 0 0
M  V30 BEGIN ATOM
M  V30 1 O 1.391854 -1.779430 0.085352 0
M  V30 2 C 0.833268 -1.249777 1.108548 0
M  V30 3 N 1.439889 -1.746236 2.266794 0
M  V30 4 C 2.499688 -2.687862 2.149092 0
M  V30 5 C 2.404105 -4.074919 2.107296 0
M  V30 6 C 3.529739 -4.843825 1.990522 0
M  V30 7 N 4.771029 -4.296631 1.911423 0
M  V30 8 C 4.906066 -2.961120 1.948249 0
M  V30 9 C 3.791068 -2.154310 2.065529 0
M  V30 10 C -0.255403 -0.290671 0.993838 0
M  V30 11 C -0.648336 0.011445 -0.317074 0
M  V30 12 C -1.668763 0.905819 -0.557386 0
M  V30 13 C -2.030934 1.181424 -1.848078 0
M  V30 14 C -3.063714 2.087462 -2.067143 0
M  V30 15 C -3.740567 2.722178 -1.031333 0
M  V30 16 C -3.340595 2.413613 0.273200 0
M  V30 17 C -2.318930 1.517390 0.491767 0
M  V30 18 O -1.935893 1.220744 1.707980 0
M  V30 19 C -0.970551 0.375626 1.963456 0
M  V30 20 O -0.618846 0.104991 3.130467 0
M  V30 21 H 1.090798 -1.405431 3.188713 0
M  V30 22 H 1.392529 -4.441715 2.174573 0
M  V30 23 H 3.380337 -5.931467 1.963663 0
M  V30 24 H 5.913042 -2.564122 1.882414 0
M  V30 25 H 3.965909 -1.083819 2.089762 0
M  V30 26 H -0.158237 -0.451685 -1.169127 0
M  V30 27 H -1.566285 0.740111 -2.720207 0
M  V30 28 H -3.399809 2.350018 -3.068932 0
M  V30 29 H -4.540722 3.422647 -1.244166 0
M  V30 30 H -3.848859 2.892412 1.113716 0
M  V30 END ATOM
M  V30 BEGIN BOND
M  V30 1 2 1 2
M  V30 2 1 2 3
M  V30 3 1 3 4
M  V30 4 2 4 5
M  V30 5 1 5 6
M  V30 6 2 6 7
M  V30 7 1 7 8
M  V30 8 2 8 9
M  V30 9 1 2 10
M  V30 10 2 10 11
M  V30 11 1 11 12
M  V30 12 2 12 13
M  V30 13 1 13 14
M  V30 14 2 14 15
M  V30 15 1 15 16
M  V30 16 2 16 17
M  V30 17 1 17 18
M  V30 18 1 18 19
M  V30 19 2 19 20
M  V30 20 1 9 4
M  V30 21 1 19 10
M  V30 22 1 17 12
M  V30 23 1 3 21
M  V30 24 1 5 22
M  V30 25 1 6 23
M  V30 26 1 8 24
M  V30 27 1 9 25
M  V30 28 1 11 26
M  V30 29 1 13 27
M  V30 30 1 14 28
M  V30 31 1 15 29
M  V30 32 1 16 30
M  V30 END BOND
M  V30 END CTAB
M  END
>  <Dataset>  (916) 
ChEMBL_Kinases

>  <Ligand_Instance>  (916) 
nan

>  <PDB_ID>  (916) 
nan

>  <Standardized_SMILES>  (916) 
O=C(Nc1ccncc1)c1cc2ccccc2oc1=O

>  <Name>  (916) 
nan

>  <Pocket>  (916) 
nan

>  <ATP_Site>  (916) 
nan

>  <Peripheral>  (916) 
nan

>  <Num_H_Atoms_ProtBoundConf>  (916) 
nan

>  <Num_Resolved_Atoms>  (916) 
nan

>  <Num_Not_Resolved_Atoms>  (916) 
nan

$$$$
CHEMBL1382312
     RDKit          3D

  0  0  0  0  0  0  0  0  0  0999 V3000
M  V30 BEGIN CTAB
M  V30 COUNTS 51 54 0 0 0
M  V30 BEGIN ATOM
M  V30 1 Br 0.581813 -5.649869 1.810771 0
M  V30 2 C 1.847465 -4.213589 1.652168 0
M  V30 3 C 2.568887 -3.775509 2.756221 0
M  V30 4 C 3.470951 -2.747142 2.628307 0
M  V30 5 C 3.651005 -2.160679 1.406242 0
M  V30 6 C 2.955870 -2.560703 0.270354 0
M  V30 7 C 3.063980 -2.015117 -1.085890 0
M  V30 8 N 2.169318 -0.928598 -1.377837 0
M  V30 9 C 1.905442 0.368674 -0.879089 0
M  V30 10 N 2.586512 1.451344 -1.355218 0
M  V30 11 C 2.127481 2.558376 -0.704686 0
M  V30 12 C 2.445161 3.900166 -0.774338 0
M  V30 13 C 1.780455 4.798238 0.044151 0
M  V30 14 C 0.812519 4.308818 0.909607 0
M  V30 15 C 0.462718 2.982996 1.013615 0
M  V30 16 C 1.151697 2.106758 0.175139 0
M  V30 17 N 1.013701 0.771964 0.071140 0
M  V30 18 C 0.115227 -0.110802 0.792317 0
M  V30 19 C -1.214403 -0.274686 0.043957 0
M  V30 20 N -2.079729 -1.137566 0.762646 0
M  V30 21 C -2.603010 -0.694176 1.989790 0
M  V30 22 C -4.104764 -0.537249 1.851605 0
M  V30 23 C -4.649832 -1.901200 1.558714 0
M  V30 24 C -4.078764 -2.513449 0.312071 0
M  V30 25 C -2.617851 -2.258796 0.122969 0
M  V30 26 C 2.051622 -3.601424 0.430817 0
M  V30 27 H 2.370901 -4.294391 3.705124 0
M  V30 28 H 4.031840 -2.409376 3.489787 0
M  V30 29 H 4.351196 -1.337816 1.234446 0
M  V30 30 H 4.123960 -1.635598 -1.195365 0
M  V30 31 H 2.970776 -2.813200 -1.833335 0
M  V30 32 H 1.482517 -1.039838 -2.169980 0
M  V30 33 H 3.210372 4.228222 -1.469210 0
M  V30 34 H 2.024007 5.864274 0.001469 0
M  V30 35 H 0.300135 5.027421 1.543394 0
M  V30 36 H -0.294187 2.652112 1.700455 0
M  V30 37 H 0.549879 -1.107709 0.949910 0
M  V30 38 H -0.063550 0.319374 1.794840 0
M  V30 39 H -1.622678 0.730716 -0.158579 0
M  V30 40 H -0.965038 -0.732749 -0.940807 0
M  V30 41 H -2.432278 -1.503245 2.751265 0
M  V30 42 H -2.110344 0.246524 2.277064 0
M  V30 43 H -4.570207 -0.185173 2.792755 0
M  V30 44 H -4.357995 0.127548 0.991175 0
M  V30 45 H -5.757821 -1.813796 1.459970 0
M  V30 46 H -4.468845 -2.530848 2.460730 0
M  V30 47 H -4.693358 -2.136984 -0.538880 0
M  V30 48 H -4.257223 -3.606186 0.363996 0
M  V30 49 H -2.022423 -3.162323 0.454826 0
M  V30 50 H -2.426973 -2.196658 -0.971627 0
M  V30 51 H 1.461573 -3.983787 -0.394305 0
M  V30 END ATOM
M  V30 BEGIN BOND
M  V30 1 1 1 2
M  V30 2 2 2 3
M  V30 3 1 3 4
M  V30 4 2 4 5
M  V30 5 1 5 6
M  V30 6 1 6 7
M  V30 7 1 7 8
M  V30 8 1 8 9
M  V30 9 2 9 10
M  V30 10 1 10 11
M  V30 11 2 11 12
M  V30 12 1 12 13
M  V30 13 2 13 14
M  V30 14 1 14 15
M  V30 15 2 15 16
M  V30 16 1 16 17
M  V30 17 1 17 18
M  V30 18 1 18 19
M  V30 19 1 19 20
M  V30 20 1 20 21
M  V30 21 1 21 22
M  V30 22 1 22 23
M  V30 23 1 23 24
M  V30 24 1 24 25
M  V30 25 2 6 26
M  V30 26 1 26 2
M  V30 27 1 17 9
M  V30 28 1 25 20
M  V30 29 1 16 11
M  V30 30 1 3 27
M  V30 31 1 4 28
M  V30 32 1 5 29
M  V30 33 1 7 30
M  V30 34 1 7 31
M  V30 35 1 8 32
M  V30 36 1 12 33
M  V30 37 1 13 34
M  V30 38 1 14 35
M  V30 39 1 15 36
M  V30 40 1 18 37
M  V30 41 1 18 38
M  V30 42 1 19 39
M  V30 43 1 19 40
M  V30 44 1 21 41
M  V30 45 1 21 42
M  V30 46 1 22 43
M  V30 47 1 22 44
M  V30 48 1 23 45
M  V30 49 1 23 46
M  V30 50 1 24 47
M  V30 51 1 24 48
M  V30 52 1 25 49
M  V30 53 1 25 50
M  V30 54 1 26 51
M  V30 END BOND
M  V30 END CTAB
M  END
>  <Dataset>  (917) 
ChEMBL_Kinases

>  <Ligand_Instance>  (917) 
nan

>  <PDB_ID>  (917) 
nan

>  <Standardized_SMILES>  (917) 
Brc1cccc(CNc2nc3ccccc3n2CCN2CCCCC2)c1

>  <Name>  (917) 
nan

>  <Pocket>  (917) 
nan

>  <ATP_Site>  (917) 
nan

>  <Peripheral>  (917) 
nan

>  <Num_H_Atoms_ProtBoundConf>  (917) 
nan

>  <Num_Resolved_Atoms>  (917) 
nan

>  <Num_Not_Resolved_Atoms>  (917) 
nan

$$$$
CHEMBL1382307
     RDKit          3D

  0  0  0  0  0  0  0  0  0  0999 V3000
M  V30 BEGIN CTAB
M  V30 COUNTS 52 55 0 0 0
M  V30 BEGIN ATOM
M  V30 1 O 3.743289 -2.991175 0.578471 0
M  V30 2 C 2.533482 -3.288677 0.665139 0
M  V30 3 C 1.981415 -4.193626 1.736304 0
M  V30 4 N 1.880731 -3.313114 2.917238 0
M  V30 5 C 2.936169 -3.245256 3.770100 0
M  V30 6 C 2.601707 -2.353124 4.769968 0
M  V30 7 C 1.311649 -1.887471 4.488321 0
M  V30 8 C 0.882539 -2.511940 3.311966 0
M  V30 9 N 1.619834 -2.758062 -0.279544 0
M  V30 10 C 2.030884 -1.838911 -1.328504 0
M  V30 11 C 1.356108 -0.477993 -1.103408 0
M  V30 12 N 0.023099 -0.661066 -0.580529 0
M  V30 13 C -0.769649 0.520206 -0.781243 0
M  V30 14 C -0.274235 1.678517 -0.030797 0
M  V30 15 C -0.187455 2.949120 -0.600663 0
M  V30 16 C 0.277432 3.998219 0.151170 0
M  V30 17 C 0.665089 3.841437 1.460173 0
M  V30 18 C 0.599078 2.607967 2.070560 0
M  V30 19 C 0.128930 1.575944 1.289652 0
M  V30 20 C -2.220345 0.313524 -0.586208 0
M  V30 21 C -2.866350 0.470385 0.622658 0
M  V30 22 C -4.223280 0.273739 0.787686 0
M  V30 23 C -5.002593 -0.100761 -0.299148 0
M  V30 24 C -4.387518 -0.270139 -1.537818 0
M  V30 25 C -3.028799 -0.062646 -1.655025 0
M  V30 26 C -0.498224 -1.870342 -1.114262 0
M  V30 27 C 0.212740 -3.022780 -0.386778 0
M  V30 28 H 0.981009 -4.563694 1.464312 0
M  V30 29 H 2.627844 -5.051735 1.939129 0
M  V30 30 H 3.892423 -3.776833 3.720004 0
M  V30 31 H 3.174834 -2.017377 5.649581 0
M  V30 32 H 0.681124 -1.183212 5.014647 0
M  V30 33 H -0.065835 -2.397911 2.785332 0
M  V30 34 H 3.134738 -1.759285 -1.326364 0
M  V30 35 H 1.727698 -2.240719 -2.307471 0
M  V30 36 H 2.040035 0.065413 -0.444599 0
M  V30 37 H 1.300096 0.053970 -2.079864 0
M  V30 38 H -0.619437 0.784055 -1.875492 0
M  V30 39 H -0.510842 2.983689 -1.637786 0
M  V30 40 H 0.311070 4.944930 -0.367347 0
M  V30 41 H 1.011893 4.740843 1.951662 0
M  V30 42 H 0.907465 2.496807 3.100703 0
M  V30 43 H 0.096621 0.608458 1.817953 0
M  V30 44 H -2.284707 0.760402 1.482922 0
M  V30 45 H -4.741691 0.396262 1.737002 0
M  V30 46 H -6.068270 -0.253774 -0.176883 0
M  V30 47 H -4.963512 -0.563663 -2.418751 0
M  V30 48 H -2.579316 -0.204852 -2.647450 0
M  V30 49 H -0.279896 -1.895636 -2.204610 0
M  V30 50 H -1.571596 -2.054615 -0.963286 0
M  V30 51 H 0.126790 -3.885108 -1.113680 0
M  V30 52 H -0.289927 -3.264934 0.548545 0
M  V30 END ATOM
M  V30 BEGIN BOND
M  V30 1 2 1 2
M  V30 2 1 2 3
M  V30 3 1 3 4
M  V30 4 1 4 5
M  V30 5 2 5 6
M  V30 6 1 6 7
M  V30 7 2 7 8
M  V30 8 1 2 9
M  V30 9 1 9 10
M  V30 10 1 10 11
M  V30 11 1 11 12
M  V30 12 1 12 13
M  V30 13 1 13 14
M  V30 14 2 14 15
M  V30 15 1 15 16
M  V30 16 2 16 17
M  V30 17 1 17 18
M  V30 18 2 18 19
M  V30 19 1 13 20
M  V30 20 2 20 21
M  V30 21 1 21 22
M  V30 22 2 22 23
M  V30 23 1 23 24
M  V30 24 2 24 25
M  V30 25 1 12 26
M  V30 26 1 26 27
M  V30 27 1 8 4
M  V30 28 1 27 9
M  V30 29 1 19 14
M  V30 30 1 25 20
M  V30 31 1 3 28
M  V30 32 1 3 29
M  V30 33 1 5 30
M  V30 34 1 6 31
M  V30 35 1 7 32
M  V30 36 1 8 33
M  V30 37 1 10 34
M  V30 38 1 10 35
M  V30 39 1 11 36
M  V30 40 1 11 37
M  V30 41 1 13 38
M  V30 42 1 15 39
M  V30 43 1 16 40
M  V30 44 1 17 41
M  V30 45 1 18 42
M  V30 46 1 19 43
M  V30 47 1 21 44
M  V30 48 1 22 45
M  V30 49 1 23 46
M  V30 50 1 24 47
M  V30 51 1 25 48
M  V30 52 1 26 49
M  V30 53 1 26 50
M  V30 54 1 27 51
M  V30 55 1 27 52
M  V30 END BOND
M  V30 END CTAB
M  END
>  <Dataset>  (918) 
ChEMBL_Kinases

>  <Ligand_Instance>  (918) 
nan

>  <PDB_ID>  (918) 
nan

>  <Standardized_SMILES>  (918) 
O=C(Cn1cccc1)N1CCN(C(c2ccccc2)c2ccccc2)CC1

>  <Name>  (918) 
nan

>  <Pocket>  (918) 
nan

>  <ATP_Site>  (918) 
nan

>  <Peripheral>  (918) 
nan

>  <Num_H_Atoms_ProtBoundConf>  (918) 
nan

>  <Num_Resolved_Atoms>  (918) 
nan

>  <Num_Not_Resolved_Atoms>  (918) 
nan

$$$$
CHEMBL1382071
     RDKit          3D

  0  0  0  0  0  0  0  0  0  0999 V3000
M  V30 BEGIN CTAB
M  V30 COUNTS 32 34 0 0 0
M  V30 BEGIN ATOM
M  V30 1 O 2.571620 -1.862460 -0.954406 0
M  V30 2 C 1.836809 -1.400773 -0.061452 0
M  V30 3 N 1.772793 -2.089236 1.198974 0
M  V30 4 C 2.564181 -3.288510 1.376661 0
M  V30 5 C 2.159645 -4.319375 0.365828 0
M  V30 6 C 1.175011 -5.279800 0.527457 0
M  V30 7 C 1.124512 -6.024884 -0.642305 0
M  V30 8 C 2.094247 -5.471141 -1.465409 0
M  V30 9 O 2.656331 -4.494353 -0.832174 0
M  V30 10 C 1.014083 -0.193688 -0.181770 0
M  V30 11 C 0.170054 0.387978 0.760549 0
M  V30 12 C -0.402884 1.517101 0.208527 0
M  V30 13 C -1.348386 2.394281 0.898036 0
M  V30 14 C -1.739633 2.127352 2.205726 0
M  V30 15 C -2.635295 3.018888 2.760504 0
M  V30 16 C -3.163454 4.130442 2.136800 0
M  V30 17 F -4.037086 4.950404 2.758490 0
M  V30 18 C -2.759587 4.381350 0.826907 0
M  V30 19 C -1.864022 3.501437 0.253480 0
M  V30 20 O 0.089433 1.589381 -1.009062 0
M  V30 21 N 0.902920 0.619864 -1.253671 0
M  V30 22 H 1.150230 -1.708598 1.972585 0
M  V30 23 H 2.336673 -3.692701 2.395811 0
M  V30 24 H 3.651224 -3.079554 1.327143 0
M  V30 25 H 0.553597 -5.434674 1.393460 0
M  V30 26 H 0.482594 -6.868603 -0.905312 0
M  V30 27 H 2.348353 -5.793186 -2.471979 0
M  V30 28 H 0.004182 0.007070 1.749451 0
M  V30 29 H -1.365263 1.276081 2.750705 0
M  V30 30 H -2.955541 2.822528 3.794971 0
M  V30 31 H -3.139794 5.227687 0.302992 0
M  V30 32 H -1.549659 3.705393 -0.780144 0
M  V30 END ATOM
M  V30 BEGIN BOND
M  V30 1 2 1 2
M  V30 2 1 2 3
M  V30 3 1 3 4
M  V30 4 1 4 5
M  V30 5 2 5 6
M  V30 6 1 6 7
M  V30 7 2 7 8
M  V30 8 1 8 9
M  V30 9 1 2 10
M  V30 10 1 10 11
M  V30 11 2 11 12
M  V30 12 1 12 13
M  V30 13 2 13 14
M  V30 14 1 14 15
M  V30 15 2 15 16
M  V30 16 1 16 17
M  V30 17 1 16 18
M  V30 18 2 18 19
M  V30 19 1 12 20
M  V30 20 1 20 21
M  V30 21 1 9 5
M  V30 22 2 21 10
M  V30 23 1 19 13
M  V30 24 1 3 22
M  V30 25 1 4 23
M  V30 26 1 4 24
M  V30 27 1 6 25
M  V30 28 1 7 26
M  V30 29 1 8 27
M  V30 30 1 11 28
M  V30 31 1 14 29
M  V30 32 1 15 30
M  V30 33 1 18 31
M  V30 34 1 19 32
M  V30 END BOND
M  V30 END CTAB
M  END
>  <Dataset>  (919) 
ChEMBL_Kinases

>  <Ligand_Instance>  (919) 
nan

>  <PDB_ID>  (919) 
nan

>  <Standardized_SMILES>  (919) 
O=C(NCc1ccco1)c1cc(-c2ccc(F)cc2)on1

>  <Name>  (919) 
nan

>  <Pocket>  (919) 
nan

>  <ATP_Site>  (919) 
nan

>  <Peripheral>  (919) 
nan

>  <Num_H_Atoms_ProtBoundConf>  (919) 
nan

>  <Num_Resolved_Atoms>  (919) 
nan

>  <Num_Not_Resolved_Atoms>  (919) 
nan

$$$$
CHEMBL1382005
     RDKit          3D

  0  0  0  0  0  0  0  0  0  0999 V3000
M  V30 BEGIN CTAB
M  V30 COUNTS 36 37 0 0 0
M  V30 BEGIN ATOM
M  V30 1 C 1.044666 -1.737202 3.296397 0
M  V30 2 C 1.110056 -3.083267 2.697854 0
M  V30 3 C 1.627445 -3.255232 1.362308 0
M  V30 4 N 1.615210 -4.562918 0.953710 0
M  V30 5 C 2.101157 -4.658661 -0.271601 0
M  V30 6 C 2.403865 -3.377400 -0.585061 0
M  V30 7 N 2.115463 -2.488216 0.421478 0
M  V30 8 S 2.403908 -0.817769 0.283337 0
M  V30 9 O 2.962596 -0.521429 -1.119793 0
M  V30 10 O 3.544653 -0.333345 1.171801 0
M  V30 11 C 1.017371 0.205433 0.395836 0
M  V30 12 C 0.567767 0.999874 1.420541 0
M  V30 13 C -0.574641 1.765485 1.375506 0
M  V30 14 C -1.356386 1.767456 0.240920 0
M  V30 15 O -2.515628 2.521424 0.146761 0
M  V30 16 C -2.964004 3.339087 1.222222 0
M  V30 17 C -0.979603 0.997785 -0.837951 0
M  V30 18 O -1.751176 0.988170 -1.982454 0
M  V30 19 C -1.450796 0.242525 -3.121874 0
M  V30 20 C 0.179322 0.258839 -0.712288 0
M  V30 21 H 1.944182 -1.169216 3.101521 0
M  V30 22 H 1.043839 -1.840619 4.437479 0
M  V30 23 H 0.075521 -1.223514 3.117588 0
M  V30 24 H 1.603093 -3.792178 3.448500 0
M  V30 25 H 0.033643 -3.471937 2.742993 0
M  V30 26 H 2.228875 -5.548961 -0.883881 0
M  V30 27 H 2.838716 -3.147205 -1.575453 0
M  V30 28 H 1.224917 0.967575 2.300101 0
M  V30 29 H -0.833397 2.353042 2.241382 0
M  V30 30 H -2.114648 3.856183 1.736833 0
M  V30 31 H -3.699198 4.093665 0.854924 0
M  V30 32 H -3.495151 2.709529 1.957560 0
M  V30 33 H -0.373760 0.312276 -3.401588 0
M  V30 34 H -1.762733 -0.833586 -3.045784 0
M  V30 35 H -2.017316 0.684453 -3.987959 0
M  V30 36 H 0.415839 -0.327019 -1.606881 0
M  V30 END ATOM
M  V30 BEGIN BOND
M  V30 1 1 1 2
M  V30 2 1 2 3
M  V30 3 2 3 4
M  V30 4 1 4 5
M  V30 5 2 5 6
M  V30 6 1 6 7
M  V30 7 1 7 8
M  V30 8 2 8 9
M  V30 9 2 8 10
M  V30 10 1 8 11
M  V30 11 2 11 12
M  V30 12 1 12 13
M  V30 13 2 13 14
M  V30 14 1 14 15
M  V30 15 1 15 16
M  V30 16 1 14 17
M  V30 17 1 17 18
M  V30 18 1 18 19
M  V30 19 2 17 20
M  V30 20 1 7 3
M  V30 21 1 20 11
M  V30 22 1 1 21
M  V30 23 1 1 22
M  V30 24 1 1 23
M  V30 25 1 2 24
M  V30 26 1 2 25
M  V30 27 1 5 26
M  V30 28 1 6 27
M  V30 29 1 12 28
M  V30 30 1 13 29
M  V30 31 1 16 30
M  V30 32 1 16 31
M  V30 33 1 16 32
M  V30 34 1 19 33
M  V30 35 1 19 34
M  V30 36 1 19 35
M  V30 37 1 20 36
M  V30 END BOND
M  V30 END CTAB
M  END
>  <Dataset>  (920) 
ChEMBL_Kinases

>  <Ligand_Instance>  (920) 
nan

>  <PDB_ID>  (920) 
nan

>  <Standardized_SMILES>  (920) 
CCc1nccn1S(=O)(=O)c1ccc(OC)c(OC)c1

>  <Name>  (920) 
nan

>  <Pocket>  (920) 
nan

>  <ATP_Site>  (920) 
nan

>  <Peripheral>  (920) 
nan

>  <Num_H_Atoms_ProtBoundConf>  (920) 
nan

>  <Num_Resolved_Atoms>  (920) 
nan

>  <Num_Not_Resolved_Atoms>  (920) 
nan

$$$$
CHEMBL1381777
     RDKit          3D

  0  0  0  0  0  0  0  0  0  0999 V3000
M  V30 BEGIN CTAB
M  V30 COUNTS 49 50 0 0 0
M  V30 BEGIN ATOM
M  V30 1 C -0.677457 -5.678664 -0.993706 0
M  V30 2 C 0.768908 -5.404498 -0.750594 0
M  V30 3 C 1.171680 -3.993012 -1.102132 0
M  V30 4 C 0.934951 -3.657159 -2.534869 0
M  V30 5 C 0.463515 -2.973308 -0.236452 0
M  V30 6 O 1.333297 -2.280982 0.590485 0
M  V30 7 C 2.381198 -1.691381 -0.052888 0
M  V30 8 C 3.495101 -1.444096 0.942904 0
M  V30 9 C 2.022071 -0.336340 -0.652795 0
M  V30 10 C 1.589373 0.542944 0.450267 0
M  V30 11 O 1.442554 0.472081 1.717612 0
M  V30 12 N 1.202785 1.885496 0.088641 0
M  V30 13 N 0.799007 2.669547 1.206326 0
M  V30 14 C -0.572034 2.658739 1.577915 0
M  V30 15 O -1.293349 1.947076 0.869222 0
M  V30 16 N -1.117322 3.377165 2.651353 0
M  V30 17 C -2.458582 3.432074 3.098700 0
M  V30 18 C -3.538801 2.778453 2.564990 0
M  V30 19 C -4.828918 2.865885 3.039660 0
M  V30 20 C -5.089665 3.657696 4.127352 0
M  V30 21 C -4.032170 4.328012 4.688833 0
M  V30 22 C -2.754703 4.218030 4.188834 0
M  V30 23 O 2.935757 -2.466727 -1.064947 0
M  V30 24 C 2.647943 -3.809376 -0.817936 0
M  V30 25 H -1.011567 -6.445865 -0.255176 0
M  V30 26 H -0.873859 -6.144035 -1.994665 0
M  V30 27 H -1.342450 -4.796308 -0.806431 0
M  V30 28 H 1.377284 -6.149830 -1.261150 0
M  V30 29 H 0.966602 -5.544150 0.341545 0
M  V30 30 H 1.856476 -3.291448 -3.050289 0
M  V30 31 H 0.540226 -4.503469 -3.137230 0
M  V30 32 H 0.173983 -2.834005 -2.662005 0
M  V30 33 H -0.194145 -2.294909 -0.823018 0
M  V30 34 H -0.221422 -3.542333 0.437859 0
M  V30 35 H 4.066878 -0.551933 0.622520 0
M  V30 36 H 3.036118 -1.224620 1.928485 0
M  V30 37 H 4.152599 -2.336292 0.985837 0
M  V30 38 H 1.237930 -0.539319 -1.392522 0
M  V30 39 H 2.892916 0.065252 -1.187093 0
M  V30 40 H 1.198728 2.302187 -0.889034 0
M  V30 41 H 1.471952 3.262607 1.776680 0
M  V30 42 H -0.386699 3.929003 3.152785 0
M  V30 43 H -3.393525 2.142623 1.709570 0
M  V30 44 H -5.632829 2.315969 2.561145 0
M  V30 45 H -6.086648 3.745742 4.520401 0
M  V30 46 H -4.172182 4.966000 5.545522 0
M  V30 47 H -1.944469 4.780324 4.681431 0
M  V30 48 H 2.779062 -4.033183 0.276504 0
M  V30 49 H 3.276806 -4.483110 -1.432846 0
M  V30 END ATOM
M  V30 BEGIN BOND
M  V30 1 1 1 2
M  V30 2 1 2 3
M  V30 3 1 3 4
M  V30 4 1 3 5
M  V30 5 1 5 6
M  V30 6 1 6 7
M  V30 7 1 7 8
M  V30 8 1 7 9
M  V30 9 1 9 10
M  V30 10 2 10 11
M  V30 11 1 10 12
M  V30 12 1 12 13
M  V30 13 1 13 14
M  V30 14 2 14 15
M  V30 15 1 14 16
M  V30 16 1 16 17
M  V30 17 2 17 18
M  V30 18 1 18 19
M  V30 19 2 19 20
M  V30 20 1 20 21
M  V30 21 2 21 22
M  V30 22 1 7 23
M  V30 23 1 23 24
M  V30 24 1 24 3
M  V30 25 1 22 17
M  V30 26 1 1 25
M  V30 27 1 1 26
M  V30 28 1 1 27
M  V30 29 1 2 28
M  V30 30 1 2 29
M  V30 31 1 4 30
M  V30 32 1 4 31
M  V30 33 1 4 32
M  V30 34 1 5 33
M  V30 35 1 5 34
M  V30 36 1 8 35
M  V30 37 1 8 36
M  V30 38 1 8 37
M  V30 39 1 9 38
M  V30 40 1 9 39
M  V30 41 1 12 40
M  V30 42 1 13 41
M  V30 43 1 16 42
M  V30 44 1 18 43
M  V30 45 1 19 44
M  V30 46 1 20 45
M  V30 47 1 21 46
M  V30 48 1 22 47
M  V30 49 1 24 48
M  V30 50 1 24 49
M  V30 END BOND
M  V30 END CTAB
M  END
>  <Dataset>  (921) 
ChEMBL_Kinases

>  <Ligand_Instance>  (921) 
nan

>  <PDB_ID>  (921) 
nan

>  <Standardized_SMILES>  (921) 
CCC1(C)COC(C)(CC(=O)NNC(=O)Nc2ccccc2)OC1

>  <Name>  (921) 
nan

>  <Pocket>  (921) 
nan

>  <ATP_Site>  (921) 
nan

>  <Peripheral>  (921) 
nan

>  <Num_H_Atoms_ProtBoundConf>  (921) 
nan

>  <Num_Resolved_Atoms>  (921) 
nan

>  <Num_Not_Resolved_Atoms>  (921) 
nan

$$$$
CHEMBL1381733
     RDKit          3D

  0  0  0  0  0  0  0  0  0  0999 V3000
M  V30 BEGIN CTAB
M  V30 COUNTS 78 79 0 0 0
M  V30 BEGIN ATOM
M  V30 1 C -1.140747 0.818183 5.250767 0
M  V30 2 C -0.703624 1.604746 4.043393 0
M  V30 3 C 0.404688 0.868395 3.288419 0 CFG=2
M  V30 4 C 1.590913 0.675853 4.196165 0
M  V30 5 C 0.823498 1.693180 2.082641 0
M  V30 6 C -0.290139 1.921744 1.157717 0
M  V30 7 O -0.063159 1.436765 0.024117 0
M  V30 8 N -1.409781 2.191575 0.348270 0
M  V30 9 C -1.716961 1.880866 -1.023097 0
M  V30 10 C -3.012466 1.057852 -0.999450 0
M  V30 11 N -3.472191 0.824819 0.355351 0
M  V30 12 C -3.683221 -0.398915 1.043640 0
M  V30 13 O -4.094136 -0.477108 2.241755 0
M  V30 14 O -3.515701 -1.706348 0.638448 0
M  V30 15 C -3.801729 -2.765567 1.531745 0
M  V30 16 C -2.981032 -2.745128 2.786644 0
M  V30 17 C -5.261987 -2.799619 1.931806 0
M  V30 18 C -3.489497 -4.052683 0.791429 0
M  V30 19 C -3.755675 2.042707 1.109409 0
M  V30 20 C -2.549101 2.931159 0.897732 0
M  V30 21 N 1.999934 1.103470 1.476223 0
M  V30 22 C 1.941111 -0.061640 0.791047 0
M  V30 23 C 3.240106 -0.263036 0.390508 0
M  V30 24 C 3.697048 -1.428306 -0.406726 0
M  V30 25 C 3.734506 -2.674123 0.468568 0
M  V30 26 O 4.165815 -3.738867 -0.354127 0
M  V30 27 N 2.758485 -1.672577 -1.500827 0
M  V30 28 C 3.284040 -1.653117 -2.827380 0
M  V30 29 O 4.513658 -1.428383 -2.963552 0
M  V30 30 O 2.360649 -1.888787 -3.831771 0
M  V30 31 C 2.799013 -1.886426 -5.170018 0
M  V30 32 C 1.612738 -2.167924 -6.051477 0
M  V30 33 C 3.914553 -2.846628 -5.451172 0
M  V30 34 C 3.276672 -0.470817 -5.503830 0
M  V30 35 N 4.016827 0.741038 0.824504 0
M  V30 36 N 3.231859 1.567637 1.488680 0
M  V30 37 H -1.125160 -0.265098 4.978511 0
M  V30 38 H -2.210455 1.080667 5.435548 0
M  V30 39 H -0.518142 0.962425 6.140360 0
M  V30 40 H -1.577080 1.566262 3.329035 0
M  V30 41 H -0.404382 2.620264 4.299987 0
M  V30 42 H -0.033909 -0.092834 2.962998 0
M  V30 43 H 2.158503 -0.217822 3.823038 0
M  V30 44 H 1.246730 0.496355 5.226408 0
M  V30 45 H 2.278307 1.556953 4.148138 0
M  V30 46 H 1.131624 2.689581 2.523430 0
M  V30 47 H -0.962579 1.315316 -1.565029 0
M  V30 48 H -1.908198 2.851068 -1.578675 0
M  V30 49 H -2.867972 0.111006 -1.558779 0
M  V30 50 H -3.775492 1.645579 -1.537490 0
M  V30 51 H -1.993164 -2.273530 2.668512 0
M  V30 52 H -2.850762 -3.802798 3.111534 0
M  V30 53 H -3.562340 -2.278884 3.635450 0
M  V30 54 H -5.535841 -3.863712 2.120567 0
M  V30 55 H -5.926808 -2.309956 1.200478 0
M  V30 56 H -5.402183 -2.291337 2.918607 0
M  V30 57 H -4.001141 -4.892714 1.323111 0
M  V30 58 H -3.840536 -4.014991 -0.252368 0
M  V30 59 H -2.408759 -4.246279 0.837411 0
M  V30 60 H -4.685071 2.516923 0.715089 0
M  V30 61 H -3.861156 1.838965 2.173844 0
M  V30 62 H -2.265254 3.347878 1.880261 0
M  V30 63 H -2.804444 3.804232 0.243636 0
M  V30 64 H 1.103983 -0.718781 0.578259 0
M  V30 65 H 4.715279 -1.256646 -0.770105 0
M  V30 66 H 4.439955 -2.559987 1.295936 0
M  V30 67 H 2.739152 -2.940529 0.853315 0
M  V30 68 H 4.256303 -4.571691 0.148661 0
M  V30 69 H 1.764778 -1.844290 -1.225126 0
M  V30 70 H 1.688566 -1.548153 -6.977073 0
M  V30 71 H 0.689854 -1.942173 -5.512801 0
M  V30 72 H 1.641941 -3.255027 -6.309617 0
M  V30 73 H 3.881898 -3.788083 -4.884920 0
M  V30 74 H 4.893896 -2.297054 -5.334536 0
M  V30 75 H 3.878775 -3.100395 -6.531561 0
M  V30 76 H 3.696762 0.014253 -4.603012 0
M  V30 77 H 2.392928 0.114784 -5.889396 0
M  V30 78 H 4.031482 -0.544202 -6.295272 0
M  V30 END ATOM
M  V30 BEGIN BOND
M  V30 1 1 1 2
M  V30 2 1 2 3
M  V30 3 1 3 4
M  V30 4 1 3 5
M  V30 5 1 5 6
M  V30 6 2 6 7
M  V30 7 1 6 8
M  V30 8 1 8 9
M  V30 9 1 9 10
M  V30 10 1 10 11
M  V30 11 1 11 12
M  V30 12 2 12 13
M  V30 13 1 12 14
M  V30 14 1 14 15
M  V30 15 1 15 16
M  V30 16 1 15 17
M  V30 17 1 15 18
M  V30 18 1 11 19
M  V30 19 1 19 20
M  V30 20 1 5 21
M  V30 21 1 21 22
M  V30 22 2 22 23
M  V30 23 1 23 24
M  V30 24 1 24 25
M  V30 25 1 25 26
M  V30 26 1 24 27
M  V30 27 1 27 28
M  V30 28 2 28 29
M  V30 29 1 28 30
M  V30 30 1 30 31
M  V30 31 1 31 32
M  V30 32 1 31 33
M  V30 33 1 31 34
M  V30 34 1 23 35
M  V30 35 2 35 36
M  V30 36 1 20 8
M  V30 37 1 36 21
M  V30 38 1 1 37
M  V30 39 1 1 38
M  V30 40 1 1 39
M  V30 41 1 2 40
M  V30 42 1 2 41
M  V30 43 1 3 42 CFG=3
M  V30 44 1 4 43
M  V30 45 1 4 44
M  V30 46 1 4 45
M  V30 47 1 5 46
M  V30 48 1 9 47
M  V30 49 1 9 48
M  V30 50 1 10 49
M  V30 51 1 10 50
M  V30 52 1 16 51
M  V30 53 1 16 52
M  V30 54 1 16 53
M  V30 55 1 17 54
M  V30 56 1 17 55
M  V30 57 1 17 56
M  V30 58 1 18 57
M  V30 59 1 18 58
M  V30 60 1 18 59
M  V30 61 1 19 60
M  V30 62 1 19 61
M  V30 63 1 20 62
M  V30 64 1 20 63
M  V30 65 1 22 64
M  V30 66 1 24 65
M  V30 67 1 25 66
M  V30 68 1 25 67
M  V30 69 1 26 68
M  V30 70 1 27 69
M  V30 71 1 32 70
M  V30 72 1 32 71
M  V30 73 1 32 72
M  V30 74 1 33 73
M  V30 75 1 33 74
M  V30 76 1 33 75
M  V30 77 1 34 76
M  V30 78 1 34 77
M  V30 79 1 34 78
M  V30 END BOND
M  V30 END CTAB
M  END
>  <Dataset>  (922) 
ChEMBL_Kinases

>  <Ligand_Instance>  (922) 
nan

>  <PDB_ID>  (922) 
nan

>  <Standardized_SMILES>  (922) 
CC[C@H](C)C(C(=O)N1CCN(C(=O)OC(C)(C)C)CC1)n1cc(C(CO)NC(=O)OC(C)(C)C)nn1

>  <Name>  (922) 
nan

>  <Pocket>  (922) 
nan

>  <ATP_Site>  (922) 
nan

>  <Peripheral>  (922) 
nan

>  <Num_H_Atoms_ProtBoundConf>  (922) 
nan

>  <Num_Resolved_Atoms>  (922) 
nan

>  <Num_Not_Resolved_Atoms>  (922) 
nan

$$$$
CHEMBL1381721
     RDKit          3D

  0  0  0  0  0  0  0  0  0  0999 V3000
M  V30 BEGIN CTAB
M  V30 COUNTS 53 55 0 0 0
M  V30 BEGIN ATOM
M  V30 1 C -0.442929 -4.931701 3.230190 0
M  V30 2 O -0.989274 -4.284741 2.114793 0
M  V30 3 C -0.160875 -3.720107 1.163051 0
M  V30 4 C 1.216754 -3.795722 1.311557 0
M  V30 5 C 1.966462 -3.197202 0.301028 0
M  V30 6 C 1.482014 -2.552069 -0.807243 0
M  V30 7 C 2.455018 -1.996518 -1.744780 0
M  V30 8 N 2.844814 -0.619293 -1.407034 0
M  V30 9 C 2.396636 0.719287 -1.732045 0
M  V30 10 C 2.758999 1.516495 -0.530265 0
M  V30 11 C 1.609107 1.990305 0.275471 0
M  V30 12 O 1.427828 3.226685 0.537514 0
M  V30 13 N 0.591639 1.170898 0.844091 0
M  V30 14 C -0.360529 1.974953 1.565361 0
M  V30 15 C -1.470519 1.204624 2.181757 0
M  V30 16 N -2.280793 0.479091 1.239314 0
M  V30 17 C -3.058479 1.356624 0.385267 0
M  V30 18 C -3.948207 0.481276 -0.496909 0
M  V30 19 O -4.900631 -0.186482 0.264081 0
M  V30 20 C -4.586699 -0.285677 1.597327 0
M  V30 21 C -3.120437 -0.513850 1.880114 0
M  V30 22 C 3.778242 0.758471 0.267994 0
M  V30 23 C 3.976082 -0.494062 -0.517378 0
M  V30 24 O 4.980107 -1.272376 -0.383639 0
M  V30 25 C 0.093791 -2.503717 -0.909473 0
M  V30 26 C -0.713419 -3.073572 0.052004 0
M  V30 27 H 0.368599 -5.626953 2.972462 0
M  V30 28 H -1.219022 -5.519841 3.767017 0
M  V30 29 H -0.016285 -4.208288 3.979177 0
M  V30 30 H 1.669875 -4.287205 2.155336 0
M  V30 31 H 3.032766 -3.281301 0.460602 0
M  V30 32 H 3.332195 -2.643091 -1.912043 0
M  V30 33 H 1.950979 -1.951882 -2.756143 0
M  V30 34 H 1.325622 0.753153 -2.006176 0
M  V30 35 H 2.933950 1.081867 -2.646251 0
M  V30 36 H 3.283191 2.437155 -0.889346 0
M  V30 37 H 0.674686 0.125612 0.663121 0
M  V30 38 H -0.694408 2.811517 0.923507 0
M  V30 39 H 0.205711 2.453157 2.410711 0
M  V30 40 H -2.102195 1.895228 2.753670 0
M  V30 41 H -1.041344 0.480838 2.903059 0
M  V30 42 H -2.342295 1.839749 -0.307991 0
M  V30 43 H -3.671144 2.067164 0.959657 0
M  V30 44 H -4.511918 1.141478 -1.183968 0
M  V30 45 H -3.293193 -0.171319 -1.075420 0
M  V30 46 H -4.990611 0.592561 2.110736 0
M  V30 47 H -5.109603 -1.208959 1.967694 0
M  V30 48 H -2.879823 -1.502474 1.424325 0
M  V30 49 H -3.003406 -0.570389 2.964749 0
M  V30 50 H 4.753896 1.260321 0.343297 0
M  V30 51 H 3.439565 0.544705 1.303522 0
M  V30 52 H -0.290516 -1.988163 -1.794453 0
M  V30 53 H -1.763907 -2.990242 -0.105402 0
M  V30 END ATOM
M  V30 BEGIN BOND
M  V30 1 1 1 2
M  V30 2 1 2 3
M  V30 3 2 3 4
M  V30 4 1 4 5
M  V30 5 2 5 6
M  V30 6 1 6 7
M  V30 7 1 7 8
M  V30 8 1 8 9
M  V30 9 1 9 10
M  V30 10 1 10 11
M  V30 11 2 11 12
M  V30 12 1 11 13
M  V30 13 1 13 14
M  V30 14 1 14 15
M  V30 15 1 15 16
M  V30 16 1 16 17
M  V30 17 1 17 18
M  V30 18 1 18 19
M  V30 19 1 19 20
M  V30 20 1 20 21
M  V30 21 1 10 22
M  V30 22 1 22 23
M  V30 23 2 23 24
M  V30 24 1 6 25
M  V30 25 2 25 26
M  V30 26 1 26 3
M  V30 27 1 23 8
M  V30 28 1 21 16
M  V30 29 1 1 27
M  V30 30 1 1 28
M  V30 31 1 1 29
M  V30 32 1 4 30
M  V30 33 1 5 31
M  V30 34 1 7 32
M  V30 35 1 7 33
M  V30 36 1 9 34
M  V30 37 1 9 35
M  V30 38 1 10 36
M  V30 39 1 13 37
M  V30 40 1 14 38
M  V30 41 1 14 39
M  V30 42 1 15 40
M  V30 43 1 15 41
M  V30 44 1 17 42
M  V30 45 1 17 43
M  V30 46 1 18 44
M  V30 47 1 18 45
M  V30 48 1 20 46
M  V30 49 1 20 47
M  V30 50 1 21 48
M  V30 51 1 21 49
M  V30 52 1 22 50
M  V30 53 1 22 51
M  V30 54 1 25 52
M  V30 55 1 26 53
M  V30 END BOND
M  V30 END CTAB
M  END
>  <Dataset>  (923) 
ChEMBL_Kinases

>  <Ligand_Instance>  (923) 
nan

>  <PDB_ID>  (923) 
nan

>  <Standardized_SMILES>  (923) 
COc1ccc(CN2CC(C(=O)NCCN3CCOCC3)CC2=O)cc1

>  <Name>  (923) 
nan

>  <Pocket>  (923) 
nan

>  <ATP_Site>  (923) 
nan

>  <Peripheral>  (923) 
nan

>  <Num_H_Atoms_ProtBoundConf>  (923) 
nan

>  <Num_Resolved_Atoms>  (923) 
nan

>  <Num_Not_Resolved_Atoms>  (923) 
nan

$$$$
CHEMBL138171
     RDKit          3D

  0  0  0  0  0  0  0  0  0  0999 V3000
M  V30 BEGIN CTAB
M  V30 COUNTS 77 77 0 0 0
M  V30 BEGIN ATOM
M  V30 1 C 2.842529 1.199898 0.955312 0
M  V30 2 C 3.230713 -0.235074 1.135122 0
M  V30 3 C 3.928807 -0.419971 2.471434 0
M  V30 4 C 4.133196 -0.727949 0.001553 0
M  V30 5 C 3.484294 -0.618470 -1.339809 0
M  V30 6 C 2.219844 -1.451770 -1.356857 0
M  V30 7 C 1.538247 -1.386861 -2.675088 0
M  V30 8 C 0.281633 -0.940159 -2.847899 0
M  V30 9 C -0.584079 -0.451416 -1.712302 0
M  V30 10 C -1.910288 -0.270120 -2.404490 0
M  V30 11 C -2.697413 -1.541189 -2.507652 0
M  V30 12 O -1.878342 -2.533492 -3.030549 0
M  V30 13 C -2.664783 0.892660 -1.858192 0
M  V30 14 O -3.306240 0.792152 -0.653580 0
M  V30 15 C -2.900893 0.612568 0.611515 0
M  V30 16 O -1.669535 0.518157 0.766261 0
M  V30 17 C -4.023953 0.567480 1.565117 0
M  V30 18 C -3.743858 0.270027 2.974441 0
M  V30 19 C -3.175647 -1.009305 3.405781 0
M  V30 20 C -1.825941 -1.425516 2.897715 0
M  V30 21 C -4.165049 -2.167185 3.317112 0
M  V30 22 C -5.002827 0.522260 3.792051 0
M  V30 23 C -5.430716 1.988586 3.652801 0
M  V30 24 C -4.762512 0.270809 5.260033 0
M  V30 25 O -1.443304 0.129609 -3.704636 0
M  V30 26 C -0.503676 -0.823041 -4.069497 0
M  V30 27 O -0.159513 -1.551700 -5.056763 0
M  V30 28 C 4.335326 -0.826953 -2.527550 0
M  V30 29 C 5.009296 -2.125065 -2.728078 0
M  V30 30 C 5.804104 -2.058199 -4.056999 0
M  V30 31 C 6.020601 -2.469704 -1.671252 0
M  V30 32 H 3.747785 1.756683 0.597770 0
M  V30 33 H 2.508498 1.591955 1.945101 0
M  V30 34 H 2.011658 1.251951 0.219875 0
M  V30 35 H 2.352600 -0.896840 1.157709 0
M  V30 36 H 4.468227 -1.363184 2.530935 0
M  V30 37 H 4.566570 0.468629 2.645456 0
M  V30 38 H 3.112236 -0.458541 3.238587 0
M  V30 39 H 4.428380 -1.739008 0.289647 0
M  V30 40 H 5.045631 -0.060734 0.055399 0
M  V30 41 H 3.115808 0.452314 -1.401165 0
M  V30 42 H 2.471737 -2.471225 -1.034778 0
M  V30 43 H 1.506354 -1.030827 -0.621770 0
M  V30 44 H 2.080056 -1.720202 -3.573663 0
M  V30 45 H -0.202091 0.548195 -1.448074 0
M  V30 46 H -0.604551 -1.200047 -0.910083 0
M  V30 47 H -3.502964 -1.390324 -3.275871 0
M  V30 48 H -3.200909 -1.823193 -1.586932 0
M  V30 49 H -2.372045 -3.384762 -3.105796 0
M  V30 50 H -1.881977 1.735267 -1.792293 0
M  V30 51 H -3.334464 1.306807 -2.673355 0
M  V30 52 H -4.815675 -0.099476 1.124953 0
M  V30 53 H -4.504399 1.598915 1.477053 0
M  V30 54 H -3.010613 1.073068 3.345123 0
M  V30 55 H -3.016159 -0.902433 4.534792 0
M  V30 56 H -1.098243 -0.616308 3.088719 0
M  V30 57 H -1.480265 -2.238036 3.637426 0
M  V30 58 H -1.819365 -1.857098 1.883118 0
M  V30 59 H -3.754578 -2.975298 2.639930 0
M  V30 60 H -4.300409 -2.673118 4.288846 0
M  V30 61 H -5.136659 -1.904145 2.914997 0
M  V30 62 H -5.837258 -0.083168 3.451772 0
M  V30 63 H -6.079489 2.136761 2.767207 0
M  V30 64 H -4.541328 2.650625 3.662929 0
M  V30 65 H -6.012128 2.222964 4.572424 0
M  V30 66 H -3.775196 0.660884 5.600398 0
M  V30 67 H -5.546501 0.879411 5.799291 0
M  V30 68 H -4.936041 -0.760666 5.585947 0
M  V30 69 H 5.127219 -0.008692 -2.495721 0
M  V30 70 H 3.776057 -0.556394 -3.474280 0
M  V30 71 H 4.304727 -2.990623 -2.789476 0
M  V30 72 H 6.750530 -1.499686 -3.914739 0
M  V30 73 H 6.068693 -3.075763 -4.402792 0
M  V30 74 H 5.209586 -1.497830 -4.812154 0
M  V30 75 H 6.958151 -2.869814 -2.151579 0
M  V30 76 H 5.681894 -3.260806 -0.961901 0
M  V30 77 H 6.352632 -1.570247 -1.128363 0
M  V30 END ATOM
M  V30 BEGIN BOND
M  V30 1 1 1 2
M  V30 2 1 2 3
M  V30 3 1 2 4
M  V30 4 1 4 5
M  V30 5 1 5 6
M  V30 6 1 6 7
M  V30 7 2 7 8
M  V30 8 1 8 9
M  V30 9 1 9 10
M  V30 10 1 10 11
M  V30 11 1 11 12
M  V30 12 1 10 13
M  V30 13 1 13 14
M  V30 14 1 14 15
M  V30 15 2 15 16
M  V30 16 1 15 17
M  V30 17 1 17 18
M  V30 18 1 18 19
M  V30 19 1 19 20
M  V30 20 1 19 21
M  V30 21 1 18 22
M  V30 22 1 22 23
M  V30 23 1 22 24
M  V30 24 1 10 25
M  V30 25 1 25 26
M  V30 26 2 26 27
M  V30 27 1 5 28
M  V30 28 1 28 29
M  V30 29 1 29 30
M  V30 30 1 29 31
M  V30 31 1 26 8
M  V30 32 1 1 32
M  V30 33 1 1 33
M  V30 34 1 1 34
M  V30 35 1 2 35
M  V30 36 1 3 36
M  V30 37 1 3 37
M  V30 38 1 3 38
M  V30 39 1 4 39
M  V30 40 1 4 40
M  V30 41 1 5 41
M  V30 42 1 6 42
M  V30 43 1 6 43
M  V30 44 1 7 44
M  V30 45 1 9 45
M  V30 46 1 9 46
M  V30 47 1 11 47
M  V30 48 1 11 48
M  V30 49 1 12 49
M  V30 50 1 13 50
M  V30 51 1 13 51
M  V30 52 1 17 52
M  V30 53 1 17 53
M  V30 54 1 18 54
M  V30 55 1 19 55
M  V30 56 1 20 56
M  V30 57 1 20 57
M  V30 58 1 20 58
M  V30 59 1 21 59
M  V30 60 1 21 60
M  V30 61 1 21 61
M  V30 62 1 22 62
M  V30 63 1 23 63
M  V30 64 1 23 64
M  V30 65 1 23 65
M  V30 66 1 24 66
M  V30 67 1 24 67
M  V30 68 1 24 68
M  V30 69 1 28 69
M  V30 70 1 28 70
M  V30 71 1 29 71
M  V30 72 1 30 72
M  V30 73 1 30 73
M  V30 74 1 30 74
M  V30 75 1 31 75
M  V30 76 1 31 76
M  V30 77 1 31 77
M  V30 END BOND
M  V30 END CTAB
M  END
>  <Dataset>  (924) 
ChEMBL_Kinases

>  <Ligand_Instance>  (924) 
nan

>  <PDB_ID>  (924) 
nan

>  <Standardized_SMILES>  (924) 
CC(C)CC(C/C=C1\CC(CO)(COC(=O)CC(C(C)C)C(C)C)OC1=O)CC(C)C

>  <Name>  (924) 
nan

>  <Pocket>  (924) 
nan

>  <ATP_Site>  (924) 
nan

>  <Peripheral>  (924) 
nan

>  <Num_H_Atoms_ProtBoundConf>  (924) 
nan

>  <Num_Resolved_Atoms>  (924) 
nan

>  <Num_Not_Resolved_Atoms>  (924) 
nan

$$$$
CHEMBL1381534
     RDKit          3D

  0  0  0  0  0  0  0  0  0  0999 V3000
M  V30 BEGIN CTAB
M  V30 COUNTS 47 50 0 0 0
M  V30 BEGIN ATOM
M  V30 1 C -1.257348 -6.806155 1.455278 0
M  V30 2 C -1.375685 -5.371209 1.086608 0
M  V30 3 C -0.819322 -4.884389 -0.078917 0
M  V30 4 C -0.960973 -3.542229 -0.369787 0
M  V30 5 C -1.636879 -2.630625 0.443771 0
M  V30 6 N -1.764092 -1.266948 0.118976 0
M  V30 7 C -1.218449 -0.664737 -1.075599 0
M  V30 8 C -1.327179 0.825516 -0.914956 0
M  V30 9 C -0.059269 1.528658 -1.201776 0
M  V30 10 O 0.207218 2.414328 -2.062549 0
M  V30 11 N 1.148752 1.294658 -0.494746 0
M  V30 12 C 2.287803 2.086592 -0.925167 0
M  V30 13 C 2.745603 3.053854 0.126010 0
M  V30 14 C 2.398152 2.544638 1.474113 0
M  V30 15 C 2.683071 3.462592 2.476734 0
M  V30 16 C 2.433769 3.187060 3.822365 0
M  V30 17 C 1.881804 1.933337 4.090175 0
M  V30 18 C 1.607983 1.043409 3.093875 0
M  V30 19 C 1.852379 1.314099 1.777110 0
M  V30 20 C 1.602445 0.438614 0.601454 0
M  V30 21 C -1.828974 1.060798 0.493110 0
M  V30 22 C -2.427089 -0.257970 0.871920 0
M  V30 23 O -3.335159 -0.412745 1.696023 0
M  V30 24 C -2.160035 -3.183690 1.577934 0
M  V30 25 C -2.058268 -4.516731 1.934724 0
M  V30 26 H -2.188554 -7.350870 1.135145 0
M  V30 27 H -0.379147 -7.241192 0.911636 0
M  V30 28 H -1.088114 -6.927697 2.544066 0
M  V30 29 H -0.293467 -5.562061 -0.724586 0
M  V30 30 H -0.509307 -3.205573 -1.292493 0
M  V30 31 H -0.192301 -1.004026 -1.300436 0
M  V30 32 H -1.847212 -1.013646 -1.923286 0
M  V30 33 H -2.120185 1.207209 -1.598544 0
M  V30 34 H 2.109252 2.676623 -1.837079 0
M  V30 35 H 3.134283 1.393518 -1.204224 0
M  V30 36 H 2.305166 4.056400 -0.044904 0
M  V30 37 H 3.846794 3.146386 0.047622 0
M  V30 38 H 3.114227 4.453974 2.318817 0
M  V30 39 H 2.645040 3.879762 4.616287 0
M  V30 40 H 1.676943 1.688735 5.119561 0
M  V30 41 H 1.174854 0.054338 3.282212 0
M  V30 42 H 2.504301 -0.137107 0.309310 0
M  V30 43 H 0.844039 -0.308765 0.886207 0
M  V30 44 H -0.981392 1.218601 1.173219 0
M  V30 45 H -2.581785 1.872465 0.538716 0
M  V30 46 H -2.705868 -2.583575 2.289466 0
M  V30 47 H -2.497737 -4.908493 2.858203 0
M  V30 END ATOM
M  V30 BEGIN BOND
M  V30 1 1 1 2
M  V30 2 2 2 3
M  V30 3 1 3 4
M  V30 4 2 4 5
M  V30 5 1 5 6
M  V30 6 1 6 7
M  V30 7 1 7 8
M  V30 8 1 8 9
M  V30 9 2 9 10
M  V30 10 1 9 11
M  V30 11 1 11 12
M  V30 12 1 12 13
M  V30 13 1 13 14
M  V30 14 2 14 15
M  V30 15 1 15 16
M  V30 16 2 16 17
M  V30 17 1 17 18
M  V30 18 2 18 19
M  V30 19 1 19 20
M  V30 20 1 8 21
M  V30 21 1 21 22
M  V30 22 2 22 23
M  V30 23 1 5 24
M  V30 24 2 24 25
M  V30 25 1 25 2
M  V30 26 1 22 6
M  V30 27 1 20 11
M  V30 28 1 19 14
M  V30 29 1 1 26
M  V30 30 1 1 27
M  V30 31 1 1 28
M  V30 32 1 3 29
M  V30 33 1 4 30
M  V30 34 1 7 31
M  V30 35 1 7 32
M  V30 36 1 8 33
M  V30 37 1 12 34
M  V30 38 1 12 35
M  V30 39 1 13 36
M  V30 40 1 13 37
M  V30 41 1 15 38
M  V30 42 1 16 39
M  V30 43 1 17 40
M  V30 44 1 18 41
M  V30 45 1 20 42
M  V30 46 1 20 43
M  V30 47 1 21 44
M  V30 48 1 21 45
M  V30 49 1 24 46
M  V30 50 1 25 47
M  V30 END BOND
M  V30 END CTAB
M  END
>  <Dataset>  (925) 
ChEMBL_Kinases

>  <Ligand_Instance>  (925) 
nan

>  <PDB_ID>  (925) 
nan

>  <Standardized_SMILES>  (925) 
Cc1ccc(N2CC(C(=O)N3CCc4ccccc4C3)CC2=O)cc1

>  <Name>  (925) 
nan

>  <Pocket>  (925) 
nan

>  <ATP_Site>  (925) 
nan

>  <Peripheral>  (925) 
nan

>  <Num_H_Atoms_ProtBoundConf>  (925) 
nan

>  <Num_Resolved_Atoms>  (925) 
nan

>  <Num_Not_Resolved_Atoms>  (925) 
nan

$$$$
CHEMBL1381498
     RDKit          3D

  0  0  0  0  0  0  0  0  0  0999 V3000
M  V30 BEGIN CTAB
M  V30 COUNTS 37 38 0 0 0
M  V30 BEGIN ATOM
M  V30 1 C -1.793951 -2.285191 4.149625 0
M  V30 2 C -0.690587 -3.275380 3.839058 0
M  V30 3 S 0.854091 -2.445723 3.602239 0
M  V30 4 C 1.023668 -1.430114 2.177866 0
M  V30 5 C 0.320079 -1.177964 1.093938 0
M  V30 6 C -0.917745 -1.893109 0.998592 0
M  V30 7 N -1.911812 -2.478043 0.939728 0
M  V30 8 C 0.602050 -0.281769 -0.049406 0
M  V30 9 C 0.557967 -1.128630 -1.291269 0
M  V30 10 C 0.174338 -0.424699 -2.540261 0
M  V30 11 C -0.989696 0.496271 -2.457016 0
M  V30 12 C -1.506939 0.680136 -1.050301 0
M  V30 13 C -0.410720 0.842785 -0.047109 0
M  V30 14 C 1.922560 0.361780 0.151148 0
M  V30 15 C 2.320609 1.255963 -0.927770 0
M  V30 16 N 2.657896 1.970230 -1.783465 0
M  V30 17 C 2.710268 0.172740 1.204602 0
M  V30 18 N 3.934090 0.897354 1.183652 0
M  V30 19 N 2.280477 -0.717199 2.229496 0
M  V30 20 H -1.895831 -2.240964 5.261326 0
M  V30 21 H -1.489633 -1.299710 3.767731 0
M  V30 22 H -2.763800 -2.566016 3.659403 0
M  V30 23 H -0.945771 -3.983982 3.022490 0
M  V30 24 H -0.557397 -3.946600 4.741433 0
M  V30 25 H 1.522897 -1.621751 -1.464219 0
M  V30 26 H -0.192171 -1.947292 -1.121517 0
M  V30 27 H 1.051767 0.065366 -3.049303 0
M  V30 28 H -0.114734 -1.229589 -3.279836 0
M  V30 29 H -0.692220 1.499298 -2.878166 0
M  V30 30 H -1.867847 0.182327 -3.062754 0
M  V30 31 H -2.218402 -0.118832 -0.784929 0
M  V30 32 H -2.084918 1.626832 -1.044706 0
M  V30 33 H -0.888681 0.924856 0.956922 0
M  V30 34 H 0.061297 1.843017 -0.217134 0
M  V30 35 H 4.866367 0.764463 0.738230 0
M  V30 36 H 3.653707 1.698995 1.794699 0
M  V30 37 H 3.016373 -0.746282 2.979954 0
M  V30 END ATOM
M  V30 BEGIN BOND
M  V30 1 1 1 2
M  V30 2 1 2 3
M  V30 3 1 3 4
M  V30 4 2 4 5
M  V30 5 1 5 6
M  V30 6 3 6 7
M  V30 7 1 5 8
M  V30 8 1 8 9
M  V30 9 1 9 10
M  V30 10 1 10 11
M  V30 11 1 11 12
M  V30 12 1 12 13
M  V30 13 1 8 14
M  V30 14 1 14 15
M  V30 15 3 15 16
M  V30 16 2 14 17
M  V30 17 1 17 18
M  V30 18 1 17 19
M  V30 19 1 19 4
M  V30 20 1 13 8
M  V30 21 1 1 20
M  V30 22 1 1 21
M  V30 23 1 1 22
M  V30 24 1 2 23
M  V30 25 1 2 24
M  V30 26 1 9 25
M  V30 27 1 9 26
M  V30 28 1 10 27
M  V30 29 1 10 28
M  V30 30 1 11 29
M  V30 31 1 11 30
M  V30 32 1 12 31
M  V30 33 1 12 32
M  V30 34 1 13 33
M  V30 35 1 13 34
M  V30 36 1 18 35
M  V30 37 1 18 36
M  V30 38 1 19 37
M  V30 END BOND
M  V30 END CTAB
M  END
>  <Dataset>  (926) 
ChEMBL_Kinases

>  <Ligand_Instance>  (926) 
nan

>  <PDB_ID>  (926) 
nan

>  <Standardized_SMILES>  (926) 
CCSC1=C(C#N)C2(CCCCC2)C(C#N)=C(N)N1

>  <Name>  (926) 
nan

>  <Pocket>  (926) 
nan

>  <ATP_Site>  (926) 
nan

>  <Peripheral>  (926) 
nan

>  <Num_H_Atoms_ProtBoundConf>  (926) 
nan

>  <Num_Resolved_Atoms>  (926) 
nan

>  <Num_Not_Resolved_Atoms>  (926) 
nan

$$$$
CHEMBL1381382
     RDKit          3D

  0  0  0  0  0  0  0  0  0  0999 V3000
M  V30 BEGIN CTAB
M  V30 COUNTS 53 56 0 0 0
M  V30 BEGIN ATOM
M  V30 1 C 5.099243 -4.608980 4.521942 0
M  V30 2 O 4.852244 -3.413240 3.778363 0
M  V30 3 C 3.896652 -3.350048 2.790148 0
M  V30 4 C 3.106288 -4.425870 2.441061 0
M  V30 5 C 2.142661 -4.355063 1.440216 0
M  V30 6 C 1.959023 -3.170826 0.762247 0
M  V30 7 C 2.756429 -2.102803 1.122285 0
M  V30 8 C 3.730652 -2.152635 2.125085 0
M  V30 9 C 2.440758 -1.000107 0.344701 0
M  V30 10 N 2.849693 0.276202 0.225334 0
M  V30 11 N 2.283743 1.077656 -0.680911 0
M  V30 12 C 1.291099 0.648673 -1.505396 0
M  V30 13 S 0.765555 1.966682 -2.584914 0
M  V30 14 C -0.589518 2.945304 -1.849124 0
M  V30 15 C -1.836752 2.189264 -1.706791 0
M  V30 16 O -2.459984 2.146590 -2.823089 0
M  V30 17 N -2.339691 1.564995 -0.514012 0
M  V30 18 C -1.616415 1.655945 0.706717 0
M  V30 19 C -1.838193 2.986243 1.409241 0
M  V30 20 C -1.968478 0.568095 1.695068 0
M  V30 21 C -3.485470 0.510276 1.806295 0
M  V30 22 C -3.988517 0.016894 0.486691 0
M  V30 23 C -3.590463 0.867796 -0.667741 0
M  V30 24 C -3.596243 0.026889 -1.949644 0
M  V30 25 N 0.848546 -0.634001 -1.417182 0
M  V30 26 C 1.433877 -1.434950 -0.490998 0
M  V30 27 N 1.158186 -2.725633 -0.231668 0
M  V30 28 C 0.168633 -3.594516 -0.867916 0
M  V30 29 H 5.660546 -4.400618 5.447181 0
M  V30 30 H 5.540736 -5.356733 3.854843 0
M  V30 31 H 4.105675 -5.023763 4.855253 0
M  V30 32 H 3.246286 -5.357352 2.966506 0
M  V30 33 H 1.514261 -5.186878 1.154029 0
M  V30 34 H 4.331417 -1.285324 2.368119 0
M  V30 35 H -0.751137 3.864069 -2.429419 0
M  V30 36 H -0.218992 3.312090 -0.843512 0
M  V30 37 H -0.531131 1.592502 0.505131 0
M  V30 38 H -2.473834 3.674984 0.819441 0
M  V30 39 H -0.874762 3.522929 1.604356 0
M  V30 40 H -2.329509 2.856695 2.401330 0
M  V30 41 H -1.640651 -0.438118 1.367533 0
M  V30 42 H -1.603500 0.790847 2.710207 0
M  V30 43 H -3.821004 -0.171082 2.605722 0
M  V30 44 H -3.858513 1.532304 2.019622 0
M  V30 45 H -5.113044 -0.037835 0.572075 0
M  V30 46 H -3.593881 -1.022760 0.330365 0
M  V30 47 H -4.377698 1.653661 -0.813499 0
M  V30 48 H -2.517169 -0.113029 -2.217607 0
M  V30 49 H -4.088020 -0.927232 -1.733744 0
M  V30 50 H -4.138352 0.527606 -2.776839 0
M  V30 51 H -0.530848 -3.982306 -0.082004 0
M  V30 52 H 0.626854 -4.457408 -1.387085 0
M  V30 53 H -0.451222 -3.060063 -1.596410 0
M  V30 END ATOM
M  V30 BEGIN BOND
M  V30 1 1 1 2
M  V30 2 1 2 3
M  V30 3 2 3 4
M  V30 4 1 4 5
M  V30 5 2 5 6
M  V30 6 1 6 7
M  V30 7 2 7 8
M  V30 8 1 7 9
M  V30 9 2 9 10
M  V30 10 1 10 11
M  V30 11 2 11 12
M  V30 12 1 12 13
M  V30 13 1 13 14
M  V30 14 1 14 15
M  V30 15 2 15 16
M  V30 16 1 15 17
M  V30 17 1 17 18
M  V30 18 1 18 19
M  V30 19 1 18 20
M  V30 20 1 20 21
M  V30 21 1 21 22
M  V30 22 1 22 23
M  V30 23 1 23 24
M  V30 24 1 12 25
M  V30 25 2 25 26
M  V30 26 1 26 27
M  V30 27 1 27 28
M  V30 28 1 8 3
M  V30 29 1 26 9
M  V30 30 1 27 6
M  V30 31 1 23 17
M  V30 32 1 1 29
M  V30 33 1 1 30
M  V30 34 1 1 31
M  V30 35 1 4 32
M  V30 36 1 5 33
M  V30 37 1 8 34
M  V30 38 1 14 35
M  V30 39 1 14 36
M  V30 40 1 18 37
M  V30 41 1 19 38
M  V30 42 1 19 39
M  V30 43 1 19 40
M  V30 44 1 20 41
M  V30 45 1 20 42
M  V30 46 1 21 43
M  V30 47 1 21 44
M  V30 48 1 22 45
M  V30 49 1 22 46
M  V30 50 1 23 47
M  V30 51 1 24 48
M  V30 52 1 24 49
M  V30 53 1 24 50
M  V30 54 1 28 51
M  V30 55 1 28 52
M  V30 56 1 28 53
M  V30 END BOND
M  V30 END CTAB
M  END
>  <Dataset>  (927) 
ChEMBL_Kinases

>  <Ligand_Instance>  (927) 
nan

>  <PDB_ID>  (927) 
nan

>  <Standardized_SMILES>  (927) 
COc1ccc2c(c1)c1nnc(SCC(=O)N3C(C)CCCC3C)nc1n2C

>  <Name>  (927) 
nan

>  <Pocket>  (927) 
nan

>  <ATP_Site>  (927) 
nan

>  <Peripheral>  (927) 
nan

>  <Num_H_Atoms_ProtBoundConf>  (927) 
nan

>  <Num_Resolved_Atoms>  (927) 
nan

>  <Num_Not_Resolved_Atoms>  (927) 
nan

$$$$
CHEMBL1396595
     RDKit          3D

  0  0  0  0  0  0  0  0  0  0999 V3000
M  V30 BEGIN CTAB
M  V30 COUNTS 41 44 0 0 0
M  V30 BEGIN ATOM
M  V30 1 C 0.907413 -6.205602 -0.349423 0
M  V30 2 N 0.721962 -5.209276 0.686041 0
M  V30 3 C 0.388153 -5.646413 2.035119 0
M  V30 4 C 0.841042 -3.802568 0.493931 0
M  V30 5 C 0.657869 -2.872698 1.504098 0
M  V30 6 C 0.786620 -1.518811 1.257876 0
M  V30 7 C 1.101315 -1.030349 0.004355 0
M  V30 8 C 1.226271 0.409485 -0.205014 0
M  V30 9 C 2.054863 1.042673 -1.107663 0
M  V30 10 C 2.069820 2.419741 -1.198227 0
M  V30 11 C 1.271312 3.222378 -0.405184 0
M  V30 12 N 1.297212 4.560714 -0.505019 0
M  V30 13 C 0.488728 5.282807 0.302937 0
M  V30 14 N -0.351139 4.729147 1.213042 0
M  V30 15 C -0.380343 3.368866 1.317540 0
M  V30 16 N -1.244722 2.706386 2.259239 0
M  V30 17 C -1.116481 2.237591 3.517884 0
M  V30 18 C -2.340906 1.699917 3.863978 0
M  V30 19 N -3.177851 1.856112 2.809014 0
M  V30 20 C -2.494927 2.482889 1.809915 0
M  V30 21 C 0.435932 2.607916 0.503550 0
M  V30 22 C 0.428744 1.247033 0.585080 0
M  V30 23 C 1.290601 -1.934423 -1.026390 0
M  V30 24 C 1.154639 -3.289170 -0.749068 0
M  V30 25 H 0.221535 -7.074406 -0.215204 0
M  V30 26 H 0.686188 -5.832432 -1.371009 0
M  V30 27 H 1.944118 -6.647143 -0.310071 0
M  V30 28 H 1.159007 -5.330206 2.767620 0
M  V30 29 H -0.536867 -5.067014 2.293109 0
M  V30 30 H 0.199797 -6.718516 2.049875 0
M  V30 31 H 0.410443 -3.248389 2.491571 0
M  V30 32 H 0.620978 -0.864944 2.127673 0
M  V30 33 H 2.666694 0.382869 -1.713028 0
M  V30 34 H 2.734066 2.893549 -1.919916 0
M  V30 35 H 0.412028 6.364604 0.324545 0
M  V30 36 H -0.125345 2.384468 3.948933 0
M  V30 37 H -2.422116 1.270406 4.858190 0
M  V30 38 H -3.041647 2.675564 0.897296 0
M  V30 39 H -0.247037 0.809399 1.316930 0
M  V30 40 H 1.534485 -1.549270 -1.996706 0
M  V30 41 H 1.320383 -3.908936 -1.612338 0
M  V30 END ATOM
M  V30 BEGIN BOND
M  V30 1 1 1 2
M  V30 2 1 2 3
M  V30 3 1 2 4
M  V30 4 2 4 5
M  V30 5 1 5 6
M  V30 6 2 6 7
M  V30 7 1 7 8
M  V30 8 2 8 9
M  V30 9 1 9 10
M  V30 10 2 10 11
M  V30 11 1 11 12
M  V30 12 2 12 13
M  V30 13 1 13 14
M  V30 14 2 14 15
M  V30 15 1 15 16
M  V30 16 1 16 17
M  V30 17 2 17 18
M  V30 18 1 18 19
M  V30 19 2 19 20
M  V30 20 1 15 21
M  V30 21 2 21 22
M  V30 22 1 7 23
M  V30 23 2 23 24
M  V30 24 1 24 4
M  V30 25 1 22 8
M  V30 26 1 21 11
M  V30 27 1 20 16
M  V30 28 1 1 25
M  V30 29 1 1 26
M  V30 30 1 1 27
M  V30 31 1 3 28
M  V30 32 1 3 29
M  V30 33 1 3 30
M  V30 34 1 5 31
M  V30 35 1 6 32
M  V30 36 1 9 33
M  V30 37 1 10 34
M  V30 38 1 13 35
M  V30 39 1 17 36
M  V30 40 1 18 37
M  V30 41 1 20 38
M  V30 42 1 22 39
M  V30 43 1 23 40
M  V30 44 1 24 41
M  V30 END BOND
M  V30 END CTAB
M  END
>  <Dataset>  (928) 
ChEMBL_Kinases

>  <Ligand_Instance>  (928) 
nan

>  <PDB_ID>  (928) 
nan

>  <Standardized_SMILES>  (928) 
CN(C)c1ccc(-c2ccc3ncnc(-n4ccnc4)c3c2)cc1

>  <Name>  (928) 
nan

>  <Pocket>  (928) 
nan

>  <ATP_Site>  (928) 
nan

>  <Peripheral>  (928) 
nan

>  <Num_H_Atoms_ProtBoundConf>  (928) 
nan

>  <Num_Resolved_Atoms>  (928) 
nan

>  <Num_Not_Resolved_Atoms>  (928) 
nan

$$$$
CHEMBL1380284
     RDKit          3D

  0  0  0  0  0  0  0  0  0  0999 V3000
M  V30 BEGIN CTAB
M  V30 COUNTS 39 40 0 0 0
M  V30 BEGIN ATOM
M  V30 1 C -0.760918 1.684644 1.674873 0
M  V30 2 C -2.229448 1.769413 1.930473 0
M  V30 3 O -2.978228 1.769234 0.714586 0
M  V30 4 C -4.362294 1.831929 0.682225 0
M  V30 5 O -4.808243 1.886792 1.869922 0
M  V30 6 C -5.231890 1.837218 -0.508983 0
M  V30 7 S -5.711355 0.199365 -1.075244 0
M  V30 8 C -4.322557 -0.737398 -1.721744 0
M  V30 9 N -3.773301 -1.324099 -0.836167 0
M  V30 10 N -2.754676 -2.091520 -0.875617 0
M  V30 11 C -2.175185 -2.313875 -2.029297 0
M  V30 12 N -0.996028 -3.178691 -2.064511 0
M  V30 13 C 0.094636 -2.286515 -1.926066 0
M  V30 14 O -0.243129 -1.052124 -1.832263 0
M  V30 15 C 1.525660 -2.551419 -1.871930 0
M  V30 16 C 2.291167 -3.398539 -2.634070 0
M  V30 17 C 3.648143 -3.577677 -2.512498 0
M  V30 18 C 4.307660 -2.859128 -1.558390 0
M  V30 19 C 3.606733 -1.993728 -0.762488 0
M  V30 20 N 4.391274 -1.300037 0.194276 0 CHG=1 VAL=4
M  V30 21 O 4.419590 -0.788754 1.327756 0
M  V30 22 O 5.698128 -0.913023 0.063283 0 CHG=-1 VAL=1
M  V30 23 C 2.221997 -1.820328 -0.895254 0
M  V30 24 C 1.528415 -0.872112 0.004776 0
M  V30 25 S -3.184919 -1.332151 -3.156885 0
M  V30 26 H -0.296024 2.675528 1.830199 0
M  V30 27 H -0.502898 1.294153 0.682734 0
M  V30 28 H -0.291294 0.991265 2.431329 0
M  V30 29 H -2.533440 0.837566 2.474072 0
M  V30 30 H -2.421200 2.683264 2.543671 0
M  V30 31 H -4.634419 2.314517 -1.330312 0
M  V30 32 H -6.122699 2.487431 -0.394786 0
M  V30 33 H -0.774056 -4.160886 -2.157313 0
M  V30 34 H 1.706347 -3.936006 -3.367788 0
M  V30 35 H 4.122722 -4.299571 -3.197091 0
M  V30 36 H 5.376457 -3.037697 -1.500986 0
M  V30 37 H 0.559200 -1.348884 0.305180 0
M  V30 38 H 2.137831 -0.742743 0.947036 0
M  V30 39 H 1.420129 0.144922 -0.390903 0
M  V30 END ATOM
M  V30 BEGIN BOND
M  V30 1 1 1 2
M  V30 2 1 2 3
M  V30 3 1 3 4
M  V30 4 2 4 5
M  V30 5 1 4 6
M  V30 6 1 6 7
M  V30 7 1 7 8
M  V30 8 2 8 9
M  V30 9 1 9 10
M  V30 10 2 10 11
M  V30 11 1 11 12
M  V30 12 1 12 13
M  V30 13 2 13 14
M  V30 14 1 13 15
M  V30 15 2 15 16
M  V30 16 1 16 17
M  V30 17 2 17 18
M  V30 18 1 18 19
M  V30 19 1 19 20
M  V30 20 2 20 21
M  V30 21 1 20 22
M  V30 22 2 19 23
M  V30 23 1 23 24
M  V30 24 1 11 25
M  V30 25 1 25 8
M  V30 26 1 23 15
M  V30 27 1 1 26
M  V30 28 1 1 27
M  V30 29 1 1 28
M  V30 30 1 2 29
M  V30 31 1 2 30
M  V30 32 1 6 31
M  V30 33 1 6 32
M  V30 34 1 12 33
M  V30 35 1 16 34
M  V30 36 1 17 35
M  V30 37 1 18 36
M  V30 38 1 24 37
M  V30 39 1 24 38
M  V30 40 1 24 39
M  V30 END BOND
M  V30 END CTAB
M  END
>  <Dataset>  (929) 
ChEMBL_Kinases

>  <Ligand_Instance>  (929) 
nan

>  <PDB_ID>  (929) 
nan

>  <Standardized_SMILES>  (929) 
CCOC(=O)CSc1nnc(NC(=O)c2cccc([N+](=O)[O-])c2C)s1

>  <Name>  (929) 
nan

>  <Pocket>  (929) 
nan

>  <ATP_Site>  (929) 
nan

>  <Peripheral>  (929) 
nan

>  <Num_H_Atoms_ProtBoundConf>  (929) 
nan

>  <Num_Resolved_Atoms>  (929) 
nan

>  <Num_Not_Resolved_Atoms>  (929) 
nan

$$$$
CHEMBL1380292
     RDKit          3D

  0  0  0  0  0  0  0  0  0  0999 V3000
M  V30 BEGIN CTAB
M  V30 COUNTS 41 44 0 0 0
M  V30 BEGIN ATOM
M  V30 1 C 1.707000 -5.588331 2.693604 0
M  V30 2 O 0.340841 -5.211681 2.754391 0
M  V30 3 C -0.001284 -3.963261 2.274373 0
M  V30 4 C 0.969559 -3.138947 1.762570 0
M  V30 5 C 0.709688 -1.888843 1.268446 0
M  V30 6 O 1.601182 -0.982355 0.734301 0
M  V30 7 C 2.964851 -1.317089 0.655948 0
M  V30 8 C -0.604824 -1.470860 1.303124 0
M  V30 9 C -0.968759 -0.124532 0.784650 0
M  V30 10 N -0.455374 0.771358 0.316552 0
M  V30 11 N -0.958113 1.894540 -0.083544 0
M  V30 12 C -0.462167 3.011562 -0.643664 0
M  V30 13 C 0.854837 3.468696 -1.054327 0
M  V30 14 C 1.765108 3.969585 -0.136801 0
M  V30 15 C 3.018159 4.396939 -0.576786 0
M  V30 16 C 3.385711 4.335758 -1.917595 0
M  V30 17 N 2.477075 3.841763 -2.794523 0
M  V30 18 C 1.248131 3.418407 -2.390470 0
M  V30 19 N -1.492085 3.844235 -0.833210 0
M  V30 20 N -2.629968 3.324550 -0.424844 0
M  V30 21 C -2.267189 2.087444 0.046933 0
M  V30 22 S -2.769052 0.478181 0.819283 0
M  V30 23 C -1.611017 -2.285882 1.816681 0
M  V30 24 C -1.314851 -3.538908 2.306164 0
M  V30 25 O -2.253632 -4.414756 2.834839 0
M  V30 26 C -3.633203 -4.067359 2.910417 0
M  V30 27 H 2.077261 -5.694859 1.658815 0
M  V30 28 H 1.891851 -6.557120 3.196883 0
M  V30 29 H 2.355894 -4.844938 3.237893 0
M  V30 30 H 2.029173 -3.421099 1.711113 0
M  V30 31 H 3.341013 -1.869453 1.530936 0
M  V30 32 H 3.571242 -0.381038 0.616240 0
M  V30 33 H 3.207847 -1.859939 -0.280999 0
M  V30 34 H 1.478300 4.016515 0.904435 0
M  V30 35 H 3.703595 4.784353 0.180409 0
M  V30 36 H 4.365698 4.675794 -2.223952 0
M  V30 37 H 0.521984 3.025012 -3.082655 0
M  V30 38 H -2.629642 -1.947348 1.837315 0
M  V30 39 H -3.751991 -2.996778 3.183310 0
M  V30 40 H -4.097010 -4.233549 1.923653 0
M  V30 41 H -4.133003 -4.641816 3.735172 0
M  V30 END ATOM
M  V30 BEGIN BOND
M  V30 1 1 1 2
M  V30 2 1 2 3
M  V30 3 2 3 4
M  V30 4 1 4 5
M  V30 5 1 5 6
M  V30 6 1 6 7
M  V30 7 2 5 8
M  V30 8 1 8 9
M  V30 9 2 9 10
M  V30 10 1 10 11
M  V30 11 1 11 12
M  V30 12 1 12 13
M  V30 13 2 13 14
M  V30 14 1 14 15
M  V30 15 2 15 16
M  V30 16 1 16 17
M  V30 17 2 17 18
M  V30 18 2 12 19
M  V30 19 1 19 20
M  V30 20 2 20 21
M  V30 21 1 21 22
M  V30 22 1 8 23
M  V30 23 2 23 24
M  V30 24 1 24 25
M  V30 25 1 25 26
M  V30 26 1 24 3
M  V30 27 1 22 9
M  V30 28 1 21 11
M  V30 29 1 18 13
M  V30 30 1 1 27
M  V30 31 1 1 28
M  V30 32 1 1 29
M  V30 33 1 4 30
M  V30 34 1 7 31
M  V30 35 1 7 32
M  V30 36 1 7 33
M  V30 37 1 14 34
M  V30 38 1 15 35
M  V30 39 1 16 36
M  V30 40 1 18 37
M  V30 41 1 23 38
M  V30 42 1 26 39
M  V30 43 1 26 40
M  V30 44 1 26 41
M  V30 END BOND
M  V30 END CTAB
M  END
>  <Dataset>  (930) 
ChEMBL_Kinases

>  <Ligand_Instance>  (930) 
nan

>  <PDB_ID>  (930) 
nan

>  <Standardized_SMILES>  (930) 
COc1cc(OC)c(-c2nn3c(-c4cccnc4)nnc3s2)cc1OC

>  <Name>  (930) 
nan

>  <Pocket>  (930) 
nan

>  <ATP_Site>  (930) 
nan

>  <Peripheral>  (930) 
nan

>  <Num_H_Atoms_ProtBoundConf>  (930) 
nan

>  <Num_Resolved_Atoms>  (930) 
nan

>  <Num_Not_Resolved_Atoms>  (930) 
nan

$$$$
CHEMBL1380297
     RDKit          3D

  0  0  0  0  0  0  0  0  0  0999 V3000
M  V30 BEGIN CTAB
M  V30 COUNTS 35 36 0 0 0
M  V30 BEGIN ATOM
M  V30 1 C 1.998302 -3.596123 4.723219 0
M  V30 2 O 1.331294 -4.501401 3.829499 0
M  V30 3 C 1.146222 -4.007301 2.522987 0
M  V30 4 C 0.501048 -4.845307 1.614096 0
M  V30 5 C 0.292092 -4.400272 0.303830 0
M  V30 6 C 0.717383 -3.139848 -0.100642 0
M  V30 7 C 1.356795 -2.327667 0.821030 0
M  V30 8 N 1.781862 -1.044897 0.372805 0
M  V30 9 C 0.860178 0.017773 0.548412 0
M  V30 10 O -0.234322 -0.262026 1.080244 0
M  V30 11 N 1.061637 1.338874 0.185879 0
M  V30 12 C 0.366945 2.600831 0.224317 0
M  V30 13 C -0.887765 2.672686 -0.517683 0
M  V30 14 C -0.740099 3.199647 -1.801081 0
M  V30 15 C -1.789756 3.340653 -2.716535 0
M  V30 16 C -3.053530 2.930999 -2.319669 0
M  V30 17 C -3.246981 2.397802 -1.040145 0
M  V30 18 C -2.169554 2.293429 -0.205065 0
M  V30 19 F -2.338331 1.807880 1.045400 0
M  V30 20 C 1.567935 -2.756616 2.115978 0
M  V30 21 H 2.965406 -3.315208 4.272165 0
M  V30 22 H 2.064377 -4.011130 5.738499 0
M  V30 23 H 1.386984 -2.645791 4.702776 0
M  V30 24 H 0.147046 -5.847209 1.872523 0
M  V30 25 H -0.209987 -5.080716 -0.375371 0
M  V30 26 H 0.553262 -2.798636 -1.109594 0
M  V30 27 H 2.703659 -0.830570 -0.067643 0
M  V30 28 H 2.025950 1.443527 -0.260473 0
M  V30 29 H 1.026401 3.454679 -0.014632 0
M  V30 30 H 0.169642 2.765108 1.345727 0
M  V30 31 H 0.218544 3.550907 -2.206790 0
M  V30 32 H -1.636255 3.753232 -3.703133 0
M  V30 33 H -3.892786 3.022518 -2.996390 0
M  V30 34 H -4.217327 2.065148 -0.691130 0
M  V30 35 H 2.067893 -2.116429 2.835879 0
M  V30 END ATOM
M  V30 BEGIN BOND
M  V30 1 1 1 2
M  V30 2 1 2 3
M  V30 3 2 3 4
M  V30 4 1 4 5
M  V30 5 2 5 6
M  V30 6 1 6 7
M  V30 7 1 7 8
M  V30 8 1 8 9
M  V30 9 2 9 10
M  V30 10 1 9 11
M  V30 11 1 11 12
M  V30 12 1 12 13
M  V30 13 2 13 14
M  V30 14 1 14 15
M  V30 15 2 15 16
M  V30 16 1 16 17
M  V30 17 2 17 18
M  V30 18 1 18 19
M  V30 19 2 7 20
M  V30 20 1 20 3
M  V30 21 1 18 13
M  V30 22 1 1 21
M  V30 23 1 1 22
M  V30 24 1 1 23
M  V30 25 1 4 24
M  V30 26 1 5 25
M  V30 27 1 6 26
M  V30 28 1 8 27
M  V30 29 1 11 28
M  V30 30 1 12 29
M  V30 31 1 12 30
M  V30 32 1 14 31
M  V30 33 1 15 32
M  V30 34 1 16 33
M  V30 35 1 17 34
M  V30 36 1 20 35
M  V30 END BOND
M  V30 END CTAB
M  END
>  <Dataset>  (931) 
ChEMBL_Kinases

>  <Ligand_Instance>  (931) 
nan

>  <PDB_ID>  (931) 
nan

>  <Standardized_SMILES>  (931) 
COc1cccc(NC(=O)NCc2ccccc2F)c1

>  <Name>  (931) 
nan

>  <Pocket>  (931) 
nan

>  <ATP_Site>  (931) 
nan

>  <Peripheral>  (931) 
nan

>  <Num_H_Atoms_ProtBoundConf>  (931) 
nan

>  <Num_Resolved_Atoms>  (931) 
nan

>  <Num_Not_Resolved_Atoms>  (931) 
nan

$$$$
CHEMBL1380321
     RDKit          3D

  0  0  0  0  0  0  0  0  0  0999 V3000
M  V30 BEGIN CTAB
M  V30 COUNTS 48 51 0 0 0
M  V30 BEGIN ATOM
M  V30 1 C -3.468298 -2.846982 5.053836 0
M  V30 2 O -2.491019 -3.602974 4.373005 0
M  V30 3 C -1.722113 -3.119602 3.343015 0
M  V30 4 C -0.777087 -3.901217 2.708415 0
M  V30 5 C -0.018562 -3.406054 1.684056 0
M  V30 6 C -0.182976 -2.097755 1.256280 0
M  V30 7 N 0.511670 -1.416866 0.215478 0
M  V30 8 C 1.548574 -0.532752 0.163364 0
M  V30 9 S 2.237162 -0.090346 1.729080 0
M  V30 10 C 3.585751 1.064824 1.586692 0
M  V30 11 C 3.075749 2.364231 1.083427 0
M  V30 12 C 2.970702 2.781294 -0.225374 0
M  V30 13 C 2.480476 4.012063 -0.583259 0
M  V30 14 C 2.084059 4.846956 0.418361 0
M  V30 15 N 1.569122 6.133002 0.105806 0 CHG=1 VAL=4
M  V30 16 O 1.449488 6.569113 -1.058373 0
M  V30 17 O 1.162066 6.994960 1.095904 0 CHG=-1 VAL=1
M  V30 18 C 2.150049 4.521565 1.755951 0
M  V30 19 C 2.651416 3.270446 2.058984 0
M  V30 20 N 1.759623 -0.241070 -1.111104 0
M  V30 21 N 0.885006 -0.917453 -1.850895 0
M  V30 22 C 0.093193 -1.660713 -1.040596 0
M  V30 23 C -0.941414 -2.484590 -1.664132 0
M  V30 24 C -0.580614 -3.819787 -1.773322 0
M  V30 25 C -1.474393 -4.718834 -2.350601 0
M  V30 26 C -2.693454 -4.290179 -2.804511 0
M  V30 27 C -3.024913 -2.948022 -2.681132 0
M  V30 28 C -2.164381 -2.029797 -2.114650 0
M  V30 29 C -1.131256 -1.281168 1.878332 0
M  V30 30 C -1.900297 -1.798162 2.924042 0
M  V30 31 H -3.102606 -1.812786 5.304490 0
M  V30 32 H -4.389245 -2.849056 4.459848 0
M  V30 33 H -3.694310 -3.359324 6.016766 0
M  V30 34 H -0.608477 -4.927246 3.002841 0
M  V30 35 H 0.742417 -3.932622 1.125873 0
M  V30 36 H 4.105986 1.227627 2.554212 0
M  V30 37 H 4.359426 0.633947 0.915988 0
M  V30 38 H 3.298927 2.080040 -0.953813 0
M  V30 39 H 2.436225 4.249419 -1.622419 0
M  V30 40 H 1.836517 5.181807 2.556591 0
M  V30 41 H 2.704618 3.009697 3.123763 0
M  V30 42 H 0.368506 -4.230397 -1.435478 0
M  V30 43 H -1.254851 -5.771530 -2.465516 0
M  V30 44 H -3.400258 -4.997407 -3.259500 0
M  V30 45 H -3.981805 -2.606402 -3.037169 0
M  V30 46 H -2.355656 -0.994618 -1.990382 0
M  V30 47 H -1.328191 -0.244770 1.609180 0
M  V30 48 H -2.636528 -1.177724 3.413370 0
M  V30 END ATOM
M  V30 BEGIN BOND
M  V30 1 1 1 2
M  V30 2 1 2 3
M  V30 3 2 3 4
M  V30 4 1 4 5
M  V30 5 2 5 6
M  V30 6 1 6 7
M  V30 7 1 7 8
M  V30 8 1 8 9
M  V30 9 1 9 10
M  V30 10 1 10 11
M  V30 11 2 11 12
M  V30 12 1 12 13
M  V30 13 2 13 14
M  V30 14 1 14 15
M  V30 15 2 15 16
M  V30 16 1 15 17
M  V30 17 1 14 18
M  V30 18 2 18 19
M  V30 19 2 8 20
M  V30 20 1 20 21
M  V30 21 2 21 22
M  V30 22 1 22 23
M  V30 23 2 23 24
M  V30 24 1 24 25
M  V30 25 2 25 26
M  V30 26 1 26 27
M  V30 27 2 27 28
M  V30 28 1 6 29
M  V30 29 2 29 30
M  V30 30 1 30 3
M  V30 31 1 22 7
M  V30 32 1 28 23
M  V30 33 1 19 11
M  V30 34 1 1 31
M  V30 35 1 1 32
M  V30 36 1 1 33
M  V30 37 1 4 34
M  V30 38 1 5 35
M  V30 39 1 10 36
M  V30 40 1 10 37
M  V30 41 1 12 38
M  V30 42 1 13 39
M  V30 43 1 18 40
M  V30 44 1 19 41
M  V30 45 1 24 42
M  V30 46 1 25 43
M  V30 47 1 26 44
M  V30 48 1 27 45
M  V30 49 1 28 46
M  V30 50 1 29 47
M  V30 51 1 30 48
M  V30 END BOND
M  V30 END CTAB
M  END
>  <Dataset>  (932) 
ChEMBL_Kinases

>  <Ligand_Instance>  (932) 
nan

>  <PDB_ID>  (932) 
nan

>  <Standardized_SMILES>  (932) 
COc1ccc(-n2c(SCc3ccc([N+](=O)[O-])cc3)nnc2-c2ccccc2)cc1

>  <Name>  (932) 
nan

>  <Pocket>  (932) 
nan

>  <ATP_Site>  (932) 
nan

>  <Peripheral>  (932) 
nan

>  <Num_H_Atoms_ProtBoundConf>  (932) 
nan

>  <Num_Resolved_Atoms>  (932) 
nan

>  <Num_Not_Resolved_Atoms>  (932) 
nan

$$$$
CHEMBL1380354
     RDKit          3D

  0  0  0  0  0  0  0  0  0  0999 V3000
M  V30 BEGIN CTAB
M  V30 COUNTS 60 64 0 0 0
M  V30 BEGIN ATOM
M  V30 1 C 3.862459 -2.327162 4.883714 0
M  V30 2 C 2.524874 -2.421892 4.211131 0
M  V30 3 O 2.567245 -2.770474 2.892851 0
M  V30 4 C 3.300811 -1.935446 2.065629 0
M  V30 5 C 2.804418 -0.526272 2.103346 0
M  V30 6 C 1.395313 -0.297080 1.693173 0
M  V30 7 N 1.057950 -0.601785 0.333329 0
M  V30 8 C 1.162851 0.458243 -0.543161 0
M  V30 9 N 1.570931 1.570602 -0.039168 0
M  V30 10 C 0.848218 0.284825 -1.902156 0
M  V30 11 C 0.855539 1.629315 -2.528177 0
M  V30 12 O 1.523254 2.590110 -2.975660 0
M  V30 13 N -0.514144 2.065493 -2.717026 0
M  V30 14 C -1.888718 2.572964 -2.934201 0
M  V30 15 C -2.554305 2.963202 -1.660530 0
M  V30 16 C -2.820351 4.013716 -0.827758 0
M  V30 17 C -3.516666 3.812217 0.340959 0
M  V30 18 C -3.981031 2.605698 0.755202 0
M  V30 19 C -3.757979 1.474226 -0.025754 0
M  V30 20 C -3.045932 1.688309 -1.227423 0
M  V30 21 O -4.361744 0.458651 0.713611 0
M  V30 22 C -4.355089 0.858451 2.094910 0
M  V30 23 O -4.694243 2.237536 1.918018 0
M  V30 24 C 0.432289 -0.891658 -2.471377 0
M  V30 25 C 0.347168 -1.887898 -1.551526 0
M  V30 26 C -0.110897 -3.142160 -1.978617 0
M  V30 27 O -0.400474 -3.353430 -3.193932 0
M  V30 28 N -0.238065 -4.130550 -1.054859 0
M  V30 29 C -0.699980 -5.331348 -1.489809 0
M  V30 30 C -0.872398 -6.401723 -0.608229 0
M  V30 31 C -0.577818 -6.259546 0.728215 0
M  V30 32 C -0.114383 -5.023678 1.122777 0
M  V30 33 C 0.056044 -3.974935 0.253405 0
M  V30 34 N 0.493202 -2.769788 0.635824 0
M  V30 35 C 0.637484 -1.762760 -0.220673 0
M  V30 36 H 3.754331 -2.511766 5.995590 0
M  V30 37 H 4.235436 -1.282452 4.747425 0
M  V30 38 H 4.588374 -3.047681 4.481254 0
M  V30 39 H 1.940077 -3.232348 4.755058 0
M  V30 40 H 1.937731 -1.471785 4.344422 0
M  V30 41 H 4.335372 -1.960194 2.422695 0
M  V30 42 H 3.270369 -2.284880 1.006129 0
M  V30 43 H 2.903767 -0.149482 3.152251 0
M  V30 44 H 3.530840 0.110085 1.534333 0
M  V30 45 H 1.179341 0.791835 1.918783 0
M  V30 46 H 0.722434 -0.831048 2.417268 0
M  V30 47 H 1.708306 2.464077 -0.547440 0
M  V30 48 H -1.140428 1.240078 -2.380667 0
M  V30 49 H -1.632572 3.564796 -3.492867 0
M  V30 50 H -2.460084 2.054477 -3.669830 0
M  V30 51 H -2.380674 4.858800 -1.334923 0
M  V30 52 H -3.644025 4.754241 0.868444 0
M  V30 53 H -2.978836 0.693518 -1.696117 0
M  V30 54 H -3.305460 0.803530 2.395182 0
M  V30 55 H -5.043517 0.294903 2.698591 0
M  V30 56 H 0.215538 -0.948789 -3.504416 0
M  V30 57 H -0.971303 -5.596834 -2.490697 0
M  V30 58 H -1.237288 -7.399343 -0.832767 0
M  V30 59 H -0.670676 -6.986856 1.520175 0
M  V30 60 H 0.163790 -4.745819 2.160937 0
M  V30 END ATOM
M  V30 BEGIN BOND
M  V30 1 1 1 2
M  V30 2 1 2 3
M  V30 3 1 3 4
M  V30 4 1 4 5
M  V30 5 1 5 6
M  V30 6 1 6 7
M  V30 7 1 7 8
M  V30 8 2 8 9 CFG=2
M  V30 9 1 8 10
M  V30 10 1 10 11
M  V30 11 2 11 12
M  V30 12 1 11 13
M  V30 13 1 13 14
M  V30 14 1 14 15
M  V30 15 2 15 16
M  V30 16 1 16 17
M  V30 17 2 17 18
M  V30 18 1 18 19
M  V30 19 2 19 20
M  V30 20 1 19 21
M  V30 21 1 21 22
M  V30 22 1 22 23
M  V30 23 2 10 24
M  V30 24 1 24 25
M  V30 25 1 25 26
M  V30 26 2 26 27
M  V30 27 1 26 28
M  V30 28 1 28 29
M  V30 29 2 29 30
M  V30 30 1 30 31
M  V30 31 2 31 32
M  V30 32 1 32 33
M  V30 33 2 33 34
M  V30 34 1 34 35
M  V30 35 1 35 7
M  V30 36 1 20 15
M  V30 37 2 35 25
M  V30 38 1 23 18
M  V30 39 1 33 28
M  V30 40 1 1 36
M  V30 41 1 1 37
M  V30 42 1 1 38
M  V30 43 1 2 39
M  V30 44 1 2 40
M  V30 45 1 4 41
M  V30 46 1 4 42
M  V30 47 1 5 43
M  V30 48 1 5 44
M  V30 49 1 6 45
M  V30 50 1 6 46
M  V30 51 1 9 47
M  V30 52 1 13 48
M  V30 53 1 14 49
M  V30 54 1 14 50
M  V30 55 1 16 51
M  V30 56 1 17 52
M  V30 57 1 20 53
M  V30 58 1 22 54
M  V30 59 1 22 55
M  V30 60 1 24 56
M  V30 61 1 29 57
M  V30 62 1 30 58
M  V30 63 1 31 59
M  V30 64 1 32 60
M  V30 END BOND
M  V30 END CTAB
M  END
>  <Dataset>  (933) 
ChEMBL_Kinases

>  <Ligand_Instance>  (933) 
nan

>  <PDB_ID>  (933) 
nan

>  <Standardized_SMILES>  (933) 
CCOCCCn1c(=N)c(C(=O)NCc2ccc3c(c2)OCO3)cc2c(=O)n3ccccc3nc21

>  <Name>  (933) 
nan

>  <Pocket>  (933) 
nan

>  <ATP_Site>  (933) 
nan

>  <Peripheral>  (933) 
nan

>  <Num_H_Atoms_ProtBoundConf>  (933) 
nan

>  <Num_Resolved_Atoms>  (933) 
nan

>  <Num_Not_Resolved_Atoms>  (933) 
nan

$$$$
CHEMBL1380371
     RDKit          3D

  0  0  0  0  0  0  0  0  0  0999 V3000
M  V30 BEGIN CTAB
M  V30 COUNTS 64 65 0 0 0
M  V30 BEGIN ATOM
M  V30 1 C 0.081401 -1.270363 4.466386 0
M  V30 2 C 1.508838 -1.688565 4.435114 0
M  V30 3 C 1.898802 -2.633664 3.355611 0
M  V30 4 C 1.770026 -2.190348 1.952456 0
M  V30 5 N 0.518567 -1.776039 1.450339 0
M  V30 6 C 0.072871 -0.481144 1.393417 0
M  V30 7 S 0.923706 1.036723 1.876838 0
M  V30 8 C 1.841925 1.644900 0.410196 0
M  V30 9 C 0.899353 2.054264 -0.636131 0
M  V30 10 O 0.588714 1.073854 -1.394581 0
M  V30 11 N 0.364555 3.345770 -0.837992 0
M  V30 12 C 0.730041 4.463199 0.047799 0
M  V30 13 C -0.213351 4.570775 1.225632 0
M  V30 14 C -0.559995 3.525190 -1.959025 0
M  V30 15 C 0.037489 3.325967 -3.285867 0
M  V30 16 C -0.558768 2.222967 -4.057654 0
M  V30 17 S -2.193467 2.076237 -3.380051 0
M  V30 18 O -2.614975 0.641335 -3.265377 0
M  V30 19 O -3.203834 2.897729 -4.136299 0
M  V30 20 C -1.833272 2.780112 -1.786266 0
M  V30 21 N -1.167571 -0.443668 0.876263 0
M  V30 22 N -1.471385 -1.684116 0.623065 0
M  V30 23 C -0.494028 -2.546331 0.946357 0
M  V30 24 C -0.384087 -4.030983 0.839854 0
M  V30 25 C -0.010414 -4.493060 -0.514805 0
M  V30 26 C 0.136482 -5.950195 -0.742656 0
M  V30 27 N -1.594547 -4.584992 1.313114 0
M  V30 28 C -1.661072 -5.983301 1.557297 0
M  V30 29 C -2.793602 -4.002504 0.801746 0
M  V30 30 H -0.328659 -1.498877 5.500177 0
M  V30 31 H -0.084196 -0.203546 4.341299 0
M  V30 32 H -0.494618 -1.935935 3.787862 0
M  V30 33 H 2.214652 -0.821555 4.450402 0
M  V30 34 H 1.738640 -2.221495 5.406294 0
M  V30 35 H 3.014189 -2.807402 3.511018 0
M  V30 36 H 1.486212 -3.653558 3.549892 0
M  V30 37 H 2.292759 -2.938616 1.305753 0
M  V30 38 H 2.493576 -1.310279 1.880551 0
M  V30 39 H 2.514705 0.804761 0.110601 0
M  V30 40 H 2.548977 2.445187 0.739565 0
M  V30 41 H 0.668026 5.403343 -0.540410 0
M  V30 42 H 1.740230 4.278528 0.446646 0
M  V30 43 H -0.602672 3.595496 1.548631 0
M  V30 44 H -1.009863 5.320577 1.041722 0
M  V30 45 H 0.377645 4.979008 2.092435 0
M  V30 46 H -0.854440 4.619004 -1.915324 0
M  V30 47 H 1.125867 3.051608 -3.118483 0
M  V30 48 H 0.117380 4.263927 -3.896972 0
M  V30 49 H -0.003698 1.261660 -4.059304 0
M  V30 50 H -0.720505 2.582826 -5.117198 0
M  V30 51 H -1.783643 1.948559 -1.059380 0
M  V30 52 H -2.695622 3.411579 -1.439432 0
M  V30 53 H 0.411599 -4.410300 1.550006 0
M  V30 54 H -0.743484 -4.070077 -1.264139 0
M  V30 55 H 0.979883 -4.058373 -0.854085 0
M  V30 56 H 0.572910 -6.055397 -1.788274 0
M  V30 57 H 0.943155 -6.340684 -0.086311 0
M  V30 58 H -0.756519 -6.562054 -0.759131 0
M  V30 59 H -0.693188 -6.508926 1.625587 0
M  V30 60 H -2.422551 -6.477441 0.926926 0
M  V30 61 H -2.087695 -6.085912 2.606025 0
M  V30 62 H -3.111554 -3.173622 1.453279 0
M  V30 63 H -3.653998 -4.724669 0.786962 0
M  V30 64 H -2.601439 -3.592474 -0.204253 0
M  V30 END ATOM
M  V30 BEGIN BOND
M  V30 1 1 1 2
M  V30 2 1 2 3
M  V30 3 1 3 4
M  V30 4 1 4 5
M  V30 5 1 5 6
M  V30 6 1 6 7
M  V30 7 1 7 8
M  V30 8 1 8 9
M  V30 9 2 9 10
M  V30 10 1 9 11
M  V30 11 1 11 12
M  V30 12 1 12 13
M  V30 13 1 11 14
M  V30 14 1 14 15
M  V30 15 1 15 16
M  V30 16 1 16 17
M  V30 17 2 17 18
M  V30 18 2 17 19
M  V30 19 1 17 20
M  V30 20 2 6 21
M  V30 21 1 21 22
M  V30 22 2 22 23
M  V30 23 1 23 24
M  V30 24 1 24 25
M  V30 25 1 25 26
M  V30 26 1 24 27
M  V30 27 1 27 28
M  V30 28 1 27 29
M  V30 29 1 23 5
M  V30 30 1 20 14
M  V30 31 1 1 30
M  V30 32 1 1 31
M  V30 33 1 1 32
M  V30 34 1 2 33
M  V30 35 1 2 34
M  V30 36 1 3 35
M  V30 37 1 3 36
M  V30 38 1 4 37
M  V30 39 1 4 38
M  V30 40 1 8 39
M  V30 41 1 8 40
M  V30 42 1 12 41
M  V30 43 1 12 42
M  V30 44 1 13 43
M  V30 45 1 13 44
M  V30 46 1 13 45
M  V30 47 1 14 46
M  V30 48 1 15 47
M  V30 49 1 15 48
M  V30 50 1 16 49
M  V30 51 1 16 50
M  V30 52 1 20 51
M  V30 53 1 20 52
M  V30 54 1 24 53
M  V30 55 1 25 54
M  V30 56 1 25 55
M  V30 57 1 26 56
M  V30 58 1 26 57
M  V30 59 1 26 58
M  V30 60 1 28 59
M  V30 61 1 28 60
M  V30 62 1 28 61
M  V30 63 1 29 62
M  V30 64 1 29 63
M  V30 65 1 29 64
M  V30 END BOND
M  V30 END CTAB
M  END
>  <Dataset>  (934) 
ChEMBL_Kinases

>  <Ligand_Instance>  (934) 
nan

>  <PDB_ID>  (934) 
nan

>  <Standardized_SMILES>  (934) 
CCCCn1c(SCC(=O)N(CC)C2CCS(=O)(=O)C2)nnc1C(CC)N(C)C

>  <Name>  (934) 
nan

>  <Pocket>  (934) 
nan

>  <ATP_Site>  (934) 
nan

>  <Peripheral>  (934) 
nan

>  <Num_H_Atoms_ProtBoundConf>  (934) 
nan

>  <Num_Resolved_Atoms>  (934) 
nan

>  <Num_Not_Resolved_Atoms>  (934) 
nan

$$$$
CHEMBL1380428
     RDKit          3D

  0  0  0  0  0  0  0  0  0  0999 V3000
M  V30 BEGIN CTAB
M  V30 COUNTS 41 42 0 0 0
M  V30 BEGIN ATOM
M  V30 1 C 4.212004 -5.803506 -1.594454 0
M  V30 2 O 4.087971 -4.381523 -1.512796 0
M  V30 3 C 3.015902 -3.788031 -0.859760 0
M  V30 4 C 1.983646 -4.493625 -0.236742 0
M  V30 5 C 0.985022 -3.761004 0.372366 0
M  V30 6 C 0.948487 -2.381433 0.400756 0
M  V30 7 O -0.087714 -1.709655 1.032386 0
M  V30 8 C -1.153385 -2.393972 1.675760 0
M  V30 9 C 1.976411 -1.700455 -0.219741 0
M  V30 10 N 2.000495 -0.297985 -0.228039 0
M  V30 11 C 1.040858 0.530182 0.357747 0
M  V30 12 C 0.123743 1.118692 -0.652620 0
M  V30 13 C 0.821308 0.854562 1.601792 0
M  V30 14 C -0.132482 1.686791 2.250217 0
M  V30 15 O 0.320281 1.461102 3.436519 0
M  V30 16 C -1.237239 2.581958 2.394803 0
M  V30 17 C -1.586679 2.965564 3.669232 0
M  V30 18 C -2.658438 3.846301 3.871799 0
M  V30 19 C -3.298960 4.273883 2.755353 0
M  V30 20 Br -4.759697 5.477816 3.076325 0
M  V30 21 C -3.022935 3.947355 1.453231 0
M  V30 22 C -1.959872 3.081308 1.345616 0
M  V30 23 C 2.988196 -2.407526 -0.836718 0
M  V30 24 H 4.303084 -6.150086 -0.537521 0
M  V30 25 H 5.134186 -6.047424 -2.127212 0
M  V30 26 H 3.312950 -6.265689 -2.055408 0
M  V30 27 H 2.024198 -5.568624 -0.266197 0
M  V30 28 H 0.225223 -4.354102 0.830609 0
M  V30 29 H -1.456336 -3.205402 0.950737 0
M  V30 30 H -0.835270 -2.913890 2.596425 0
M  V30 31 H -2.039274 -1.758132 1.776124 0
M  V30 32 H 2.771558 0.229528 -0.693339 0
M  V30 33 H -0.913130 0.803596 -0.330605 0
M  V30 34 H 0.233623 2.228435 -0.690163 0
M  V30 35 H 0.232134 0.710443 -1.665335 0
M  V30 36 H 1.629497 0.275269 2.081671 0
M  V30 37 H -1.117685 2.661276 4.611956 0
M  V30 38 H -2.938529 4.152442 4.876544 0
M  V30 39 H -3.618354 4.363901 0.654597 0
M  V30 40 H -1.787729 2.864229 0.307111 0
M  V30 41 H 3.785766 -1.828615 -1.317940 0
M  V30 END ATOM
M  V30 BEGIN BOND
M  V30 1 1 1 2
M  V30 2 1 2 3
M  V30 3 2 3 4
M  V30 4 1 4 5
M  V30 5 2 5 6
M  V30 6 1 6 7
M  V30 7 1 7 8
M  V30 8 1 6 9
M  V30 9 1 9 10
M  V30 10 1 10 11
M  V30 11 1 11 12
M  V30 12 2 11 13
M  V30 13 1 13 14
M  V30 14 2 14 15
M  V30 15 1 14 16
M  V30 16 2 16 17
M  V30 17 1 17 18
M  V30 18 2 18 19
M  V30 19 1 19 20
M  V30 20 1 19 21
M  V30 21 2 21 22
M  V30 22 2 9 23
M  V30 23 1 23 3
M  V30 24 1 22 16
M  V30 25 1 1 24
M  V30 26 1 1 25
M  V30 27 1 1 26
M  V30 28 1 4 27
M  V30 29 1 5 28
M  V30 30 1 8 29
M  V30 31 1 8 30
M  V30 32 1 8 31
M  V30 33 1 10 32
M  V30 34 1 12 33
M  V30 35 1 12 34
M  V30 36 1 12 35
M  V30 37 1 13 36
M  V30 38 1 17 37
M  V30 39 1 18 38
M  V30 40 1 21 39
M  V30 41 1 22 40
M  V30 42 1 23 41
M  V30 END BOND
M  V30 END CTAB
M  END
>  <Dataset>  (935) 
ChEMBL_Kinases

>  <Ligand_Instance>  (935) 
nan

>  <PDB_ID>  (935) 
nan

>  <Standardized_SMILES>  (935) 
COc1ccc(OC)c(N/C(C)=C/C(=O)c2ccc(Br)cc2)c1

>  <Name>  (935) 
nan

>  <Pocket>  (935) 
nan

>  <ATP_Site>  (935) 
nan

>  <Peripheral>  (935) 
nan

>  <Num_H_Atoms_ProtBoundConf>  (935) 
nan

>  <Num_Resolved_Atoms>  (935) 
nan

>  <Num_Not_Resolved_Atoms>  (935) 
nan

$$$$
CHEMBL1381347
     RDKit          3D

  0  0  0  0  0  0  0  0  0  0999 V3000
M  V30 BEGIN CTAB
M  V30 COUNTS 29 30 0 0 0
M  V30 BEGIN ATOM
M  V30 1 C 0.641779 -1.730708 3.737037 0
M  V30 2 C -0.388766 -1.749927 2.663115 0
M  V30 3 N -1.715824 -1.699206 2.686599 0
M  V30 4 N -2.253314 -1.742808 1.499942 0
M  V30 5 C -3.673769 -1.707985 1.161799 0
M  V30 6 C -1.244493 -1.829229 0.589523 0
M  V30 7 C -1.449224 -1.900967 -0.888349 0
M  V30 8 C -0.062463 -1.833864 1.324291 0
M  V30 9 S 1.519136 -1.937451 0.488582 0
M  V30 10 C 2.131439 -0.301356 0.120743 0
M  V30 11 C 1.857822 0.374620 -1.049440 0
M  V30 12 C 2.328543 1.638770 -1.338226 0
M  V30 13 C 3.129166 2.280384 -0.398757 0
M  V30 14 Br 3.831505 4.036061 -0.706380 0
M  V30 15 C 3.429464 1.634288 0.794537 0
M  V30 16 C 2.935921 0.354503 1.054087 0
M  V30 17 H 0.324090 -1.102206 4.600220 0
M  V30 18 H 1.565870 -1.265450 3.359400 0
M  V30 19 H 0.805907 -2.782896 4.081470 0
M  V30 20 H -3.802273 -1.785990 0.064500 0
M  V30 21 H -4.054281 -0.679340 1.422676 0
M  V30 22 H -4.247636 -2.502859 1.662875 0
M  V30 23 H -2.251313 -1.223812 -1.196304 0
M  V30 24 H -0.484091 -1.747885 -1.403559 0
M  V30 25 H -1.748210 -2.959273 -1.127957 0
M  V30 26 H 1.235348 -0.112123 -1.791164 0
M  V30 27 H 2.091092 2.136966 -2.269731 0
M  V30 28 H 4.056152 2.165460 1.502454 0
M  V30 29 H 3.215316 -0.078116 2.004713 0
M  V30 END ATOM
M  V30 BEGIN BOND
M  V30 1 1 1 2
M  V30 2 2 2 3
M  V30 3 1 3 4
M  V30 4 1 4 5
M  V30 5 1 4 6
M  V30 6 1 6 7
M  V30 7 2 6 8
M  V30 8 1 8 9
M  V30 9 1 9 10
M  V30 10 2 10 11
M  V30 11 1 11 12
M  V30 12 2 12 13
M  V30 13 1 13 14
M  V30 14 1 13 15
M  V30 15 2 15 16
M  V30 16 1 8 2
M  V30 17 1 16 10
M  V30 18 1 1 17
M  V30 19 1 1 18
M  V30 20 1 1 19
M  V30 21 1 5 20
M  V30 22 1 5 21
M  V30 23 1 5 22
M  V30 24 1 7 23
M  V30 25 1 7 24
M  V30 26 1 7 25
M  V30 27 1 11 26
M  V30 28 1 12 27
M  V30 29 1 15 28
M  V30 30 1 16 29
M  V30 END BOND
M  V30 END CTAB
M  END
>  <Dataset>  (936) 
ChEMBL_Kinases

>  <Ligand_Instance>  (936) 
nan

>  <PDB_ID>  (936) 
nan

>  <Standardized_SMILES>  (936) 
Cc1nn(C)c(C)c1Sc1ccc(Br)cc1

>  <Name>  (936) 
nan

>  <Pocket>  (936) 
nan

>  <ATP_Site>  (936) 
nan

>  <Peripheral>  (936) 
nan

>  <Num_H_Atoms_ProtBoundConf>  (936) 
nan

>  <Num_Resolved_Atoms>  (936) 
nan

>  <Num_Not_Resolved_Atoms>  (936) 
nan

$$$$
CHEMBL1380744
     RDKit          3D

  0  0  0  0  0  0  0  0  0  0999 V3000
M  V30 BEGIN CTAB
M  V30 COUNTS 38 40 0 0 0
M  V30 BEGIN ATOM
M  V30 1 C -2.449673 -1.714068 4.792553 0
M  V30 2 C -1.924817 -1.970759 3.426727 0
M  V30 3 C -2.253640 -3.135185 2.731335 0
M  V30 4 C -1.775561 -3.404965 1.444641 0
M  V30 5 C -0.944921 -2.496442 0.822017 0
M  V30 6 N -0.437092 -2.639603 -0.401624 0
M  V30 7 C 0.372502 -1.696836 -0.965339 0
M  V30 8 N 0.896049 -1.883468 -2.274904 0
M  V30 9 C 1.755113 -0.870392 -2.857945 0
M  V30 10 C 2.202212 -1.260538 -4.250045 0
M  V30 11 O 3.025165 -0.276208 -4.792157 0
M  V30 12 N 0.659740 -0.593411 -0.252778 0
M  V30 13 C 0.177302 -0.376129 1.007618 0
M  V30 14 C 0.627450 0.887353 1.566172 0
M  V30 15 C 0.451845 2.002879 0.754362 0
M  V30 16 C 0.816501 3.302786 1.059697 0
M  V30 17 C 1.409945 3.495486 2.290534 0
M  V30 18 C 1.609830 2.424854 3.137628 0
M  V30 19 C 1.226008 1.150522 2.779542 0
M  V30 20 C -0.636577 -1.356894 1.531496 0
M  V30 21 C -1.095376 -1.070707 2.796466 0
M  V30 22 H -3.212604 -2.446151 5.061478 0
M  V30 23 H -1.627343 -1.801586 5.537158 0
M  V30 24 H -2.797544 -0.664001 4.850741 0
M  V30 25 H -2.902243 -3.876315 3.180877 0
M  V30 26 H -2.029747 -4.299910 0.912671 0
M  V30 27 H 0.648350 -2.754368 -2.793706 0
M  V30 28 H 1.234456 0.106151 -2.923276 0
M  V30 29 H 2.684120 -0.694526 -2.270923 0
M  V30 30 H 2.764053 -2.216835 -4.231063 0
M  V30 31 H 1.268912 -1.394353 -4.854578 0
M  V30 32 H 2.763071 0.596516 -4.411213 0
M  V30 33 H -0.015827 1.905272 -0.236285 0
M  V30 34 H 0.655965 4.118326 0.395541 0
M  V30 35 H 1.735493 4.472272 2.633942 0
M  V30 36 H 2.072402 2.500177 4.125482 0
M  V30 37 H 1.388885 0.299467 3.423704 0
M  V30 38 H -0.867681 -0.189545 3.335638 0
M  V30 END ATOM
M  V30 BEGIN BOND
M  V30 1 1 1 2
M  V30 2 2 2 3
M  V30 3 1 3 4
M  V30 4 2 4 5
M  V30 5 1 5 6
M  V30 6 2 6 7
M  V30 7 1 7 8
M  V30 8 1 8 9
M  V30 9 1 9 10
M  V30 10 1 10 11
M  V30 11 1 7 12
M  V30 12 2 12 13
M  V30 13 1 13 14
M  V30 14 2 14 15
M  V30 15 1 15 16
M  V30 16 2 16 17
M  V30 17 1 17 18
M  V30 18 2 18 19
M  V30 19 1 13 20
M  V30 20 2 20 21
M  V30 21 1 21 2
M  V30 22 1 20 5
M  V30 23 1 19 14
M  V30 24 1 1 22
M  V30 25 1 1 23
M  V30 26 1 1 24
M  V30 27 1 3 25
M  V30 28 1 4 26
M  V30 29 1 8 27
M  V30 30 1 9 28
M  V30 31 1 9 29
M  V30 32 1 10 30
M  V30 33 1 10 31
M  V30 34 1 11 32
M  V30 35 1 15 33
M  V30 36 1 16 34
M  V30 37 1 17 35
M  V30 38 1 18 36
M  V30 39 1 19 37
M  V30 40 1 21 38
M  V30 END BOND
M  V30 END CTAB
M  END
>  <Dataset>  (937) 
ChEMBL_Kinases

>  <Ligand_Instance>  (937) 
nan

>  <PDB_ID>  (937) 
nan

>  <Standardized_SMILES>  (937) 
Cc1ccc2nc(NCCO)nc(-c3ccccc3)c2c1

>  <Name>  (937) 
nan

>  <Pocket>  (937) 
nan

>  <ATP_Site>  (937) 
nan

>  <Peripheral>  (937) 
nan

>  <Num_H_Atoms_ProtBoundConf>  (937) 
nan

>  <Num_Resolved_Atoms>  (937) 
nan

>  <Num_Not_Resolved_Atoms>  (937) 
nan

$$$$
CHEMBL1380799
     RDKit          3D

  0  0  0  0  0  0  0  0  0  0999 V3000
M  V30 BEGIN CTAB
M  V30 COUNTS 55 58 0 0 0
M  V30 BEGIN ATOM
M  V30 1 C 1.082897 -4.307064 6.391099 0
M  V30 2 C 1.968953 -3.933636 5.243144 0
M  V30 3 C 3.311988 -4.253383 5.190483 0
M  V30 4 C 3.735632 -3.729948 3.984652 0
M  V30 5 C 2.655938 -3.127090 3.368247 0
M  V30 6 C 2.730628 -2.465235 2.070736 0
M  V30 7 N 2.713283 -2.766695 0.760334 0
M  V30 8 N 2.825618 -1.658999 0.047029 0
M  V30 9 N 2.916727 -0.631364 0.877295 0
M  V30 10 C 3.058592 0.759923 0.500371 0
M  V30 11 C 1.779196 1.470120 0.319073 0
M  V30 12 O 2.099010 2.664593 -0.017497 0
M  V30 13 N 0.402401 1.058985 0.450597 0
M  V30 14 C -0.575642 2.094996 0.191725 0
M  V30 15 C -0.949080 2.146051 -1.233959 0
M  V30 16 O -1.807671 3.049069 -1.365240 0
M  V30 17 N -0.533686 1.412486 -2.364766 0
M  V30 18 C -0.950329 1.516995 -3.727656 0
M  V30 19 C -2.401525 1.257945 -3.983629 0
M  V30 20 C -2.763478 -0.134064 -3.502026 0
M  V30 21 C -4.106976 0.040242 -2.869073 0
M  V30 22 C -4.434770 1.486791 -3.058777 0
M  V30 23 O -3.232759 2.130188 -3.316216 0
M  V30 24 C -0.121660 -0.230699 0.827603 0
M  V30 25 C -0.284583 -0.187666 2.217876 0
M  V30 26 C -0.780760 -1.293054 2.921371 0
M  V30 27 C -1.112880 -2.439629 2.230934 0
M  V30 28 C -0.941445 -2.448499 0.872072 0
M  V30 29 C -0.460019 -1.385607 0.162324 0
M  V30 30 N 2.858561 -1.126320 2.103252 0
M  V30 31 O 1.608266 -3.277270 4.170519 0
M  V30 32 H 0.301727 -3.517390 6.502891 0
M  V30 33 H 0.569752 -5.267472 6.240527 0
M  V30 34 H 1.645340 -4.310943 7.346529 0
M  V30 35 H 3.855462 -4.785199 5.935765 0
M  V30 36 H 4.739609 -3.791401 3.607097 0
M  V30 37 H 3.617403 0.757038 -0.468431 0
M  V30 38 H 3.731069 1.300695 1.203747 0
M  V30 39 H -1.496227 1.883434 0.791330 0
M  V30 40 H -0.173000 3.073125 0.534900 0
M  V30 41 H 0.203792 0.702164 -2.081956 0
M  V30 42 H -0.382053 0.788249 -4.331273 0
M  V30 43 H -0.653263 2.518817 -4.167905 0
M  V30 44 H -2.633804 1.337291 -5.073715 0
M  V30 45 H -2.774827 -0.831635 -4.364869 0
M  V30 46 H -1.989528 -0.504938 -2.799053 0
M  V30 47 H -4.036011 -0.262572 -1.797178 0
M  V30 48 H -4.861618 -0.626867 -3.351618 0
M  V30 49 H -5.157874 1.586522 -3.899849 0
M  V30 50 H -4.878075 1.949812 -2.153079 0
M  V30 51 H -0.080752 0.619683 2.937514 0
M  V30 52 H -0.938548 -1.349220 3.988290 0
M  V30 53 H -1.502750 -3.336198 2.703647 0
M  V30 54 H -1.172194 -3.304375 0.222864 0
M  V30 55 H -0.278976 -1.261719 -0.880827 0
M  V30 END ATOM
M  V30 BEGIN BOND
M  V30 1 1 1 2
M  V30 2 2 2 3
M  V30 3 1 3 4
M  V30 4 2 4 5
M  V30 5 1 5 6
M  V30 6 1 6 7
M  V30 7 2 7 8
M  V30 8 1 8 9
M  V30 9 1 9 10
M  V30 10 1 10 11
M  V30 11 2 11 12
M  V30 12 1 11 13
M  V30 13 1 13 14
M  V30 14 1 14 15
M  V30 15 2 15 16
M  V30 16 1 15 17
M  V30 17 1 17 18
M  V30 18 1 18 19
M  V30 19 1 19 20
M  V30 20 1 20 21
M  V30 21 1 21 22
M  V30 22 1 22 23
M  V30 23 1 13 24
M  V30 24 2 24 25
M  V30 25 1 25 26
M  V30 26 2 26 27
M  V30 27 1 27 28
M  V30 28 2 28 29
M  V30 29 1 9 30
M  V30 30 1 5 31
M  V30 31 1 31 2
M  V30 32 2 30 6
M  V30 33 1 23 19
M  V30 34 1 29 24
M  V30 35 1 1 32
M  V30 36 1 1 33
M  V30 37 1 1 34
M  V30 38 1 3 35
M  V30 39 1 4 36
M  V30 40 1 10 37
M  V30 41 1 10 38
M  V30 42 1 14 39
M  V30 43 1 14 40
M  V30 44 1 17 41
M  V30 45 1 18 42
M  V30 46 1 18 43
M  V30 47 1 19 44
M  V30 48 1 20 45
M  V30 49 1 20 46
M  V30 50 1 21 47
M  V30 51 1 21 48
M  V30 52 1 22 49
M  V30 53 1 22 50
M  V30 54 1 25 51
M  V30 55 1 26 52
M  V30 56 1 27 53
M  V30 57 1 28 54
M  V30 58 1 29 55
M  V30 END BOND
M  V30 END CTAB
M  END
>  <Dataset>  (938) 
ChEMBL_Kinases

>  <Ligand_Instance>  (938) 
nan

>  <PDB_ID>  (938) 
nan

>  <Standardized_SMILES>  (938) 
Cc1ccc(-c2nnn(CC(=O)N(CC(=O)NCC3CCCO3)c3ccccc3)n2)o1

>  <Name>  (938) 
nan

>  <Pocket>  (938) 
nan

>  <ATP_Site>  (938) 
nan

>  <Peripheral>  (938) 
nan

>  <Num_H_Atoms_ProtBoundConf>  (938) 
nan

>  <Num_Resolved_Atoms>  (938) 
nan

>  <Num_Not_Resolved_Atoms>  (938) 
nan

$$$$
CHEMBL1381012
     RDKit          3D

  0  0  0  0  0  0  0  0  0  0999 V3000
M  V30 BEGIN CTAB
M  V30 COUNTS 40 43 0 0 0
M  V30 BEGIN ATOM
M  V30 1 C -0.815395 -4.549597 4.878294 0
M  V30 2 O -1.471505 -4.328196 3.643685 0
M  V30 3 C -0.915912 -3.393132 2.781335 0
M  V30 4 C -1.636578 -3.251120 1.597208 0
M  V30 5 C -1.259569 -2.367365 0.588437 0
M  V30 6 C -0.114459 -1.617579 0.812180 0
M  V30 7 C 0.356283 -0.664454 -0.191859 0
M  V30 8 C 0.954570 -1.282563 -1.417331 0
M  V30 9 C 0.094040 -0.626139 -2.475244 0
M  V30 10 C 0.447007 0.838651 -2.503792 0
M  V30 11 C -0.239937 1.363431 -1.304787 0
M  V30 12 C 0.553199 2.039450 -0.293567 0
M  V30 13 C 1.780211 2.609012 -0.475691 0
M  V30 14 C 2.534570 3.254425 0.495038 0
M  V30 15 C 1.972891 3.314615 1.755216 0
M  V30 16 C 0.729263 2.752397 1.995020 0
M  V30 17 C 0.039983 2.130554 0.990288 0
M  V30 18 N -0.754442 0.121823 -0.701174 0
M  V30 19 O -1.129956 -0.596570 -1.809473 0
M  V30 20 C 0.626756 -1.742556 1.994235 0
M  V30 21 C 0.217271 -2.629081 2.965228 0
M  V30 22 H -1.197940 -5.450653 5.397178 0
M  V30 23 H 0.275175 -4.623254 4.663309 0
M  V30 24 H -0.964169 -3.624441 5.466085 0
M  V30 25 H -2.538745 -3.809900 1.366652 0
M  V30 26 H -1.825092 -2.264428 -0.326315 0
M  V30 27 H 1.102953 0.039399 0.233060 0
M  V30 28 H 2.004355 -0.966089 -1.619352 0
M  V30 29 H 0.934234 -2.374761 -1.455148 0
M  V30 30 H 0.088909 -1.112709 -3.447106 0
M  V30 31 H -0.058723 1.256537 -3.423276 0
M  V30 32 H 1.514447 1.013693 -2.604011 0
M  V30 33 H -1.163698 1.950058 -1.556394 0
M  V30 34 H 2.219187 2.560704 -1.465235 0
M  V30 35 H 3.513288 3.680791 0.247302 0
M  V30 36 H 2.586476 3.828337 2.503556 0
M  V30 37 H 0.435520 2.885428 3.026466 0
M  V30 38 H -0.921660 1.735494 1.321222 0
M  V30 39 H 1.513520 -1.160486 2.165035 0
M  V30 40 H 0.717153 -2.788170 3.889555 0
M  V30 END ATOM
M  V30 BEGIN BOND
M  V30 1 1 1 2
M  V30 2 1 2 3
M  V30 3 2 3 4
M  V30 4 1 4 5
M  V30 5 2 5 6
M  V30 6 1 6 7
M  V30 7 1 7 8
M  V30 8 1 8 9
M  V30 9 1 9 10
M  V30 10 1 10 11
M  V30 11 1 11 12
M  V30 12 2 12 13
M  V30 13 1 13 14
M  V30 14 2 14 15
M  V30 15 1 15 16
M  V30 16 2 16 17
M  V30 17 1 11 18
M  V30 18 1 18 19
M  V30 19 1 6 20
M  V30 20 2 20 21
M  V30 21 1 21 3
M  V30 22 1 18 7
M  V30 23 1 19 9
M  V30 24 1 17 12
M  V30 25 1 1 22
M  V30 26 1 1 23
M  V30 27 1 1 24
M  V30 28 1 4 25
M  V30 29 1 5 26
M  V30 30 1 7 27
M  V30 31 1 8 28
M  V30 32 1 8 29
M  V30 33 1 9 30
M  V30 34 1 10 31
M  V30 35 1 10 32
M  V30 36 1 11 33
M  V30 37 1 13 34
M  V30 38 1 14 35
M  V30 39 1 15 36
M  V30 40 1 16 37
M  V30 41 1 17 38
M  V30 42 1 20 39
M  V30 43 1 21 40
M  V30 END BOND
M  V30 END CTAB
M  END
>  <Dataset>  (939) 
ChEMBL_Kinases

>  <Ligand_Instance>  (939) 
nan

>  <PDB_ID>  (939) 
nan

>  <Standardized_SMILES>  (939) 
COc1ccc(C2CC3CC(c4ccccc4)N2O3)cc1

>  <Name>  (939) 
nan

>  <Pocket>  (939) 
nan

>  <ATP_Site>  (939) 
nan

>  <Peripheral>  (939) 
nan

>  <Num_H_Atoms_ProtBoundConf>  (939) 
nan

>  <Num_Resolved_Atoms>  (939) 
nan

>  <Num_Not_Resolved_Atoms>  (939) 
nan

$$$$
CHEMBL1381026
     RDKit          3D

  0  0  0  0  0  0  0  0  0  0999 V3000
M  V30 BEGIN CTAB
M  V30 COUNTS 32 34 0 0 0
M  V30 BEGIN ATOM
M  V30 1 C -3.379874 -2.665202 4.098179 0
M  V30 2 C -2.598004 -2.490565 2.822496 0
M  V30 3 C -1.680804 -1.423834 2.844493 0
M  V30 4 C -0.945327 -1.232758 1.671498 0
M  V30 5 C -1.069514 -2.007924 0.536012 0
M  V30 6 C -0.248967 -1.703171 -0.626386 0
M  V30 7 N 0.594252 -0.722511 -0.608217 0
M  V30 8 C 1.286266 -0.605998 -1.840156 0
M  V30 9 C 2.215097 0.362688 -1.985997 0
M  V30 10 C 2.466002 1.264804 -0.840587 0
M  V30 11 C 3.711548 1.656808 -0.386618 0
M  V30 12 C 3.826462 2.505078 0.705099 0
M  V30 13 C 2.666845 2.957013 1.338288 0
M  V30 14 N 1.468490 2.558902 0.873046 0
M  V30 15 C 1.338428 1.724716 -0.199773 0
M  V30 16 C 0.747464 -1.679574 -2.662188 0
M  V30 17 O 1.174414 -1.837599 -3.838633 0
M  V30 18 O -0.210329 -2.341791 -1.864757 0
M  V30 19 C -1.979460 -3.040392 0.559096 0
M  V30 20 C -2.739890 -3.279636 1.698607 0
M  V30 21 H -2.693942 -2.732123 4.948153 0
M  V30 22 H -4.079811 -3.494130 4.061001 0
M  V30 23 H -3.986674 -1.728224 4.289695 0
M  V30 24 H -1.563795 -0.808618 3.714130 0
M  V30 25 H -0.245762 -0.384778 1.754652 0
M  V30 26 H 2.661437 0.334754 -2.977131 0
M  V30 27 H 4.576055 1.255573 -0.940912 0
M  V30 28 H 4.829873 2.790404 1.035612 0
M  V30 29 H 2.830416 3.607711 2.178244 0
M  V30 30 H 0.286584 1.559578 -0.381584 0
M  V30 31 H -2.101723 -3.663755 -0.307118 0
M  V30 32 H -3.457870 -4.079744 1.739129 0
M  V30 END ATOM
M  V30 BEGIN BOND
M  V30 1 1 1 2
M  V30 2 2 2 3
M  V30 3 1 3 4
M  V30 4 2 4 5
M  V30 5 1 5 6
M  V30 6 2 6 7
M  V30 7 1 7 8
M  V30 8 2 8 9
M  V30 9 1 9 10
M  V30 10 2 10 11
M  V30 11 1 11 12
M  V30 12 2 12 13
M  V30 13 1 13 14
M  V30 14 2 14 15
M  V30 15 1 8 16
M  V30 16 2 16 17
M  V30 17 1 16 18
M  V30 18 1 5 19
M  V30 19 2 19 20
M  V30 20 1 20 2
M  V30 21 1 18 6
M  V30 22 1 15 10
M  V30 23 1 1 21
M  V30 24 1 1 22
M  V30 25 1 1 23
M  V30 26 1 3 24
M  V30 27 1 4 25
M  V30 28 1 9 26
M  V30 29 1 11 27
M  V30 30 1 12 28
M  V30 31 1 13 29
M  V30 32 1 15 30
M  V30 33 1 19 31
M  V30 34 1 20 32
M  V30 END BOND
M  V30 END CTAB
M  END
>  <Dataset>  (940) 
ChEMBL_Kinases

>  <Ligand_Instance>  (940) 
nan

>  <PDB_ID>  (940) 
nan

>  <Standardized_SMILES>  (940) 
Cc1ccc(C2=N/C(=C\c3cccnc3)C(=O)O2)cc1

>  <Name>  (940) 
nan

>  <Pocket>  (940) 
nan

>  <ATP_Site>  (940) 
nan

>  <Peripheral>  (940) 
nan

>  <Num_H_Atoms_ProtBoundConf>  (940) 
nan

>  <Num_Resolved_Atoms>  (940) 
nan

>  <Num_Not_Resolved_Atoms>  (940) 
nan

$$$$
CHEMBL1381073
     RDKit          3D

  0  0  0  0  0  0  0  0  0  0999 V3000
M  V30 BEGIN CTAB
M  V30 COUNTS 38 41 0 0 0
M  V30 BEGIN ATOM
M  V30 1 O 2.283966 -5.030935 2.226607 0
M  V30 2 S 1.314430 -3.936669 1.890813 0
M  V30 3 O -0.008961 -4.564288 1.670067 0
M  V30 4 N 1.816806 -3.119012 0.481797 0
M  V30 5 C 0.998849 -2.068959 0.002097 0
M  V30 6 C -0.375537 -2.081340 -0.126783 0
M  V30 7 C -1.087759 -1.011014 -0.603934 0
M  V30 8 C -0.457375 0.143535 -0.982674 0
M  V30 9 C 0.915712 0.161499 -0.856049 0
M  V30 10 C 1.657894 -0.895105 -0.381216 0
M  V30 11 N 1.302586 1.376934 -1.281667 0
M  V30 12 C 0.222216 2.079848 -1.654577 0
M  V30 13 N -0.896982 1.329932 -1.477563 0
M  V30 14 C -2.258221 1.710957 -1.755098 0
M  V30 15 C -2.278755 2.971646 -2.539976 0
M  V30 16 O -1.090119 3.385461 -3.079064 0
M  V30 17 C -0.035874 3.435932 -2.196497 0
M  V30 18 C 1.225711 -2.853499 3.271525 0
M  V30 19 C 0.069288 -2.142954 3.612472 0
M  V30 20 C 0.135328 -1.319951 4.730168 0
M  V30 21 C 1.258870 -1.167414 5.508822 0
M  V30 22 C 2.391316 -1.879244 5.153853 0
M  V30 23 C 2.375491 -2.713499 4.047166 0
M  V30 24 H 2.692927 -3.343649 -0.052823 0
M  V30 25 H -0.869828 -2.990290 0.171585 0
M  V30 26 H -2.165132 -1.088748 -0.679033 0
M  V30 27 H 2.722672 -0.787262 -0.318818 0
M  V30 28 H -2.744698 0.849348 -2.280872 0
M  V30 29 H -2.787111 1.839931 -0.787959 0
M  V30 30 H -2.741827 3.788489 -1.921678 0
M  V30 31 H -2.971684 2.786811 -3.412650 0
M  V30 32 H -0.194268 4.173168 -1.383963 0
M  V30 33 H 0.866849 3.744117 -2.756594 0
M  V30 34 H -0.801698 -2.268605 2.999108 0
M  V30 35 H -0.795226 -0.795033 4.942847 0
M  V30 36 H 1.231910 -0.505978 6.365932 0
M  V30 37 H 3.278279 -1.770682 5.752940 0
M  V30 38 H 3.274673 -3.264612 3.783870 0
M  V30 END ATOM
M  V30 BEGIN BOND
M  V30 1 2 1 2
M  V30 2 2 2 3
M  V30 3 1 2 4
M  V30 4 1 4 5
M  V30 5 2 5 6
M  V30 6 1 6 7
M  V30 7 2 7 8
M  V30 8 1 8 9
M  V30 9 2 9 10
M  V30 10 1 9 11
M  V30 11 2 11 12
M  V30 12 1 12 13
M  V30 13 1 13 14
M  V30 14 1 14 15
M  V30 15 1 15 16
M  V30 16 1 16 17
M  V30 17 1 2 18
M  V30 18 2 18 19
M  V30 19 1 19 20
M  V30 20 2 20 21
M  V30 21 1 21 22
M  V30 22 2 22 23
M  V30 23 1 10 5
M  V30 24 1 17 12
M  V30 25 1 23 18
M  V30 26 1 13 8
M  V30 27 1 4 24
M  V30 28 1 6 25
M  V30 29 1 7 26
M  V30 30 1 10 27
M  V30 31 1 14 28
M  V30 32 1 14 29
M  V30 33 1 15 30
M  V30 34 1 15 31
M  V30 35 1 17 32
M  V30 36 1 17 33
M  V30 37 1 19 34
M  V30 38 1 20 35
M  V30 39 1 21 36
M  V30 40 1 22 37
M  V30 41 1 23 38
M  V30 END BOND
M  V30 END CTAB
M  END
>  <Dataset>  (941) 
ChEMBL_Kinases

>  <Ligand_Instance>  (941) 
nan

>  <PDB_ID>  (941) 
nan

>  <Standardized_SMILES>  (941) 
O=S(=O)(Nc1ccc2c(c1)nc1n2CCOC1)c1ccccc1

>  <Name>  (941) 
nan

>  <Pocket>  (941) 
nan

>  <ATP_Site>  (941) 
nan

>  <Peripheral>  (941) 
nan

>  <Num_H_Atoms_ProtBoundConf>  (941) 
nan

>  <Num_Resolved_Atoms>  (941) 
nan

>  <Num_Not_Resolved_Atoms>  (941) 
nan

$$$$
CHEMBL1381182
     RDKit          3D

  0  0  0  0  0  0  0  0  0  0999 V3000
M  V30 BEGIN CTAB
M  V30 COUNTS 47 47 0 0 0
M  V30 BEGIN ATOM
M  V30 1 C -1.467305 -4.235715 1.346312 0
M  V30 2 C -0.171092 -4.666964 0.761707 0
M  V30 3 C 1.009138 -3.876559 1.174388 0
M  V30 4 S 1.031256 -2.183446 0.804956 0
M  V30 5 O 2.360580 -1.627109 1.304761 0
M  V30 6 O -0.010677 -1.443061 1.593605 0
M  V30 7 N 0.956313 -1.772449 -0.856986 0
M  V30 8 C -0.214794 -2.196082 -1.504762 0
M  V30 9 C -0.600802 -1.272850 -2.640660 0
M  V30 10 C -0.664185 0.163411 -2.211759 0
M  V30 11 C 0.561112 0.613459 -1.467770 0
M  V30 12 C 0.193107 1.451595 -0.296679 0
M  V30 13 O -1.027952 1.642408 -0.094955 0
M  V30 14 N 1.134701 2.027397 0.575249 0
M  V30 15 C 1.016855 2.846139 1.740369 0
M  V30 16 C 0.291329 2.176105 2.836942 0
M  V30 17 O 0.824282 1.003554 3.299619 0
M  V30 18 C 1.181151 0.971478 4.615642 0
M  V30 19 O -1.014994 1.932744 2.446146 0
M  V30 20 C -1.949567 2.634652 3.187365 0
M  V30 21 C 1.485098 -0.494979 -1.087637 0
M  V30 22 H -1.931159 -5.086274 1.881282 0
M  V30 23 H -2.246127 -3.947978 0.580198 0
M  V30 24 H -1.366933 -3.439350 2.117052 0
M  V30 25 H 0.026178 -5.726322 1.106756 0
M  V30 26 H -0.312300 -4.772618 -0.326670 0
M  V30 27 H 1.127268 -3.985011 2.286790 0
M  V30 28 H 1.929251 -4.341920 0.752510 0
M  V30 29 H -1.069319 -2.434336 -0.858151 0
M  V30 30 H 0.048700 -3.159786 -2.037729 0
M  V30 31 H -1.584306 -1.619431 -3.015927 0
M  V30 32 H 0.131730 -1.420347 -3.459633 0
M  V30 33 H -1.533676 0.274326 -1.531200 0
M  V30 34 H -0.888066 0.767835 -3.114784 0
M  V30 35 H 1.111785 1.288925 -2.158125 0
M  V30 36 H 2.136001 1.796895 0.296224 0
M  V30 37 H 1.944696 3.353155 2.020516 0
M  V30 38 H 0.345544 3.710409 1.416730 0
M  V30 39 H 0.257308 2.918718 3.699561 0
M  V30 40 H 1.935199 1.691099 4.945389 0
M  V30 41 H 0.259619 0.933384 5.232402 0
M  V30 42 H 1.658946 -0.034890 4.780172 0
M  V30 43 H -2.950358 2.352330 2.776251 0
M  V30 44 H -1.896653 2.312126 4.229459 0
M  V30 45 H -1.812268 3.721122 3.045807 0
M  V30 46 H 2.058934 -0.177023 -0.192043 0
M  V30 47 H 2.286537 -0.613037 -1.877094 0
M  V30 END ATOM
M  V30 BEGIN BOND
M  V30 1 1 1 2
M  V30 2 1 2 3
M  V30 3 1 3 4
M  V30 4 2 4 5
M  V30 5 2 4 6
M  V30 6 1 4 7
M  V30 7 1 7 8
M  V30 8 1 8 9
M  V30 9 1 9 10
M  V30 10 1 10 11
M  V30 11 1 11 12
M  V30 12 2 12 13
M  V30 13 1 12 14
M  V30 14 1 14 15
M  V30 15 1 15 16
M  V30 16 1 16 17
M  V30 17 1 17 18
M  V30 18 1 16 19
M  V30 19 1 19 20
M  V30 20 1 11 21
M  V30 21 1 21 7
M  V30 22 1 1 22
M  V30 23 1 1 23
M  V30 24 1 1 24
M  V30 25 1 2 25
M  V30 26 1 2 26
M  V30 27 1 3 27
M  V30 28 1 3 28
M  V30 29 1 8 29
M  V30 30 1 8 30
M  V30 31 1 9 31
M  V30 32 1 9 32
M  V30 33 1 10 33
M  V30 34 1 10 34
M  V30 35 1 11 35
M  V30 36 1 14 36
M  V30 37 1 15 37
M  V30 38 1 15 38
M  V30 39 1 16 39
M  V30 40 1 18 40
M  V30 41 1 18 41
M  V30 42 1 18 42
M  V30 43 1 20 43
M  V30 44 1 20 44
M  V30 45 1 20 45
M  V30 46 1 21 46
M  V30 47 1 21 47
M  V30 END BOND
M  V30 END CTAB
M  END
>  <Dataset>  (942) 
ChEMBL_Kinases

>  <Ligand_Instance>  (942) 
nan

>  <PDB_ID>  (942) 
nan

>  <Standardized_SMILES>  (942) 
CCCS(=O)(=O)N1CCCC(C(=O)NCC(OC)OC)C1

>  <Name>  (942) 
nan

>  <Pocket>  (942) 
nan

>  <ATP_Site>  (942) 
nan

>  <Peripheral>  (942) 
nan

>  <Num_H_Atoms_ProtBoundConf>  (942) 
nan

>  <Num_Resolved_Atoms>  (942) 
nan

>  <Num_Not_Resolved_Atoms>  (942) 
nan

$$$$
CHEMBL1381321
     RDKit          3D

  0  0  0  0  0  0  0  0  0  0999 V3000
M  V30 BEGIN CTAB
M  V30 COUNTS 40 42 0 0 0
M  V30 BEGIN ATOM
M  V30 1 C 3.065013 -3.356714 1.394351 0
M  V30 2 O 2.808446 -2.284959 0.505444 0
M  V30 3 C 2.092001 -1.179472 0.927642 0
M  V30 4 O 1.676842 -1.156108 2.122219 0
M  V30 5 C 1.862724 -0.110524 -0.037883 0
M  V30 6 N 2.254955 -0.030731 -1.323231 0
M  V30 7 C 1.839206 1.121849 -1.864905 0
M  V30 8 C 2.022270 1.610194 -3.159098 0
M  V30 9 C 1.481443 2.858282 -3.477052 0
M  V30 10 C 0.784670 3.571112 -2.508994 0
M  V30 11 F 0.242869 4.798899 -2.792796 0
M  V30 12 C 0.638629 3.031110 -1.245020 0
M  V30 13 C 1.150113 1.804207 -0.872691 0
M  V30 14 C 1.160982 1.036455 0.276734 0
M  V30 15 N 0.533440 1.488849 1.440496 0
M  V30 16 S -1.089037 1.139927 1.765417 0
M  V30 17 O -1.992845 1.784865 0.742545 0
M  V30 18 O -1.428737 1.824799 3.079654 0
M  V30 19 C -1.503375 -0.516562 1.923386 0
M  V30 20 C -1.886536 -1.210550 0.806418 0
M  V30 21 C -2.234372 -2.537393 0.842889 0
M  V30 22 C -2.208173 -3.227986 2.031837 0
M  V30 23 F -2.543435 -4.531463 2.104022 0
M  V30 24 C -1.820710 -2.536137 3.176332 0
M  V30 25 C -1.799461 -3.304619 4.454655 0
M  V30 26 C -1.469250 -1.194495 3.138008 0
M  V30 27 H 3.988740 -3.150226 1.944919 0
M  V30 28 H 2.200067 -3.439222 2.097945 0
M  V30 29 H 3.152052 -4.313865 0.826161 0
M  V30 30 H 2.806619 -0.763123 -1.831021 0
M  V30 31 H 2.571803 1.030310 -3.895360 0
M  V30 32 H 1.594317 3.282838 -4.464979 0
M  V30 33 H 0.085089 3.602155 -0.483286 0
M  V30 34 H 1.226204 2.044134 2.019852 0
M  V30 35 H -1.924122 -0.719848 -0.145557 0
M  V30 36 H -2.531102 -3.060251 -0.044076 0
M  V30 37 H -1.142240 -4.175352 4.294379 0
M  V30 38 H -2.837861 -3.707343 4.606777 0
M  V30 39 H -1.452046 -2.694868 5.292673 0
M  V30 40 H -1.171716 -0.676621 4.037020 0
M  V30 END ATOM
M  V30 BEGIN BOND
M  V30 1 1 1 2
M  V30 2 1 2 3
M  V30 3 2 3 4
M  V30 4 1 3 5
M  V30 5 1 5 6
M  V30 6 1 6 7
M  V30 7 2 7 8
M  V30 8 1 8 9
M  V30 9 2 9 10
M  V30 10 1 10 11
M  V30 11 1 10 12
M  V30 12 2 12 13
M  V30 13 1 13 14
M  V30 14 1 14 15
M  V30 15 1 15 16
M  V30 16 2 16 17
M  V30 17 2 16 18
M  V30 18 1 16 19
M  V30 19 2 19 20
M  V30 20 1 20 21
M  V30 21 2 21 22
M  V30 22 1 22 23
M  V30 23 1 22 24
M  V30 24 1 24 25
M  V30 25 2 24 26
M  V30 26 2 14 5
M  V30 27 1 26 19
M  V30 28 1 13 7
M  V30 29 1 1 27
M  V30 30 1 1 28
M  V30 31 1 1 29
M  V30 32 1 6 30
M  V30 33 1 8 31
M  V30 34 1 9 32
M  V30 35 1 12 33
M  V30 36 1 15 34
M  V30 37 1 20 35
M  V30 38 1 21 36
M  V30 39 1 25 37
M  V30 40 1 25 38
M  V30 41 1 25 39
M  V30 42 1 26 40
M  V30 END BOND
M  V30 END CTAB
M  END
>  <Dataset>  (943) 
ChEMBL_Kinases

>  <Ligand_Instance>  (943) 
nan

>  <PDB_ID>  (943) 
nan

>  <Standardized_SMILES>  (943) 
COC(=O)c1[nH]c2ccc(F)cc2c1NS(=O)(=O)c1ccc(F)c(C)c1

>  <Name>  (943) 
nan

>  <Pocket>  (943) 
nan

>  <ATP_Site>  (943) 
nan

>  <Peripheral>  (943) 
nan

>  <Num_H_Atoms_ProtBoundConf>  (943) 
nan

>  <Num_Resolved_Atoms>  (943) 
nan

>  <Num_Not_Resolved_Atoms>  (943) 
nan

$$$$
CHEMBL1381330
     RDKit          3D

  0  0  0  0  0  0  0  0  0  0999 V3000
M  V30 BEGIN CTAB
M  V30 COUNTS 35 37 0 0 0
M  V30 BEGIN ATOM
M  V30 1 N 1.458509 -3.558470 6.331711 0
M  V30 2 C 1.339275 -3.381958 5.196868 0
M  V30 3 C 1.179443 -3.139438 3.783678 0
M  V30 4 C 1.760204 -3.979079 2.855407 0
M  V30 5 C 1.610876 -3.752262 1.503339 0
M  V30 6 C 0.870256 -2.670455 1.077847 0
M  V30 7 N 0.574470 -2.230533 -0.242548 0
M  V30 8 C 1.569652 -1.322973 -0.698054 0
M  V30 9 O 2.566330 -0.981992 0.010802 0
M  V30 10 C 1.723373 -0.600035 -1.963808 0
M  V30 11 C 1.329403 0.856797 -1.693605 0
M  V30 12 C -0.152701 0.646642 -1.525079 0
M  V30 13 C -1.020875 1.493321 -0.708197 0
M  V30 14 C -0.544884 2.586810 -0.002577 0
M  V30 15 C -1.418217 3.355027 0.757343 0
M  V30 16 C -2.749632 3.004767 0.789224 0
M  V30 17 F -3.659546 3.717166 1.515835 0
M  V30 18 C -3.284516 1.916200 0.100135 0
M  V30 19 C -2.365858 1.183279 -0.643565 0
M  V30 20 N -0.483786 -0.386214 -2.217507 0
M  V30 21 O 0.639682 -0.913017 -2.853315 0
M  V30 22 C 0.285521 -1.825092 2.016531 0
M  V30 23 C 0.432580 -2.048744 3.389300 0
M  V30 24 H 2.340784 -4.826782 3.137883 0
M  V30 25 H 2.009475 -4.327339 0.691875 0
M  V30 26 H -0.152240 -2.380671 -0.961370 0
M  V30 27 H 2.693740 -0.692104 -2.455057 0
M  V30 28 H 1.545079 1.482568 -2.561637 0
M  V30 29 H 1.782406 1.230067 -0.768541 0
M  V30 30 H 0.514141 2.822413 -0.059755 0
M  V30 31 H -1.063322 4.213601 1.315504 0
M  V30 32 H -4.333784 1.658994 0.139204 0
M  V30 33 H -2.772685 0.330336 -1.186184 0
M  V30 34 H -0.322753 -0.937592 1.812225 0
M  V30 35 H -0.006236 -1.414693 4.145379 0
M  V30 END ATOM
M  V30 BEGIN BOND
M  V30 1 3 1 2
M  V30 2 1 2 3
M  V30 3 2 3 4
M  V30 4 1 4 5
M  V30 5 2 5 6
M  V30 6 1 6 7
M  V30 7 1 7 8
M  V30 8 2 8 9
M  V30 9 1 8 10
M  V30 10 1 10 11
M  V30 11 1 11 12
M  V30 12 1 12 13
M  V30 13 2 13 14
M  V30 14 1 14 15
M  V30 15 2 15 16
M  V30 16 1 16 17
M  V30 17 1 16 18
M  V30 18 2 18 19
M  V30 19 2 12 20
M  V30 20 1 20 21
M  V30 21 1 6 22
M  V30 22 2 22 23
M  V30 23 1 23 3
M  V30 24 1 21 10
M  V30 25 1 19 13
M  V30 26 1 4 24
M  V30 27 1 5 25
M  V30 28 1 7 26
M  V30 29 1 10 27
M  V30 30 1 11 28
M  V30 31 1 11 29
M  V30 32 1 14 30
M  V30 33 1 15 31
M  V30 34 1 18 32
M  V30 35 1 19 33
M  V30 36 1 22 34
M  V30 37 1 23 35
M  V30 END BOND
M  V30 END CTAB
M  END
>  <Dataset>  (944) 
ChEMBL_Kinases

>  <Ligand_Instance>  (944) 
nan

>  <PDB_ID>  (944) 
nan

>  <Standardized_SMILES>  (944) 
N#Cc1ccc(NC(=O)C2CC(c3ccc(F)cc3)=NO2)cc1

>  <Name>  (944) 
nan

>  <Pocket>  (944) 
nan

>  <ATP_Site>  (944) 
nan

>  <Peripheral>  (944) 
nan

>  <Num_H_Atoms_ProtBoundConf>  (944) 
nan

>  <Num_Resolved_Atoms>  (944) 
nan

>  <Num_Not_Resolved_Atoms>  (944) 
nan

$$$$
CHEMBL1380683
     RDKit          3D

  0  0  0  0  0  0  0  0  0  0999 V3000
M  V30 BEGIN CTAB
M  V30 COUNTS 37 40 0 0 0
M  V30 BEGIN ATOM
M  V30 1 O -0.611744 -3.374429 0.749851 0
M  V30 2 C -1.207125 -2.300310 1.106361 0
M  V30 3 N -2.467037 -2.587438 1.706187 0
M  V30 4 C -2.631653 -4.022576 1.700153 0
M  V30 5 C -2.179092 -4.758047 2.777929 0
M  V30 6 C -2.383710 -6.131149 2.677359 0
M  V30 7 C -3.000062 -6.657556 1.555980 0
M  V30 8 N -3.422323 -5.892570 0.532504 0
M  V30 9 C -3.248092 -4.538690 0.576263 0
M  V30 10 Cl -3.785573 -3.513672 -0.738090 0
M  V30 11 C -0.665289 -0.941725 0.922979 0
M  V30 12 C -1.310665 0.215139 1.308949 0
M  V30 13 C -0.701692 1.435182 1.084335 0
M  V30 14 C 0.554264 1.506391 0.473450 0
M  V30 15 C 1.125177 2.744112 0.268547 0
M  V30 16 Cl 0.302943 4.214012 0.760048 0
M  V30 17 C 2.369264 2.796876 -0.337639 0
M  V30 18 C 2.995168 1.622945 -0.715103 0
M  V30 19 N 2.377298 0.438584 -0.483976 0
M  V30 20 C 1.169946 0.330213 0.100858 0
M  V30 21 C 0.579514 -0.901749 0.315670 0
M  V30 22 C 4.311463 1.944646 -1.340425 0
M  V30 23 C 4.631023 3.249822 -0.621395 0
M  V30 24 C 3.272057 3.940219 -0.710790 0
M  V30 25 H -3.048241 -1.761468 2.040777 0
M  V30 26 H -1.706206 -4.274030 3.620111 0
M  V30 27 H -2.048642 -6.765431 3.495670 0
M  V30 28 H -3.151992 -7.727592 1.492747 0
M  V30 29 H -2.279360 0.109680 1.777061 0
M  V30 30 H -1.240356 2.316597 1.401406 0
M  V30 31 H 1.145657 -1.775891 -0.014417 0
M  V30 32 H 4.212066 2.187115 -2.412624 0
M  V30 33 H 5.067870 1.165730 -1.130129 0
M  V30 34 H 4.860591 2.999449 0.450149 0
M  V30 35 H 5.435691 3.804175 -1.107791 0
M  V30 36 H 3.099968 4.144274 -1.787182 0
M  V30 37 H 3.176537 4.802738 -0.052811 0
M  V30 END ATOM
M  V30 BEGIN BOND
M  V30 1 2 1 2
M  V30 2 1 2 3
M  V30 3 1 3 4
M  V30 4 2 4 5
M  V30 5 1 5 6
M  V30 6 2 6 7
M  V30 7 1 7 8
M  V30 8 2 8 9
M  V30 9 1 9 10
M  V30 10 1 2 11
M  V30 11 2 11 12
M  V30 12 1 12 13
M  V30 13 2 13 14
M  V30 14 1 14 15
M  V30 15 1 15 16
M  V30 16 2 15 17
M  V30 17 1 17 18
M  V30 18 2 18 19
M  V30 19 1 19 20
M  V30 20 2 20 21
M  V30 21 1 18 22
M  V30 22 1 22 23
M  V30 23 1 23 24
M  V30 24 1 9 4
M  V30 25 1 21 11
M  V30 26 1 20 14
M  V30 27 1 24 17
M  V30 28 1 3 25
M  V30 29 1 5 26
M  V30 30 1 6 27
M  V30 31 1 7 28
M  V30 32 1 12 29
M  V30 33 1 13 30
M  V30 34 1 21 31
M  V30 35 1 22 32
M  V30 36 1 22 33
M  V30 37 1 23 34
M  V30 38 1 23 35
M  V30 39 1 24 36
M  V30 40 1 24 37
M  V30 END BOND
M  V30 END CTAB
M  END
>  <Dataset>  (945) 
ChEMBL_Kinases

>  <Ligand_Instance>  (945) 
nan

>  <PDB_ID>  (945) 
nan

>  <Standardized_SMILES>  (945) 
O=C(Nc1cccnc1Cl)c1ccc2c(Cl)c3c(nc2c1)CCC3

>  <Name>  (945) 
nan

>  <Pocket>  (945) 
nan

>  <ATP_Site>  (945) 
nan

>  <Peripheral>  (945) 
nan

>  <Num_H_Atoms_ProtBoundConf>  (945) 
nan

>  <Num_Resolved_Atoms>  (945) 
nan

>  <Num_Not_Resolved_Atoms>  (945) 
nan

$$$$
CHEMBL1384763
     RDKit          3D

  0  0  0  0  0  0  0  0  0  0999 V3000
M  V30 BEGIN CTAB
M  V30 COUNTS 35 38 0 0 0
M  V30 BEGIN ATOM
M  V30 1 C -1.969745 -1.756866 3.931131 0
M  V30 2 C -1.328181 -1.043539 2.769915 0
M  V30 3 N -0.749696 -1.793025 1.822393 0
M  V30 4 C -0.143842 -1.253091 0.735360 0
M  V30 5 N 0.419259 -2.190736 -0.172719 0
M  V30 6 C 0.366117 -3.651525 0.031761 0
M  V30 7 C 1.422447 -4.296933 -0.847186 0
M  V30 8 O 2.599305 -3.607597 -0.881227 0
M  V30 9 C 2.543444 -2.281006 -1.208095 0
M  V30 10 C 1.112715 -1.867137 -1.403845 0
M  V30 11 C -0.155413 0.117071 0.657478 0
M  V30 12 O 0.362031 0.847039 -0.290068 0
M  V30 13 C 0.152972 2.116776 -0.018972 0
M  V30 14 C 0.465333 3.304917 -0.644336 0
M  V30 15 C 0.068907 4.504260 -0.043975 0
M  V30 16 C -0.622549 4.555601 1.148892 0
M  V30 17 C -0.949455 3.367649 1.799413 0
M  V30 18 C -0.547905 2.176654 1.189591 0
M  V30 19 C -0.756535 0.872082 1.643780 0
M  V30 20 N -1.351077 0.302009 2.713383 0
M  V30 21 H -1.255648 -2.468339 4.390539 0
M  V30 22 H -2.822007 -2.373539 3.578294 0
M  V30 23 H -2.349017 -1.054137 4.678858 0
M  V30 24 H 0.610048 -3.908009 1.073558 0
M  V30 25 H -0.598801 -4.080429 -0.279087 0
M  V30 26 H 1.020260 -4.580207 -1.857873 0
M  V30 27 H 1.649009 -5.286504 -0.376361 0
M  V30 28 H 3.190343 -2.006318 -2.066989 0
M  V30 29 H 2.931322 -1.705297 -0.330770 0
M  V30 30 H 0.983737 -0.847721 -1.763063 0
M  V30 31 H 0.716079 -2.523283 -2.222653 0
M  V30 32 H 1.006595 3.301584 -1.580697 0
M  V30 33 H 0.300254 5.455562 -0.512183 0
M  V30 34 H -0.938409 5.449877 1.631637 0
M  V30 35 H -1.487734 3.332705 2.733406 0
M  V30 END ATOM
M  V30 BEGIN BOND
M  V30 1 1 1 2
M  V30 2 2 2 3
M  V30 3 1 3 4
M  V30 4 1 4 5
M  V30 5 1 5 6
M  V30 6 1 6 7
M  V30 7 1 7 8
M  V30 8 1 8 9
M  V30 9 1 9 10
M  V30 10 2 4 11
M  V30 11 1 11 12
M  V30 12 1 12 13
M  V30 13 2 13 14
M  V30 14 1 14 15
M  V30 15 2 15 16
M  V30 16 1 16 17
M  V30 17 2 17 18
M  V30 18 1 18 19
M  V30 19 2 19 20
M  V30 20 1 20 2
M  V30 21 1 10 5
M  V30 22 1 19 11
M  V30 23 1 18 13
M  V30 24 1 1 21
M  V30 25 1 1 22
M  V30 26 1 1 23
M  V30 27 1 6 24
M  V30 28 1 6 25
M  V30 29 1 7 26
M  V30 30 1 7 27
M  V30 31 1 9 28
M  V30 32 1 9 29
M  V30 33 1 10 30
M  V30 34 1 10 31
M  V30 35 1 14 32
M  V30 36 1 15 33
M  V30 37 1 16 34
M  V30 38 1 17 35
M  V30 END BOND
M  V30 END CTAB
M  END
>  <Dataset>  (946) 
ChEMBL_Kinases

>  <Ligand_Instance>  (946) 
nan

>  <PDB_ID>  (946) 
nan

>  <Standardized_SMILES>  (946) 
Cc1nc(N2CCOCC2)c2oc3ccccc3c2n1

>  <Name>  (946) 
nan

>  <Pocket>  (946) 
nan

>  <ATP_Site>  (946) 
nan

>  <Peripheral>  (946) 
nan

>  <Num_H_Atoms_ProtBoundConf>  (946) 
nan

>  <Num_Resolved_Atoms>  (946) 
nan

>  <Num_Not_Resolved_Atoms>  (946) 
nan

$$$$
CHEMBL1384748
     RDKit          3D

  0  0  0  0  0  0  0  0  0  0999 V3000
M  V30 BEGIN CTAB
M  V30 COUNTS 41 44 0 0 0
M  V30 BEGIN ATOM
M  V30 1 O 2.022315 -0.113293 1.318018 0
M  V30 2 C 0.987148 -0.740356 1.675934 0
M  V30 3 N 0.887942 -1.996246 0.952122 0
M  V30 4 C 2.015524 -2.058116 0.090012 0
M  V30 5 C 3.082277 -2.596536 0.771422 0
M  V30 6 C 4.324414 -2.755218 0.150990 0
M  V30 7 C 4.394107 -2.340763 -1.162459 0
M  V30 8 C 3.295928 -1.808729 -1.798941 0
M  V30 9 Cl 3.604564 -1.365079 -3.449802 0
M  V30 10 C 2.069941 -1.643072 -1.215008 0
M  V30 11 N 0.925450 -1.132836 -1.871114 0
M  V30 12 C -0.459947 -0.947857 -1.519785 0
M  V30 13 C -0.853532 0.486027 -1.781878 0
M  V30 14 C 0.193694 0.874310 -2.789669 0
M  V30 15 C 0.650703 -0.555758 -3.163916 0
M  V30 16 C -0.062066 -0.391703 2.662686 0
M  V30 17 C -1.201236 -0.950123 3.140055 0
M  V30 18 C -1.706517 -0.063056 4.071170 0
M  V30 19 C -2.857492 -0.197029 4.826235 0
M  V30 20 C -3.125806 0.856576 5.689986 0
M  V30 21 C -2.281792 1.955410 5.770616 0
M  V30 22 C -1.134006 2.036263 4.984202 0
M  V30 23 C -0.832442 1.006163 4.111087 0
M  V30 24 O 0.129716 0.779093 3.264943 0
M  V30 25 H 0.103144 -2.667299 1.108450 0
M  V30 26 H 3.083156 -2.937377 1.799732 0
M  V30 27 H 5.179027 -3.172171 0.653637 0
M  V30 28 H 5.359899 -2.466774 -1.635922 0
M  V30 29 H -0.723636 -1.161076 -0.497410 0
M  V30 30 H -1.101859 -1.540491 -2.248298 0
M  V30 31 H -1.842365 0.609838 -2.240075 0
M  V30 32 H -0.814523 1.091533 -0.866367 0
M  V30 33 H -0.184372 1.361479 -3.685735 0
M  V30 34 H 1.010958 1.373248 -2.257820 0
M  V30 35 H 1.486152 -0.380008 -3.819780 0
M  V30 36 H -0.179374 -1.058054 -3.716969 0
M  V30 37 H -1.499683 -1.896615 2.757834 0
M  V30 38 H -3.479949 -1.055532 4.736263 0
M  V30 39 H -4.015513 0.818536 6.315192 0
M  V30 40 H -2.467697 2.794777 6.438407 0
M  V30 41 H -0.429417 2.851864 4.987035 0
M  V30 END ATOM
M  V30 BEGIN BOND
M  V30 1 2 1 2
M  V30 2 1 2 3
M  V30 3 1 3 4
M  V30 4 2 4 5
M  V30 5 1 5 6
M  V30 6 2 6 7
M  V30 7 1 7 8
M  V30 8 1 8 9
M  V30 9 2 8 10
M  V30 10 1 10 11
M  V30 11 1 11 12
M  V30 12 1 12 13
M  V30 13 1 13 14
M  V30 14 1 14 15
M  V30 15 1 2 16
M  V30 16 2 16 17
M  V30 17 1 17 18
M  V30 18 2 18 19
M  V30 19 1 19 20
M  V30 20 2 20 21
M  V30 21 1 21 22
M  V30 22 2 22 23
M  V30 23 1 23 24
M  V30 24 1 10 4
M  V30 25 1 15 11
M  V30 26 1 24 16
M  V30 27 1 23 18
M  V30 28 1 3 25
M  V30 29 1 5 26
M  V30 30 1 6 27
M  V30 31 1 7 28
M  V30 32 1 12 29
M  V30 33 1 12 30
M  V30 34 1 13 31
M  V30 35 1 13 32
M  V30 36 1 14 33
M  V30 37 1 14 34
M  V30 38 1 15 35
M  V30 39 1 15 36
M  V30 40 1 17 37
M  V30 41 1 19 38
M  V30 42 1 20 39
M  V30 43 1 21 40
M  V30 44 1 22 41
M  V30 END BOND
M  V30 END CTAB
M  END
>  <Dataset>  (947) 
ChEMBL_Kinases

>  <Ligand_Instance>  (947) 
nan

>  <PDB_ID>  (947) 
nan

>  <Standardized_SMILES>  (947) 
O=C(Nc1cccc(Cl)c1N1CCCC1)c1cc2ccccc2o1

>  <Name>  (947) 
nan

>  <Pocket>  (947) 
nan

>  <ATP_Site>  (947) 
nan

>  <Peripheral>  (947) 
nan

>  <Num_H_Atoms_ProtBoundConf>  (947) 
nan

>  <Num_Resolved_Atoms>  (947) 
nan

>  <Num_Not_Resolved_Atoms>  (947) 
nan

$$$$
CHEMBL1384729
     RDKit          3D

  0  0  0  0  0  0  0  0  0  0999 V3000
M  V30 BEGIN CTAB
M  V30 COUNTS 46 48 0 0 0
M  V30 BEGIN ATOM
M  V30 1 C 2.584013 -4.258197 0.925052 0
M  V30 2 O 1.265961 -4.288301 1.438025 0
M  V30 3 C 0.483016 -3.153721 1.276259 0
M  V30 4 C 0.956797 -2.017146 0.636194 0
M  V30 5 C 0.093766 -0.946349 0.530672 0
M  V30 6 C 0.518033 0.300214 -0.135080 0
M  V30 7 C 0.303323 0.424913 -1.493430 0
M  V30 8 C -0.305027 -0.584122 -2.285476 0
M  V30 9 N -0.798573 -1.416980 -2.916378 0
M  V30 10 C 0.689506 1.578791 -2.142478 0
M  V30 11 N 0.514597 1.811368 -3.542917 0
M  V30 12 N 1.266598 2.546518 -1.414849 0
M  V30 13 C 1.489479 2.455619 -0.091297 0
M  V30 14 C 1.122112 1.322778 0.605063 0
M  V30 15 C 1.293421 1.058853 2.057650 0
M  V30 16 C 1.794843 2.292409 2.737259 0
M  V30 17 C 1.512222 3.573174 2.021421 0
M  V30 18 C 2.141282 3.592771 0.631509 0
M  V30 19 C -1.194169 -0.963162 1.026825 0
M  V30 20 C -1.673977 -2.090942 1.665623 0
M  V30 21 O -2.947681 -2.172040 2.182391 0
M  V30 22 C -3.781046 -1.035467 2.038979 0
M  V30 23 C -0.817634 -3.164595 1.774841 0
M  V30 24 O -1.297307 -4.308574 2.420142 0
M  V30 25 C -1.937643 -5.286830 1.626764 0
M  V30 26 H 3.069409 -5.265313 1.048615 0
M  V30 27 H 2.642960 -4.005783 -0.141989 0
M  V30 28 H 3.234943 -3.560360 1.524560 0
M  V30 29 H 1.945261 -1.984568 0.247438 0
M  V30 30 H -0.241008 1.388689 -4.151030 0
M  V30 31 H 1.171171 2.447869 -4.040895 0
M  V30 32 H 0.396202 0.609613 2.516849 0
M  V30 33 H 2.104074 0.274216 2.108934 0
M  V30 34 H 2.900644 2.224473 2.913383 0
M  V30 35 H 1.252415 2.352838 3.713464 0
M  V30 36 H 0.399279 3.594103 1.834414 0
M  V30 37 H 1.870028 4.398885 2.635890 0
M  V30 38 H 1.866335 4.569930 0.186588 0
M  V30 39 H 3.234558 3.518644 0.647025 0
M  V30 40 H -1.834947 -0.099570 0.920728 0
M  V30 41 H -4.735868 -1.222294 2.564584 0
M  V30 42 H -3.938431 -0.770673 0.967409 0
M  V30 43 H -3.334479 -0.136734 2.512701 0
M  V30 44 H -2.366572 -4.826153 0.696819 0
M  V30 45 H -2.777089 -5.695351 2.218815 0
M  V30 46 H -1.246501 -6.129911 1.390835 0
M  V30 END ATOM
M  V30 BEGIN BOND
M  V30 1 1 1 2
M  V30 2 1 2 3
M  V30 3 2 3 4
M  V30 4 1 4 5
M  V30 5 1 5 6
M  V30 6 2 6 7
M  V30 7 1 7 8
M  V30 8 3 8 9
M  V30 9 1 7 10
M  V30 10 1 10 11
M  V30 11 2 10 12
M  V30 12 1 12 13
M  V30 13 2 13 14
M  V30 14 1 14 15
M  V30 15 1 15 16
M  V30 16 1 16 17
M  V30 17 1 17 18
M  V30 18 2 5 19
M  V30 19 1 19 20
M  V30 20 1 20 21
M  V30 21 1 21 22
M  V30 22 2 20 23
M  V30 23 1 23 24
M  V30 24 1 24 25
M  V30 25 1 23 3
M  V30 26 1 14 6
M  V30 27 1 18 13
M  V30 28 1 1 26
M  V30 29 1 1 27
M  V30 30 1 1 28
M  V30 31 1 4 29
M  V30 32 1 11 30
M  V30 33 1 11 31
M  V30 34 1 15 32
M  V30 35 1 15 33
M  V30 36 1 16 34
M  V30 37 1 16 35
M  V30 38 1 17 36
M  V30 39 1 17 37
M  V30 40 1 18 38
M  V30 41 1 18 39
M  V30 42 1 19 40
M  V30 43 1 22 41
M  V30 44 1 22 42
M  V30 45 1 22 43
M  V30 46 1 25 44
M  V30 47 1 25 45
M  V30 48 1 25 46
M  V30 END BOND
M  V30 END CTAB
M  END
>  <Dataset>  (948) 
ChEMBL_Kinases

>  <Ligand_Instance>  (948) 
nan

>  <PDB_ID>  (948) 
nan

>  <Standardized_SMILES>  (948) 
COc1cc(-c2c(C#N)c(N)nc3c2CCCC3)cc(OC)c1OC

>  <Name>  (948) 
nan

>  <Pocket>  (948) 
nan

>  <ATP_Site>  (948) 
nan

>  <Peripheral>  (948) 
nan

>  <Num_H_Atoms_ProtBoundConf>  (948) 
nan

>  <Num_Resolved_Atoms>  (948) 
nan

>  <Num_Not_Resolved_Atoms>  (948) 
nan

$$$$
CHEMBL1384715
     RDKit          3D

  0  0  0  0  0  0  0  0  0  0999 V3000
M  V30 BEGIN CTAB
M  V30 COUNTS 38 41 0 0 0
M  V30 BEGIN ATOM
M  V30 1 C 1.043458 -3.867388 -0.992683 0
M  V30 2 C 1.109952 -3.391394 0.410260 0
M  V30 3 N 2.004635 -3.805274 1.324428 0
M  V30 4 N 1.757537 -3.163152 2.476093 0
M  V30 5 C 0.688935 -2.339787 2.258940 0
M  V30 6 C 0.248241 -2.462362 0.939928 0
M  V30 7 C -0.887932 -1.635545 0.588978 0
M  V30 8 C -0.778449 -0.813561 -0.623452 0
M  V30 9 C -1.401642 -1.042093 -1.858262 0
M  V30 10 N -1.097408 -0.094727 -2.755544 0
M  V30 11 N -0.298951 0.748427 -2.161727 0
M  V30 12 C -0.086564 0.347102 -0.881236 0
M  V30 13 C 0.748931 1.129777 -0.009190 0
M  V30 14 C 0.473046 2.507634 0.015806 0
M  V30 15 C 1.148402 3.448510 0.764184 0
M  V30 16 C 2.185075 3.010887 1.559880 0
M  V30 17 F 2.875386 3.900441 2.312238 0
M  V30 18 C 2.512273 1.671932 1.585269 0
M  V30 19 C 1.797315 0.785519 0.813199 0
M  V30 20 C -1.339675 -0.809018 1.765400 0
M  V30 21 C -2.479593 0.042611 1.464092 0
M  V30 22 N -3.407541 0.724569 1.233266 0
M  V30 23 C -0.885480 -0.728229 3.000318 0
M  V30 24 N -1.458719 0.129079 3.985941 0
M  V30 25 O 0.200901 -1.541682 3.283251 0
M  V30 26 H 0.285489 -3.351469 -1.570991 0
M  V30 27 H 2.065042 -3.858287 -1.451805 0
M  V30 28 H 0.762799 -4.963196 -1.023502 0
M  V30 29 H 2.362851 -3.371566 3.284519 0
M  V30 30 H -1.759405 -2.342376 0.429414 0
M  V30 31 H -2.063888 -1.888899 -2.088105 0
M  V30 32 H -1.451967 -0.066412 -3.741266 0
M  V30 33 H -0.335323 2.917772 -0.590292 0
M  V30 34 H 0.880878 4.493528 0.733610 0
M  V30 35 H 3.314470 1.269056 2.188672 0
M  V30 36 H 2.038595 -0.253704 0.808377 0
M  V30 37 H -1.688218 1.095450 3.656459 0
M  V30 38 H -1.608737 -0.253307 4.947710 0
M  V30 END ATOM
M  V30 BEGIN BOND
M  V30 1 1 1 2
M  V30 2 2 2 3
M  V30 3 1 3 4
M  V30 4 1 4 5
M  V30 5 2 5 6
M  V30 6 1 6 7
M  V30 7 1 7 8
M  V30 8 2 8 9
M  V30 9 1 9 10
M  V30 10 1 10 11
M  V30 11 2 11 12
M  V30 12 1 12 13
M  V30 13 2 13 14
M  V30 14 1 14 15
M  V30 15 2 15 16
M  V30 16 1 16 17
M  V30 17 1 16 18
M  V30 18 2 18 19
M  V30 19 1 7 20
M  V30 20 1 20 21
M  V30 21 3 21 22
M  V30 22 2 20 23
M  V30 23 1 23 24
M  V30 24 1 23 25
M  V30 25 1 6 2
M  V30 26 1 12 8
M  V30 27 1 19 13
M  V30 28 1 25 5
M  V30 29 1 1 26
M  V30 30 1 1 27
M  V30 31 1 1 28
M  V30 32 1 4 29
M  V30 33 1 7 30
M  V30 34 1 9 31
M  V30 35 1 10 32
M  V30 36 1 14 33
M  V30 37 1 15 34
M  V30 38 1 18 35
M  V30 39 1 19 36
M  V30 40 1 24 37
M  V30 41 1 24 38
M  V30 END BOND
M  V30 END CTAB
M  END
>  <Dataset>  (949) 
ChEMBL_Kinases

>  <Ligand_Instance>  (949) 
nan

>  <PDB_ID>  (949) 
nan

>  <Standardized_SMILES>  (949) 
Cc1n[nH]c2c1C(c1c[nH]nc1-c1ccc(F)cc1)C(C#N)=C(N)O2

>  <Name>  (949) 
nan

>  <Pocket>  (949) 
nan

>  <ATP_Site>  (949) 
nan

>  <Peripheral>  (949) 
nan

>  <Num_H_Atoms_ProtBoundConf>  (949) 
nan

>  <Num_Resolved_Atoms>  (949) 
nan

>  <Num_Not_Resolved_Atoms>  (949) 
nan

$$$$
CHEMBL1384680
     RDKit          3D

  0  0  0  0  0  0  0  0  0  0999 V3000
M  V30 BEGIN CTAB
M  V30 COUNTS 47 49 0 0 0
M  V30 BEGIN ATOM
M  V30 1 C -0.430781 -0.855604 3.246356 0
M  V30 2 C -0.848691 -1.649902 2.279694 0
M  V30 3 C -1.265902 -2.255434 1.018354 0
M  V30 4 N -1.206215 -1.372152 -0.136989 0
M  V30 5 C -0.171182 -1.106863 -0.981003 0
M  V30 6 C 1.116021 -1.761871 -0.613169 0
M  V30 7 O 1.851661 -0.900842 0.233676 0
M  V30 8 C 2.371312 0.313555 -0.203442 0
M  V30 9 C 2.248808 0.718198 -1.505034 0
M  V30 10 C 2.740376 1.906945 -2.026888 0
M  V30 11 C 3.396526 2.711587 -1.125587 0
M  V30 12 C 3.563040 2.370653 0.215644 0
M  V30 13 C 4.229534 3.269009 1.009708 0
M  V30 14 C 4.378745 2.924704 2.336385 0
M  V30 15 C 3.867098 1.713291 2.826485 0
M  V30 16 C 4.059944 1.400146 4.268034 0
M  V30 17 N 3.210248 0.857428 1.981785 0
M  V30 18 C 3.049195 1.170868 0.674863 0
M  V30 19 N -0.775613 -0.289402 -1.834087 0
M  V30 20 N -2.014205 -0.049306 -1.591061 0
M  V30 21 C -2.338244 -0.750008 -0.464004 0
M  V30 22 S -3.998564 -0.564184 0.108308 0
M  V30 23 C -5.153770 -1.780946 -0.523713 0
M  V30 24 C -4.853595 -3.145089 0.031389 0
M  V30 25 O -4.266279 -4.022413 -0.655361 0
M  V30 26 O -5.299213 -3.269590 1.341346 0
M  V30 27 C -5.120162 -4.458097 2.062291 0
M  V30 28 H -0.172890 -0.649510 4.290462 0
M  V30 29 H -0.136820 0.178859 3.165957 0
M  V30 30 H -0.945745 -2.458985 3.027624 0
M  V30 31 H -0.653933 -3.163028 0.779816 0
M  V30 32 H -2.299891 -2.684436 1.158803 0
M  V30 33 H 1.031680 -2.736930 -0.146780 0
M  V30 34 H 1.766228 -1.883445 -1.526128 0
M  V30 35 H 1.777650 0.132782 -2.277717 0
M  V30 36 H 2.653688 2.233456 -3.047235 0
M  V30 37 H 3.808715 3.663476 -1.491081 0
M  V30 38 H 4.609053 4.189414 0.606938 0
M  V30 39 H 4.912413 3.657776 2.939811 0
M  V30 40 H 3.053636 1.336977 4.707882 0
M  V30 41 H 4.590694 2.287300 4.720244 0
M  V30 42 H 4.658547 0.487190 4.392719 0
M  V30 43 H -5.180413 -1.828151 -1.634666 0
M  V30 44 H -6.184055 -1.522854 -0.221543 0
M  V30 45 H -5.077346 -5.298522 1.327762 0
M  V30 46 H -5.879734 -4.597442 2.863382 0
M  V30 47 H -4.081487 -4.412876 2.511365 0
M  V30 END ATOM
M  V30 BEGIN BOND
M  V30 1 2 1 2
M  V30 2 1 2 3
M  V30 3 1 3 4
M  V30 4 1 4 5
M  V30 5 1 5 6
M  V30 6 1 6 7
M  V30 7 1 7 8
M  V30 8 2 8 9
M  V30 9 1 9 10
M  V30 10 2 10 11
M  V30 11 1 11 12
M  V30 12 2 12 13
M  V30 13 1 13 14
M  V30 14 2 14 15
M  V30 15 1 15 16
M  V30 16 1 15 17
M  V30 17 2 17 18
M  V30 18 2 5 19
M  V30 19 1 19 20
M  V30 20 2 20 21
M  V30 21 1 21 22
M  V30 22 1 22 23
M  V30 23 1 23 24
M  V30 24 2 24 25
M  V30 25 1 24 26
M  V30 26 1 26 27
M  V30 27 1 21 4
M  V30 28 1 18 8
M  V30 29 1 18 12
M  V30 30 1 1 28
M  V30 31 1 1 29
M  V30 32 1 2 30
M  V30 33 1 3 31
M  V30 34 1 3 32
M  V30 35 1 6 33
M  V30 36 1 6 34
M  V30 37 1 9 35
M  V30 38 1 10 36
M  V30 39 1 11 37
M  V30 40 1 13 38
M  V30 41 1 14 39
M  V30 42 1 16 40
M  V30 43 1 16 41
M  V30 44 1 16 42
M  V30 45 1 23 43
M  V30 46 1 23 44
M  V30 47 1 27 45
M  V30 48 1 27 46
M  V30 49 1 27 47
M  V30 END BOND
M  V30 END CTAB
M  END
>  <Dataset>  (950) 
ChEMBL_Kinases

>  <Ligand_Instance>  (950) 
nan

>  <PDB_ID>  (950) 
nan

>  <Standardized_SMILES>  (950) 
C=CCn1c(COc2cccc3ccc(C)nc23)nnc1SCC(=O)OC

>  <Name>  (950) 
nan

>  <Pocket>  (950) 
nan

>  <ATP_Site>  (950) 
nan

>  <Peripheral>  (950) 
nan

>  <Num_H_Atoms_ProtBoundConf>  (950) 
nan

>  <Num_Resolved_Atoms>  (950) 
nan

>  <Num_Not_Resolved_Atoms>  (950) 
nan

$$$$
CHEMBL1384652
     RDKit          3D

  0  0  0  0  0  0  0  0  0  0999 V3000
M  V30 BEGIN CTAB
M  V30 COUNTS 55 57 0 0 0
M  V30 BEGIN ATOM
M  V30 1 C 1.848755 -0.306582 5.053297 0
M  V30 2 C 2.467913 -0.663248 3.714637 0
M  V30 3 C 2.751258 -2.144696 3.643678 0
M  V30 4 C 3.365488 -2.537248 2.331832 0
M  V30 5 N 2.537523 -2.238300 1.202640 0
M  V30 6 C 2.430698 -1.155550 0.401141 0
M  V30 7 S 3.412008 0.287471 0.598708 0
M  V30 8 C 3.106641 1.601406 -0.567274 0
M  V30 9 C 1.780623 2.239962 -0.469587 0
M  V30 10 O 1.624588 3.225855 0.298042 0
M  V30 11 N 0.693295 1.738780 -1.240311 0
M  V30 12 C -0.662661 2.198193 -1.300238 0
M  V30 13 N -1.277897 3.001422 -1.968918 0
M  V30 14 N -2.542522 3.240155 -1.819925 0
M  V30 15 C -3.267129 2.765077 -1.074616 0
M  V30 16 C -4.713883 2.819509 -0.668538 0
M  V30 17 C -5.147474 4.205453 -0.343713 0
M  V30 18 C -5.596609 2.323521 -1.821451 0
M  V30 19 S -2.078547 1.582751 -0.181430 0
M  V30 20 N 1.477820 -1.397035 -0.524852 0
M  V30 21 C 0.944219 -2.625621 -0.356243 0
M  V30 22 C 1.625979 -3.128415 0.731030 0
M  V30 23 C 1.244762 -4.417424 1.110705 0
M  V30 24 O 1.788900 -4.976528 2.077811 0
M  V30 25 N 0.294157 -5.119609 0.477387 0
M  V30 26 C -0.077459 -6.458564 0.899445 0
M  V30 27 C -0.337537 -4.588708 -0.570944 0
M  V30 28 O -1.231921 -5.237935 -1.173927 0
M  V30 29 N -0.010561 -3.333930 -0.990429 0
M  V30 30 C -0.671290 -2.709149 -2.130511 0
M  V30 31 H 2.223028 -0.926106 5.874331 0
M  V30 32 H 0.734777 -0.380373 4.990422 0
M  V30 33 H 2.078475 0.763497 5.234421 0
M  V30 34 H 3.361750 -0.052040 3.574459 0
M  V30 35 H 1.706116 -0.428169 2.956417 0
M  V30 36 H 1.846764 -2.735711 3.874112 0
M  V30 37 H 3.461228 -2.354800 4.472294 0
M  V30 38 H 3.654166 -3.606255 2.374260 0
M  V30 39 H 4.351211 -1.989790 2.261379 0
M  V30 40 H 3.891788 2.375226 -0.407335 0
M  V30 41 H 3.314276 1.219355 -1.603201 0
M  V30 42 H 0.757541 0.934280 -1.889045 0
M  V30 43 H -4.906599 2.097531 0.160897 0
M  V30 44 H -4.430366 4.950394 -0.739517 0
M  V30 45 H -5.172507 4.298039 0.781525 0
M  V30 46 H -6.206577 4.415299 -0.661307 0
M  V30 47 H -6.631377 2.313535 -1.453542 0
M  V30 48 H -5.418775 2.874938 -2.752338 0
M  V30 49 H -5.246504 1.267890 -2.018960 0
M  V30 50 H 0.459784 -7.226929 0.323099 0
M  V30 51 H -1.172730 -6.607544 0.742791 0
M  V30 52 H 0.169164 -6.551562 1.973118 0
M  V30 53 H -1.435387 -3.443445 -2.511610 0
M  V30 54 H 0.024522 -2.527108 -2.963157 0
M  V30 55 H -1.247824 -1.812099 -1.823713 0
M  V30 END ATOM
M  V30 BEGIN BOND
M  V30 1 1 1 2
M  V30 2 1 2 3
M  V30 3 1 3 4
M  V30 4 1 4 5
M  V30 5 1 5 6
M  V30 6 1 6 7
M  V30 7 1 7 8
M  V30 8 1 8 9
M  V30 9 2 9 10
M  V30 10 1 9 11
M  V30 11 1 11 12
M  V30 12 2 12 13
M  V30 13 1 13 14
M  V30 14 2 14 15
M  V30 15 1 15 16
M  V30 16 1 16 17
M  V30 17 1 16 18
M  V30 18 1 15 19
M  V30 19 2 6 20
M  V30 20 1 20 21
M  V30 21 2 21 22
M  V30 22 1 22 23
M  V30 23 2 23 24
M  V30 24 1 23 25
M  V30 25 1 25 26
M  V30 26 1 25 27
M  V30 27 2 27 28
M  V30 28 1 27 29
M  V30 29 1 29 30
M  V30 30 1 22 5
M  V30 31 1 19 12
M  V30 32 1 29 21
M  V30 33 1 1 31
M  V30 34 1 1 32
M  V30 35 1 1 33
M  V30 36 1 2 34
M  V30 37 1 2 35
M  V30 38 1 3 36
M  V30 39 1 3 37
M  V30 40 1 4 38
M  V30 41 1 4 39
M  V30 42 1 8 40
M  V30 43 1 8 41
M  V30 44 1 11 42
M  V30 45 1 16 43
M  V30 46 1 17 44
M  V30 47 1 17 45
M  V30 48 1 17 46
M  V30 49 1 18 47
M  V30 50 1 18 48
M  V30 51 1 18 49
M  V30 52 1 26 50
M  V30 53 1 26 51
M  V30 54 1 26 52
M  V30 55 1 30 53
M  V30 56 1 30 54
M  V30 57 1 30 55
M  V30 END BOND
M  V30 END CTAB
M  END
>  <Dataset>  (951) 
ChEMBL_Kinases

>  <Ligand_Instance>  (951) 
nan

>  <PDB_ID>  (951) 
nan

>  <Standardized_SMILES>  (951) 
CCCCn1c(SCC(=O)Nc2nnc(C(C)C)s2)nc2c1c(=O)n(C)c(=O)n2C

>  <Name>  (951) 
nan

>  <Pocket>  (951) 
nan

>  <ATP_Site>  (951) 
nan

>  <Peripheral>  (951) 
nan

>  <Num_H_Atoms_ProtBoundConf>  (951) 
nan

>  <Num_Resolved_Atoms>  (951) 
nan

>  <Num_Not_Resolved_Atoms>  (951) 
nan

$$$$
CHEMBL1384433
     RDKit          3D

  0  0  0  0  0  0  0  0  0  0999 V3000
M  V30 BEGIN CTAB
M  V30 COUNTS 24 25 0 0 0
M  V30 BEGIN ATOM
M  V30 1 C 0.663086 0.671499 3.196166 0
M  V30 2 C 0.667797 0.764707 1.716071 0
M  V30 3 C 0.540701 -0.576867 1.061596 0
M  V30 4 C 1.667957 -1.334764 0.742675 0
M  V30 5 C 1.551529 -2.574303 0.138115 0
M  V30 6 C 0.274912 -3.039538 -0.140980 0
M  V30 7 Cl 0.097748 -4.589719 -0.898366 0
M  V30 8 C -0.858246 -2.307137 0.165360 0
M  V30 9 C -0.723394 -1.075011 0.767115 0
M  V30 10 N -0.257283 1.676187 1.129362 0
M  V30 11 C 0.119073 2.072809 -0.150983 0
M  V30 12 O -0.576709 2.680338 -1.036107 0
M  V30 13 C 1.501348 1.764867 -0.573144 0
M  V30 14 S 2.242225 1.464276 1.080307 0
M  V30 15 H -0.075011 -0.111715 3.495717 0
M  V30 16 H 0.397686 1.616816 3.660866 0
M  V30 17 H 1.649769 0.272816 3.526953 0
M  V30 18 H 2.633612 -0.876482 1.005255 0
M  V30 19 H 2.451031 -3.133643 -0.094384 0
M  V30 20 H -1.861559 -2.650416 -0.043158 0
M  V30 21 H -1.598593 -0.474358 1.020708 0
M  V30 22 H -1.138947 2.035940 1.577657 0
M  V30 23 H 2.014611 2.545671 -1.129264 0
M  V30 24 H 1.468796 0.769774 -1.063525 0
M  V30 END ATOM
M  V30 BEGIN BOND
M  V30 1 1 1 2
M  V30 2 1 2 3
M  V30 3 2 3 4
M  V30 4 1 4 5
M  V30 5 2 5 6
M  V30 6 1 6 7
M  V30 7 1 6 8
M  V30 8 2 8 9
M  V30 9 1 2 10
M  V30 10 1 10 11
M  V30 11 2 11 12
M  V30 12 1 11 13
M  V30 13 1 13 14
M  V30 14 1 14 2
M  V30 15 1 9 3
M  V30 16 1 1 15
M  V30 17 1 1 16
M  V30 18 1 1 17
M  V30 19 1 4 18
M  V30 20 1 5 19
M  V30 21 1 8 20
M  V30 22 1 9 21
M  V30 23 1 10 22
M  V30 24 1 13 23
M  V30 25 1 13 24
M  V30 END BOND
M  V30 END CTAB
M  END
>  <Dataset>  (952) 
ChEMBL_Kinases

>  <Ligand_Instance>  (952) 
nan

>  <PDB_ID>  (952) 
nan

>  <Standardized_SMILES>  (952) 
CC1(c2ccc(Cl)cc2)NC(=O)CS1

>  <Name>  (952) 
nan

>  <Pocket>  (952) 
nan

>  <ATP_Site>  (952) 
nan

>  <Peripheral>  (952) 
nan

>  <Num_H_Atoms_ProtBoundConf>  (952) 
nan

>  <Num_Resolved_Atoms>  (952) 
nan

>  <Num_Not_Resolved_Atoms>  (952) 
nan

$$$$
CHEMBL1384400
     RDKit          3D

  0  0  0  0  0  0  0  0  0  0999 V3000
M  V30 BEGIN CTAB
M  V30 COUNTS 49 52 0 0 0
M  V30 BEGIN ATOM
M  V30 1 O 1.351377 -1.723865 0.887555 0
M  V30 2 C 0.155441 -2.137028 1.070028 0
M  V30 3 C 0.222454 -2.966439 -0.158114 0
M  V30 4 C 1.557652 -2.789264 -0.786420 0
M  V30 5 C 2.559094 -3.751949 -0.685161 0
M  V30 6 C 3.814172 -3.570712 -1.280545 0
M  V30 7 C 4.043148 -2.393193 -1.984797 0
M  V30 8 C 3.069774 -1.418784 -2.103371 0
M  V30 9 C 3.336918 -0.257509 -2.815445 0
M  V30 10 C 2.360085 0.699728 -2.924943 0
M  V30 11 C 1.105216 0.539580 -2.340792 0
M  V30 12 C 0.902356 -0.635567 -1.647069 0
M  V30 13 C 1.833415 -1.634250 -1.497669 0
M  V30 14 N -0.219493 -1.483906 2.245298 0
M  V30 15 C 0.738123 -0.614293 2.874650 0
M  V30 16 C 0.241217 0.786100 2.738113 0
M  V30 17 C -1.234166 0.952372 2.606139 0 CFG=1
M  V30 18 O -1.570057 2.119111 3.338987 0
M  V30 19 C -1.518917 1.292172 1.183597 0
M  V30 20 C -2.818450 0.768649 0.654580 0
M  V30 21 C -3.814145 0.887849 1.757424 0
M  V30 22 C -3.474543 -0.153209 2.795419 0
M  V30 23 C -2.041184 -0.149461 3.205788 0 CFG=1
M  V30 24 C -1.482167 -1.532467 2.984222 0
M  V30 25 H -0.611186 -2.640451 -0.820655 0
M  V30 26 H 0.011528 -4.036443 0.052992 0
M  V30 27 H 2.288427 -4.636425 -0.117030 0
M  V30 28 H 4.532318 -4.370687 -1.150992 0
M  V30 29 H 5.023096 -2.276705 -2.436536 0
M  V30 30 H 4.320798 -0.152929 -3.262667 0
M  V30 31 H 2.580397 1.596793 -3.481114 0
M  V30 32 H 0.377313 1.312541 -2.453407 0
M  V30 33 H -0.093249 -0.711473 -1.211100 0
M  V30 34 H 1.761069 -0.690503 2.454971 0
M  V30 35 H 0.781907 -0.848652 3.975574 0
M  V30 36 H 0.794248 1.242261 1.872000 0
M  V30 37 H 0.660334 1.366086 3.614443 0
M  V30 38 H -1.015212 2.203169 4.152675 0
M  V30 39 H -1.526326 2.405840 0.992898 0
M  V30 40 H -0.707300 0.936138 0.484288 0
M  V30 41 H -3.114977 1.356977 -0.235370 0
M  V30 42 H -2.672462 -0.262643 0.286992 0
M  V30 43 H -4.846882 0.795210 1.434388 0
M  V30 44 H -3.649298 1.894745 2.235957 0
M  V30 45 H -4.192035 -0.006236 3.640419 0
M  V30 46 H -3.779896 -1.144130 2.342913 0
M  V30 47 H -2.038858 0.009249 4.306633 0
M  V30 48 H -1.206999 -2.047136 3.939311 0
M  V30 49 H -2.201172 -2.235713 2.510541 0
M  V30 END ATOM
M  V30 BEGIN BOND
M  V30 1 2 1 2
M  V30 2 1 2 3
M  V30 3 1 3 4
M  V30 4 2 4 5
M  V30 5 1 5 6
M  V30 6 2 6 7
M  V30 7 1 7 8
M  V30 8 2 8 9
M  V30 9 1 9 10
M  V30 10 2 10 11
M  V30 11 1 11 12
M  V30 12 2 12 13
M  V30 13 1 2 14
M  V30 14 1 14 15
M  V30 15 1 15 16
M  V30 16 1 16 17
M  V30 17 1 17 18 CFG=1
M  V30 18 1 17 19
M  V30 19 1 19 20
M  V30 20 1 20 21
M  V30 21 1 21 22
M  V30 22 1 22 23
M  V30 23 1 23 24
M  V30 24 1 13 4
M  V30 25 1 24 14
M  V30 26 1 13 8
M  V30 27 1 23 17
M  V30 28 1 3 25
M  V30 29 1 3 26
M  V30 30 1 5 27
M  V30 31 1 6 28
M  V30 32 1 7 29
M  V30 33 1 9 30
M  V30 34 1 10 31
M  V30 35 1 11 32
M  V30 36 1 12 33
M  V30 37 1 15 34
M  V30 38 1 15 35
M  V30 39 1 16 36
M  V30 40 1 16 37
M  V30 41 1 18 38
M  V30 42 1 19 39
M  V30 43 1 19 40
M  V30 44 1 20 41
M  V30 45 1 20 42
M  V30 46 1 21 43
M  V30 47 1 21 44
M  V30 48 1 22 45
M  V30 49 1 22 46
M  V30 50 1 23 47 CFG=1
M  V30 51 1 24 48
M  V30 52 1 24 49
M  V30 END BOND
M  V30 END CTAB
M  END
>  <Dataset>  (953) 
ChEMBL_Kinases

>  <Ligand_Instance>  (953) 
nan

>  <PDB_ID>  (953) 
nan

>  <Standardized_SMILES>  (953) 
O=C(Cc1cccc2ccccc12)N1CC[C@@]2(O)CCCC[C@H]2C1

>  <Name>  (953) 
nan

>  <Pocket>  (953) 
nan

>  <ATP_Site>  (953) 
nan

>  <Peripheral>  (953) 
nan

>  <Num_H_Atoms_ProtBoundConf>  (953) 
nan

>  <Num_Resolved_Atoms>  (953) 
nan

>  <Num_Not_Resolved_Atoms>  (953) 
nan

$$$$
CHEMBL1384309
     RDKit          3D

  0  0  0  0  0  0  0  0  0  0999 V3000
M  V30 BEGIN CTAB
M  V30 COUNTS 41 43 0 0 0
M  V30 BEGIN ATOM
M  V30 1 O -0.128636 -3.755616 2.957596 0
M  V30 2 S 1.296068 -3.248093 2.903397 0
M  V30 3 O 2.126638 -4.307994 3.586376 0
M  V30 4 N 1.790012 -3.176330 1.271785 0
M  V30 5 C 1.318833 -2.358271 0.220279 0
M  V30 6 C -0.043946 -2.150988 -0.017825 0
M  V30 7 C -0.549166 -1.362700 -1.031697 0
M  V30 8 C 0.327808 -0.730498 -1.874530 0
M  V30 9 C -0.237709 0.111647 -2.957031 0
M  V30 10 C -0.393658 1.507107 -2.424172 0
M  V30 11 C 0.611530 2.472870 -2.518968 0
M  V30 12 C 0.374138 3.730030 -1.998587 0
M  V30 13 N -0.807988 4.024773 -1.407454 0
M  V30 14 C -1.786609 3.112304 -1.305853 0
M  V30 15 C -1.584994 1.839096 -1.816717 0
M  V30 16 C 1.684335 -0.889357 -1.699294 0
M  V30 17 C 2.154730 -1.684504 -0.675687 0
M  V30 18 N 1.511062 -1.813367 3.789497 0
M  V30 19 C 0.791985 -0.674958 3.325592 0
M  V30 20 C -0.553313 -0.867516 4.018517 0
M  V30 21 C -0.058393 -1.121886 5.433440 0
M  V30 22 C 1.131215 -2.033281 5.149373 0
M  V30 23 H 2.559953 -3.793766 0.873358 0
M  V30 24 H -0.722181 -2.664273 0.665685 0
M  V30 25 H -1.624815 -1.295006 -1.094813 0
M  V30 26 H -1.226311 -0.266866 -3.232480 0
M  V30 27 H 0.424635 0.116196 -3.858873 0
M  V30 28 H 1.510063 2.141222 -3.004362 0
M  V30 29 H 1.177011 4.463191 -2.087153 0
M  V30 30 H -2.743311 3.328417 -0.834958 0
M  V30 31 H -2.377947 1.090882 -1.737326 0
M  V30 32 H 2.378653 -0.396640 -2.356461 0
M  V30 33 H 3.220114 -1.830105 -0.510901 0
M  V30 34 H 1.233345 0.224004 3.840936 0
M  V30 35 H 0.736132 -0.537902 2.257146 0
M  V30 36 H -1.093906 -1.756806 3.687916 0
M  V30 37 H -1.169809 0.051931 3.960903 0
M  V30 38 H -0.824787 -1.597044 6.072365 0
M  V30 39 H 0.300125 -0.139080 5.803922 0
M  V30 40 H 0.858087 -3.094014 5.361402 0
M  V30 41 H 1.963842 -1.762859 5.820738 0
M  V30 END ATOM
M  V30 BEGIN BOND
M  V30 1 2 1 2
M  V30 2 2 2 3
M  V30 3 1 2 4
M  V30 4 1 4 5
M  V30 5 2 5 6
M  V30 6 1 6 7
M  V30 7 2 7 8
M  V30 8 1 8 9
M  V30 9 1 9 10
M  V30 10 2 10 11
M  V30 11 1 11 12
M  V30 12 2 12 13
M  V30 13 1 13 14
M  V30 14 2 14 15
M  V30 15 1 8 16
M  V30 16 2 16 17
M  V30 17 1 2 18
M  V30 18 1 18 19
M  V30 19 1 19 20
M  V30 20 1 20 21
M  V30 21 1 21 22
M  V30 22 1 17 5
M  V30 23 1 22 18
M  V30 24 1 15 10
M  V30 25 1 4 23
M  V30 26 1 6 24
M  V30 27 1 7 25
M  V30 28 1 9 26
M  V30 29 1 9 27
M  V30 30 1 11 28
M  V30 31 1 12 29
M  V30 32 1 14 30
M  V30 33 1 15 31
M  V30 34 1 16 32
M  V30 35 1 17 33
M  V30 36 1 19 34
M  V30 37 1 19 35
M  V30 38 1 20 36
M  V30 39 1 20 37
M  V30 40 1 21 38
M  V30 41 1 21 39
M  V30 42 1 22 40
M  V30 43 1 22 41
M  V30 END BOND
M  V30 END CTAB
M  END
>  <Dataset>  (954) 
ChEMBL_Kinases

>  <Ligand_Instance>  (954) 
nan

>  <PDB_ID>  (954) 
nan

>  <Standardized_SMILES>  (954) 
O=S(=O)(Nc1ccc(Cc2ccncc2)cc1)N1CCCC1

>  <Name>  (954) 
nan

>  <Pocket>  (954) 
nan

>  <ATP_Site>  (954) 
nan

>  <Peripheral>  (954) 
nan

>  <Num_H_Atoms_ProtBoundConf>  (954) 
nan

>  <Num_Resolved_Atoms>  (954) 
nan

>  <Num_Not_Resolved_Atoms>  (954) 
nan

$$$$
CHEMBL1384275
     RDKit          3D

  0  0  0  0  0  0  0  0  0  0999 V3000
M  V30 BEGIN CTAB
M  V30 COUNTS 35 37 0 0 0
M  V30 BEGIN ATOM
M  V30 1 C -2.970084 -1.957962 4.283704 0
M  V30 2 C -1.467281 -2.161453 4.192412 0
M  V30 3 O -0.952782 -1.664628 2.975647 0
M  V30 4 C -1.333532 -2.106526 1.718112 0
M  V30 5 O -2.199797 -3.013875 1.707126 0
M  V30 6 C -0.719691 -1.504349 0.540364 0
M  V30 7 N 0.205510 -0.531574 0.661871 0
M  V30 8 C 0.797824 0.053273 -0.364832 0
M  V30 9 C 0.514391 -0.287731 -1.654472 0
M  V30 10 C 1.147234 0.339070 -2.694772 0
M  V30 11 C 2.089723 1.335337 -2.415659 0
M  V30 12 C 2.377718 1.681486 -1.115181 0
M  V30 13 C 3.306544 2.663905 -0.822115 0
M  V30 14 C 3.587128 3.003085 0.502096 0
M  V30 15 C 2.929675 2.350453 1.540568 0
M  V30 16 C 2.019407 1.387239 1.241024 0
M  V30 17 C 1.727313 1.036647 -0.064694 0
M  V30 18 C -0.425590 -1.277437 -1.818449 0
M  V30 19 C -1.050148 -1.894043 -0.733424 0
M  V30 20 C -2.059975 -2.958948 -0.957963 0
M  V30 21 H -3.205100 -0.917528 4.063158 0
M  V30 22 H -3.256543 -2.168320 5.336455 0
M  V30 23 H -3.507875 -2.680475 3.637435 0
M  V30 24 H -1.046197 -1.474801 4.983145 0
M  V30 25 H -1.157344 -3.184622 4.410725 0
M  V30 26 H 0.895401 0.040419 -3.714238 0
M  V30 27 H 2.594794 1.835901 -3.236757 0
M  V30 28 H 3.838235 3.193606 -1.605897 0
M  V30 29 H 4.311412 3.771209 0.790729 0
M  V30 30 H 3.095457 2.559682 2.579955 0
M  V30 31 H 1.487943 0.857770 2.025578 0
M  V30 32 H -0.700699 -1.599669 -2.814685 0
M  V30 33 H -1.813778 -3.887210 -0.426371 0
M  V30 34 H -3.052915 -2.530209 -0.662160 0
M  V30 35 H -2.112214 -3.179178 -2.059146 0
M  V30 END ATOM
M  V30 BEGIN BOND
M  V30 1 1 1 2
M  V30 2 1 2 3
M  V30 3 1 3 4
M  V30 4 2 4 5
M  V30 5 1 4 6
M  V30 6 2 6 7
M  V30 7 1 7 8
M  V30 8 2 8 9
M  V30 9 1 9 10
M  V30 10 2 10 11
M  V30 11 1 11 12
M  V30 12 2 12 13
M  V30 13 1 13 14
M  V30 14 2 14 15
M  V30 15 1 15 16
M  V30 16 2 16 17
M  V30 17 1 9 18
M  V30 18 2 18 19
M  V30 19 1 19 20
M  V30 20 1 19 6
M  V30 21 1 17 8
M  V30 22 1 17 12
M  V30 23 1 1 21
M  V30 24 1 1 22
M  V30 25 1 1 23
M  V30 26 1 2 24
M  V30 27 1 2 25
M  V30 28 1 10 26
M  V30 29 1 11 27
M  V30 30 1 13 28
M  V30 31 1 14 29
M  V30 32 1 15 30
M  V30 33 1 16 31
M  V30 34 1 18 32
M  V30 35 1 20 33
M  V30 36 1 20 34
M  V30 37 1 20 35
M  V30 END BOND
M  V30 END CTAB
M  END
>  <Dataset>  (955) 
ChEMBL_Kinases

>  <Ligand_Instance>  (955) 
nan

>  <PDB_ID>  (955) 
nan

>  <Standardized_SMILES>  (955) 
CCOC(=O)c1nc2c(ccc3ccccc32)cc1C

>  <Name>  (955) 
nan

>  <Pocket>  (955) 
nan

>  <ATP_Site>  (955) 
nan

>  <Peripheral>  (955) 
nan

>  <Num_H_Atoms_ProtBoundConf>  (955) 
nan

>  <Num_Resolved_Atoms>  (955) 
nan

>  <Num_Not_Resolved_Atoms>  (955) 
nan

$$$$
CHEMBL1384258
     RDKit          3D

  0  0  0  0  0  0  0  0  0  0999 V3000
M  V30 BEGIN CTAB
M  V30 COUNTS 34 35 0 0 0
M  V30 BEGIN ATOM
M  V30 1 O 2.169770 0.428030 3.036694 0
M  V30 2 S 0.794882 -0.128369 2.877036 0
M  V30 3 O 0.175762 -0.186398 4.256001 0
M  V30 4 N 0.819927 -1.742742 2.276711 0
M  V30 5 C 1.339988 -1.862369 0.951869 0
M  V30 6 C 1.286714 -3.344588 0.589077 0
M  V30 7 C -0.140422 -3.824173 0.427913 0
M  V30 8 C -0.510684 -3.224548 -0.911905 0
M  V30 9 C 0.820574 -3.017359 -1.565340 0
M  V30 10 O 1.784300 -3.545474 -0.708094 0
M  V30 11 C -0.211394 0.916528 1.926089 0
M  V30 12 C -1.550733 1.074903 2.222552 0
M  V30 13 C -2.450170 1.884798 1.529718 0
M  V30 14 C -1.942652 2.584205 0.454605 0
M  V30 15 Cl -3.081930 3.597911 -0.407573 0
M  V30 16 C -0.602343 2.469251 0.102733 0
M  V30 17 C -0.139019 3.247411 -1.055825 0
M  V30 18 F 1.201432 3.071165 -1.330138 0
M  V30 19 F -0.916055 2.936431 -2.158694 0
M  V30 20 F -0.304302 4.593075 -0.795283 0
M  V30 21 C 0.237078 1.647694 0.832635 0
M  V30 22 H 1.441444 -2.296046 2.908377 0
M  V30 23 H 2.432245 -1.608876 0.961194 0
M  V30 24 H 0.894671 -1.234717 0.187390 0
M  V30 25 H 1.848982 -3.960887 1.285138 0
M  V30 26 H -0.796042 -3.464426 1.242890 0
M  V30 27 H -0.117906 -4.916825 0.366236 0
M  V30 28 H -1.063207 -2.299021 -0.741009 0
M  V30 29 H -1.175233 -3.888863 -1.507556 0
M  V30 30 H 1.099794 -1.954742 -1.713348 0
M  V30 31 H 0.806683 -3.521570 -2.547161 0
M  V30 32 H -1.959893 0.524648 3.072069 0
M  V30 33 H -3.468468 1.943245 1.833661 0
M  V30 34 H 1.274603 1.559216 0.559582 0
M  V30 END ATOM
M  V30 BEGIN BOND
M  V30 1 2 1 2
M  V30 2 2 2 3
M  V30 3 1 2 4
M  V30 4 1 4 5
M  V30 5 1 5 6
M  V30 6 1 6 7
M  V30 7 1 7 8
M  V30 8 1 8 9
M  V30 9 1 9 10
M  V30 10 1 2 11
M  V30 11 2 11 12
M  V30 12 1 12 13
M  V30 13 2 13 14
M  V30 14 1 14 15
M  V30 15 1 14 16
M  V30 16 1 16 17
M  V30 17 1 17 18
M  V30 18 1 17 19
M  V30 19 1 17 20
M  V30 20 2 16 21
M  V30 21 1 10 6
M  V30 22 1 21 11
M  V30 23 1 4 22
M  V30 24 1 5 23
M  V30 25 1 5 24
M  V30 26 1 6 25
M  V30 27 1 7 26
M  V30 28 1 7 27
M  V30 29 1 8 28
M  V30 30 1 8 29
M  V30 31 1 9 30
M  V30 32 1 9 31
M  V30 33 1 12 32
M  V30 34 1 13 33
M  V30 35 1 21 34
M  V30 END BOND
M  V30 END CTAB
M  END
>  <Dataset>  (956) 
ChEMBL_Kinases

>  <Ligand_Instance>  (956) 
nan

>  <PDB_ID>  (956) 
nan

>  <Standardized_SMILES>  (956) 
O=S(=O)(NCC1CCCO1)c1ccc(Cl)c(C(F)(F)F)c1

>  <Name>  (956) 
nan

>  <Pocket>  (956) 
nan

>  <ATP_Site>  (956) 
nan

>  <Peripheral>  (956) 
nan

>  <Num_H_Atoms_ProtBoundConf>  (956) 
nan

>  <Num_Resolved_Atoms>  (956) 
nan

>  <Num_Not_Resolved_Atoms>  (956) 
nan

$$$$
CHEMBL1384047
     RDKit          3D

  0  0  0  0  0  0  0  0  0  0999 V3000
M  V30 BEGIN CTAB
M  V30 COUNTS 42 43 0 0 0
M  V30 BEGIN ATOM
M  V30 1 C -1.237180 -4.052608 4.002495 0
M  V30 2 O 0.109217 -3.839246 3.628297 0
M  V30 3 C 0.361041 -3.288424 2.375499 0
M  V30 4 C -0.707509 -2.980338 1.566964 0
M  V30 5 C -0.514412 -2.435378 0.322866 0
M  V30 6 C 0.737930 -2.168452 -0.182450 0
M  V30 7 O 1.241040 -1.650711 -1.332656 0
M  V30 8 C 0.640758 -1.172151 -2.473055 0
M  V30 9 C -0.270997 0.016038 -2.305060 0
M  V30 10 O -0.749789 0.287930 -3.618268 0
M  V30 11 C 0.402226 1.261899 -1.857877 0
M  V30 12 N 0.984831 1.286729 -0.569827 0
M  V30 13 C 2.269706 1.001759 0.022737 0
M  V30 14 O 3.217898 0.621309 -0.735622 0
M  V30 15 N 2.229288 1.212955 1.419685 0
M  V30 16 C 0.927077 1.660983 1.845064 0
M  V30 17 C 0.299032 0.627294 2.719979 0
M  V30 18 C 0.959574 3.028586 2.481038 0
M  V30 19 C 0.190587 1.675558 0.545709 0
M  V30 20 O -0.985173 2.027374 0.687807 0
M  V30 21 C 1.824331 -2.486284 0.649705 0
M  V30 22 C 1.649351 -3.043696 1.923881 0
M  V30 23 H -1.716971 -4.694426 3.228267 0
M  V30 24 H -1.299576 -4.628298 4.945770 0
M  V30 25 H -1.811298 -3.102225 4.030420 0
M  V30 26 H -1.739207 -3.137837 1.839110 0
M  V30 27 H -1.275505 -2.170912 -0.372282 0
M  V30 28 H 1.456657 -0.879105 -3.188807 0
M  V30 29 H 0.014729 -1.940587 -3.008653 0
M  V30 30 H -1.148602 -0.281896 -1.749363 0
M  V30 31 H -0.935669 -0.544411 -4.096391 0
M  V30 32 H 1.256729 1.423179 -2.585293 0
M  V30 33 H -0.242155 2.152918 -2.026998 0
M  V30 34 H 3.075828 1.042050 1.988096 0
M  V30 35 H 0.347862 0.861948 3.798961 0
M  V30 36 H -0.782496 0.528938 2.425778 0
M  V30 37 H 0.812084 -0.339563 2.547467 0
M  V30 38 H 0.045522 3.607082 2.289496 0
M  V30 39 H 1.036112 2.855690 3.584961 0
M  V30 40 H 1.887057 3.547489 2.171700 0
M  V30 41 H 2.896217 -2.369370 0.474535 0
M  V30 42 H 2.408748 -3.314333 2.618027 0
M  V30 END ATOM
M  V30 BEGIN BOND
M  V30 1 1 1 2
M  V30 2 1 2 3
M  V30 3 2 3 4
M  V30 4 1 4 5
M  V30 5 2 5 6
M  V30 6 1 6 7
M  V30 7 1 7 8
M  V30 8 1 8 9
M  V30 9 1 9 10
M  V30 10 1 9 11
M  V30 11 1 11 12
M  V30 12 1 12 13
M  V30 13 2 13 14
M  V30 14 1 13 15
M  V30 15 1 15 16
M  V30 16 1 16 17
M  V30 17 1 16 18
M  V30 18 1 16 19
M  V30 19 2 19 20
M  V30 20 1 6 21
M  V30 21 2 21 22
M  V30 22 1 22 3
M  V30 23 1 19 12
M  V30 24 1 1 23
M  V30 25 1 1 24
M  V30 26 1 1 25
M  V30 27 1 4 26
M  V30 28 1 5 27
M  V30 29 1 8 28
M  V30 30 1 8 29
M  V30 31 1 9 30
M  V30 32 1 10 31
M  V30 33 1 11 32
M  V30 34 1 11 33
M  V30 35 1 15 34
M  V30 36 1 17 35
M  V30 37 1 17 36
M  V30 38 1 17 37
M  V30 39 1 18 38
M  V30 40 1 18 39
M  V30 41 1 18 40
M  V30 42 1 21 41
M  V30 43 1 22 42
M  V30 END BOND
M  V30 END CTAB
M  END
>  <Dataset>  (957) 
ChEMBL_Kinases

>  <Ligand_Instance>  (957) 
nan

>  <PDB_ID>  (957) 
nan

>  <Standardized_SMILES>  (957) 
COc1ccc(OCC(O)CN2C(=O)NC(C)(C)C2=O)cc1

>  <Name>  (957) 
nan

>  <Pocket>  (957) 
nan

>  <ATP_Site>  (957) 
nan

>  <Peripheral>  (957) 
nan

>  <Num_H_Atoms_ProtBoundConf>  (957) 
nan

>  <Num_Resolved_Atoms>  (957) 
nan

>  <Num_Not_Resolved_Atoms>  (957) 
nan

$$$$
CHEMBL1383872
     RDKit          3D

  0  0  0  0  0  0  0  0  0  0999 V3000
M  V30 BEGIN CTAB
M  V30 COUNTS 50 52 0 0 0
M  V30 BEGIN ATOM
M  V30 1 C 4.779313 -2.868653 2.248998 0
M  V30 2 O 3.698961 -3.476231 1.607292 0
M  V30 3 C 2.683128 -2.796377 0.967341 0
M  V30 4 C 2.631989 -1.422111 0.895973 0
M  V30 5 C 1.566904 -0.853405 0.229406 0
M  V30 6 C 0.539390 -1.586715 -0.376205 0
M  V30 7 C -0.515068 -0.733638 -1.032282 0
M  V30 8 C 0.269613 0.271532 -1.822425 0
M  V30 9 C 1.007934 -0.283022 -2.914573 0
M  V30 10 N 1.629460 -0.724277 -3.812561 0
M  V30 11 C 0.372884 1.574602 -1.654402 0
M  V30 12 C 1.201495 2.446151 -2.531150 0
M  V30 13 N -0.351054 2.164670 -0.590603 0
M  V30 14 C -1.084254 1.460519 0.184117 0
M  V30 15 C -1.796243 2.185570 1.266355 0
M  V30 16 C -2.001472 1.300026 2.477048 0
M  V30 17 C -2.731039 2.081675 3.530656 0
M  V30 18 C -0.669437 0.882834 3.018499 0
M  V30 19 C -2.849068 0.136414 1.996050 0
M  V30 20 C -2.092910 -0.546179 0.915443 0
M  V30 21 O -2.295480 -1.913995 0.819825 0
M  V30 22 C -1.260561 -0.002730 0.046877 0
M  V30 23 C 0.609634 -2.961655 -0.293544 0
M  V30 24 O -0.421450 -3.623339 -0.905039 0
M  V30 25 C -0.567986 -5.020430 -0.954332 0
M  V30 26 C 1.676168 -3.526296 0.373988 0
M  V30 27 H 5.676168 -2.727582 1.612826 0
M  V30 28 H 5.102667 -3.588474 3.054533 0
M  V30 29 H 4.457552 -1.908993 2.719488 0
M  V30 30 H 3.403944 -0.816901 1.349362 0
M  V30 31 H 1.581614 0.247878 0.206205 0
M  V30 32 H -1.211982 -1.316132 -1.626401 0
M  V30 33 H 1.325825 1.868058 -3.487619 0
M  V30 34 H 2.191577 2.596943 -2.060283 0
M  V30 35 H 0.704013 3.417614 -2.722019 0
M  V30 36 H -2.773039 2.526099 0.850502 0
M  V30 37 H -1.206736 3.079038 1.530949 0
M  V30 38 H -2.044117 2.816492 3.984427 0
M  V30 39 H -3.656421 2.553122 3.155013 0
M  V30 40 H -3.012803 1.353531 4.345296 0
M  V30 41 H -0.780065 0.023941 3.729094 0
M  V30 42 H -0.009656 0.547774 2.219562 0
M  V30 43 H -0.216749 1.765124 3.494580 0
M  V30 44 H -3.745328 0.595534 1.516048 0
M  V30 45 H -3.099764 -0.559147 2.796498 0
M  V30 46 H -1.834494 -2.517095 1.498522 0
M  V30 47 H -1.068661 -5.461150 -0.085169 0
M  V30 48 H -1.074365 -5.250212 -1.928060 0
M  V30 49 H 0.467285 -5.439648 -1.091560 0
M  V30 50 H 1.694207 -4.612195 0.416717 0
M  V30 END ATOM
M  V30 BEGIN BOND
M  V30 1 1 1 2
M  V30 2 1 2 3
M  V30 3 2 3 4
M  V30 4 1 4 5
M  V30 5 2 5 6
M  V30 6 1 6 7
M  V30 7 1 7 8
M  V30 8 1 8 9
M  V30 9 3 9 10
M  V30 10 2 8 11
M  V30 11 1 11 12
M  V30 12 1 11 13
M  V30 13 2 13 14
M  V30 14 1 14 15
M  V30 15 1 15 16
M  V30 16 1 16 17
M  V30 17 1 16 18
M  V30 18 1 16 19
M  V30 19 1 19 20
M  V30 20 1 20 21
M  V30 21 2 20 22
M  V30 22 1 6 23
M  V30 23 1 23 24
M  V30 24 1 24 25
M  V30 25 2 23 26
M  V30 26 1 26 3
M  V30 27 1 22 7
M  V30 28 1 22 14
M  V30 29 1 1 27
M  V30 30 1 1 28
M  V30 31 1 1 29
M  V30 32 1 4 30
M  V30 33 1 5 31
M  V30 34 1 7 32
M  V30 35 1 12 33
M  V30 36 1 12 34
M  V30 37 1 12 35
M  V30 38 1 15 36
M  V30 39 1 15 37
M  V30 40 1 17 38
M  V30 41 1 17 39
M  V30 42 1 17 40
M  V30 43 1 18 41
M  V30 44 1 18 42
M  V30 45 1 18 43
M  V30 46 1 19 44
M  V30 47 1 19 45
M  V30 48 1 21 46
M  V30 49 1 25 47
M  V30 50 1 25 48
M  V30 51 1 25 49
M  V30 52 1 26 50
M  V30 END BOND
M  V30 END CTAB
M  END
>  <Dataset>  (958) 
ChEMBL_Kinases

>  <Ligand_Instance>  (958) 
nan

>  <PDB_ID>  (958) 
nan

>  <Standardized_SMILES>  (958) 
COc1ccc(C2C(C#N)=C(C)N=C3CC(C)(C)CC(O)=C32)c(OC)c1

>  <Name>  (958) 
nan

>  <Pocket>  (958) 
nan

>  <ATP_Site>  (958) 
nan

>  <Peripheral>  (958) 
nan

>  <Num_H_Atoms_ProtBoundConf>  (958) 
nan

>  <Num_Resolved_Atoms>  (958) 
nan

>  <Num_Not_Resolved_Atoms>  (958) 
nan

$$$$
CHEMBL1383746
     RDKit          3D

  0  0  0  0  0  0  0  0  0  0999 V3000
M  V30 BEGIN CTAB
M  V30 COUNTS 53 58 0 0 0
M  V30 BEGIN ATOM
M  V30 1 O 0.605683 -4.084627 3.715708 0
M  V30 2 C 0.464434 -3.638864 2.545238 0
M  V30 3 C 1.193017 -2.447860 2.051651 0
M  V30 4 C 2.501379 -2.478671 1.607563 0
M  V30 5 C 3.084884 -1.305941 1.169501 0
M  V30 6 C 2.416250 -0.095646 1.154965 0
M  V30 7 N 2.987919 1.045092 0.729373 0
M  V30 8 C 2.333731 2.223779 0.718027 0
M  V30 9 C 2.988119 3.440429 0.249157 0
M  V30 10 C 3.405007 4.675571 0.699353 0
M  V30 11 C 3.983257 5.339939 -0.388118 0
M  V30 12 C 3.877961 4.442814 -1.456303 0
M  V30 13 O 3.296676 3.362106 -1.036749 0
M  V30 14 C 1.029384 2.261145 1.159446 0
M  V30 15 C 0.225027 3.480024 1.194993 0
M  V30 16 C 0.173046 4.703729 1.825392 0
M  V30 17 C -0.918550 5.393191 1.343404 0
M  V30 18 C -1.497711 4.529752 0.413294 0
M  V30 19 O -0.805276 3.422142 0.351136 0
M  V30 20 N 0.449688 1.114995 1.588643 0
M  V30 21 C 1.109011 -0.065988 1.598937 0
M  V30 22 C 0.522902 -1.240270 2.038088 0
M  V30 23 N -0.389084 -4.173757 1.513974 0
M  V30 24 C -0.584414 -3.703857 0.169592 0
M  V30 25 C -2.017581 -3.238611 0.007684 0
M  V30 26 C -2.896857 -4.446269 0.104217 0
M  V30 27 C -2.651062 -5.145697 1.393759 0
M  V30 28 C -1.212345 -5.344164 1.745442 0
M  V30 29 O -2.674229 -5.224033 -1.012295 0
M  V30 30 C -3.325310 -4.565166 -2.038958 0
M  V30 31 C -4.427418 -3.828390 -1.336191 0
M  V30 32 O -4.216847 -4.014893 0.044348 0
M  V30 33 H 3.025084 -3.434556 1.620835 0
M  V30 34 H 4.111996 -1.359120 0.826277 0
M  V30 35 H 3.204132 4.850875 1.745413 0
M  V30 36 H 4.350437 6.331936 -0.146989 0
M  V30 37 H 4.285649 4.812831 -2.382449 0
M  V30 38 H 0.952168 4.873267 2.535072 0
M  V30 39 H -1.145873 6.385854 1.709324 0
M  V30 40 H -2.389919 4.841844 -0.118442 0
M  V30 41 H -0.491961 -1.169952 2.372720 0
M  V30 42 H -0.456283 -4.536599 -0.567882 0
M  V30 43 H 0.049040 -2.858909 -0.128741 0
M  V30 44 H -2.084720 -2.737746 -0.989424 0
M  V30 45 H -2.237098 -2.456869 0.752868 0
M  V30 46 H -3.234493 -4.626037 2.193460 0
M  V30 47 H -3.104446 -6.167372 1.313972 0
M  V30 48 H -1.176065 -5.603773 2.836952 0
M  V30 49 H -0.816243 -6.252768 1.216108 0
M  V30 50 H -3.726368 -5.306821 -2.777249 0
M  V30 51 H -2.673381 -3.893886 -2.620427 0
M  V30 52 H -5.395208 -4.346578 -1.581416 0
M  V30 53 H -4.491074 -2.751607 -1.606648 0
M  V30 END ATOM
M  V30 BEGIN BOND
M  V30 1 2 1 2
M  V30 2 1 2 3
M  V30 3 2 3 4
M  V30 4 1 4 5
M  V30 5 2 5 6
M  V30 6 1 6 7
M  V30 7 2 7 8
M  V30 8 1 8 9
M  V30 9 2 9 10
M  V30 10 1 10 11
M  V30 11 2 11 12
M  V30 12 1 12 13
M  V30 13 1 8 14
M  V30 14 1 14 15
M  V30 15 2 15 16
M  V30 16 1 16 17
M  V30 17 2 17 18
M  V30 18 1 18 19
M  V30 19 2 14 20
M  V30 20 1 20 21
M  V30 21 2 21 22
M  V30 22 1 2 23
M  V30 23 1 23 24
M  V30 24 1 24 25
M  V30 25 1 25 26
M  V30 26 1 26 27
M  V30 27 1 27 28
M  V30 28 1 26 29
M  V30 29 1 29 30
M  V30 30 1 30 31
M  V30 31 1 31 32
M  V30 32 1 22 3
M  V30 33 1 28 23
M  V30 34 1 21 6
M  V30 35 1 32 26
M  V30 36 1 13 9
M  V30 37 1 19 15
M  V30 38 1 4 33
M  V30 39 1 5 34
M  V30 40 1 10 35
M  V30 41 1 11 36
M  V30 42 1 12 37
M  V30 43 1 16 38
M  V30 44 1 17 39
M  V30 45 1 18 40
M  V30 46 1 22 41
M  V30 47 1 24 42
M  V30 48 1 24 43
M  V30 49 1 25 44
M  V30 50 1 25 45
M  V30 51 1 27 46
M  V30 52 1 27 47
M  V30 53 1 28 48
M  V30 54 1 28 49
M  V30 55 1 30 50
M  V30 56 1 30 51
M  V30 57 1 31 52
M  V30 58 1 31 53
M  V30 END BOND
M  V30 END CTAB
M  END
>  <Dataset>  (959) 
ChEMBL_Kinases

>  <Ligand_Instance>  (959) 
nan

>  <PDB_ID>  (959) 
nan

>  <Standardized_SMILES>  (959) 
O=C(c1ccc2nc(-c3ccco3)c(-c3ccco3)nc2c1)N1CCC2(CC1)OCCO2

>  <Name>  (959) 
nan

>  <Pocket>  (959) 
nan

>  <ATP_Site>  (959) 
nan

>  <Peripheral>  (959) 
nan

>  <Num_H_Atoms_ProtBoundConf>  (959) 
nan

>  <Num_Resolved_Atoms>  (959) 
nan

>  <Num_Not_Resolved_Atoms>  (959) 
nan

$$$$
CHEMBL1383728
     RDKit          3D

  0  0  0  0  0  0  0  0  0  0999 V3000
M  V30 BEGIN CTAB
M  V30 COUNTS 40 41 0 0 0
M  V30 BEGIN ATOM
M  V30 1 C -4.835568 1.766867 2.286354 0
M  V30 2 C -4.252026 1.338130 0.936359 0
M  V30 3 N -3.799372 2.480619 0.182474 0
M  V30 4 S -3.128756 2.069407 -1.352697 0
M  V30 5 O -4.276620 1.433966 -2.128169 0
M  V30 6 O -2.857904 3.367848 -2.070599 0
M  V30 7 C -1.735410 1.062830 -1.265785 0
M  V30 8 C -0.503791 1.710219 -1.113478 0
M  V30 9 C -0.423531 3.191611 -1.021680 0
M  V30 10 C 0.691478 0.985123 -1.040382 0
M  V30 11 C 0.699378 -0.390615 -1.115507 0
M  V30 12 N 1.879489 -1.178706 -1.047335 0
M  V30 13 C 1.890870 -2.627011 -1.122696 0
M  V30 14 C 3.354228 -2.960999 -1.281071 0
M  V30 15 C 3.969093 -1.884770 -0.375755 0
M  V30 16 C 3.206071 -0.694841 -0.897890 0
M  V30 17 O 3.653978 0.451357 -1.139463 0
M  V30 18 C -0.545460 -0.962843 -1.265045 0
M  V30 19 C -1.761423 -0.313402 -1.344502 0
M  V30 20 C -3.035007 -1.032617 -1.515718 0
M  V30 21 H -5.533856 1.025104 2.686636 0
M  V30 22 H -5.330181 2.755417 2.205903 0
M  V30 23 H -3.994868 1.878270 3.029767 0
M  V30 24 H -5.090422 0.814357 0.411382 0
M  V30 25 H -3.458094 0.612102 1.145279 0
M  V30 26 H -4.566526 3.145162 0.052787 0
M  V30 27 H -1.245449 3.586358 -0.404418 0
M  V30 28 H -0.538897 3.609738 -2.041902 0
M  V30 29 H 0.573639 3.487826 -0.635451 0
M  V30 30 H 1.599068 1.522411 -0.924563 0
M  V30 31 H 1.275839 -3.003598 -1.961765 0
M  V30 32 H 1.553378 -3.016278 -0.138594 0
M  V30 33 H 3.632290 -2.804563 -2.332561 0
M  V30 34 H 3.600896 -3.973334 -0.902523 0
M  V30 35 H 5.038996 -1.784692 -0.523054 0
M  V30 36 H 3.624835 -2.086058 0.636689 0
M  V30 37 H -0.586571 -2.056324 -1.329210 0
M  V30 38 H -2.771785 -2.116706 -1.637314 0
M  V30 39 H -3.526944 -0.729162 -2.463603 0
M  V30 40 H -3.671314 -0.986288 -0.633850 0
M  V30 END ATOM
M  V30 BEGIN BOND
M  V30 1 1 1 2
M  V30 2 1 2 3
M  V30 3 1 3 4
M  V30 4 2 4 5
M  V30 5 2 4 6
M  V30 6 1 4 7
M  V30 7 2 7 8
M  V30 8 1 8 9
M  V30 9 1 8 10
M  V30 10 2 10 11
M  V30 11 1 11 12
M  V30 12 1 12 13
M  V30 13 1 13 14
M  V30 14 1 14 15
M  V30 15 1 15 16
M  V30 16 2 16 17
M  V30 17 1 11 18
M  V30 18 2 18 19
M  V30 19 1 19 20
M  V30 20 1 19 7
M  V30 21 1 16 12
M  V30 22 1 1 21
M  V30 23 1 1 22
M  V30 24 1 1 23
M  V30 25 1 2 24
M  V30 26 1 2 25
M  V30 27 1 3 26
M  V30 28 1 9 27
M  V30 29 1 9 28
M  V30 30 1 9 29
M  V30 31 1 10 30
M  V30 32 1 13 31
M  V30 33 1 13 32
M  V30 34 1 14 33
M  V30 35 1 14 34
M  V30 36 1 15 35
M  V30 37 1 15 36
M  V30 38 1 18 37
M  V30 39 1 20 38
M  V30 40 1 20 39
M  V30 41 1 20 40
M  V30 END BOND
M  V30 END CTAB
M  END
>  <Dataset>  (960) 
ChEMBL_Kinases

>  <Ligand_Instance>  (960) 
nan

>  <PDB_ID>  (960) 
nan

>  <Standardized_SMILES>  (960) 
CCNS(=O)(=O)c1c(C)cc(N2CCCC2=O)cc1C

>  <Name>  (960) 
nan

>  <Pocket>  (960) 
nan

>  <ATP_Site>  (960) 
nan

>  <Peripheral>  (960) 
nan

>  <Num_H_Atoms_ProtBoundConf>  (960) 
nan

>  <Num_Resolved_Atoms>  (960) 
nan

>  <Num_Not_Resolved_Atoms>  (960) 
nan

$$$$
CHEMBL1382690
     RDKit          3D

  0  0  0  0  0  0  0  0  0  0999 V3000
M  V30 BEGIN CTAB
M  V30 COUNTS 35 36 0 0 0
M  V30 BEGIN ATOM
M  V30 1 O 0.929559 -1.602901 3.090366 0
M  V30 2 C -0.167987 -2.039375 2.596018 0
M  V30 3 O -1.052224 -2.612501 3.531667 0
M  V30 4 C -0.828190 -2.128126 1.251387 0
M  V30 5 C -1.052479 -3.627613 0.981003 0
M  V30 6 C 0.076572 -4.201065 0.159598 0
M  V30 7 C 1.419798 -3.605497 0.524612 0
M  V30 8 C 1.412001 -2.134643 0.252741 0
M  V30 9 C -0.010401 -1.628449 0.121854 0
M  V30 10 C -0.055302 -0.193720 -0.146269 0
M  V30 11 O -0.463897 0.276786 -1.269616 0
M  V30 12 N 0.302031 0.881454 0.680272 0
M  V30 13 C 0.206064 2.245126 0.285957 0
M  V30 14 C -0.968271 2.925762 0.532178 0
M  V30 15 C -1.109125 4.255824 0.166130 0
M  V30 16 C -0.054391 4.898800 -0.452456 0
M  V30 17 Cl -0.213365 6.595654 -0.927618 0
M  V30 18 C 1.148633 4.252380 -0.720802 0
M  V30 19 C 1.234949 2.929503 -0.335578 0
M  V30 20 Cl 2.739072 2.070939 -0.655131 0
M  V30 21 H -0.742086 -2.659694 4.486358 0
M  V30 22 H -1.825099 -1.671529 1.292242 0
M  V30 23 H -1.072424 -4.170383 1.947711 0
M  V30 24 H -1.971234 -3.773042 0.396261 0
M  V30 25 H 0.083401 -5.299186 0.388234 0
M  V30 26 H -0.113167 -4.125665 -0.934943 0
M  V30 27 H 2.233561 -4.047005 -0.092371 0
M  V30 28 H 1.618746 -3.782800 1.592619 0
M  V30 29 H 1.907599 -1.879869 -0.724524 0
M  V30 30 H 1.958607 -1.549722 1.003146 0
M  V30 31 H -0.431334 -2.132941 -0.808279 0
M  V30 32 H 0.657579 0.660422 1.635679 0
M  V30 33 H -1.803687 2.408152 1.024785 0
M  V30 34 H -2.041318 4.806092 0.358422 0
M  V30 35 H 1.941969 4.787377 -1.202358 0
M  V30 END ATOM
M  V30 BEGIN BOND
M  V30 1 2 1 2
M  V30 2 1 2 3
M  V30 3 1 2 4
M  V30 4 1 4 5
M  V30 5 1 5 6
M  V30 6 1 6 7
M  V30 7 1 7 8
M  V30 8 1 8 9
M  V30 9 1 9 10
M  V30 10 2 10 11
M  V30 11 1 10 12
M  V30 12 1 12 13
M  V30 13 2 13 14
M  V30 14 1 14 15
M  V30 15 2 15 16
M  V30 16 1 16 17
M  V30 17 1 16 18
M  V30 18 2 18 19
M  V30 19 1 19 20
M  V30 20 1 9 4
M  V30 21 1 19 13
M  V30 22 1 3 21
M  V30 23 1 4 22
M  V30 24 1 5 23
M  V30 25 1 5 24
M  V30 26 1 6 25
M  V30 27 1 6 26
M  V30 28 1 7 27
M  V30 29 1 7 28
M  V30 30 1 8 29
M  V30 31 1 8 30
M  V30 32 1 9 31
M  V30 33 1 12 32
M  V30 34 1 14 33
M  V30 35 1 15 34
M  V30 36 1 18 35
M  V30 END BOND
M  V30 END CTAB
M  END
>  <Dataset>  (961) 
ChEMBL_Kinases

>  <Ligand_Instance>  (961) 
nan

>  <PDB_ID>  (961) 
nan

>  <Standardized_SMILES>  (961) 
O=C(O)C1CCCCC1C(=O)Nc1ccc(Cl)cc1Cl

>  <Name>  (961) 
nan

>  <Pocket>  (961) 
nan

>  <ATP_Site>  (961) 
nan

>  <Peripheral>  (961) 
nan

>  <Num_H_Atoms_ProtBoundConf>  (961) 
nan

>  <Num_Resolved_Atoms>  (961) 
nan

>  <Num_Not_Resolved_Atoms>  (961) 
nan

$$$$
CHEMBL1382723
     RDKit          3D

  0  0  0  0  0  0  0  0  0  0999 V3000
M  V30 BEGIN CTAB
M  V30 COUNTS 26 29 0 0 0
M  V30 BEGIN ATOM
M  V30 1 C -2.978736 -1.249921 3.702620 0
M  V30 2 C -1.996400 -2.189131 3.936838 0
M  V30 3 C -0.870271 -2.154015 3.110345 0
M  V30 4 C -0.834420 -1.184005 2.129792 0
M  V30 5 N 0.294833 -1.211480 1.362739 0
M  V30 6 C 0.392689 -0.289250 0.385627 0
M  V30 7 C 1.386667 -0.055306 -0.543770 0
M  V30 8 C 2.616731 -0.651375 -0.821735 0
M  V30 9 C 3.454465 -0.225640 -1.830177 0
M  V30 10 C 3.012594 0.847335 -2.576212 0
M  V30 11 C 1.814553 1.501531 -2.378010 0
M  V30 12 C 1.017020 1.027370 -1.350147 0
M  V30 13 N -0.192263 1.460722 -0.926557 0
M  V30 14 C -0.629609 0.719365 0.111150 0
M  V30 15 N -1.709274 0.672451 0.916597 0
M  V30 16 C -1.815769 -0.245079 1.895157 0
M  V30 17 C -2.943436 -0.280023 2.722564 0
M  V30 18 H -3.849097 -1.310440 4.374282 0
M  V30 19 H -2.096960 -2.920753 4.728105 0
M  V30 20 H -0.093579 -2.870124 3.269451 0
M  V30 21 H 1.075703 -1.888573 1.480493 0
M  V30 22 H 2.851559 -1.482109 -0.168682 0
M  V30 23 H 4.399248 -0.721080 -2.006637 0
M  V30 24 H 3.679665 1.188078 -3.380942 0
M  V30 25 H 1.519269 2.338915 -2.995082 0
M  V30 26 H -3.729222 0.435606 2.570334 0
M  V30 END ATOM
M  V30 BEGIN BOND
M  V30 1 2 1 2
M  V30 2 1 2 3
M  V30 3 2 3 4
M  V30 4 1 4 5
M  V30 5 1 5 6
M  V30 6 2 6 7
M  V30 7 1 7 8
M  V30 8 2 8 9
M  V30 9 1 9 10
M  V30 10 2 10 11
M  V30 11 1 11 12
M  V30 12 2 12 13
M  V30 13 1 13 14
M  V30 14 2 14 15
M  V30 15 1 15 16
M  V30 16 2 16 17
M  V30 17 1 17 1
M  V30 18 1 16 4
M  V30 19 1 14 6
M  V30 20 1 12 7
M  V30 21 1 1 18
M  V30 22 1 2 19
M  V30 23 1 3 20
M  V30 24 1 5 21
M  V30 25 1 8 22
M  V30 26 1 9 23
M  V30 27 1 10 24
M  V30 28 1 11 25
M  V30 29 1 17 26
M  V30 END BOND
M  V30 END CTAB
M  END
>  <Dataset>  (962) 
ChEMBL_Kinases

>  <Ligand_Instance>  (962) 
nan

>  <PDB_ID>  (962) 
nan

>  <Standardized_SMILES>  (962) 
c1ccc2[nH]c3c4ccccc4nc-3nc2c1

>  <Name>  (962) 
nan

>  <Pocket>  (962) 
nan

>  <ATP_Site>  (962) 
nan

>  <Peripheral>  (962) 
nan

>  <Num_H_Atoms_ProtBoundConf>  (962) 
nan

>  <Num_Resolved_Atoms>  (962) 
nan

>  <Num_Not_Resolved_Atoms>  (962) 
nan

$$$$
CHEMBL1382849
     RDKit          3D

  0  0  0  0  0  0  0  0  0  0999 V3000
M  V30 BEGIN CTAB
M  V30 COUNTS 53 54 0 0 0
M  V30 BEGIN ATOM
M  V30 1 C -0.618534 -3.102441 1.244898 0
M  V30 2 O 0.317894 -4.069744 1.287965 0
M  V30 3 C 1.273985 -4.164444 0.326234 0
M  V30 4 C 2.068372 -2.921859 0.245226 0
M  V30 5 C 3.256597 -2.883609 0.959413 0
M  V30 6 C 4.008218 -1.716653 0.914822 0
M  V30 7 C 5.273555 -1.780789 1.725734 0
M  V30 8 N 3.628559 -0.635937 0.212273 0
M  V30 9 C 2.463029 -0.631174 -0.505902 0
M  V30 10 S 2.252337 0.846920 -1.370324 0
M  V30 11 C 1.633750 2.277835 -0.627518 0
M  V30 12 C 0.275540 2.491810 -0.128949 0
M  V30 13 N -0.271079 1.757872 0.952817 0 CHG=1 VAL=4
M  V30 14 C 0.637623 1.187701 1.873901 0
M  V30 15 C -1.022529 2.778575 1.760158 0
M  V30 16 C -1.313982 0.923570 0.424619 0
M  V30 17 C -2.069900 0.094002 1.332102 0
M  V30 18 O -2.011793 -0.015889 2.582404 0
M  V30 19 C -3.064422 -0.755970 0.685089 0
M  V30 20 C -3.313723 -0.800052 -0.687156 0
M  V30 21 C -4.261561 -1.625047 -1.249902 0
M  V30 22 C -5.029215 -2.466949 -0.474003 0
M  V30 23 C -4.829110 -2.467828 0.890585 0
M  V30 24 C -3.870340 -1.623564 1.387734 0
M  V30 25 C 1.736338 -1.790413 -0.451370 0
M  V30 26 C 0.584433 -1.811433 -1.284546 0
M  V30 27 N -0.342727 -1.831801 -1.974280 0
M  V30 28 H -1.322550 -3.213028 2.134080 0
M  V30 29 H -1.275865 -3.223423 0.369895 0
M  V30 30 H -0.213932 -2.074316 1.385417 0
M  V30 31 H 1.939187 -5.042573 0.561696 0
M  V30 32 H 0.835172 -4.377235 -0.698790 0
M  V30 33 H 3.566773 -3.761032 1.531074 0
M  V30 34 H 5.194214 -2.476166 2.568017 0
M  V30 35 H 6.075004 -2.065834 1.018437 0
M  V30 36 H 5.491143 -0.745141 2.027939 0
M  V30 37 H 2.381486 2.684308 0.161251 0
M  V30 38 H 1.771358 3.136348 -1.409144 0
M  V30 39 H 0.236424 3.606145 0.148095 0
M  V30 40 H -0.454949 2.479158 -0.997144 0
M  V30 41 H 0.792583 1.933508 2.726560 0
M  V30 42 H 0.255031 0.293779 2.409157 0
M  V30 43 H 1.681439 1.049304 1.515680 0
M  V30 44 H -0.296418 3.445450 2.273838 0
M  V30 45 H -1.627545 3.384169 1.057811 0
M  V30 46 H -1.699165 2.280492 2.474325 0
M  V30 47 H -2.080243 1.654819 -0.017565 0
M  V30 48 H -1.003761 0.354894 -0.464506 0
M  V30 49 H -2.739305 -0.156715 -1.335665 0
M  V30 50 H -4.378969 -1.582274 -2.344463 0
M  V30 51 H -5.736550 -3.061972 -1.032135 0
M  V30 52 H -5.430271 -3.123007 1.473545 0
M  V30 53 H -3.765540 -1.676329 2.478177 0
M  V30 END ATOM
M  V30 BEGIN BOND
M  V30 1 1 1 2
M  V30 2 1 2 3
M  V30 3 1 3 4
M  V30 4 2 4 5
M  V30 5 1 5 6
M  V30 6 1 6 7
M  V30 7 2 6 8
M  V30 8 1 8 9
M  V30 9 1 9 10
M  V30 10 1 10 11
M  V30 11 1 11 12
M  V30 12 1 12 13
M  V30 13 1 13 14
M  V30 14 1 13 15
M  V30 15 1 13 16
M  V30 16 1 16 17
M  V30 17 2 17 18
M  V30 18 1 17 19
M  V30 19 2 19 20
M  V30 20 1 20 21
M  V30 21 2 21 22
M  V30 22 1 22 23
M  V30 23 2 23 24
M  V30 24 2 9 25
M  V30 25 1 25 26
M  V30 26 3 26 27
M  V30 27 1 25 4
M  V30 28 1 24 19
M  V30 29 1 1 28
M  V30 30 1 1 29
M  V30 31 1 1 30
M  V30 32 1 3 31
M  V30 33 1 3 32
M  V30 34 1 5 33
M  V30 35 1 7 34
M  V30 36 1 7 35
M  V30 37 1 7 36
M  V30 38 1 11 37
M  V30 39 1 11 38
M  V30 40 1 12 39
M  V30 41 1 12 40
M  V30 42 1 14 41
M  V30 43 1 14 42
M  V30 44 1 14 43
M  V30 45 1 15 44
M  V30 46 1 15 45
M  V30 47 1 15 46
M  V30 48 1 16 47
M  V30 49 1 16 48
M  V30 50 1 20 49
M  V30 51 1 21 50
M  V30 52 1 22 51
M  V30 53 1 23 52
M  V30 54 1 24 53
M  V30 END BOND
M  V30 END CTAB
M  END
>  <Dataset>  (963) 
ChEMBL_Kinases

>  <Ligand_Instance>  (963) 
nan

>  <PDB_ID>  (963) 
nan

>  <Standardized_SMILES>  (963) 
COCc1cc(C)nc(SCC[N+](C)(C)CC(=O)c2ccccc2)c1C#N

>  <Name>  (963) 
nan

>  <Pocket>  (963) 
nan

>  <ATP_Site>  (963) 
nan

>  <Peripheral>  (963) 
nan

>  <Num_H_Atoms_ProtBoundConf>  (963) 
nan

>  <Num_Resolved_Atoms>  (963) 
nan

>  <Num_Not_Resolved_Atoms>  (963) 
nan

$$$$
CHEMBL1383031
     RDKit          3D

  0  0  0  0  0  0  0  0  0  0999 V3000
M  V30 BEGIN CTAB
M  V30 COUNTS 34 37 0 0 0
M  V30 BEGIN ATOM
M  V30 1 O -1.293965 -2.122469 0.338670 0
M  V30 2 C -0.725367 -1.520336 1.285461 0
M  V30 3 N 0.582211 -1.893278 1.612086 0
M  V30 4 C 1.446504 -2.901108 1.024159 0
M  V30 5 C 1.959503 -2.335600 -0.252194 0
M  V30 6 C 3.132924 -1.583059 -0.184332 0
M  V30 7 C 3.631775 -1.048326 -1.363192 0
M  V30 8 C 2.976371 -1.261283 -2.566830 0
M  V30 9 C 1.804242 -2.013495 -2.632659 0
M  V30 10 C 1.329138 -2.533980 -1.448142 0
M  V30 11 O 1.443428 -2.006499 -3.991552 0
M  V30 12 C 2.130096 -0.958031 -4.649127 0
M  V30 13 O 3.304291 -0.817345 -3.857940 0
M  V30 14 C -1.424312 -0.465282 2.011620 0
M  V30 15 C -1.017603 0.324893 3.066696 0
M  V30 16 C -2.008005 1.205022 3.448938 0
M  V30 17 N -2.144725 2.164363 4.383590 0
M  V30 18 C -3.271230 2.894626 4.533425 0
M  V30 19 C -4.308101 2.596402 3.649906 0
M  V30 20 Br -5.963202 3.550403 3.745303 0
M  V30 21 C -4.167586 1.614888 2.693966 0
M  V30 22 N -3.023155 0.916048 2.587160 0
M  V30 23 N -2.694823 -0.054851 1.745575 0
M  V30 24 H 1.014034 -1.352363 2.420155 0
M  V30 25 H 2.259024 -3.196445 1.709792 0
M  V30 26 H 0.886998 -3.846351 0.822149 0
M  V30 27 H 3.675917 -1.390818 0.723364 0
M  V30 28 H 4.539654 -0.465408 -1.315450 0
M  V30 29 H 0.423057 -3.113911 -1.533604 0
M  V30 30 H 1.577402 -0.000895 -4.662924 0
M  V30 31 H 2.351141 -1.237745 -5.694700 0
M  V30 32 H -0.037266 0.254735 3.531046 0
M  V30 33 H -3.400125 3.668411 5.276816 0
M  V30 34 H -4.989852 1.385601 2.001011 0
M  V30 END ATOM
M  V30 BEGIN BOND
M  V30 1 2 1 2
M  V30 2 1 2 3
M  V30 3 1 3 4
M  V30 4 1 4 5
M  V30 5 2 5 6
M  V30 6 1 6 7
M  V30 7 2 7 8
M  V30 8 1 8 9
M  V30 9 2 9 10
M  V30 10 1 9 11
M  V30 11 1 11 12
M  V30 12 1 12 13
M  V30 13 1 2 14
M  V30 14 1 14 15
M  V30 15 2 15 16
M  V30 16 1 16 17
M  V30 17 2 17 18
M  V30 18 1 18 19
M  V30 19 1 19 20
M  V30 20 2 19 21
M  V30 21 1 21 22
M  V30 22 1 22 23
M  V30 23 1 10 5
M  V30 24 2 23 14
M  V30 25 1 13 8
M  V30 26 1 22 16
M  V30 27 1 3 24
M  V30 28 1 4 25
M  V30 29 1 4 26
M  V30 30 1 6 27
M  V30 31 1 7 28
M  V30 32 1 10 29
M  V30 33 1 12 30
M  V30 34 1 12 31
M  V30 35 1 15 32
M  V30 36 1 18 33
M  V30 37 1 21 34
M  V30 END BOND
M  V30 END CTAB
M  END
>  <Dataset>  (964) 
ChEMBL_Kinases

>  <Ligand_Instance>  (964) 
nan

>  <PDB_ID>  (964) 
nan

>  <Standardized_SMILES>  (964) 
O=C(NCc1ccc2c(c1)OCO2)c1cc2ncc(Br)cn2n1

>  <Name>  (964) 
nan

>  <Pocket>  (964) 
nan

>  <ATP_Site>  (964) 
nan

>  <Peripheral>  (964) 
nan

>  <Num_H_Atoms_ProtBoundConf>  (964) 
nan

>  <Num_Resolved_Atoms>  (964) 
nan

>  <Num_Not_Resolved_Atoms>  (964) 
nan

$$$$
CHEMBL1383142
     RDKit          3D

  0  0  0  0  0  0  0  0  0  0999 V3000
M  V30 BEGIN CTAB
M  V30 COUNTS 31 32 0 0 0
M  V30 BEGIN ATOM
M  V30 1 C -2.058921 -3.102119 2.641525 0
M  V30 2 C -1.378657 -1.838387 2.264581 0
M  V30 3 N -0.018638 -1.688965 2.286342 0
M  V30 4 C 0.545838 -0.520670 1.934430 0
M  V30 5 S 2.313245 -0.267469 1.943714 0
M  V30 6 C 2.901240 -0.720136 0.307166 0
M  V30 7 C 2.012511 -1.160374 -0.653537 0
M  V30 8 C 2.359799 -1.523528 -1.947239 0
M  V30 9 C 3.690251 -1.431347 -2.276000 0
M  V30 10 Cl 4.162723 -1.884652 -3.899620 0
M  V30 11 C 4.614556 -0.997804 -1.350773 0
M  V30 12 C 4.245843 -0.641798 -0.069320 0
M  V30 13 C -0.154678 0.598660 1.533340 0
M  V30 14 C 0.435928 1.844338 1.154435 0
M  V30 15 N 0.912177 2.853395 0.865395 0
M  V30 16 C -1.541313 0.504779 1.492131 0
M  V30 17 C -2.393284 1.643774 1.083504 0
M  V30 18 C -2.065118 -0.713335 1.861958 0
M  V30 19 N -3.481801 -0.813614 1.819692 0 CHG=1 VAL=4
M  V30 20 O -3.953054 -0.896791 0.648683 0
M  V30 21 O -4.731180 -0.878572 2.377264 0 CHG=-1 VAL=1
M  V30 22 H -2.518947 -3.051822 3.656363 0
M  V30 23 H -2.827061 -3.373823 1.876358 0
M  V30 24 H -1.309848 -3.919251 2.631195 0
M  V30 25 H 0.953656 -1.239348 -0.414323 0
M  V30 26 H 1.605323 -1.864608 -2.656635 0
M  V30 27 H 5.678960 -0.929547 -1.628021 0
M  V30 28 H 4.928113 -0.293726 0.694629 0
M  V30 29 H -1.744841 2.471476 0.678070 0
M  V30 30 H -3.048092 2.041185 1.856882 0
M  V30 31 H -2.980093 1.269766 0.203273 0
M  V30 END ATOM
M  V30 BEGIN BOND
M  V30 1 1 1 2
M  V30 2 2 2 3
M  V30 3 1 3 4
M  V30 4 1 4 5
M  V30 5 1 5 6
M  V30 6 2 6 7
M  V30 7 1 7 8
M  V30 8 2 8 9
M  V30 9 1 9 10
M  V30 10 1 9 11
M  V30 11 2 11 12
M  V30 12 2 4 13
M  V30 13 1 13 14
M  V30 14 3 14 15
M  V30 15 1 13 16
M  V30 16 1 16 17
M  V30 17 2 16 18
M  V30 18 1 18 19
M  V30 19 2 19 20
M  V30 20 1 19 21
M  V30 21 1 18 2
M  V30 22 1 12 6
M  V30 23 1 1 22
M  V30 24 1 1 23
M  V30 25 1 1 24
M  V30 26 1 7 25
M  V30 27 1 8 26
M  V30 28 1 11 27
M  V30 29 1 12 28
M  V30 30 1 17 29
M  V30 31 1 17 30
M  V30 32 1 17 31
M  V30 END BOND
M  V30 END CTAB
M  END
>  <Dataset>  (965) 
ChEMBL_Kinases

>  <Ligand_Instance>  (965) 
nan

>  <PDB_ID>  (965) 
nan

>  <Standardized_SMILES>  (965) 
Cc1nc(Sc2ccc(Cl)cc2)c(C#N)c(C)c1[N+](=O)[O-]

>  <Name>  (965) 
nan

>  <Pocket>  (965) 
nan

>  <ATP_Site>  (965) 
nan

>  <Peripheral>  (965) 
nan

>  <Num_H_Atoms_ProtBoundConf>  (965) 
nan

>  <Num_Resolved_Atoms>  (965) 
nan

>  <Num_Not_Resolved_Atoms>  (965) 
nan

$$$$
CHEMBL1383189
     RDKit          3D

  0  0  0  0  0  0  0  0  0  0999 V3000
M  V30 BEGIN CTAB
M  V30 COUNTS 41 44 0 0 0
M  V30 BEGIN ATOM
M  V30 1 C 1.515039 -6.834463 -0.307773 0
M  V30 2 O 2.539470 -5.970372 0.073313 0
M  V30 3 C 2.432044 -4.591548 0.146026 0
M  V30 4 C 3.502584 -3.814754 0.535541 0
M  V30 5 C 3.376252 -2.417011 0.605991 0
M  V30 6 C 2.148130 -1.834448 0.274229 0
M  V30 7 C 1.096193 -2.637832 -0.113332 0
M  V30 8 C 1.223345 -4.008503 -0.181469 0
M  V30 9 C -0.234008 -2.099953 -0.492868 0
M  V30 10 C -0.390636 -0.629969 -0.359602 0
M  V30 11 C 0.808428 0.112088 0.061078 0
M  V30 12 C 0.882148 1.499647 0.213851 0
M  V30 13 C -0.185842 2.505981 0.000878 0
M  V30 14 O -0.344925 2.584159 -1.239337 0
M  V30 15 N -0.666440 3.034895 1.234153 0
M  V30 16 C -0.216847 2.687058 2.592258 0
M  V30 17 C -1.355420 2.082855 3.381072 0
M  V30 18 O -2.266582 3.121985 3.623232 0
M  V30 19 C -2.789864 3.485589 2.368681 0
M  V30 20 C -1.719717 4.035448 1.453496 0
M  V30 21 N 2.153525 1.742345 0.610867 0
M  V30 22 O 2.821632 0.629747 0.703043 0
M  V30 23 C 2.055890 -0.385863 0.382062 0
M  V30 24 H 1.964241 -7.837491 -0.516809 0
M  V30 25 H 0.751289 -7.023737 0.467631 0
M  V30 26 H 1.025477 -6.515185 -1.237856 0
M  V30 27 H 4.468475 -4.224113 0.797955 0
M  V30 28 H 4.224148 -1.815520 0.910074 0
M  V30 29 H 0.398446 -4.668644 -0.483933 0
M  V30 30 H -0.391287 -2.446965 -1.562048 0
M  V30 31 H -1.033105 -2.604805 0.091166 0
M  V30 32 H -0.655230 -0.216857 -1.378289 0
M  V30 33 H -1.274433 -0.330833 0.278481 0
M  V30 34 H 0.122379 3.591699 3.140521 0
M  V30 35 H 0.614566 1.926299 2.531885 0
M  V30 36 H -1.831077 1.227632 2.823762 0
M  V30 37 H -0.967316 1.683843 4.338133 0
M  V30 38 H -3.674171 4.133207 2.441647 0
M  V30 39 H -3.157645 2.506391 1.937912 0
M  V30 40 H -2.185858 4.315358 0.486539 0
M  V30 41 H -1.230466 4.906587 1.922922 0
M  V30 END ATOM
M  V30 BEGIN BOND
M  V30 1 1 1 2
M  V30 2 1 2 3
M  V30 3 2 3 4
M  V30 4 1 4 5
M  V30 5 2 5 6
M  V30 6 1 6 7
M  V30 7 2 7 8
M  V30 8 1 7 9
M  V30 9 1 9 10
M  V30 10 1 10 11
M  V30 11 1 11 12
M  V30 12 1 12 13
M  V30 13 2 13 14
M  V30 14 1 13 15
M  V30 15 1 15 16
M  V30 16 1 16 17
M  V30 17 1 17 18
M  V30 18 1 18 19
M  V30 19 1 19 20
M  V30 20 2 12 21
M  V30 21 1 21 22
M  V30 22 1 22 23
M  V30 23 1 8 3
M  V30 24 2 23 11
M  V30 25 1 23 6
M  V30 26 1 20 15
M  V30 27 1 1 24
M  V30 28 1 1 25
M  V30 29 1 1 26
M  V30 30 1 4 27
M  V30 31 1 5 28
M  V30 32 1 8 29
M  V30 33 1 9 30
M  V30 34 1 9 31
M  V30 35 1 10 32
M  V30 36 1 10 33
M  V30 37 1 16 34
M  V30 38 1 16 35
M  V30 39 1 17 36
M  V30 40 1 17 37
M  V30 41 1 19 38
M  V30 42 1 19 39
M  V30 43 1 20 40
M  V30 44 1 20 41
M  V30 END BOND
M  V30 END CTAB
M  END
>  <Dataset>  (966) 
ChEMBL_Kinases

>  <Ligand_Instance>  (966) 
nan

>  <PDB_ID>  (966) 
nan

>  <Standardized_SMILES>  (966) 
COc1ccc2c(c1)CCc1c(C(=O)N3CCOCC3)noc1-2

>  <Name>  (966) 
nan

>  <Pocket>  (966) 
nan

>  <ATP_Site>  (966) 
nan

>  <Peripheral>  (966) 
nan

>  <Num_H_Atoms_ProtBoundConf>  (966) 
nan

>  <Num_Resolved_Atoms>  (966) 
nan

>  <Num_Not_Resolved_Atoms>  (966) 
nan

$$$$
CHEMBL1383282
     RDKit          3D

  0  0  0  0  0  0  0  0  0  0999 V3000
M  V30 BEGIN CTAB
M  V30 COUNTS 47 49 0 0 0
M  V30 BEGIN ATOM
M  V30 1 C 0.496378 -5.951729 0.971744 0
M  V30 2 C -0.184392 -4.997693 0.037843 0
M  V30 3 C 0.174193 -3.563448 0.393091 0
M  V30 4 C -0.521443 -2.617537 -0.559131 0
M  V30 5 N -0.188334 -1.264337 -0.250083 0
M  V30 6 C 1.049852 -0.610727 -0.476492 0
M  V30 7 C 2.015888 -1.343951 -1.133010 0
M  V30 8 C 3.249401 -0.805236 -1.435408 0
M  V30 9 C 3.502341 0.507940 -1.061755 0
M  V30 10 C 2.501105 1.194046 -0.408934 0
M  V30 11 C 1.258079 0.695069 -0.086436 0
M  V30 12 N 0.285845 1.494809 0.562018 0
M  V30 13 C 0.535876 2.825116 0.994247 0
M  V30 14 C 1.439010 2.802856 2.208196 0
M  V30 15 C 0.822451 2.019887 3.370533 0
M  V30 16 O 0.596760 0.686041 3.047033 0
M  V30 17 C -0.954943 0.821311 0.778655 0
M  V30 18 C -2.025825 1.475500 1.400936 0
M  V30 19 C -3.252947 0.895938 1.640241 0
M  V30 20 C -4.354189 1.638713 2.305010 0
M  V30 21 N -3.399812 -0.383852 1.237565 0
M  V30 22 N -2.426554 -1.052796 0.645432 0
M  V30 23 C -1.225224 -0.501218 0.405295 0
M  V30 24 H -0.001505 -6.939138 1.019682 0
M  V30 25 H 0.498491 -5.565187 2.025740 0
M  V30 26 H 1.559591 -6.106308 0.702338 0
M  V30 27 H -1.277150 -5.096535 0.076785 0
M  V30 28 H 0.156190 -5.240995 -1.006665 0
M  V30 29 H 1.257222 -3.431847 0.474304 0
M  V30 30 H -0.212111 -3.430894 1.441400 0
M  V30 31 H -1.600271 -2.800303 -0.618525 0
M  V30 32 H -0.085841 -2.832528 -1.578228 0
M  V30 33 H 1.890638 -2.351040 -1.464120 0
M  V30 34 H 4.022561 -1.360251 -1.948314 0
M  V30 35 H 4.465137 0.939971 -1.293936 0
M  V30 36 H 2.768141 2.212787 -0.175837 0
M  V30 37 H 1.042433 3.409366 0.163130 0
M  V30 38 H -0.314408 3.439583 1.268413 0
M  V30 39 H 1.541123 3.856114 2.628446 0
M  V30 40 H 2.457022 2.474639 2.047979 0
M  V30 41 H 1.473218 2.045601 4.256157 0
M  V30 42 H -0.122833 2.524702 3.657534 0
M  V30 43 H 1.489371 0.318637 2.782486 0
M  V30 44 H -1.940592 2.497020 1.736628 0
M  V30 45 H -4.978495 0.934866 2.888726 0
M  V30 46 H -3.937467 2.454696 2.936124 0
M  V30 47 H -4.953894 2.138072 1.514758 0
M  V30 END ATOM
M  V30 BEGIN BOND
M  V30 1 1 1 2
M  V30 2 1 2 3
M  V30 3 1 3 4
M  V30 4 1 4 5
M  V30 5 1 5 6
M  V30 6 2 6 7
M  V30 7 1 7 8
M  V30 8 2 8 9
M  V30 9 1 9 10
M  V30 10 2 10 11
M  V30 11 1 11 12
M  V30 12 1 12 13
M  V30 13 1 13 14
M  V30 14 1 14 15
M  V30 15 1 15 16
M  V30 16 1 12 17
M  V30 17 2 17 18
M  V30 18 1 18 19
M  V30 19 1 19 20
M  V30 20 2 19 21
M  V30 21 1 21 22
M  V30 22 2 22 23
M  V30 23 1 23 5
M  V30 24 1 11 6
M  V30 25 1 23 17
M  V30 26 1 1 24
M  V30 27 1 1 25
M  V30 28 1 1 26
M  V30 29 1 2 27
M  V30 30 1 2 28
M  V30 31 1 3 29
M  V30 32 1 3 30
M  V30 33 1 4 31
M  V30 34 1 4 32
M  V30 35 1 7 33
M  V30 36 1 8 34
M  V30 37 1 9 35
M  V30 38 1 10 36
M  V30 39 1 13 37
M  V30 40 1 13 38
M  V30 41 1 14 39
M  V30 42 1 14 40
M  V30 43 1 15 41
M  V30 44 1 15 42
M  V30 45 1 16 43
M  V30 46 1 18 44
M  V30 47 1 20 45
M  V30 48 1 20 46
M  V30 49 1 20 47
M  V30 END BOND
M  V30 END CTAB
M  END
>  <Dataset>  (967) 
ChEMBL_Kinases

>  <Ligand_Instance>  (967) 
nan

>  <PDB_ID>  (967) 
nan

>  <Standardized_SMILES>  (967) 
CCCCN1c2ccccc2N(CCCO)c2cc(C)nnc21

>  <Name>  (967) 
nan

>  <Pocket>  (967) 
nan

>  <ATP_Site>  (967) 
nan

>  <Peripheral>  (967) 
nan

>  <Num_H_Atoms_ProtBoundConf>  (967) 
nan

>  <Num_Resolved_Atoms>  (967) 
nan

>  <Num_Not_Resolved_Atoms>  (967) 
nan

$$$$
CHEMBL1383301
     RDKit          3D

  0  0  0  0  0  0  0  0  0  0999 V3000
M  V30 BEGIN CTAB
M  V30 COUNTS 43 45 0 0 0
M  V30 BEGIN ATOM
M  V30 1 C -0.684562 -6.335519 -0.842235 0
M  V30 2 C 0.129951 -5.153260 -0.458559 0
M  V30 3 C 1.005458 -4.516227 -1.293750 0
M  V30 4 C 1.751597 -3.408337 -0.894707 0
M  V30 5 C 1.625025 -2.906401 0.393898 0
M  V30 6 S 2.521100 -1.522591 0.978773 0
M  V30 7 O 3.880991 -1.517419 0.382855 0
M  V30 8 O 2.583287 -1.673759 2.484384 0
M  V30 9 N 1.670351 -0.064314 0.654241 0
M  V30 10 C 1.468692 0.164703 -0.752537 0
M  V30 11 C 1.130485 1.649344 -0.961795 0
M  V30 12 N 0.110390 1.916187 0.041724 0
M  V30 13 C -0.003329 3.348942 0.152125 0
M  V30 14 O 0.846419 3.735154 -0.694614 0
M  V30 15 C -0.706634 4.422509 0.850450 0
M  V30 16 S -1.894026 3.973931 2.072784 0
M  V30 17 C -0.756440 3.166333 3.461747 0
M  V30 18 N 0.143136 2.777893 4.042234 0
M  V30 19 N 0.144560 2.216370 5.205735 0
M  V30 20 C -0.884018 2.024961 5.859017 0
M  V30 21 S -2.179785 2.762954 4.653052 0
M  V30 22 C -0.555086 0.799882 0.686184 0
M  V30 23 C 0.481882 0.031796 1.441603 0
M  V30 24 C 0.729361 -3.576976 1.211289 0
M  V30 25 C -0.024004 -4.683403 0.832408 0
M  V30 26 H -1.744910 -6.014740 -0.925678 0
M  V30 27 H -0.286371 -6.722654 -1.788315 0
M  V30 28 H -0.588184 -7.113860 -0.046932 0
M  V30 29 H 1.123618 -4.885770 -2.302687 0
M  V30 30 H 2.441773 -2.898549 -1.539891 0
M  V30 31 H 0.684410 -0.488886 -1.135712 0
M  V30 32 H 2.471735 -0.005224 -1.240272 0
M  V30 33 H 0.713236 1.730051 -1.990743 0
M  V30 34 H 2.051918 2.249163 -0.818983 0
M  V30 35 H 0.076754 5.151440 1.196275 0
M  V30 36 H -1.244929 5.009246 0.048576 0
M  V30 37 H -0.540543 1.507868 6.844975 0
M  V30 38 H -0.980802 0.090977 -0.084955 0
M  V30 39 H -1.428632 1.106445 1.278280 0
M  V30 40 H 0.743786 0.635446 2.359271 0
M  V30 41 H 0.084584 -0.953681 1.764304 0
M  V30 42 H 0.568471 -3.251844 2.237769 0
M  V30 43 H -0.705748 -5.157561 1.527199 0
M  V30 END ATOM
M  V30 BEGIN BOND
M  V30 1 1 1 2
M  V30 2 2 2 3
M  V30 3 1 3 4
M  V30 4 2 4 5
M  V30 5 1 5 6
M  V30 6 2 6 7
M  V30 7 2 6 8
M  V30 8 1 6 9
M  V30 9 1 9 10
M  V30 10 1 10 11
M  V30 11 1 11 12
M  V30 12 1 12 13
M  V30 13 2 13 14
M  V30 14 1 13 15
M  V30 15 1 15 16
M  V30 16 1 16 17
M  V30 17 2 17 18
M  V30 18 1 18 19
M  V30 19 2 19 20
M  V30 20 1 20 21
M  V30 21 1 12 22
M  V30 22 1 22 23
M  V30 23 1 5 24
M  V30 24 2 24 25
M  V30 25 1 25 2
M  V30 26 1 23 9
M  V30 27 1 21 17
M  V30 28 1 1 26
M  V30 29 1 1 27
M  V30 30 1 1 28
M  V30 31 1 3 29
M  V30 32 1 4 30
M  V30 33 1 10 31
M  V30 34 1 10 32
M  V30 35 1 11 33
M  V30 36 1 11 34
M  V30 37 1 15 35
M  V30 38 1 15 36
M  V30 39 1 20 37
M  V30 40 1 22 38
M  V30 41 1 22 39
M  V30 42 1 23 40
M  V30 43 1 23 41
M  V30 44 1 24 42
M  V30 45 1 25 43
M  V30 END BOND
M  V30 END CTAB
M  END
>  <Dataset>  (968) 
ChEMBL_Kinases

>  <Ligand_Instance>  (968) 
nan

>  <PDB_ID>  (968) 
nan

>  <Standardized_SMILES>  (968) 
Cc1ccc(S(=O)(=O)N2CCN(C(=O)CSc3nncs3)CC2)cc1

>  <Name>  (968) 
nan

>  <Pocket>  (968) 
nan

>  <ATP_Site>  (968) 
nan

>  <Peripheral>  (968) 
nan

>  <Num_H_Atoms_ProtBoundConf>  (968) 
nan

>  <Num_Resolved_Atoms>  (968) 
nan

>  <Num_Not_Resolved_Atoms>  (968) 
nan

$$$$
CHEMBL1383720
     RDKit          3D

  0  0  0  0  0  0  0  0  0  0999 V3000
M  V30 BEGIN CTAB
M  V30 COUNTS 46 47 0 0 0
M  V30 BEGIN ATOM
M  V30 1 C -3.009225 -5.437916 1.174426 0
M  V30 2 O -3.763402 -4.240352 1.181909 0
M  V30 3 C -3.096448 -3.028938 1.152009 0
M  V30 4 C -1.717845 -3.000931 1.115520 0
M  V30 5 C -1.046336 -1.797979 1.085624 0
M  V30 6 C -1.686959 -0.582306 1.089388 0
M  V30 7 N -1.095418 0.707677 1.041517 0
M  V30 8 C 0.223284 0.933251 0.624569 0
M  V30 9 N 0.701109 0.463970 -0.457148 0
M  V30 10 C -0.081515 -0.325539 -1.322658 0
M  V30 11 C 0.251213 -1.583824 -2.040188 0
M  V30 12 O -1.277819 0.052078 -1.567114 0
M  V30 13 N 1.107740 1.740513 1.401705 0
M  V30 14 C 2.535258 1.705354 1.331490 0
M  V30 15 N 3.356277 2.481095 2.079120 0
M  V30 16 C 4.677576 2.432262 1.998034 0
M  V30 17 C 5.447578 3.347451 2.885242 0
M  V30 18 C 5.255273 1.563764 1.123908 0
M  V30 19 C 4.460075 0.752649 0.340599 0
M  V30 20 C 5.025045 -0.207604 -0.623717 0
M  V30 21 N 3.112099 0.856521 0.476830 0
M  V30 22 C -3.063275 -0.648141 1.126553 0
M  V30 23 C -3.766849 -1.823984 1.157331 0
M  V30 24 O -5.144623 -1.912639 1.194768 0
M  V30 25 C -5.939522 -0.755426 1.204057 0
M  V30 26 H -3.632865 -6.331851 1.174409 0
M  V30 27 H -2.318323 -5.380586 0.305276 0
M  V30 28 H -2.334422 -5.355858 2.076096 0
M  V30 29 H -1.132952 -3.922919 1.109541 0
M  V30 30 H 0.019178 -1.810461 1.072033 0
M  V30 31 H -1.638396 1.561835 1.342784 0
M  V30 32 H -0.580659 -2.308673 -1.910197 0
M  V30 33 H 1.189098 -2.055075 -1.700239 0
M  V30 34 H 0.326146 -1.319406 -3.121554 0
M  V30 35 H 0.689374 2.424829 2.085211 0
M  V30 36 H 5.280621 4.417393 2.645808 0
M  V30 37 H 6.536714 3.171557 2.694737 0
M  V30 38 H 5.296987 3.111037 3.971377 0
M  V30 39 H 6.335808 1.520601 1.054425 0
M  V30 40 H 4.708112 -0.023304 -1.668122 0
M  V30 41 H 4.649800 -1.217247 -0.311486 0
M  V30 42 H 6.128283 -0.199501 -0.499788 0
M  V30 43 H -3.644525 0.275470 1.132528 0
M  V30 44 H -5.547720 -0.020457 0.462582 0
M  V30 45 H -5.900505 -0.269333 2.188942 0
M  V30 46 H -7.004743 -1.005529 1.009763 0
M  V30 END ATOM
M  V30 BEGIN BOND
M  V30 1 1 1 2
M  V30 2 1 2 3
M  V30 3 2 3 4
M  V30 4 1 4 5
M  V30 5 2 5 6
M  V30 6 1 6 7
M  V30 7 1 7 8
M  V30 8 2 8 9 CFG=2
M  V30 9 1 9 10
M  V30 10 1 10 11
M  V30 11 2 10 12
M  V30 12 1 8 13
M  V30 13 1 13 14
M  V30 14 2 14 15
M  V30 15 1 15 16
M  V30 16 1 16 17
M  V30 17 2 16 18
M  V30 18 1 18 19
M  V30 19 1 19 20
M  V30 20 2 19 21
M  V30 21 1 6 22
M  V30 22 2 22 23
M  V30 23 1 23 24
M  V30 24 1 24 25
M  V30 25 1 23 3
M  V30 26 1 21 14
M  V30 27 1 1 26
M  V30 28 1 1 27
M  V30 29 1 1 28
M  V30 30 1 4 29
M  V30 31 1 5 30
M  V30 32 1 7 31
M  V30 33 1 11 32
M  V30 34 1 11 33
M  V30 35 1 11 34
M  V30 36 1 13 35
M  V30 37 1 17 36
M  V30 38 1 17 37
M  V30 39 1 17 38
M  V30 40 1 18 39
M  V30 41 1 20 40
M  V30 42 1 20 41
M  V30 43 1 20 42
M  V30 44 1 22 43
M  V30 45 1 25 44
M  V30 46 1 25 45
M  V30 47 1 25 46
M  V30 END BOND
M  V30 END CTAB
M  END
>  <Dataset>  (969) 
ChEMBL_Kinases

>  <Ligand_Instance>  (969) 
nan

>  <PDB_ID>  (969) 
nan

>  <Standardized_SMILES>  (969) 
COc1ccc(NC(=NC(C)=O)Nc2nc(C)cc(C)n2)cc1OC

>  <Name>  (969) 
nan

>  <Pocket>  (969) 
nan

>  <ATP_Site>  (969) 
nan

>  <Peripheral>  (969) 
nan

>  <Num_H_Atoms_ProtBoundConf>  (969) 
nan

>  <Num_Resolved_Atoms>  (969) 
nan

>  <Num_Not_Resolved_Atoms>  (969) 
nan

$$$$
CHEMBL1383464
     RDKit          3D

  0  0  0  0  0  0  0  0  0  0999 V3000
M  V30 BEGIN CTAB
M  V30 COUNTS 47 49 0 0 0
M  V30 BEGIN ATOM
M  V30 1 O 1.602893 -2.196177 3.875598 0
M  V30 2 C 1.336008 -1.747691 2.715975 0
M  V30 3 C 2.527021 -1.838268 1.849122 0
M  V30 4 N 2.323512 -1.353129 0.511330 0
M  V30 5 C 3.328337 -1.339758 -0.503924 0
M  V30 6 O 4.435894 -1.802026 -0.113873 0
M  V30 7 C 3.068586 -0.835765 -1.846891 0
M  V30 8 C 1.869790 -0.325664 -2.300039 0
M  V30 9 C 1.796469 0.111743 -3.612786 0
M  V30 10 C 2.837224 0.078664 -4.515690 0
M  V30 11 C 4.016420 -0.438687 -4.020630 0
M  V30 12 C 4.145042 -0.888606 -2.721840 0
M  V30 13 O 0.094825 -1.258622 2.371423 0
M  V30 14 C -0.996516 -1.209034 3.271268 0
M  V30 15 C -1.481973 0.186196 3.325023 0
M  V30 16 O -2.459996 0.123394 4.141380 0
M  V30 17 C -1.154470 1.476529 2.738968 0
M  V30 18 C -1.962346 2.514152 3.144543 0
M  V30 19 C -1.651124 3.758840 2.583164 0
M  V30 20 C -0.622611 3.964772 1.690628 0
M  V30 21 C 0.168674 2.905762 1.303901 0
M  V30 22 C -0.125398 1.673909 1.848083 0
M  V30 23 C -2.110950 -2.030746 2.679041 0
M  V30 24 C -2.358645 -1.825567 1.320148 0
M  V30 25 C -3.383445 -2.568055 0.733934 0
M  V30 26 C -4.128525 -3.472871 1.462750 0
M  V30 27 C -3.850127 -3.647859 2.814057 0
M  V30 28 C -2.834963 -2.928658 3.446367 0
M  V30 29 H 3.394856 -1.309334 2.322418 0
M  V30 30 H 2.826578 -2.925716 1.835305 0
M  V30 31 H 1.372032 -0.989980 0.283672 0
M  V30 32 H 1.061811 -0.296667 -1.609586 0
M  V30 33 H 0.842726 0.515290 -3.966094 0
M  V30 34 H 2.695698 0.440643 -5.523805 0
M  V30 35 H 4.870729 -0.482171 -4.710116 0
M  V30 36 H 5.115317 -1.281181 -2.419265 0
M  V30 37 H -0.721473 -1.609161 4.269838 0
M  V30 38 H -2.786781 2.479021 3.827968 0
M  V30 39 H -2.238595 4.626676 2.850171 0
M  V30 40 H -0.418021 4.944116 1.281892 0
M  V30 41 H 0.987432 3.013277 0.607293 0
M  V30 42 H 0.496153 0.857224 1.540638 0
M  V30 43 H -1.788083 -1.123420 0.732716 0
M  V30 44 H -3.638908 -2.462933 -0.330585 0
M  V30 45 H -4.929399 -4.061565 1.031377 0
M  V30 46 H -4.410976 -4.348958 3.425981 0
M  V30 47 H -2.570614 -3.016210 4.480749 0
M  V30 END ATOM
M  V30 BEGIN BOND
M  V30 1 2 1 2
M  V30 2 1 2 3
M  V30 3 1 3 4
M  V30 4 1 4 5
M  V30 5 2 5 6
M  V30 6 1 5 7
M  V30 7 2 7 8
M  V30 8 1 8 9
M  V30 9 2 9 10
M  V30 10 1 10 11
M  V30 11 2 11 12
M  V30 12 1 2 13
M  V30 13 1 13 14
M  V30 14 1 14 15
M  V30 15 2 15 16
M  V30 16 1 15 17
M  V30 17 2 17 18
M  V30 18 1 18 19
M  V30 19 2 19 20
M  V30 20 1 20 21
M  V30 21 2 21 22
M  V30 22 1 14 23
M  V30 23 2 23 24
M  V30 24 1 24 25
M  V30 25 2 25 26
M  V30 26 1 26 27
M  V30 27 2 27 28
M  V30 28 1 12 7
M  V30 29 1 22 17
M  V30 30 1 28 23
M  V30 31 1 3 29
M  V30 32 1 3 30
M  V30 33 1 4 31
M  V30 34 1 8 32
M  V30 35 1 9 33
M  V30 36 1 10 34
M  V30 37 1 11 35
M  V30 38 1 12 36
M  V30 39 1 14 37
M  V30 40 1 18 38
M  V30 41 1 19 39
M  V30 42 1 20 40
M  V30 43 1 21 41
M  V30 44 1 22 42
M  V30 45 1 24 43
M  V30 46 1 25 44
M  V30 47 1 26 45
M  V30 48 1 27 46
M  V30 49 1 28 47
M  V30 END BOND
M  V30 END CTAB
M  END
>  <Dataset>  (970) 
ChEMBL_Kinases

>  <Ligand_Instance>  (970) 
nan

>  <PDB_ID>  (970) 
nan

>  <Standardized_SMILES>  (970) 
O=C(CNC(=O)c1ccccc1)OC(C(=O)c1ccccc1)c1ccccc1

>  <Name>  (970) 
nan

>  <Pocket>  (970) 
nan

>  <ATP_Site>  (970) 
nan

>  <Peripheral>  (970) 
nan

>  <Num_H_Atoms_ProtBoundConf>  (970) 
nan

>  <Num_Resolved_Atoms>  (970) 
nan

>  <Num_Not_Resolved_Atoms>  (970) 
nan

$$$$
CHEMBL138350
     RDKit          3D

  0  0  0  0  0  0  0  0  0  0999 V3000
M  V30 BEGIN CTAB
M  V30 COUNTS 77 78 0 0 0
M  V30 BEGIN ATOM
M  V30 1 C 4.001149 -1.008396 6.658957 0
M  V30 2 C 4.530432 -1.765685 5.458962 0
M  V30 3 C 5.216846 -0.772317 4.552853 0
M  V30 4 C 5.782703 -1.430812 3.317507 0
M  V30 5 C 4.729480 -2.105753 2.488561 0
M  V30 6 C 3.653880 -1.187966 1.986301 0
M  V30 7 C 4.134135 -0.084419 1.123387 0
M  V30 8 C 2.971614 0.774224 0.690201 0
M  V30 9 C 2.019717 -0.073158 -0.071072 0
M  V30 10 C 1.774275 0.286323 -1.352777 0
M  V30 11 C 2.178913 1.326166 -2.305748 0
M  V30 12 C 1.041061 2.104253 -2.834682 0
M  V30 13 C 0.187988 2.920925 -1.977496 0
M  V30 14 C -0.581574 2.244378 -0.869763 0
M  V30 15 C -1.448511 3.233954 -0.133981 0
M  V30 16 C -2.249662 2.759296 0.992743 0
M  V30 17 C -3.331276 1.754773 0.798193 0
M  V30 18 C -2.869913 0.493506 0.270650 0
M  V30 19 C -3.434896 -0.048389 -0.830847 0
M  V30 20 C -3.023811 -1.357632 -1.454175 0
M  V30 21 C -4.080627 -1.747822 -2.386309 0 CFG=2
M  V30 22 C -4.833132 -2.988788 -2.092361 0
M  V30 23 C -4.373359 -4.223855 -1.837452 0
M  V30 24 C -4.954184 -5.573322 -1.524352 0
M  V30 25 C -3.923730 -6.051371 -0.491859 0
M  V30 26 O -2.659284 -5.607845 -1.005007 0
M  V30 27 C -2.923948 -4.495074 -1.830451 0
M  V30 28 O -2.073152 -3.828199 -2.466980 0
M  V30 29 C -3.838383 -1.514162 -3.853309 0
M  V30 30 O -4.998810 -1.686871 -4.607730 0
M  V30 31 O -5.064618 -0.750465 -2.086838 0
M  V30 32 C -4.504168 0.431692 -1.678797 0
M  V30 33 O -4.677937 1.679947 -1.846702 0
M  V30 34 H 3.146524 -1.532534 7.134042 0
M  V30 35 H 3.703560 0.011398 6.305230 0
M  V30 36 H 4.843276 -0.847900 7.370202 0
M  V30 37 H 5.218357 -2.570822 5.794811 0
M  V30 38 H 3.655547 -2.193550 4.953323 0
M  V30 39 H 4.540694 0.058433 4.349309 0
M  V30 40 H 6.084257 -0.357089 5.121224 0
M  V30 41 H 6.402494 -0.717888 2.772183 0
M  V30 42 H 6.451548 -2.243021 3.674940 0
M  V30 43 H 4.244635 -2.878170 3.124583 0
M  V30 44 H 5.216579 -2.642376 1.668219 0
M  V30 45 H 3.013542 -0.824576 2.812985 0
M  V30 46 H 2.990692 -1.850941 1.357739 0
M  V30 47 H 4.605182 -0.456110 0.172536 0
M  V30 48 H 4.911546 0.556045 1.579979 0
M  V30 49 H 3.386529 1.592506 0.076590 0
M  V30 50 H 2.455514 1.230534 1.570762 0
M  V30 51 H 1.523730 -0.936462 0.337129 0
M  V30 52 H 1.060723 -0.373021 -1.861393 0
M  V30 53 H 2.628480 0.779811 -3.199576 0
M  V30 54 H 2.992864 1.983903 -1.884895 0
M  V30 55 H 1.393577 2.777798 -3.694444 0
M  V30 56 H 0.390544 1.352650 -3.393739 0
M  V30 57 H 0.736240 3.805269 -1.555241 0
M  V30 58 H -0.596416 3.400463 -2.628972 0
M  V30 59 H 0.205782 1.942480 -0.120828 0
M  V30 60 H -1.189296 1.417919 -1.227349 0
M  V30 61 H -0.742169 4.040020 0.217219 0
M  V30 62 H -2.138546 3.736810 -0.880286 0
M  V30 63 H -1.493991 2.338500 1.758418 0
M  V30 64 H -2.670843 3.654264 1.572520 0
M  V30 65 H -3.729493 1.549671 1.858496 0
M  V30 66 H -4.168829 2.233552 0.235105 0
M  V30 67 H -2.048506 0.025117 0.817232 0
M  V30 68 H -2.816086 -1.997269 -0.589201 0
M  V30 69 H -2.075779 -1.170073 -2.008601 0
M  V30 70 H -5.942209 -3.073693 -2.041953 0
M  V30 71 H -5.950783 -5.524586 -1.091903 0
M  V30 72 H -4.847544 -6.173638 -2.437588 0
M  V30 73 H -4.178837 -5.561283 0.465172 0
M  V30 74 H -3.879205 -7.134661 -0.397132 0
M  V30 75 H -3.599825 -0.423582 -4.057654 0
M  V30 76 H -2.943168 -2.004339 -4.271939 0
M  V30 77 H -5.306370 -2.619689 -4.451204 0
M  V30 END ATOM
M  V30 BEGIN BOND
M  V30 1 1 1 2
M  V30 2 1 2 3
M  V30 3 1 3 4
M  V30 4 1 4 5
M  V30 5 1 5 6
M  V30 6 1 6 7
M  V30 7 1 7 8
M  V30 8 1 8 9
M  V30 9 2 9 10
M  V30 10 1 10 11
M  V30 11 1 11 12
M  V30 12 1 12 13
M  V30 13 1 13 14
M  V30 14 1 14 15
M  V30 15 1 15 16
M  V30 16 1 16 17
M  V30 17 1 17 18
M  V30 18 2 18 19
M  V30 19 1 19 20
M  V30 20 1 20 21
M  V30 21 1 21 22
M  V30 22 2 22 23
M  V30 23 1 23 24
M  V30 24 1 24 25
M  V30 25 1 25 26
M  V30 26 1 26 27
M  V30 27 2 27 28
M  V30 28 1 21 29 CFG=3
M  V30 29 1 29 30
M  V30 30 1 21 31
M  V30 31 1 31 32
M  V30 32 2 32 33
M  V30 33 1 32 19
M  V30 34 1 27 23
M  V30 35 1 1 34
M  V30 36 1 1 35
M  V30 37 1 1 36
M  V30 38 1 2 37
M  V30 39 1 2 38
M  V30 40 1 3 39
M  V30 41 1 3 40
M  V30 42 1 4 41
M  V30 43 1 4 42
M  V30 44 1 5 43
M  V30 45 1 5 44
M  V30 46 1 6 45
M  V30 47 1 6 46
M  V30 48 1 7 47
M  V30 49 1 7 48
M  V30 50 1 8 49
M  V30 51 1 8 50
M  V30 52 1 9 51
M  V30 53 1 10 52
M  V30 54 1 11 53
M  V30 55 1 11 54
M  V30 56 1 12 55
M  V30 57 1 12 56
M  V30 58 1 13 57
M  V30 59 1 13 58
M  V30 60 1 14 59
M  V30 61 1 14 60
M  V30 62 1 15 61
M  V30 63 1 15 62
M  V30 64 1 16 63
M  V30 65 1 16 64
M  V30 66 1 17 65
M  V30 67 1 17 66
M  V30 68 1 18 67
M  V30 69 1 20 68
M  V30 70 1 20 69
M  V30 71 1 22 70
M  V30 72 1 24 71
M  V30 73 1 24 72
M  V30 74 1 25 73
M  V30 75 1 25 74
M  V30 76 1 29 75
M  V30 77 1 29 76
M  V30 78 1 30 77
M  V30 END BOND
M  V30 END CTAB
M  END
>  <Dataset>  (971) 
ChEMBL_Kinases

>  <Ligand_Instance>  (971) 
nan

>  <PDB_ID>  (971) 
nan

>  <Standardized_SMILES>  (971) 
CCCCCCCC/C=C\CCCCCCC/C=C1/C[C@](/C=C2/CCOC2=O)(CO)OC1=O

>  <Name>  (971) 
nan

>  <Pocket>  (971) 
nan

>  <ATP_Site>  (971) 
nan

>  <Peripheral>  (971) 
nan

>  <Num_H_Atoms_ProtBoundConf>  (971) 
nan

>  <Num_Resolved_Atoms>  (971) 
nan

>  <Num_Not_Resolved_Atoms>  (971) 
nan

$$$$
CHEMBL138351
     RDKit          3D

  0  0  0  0  0  0  0  0  0  0999 V3000
M  V30 BEGIN CTAB
M  V30 COUNTS 78 78 0 0 0
M  V30 BEGIN ATOM
M  V30 1 C 3.226317 -3.335989 2.035264 0
M  V30 2 C 4.529069 -3.962002 2.351529 0
M  V30 3 C 5.731691 -3.133729 2.457336 0
M  V30 4 C 6.396433 -2.411597 1.411694 0
M  V30 5 C 5.902805 -1.371550 0.531039 0
M  V30 6 C 4.880903 -1.622533 -0.505882 0
M  V30 7 C 4.587048 -0.337012 -1.302784 0
M  V30 8 C 3.551018 -0.617154 -2.365127 0
M  V30 9 C 3.333996 0.703099 -3.073686 0
M  V30 10 C 2.167289 1.330900 -3.149114 0
M  V30 11 C 0.786460 1.075523 -2.665122 0
M  V30 12 C 0.302911 2.131283 -1.728285 0
M  V30 13 C -1.137633 1.862112 -1.266221 0
M  V30 14 C -1.473670 2.958823 -0.317936 0
M  V30 15 C -2.836373 2.957180 0.264776 0
M  V30 16 C -3.957005 3.094348 -0.722494 0
M  V30 17 C -5.283193 3.085272 -0.003149 0
M  V30 18 C -5.588718 1.821795 0.736830 0
M  V30 19 C -5.672921 0.644005 -0.152594 0
M  V30 20 C -5.046867 -0.513651 -0.199007 0
M  V30 21 C -3.989229 -0.943471 0.748996 0
M  V30 22 C -3.714145 -2.346463 0.269024 0 CFG=1
M  V30 23 C -2.521823 -2.316250 -0.665336 0
M  V30 24 O -2.317510 -3.547424 -1.246631 0
M  V30 25 C -3.485700 -3.222113 1.484029 0
M  V30 26 O -2.276932 -2.795389 2.083175 0
M  V30 27 C -1.768603 -3.403826 3.230732 0
M  V30 28 C -0.518707 -3.050606 3.946979 0
M  V30 29 O -2.431220 -4.367513 3.733525 0
M  V30 30 O -4.893277 -2.706275 -0.415888 0
M  V30 31 C -5.267658 -1.578355 -1.166163 0
M  V30 32 O -5.693416 -1.433768 -2.365060 0
M  V30 33 H 2.798661 -3.635294 1.064113 0
M  V30 34 H 2.445852 -3.577140 2.837461 0
M  V30 35 H 3.273086 -2.226445 2.054379 0
M  V30 36 H 4.679055 -4.824349 1.607888 0
M  V30 37 H 4.373033 -4.550720 3.320010 0
M  V30 38 H 5.608036 -2.395807 3.363639 0
M  V30 39 H 6.545978 -3.821529 2.947508 0
M  V30 40 H 6.951045 -3.187070 0.721185 0
M  V30 41 H 7.368124 -1.973264 1.919769 0
M  V30 42 H 6.811420 -0.946298 -0.034678 0
M  V30 43 H 5.624871 -0.420792 1.138928 0
M  V30 44 H 3.941119 -1.981934 -0.142754 0
M  V30 45 H 5.311896 -2.316639 -1.291994 0
M  V30 46 H 4.260504 0.419823 -0.587325 0
M  V30 47 H 5.487864 0.048149 -1.810221 0
M  V30 48 H 2.613885 -0.930978 -1.868524 0
M  V30 49 H 3.965449 -1.329004 -3.084436 0
M  V30 50 H 4.188364 1.166695 -3.553460 0
M  V30 51 H 2.133121 2.291599 -3.691501 0
M  V30 52 H 0.759737 0.068681 -2.178837 0
M  V30 53 H 0.113855 1.007795 -3.560295 0
M  V30 54 H 0.380682 3.127989 -2.193021 0
M  V30 55 H 0.982184 2.162087 -0.849025 0
M  V30 56 H -1.105106 0.849743 -0.813159 0
M  V30 57 H -1.758028 1.893029 -2.190093 0
M  V30 58 H -1.220126 3.921887 -0.842140 0
M  V30 59 H -0.714083 2.912180 0.507652 0
M  V30 60 H -2.985576 2.071971 0.910243 0
M  V30 61 H -2.881295 3.831895 0.976936 0
M  V30 62 H -3.877634 4.085262 -1.225978 0
M  V30 63 H -3.966673 2.315868 -1.491054 0
M  V30 64 H -5.327629 3.907525 0.771831 0
M  V30 65 H -6.131932 3.290955 -0.709078 0
M  V30 66 H -4.868137 1.663322 1.565996 0
M  V30 67 H -6.597074 1.968927 1.204596 0
M  V30 68 H -6.448963 0.876544 -0.904897 0
M  V30 69 H -3.089065 -0.303266 0.719851 0
M  V30 70 H -4.433803 -0.941187 1.774349 0
M  V30 71 H -2.791200 -1.550255 -1.450698 0
M  V30 72 H -1.625712 -1.950816 -0.131408 0
M  V30 73 H -1.468469 -3.577814 -1.745683 0
M  V30 74 H -3.534866 -4.286657 1.253304 0
M  V30 75 H -4.303951 -2.927413 2.204375 0
M  V30 76 H -0.015833 -2.173160 3.530521 0
M  V30 77 H -0.646404 -2.945931 5.043390 0
M  V30 78 H 0.187253 -3.906300 3.759806 0
M  V30 END ATOM
M  V30 BEGIN BOND
M  V30 1 1 1 2
M  V30 2 1 2 3
M  V30 3 1 3 4
M  V30 4 1 4 5
M  V30 5 1 5 6
M  V30 6 1 6 7
M  V30 7 1 7 8
M  V30 8 1 8 9
M  V30 9 2 9 10
M  V30 10 1 10 11
M  V30 11 1 11 12
M  V30 12 1 12 13
M  V30 13 1 13 14
M  V30 14 1 14 15
M  V30 15 1 15 16
M  V30 16 1 16 17
M  V30 17 1 17 18
M  V30 18 1 18 19
M  V30 19 2 19 20
M  V30 20 1 20 21
M  V30 21 1 21 22
M  V30 22 1 22 23 CFG=3
M  V30 23 1 23 24
M  V30 24 1 22 25
M  V30 25 1 25 26
M  V30 26 1 26 27
M  V30 27 1 27 28
M  V30 28 2 27 29
M  V30 29 1 22 30
M  V30 30 1 30 31
M  V30 31 2 31 32
M  V30 32 1 31 20
M  V30 33 1 1 33
M  V30 34 1 1 34
M  V30 35 1 1 35
M  V30 36 1 2 36
M  V30 37 1 2 37
M  V30 38 1 3 38
M  V30 39 1 3 39
M  V30 40 1 4 40
M  V30 41 1 4 41
M  V30 42 1 5 42
M  V30 43 1 5 43
M  V30 44 1 6 44
M  V30 45 1 6 45
M  V30 46 1 7 46
M  V30 47 1 7 47
M  V30 48 1 8 48
M  V30 49 1 8 49
M  V30 50 1 9 50
M  V30 51 1 10 51
M  V30 52 1 11 52
M  V30 53 1 11 53
M  V30 54 1 12 54
M  V30 55 1 12 55
M  V30 56 1 13 56
M  V30 57 1 13 57
M  V30 58 1 14 58
M  V30 59 1 14 59
M  V30 60 1 15 60
M  V30 61 1 15 61
M  V30 62 1 16 62
M  V30 63 1 16 63
M  V30 64 1 17 64
M  V30 65 1 17 65
M  V30 66 1 18 66
M  V30 67 1 18 67
M  V30 68 1 19 68
M  V30 69 1 21 69
M  V30 70 1 21 70
M  V30 71 1 23 71
M  V30 72 1 23 72
M  V30 73 1 24 73
M  V30 74 1 25 74
M  V30 75 1 25 75
M  V30 76 1 28 76
M  V30 77 1 28 77
M  V30 78 1 28 78
M  V30 END BOND
M  V30 END CTAB
M  END
>  <Dataset>  (972) 
ChEMBL_Kinases

>  <Ligand_Instance>  (972) 
nan

>  <PDB_ID>  (972) 
nan

>  <Standardized_SMILES>  (972) 
CCCCCCCC/C=C\CCCCCCCC/C=C1\C[C@@](CO)(COC(C)=O)OC1=O

>  <Name>  (972) 
nan

>  <Pocket>  (972) 
nan

>  <ATP_Site>  (972) 
nan

>  <Peripheral>  (972) 
nan

>  <Num_H_Atoms_ProtBoundConf>  (972) 
nan

>  <Num_Resolved_Atoms>  (972) 
nan

>  <Num_Not_Resolved_Atoms>  (972) 
nan

$$$$
CHEMBL138352
     RDKit          3D

  0  0  0  0  0  0  0  0  0  0999 V3000
M  V30 BEGIN CTAB
M  V30 COUNTS 77 78 0 0 0
M  V30 BEGIN ATOM
M  V30 1 C -0.418262 -1.367358 4.606563 0
M  V30 2 C -0.167189 -2.778188 4.136889 0
M  V30 3 C 1.282036 -3.057135 3.945381 0
M  V30 4 C 1.853235 -2.107360 2.906027 0
M  V30 5 C 1.156988 -2.259921 1.579682 0
M  V30 6 C 1.706447 -1.330731 0.507419 0
M  V30 7 C 3.149800 -1.556454 0.248949 0
M  V30 8 C 3.791869 -0.692945 -0.780071 0
M  V30 9 C 3.220317 -0.849085 -2.113181 0
M  V30 10 C 2.625882 -0.112029 -3.082200 0
M  V30 11 C 2.457453 1.311930 -2.777456 0
M  V30 12 C 1.019444 1.733224 -2.989619 0
M  V30 13 C 0.820640 3.178795 -2.593618 0
M  V30 14 C 0.928974 3.369764 -1.099383 0
M  V30 15 C -0.327376 2.739411 -0.420497 0
M  V30 16 C -0.117218 2.867665 1.029135 0
M  V30 17 C -1.176936 2.588901 1.994402 0
M  V30 18 C -1.963953 1.418013 2.104089 0
M  V30 19 C -2.465691 0.286748 1.713788 0
M  V30 20 C -2.057669 -0.173095 0.362009 0
M  V30 21 C -2.958565 -1.356998 0.062870 0 CFG=2
M  V30 22 C -2.189183 -2.555067 0.175633 0
M  V30 23 C -1.582843 -3.287024 -0.763689 0
M  V30 24 C -1.588361 -2.983054 -2.196374 0
M  V30 25 C -1.020946 -4.285491 -2.754303 0
M  V30 26 O -0.092650 -4.720962 -1.778621 0
M  V30 27 C -0.792208 -4.526347 -0.571348 0
M  V30 28 O -0.792875 -5.226188 0.499975 0
M  V30 29 C -3.753251 -1.050400 -1.143745 0
M  V30 30 O -4.744492 -2.017068 -1.338716 0
M  V30 31 O -3.909849 -1.356924 1.149353 0
M  V30 32 C -3.351736 -0.710205 2.237543 0
M  V30 33 O -3.465001 -0.821137 3.509163 0
M  V30 34 H -1.251548 -1.359763 5.346494 0
M  V30 35 H -0.696040 -0.685746 3.788538 0
M  V30 36 H 0.515130 -1.033649 5.106929 0
M  V30 37 H -0.552077 -3.494220 4.921199 0
M  V30 38 H -0.743954 -2.993133 3.228883 0
M  V30 39 H 1.853968 -2.853045 4.893281 0
M  V30 40 H 1.465069 -4.097722 3.609704 0
M  V30 41 H 1.772585 -1.093927 3.293782 0
M  V30 42 H 2.924725 -2.399198 2.747139 0
M  V30 43 H 0.086967 -1.933837 1.734359 0
M  V30 44 H 1.125917 -3.289358 1.215261 0
M  V30 45 H 1.532742 -0.301162 0.903195 0
M  V30 46 H 1.073215 -1.468648 -0.386142 0
M  V30 47 H 3.305526 -2.638231 -0.053100 0
M  V30 48 H 3.744204 -1.481703 1.201314 0
M  V30 49 H 3.667024 0.372155 -0.391452 0
M  V30 50 H 4.909181 -0.918575 -0.789570 0
M  V30 51 H 3.349248 -1.927275 -2.325776 0
M  V30 52 H 2.324685 -0.600904 -3.986919 0
M  V30 53 H 3.048222 1.866981 -3.574479 0
M  V30 54 H 2.901517 1.630732 -1.838645 0
M  V30 55 H 0.800295 1.715513 -4.102597 0
M  V30 56 H 0.297629 1.103880 -2.497003 0
M  V30 57 H 1.669132 3.738210 -3.039448 0
M  V30 58 H -0.139464 3.509021 -2.990585 0
M  V30 59 H 1.032184 4.414370 -0.785682 0
M  V30 60 H 1.768313 2.792440 -0.683254 0
M  V30 61 H -1.184056 3.313782 -0.811706 0
M  V30 62 H -0.295240 1.684168 -0.776968 0
M  V30 63 H 0.856314 2.343008 1.258397 0
M  V30 64 H 0.183651 3.958975 1.201057 0
M  V30 65 H -1.867426 3.522352 1.961801 0
M  V30 66 H -0.647929 2.833754 3.013537 0
M  V30 67 H -2.419053 1.571677 3.127455 0
M  V30 68 H -2.299038 0.662567 -0.371024 0
M  V30 69 H -0.989633 -0.374628 0.281426 0
M  V30 70 H -2.039905 -2.986309 1.184749 0
M  V30 71 H -2.544742 -2.897311 -2.692846 0
M  V30 72 H -0.839555 -2.214599 -2.486317 0
M  V30 73 H -0.565875 -4.064916 -3.716563 0
M  V30 74 H -1.845952 -5.027600 -2.793930 0
M  V30 75 H -4.393394 -0.147917 -0.878492 0
M  V30 76 H -3.241498 -0.715814 -2.035827 0
M  V30 77 H -4.866157 -2.260670 -2.270550 0
M  V30 END ATOM
M  V30 BEGIN BOND
M  V30 1 1 1 2
M  V30 2 1 2 3
M  V30 3 1 3 4
M  V30 4 1 4 5
M  V30 5 1 5 6
M  V30 6 1 6 7
M  V30 7 1 7 8
M  V30 8 1 8 9
M  V30 9 2 9 10
M  V30 10 1 10 11
M  V30 11 1 11 12
M  V30 12 1 12 13
M  V30 13 1 13 14
M  V30 14 1 14 15
M  V30 15 1 15 16
M  V30 16 1 16 17
M  V30 17 1 17 18
M  V30 18 2 18 19
M  V30 19 1 19 20
M  V30 20 1 20 21
M  V30 21 1 21 22
M  V30 22 2 22 23
M  V30 23 1 23 24
M  V30 24 1 24 25
M  V30 25 1 25 26
M  V30 26 1 26 27
M  V30 27 2 27 28
M  V30 28 1 21 29 CFG=3
M  V30 29 1 29 30
M  V30 30 1 21 31
M  V30 31 1 31 32
M  V30 32 2 32 33
M  V30 33 1 32 19
M  V30 34 1 27 23
M  V30 35 1 1 34
M  V30 36 1 1 35
M  V30 37 1 1 36
M  V30 38 1 2 37
M  V30 39 1 2 38
M  V30 40 1 3 39
M  V30 41 1 3 40
M  V30 42 1 4 41
M  V30 43 1 4 42
M  V30 44 1 5 43
M  V30 45 1 5 44
M  V30 46 1 6 45
M  V30 47 1 6 46
M  V30 48 1 7 47
M  V30 49 1 7 48
M  V30 50 1 8 49
M  V30 51 1 8 50
M  V30 52 1 9 51
M  V30 53 1 10 52
M  V30 54 1 11 53
M  V30 55 1 11 54
M  V30 56 1 12 55
M  V30 57 1 12 56
M  V30 58 1 13 57
M  V30 59 1 13 58
M  V30 60 1 14 59
M  V30 61 1 14 60
M  V30 62 1 15 61
M  V30 63 1 15 62
M  V30 64 1 16 63
M  V30 65 1 16 64
M  V30 66 1 17 65
M  V30 67 1 17 66
M  V30 68 1 18 67
M  V30 69 1 20 68
M  V30 70 1 20 69
M  V30 71 1 22 70
M  V30 72 1 24 71
M  V30 73 1 24 72
M  V30 74 1 25 73
M  V30 75 1 25 74
M  V30 76 1 29 75
M  V30 77 1 29 76
M  V30 78 1 30 77
M  V30 END BOND
M  V30 END CTAB
M  END
>  <Dataset>  (973) 
ChEMBL_Kinases

>  <Ligand_Instance>  (973) 
nan

>  <PDB_ID>  (973) 
nan

>  <Standardized_SMILES>  (973) 
CCCCCCCC/C=C\CCCCCCC/C=C1\C[C@](/C=C2\CCOC2=O)(CO)OC1=O

>  <Name>  (973) 
nan

>  <Pocket>  (973) 
nan

>  <ATP_Site>  (973) 
nan

>  <Peripheral>  (973) 
nan

>  <Num_H_Atoms_ProtBoundConf>  (973) 
nan

>  <Num_Resolved_Atoms>  (973) 
nan

>  <Num_Not_Resolved_Atoms>  (973) 
nan

$$$$
CHEMBL1383533
     RDKit          3D

  0  0  0  0  0  0  0  0  0  0999 V3000
M  V30 BEGIN CTAB
M  V30 COUNTS 56 60 0 0 0
M  V30 BEGIN ATOM
M  V30 1 C 5.648092 -3.549996 6.285683 0
M  V30 2 O 4.530301 -4.208751 5.722291 0
M  V30 3 C 3.817753 -3.681596 4.653678 0
M  V30 4 C 4.084300 -2.489432 4.012693 0
M  V30 5 C 3.300101 -2.071283 2.958004 0
M  V30 6 C 2.227728 -2.798628 2.488870 0
M  V30 7 C 1.374187 -2.393697 1.378323 0
M  V30 8 C 1.567711 -1.226815 0.687018 0
M  V30 9 C 0.773117 -0.822703 -0.367333 0
M  V30 10 C 0.928534 0.387936 -1.127650 0
M  V30 11 O 1.700310 0.154866 -2.111719 0
M  V30 12 N 0.209645 1.498287 -0.610374 0
M  V30 13 C -0.639149 1.518741 0.577552 0
M  V30 14 C -1.775327 2.474229 0.283371 0
M  V30 15 N -2.017894 2.438206 -1.143308 0
M  V30 16 C -3.125664 1.804848 -1.767295 0
M  V30 17 C -4.089719 1.142214 -1.039652 0
M  V30 18 C -5.170660 0.526988 -1.676552 0
M  V30 19 C -5.238887 0.606689 -3.064775 0
M  V30 20 C -4.264161 1.273604 -3.765858 0
M  V30 21 N -3.241921 1.849595 -3.097484 0
M  V30 22 C -1.014652 3.119068 -1.941905 0
M  V30 23 C 0.332905 2.758309 -1.348804 0
M  V30 24 C -0.274377 -1.641404 -0.744610 0
M  V30 25 C -1.131849 -1.334802 -1.785300 0
M  V30 26 C -2.178175 -2.158179 -2.157913 0
M  V30 27 C -2.342220 -3.328758 -1.435949 0
M  V30 28 C -1.505940 -3.679532 -0.382226 0
M  V30 29 C -0.464218 -2.821617 -0.039852 0
M  V30 30 N 0.343717 -3.164291 0.981058 0
M  V30 31 C 1.967434 -3.989203 3.134546 0
M  V30 32 C 2.749133 -4.429708 4.203636 0
M  V30 33 H 5.509709 -2.456255 6.255153 0
M  V30 34 H 6.518964 -3.811703 5.645248 0
M  V30 35 H 5.769773 -3.923064 7.323236 0
M  V30 36 H 4.924821 -1.915221 4.377309 0
M  V30 37 H 3.536597 -1.149570 2.491235 0
M  V30 38 H 2.362275 -0.555669 0.935690 0
M  V30 39 H -0.031956 2.002583 1.397342 0
M  V30 40 H -0.941787 0.538626 0.933936 0
M  V30 41 H -2.635192 2.250388 0.909815 0
M  V30 42 H -1.462776 3.517958 0.537583 0
M  V30 43 H -4.046028 1.074294 0.038231 0
M  V30 44 H -5.911310 0.011983 -1.050307 0
M  V30 45 H -6.098682 0.109224 -3.479905 0
M  V30 46 H -4.362979 1.307089 -4.845137 0
M  V30 47 H -1.075789 2.776161 -3.009974 0
M  V30 48 H -1.137062 4.221499 -1.869569 0
M  V30 49 H 1.054276 2.702011 -2.162686 0
M  V30 50 H 0.618220 3.505055 -0.563681 0
M  V30 51 H -0.943634 -0.415853 -2.295888 0
M  V30 52 H -2.817774 -1.867001 -2.981028 0
M  V30 53 H -3.185933 -3.929849 -1.783572 0
M  V30 54 H -1.692068 -4.599955 0.131435 0
M  V30 55 H 1.136647 -4.582996 2.793807 0
M  V30 56 H 2.455038 -5.378786 4.636411 0
M  V30 END ATOM
M  V30 BEGIN BOND
M  V30 1 1 1 2
M  V30 2 1 2 3
M  V30 3 2 3 4
M  V30 4 1 4 5
M  V30 5 2 5 6
M  V30 6 1 6 7
M  V30 7 2 7 8
M  V30 8 1 8 9
M  V30 9 1 9 10
M  V30 10 2 10 11
M  V30 11 1 10 12
M  V30 12 1 12 13
M  V30 13 1 13 14
M  V30 14 1 14 15
M  V30 15 1 15 16
M  V30 16 2 16 17
M  V30 17 1 17 18
M  V30 18 2 18 19
M  V30 19 1 19 20
M  V30 20 2 20 21
M  V30 21 1 15 22
M  V30 22 1 22 23
M  V30 23 2 9 24
M  V30 24 1 24 25
M  V30 25 2 25 26
M  V30 26 1 26 27
M  V30 27 2 27 28
M  V30 28 1 28 29
M  V30 29 2 29 30
M  V30 30 1 6 31
M  V30 31 2 31 32
M  V30 32 1 32 3
M  V30 33 1 30 7
M  V30 34 1 23 12
M  V30 35 1 29 24
M  V30 36 1 21 16
M  V30 37 1 1 33
M  V30 38 1 1 34
M  V30 39 1 1 35
M  V30 40 1 4 36
M  V30 41 1 5 37
M  V30 42 1 8 38
M  V30 43 1 13 39
M  V30 44 1 13 40
M  V30 45 1 14 41
M  V30 46 1 14 42
M  V30 47 1 17 43
M  V30 48 1 18 44
M  V30 49 1 19 45
M  V30 50 1 20 46
M  V30 51 1 22 47
M  V30 52 1 22 48
M  V30 53 1 23 49
M  V30 54 1 23 50
M  V30 55 1 25 51
M  V30 56 1 26 52
M  V30 57 1 27 53
M  V30 58 1 28 54
M  V30 59 1 31 55
M  V30 60 1 32 56
M  V30 END BOND
M  V30 END CTAB
M  END
>  <Dataset>  (974) 
ChEMBL_Kinases

>  <Ligand_Instance>  (974) 
nan

>  <PDB_ID>  (974) 
nan

>  <Standardized_SMILES>  (974) 
COc1ccc(-c2cc(C(=O)N3CCN(c4ccccn4)CC3)c3ccccc3n2)cc1

>  <Name>  (974) 
nan

>  <Pocket>  (974) 
nan

>  <ATP_Site>  (974) 
nan

>  <Peripheral>  (974) 
nan

>  <Num_H_Atoms_ProtBoundConf>  (974) 
nan

>  <Num_Resolved_Atoms>  (974) 
nan

>  <Num_Not_Resolved_Atoms>  (974) 
nan

$$$$
CHEMBL1383591
     RDKit          3D

  0  0  0  0  0  0  0  0  0  0999 V3000
M  V30 BEGIN CTAB
M  V30 COUNTS 37 39 0 0 0
M  V30 BEGIN ATOM
M  V30 1 N 1.356491 -3.708455 3.144556 0
M  V30 2 C 0.996301 -2.416562 2.667703 0
M  V30 3 C 1.917146 -1.439509 2.361297 0
M  V30 4 C 1.152776 -0.367961 1.944607 0
M  V30 5 O 1.690043 0.864147 1.529847 0
M  V30 6 C 2.014238 1.090505 0.195425 0
M  V30 7 O 1.717534 0.019451 -0.394507 0
M  V30 8 C 2.573941 2.339446 -0.309218 0
M  V30 9 C 2.814008 2.320737 -1.688127 0
M  V30 10 C 3.348578 3.464464 -2.273169 0
M  V30 11 C 3.634044 4.578474 -1.530417 0
M  V30 12 C 3.378558 4.541505 -0.182209 0
M  V30 13 C 2.852384 3.448548 0.462436 0
M  V30 14 Br 2.480102 3.346849 2.326710 0
M  V30 15 N -0.162702 -0.728150 2.013200 0
M  V30 16 N -0.267178 -1.960764 2.447807 0
M  V30 17 S -1.721608 -2.868987 2.705420 0
M  V30 18 O -2.546049 -2.089697 3.697773 0
M  V30 19 O -1.375421 -4.216719 3.265599 0
M  V30 20 C -2.524874 -3.008853 1.156730 0
M  V30 21 C -3.436654 -2.010746 0.810769 0
M  V30 22 C -4.105940 -2.072729 -0.413027 0
M  V30 23 C -3.809285 -3.146757 -1.214966 0
M  V30 24 C -2.917017 -4.133350 -0.888427 0
M  V30 25 C -2.256663 -4.073794 0.317087 0
M  V30 26 H 1.442446 -4.181979 4.086980 0
M  V30 27 H 1.599918 -4.357424 2.342794 0
M  V30 28 H 2.997819 -1.459629 2.417611 0
M  V30 29 H 2.605263 1.464416 -2.318680 0
M  V30 30 H 3.535349 3.454183 -3.336997 0
M  V30 31 H 4.045341 5.441354 -2.016422 0
M  V30 32 H 3.593763 5.406357 0.430215 0
M  V30 33 H -3.634688 -1.179914 1.485072 0
M  V30 34 H -4.811608 -1.308251 -0.690541 0
M  V30 35 H -4.330341 -3.203594 -2.178197 0
M  V30 36 H -2.702748 -4.958412 -1.527842 0
M  V30 37 H -1.545623 -4.844621 0.596078 0
M  V30 END ATOM
M  V30 BEGIN BOND
M  V30 1 1 1 2
M  V30 2 2 2 3
M  V30 3 1 3 4
M  V30 4 1 4 5
M  V30 5 1 5 6
M  V30 6 2 6 7
M  V30 7 1 6 8
M  V30 8 2 8 9
M  V30 9 1 9 10
M  V30 10 2 10 11
M  V30 11 1 11 12
M  V30 12 2 12 13
M  V30 13 1 13 14
M  V30 14 2 4 15
M  V30 15 1 15 16
M  V30 16 1 16 17
M  V30 17 2 17 18
M  V30 18 2 17 19
M  V30 19 1 17 20
M  V30 20 2 20 21
M  V30 21 1 21 22
M  V30 22 2 22 23
M  V30 23 1 23 24
M  V30 24 2 24 25
M  V30 25 1 16 2
M  V30 26 1 25 20
M  V30 27 1 13 8
M  V30 28 1 1 26
M  V30 29 1 1 27
M  V30 30 1 3 28
M  V30 31 1 9 29
M  V30 32 1 10 30
M  V30 33 1 11 31
M  V30 34 1 12 32
M  V30 35 1 21 33
M  V30 36 1 22 34
M  V30 37 1 23 35
M  V30 38 1 24 36
M  V30 39 1 25 37
M  V30 END BOND
M  V30 END CTAB
M  END
>  <Dataset>  (975) 
ChEMBL_Kinases

>  <Ligand_Instance>  (975) 
nan

>  <PDB_ID>  (975) 
nan

>  <Standardized_SMILES>  (975) 
Nc1cc(OC(=O)c2ccccc2Br)nn1S(=O)(=O)c1ccccc1

>  <Name>  (975) 
nan

>  <Pocket>  (975) 
nan

>  <ATP_Site>  (975) 
nan

>  <Peripheral>  (975) 
nan

>  <Num_H_Atoms_ProtBoundConf>  (975) 
nan

>  <Num_Resolved_Atoms>  (975) 
nan

>  <Num_Not_Resolved_Atoms>  (975) 
nan

$$$$
CHEMBL1383639
     RDKit          3D

  0  0  0  0  0  0  0  0  0  0999 V3000
M  V30 BEGIN CTAB
M  V30 COUNTS 56 59 0 0 0
M  V30 BEGIN ATOM
M  V30 1 N 1.540025 -2.409626 0.051777 0
M  V30 2 C 0.410443 -2.491054 0.085415 0
M  V30 3 C -0.999569 -2.617305 0.122361 0
M  V30 4 C -1.684893 -1.517790 0.088102 0
M  V30 5 C -1.411192 -0.111571 0.023938 0
M  V30 6 C -0.459639 0.806807 -0.015190 0
M  V30 7 N 0.953529 0.653934 0.004696 0
M  V30 8 C 1.663618 0.587093 -1.286543 0
M  V30 9 C 3.135606 0.637932 -0.942595 0
M  V30 10 O 3.433508 -0.038728 0.209575 0
M  V30 11 C 2.922551 0.426667 1.374614 0
M  V30 12 C 1.439504 0.578605 1.365848 0
M  V30 13 C -1.011250 2.143792 -0.111260 0
M  V30 14 C -0.693816 3.376485 0.137839 0
M  V30 15 C 0.591618 3.702040 0.688791 0
M  V30 16 C 0.400001 4.206994 1.996566 0
M  V30 17 C 1.424431 4.668080 2.803436 0
M  V30 18 C 2.719552 4.659118 2.362345 0
M  V30 19 C 2.925604 4.172057 1.091842 0
M  V30 20 C 1.909034 3.715917 0.294380 0
M  V30 21 C -2.386841 1.935206 -0.701466 0
M  V30 22 C -2.725460 0.626888 -0.011082 0
M  V30 23 C -1.548279 -3.966001 0.191365 0
M  V30 24 O -2.801010 -4.195383 0.227255 0
M  V30 25 N -0.718778 -5.112582 0.222407 0
M  V30 26 C -1.589132 -6.268806 0.285893 0
M  V30 27 C -1.977744 -6.791878 -0.932831 0
M  V30 28 C -2.821272 -7.912723 -1.013036 0
M  V30 29 C -3.177916 -8.378888 0.231045 0
M  V30 30 C -2.836985 -7.918705 1.483238 0
M  V30 31 C -2.008688 -6.818865 1.477698 0
M  V30 32 F -1.609623 -6.281372 2.648042 0
M  V30 33 H -2.714973 -1.840007 0.125988 0
M  V30 34 H 1.394552 1.430681 -1.953490 0
M  V30 35 H 1.478386 -0.383796 -1.802909 0
M  V30 36 H 3.555896 1.643977 -0.875451 0
M  V30 37 H 3.651631 0.140046 -1.822118 0
M  V30 38 H 3.265629 -0.277887 2.187183 0
M  V30 39 H 3.350673 1.411504 1.685422 0
M  V30 40 H 0.997687 -0.373321 1.805287 0
M  V30 41 H 1.086030 1.402094 2.027278 0
M  V30 42 H -1.321618 4.232358 -0.036548 0
M  V30 43 H -0.555119 4.301252 2.540675 0
M  V30 44 H 1.299852 5.058445 3.807880 0
M  V30 45 H 3.587615 4.993804 2.907684 0
M  V30 46 H 3.903967 4.115564 0.636172 0
M  V30 47 H 1.946310 3.340835 -0.713639 0
M  V30 48 H -2.215582 1.701042 -1.772766 0
M  V30 49 H -3.092040 2.720011 -0.483768 0
M  V30 50 H -3.436661 0.044085 -0.620503 0
M  V30 51 H -3.025403 0.762009 1.035217 0
M  V30 52 H 0.302610 -4.923869 0.195269 0
M  V30 53 H -1.639721 -6.346737 -1.877858 0
M  V30 54 H -3.152444 -8.358165 -1.918815 0
M  V30 55 H -3.842712 -9.261274 0.219221 0
M  V30 56 H -3.207999 -8.404856 2.372967 0
M  V30 END ATOM
M  V30 BEGIN BOND
M  V30 1 3 1 2
M  V30 2 1 2 3
M  V30 3 2 3 4
M  V30 4 1 4 5
M  V30 5 2 5 6
M  V30 6 1 6 7
M  V30 7 1 7 8
M  V30 8 1 8 9
M  V30 9 1 9 10
M  V30 10 1 10 11
M  V30 11 1 11 12
M  V30 12 1 6 13
M  V30 13 2 13 14
M  V30 14 1 14 15
M  V30 15 2 15 16
M  V30 16 1 16 17
M  V30 17 2 17 18
M  V30 18 1 18 19
M  V30 19 2 19 20
M  V30 20 1 13 21
M  V30 21 1 21 22
M  V30 22 1 3 23
M  V30 23 2 23 24
M  V30 24 1 23 25
M  V30 25 1 25 26
M  V30 26 2 26 27
M  V30 27 1 27 28
M  V30 28 2 28 29
M  V30 29 1 29 30
M  V30 30 2 30 31
M  V30 31 1 31 32
M  V30 32 1 22 5
M  V30 33 1 31 26
M  V30 34 1 12 7
M  V30 35 1 20 15
M  V30 36 1 4 33
M  V30 37 1 8 34
M  V30 38 1 8 35
M  V30 39 1 9 36
M  V30 40 1 9 37
M  V30 41 1 11 38
M  V30 42 1 11 39
M  V30 43 1 12 40
M  V30 44 1 12 41
M  V30 45 1 14 42
M  V30 46 1 16 43
M  V30 47 1 17 44
M  V30 48 1 18 45
M  V30 49 1 19 46
M  V30 50 1 20 47
M  V30 51 1 21 48
M  V30 52 1 21 49
M  V30 53 1 22 50
M  V30 54 1 22 51
M  V30 55 1 25 52
M  V30 56 1 27 53
M  V30 57 1 28 54
M  V30 58 1 29 55
M  V30 59 1 30 56
M  V30 END BOND
M  V30 END CTAB
M  END
>  <Dataset>  (976) 
ChEMBL_Kinases

>  <Ligand_Instance>  (976) 
nan

>  <PDB_ID>  (976) 
nan

>  <Standardized_SMILES>  (976) 
N#C/C(=C\C1=C(N2CCOCC2)/C(=C\c2ccccc2)CC1)C(=O)Nc1ccccc1F

>  <Name>  (976) 
nan

>  <Pocket>  (976) 
nan

>  <ATP_Site>  (976) 
nan

>  <Peripheral>  (976) 
nan

>  <Num_H_Atoms_ProtBoundConf>  (976) 
nan

>  <Num_Resolved_Atoms>  (976) 
nan

>  <Num_Not_Resolved_Atoms>  (976) 
nan

$$$$
CHEMBL1383666
     RDKit          3D

  0  0  0  0  0  0  0  0  0  0999 V3000
M  V30 BEGIN CTAB
M  V30 COUNTS 41 43 0 0 0
M  V30 BEGIN ATOM
M  V30 1 C 0.966851 -6.954999 3.875386 0
M  V30 2 O 2.047468 -6.389539 3.155091 0
M  V30 3 C 1.875747 -5.172315 2.507641 0
M  V30 4 C 0.664950 -4.475494 2.539255 0
M  V30 5 C 0.550203 -3.253086 1.868182 0
M  V30 6 C 1.646476 -2.754777 1.181321 0
M  V30 7 C 1.522421 -1.474010 0.479543 0
M  V30 8 N 2.436349 -0.826286 -0.228545 0
M  V30 9 C 1.868306 0.309223 -0.685102 0
M  V30 10 C 2.553961 1.261666 -1.488438 0
M  V30 11 N 3.108248 2.025549 -2.158457 0
M  V30 12 C 0.565089 0.345684 -0.235093 0
M  V30 13 N -0.395676 1.370201 -0.484908 0
M  V30 14 C 0.049648 2.453888 -1.276442 0
M  V30 15 C -1.095143 3.477762 -1.370885 0
M  V30 16 C -1.115544 4.225170 -0.058263 0
M  V30 17 C -0.941392 3.293179 1.122063 0
M  V30 18 C -1.960334 2.200858 1.140269 0
M  V30 19 C -1.685121 1.102626 0.135721 0
M  V30 20 O 0.413425 -0.769824 0.470055 0
M  V30 21 C 2.845384 -3.444455 1.149849 0
M  V30 22 C 2.975619 -4.666462 1.815085 0
M  V30 23 H 1.177125 -8.000091 4.156507 0
M  V30 24 H 0.719370 -6.389604 4.794412 0
M  V30 25 H 0.056170 -6.970450 3.225521 0
M  V30 26 H -0.154987 -4.928784 3.099923 0
M  V30 27 H -0.394814 -2.746067 1.914335 0
M  V30 28 H 0.208502 2.116227 -2.311172 0
M  V30 29 H 0.863124 3.057337 -0.843036 0
M  V30 30 H -2.029567 2.895312 -1.526846 0
M  V30 31 H -0.961155 4.189024 -2.190098 0
M  V30 32 H -0.235135 4.912011 -0.061710 0
M  V30 33 H -2.010238 4.840754 0.040787 0
M  V30 34 H -1.079463 3.883809 2.047112 0
M  V30 35 H 0.061096 2.852663 1.168872 0
M  V30 36 H -1.944881 1.748034 2.169506 0
M  V30 37 H -3.001938 2.601841 1.025455 0
M  V30 38 H -2.503328 1.097710 -0.621377 0
M  V30 39 H -1.721431 0.113382 0.611326 0
M  V30 40 H 3.695234 -3.038474 0.605916 0
M  V30 41 H 3.912217 -5.215245 1.796319 0
M  V30 END ATOM
M  V30 BEGIN BOND
M  V30 1 1 1 2
M  V30 2 1 2 3
M  V30 3 2 3 4
M  V30 4 1 4 5
M  V30 5 2 5 6
M  V30 6 1 6 7
M  V30 7 2 7 8
M  V30 8 1 8 9
M  V30 9 1 9 10
M  V30 10 3 10 11
M  V30 11 2 9 12
M  V30 12 1 12 13
M  V30 13 1 13 14
M  V30 14 1 14 15
M  V30 15 1 15 16
M  V30 16 1 16 17
M  V30 17 1 17 18
M  V30 18 1 18 19
M  V30 19 1 12 20
M  V30 20 1 6 21
M  V30 21 2 21 22
M  V30 22 1 22 3
M  V30 23 1 20 7
M  V30 24 1 19 13
M  V30 25 1 1 23
M  V30 26 1 1 24
M  V30 27 1 1 25
M  V30 28 1 4 26
M  V30 29 1 5 27
M  V30 30 1 14 28
M  V30 31 1 14 29
M  V30 32 1 15 30
M  V30 33 1 15 31
M  V30 34 1 16 32
M  V30 35 1 16 33
M  V30 36 1 17 34
M  V30 37 1 17 35
M  V30 38 1 18 36
M  V30 39 1 18 37
M  V30 40 1 19 38
M  V30 41 1 19 39
M  V30 42 1 21 40
M  V30 43 1 22 41
M  V30 END BOND
M  V30 END CTAB
M  END
>  <Dataset>  (977) 
ChEMBL_Kinases

>  <Ligand_Instance>  (977) 
nan

>  <PDB_ID>  (977) 
nan

>  <Standardized_SMILES>  (977) 
COc1ccc(-c2nc(C#N)c(N3CCCCCC3)o2)cc1

>  <Name>  (977) 
nan

>  <Pocket>  (977) 
nan

>  <ATP_Site>  (977) 
nan

>  <Peripheral>  (977) 
nan

>  <Num_H_Atoms_ProtBoundConf>  (977) 
nan

>  <Num_Resolved_Atoms>  (977) 
nan

>  <Num_Not_Resolved_Atoms>  (977) 
nan

$$$$
CHEMBL1383444
     RDKit          3D

  0  0  0  0  0  0  0  0  0  0999 V3000
M  V30 BEGIN CTAB
M  V30 COUNTS 42 43 0 0 0
M  V30 BEGIN ATOM
M  V30 1 C -1.320724 -6.356734 4.279023 0
M  V30 2 C -0.392985 -6.329529 3.087434 0
M  V30 3 O -0.310961 -4.989599 2.638080 0
M  V30 4 C 0.458812 -4.598972 1.554586 0
M  V30 5 O 1.138203 -5.439326 0.903074 0
M  V30 6 C 0.510093 -3.201290 1.129660 0
M  V30 7 C 1.300333 -2.881572 0.038115 0
M  V30 8 C 1.339350 -1.550122 -0.354086 0
M  V30 9 S 2.320490 -0.997051 -1.749561 0
M  V30 10 C 2.137216 0.783901 -1.973348 0
M  V30 11 C 1.097858 1.122963 -2.811142 0
M  V30 12 C 0.847223 2.474027 -3.069293 0
M  V30 13 C 1.645759 3.448435 -2.480221 0
M  V30 14 C 2.683866 3.055958 -1.641058 0
M  V30 15 C 2.947607 1.727668 -1.373536 0
M  V30 16 N 3.977700 1.251955 -0.537059 0
M  V30 17 C 0.600751 -0.607578 0.346925 0
M  V30 18 C -0.179983 -0.947753 1.431586 0
M  V30 19 C -0.960115 0.043671 2.173083 0
M  V30 20 O -1.680866 -0.234565 3.165189 0
M  V30 21 O -0.899567 1.366980 1.755513 0
M  V30 22 C -1.569029 2.446762 2.332952 0
M  V30 23 C -1.292645 3.761146 1.641974 0
M  V30 24 N -0.187083 -2.248734 1.775186 0
M  V30 25 H -0.950737 -7.035777 5.083135 0
M  V30 26 H -1.455930 -5.339782 4.688354 0
M  V30 27 H -2.327344 -6.710447 3.929189 0
M  V30 28 H -0.783393 -7.009245 2.302229 0
M  V30 29 H 0.611645 -6.701440 3.442511 0
M  V30 30 H 1.884362 -3.601890 -0.522598 0
M  V30 31 H 0.430448 0.434878 -3.309067 0
M  V30 32 H 0.043541 2.798070 -3.719865 0
M  V30 33 H 1.459366 4.502450 -2.674380 0
M  V30 34 H 3.329639 3.801190 -1.162801 0
M  V30 35 H 4.100449 1.900635 0.280502 0
M  V30 36 H 4.498504 0.376878 -0.759944 0
M  V30 37 H 0.612957 0.430469 0.064418 0
M  V30 38 H -2.668027 2.254772 2.232920 0
M  V30 39 H -1.363288 2.608764 3.403669 0
M  V30 40 H -1.998754 4.505448 2.099870 0
M  V30 41 H -0.280033 4.145765 1.838393 0
M  V30 42 H -1.489815 3.746072 0.552102 0
M  V30 END ATOM
M  V30 BEGIN BOND
M  V30 1 1 1 2
M  V30 2 1 2 3
M  V30 3 1 3 4
M  V30 4 2 4 5
M  V30 5 1 4 6
M  V30 6 2 6 7
M  V30 7 1 7 8
M  V30 8 1 8 9
M  V30 9 1 9 10
M  V30 10 2 10 11
M  V30 11 1 11 12
M  V30 12 2 12 13
M  V30 13 1 13 14
M  V30 14 2 14 15
M  V30 15 1 15 16
M  V30 16 2 8 17
M  V30 17 1 17 18
M  V30 18 1 18 19
M  V30 19 2 19 20
M  V30 20 1 19 21
M  V30 21 1 21 22
M  V30 22 1 22 23
M  V30 23 2 18 24
M  V30 24 1 24 6
M  V30 25 1 15 10
M  V30 26 1 1 25
M  V30 27 1 1 26
M  V30 28 1 1 27
M  V30 29 1 2 28
M  V30 30 1 2 29
M  V30 31 1 7 30
M  V30 32 1 11 31
M  V30 33 1 12 32
M  V30 34 1 13 33
M  V30 35 1 14 34
M  V30 36 1 16 35
M  V30 37 1 16 36
M  V30 38 1 17 37
M  V30 39 1 22 38
M  V30 40 1 22 39
M  V30 41 1 23 40
M  V30 42 1 23 41
M  V30 43 1 23 42
M  V30 END BOND
M  V30 END CTAB
M  END
>  <Dataset>  (978) 
ChEMBL_Kinases

>  <Ligand_Instance>  (978) 
nan

>  <PDB_ID>  (978) 
nan

>  <Standardized_SMILES>  (978) 
CCOC(=O)c1cc(Sc2ccccc2N)cc(C(=O)OCC)n1

>  <Name>  (978) 
nan

>  <Pocket>  (978) 
nan

>  <ATP_Site>  (978) 
nan

>  <Peripheral>  (978) 
nan

>  <Num_H_Atoms_ProtBoundConf>  (978) 
nan

>  <Num_Resolved_Atoms>  (978) 
nan

>  <Num_Not_Resolved_Atoms>  (978) 
nan

$$$$
CHEMBL1377446
     RDKit          3D

  0  0  0  0  0  0  0  0  0  0999 V3000
M  V30 BEGIN CTAB
M  V30 COUNTS 48 49 0 0 0
M  V30 BEGIN ATOM
M  V30 1 C 2.549870 -5.648930 0.066852 0
M  V30 2 C 3.381567 -4.696157 -0.761545 0
M  V30 3 O 3.043825 -3.364212 -0.460292 0
M  V30 4 C 3.195583 -2.825345 0.802509 0
M  V30 5 C 3.698280 -3.499860 1.911880 0
M  V30 6 C 3.788878 -2.823322 3.115563 0
M  V30 7 C 3.414153 -1.517865 3.295021 0
M  V30 8 C 2.912494 -0.851320 2.177251 0
M  V30 9 C 2.798387 -1.487025 0.935795 0
M  V30 10 O 2.329154 -0.818231 -0.051126 0
M  V30 11 C 1.846701 -0.095659 -1.022242 0
M  V30 12 C 0.427791 0.480565 -0.843759 0
M  V30 13 C 0.325968 1.390652 0.333826 0
M  V30 14 C -1.066209 1.974903 0.507557 0
M  V30 15 C -2.099350 0.895876 0.725739 0
M  V30 16 C -3.459120 1.470673 0.887300 0
M  V30 17 C -4.192289 1.924220 -0.201227 0
M  V30 18 C -3.831094 1.935763 -1.664166 0
M  V30 19 N -5.347860 2.373056 0.316154 0
M  V30 20 N -5.366451 2.225684 1.620867 0
M  V30 21 C -4.196966 1.659009 2.041154 0
M  V30 22 C -3.678543 1.272603 3.379945 0
M  V30 23 H 1.828017 -6.203722 -0.597986 0
M  V30 24 H 1.912943 -5.071878 0.795092 0
M  V30 25 H 3.157392 -6.396576 0.603447 0
M  V30 26 H 3.180925 -4.909882 -1.833211 0
M  V30 27 H 4.444171 -4.926378 -0.515215 0
M  V30 28 H 4.003807 -4.523300 1.796614 0
M  V30 29 H 4.182083 -3.395852 3.930353 0
M  V30 30 H 3.515541 -1.056455 4.267423 0
M  V30 31 H 2.632985 0.168468 2.365168 0
M  V30 32 H 1.733506 -0.728430 -1.970171 0
M  V30 33 H 2.463033 0.809053 -1.305652 0
M  V30 34 H -0.286852 -0.361618 -0.683170 0
M  V30 35 H 0.147770 0.963258 -1.792769 0
M  V30 36 H 1.056740 2.232538 0.188722 0
M  V30 37 H 0.636689 0.855638 1.253299 0
M  V30 38 H -1.320401 2.603242 -0.392366 0
M  V30 39 H -1.037846 2.675948 1.371316 0
M  V30 40 H -1.820688 0.370814 1.670019 0
M  V30 41 H -2.143350 0.171720 -0.093168 0
M  V30 42 H -3.740076 2.945074 -2.064888 0
M  V30 43 H -4.627541 1.412715 -2.243132 0
M  V30 44 H -2.902471 1.327899 -1.823911 0
M  V30 45 H -6.114244 2.473062 2.320306 0
M  V30 46 H -3.313386 0.213045 3.388946 0
M  V30 47 H -4.509933 1.312128 4.084735 0
M  V30 48 H -2.809560 1.897199 3.661871 0
M  V30 END ATOM
M  V30 BEGIN BOND
M  V30 1 1 1 2
M  V30 2 1 2 3
M  V30 3 1 3 4
M  V30 4 2 4 5
M  V30 5 1 5 6
M  V30 6 2 6 7
M  V30 7 1 7 8
M  V30 8 2 8 9
M  V30 9 1 9 10
M  V30 10 1 10 11
M  V30 11 1 11 12
M  V30 12 1 12 13
M  V30 13 1 13 14
M  V30 14 1 14 15
M  V30 15 1 15 16
M  V30 16 1 16 17
M  V30 17 1 17 18
M  V30 18 2 17 19
M  V30 19 1 19 20
M  V30 20 1 20 21
M  V30 21 1 21 22
M  V30 22 1 9 4
M  V30 23 2 21 16
M  V30 24 1 1 23
M  V30 25 1 1 24
M  V30 26 1 1 25
M  V30 27 1 2 26
M  V30 28 1 2 27
M  V30 29 1 5 28
M  V30 30 1 6 29
M  V30 31 1 7 30
M  V30 32 1 8 31
M  V30 33 1 11 32
M  V30 34 1 11 33
M  V30 35 1 12 34
M  V30 36 1 12 35
M  V30 37 1 13 36
M  V30 38 1 13 37
M  V30 39 1 14 38
M  V30 40 1 14 39
M  V30 41 1 15 40
M  V30 42 1 15 41
M  V30 43 1 18 42
M  V30 44 1 18 43
M  V30 45 1 18 44
M  V30 46 1 20 45
M  V30 47 1 22 46
M  V30 48 1 22 47
M  V30 49 1 22 48
M  V30 END BOND
M  V30 END CTAB
M  END
>  <Dataset>  (979) 
ChEMBL_Kinases

>  <Ligand_Instance>  (979) 
nan

>  <PDB_ID>  (979) 
nan

>  <Standardized_SMILES>  (979) 
CCOc1ccccc1OCCCCCc1c(C)n[nH]c1C

>  <Name>  (979) 
nan

>  <Pocket>  (979) 
nan

>  <ATP_Site>  (979) 
nan

>  <Peripheral>  (979) 
nan

>  <Num_H_Atoms_ProtBoundConf>  (979) 
nan

>  <Num_Resolved_Atoms>  (979) 
nan

>  <Num_Not_Resolved_Atoms>  (979) 
nan

$$$$
CHEMBL1377267
     RDKit          3D

  0  0  0  0  0  0  0  0  0  0999 V3000
M  V30 BEGIN CTAB
M  V30 COUNTS 41 44 0 0 0
M  V30 BEGIN ATOM
M  V30 1 C 1.743152 -5.266655 3.585542 0
M  V30 2 C 1.156900 -4.190573 2.754945 0
M  V30 3 C 1.912283 -3.072271 2.463928 0
M  V30 4 C 1.299283 -2.114932 1.686641 0
M  V30 5 C 2.027589 -0.900021 1.331726 0
M  V30 6 C 1.557018 0.147486 0.565092 0
M  V30 7 C 2.607011 1.073377 0.502115 0
M  V30 8 C 2.469477 2.328261 -0.237589 0
M  V30 9 C 1.313161 2.694435 -0.921428 0
M  V30 10 C 1.268989 3.899708 -1.595056 0
M  V30 11 C 2.364109 4.739132 -1.592159 0
M  V30 12 Cl 2.210546 6.246042 -2.475627 0
M  V30 13 C 3.548028 4.426176 -0.925670 0
M  V30 14 C 3.531299 3.210429 -0.271885 0
M  V30 15 O 3.614833 0.574783 1.195686 0
M  V30 16 N 3.286475 -0.582654 1.687085 0
M  V30 17 N 0.037961 -2.277602 1.246186 0
M  V30 18 C -0.689047 -3.369457 1.534730 0
M  V30 19 N -2.020695 -3.527120 1.062067 0
M  V30 20 C -2.614723 -2.484228 0.247436 0
M  V30 21 C -2.682817 -1.171391 0.955810 0
M  V30 22 C -3.253786 0.033456 0.308577 0
M  V30 23 C -4.102998 -0.696387 1.266670 0
M  V30 24 N -0.100935 -4.309048 2.291939 0
M  V30 25 H 2.437899 -4.858541 4.338770 0
M  V30 26 H 0.968924 -5.850889 4.107507 0
M  V30 27 H 2.280803 -6.001543 2.937486 0
M  V30 28 H 2.914979 -2.983168 2.835926 0
M  V30 29 H 0.572922 0.220091 0.113001 0
M  V30 30 H 0.476774 2.006889 -0.898398 0
M  V30 31 H 0.348774 4.117367 -2.099184 0
M  V30 32 H 4.390653 5.083231 -0.929508 0
M  V30 33 H 4.462009 2.962458 0.253132 0
M  V30 34 H -2.539966 -4.395783 1.315553 0
M  V30 35 H -2.065721 -2.402202 -0.735682 0
M  V30 36 H -3.633916 -2.844689 -0.064448 0
M  V30 37 H -1.897843 -0.972669 1.704655 0
M  V30 38 H -3.599245 0.034732 -0.752967 0
M  V30 39 H -2.868251 1.032037 0.599618 0
M  V30 40 H -4.948136 -1.300034 0.862650 0
M  V30 41 H -4.230939 -0.354283 2.300211 0
M  V30 END ATOM
M  V30 BEGIN BOND
M  V30 1 1 1 2
M  V30 2 2 2 3
M  V30 3 1 3 4
M  V30 4 1 4 5
M  V30 5 1 5 6
M  V30 6 2 6 7
M  V30 7 1 7 8
M  V30 8 2 8 9
M  V30 9 1 9 10
M  V30 10 2 10 11
M  V30 11 1 11 12
M  V30 12 1 11 13
M  V30 13 2 13 14
M  V30 14 1 7 15
M  V30 15 1 15 16
M  V30 16 2 4 17
M  V30 17 1 17 18
M  V30 18 1 18 19
M  V30 19 1 19 20
M  V30 20 1 20 21
M  V30 21 1 21 22
M  V30 22 1 22 23
M  V30 23 2 18 24
M  V30 24 1 24 2
M  V30 25 2 16 5
M  V30 26 1 23 21
M  V30 27 1 14 8
M  V30 28 1 1 25
M  V30 29 1 1 26
M  V30 30 1 1 27
M  V30 31 1 3 28
M  V30 32 1 6 29
M  V30 33 1 9 30
M  V30 34 1 10 31
M  V30 35 1 13 32
M  V30 36 1 14 33
M  V30 37 1 19 34
M  V30 38 1 20 35
M  V30 39 1 20 36
M  V30 40 1 21 37
M  V30 41 1 22 38
M  V30 42 1 22 39
M  V30 43 1 23 40
M  V30 44 1 23 41
M  V30 END BOND
M  V30 END CTAB
M  END
>  <Dataset>  (980) 
ChEMBL_Kinases

>  <Ligand_Instance>  (980) 
nan

>  <PDB_ID>  (980) 
nan

>  <Standardized_SMILES>  (980) 
Cc1cc(-c2cc(-c3ccc(Cl)cc3)on2)nc(NCC2CC2)n1

>  <Name>  (980) 
nan

>  <Pocket>  (980) 
nan

>  <ATP_Site>  (980) 
nan

>  <Peripheral>  (980) 
nan

>  <Num_H_Atoms_ProtBoundConf>  (980) 
nan

>  <Num_Resolved_Atoms>  (980) 
nan

>  <Num_Not_Resolved_Atoms>  (980) 
nan

$$$$
CHEMBL1377119
     RDKit          3D

  0  0  0  0  0  0  0  0  0  0999 V3000
M  V30 BEGIN CTAB
M  V30 COUNTS 32 33 0 0 0
M  V30 BEGIN ATOM
M  V30 1 C -2.767273 -3.966683 2.513215 0
M  V30 2 S -1.217381 -4.780666 2.952136 0
M  V30 3 C 0.100942 -4.112585 1.942403 0
M  V30 4 C 1.396625 -4.590167 2.103025 0
M  V30 5 C 2.460327 -4.121058 1.359422 0
M  V30 6 C 2.252879 -3.133070 0.407059 0
M  V30 7 C 0.972844 -2.646602 0.233479 0
M  V30 8 N 0.539731 -1.634240 -0.687083 0
M  V30 9 C 0.582312 -0.323915 -0.186057 0
M  V30 10 O 0.991341 -0.149414 1.012419 0
M  V30 11 N 0.195180 0.817589 -0.939855 0
M  V30 12 C 0.218883 2.168048 -0.480073 0
M  V30 13 C 1.278602 3.049731 -0.589683 0
M  V30 14 C 1.125157 4.341837 -0.080660 0
M  V30 15 C -0.065249 4.701315 0.511346 0
M  V30 16 C -1.137827 3.842672 0.634005 0
M  V30 17 C -0.973367 2.558243 0.123327 0
M  V30 18 C -0.087149 -3.118968 0.979466 0
M  V30 19 H -3.192853 -4.464142 1.611755 0
M  V30 20 H -3.511013 -4.038453 3.341967 0
M  V30 21 H -2.609988 -2.874735 2.309998 0
M  V30 22 H 1.649628 -5.358408 2.820585 0
M  V30 23 H 3.476896 -4.473480 1.462818 0
M  V30 24 H 2.992755 -2.679205 -0.239846 0
M  V30 25 H 0.189057 -1.692209 -1.687937 0
M  V30 26 H -0.139613 0.680841 -1.919001 0
M  V30 27 H 2.151536 2.633285 -1.076899 0
M  V30 28 H 1.986625 4.987300 -0.194520 0
M  V30 29 H -0.165274 5.705535 0.899408 0
M  V30 30 H -2.030633 4.207361 1.111031 0
M  V30 31 H -1.843774 1.921593 0.243775 0
M  V30 32 H -1.122038 -2.801644 0.916349 0
M  V30 END ATOM
M  V30 BEGIN BOND
M  V30 1 1 1 2
M  V30 2 1 2 3
M  V30 3 2 3 4
M  V30 4 1 4 5
M  V30 5 2 5 6
M  V30 6 1 6 7
M  V30 7 1 7 8
M  V30 8 1 8 9
M  V30 9 2 9 10
M  V30 10 1 9 11
M  V30 11 1 11 12
M  V30 12 2 12 13
M  V30 13 1 13 14
M  V30 14 2 14 15
M  V30 15 1 15 16
M  V30 16 2 16 17
M  V30 17 2 7 18
M  V30 18 1 18 3
M  V30 19 1 17 12
M  V30 20 1 1 19
M  V30 21 1 1 20
M  V30 22 1 1 21
M  V30 23 1 4 22
M  V30 24 1 5 23
M  V30 25 1 6 24
M  V30 26 1 8 25
M  V30 27 1 11 26
M  V30 28 1 13 27
M  V30 29 1 14 28
M  V30 30 1 15 29
M  V30 31 1 16 30
M  V30 32 1 17 31
M  V30 33 1 18 32
M  V30 END BOND
M  V30 END CTAB
M  END
>  <Dataset>  (981) 
ChEMBL_Kinases

>  <Ligand_Instance>  (981) 
nan

>  <PDB_ID>  (981) 
nan

>  <Standardized_SMILES>  (981) 
CSc1cccc(NC(=O)Nc2ccccc2)c1

>  <Name>  (981) 
nan

>  <Pocket>  (981) 
nan

>  <ATP_Site>  (981) 
nan

>  <Peripheral>  (981) 
nan

>  <Num_H_Atoms_ProtBoundConf>  (981) 
nan

>  <Num_Resolved_Atoms>  (981) 
nan

>  <Num_Not_Resolved_Atoms>  (981) 
nan

$$$$
CHEMBL1377088
     RDKit          3D

  0  0  0  0  0  0  0  0  0  0999 V3000
M  V30 BEGIN CTAB
M  V30 COUNTS 62 65 0 0 0
M  V30 BEGIN ATOM
M  V30 1 C 0.918303 0.894494 4.701506 0
M  V30 2 C 0.720789 -0.609036 4.678575 0
M  V30 3 C 1.304562 -1.166289 3.394176 0
M  V30 4 N 0.330589 -1.822404 2.583107 0
M  V30 5 C -0.626891 -0.960875 1.961033 0
M  V30 6 C -0.038694 0.035063 1.060900 0
M  V30 7 N 0.380281 1.292251 1.393333 0
M  V30 8 C 0.845554 1.841473 0.258827 0
M  V30 9 C 0.717100 0.932564 -0.772798 0
M  V30 10 C 1.132200 1.271273 -2.054602 0
M  V30 11 O 1.039378 0.484445 -3.031534 0
M  V30 12 N 1.667963 2.479950 -2.338198 0
M  V30 13 C 2.100117 2.821121 -3.694151 0
M  V30 14 C 1.779297 3.342113 -1.311550 0
M  V30 15 O 2.277876 4.474564 -1.561928 0
M  V30 16 N 1.383752 3.036114 -0.060627 0
M  V30 17 C 1.547802 4.047432 0.992697 0
M  V30 18 N 0.175237 -0.165049 -0.264606 0
M  V30 19 C -0.125236 -1.362809 -1.026447 0
M  V30 20 C -1.528714 -1.249373 -1.569494 0
M  V30 21 N -1.866719 -2.382241 -2.305873 0
M  V30 22 C -3.162426 -2.419506 -2.901334 0
M  V30 23 C -3.662532 -3.845814 -2.801393 0
M  V30 24 O -2.756955 -4.620126 -3.543746 0
M  V30 25 C -1.501527 -4.626061 -2.992758 0
M  V30 26 C -0.895113 -3.249905 -2.812537 0
M  V30 27 C -0.345697 -2.797202 3.410770 0
M  V30 28 C -1.014015 -2.149267 4.581829 0
M  V30 29 C -0.737400 -3.002544 5.813724 0
M  V30 30 O -0.619525 -0.857939 4.840967 0
M  V30 31 H 1.765181 1.171327 4.056168 0
M  V30 32 H 0.024740 1.431896 4.280712 0
M  V30 33 H 1.150019 1.285437 5.715205 0
M  V30 34 H 1.238023 -0.988233 5.591235 0
M  V30 35 H 2.022297 -1.975513 3.721919 0
M  V30 36 H 1.937608 -0.426670 2.877820 0
M  V30 37 H -1.300427 -0.420739 2.648912 0
M  V30 38 H -1.311919 -1.636392 1.376646 0
M  V30 39 H 3.209011 2.800147 -3.663137 0
M  V30 40 H 1.742688 3.816164 -4.017789 0
M  V30 41 H 1.764784 2.018167 -4.368702 0
M  V30 42 H 0.516066 4.432065 1.200401 0
M  V30 43 H 2.121000 4.898533 0.608929 0
M  V30 44 H 1.931375 3.632567 1.930242 0
M  V30 45 H 0.568781 -1.489189 -1.872476 0
M  V30 46 H -0.021839 -2.250058 -0.373920 0
M  V30 47 H -2.271477 -1.102062 -0.757146 0
M  V30 48 H -1.619329 -0.337006 -2.210584 0
M  V30 49 H -3.073350 -2.212655 -4.008328 0
M  V30 50 H -3.802964 -1.680880 -2.407430 0
M  V30 51 H -3.572773 -4.118975 -1.725385 0
M  V30 52 H -4.654328 -4.005081 -3.232401 0
M  V30 53 H -1.518903 -5.177602 -2.024188 0
M  V30 54 H -0.837542 -5.166836 -3.697028 0
M  V30 55 H -0.464643 -2.939679 -3.801590 0
M  V30 56 H -0.072462 -3.381584 -2.049696 0
M  V30 57 H 0.459008 -3.494241 3.775103 0
M  V30 58 H -1.036407 -3.411404 2.796515 0
M  V30 59 H -2.116528 -2.147426 4.426953 0
M  V30 60 H 0.241844 -2.733622 6.289768 0
M  V30 61 H -1.576278 -2.829613 6.508368 0
M  V30 62 H -0.681794 -4.049499 5.460743 0
M  V30 END ATOM
M  V30 BEGIN BOND
M  V30 1 1 1 2
M  V30 2 1 2 3
M  V30 3 1 3 4
M  V30 4 1 4 5
M  V30 5 1 5 6
M  V30 6 2 6 7
M  V30 7 1 7 8
M  V30 8 2 8 9
M  V30 9 1 9 10
M  V30 10 2 10 11
M  V30 11 1 10 12
M  V30 12 1 12 13
M  V30 13 1 12 14
M  V30 14 2 14 15
M  V30 15 1 14 16
M  V30 16 1 16 17
M  V30 17 1 9 18
M  V30 18 1 18 19
M  V30 19 1 19 20
M  V30 20 1 20 21
M  V30 21 1 21 22
M  V30 22 1 22 23
M  V30 23 1 23 24
M  V30 24 1 24 25
M  V30 25 1 25 26
M  V30 26 1 4 27
M  V30 27 1 27 28
M  V30 28 1 28 29
M  V30 29 1 28 30
M  V30 30 1 30 2
M  V30 31 1 18 6
M  V30 32 1 26 21
M  V30 33 1 16 8
M  V30 34 1 1 31
M  V30 35 1 1 32
M  V30 36 1 1 33
M  V30 37 1 2 34
M  V30 38 1 3 35
M  V30 39 1 3 36
M  V30 40 1 5 37
M  V30 41 1 5 38
M  V30 42 1 13 39
M  V30 43 1 13 40
M  V30 44 1 13 41
M  V30 45 1 17 42
M  V30 46 1 17 43
M  V30 47 1 17 44
M  V30 48 1 19 45
M  V30 49 1 19 46
M  V30 50 1 20 47
M  V30 51 1 20 48
M  V30 52 1 22 49
M  V30 53 1 22 50
M  V30 54 1 23 51
M  V30 55 1 23 52
M  V30 56 1 25 53
M  V30 57 1 25 54
M  V30 58 1 26 55
M  V30 59 1 26 56
M  V30 60 1 27 57
M  V30 61 1 27 58
M  V30 62 1 28 59
M  V30 63 1 29 60
M  V30 64 1 29 61
M  V30 65 1 29 62
M  V30 END BOND
M  V30 END CTAB
M  END
>  <Dataset>  (982) 
ChEMBL_Kinases

>  <Ligand_Instance>  (982) 
nan

>  <PDB_ID>  (982) 
nan

>  <Standardized_SMILES>  (982) 
CC1CN(Cc2nc3c(c(=O)n(C)c(=O)n3C)n2CCN2CCOCC2)CC(C)O1

>  <Name>  (982) 
nan

>  <Pocket>  (982) 
nan

>  <ATP_Site>  (982) 
nan

>  <Peripheral>  (982) 
nan

>  <Num_H_Atoms_ProtBoundConf>  (982) 
nan

>  <Num_Resolved_Atoms>  (982) 
nan

>  <Num_Not_Resolved_Atoms>  (982) 
nan

$$$$
CHEMBL1376987
     RDKit          3D

  0  0  0  0  0  0  0  0  0  0999 V3000
M  V30 BEGIN CTAB
M  V30 COUNTS 48 52 0 0 0
M  V30 BEGIN ATOM
M  V30 1 O -1.046537 -0.600709 -2.541948 0
M  V30 2 C -0.253287 -0.375283 -1.595393 0
M  V30 3 C 1.065069 -0.004146 -1.882408 0
M  V30 4 C 1.563384 0.133755 -3.251895 0
M  V30 5 C 2.316574 1.284931 -3.441379 0
M  V30 6 C 2.860789 1.554666 -4.699428 0
M  V30 7 C 2.625104 0.654164 -5.717849 0
M  V30 8 F 3.137102 0.871668 -6.973671 0
M  V30 9 C 1.872894 -0.502959 -5.543455 0
M  V30 10 C 1.339882 -0.753807 -4.284713 0
M  V30 11 N 1.929926 0.241586 -0.873339 0
M  V30 12 C 1.573373 0.143506 0.419441 0
M  V30 13 C 2.446191 0.391591 1.468282 0
M  V30 14 N 2.033716 0.277752 2.744705 0
M  V30 15 C 0.749043 -0.083906 3.021266 0
M  V30 16 N 0.317036 -0.203044 4.372556 0
M  V30 17 C -1.010053 -0.576137 4.800243 0
M  V30 18 C -0.878725 -1.720465 5.804637 0
M  V30 19 O 0.000608 -1.346321 6.805987 0
M  V30 20 C 1.281068 -1.244602 6.259122 0
M  V30 21 C 1.248144 0.061446 5.454813 0
M  V30 22 N -0.116923 -0.329973 2.020591 0
M  V30 23 C 0.259478 -0.226364 0.711866 0
M  V30 24 N -0.598805 -0.470242 -0.296373 0
M  V30 25 C -1.949804 -0.850613 -0.011914 0
M  V30 26 C -2.067370 -2.238736 -0.119021 0
M  V30 27 C -3.294059 -2.872441 0.111208 0
M  V30 28 C -4.382755 -2.088101 0.446595 0
M  V30 29 C -4.242126 -0.719467 0.546319 0
M  V30 30 C -3.029834 -0.095423 0.318576 0
M  V30 31 H 2.537396 2.028971 -2.685959 0
M  V30 32 H 3.456460 2.413970 -4.951229 0
M  V30 33 H 1.680068 -1.217469 -6.332326 0
M  V30 34 H 0.739973 -1.628963 -4.050586 0
M  V30 35 H 3.463858 0.678069 1.245766 0
M  V30 36 H -1.386317 0.286260 5.425186 0
M  V30 37 H -1.694865 -0.832956 3.992487 0
M  V30 38 H -0.500486 -2.632007 5.297661 0
M  V30 39 H -1.853114 -1.903274 6.320628 0
M  V30 40 H 1.369114 -2.046558 5.493854 0
M  V30 41 H 2.087402 -1.240474 6.998945 0
M  V30 42 H 2.255759 0.330481 5.128150 0
M  V30 43 H 0.760493 0.850724 6.073531 0
M  V30 44 H -1.285496 -2.964102 -0.375669 0
M  V30 45 H -3.442527 -3.937350 0.042913 0
M  V30 46 H -5.331957 -2.558680 0.626674 0
M  V30 47 H -5.060056 -0.059663 0.805151 0
M  V30 48 H -2.800780 0.953482 0.366127 0
M  V30 END ATOM
M  V30 BEGIN BOND
M  V30 1 2 1 2
M  V30 2 1 2 3
M  V30 3 1 3 4
M  V30 4 2 4 5
M  V30 5 1 5 6
M  V30 6 2 6 7
M  V30 7 1 7 8
M  V30 8 1 7 9
M  V30 9 2 9 10
M  V30 10 2 3 11
M  V30 11 1 11 12
M  V30 12 2 12 13
M  V30 13 1 13 14
M  V30 14 2 14 15
M  V30 15 1 15 16
M  V30 16 1 16 17
M  V30 17 1 17 18
M  V30 18 1 18 19
M  V30 19 1 19 20
M  V30 20 1 20 21
M  V30 21 1 15 22
M  V30 22 2 22 23
M  V30 23 1 23 24
M  V30 24 1 24 25
M  V30 25 2 25 26
M  V30 26 1 26 27
M  V30 27 2 27 28
M  V30 28 1 28 29
M  V30 29 2 29 30
M  V30 30 1 24 2
M  V30 31 1 30 25
M  V30 32 1 10 4
M  V30 33 1 23 12
M  V30 34 1 21 16
M  V30 35 1 5 31
M  V30 36 1 6 32
M  V30 37 1 9 33
M  V30 38 1 10 34
M  V30 39 1 13 35
M  V30 40 1 17 36
M  V30 41 1 17 37
M  V30 42 1 18 38
M  V30 43 1 18 39
M  V30 44 1 20 40
M  V30 45 1 20 41
M  V30 46 1 21 42
M  V30 47 1 21 43
M  V30 48 1 26 44
M  V30 49 1 27 45
M  V30 50 1 28 46
M  V30 51 1 29 47
M  V30 52 1 30 48
M  V30 END BOND
M  V30 END CTAB
M  END
>  <Dataset>  (983) 
ChEMBL_Kinases

>  <Ligand_Instance>  (983) 
nan

>  <PDB_ID>  (983) 
nan

>  <Standardized_SMILES>  (983) 
O=c1c(-c2ccc(F)cc2)nc2cnc(N3CCOCC3)nc2n1-c1ccccc1

>  <Name>  (983) 
nan

>  <Pocket>  (983) 
nan

>  <ATP_Site>  (983) 
nan

>  <Peripheral>  (983) 
nan

>  <Num_H_Atoms_ProtBoundConf>  (983) 
nan

>  <Num_Resolved_Atoms>  (983) 
nan

>  <Num_Not_Resolved_Atoms>  (983) 
nan

$$$$
CHEMBL1376980
     RDKit          3D

  0  0  0  0  0  0  0  0  0  0999 V3000
M  V30 BEGIN CTAB
M  V30 COUNTS 44 47 0 0 0
M  V30 BEGIN ATOM
M  V30 1 O -1.952463 -2.374618 1.127078 0
M  V30 2 C -1.019352 -2.217475 0.264784 0
M  V30 3 C 0.137293 -3.123931 0.462949 0
M  V30 4 C 1.140541 -3.455378 -0.418086 0
M  V30 5 C 2.167786 -4.310878 -0.088881 0
M  V30 6 C 2.265701 -4.898530 1.152328 0
M  V30 7 C 1.306783 -4.610224 2.063365 0
M  V30 8 C 0.290877 -3.756637 1.717686 0
M  V30 9 C -0.924578 -1.301788 -0.842744 0
M  V30 10 C -0.837398 -1.727153 -2.166095 0
M  V30 11 O -0.839498 -0.695793 -2.968214 0
M  V30 12 C -0.926219 0.418597 -2.245619 0
M  V30 13 C -0.953247 1.728796 -2.747113 0
M  V30 14 C -1.040470 2.701298 -1.778423 0
M  V30 15 C -1.095568 2.367996 -0.419070 0
M  V30 16 O -1.185127 3.429336 0.484166 0
M  V30 17 C -1.064132 1.028224 0.002472 0
M  V30 18 C -1.108648 0.829535 1.430264 0
M  V30 19 N 0.207752 1.161586 1.954594 0
M  V30 20 C 0.292127 1.035831 3.398458 0
M  V30 21 C 1.573608 1.796215 3.780455 0
M  V30 22 O 2.611593 1.048829 3.239295 0
M  V30 23 C 2.590684 0.953403 1.875644 0
M  V30 24 C 1.275975 0.484536 1.303321 0
M  V30 25 C -0.980209 0.046834 -0.935496 0
M  V30 26 H 1.105297 -3.007751 -1.383942 0
M  V30 27 H 2.910792 -4.490838 -0.884323 0
M  V30 28 H 3.103616 -5.544099 1.310376 0
M  V30 29 H 1.353490 -5.051447 3.041252 0
M  V30 30 H -0.440537 -3.571953 2.494483 0
M  V30 31 H -0.775203 -2.682615 -2.652736 0
M  V30 32 H -0.902287 1.932645 -3.807851 0
M  V30 33 H -1.068807 3.747533 -2.062658 0
M  V30 34 H -0.404483 3.619237 1.114551 0
M  V30 35 H -1.778721 1.645036 1.849881 0
M  V30 36 H -1.417552 -0.062069 1.898100 0
M  V30 37 H 0.462219 -0.020604 3.725335 0
M  V30 38 H -0.605473 1.451004 3.901243 0
M  V30 39 H 1.697145 1.858031 4.867101 0
M  V30 40 H 1.477167 2.793628 3.300829 0
M  V30 41 H 3.333771 0.158292 1.587316 0
M  V30 42 H 2.915930 1.871720 1.345745 0
M  V30 43 H 1.225478 -0.616064 1.360891 0
M  V30 44 H 1.272236 0.740879 0.224874 0
M  V30 END ATOM
M  V30 BEGIN BOND
M  V30 1 2 1 2
M  V30 2 1 2 3
M  V30 3 2 3 4
M  V30 4 1 4 5
M  V30 5 2 5 6
M  V30 6 1 6 7
M  V30 7 2 7 8
M  V30 8 1 2 9
M  V30 9 2 9 10
M  V30 10 1 10 11
M  V30 11 1 11 12
M  V30 12 2 12 13
M  V30 13 1 13 14
M  V30 14 2 14 15
M  V30 15 1 15 16
M  V30 16 1 15 17
M  V30 17 1 17 18
M  V30 18 1 18 19
M  V30 19 1 19 20
M  V30 20 1 20 21
M  V30 21 1 21 22
M  V30 22 1 22 23
M  V30 23 1 23 24
M  V30 24 2 17 25
M  V30 25 1 8 3
M  V30 26 1 25 9
M  V30 27 1 25 12
M  V30 28 1 24 19
M  V30 29 1 4 26
M  V30 30 1 5 27
M  V30 31 1 6 28
M  V30 32 1 7 29
M  V30 33 1 8 30
M  V30 34 1 10 31
M  V30 35 1 13 32
M  V30 36 1 14 33
M  V30 37 1 16 34
M  V30 38 1 18 35
M  V30 39 1 18 36
M  V30 40 1 20 37
M  V30 41 1 20 38
M  V30 42 1 21 39
M  V30 43 1 21 40
M  V30 44 1 23 41
M  V30 45 1 23 42
M  V30 46 1 24 43
M  V30 47 1 24 44
M  V30 END BOND
M  V30 END CTAB
M  END
>  <Dataset>  (984) 
ChEMBL_Kinases

>  <Ligand_Instance>  (984) 
nan

>  <PDB_ID>  (984) 
nan

>  <Standardized_SMILES>  (984) 
O=C(c1ccccc1)c1coc2ccc(O)c(CN3CCOCC3)c12

>  <Name>  (984) 
nan

>  <Pocket>  (984) 
nan

>  <ATP_Site>  (984) 
nan

>  <Peripheral>  (984) 
nan

>  <Num_H_Atoms_ProtBoundConf>  (984) 
nan

>  <Num_Resolved_Atoms>  (984) 
nan

>  <Num_Not_Resolved_Atoms>  (984) 
nan

$$$$
CHEMBL1376913
     RDKit          3D

  0  0  0  0  0  0  0  0  0  0999 V3000
M  V30 BEGIN CTAB
M  V30 COUNTS 54 56 0 0 0
M  V30 BEGIN ATOM
M  V30 1 C 1.534236 -7.095885 0.991566 0
M  V30 2 C 1.383513 -6.063142 -0.060485 0
M  V30 3 C 1.878015 -4.792912 0.174162 0
M  V30 4 C 1.772047 -3.785534 -0.759774 0
M  V30 5 C 1.159913 -4.022909 -1.972120 0
M  V30 6 O 0.935937 -3.194586 -3.047763 0
M  V30 7 C 1.360326 -1.844814 -3.024367 0
M  V30 8 C 0.724286 -1.070629 -1.904327 0
M  V30 9 O -0.071330 -1.140772 -0.932301 0
M  V30 10 N 1.184073 0.297284 -1.917719 0
M  V30 11 C 0.720938 1.228773 -0.950211 0
M  V30 12 C 1.530701 1.253612 0.190395 0
M  V30 13 C 1.211914 2.118588 1.239984 0
M  V30 14 C 0.103809 2.943526 1.150662 0
M  V30 15 C -0.321126 3.897950 2.209567 0
M  V30 16 N -1.207480 3.385058 3.166806 0
M  V30 17 C -0.825055 2.293646 3.958356 0
M  V30 18 C -1.451657 0.990387 3.516576 0
M  V30 19 C -2.815270 1.291946 2.949982 0
M  V30 20 C -3.414875 2.530426 3.587050 0
M  V30 21 C -2.575427 3.728122 3.126962 0
M  V30 22 C -0.683702 2.902955 0.013257 0
M  V30 23 C -0.386740 2.051581 -1.042628 0
M  V30 24 C 0.656439 -5.304017 -2.219476 0
M  V30 25 C -0.034461 -5.748309 -3.466160 0
M  V30 26 C 0.771313 -6.313692 -1.263955 0
M  V30 27 H 2.382120 -7.793663 0.787247 0
M  V30 28 H 1.695103 -6.597123 1.971272 0
M  V30 29 H 0.593011 -7.651709 1.079070 0
M  V30 30 H 2.365698 -4.533272 1.091428 0
M  V30 31 H 2.122437 -2.774067 -0.671486 0
M  V30 32 H 1.123886 -1.336351 -3.981628 0
M  V30 33 H 2.456835 -1.786388 -2.892142 0
M  V30 34 H 1.856660 0.831507 -2.543208 0
M  V30 35 H 2.404551 0.647816 0.337491 0
M  V30 36 H 1.810411 2.171082 2.141437 0
M  V30 37 H 0.613310 4.237300 2.741913 0
M  V30 38 H -0.754400 4.816830 1.773478 0
M  V30 39 H -1.192582 2.471943 5.009730 0
M  V30 40 H 0.264483 2.199005 3.988200 0
M  V30 41 H -1.529008 0.240150 4.329882 0
M  V30 42 H -0.864161 0.494143 2.699907 0
M  V30 43 H -2.679916 1.544000 1.869019 0
M  V30 44 H -3.498565 0.427162 2.957102 0
M  V30 45 H -3.452783 2.444569 4.673648 0
M  V30 46 H -4.446498 2.637164 3.163305 0
M  V30 47 H -2.861222 4.047312 2.120461 0
M  V30 48 H -2.774990 4.534724 3.863109 0
M  V30 49 H -1.576758 3.520796 -0.139290 0
M  V30 50 H -0.945956 1.958353 -1.960638 0
M  V30 51 H -1.100878 -5.903165 -3.197311 0
M  V30 52 H 0.381928 -6.676575 -3.885659 0
M  V30 53 H -0.041108 -4.912807 -4.224727 0
M  V30 54 H 0.399012 -7.318837 -1.406949 0
M  V30 END ATOM
M  V30 BEGIN BOND
M  V30 1 1 1 2
M  V30 2 2 2 3
M  V30 3 1 3 4
M  V30 4 2 4 5
M  V30 5 1 5 6
M  V30 6 1 6 7
M  V30 7 1 7 8
M  V30 8 2 8 9
M  V30 9 1 8 10
M  V30 10 1 10 11
M  V30 11 2 11 12
M  V30 12 1 12 13
M  V30 13 2 13 14
M  V30 14 1 14 15
M  V30 15 1 15 16
M  V30 16 1 16 17
M  V30 17 1 17 18
M  V30 18 1 18 19
M  V30 19 1 19 20
M  V30 20 1 20 21
M  V30 21 1 14 22
M  V30 22 2 22 23
M  V30 23 1 5 24
M  V30 24 1 24 25
M  V30 25 2 24 26
M  V30 26 1 26 2
M  V30 27 1 23 11
M  V30 28 1 21 16
M  V30 29 1 1 27
M  V30 30 1 1 28
M  V30 31 1 1 29
M  V30 32 1 3 30
M  V30 33 1 4 31
M  V30 34 1 7 32
M  V30 35 1 7 33
M  V30 36 1 10 34
M  V30 37 1 12 35
M  V30 38 1 13 36
M  V30 39 1 15 37
M  V30 40 1 15 38
M  V30 41 1 17 39
M  V30 42 1 17 40
M  V30 43 1 18 41
M  V30 44 1 18 42
M  V30 45 1 19 43
M  V30 46 1 19 44
M  V30 47 1 20 45
M  V30 48 1 20 46
M  V30 49 1 21 47
M  V30 50 1 21 48
M  V30 51 1 22 49
M  V30 52 1 23 50
M  V30 53 1 25 51
M  V30 54 1 25 52
M  V30 55 1 25 53
M  V30 56 1 26 54
M  V30 END BOND
M  V30 END CTAB
M  END
>  <Dataset>  (985) 
ChEMBL_Kinases

>  <Ligand_Instance>  (985) 
nan

>  <PDB_ID>  (985) 
nan

>  <Standardized_SMILES>  (985) 
Cc1ccc(OCC(=O)Nc2ccc(CN3CCCCC3)cc2)c(C)c1

>  <Name>  (985) 
nan

>  <Pocket>  (985) 
nan

>  <ATP_Site>  (985) 
nan

>  <Peripheral>  (985) 
nan

>  <Num_H_Atoms_ProtBoundConf>  (985) 
nan

>  <Num_Resolved_Atoms>  (985) 
nan

>  <Num_Not_Resolved_Atoms>  (985) 
nan

$$$$
CHEMBL1376874
     RDKit          3D

  0  0  0  0  0  0  0  0  0  0999 V3000
M  V30 BEGIN CTAB
M  V30 COUNTS 35 36 0 0 0
M  V30 BEGIN ATOM
M  V30 1 C -1.781457 -3.370889 3.664429 0
M  V30 2 O -1.962406 -2.403280 2.634712 0
M  V30 3 C -0.960521 -2.225817 1.690909 0
M  V30 4 C 0.187337 -2.983190 1.762565 0
M  V30 5 C 1.227583 -2.842684 0.834835 0
M  V30 6 C 1.059874 -1.908203 -0.164402 0
M  V30 7 C 2.141408 -1.794955 -1.117091 0
M  V30 8 O 3.085051 -2.625475 -0.940980 0
M  V30 9 C 2.553216 -1.014647 -2.279931 0
M  V30 10 S 1.465080 0.354125 -2.678892 0
M  V30 11 C 1.580268 1.659962 -1.409019 0
M  V30 12 N 1.033054 1.953958 -0.353854 0
M  V30 13 C 1.440644 3.041943 0.285534 0
M  V30 14 S 0.870073 3.760792 1.817230 0
M  V30 15 C -0.472889 2.714975 2.444602 0
M  V30 16 N 2.523033 3.882735 -0.249438 0
M  V30 17 S 2.851212 2.877017 -1.786836 0
M  V30 18 C -0.100992 -1.177114 -0.195496 0
M  V30 19 C -1.141881 -1.288924 0.698312 0
M  V30 20 O -2.315259 -0.566863 0.687764 0
M  V30 21 C -2.504130 0.395598 -0.331233 0
M  V30 22 H -2.664628 -3.442311 4.317577 0
M  V30 23 H -0.921470 -3.047711 4.304262 0
M  V30 24 H -1.545084 -4.377285 3.232112 0
M  V30 25 H 0.258851 -3.697956 2.568805 0
M  V30 26 H 2.066660 -3.503398 1.015054 0
M  V30 27 H 2.551455 -1.693907 -3.169735 0
M  V30 28 H 3.610403 -0.648948 -2.148149 0
M  V30 29 H -0.130309 1.682765 2.662268 0
M  V30 30 H -0.927126 3.155752 3.346730 0
M  V30 31 H -1.266514 2.692528 1.647518 0
M  V30 32 H -0.256131 -0.448968 -0.977486 0
M  V30 33 H -1.588164 1.001350 -0.447033 0
M  V30 34 H -3.326137 1.113026 -0.034389 0
M  V30 35 H -2.745942 -0.095452 -1.301966 0
M  V30 END ATOM
M  V30 BEGIN BOND
M  V30 1 1 1 2
M  V30 2 1 2 3
M  V30 3 2 3 4
M  V30 4 1 4 5
M  V30 5 2 5 6
M  V30 6 1 6 7
M  V30 7 2 7 8
M  V30 8 1 7 9
M  V30 9 1 9 10
M  V30 10 1 10 11
M  V30 11 2 11 12
M  V30 12 1 12 13
M  V30 13 1 13 14
M  V30 14 1 14 15
M  V30 15 2 13 16
M  V30 16 1 16 17
M  V30 17 1 6 18
M  V30 18 2 18 19
M  V30 19 1 19 20
M  V30 20 1 20 21
M  V30 21 1 19 3
M  V30 22 1 17 11
M  V30 23 1 1 22
M  V30 24 1 1 23
M  V30 25 1 1 24
M  V30 26 1 4 25
M  V30 27 1 5 26
M  V30 28 1 9 27
M  V30 29 1 9 28
M  V30 30 1 15 29
M  V30 31 1 15 30
M  V30 32 1 15 31
M  V30 33 1 18 32
M  V30 34 1 21 33
M  V30 35 1 21 34
M  V30 36 1 21 35
M  V30 END BOND
M  V30 END CTAB
M  END
>  <Dataset>  (986) 
ChEMBL_Kinases

>  <Ligand_Instance>  (986) 
nan

>  <PDB_ID>  (986) 
nan

>  <Standardized_SMILES>  (986) 
COc1ccc(C(=O)CSc2nc(SC)ns2)cc1OC

>  <Name>  (986) 
nan

>  <Pocket>  (986) 
nan

>  <ATP_Site>  (986) 
nan

>  <Peripheral>  (986) 
nan

>  <Num_H_Atoms_ProtBoundConf>  (986) 
nan

>  <Num_Resolved_Atoms>  (986) 
nan

>  <Num_Not_Resolved_Atoms>  (986) 
nan

$$$$
CHEMBL1376804
     RDKit          3D

  0  0  0  0  0  0  0  0  0  0999 V3000
M  V30 BEGIN CTAB
M  V30 COUNTS 45 48 0 0 0
M  V30 BEGIN ATOM
M  V30 1 C 5.831590 -2.241297 1.166099 0
M  V30 2 C 5.909000 -0.794690 0.750550 0
M  V30 3 C 6.838999 -0.074850 1.511664 0
M  V30 4 C 7.029229 1.261879 1.256577 0
M  V30 5 C 6.308943 1.881860 0.260377 0
M  V30 6 C 5.400265 1.162539 -0.477854 0
M  V30 7 C 5.167312 -0.179144 -0.267264 0
M  V30 8 O 4.346185 -1.088479 -0.845100 0
M  V30 9 C 3.434600 -0.964762 -1.873827 0
M  V30 10 C 2.327679 -0.025751 -1.673666 0
M  V30 11 N 1.154801 -0.418455 -1.092694 0
M  V30 12 C 0.306117 0.622334 -1.025053 0
M  V30 13 C -1.024148 0.472294 -0.444726 0
M  V30 14 C -1.529289 1.343643 0.506424 0
M  V30 15 C -2.811147 1.124961 1.007332 0
M  V30 16 C -3.549396 0.050652 0.549270 0
M  V30 17 N -4.881902 -0.245103 1.016147 0
M  V30 18 C -4.797191 -1.108870 2.142678 0
M  V30 19 O -3.637563 -1.435647 2.501663 0
M  V30 20 C -5.946755 -1.618668 2.879044 0
M  V30 21 C -5.786310 -2.454668 3.964641 0
M  V30 22 C -7.082035 -2.737102 4.411877 0
M  V30 23 C -7.946055 -2.044251 3.555755 0
M  V30 24 O -7.210744 -1.404670 2.674054 0
M  V30 25 C -3.059227 -0.827301 -0.399218 0
M  V30 26 C -1.785621 -0.608659 -0.895826 0
M  V30 27 N 0.991418 1.640698 -1.574543 0
M  V30 28 O 2.166514 1.250030 -1.947856 0
M  V30 29 H 5.334460 -2.274888 2.143969 0
M  V30 30 H 6.863512 -2.665797 1.289827 0
M  V30 31 H 5.320749 -2.856131 0.418618 0
M  V30 32 H 7.432897 -0.505901 2.305308 0
M  V30 33 H 7.738767 1.846809 1.825003 0
M  V30 34 H 6.417848 2.930203 0.016580 0
M  V30 35 H 4.791010 1.548112 -1.276409 0
M  V30 36 H 3.971454 -0.631807 -2.790107 0
M  V30 37 H 3.000743 -1.976918 -2.113381 0
M  V30 38 H -0.930358 2.171278 0.843460 0
M  V30 39 H -3.248873 1.769832 1.744806 0
M  V30 40 H -5.834055 0.035627 0.705115 0
M  V30 41 H -4.879952 -2.853497 4.433083 0
M  V30 42 H -7.280164 -3.377768 5.262957 0
M  V30 43 H -9.025804 -2.099423 3.692403 0
M  V30 44 H -3.617985 -1.674586 -0.772819 0
M  V30 45 H -1.390685 -1.296674 -1.644791 0
M  V30 END ATOM
M  V30 BEGIN BOND
M  V30 1 1 1 2
M  V30 2 2 2 3
M  V30 3 1 3 4
M  V30 4 2 4 5
M  V30 5 1 5 6
M  V30 6 2 6 7
M  V30 7 1 7 8
M  V30 8 1 8 9
M  V30 9 1 9 10
M  V30 10 2 10 11
M  V30 11 1 11 12
M  V30 12 1 12 13
M  V30 13 2 13 14
M  V30 14 1 14 15
M  V30 15 2 15 16
M  V30 16 1 16 17
M  V30 17 1 17 18
M  V30 18 2 18 19
M  V30 19 1 18 20
M  V30 20 2 20 21
M  V30 21 1 21 22
M  V30 22 2 22 23
M  V30 23 1 23 24
M  V30 24 1 16 25
M  V30 25 2 25 26
M  V30 26 2 12 27
M  V30 27 1 27 28
M  V30 28 1 7 2
M  V30 29 1 28 10
M  V30 30 1 26 13
M  V30 31 1 24 20
M  V30 32 1 1 29
M  V30 33 1 1 30
M  V30 34 1 1 31
M  V30 35 1 3 32
M  V30 36 1 4 33
M  V30 37 1 5 34
M  V30 38 1 6 35
M  V30 39 1 9 36
M  V30 40 1 9 37
M  V30 41 1 14 38
M  V30 42 1 15 39
M  V30 43 1 17 40
M  V30 44 1 21 41
M  V30 45 1 22 42
M  V30 46 1 23 43
M  V30 47 1 25 44
M  V30 48 1 26 45
M  V30 END BOND
M  V30 END CTAB
M  END
>  <Dataset>  (987) 
ChEMBL_Kinases

>  <Ligand_Instance>  (987) 
nan

>  <PDB_ID>  (987) 
nan

>  <Standardized_SMILES>  (987) 
Cc1ccccc1OCc1nc(-c2ccc(NC(=O)c3ccco3)cc2)no1

>  <Name>  (987) 
nan

>  <Pocket>  (987) 
nan

>  <ATP_Site>  (987) 
nan

>  <Peripheral>  (987) 
nan

>  <Num_H_Atoms_ProtBoundConf>  (987) 
nan

>  <Num_Resolved_Atoms>  (987) 
nan

>  <Num_Not_Resolved_Atoms>  (987) 
nan

$$$$
CHEMBL1376797
     RDKit          3D

  0  0  0  0  0  0  0  0  0  0999 V3000
M  V30 BEGIN CTAB
M  V30 COUNTS 62 64 0 0 0
M  V30 BEGIN ATOM
M  V30 1 C 2.465669 -3.657507 3.967392 0
M  V30 2 O 1.199505 -3.125386 4.022891 0
M  V30 3 C 0.940560 -2.126368 3.116711 0
M  V30 4 C 1.847601 -0.944673 3.273421 0
M  V30 5 C 1.535656 0.136928 2.260748 0
M  V30 6 N 1.675349 -0.302539 0.892843 0
M  V30 7 C 1.376236 0.735398 -0.067224 0
M  V30 8 O 1.073014 1.745175 0.654323 0
M  V30 9 C 1.473042 0.443075 -1.519706 0
M  V30 10 C 2.311747 1.438507 -2.268395 0
M  V30 11 C 1.737561 2.794034 -2.129628 0
M  V30 12 C 0.759327 3.147898 -3.062480 0
M  V30 13 C 0.132378 4.376678 -3.076910 0
M  V30 14 C 0.494019 5.304277 -2.115814 0
M  V30 15 C 1.460070 4.993298 -1.172505 0
M  V30 16 C 2.053800 3.753296 -1.203502 0
M  V30 17 N 1.848203 -0.899775 -1.693844 0
M  V30 18 S 0.742807 -1.983098 -2.354343 0
M  V30 19 O 1.252148 -3.393066 -2.427887 0
M  V30 20 O 0.255409 -1.496163 -3.684781 0
M  V30 21 C -0.656552 -2.056533 -1.269097 0
M  V30 22 C -1.717707 -1.193754 -1.454250 0
M  V30 23 C -2.837711 -1.184694 -0.659182 0
M  V30 24 C -2.921414 -2.083675 0.388574 0
M  V30 25 C -1.849088 -2.949457 0.568980 0
M  V30 26 C -0.723792 -2.960137 -0.228157 0
M  V30 27 C -1.918686 -3.863347 1.623175 0
M  V30 28 O -0.988171 -4.672958 1.843787 0
M  V30 29 N -3.017459 -3.833240 2.379976 0
M  V30 30 C -3.082638 -4.797096 3.486233 0
M  V30 31 C -4.057575 -2.984392 2.195018 0
M  V30 32 O -5.084393 -2.985507 2.934429 0
M  V30 33 N -4.007275 -2.095634 1.182373 0
M  V30 34 C -5.067356 -1.143783 0.898791 0
M  V30 35 H 2.516079 -4.454627 4.764702 0
M  V30 36 H 3.232352 -2.902894 4.284486 0
M  V30 37 H 2.777713 -4.060450 2.999133 0
M  V30 38 H -0.094996 -1.788315 3.267018 0
M  V30 39 H 1.018299 -2.457479 2.060105 0
M  V30 40 H 2.921588 -1.193005 3.217070 0
M  V30 41 H 1.636002 -0.498528 4.269130 0
M  V30 42 H 0.523983 0.537922 2.467177 0
M  V30 43 H 2.287614 0.941189 2.403453 0
M  V30 44 H 1.965587 -1.281850 0.623519 0
M  V30 45 H 0.410783 0.545203 -1.893642 0
M  V30 46 H 2.423559 1.221987 -3.326093 0
M  V30 47 H 3.310221 1.438732 -1.754767 0
M  V30 48 H 0.419922 2.470336 -3.852244 0
M  V30 49 H -0.623093 4.633088 -3.807317 0
M  V30 50 H 0.066461 6.290940 -2.039092 0
M  V30 51 H 1.796882 5.679903 -0.380808 0
M  V30 52 H 2.811571 3.486993 -0.488344 0
M  V30 53 H 2.690627 -1.262840 -1.271578 0
M  V30 54 H -1.738802 -0.458329 -2.247200 0
M  V30 55 H -3.669375 -0.495908 -0.818259 0
M  V30 56 H 0.085755 -3.640523 -0.062781 0
M  V30 57 H -2.348485 -4.415708 4.247320 0
M  V30 58 H -2.736149 -5.794839 3.192015 0
M  V30 59 H -4.103617 -4.796821 3.929754 0
M  V30 60 H -5.527948 -1.325807 -0.094370 0
M  V30 61 H -5.885955 -1.252543 1.663466 0
M  V30 62 H -4.672043 -0.123853 1.029896 0
M  V30 END ATOM
M  V30 BEGIN BOND
M  V30 1 1 1 2
M  V30 2 1 2 3
M  V30 3 1 3 4
M  V30 4 1 4 5
M  V30 5 1 5 6
M  V30 6 1 6 7
M  V30 7 2 7 8
M  V30 8 1 7 9
M  V30 9 1 9 10
M  V30 10 1 10 11
M  V30 11 2 11 12
M  V30 12 1 12 13
M  V30 13 2 13 14
M  V30 14 1 14 15
M  V30 15 2 15 16
M  V30 16 1 9 17
M  V30 17 1 17 18
M  V30 18 2 18 19
M  V30 19 2 18 20
M  V30 20 1 18 21
M  V30 21 2 21 22
M  V30 22 1 22 23
M  V30 23 2 23 24
M  V30 24 1 24 25
M  V30 25 2 25 26
M  V30 26 1 25 27
M  V30 27 2 27 28
M  V30 28 1 27 29
M  V30 29 1 29 30
M  V30 30 1 29 31
M  V30 31 2 31 32
M  V30 32 1 31 33
M  V30 33 1 33 34
M  V30 34 1 16 11
M  V30 35 1 26 21
M  V30 36 1 33 24
M  V30 37 1 1 35
M  V30 38 1 1 36
M  V30 39 1 1 37
M  V30 40 1 3 38
M  V30 41 1 3 39
M  V30 42 1 4 40
M  V30 43 1 4 41
M  V30 44 1 5 42
M  V30 45 1 5 43
M  V30 46 1 6 44
M  V30 47 1 9 45
M  V30 48 1 10 46
M  V30 49 1 10 47
M  V30 50 1 12 48
M  V30 51 1 13 49
M  V30 52 1 14 50
M  V30 53 1 15 51
M  V30 54 1 16 52
M  V30 55 1 17 53
M  V30 56 1 22 54
M  V30 57 1 23 55
M  V30 58 1 26 56
M  V30 59 1 30 57
M  V30 60 1 30 58
M  V30 61 1 30 59
M  V30 62 1 34 60
M  V30 63 1 34 61
M  V30 64 1 34 62
M  V30 END BOND
M  V30 END CTAB
M  END
>  <Dataset>  (988) 
ChEMBL_Kinases

>  <Ligand_Instance>  (988) 
nan

>  <PDB_ID>  (988) 
nan

>  <Standardized_SMILES>  (988) 
COCCCNC(=O)C(Cc1ccccc1)NS(=O)(=O)c1ccc2c(c1)c(=O)n(C)c(=O)n2C

>  <Name>  (988) 
nan

>  <Pocket>  (988) 
nan

>  <ATP_Site>  (988) 
nan

>  <Peripheral>  (988) 
nan

>  <Num_H_Atoms_ProtBoundConf>  (988) 
nan

>  <Num_Resolved_Atoms>  (988) 
nan

>  <Num_Not_Resolved_Atoms>  (988) 
nan

$$$$
CHEMBL1376578
     RDKit          3D

  0  0  0  0  0  0  0  0  0  0999 V3000
M  V30 BEGIN CTAB
M  V30 COUNTS 29 30 0 0 0
M  V30 BEGIN ATOM
M  V30 1 C 0.417733 -3.905238 3.645462 0
M  V30 2 N 1.183509 -3.869535 2.413905 0
M  V30 3 C 2.499850 -4.491429 2.394980 0
M  V30 4 C 0.593508 -3.216168 1.272035 0
M  V30 5 C 0.667850 -1.918709 1.207708 0
M  V30 6 S 1.457645 -0.853243 2.443493 0
M  V30 7 C 0.629134 0.651391 1.856617 0
M  V30 8 S 0.470867 2.049428 2.681265 0
M  V30 9 N 0.153633 0.360122 0.546618 0
M  V30 10 C -0.298498 1.404358 -0.314388 0
M  V30 11 C 0.553108 2.064515 -1.178621 0
M  V30 12 C 0.150007 3.081990 -2.028066 0
M  V30 13 C -1.193654 3.420623 -1.970571 0
M  V30 14 Br -1.855891 4.809342 -3.098432 0
M  V30 15 C -2.124199 2.811586 -1.132506 0
M  V30 16 C -1.631457 1.796256 -0.310306 0
M  V30 17 C 0.175653 -1.018384 0.201859 0
M  V30 18 O -0.207707 -1.466572 -0.916323 0
M  V30 19 H -0.189304 -4.846882 3.640948 0
M  V30 20 H 1.136238 -3.943742 4.483860 0
M  V30 21 H -0.253120 -3.021761 3.699007 0
M  V30 22 H 2.953643 -4.469966 1.403238 0
M  V30 23 H 2.335861 -5.552778 2.732110 0
M  V30 24 H 3.092756 -3.975741 3.187862 0
M  V30 25 H 0.087696 -3.735654 0.456036 0
M  V30 26 H 1.597514 1.769018 -1.192766 0
M  V30 27 H 0.822253 3.591196 -2.699004 0
M  V30 28 H -3.156171 3.115647 -1.129969 0
M  V30 29 H -2.345560 1.307934 0.352642 0
M  V30 END ATOM
M  V30 BEGIN BOND
M  V30 1 1 1 2
M  V30 2 1 2 3
M  V30 3 1 2 4
M  V30 4 2 4 5
M  V30 5 1 5 6
M  V30 6 1 6 7
M  V30 7 2 7 8
M  V30 8 1 7 9
M  V30 9 1 9 10
M  V30 10 2 10 11
M  V30 11 1 11 12
M  V30 12 2 12 13
M  V30 13 1 13 14
M  V30 14 1 13 15
M  V30 15 2 15 16
M  V30 16 1 9 17
M  V30 17 2 17 18
M  V30 18 1 17 5
M  V30 19 1 16 10
M  V30 20 1 1 19
M  V30 21 1 1 20
M  V30 22 1 1 21
M  V30 23 1 3 22
M  V30 24 1 3 23
M  V30 25 1 3 24
M  V30 26 1 4 25
M  V30 27 1 11 26
M  V30 28 1 12 27
M  V30 29 1 15 28
M  V30 30 1 16 29
M  V30 END BOND
M  V30 END CTAB
M  END
>  <Dataset>  (989) 
ChEMBL_Kinases

>  <Ligand_Instance>  (989) 
nan

>  <PDB_ID>  (989) 
nan

>  <Standardized_SMILES>  (989) 
CN(C)/C=C1\SC(=S)N(c2ccc(Br)cc2)C1=O

>  <Name>  (989) 
nan

>  <Pocket>  (989) 
nan

>  <ATP_Site>  (989) 
nan

>  <Peripheral>  (989) 
nan

>  <Num_H_Atoms_ProtBoundConf>  (989) 
nan

>  <Num_Resolved_Atoms>  (989) 
nan

>  <Num_Not_Resolved_Atoms>  (989) 
nan

$$$$
CHEMBL1376559
     RDKit          3D

  0  0  0  0  0  0  0  0  0  0999 V3000
M  V30 BEGIN CTAB
M  V30 COUNTS 37 38 0 0 0
M  V30 BEGIN ATOM
M  V30 1 C -0.643045 -2.337700 2.873513 0
M  V30 2 S 0.440908 -3.707395 2.681981 0
M  V30 3 O -0.386521 -4.966227 2.748516 0
M  V30 4 O 1.368675 -3.745168 3.861965 0
M  V30 5 N 1.353722 -3.717311 1.260328 0
M  V30 6 C 0.638536 -3.769678 0.032894 0
M  V30 7 C 1.141020 -2.666081 -0.907987 0
M  V30 8 N 1.226368 -1.403560 -0.158798 0
M  V30 9 C 0.352608 -0.313979 -0.429371 0
M  V30 10 O -0.278836 -0.897136 -1.349602 0
M  V30 11 C 0.533881 0.905006 0.390365 0
M  V30 12 C -0.395646 1.988911 0.060731 0
M  V30 13 C 0.088793 3.072388 -0.682420 0
M  V30 14 C -0.659340 4.167225 -1.071431 0
M  V30 15 C -1.981939 4.153749 -0.676804 0
M  V30 16 C -2.528534 3.121901 0.056061 0
M  V30 17 C -1.723018 2.037307 0.422371 0
M  V30 18 Cl -2.368603 0.707034 1.351609 0
M  V30 19 C 2.290271 -1.498066 0.821462 0
M  V30 20 C 2.518253 -2.907470 1.264225 0
M  V30 21 H -0.093500 -1.486554 3.365093 0
M  V30 22 H -1.075215 -1.945429 1.952330 0
M  V30 23 H -1.461077 -2.590980 3.582567 0
M  V30 24 H -0.443910 -3.680785 0.075841 0
M  V30 25 H 0.908506 -4.727244 -0.474350 0
M  V30 26 H 0.485435 -2.612254 -1.775623 0
M  V30 27 H 2.146089 -2.954318 -1.297506 0
M  V30 28 H 1.574886 1.240401 0.286055 0
M  V30 29 H 0.372240 0.629387 1.450093 0
M  V30 30 H 1.145587 3.060646 -0.984825 0
M  V30 31 H -0.179745 4.948277 -1.645775 0
M  V30 32 H -2.575486 5.011827 -0.979204 0
M  V30 33 H -3.581629 3.140546 0.354330 0
M  V30 34 H 1.996971 -0.909516 1.737465 0
M  V30 35 H 3.226814 -1.055950 0.430653 0
M  V30 36 H 3.237313 -3.354748 0.521624 0
M  V30 37 H 2.926817 -2.893483 2.294596 0
M  V30 END ATOM
M  V30 BEGIN BOND
M  V30 1 1 1 2
M  V30 2 2 2 3
M  V30 3 2 2 4
M  V30 4 1 2 5
M  V30 5 1 5 6
M  V30 6 1 6 7
M  V30 7 1 7 8
M  V30 8 1 8 9
M  V30 9 2 9 10
M  V30 10 1 9 11
M  V30 11 1 11 12
M  V30 12 2 12 13
M  V30 13 1 13 14
M  V30 14 2 14 15
M  V30 15 1 15 16
M  V30 16 2 16 17
M  V30 17 1 17 18
M  V30 18 1 8 19
M  V30 19 1 19 20
M  V30 20 1 20 5
M  V30 21 1 17 12
M  V30 22 1 1 21
M  V30 23 1 1 22
M  V30 24 1 1 23
M  V30 25 1 6 24
M  V30 26 1 6 25
M  V30 27 1 7 26
M  V30 28 1 7 27
M  V30 29 1 11 28
M  V30 30 1 11 29
M  V30 31 1 13 30
M  V30 32 1 14 31
M  V30 33 1 15 32
M  V30 34 1 16 33
M  V30 35 1 19 34
M  V30 36 1 19 35
M  V30 37 1 20 36
M  V30 38 1 20 37
M  V30 END BOND
M  V30 END CTAB
M  END
>  <Dataset>  (990) 
ChEMBL_Kinases

>  <Ligand_Instance>  (990) 
nan

>  <PDB_ID>  (990) 
nan

>  <Standardized_SMILES>  (990) 
CS(=O)(=O)N1CCN(C(=O)Cc2ccccc2Cl)CC1

>  <Name>  (990) 
nan

>  <Pocket>  (990) 
nan

>  <ATP_Site>  (990) 
nan

>  <Peripheral>  (990) 
nan

>  <Num_H_Atoms_ProtBoundConf>  (990) 
nan

>  <Num_Resolved_Atoms>  (990) 
nan

>  <Num_Not_Resolved_Atoms>  (990) 
nan

$$$$
CHEMBL1376468
     RDKit          3D

  0  0  0  0  0  0  0  0  0  0999 V3000
M  V30 BEGIN CTAB
M  V30 COUNTS 35 37 0 0 0
M  V30 BEGIN ATOM
M  V30 1 C -0.641761 -2.086228 4.047243 0
M  V30 2 C 0.715972 -2.019203 3.381366 0
M  V30 3 N 0.605821 -1.717688 1.969603 0
M  V30 4 C 0.488783 -2.612902 0.971913 0
M  V30 5 C 0.435893 -3.995722 0.924846 0
M  V30 6 C 0.310704 -4.734826 -0.232558 0
M  V30 7 C 0.235339 -4.021431 -1.407490 0
M  V30 8 C 0.281765 -2.640690 -1.435061 0
M  V30 9 C 0.408272 -1.948811 -0.242765 0
M  V30 10 C 0.480698 -0.581934 0.039010 0
M  V30 11 C 0.446897 0.509124 -0.806383 0
M  V30 12 C 0.542059 1.763537 -0.212651 0
M  V30 13 C 0.517518 3.013461 -1.015314 0
M  V30 14 C -0.906372 3.419555 -1.122644 0
M  V30 15 N -1.471891 4.533834 -1.779263 0
M  V30 16 O -1.637929 2.580282 -0.502648 0
M  V30 17 C 0.666411 1.929422 1.171585 0
M  V30 18 C 0.691581 0.781526 1.939601 0
M  V30 19 C 0.601577 -0.491063 1.413601 0
M  V30 20 H -1.474771 -2.044755 3.329988 0
M  V30 21 H -0.762616 -1.279703 4.812051 0
M  V30 22 H -0.770143 -3.027572 4.622299 0
M  V30 23 H 1.172059 -3.035803 3.477878 0
M  V30 24 H 1.364741 -1.268863 3.868334 0
M  V30 25 H 0.500123 -4.488034 1.878314 0
M  V30 26 H 0.275971 -5.797378 -0.199632 0
M  V30 27 H 0.136052 -4.515153 -2.363629 0
M  V30 28 H 0.219883 -2.108250 -2.377748 0
M  V30 29 H 0.351478 0.413009 -1.881386 0
M  V30 30 H 1.168165 3.806608 -0.618144 0
M  V30 31 H 0.895209 2.824219 -2.062047 0
M  V30 32 H -2.058160 4.553910 -2.655948 0
M  V30 33 H -1.423114 5.563375 -1.528283 0
M  V30 34 H 0.739261 2.916355 1.615308 0
M  V30 35 H 0.788688 0.936338 3.009945 0
M  V30 END ATOM
M  V30 BEGIN BOND
M  V30 1 1 1 2
M  V30 2 1 2 3
M  V30 3 1 3 4
M  V30 4 2 4 5
M  V30 5 1 5 6
M  V30 6 2 6 7
M  V30 7 1 7 8
M  V30 8 2 8 9
M  V30 9 1 9 10
M  V30 10 2 10 11
M  V30 11 1 11 12
M  V30 12 1 12 13
M  V30 13 1 13 14
M  V30 14 1 14 15
M  V30 15 2 14 16
M  V30 16 2 12 17
M  V30 17 1 17 18
M  V30 18 2 18 19
M  V30 19 1 19 3
M  V30 20 1 9 4
M  V30 21 1 19 10
M  V30 22 1 1 20
M  V30 23 1 1 21
M  V30 24 1 1 22
M  V30 25 1 2 23
M  V30 26 1 2 24
M  V30 27 1 5 25
M  V30 28 1 6 26
M  V30 29 1 7 27
M  V30 30 1 8 28
M  V30 31 1 11 29
M  V30 32 1 13 30
M  V30 33 1 13 31
M  V30 34 1 15 32
M  V30 35 1 15 33
M  V30 36 1 17 34
M  V30 37 1 18 35
M  V30 END BOND
M  V30 END CTAB
M  END
>  <Dataset>  (991) 
ChEMBL_Kinases

>  <Ligand_Instance>  (991) 
nan

>  <PDB_ID>  (991) 
nan

>  <Standardized_SMILES>  (991) 
CCn1c2ccccc2c2cc(CC(N)=O)ccc21

>  <Name>  (991) 
nan

>  <Pocket>  (991) 
nan

>  <ATP_Site>  (991) 
nan

>  <Peripheral>  (991) 
nan

>  <Num_H_Atoms_ProtBoundConf>  (991) 
nan

>  <Num_Resolved_Atoms>  (991) 
nan

>  <Num_Not_Resolved_Atoms>  (991) 
nan

$$$$
CHEMBL1376444
     RDKit          3D

  0  0  0  0  0  0  0  0  0  0999 V3000
M  V30 BEGIN CTAB
M  V30 COUNTS 38 41 0 0 0
M  V30 BEGIN ATOM
M  V30 1 O 2.596057 -1.318273 2.031036 0
M  V30 2 C 2.513752 -1.453366 0.787257 0
M  V30 3 C 3.269043 -2.433890 0.015319 0
M  V30 4 C 4.194309 -3.397103 0.375536 0
M  V30 5 C 4.764829 -4.205987 -0.582352 0
M  V30 6 C 4.432637 -4.080730 -1.922130 0
M  V30 7 C 3.512773 -3.127595 -2.304744 0
M  V30 8 C 2.948157 -2.322655 -1.332673 0
M  V30 9 C 1.963555 -1.255028 -1.482268 0
M  V30 10 O 1.417409 -0.837059 -2.521518 0
M  V30 11 N 1.723996 -0.747120 -0.156696 0
M  V30 12 C 0.816961 0.332268 0.232309 0
M  V30 13 C 1.484226 1.662355 0.215958 0
M  V30 14 C 0.640338 2.836425 0.578264 0
M  V30 15 S -0.098191 2.864172 2.184779 0
M  V30 16 C -1.391249 1.672128 2.468044 0
M  V30 17 N -1.704419 0.435142 2.891695 0
M  V30 18 C -3.028835 0.260319 2.790283 0
M  V30 19 C -3.727593 -0.885070 3.131029 0
M  V30 20 C -5.097727 -0.849748 2.945191 0
M  V30 21 C -5.689270 0.289069 2.444359 0
M  V30 22 C -4.935838 1.398957 2.123761 0
M  V30 23 C -3.549430 1.429921 2.286831 0
M  V30 24 O -2.533875 2.233012 2.114121 0
M  V30 25 H 4.482064 -3.528525 1.409909 0
M  V30 26 H 5.500218 -4.974444 -0.312091 0
M  V30 27 H 4.874103 -4.707871 -2.669888 0
M  V30 28 H 3.263170 -3.041088 -3.353045 0
M  V30 29 H 0.438121 0.173026 1.258853 0
M  V30 30 H -0.049354 0.278723 -0.451020 0
M  V30 31 H 2.459281 1.658015 0.770459 0
M  V30 32 H 1.805471 1.844499 -0.855880 0
M  V30 33 H 1.328163 3.737323 0.515716 0
M  V30 34 H -0.083715 3.014364 -0.257960 0
M  V30 35 H -3.230378 -1.753739 3.518708 0
M  V30 36 H -5.697194 -1.713883 3.193227 0
M  V30 37 H -6.769846 0.362445 2.280838 0
M  V30 38 H -5.366998 2.329876 1.720960 0
M  V30 END ATOM
M  V30 BEGIN BOND
M  V30 1 2 1 2
M  V30 2 1 2 3
M  V30 3 2 3 4
M  V30 4 1 4 5
M  V30 5 2 5 6
M  V30 6 1 6 7
M  V30 7 2 7 8
M  V30 8 1 8 9
M  V30 9 2 9 10
M  V30 10 1 9 11
M  V30 11 1 11 12
M  V30 12 1 12 13
M  V30 13 1 13 14
M  V30 14 1 14 15
M  V30 15 1 15 16
M  V30 16 2 16 17
M  V30 17 1 17 18
M  V30 18 2 18 19
M  V30 19 1 19 20
M  V30 20 2 20 21
M  V30 21 1 21 22
M  V30 22 2 22 23
M  V30 23 1 23 24
M  V30 24 1 11 2
M  V30 25 1 24 16
M  V30 26 1 8 3
M  V30 27 1 23 18
M  V30 28 1 4 25
M  V30 29 1 5 26
M  V30 30 1 6 27
M  V30 31 1 7 28
M  V30 32 1 12 29
M  V30 33 1 12 30
M  V30 34 1 13 31
M  V30 35 1 13 32
M  V30 36 1 14 33
M  V30 37 1 14 34
M  V30 38 1 19 35
M  V30 39 1 20 36
M  V30 40 1 21 37
M  V30 41 1 22 38
M  V30 END BOND
M  V30 END CTAB
M  END
>  <Dataset>  (992) 
ChEMBL_Kinases

>  <Ligand_Instance>  (992) 
nan

>  <PDB_ID>  (992) 
nan

>  <Standardized_SMILES>  (992) 
O=C1c2ccccc2C(=O)N1CCCSc1nc2ccccc2o1

>  <Name>  (992) 
nan

>  <Pocket>  (992) 
nan

>  <ATP_Site>  (992) 
nan

>  <Peripheral>  (992) 
nan

>  <Num_H_Atoms_ProtBoundConf>  (992) 
nan

>  <Num_Resolved_Atoms>  (992) 
nan

>  <Num_Not_Resolved_Atoms>  (992) 
nan

$$$$
CHEMBL1376371
     RDKit          3D

  0  0  0  0  0  0  0  0  0  0999 V3000
M  V30 BEGIN CTAB
M  V30 COUNTS 40 44 0 0 0
M  V30 BEGIN ATOM
M  V30 1 C -0.161142 -4.234759 1.115773 0
M  V30 2 N -0.066359 -3.114965 2.019947 0
M  V30 3 C 1.127314 -2.307655 1.653700 0
M  V30 4 C 0.861148 -1.644581 0.347465 0
M  V30 5 C 1.339071 -1.708831 -0.862251 0
M  V30 6 C 0.808052 -0.917912 -1.958474 0
M  V30 7 C 1.436693 -1.044790 -3.159704 0
M  V30 8 C 0.910762 -0.256499 -4.189419 0
M  V30 9 C -0.182172 0.583250 -3.947741 0
M  V30 10 C -0.774592 0.656588 -2.679841 0
M  V30 11 C -0.262973 -0.114799 -1.666806 0
M  V30 12 O -0.778292 -0.112876 -0.390053 0
M  V30 13 C 0.015289 -0.478931 0.694866 0
M  V30 14 O 0.792958 0.722134 0.944880 0
M  V30 15 C 0.615798 1.364310 2.152409 0
M  V30 16 C 1.312412 2.569868 2.261806 0
M  V30 17 C 1.239902 3.342747 3.425140 0
M  V30 18 C 0.482468 2.944797 4.499829 0
M  V30 19 C -0.202129 1.745686 4.372480 0
M  V30 20 C -0.132911 0.995877 3.245357 0
M  V30 21 C -0.863704 -0.258451 3.111541 0
M  V30 22 C -0.710213 -0.828451 1.933781 0
M  V30 23 C -1.255424 -2.240684 1.870223 0
M  V30 24 H -1.214697 -4.540960 0.930062 0
M  V30 25 H 0.290413 -3.933940 0.140773 0
M  V30 26 H 0.439742 -5.087564 1.489825 0
M  V30 27 H 1.956552 -3.039831 1.595233 0
M  V30 28 H 1.319197 -1.642172 2.497541 0
M  V30 29 H 2.152824 -2.424403 -0.874729 0
M  V30 30 H 2.279097 -1.708817 -3.295912 0
M  V30 31 H 1.373905 -0.319454 -5.165530 0
M  V30 32 H -0.592146 1.196173 -4.744112 0
M  V30 33 H -1.619591 1.300241 -2.476206 0
M  V30 34 H 1.942681 2.968510 1.455777 0
M  V30 35 H 1.798999 4.274638 3.466318 0
M  V30 36 H 0.448560 3.563984 5.381676 0
M  V30 37 H -0.804965 1.387155 5.173026 0
M  V30 38 H -1.460810 -0.671541 3.886826 0
M  V30 39 H -1.626754 -2.392687 0.855987 0
M  V30 40 H -2.031483 -2.438851 2.594365 0
M  V30 END ATOM
M  V30 BEGIN BOND
M  V30 1 1 1 2
M  V30 2 1 2 3
M  V30 3 1 3 4
M  V30 4 2 4 5
M  V30 5 1 5 6
M  V30 6 2 6 7
M  V30 7 1 7 8
M  V30 8 2 8 9
M  V30 9 1 9 10
M  V30 10 2 10 11
M  V30 11 1 11 12
M  V30 12 1 12 13
M  V30 13 1 13 14
M  V30 14 1 14 15
M  V30 15 2 15 16
M  V30 16 1 16 17
M  V30 17 2 17 18
M  V30 18 1 18 19
M  V30 19 2 19 20
M  V30 20 1 20 21
M  V30 21 2 21 22
M  V30 22 1 22 23
M  V30 23 1 23 2
M  V30 24 1 13 4
M  V30 25 1 20 15
M  V30 26 1 11 6
M  V30 27 1 22 13
M  V30 28 1 1 24
M  V30 29 1 1 25
M  V30 30 1 1 26
M  V30 31 1 3 27
M  V30 32 1 3 28
M  V30 33 1 5 29
M  V30 34 1 7 30
M  V30 35 1 8 31
M  V30 36 1 9 32
M  V30 37 1 10 33
M  V30 38 1 16 34
M  V30 39 1 17 35
M  V30 40 1 18 36
M  V30 41 1 19 37
M  V30 42 1 21 38
M  V30 43 1 23 39
M  V30 44 1 23 40
M  V30 END BOND
M  V30 END CTAB
M  END
>  <Dataset>  (993) 
ChEMBL_Kinases

>  <Ligand_Instance>  (993) 
nan

>  <PDB_ID>  (993) 
nan

>  <Standardized_SMILES>  (993) 
CN1CC2=Cc3ccccc3OC23Oc2ccccc2C=C3C1

>  <Name>  (993) 
nan

>  <Pocket>  (993) 
nan

>  <ATP_Site>  (993) 
nan

>  <Peripheral>  (993) 
nan

>  <Num_H_Atoms_ProtBoundConf>  (993) 
nan

>  <Num_Resolved_Atoms>  (993) 
nan

>  <Num_Not_Resolved_Atoms>  (993) 
nan

$$$$
CHEMBL1380156
     RDKit          3D

  0  0  0  0  0  0  0  0  0  0999 V3000
M  V30 BEGIN CTAB
M  V30 COUNTS 55 59 0 0 0
M  V30 BEGIN ATOM
M  V30 1 C 1.680157 -2.678789 4.739245 0
M  V30 2 C 2.331046 -1.432916 4.263192 0
M  V30 3 C 3.139107 -0.708808 5.119958 0
M  V30 4 C 3.702245 0.434863 4.592381 0
M  V30 5 C 3.502725 0.870835 3.299030 0
M  V30 6 C 2.697495 0.142778 2.456733 0
M  V30 7 C 2.428581 0.483853 1.146898 0
M  V30 8 C 1.610417 -0.238311 0.259996 0
M  V30 9 C 1.514431 0.401623 -1.049245 0
M  V30 10 N 0.397150 1.171080 -1.339043 0
M  V30 11 C 0.548831 2.546490 -1.025657 0
M  V30 12 C -0.302910 2.867321 0.176089 0
M  V30 13 C -1.608284 3.302121 0.268539 0
M  V30 14 C -1.953372 3.459101 1.592668 0
M  V30 15 C -0.806253 3.101950 2.280550 0
M  V30 16 O 0.110778 2.770786 1.419701 0
M  V30 17 S -0.781217 0.712496 -2.420680 0
M  V30 18 O -1.767555 1.850821 -2.724262 0
M  V30 19 O -0.086782 0.519412 -3.782098 0
M  V30 20 C -1.668806 -0.745089 -2.077654 0
M  V30 21 C -2.724091 -0.603534 -1.199648 0
M  V30 22 C -3.506703 -1.695037 -0.874344 0
M  V30 23 C -3.205880 -2.921809 -1.447635 0
M  V30 24 C -2.148674 -3.054391 -2.324841 0
M  V30 25 C -1.336174 -1.968732 -2.675568 0
M  V30 26 O -1.861857 -4.286345 -2.888722 0
M  V30 27 C -2.149267 -5.476715 -2.222625 0
M  V30 28 C -3.112387 -5.327441 -1.067338 0
M  V30 29 O -3.871934 -4.122643 -1.244508 0
M  V30 30 C 1.102614 -1.349901 0.875388 0
M  V30 31 O 0.293285 -2.099302 0.051804 0
M  V30 32 N 1.341363 -1.711694 2.142427 0
M  V30 33 C 2.127989 -1.002780 2.970666 0
M  V30 34 H 0.617629 -2.687388 4.361152 0
M  V30 35 H 1.636384 -2.748582 5.826889 0
M  V30 36 H 2.141628 -3.584054 4.275322 0
M  V30 37 H 3.330135 -1.002475 6.141058 0
M  V30 38 H 4.342857 1.002935 5.281283 0
M  V30 39 H 3.957664 1.770439 2.916066 0
M  V30 40 H 2.948020 1.417289 0.873410 0
M  V30 41 H 2.498899 0.914266 -1.300030 0
M  V30 42 H 1.527575 -0.470989 -1.795527 0
M  V30 43 H 1.588984 2.801382 -0.736600 0
M  V30 44 H 0.231626 3.236233 -1.835359 0
M  V30 45 H -2.235029 3.482818 -0.570925 0
M  V30 46 H -2.878787 3.779405 2.034512 0
M  V30 47 H -0.736582 3.113745 3.358956 0
M  V30 48 H -2.979749 0.339798 -0.739376 0
M  V30 49 H -4.351513 -1.681639 -0.199599 0
M  V30 50 H -0.503164 -2.024663 -3.353764 0
M  V30 51 H -1.205497 -5.929355 -1.849045 0
M  V30 52 H -2.622487 -6.164148 -2.969337 0
M  V30 53 H -2.524042 -5.262529 -0.108294 0
M  V30 54 H -3.776263 -6.191273 -1.044071 0
M  V30 55 H -0.699277 -2.263443 0.249131 0
M  V30 END ATOM
M  V30 BEGIN BOND
M  V30 1 1 1 2
M  V30 2 2 2 3
M  V30 3 1 3 4
M  V30 4 2 4 5
M  V30 5 1 5 6
M  V30 6 2 6 7
M  V30 7 1 7 8
M  V30 8 1 8 9
M  V30 9 1 9 10
M  V30 10 1 10 11
M  V30 11 1 11 12
M  V30 12 2 12 13
M  V30 13 1 13 14
M  V30 14 2 14 15
M  V30 15 1 15 16
M  V30 16 1 10 17
M  V30 17 2 17 18
M  V30 18 2 17 19
M  V30 19 1 17 20
M  V30 20 2 20 21
M  V30 21 1 21 22
M  V30 22 2 22 23
M  V30 23 1 23 24
M  V30 24 2 24 25
M  V30 25 1 24 26
M  V30 26 1 26 27
M  V30 27 1 27 28
M  V30 28 1 28 29
M  V30 29 2 8 30
M  V30 30 1 30 31
M  V30 31 1 30 32
M  V30 32 2 32 33
M  V30 33 1 33 2
M  V30 34 1 33 6
M  V30 35 1 16 12
M  V30 36 1 25 20
M  V30 37 1 29 23
M  V30 38 1 1 34
M  V30 39 1 1 35
M  V30 40 1 1 36
M  V30 41 1 3 37
M  V30 42 1 4 38
M  V30 43 1 5 39
M  V30 44 1 7 40
M  V30 45 1 9 41
M  V30 46 1 9 42
M  V30 47 1 11 43
M  V30 48 1 11 44
M  V30 49 1 13 45
M  V30 50 1 14 46
M  V30 51 1 15 47
M  V30 52 1 21 48
M  V30 53 1 22 49
M  V30 54 1 25 50
M  V30 55 1 27 51
M  V30 56 1 27 52
M  V30 57 1 28 53
M  V30 58 1 28 54
M  V30 59 1 31 55
M  V30 END BOND
M  V30 END CTAB
M  END
>  <Dataset>  (994) 
ChEMBL_Kinases

>  <Ligand_Instance>  (994) 
nan

>  <PDB_ID>  (994) 
nan

>  <Standardized_SMILES>  (994) 
Cc1cccc2cc(CN(Cc3ccco3)S(=O)(=O)c3ccc4c(c3)OCCO4)c(O)nc12

>  <Name>  (994) 
nan

>  <Pocket>  (994) 
nan

>  <ATP_Site>  (994) 
nan

>  <Peripheral>  (994) 
nan

>  <Num_H_Atoms_ProtBoundConf>  (994) 
nan

>  <Num_Resolved_Atoms>  (994) 
nan

>  <Num_Not_Resolved_Atoms>  (994) 
nan

$$$$
CHEMBL1374633
     RDKit          3D

  0  0  0  0  0  0  0  0  0  0999 V3000
M  V30 BEGIN CTAB
M  V30 COUNTS 59 63 0 0 0
M  V30 BEGIN ATOM
M  V30 1 C 1.768174 -1.247432 6.392147 0
M  V30 2 C 1.741322 -1.135693 4.918341 0
M  V30 3 C 2.830495 -1.638929 4.247468 0
M  V30 4 C 2.893620 -1.572057 2.874642 0
M  V30 5 C 1.861025 -0.999933 2.155506 0
M  V30 6 C 1.855930 -0.871739 0.675922 0
M  V30 7 N 2.364998 0.412685 0.226545 0
M  V30 8 C 3.699599 0.849732 0.551126 0
M  V30 9 C 4.543469 1.177039 -0.629428 0
M  V30 10 S 3.787413 2.555501 -1.557800 0
M  V30 11 C 2.021114 2.246184 -1.375564 0
M  V30 12 C 1.171660 3.048469 -2.105865 0
M  V30 13 C -0.197538 2.925170 -2.064535 0
M  V30 14 C -0.752661 1.957622 -1.258621 0
M  V30 15 C -2.125233 1.533805 -0.950050 0
M  V30 16 O -3.043883 2.012356 -0.225149 0
M  V30 17 N -2.669709 0.332721 -1.522011 0
M  V30 18 C -4.038571 -0.022992 -1.123895 0
M  V30 19 C -4.249529 -1.497213 -1.125158 0
M  V30 20 N -3.057902 -2.242425 -1.489217 0
M  V30 21 C -2.502990 -3.319047 -0.740649 0
M  V30 22 N -1.400835 -4.050501 -1.065143 0
M  V30 23 C -0.967778 -5.051054 -0.282166 0
M  V30 24 C -1.609638 -5.381492 0.871892 0
M  V30 25 C -2.730740 -4.650593 1.219803 0
M  V30 26 N -3.107266 -3.676488 0.405696 0
M  V30 27 C -2.471832 -1.775385 -2.729560 0
M  V30 28 C -1.852498 -0.430406 -2.448025 0
M  V30 29 C 0.118523 1.143167 -0.516866 0
M  V30 30 C 1.515110 1.261291 -0.552563 0
M  V30 31 C 0.774962 -0.500102 2.829897 0
M  V30 32 C 0.703389 -0.561898 4.217673 0
M  V30 33 H 2.755898 -0.986093 6.829296 0
M  V30 34 H 1.586727 -2.293758 6.699876 0
M  V30 35 H 0.958018 -0.647131 6.858757 0
M  V30 36 H 3.675670 -2.097867 4.733701 0
M  V30 37 H 3.710983 -1.951981 2.285122 0
M  V30 38 H 0.959738 -1.222428 0.179123 0
M  V30 39 H 2.663073 -1.601997 0.339354 0
M  V30 40 H 3.644268 1.709829 1.232999 0
M  V30 41 H 4.204529 0.044091 1.118884 0
M  V30 42 H 5.527330 1.528546 -0.273127 0
M  V30 43 H 4.682554 0.311730 -1.310890 0
M  V30 44 H 1.501012 3.841551 -2.775753 0
M  V30 45 H -0.989590 3.458443 -2.566643 0
M  V30 46 H -4.126769 0.333907 -0.050044 0
M  V30 47 H -4.798212 0.456074 -1.758184 0
M  V30 48 H -4.573700 -1.838033 -0.116888 0
M  V30 49 H -5.019341 -1.776631 -1.887356 0
M  V30 50 H -0.087781 -5.595057 -0.589003 0
M  V30 51 H -1.292881 -6.191168 1.546650 0
M  V30 52 H -3.271158 -4.881705 2.126553 0
M  V30 53 H -1.648204 -2.443034 -3.057240 0
M  V30 54 H -3.265914 -1.646342 -3.495505 0
M  V30 55 H -1.690951 0.146109 -3.389648 0
M  V30 56 H -0.889610 -0.627411 -1.935132 0
M  V30 57 H -0.218819 0.359179 0.142293 0
M  V30 58 H -0.107107 -0.031140 2.449733 0
M  V30 59 H -0.093093 -0.202985 4.848229 0
M  V30 END ATOM
M  V30 BEGIN BOND
M  V30 1 1 1 2
M  V30 2 2 2 3
M  V30 3 1 3 4
M  V30 4 2 4 5
M  V30 5 1 5 6
M  V30 6 1 6 7
M  V30 7 1 7 8
M  V30 8 1 8 9
M  V30 9 1 9 10
M  V30 10 1 10 11
M  V30 11 2 11 12
M  V30 12 1 12 13
M  V30 13 2 13 14
M  V30 14 1 14 15
M  V30 15 2 15 16
M  V30 16 1 15 17
M  V30 17 1 17 18
M  V30 18 1 18 19
M  V30 19 1 19 20
M  V30 20 1 20 21
M  V30 21 2 21 22
M  V30 22 1 22 23
M  V30 23 2 23 24
M  V30 24 1 24 25
M  V30 25 2 25 26
M  V30 26 1 20 27
M  V30 27 1 27 28
M  V30 28 1 14 29
M  V30 29 2 29 30
M  V30 30 1 5 31
M  V30 31 2 31 32
M  V30 32 1 32 2
M  V30 33 1 30 7
M  V30 34 1 30 11
M  V30 35 1 28 17
M  V30 36 1 26 21
M  V30 37 1 1 33
M  V30 38 1 1 34
M  V30 39 1 1 35
M  V30 40 1 3 36
M  V30 41 1 4 37
M  V30 42 1 6 38
M  V30 43 1 6 39
M  V30 44 1 8 40
M  V30 45 1 8 41
M  V30 46 1 9 42
M  V30 47 1 9 43
M  V30 48 1 12 44
M  V30 49 1 13 45
M  V30 50 1 18 46
M  V30 51 1 18 47
M  V30 52 1 19 48
M  V30 53 1 19 49
M  V30 54 1 23 50
M  V30 55 1 24 51
M  V30 56 1 25 52
M  V30 57 1 27 53
M  V30 58 1 27 54
M  V30 59 1 28 55
M  V30 60 1 28 56
M  V30 61 1 29 57
M  V30 62 1 31 58
M  V30 63 1 32 59
M  V30 END BOND
M  V30 END CTAB
M  END
>  <Dataset>  (995) 
ChEMBL_Kinases

>  <Ligand_Instance>  (995) 
nan

>  <PDB_ID>  (995) 
nan

>  <Standardized_SMILES>  (995) 
Cc1ccc(CN2CCSc3ccc(C(=O)N4CCN(c5ncccn5)CC4)cc32)cc1

>  <Name>  (995) 
nan

>  <Pocket>  (995) 
nan

>  <ATP_Site>  (995) 
nan

>  <Peripheral>  (995) 
nan

>  <Num_H_Atoms_ProtBoundConf>  (995) 
nan

>  <Num_Resolved_Atoms>  (995) 
nan

>  <Num_Not_Resolved_Atoms>  (995) 
nan

$$$$
CHEMBL1374653
     RDKit          3D

  0  0  0  0  0  0  0  0  0  0999 V3000
M  V30 BEGIN CTAB
M  V30 COUNTS 52 55 0 0 0
M  V30 BEGIN ATOM
M  V30 1 O -5.347830 -5.513414 0.951616 0
M  V30 2 C -4.163107 -5.090939 0.902557 0
M  V30 3 C -3.857187 -3.813542 1.322817 0
M  V30 4 C -2.569889 -3.254590 1.306787 0
M  V30 5 C -2.291900 -1.875385 1.759762 0
M  V30 6 N -2.130748 -0.893898 0.776102 0
M  V30 7 C -1.818755 0.424706 1.159640 0
M  V30 8 C -1.595847 1.384610 0.027286 0
M  V30 9 N -0.839335 0.868684 -1.054015 0
M  V30 10 C 0.237750 1.684679 -1.508558 0
M  V30 11 C 1.342647 1.786658 -0.503331 0
M  V30 12 C 1.720375 2.946108 0.004279 0
M  V30 13 C 2.788974 3.092683 0.983861 0
M  V30 14 C 3.503045 2.048285 1.474394 0
M  V30 15 C 4.505029 2.275699 2.405669 0
M  V30 16 C 4.822108 3.546066 2.872589 0
M  V30 17 C 4.090594 4.611865 2.369572 0
M  V30 18 C 3.101082 4.352126 1.444737 0
M  V30 19 C -0.580413 -0.536967 -0.972092 0
M  V30 20 C -1.924137 -1.166507 -0.566207 0
M  V30 21 C -1.623212 -4.145265 0.812816 0
M  V30 22 C -0.308335 -3.716095 0.746285 0
M  V30 23 C 0.698070 -4.531005 0.271968 0
M  V30 24 O 2.040710 -4.157681 0.180133 0
M  V30 25 C 0.342661 -5.816070 -0.142998 0
M  V30 26 C -0.964719 -6.276392 -0.089076 0
M  V30 27 C -1.958985 -5.421926 0.398254 0
M  V30 28 O -3.198319 -5.857688 0.451315 0
M  V30 29 H -4.667301 -3.203073 1.689605 0
M  V30 30 H -1.545334 -1.842999 2.589637 0
M  V30 31 H -3.231337 -1.571990 2.329799 0
M  V30 32 H -0.912612 0.421758 1.836778 0
M  V30 33 H -2.622642 0.841465 1.800056 0
M  V30 34 H -1.085257 2.279279 0.436974 0
M  V30 35 H -2.606987 1.667181 -0.364608 0
M  V30 36 H -0.167336 2.671958 -1.798763 0
M  V30 37 H 0.690762 1.220419 -2.409945 0
M  V30 38 H 1.825193 0.884430 -0.201959 0
M  V30 39 H 1.174730 3.804280 -0.359163 0
M  V30 40 H 3.318069 1.047583 1.166144 0
M  V30 41 H 5.059318 1.405869 2.778745 0
M  V30 42 H 5.623827 3.598299 3.598948 0
M  V30 43 H 4.348361 5.590585 2.742407 0
M  V30 44 H 2.596781 5.254205 1.122015 0
M  V30 45 H 0.189526 -0.700008 -0.166152 0
M  V30 46 H -0.165598 -0.970060 -1.878959 0
M  V30 47 H -2.716271 -0.590827 -1.146417 0
M  V30 48 H -2.045274 -2.187748 -0.945918 0
M  V30 49 H -0.050123 -2.739763 1.063860 0
M  V30 50 H 2.442830 -3.987422 -0.754158 0
M  V30 51 H 1.113129 -6.464922 -0.515475 0
M  V30 52 H -1.222438 -7.279850 -0.415925 0
M  V30 END ATOM
M  V30 BEGIN BOND
M  V30 1 2 1 2
M  V30 2 1 2 3
M  V30 3 2 3 4
M  V30 4 1 4 5
M  V30 5 1 5 6
M  V30 6 1 6 7
M  V30 7 1 7 8
M  V30 8 1 8 9
M  V30 9 1 9 10
M  V30 10 1 10 11
M  V30 11 2 11 12
M  V30 12 1 12 13
M  V30 13 2 13 14
M  V30 14 1 14 15
M  V30 15 2 15 16
M  V30 16 1 16 17
M  V30 17 2 17 18
M  V30 18 1 9 19
M  V30 19 1 19 20
M  V30 20 1 4 21
M  V30 21 2 21 22
M  V30 22 1 22 23
M  V30 23 1 23 24
M  V30 24 2 23 25
M  V30 25 1 25 26
M  V30 26 2 26 27
M  V30 27 1 27 28
M  V30 28 1 28 2
M  V30 29 1 20 6
M  V30 30 1 27 21
M  V30 31 1 18 13
M  V30 32 1 3 29
M  V30 33 1 5 30
M  V30 34 1 5 31
M  V30 35 1 7 32
M  V30 36 1 7 33
M  V30 37 1 8 34
M  V30 38 1 8 35
M  V30 39 1 10 36
M  V30 40 1 10 37
M  V30 41 1 11 38
M  V30 42 1 12 39
M  V30 43 1 14 40
M  V30 44 1 15 41
M  V30 45 1 16 42
M  V30 46 1 17 43
M  V30 47 1 18 44
M  V30 48 1 19 45
M  V30 49 1 19 46
M  V30 50 1 20 47
M  V30 51 1 20 48
M  V30 52 1 22 49
M  V30 53 1 24 50
M  V30 54 1 25 51
M  V30 55 1 26 52
M  V30 END BOND
M  V30 END CTAB
M  END
>  <Dataset>  (996) 
ChEMBL_Kinases

>  <Ligand_Instance>  (996) 
nan

>  <PDB_ID>  (996) 
nan

>  <Standardized_SMILES>  (996) 
O=c1cc(CN2CCN(C/C=C/c3ccccc3)CC2)c2cc(O)ccc2o1

>  <Name>  (996) 
nan

>  <Pocket>  (996) 
nan

>  <ATP_Site>  (996) 
nan

>  <Peripheral>  (996) 
nan

>  <Num_H_Atoms_ProtBoundConf>  (996) 
nan

>  <Num_Resolved_Atoms>  (996) 
nan

>  <Num_Not_Resolved_Atoms>  (996) 
nan

$$$$
CHEMBL1374665
     RDKit          3D

  0  0  0  0  0  0  0  0  0  0999 V3000
M  V30 BEGIN CTAB
M  V30 COUNTS 36 38 0 0 0
M  V30 BEGIN ATOM
M  V30 1 C 1.314701 -4.799374 3.328107 0
M  V30 2 C 0.934823 -4.401344 1.935614 0
M  V30 3 C 0.430202 -5.366211 1.090487 0
M  V30 4 C 0.078837 -4.990706 -0.202419 0
M  V30 5 C 0.230007 -3.691637 -0.628596 0
M  V30 6 C 0.736932 -2.742506 0.233942 0
M  V30 7 N 0.950202 -1.359542 -0.064764 0
M  V30 8 C 2.144237 -0.792031 -0.600858 0
M  V30 9 O 3.215628 -1.377924 -0.908480 0
M  V30 10 C 1.975085 0.650080 -0.766001 0
M  V30 11 Cl 3.109513 1.853533 -1.380505 0
M  V30 12 C 0.750089 0.934279 -0.353202 0
M  V30 13 N 0.091787 2.218596 -0.310552 0
M  V30 14 C 0.078503 2.949011 0.956297 0
M  V30 15 C -1.353638 2.922867 1.453978 0
M  V30 16 O -2.247602 2.691661 0.403587 0
M  V30 17 C -1.859961 3.528393 -0.651608 0
M  V30 18 C -0.611497 2.987548 -1.348837 0
M  V30 19 C 0.042503 -0.273295 0.102449 0
M  V30 20 O -1.114118 -0.378286 0.551318 0
M  V30 21 C 1.096525 -3.096486 1.536734 0
M  V30 22 H 1.372516 -5.886225 3.443862 0
M  V30 23 H 0.486024 -4.446954 4.005393 0
M  V30 24 H 2.222439 -4.298384 3.688747 0
M  V30 25 H 0.286347 -6.419427 1.372956 0
M  V30 26 H -0.326377 -5.665499 -0.948305 0
M  V30 27 H -0.011799 -3.305254 -1.604537 0
M  V30 28 H 0.698839 2.435752 1.693094 0
M  V30 29 H 0.389456 4.000398 0.771459 0
M  V30 30 H -1.668906 3.869280 1.939061 0
M  V30 31 H -1.500256 2.074575 2.157531 0
M  V30 32 H -1.678684 4.530020 -0.212653 0
M  V30 33 H -2.710214 3.627358 -1.327042 0
M  V30 34 H -0.832500 2.388739 -2.235178 0
M  V30 35 H -0.004592 3.908127 -1.588944 0
M  V30 36 H 1.498616 -2.406005 2.262847 0
M  V30 END ATOM
M  V30 BEGIN BOND
M  V30 1 1 1 2
M  V30 2 2 2 3
M  V30 3 1 3 4
M  V30 4 2 4 5
M  V30 5 1 5 6
M  V30 6 1 6 7
M  V30 7 1 7 8
M  V30 8 2 8 9
M  V30 9 1 8 10
M  V30 10 1 10 11
M  V30 11 2 10 12
M  V30 12 1 12 13
M  V30 13 1 13 14
M  V30 14 1 14 15
M  V30 15 1 15 16
M  V30 16 1 16 17
M  V30 17 1 17 18
M  V30 18 1 12 19
M  V30 19 2 19 20
M  V30 20 2 6 21
M  V30 21 1 21 2
M  V30 22 1 19 7
M  V30 23 1 18 13
M  V30 24 1 1 22
M  V30 25 1 1 23
M  V30 26 1 1 24
M  V30 27 1 3 25
M  V30 28 1 4 26
M  V30 29 1 5 27
M  V30 30 1 14 28
M  V30 31 1 14 29
M  V30 32 1 15 30
M  V30 33 1 15 31
M  V30 34 1 17 32
M  V30 35 1 17 33
M  V30 36 1 18 34
M  V30 37 1 18 35
M  V30 38 1 21 36
M  V30 END BOND
M  V30 END CTAB
M  END
>  <Dataset>  (997) 
ChEMBL_Kinases

>  <Ligand_Instance>  (997) 
nan

>  <PDB_ID>  (997) 
nan

>  <Standardized_SMILES>  (997) 
Cc1cccc(N2C(=O)C(Cl)=C(N3CCOCC3)C2=O)c1

>  <Name>  (997) 
nan

>  <Pocket>  (997) 
nan

>  <ATP_Site>  (997) 
nan

>  <Peripheral>  (997) 
nan

>  <Num_H_Atoms_ProtBoundConf>  (997) 
nan

>  <Num_Resolved_Atoms>  (997) 
nan

>  <Num_Not_Resolved_Atoms>  (997) 
nan

$$$$
CHEMBL1374739
     RDKit          3D

  0  0  0  0  0  0  0  0  0  0999 V3000
M  V30 BEGIN CTAB
M  V30 COUNTS 42 43 0 0 0
M  V30 BEGIN ATOM
M  V30 1 C -1.113631 -5.810509 1.823920 0
M  V30 2 C -0.163918 -4.762310 1.361451 0
M  V30 3 C 0.137506 -4.783236 0.015682 0
M  V30 4 C 1.013626 -3.826466 -0.446402 0
M  V30 5 C 1.624328 -2.835098 0.331337 0
M  V30 6 N 2.510404 -1.846722 0.000540 0
M  V30 7 C 2.622917 -0.917099 -0.800240 0
M  V30 8 S 4.197735 -0.056709 -0.546876 0
M  V30 9 N 1.696005 -0.533479 -1.795511 0
M  V30 10 C 0.286895 -0.409579 -1.511593 0
M  V30 11 C -0.043932 0.689037 -0.566253 0
M  V30 12 C -0.264349 1.940092 -1.162620 0
M  V30 13 C -0.587135 3.093397 -0.476746 0
M  V30 14 C -0.706501 3.032157 0.897212 0
M  V30 15 S -1.108219 4.412991 1.876882 0
M  V30 16 N 0.249682 5.298502 2.412480 0
M  V30 17 O -1.997943 5.331095 1.092582 0
M  V30 18 O -1.879251 4.008210 3.116619 0
M  V30 19 C -0.493424 1.809915 1.502345 0
M  V30 20 C -0.171318 0.663777 0.806253 0
M  V30 21 C 1.287589 -2.854800 1.690357 0
M  V30 22 C 1.757009 -1.957798 2.794281 0
M  V30 23 C 0.402167 -3.812780 2.186898 0
M  V30 24 H -1.602787 -5.453552 2.756439 0
M  V30 25 H -0.581215 -6.779154 2.017878 0
M  V30 26 H -1.941215 -5.989579 1.107600 0
M  V30 27 H -0.252948 -5.484201 -0.709149 0
M  V30 28 H 1.320005 -3.753361 -1.494334 0
M  V30 29 H 3.933047 0.849473 0.522758 0
M  V30 30 H 2.150893 -0.347463 -2.744090 0
M  V30 31 H -0.153677 -1.331473 -1.074084 0
M  V30 32 H -0.250717 -0.230363 -2.471629 0
M  V30 33 H -0.186714 2.063374 -2.247906 0
M  V30 34 H -0.744958 4.025804 -0.987907 0
M  V30 35 H 0.966848 4.703499 2.887238 0
M  V30 36 H 0.743393 5.839206 1.677184 0
M  V30 37 H -0.567139 1.674105 2.575778 0
M  V30 38 H 0.001316 -0.309099 1.223977 0
M  V30 39 H 2.484566 -2.527435 3.405103 0
M  V30 40 H 0.908239 -1.592715 3.404511 0
M  V30 41 H 2.308716 -1.100324 2.370525 0
M  V30 42 H 0.072993 -3.921878 3.209222 0
M  V30 END ATOM
M  V30 BEGIN BOND
M  V30 1 1 1 2
M  V30 2 2 2 3
M  V30 3 1 3 4
M  V30 4 2 4 5
M  V30 5 1 5 6
M  V30 6 2 6 7 CFG=2
M  V30 7 1 7 8
M  V30 8 1 7 9
M  V30 9 1 9 10
M  V30 10 1 10 11
M  V30 11 2 11 12
M  V30 12 1 12 13
M  V30 13 2 13 14
M  V30 14 1 14 15
M  V30 15 1 15 16
M  V30 16 2 15 17
M  V30 17 2 15 18
M  V30 18 1 14 19
M  V30 19 2 19 20
M  V30 20 1 5 21
M  V30 21 1 21 22
M  V30 22 2 21 23
M  V30 23 1 23 2
M  V30 24 1 20 11
M  V30 25 1 1 24
M  V30 26 1 1 25
M  V30 27 1 1 26
M  V30 28 1 3 27
M  V30 29 1 4 28
M  V30 30 1 8 29
M  V30 31 1 9 30
M  V30 32 1 10 31
M  V30 33 1 10 32
M  V30 34 1 12 33
M  V30 35 1 13 34
M  V30 36 1 16 35
M  V30 37 1 16 36
M  V30 38 1 19 37
M  V30 39 1 20 38
M  V30 40 1 22 39
M  V30 41 1 22 40
M  V30 42 1 22 41
M  V30 43 1 23 42
M  V30 END BOND
M  V30 END CTAB
M  END
>  <Dataset>  (998) 
ChEMBL_Kinases

>  <Ligand_Instance>  (998) 
nan

>  <PDB_ID>  (998) 
nan

>  <Standardized_SMILES>  (998) 
Cc1ccc(N=C(S)NCc2ccc(S(N)(=O)=O)cc2)c(C)c1

>  <Name>  (998) 
nan

>  <Pocket>  (998) 
nan

>  <ATP_Site>  (998) 
nan

>  <Peripheral>  (998) 
nan

>  <Num_H_Atoms_ProtBoundConf>  (998) 
nan

>  <Num_Resolved_Atoms>  (998) 
nan

>  <Num_Not_Resolved_Atoms>  (998) 
nan

$$$$
CHEMBL1374801
     RDKit          3D

  0  0  0  0  0  0  0  0  0  0999 V3000
M  V30 BEGIN CTAB
M  V30 COUNTS 41 44 0 0 0
M  V30 BEGIN ATOM
M  V30 1 O 0.685388 -2.204981 3.443659 0
M  V30 2 C 0.281920 -1.397610 2.598618 0
M  V30 3 N 0.786867 -1.478555 1.298032 0
M  V30 4 C 1.716036 -2.351755 0.742465 0
M  V30 5 C 2.365464 -3.352608 1.379899 0
M  V30 6 C 3.288621 -4.210271 0.810961 0
M  V30 7 C 3.593275 -4.046216 -0.543918 0
M  V30 8 C 2.950885 -3.036805 -1.225503 0
M  V30 9 C 2.040344 -2.218177 -0.593422 0
M  V30 10 N 1.473195 -1.227871 -1.479202 0
M  V30 11 C 0.127975 -0.913755 -1.973514 0
M  V30 12 C 0.051365 0.599355 -1.953554 0
M  V30 13 C 1.499805 1.051064 -2.065327 0
M  V30 14 C 2.310462 -0.227233 -2.112497 0
M  V30 15 C -0.699104 -0.435682 3.083942 0
M  V30 16 C -1.101930 -0.481669 4.402152 0
M  V30 17 C -2.041828 0.422316 4.911785 0
M  V30 18 C -2.598677 1.390128 4.116932 0
M  V30 19 C -2.204562 1.447412 2.796044 0
M  V30 20 C -1.289307 0.555986 2.328044 0
M  V30 21 O -2.911388 2.506097 2.217941 0
M  V30 22 C -3.461101 3.327521 3.235911 0
M  V30 23 O -3.536140 2.409900 4.325496 0
M  V30 24 H 0.348888 -0.720578 0.690056 0
M  V30 25 H 2.198437 -3.551219 2.406785 0
M  V30 26 H 3.793632 -5.008952 1.359848 0
M  V30 27 H 4.310128 -4.701626 -1.013047 0
M  V30 28 H 3.221843 -2.958821 -2.253233 0
M  V30 29 H -0.670601 -1.354220 -1.373020 0
M  V30 30 H 0.059038 -1.278112 -3.031376 0
M  V30 31 H -0.376031 0.979111 -1.005886 0
M  V30 32 H -0.556775 0.993556 -2.793690 0
M  V30 33 H 1.658935 1.619975 -3.004314 0
M  V30 34 H 1.746581 1.709937 -1.225953 0
M  V30 35 H 3.263287 -0.078547 -1.566174 0
M  V30 36 H 2.448466 -0.562532 -3.160674 0
M  V30 37 H -0.722274 -1.205326 5.105985 0
M  V30 38 H -2.343934 0.373610 5.936480 0
M  V30 39 H -1.019714 0.643302 1.302339 0
M  V30 40 H -4.432959 3.748264 2.975000 0
M  V30 41 H -2.701678 4.129535 3.461013 0
M  V30 END ATOM
M  V30 BEGIN BOND
M  V30 1 2 1 2
M  V30 2 1 2 3
M  V30 3 1 3 4
M  V30 4 2 4 5
M  V30 5 1 5 6
M  V30 6 2 6 7
M  V30 7 1 7 8
M  V30 8 2 8 9
M  V30 9 1 9 10
M  V30 10 1 10 11
M  V30 11 1 11 12
M  V30 12 1 12 13
M  V30 13 1 13 14
M  V30 14 1 2 15
M  V30 15 2 15 16
M  V30 16 1 16 17
M  V30 17 2 17 18
M  V30 18 1 18 19
M  V30 19 2 19 20
M  V30 20 1 19 21
M  V30 21 1 21 22
M  V30 22 1 22 23
M  V30 23 1 9 4
M  V30 24 1 14 10
M  V30 25 1 20 15
M  V30 26 1 23 18
M  V30 27 1 3 24
M  V30 28 1 5 25
M  V30 29 1 6 26
M  V30 30 1 7 27
M  V30 31 1 8 28
M  V30 32 1 11 29
M  V30 33 1 11 30
M  V30 34 1 12 31
M  V30 35 1 12 32
M  V30 36 1 13 33
M  V30 37 1 13 34
M  V30 38 1 14 35
M  V30 39 1 14 36
M  V30 40 1 16 37
M  V30 41 1 17 38
M  V30 42 1 20 39
M  V30 43 1 22 40
M  V30 44 1 22 41
M  V30 END BOND
M  V30 END CTAB
M  END
>  <Dataset>  (999) 
ChEMBL_Kinases

>  <Ligand_Instance>  (999) 
nan

>  <PDB_ID>  (999) 
nan

>  <Standardized_SMILES>  (999) 
O=C(Nc1ccccc1N1CCCC1)c1ccc2c(c1)OCO2

>  <Name>  (999) 
nan

>  <Pocket>  (999) 
nan

>  <ATP_Site>  (999) 
nan

>  <Peripheral>  (999) 
nan

>  <Num_H_Atoms_ProtBoundConf>  (999) 
nan

>  <Num_Resolved_Atoms>  (999) 
nan

>  <Num_Not_Resolved_Atoms>  (999) 
nan

$$$$
