CHEMBL3326747
     RDKit          3D

  0  0  0  0  0  0  0  0  0  0999 V3000
M  V30 BEGIN CTAB
M  V30 COUNTS 36 39 0 0 0
M  V30 BEGIN ATOM
M  V30 1 O -2.618509 -2.857533 2.678638 0
M  V30 2 C -2.085123 -1.850817 2.103057 0
M  V30 3 C -0.776806 -1.293984 2.430243 0
M  V30 4 C 0.213946 -1.406639 1.457758 0
M  V30 5 C 1.347505 -0.819703 1.980428 0
M  V30 6 C 2.647576 -0.604044 1.535870 0
M  V30 7 N 2.947431 -1.078815 0.231199 0
M  V30 8 C 2.836062 -0.363313 -0.996295 0
M  V30 9 C 3.150044 -0.981831 -2.188342 0
M  V30 10 C 3.048805 -0.311830 -3.374754 0
M  V30 11 N 2.633815 0.966046 -3.343833 0
M  V30 12 C 2.328106 1.564831 -2.174012 0
M  V30 13 C 2.409732 0.946374 -0.951213 0
M  V30 14 N 3.543478 0.020674 2.316266 0
M  V30 15 C 3.256730 0.467791 3.542214 0
M  V30 16 N 1.997926 0.252158 3.956291 0
M  V30 17 N 1.080496 -0.358428 3.226691 0
M  V30 18 C -0.206455 -0.643972 3.503204 0
M  V30 19 N -2.897164 -1.295558 1.079537 0
M  V30 20 C -4.203188 -1.637548 0.554500 0
M  V30 21 C -4.240015 -0.388037 -0.268108 0
M  V30 22 C -2.816974 -0.182929 0.124961 0
M  V30 23 H 0.218670 -1.847059 0.451543 0
M  V30 24 H 3.286213 -2.078075 0.238835 0
M  V30 25 H 3.476862 -2.023988 -2.137940 0
M  V30 26 H 3.314309 -0.876359 -4.257159 0
M  V30 27 H 2.012269 2.588885 -2.329722 0
M  V30 28 H 2.146521 1.492434 -0.065390 0
M  V30 29 H 3.951931 0.973528 4.196187 0
M  V30 30 H -0.812748 -0.457081 4.371132 0
M  V30 31 H -4.130994 -2.537876 -0.111324 0
M  V30 32 H -4.968941 -1.713256 1.343581 0
M  V30 33 H -4.878344 0.422613 0.110580 0
M  V30 34 H -4.327561 -0.557484 -1.371497 0
M  V30 35 H -2.085086 -0.457639 -0.673758 0
M  V30 36 H -2.586850 0.801591 0.605617 0
M  V30 END ATOM
M  V30 BEGIN BOND
M  V30 1 2 1 2
M  V30 2 1 2 3
M  V30 3 1 3 4
M  V30 4 2 4 5
M  V30 5 1 5 6
M  V30 6 1 6 7
M  V30 7 1 7 8
M  V30 8 2 8 9
M  V30 9 1 9 10
M  V30 10 2 10 11
M  V30 11 1 11 12
M  V30 12 2 12 13
M  V30 13 2 6 14
M  V30 14 1 14 15
M  V30 15 2 15 16
M  V30 16 1 16 17
M  V30 17 1 17 18
M  V30 18 1 2 19
M  V30 19 1 19 20
M  V30 20 1 20 21
M  V30 21 1 21 22
M  V30 22 2 18 3
M  V30 23 1 22 19
M  V30 24 1 17 5
M  V30 25 1 13 8
M  V30 26 1 4 23
M  V30 27 1 7 24
M  V30 28 1 9 25
M  V30 29 1 10 26
M  V30 30 1 12 27
M  V30 31 1 13 28
M  V30 32 1 15 29
M  V30 33 1 18 30
M  V30 34 1 20 31
M  V30 35 1 20 32
M  V30 36 1 21 33
M  V30 37 1 21 34
M  V30 38 1 22 35
M  V30 39 1 22 36
M  V30 END BOND
M  V30 END CTAB
M  END
>  <Dataset>  (1) 
ChEMBL_Kinases

>  <Ligand_Instance>  (1) 
nan

>  <PDB_ID>  (1) 
nan

>  <Standardized_SMILES>  (1) 
O=C(c1cc2c(Nc3ccncc3)ncnn2c1)N1CCC1

>  <Name>  (1) 
nan

>  <Pocket>  (1) 
nan

>  <ATP_Site>  (1) 
nan

>  <Peripheral>  (1) 
nan

>  <Num_H_Atoms_ProtBoundConf>  (1) 
nan

>  <Num_Resolved_Atoms>  (1) 
nan

>  <Num_Not_Resolved_Atoms>  (1) 
nan

$$$$
CHEMBL3330168
     RDKit          3D

  0  0  0  0  0  0  0  0  0  0999 V3000
M  V30 BEGIN CTAB
M  V30 COUNTS 50 54 0 0 0
M  V30 BEGIN ATOM
M  V30 1 N -1.596797 -5.258268 2.217460 0
M  V30 2 C -0.986577 -4.085704 2.750887 0
M  V30 3 C -1.289976 -2.808665 2.017251 0 CFG=2
M  V30 4 O -0.604517 -1.779476 2.693109 0
M  V30 5 C 0.332513 -0.928167 2.155151 0
M  V30 6 C 0.805995 -0.029337 3.111417 0
M  V30 7 N 1.743239 0.915622 2.817798 0
M  V30 8 C 2.254962 1.015500 1.566065 0
M  V30 9 C 3.257585 2.004917 1.191890 0
M  V30 10 C 3.046008 2.996792 0.251949 0
M  V30 11 C 4.178394 3.773061 0.120194 0
M  V30 12 O 5.062872 3.263659 0.963814 0
M  V30 13 C 4.548118 2.232231 1.599257 0
M  V30 14 C 1.785503 0.117714 0.600631 0
M  V30 15 C 2.314383 0.197933 -0.757184 0
M  V30 16 C 3.585498 0.017198 -1.270854 0
M  V30 17 N 3.562150 0.207642 -2.619601 0
M  V30 18 C 2.295909 0.511064 -3.001900 0
M  V30 19 N 1.733974 0.788748 -4.206143 0
M  V30 20 C 0.426047 1.067452 -4.346195 0
M  V30 21 C -0.396965 1.077297 -3.234064 0
M  V30 22 C 0.186287 0.792220 -2.007645 0
M  V30 23 C 1.522607 0.504899 -1.846398 0
M  V30 24 C 0.843260 -0.839500 0.877866 0
M  V30 25 C -2.730500 -2.464210 2.026515 0
M  V30 26 C -3.346350 -2.008347 3.189438 0
M  V30 27 C -4.699556 -1.673473 3.245042 0
M  V30 28 C -5.450940 -1.805446 2.084382 0
M  V30 29 C -4.851380 -2.255854 0.927616 0
M  V30 30 C -3.495962 -2.593296 0.864099 0
M  V30 31 H -0.959957 -6.097225 2.371636 0
M  V30 32 H -2.474711 -5.523950 2.716675 0
M  V30 33 H 0.116260 -4.194817 2.792766 0
M  V30 34 H -1.299772 -3.981696 3.826421 0
M  V30 35 H -0.934282 -2.822179 0.970539 0
M  V30 36 H 0.520059 0.046169 4.153222 0
M  V30 37 H 2.117075 3.149447 -0.309219 0
M  V30 38 H 4.263133 4.617069 -0.556367 0
M  V30 39 H 5.038130 1.608294 2.356502 0
M  V30 40 H 4.426160 -0.238040 -0.624920 0
M  V30 41 H 4.410508 0.124591 -3.235486 0
M  V30 42 H -0.011433 1.289114 -5.323724 0
M  V30 43 H -1.462083 1.295228 -3.283852 0
M  V30 44 H -0.434040 0.790770 -1.108139 0
M  V30 45 H 0.442393 -1.549582 0.202538 0
M  V30 46 H -2.754492 -1.904406 4.107379 0
M  V30 47 H -5.162225 -1.321151 4.154682 0
M  V30 48 H -6.509544 -1.566892 2.041993 0
M  V30 49 H -5.419273 -2.369848 -0.002230 0
M  V30 50 H -3.046167 -2.946536 -0.062999 0
M  V30 END ATOM
M  V30 BEGIN BOND
M  V30 1 1 1 2
M  V30 2 1 2 3
M  V30 3 1 3 4
M  V30 4 1 4 5
M  V30 5 2 5 6
M  V30 6 1 6 7
M  V30 7 2 7 8
M  V30 8 1 8 9
M  V30 9 1 9 10
M  V30 10 2 10 11
M  V30 11 1 11 12
M  V30 12 1 12 13
M  V30 13 1 8 14
M  V30 14 1 14 15
M  V30 15 2 15 16
M  V30 16 1 16 17
M  V30 17 1 17 18
M  V30 18 2 18 19
M  V30 19 1 19 20
M  V30 20 2 20 21
M  V30 21 1 21 22
M  V30 22 2 22 23
M  V30 23 2 14 24
M  V30 24 1 3 25
M  V30 25 2 25 26
M  V30 26 1 26 27
M  V30 27 2 27 28
M  V30 28 1 28 29
M  V30 29 2 29 30
M  V30 30 1 24 5
M  V30 31 1 30 25
M  V30 32 2 13 9
M  V30 33 1 23 15
M  V30 34 1 23 18
M  V30 35 1 1 31
M  V30 36 1 1 32
M  V30 37 1 2 33
M  V30 38 1 2 34
M  V30 39 1 3 35 CFG=3
M  V30 40 1 6 36
M  V30 41 1 10 37
M  V30 42 1 11 38
M  V30 43 1 13 39
M  V30 44 1 16 40
M  V30 45 1 17 41
M  V30 46 1 20 42
M  V30 47 1 21 43
M  V30 48 1 22 44
M  V30 49 1 24 45
M  V30 50 1 26 46
M  V30 51 1 27 47
M  V30 52 1 28 48
M  V30 53 1 29 49
M  V30 54 1 30 50
M  V30 END BOND
M  V30 END CTAB
M  END
>  <Dataset>  (2) 
ChEMBL_Kinases

>  <Ligand_Instance>  (2) 
nan

>  <PDB_ID>  (2) 
nan

>  <Standardized_SMILES>  (2) 
NC[C@H](Oc1cnc(-c2ccoc2)c(-c2c[nH]c3ncccc23)c1)c1ccccc1

>  <Name>  (2) 
nan

>  <Pocket>  (2) 
nan

>  <ATP_Site>  (2) 
nan

>  <Peripheral>  (2) 
nan

>  <Num_H_Atoms_ProtBoundConf>  (2) 
nan

>  <Num_Resolved_Atoms>  (2) 
nan

>  <Num_Not_Resolved_Atoms>  (2) 
nan

$$$$
CHEMBL3330167
     RDKit          3D

  0  0  0  0  0  0  0  0  0  0999 V3000
M  V30 BEGIN CTAB
M  V30 COUNTS 48 51 0 0 0
M  V30 BEGIN ATOM
M  V30 1 C 4.778919 -5.319157 -0.306455 0
M  V30 2 C 4.504800 -4.261898 -1.355782 0
M  V30 3 C 4.025971 -4.904914 -2.634239 0
M  V30 4 C 5.844791 -3.591934 -1.670642 0
M  V30 5 C 3.580692 -3.220568 -0.858263 0
M  V30 6 C 3.944008 -2.051848 -0.225215 0
M  V30 7 C 2.991559 -1.149351 0.201632 0
M  V30 8 C 1.646122 -1.376823 0.014161 0
M  V30 9 C 0.555709 -0.505557 0.418827 0
M  V30 10 O -0.656476 -0.778569 0.212718 0
M  V30 11 N 0.737004 0.736667 1.084672 0
M  V30 12 C -0.555313 1.335943 1.335993 0
M  V30 13 C -1.364944 1.182358 2.449830 0
M  V30 14 N -2.466540 1.930418 2.238301 0
M  V30 15 C -3.536096 2.092679 3.052256 0
M  V30 16 C -4.553153 2.919260 2.613204 0
M  V30 17 C -5.742114 3.132758 3.464859 0
M  V30 18 C -5.817560 3.147929 4.848118 0
M  V30 19 N -7.103675 3.378673 5.183201 0
M  V30 20 N -7.822274 3.506185 4.079686 0
M  V30 21 C -7.031521 3.363139 2.975846 0
M  V30 22 C -4.476263 3.562900 1.371855 0
M  V30 23 C -3.361506 3.378860 0.550595 0
M  V30 24 C -2.373579 2.543697 1.035376 0
M  V30 25 N -1.185482 2.178416 0.466768 0
M  V30 26 C 1.302649 -2.556285 -0.623589 0
M  V30 27 C 2.225776 -3.480188 -1.063163 0
M  V30 28 H 5.708423 -5.073440 0.240036 0
M  V30 29 H 3.957515 -5.385480 0.454097 0
M  V30 30 H 4.878098 -6.334422 -0.711828 0
M  V30 31 H 3.182002 -5.602671 -2.504406 0
M  V30 32 H 3.833690 -4.120001 -3.394149 0
M  V30 33 H 4.852650 -5.520963 -3.071190 0
M  V30 34 H 6.363708 -3.321233 -0.728843 0
M  V30 35 H 6.473993 -4.355378 -2.178761 0
M  V30 36 H 5.610951 -2.722059 -2.314459 0
M  V30 37 H 4.997037 -1.875756 -0.079249 0
M  V30 38 H 3.257264 -0.227157 0.700080 0
M  V30 39 H 1.734681 1.034642 1.292861 0
M  V30 40 H -1.080596 0.552045 3.293850 0
M  V30 41 H -3.569044 1.581622 4.008210 0
M  V30 42 H -4.923860 2.988537 5.415828 0
M  V30 43 H -8.855547 3.691128 3.992401 0
M  V30 44 H -7.318430 3.413205 1.928049 0
M  V30 45 H -5.294849 4.212110 1.049196 0
M  V30 46 H -3.275048 3.861264 -0.411443 0
M  V30 47 H 0.240551 -2.788799 -0.798637 0
M  V30 48 H 1.879333 -4.367195 -1.547467 0
M  V30 END ATOM
M  V30 BEGIN BOND
M  V30 1 1 1 2
M  V30 2 1 2 3
M  V30 3 1 2 4
M  V30 4 1 2 5
M  V30 5 2 5 6
M  V30 6 1 6 7
M  V30 7 2 7 8
M  V30 8 1 8 9
M  V30 9 2 9 10
M  V30 10 1 9 11
M  V30 11 1 11 12
M  V30 12 2 12 13
M  V30 13 1 13 14
M  V30 14 1 14 15
M  V30 15 2 15 16
M  V30 16 1 16 17
M  V30 17 1 17 18
M  V30 18 2 18 19
M  V30 19 1 19 20
M  V30 20 1 20 21
M  V30 21 1 16 22
M  V30 22 2 22 23
M  V30 23 1 23 24
M  V30 24 2 24 25
M  V30 25 1 8 26
M  V30 26 2 26 27
M  V30 27 1 27 5
M  V30 28 1 25 12
M  V30 29 1 24 14
M  V30 30 2 21 17
M  V30 31 1 1 28
M  V30 32 1 1 29
M  V30 33 1 1 30
M  V30 34 1 3 31
M  V30 35 1 3 32
M  V30 36 1 3 33
M  V30 37 1 4 34
M  V30 38 1 4 35
M  V30 39 1 4 36
M  V30 40 1 6 37
M  V30 41 1 7 38
M  V30 42 1 11 39
M  V30 43 1 13 40
M  V30 44 1 15 41
M  V30 45 1 18 42
M  V30 46 1 20 43
M  V30 47 1 21 44
M  V30 48 1 22 45
M  V30 49 1 23 46
M  V30 50 1 26 47
M  V30 51 1 27 48
M  V30 END BOND
M  V30 END CTAB
M  END
>  <Dataset>  (3) 
ChEMBL_Kinases

>  <Ligand_Instance>  (3) 
nan

>  <PDB_ID>  (3) 
nan

>  <Standardized_SMILES>  (3) 
CC(C)(C)c1ccc(C(=O)Nc2cn3cc(-c4cn[nH]c4)ccc3n2)cc1

>  <Name>  (3) 
nan

>  <Pocket>  (3) 
nan

>  <ATP_Site>  (3) 
nan

>  <Peripheral>  (3) 
nan

>  <Num_H_Atoms_ProtBoundConf>  (3) 
nan

>  <Num_Resolved_Atoms>  (3) 
nan

>  <Num_Not_Resolved_Atoms>  (3) 
nan

$$$$
CHEMBL3330141
     RDKit          3D

  0  0  0  0  0  0  0  0  0  0999 V3000
M  V30 BEGIN CTAB
M  V30 COUNTS 44 47 0 0 0
M  V30 BEGIN ATOM
M  V30 1 C 2.353881 -3.938830 0.679221 0
M  V30 2 N 1.114531 -4.103039 1.298211 0
M  V30 3 C 1.011737 -4.995495 2.375712 0
M  V30 4 C 0.073544 -3.167640 1.075337 0
M  V30 5 C 0.312648 -1.816462 1.633967 0
M  V30 6 N -0.704506 -0.826285 1.432538 0
M  V30 7 C -1.268711 -0.280292 0.252467 0
M  V30 8 C -0.755541 0.843189 -0.358992 0
M  V30 9 C 0.336052 1.631826 0.200558 0
M  V30 10 N 0.903365 2.728244 -0.337726 0
M  V30 11 C 1.861697 3.245640 0.430206 0
M  V30 12 C 2.651479 4.354414 0.202844 0
M  V30 13 C 3.570770 4.639033 1.203311 0
M  V30 14 C 3.692841 3.878587 2.340394 0
M  V30 15 C 2.867691 2.776543 2.507725 0
M  V30 16 C 1.936408 2.445364 1.547478 0
M  V30 17 N 1.001058 1.504299 1.346744 0
M  V30 18 C -1.272740 1.378564 -1.551365 0
M  V30 19 O -0.823104 2.396050 -2.127514 0
M  V30 20 N -2.321141 0.780946 -2.138819 0
M  V30 21 C -2.814421 -0.308211 -1.536422 0
M  V30 22 S -4.234064 -1.344355 -2.062941 0
M  V30 23 C -4.072485 -2.477404 -0.633958 0
M  V30 24 C -3.030748 -1.991637 0.052282 0
M  V30 25 C -2.348022 -0.885003 -0.360789 0
M  V30 26 H 3.047253 -3.210266 1.171562 0
M  V30 27 H 2.261246 -3.675325 -0.393447 0
M  V30 28 H 2.907982 -4.909361 0.729265 0
M  V30 29 H 1.141705 -4.476566 3.352916 0
M  V30 30 H 1.761605 -5.802505 2.257739 0
M  V30 31 H 0.011782 -5.495252 2.317460 0
M  V30 32 H -0.169920 -3.176316 -0.003314 0
M  V30 33 H -0.843110 -3.586180 1.583412 0
M  V30 34 H 1.263719 -1.431570 1.159309 0
M  V30 35 H 0.533845 -1.829343 2.714201 0
M  V30 36 H -1.216327 -0.326764 2.171407 0
M  V30 37 H 2.546454 4.944199 -0.692394 0
M  V30 38 H 4.229023 5.504646 1.084212 0
M  V30 39 H 4.407629 4.092024 3.132309 0
M  V30 40 H 2.926549 2.145833 3.388088 0
M  V30 41 H 0.898457 0.815981 2.090101 0
M  V30 42 H -2.735584 1.143794 -3.020389 0
M  V30 43 H -4.771301 -3.281336 -0.568440 0
M  V30 44 H -2.845341 -2.584561 0.933121 0
M  V30 END ATOM
M  V30 BEGIN BOND
M  V30 1 1 1 2
M  V30 2 1 2 3
M  V30 3 1 2 4
M  V30 4 1 4 5
M  V30 5 1 5 6
M  V30 6 1 6 7
M  V30 7 2 7 8
M  V30 8 1 8 9
M  V30 9 2 9 10
M  V30 10 1 10 11
M  V30 11 2 11 12
M  V30 12 1 12 13
M  V30 13 2 13 14
M  V30 14 1 14 15
M  V30 15 2 15 16
M  V30 16 1 16 17
M  V30 17 1 8 18
M  V30 18 2 18 19
M  V30 19 1 18 20
M  V30 20 1 20 21
M  V30 21 1 21 22
M  V30 22 1 22 23
M  V30 23 2 23 24
M  V30 24 1 24 25
M  V30 25 1 25 7
M  V30 26 1 17 9
M  V30 27 2 25 21
M  V30 28 1 16 11
M  V30 29 1 1 26
M  V30 30 1 1 27
M  V30 31 1 1 28
M  V30 32 1 3 29
M  V30 33 1 3 30
M  V30 34 1 3 31
M  V30 35 1 4 32
M  V30 36 1 4 33
M  V30 37 1 5 34
M  V30 38 1 5 35
M  V30 39 1 6 36
M  V30 40 1 12 37
M  V30 41 1 13 38
M  V30 42 1 14 39
M  V30 43 1 15 40
M  V30 44 1 17 41
M  V30 45 1 20 42
M  V30 46 1 23 43
M  V30 47 1 24 44
M  V30 END BOND
M  V30 END CTAB
M  END
>  <Dataset>  (4) 
ChEMBL_Kinases

>  <Ligand_Instance>  (4) 
nan

>  <PDB_ID>  (4) 
nan

>  <Standardized_SMILES>  (4) 
CN(C)CCNc1c(-c2nc3ccccc3[nH]2)c(=O)[nH]c2sccc12

>  <Name>  (4) 
nan

>  <Pocket>  (4) 
nan

>  <ATP_Site>  (4) 
nan

>  <Peripheral>  (4) 
nan

>  <Num_H_Atoms_ProtBoundConf>  (4) 
nan

>  <Num_Resolved_Atoms>  (4) 
nan

>  <Num_Not_Resolved_Atoms>  (4) 
nan

$$$$
CHEMBL3330138
     RDKit          3D

  0  0  0  0  0  0  0  0  0  0999 V3000
M  V30 BEGIN CTAB
M  V30 COUNTS 48 52 0 0 0
M  V30 BEGIN ATOM
M  V30 1 O -0.105157 -4.686773 1.160900 0
M  V30 2 C 0.680585 -3.887972 0.634752 0
M  V30 3 N 1.932881 -4.357530 0.534959 0
M  V30 4 C 2.815602 -3.550878 -0.017755 0
M  V30 5 S 4.647034 -3.944303 -0.290960 0
M  V30 6 C 4.963790 -2.266186 -1.077273 0
M  V30 7 C 3.740903 -1.657562 -1.041231 0
M  V30 8 C 2.650292 -2.263726 -0.522820 0
M  V30 9 C 1.358942 -1.788874 -0.414286 0
M  V30 10 N 1.112827 -0.477819 -0.909080 0
M  V30 11 C 1.238210 0.817903 -0.376114 0
M  V30 12 C 0.580293 1.221008 0.873653 0
M  V30 13 C 1.012753 2.695862 1.047778 0
M  V30 14 C 0.669925 3.225843 2.383861 0
M  V30 15 N -0.117194 2.394655 3.225479 0
M  V30 16 C 0.292874 1.032689 3.310326 0
M  V30 17 C 1.071723 0.539402 2.120203 0
M  V30 18 C 0.425436 -2.622261 0.159086 0
M  V30 19 C -0.968393 -2.163489 0.206532 0
M  V30 20 N -1.471702 -1.011215 -0.255956 0
M  V30 21 C -2.791487 -0.900603 -0.052949 0
M  V30 22 C -3.656940 0.127858 -0.384846 0
M  V30 23 C -4.975485 -0.077189 -0.028651 0
M  V30 24 C -5.418393 -1.212654 0.609774 0
M  V30 25 C -4.485056 -2.186182 0.901753 0
M  V30 26 C -3.145159 -2.065573 0.582483 0
M  V30 27 N -2.020943 -2.782526 0.712459 0
M  V30 28 H 2.244154 -5.299370 0.860016 0
M  V30 29 H 5.954851 -2.097769 -1.386533 0
M  V30 30 H 3.831512 -0.677432 -1.477806 0
M  V30 31 H 0.775642 -0.725501 -1.879331 0
M  V30 32 H 2.313022 1.171759 -0.308227 0
M  V30 33 H 0.830319 1.523153 -1.169773 0
M  V30 34 H -0.508032 1.265817 0.901792 0
M  V30 35 H 0.611202 3.262426 0.187634 0
M  V30 36 H 2.132449 2.698328 0.930389 0
M  V30 37 H 1.583678 3.553338 2.956299 0
M  V30 38 H 0.104170 4.179675 2.223536 0
M  V30 39 H -0.103179 2.800060 4.189162 0
M  V30 40 H -0.651384 0.434817 3.436011 0
M  V30 41 H 0.894500 0.823125 4.220130 0
M  V30 42 H 0.925178 -0.559082 2.128675 0
M  V30 43 H 2.139689 0.800510 2.260155 0
M  V30 44 H -3.327134 1.025902 -0.885795 0
M  V30 45 H -5.701826 0.693556 -0.262255 0
M  V30 46 H -6.454418 -1.386007 0.895601 0
M  V30 47 H -4.771218 -3.112869 1.408061 0
M  V30 48 H -2.117313 -3.693553 1.174910 0
M  V30 END ATOM
M  V30 BEGIN BOND
M  V30 1 2 1 2
M  V30 2 1 2 3
M  V30 3 1 3 4
M  V30 4 1 4 5
M  V30 5 1 5 6
M  V30 6 2 6 7
M  V30 7 1 7 8
M  V30 8 1 8 9
M  V30 9 1 9 10
M  V30 10 1 10 11
M  V30 11 1 11 12
M  V30 12 1 12 13
M  V30 13 1 13 14
M  V30 14 1 14 15
M  V30 15 1 15 16
M  V30 16 1 16 17
M  V30 17 2 9 18
M  V30 18 1 18 19
M  V30 19 2 19 20
M  V30 20 1 20 21
M  V30 21 2 21 22
M  V30 22 1 22 23
M  V30 23 2 23 24
M  V30 24 1 24 25
M  V30 25 2 25 26
M  V30 26 1 26 27
M  V30 27 1 18 2
M  V30 28 1 27 19
M  V30 29 2 8 4
M  V30 30 1 17 12
M  V30 31 1 26 21
M  V30 32 1 3 28
M  V30 33 1 6 29
M  V30 34 1 7 30
M  V30 35 1 10 31
M  V30 36 1 11 32
M  V30 37 1 11 33
M  V30 38 1 12 34
M  V30 39 1 13 35
M  V30 40 1 13 36
M  V30 41 1 14 37
M  V30 42 1 14 38
M  V30 43 1 15 39
M  V30 44 1 16 40
M  V30 45 1 16 41
M  V30 46 1 17 42
M  V30 47 1 17 43
M  V30 48 1 22 44
M  V30 49 1 23 45
M  V30 50 1 24 46
M  V30 51 1 25 47
M  V30 52 1 27 48
M  V30 END BOND
M  V30 END CTAB
M  END
>  <Dataset>  (5) 
ChEMBL_Kinases

>  <Ligand_Instance>  (5) 
nan

>  <PDB_ID>  (5) 
nan

>  <Standardized_SMILES>  (5) 
O=c1[nH]c2sccc2c(NCC2CCNCC2)c1-c1nc2ccccc2[nH]1

>  <Name>  (5) 
nan

>  <Pocket>  (5) 
nan

>  <ATP_Site>  (5) 
nan

>  <Peripheral>  (5) 
nan

>  <Num_H_Atoms_ProtBoundConf>  (5) 
nan

>  <Num_Resolved_Atoms>  (5) 
nan

>  <Num_Not_Resolved_Atoms>  (5) 
nan

$$$$
CHEMBL3330136
     RDKit          3D

  0  0  0  0  0  0  0  0  0  0999 V3000
M  V30 BEGIN CTAB
M  V30 COUNTS 49 54 0 0 0
M  V30 BEGIN ATOM
M  V30 1 O 0.055130 -4.989741 2.010442 0
M  V30 2 C 0.755139 -4.156600 1.346599 0
M  V30 3 N 1.909465 -4.669064 1.028362 0
M  V30 4 C 2.800303 -3.964446 0.329671 0
M  V30 5 S 4.487610 -4.296940 -0.315948 0
M  V30 6 C 4.673467 -2.686365 -1.065858 0
M  V30 7 C 3.491698 -2.030208 -0.787929 0
M  V30 8 C 2.528515 -2.687977 -0.070037 0
M  V30 9 C 1.292042 -2.115582 0.262659 0
M  V30 10 N 0.915761 -0.790306 -0.063883 0
M  V30 11 C 0.544501 0.516424 -0.385745 0
M  V30 12 C 1.452085 1.388312 -1.250105 0
M  V30 13 N 1.269118 2.787156 -0.961311 0
M  V30 14 C -0.128855 3.142732 -0.815266 0
M  V30 15 C -0.601778 2.489196 0.467124 0
M  V30 16 C 0.357924 1.392950 0.882087 0
M  V30 17 C 1.745394 1.933128 1.193872 0
M  V30 18 C 1.907518 3.164802 0.297015 0
M  V30 19 C 0.393277 -2.854824 0.976613 0
M  V30 20 C -0.956624 -2.563118 1.410643 0
M  V30 21 N -1.768564 -3.358190 2.129754 0
M  V30 22 C -2.960804 -2.839883 2.357452 0
M  V30 23 C -3.988270 -3.438307 3.067081 0
M  V30 24 C -5.134490 -2.663235 3.149626 0
M  V30 25 C -5.245049 -1.397293 2.572093 0
M  V30 26 C -4.152133 -0.897961 1.884702 0
M  V30 27 C -2.987787 -1.613068 1.765373 0
M  V30 28 N -1.773272 -1.529603 1.232770 0
M  V30 29 H 2.251298 -5.604523 1.257166 0
M  V30 30 H 5.566633 -2.410117 -1.594316 0
M  V30 31 H 3.496345 -1.032841 -1.202227 0
M  V30 32 H 1.719750 -0.401426 -0.530896 0
M  V30 33 H -0.471168 0.489932 -0.880714 0
M  V30 34 H 1.099127 1.240524 -2.307549 0
M  V30 35 H 2.507494 1.127124 -1.159128 0
M  V30 36 H -0.117172 4.250409 -0.594249 0
M  V30 37 H -0.750534 2.946923 -1.685972 0
M  V30 38 H -1.547942 1.966499 0.198815 0
M  V30 39 H -0.804720 3.202471 1.283099 0
M  V30 40 H -0.063387 0.827795 1.713841 0
M  V30 41 H 2.527228 1.222307 0.865551 0
M  V30 42 H 1.865432 2.173014 2.266371 0
M  V30 43 H 1.334617 3.976657 0.788835 0
M  V30 44 H 2.947976 3.467527 0.199148 0
M  V30 45 H -3.926617 -4.412389 3.521226 0
M  V30 46 H -6.007904 -3.031007 3.683584 0
M  V30 47 H -6.147810 -0.808557 2.647621 0
M  V30 48 H -4.154034 0.086767 1.401491 0
M  V30 49 H -1.613033 -0.656530 0.726047 0
M  V30 END ATOM
M  V30 BEGIN BOND
M  V30 1 2 1 2
M  V30 2 1 2 3
M  V30 3 1 3 4
M  V30 4 1 4 5
M  V30 5 1 5 6
M  V30 6 2 6 7
M  V30 7 1 7 8
M  V30 8 1 8 9
M  V30 9 1 9 10
M  V30 10 1 10 11
M  V30 11 1 11 12
M  V30 12 1 12 13
M  V30 13 1 13 14
M  V30 14 1 14 15
M  V30 15 1 15 16
M  V30 16 1 16 17
M  V30 17 1 17 18
M  V30 18 2 9 19
M  V30 19 1 19 20
M  V30 20 2 20 21
M  V30 21 1 21 22
M  V30 22 2 22 23
M  V30 23 1 23 24
M  V30 24 2 24 25
M  V30 25 1 25 26
M  V30 26 2 26 27
M  V30 27 1 27 28
M  V30 28 1 19 2
M  V30 29 1 28 20
M  V30 30 2 8 4
M  V30 31 1 16 11
M  V30 32 1 27 22
M  V30 33 1 18 13
M  V30 34 1 3 29
M  V30 35 1 6 30
M  V30 36 1 7 31
M  V30 37 1 10 32
M  V30 38 1 11 33
M  V30 39 1 12 34
M  V30 40 1 12 35
M  V30 41 1 14 36
M  V30 42 1 14 37
M  V30 43 1 15 38
M  V30 44 1 15 39
M  V30 45 1 16 40
M  V30 46 1 17 41
M  V30 47 1 17 42
M  V30 48 1 18 43
M  V30 49 1 18 44
M  V30 50 1 23 45
M  V30 51 1 24 46
M  V30 52 1 25 47
M  V30 53 1 26 48
M  V30 54 1 28 49
M  V30 END BOND
M  V30 END CTAB
M  END
>  <Dataset>  (6) 
ChEMBL_Kinases

>  <Ligand_Instance>  (6) 
nan

>  <PDB_ID>  (6) 
nan

>  <Standardized_SMILES>  (6) 
O=c1[nH]c2sccc2c(NC2CN3CCC2CC3)c1-c1nc2ccccc2[nH]1

>  <Name>  (6) 
nan

>  <Pocket>  (6) 
nan

>  <ATP_Site>  (6) 
nan

>  <Peripheral>  (6) 
nan

>  <Num_H_Atoms_ProtBoundConf>  (6) 
nan

>  <Num_Resolved_Atoms>  (6) 
nan

>  <Num_Not_Resolved_Atoms>  (6) 
nan

$$$$
CHEMBL3330135
     RDKit          3D

  0  0  0  0  0  0  0  0  0  0999 V3000
M  V30 BEGIN CTAB
M  V30 COUNTS 45 49 0 0 0
M  V30 BEGIN ATOM
M  V30 1 O -0.903819 -4.579967 0.159617 0
M  V30 2 C 0.072181 -3.804413 0.239679 0
M  V30 3 N 1.164212 -4.487869 -0.096726 0
M  V30 4 C 2.364745 -3.898631 -0.098014 0
M  V30 5 S 4.011535 -4.454671 -0.462669 0
M  V30 6 C 4.781688 -2.825772 -0.114225 0
M  V30 7 C 3.721392 -2.042638 0.237006 0
M  V30 8 C 2.462138 -2.580379 0.250607 0
M  V30 9 C 1.334547 -1.834509 0.608072 0
M  V30 10 N 1.381669 -0.470415 0.946304 0
M  V30 11 C 2.226154 0.667416 1.073114 0
M  V30 12 C 2.788214 1.187701 -0.224824 0
M  V30 13 C 2.547718 2.680441 -0.403807 0
M  V30 14 N 1.174065 3.055789 -0.287677 0
M  V30 15 C 0.510935 2.433045 0.838169 0
M  V30 16 C 1.560680 1.865057 1.762811 0
M  V30 17 C 0.122621 -2.480323 0.596362 0
M  V30 18 C -1.151494 -1.858084 0.947210 0
M  V30 19 N -1.496840 -0.626667 1.339413 0
M  V30 20 C -2.781445 -0.440903 1.569972 0
M  V30 21 C -3.452450 0.692856 1.980247 0
M  V30 22 C -4.821252 0.601860 2.145233 0
M  V30 23 C -5.448507 -0.608585 1.894118 0
M  V30 24 C -4.700320 -1.713164 1.481240 0
M  V30 25 C -3.333476 -1.668244 1.303672 0
M  V30 26 N -2.334165 -2.472822 0.939852 0
M  V30 27 H 1.236690 -5.491664 -0.382466 0
M  V30 28 H 5.843330 -2.884793 -0.266776 0
M  V30 29 H 4.248238 -1.130176 0.426927 0
M  V30 30 H 0.509433 -0.033446 1.225465 0
M  V30 31 H 3.102625 0.377080 1.742674 0
M  V30 32 H 3.912871 1.105252 -0.204067 0
M  V30 33 H 2.451400 0.664627 -1.118000 0
M  V30 34 H 2.867567 2.889147 -1.461764 0
M  V30 35 H 3.226124 3.280385 0.221180 0
M  V30 36 H 1.025687 4.073692 -0.330040 0
M  V30 37 H -0.222171 1.701991 0.495289 0
M  V30 38 H -0.007584 3.232918 1.444521 0
M  V30 39 H 1.097226 1.558994 2.717243 0
M  V30 40 H 2.339865 2.628782 1.938834 0
M  V30 41 H -2.894212 1.614312 2.160198 0
M  V30 42 H -5.336376 1.485127 2.463729 0
M  V30 43 H -6.520776 -0.677170 2.024010 0
M  V30 44 H -5.197959 -2.676018 1.281350 0
M  V30 45 H -2.653870 -3.428154 0.717082 0
M  V30 END ATOM
M  V30 BEGIN BOND
M  V30 1 2 1 2
M  V30 2 1 2 3
M  V30 3 1 3 4
M  V30 4 1 4 5
M  V30 5 1 5 6
M  V30 6 2 6 7
M  V30 7 1 7 8
M  V30 8 1 8 9
M  V30 9 1 9 10
M  V30 10 1 10 11
M  V30 11 1 11 12
M  V30 12 1 12 13
M  V30 13 1 13 14
M  V30 14 1 14 15
M  V30 15 1 15 16
M  V30 16 2 9 17
M  V30 17 1 17 18
M  V30 18 2 18 19
M  V30 19 1 19 20
M  V30 20 2 20 21
M  V30 21 1 21 22
M  V30 22 2 22 23
M  V30 23 1 23 24
M  V30 24 2 24 25
M  V30 25 1 25 26
M  V30 26 1 17 2
M  V30 27 1 26 18
M  V30 28 2 8 4
M  V30 29 1 16 11
M  V30 30 1 25 20
M  V30 31 1 3 27
M  V30 32 1 6 28
M  V30 33 1 7 29
M  V30 34 1 10 30
M  V30 35 1 11 31
M  V30 36 1 12 32
M  V30 37 1 12 33
M  V30 38 1 13 34
M  V30 39 1 13 35
M  V30 40 1 14 36
M  V30 41 1 15 37
M  V30 42 1 15 38
M  V30 43 1 16 39
M  V30 44 1 16 40
M  V30 45 1 21 41
M  V30 46 1 22 42
M  V30 47 1 23 43
M  V30 48 1 24 44
M  V30 49 1 26 45
M  V30 END BOND
M  V30 END CTAB
M  END
>  <Dataset>  (7) 
ChEMBL_Kinases

>  <Ligand_Instance>  (7) 
nan

>  <PDB_ID>  (7) 
nan

>  <Standardized_SMILES>  (7) 
O=c1[nH]c2sccc2c(NC2CCNCC2)c1-c1nc2ccccc2[nH]1

>  <Name>  (7) 
nan

>  <Pocket>  (7) 
nan

>  <ATP_Site>  (7) 
nan

>  <Peripheral>  (7) 
nan

>  <Num_H_Atoms_ProtBoundConf>  (7) 
nan

>  <Num_Resolved_Atoms>  (7) 
nan

>  <Num_Not_Resolved_Atoms>  (7) 
nan

$$$$
CHEMBL3330134
     RDKit          3D

  0  0  0  0  0  0  0  0  0  0999 V3000
M  V30 BEGIN CTAB
M  V30 COUNTS 42 46 0 0 0
M  V30 BEGIN ATOM
M  V30 1 O 0.480754 -4.171513 2.470198 0
M  V30 2 C 1.111373 -3.426397 1.705357 0
M  V30 3 N 2.283261 -4.002030 1.465892 0
M  V30 4 C 3.196862 -3.426632 0.661429 0
M  V30 5 S 4.816088 -3.841990 0.091926 0
M  V30 6 C 4.994919 -2.282404 -0.942811 0
M  V30 7 C 3.809544 -1.645214 -0.727226 0
M  V30 8 C 2.867219 -2.200700 0.087310 0
M  V30 9 C 1.652408 -1.590889 0.328254 0
M  V30 10 N 1.283862 -0.332345 -0.221069 0
M  V30 11 C 1.736488 0.740208 -1.030120 0
M  V30 12 C 0.710055 1.820340 -1.329757 0
M  V30 13 C 0.950116 2.837552 -0.216972 0
M  V30 14 N 2.372787 2.834499 -0.065853 0
M  V30 15 C 2.809955 1.487964 -0.292348 0
M  V30 16 C 0.757227 -2.221276 1.156081 0
M  V30 17 C -0.563949 -1.703892 1.506391 0
M  V30 18 N -1.239342 -0.597833 1.179213 0
M  V30 19 C -2.446619 -0.487322 1.716650 0
M  V30 20 C -3.380456 0.520915 1.577523 0
M  V30 21 C -4.565429 0.359000 2.267557 0
M  V30 22 C -4.764304 -0.764385 3.042458 0
M  V30 23 C -3.765898 -1.741362 3.130496 0
M  V30 24 C -2.559179 -1.634104 2.462452 0
M  V30 25 N -1.433044 -2.329538 2.317288 0
M  V30 26 H 2.664305 -4.903833 1.819044 0
M  V30 27 H 5.971075 -2.334391 -1.406531 0
M  V30 28 H 4.019938 -0.803331 -1.348991 0
M  V30 29 H 0.352319 0.033482 -0.014848 0
M  V30 30 H 2.151759 0.365604 -1.998136 0
M  V30 31 H -0.327866 1.472389 -1.292606 0
M  V30 32 H 0.997204 2.298743 -2.287324 0
M  V30 33 H 0.663172 3.863492 -0.559053 0
M  V30 34 H 0.443605 2.539647 0.725486 0
M  V30 35 H 2.625920 3.161999 0.876184 0
M  V30 36 H 3.750883 1.524960 -0.881034 0
M  V30 37 H 3.021503 1.035562 0.710742 0
M  V30 38 H -3.187399 1.384727 0.961598 0
M  V30 39 H -5.353315 1.096085 2.218461 0
M  V30 40 H -5.691462 -0.889219 3.581244 0
M  V30 41 H -3.922811 -2.631990 3.744456 0
M  V30 42 H -1.428638 -3.207126 2.842701 0
M  V30 END ATOM
M  V30 BEGIN BOND
M  V30 1 2 1 2
M  V30 2 1 2 3
M  V30 3 1 3 4
M  V30 4 1 4 5
M  V30 5 1 5 6
M  V30 6 2 6 7
M  V30 7 1 7 8
M  V30 8 1 8 9
M  V30 9 1 9 10
M  V30 10 1 10 11
M  V30 11 1 11 12
M  V30 12 1 12 13
M  V30 13 1 13 14
M  V30 14 1 14 15
M  V30 15 2 9 16
M  V30 16 1 16 17
M  V30 17 2 17 18
M  V30 18 1 18 19
M  V30 19 2 19 20
M  V30 20 1 20 21
M  V30 21 2 21 22
M  V30 22 1 22 23
M  V30 23 2 23 24
M  V30 24 1 24 25
M  V30 25 1 16 2
M  V30 26 1 25 17
M  V30 27 2 8 4
M  V30 28 1 15 11
M  V30 29 1 24 19
M  V30 30 1 3 26
M  V30 31 1 6 27
M  V30 32 1 7 28
M  V30 33 1 10 29
M  V30 34 1 11 30
M  V30 35 1 12 31
M  V30 36 1 12 32
M  V30 37 1 13 33
M  V30 38 1 13 34
M  V30 39 1 14 35
M  V30 40 1 15 36
M  V30 41 1 15 37
M  V30 42 1 20 38
M  V30 43 1 21 39
M  V30 44 1 22 40
M  V30 45 1 23 41
M  V30 46 1 25 42
M  V30 END BOND
M  V30 END CTAB
M  END
>  <Dataset>  (8) 
ChEMBL_Kinases

>  <Ligand_Instance>  (8) 
nan

>  <PDB_ID>  (8) 
nan

>  <Standardized_SMILES>  (8) 
O=c1[nH]c2sccc2c(NC2CCNC2)c1-c1nc2ccccc2[nH]1

>  <Name>  (8) 
nan

>  <Pocket>  (8) 
nan

>  <ATP_Site>  (8) 
nan

>  <Peripheral>  (8) 
nan

>  <Num_H_Atoms_ProtBoundConf>  (8) 
nan

>  <Num_Resolved_Atoms>  (8) 
nan

>  <Num_Not_Resolved_Atoms>  (8) 
nan

$$$$
CHEMBL3329977
     RDKit          3D

  0  0  0  0  0  0  0  0  0  0999 V3000
M  V30 BEGIN CTAB
M  V30 COUNTS 33 35 0 0 0
M  V30 BEGIN ATOM
M  V30 1 O -0.018591 -2.471888 3.278789 0
M  V30 2 C 0.358221 -3.468535 2.608512 0
M  V30 3 O 0.310181 -4.675499 3.331243 0
M  V30 4 C 0.817357 -3.462617 1.208850 0
M  V30 5 C 1.207298 -4.646864 0.588284 0
M  V30 6 C 1.620380 -4.533318 -0.722736 0
M  V30 7 C 1.658826 -3.340757 -1.409480 0
M  V30 8 C 1.258506 -2.176487 -0.747792 0
M  V30 9 N 1.274469 -0.896576 -1.407848 0
M  V30 10 C 0.852241 0.273423 -0.682192 0
M  V30 11 C 1.582883 1.262174 -0.192266 0
M  V30 12 C 0.980753 2.382860 0.525223 0
M  V30 13 O 1.768529 3.269320 0.949410 0
M  V30 14 C -0.468017 2.393268 0.695543 0
M  V30 15 C -1.032075 3.451967 1.372811 0
M  V30 16 C -2.396826 3.466348 1.535906 0
M  V30 17 C -3.244054 2.485538 1.063801 0
M  V30 18 C -2.641024 1.431769 0.384971 0
M  V30 19 C -1.267636 1.386345 0.202914 0
M  V30 20 C -0.608346 0.276899 -0.514549 0
M  V30 21 O -1.409683 -0.602300 -0.933000 0
M  V30 22 C 0.832674 -2.250291 0.583037 0
M  V30 23 H -0.465665 -4.806947 3.970806 0
M  V30 24 H 1.183290 -5.599163 1.116307 0
M  V30 25 H 1.928431 -5.434805 -1.229250 0
M  V30 26 H 1.979711 -3.234014 -2.436740 0
M  V30 27 H 1.597592 -0.883051 -2.397428 0
M  V30 28 H 2.631757 1.125975 -0.390106 0
M  V30 29 H -0.424340 4.245244 1.763439 0
M  V30 30 H -2.891870 4.275105 2.060547 0
M  V30 31 H -4.312766 2.472998 1.177735 0
M  V30 32 H -3.241139 0.627899 -0.012653 0
M  V30 33 H 0.519910 -1.326089 1.093020 0
M  V30 END ATOM
M  V30 BEGIN BOND
M  V30 1 2 1 2
M  V30 2 1 2 3
M  V30 3 1 2 4
M  V30 4 2 4 5
M  V30 5 1 5 6
M  V30 6 2 6 7
M  V30 7 1 7 8
M  V30 8 1 8 9
M  V30 9 1 9 10
M  V30 10 2 10 11
M  V30 11 1 11 12
M  V30 12 2 12 13
M  V30 13 1 12 14
M  V30 14 2 14 15
M  V30 15 1 15 16
M  V30 16 2 16 17
M  V30 17 1 17 18
M  V30 18 2 18 19
M  V30 19 1 19 20
M  V30 20 2 20 21
M  V30 21 2 8 22
M  V30 22 1 22 4
M  V30 23 1 20 10
M  V30 24 1 19 14
M  V30 25 1 3 23
M  V30 26 1 5 24
M  V30 27 1 6 25
M  V30 28 1 7 26
M  V30 29 1 9 27
M  V30 30 1 11 28
M  V30 31 1 15 29
M  V30 32 1 16 30
M  V30 33 1 17 31
M  V30 34 1 18 32
M  V30 35 1 22 33
M  V30 END BOND
M  V30 END CTAB
M  END
>  <Dataset>  (9) 
ChEMBL_Kinases

>  <Ligand_Instance>  (9) 
nan

>  <PDB_ID>  (9) 
nan

>  <Standardized_SMILES>  (9) 
O=C(O)c1cccc(NC2=CC(=O)c3ccccc3C2=O)c1

>  <Name>  (9) 
nan

>  <Pocket>  (9) 
nan

>  <ATP_Site>  (9) 
nan

>  <Peripheral>  (9) 
nan

>  <Num_H_Atoms_ProtBoundConf>  (9) 
nan

>  <Num_Resolved_Atoms>  (9) 
nan

>  <Num_Not_Resolved_Atoms>  (9) 
nan

$$$$
CHEMBL3329683
     RDKit          3D

  0  0  0  0  0  0  0  0  0  0999 V3000
M  V30 BEGIN CTAB
M  V30 COUNTS 78 81 0 0 0
M  V30 BEGIN ATOM
M  V30 1 C 0.230511 -4.774927 -1.062274 0
M  V30 2 C 1.142770 -4.194455 -2.085527 0
M  V30 3 N 0.672174 -2.950140 -2.687464 0
M  V30 4 C -0.441727 -3.256229 -3.588958 0
M  V30 5 C -1.703104 -3.724280 -2.958249 0
M  V30 6 C 1.755011 -2.548818 -3.613981 0
M  V30 7 C 1.705891 -1.132520 -4.048223 0
M  V30 8 N 1.881221 -0.216274 -2.980335 0
M  V30 9 C 2.002093 1.184130 -2.751450 0
M  V30 10 O 1.913434 1.766239 -3.846188 0
M  V30 11 C 2.199706 1.864265 -1.495467 0
M  V30 12 C 2.217645 3.240327 -1.479301 0
M  V30 13 C 2.102003 4.356792 -2.467867 0
M  V30 14 N 2.377868 3.676537 -0.227212 0
M  V30 15 C 2.475341 2.756746 0.686914 0
M  V30 16 C 2.565714 2.111230 2.028796 0
M  V30 17 C 1.703224 2.470751 3.002489 0
M  V30 18 C 0.609612 3.400087 3.206826 0
M  V30 19 O 0.710768 4.353716 2.379101 0
M  V30 20 N -0.233538 2.972678 4.248509 0
M  V30 21 C 0.317429 1.748431 4.728342 0
M  V30 22 C -0.347434 0.927923 5.651497 0
M  V30 23 C 0.339142 -0.264111 5.728634 0
M  V30 24 N -0.351305 -1.478352 6.217637 0
M  V30 25 C -1.215773 -1.955318 5.292592 0
M  V30 26 O -0.958425 -0.893852 4.578179 0
M  V30 27 N -2.092026 -2.508437 4.431590 0
M  V30 28 C -2.697939 -2.254657 3.116252 0
M  V30 29 O -3.304861 -1.329579 3.799480 0
M  V30 30 C -3.311946 -1.979633 1.837169 0
M  V30 31 C -4.629655 -1.857426 1.563821 0
M  V30 32 C -4.933262 -1.457135 0.276169 0
M  V30 33 C -3.901303 -1.220086 -0.606838 0
M  V30 34 O -4.363967 -0.826866 -1.836101 0
M  V30 35 C -3.610290 -0.485483 -2.974106 0
M  V30 36 C -2.558166 -1.344734 -0.339938 0
M  V30 37 C -2.250128 -1.748231 0.950166 0
M  V30 38 F -0.898692 -1.847375 1.153865 0
M  V30 39 C 1.472990 -0.780802 5.154802 0
M  V30 40 C 2.056458 0.134252 4.255915 0
M  V30 41 C 1.468697 1.393836 4.041599 0
M  V30 42 C 2.365877 1.553569 -0.134837 0
M  V30 43 C 2.417499 0.043483 0.101331 0
M  V30 44 H -0.227024 -4.035256 -0.366535 0
M  V30 45 H 0.854242 -5.417870 -0.329799 0
M  V30 46 H -0.521401 -5.468132 -1.459660 0
M  V30 47 H 1.350861 -4.995744 -2.836205 0
M  V30 48 H 2.170065 -3.987182 -1.667930 0
M  V30 49 H -0.024898 -4.058350 -4.297970 0
M  V30 50 H -0.615419 -2.408627 -4.311195 0
M  V30 51 H -1.837931 -3.582227 -1.899563 0
M  V30 52 H -2.544883 -3.154493 -3.445159 0
M  V30 53 H -1.887312 -4.816440 -3.219319 0
M  V30 54 H 1.642858 -3.200732 -4.506049 0
M  V30 55 H 2.729897 -2.802279 -3.116361 0
M  V30 56 H 0.692671 -0.922788 -4.532198 0
M  V30 57 H 2.451258 -0.935990 -4.875096 0
M  V30 58 H 1.865649 -0.837518 -2.117277 0
M  V30 59 H 1.120191 4.881160 -2.345402 0
M  V30 60 H 2.122857 3.977379 -3.500240 0
M  V30 61 H 2.896958 5.139412 -2.317588 0
M  V30 62 H 2.478361 4.549488 0.310483 0
M  V30 63 H 3.361834 1.385269 2.266855 0
M  V30 64 H -1.049475 3.562116 4.495765 0
M  V30 65 H -1.208026 1.110968 6.207881 0
M  V30 66 H -0.840684 -2.364501 6.601341 0
M  V30 67 H -2.449174 -2.338112 3.705616 0
M  V30 68 H -5.302060 -2.084632 2.395075 0
M  V30 69 H -5.984204 -1.367468 0.064105 0
M  V30 70 H -4.122718 -0.768684 -3.905212 0
M  V30 71 H -3.555990 0.647943 -2.982353 0
M  V30 72 H -2.585180 -0.843220 -3.011385 0
M  V30 73 H -1.877675 -1.126407 -1.146201 0
M  V30 74 H 1.984430 -1.719915 5.269439 0
M  V30 75 H 2.968044 -0.122917 3.730203 0
M  V30 76 H 3.215612 -0.389967 -0.547454 0
M  V30 77 H 1.464265 -0.434258 0.124412 0
M  V30 78 H 2.899316 -0.145764 1.139535 0
M  V30 END ATOM
M  V30 BEGIN BOND
M  V30 1 1 1 2
M  V30 2 1 2 3
M  V30 3 1 3 4
M  V30 4 1 4 5
M  V30 5 1 3 6
M  V30 6 1 6 7
M  V30 7 1 7 8
M  V30 8 1 8 9
M  V30 9 2 9 10
M  V30 10 1 9 11
M  V30 11 2 11 12
M  V30 12 1 12 13
M  V30 13 1 12 14
M  V30 14 1 14 15
M  V30 15 1 15 16
M  V30 16 2 16 17
M  V30 17 1 17 18
M  V30 18 2 18 19
M  V30 19 1 18 20
M  V30 20 1 20 21
M  V30 21 2 21 22
M  V30 22 1 22 23
M  V30 23 1 23 24
M  V30 24 1 24 25
M  V30 25 2 25 26
M  V30 26 1 25 27
M  V30 27 1 27 28
M  V30 28 2 28 29
M  V30 29 1 28 30
M  V30 30 2 30 31
M  V30 31 1 31 32
M  V30 32 2 32 33
M  V30 33 1 33 34
M  V30 34 1 34 35
M  V30 35 1 33 36
M  V30 36 2 36 37
M  V30 37 1 37 38
M  V30 38 2 23 39
M  V30 39 1 39 40
M  V30 40 2 40 41
M  V30 41 2 15 42
M  V30 42 1 42 43
M  V30 43 1 42 11
M  V30 44 1 41 17
M  V30 45 1 41 21
M  V30 46 1 37 30
M  V30 47 1 1 44
M  V30 48 1 1 45
M  V30 49 1 1 46
M  V30 50 1 2 47
M  V30 51 1 2 48
M  V30 52 1 4 49
M  V30 53 1 4 50
M  V30 54 1 5 51
M  V30 55 1 5 52
M  V30 56 1 5 53
M  V30 57 1 6 54
M  V30 58 1 6 55
M  V30 59 1 7 56
M  V30 60 1 7 57
M  V30 61 1 8 58
M  V30 62 1 13 59
M  V30 63 1 13 60
M  V30 64 1 13 61
M  V30 65 1 14 62
M  V30 66 1 16 63
M  V30 67 1 20 64
M  V30 68 1 22 65
M  V30 69 1 24 66
M  V30 70 1 27 67
M  V30 71 1 31 68
M  V30 72 1 32 69
M  V30 73 1 35 70
M  V30 74 1 35 71
M  V30 75 1 35 72
M  V30 76 1 36 73
M  V30 77 1 39 74
M  V30 78 1 40 75
M  V30 79 1 43 76
M  V30 80 1 43 77
M  V30 81 1 43 78
M  V30 END BOND
M  V30 END CTAB
M  END
>  <Dataset>  (10) 
ChEMBL_Kinases

>  <Ligand_Instance>  (10) 
nan

>  <PDB_ID>  (10) 
nan

>  <Standardized_SMILES>  (10) 
CCN(CC)CCNC(=O)c1c(C)[nH]c(/C=C2\C(=O)Nc3cc(NC(=O)NC(=O)c4ccc(OC)cc4F)ccc32)c1C

>  <Name>  (10) 
nan

>  <Pocket>  (10) 
nan

>  <ATP_Site>  (10) 
nan

>  <Peripheral>  (10) 
nan

>  <Num_H_Atoms_ProtBoundConf>  (10) 
nan

>  <Num_Resolved_Atoms>  (10) 
nan

>  <Num_Not_Resolved_Atoms>  (10) 
nan

$$$$
CHEMBL3329682
     RDKit          3D

  0  0  0  0  0  0  0  0  0  0999 V3000
M  V30 BEGIN CTAB
M  V30 COUNTS 72 75 0 0 0
M  V30 BEGIN ATOM
M  V30 1 C 4.688017 -2.762126 3.761088 0
M  V30 2 O 4.966408 -1.376245 3.678210 0
M  V30 3 C 5.230653 -0.661656 2.545804 0
M  V30 4 C 5.468237 0.716050 2.741621 0
M  V30 5 C 5.773204 1.577586 1.688260 0
M  V30 6 C 5.820645 1.042471 0.458071 0
M  V30 7 C 5.815897 1.517227 -1.000570 0
M  V30 8 O 6.766585 1.308872 -1.833370 0
M  V30 9 N 4.499009 2.257538 -1.408022 0
M  V30 10 C 4.459092 1.958300 -2.795739 0
M  V30 11 O 4.965719 1.656436 -3.830184 0
M  V30 12 N 3.007957 2.048160 -2.912310 0
M  V30 13 C 1.714726 1.926093 -3.439277 0
M  V30 14 C 0.570632 2.078860 -4.060831 0
M  V30 15 C -0.514106 1.229009 -3.997070 0
M  V30 16 C -0.457571 0.097400 -3.231951 0
M  V30 17 C 0.604641 -0.332731 -2.480259 0
M  V30 18 C 1.575769 0.634952 -2.668204 0
M  V30 19 N 0.346187 -1.491579 -1.700248 0
M  V30 20 C -0.989985 -1.739805 -2.029651 0
M  V30 21 O -1.297042 -2.787988 -1.368069 0
M  V30 22 C -1.609695 -0.778556 -3.000845 0
M  V30 23 C -2.846450 -0.953938 -3.453084 0
M  V30 24 C -3.470410 -2.067766 -2.677018 0
M  V30 25 N -3.931647 -3.276268 -2.687590 0
M  V30 26 C -4.387483 -3.659514 -1.497349 0
M  V30 27 C -4.892360 -5.035535 -1.257967 0
M  V30 28 C -4.244263 -2.653443 -0.548610 0
M  V30 29 C -4.574177 -2.820548 0.865018 0
M  V30 30 O -4.987203 -3.935205 1.308995 0
M  V30 31 N -4.470962 -1.815332 1.846671 0
M  V30 32 C -4.705446 -1.770619 3.257092 0
M  V30 33 C -4.478321 -0.385281 3.834045 0
M  V30 34 N -3.174227 0.110817 3.593389 0
M  V30 35 C -2.998388 1.406663 4.114859 0
M  V30 36 C -2.138792 -0.779224 4.076517 0
M  V30 37 C -3.672383 -1.665191 -1.311204 0
M  V30 38 C -3.368768 -0.315874 -0.666392 0
M  V30 39 C 5.587724 -0.354293 0.180080 0
M  V30 40 F 5.606723 -1.147791 -0.955949 0
M  V30 41 C 5.292211 -1.179523 1.283384 0
M  V30 42 H 5.229985 -3.350708 2.976718 0
M  V30 43 H 4.964219 -3.093522 4.773572 0
M  V30 44 H 3.577395 -2.884841 3.717827 0
M  V30 45 H 5.439754 1.269682 3.671903 0
M  V30 46 H 5.983772 2.593517 1.550211 0
M  V30 47 H 4.535810 2.466794 -0.428971 0
M  V30 48 H 2.510931 2.737953 -2.207269 0
M  V30 49 H 0.793480 3.011723 -4.539444 0
M  V30 50 H -1.343946 1.509264 -4.559885 0
M  V30 51 H 2.439628 0.201996 -2.023546 0
M  V30 52 H 1.128956 -1.871395 -1.104301 0
M  V30 53 H -3.063768 -0.282754 -4.232234 0
M  V30 54 H -3.834523 -3.725217 -3.635862 0
M  V30 55 H -4.086962 -5.630959 -0.732202 0
M  V30 56 H -5.108148 -5.507911 -2.213406 0
M  V30 57 H -5.782442 -4.996753 -0.555698 0
M  V30 58 H -4.143709 -0.909134 1.602405 0
M  V30 59 H -3.966670 -2.411099 3.811819 0
M  V30 60 H -5.741542 -2.108274 3.527049 0
M  V30 61 H -4.718091 -0.419122 4.922084 0
M  V30 62 H -5.201306 0.340247 3.283379 0
M  V30 63 H -2.633253 2.167842 3.376234 0
M  V30 64 H -2.209508 1.435338 4.967221 0
M  V30 65 H -3.982071 1.772127 4.521090 0
M  V30 66 H -2.326182 -1.072365 5.102619 0
M  V30 67 H -1.159324 -0.269884 3.940945 0
M  V30 68 H -2.117125 -1.688833 3.442528 0
M  V30 69 H -4.297887 0.144176 -0.271834 0
M  V30 70 H -3.122992 0.404779 -1.517959 0
M  V30 71 H -2.541533 -0.321525 0.004386 0
M  V30 72 H 5.108967 -2.249677 1.279913 0
M  V30 END ATOM
M  V30 BEGIN BOND
M  V30 1 1 1 2
M  V30 2 1 2 3
M  V30 3 2 3 4
M  V30 4 1 4 5
M  V30 5 2 5 6
M  V30 6 1 6 7
M  V30 7 2 7 8
M  V30 8 1 7 9
M  V30 9 1 9 10
M  V30 10 2 10 11
M  V30 11 1 10 12
M  V30 12 1 12 13
M  V30 13 2 13 14
M  V30 14 1 14 15
M  V30 15 2 15 16
M  V30 16 1 16 17
M  V30 17 2 17 18
M  V30 18 1 17 19
M  V30 19 1 19 20
M  V30 20 2 20 21
M  V30 21 1 20 22
M  V30 22 2 22 23
M  V30 23 1 23 24
M  V30 24 1 24 25
M  V30 25 1 25 26
M  V30 26 1 26 27
M  V30 27 2 26 28
M  V30 28 1 28 29
M  V30 29 2 29 30
M  V30 30 1 29 31
M  V30 31 1 31 32
M  V30 32 1 32 33
M  V30 33 1 33 34
M  V30 34 1 34 35
M  V30 35 1 34 36
M  V30 36 1 28 37
M  V30 37 1 37 38
M  V30 38 1 6 39
M  V30 39 1 39 40
M  V30 40 2 39 41
M  V30 41 1 41 3
M  V30 42 1 18 13
M  V30 43 2 37 24
M  V30 44 1 22 16
M  V30 45 1 1 42
M  V30 46 1 1 43
M  V30 47 1 1 44
M  V30 48 1 4 45
M  V30 49 1 5 46
M  V30 50 1 9 47
M  V30 51 1 12 48
M  V30 52 1 14 49
M  V30 53 1 15 50
M  V30 54 1 18 51
M  V30 55 1 19 52
M  V30 56 1 23 53
M  V30 57 1 25 54
M  V30 58 1 27 55
M  V30 59 1 27 56
M  V30 60 1 27 57
M  V30 61 1 31 58
M  V30 62 1 32 59
M  V30 63 1 32 60
M  V30 64 1 33 61
M  V30 65 1 33 62
M  V30 66 1 35 63
M  V30 67 1 35 64
M  V30 68 1 35 65
M  V30 69 1 36 66
M  V30 70 1 36 67
M  V30 71 1 36 68
M  V30 72 1 38 69
M  V30 73 1 38 70
M  V30 74 1 38 71
M  V30 75 1 41 72
M  V30 END BOND
M  V30 END CTAB
M  END
>  <Dataset>  (11) 
ChEMBL_Kinases

>  <Ligand_Instance>  (11) 
nan

>  <PDB_ID>  (11) 
nan

>  <Standardized_SMILES>  (11) 
COc1ccc(C(=O)NC(=O)Nc2ccc3c(c2)NC(=O)/C3=C\c2[nH]c(C)c(C(=O)NCCN(C)C)c2C)c(F)c1

>  <Name>  (11) 
nan

>  <Pocket>  (11) 
nan

>  <ATP_Site>  (11) 
nan

>  <Peripheral>  (11) 
nan

>  <Num_H_Atoms_ProtBoundConf>  (11) 
nan

>  <Num_Resolved_Atoms>  (11) 
nan

>  <Num_Not_Resolved_Atoms>  (11) 
nan

$$$$
CHEMBL3329681
     RDKit          3D

  0  0  0  0  0  0  0  0  0  0999 V3000
M  V30 BEGIN CTAB
M  V30 COUNTS 75 79 0 0 0
M  V30 BEGIN ATOM
M  V30 1 C 10.661742 1.741214 7.323440 0
M  V30 2 O 10.757006 1.252890 6.010411 0
M  V30 3 C 9.709105 1.005901 5.181646 0
M  V30 4 C 8.460882 1.264853 5.692068 0
M  V30 5 C 7.293260 1.072334 4.998494 0
M  V30 6 C 7.386533 0.591053 3.722292 0
M  V30 7 C 6.208190 0.286106 2.862935 0
M  V30 8 O 5.238313 1.004212 3.348329 0
M  V30 9 N 5.904398 -0.575284 1.680909 0
M  V30 10 C 4.507647 -0.382583 1.312198 0
M  V30 11 O 3.589319 0.313039 1.728190 0
M  V30 12 N 4.554745 -1.346428 0.222843 0
M  V30 13 C 3.255929 -1.492774 -0.419139 0
M  V30 14 C 2.582622 -2.549138 0.155827 0
M  V30 15 C 1.313517 -2.801142 -0.300991 0
M  V30 16 C 0.811499 -1.988909 -1.289041 0
M  V30 17 C 1.498109 -0.911767 -1.874204 0
M  V30 18 C 2.789192 -0.650994 -1.415200 0
M  V30 19 N 0.688201 -0.279861 -2.852343 0
M  V30 20 C -0.580719 -0.919639 -2.955418 0
M  V30 21 O -1.538481 -0.625385 -3.706980 0
M  V30 22 C -0.500852 -1.993134 -1.974830 0
M  V30 23 C -1.481478 -2.846824 -1.722673 0
M  V30 24 C -2.795715 -2.919431 -2.347963 0
M  V30 25 N -3.370280 -2.898099 -3.588146 0
M  V30 26 C -4.708810 -2.979413 -3.497708 0
M  V30 27 C -5.456906 -2.970457 -4.790047 0
M  V30 28 C -5.107912 -3.061895 -2.157289 0
M  V30 29 C -6.529952 -3.171316 -1.854303 0
M  V30 30 C -7.307235 -1.885548 -2.061501 0
M  V30 31 C -6.905616 -0.766301 -1.224658 0
M  V30 32 O -6.211580 -1.115346 -0.259391 0
M  V30 33 N -6.634173 0.437568 -0.564730 0
M  V30 34 C -5.911510 0.768156 0.602194 0
M  V30 35 C -4.860007 1.838401 0.353997 0
M  V30 36 O -5.002582 2.351925 -0.956225 0
M  V30 37 C -6.310542 2.800089 -1.106113 0
M  V30 38 C -7.220080 1.602532 -1.234843 0
M  V30 39 C -3.907293 -3.022608 -1.485344 0
M  V30 40 C -3.864994 -3.127509 0.018126 0
M  V30 41 C 8.642440 0.320335 3.185633 0
M  V30 42 F 8.941841 -0.153005 1.941227 0
M  V30 43 C 9.817150 0.524160 3.901891 0
M  V30 44 H 11.660794 2.176429 7.622155 0
M  V30 45 H 9.892019 2.495841 7.495977 0
M  V30 46 H 10.499436 0.906442 8.018022 0
M  V30 47 H 8.241970 1.648027 6.697333 0
M  V30 48 H 6.294328 1.286656 5.412905 0
M  V30 49 H 6.805598 -0.697540 1.921204 0
M  V30 50 H 5.335170 -1.951724 -0.188204 0
M  V30 51 H 2.917325 -3.194660 0.918036 0
M  V30 52 H 0.690933 -3.595555 0.075986 0
M  V30 53 H 3.415857 0.130579 -1.783479 0
M  V30 54 H 1.011040 0.530196 -3.388798 0
M  V30 55 H -1.277579 -3.604432 -0.940675 0
M  V30 56 H -2.717920 -2.846040 -4.400896 0
M  V30 57 H -4.936075 -3.626113 -5.553272 0
M  V30 58 H -5.441969 -1.955774 -5.179461 0
M  V30 59 H -6.485689 -3.321100 -4.689438 0
M  V30 60 H -7.016380 -3.962811 -2.470036 0
M  V30 61 H -6.724186 -3.486612 -0.795667 0
M  V30 62 H -8.412432 -2.134590 -1.932374 0
M  V30 63 H -7.246639 -1.661495 -3.157985 0
M  V30 64 H -6.559723 1.145453 1.427694 0
M  V30 65 H -5.394987 -0.117821 1.012148 0
M  V30 66 H -3.844898 1.392257 0.384902 0
M  V30 67 H -4.905709 2.627628 1.113064 0
M  V30 68 H -6.323396 3.414694 -2.052664 0
M  V30 69 H -6.603249 3.503423 -0.312824 0
M  V30 70 H -8.176980 1.808444 -0.714851 0
M  V30 71 H -7.362684 1.443866 -2.320933 0
M  V30 72 H -3.730397 -2.111260 0.414950 0
M  V30 73 H -2.952765 -3.720171 0.334317 0
M  V30 74 H -4.726104 -3.686763 0.364454 0
M  V30 75 H 10.826491 0.343432 3.565686 0
M  V30 END ATOM
M  V30 BEGIN BOND
M  V30 1 1 1 2
M  V30 2 1 2 3
M  V30 3 2 3 4
M  V30 4 1 4 5
M  V30 5 2 5 6
M  V30 6 1 6 7
M  V30 7 2 7 8
M  V30 8 1 7 9
M  V30 9 1 9 10
M  V30 10 2 10 11
M  V30 11 1 10 12
M  V30 12 1 12 13
M  V30 13 2 13 14
M  V30 14 1 14 15
M  V30 15 2 15 16
M  V30 16 1 16 17
M  V30 17 2 17 18
M  V30 18 1 17 19
M  V30 19 1 19 20
M  V30 20 2 20 21
M  V30 21 1 20 22
M  V30 22 2 22 23
M  V30 23 1 23 24
M  V30 24 1 24 25
M  V30 25 1 25 26
M  V30 26 1 26 27
M  V30 27 2 26 28
M  V30 28 1 28 29
M  V30 29 1 29 30
M  V30 30 1 30 31
M  V30 31 2 31 32
M  V30 32 1 31 33
M  V30 33 1 33 34
M  V30 34 1 34 35
M  V30 35 1 35 36
M  V30 36 1 36 37
M  V30 37 1 37 38
M  V30 38 1 28 39
M  V30 39 1 39 40
M  V30 40 1 6 41
M  V30 41 1 41 42
M  V30 42 2 41 43
M  V30 43 1 43 3
M  V30 44 1 18 13
M  V30 45 2 39 24
M  V30 46 1 22 16
M  V30 47 1 38 33
M  V30 48 1 1 44
M  V30 49 1 1 45
M  V30 50 1 1 46
M  V30 51 1 4 47
M  V30 52 1 5 48
M  V30 53 1 9 49
M  V30 54 1 12 50
M  V30 55 1 14 51
M  V30 56 1 15 52
M  V30 57 1 18 53
M  V30 58 1 19 54
M  V30 59 1 23 55
M  V30 60 1 25 56
M  V30 61 1 27 57
M  V30 62 1 27 58
M  V30 63 1 27 59
M  V30 64 1 29 60
M  V30 65 1 29 61
M  V30 66 1 30 62
M  V30 67 1 30 63
M  V30 68 1 34 64
M  V30 69 1 34 65
M  V30 70 1 35 66
M  V30 71 1 35 67
M  V30 72 1 37 68
M  V30 73 1 37 69
M  V30 74 1 38 70
M  V30 75 1 38 71
M  V30 76 1 40 72
M  V30 77 1 40 73
M  V30 78 1 40 74
M  V30 79 1 43 75
M  V30 END BOND
M  V30 END CTAB
M  END
>  <Dataset>  (12) 
ChEMBL_Kinases

>  <Ligand_Instance>  (12) 
nan

>  <PDB_ID>  (12) 
nan

>  <Standardized_SMILES>  (12) 
COc1ccc(C(=O)NC(=O)Nc2ccc3c(c2)NC(=O)/C3=C\c2[nH]c(C)c(CCC(=O)N3CCOCC3)c2C)c(F)c1

>  <Name>  (12) 
nan

>  <Pocket>  (12) 
nan

>  <ATP_Site>  (12) 
nan

>  <Peripheral>  (12) 
nan

>  <Num_H_Atoms_ProtBoundConf>  (12) 
nan

>  <Num_Resolved_Atoms>  (12) 
nan

>  <Num_Not_Resolved_Atoms>  (12) 
nan

$$$$
CHEMBL3329680
     RDKit          3D

  0  0  0  0  0  0  0  0  0  0999 V3000
M  V30 BEGIN CTAB
M  V30 COUNTS 69 73 0 0 0
M  V30 BEGIN ATOM
M  V30 1 C 5.135489 3.460156 -11.018277 0
M  V30 2 O 3.783984 3.702979 -11.281324 0
M  V30 3 C 2.793895 3.501650 -10.309120 0
M  V30 4 C 1.428480 3.729998 -10.537488 0
M  V30 5 C 0.508661 3.512694 -9.542077 0
M  V30 6 C 0.879259 3.079855 -8.330704 0
M  V30 7 C 0.133202 2.781972 -7.085942 0
M  V30 8 O -0.960911 2.338718 -7.613061 0
M  V30 9 N 0.326381 2.858586 -5.609327 0
M  V30 10 C -0.843224 2.212717 -4.984301 0
M  V30 11 O -1.869183 1.748848 -5.410488 0
M  V30 12 N -0.266875 2.352623 -3.648571 0
M  V30 13 C -0.664216 1.937992 -2.343919 0
M  V30 14 C -1.586361 2.638500 -1.522495 0
M  V30 15 C -1.805307 2.046024 -0.296455 0
M  V30 16 C -1.227101 0.890284 0.161174 0
M  V30 17 C -0.344753 0.229408 -0.641020 0
M  V30 18 C -0.061824 0.760922 -1.907748 0
M  V30 19 N 0.178333 -0.928354 -0.005116 0
M  V30 20 C -0.436161 -0.960374 1.267080 0
M  V30 21 O -0.189947 -1.862375 2.079756 0
M  V30 22 C -1.365851 0.185971 1.453571 0
M  V30 23 C -2.159276 0.421526 2.491949 0
M  V30 24 C -1.970372 -0.532139 3.617112 0
M  V30 25 N -0.748750 -0.407466 4.231555 0
M  V30 26 C -0.596794 -1.326637 5.218484 0
M  V30 27 C 0.576107 -1.512635 6.119766 0
M  V30 28 C -1.778148 -2.045144 5.203492 0
M  V30 29 C -1.988865 -3.154654 6.125002 0
M  V30 30 O -2.559454 -3.071750 7.234061 0
M  V30 31 N -1.456293 -4.377149 5.606217 0
M  V30 32 C -1.584652 -5.571217 6.406128 0
M  V30 33 C -0.267923 -6.324926 6.425532 0
M  V30 34 O 0.236087 -6.549030 5.169720 0
M  V30 35 C -0.487567 -5.991673 4.133761 0
M  V30 36 C -0.788515 -4.518539 4.328365 0
M  V30 37 C -2.615577 -1.529046 4.197342 0
M  V30 38 C -3.943768 -2.057142 3.900931 0
M  V30 39 C 2.244036 2.839626 -8.065088 0
M  V30 40 F 2.842778 2.384661 -6.908343 0
M  V30 41 C 3.187463 3.059360 -9.076623 0
M  V30 42 H 5.357239 2.437113 -10.634725 0
M  V30 43 H 5.713522 3.554645 -11.978962 0
M  V30 44 H 5.624422 4.197896 -10.348587 0
M  V30 45 H 1.102176 4.073136 -11.480761 0
M  V30 46 H -0.557820 3.659153 -9.618164 0
M  V30 47 H 1.057180 3.264316 -6.023429 0
M  V30 48 H 0.627973 2.837092 -3.293849 0
M  V30 49 H -2.015638 3.541988 -1.910688 0
M  V30 50 H -2.509609 2.561523 0.369292 0
M  V30 51 H 0.637089 0.224417 -2.528822 0
M  V30 52 H 0.873784 -1.598825 -0.424027 0
M  V30 53 H -2.834068 1.277234 2.375497 0
M  V30 54 H 0.063103 0.269385 4.062266 0
M  V30 55 H 1.321316 -0.713056 5.942705 0
M  V30 56 H 0.292248 -1.407370 7.200494 0
M  V30 57 H 1.035454 -2.490513 5.948883 0
M  V30 58 H -2.326973 -6.264539 5.963278 0
M  V30 59 H -1.809358 -5.338656 7.465394 0
M  V30 60 H -0.477055 -7.310169 6.899992 0
M  V30 61 H 0.490471 -5.730818 6.997507 0
M  V30 62 H 0.115067 -6.041997 3.197848 0
M  V30 63 H -1.436019 -6.551146 4.029273 0
M  V30 64 H 0.197030 -4.017335 4.367819 0
M  V30 65 H -1.407145 -4.181746 3.493205 0
M  V30 66 H -4.501786 -1.447570 3.167404 0
M  V30 67 H -4.618991 -2.152459 4.785370 0
M  V30 68 H -3.882810 -3.097924 3.495949 0
M  V30 69 H 4.260323 2.875399 -8.899560 0
M  V30 END ATOM
M  V30 BEGIN BOND
M  V30 1 1 1 2
M  V30 2 1 2 3
M  V30 3 2 3 4
M  V30 4 1 4 5
M  V30 5 2 5 6
M  V30 6 1 6 7
M  V30 7 2 7 8
M  V30 8 1 7 9
M  V30 9 1 9 10
M  V30 10 2 10 11
M  V30 11 1 10 12
M  V30 12 1 12 13
M  V30 13 2 13 14
M  V30 14 1 14 15
M  V30 15 2 15 16
M  V30 16 1 16 17
M  V30 17 2 17 18
M  V30 18 1 17 19
M  V30 19 1 19 20
M  V30 20 2 20 21
M  V30 21 1 20 22
M  V30 22 2 22 23
M  V30 23 1 23 24
M  V30 24 1 24 25
M  V30 25 1 25 26
M  V30 26 1 26 27
M  V30 27 2 26 28
M  V30 28 1 28 29
M  V30 29 2 29 30
M  V30 30 1 29 31
M  V30 31 1 31 32
M  V30 32 1 32 33
M  V30 33 1 33 34
M  V30 34 1 34 35
M  V30 35 1 35 36
M  V30 36 1 28 37
M  V30 37 1 37 38
M  V30 38 1 6 39
M  V30 39 1 39 40
M  V30 40 2 39 41
M  V30 41 1 41 3
M  V30 42 1 18 13
M  V30 43 2 37 24
M  V30 44 1 22 16
M  V30 45 1 36 31
M  V30 46 1 1 42
M  V30 47 1 1 43
M  V30 48 1 1 44
M  V30 49 1 4 45
M  V30 50 1 5 46
M  V30 51 1 9 47
M  V30 52 1 12 48
M  V30 53 1 14 49
M  V30 54 1 15 50
M  V30 55 1 18 51
M  V30 56 1 19 52
M  V30 57 1 23 53
M  V30 58 1 25 54
M  V30 59 1 27 55
M  V30 60 1 27 56
M  V30 61 1 27 57
M  V30 62 1 32 58
M  V30 63 1 32 59
M  V30 64 1 33 60
M  V30 65 1 33 61
M  V30 66 1 35 62
M  V30 67 1 35 63
M  V30 68 1 36 64
M  V30 69 1 36 65
M  V30 70 1 38 66
M  V30 71 1 38 67
M  V30 72 1 38 68
M  V30 73 1 41 69
M  V30 END BOND
M  V30 END CTAB
M  END
>  <Dataset>  (13) 
ChEMBL_Kinases

>  <Ligand_Instance>  (13) 
nan

>  <PDB_ID>  (13) 
nan

>  <Standardized_SMILES>  (13) 
COc1ccc(C(=O)NC(=O)Nc2ccc3c(c2)NC(=O)/C3=C\c2[nH]c(C)c(C(=O)N3CCOCC3)c2C)c(F)c1

>  <Name>  (13) 
nan

>  <Pocket>  (13) 
nan

>  <ATP_Site>  (13) 
nan

>  <Peripheral>  (13) 
nan

>  <Num_H_Atoms_ProtBoundConf>  (13) 
nan

>  <Num_Resolved_Atoms>  (13) 
nan

>  <Num_Not_Resolved_Atoms>  (13) 
nan

$$$$
CHEMBL3329679
     RDKit          3D

  0  0  0  0  0  0  0  0  0  0999 V3000
M  V30 BEGIN CTAB
M  V30 COUNTS 79 83 0 0 0
M  V30 BEGIN ATOM
M  V30 1 C 12.061895 -1.373175 -3.137878 0
M  V30 2 O 11.547623 -0.707592 -4.270008 0
M  V30 3 C 10.205394 -0.279194 -4.322878 0
M  V30 4 C 9.951506 0.331522 -5.512226 0
M  V30 5 C 8.677896 0.774042 -5.637324 0
M  V30 6 C 7.737750 0.599659 -4.613639 0
M  V30 7 C 6.295415 0.953888 -4.394256 0
M  V30 8 O 6.148883 1.626195 -5.416134 0
M  V30 9 N 5.186999 1.705475 -4.986158 0
M  V30 10 C 4.103116 1.600369 -4.002534 0
M  V30 11 O 4.301743 0.977262 -2.957018 0
M  V30 12 N 2.800598 2.139657 -4.100955 0
M  V30 13 C 1.685780 2.094469 -3.265849 0
M  V30 14 C 1.235080 2.884756 -2.236368 0
M  V30 15 C 0.074063 2.624668 -1.557314 0
M  V30 16 C -0.716137 1.534327 -1.880574 0
M  V30 17 C -0.289024 0.730224 -2.903475 0
M  V30 18 C 0.903060 0.998172 -3.597688 0
M  V30 19 N -1.255117 -0.315886 -3.065730 0
M  V30 20 C -2.273570 -0.092546 -2.093652 0
M  V30 21 O -3.222221 -0.922657 -2.091232 0
M  V30 22 C -1.977784 1.092649 -1.294748 0
M  V30 23 C -2.752969 1.606569 -0.353428 0
M  V30 24 C -3.971626 0.818223 -0.037618 0
M  V30 25 N -5.283344 1.039387 -0.155310 0
M  V30 26 C -5.940493 -0.042732 0.341615 0
M  V30 27 C -7.416281 -0.218190 0.401412 0
M  V30 28 C -5.003349 -0.934070 0.768754 0
M  V30 29 C -5.239854 -2.273062 1.337602 0
M  V30 30 C -5.788901 -2.297916 2.735412 0
M  V30 31 C -5.016765 -1.623249 3.761181 0
M  V30 32 O -4.330731 -0.593250 3.534944 0
M  V30 33 N -4.931647 -2.018863 5.144330 0
M  V30 34 C -5.580182 -3.200038 5.686030 0
M  V30 35 C -4.545551 -4.081175 6.269394 0
M  V30 36 N -3.352927 -3.533800 6.749946 0
M  V30 37 C -2.214366 -4.107992 6.076716 0
M  V30 38 C -3.189017 -2.136888 6.862135 0
M  V30 39 C -4.222323 -1.301511 6.180310 0
M  V30 40 C -3.697996 -0.435156 0.554113 0
M  V30 41 C -2.445243 -1.140310 0.936362 0
M  V30 42 C 8.115698 -0.044876 -3.432899 0
M  V30 43 F 7.330494 -0.305105 -2.326383 0
M  V30 44 C 9.413862 -0.524935 -3.239148 0
M  V30 45 H 12.996731 -1.906267 -3.437912 0
M  V30 46 H 11.384488 -2.177586 -2.783724 0
M  V30 47 H 12.265676 -0.697631 -2.293080 0
M  V30 48 H 10.541880 0.538946 -6.374559 0
M  V30 49 H 8.187733 1.287469 -6.448982 0
M  V30 50 H 5.483418 1.191483 -4.225292 0
M  V30 51 H 2.907117 2.614397 -5.051835 0
M  V30 52 H 1.915624 3.717335 -2.050670 0
M  V30 53 H -0.219062 3.285580 -0.758475 0
M  V30 54 H 1.126041 0.284994 -4.383066 0
M  V30 55 H -1.183287 -1.093974 -3.788371 0
M  V30 56 H -2.368610 2.533944 0.042499 0
M  V30 57 H -5.649126 1.907602 -0.565365 0
M  V30 58 H -7.652795 -1.314334 0.518296 0
M  V30 59 H -7.832078 0.068245 -0.609649 0
M  V30 60 H -7.907775 0.331669 1.204396 0
M  V30 61 H -5.988623 -2.815795 0.692099 0
M  V30 62 H -4.286403 -2.882882 1.357033 0
M  V30 63 H -6.829647 -1.826457 2.711214 0
M  V30 64 H -6.025887 -3.367754 2.953367 0
M  V30 65 H -6.343612 -2.899170 6.443851 0
M  V30 66 H -6.083561 -3.766120 4.866580 0
M  V30 67 H -4.342716 -4.927398 5.554842 0
M  V30 68 H -5.040184 -4.618413 7.135509 0
M  V30 69 H -2.429511 -5.085657 5.586183 0
M  V30 70 H -1.815395 -3.477950 5.243121 0
M  V30 71 H -1.382720 -4.330876 6.777706 0
M  V30 72 H -2.180422 -1.790405 6.497528 0
M  V30 73 H -3.207708 -1.897084 7.951365 0
M  V30 74 H -3.778337 -0.346630 5.834299 0
M  V30 75 H -5.018450 -1.051615 6.941961 0
M  V30 76 H -1.675378 -0.422030 1.274464 0
M  V30 77 H -2.079872 -1.859970 0.177324 0
M  V30 78 H -2.658355 -1.781174 1.817291 0
M  V30 79 H 9.771822 -1.028122 -2.363980 0
M  V30 END ATOM
M  V30 BEGIN BOND
M  V30 1 1 1 2
M  V30 2 1 2 3
M  V30 3 2 3 4
M  V30 4 1 4 5
M  V30 5 2 5 6
M  V30 6 1 6 7
M  V30 7 2 7 8
M  V30 8 1 7 9
M  V30 9 1 9 10
M  V30 10 2 10 11
M  V30 11 1 10 12
M  V30 12 1 12 13
M  V30 13 2 13 14
M  V30 14 1 14 15
M  V30 15 2 15 16
M  V30 16 1 16 17
M  V30 17 2 17 18
M  V30 18 1 17 19
M  V30 19 1 19 20
M  V30 20 2 20 21
M  V30 21 1 20 22
M  V30 22 2 22 23
M  V30 23 1 23 24
M  V30 24 1 24 25
M  V30 25 1 25 26
M  V30 26 1 26 27
M  V30 27 2 26 28
M  V30 28 1 28 29
M  V30 29 1 29 30
M  V30 30 1 30 31
M  V30 31 2 31 32
M  V30 32 1 31 33
M  V30 33 1 33 34
M  V30 34 1 34 35
M  V30 35 1 35 36
M  V30 36 1 36 37
M  V30 37 1 36 38
M  V30 38 1 38 39
M  V30 39 1 28 40
M  V30 40 1 40 41
M  V30 41 1 6 42
M  V30 42 1 42 43
M  V30 43 2 42 44
M  V30 44 1 44 3
M  V30 45 1 18 13
M  V30 46 2 40 24
M  V30 47 1 22 16
M  V30 48 1 39 33
M  V30 49 1 1 45
M  V30 50 1 1 46
M  V30 51 1 1 47
M  V30 52 1 4 48
M  V30 53 1 5 49
M  V30 54 1 9 50
M  V30 55 1 12 51
M  V30 56 1 14 52
M  V30 57 1 15 53
M  V30 58 1 18 54
M  V30 59 1 19 55
M  V30 60 1 23 56
M  V30 61 1 25 57
M  V30 62 1 27 58
M  V30 63 1 27 59
M  V30 64 1 27 60
M  V30 65 1 29 61
M  V30 66 1 29 62
M  V30 67 1 30 63
M  V30 68 1 30 64
M  V30 69 1 34 65
M  V30 70 1 34 66
M  V30 71 1 35 67
M  V30 72 1 35 68
M  V30 73 1 37 69
M  V30 74 1 37 70
M  V30 75 1 37 71
M  V30 76 1 38 72
M  V30 77 1 38 73
M  V30 78 1 39 74
M  V30 79 1 39 75
M  V30 80 1 41 76
M  V30 81 1 41 77
M  V30 82 1 41 78
M  V30 83 1 44 79
M  V30 END BOND
M  V30 END CTAB
M  END
>  <Dataset>  (14) 
ChEMBL_Kinases

>  <Ligand_Instance>  (14) 
nan

>  <PDB_ID>  (14) 
nan

>  <Standardized_SMILES>  (14) 
COc1ccc(C(=O)NC(=O)Nc2ccc3c(c2)NC(=O)/C3=C\c2[nH]c(C)c(CCC(=O)N3CCN(C)CC3)c2C)c(F)c1

>  <Name>  (14) 
nan

>  <Pocket>  (14) 
nan

>  <ATP_Site>  (14) 
nan

>  <Peripheral>  (14) 
nan

>  <Num_H_Atoms_ProtBoundConf>  (14) 
nan

>  <Num_Resolved_Atoms>  (14) 
nan

>  <Num_Not_Resolved_Atoms>  (14) 
nan

$$$$
CHEMBL3329678
     RDKit          3D

  0  0  0  0  0  0  0  0  0  0999 V3000
M  V30 BEGIN CTAB
M  V30 COUNTS 73 77 0 0 0
M  V30 BEGIN ATOM
M  V30 1 C 13.727532 0.932155 -1.686312 0
M  V30 2 O 12.742366 0.217135 -2.387258 0
M  V30 3 C 11.415601 0.143232 -2.001152 0
M  V30 4 C 11.088579 0.829381 -0.854890 0
M  V30 5 C 9.819158 0.832127 -0.376365 0
M  V30 6 C 8.844953 0.131443 -1.057946 0
M  V30 7 C 7.473848 0.136394 -0.543365 0
M  V30 8 O 7.190007 0.782655 0.498513 0
M  V30 9 N 6.520774 -0.636889 -1.312898 0
M  V30 10 C 5.178230 -0.583302 -0.764866 0
M  V30 11 O 4.890453 0.081774 0.290961 0
M  V30 12 N 4.053991 -1.238247 -1.312357 0
M  V30 13 C 2.667135 -1.368996 -1.024892 0
M  V30 14 C 2.097965 -0.732699 0.049826 0
M  V30 15 C 0.731443 -0.867786 0.322136 0
M  V30 16 C 0.037834 -1.670474 -0.558716 0
M  V30 17 C 0.609200 -2.309142 -1.637229 0
M  V30 18 C 1.955164 -2.163793 -1.888168 0
M  V30 19 N -0.345798 -3.065823 -2.367057 0
M  V30 20 C -1.602083 -2.906815 -1.724984 0
M  V30 21 O -2.632382 -3.447778 -2.133911 0
M  V30 22 C -1.371312 -2.031100 -0.586045 0
M  V30 23 C -2.387951 -1.688300 0.180043 0
M  V30 24 C -3.791990 -2.054470 0.151419 0
M  V30 25 N -4.447130 -3.220364 0.049910 0
M  V30 26 C -5.765983 -3.092729 0.036830 0
M  V30 27 C -6.795513 -4.167350 -0.065786 0
M  V30 28 C -6.022259 -1.743281 0.136902 0
M  V30 29 C -7.319109 -1.090393 0.166807 0
M  V30 30 O -8.177375 -0.736418 -0.680097 0
M  V30 31 N -7.672942 -0.792334 1.514463 0
M  V30 32 C -8.929957 -0.133183 1.839665 0
M  V30 33 C -8.783392 0.682394 3.096991 0
M  V30 34 N -7.460536 1.307959 3.061325 0
M  V30 35 C -7.390303 2.402697 4.013468 0
M  V30 36 C -6.528330 0.255557 3.429793 0
M  V30 37 C -6.975061 -1.031286 2.745582 0
M  V30 38 C -4.796408 -1.088342 0.209019 0
M  V30 39 C -4.603044 0.385422 0.326332 0
M  V30 40 C 9.214781 -0.549683 -2.212600 0
M  V30 41 F 8.238995 -1.231424 -2.866800 0
M  V30 42 C 10.492565 -0.574757 -2.727961 0
M  V30 43 H 14.725279 0.634755 -2.057492 0
M  V30 44 H 13.646181 2.020907 -1.727247 0
M  V30 45 H 13.735153 0.656362 -0.590880 0
M  V30 46 H 11.810410 1.389253 -0.287662 0
M  V30 47 H 9.519769 1.356698 0.518648 0
M  V30 48 H 6.217932 -0.139744 -0.491030 0
M  V30 49 H 4.477916 -1.727485 -2.147213 0
M  V30 50 H 2.638714 -0.112844 0.726431 0
M  V30 51 H 0.220275 -0.397019 1.147776 0
M  V30 52 H 2.410957 -2.657591 -2.725130 0
M  V30 53 H -0.161586 -3.648302 -3.237716 0
M  V30 54 H -2.109914 -0.994086 0.991651 0
M  V30 55 H -4.009928 -4.155177 0.000783 0
M  V30 56 H -7.193466 -4.380238 0.967982 0
M  V30 57 H -6.341326 -5.123875 -0.401564 0
M  V30 58 H -7.587618 -3.790447 -0.744829 0
M  V30 59 H -9.134182 0.555350 0.983162 0
M  V30 60 H -9.751554 -0.887771 1.953076 0
M  V30 61 H -8.822645 0.036883 4.001780 0
M  V30 62 H -9.574666 1.475550 3.101416 0
M  V30 63 H -7.396605 2.010713 5.068561 0
M  V30 64 H -6.468135 2.968833 3.806102 0
M  V30 65 H -8.264992 3.038573 3.819121 0
M  V30 66 H -5.477194 0.505715 3.192053 0
M  V30 67 H -6.593043 0.071095 4.508812 0
M  V30 68 H -7.589514 -1.677720 3.402169 0
M  V30 69 H -6.037583 -1.600607 2.562423 0
M  V30 70 H -5.429378 0.893996 0.827907 0
M  V30 71 H -4.555275 0.806836 -0.717449 0
M  V30 72 H -3.611375 0.573096 0.791049 0
M  V30 73 H 10.756410 -1.110502 -3.627892 0
M  V30 END ATOM
M  V30 BEGIN BOND
M  V30 1 1 1 2
M  V30 2 1 2 3
M  V30 3 2 3 4
M  V30 4 1 4 5
M  V30 5 2 5 6
M  V30 6 1 6 7
M  V30 7 2 7 8
M  V30 8 1 7 9
M  V30 9 1 9 10
M  V30 10 2 10 11
M  V30 11 1 10 12
M  V30 12 1 12 13
M  V30 13 2 13 14
M  V30 14 1 14 15
M  V30 15 2 15 16
M  V30 16 1 16 17
M  V30 17 2 17 18
M  V30 18 1 17 19
M  V30 19 1 19 20
M  V30 20 2 20 21
M  V30 21 1 20 22
M  V30 22 2 22 23
M  V30 23 1 23 24
M  V30 24 1 24 25
M  V30 25 1 25 26
M  V30 26 1 26 27
M  V30 27 2 26 28
M  V30 28 1 28 29
M  V30 29 2 29 30
M  V30 30 1 29 31
M  V30 31 1 31 32
M  V30 32 1 32 33
M  V30 33 1 33 34
M  V30 34 1 34 35
M  V30 35 1 34 36
M  V30 36 1 36 37
M  V30 37 1 28 38
M  V30 38 1 38 39
M  V30 39 1 6 40
M  V30 40 1 40 41
M  V30 41 2 40 42
M  V30 42 1 42 3
M  V30 43 1 18 13
M  V30 44 2 38 24
M  V30 45 1 22 16
M  V30 46 1 37 31
M  V30 47 1 1 43
M  V30 48 1 1 44
M  V30 49 1 1 45
M  V30 50 1 4 46
M  V30 51 1 5 47
M  V30 52 1 9 48
M  V30 53 1 12 49
M  V30 54 1 14 50
M  V30 55 1 15 51
M  V30 56 1 18 52
M  V30 57 1 19 53
M  V30 58 1 23 54
M  V30 59 1 25 55
M  V30 60 1 27 56
M  V30 61 1 27 57
M  V30 62 1 27 58
M  V30 63 1 32 59
M  V30 64 1 32 60
M  V30 65 1 33 61
M  V30 66 1 33 62
M  V30 67 1 35 63
M  V30 68 1 35 64
M  V30 69 1 35 65
M  V30 70 1 36 66
M  V30 71 1 36 67
M  V30 72 1 37 68
M  V30 73 1 37 69
M  V30 74 1 39 70
M  V30 75 1 39 71
M  V30 76 1 39 72
M  V30 77 1 42 73
M  V30 END BOND
M  V30 END CTAB
M  END
>  <Dataset>  (15) 
ChEMBL_Kinases

>  <Ligand_Instance>  (15) 
nan

>  <PDB_ID>  (15) 
nan

>  <Standardized_SMILES>  (15) 
COc1ccc(C(=O)NC(=O)Nc2ccc3c(c2)NC(=O)/C3=C\c2[nH]c(C)c(C(=O)N3CCN(C)CC3)c2C)c(F)c1

>  <Name>  (15) 
nan

>  <Pocket>  (15) 
nan

>  <ATP_Site>  (15) 
nan

>  <Peripheral>  (15) 
nan

>  <Num_H_Atoms_ProtBoundConf>  (15) 
nan

>  <Num_Resolved_Atoms>  (15) 
nan

>  <Num_Not_Resolved_Atoms>  (15) 
nan

$$$$
CHEMBL3329677
     RDKit          3D

  0  0  0  0  0  0  0  0  0  0999 V3000
M  V30 BEGIN CTAB
M  V30 COUNTS 69 72 0 0 0
M  V30 BEGIN ATOM
M  V30 1 C -4.056070 3.770995 0.792595 0
M  V30 2 C -4.757259 4.939512 0.077115 0
M  V30 3 O -3.876782 5.680299 -0.672844 0
M  V30 4 C -3.084405 5.430745 -1.725856 0
M  V30 5 O -3.896591 4.848079 -1.021906 0
M  V30 6 C -2.112139 6.027698 -2.616311 0
M  V30 7 C -1.695826 5.229131 -3.803193 0
M  V30 8 C -1.158767 3.891792 -3.519658 0
M  V30 9 C -1.983441 2.771069 -3.326655 0
M  V30 10 C -3.478862 2.716554 -3.406723 0
M  V30 11 N -1.131099 1.740651 -3.056338 0
M  V30 12 C 0.200083 2.131680 -3.061383 0
M  V30 13 C 0.952729 0.926375 -2.759268 0
M  V30 14 C 1.554243 0.825476 -1.587027 0
M  V30 15 C 1.594233 1.764636 -0.504115 0
M  V30 16 O 1.157421 2.942108 -0.496523 0
M  V30 17 N 2.221503 1.202378 0.646010 0
M  V30 18 C 2.595072 -0.124785 0.301069 0
M  V30 19 C 3.180370 -1.204559 0.932013 0
M  V30 20 C 3.379986 -2.421870 0.320551 0
M  V30 21 N 3.915356 -3.351520 1.319724 0
M  V30 22 C 2.616520 -3.977108 1.616206 0
M  V30 23 O 1.584598 -3.639835 0.994660 0
M  V30 24 N 2.905747 -4.949134 2.688560 0
M  V30 25 C 1.651940 -5.708726 2.955030 0
M  V30 26 O 0.667267 -5.473969 2.146934 0
M  V30 27 C 1.126265 -6.712854 3.929304 0
M  V30 28 C -0.207414 -6.976856 4.044181 0
M  V30 29 C -0.641274 -7.886209 5.015219 0
M  V30 30 C 0.328002 -8.458178 5.795840 0
M  V30 31 O -0.250498 -9.337645 6.720457 0
M  V30 32 C -1.597514 -9.614915 6.856794 0
M  V30 33 C 1.681566 -8.252405 5.746808 0
M  V30 34 C 2.040392 -7.322620 4.745548 0
M  V30 35 F 3.396061 -7.168985 4.747409 0
M  V30 36 C 3.014358 -2.662376 -0.977410 0
M  V30 37 C 2.422528 -1.609118 -1.645300 0
M  V30 38 C 2.214890 -0.376227 -1.025020 0
M  V30 39 C 0.126996 3.439969 -3.349943 0
M  V30 40 C 1.356680 4.209240 -3.456786 0
M  V30 41 H -3.854439 2.926581 0.133351 0
M  V30 42 H -3.182854 4.215688 1.284580 0
M  V30 43 H -4.707440 3.418764 1.646685 0
M  V30 44 H -5.677322 4.549864 -0.355762 0
M  V30 45 H -5.116484 5.568711 0.956586 0
M  V30 46 H -2.461638 7.023299 -3.018624 0
M  V30 47 H -1.169005 6.237926 -2.025423 0
M  V30 48 H -1.012839 5.881816 -4.396005 0
M  V30 49 H -2.622420 5.100209 -4.432732 0
M  V30 50 H -3.737766 1.929919 -4.168935 0
M  V30 51 H -3.955052 2.422913 -2.466459 0
M  V30 52 H -3.878757 3.658245 -3.815043 0
M  V30 53 H -1.666884 0.820775 -2.886685 0
M  V30 54 H 1.065109 0.088316 -3.437681 0
M  V30 55 H 2.385332 1.653224 1.560441 0
M  V30 56 H 3.454209 -0.935864 1.963460 0
M  V30 57 H 4.737093 -3.692045 1.824078 0
M  V30 58 H 3.071013 -5.526227 3.323434 0
M  V30 59 H -0.940103 -6.500938 3.404229 0
M  V30 60 H -1.702084 -8.031439 5.027997 0
M  V30 61 H -1.722240 -10.333692 7.713199 0
M  V30 62 H -2.207750 -8.713516 7.150541 0
M  V30 63 H -2.080939 -10.121288 6.009404 0
M  V30 64 H 2.339018 -8.769747 6.423181 0
M  V30 65 H 3.232841 -3.651207 -1.333885 0
M  V30 66 H 2.129300 -1.787482 -2.683235 0
M  V30 67 H 1.126543 5.223404 -3.012134 0
M  V30 68 H 2.212104 3.811200 -2.926955 0
M  V30 69 H 1.595427 4.468318 -4.537051 0
M  V30 END ATOM
M  V30 BEGIN BOND
M  V30 1 1 1 2
M  V30 2 1 2 3
M  V30 3 1 3 4
M  V30 4 2 4 5
M  V30 5 1 4 6
M  V30 6 1 6 7
M  V30 7 1 7 8
M  V30 8 2 8 9
M  V30 9 1 9 10
M  V30 10 1 9 11
M  V30 11 1 11 12
M  V30 12 1 12 13
M  V30 13 2 13 14
M  V30 14 1 14 15
M  V30 15 2 15 16
M  V30 16 1 15 17
M  V30 17 1 17 18
M  V30 18 2 18 19
M  V30 19 1 19 20
M  V30 20 1 20 21
M  V30 21 1 21 22
M  V30 22 2 22 23
M  V30 23 1 22 24
M  V30 24 1 24 25
M  V30 25 2 25 26
M  V30 26 1 25 27
M  V30 27 2 27 28
M  V30 28 1 28 29
M  V30 29 2 29 30
M  V30 30 1 30 31
M  V30 31 1 31 32
M  V30 32 1 30 33
M  V30 33 2 33 34
M  V30 34 1 34 35
M  V30 35 2 20 36
M  V30 36 1 36 37
M  V30 37 2 37 38
M  V30 38 2 12 39
M  V30 39 1 39 40
M  V30 40 1 39 8
M  V30 41 1 38 14
M  V30 42 1 38 18
M  V30 43 1 34 27
M  V30 44 1 1 41
M  V30 45 1 1 42
M  V30 46 1 1 43
M  V30 47 1 2 44
M  V30 48 1 2 45
M  V30 49 1 6 46
M  V30 50 1 6 47
M  V30 51 1 7 48
M  V30 52 1 7 49
M  V30 53 1 10 50
M  V30 54 1 10 51
M  V30 55 1 10 52
M  V30 56 1 11 53
M  V30 57 1 13 54
M  V30 58 1 17 55
M  V30 59 1 19 56
M  V30 60 1 21 57
M  V30 61 1 24 58
M  V30 62 1 28 59
M  V30 63 1 29 60
M  V30 64 1 32 61
M  V30 65 1 32 62
M  V30 66 1 32 63
M  V30 67 1 33 64
M  V30 68 1 36 65
M  V30 69 1 37 66
M  V30 70 1 40 67
M  V30 71 1 40 68
M  V30 72 1 40 69
M  V30 END BOND
M  V30 END CTAB
M  END
>  <Dataset>  (16) 
ChEMBL_Kinases

>  <Ligand_Instance>  (16) 
nan

>  <PDB_ID>  (16) 
nan

>  <Standardized_SMILES>  (16) 
CCOC(=O)CCc1c(C)[nH]c(/C=C2\C(=O)Nc3cc(NC(=O)NC(=O)c4ccc(OC)cc4F)ccc32)c1C

>  <Name>  (16) 
nan

>  <Pocket>  (16) 
nan

>  <ATP_Site>  (16) 
nan

>  <Peripheral>  (16) 
nan

>  <Num_H_Atoms_ProtBoundConf>  (16) 
nan

>  <Num_Resolved_Atoms>  (16) 
nan

>  <Num_Not_Resolved_Atoms>  (16) 
nan

$$$$
CHEMBL3329656
     RDKit          3D

  0  0  0  0  0  0  0  0  0  0999 V3000
M  V30 BEGIN CTAB
M  V30 COUNTS 44 47 0 0 0
M  V30 BEGIN ATOM
M  V30 1 O 3.294820 0.716160 0.847601 0
M  V30 2 C 2.393252 1.141129 0.128039 0
M  V30 3 N 2.189687 2.233827 -0.784855 0
M  V30 4 C 3.448624 3.035885 -0.807843 0
M  V30 5 O 4.444195 2.663840 -0.069180 0
M  V30 6 C 3.934807 4.266835 -1.508129 0
M  V30 7 C 5.144967 4.819156 -1.231851 0
M  V30 8 C 5.457035 5.964499 -1.966937 0
M  V30 9 C 4.631456 6.528122 -2.911258 0
M  V30 10 Cl 5.165521 7.974381 -3.758146 0
M  V30 11 C 3.416476 5.965943 -3.182375 0
M  V30 12 C 3.090927 4.836871 -2.468553 0
M  V30 13 N 1.036088 0.623210 -0.082446 0
M  V30 14 C 0.319878 -0.510706 0.455646 0
M  V30 15 C 0.360176 -1.739715 -0.190996 0
M  V30 16 C -0.351904 -2.787677 0.395237 0
M  V30 17 C -1.032194 -2.522955 1.558003 0
M  V30 18 C -1.092948 -1.319306 2.223595 0
M  V30 19 C -0.374116 -0.278193 1.623371 0
M  V30 20 N -1.889521 -1.408280 3.395987 0
M  V30 21 C -2.349019 -2.734389 3.465286 0
M  V30 22 O -3.081861 -3.121369 4.395617 0
M  V30 23 C -1.833497 -3.463202 2.332917 0
M  V30 24 C -2.141833 -4.734487 2.152676 0
M  V30 25 C -2.942420 -5.642488 2.949994 0
M  V30 26 C -3.897033 -6.415101 2.283285 0
M  V30 27 C -4.542688 -7.230246 3.183334 0
M  V30 28 C -3.988357 -6.964279 4.413385 0
M  V30 29 N -3.063242 -6.035735 4.225750 0
M  V30 30 H 2.054530 2.971838 -1.400386 0
M  V30 31 H 5.817466 4.411083 -0.502052 0
M  V30 32 H 6.427929 6.365319 -1.710408 0
M  V30 33 H 2.787568 6.423502 -3.924968 0
M  V30 34 H 2.108236 4.450984 -2.745452 0
M  V30 35 H 0.215939 0.941934 -0.687718 0
M  V30 36 H 0.927802 -1.840513 -1.103460 0
M  V30 37 H -0.348026 -3.753702 -0.070314 0
M  V30 38 H -0.378714 0.701031 2.097469 0
M  V30 39 H -2.070819 -0.622741 4.047904 0
M  V30 40 H -1.686040 -5.126677 1.224548 0
M  V30 41 H -4.180081 -6.460794 1.237977 0
M  V30 42 H -5.341379 -7.959276 3.006195 0
M  V30 43 H -4.224940 -7.401093 5.379104 0
M  V30 44 H -2.458862 -5.633447 4.961993 0
M  V30 END ATOM
M  V30 BEGIN BOND
M  V30 1 2 1 2
M  V30 2 1 2 3
M  V30 3 1 3 4
M  V30 4 2 4 5
M  V30 5 1 4 6
M  V30 6 2 6 7
M  V30 7 1 7 8
M  V30 8 2 8 9
M  V30 9 1 9 10
M  V30 10 1 9 11
M  V30 11 2 11 12
M  V30 12 1 2 13
M  V30 13 1 13 14
M  V30 14 2 14 15
M  V30 15 1 15 16
M  V30 16 2 16 17
M  V30 17 1 17 18
M  V30 18 2 18 19
M  V30 19 1 18 20
M  V30 20 1 20 21
M  V30 21 2 21 22
M  V30 22 1 21 23
M  V30 23 2 23 24
M  V30 24 1 24 25
M  V30 25 2 25 26
M  V30 26 1 26 27
M  V30 27 2 27 28
M  V30 28 1 28 29
M  V30 29 1 12 6
M  V30 30 1 19 14
M  V30 31 1 29 25
M  V30 32 1 23 17
M  V30 33 1 3 30
M  V30 34 1 7 31
M  V30 35 1 8 32
M  V30 36 1 11 33
M  V30 37 1 12 34
M  V30 38 1 13 35
M  V30 39 1 15 36
M  V30 40 1 16 37
M  V30 41 1 19 38
M  V30 42 1 20 39
M  V30 43 1 24 40
M  V30 44 1 26 41
M  V30 45 1 27 42
M  V30 46 1 28 43
M  V30 47 1 29 44
M  V30 END BOND
M  V30 END CTAB
M  END
>  <Dataset>  (17) 
ChEMBL_Kinases

>  <Ligand_Instance>  (17) 
nan

>  <PDB_ID>  (17) 
nan

>  <Standardized_SMILES>  (17) 
O=C(NC(=O)c1ccc(Cl)cc1)Nc1ccc2c(c1)NC(=O)/C2=C\c1ccc[nH]1

>  <Name>  (17) 
nan

>  <Pocket>  (17) 
nan

>  <ATP_Site>  (17) 
nan

>  <Peripheral>  (17) 
nan

>  <Num_H_Atoms_ProtBoundConf>  (17) 
nan

>  <Num_Resolved_Atoms>  (17) 
nan

>  <Num_Not_Resolved_Atoms>  (17) 
nan

$$$$
CHEMBL3329657
     RDKit          3D

  0  0  0  0  0  0  0  0  0  0999 V3000
M  V30 BEGIN CTAB
M  V30 COUNTS 44 47 0 0 0
M  V30 BEGIN ATOM
M  V30 1 O 2.202254 1.337213 -0.879202 0
M  V30 2 C 1.553878 1.868309 0.095882 0
M  V30 3 N 1.490652 3.286256 0.398198 0
M  V30 4 C 2.278070 4.008465 -0.580335 0
M  V30 5 O 2.918603 3.506474 -1.539736 0
M  V30 6 C 2.329827 5.458292 -0.435109 0
M  V30 7 C 3.069812 6.161982 -1.374684 0
M  V30 8 C 3.162204 7.552366 -1.294412 0
M  V30 9 C 2.533631 8.268121 -0.297201 0
M  V30 10 Cl 2.702824 10.012470 -0.270250 0
M  V30 11 C 1.788728 7.552598 0.647547 0
M  V30 12 Cl 0.998635 8.460783 1.902969 0
M  V30 13 C 1.707715 6.179768 0.553884 0
M  V30 14 N 0.848230 0.918322 0.925069 0
M  V30 15 C 0.544035 -0.458158 1.133535 0
M  V30 16 C 1.288633 -1.309327 1.925185 0
M  V30 17 C 0.854672 -2.620065 2.008062 0
M  V30 18 C -0.274890 -2.995595 1.309127 0
M  V30 19 C -1.026963 -2.151991 0.514462 0
M  V30 20 C -0.587785 -0.839964 0.435125 0
M  V30 21 N -2.127569 -2.839241 -0.072201 0
M  V30 22 C -2.059861 -4.186051 0.380600 0
M  V30 23 O -2.904189 -5.035768 0.029919 0
M  V30 24 C -0.915799 -4.303764 1.239184 0
M  V30 25 C -0.612280 -5.446103 1.832418 0
M  V30 26 C -1.267392 -6.738970 1.741417 0
M  V30 27 C -1.533907 -7.403385 2.948235 0
M  V30 28 C -2.133114 -8.619684 2.700222 0
M  V30 29 C -2.239021 -8.711798 1.330824 0
M  V30 30 N -1.721003 -7.592237 0.808244 0
M  V30 31 H 1.972468 2.769974 -0.344978 0
M  V30 32 H 3.608618 5.690843 -2.208024 0
M  V30 33 H 3.749524 8.090743 -2.043182 0
M  V30 34 H 1.138612 5.620735 1.273262 0
M  V30 35 H 0.380958 1.463325 1.668609 0
M  V30 36 H 2.157258 -0.913290 2.430981 0
M  V30 37 H 1.415150 -3.314878 2.620469 0
M  V30 38 H -1.188789 -0.195259 -0.190862 0
M  V30 39 H -2.835512 -2.413683 -0.709785 0
M  V30 40 H 0.281387 -5.346657 2.479186 0
M  V30 41 H -1.376695 -7.177216 4.013788 0
M  V30 42 H -2.495763 -9.426192 3.299513 0
M  V30 43 H -2.646583 -9.493400 0.670417 0
M  V30 44 H -1.631376 -7.345182 -0.198785 0
M  V30 END ATOM
M  V30 BEGIN BOND
M  V30 1 2 1 2
M  V30 2 1 2 3
M  V30 3 1 3 4
M  V30 4 2 4 5
M  V30 5 1 4 6
M  V30 6 2 6 7
M  V30 7 1 7 8
M  V30 8 2 8 9
M  V30 9 1 9 10
M  V30 10 1 9 11
M  V30 11 1 11 12
M  V30 12 2 11 13
M  V30 13 1 2 14
M  V30 14 1 14 15
M  V30 15 2 15 16
M  V30 16 1 16 17
M  V30 17 2 17 18
M  V30 18 1 18 19
M  V30 19 2 19 20
M  V30 20 1 19 21
M  V30 21 1 21 22
M  V30 22 2 22 23
M  V30 23 1 22 24
M  V30 24 2 24 25
M  V30 25 1 25 26
M  V30 26 2 26 27
M  V30 27 1 27 28
M  V30 28 2 28 29
M  V30 29 1 29 30
M  V30 30 1 13 6
M  V30 31 1 20 15
M  V30 32 1 30 26
M  V30 33 1 24 18
M  V30 34 1 3 31
M  V30 35 1 7 32
M  V30 36 1 8 33
M  V30 37 1 13 34
M  V30 38 1 14 35
M  V30 39 1 16 36
M  V30 40 1 17 37
M  V30 41 1 20 38
M  V30 42 1 21 39
M  V30 43 1 25 40
M  V30 44 1 27 41
M  V30 45 1 28 42
M  V30 46 1 29 43
M  V30 47 1 30 44
M  V30 END BOND
M  V30 END CTAB
M  END
>  <Dataset>  (18) 
ChEMBL_Kinases

>  <Ligand_Instance>  (18) 
nan

>  <PDB_ID>  (18) 
nan

>  <Standardized_SMILES>  (18) 
O=C(NC(=O)c1ccc(Cl)c(Cl)c1)Nc1ccc2c(c1)NC(=O)/C2=C\c1ccc[nH]1

>  <Name>  (18) 
nan

>  <Pocket>  (18) 
nan

>  <ATP_Site>  (18) 
nan

>  <Peripheral>  (18) 
nan

>  <Num_H_Atoms_ProtBoundConf>  (18) 
nan

>  <Num_Resolved_Atoms>  (18) 
nan

>  <Num_Not_Resolved_Atoms>  (18) 
nan

$$$$
CHEMBL3329658
     RDKit          3D

  0  0  0  0  0  0  0  0  0  0999 V3000
M  V30 BEGIN CTAB
M  V30 COUNTS 44 47 0 0 0
M  V30 BEGIN ATOM
M  V30 1 O 3.325541 0.191711 0.390679 0
M  V30 2 C 2.250951 0.824142 0.475536 0
M  V30 3 N 3.180586 1.644940 -0.063736 0
M  V30 4 C 4.144324 2.542751 -0.725362 0
M  V30 5 O 4.746213 2.388141 0.367794 0
M  V30 6 C 4.389969 3.302330 -2.014674 0
M  V30 7 C 5.588866 3.936072 -1.843202 0
M  V30 8 C 5.894714 4.658281 -2.998931 0
M  V30 9 C 5.078546 4.690665 -4.107907 0
M  V30 10 C 3.896783 3.991677 -4.117409 0
M  V30 11 C 3.477792 3.237971 -3.038604 0
M  V30 12 F 2.347472 2.509057 -2.918430 0
M  V30 13 N 0.965634 1.383780 0.643282 0
M  V30 14 C 0.189352 0.330311 1.196862 0
M  V30 15 C -0.428089 -0.442866 0.218784 0
M  V30 16 C -1.210675 -1.499510 0.562563 0
M  V30 17 C -1.358255 -1.760398 1.907174 0
M  V30 18 C -0.755375 -1.007675 2.906573 0
M  V30 19 C 0.049891 0.079574 2.544064 0
M  V30 20 N -1.083292 -1.509884 4.202977 0
M  V30 21 C -1.924537 -2.619341 3.998952 0
M  V30 22 O -2.403600 -3.299803 4.929635 0
M  V30 23 C -2.114912 -2.802182 2.571671 0
M  V30 24 C -2.879758 -3.756625 2.087145 0
M  V30 25 C -3.623641 -4.789203 2.754003 0
M  V30 26 C -4.953875 -5.011705 2.389029 0
M  V30 27 C -5.488747 -6.053299 3.115143 0
M  V30 28 C -4.474031 -6.483534 3.942588 0
M  V30 29 N -3.405488 -5.716840 3.695945 0
M  V30 30 H 3.798117 2.189854 -0.421851 0
M  V30 31 H 6.246363 3.934424 -0.999707 0
M  V30 32 H 6.834264 5.234460 -3.034245 0
M  V30 33 H 5.328206 5.257959 -5.005476 0
M  V30 34 H 3.210175 3.983595 -4.977018 0
M  V30 35 H 0.800595 2.371149 0.368578 0
M  V30 36 H -0.329986 -0.260585 -0.859285 0
M  V30 37 H -1.700391 -2.112759 -0.193607 0
M  V30 38 H 0.560892 0.724662 3.242601 0
M  V30 39 H -0.771247 -1.138391 5.133047 0
M  V30 40 H -2.923733 -3.717533 0.990942 0
M  V30 41 H -5.581385 -4.500398 1.652506 0
M  V30 42 H -6.490008 -6.471466 3.070744 0
M  V30 43 H -4.505927 -7.291499 4.668937 0
M  V30 44 H -2.500407 -5.832829 4.169279 0
M  V30 END ATOM
M  V30 BEGIN BOND
M  V30 1 2 1 2
M  V30 2 1 2 3
M  V30 3 1 3 4
M  V30 4 2 4 5
M  V30 5 1 4 6
M  V30 6 2 6 7
M  V30 7 1 7 8
M  V30 8 2 8 9
M  V30 9 1 9 10
M  V30 10 2 10 11
M  V30 11 1 11 12
M  V30 12 1 2 13
M  V30 13 1 13 14
M  V30 14 2 14 15
M  V30 15 1 15 16
M  V30 16 2 16 17
M  V30 17 1 17 18
M  V30 18 2 18 19
M  V30 19 1 18 20
M  V30 20 1 20 21
M  V30 21 2 21 22
M  V30 22 1 21 23
M  V30 23 2 23 24
M  V30 24 1 24 25
M  V30 25 2 25 26
M  V30 26 1 26 27
M  V30 27 2 27 28
M  V30 28 1 28 29
M  V30 29 1 11 6
M  V30 30 1 19 14
M  V30 31 1 29 25
M  V30 32 1 23 17
M  V30 33 1 3 30
M  V30 34 1 7 31
M  V30 35 1 8 32
M  V30 36 1 9 33
M  V30 37 1 10 34
M  V30 38 1 13 35
M  V30 39 1 15 36
M  V30 40 1 16 37
M  V30 41 1 19 38
M  V30 42 1 20 39
M  V30 43 1 24 40
M  V30 44 1 26 41
M  V30 45 1 27 42
M  V30 46 1 28 43
M  V30 47 1 29 44
M  V30 END BOND
M  V30 END CTAB
M  END
>  <Dataset>  (19) 
ChEMBL_Kinases

>  <Ligand_Instance>  (19) 
nan

>  <PDB_ID>  (19) 
nan

>  <Standardized_SMILES>  (19) 
O=C(NC(=O)c1ccccc1F)Nc1ccc2c(c1)NC(=O)/C2=C\c1ccc[nH]1

>  <Name>  (19) 
nan

>  <Pocket>  (19) 
nan

>  <ATP_Site>  (19) 
nan

>  <Peripheral>  (19) 
nan

>  <Num_H_Atoms_ProtBoundConf>  (19) 
nan

>  <Num_Resolved_Atoms>  (19) 
nan

>  <Num_Not_Resolved_Atoms>  (19) 
nan

$$$$
CHEMBL3329659
     RDKit          3D

  0  0  0  0  0  0  0  0  0  0999 V3000
M  V30 BEGIN CTAB
M  V30 COUNTS 47 50 0 0 0
M  V30 BEGIN ATOM
M  V30 1 O 2.640472 -0.644094 1.378340 0
M  V30 2 C 1.923168 0.376825 1.136568 0
M  V30 3 N 2.420222 1.741698 1.149560 0
M  V30 4 C 3.825721 1.768389 1.493048 0
M  V30 5 O 4.518425 0.767005 1.729025 0
M  V30 6 C 4.324769 3.162497 1.525182 0
M  V30 7 C 3.632959 4.324846 1.279078 0
M  V30 8 C 4.271732 5.540835 1.359990 0
M  V30 9 C 5.610414 5.642952 1.685929 0
M  V30 10 C 6.283510 6.960230 1.769073 0
M  V30 11 F 7.406589 6.897259 2.590102 0
M  V30 12 F 5.447947 7.935213 2.275088 0
M  V30 13 F 6.722703 7.403096 0.543356 0
M  V30 14 C 6.343306 4.502114 1.940743 0
M  V30 15 C 5.675186 3.295158 1.851993 0
M  V30 16 N 0.537863 0.109969 0.837863 0
M  V30 17 C -0.471676 -0.867493 0.675025 0
M  V30 18 C -0.630326 -1.338284 -0.612576 0
M  V30 19 C -1.602503 -2.303706 -0.823625 0
M  V30 20 C -2.340064 -2.720949 0.277335 0
M  V30 21 C -2.171513 -2.242800 1.557927 0
M  V30 22 C -1.199012 -1.283228 1.743458 0
M  V30 23 N -3.073373 -2.868376 2.461568 0
M  V30 24 C -3.839337 -3.783050 1.692562 0
M  V30 25 O -4.715882 -4.486198 2.203433 0
M  V30 26 C -3.408670 -3.717775 0.320327 0
M  V30 27 C -3.933985 -4.474489 -0.623904 0
M  V30 28 C -5.002521 -5.451660 -0.528775 0
M  V30 29 C -6.263104 -5.580959 0.010297 0
M  V30 30 C -6.785777 -6.831318 -0.235006 0
M  V30 31 C -5.812376 -7.495421 -0.951581 0
M  V30 32 N -4.779180 -6.650106 -1.103939 0
M  V30 33 H 2.888924 0.844565 1.327411 0
M  V30 34 H 2.591371 4.148393 1.031876 0
M  V30 35 H 3.682201 6.408622 1.157742 0
M  V30 36 H 7.386372 4.545962 2.197178 0
M  V30 37 H 6.286954 2.414580 2.060309 0
M  V30 38 H 0.095753 1.034301 0.671559 0
M  V30 39 H -0.057621 -1.015552 -1.471928 0
M  V30 40 H -1.780579 -2.713056 -1.792927 0
M  V30 41 H -1.022925 -0.872247 2.725672 0
M  V30 42 H -3.145220 -2.681344 3.485682 0
M  V30 43 H -3.451897 -4.289334 -1.599682 0
M  V30 44 H -6.724690 -4.776432 0.523342 0
M  V30 45 H -7.771752 -7.116486 0.114855 0
M  V30 46 H -5.986347 -8.514058 -1.269897 0
M  V30 47 H -3.956144 -7.050364 -1.647061 0
M  V30 END ATOM
M  V30 BEGIN BOND
M  V30 1 2 1 2
M  V30 2 1 2 3
M  V30 3 1 3 4
M  V30 4 2 4 5
M  V30 5 1 4 6
M  V30 6 2 6 7
M  V30 7 1 7 8
M  V30 8 2 8 9
M  V30 9 1 9 10
M  V30 10 1 10 11
M  V30 11 1 10 12
M  V30 12 1 10 13
M  V30 13 1 9 14
M  V30 14 2 14 15
M  V30 15 1 2 16
M  V30 16 1 16 17
M  V30 17 2 17 18
M  V30 18 1 18 19
M  V30 19 2 19 20
M  V30 20 1 20 21
M  V30 21 2 21 22
M  V30 22 1 21 23
M  V30 23 1 23 24
M  V30 24 2 24 25
M  V30 25 1 24 26
M  V30 26 2 26 27
M  V30 27 1 27 28
M  V30 28 2 28 29
M  V30 29 1 29 30
M  V30 30 2 30 31
M  V30 31 1 31 32
M  V30 32 1 15 6
M  V30 33 1 22 17
M  V30 34 1 32 28
M  V30 35 1 26 20
M  V30 36 1 3 33
M  V30 37 1 7 34
M  V30 38 1 8 35
M  V30 39 1 14 36
M  V30 40 1 15 37
M  V30 41 1 16 38
M  V30 42 1 18 39
M  V30 43 1 19 40
M  V30 44 1 22 41
M  V30 45 1 23 42
M  V30 46 1 27 43
M  V30 47 1 29 44
M  V30 48 1 30 45
M  V30 49 1 31 46
M  V30 50 1 32 47
M  V30 END BOND
M  V30 END CTAB
M  END
>  <Dataset>  (20) 
ChEMBL_Kinases

>  <Ligand_Instance>  (20) 
nan

>  <PDB_ID>  (20) 
nan

>  <Standardized_SMILES>  (20) 
O=C(NC(=O)c1ccc(C(F)(F)F)cc1)Nc1ccc2c(c1)NC(=O)/C2=C\c1ccc[nH]1

>  <Name>  (20) 
nan

>  <Pocket>  (20) 
nan

>  <ATP_Site>  (20) 
nan

>  <Peripheral>  (20) 
nan

>  <Num_H_Atoms_ProtBoundConf>  (20) 
nan

>  <Num_Resolved_Atoms>  (20) 
nan

>  <Num_Not_Resolved_Atoms>  (20) 
nan

$$$$
CHEMBL3329660
     RDKit          3D

  0  0  0  0  0  0  0  0  0  0999 V3000
M  V30 BEGIN CTAB
M  V30 COUNTS 47 50 0 0 0
M  V30 BEGIN ATOM
M  V30 1 O -1.275263 -2.868201 0.019252 0
M  V30 2 C -1.417477 -1.651896 0.215719 0
M  V30 3 N -2.158084 -0.831122 1.188788 0
M  V30 4 C -2.879094 -1.737187 2.119205 0
M  V30 5 O -2.746017 -3.014115 1.957105 0
M  V30 6 C -3.789907 -1.549551 3.286718 0
M  V30 7 C -4.225755 -0.234424 3.521561 0
M  V30 8 C -5.048048 0.140238 4.552888 0
M  V30 9 C -5.459094 -0.862670 5.402178 0
M  V30 10 Cl -6.510108 -0.561821 6.771120 0
M  V30 11 C -5.029223 -2.143250 5.167377 0
M  V30 12 C -5.451961 -3.239663 6.075639 0
M  V30 13 F -5.021526 -3.013545 7.372180 0
M  V30 14 F -5.073164 -4.474800 5.627774 0
M  V30 15 F -6.847290 -3.211449 6.103177 0
M  V30 16 C -4.194403 -2.524411 4.118604 0
M  V30 17 N -0.869333 -0.500434 -0.486162 0
M  V30 18 C 0.028095 -0.208839 -1.578647 0
M  V30 19 C 1.373393 0.013982 -1.384142 0
M  V30 20 C 2.194870 0.281986 -2.469947 0
M  V30 21 C 1.572825 0.303110 -3.696450 0
M  V30 22 C 0.241852 0.091924 -3.986107 0
M  V30 23 C -0.527263 -0.172390 -2.843513 0
M  V30 24 N -0.075731 0.190019 -5.362563 0
M  V30 25 C 1.146939 0.492525 -6.054446 0
M  V30 26 O 1.220590 0.643006 -7.282557 0
M  V30 27 C 2.179745 0.566101 -5.020194 0
M  V30 28 C 3.427422 0.822501 -5.375474 0
M  V30 29 C 4.025897 1.085413 -6.668359 0
M  V30 30 C 3.835269 1.828006 -7.807175 0
M  V30 31 C 4.802364 1.608555 -8.740001 0
M  V30 32 C 5.659442 0.672948 -8.157224 0
M  V30 33 N 5.166537 0.390322 -6.934759 0
M  V30 34 H -2.621031 -0.318600 1.797040 0
M  V30 35 H -3.968843 0.655276 2.916737 0
M  V30 36 H -5.410625 1.106070 4.789028 0
M  V30 37 H -3.861972 -3.535120 3.939784 0
M  V30 38 H -1.029901 0.546516 -0.336928 0
M  V30 39 H 1.780621 -0.018742 -0.382796 0
M  V30 40 H 3.253820 0.464827 -2.373018 0
M  V30 41 H -1.587399 -0.346341 -3.013665 0
M  V30 42 H -1.026467 0.061011 -5.761465 0
M  V30 43 H 4.083048 0.832474 -4.479001 0
M  V30 44 H 2.998052 2.494515 -7.872071 0
M  V30 45 H 4.806864 2.122703 -9.715813 0
M  V30 46 H 6.516359 0.348034 -8.743042 0
M  V30 47 H 5.719138 -0.308157 -6.376945 0
M  V30 END ATOM
M  V30 BEGIN BOND
M  V30 1 2 1 2
M  V30 2 1 2 3
M  V30 3 1 3 4
M  V30 4 2 4 5
M  V30 5 1 4 6
M  V30 6 2 6 7
M  V30 7 1 7 8
M  V30 8 2 8 9
M  V30 9 1 9 10
M  V30 10 1 9 11
M  V30 11 1 11 12
M  V30 12 1 12 13
M  V30 13 1 12 14
M  V30 14 1 12 15
M  V30 15 2 11 16
M  V30 16 1 2 17
M  V30 17 1 17 18
M  V30 18 2 18 19
M  V30 19 1 19 20
M  V30 20 2 20 21
M  V30 21 1 21 22
M  V30 22 2 22 23
M  V30 23 1 22 24
M  V30 24 1 24 25
M  V30 25 2 25 26
M  V30 26 1 25 27
M  V30 27 2 27 28
M  V30 28 1 28 29
M  V30 29 2 29 30
M  V30 30 1 30 31
M  V30 31 2 31 32
M  V30 32 1 32 33
M  V30 33 1 16 6
M  V30 34 1 23 18
M  V30 35 1 33 29
M  V30 36 1 27 21
M  V30 37 1 3 34
M  V30 38 1 7 35
M  V30 39 1 8 36
M  V30 40 1 16 37
M  V30 41 1 17 38
M  V30 42 1 19 39
M  V30 43 1 20 40
M  V30 44 1 23 41
M  V30 45 1 24 42
M  V30 46 1 28 43
M  V30 47 1 30 44
M  V30 48 1 31 45
M  V30 49 1 32 46
M  V30 50 1 33 47
M  V30 END BOND
M  V30 END CTAB
M  END
>  <Dataset>  (21) 
ChEMBL_Kinases

>  <Ligand_Instance>  (21) 
nan

>  <PDB_ID>  (21) 
nan

>  <Standardized_SMILES>  (21) 
O=C(NC(=O)c1ccc(Cl)c(C(F)(F)F)c1)Nc1ccc2c(c1)NC(=O)/C2=C\c1ccc[nH]1

>  <Name>  (21) 
nan

>  <Pocket>  (21) 
nan

>  <ATP_Site>  (21) 
nan

>  <Peripheral>  (21) 
nan

>  <Num_H_Atoms_ProtBoundConf>  (21) 
nan

>  <Num_Resolved_Atoms>  (21) 
nan

>  <Num_Not_Resolved_Atoms>  (21) 
nan

$$$$
CHEMBL3329661
     RDKit          3D

  0  0  0  0  0  0  0  0  0  0999 V3000
M  V30 BEGIN CTAB
M  V30 COUNTS 47 50 0 0 0
M  V30 BEGIN ATOM
M  V30 1 C 3.191373 -1.924382 9.802656 0
M  V30 2 C 2.687829 -1.809210 8.407198 0
M  V30 3 C 2.248395 -2.870458 7.667725 0
M  V30 4 C 1.782872 -2.829939 6.369293 0
M  V30 5 C 1.776007 -1.598206 5.806577 0
M  V30 6 C 1.338586 -1.327181 4.414842 0
M  V30 7 O 1.103442 -2.482652 3.891308 0
M  V30 8 N 1.110965 -0.168569 3.511894 0
M  V30 9 C 0.696216 -0.559648 2.204696 0
M  V30 10 O 0.488438 -1.691999 1.728448 0
M  V30 11 N 0.601207 0.785129 1.646559 0
M  V30 12 C 0.159749 0.695952 0.267614 0
M  V30 13 C -1.235850 0.778601 0.182197 0
M  V30 14 C -1.794238 0.679075 -1.070991 0
M  V30 15 C -0.973888 0.506243 -2.163840 0
M  V30 16 C 0.423353 0.425903 -2.070583 0
M  V30 17 C 0.978693 0.525435 -0.818716 0
M  V30 18 N 0.979825 0.237715 -3.384615 0
M  V30 19 C -0.105312 0.196955 -4.339498 0
M  V30 20 O 0.207465 0.035709 -5.527449 0
M  V30 21 C -1.317412 0.365727 -3.570078 0
M  V30 22 C -2.480456 0.341307 -4.203589 0
M  V30 23 C -2.753562 0.200352 -5.621848 0
M  V30 24 C -3.745002 -0.738978 -5.942837 0
M  V30 25 C -3.929909 -0.764827 -7.311316 0
M  V30 26 C -3.043576 0.163088 -7.804363 0
M  V30 27 N -2.352128 0.730146 -6.796795 0
M  V30 28 C 2.218986 -0.491989 6.537752 0
M  V30 29 C 2.677052 -0.536408 7.817921 0
M  V30 30 H 4.087787 -1.233356 9.839453 0
M  V30 31 H 3.496066 -2.945124 10.043215 0
M  V30 32 H 2.490575 -1.547103 10.557395 0
M  V30 33 H 2.238874 -3.885102 8.091527 0
M  V30 34 H 1.444285 -3.690121 5.822801 0
M  V30 35 H 1.381403 0.086133 4.364310 0
M  V30 36 H 0.798404 1.713456 2.093658 0
M  V30 37 H -1.919280 0.913201 0.994588 0
M  V30 38 H -2.864538 0.736504 -1.218342 0
M  V30 39 H 2.042741 0.474513 -0.643734 0
M  V30 40 H 2.012644 0.155583 -3.502712 0
M  V30 41 H -3.319986 0.454089 -3.491585 0
M  V30 42 H -4.363149 -1.415361 -5.363147 0
M  V30 43 H -4.586234 -1.339971 -7.951758 0
M  V30 44 H -2.910502 0.413366 -8.862971 0
M  V30 45 H -1.635753 1.453842 -6.799788 0
M  V30 46 H 2.237005 0.529320 6.130564 0
M  V30 47 H 3.020624 0.308968 8.387963 0
M  V30 END ATOM
M  V30 BEGIN BOND
M  V30 1 1 1 2
M  V30 2 2 2 3
M  V30 3 1 3 4
M  V30 4 2 4 5
M  V30 5 1 5 6
M  V30 6 2 6 7
M  V30 7 1 6 8
M  V30 8 1 8 9
M  V30 9 2 9 10
M  V30 10 1 9 11
M  V30 11 1 11 12
M  V30 12 2 12 13
M  V30 13 1 13 14
M  V30 14 2 14 15
M  V30 15 1 15 16
M  V30 16 2 16 17
M  V30 17 1 16 18
M  V30 18 1 18 19
M  V30 19 2 19 20
M  V30 20 1 19 21
M  V30 21 2 21 22
M  V30 22 1 22 23
M  V30 23 2 23 24
M  V30 24 1 24 25
M  V30 25 2 25 26
M  V30 26 1 26 27
M  V30 27 1 5 28
M  V30 28 2 28 29
M  V30 29 1 29 2
M  V30 30 1 17 12
M  V30 31 1 27 23
M  V30 32 1 21 15
M  V30 33 1 1 30
M  V30 34 1 1 31
M  V30 35 1 1 32
M  V30 36 1 3 33
M  V30 37 1 4 34
M  V30 38 1 8 35
M  V30 39 1 11 36
M  V30 40 1 13 37
M  V30 41 1 14 38
M  V30 42 1 17 39
M  V30 43 1 18 40
M  V30 44 1 22 41
M  V30 45 1 24 42
M  V30 46 1 25 43
M  V30 47 1 26 44
M  V30 48 1 27 45
M  V30 49 1 28 46
M  V30 50 1 29 47
M  V30 END BOND
M  V30 END CTAB
M  END
>  <Dataset>  (22) 
ChEMBL_Kinases

>  <Ligand_Instance>  (22) 
nan

>  <PDB_ID>  (22) 
nan

>  <Standardized_SMILES>  (22) 
Cc1ccc(C(=O)NC(=O)Nc2ccc3c(c2)NC(=O)/C3=C\c2ccc[nH]2)cc1

>  <Name>  (22) 
nan

>  <Pocket>  (22) 
nan

>  <ATP_Site>  (22) 
nan

>  <Peripheral>  (22) 
nan

>  <Num_H_Atoms_ProtBoundConf>  (22) 
nan

>  <Num_Resolved_Atoms>  (22) 
nan

>  <Num_Not_Resolved_Atoms>  (22) 
nan

$$$$
CHEMBL3329662
     RDKit          3D

  0  0  0  0  0  0  0  0  0  0999 V3000
M  V30 BEGIN CTAB
M  V30 COUNTS 52 55 0 0 0
M  V30 BEGIN ATOM
M  V30 1 C 4.394205 -0.443033 5.929507 0
M  V30 2 O 5.397576 0.223297 5.197025 0
M  V30 3 C 5.043893 0.742443 3.954878 0
M  V30 4 C 6.104765 1.356663 3.341734 0
M  V30 5 C 6.056323 1.969369 2.086018 0
M  V30 6 O 6.974437 2.626006 1.294750 0
M  V30 7 C 8.292476 2.773536 1.718634 0
M  V30 8 C 4.811293 1.937037 1.424839 0
M  V30 9 C 3.775896 1.329130 2.038935 0
M  V30 10 C 2.395285 1.076232 1.535713 0
M  V30 11 O 2.705746 0.918164 0.298188 0
M  V30 12 N 1.017043 0.988327 2.086330 0
M  V30 13 C 0.171721 0.566491 0.974129 0
M  V30 14 O 0.451905 0.328899 -0.209873 0
M  V30 15 N -1.077413 0.524501 1.751832 0
M  V30 16 C -2.102479 0.054345 0.826683 0
M  V30 17 C -2.914383 0.760268 -0.017689 0
M  V30 18 C -3.762102 0.047838 -0.835175 0
M  V30 19 C -3.759226 -1.330472 -0.770886 0
M  V30 20 C -2.966953 -2.079063 0.058627 0
M  V30 21 C -2.129695 -1.347556 0.865614 0
M  V30 22 N -3.174545 -3.474002 -0.118529 0
M  V30 23 C -4.176594 -3.536747 -1.143626 0
M  V30 24 O -4.482790 -4.743456 -1.422431 0
M  V30 25 C -4.608734 -2.205378 -1.621876 0
M  V30 26 C -5.550047 -2.022063 -2.540370 0
M  V30 27 C -6.116159 -3.190417 -3.145688 0
M  V30 28 C -7.355567 -3.778253 -3.426566 0
M  V30 29 C -7.140171 -4.896017 -4.189978 0
M  V30 30 C -5.783878 -5.041878 -4.408515 0
M  V30 31 N -5.198744 -4.004968 -3.770401 0
M  V30 32 C 3.833675 0.716020 3.304810 0
M  V30 33 H 3.868936 -1.116125 5.186493 0
M  V30 34 H 4.789234 -1.026620 6.778756 0
M  V30 35 H 3.636981 0.270723 6.304944 0
M  V30 36 H 7.089678 1.426615 3.759092 0
M  V30 37 H 8.702945 3.799407 1.572850 0
M  V30 38 H 8.988308 2.058457 1.209385 0
M  V30 39 H 8.357712 2.568836 2.800954 0
M  V30 40 H 4.575491 2.358320 0.447652 0
M  V30 41 H 1.554371 1.256390 2.792986 0
M  V30 42 H -1.251095 0.771901 2.764978 0
M  V30 43 H -2.803613 1.818901 0.053627 0
M  V30 44 H -4.398020 0.617394 -1.493959 0
M  V30 45 H -1.494200 -1.942719 1.530208 0
M  V30 46 H -2.665511 -4.181925 0.419354 0
M  V30 47 H -5.735123 -0.966812 -2.679841 0
M  V30 48 H -8.209376 -3.250147 -2.996745 0
M  V30 49 H -8.074397 -5.390373 -4.439011 0
M  V30 50 H -5.609104 -5.921311 -5.009104 0
M  V30 51 H -4.146230 -4.103620 -3.953663 0
M  V30 52 H 3.060595 0.210900 3.868090 0
M  V30 END ATOM
M  V30 BEGIN BOND
M  V30 1 1 1 2
M  V30 2 1 2 3
M  V30 3 2 3 4
M  V30 4 1 4 5
M  V30 5 1 5 6
M  V30 6 1 6 7
M  V30 7 2 5 8
M  V30 8 1 8 9
M  V30 9 1 9 10
M  V30 10 2 10 11
M  V30 11 1 10 12
M  V30 12 1 12 13
M  V30 13 2 13 14
M  V30 14 1 13 15
M  V30 15 1 15 16
M  V30 16 2 16 17
M  V30 17 1 17 18
M  V30 18 2 18 19
M  V30 19 1 19 20
M  V30 20 2 20 21
M  V30 21 1 20 22
M  V30 22 1 22 23
M  V30 23 2 23 24
M  V30 24 1 23 25
M  V30 25 2 25 26
M  V30 26 1 26 27
M  V30 27 2 27 28
M  V30 28 1 28 29
M  V30 29 2 29 30
M  V30 30 1 30 31
M  V30 31 2 9 32
M  V30 32 1 32 3
M  V30 33 1 21 16
M  V30 34 1 31 27
M  V30 35 1 25 19
M  V30 36 1 1 33
M  V30 37 1 1 34
M  V30 38 1 1 35
M  V30 39 1 4 36
M  V30 40 1 7 37
M  V30 41 1 7 38
M  V30 42 1 7 39
M  V30 43 1 8 40
M  V30 44 1 12 41
M  V30 45 1 15 42
M  V30 46 1 17 43
M  V30 47 1 18 44
M  V30 48 1 21 45
M  V30 49 1 22 46
M  V30 50 1 26 47
M  V30 51 1 28 48
M  V30 52 1 29 49
M  V30 53 1 30 50
M  V30 54 1 31 51
M  V30 55 1 32 52
M  V30 END BOND
M  V30 END CTAB
M  END
>  <Dataset>  (23) 
ChEMBL_Kinases

>  <Ligand_Instance>  (23) 
nan

>  <PDB_ID>  (23) 
nan

>  <Standardized_SMILES>  (23) 
COc1cc(OC)cc(C(=O)NC(=O)Nc2ccc3c(c2)NC(=O)/C3=C\c2ccc[nH]2)c1

>  <Name>  (23) 
nan

>  <Pocket>  (23) 
nan

>  <ATP_Site>  (23) 
nan

>  <Peripheral>  (23) 
nan

>  <Num_H_Atoms_ProtBoundConf>  (23) 
nan

>  <Num_Resolved_Atoms>  (23) 
nan

>  <Num_Not_Resolved_Atoms>  (23) 
nan

$$$$
CHEMBL3329663
     RDKit          3D

  0  0  0  0  0  0  0  0  0  0999 V3000
M  V30 BEGIN CTAB
M  V30 COUNTS 52 55 0 0 0
M  V30 BEGIN ATOM
M  V30 1 C -8.075308 -4.515666 -3.917989 0
M  V30 2 N -7.586201 -3.302465 -4.509879 0
M  V30 3 C -8.307702 -2.689335 -5.630443 0
M  V30 4 C -6.407391 -2.653960 -4.055088 0
M  V30 5 C -5.645910 -3.151266 -3.026524 0
M  V30 6 C -4.520062 -2.469975 -2.631852 0
M  V30 7 C -4.096766 -1.271360 -3.231708 0
M  V30 8 C -2.852884 -0.666594 -2.698687 0
M  V30 9 O -2.720705 0.482497 -3.283314 0
M  V30 10 N -1.816098 -1.089382 -1.707575 0
M  V30 11 C -0.822744 -0.018199 -1.619382 0
M  V30 12 O -0.668841 1.095022 -2.146675 0
M  V30 13 N -0.008889 -0.727043 -0.637393 0
M  V30 14 C 1.195002 -0.144104 -0.092992 0
M  V30 15 C 0.933494 0.541104 1.077160 0
M  V30 16 C 1.963930 1.174229 1.738475 0
M  V30 17 C 3.220609 1.081380 1.176815 0
M  V30 18 C 3.452563 0.389330 0.005570 0
M  V30 19 C 2.438811 -0.252126 -0.674362 0
M  V30 20 N 4.851192 0.467055 -0.342381 0
M  V30 21 C 5.515827 1.244354 0.661274 0
M  V30 22 O 6.727318 1.463172 0.601545 0
M  V30 23 C 4.493200 1.628996 1.612018 0
M  V30 24 C 4.833784 2.333576 2.676219 0
M  V30 25 C 6.114697 2.875177 3.086234 0
M  V30 26 C 7.024696 3.631294 2.348304 0
M  V30 27 C 8.140545 3.936286 3.069435 0
M  V30 28 C 7.915161 3.350777 4.294801 0
M  V30 29 N 6.726786 2.739422 4.276720 0
M  V30 30 C -4.847305 -0.770434 -4.253232 0
M  V30 31 C -5.965182 -1.479983 -4.619555 0
M  V30 32 H -7.258912 -5.246332 -3.795541 0
M  V30 33 H -8.653814 -4.351197 -2.982716 0
M  V30 34 H -8.807298 -4.990904 -4.624526 0
M  V30 35 H -7.701039 -2.790062 -6.555806 0
M  V30 36 H -8.461941 -1.613343 -5.449684 0
M  V30 37 H -9.303836 -3.165900 -5.708419 0
M  V30 38 H -5.987306 -4.077121 -2.576014 0
M  V30 39 H -4.012795 -2.975723 -1.810644 0
M  V30 40 H -2.431712 -1.739775 -1.769893 0
M  V30 41 H -0.094306 -1.672703 -0.167919 0
M  V30 42 H -0.031299 0.636455 1.544843 0
M  V30 43 H 1.821052 1.723713 2.657182 0
M  V30 44 H 2.536002 -0.811052 -1.591508 0
M  V30 45 H 5.280205 0.021569 -1.191655 0
M  V30 46 H 3.981365 2.530344 3.351163 0
M  V30 47 H 6.935886 3.996759 1.319274 0
M  V30 48 H 9.046978 4.472119 2.899270 0
M  V30 49 H 8.544899 3.331891 5.199693 0
M  V30 50 H 6.282527 2.206978 5.065994 0
M  V30 51 H -4.520089 0.143293 -4.707057 0
M  V30 52 H -6.492509 -0.993100 -5.445684 0
M  V30 END ATOM
M  V30 BEGIN BOND
M  V30 1 1 1 2
M  V30 2 1 2 3
M  V30 3 1 2 4
M  V30 4 2 4 5
M  V30 5 1 5 6
M  V30 6 2 6 7
M  V30 7 1 7 8
M  V30 8 2 8 9
M  V30 9 1 8 10
M  V30 10 1 10 11
M  V30 11 2 11 12
M  V30 12 1 11 13
M  V30 13 1 13 14
M  V30 14 2 14 15
M  V30 15 1 15 16
M  V30 16 2 16 17
M  V30 17 1 17 18
M  V30 18 2 18 19
M  V30 19 1 18 20
M  V30 20 1 20 21
M  V30 21 2 21 22
M  V30 22 1 21 23
M  V30 23 2 23 24
M  V30 24 1 24 25
M  V30 25 2 25 26
M  V30 26 1 26 27
M  V30 27 2 27 28
M  V30 28 1 28 29
M  V30 29 1 7 30
M  V30 30 2 30 31
M  V30 31 1 31 4
M  V30 32 1 19 14
M  V30 33 1 29 25
M  V30 34 1 23 17
M  V30 35 1 1 32
M  V30 36 1 1 33
M  V30 37 1 1 34
M  V30 38 1 3 35
M  V30 39 1 3 36
M  V30 40 1 3 37
M  V30 41 1 5 38
M  V30 42 1 6 39
M  V30 43 1 10 40
M  V30 44 1 13 41
M  V30 45 1 15 42
M  V30 46 1 16 43
M  V30 47 1 19 44
M  V30 48 1 20 45
M  V30 49 1 24 46
M  V30 50 1 26 47
M  V30 51 1 27 48
M  V30 52 1 28 49
M  V30 53 1 29 50
M  V30 54 1 30 51
M  V30 55 1 31 52
M  V30 END BOND
M  V30 END CTAB
M  END
>  <Dataset>  (24) 
ChEMBL_Kinases

>  <Ligand_Instance>  (24) 
nan

>  <PDB_ID>  (24) 
nan

>  <Standardized_SMILES>  (24) 
CN(C)c1ccc(C(=O)NC(=O)Nc2ccc3c(c2)NC(=O)/C3=C\c2ccc[nH]2)cc1

>  <Name>  (24) 
nan

>  <Pocket>  (24) 
nan

>  <ATP_Site>  (24) 
nan

>  <Peripheral>  (24) 
nan

>  <Num_H_Atoms_ProtBoundConf>  (24) 
nan

>  <Num_Resolved_Atoms>  (24) 
nan

>  <Num_Not_Resolved_Atoms>  (24) 
nan

$$$$
CHEMBL3329675
     RDKit          3D

  0  0  0  0  0  0  0  0  0  0999 V3000
M  V30 BEGIN CTAB
M  V30 COUNTS 63 66 0 0 0
M  V30 BEGIN ATOM
M  V30 1 C 9.919311 2.862313 0.955252 0
M  V30 2 O 9.217745 3.902786 0.356767 0
M  V30 3 C 7.869290 4.110356 0.519552 0
M  V30 4 C 7.152432 5.144241 -0.080640 0
M  V30 5 C 5.741993 5.315240 0.130237 0
M  V30 6 C 5.311636 4.331775 0.973417 0
M  V30 7 C 3.871835 4.782957 1.058756 0
M  V30 8 O 2.793299 5.462821 1.017513 0
M  V30 9 N 2.610835 4.047963 1.481198 0
M  V30 10 C 1.633319 3.342523 1.855264 0
M  V30 11 O 1.594235 3.848281 2.945455 0
M  V30 12 N 0.863617 2.413351 1.404316 0
M  V30 13 C -0.042181 1.461055 1.154542 0
M  V30 14 C 0.287882 0.199102 1.404980 0
M  V30 15 C -0.702622 -0.731521 1.241213 0
M  V30 16 C -1.906218 -0.238113 0.837843 0
M  V30 17 C -2.295892 1.110551 0.559014 0
M  V30 18 C -1.261565 2.046839 0.736116 0
M  V30 19 F -1.487576 3.354783 0.518342 0
M  V30 20 C -2.966552 -1.272588 0.662135 0
M  V30 21 C -4.224311 -1.284484 0.328298 0
M  V30 22 C -4.884734 -2.571015 0.262973 0
M  V30 23 N -5.880640 -3.237707 0.865055 0
M  V30 24 C -6.101627 -4.413231 0.277802 0
M  V30 25 C -7.217115 -5.169578 0.939610 0
M  V30 26 C -5.229574 -4.582063 -0.779247 0
M  V30 27 C -5.377443 -5.839945 -1.526581 0
M  V30 28 C -4.800281 -7.055826 -0.905435 0
M  V30 29 C -3.346325 -7.040503 -0.671695 0
M  V30 30 O -2.590326 -6.607295 0.218346 0
M  V30 31 O -2.155926 -7.454189 -1.242498 0
M  V30 32 C -4.461965 -3.422084 -0.789279 0
M  V30 33 C -3.424590 -3.296857 -1.872819 0
M  V30 34 C -2.176602 -2.462064 1.040341 0
M  V30 35 O -2.494730 -3.677639 1.107799 0
M  V30 36 N -0.855913 -2.128203 1.375732 0
M  V30 37 C 5.846878 3.269634 1.634968 0
M  V30 38 F 5.012121 2.531598 2.386120 0
M  V30 39 C 7.172129 3.248453 1.327921 0
M  V30 40 H 10.957734 2.895555 0.539370 0
M  V30 41 H 10.009315 2.945913 2.073754 0
M  V30 42 H 9.454683 1.892362 0.762476 0
M  V30 43 H 7.814803 5.758886 -0.707928 0
M  V30 44 H 5.415866 6.152259 -0.422930 0
M  V30 45 H 3.281072 4.533054 1.227619 0
M  V30 46 H 1.318858 2.362393 0.411773 0
M  V30 47 H 1.253833 -0.111129 1.713616 0
M  V30 48 H -3.270328 1.452661 0.242813 0
M  V30 49 H -4.646391 -0.313874 0.131076 0
M  V30 50 H -6.276852 -2.686676 1.676429 0
M  V30 51 H -7.011146 -5.320796 2.037199 0
M  V30 52 H -7.398615 -6.150070 0.496052 0
M  V30 53 H -8.149801 -4.586174 0.882806 0
M  V30 54 H -4.922283 -5.746047 -2.557227 0
M  V30 55 H -6.450189 -6.076344 -1.747194 0
M  V30 56 H -5.043101 -7.933925 -1.581069 0
M  V30 57 H -5.360633 -7.302659 0.032673 0
M  V30 58 H -1.747160 -6.937226 -1.997528 0
M  V30 59 H -3.793186 -3.736680 -2.797682 0
M  V30 60 H -3.241486 -2.211483 -2.045350 0
M  V30 61 H -2.470159 -3.777072 -1.597369 0
M  V30 62 H -0.033313 -2.721497 1.687210 0
M  V30 63 H 7.639161 2.384285 1.851023 0
M  V30 END ATOM
M  V30 BEGIN BOND
M  V30 1 1 1 2
M  V30 2 1 2 3
M  V30 3 2 3 4
M  V30 4 1 4 5
M  V30 5 2 5 6
M  V30 6 1 6 7
M  V30 7 2 7 8
M  V30 8 1 7 9
M  V30 9 1 9 10
M  V30 10 2 10 11
M  V30 11 1 10 12
M  V30 12 1 12 13
M  V30 13 2 13 14
M  V30 14 1 14 15
M  V30 15 2 15 16
M  V30 16 1 16 17
M  V30 17 2 17 18
M  V30 18 1 18 19
M  V30 19 1 16 20
M  V30 20 2 20 21
M  V30 21 1 21 22
M  V30 22 1 22 23
M  V30 23 1 23 24
M  V30 24 1 24 25
M  V30 25 2 24 26
M  V30 26 1 26 27
M  V30 27 1 27 28
M  V30 28 1 28 29
M  V30 29 2 29 30
M  V30 30 1 29 31
M  V30 31 1 26 32
M  V30 32 1 32 33
M  V30 33 1 20 34
M  V30 34 2 34 35
M  V30 35 1 34 36
M  V30 36 1 6 37
M  V30 37 1 37 38
M  V30 38 2 37 39
M  V30 39 1 39 3
M  V30 40 1 18 13
M  V30 41 2 32 22
M  V30 42 1 36 15
M  V30 43 1 1 40
M  V30 44 1 1 41
M  V30 45 1 1 42
M  V30 46 1 4 43
M  V30 47 1 5 44
M  V30 48 1 9 45
M  V30 49 1 12 46
M  V30 50 1 14 47
M  V30 51 1 17 48
M  V30 52 1 21 49
M  V30 53 1 23 50
M  V30 54 1 25 51
M  V30 55 1 25 52
M  V30 56 1 25 53
M  V30 57 1 27 54
M  V30 58 1 27 55
M  V30 59 1 28 56
M  V30 60 1 28 57
M  V30 61 1 31 58
M  V30 62 1 33 59
M  V30 63 1 33 60
M  V30 64 1 33 61
M  V30 65 1 36 62
M  V30 66 1 39 63
M  V30 END BOND
M  V30 END CTAB
M  END
>  <Dataset>  (25) 
ChEMBL_Kinases

>  <Ligand_Instance>  (25) 
nan

>  <PDB_ID>  (25) 
nan

>  <Standardized_SMILES>  (25) 
COc1ccc(C(=O)NC(=O)Nc2cc3c(cc2F)/C(=C/c2[nH]c(C)c(CCC(=O)O)c2C)C(=O)N3)c(F)c1

>  <Name>  (25) 
nan

>  <Pocket>  (25) 
nan

>  <ATP_Site>  (25) 
nan

>  <Peripheral>  (25) 
nan

>  <Num_H_Atoms_ProtBoundConf>  (25) 
nan

>  <Num_Resolved_Atoms>  (25) 
nan

>  <Num_Not_Resolved_Atoms>  (25) 
nan

$$$$
CHEMBL3329665
     RDKit          3D

  0  0  0  0  0  0  0  0  0  0999 V3000
M  V30 BEGIN CTAB
M  V30 COUNTS 54 57 0 0 0
M  V30 BEGIN ATOM
M  V30 1 C 6.750990 -6.732412 3.227573 0
M  V30 2 O 7.266880 -5.467278 3.097903 0
M  V30 3 C 6.686151 -4.277946 2.781951 0
M  V30 4 C 5.309920 -4.444362 2.565225 0
M  V30 5 C 4.603506 -3.286810 2.227410 0
M  V30 6 C 5.393437 -2.140515 2.158723 0
M  V30 7 C 4.533001 -1.018019 1.810083 0
M  V30 8 O 5.131301 0.025631 1.594824 0
M  V30 9 N 3.963211 0.285636 1.426682 0
M  V30 10 C 2.723673 0.696701 0.952914 0
M  V30 11 O 2.194290 -0.438535 0.991739 0
M  V30 12 N 2.296484 1.966678 0.582081 0
M  V30 13 C 0.950095 1.749434 0.195782 0
M  V30 14 C 0.081639 2.010084 1.240330 0
M  V30 15 C -1.258755 1.830153 1.002099 0
M  V30 16 C -1.615992 1.403969 -0.258362 0
M  V30 17 C -0.729191 1.154055 -1.278410 0
M  V30 18 C 0.616883 1.330209 -1.059187 0
M  V30 19 N -1.416367 0.712700 -2.442900 0
M  V30 20 C -2.785341 0.685146 -2.149094 0
M  V30 21 O -3.738755 0.366029 -2.882459 0
M  V30 22 C -2.958207 1.115821 -0.762278 0
M  V30 23 C -4.078398 1.273115 -0.112519 0
M  V30 24 C -5.413616 0.988754 -0.581781 0
M  V30 25 N -6.538765 1.721611 -0.740775 0
M  V30 26 C -7.586175 1.017222 -1.143171 0
M  V30 27 C -8.963904 1.517933 -1.408710 0
M  V30 28 C -7.154002 -0.290602 -1.266655 0
M  V30 29 C -5.824270 -0.309945 -0.924304 0
M  V30 30 C -5.126099 -1.644365 -0.930795 0
M  V30 31 C 6.731210 -1.979846 2.373874 0
M  V30 32 C 7.402594 -3.129052 2.703115 0
M  V30 33 H 5.994004 -6.969074 2.409116 0
M  V30 34 H 7.580330 -7.457941 2.966324 0
M  V30 35 H 6.313220 -7.036440 4.181579 0
M  V30 36 H 4.769630 -5.365443 2.651059 0
M  V30 37 H 3.559351 -3.357586 2.045866 0
M  V30 38 H 4.062006 -0.536989 1.621468 0
M  V30 39 H 3.228291 2.375913 0.828904 0
M  V30 40 H 0.333837 2.344838 2.231153 0
M  V30 41 H -2.018340 2.013745 1.767385 0
M  V30 42 H 1.382146 1.163588 -1.790173 0
M  V30 43 H -1.006375 0.454838 -3.352637 0
M  V30 44 H -4.146905 1.656308 0.905205 0
M  V30 45 H -6.501731 2.762811 -0.535288 0
M  V30 46 H -9.338679 2.133199 -0.557229 0
M  V30 47 H -9.649781 0.626643 -1.475905 0
M  V30 48 H -9.031416 2.072991 -2.350842 0
M  V30 49 H -7.812398 -1.080510 -1.587048 0
M  V30 50 H -5.572260 -2.288790 -0.142017 0
M  V30 51 H -4.080439 -1.463049 -0.689074 0
M  V30 52 H -5.286193 -2.140617 -1.879753 0
M  V30 53 H 7.205526 -1.017883 2.287308 0
M  V30 54 H 8.459708 -3.105198 2.882389 0
M  V30 END ATOM
M  V30 BEGIN BOND
M  V30 1 1 1 2
M  V30 2 1 2 3
M  V30 3 2 3 4
M  V30 4 1 4 5
M  V30 5 2 5 6
M  V30 6 1 6 7
M  V30 7 2 7 8
M  V30 8 1 7 9
M  V30 9 1 9 10
M  V30 10 2 10 11
M  V30 11 1 10 12
M  V30 12 1 12 13
M  V30 13 2 13 14
M  V30 14 1 14 15
M  V30 15 2 15 16
M  V30 16 1 16 17
M  V30 17 2 17 18
M  V30 18 1 17 19
M  V30 19 1 19 20
M  V30 20 2 20 21
M  V30 21 1 20 22
M  V30 22 2 22 23
M  V30 23 1 23 24
M  V30 24 1 24 25
M  V30 25 1 25 26
M  V30 26 1 26 27
M  V30 27 2 26 28
M  V30 28 1 28 29
M  V30 29 1 29 30
M  V30 30 1 6 31
M  V30 31 2 31 32
M  V30 32 1 32 3
M  V30 33 1 18 13
M  V30 34 2 29 24
M  V30 35 1 22 16
M  V30 36 1 1 33
M  V30 37 1 1 34
M  V30 38 1 1 35
M  V30 39 1 4 36
M  V30 40 1 5 37
M  V30 41 1 9 38
M  V30 42 1 12 39
M  V30 43 1 14 40
M  V30 44 1 15 41
M  V30 45 1 18 42
M  V30 46 1 19 43
M  V30 47 1 23 44
M  V30 48 1 25 45
M  V30 49 1 27 46
M  V30 50 1 27 47
M  V30 51 1 27 48
M  V30 52 1 28 49
M  V30 53 1 30 50
M  V30 54 1 30 51
M  V30 55 1 30 52
M  V30 56 1 31 53
M  V30 57 1 32 54
M  V30 END BOND
M  V30 END CTAB
M  END
>  <Dataset>  (26) 
ChEMBL_Kinases

>  <Ligand_Instance>  (26) 
nan

>  <PDB_ID>  (26) 
nan

>  <Standardized_SMILES>  (26) 
COc1ccc(C(=O)NC(=O)Nc2ccc3c(c2)NC(=O)/C3=C\c2[nH]c(C)cc2C)cc1

>  <Name>  (26) 
nan

>  <Pocket>  (26) 
nan

>  <ATP_Site>  (26) 
nan

>  <Peripheral>  (26) 
nan

>  <Num_H_Atoms_ProtBoundConf>  (26) 
nan

>  <Num_Resolved_Atoms>  (26) 
nan

>  <Num_Not_Resolved_Atoms>  (26) 
nan

$$$$
CHEMBL3329668
     RDKit          3D

  0  0  0  0  0  0  0  0  0  0999 V3000
M  V30 BEGIN CTAB
M  V30 COUNTS 60 63 0 0 0
M  V30 BEGIN ATOM
M  V30 1 C 4.351070 5.605029 8.515299 0
M  V30 2 O 4.406522 4.814592 7.354800 0
M  V30 3 C 3.868313 3.532494 7.230805 0
M  V30 4 C 4.083477 3.024050 5.948155 0
M  V30 5 C 3.614202 1.770514 5.666791 0
M  V30 6 C 2.970584 1.154103 6.710598 0
M  V30 7 C 2.336285 -0.213845 6.463566 0
M  V30 8 O 1.976134 -1.332645 6.859353 0
M  V30 9 N 1.740663 -0.806846 5.188668 0
M  V30 10 C 1.237913 -1.283023 4.009952 0
M  V30 11 O 2.359414 -1.868035 4.235245 0
M  V30 12 N 0.003341 -0.710891 3.656459 0
M  V30 13 C -0.366969 -1.240320 2.394633 0
M  V30 14 C 0.011512 -0.359217 1.400184 0
M  V30 15 C -0.239052 -0.657255 0.085111 0
M  V30 16 C -0.878067 -1.862909 -0.177600 0
M  V30 17 C -1.243077 -2.721828 0.838345 0
M  V30 18 C -0.998721 -2.437379 2.164590 0
M  V30 19 N -1.885192 -3.869893 0.242676 0
M  V30 20 C -1.933976 -3.741617 -1.177636 0
M  V30 21 O -2.402917 -4.505885 -2.033766 0
M  V30 22 C -1.298224 -2.477338 -1.425149 0
M  V30 23 C -1.149525 -1.940722 -2.613042 0
M  V30 24 C -1.533804 -2.471708 -3.916317 0
M  V30 25 N -1.340704 -3.641059 -4.543291 0
M  V30 26 C -1.943999 -3.620248 -5.743884 0
M  V30 27 C -1.932094 -4.727720 -6.705724 0
M  V30 28 C -2.564477 -2.424278 -5.955062 0
M  V30 29 C -3.364270 -1.816422 -7.033359 0
M  V30 30 C -3.803997 -2.750090 -8.070266 0
M  V30 31 O -4.468471 -3.805868 -8.003004 0
M  V30 32 O -3.748268 -2.957866 -9.439522 0
M  V30 33 C -2.308264 -1.686626 -4.796058 0
M  V30 34 C -2.758852 -0.293265 -4.481014 0
M  V30 35 C 2.720073 1.579558 7.991902 0
M  V30 36 C 3.213331 2.846767 8.227523 0
M  V30 37 H 3.291782 5.490036 8.910072 0
M  V30 38 H 4.423451 6.690682 8.280349 0
M  V30 39 H 5.010656 5.308252 9.342746 0
M  V30 40 H 4.600414 3.537630 5.149445 0
M  V30 41 H 3.691001 1.212718 4.722759 0
M  V30 42 H 2.075452 -0.504158 5.952507 0
M  V30 43 H -0.461035 -0.038895 4.285641 0
M  V30 44 H 0.511631 0.596047 1.504534 0
M  V30 45 H 0.013546 -0.033245 -0.758058 0
M  V30 46 H -1.252605 -3.052054 3.005239 0
M  V30 47 H -2.257279 -4.676998 0.779733 0
M  V30 48 H -0.665303 -0.952924 -2.672841 0
M  V30 49 H -0.781703 -4.447381 -4.138660 0
M  V30 50 H -1.804743 -4.392452 -7.761739 0
M  V30 51 H -1.019612 -5.370893 -6.525343 0
M  V30 52 H -2.771730 -5.419548 -6.632080 0
M  V30 53 H -4.270048 -1.364083 -6.526938 0
M  V30 54 H -2.764368 -0.976388 -7.465603 0
M  V30 55 H -2.992709 -3.448189 -9.883652 0
M  V30 56 H -3.549246 -0.319064 -3.716595 0
M  V30 57 H -3.199295 0.138736 -5.387393 0
M  V30 58 H -1.876732 0.283924 -4.200895 0
M  V30 59 H 2.192556 0.978207 8.711713 0
M  V30 60 H 3.082679 3.312765 9.219967 0
M  V30 END ATOM
M  V30 BEGIN BOND
M  V30 1 1 1 2
M  V30 2 1 2 3
M  V30 3 2 3 4
M  V30 4 1 4 5
M  V30 5 2 5 6
M  V30 6 1 6 7
M  V30 7 2 7 8
M  V30 8 1 7 9
M  V30 9 1 9 10
M  V30 10 2 10 11
M  V30 11 1 10 12
M  V30 12 1 12 13
M  V30 13 2 13 14
M  V30 14 1 14 15
M  V30 15 2 15 16
M  V30 16 1 16 17
M  V30 17 2 17 18
M  V30 18 1 17 19
M  V30 19 1 19 20
M  V30 20 2 20 21
M  V30 21 1 20 22
M  V30 22 2 22 23
M  V30 23 1 23 24
M  V30 24 1 24 25
M  V30 25 1 25 26
M  V30 26 1 26 27
M  V30 27 2 26 28
M  V30 28 1 28 29
M  V30 29 1 29 30
M  V30 30 2 30 31
M  V30 31 1 30 32
M  V30 32 1 28 33
M  V30 33 1 33 34
M  V30 34 1 6 35
M  V30 35 2 35 36
M  V30 36 1 36 3
M  V30 37 1 18 13
M  V30 38 2 33 24
M  V30 39 1 22 16
M  V30 40 1 1 37
M  V30 41 1 1 38
M  V30 42 1 1 39
M  V30 43 1 4 40
M  V30 44 1 5 41
M  V30 45 1 9 42
M  V30 46 1 12 43
M  V30 47 1 14 44
M  V30 48 1 15 45
M  V30 49 1 18 46
M  V30 50 1 19 47
M  V30 51 1 23 48
M  V30 52 1 25 49
M  V30 53 1 27 50
M  V30 54 1 27 51
M  V30 55 1 27 52
M  V30 56 1 29 53
M  V30 57 1 29 54
M  V30 58 1 32 55
M  V30 59 1 34 56
M  V30 60 1 34 57
M  V30 61 1 34 58
M  V30 62 1 35 59
M  V30 63 1 36 60
M  V30 END BOND
M  V30 END CTAB
M  END
>  <Dataset>  (27) 
ChEMBL_Kinases

>  <Ligand_Instance>  (27) 
nan

>  <PDB_ID>  (27) 
nan

>  <Standardized_SMILES>  (27) 
COc1ccc(C(=O)NC(=O)Nc2ccc3c(c2)NC(=O)/C3=C\c2[nH]c(C)c(CC(=O)O)c2C)cc1

>  <Name>  (27) 
nan

>  <Pocket>  (27) 
nan

>  <ATP_Site>  (27) 
nan

>  <Peripheral>  (27) 
nan

>  <Num_H_Atoms_ProtBoundConf>  (27) 
nan

>  <Num_Resolved_Atoms>  (27) 
nan

>  <Num_Not_Resolved_Atoms>  (27) 
nan

$$$$
CHEMBL3329669
     RDKit          3D

  0  0  0  0  0  0  0  0  0  0999 V3000
M  V30 BEGIN CTAB
M  V30 COUNTS 63 66 0 0 0
M  V30 BEGIN ATOM
M  V30 1 C 6.687699 3.986120 9.821417 0
M  V30 2 O 7.125705 2.924347 8.995526 0
M  V30 3 C 6.381602 2.477261 7.912668 0
M  V30 4 C 5.141191 3.003444 7.512137 0
M  V30 5 C 4.511663 2.457073 6.411178 0
M  V30 6 C 5.051575 1.416076 5.688616 0
M  V30 7 C 4.357549 0.849225 4.509288 0
M  V30 8 O 4.897426 -0.128831 3.888488 0
M  V30 9 N 3.091494 1.463584 4.143248 0
M  V30 10 C 2.499239 0.776201 3.036968 0
M  V30 11 O 3.044079 -0.184487 2.417073 0
M  V30 12 N 1.186722 1.117637 2.509296 0
M  V30 13 C 0.327197 0.634047 1.456805 0
M  V30 14 C -0.458009 -0.387822 2.007633 0
M  V30 15 C -1.393556 -1.081731 1.236271 0
M  V30 16 C -1.504686 -0.712542 -0.087984 0
M  V30 17 C -0.733786 0.292529 -0.631464 0
M  V30 18 C 0.186351 0.971932 0.136148 0
M  V30 19 N -1.015834 0.498210 -2.007369 0
M  V30 20 C -2.030481 -0.425315 -2.384768 0
M  V30 21 O -2.513927 -0.506231 -3.531780 0
M  V30 22 C -2.328977 -1.174162 -1.191777 0
M  V30 23 C -3.267418 -2.097331 -1.177547 0
M  V30 24 C -4.108717 -2.596803 -2.254074 0
M  V30 25 N -5.409573 -2.699762 -2.518874 0
M  V30 26 C -5.632140 -3.348256 -3.674132 0
M  V30 27 C -7.048786 -3.550044 -4.118288 0
M  V30 28 C -4.408851 -3.697977 -4.210438 0
M  V30 29 C -4.358243 -4.443632 -5.502007 0
M  V30 30 C -4.648018 -3.570913 -6.681016 0
M  V30 31 C -3.725959 -2.448713 -6.837139 0
M  V30 32 O -3.880167 -1.362533 -6.188699 0
M  V30 33 O -2.628354 -2.471681 -7.688688 0
M  V30 34 C -3.434521 -3.225666 -3.316198 0
M  V30 35 C -2.036415 -3.564946 -3.755945 0
M  V30 36 C 6.267115 0.877368 6.056662 0
M  V30 37 C 6.890082 1.432067 7.161559 0
M  V30 38 H 7.083369 3.879132 10.852238 0
M  V30 39 H 6.988834 4.983825 9.410051 0
M  V30 40 H 5.585127 4.034874 9.939565 0
M  V30 41 H 4.744154 3.821737 8.101828 0
M  V30 42 H 3.539596 2.876212 6.106476 0
M  V30 43 H 3.435151 0.678708 3.578639 0
M  V30 44 H 0.883887 1.914022 3.108575 0
M  V30 45 H -0.463030 -0.772674 3.028502 0
M  V30 46 H -2.029696 -1.882857 1.604269 0
M  V30 47 H 0.861309 1.769646 -0.129084 0
M  V30 48 H -0.581482 1.184520 -2.645409 0
M  V30 49 H -3.471789 -2.585890 -0.208969 0
M  V30 50 H -6.084020 -2.280713 -1.824210 0
M  V30 51 H -7.709304 -3.768836 -3.252985 0
M  V30 52 H -7.091133 -4.430463 -4.780113 0
M  V30 53 H -7.382009 -2.671929 -4.684303 0
M  V30 54 H -4.972425 -5.346632 -5.506762 0
M  V30 55 H -3.288826 -4.794588 -5.638112 0
M  V30 56 H -4.713050 -4.209412 -7.589194 0
M  V30 57 H -5.681487 -3.153365 -6.556054 0
M  V30 58 H -1.823462 -1.882676 -7.453878 0
M  V30 59 H -1.357644 -3.255707 -2.932158 0
M  V30 60 H -1.827562 -2.954024 -4.648829 0
M  V30 61 H -1.921079 -4.643801 -3.923895 0
M  V30 62 H 6.696334 0.065309 5.493194 0
M  V30 63 H 7.844502 0.995272 7.428118 0
M  V30 END ATOM
M  V30 BEGIN BOND
M  V30 1 1 1 2
M  V30 2 1 2 3
M  V30 3 2 3 4
M  V30 4 1 4 5
M  V30 5 2 5 6
M  V30 6 1 6 7
M  V30 7 2 7 8
M  V30 8 1 7 9
M  V30 9 1 9 10
M  V30 10 2 10 11
M  V30 11 1 10 12
M  V30 12 1 12 13
M  V30 13 2 13 14
M  V30 14 1 14 15
M  V30 15 2 15 16
M  V30 16 1 16 17
M  V30 17 2 17 18
M  V30 18 1 17 19
M  V30 19 1 19 20
M  V30 20 2 20 21
M  V30 21 1 20 22
M  V30 22 2 22 23
M  V30 23 1 23 24
M  V30 24 1 24 25
M  V30 25 1 25 26
M  V30 26 1 26 27
M  V30 27 2 26 28
M  V30 28 1 28 29
M  V30 29 1 29 30
M  V30 30 1 30 31
M  V30 31 2 31 32
M  V30 32 1 31 33
M  V30 33 1 28 34
M  V30 34 1 34 35
M  V30 35 1 6 36
M  V30 36 2 36 37
M  V30 37 1 37 3
M  V30 38 1 18 13
M  V30 39 2 34 24
M  V30 40 1 22 16
M  V30 41 1 1 38
M  V30 42 1 1 39
M  V30 43 1 1 40
M  V30 44 1 4 41
M  V30 45 1 5 42
M  V30 46 1 9 43
M  V30 47 1 12 44
M  V30 48 1 14 45
M  V30 49 1 15 46
M  V30 50 1 18 47
M  V30 51 1 19 48
M  V30 52 1 23 49
M  V30 53 1 25 50
M  V30 54 1 27 51
M  V30 55 1 27 52
M  V30 56 1 27 53
M  V30 57 1 29 54
M  V30 58 1 29 55
M  V30 59 1 30 56
M  V30 60 1 30 57
M  V30 61 1 33 58
M  V30 62 1 35 59
M  V30 63 1 35 60
M  V30 64 1 35 61
M  V30 65 1 36 62
M  V30 66 1 37 63
M  V30 END BOND
M  V30 END CTAB
M  END
>  <Dataset>  (28) 
ChEMBL_Kinases

>  <Ligand_Instance>  (28) 
nan

>  <PDB_ID>  (28) 
nan

>  <Standardized_SMILES>  (28) 
COc1ccc(C(=O)NC(=O)Nc2ccc3c(c2)NC(=O)/C3=C\c2[nH]c(C)c(CCC(=O)O)c2C)cc1

>  <Name>  (28) 
nan

>  <Pocket>  (28) 
nan

>  <ATP_Site>  (28) 
nan

>  <Peripheral>  (28) 
nan

>  <Num_H_Atoms_ProtBoundConf>  (28) 
nan

>  <Num_Resolved_Atoms>  (28) 
nan

>  <Num_Not_Resolved_Atoms>  (28) 
nan

$$$$
CHEMBL3329670
     RDKit          3D

  0  0  0  0  0  0  0  0  0  0999 V3000
M  V30 BEGIN CTAB
M  V30 COUNTS 57 60 0 0 0
M  V30 BEGIN ATOM
M  V30 1 C 9.184397 -2.774908 2.364500 0
M  V30 2 O 9.159198 -1.574267 1.642538 0
M  V30 3 C 8.017703 -0.902900 1.259209 0
M  V30 4 C 6.769520 -1.359819 1.555270 0
M  V30 5 C 5.715640 -0.551166 1.085870 0
M  V30 6 C 6.090710 0.592089 0.393536 0
M  V30 7 C 4.936487 1.296434 -0.016311 0
M  V30 8 O 5.086348 2.347604 -0.629925 0
M  V30 9 N 4.006100 2.220802 -0.562854 0
M  V30 10 C 2.567742 2.097830 -0.579549 0
M  V30 11 O 2.388500 0.947670 -0.026183 0
M  V30 12 N 1.366921 2.819421 -0.996937 0
M  V30 13 C 0.214622 1.961178 -0.697027 0
M  V30 14 C -0.143615 1.205215 -1.776651 0
M  V30 15 C -1.203368 0.340575 -1.616270 0
M  V30 16 C -1.778400 0.352088 -0.351398 0
M  V30 17 C -1.375711 1.138846 0.707168 0
M  V30 18 C -0.322786 2.007366 0.567610 0
M  V30 19 F 0.111186 2.794241 1.548177 0
M  V30 20 C -2.860091 -0.649280 -0.458359 0
M  V30 21 C -3.684103 -0.963531 0.501975 0
M  V30 22 C -4.763562 -1.935268 0.475037 0
M  V30 23 N -4.920180 -3.213452 0.080036 0
M  V30 24 C -6.160769 -3.660322 0.242831 0
M  V30 25 C -6.708627 -4.997330 -0.078544 0
M  V30 26 C -6.879057 -2.615914 0.782061 0
M  V30 27 C -8.307642 -2.624362 1.140731 0
M  V30 28 O -9.058658 -2.263847 0.200409 0
M  V30 29 O -8.976722 -2.955132 2.316937 0
M  V30 30 C -6.023392 -1.528351 0.935890 0
M  V30 31 C -6.468001 -0.208228 1.500422 0
M  V30 32 C -2.883942 -1.215654 -1.793978 0
M  V30 33 O -3.660373 -2.071777 -2.222856 0
M  V30 34 N -1.836349 -0.576561 -2.493353 0
M  V30 35 C 7.346716 1.048392 0.099193 0
M  V30 36 C 8.361169 0.241297 0.565980 0
M  V30 37 H 10.045302 -3.373608 1.978039 0
M  V30 38 H 8.285870 -3.385733 2.261538 0
M  V30 39 H 9.396442 -2.609679 3.449687 0
M  V30 40 H 6.606159 -2.275065 2.106537 0
M  V30 41 H 4.733118 -0.923398 1.321401 0
M  V30 42 H 3.648516 1.378979 -0.143928 0
M  V30 43 H 2.110337 3.482279 -1.231168 0
M  V30 44 H 0.330683 1.227347 -2.737216 0
M  V30 45 H -1.910650 1.051779 1.645977 0
M  V30 46 H -3.559339 -0.430966 1.463850 0
M  V30 47 H -4.152625 -3.774964 -0.288075 0
M  V30 48 H -7.638181 -4.943284 -0.679139 0
M  V30 49 H -5.969463 -5.598836 -0.660734 0
M  V30 50 H -6.918257 -5.588043 0.845256 0
M  V30 51 H -9.750137 -3.635205 2.302462 0
M  V30 52 H -7.438849 -0.376541 2.023833 0
M  V30 53 H -5.712862 0.157497 2.236454 0
M  V30 54 H -6.604398 0.549101 0.704581 0
M  V30 55 H -1.570326 -0.742922 -3.471113 0
M  V30 56 H 7.445742 1.952467 -0.449952 0
M  V30 57 H 9.377319 0.576065 0.347613 0
M  V30 END ATOM
M  V30 BEGIN BOND
M  V30 1 1 1 2
M  V30 2 1 2 3
M  V30 3 2 3 4
M  V30 4 1 4 5
M  V30 5 2 5 6
M  V30 6 1 6 7
M  V30 7 2 7 8
M  V30 8 1 7 9
M  V30 9 1 9 10
M  V30 10 2 10 11
M  V30 11 1 10 12
M  V30 12 1 12 13
M  V30 13 2 13 14
M  V30 14 1 14 15
M  V30 15 2 15 16
M  V30 16 1 16 17
M  V30 17 2 17 18
M  V30 18 1 18 19
M  V30 19 1 16 20
M  V30 20 2 20 21
M  V30 21 1 21 22
M  V30 22 1 22 23
M  V30 23 1 23 24
M  V30 24 1 24 25
M  V30 25 2 24 26
M  V30 26 1 26 27
M  V30 27 2 27 28
M  V30 28 1 27 29
M  V30 29 1 26 30
M  V30 30 1 30 31
M  V30 31 1 20 32
M  V30 32 2 32 33
M  V30 33 1 32 34
M  V30 34 1 6 35
M  V30 35 2 35 36
M  V30 36 1 36 3
M  V30 37 1 18 13
M  V30 38 2 30 22
M  V30 39 1 34 15
M  V30 40 1 1 37
M  V30 41 1 1 38
M  V30 42 1 1 39
M  V30 43 1 4 40
M  V30 44 1 5 41
M  V30 45 1 9 42
M  V30 46 1 12 43
M  V30 47 1 14 44
M  V30 48 1 17 45
M  V30 49 1 21 46
M  V30 50 1 23 47
M  V30 51 1 25 48
M  V30 52 1 25 49
M  V30 53 1 25 50
M  V30 54 1 29 51
M  V30 55 1 31 52
M  V30 56 1 31 53
M  V30 57 1 31 54
M  V30 58 1 34 55
M  V30 59 1 35 56
M  V30 60 1 36 57
M  V30 END BOND
M  V30 END CTAB
M  END
>  <Dataset>  (29) 
ChEMBL_Kinases

>  <Ligand_Instance>  (29) 
nan

>  <PDB_ID>  (29) 
nan

>  <Standardized_SMILES>  (29) 
COc1ccc(C(=O)NC(=O)Nc2cc3c(cc2F)/C(=C/c2[nH]c(C)c(C(=O)O)c2C)C(=O)N3)cc1

>  <Name>  (29) 
nan

>  <Pocket>  (29) 
nan

>  <ATP_Site>  (29) 
nan

>  <Peripheral>  (29) 
nan

>  <Num_H_Atoms_ProtBoundConf>  (29) 
nan

>  <Num_Resolved_Atoms>  (29) 
nan

>  <Num_Not_Resolved_Atoms>  (29) 
nan

$$$$
CHEMBL3329671
     RDKit          3D

  0  0  0  0  0  0  0  0  0  0999 V3000
M  V30 BEGIN CTAB
M  V30 COUNTS 63 66 0 0 0
M  V30 BEGIN ATOM
M  V30 1 C 10.526764 2.469693 5.424549 0
M  V30 2 O 10.127340 1.716473 4.318907 0
M  V30 3 C 8.865789 1.558905 3.799732 0
M  V30 4 C 7.730927 2.147845 4.293809 0
M  V30 5 C 6.539219 1.904265 3.669845 0
M  V30 6 C 6.562054 1.069789 2.567020 0
M  V30 7 C 5.318596 0.732682 1.757605 0
M  V30 8 O 5.341230 -0.147207 0.838799 0
M  V30 9 N 3.878297 1.222511 1.738229 0
M  V30 10 C 2.825803 0.693154 1.031979 0
M  V30 11 O 3.066050 -0.311274 0.344441 0
M  V30 12 N 1.731680 1.540449 1.348930 0
M  V30 13 C 0.617772 0.983104 0.592001 0
M  V30 14 C -0.217350 0.040271 1.209595 0
M  V30 15 C -1.265078 -0.480548 0.438298 0
M  V30 16 C -1.381050 -0.019761 -0.864141 0
M  V30 17 C -0.553736 0.903074 -1.452332 0
M  V30 18 C 0.483105 1.430406 -0.713822 0
M  V30 19 F 1.328924 2.353368 -1.245938 0
M  V30 20 C -2.533853 -0.731580 -1.373161 0
M  V30 21 C -3.095702 -0.724498 -2.547907 0
M  V30 22 C -4.197270 -1.314103 -3.245819 0
M  V30 23 N -4.147830 -2.116774 -4.330516 0
M  V30 24 C -5.385754 -2.368277 -4.770403 0
M  V30 25 C -5.739053 -3.224142 -5.930845 0
M  V30 26 C -6.303821 -1.716779 -3.964772 0
M  V30 27 C -7.792555 -1.694058 -4.070301 0
M  V30 28 C -8.165236 -0.845748 -5.260244 0
M  V30 29 C -7.688846 0.550057 -5.201105 0
M  V30 30 O -7.045714 1.370121 -4.508422 0
M  V30 31 O -8.085522 1.273397 -6.342124 0
M  V30 32 C -5.555936 -1.045304 -2.990813 0
M  V30 33 C -6.072780 -0.209460 -1.871567 0
M  V30 34 C -3.142100 -1.642313 -0.384704 0
M  V30 35 O -4.137582 -2.392369 -0.506630 0
M  V30 36 N -2.280409 -1.437572 0.761929 0
M  V30 37 C 7.652030 0.431936 1.999338 0
M  V30 38 C 8.824826 0.742508 2.710467 0
M  V30 39 H 11.614106 2.274298 5.612636 0
M  V30 40 H 10.011141 2.155524 6.366290 0
M  V30 41 H 10.391869 3.565301 5.318278 0
M  V30 42 H 7.760757 2.787390 5.160176 0
M  V30 43 H 5.585266 2.314639 3.959262 0
M  V30 44 H 4.709300 0.980349 1.791571 0
M  V30 45 H 1.914750 2.344750 2.027645 0
M  V30 46 H -0.061210 -0.268316 2.220291 0
M  V30 47 H -0.717901 1.211428 -2.477592 0
M  V30 48 H -2.578017 -0.047852 -3.260629 0
M  V30 49 H -3.249420 -2.494244 -4.757356 0
M  V30 50 H -4.932764 -3.950261 -6.134378 0
M  V30 51 H -5.748384 -2.544751 -6.821761 0
M  V30 52 H -6.713303 -3.712745 -5.822684 0
M  V30 53 H -8.305083 -1.469311 -3.145617 0
M  V30 54 H -8.080211 -2.748930 -4.344196 0
M  V30 55 H -7.691788 -1.327872 -6.147287 0
M  V30 56 H -9.273774 -0.883521 -5.452919 0
M  V30 57 H -8.190530 2.260697 -6.409014 0
M  V30 58 H -6.274165 -0.841961 -0.957634 0
M  V30 59 H -7.011510 0.299857 -2.079157 0
M  V30 60 H -5.258665 0.512599 -1.637784 0
M  V30 61 H -2.431120 -1.940131 1.658933 0
M  V30 62 H 7.684531 -0.214841 1.149070 0
M  V30 63 H 9.715108 0.241209 2.290981 0
M  V30 END ATOM
M  V30 BEGIN BOND
M  V30 1 1 1 2
M  V30 2 1 2 3
M  V30 3 2 3 4
M  V30 4 1 4 5
M  V30 5 2 5 6
M  V30 6 1 6 7
M  V30 7 2 7 8
M  V30 8 1 7 9
M  V30 9 1 9 10
M  V30 10 2 10 11
M  V30 11 1 10 12
M  V30 12 1 12 13
M  V30 13 2 13 14
M  V30 14 1 14 15
M  V30 15 2 15 16
M  V30 16 1 16 17
M  V30 17 2 17 18
M  V30 18 1 18 19
M  V30 19 1 16 20
M  V30 20 2 20 21
M  V30 21 1 21 22
M  V30 22 1 22 23
M  V30 23 1 23 24
M  V30 24 1 24 25
M  V30 25 2 24 26
M  V30 26 1 26 27
M  V30 27 1 27 28
M  V30 28 1 28 29
M  V30 29 2 29 30
M  V30 30 1 29 31
M  V30 31 1 26 32
M  V30 32 1 32 33
M  V30 33 1 20 34
M  V30 34 2 34 35
M  V30 35 1 34 36
M  V30 36 1 6 37
M  V30 37 2 37 38
M  V30 38 1 38 3
M  V30 39 1 18 13
M  V30 40 2 32 22
M  V30 41 1 36 15
M  V30 42 1 1 39
M  V30 43 1 1 40
M  V30 44 1 1 41
M  V30 45 1 4 42
M  V30 46 1 5 43
M  V30 47 1 9 44
M  V30 48 1 12 45
M  V30 49 1 14 46
M  V30 50 1 17 47
M  V30 51 1 21 48
M  V30 52 1 23 49
M  V30 53 1 25 50
M  V30 54 1 25 51
M  V30 55 1 25 52
M  V30 56 1 27 53
M  V30 57 1 27 54
M  V30 58 1 28 55
M  V30 59 1 28 56
M  V30 60 1 31 57
M  V30 61 1 33 58
M  V30 62 1 33 59
M  V30 63 1 33 60
M  V30 64 1 36 61
M  V30 65 1 37 62
M  V30 66 1 38 63
M  V30 END BOND
M  V30 END CTAB
M  END
>  <Dataset>  (30) 
ChEMBL_Kinases

>  <Ligand_Instance>  (30) 
nan

>  <PDB_ID>  (30) 
nan

>  <Standardized_SMILES>  (30) 
COc1ccc(C(=O)NC(=O)Nc2cc3c(cc2F)/C(=C/c2[nH]c(C)c(CCC(=O)O)c2C)C(=O)N3)cc1

>  <Name>  (30) 
nan

>  <Pocket>  (30) 
nan

>  <ATP_Site>  (30) 
nan

>  <Peripheral>  (30) 
nan

>  <Num_H_Atoms_ProtBoundConf>  (30) 
nan

>  <Num_Resolved_Atoms>  (30) 
nan

>  <Num_Not_Resolved_Atoms>  (30) 
nan

$$$$
CHEMBL3329672
     RDKit          3D

  0  0  0  0  0  0  0  0  0  0999 V3000
M  V30 BEGIN CTAB
M  V30 COUNTS 57 60 0 0 0
M  V30 BEGIN ATOM
M  V30 1 C 6.784845 1.975471 9.532377 0
M  V30 2 O 5.427136 1.963412 9.099227 0
M  V30 3 C 5.085123 1.407481 7.858110 0
M  V30 4 C 6.047369 0.859318 7.045824 0
M  V30 5 C 5.790462 0.300299 5.813892 0
M  V30 6 C 4.438981 0.381150 5.540073 0
M  V30 7 C 4.017436 -0.145081 4.237516 0
M  V30 8 O 4.887539 -0.740802 3.531751 0
M  V30 9 N 2.956423 -0.346030 3.220250 0
M  V30 10 C 2.667482 -0.858618 2.000832 0
M  V30 11 O 3.667669 -1.459433 1.638922 0
M  V30 12 N 1.331747 -0.392484 1.830196 0
M  V30 13 C 0.424643 -0.579869 0.754945 0
M  V30 14 C 0.429979 0.328734 -0.279985 0
M  V30 15 C -0.504437 0.080383 -1.269484 0
M  V30 16 C -1.329401 -1.017218 -1.137369 0
M  V30 17 C -1.319703 -1.914525 -0.095757 0
M  V30 18 C -0.379997 -1.685469 0.922411 0
M  V30 19 N -2.340063 -2.921409 -0.284450 0
M  V30 20 C -2.973730 -2.583332 -1.504894 0
M  V30 21 O -3.908176 -3.335009 -1.879894 0
M  V30 22 C -2.385805 -1.392952 -2.091048 0
M  V30 23 C -2.822176 -0.942561 -3.229861 0
M  V30 24 C -3.903313 -1.410541 -4.086419 0
M  V30 25 N -5.177650 -1.716150 -3.817964 0
M  V30 26 C -5.838727 -2.123304 -4.907024 0
M  V30 27 C -7.273633 -2.520365 -4.926558 0
M  V30 28 C -4.969418 -2.092086 -5.962700 0
M  V30 29 C -5.244306 -2.441726 -7.340652 0
M  V30 30 O -6.347415 -2.832490 -7.785210 0
M  V30 31 O -4.362144 -2.412730 -8.407190 0
M  V30 32 C -3.776304 -1.651874 -5.454671 0
M  V30 33 C -2.501271 -1.441444 -6.200793 0
M  V30 34 C 3.406017 0.905873 6.283508 0
M  V30 35 F 2.124650 0.902720 5.860914 0
M  V30 36 C 3.776704 1.435368 7.491211 0
M  V30 37 H 7.015665 0.968120 9.912464 0
M  V30 38 H 6.938089 2.736293 10.333668 0
M  V30 39 H 7.456965 2.293191 8.710126 0
M  V30 40 H 7.100137 0.840736 7.352435 0
M  V30 41 H 6.506665 -0.137175 5.150662 0
M  V30 42 H 3.146037 -0.018222 4.003870 0
M  V30 43 H 0.743462 0.195997 2.448429 0
M  V30 44 H 1.138059 1.129712 -0.240078 0
M  V30 45 H -0.533051 0.769717 -2.094440 0
M  V30 46 H -0.339894 -2.353570 1.744998 0
M  V30 47 H -2.457615 -3.668788 0.411682 0
M  V30 48 H -2.259105 -0.057429 -3.575753 0
M  V30 49 H -5.634919 -1.643751 -2.898373 0
M  V30 50 H -7.705345 -2.586274 -5.926630 0
M  V30 51 H -7.393672 -3.464478 -4.322661 0
M  V30 52 H -7.836523 -1.737720 -4.384288 0
M  V30 53 H -4.193711 -3.246806 -8.993486 0
M  V30 54 H -1.789999 -2.214915 -5.949402 0
M  V30 55 H -2.126192 -0.435692 -5.842696 0
M  V30 56 H -2.638579 -1.328557 -7.278897 0
M  V30 57 H 3.019006 1.863151 8.129423 0
M  V30 END ATOM
M  V30 BEGIN BOND
M  V30 1 1 1 2
M  V30 2 1 2 3
M  V30 3 2 3 4
M  V30 4 1 4 5
M  V30 5 2 5 6
M  V30 6 1 6 7
M  V30 7 2 7 8
M  V30 8 1 7 9
M  V30 9 1 9 10
M  V30 10 2 10 11
M  V30 11 1 10 12
M  V30 12 1 12 13
M  V30 13 2 13 14
M  V30 14 1 14 15
M  V30 15 2 15 16
M  V30 16 1 16 17
M  V30 17 2 17 18
M  V30 18 1 17 19
M  V30 19 1 19 20
M  V30 20 2 20 21
M  V30 21 1 20 22
M  V30 22 2 22 23
M  V30 23 1 23 24
M  V30 24 1 24 25
M  V30 25 1 25 26
M  V30 26 1 26 27
M  V30 27 2 26 28
M  V30 28 1 28 29
M  V30 29 2 29 30
M  V30 30 1 29 31
M  V30 31 1 28 32
M  V30 32 1 32 33
M  V30 33 1 6 34
M  V30 34 1 34 35
M  V30 35 2 34 36
M  V30 36 1 36 3
M  V30 37 1 18 13
M  V30 38 2 32 24
M  V30 39 1 22 16
M  V30 40 1 1 37
M  V30 41 1 1 38
M  V30 42 1 1 39
M  V30 43 1 4 40
M  V30 44 1 5 41
M  V30 45 1 9 42
M  V30 46 1 12 43
M  V30 47 1 14 44
M  V30 48 1 15 45
M  V30 49 1 18 46
M  V30 50 1 19 47
M  V30 51 1 23 48
M  V30 52 1 25 49
M  V30 53 1 27 50
M  V30 54 1 27 51
M  V30 55 1 27 52
M  V30 56 1 31 53
M  V30 57 1 33 54
M  V30 58 1 33 55
M  V30 59 1 33 56
M  V30 60 1 36 57
M  V30 END BOND
M  V30 END CTAB
M  END
>  <Dataset>  (31) 
ChEMBL_Kinases

>  <Ligand_Instance>  (31) 
nan

>  <PDB_ID>  (31) 
nan

>  <Standardized_SMILES>  (31) 
COc1ccc(C(=O)NC(=O)Nc2ccc3c(c2)NC(=O)/C3=C\c2[nH]c(C)c(C(=O)O)c2C)c(F)c1

>  <Name>  (31) 
nan

>  <Pocket>  (31) 
nan

>  <ATP_Site>  (31) 
nan

>  <Peripheral>  (31) 
nan

>  <Num_H_Atoms_ProtBoundConf>  (31) 
nan

>  <Num_Resolved_Atoms>  (31) 
nan

>  <Num_Not_Resolved_Atoms>  (31) 
nan

$$$$
CHEMBL3329673
     RDKit          3D

  0  0  0  0  0  0  0  0  0  0999 V3000
M  V30 BEGIN CTAB
M  V30 COUNTS 63 66 0 0 0
M  V30 BEGIN ATOM
M  V30 1 C 9.158452 -6.108686 4.672462 0
M  V30 2 O 9.272694 -4.857371 4.030106 0
M  V30 3 C 8.210267 -4.278252 3.355285 0
M  V30 4 C 7.041800 -5.003549 3.353844 0
M  V30 5 C 5.871016 -4.616947 2.746258 0
M  V30 6 C 5.920681 -3.414885 2.109027 0
M  V30 7 C 4.765850 -2.786682 1.406255 0
M  V30 8 O 3.859987 -3.706213 1.315191 0
M  V30 9 N 4.355753 -1.488534 0.807980 0
M  V30 10 C 3.024903 -1.547982 0.239886 0
M  V30 11 O 2.205799 -2.452505 0.161255 0
M  V30 12 N 2.998034 -0.152871 -0.206818 0
M  V30 13 C 1.753399 0.194080 -0.862809 0
M  V30 14 C 1.554173 0.055594 -2.220470 0
M  V30 15 C 0.317886 0.403456 -2.718583 0
M  V30 16 C -0.640100 0.867644 -1.830031 0
M  V30 17 C -0.443069 1.007126 -0.474555 0
M  V30 18 C 0.803522 0.655129 0.021043 0
M  V30 19 N -1.637355 1.506582 0.161579 0
M  V30 20 C -2.624118 1.685447 -0.844832 0
M  V30 21 O -3.763017 2.107082 -0.571503 0
M  V30 22 C -2.008231 1.287554 -2.100757 0
M  V30 23 C -2.737840 1.311352 -3.199767 0
M  V30 24 C -4.103389 1.740089 -3.456545 0
M  V30 25 N -4.996274 0.847829 -3.986015 0
M  V30 26 C -6.176072 1.515000 -4.159236 0
M  V30 27 C -7.353780 0.782503 -4.735221 0
M  V30 28 C -6.071309 2.825020 -3.753714 0
M  V30 29 C -7.155568 3.820712 -3.819153 0
M  V30 30 C -8.245272 3.665036 -2.821391 0
M  V30 31 C -7.859762 3.737204 -1.406974 0
M  V30 32 O -6.851653 3.888554 -0.667834 0
M  V30 33 O -8.991341 3.587917 -0.594681 0
M  V30 34 C -4.752654 2.970428 -3.308053 0
M  V30 35 C -4.130635 4.218390 -2.826726 0
M  V30 36 C 7.084788 -2.641338 2.082309 0
M  V30 37 F 7.335473 -1.439647 1.505340 0
M  V30 38 C 8.263941 -3.062044 2.711371 0
M  V30 39 H 10.171277 -6.479394 4.925628 0
M  V30 40 H 8.567146 -6.029682 5.604242 0
M  V30 41 H 8.727168 -6.880449 3.984552 0
M  V30 42 H 6.904219 -5.983011 3.840962 0
M  V30 43 H 4.960961 -5.166754 2.739043 0
M  V30 44 H 5.190705 -1.451456 1.164460 0
M  V30 45 H 3.730861 0.614619 -0.122025 0
M  V30 46 H 2.364057 -0.314987 -2.832819 0
M  V30 47 H 0.111984 0.313355 -3.775881 0
M  V30 48 H 0.959507 0.765130 1.087929 0
M  V30 49 H -1.722257 1.691180 1.181037 0
M  V30 50 H -2.217298 0.936946 -4.099403 0
M  V30 51 H -4.809846 -0.174434 -4.221256 0
M  V30 52 H -7.035712 0.457400 -5.771263 0
M  V30 53 H -7.616804 -0.113583 -4.161494 0
M  V30 54 H -8.233769 1.438335 -4.876994 0
M  V30 55 H -6.721401 4.845665 -3.685935 0
M  V30 56 H -7.644828 3.812876 -4.837182 0
M  V30 57 H -8.969648 4.512962 -3.015483 0
M  V30 58 H -8.864507 2.751705 -2.985240 0
M  V30 59 H -8.967860 3.465694 0.406040 0
M  V30 60 H -4.302664 5.072326 -3.519867 0
M  V30 61 H -3.038868 4.049695 -2.694120 0
M  V30 62 H -4.513412 4.552459 -1.850236 0
M  V30 63 H 9.216222 -2.593277 2.778811 0
M  V30 END ATOM
M  V30 BEGIN BOND
M  V30 1 1 1 2
M  V30 2 1 2 3
M  V30 3 2 3 4
M  V30 4 1 4 5
M  V30 5 2 5 6
M  V30 6 1 6 7
M  V30 7 2 7 8
M  V30 8 1 7 9
M  V30 9 1 9 10
M  V30 10 2 10 11
M  V30 11 1 10 12
M  V30 12 1 12 13
M  V30 13 2 13 14
M  V30 14 1 14 15
M  V30 15 2 15 16
M  V30 16 1 16 17
M  V30 17 2 17 18
M  V30 18 1 17 19
M  V30 19 1 19 20
M  V30 20 2 20 21
M  V30 21 1 20 22
M  V30 22 2 22 23
M  V30 23 1 23 24
M  V30 24 1 24 25
M  V30 25 1 25 26
M  V30 26 1 26 27
M  V30 27 2 26 28
M  V30 28 1 28 29
M  V30 29 1 29 30
M  V30 30 1 30 31
M  V30 31 2 31 32
M  V30 32 1 31 33
M  V30 33 1 28 34
M  V30 34 1 34 35
M  V30 35 1 6 36
M  V30 36 1 36 37
M  V30 37 2 36 38
M  V30 38 1 38 3
M  V30 39 1 18 13
M  V30 40 2 34 24
M  V30 41 1 22 16
M  V30 42 1 1 39
M  V30 43 1 1 40
M  V30 44 1 1 41
M  V30 45 1 4 42
M  V30 46 1 5 43
M  V30 47 1 9 44
M  V30 48 1 12 45
M  V30 49 1 14 46
M  V30 50 1 15 47
M  V30 51 1 18 48
M  V30 52 1 19 49
M  V30 53 1 23 50
M  V30 54 1 25 51
M  V30 55 1 27 52
M  V30 56 1 27 53
M  V30 57 1 27 54
M  V30 58 1 29 55
M  V30 59 1 29 56
M  V30 60 1 30 57
M  V30 61 1 30 58
M  V30 62 1 33 59
M  V30 63 1 35 60
M  V30 64 1 35 61
M  V30 65 1 35 62
M  V30 66 1 38 63
M  V30 END BOND
M  V30 END CTAB
M  END
>  <Dataset>  (32) 
ChEMBL_Kinases

>  <Ligand_Instance>  (32) 
nan

>  <PDB_ID>  (32) 
nan

>  <Standardized_SMILES>  (32) 
COc1ccc(C(=O)NC(=O)Nc2ccc3c(c2)NC(=O)/C3=C\c2[nH]c(C)c(CCC(=O)O)c2C)c(F)c1

>  <Name>  (32) 
nan

>  <Pocket>  (32) 
nan

>  <ATP_Site>  (32) 
nan

>  <Peripheral>  (32) 
nan

>  <Num_H_Atoms_ProtBoundConf>  (32) 
nan

>  <Num_Resolved_Atoms>  (32) 
nan

>  <Num_Not_Resolved_Atoms>  (32) 
nan

$$$$
CHEMBL3329674
     RDKit          3D

  0  0  0  0  0  0  0  0  0  0999 V3000
M  V30 BEGIN CTAB
M  V30 COUNTS 57 60 0 0 0
M  V30 BEGIN ATOM
M  V30 1 C 1.150518 9.506639 5.180125 0
M  V30 2 O -0.088546 9.016273 4.767474 0
M  V30 3 C -0.307075 7.988128 3.878708 0
M  V30 4 C -1.639515 7.664921 3.619930 0
M  V30 5 C -1.989312 6.639858 2.739289 0
M  V30 6 C -0.890375 6.029264 2.193936 0
M  V30 7 C -1.454953 4.949135 1.304348 0
M  V30 8 O -2.590046 4.538849 0.942818 0
M  V30 9 N -1.053608 3.857251 0.433056 0
M  V30 10 C -0.736386 2.762585 -0.284955 0
M  V30 11 O -1.608977 2.297716 0.535283 0
M  V30 12 N 0.192553 2.664382 -1.357294 0
M  V30 13 C -0.026484 1.280853 -1.567374 0
M  V30 14 C 0.882938 0.463273 -0.875960 0
M  V30 15 C 0.788290 -0.914889 -1.007358 0
M  V30 16 C -0.242471 -1.339370 -1.844049 0
M  V30 17 C -1.138887 -0.549415 -2.526056 0
M  V30 18 C -1.033096 0.816952 -2.387688 0
M  V30 19 F -1.860985 1.658589 -3.005255 0
M  V30 20 C -0.129202 -2.789401 -1.812494 0
M  V30 21 C -0.862732 -3.684381 -2.440449 0
M  V30 22 C -0.750848 -5.152945 -2.405185 0
M  V30 23 N -0.607941 -6.132371 -1.498494 0
M  V30 24 C -0.551239 -7.336840 -2.032911 0
M  V30 25 C -0.399931 -8.543610 -1.181772 0
M  V30 26 C -0.669429 -7.118902 -3.381329 0
M  V30 27 C -0.661456 -8.196223 -4.351718 0
M  V30 28 O -1.857928 -8.568010 -4.508421 0
M  V30 29 O -0.242831 -9.118461 -5.246362 0
M  V30 30 C -0.797171 -5.756416 -3.658324 0
M  V30 31 C -0.946485 -5.291599 -5.083723 0
M  V30 32 C 0.969349 -3.195809 -0.955940 0
M  V30 33 O 1.454473 -4.273434 -0.616177 0
M  V30 34 N 1.534737 -1.989724 -0.457320 0
M  V30 35 C 0.457805 6.260512 2.372665 0
M  V30 36 F 1.341298 5.499862 1.705613 0
M  V30 37 C 0.679319 7.282386 3.252232 0
M  V30 38 H 1.452611 10.344016 4.549922 0
M  V30 39 H 1.882177 8.681394 5.078872 0
M  V30 40 H 1.089609 9.857275 6.238903 0
M  V30 41 H -2.433979 8.238059 4.118999 0
M  V30 42 H -3.042518 6.473777 2.607522 0
M  V30 43 H -1.331047 4.523950 0.963680 0
M  V30 44 H 0.458354 3.663732 -1.351870 0
M  V30 45 H 1.663659 0.869287 -0.242831 0
M  V30 46 H -1.899971 -1.000697 -3.149829 0
M  V30 47 H -1.656308 -3.239789 -3.063432 0
M  V30 48 H -0.577096 -5.878211 -0.490537 0
M  V30 49 H -1.318491 -8.708458 -0.557279 0
M  V30 50 H -0.211496 -9.405783 -1.827086 0
M  V30 51 H 0.421234 -8.359791 -0.454931 0
M  V30 52 H 0.223864 -10.013968 -5.064297 0
M  V30 53 H -1.572317 -6.036873 -5.634125 0
M  V30 54 H 0.012776 -5.233920 -5.613324 0
M  V30 55 H -1.511059 -4.332389 -5.133117 0
M  V30 56 H 2.343696 -1.846487 0.186872 0
M  V30 57 H 1.732651 7.510212 3.432583 0
M  V30 END ATOM
M  V30 BEGIN BOND
M  V30 1 1 1 2
M  V30 2 1 2 3
M  V30 3 2 3 4
M  V30 4 1 4 5
M  V30 5 2 5 6
M  V30 6 1 6 7
M  V30 7 2 7 8
M  V30 8 1 7 9
M  V30 9 1 9 10
M  V30 10 2 10 11
M  V30 11 1 10 12
M  V30 12 1 12 13
M  V30 13 2 13 14
M  V30 14 1 14 15
M  V30 15 2 15 16
M  V30 16 1 16 17
M  V30 17 2 17 18
M  V30 18 1 18 19
M  V30 19 1 16 20
M  V30 20 2 20 21
M  V30 21 1 21 22
M  V30 22 1 22 23
M  V30 23 1 23 24
M  V30 24 1 24 25
M  V30 25 2 24 26
M  V30 26 1 26 27
M  V30 27 2 27 28
M  V30 28 1 27 29
M  V30 29 1 26 30
M  V30 30 1 30 31
M  V30 31 1 20 32
M  V30 32 2 32 33
M  V30 33 1 32 34
M  V30 34 1 6 35
M  V30 35 1 35 36
M  V30 36 2 35 37
M  V30 37 1 37 3
M  V30 38 1 18 13
M  V30 39 2 30 22
M  V30 40 1 34 15
M  V30 41 1 1 38
M  V30 42 1 1 39
M  V30 43 1 1 40
M  V30 44 1 4 41
M  V30 45 1 5 42
M  V30 46 1 9 43
M  V30 47 1 12 44
M  V30 48 1 14 45
M  V30 49 1 17 46
M  V30 50 1 21 47
M  V30 51 1 23 48
M  V30 52 1 25 49
M  V30 53 1 25 50
M  V30 54 1 25 51
M  V30 55 1 29 52
M  V30 56 1 31 53
M  V30 57 1 31 54
M  V30 58 1 31 55
M  V30 59 1 34 56
M  V30 60 1 37 57
M  V30 END BOND
M  V30 END CTAB
M  END
>  <Dataset>  (33) 
ChEMBL_Kinases

>  <Ligand_Instance>  (33) 
nan

>  <PDB_ID>  (33) 
nan

>  <Standardized_SMILES>  (33) 
COc1ccc(C(=O)NC(=O)Nc2cc3c(cc2F)/C(=C/c2[nH]c(C)c(C(=O)O)c2C)C(=O)N3)c(F)c1

>  <Name>  (33) 
nan

>  <Pocket>  (33) 
nan

>  <ATP_Site>  (33) 
nan

>  <Peripheral>  (33) 
nan

>  <Num_H_Atoms_ProtBoundConf>  (33) 
nan

>  <Num_Resolved_Atoms>  (33) 
nan

>  <Num_Not_Resolved_Atoms>  (33) 
nan

$$$$
CHEMBL3329664
     RDKit          3D

  0  0  0  0  0  0  0  0  0  0999 V3000
M  V30 BEGIN CTAB
M  V30 COUNTS 57 60 0 0 0
M  V30 BEGIN ATOM
M  V30 1 C 10.195967 -2.979177 3.649283 0
M  V30 2 O 8.848080 -2.987496 3.269345 0
M  V30 3 C 8.076870 -1.903018 2.928799 0
M  V30 4 C 8.360509 -0.557926 2.854986 0
M  V30 5 C 7.415042 0.389075 2.481340 0
M  V30 6 C 6.242058 -0.190692 2.216792 0
M  V30 7 C 5.263896 0.885461 1.805287 0
M  V30 8 O 4.958912 2.050481 1.488649 0
M  V30 9 N 3.786489 0.841986 1.557194 0
M  V30 10 C 2.439760 0.850854 1.240549 0
M  V30 11 O 2.977905 1.535864 0.330434 0
M  V30 12 N 1.611555 0.142209 2.117729 0
M  V30 13 C 0.336571 0.296109 1.507326 0
M  V30 14 C -0.271679 1.377830 0.940189 0
M  V30 15 C -1.523270 1.245586 0.377017 0
M  V30 16 C -2.155713 0.014591 0.389967 0
M  V30 17 C -1.539553 -1.099086 0.970496 0
M  V30 18 C -0.267448 -0.950950 1.539548 0
M  V30 19 N -2.472616 -2.190681 0.815050 0
M  V30 20 C -3.644554 -1.755914 0.147060 0
M  V30 21 O -4.620580 -2.476059 -0.123816 0
M  V30 22 C -3.490861 -0.341659 -0.151709 0
M  V30 23 C -4.307886 0.512574 -0.751785 0
M  V30 24 C -5.590664 -0.002255 -1.242946 0
M  V30 25 N -6.863079 0.196807 -0.976033 0
M  V30 26 C -7.599570 -0.551774 -1.852065 0
M  V30 27 C -9.072434 -0.539318 -1.793974 0
M  V30 28 C -6.742497 -1.235717 -2.688910 0
M  V30 29 C -7.308444 -2.110332 -3.717850 0
M  V30 30 O -7.533599 -3.338693 -3.449097 0
M  V30 31 O -7.641112 -1.723462 -5.021529 0
M  V30 32 C -5.437585 -0.896212 -2.315591 0
M  V30 33 C -4.294446 -1.478242 -3.098355 0
M  V30 34 C 5.738870 -1.466168 2.220566 0
M  V30 35 C 6.776008 -2.333123 2.611713 0
M  V30 36 H 10.590636 -4.018617 3.743487 0
M  V30 37 H 10.827223 -2.326860 3.009653 0
M  V30 38 H 10.244789 -2.548419 4.679475 0
M  V30 39 H 9.364523 -0.335378 3.113622 0
M  V30 40 H 7.638067 1.420687 2.427959 0
M  V30 41 H 4.636389 0.876364 1.697880 0
M  V30 42 H 2.042277 -0.295200 2.936902 0
M  V30 43 H 0.334859 2.253371 1.004275 0
M  V30 44 H -1.954091 2.135733 -0.052911 0
M  V30 45 H 0.076703 -1.898973 1.944600 0
M  V30 46 H -2.303797 -3.160633 1.146404 0
M  V30 47 H -4.055230 1.555613 -0.884429 0
M  V30 48 H -7.139163 0.839729 -0.201805 0
M  V30 49 H -9.519970 0.432586 -1.525513 0
M  V30 50 H -9.488367 -0.941827 -2.735994 0
M  V30 51 H -9.419152 -1.267162 -0.995657 0
M  V30 52 H -7.633763 -2.450670 -5.738193 0
M  V30 53 H -3.348426 -0.948708 -2.785017 0
M  V30 54 H -4.489923 -1.366312 -4.180810 0
M  V30 55 H -4.185179 -2.531746 -2.800479 0
M  V30 56 H 4.757553 -1.779761 1.978317 0
M  V30 57 H 6.435154 -3.389042 2.633667 0
M  V30 END ATOM
M  V30 BEGIN BOND
M  V30 1 1 1 2
M  V30 2 1 2 3
M  V30 3 2 3 4
M  V30 4 1 4 5
M  V30 5 2 5 6
M  V30 6 1 6 7
M  V30 7 2 7 8
M  V30 8 1 7 9
M  V30 9 1 9 10
M  V30 10 2 10 11
M  V30 11 1 10 12
M  V30 12 1 12 13
M  V30 13 2 13 14
M  V30 14 1 14 15
M  V30 15 2 15 16
M  V30 16 1 16 17
M  V30 17 2 17 18
M  V30 18 1 17 19
M  V30 19 1 19 20
M  V30 20 2 20 21
M  V30 21 1 20 22
M  V30 22 2 22 23
M  V30 23 1 23 24
M  V30 24 1 24 25
M  V30 25 1 25 26
M  V30 26 1 26 27
M  V30 27 2 26 28
M  V30 28 1 28 29
M  V30 29 2 29 30
M  V30 30 1 29 31
M  V30 31 1 28 32
M  V30 32 1 32 33
M  V30 33 1 6 34
M  V30 34 2 34 35
M  V30 35 1 35 3
M  V30 36 1 18 13
M  V30 37 2 32 24
M  V30 38 1 22 16
M  V30 39 1 1 36
M  V30 40 1 1 37
M  V30 41 1 1 38
M  V30 42 1 4 39
M  V30 43 1 5 40
M  V30 44 1 9 41
M  V30 45 1 12 42
M  V30 46 1 14 43
M  V30 47 1 15 44
M  V30 48 1 18 45
M  V30 49 1 19 46
M  V30 50 1 23 47
M  V30 51 1 25 48
M  V30 52 1 27 49
M  V30 53 1 27 50
M  V30 54 1 27 51
M  V30 55 1 31 52
M  V30 56 1 33 53
M  V30 57 1 33 54
M  V30 58 1 33 55
M  V30 59 1 34 56
M  V30 60 1 35 57
M  V30 END BOND
M  V30 END CTAB
M  END
>  <Dataset>  (34) 
ChEMBL_Kinases

>  <Ligand_Instance>  (34) 
nan

>  <PDB_ID>  (34) 
nan

>  <Standardized_SMILES>  (34) 
COc1ccc(C(=O)NC(=O)Nc2ccc3c(c2)NC(=O)/C3=C\c2[nH]c(C)c(C(=O)O)c2C)cc1

>  <Name>  (34) 
nan

>  <Pocket>  (34) 
nan

>  <ATP_Site>  (34) 
nan

>  <Peripheral>  (34) 
nan

>  <Num_H_Atoms_ProtBoundConf>  (34) 
nan

>  <Num_Resolved_Atoms>  (34) 
nan

>  <Num_Not_Resolved_Atoms>  (34) 
nan

$$$$
CHEMBL3326126
     RDKit          3D

  0  0  0  0  0  0  0  0  0  0999 V3000
M  V30 BEGIN CTAB
M  V30 COUNTS 38 41 0 0 0
M  V30 BEGIN ATOM
M  V30 1 C -0.372198 -4.571303 2.197344 0
M  V30 2 O 0.605747 -4.572425 1.180155 0
M  V30 3 C 0.710555 -3.610285 0.213546 0
M  V30 4 C 1.763836 -3.852074 -0.667604 0
M  V30 5 C 2.050295 -3.007003 -1.719010 0
M  V30 6 C 1.256134 -1.886749 -1.890562 0
M  V30 7 O 1.395014 -0.930199 -2.887665 0
M  V30 8 C 2.441983 -1.106509 -3.820606 0
M  V30 9 C 0.193198 -1.611875 -1.028844 0
M  V30 10 S -0.896836 -0.228596 -1.126725 0
M  V30 11 C -0.254806 1.140845 -0.174211 0
M  V30 12 C 0.585634 2.064116 -0.786257 0
M  V30 13 C 1.051950 3.104529 0.003297 0
M  V30 14 C 0.675155 3.185766 1.336362 0
M  V30 15 N 1.010173 4.110347 2.282218 0
M  V30 16 N 0.399620 3.767066 3.426909 0
M  V30 17 C -0.297960 2.642663 3.169416 0
M  V30 18 C -1.167866 1.806612 4.059107 0
M  V30 19 C -2.564423 1.818653 3.840022 0
M  V30 20 N -3.273866 1.059378 4.659723 0
M  V30 21 C -2.873037 0.395195 5.526292 0
M  V30 22 S -0.979121 0.712269 5.417865 0
M  V30 23 N -0.150709 2.257186 1.892218 0
M  V30 24 N -0.594387 1.262429 1.130617 0
M  V30 25 C -0.068028 -2.485894 0.022091 0
M  V30 26 H -0.681467 -3.510019 2.423750 0
M  V30 27 H -1.266416 -5.121533 1.842466 0
M  V30 28 H 0.052499 -5.073947 3.092630 0
M  V30 29 H 2.455735 -4.703619 -0.629068 0
M  V30 30 H 2.847473 -3.143317 -2.427532 0
M  V30 31 H 3.401807 -1.410355 -3.361402 0
M  V30 32 H 2.633462 -0.132522 -4.312899 0
M  V30 33 H 2.171574 -1.815308 -4.627275 0
M  V30 34 H 0.874796 1.990716 -1.832930 0
M  V30 35 H 1.720170 3.877643 -0.399860 0
M  V30 36 H -3.109602 2.386879 3.069019 0
M  V30 37 H -3.410444 -0.262372 6.247460 0
M  V30 38 H -0.860921 -2.367524 0.742125 0
M  V30 END ATOM
M  V30 BEGIN BOND
M  V30 1 1 1 2
M  V30 2 1 2 3
M  V30 3 2 3 4
M  V30 4 1 4 5
M  V30 5 2 5 6
M  V30 6 1 6 7
M  V30 7 1 7 8
M  V30 8 1 6 9
M  V30 9 1 9 10
M  V30 10 1 10 11
M  V30 11 1 11 12
M  V30 12 2 12 13
M  V30 13 1 13 14
M  V30 14 2 14 15
M  V30 15 1 15 16
M  V30 16 2 16 17
M  V30 17 1 17 18
M  V30 18 2 18 19
M  V30 19 1 19 20
M  V30 20 2 20 21
M  V30 21 1 21 22
M  V30 22 1 17 23
M  V30 23 1 23 24
M  V30 24 2 9 25
M  V30 25 1 25 3
M  V30 26 2 24 11
M  V30 27 1 23 14
M  V30 28 1 22 18
M  V30 29 1 1 26
M  V30 30 1 1 27
M  V30 31 1 1 28
M  V30 32 1 4 29
M  V30 33 1 5 30
M  V30 34 1 8 31
M  V30 35 1 8 32
M  V30 36 1 8 33
M  V30 37 1 12 34
M  V30 38 1 13 35
M  V30 39 1 19 36
M  V30 40 1 21 37
M  V30 41 1 25 38
M  V30 END BOND
M  V30 END CTAB
M  END
>  <Dataset>  (35) 
ChEMBL_Kinases

>  <Ligand_Instance>  (35) 
nan

>  <PDB_ID>  (35) 
nan

>  <Standardized_SMILES>  (35) 
COc1ccc(OC)c(Sc2ccc3nnc(-c4cncs4)n3n2)c1

>  <Name>  (35) 
nan

>  <Pocket>  (35) 
nan

>  <ATP_Site>  (35) 
nan

>  <Peripheral>  (35) 
nan

>  <Num_H_Atoms_ProtBoundConf>  (35) 
nan

>  <Num_Resolved_Atoms>  (35) 
nan

>  <Num_Not_Resolved_Atoms>  (35) 
nan

$$$$
CHEMBL3326125
     RDKit          3D

  0  0  0  0  0  0  0  0  0  0999 V3000
M  V30 BEGIN CTAB
M  V30 COUNTS 38 41 0 0 0
M  V30 BEGIN ATOM
M  V30 1 C 2.808860 -2.798196 1.933673 0
M  V30 2 O 2.801239 -3.089744 0.569619 0
M  V30 3 C 2.239900 -2.288057 -0.416555 0
M  V30 4 C 2.361389 -2.798155 -1.706348 0
M  V30 5 C 1.836242 -2.081214 -2.776589 0
M  V30 6 C 1.198528 -0.875371 -2.579125 0
M  V30 7 O 0.646585 -0.095316 -3.585477 0
M  V30 8 C 0.743837 -0.569813 -4.913420 0
M  V30 9 C 1.090354 -0.390927 -1.295592 0
M  V30 10 S 0.266466 1.181304 -0.976264 0
M  V30 11 C 0.318557 1.481428 0.788447 0
M  V30 12 C 1.352210 2.161488 1.396040 0
M  V30 13 C 1.242157 2.308362 2.761809 0
M  V30 14 C 0.157920 1.796991 3.441992 0
M  V30 15 N -0.193231 1.796366 4.738549 0
M  V30 16 N -1.344110 1.157059 4.830968 0
M  V30 17 C -1.786065 0.725647 3.653741 0
M  V30 18 C -3.036760 -0.027803 3.371195 0
M  V30 19 C -3.881168 -0.356092 4.357290 0
M  V30 20 C -4.960717 -1.031755 3.948213 0
M  V30 21 S -4.825988 -1.242763 2.072635 0
M  V30 22 N -3.278385 -0.356661 2.120839 0
M  V30 23 N -0.826411 1.140966 2.808484 0
M  V30 24 N -0.724322 0.995912 1.484099 0
M  V30 25 C 1.598647 -1.074925 -0.215336 0
M  V30 26 H 2.082648 -2.046431 2.264662 0
M  V30 27 H 2.717364 -3.761802 2.485957 0
M  V30 28 H 3.827064 -2.405695 2.191598 0
M  V30 29 H 2.839625 -3.726546 -1.962069 0
M  V30 30 H 1.917174 -2.454843 -3.786804 0
M  V30 31 H 1.755188 -0.962282 -5.167951 0
M  V30 32 H 0.414943 0.215856 -5.633582 0
M  V30 33 H 0.020207 -1.415005 -5.070206 0
M  V30 34 H 2.167102 2.531557 0.791770 0
M  V30 35 H 2.032733 2.838214 3.289932 0
M  V30 36 H -3.789081 -0.141959 5.413129 0
M  V30 37 H -5.851124 -1.429905 4.648934 0
M  V30 38 H 1.535143 -0.731022 0.803928 0
M  V30 END ATOM
M  V30 BEGIN BOND
M  V30 1 1 1 2
M  V30 2 1 2 3
M  V30 3 2 3 4
M  V30 4 1 4 5
M  V30 5 2 5 6
M  V30 6 1 6 7
M  V30 7 1 7 8
M  V30 8 1 6 9
M  V30 9 1 9 10
M  V30 10 1 10 11
M  V30 11 1 11 12
M  V30 12 2 12 13
M  V30 13 1 13 14
M  V30 14 2 14 15
M  V30 15 1 15 16
M  V30 16 2 16 17
M  V30 17 1 17 18
M  V30 18 1 18 19
M  V30 19 2 19 20
M  V30 20 1 20 21
M  V30 21 1 21 22
M  V30 22 1 17 23
M  V30 23 1 23 24
M  V30 24 2 9 25
M  V30 25 1 25 3
M  V30 26 2 24 11
M  V30 27 1 23 14
M  V30 28 2 22 18
M  V30 29 1 1 26
M  V30 30 1 1 27
M  V30 31 1 1 28
M  V30 32 1 4 29
M  V30 33 1 5 30
M  V30 34 1 8 31
M  V30 35 1 8 32
M  V30 36 1 8 33
M  V30 37 1 12 34
M  V30 38 1 13 35
M  V30 39 1 19 36
M  V30 40 1 20 37
M  V30 41 1 25 38
M  V30 END BOND
M  V30 END CTAB
M  END
>  <Dataset>  (36) 
ChEMBL_Kinases

>  <Ligand_Instance>  (36) 
nan

>  <PDB_ID>  (36) 
nan

>  <Standardized_SMILES>  (36) 
COc1ccc(OC)c(Sc2ccc3nnc(-c4ccsn4)n3n2)c1

>  <Name>  (36) 
nan

>  <Pocket>  (36) 
nan

>  <ATP_Site>  (36) 
nan

>  <Peripheral>  (36) 
nan

>  <Num_H_Atoms_ProtBoundConf>  (36) 
nan

>  <Num_Resolved_Atoms>  (36) 
nan

>  <Num_Not_Resolved_Atoms>  (36) 
nan

$$$$
CHEMBL3326124
     RDKit          3D

  0  0  0  0  0  0  0  0  0  0999 V3000
M  V30 BEGIN CTAB
M  V30 COUNTS 38 41 0 0 0
M  V30 BEGIN ATOM
M  V30 1 C 2.307170 -2.676580 2.277395 0
M  V30 2 O 2.555897 -3.240634 1.006633 0
M  V30 3 C 2.205886 -2.643167 -0.193387 0
M  V30 4 C 2.457204 -3.209871 -1.428371 0
M  V30 5 C 2.068832 -2.534203 -2.566340 0
M  V30 6 C 1.436080 -1.309350 -2.531966 0
M  V30 7 O 1.029711 -0.597808 -3.653037 0
M  V30 8 C 1.289131 -1.182023 -4.916564 0
M  V30 9 C 1.201083 -0.772141 -1.266001 0
M  V30 10 S 0.384999 0.812375 -1.149504 0
M  V30 11 C 0.199109 1.282776 0.541927 0
M  V30 12 C 1.214520 2.013533 1.117801 0
M  V30 13 C 1.222092 2.456787 2.424205 0
M  V30 14 C 0.120107 2.144120 3.228024 0
M  V30 15 N -0.223349 2.394771 4.513852 0
M  V30 16 N -1.423043 1.827561 4.714321 0
M  V30 17 C -1.808032 1.233545 3.553293 0
M  V30 18 C -3.057193 0.504971 3.351510 0
M  V30 19 C -4.041848 0.301937 4.296687 0
M  V30 20 C -5.023323 -0.438018 3.639896 0
M  V30 21 O -4.625450 -0.644096 2.401029 0
M  V30 22 N -3.458046 -0.096427 2.193401 0
M  V30 23 N -0.855768 1.423866 2.621180 0
M  V30 24 N -0.807948 1.031346 1.378513 0
M  V30 25 C 1.568798 -1.405381 -0.089716 0
M  V30 26 H 2.728935 -1.644779 2.359769 0
M  V30 27 H 1.212726 -2.562005 2.434285 0
M  V30 28 H 2.782028 -3.341921 3.023641 0
M  V30 29 H 2.953488 -4.172151 -1.479706 0
M  V30 30 H 2.266223 -2.978839 -3.529344 0
M  V30 31 H 2.335753 -1.564231 -4.998157 0
M  V30 32 H 0.600628 -2.019019 -5.139646 0
M  V30 33 H 1.152878 -0.436311 -5.726912 0
M  V30 34 H 2.108900 2.297322 0.554711 0
M  V30 35 H 2.036652 3.029569 2.846183 0
M  V30 36 H -4.044287 0.645769 5.323176 0
M  V30 37 H -5.967366 -0.791592 4.073424 0
M  V30 38 H 1.371543 -0.960836 0.875976 0
M  V30 END ATOM
M  V30 BEGIN BOND
M  V30 1 1 1 2
M  V30 2 1 2 3
M  V30 3 2 3 4
M  V30 4 1 4 5
M  V30 5 2 5 6
M  V30 6 1 6 7
M  V30 7 1 7 8
M  V30 8 1 6 9
M  V30 9 1 9 10
M  V30 10 1 10 11
M  V30 11 1 11 12
M  V30 12 2 12 13
M  V30 13 1 13 14
M  V30 14 2 14 15
M  V30 15 1 15 16
M  V30 16 2 16 17
M  V30 17 1 17 18
M  V30 18 1 18 19
M  V30 19 2 19 20
M  V30 20 1 20 21
M  V30 21 1 21 22
M  V30 22 1 17 23
M  V30 23 1 23 24
M  V30 24 2 9 25
M  V30 25 1 25 3
M  V30 26 2 24 11
M  V30 27 1 23 14
M  V30 28 2 22 18
M  V30 29 1 1 26
M  V30 30 1 1 27
M  V30 31 1 1 28
M  V30 32 1 4 29
M  V30 33 1 5 30
M  V30 34 1 8 31
M  V30 35 1 8 32
M  V30 36 1 8 33
M  V30 37 1 12 34
M  V30 38 1 13 35
M  V30 39 1 19 36
M  V30 40 1 20 37
M  V30 41 1 25 38
M  V30 END BOND
M  V30 END CTAB
M  END
>  <Dataset>  (37) 
ChEMBL_Kinases

>  <Ligand_Instance>  (37) 
nan

>  <PDB_ID>  (37) 
nan

>  <Standardized_SMILES>  (37) 
COc1ccc(OC)c(Sc2ccc3nnc(-c4ccon4)n3n2)c1

>  <Name>  (37) 
nan

>  <Pocket>  (37) 
nan

>  <ATP_Site>  (37) 
nan

>  <Peripheral>  (37) 
nan

>  <Num_H_Atoms_ProtBoundConf>  (37) 
nan

>  <Num_Resolved_Atoms>  (37) 
nan

>  <Num_Not_Resolved_Atoms>  (37) 
nan

$$$$
CHEMBL3326121
     RDKit          3D

  0  0  0  0  0  0  0  0  0  0999 V3000
M  V30 BEGIN CTAB
M  V30 COUNTS 43 46 0 0 0
M  V30 BEGIN ATOM
M  V30 1 C -1.871690 -5.424177 0.107092 0
M  V30 2 O -2.102086 -4.078164 -0.266895 0
M  V30 3 C -1.115964 -3.272819 -0.806820 0
M  V30 4 C 0.182238 -3.751347 -1.015973 0
M  V30 5 C 1.158665 -2.941765 -1.554546 0
M  V30 6 C 0.857445 -1.638723 -1.894605 0
M  V30 7 O 1.738212 -0.716239 -2.443111 0
M  V30 8 C 3.087637 -0.978193 -2.737326 0
M  V30 9 C -0.430761 -1.148727 -1.691962 0
M  V30 10 S -0.908695 0.524047 -2.102957 0
M  V30 11 C -0.627176 1.575528 -0.685228 0
M  V30 12 C -0.943827 2.896761 -0.834207 0
M  V30 13 C -0.739589 3.738550 0.239655 0
M  V30 14 C -0.228702 3.213598 1.407398 0
M  V30 15 N 0.065014 3.771341 2.574689 0
M  V30 16 N 0.534803 2.849659 3.394979 0
M  V30 17 C 0.563748 1.644304 2.782748 0
M  V30 18 C 0.980552 0.293513 3.202909 0
M  V30 19 C 0.305356 -0.111566 4.498469 0
M  V30 20 C 1.131574 0.704221 5.472639 0
M  V30 21 O 2.398016 0.825396 4.965376 0
M  V30 22 C 2.429625 0.296421 3.700854 0
M  V30 23 N 0.077167 1.910244 1.535664 0
M  V30 24 N -0.130703 1.127169 0.485260 0
M  V30 25 C -1.401061 -1.983020 -1.147063 0
M  V30 26 H -2.652452 -5.782103 0.807014 0
M  V30 27 H -1.811720 -6.124659 -0.729844 0
M  V30 28 H -0.903164 -5.513218 0.680724 0
M  V30 29 H 0.435348 -4.776024 -0.753073 0
M  V30 30 H 2.173838 -3.271301 -1.732635 0
M  V30 31 H 3.189319 -2.040923 -3.043652 0
M  V30 32 H 3.444438 -0.353951 -3.580755 0
M  V30 33 H 3.693990 -0.845423 -1.827675 0
M  V30 34 H -1.344559 3.297081 -1.756916 0
M  V30 35 H -0.966242 4.798013 0.198769 0
M  V30 36 H 0.854415 -0.464903 2.406885 0
M  V30 37 H 0.475999 -1.187059 4.687080 0
M  V30 38 H -0.763482 0.139644 4.545845 0
M  V30 39 H 1.093156 0.289956 6.497466 0
M  V30 40 H 0.672433 1.730884 5.490284 0
M  V30 41 H 2.687642 -0.782278 3.803538 0
M  V30 42 H 3.099697 0.792281 2.992060 0
M  V30 43 H -2.413489 -1.611409 -0.983363 0
M  V30 END ATOM
M  V30 BEGIN BOND
M  V30 1 1 1 2
M  V30 2 1 2 3
M  V30 3 2 3 4
M  V30 4 1 4 5
M  V30 5 2 5 6
M  V30 6 1 6 7
M  V30 7 1 7 8
M  V30 8 1 6 9
M  V30 9 1 9 10
M  V30 10 1 10 11
M  V30 11 1 11 12
M  V30 12 2 12 13
M  V30 13 1 13 14
M  V30 14 2 14 15
M  V30 15 1 15 16
M  V30 16 2 16 17
M  V30 17 1 17 18
M  V30 18 1 18 19
M  V30 19 1 19 20
M  V30 20 1 20 21
M  V30 21 1 21 22
M  V30 22 1 17 23
M  V30 23 1 23 24
M  V30 24 2 9 25
M  V30 25 1 25 3
M  V30 26 2 24 11
M  V30 27 1 23 14
M  V30 28 1 22 18
M  V30 29 1 1 26
M  V30 30 1 1 27
M  V30 31 1 1 28
M  V30 32 1 4 29
M  V30 33 1 5 30
M  V30 34 1 8 31
M  V30 35 1 8 32
M  V30 36 1 8 33
M  V30 37 1 12 34
M  V30 38 1 13 35
M  V30 39 1 18 36
M  V30 40 1 19 37
M  V30 41 1 19 38
M  V30 42 1 20 39
M  V30 43 1 20 40
M  V30 44 1 22 41
M  V30 45 1 22 42
M  V30 46 1 25 43
M  V30 END BOND
M  V30 END CTAB
M  END
>  <Dataset>  (38) 
ChEMBL_Kinases

>  <Ligand_Instance>  (38) 
nan

>  <PDB_ID>  (38) 
nan

>  <Standardized_SMILES>  (38) 
COc1ccc(OC)c(Sc2ccc3nnc(C4CCOC4)n3n2)c1

>  <Name>  (38) 
nan

>  <Pocket>  (38) 
nan

>  <ATP_Site>  (38) 
nan

>  <Peripheral>  (38) 
nan

>  <Num_H_Atoms_ProtBoundConf>  (38) 
nan

>  <Num_Resolved_Atoms>  (38) 
nan

>  <Num_Not_Resolved_Atoms>  (38) 
nan

$$$$
CHEMBL3326120
     RDKit          3D

  0  0  0  0  0  0  0  0  0  0999 V3000
M  V30 BEGIN CTAB
M  V30 COUNTS 39 42 0 0 0
M  V30 BEGIN ATOM
M  V30 1 C -0.540744 -5.714690 0.782092 0
M  V30 2 O -0.770037 -4.570611 -0.032324 0
M  V30 3 C 0.211300 -3.584550 -0.028093 0
M  V30 4 C 1.343271 -3.746223 0.745602 0
M  V30 5 C 2.280408 -2.734425 0.708129 0
M  V30 6 C 2.174420 -1.580069 -0.038512 0
M  V30 7 O 3.151281 -0.593675 -0.037149 0
M  V30 8 C 4.292315 -0.808783 0.773611 0
M  V30 9 C 1.022106 -1.429317 -0.817930 0
M  V30 10 S 0.887880 0.052612 -1.775321 0
M  V30 11 C 0.089711 1.390760 -0.923466 0
M  V30 12 C -0.020298 2.553753 -1.663036 0
M  V30 13 C -0.614525 3.682675 -1.144974 0
M  V30 14 C -1.096518 3.604108 0.145975 0
M  V30 15 N -1.707867 4.531682 0.883803 0
M  V30 16 N -1.972571 3.967250 2.049322 0
M  V30 17 C -1.526421 2.697906 2.029695 0
M  V30 18 C -1.633534 1.741584 3.138876 0
M  V30 19 C -0.910790 0.473855 3.191944 0
M  V30 20 C -2.310101 0.409697 2.703606 0
M  V30 21 N -0.960447 2.444093 0.816856 0
M  V30 22 N -0.396447 1.346945 0.347611 0
M  V30 23 C 0.066093 -2.443442 -0.790386 0
M  V30 24 H -0.366601 -5.322833 1.825817 0
M  V30 25 H 0.457520 -6.117730 0.474433 0
M  V30 26 H -1.355484 -6.436934 0.731075 0
M  V30 27 H 1.518802 -4.623101 1.369679 0
M  V30 28 H 3.175806 -2.874137 1.327137 0
M  V30 29 H 4.750334 -1.811281 0.549932 0
M  V30 30 H 5.030962 0.005114 0.685025 0
M  V30 31 H 3.905196 -0.890475 1.816628 0
M  V30 32 H 0.347485 2.663083 -2.691346 0
M  V30 33 H -0.702945 4.598629 -1.722958 0
M  V30 34 H -2.143536 2.189108 4.041073 0
M  V30 35 H -0.054543 0.353692 2.487338 0
M  V30 36 H -0.717497 0.042789 4.204826 0
M  V30 37 H -3.083664 -0.008362 3.353392 0
M  V30 38 H -2.411429 0.206778 1.631603 0
M  V30 39 H -0.821926 -2.306280 -1.403470 0
M  V30 END ATOM
M  V30 BEGIN BOND
M  V30 1 1 1 2
M  V30 2 1 2 3
M  V30 3 2 3 4
M  V30 4 1 4 5
M  V30 5 2 5 6
M  V30 6 1 6 7
M  V30 7 1 7 8
M  V30 8 1 6 9
M  V30 9 1 9 10
M  V30 10 1 10 11
M  V30 11 1 11 12
M  V30 12 2 12 13
M  V30 13 1 13 14
M  V30 14 2 14 15
M  V30 15 1 15 16
M  V30 16 2 16 17
M  V30 17 1 17 18
M  V30 18 1 18 19
M  V30 19 1 19 20
M  V30 20 1 17 21
M  V30 21 1 21 22
M  V30 22 2 9 23
M  V30 23 1 23 3
M  V30 24 2 22 11
M  V30 25 1 21 14
M  V30 26 1 20 18
M  V30 27 1 1 24
M  V30 28 1 1 25
M  V30 29 1 1 26
M  V30 30 1 4 27
M  V30 31 1 5 28
M  V30 32 1 8 29
M  V30 33 1 8 30
M  V30 34 1 8 31
M  V30 35 1 12 32
M  V30 36 1 13 33
M  V30 37 1 18 34
M  V30 38 1 19 35
M  V30 39 1 19 36
M  V30 40 1 20 37
M  V30 41 1 20 38
M  V30 42 1 23 39
M  V30 END BOND
M  V30 END CTAB
M  END
>  <Dataset>  (39) 
ChEMBL_Kinases

>  <Ligand_Instance>  (39) 
nan

>  <PDB_ID>  (39) 
nan

>  <Standardized_SMILES>  (39) 
COc1ccc(OC)c(Sc2ccc3nnc(C4CC4)n3n2)c1

>  <Name>  (39) 
nan

>  <Pocket>  (39) 
nan

>  <ATP_Site>  (39) 
nan

>  <Peripheral>  (39) 
nan

>  <Num_H_Atoms_ProtBoundConf>  (39) 
nan

>  <Num_Resolved_Atoms>  (39) 
nan

>  <Num_Not_Resolved_Atoms>  (39) 
nan

$$$$
CHEMBL3326119
     RDKit          3D

  0  0  0  0  0  0  0  0  0  0999 V3000
M  V30 BEGIN CTAB
M  V30 COUNTS 45 48 0 0 0
M  V30 BEGIN ATOM
M  V30 1 C 0.071864 -4.453623 2.348745 0
M  V30 2 O 0.515841 -3.306590 1.653685 0
M  V30 3 C 1.846714 -2.941896 1.513889 0
M  V30 4 C 2.873115 -3.695222 2.060319 0
M  V30 5 N 4.110406 -3.214492 1.840762 0
M  V30 6 C 4.346669 -2.087097 1.143958 0
M  V30 7 C 3.338735 -1.321710 0.591164 0
M  V30 8 C 3.679213 -0.115841 -0.148114 0
M  V30 9 N 4.883639 0.180445 -0.649440 0
M  V30 10 N 4.869739 1.348641 -1.267539 0
M  V30 11 C 3.619398 1.829763 -1.167086 0
M  V30 12 C 3.123977 3.021022 -1.660112 0
M  V30 13 C 1.773348 3.265387 -1.404978 0
M  V30 14 C 1.048314 2.337561 -0.704103 0
M  V30 15 S -0.661453 2.786646 -0.455554 0
M  V30 16 C -1.522760 1.526318 0.461210 0
M  V30 17 C -1.597557 1.532272 1.847349 0
M  V30 18 C -2.271781 0.544881 2.555783 0
M  V30 19 O -2.313946 0.601858 3.944232 0
M  V30 20 C -3.020876 -0.440398 4.608342 0
M  V30 21 C -2.876912 -0.462007 1.825341 0
M  V30 22 C -2.819670 -0.495071 0.441783 0
M  V30 23 C -2.137960 0.505936 -0.244477 0
M  V30 24 O -2.071223 0.488641 -1.616857 0
M  V30 25 C -2.671990 -0.517329 -2.414035 0
M  V30 26 N 1.619412 1.183194 -0.252306 0
M  V30 27 N 2.895547 0.924389 -0.478502 0
M  V30 28 C 2.055277 -1.765629 0.784288 0
M  V30 29 H -0.953367 -4.295657 2.750882 0
M  V30 30 H 0.715233 -4.770285 3.172573 0
M  V30 31 H 0.024560 -5.272922 1.605282 0
M  V30 32 H 2.669890 -4.594308 2.615001 0
M  V30 33 H 5.402065 -1.805474 1.037895 0
M  V30 34 H 3.743237 3.712229 -2.204813 0
M  V30 35 H 1.387148 4.198762 -1.791830 0
M  V30 36 H -1.106878 2.341288 2.355332 0
M  V30 37 H -3.126883 -0.250935 5.690752 0
M  V30 38 H -2.503601 -1.383731 4.403113 0
M  V30 39 H -4.041962 -0.502262 4.140769 0
M  V30 40 H -3.412539 -1.250889 2.337542 0
M  V30 41 H -3.291822 -1.277950 -0.097143 0
M  V30 42 H -2.822182 -0.195262 -3.445739 0
M  V30 43 H -3.708790 -0.647123 -1.991776 0
M  V30 44 H -2.086169 -1.436775 -2.387230 0
M  V30 45 H 1.235815 -1.201762 0.371787 0
M  V30 END ATOM
M  V30 BEGIN BOND
M  V30 1 1 1 2
M  V30 2 1 2 3
M  V30 3 2 3 4
M  V30 4 1 4 5
M  V30 5 2 5 6
M  V30 6 1 6 7
M  V30 7 1 7 8
M  V30 8 2 8 9
M  V30 9 1 9 10
M  V30 10 2 10 11
M  V30 11 1 11 12
M  V30 12 2 12 13
M  V30 13 1 13 14
M  V30 14 1 14 15
M  V30 15 1 15 16
M  V30 16 2 16 17
M  V30 17 1 17 18
M  V30 18 1 18 19
M  V30 19 1 19 20
M  V30 20 2 18 21
M  V30 21 1 21 22
M  V30 22 2 22 23
M  V30 23 1 23 24
M  V30 24 1 24 25
M  V30 25 2 14 26
M  V30 26 1 26 27
M  V30 27 2 7 28
M  V30 28 1 28 3
M  V30 29 1 27 8
M  V30 30 1 27 11
M  V30 31 1 23 16
M  V30 32 1 1 29
M  V30 33 1 1 30
M  V30 34 1 1 31
M  V30 35 1 4 32
M  V30 36 1 6 33
M  V30 37 1 12 34
M  V30 38 1 13 35
M  V30 39 1 17 36
M  V30 40 1 20 37
M  V30 41 1 20 38
M  V30 42 1 20 39
M  V30 43 1 21 40
M  V30 44 1 22 41
M  V30 45 1 25 42
M  V30 46 1 25 43
M  V30 47 1 25 44
M  V30 48 1 28 45
M  V30 END BOND
M  V30 END CTAB
M  END
>  <Dataset>  (40) 
ChEMBL_Kinases

>  <Ligand_Instance>  (40) 
nan

>  <PDB_ID>  (40) 
nan

>  <Standardized_SMILES>  (40) 
COc1cncc(-c2nnc3ccc(Sc4cc(OC)ccc4OC)nn23)c1

>  <Name>  (40) 
nan

>  <Pocket>  (40) 
nan

>  <ATP_Site>  (40) 
nan

>  <Peripheral>  (40) 
nan

>  <Num_H_Atoms_ProtBoundConf>  (40) 
nan

>  <Num_Resolved_Atoms>  (40) 
nan

>  <Num_Not_Resolved_Atoms>  (40) 
nan

$$$$
CHEMBL3326118
     RDKit          3D

  0  0  0  0  0  0  0  0  0  0999 V3000
M  V30 BEGIN CTAB
M  V30 COUNTS 40 43 0 0 0
M  V30 BEGIN ATOM
M  V30 1 C 0.725112 -5.908670 -2.694509 0
M  V30 2 O 1.156480 -4.572039 -2.551858 0
M  V30 3 C 0.411311 -3.555571 -2.016276 0
M  V30 4 C -0.886571 -3.664262 -1.525316 0
M  V30 5 C -1.558522 -2.565296 -0.999473 0
M  V30 6 C -0.942532 -1.331499 -0.954485 0
M  V30 7 O -1.627080 -0.249514 -0.427624 0
M  V30 8 C -2.932749 -0.308394 0.078145 0
M  V30 9 C 0.343478 -1.216243 -1.439176 0
M  V30 10 S 1.191432 0.357933 -1.406457 0
M  V30 11 C 2.101942 0.576181 0.116878 0
M  V30 12 C 3.428695 0.173524 0.275488 0
M  V30 13 C 4.058938 0.383359 1.497953 0
M  V30 14 C 3.387269 0.981163 2.544333 0
M  V30 15 N 3.719508 1.306125 3.801773 0
M  V30 16 N 2.682579 1.872154 4.396578 0
M  V30 17 C 1.681435 1.903126 3.496523 0
M  V30 18 C 0.313827 2.430384 3.653853 0
M  V30 19 C -0.003961 2.975024 4.897518 0
M  V30 20 N -1.250037 3.462369 5.060654 0
M  V30 21 C -2.146830 3.422013 4.059662 0
M  V30 22 C -1.839372 2.878754 2.809745 0
M  V30 23 N -0.592790 2.396369 2.661296 0
M  V30 24 N 2.122120 1.348576 2.345759 0
M  V30 25 N 1.510126 1.151243 1.177071 0
M  V30 26 C 1.024092 -2.304302 -1.965903 0
M  V30 27 H 1.272423 -6.385415 -3.534749 0
M  V30 28 H 0.908386 -6.452962 -1.754138 0
M  V30 29 H -0.354096 -5.978571 -2.958799 0
M  V30 30 H -1.345205 -4.647182 -1.573931 0
M  V30 31 H -2.562022 -2.758942 -0.645648 0
M  V30 32 H -3.249459 0.742977 0.272749 0
M  V30 33 H -2.963666 -0.924825 0.995324 0
M  V30 34 H -3.643492 -0.691796 -0.680970 0
M  V30 35 H 3.927615 -0.292644 -0.565020 0
M  V30 36 H 5.080168 0.079553 1.637567 0
M  V30 37 H 0.670960 3.035250 5.736245 0
M  V30 38 H -3.121969 3.819106 4.232258 0
M  V30 39 H -2.543020 2.837022 1.995562 0
M  V30 40 H 2.048952 -2.172522 -2.342776 0
M  V30 END ATOM
M  V30 BEGIN BOND
M  V30 1 1 1 2
M  V30 2 1 2 3
M  V30 3 2 3 4
M  V30 4 1 4 5
M  V30 5 2 5 6
M  V30 6 1 6 7
M  V30 7 1 7 8
M  V30 8 1 6 9
M  V30 9 1 9 10
M  V30 10 1 10 11
M  V30 11 1 11 12
M  V30 12 2 12 13
M  V30 13 1 13 14
M  V30 14 2 14 15
M  V30 15 1 15 16
M  V30 16 2 16 17
M  V30 17 1 17 18
M  V30 18 2 18 19
M  V30 19 1 19 20
M  V30 20 2 20 21
M  V30 21 1 21 22
M  V30 22 2 22 23
M  V30 23 1 17 24
M  V30 24 1 24 25
M  V30 25 2 9 26
M  V30 26 1 26 3
M  V30 27 2 25 11
M  V30 28 1 24 14
M  V30 29 1 23 18
M  V30 30 1 1 27
M  V30 31 1 1 28
M  V30 32 1 1 29
M  V30 33 1 4 30
M  V30 34 1 5 31
M  V30 35 1 8 32
M  V30 36 1 8 33
M  V30 37 1 8 34
M  V30 38 1 12 35
M  V30 39 1 13 36
M  V30 40 1 19 37
M  V30 41 1 21 38
M  V30 42 1 22 39
M  V30 43 1 26 40
M  V30 END BOND
M  V30 END CTAB
M  END
>  <Dataset>  (41) 
ChEMBL_Kinases

>  <Ligand_Instance>  (41) 
nan

>  <PDB_ID>  (41) 
nan

>  <Standardized_SMILES>  (41) 
COc1ccc(OC)c(Sc2ccc3nnc(-c4cnccn4)n3n2)c1

>  <Name>  (41) 
nan

>  <Pocket>  (41) 
nan

>  <ATP_Site>  (41) 
nan

>  <Peripheral>  (41) 
nan

>  <Num_H_Atoms_ProtBoundConf>  (41) 
nan

>  <Num_Resolved_Atoms>  (41) 
nan

>  <Num_Not_Resolved_Atoms>  (41) 
nan

$$$$
CHEMBL3326117
     RDKit          3D

  0  0  0  0  0  0  0  0  0  0999 V3000
M  V30 BEGIN CTAB
M  V30 COUNTS 41 44 0 0 0
M  V30 BEGIN ATOM
M  V30 1 C 0.203828 -5.220973 2.510121 0
M  V30 2 O 1.161135 -4.348502 1.953427 0
M  V30 3 C 0.770349 -3.544758 0.890329 0
M  V30 4 C -0.503975 -3.563341 0.360037 0
M  V30 5 C -0.842511 -2.744847 -0.696880 0
M  V30 6 C 0.066251 -1.878343 -1.267926 0
M  V30 7 O -0.184777 -1.024724 -2.326081 0
M  V30 8 C -1.445778 -0.937975 -2.967792 0
M  V30 9 C 1.364323 -1.823744 -0.767432 0
M  V30 10 S 2.686693 -0.775790 -1.361507 0
M  V30 11 C 2.632237 0.765319 -0.459814 0
M  V30 12 C 3.542443 1.765795 -0.714174 0
M  V30 13 C 3.500713 2.957010 -0.017530 0
M  V30 14 C 2.536063 3.168132 0.956050 0
M  V30 15 N 2.215283 4.168865 1.795041 0
M  V30 16 N 1.154951 3.750816 2.505223 0
M  V30 17 C 0.800965 2.507227 2.131003 0
M  V30 18 C -0.294518 1.699214 2.656481 0
M  V30 19 C -0.892929 0.795162 1.812400 0
M  V30 20 C -1.945172 -0.017198 2.228563 0
M  V30 21 N -2.379098 0.098585 3.502268 0
M  V30 22 C -1.802502 0.974911 4.328364 0
M  V30 23 C -0.759905 1.794619 3.952182 0
M  V30 24 N 1.668240 2.132577 1.153349 0
M  V30 25 N 1.706229 0.993257 0.488762 0
M  V30 26 C 1.666937 -2.666628 0.301084 0
M  V30 27 H 0.660916 -5.940872 3.219827 0
M  V30 28 H -0.598124 -4.691381 3.065362 0
M  V30 29 H -0.293593 -5.799745 1.705027 0
M  V30 30 H -1.242109 -4.235170 0.788283 0
M  V30 31 H -1.849974 -2.755448 -1.120672 0
M  V30 32 H -1.876808 -1.959055 -3.076302 0
M  V30 33 H -2.175177 -0.348050 -2.377304 0
M  V30 34 H -1.312070 -0.511594 -3.974178 0
M  V30 35 H 4.292795 1.615702 -1.463647 0
M  V30 36 H 4.200758 3.761782 -0.193614 0
M  V30 37 H -0.627061 0.619973 0.777121 0
M  V30 38 H -2.436467 -0.745953 1.568514 0
M  V30 39 H -2.190176 1.025384 5.336811 0
M  V30 40 H -0.289939 2.508344 4.624185 0
M  V30 41 H 2.664389 -2.664632 0.730120 0
M  V30 END ATOM
M  V30 BEGIN BOND
M  V30 1 1 1 2
M  V30 2 1 2 3
M  V30 3 2 3 4
M  V30 4 1 4 5
M  V30 5 2 5 6
M  V30 6 1 6 7
M  V30 7 1 7 8
M  V30 8 1 6 9
M  V30 9 1 9 10
M  V30 10 1 10 11
M  V30 11 1 11 12
M  V30 12 2 12 13
M  V30 13 1 13 14
M  V30 14 2 14 15
M  V30 15 1 15 16
M  V30 16 2 16 17
M  V30 17 1 17 18
M  V30 18 2 18 19
M  V30 19 1 19 20
M  V30 20 2 20 21
M  V30 21 1 21 22
M  V30 22 2 22 23
M  V30 23 1 17 24
M  V30 24 1 24 25
M  V30 25 2 9 26
M  V30 26 1 26 3
M  V30 27 2 25 11
M  V30 28 1 24 14
M  V30 29 1 23 18
M  V30 30 1 1 27
M  V30 31 1 1 28
M  V30 32 1 1 29
M  V30 33 1 4 30
M  V30 34 1 5 31
M  V30 35 1 8 32
M  V30 36 1 8 33
M  V30 37 1 8 34
M  V30 38 1 12 35
M  V30 39 1 13 36
M  V30 40 1 19 37
M  V30 41 1 20 38
M  V30 42 1 22 39
M  V30 43 1 23 40
M  V30 44 1 26 41
M  V30 END BOND
M  V30 END CTAB
M  END
>  <Dataset>  (42) 
ChEMBL_Kinases

>  <Ligand_Instance>  (42) 
nan

>  <PDB_ID>  (42) 
nan

>  <Standardized_SMILES>  (42) 
COc1ccc(OC)c(Sc2ccc3nnc(-c4ccncc4)n3n2)c1

>  <Name>  (42) 
nan

>  <Pocket>  (42) 
nan

>  <ATP_Site>  (42) 
nan

>  <Peripheral>  (42) 
nan

>  <Num_H_Atoms_ProtBoundConf>  (42) 
nan

>  <Num_Resolved_Atoms>  (42) 
nan

>  <Num_Not_Resolved_Atoms>  (42) 
nan

$$$$
CHEMBL3326116
     RDKit          3D

  0  0  0  0  0  0  0  0  0  0999 V3000
M  V30 BEGIN CTAB
M  V30 COUNTS 41 44 0 0 0
M  V30 BEGIN ATOM
M  V30 1 C 0.078910 -5.139239 2.439822 0
M  V30 2 O 1.123972 -4.224785 2.097141 0
M  V30 3 C 0.965404 -3.421151 0.976222 0
M  V30 4 C -0.188524 -3.527630 0.230420 0
M  V30 5 C -0.397120 -2.753647 -0.891667 0
M  V30 6 C 0.569447 -1.850687 -1.279796 0
M  V30 7 O 0.599262 -0.971290 -2.351614 0
M  V30 8 C -0.401246 -0.812987 -3.310196 0
M  V30 9 C 1.738603 -1.744122 -0.522512 0
M  V30 10 S 3.102923 -0.626638 -0.874897 0
M  V30 11 C 2.761956 0.918584 -0.002115 0
M  V30 12 C 3.621449 1.984852 -0.068211 0
M  V30 13 C 3.364181 3.173740 0.600212 0
M  V30 14 C 2.187094 3.208500 1.333770 0
M  V30 15 N 1.640614 4.180638 2.085528 0
M  V30 16 N 0.499367 3.747813 2.596086 0
M  V30 17 C 0.276033 2.484032 2.188852 0
M  V30 18 C -0.815089 1.553561 2.454755 0
M  V30 19 C -1.076958 0.943046 3.673674 0
M  V30 20 C -2.165259 0.075586 3.758081 0
M  V30 21 C -2.982168 -0.187733 2.664494 0
M  V30 22 N -2.666949 0.437707 1.523772 0
M  V30 23 C -1.634175 1.283128 1.377381 0
M  V30 24 N 1.336064 2.167711 1.405657 0
M  V30 25 N 1.652648 1.081965 0.745384 0
M  V30 26 C 1.944518 -2.532634 0.615622 0
M  V30 27 H 0.371142 -5.813709 3.243247 0
M  V30 28 H -0.857859 -4.634132 2.686665 0
M  V30 29 H -0.092534 -5.760445 1.522450 0
M  V30 30 H -0.987328 -4.216168 0.479365 0
M  V30 31 H -1.252428 -2.747040 -1.550897 0
M  V30 32 H -1.043852 -1.717294 -3.299330 0
M  V30 33 H -1.060724 0.061484 -3.136901 0
M  V30 34 H 0.081412 -0.763243 -4.328823 0
M  V30 35 H 4.527855 1.918998 -0.649894 0
M  V30 36 H 4.045327 4.007525 0.543002 0
M  V30 37 H -0.420407 1.178690 4.480948 0
M  V30 38 H -2.335655 -0.379571 4.723957 0
M  V30 39 H -3.813692 -0.868938 2.783922 0
M  V30 40 H -1.564905 1.675408 0.366467 0
M  V30 41 H 2.821526 -2.485936 1.225039 0
M  V30 END ATOM
M  V30 BEGIN BOND
M  V30 1 1 1 2
M  V30 2 1 2 3
M  V30 3 2 3 4
M  V30 4 1 4 5
M  V30 5 2 5 6
M  V30 6 1 6 7
M  V30 7 1 7 8
M  V30 8 1 6 9
M  V30 9 1 9 10
M  V30 10 1 10 11
M  V30 11 1 11 12
M  V30 12 2 12 13
M  V30 13 1 13 14
M  V30 14 2 14 15
M  V30 15 1 15 16
M  V30 16 2 16 17
M  V30 17 1 17 18
M  V30 18 2 18 19
M  V30 19 1 19 20
M  V30 20 2 20 21
M  V30 21 1 21 22
M  V30 22 2 22 23
M  V30 23 1 17 24
M  V30 24 1 24 25
M  V30 25 2 9 26
M  V30 26 1 26 3
M  V30 27 2 25 11
M  V30 28 1 24 14
M  V30 29 1 23 18
M  V30 30 1 1 27
M  V30 31 1 1 28
M  V30 32 1 1 29
M  V30 33 1 4 30
M  V30 34 1 5 31
M  V30 35 1 8 32
M  V30 36 1 8 33
M  V30 37 1 8 34
M  V30 38 1 12 35
M  V30 39 1 13 36
M  V30 40 1 19 37
M  V30 41 1 20 38
M  V30 42 1 21 39
M  V30 43 1 23 40
M  V30 44 1 26 41
M  V30 END BOND
M  V30 END CTAB
M  END
>  <Dataset>  (43) 
ChEMBL_Kinases

>  <Ligand_Instance>  (43) 
nan

>  <PDB_ID>  (43) 
nan

>  <Standardized_SMILES>  (43) 
COc1ccc(OC)c(Sc2ccc3nnc(-c4cccnc4)n3n2)c1

>  <Name>  (43) 
nan

>  <Pocket>  (43) 
nan

>  <ATP_Site>  (43) 
nan

>  <Peripheral>  (43) 
nan

>  <Num_H_Atoms_ProtBoundConf>  (43) 
nan

>  <Num_Resolved_Atoms>  (43) 
nan

>  <Num_Not_Resolved_Atoms>  (43) 
nan

$$$$
CHEMBL3326115
     RDKit          3D

  0  0  0  0  0  0  0  0  0  0999 V3000
M  V30 BEGIN CTAB
M  V30 COUNTS 41 44 0 0 0
M  V30 BEGIN ATOM
M  V30 1 C -0.114755 -5.309853 2.167731 0
M  V30 2 O 0.924300 -4.460790 1.734077 0
M  V30 3 C 0.655263 -3.592726 0.684097 0
M  V30 4 C -0.561754 -3.507984 0.039022 0
M  V30 5 C -0.758790 -2.620924 -0.998444 0
M  V30 6 C 0.250740 -1.786954 -1.429409 0
M  V30 7 O 0.192779 -0.854844 -2.451626 0
M  V30 8 C -0.953145 -0.606902 -3.238661 0
M  V30 9 C 1.501119 -1.839135 -0.803918 0
M  V30 10 S 2.911022 -0.820089 -1.250154 0
M  V30 11 C 2.846030 0.690327 -0.276006 0
M  V30 12 C 3.821841 1.675760 -0.413366 0
M  V30 13 C 3.781276 2.838493 0.329345 0
M  V30 14 C 2.716572 2.968878 1.217375 0
M  V30 15 N 2.369711 3.955928 2.085014 0
M  V30 16 N 1.254512 3.605263 2.716834 0
M  V30 17 C 0.865498 2.395318 2.271309 0
M  V30 18 C -0.308211 1.597215 2.673591 0
M  V30 19 C -1.128513 2.146166 3.632327 0
M  V30 20 C -2.232638 1.398180 4.012475 0
M  V30 21 C -2.464323 0.167492 3.434869 0
M  V30 22 C -1.623971 -0.349480 2.480492 0
M  V30 23 N -0.556460 0.391392 2.123780 0
M  V30 24 N 1.770781 2.000737 1.342538 0
M  V30 25 N 1.849988 0.915597 0.618002 0
M  V30 26 C 1.668160 -2.742153 0.236928 0
M  V30 27 H 0.264214 -6.119682 2.840114 0
M  V30 28 H -0.921005 -4.782194 2.726310 0
M  V30 29 H -0.593028 -5.794966 1.297499 0
M  V30 30 H -1.366565 -4.154665 0.363169 0
M  V30 31 H -1.697786 -2.526383 -1.527317 0
M  V30 32 H -1.549117 -1.493721 -3.472489 0
M  V30 33 H -1.533029 0.237991 -2.806438 0
M  V30 34 H -0.576421 -0.236580 -4.235100 0
M  V30 35 H 4.628062 1.558394 -1.097215 0
M  V30 36 H 4.530924 3.614883 0.235675 0
M  V30 37 H -0.976616 3.111031 4.107745 0
M  V30 38 H -2.899704 1.779812 4.752457 0
M  V30 39 H -3.316002 -0.437548 3.710910 0
M  V30 40 H -1.744081 -1.306654 1.985656 0
M  V30 41 H 2.625960 -2.800681 0.735884 0
M  V30 END ATOM
M  V30 BEGIN BOND
M  V30 1 1 1 2
M  V30 2 1 2 3
M  V30 3 2 3 4
M  V30 4 1 4 5
M  V30 5 2 5 6
M  V30 6 1 6 7
M  V30 7 1 7 8
M  V30 8 1 6 9
M  V30 9 1 9 10
M  V30 10 1 10 11
M  V30 11 1 11 12
M  V30 12 2 12 13
M  V30 13 1 13 14
M  V30 14 2 14 15
M  V30 15 1 15 16
M  V30 16 2 16 17
M  V30 17 1 17 18
M  V30 18 2 18 19
M  V30 19 1 19 20
M  V30 20 2 20 21
M  V30 21 1 21 22
M  V30 22 2 22 23
M  V30 23 1 17 24
M  V30 24 1 24 25
M  V30 25 2 9 26
M  V30 26 1 26 3
M  V30 27 2 25 11
M  V30 28 1 24 14
M  V30 29 1 23 18
M  V30 30 1 1 27
M  V30 31 1 1 28
M  V30 32 1 1 29
M  V30 33 1 4 30
M  V30 34 1 5 31
M  V30 35 1 8 32
M  V30 36 1 8 33
M  V30 37 1 8 34
M  V30 38 1 12 35
M  V30 39 1 13 36
M  V30 40 1 19 37
M  V30 41 1 20 38
M  V30 42 1 21 39
M  V30 43 1 22 40
M  V30 44 1 26 41
M  V30 END BOND
M  V30 END CTAB
M  END
>  <Dataset>  (44) 
ChEMBL_Kinases

>  <Ligand_Instance>  (44) 
nan

>  <PDB_ID>  (44) 
nan

>  <Standardized_SMILES>  (44) 
COc1ccc(OC)c(Sc2ccc3nnc(-c4ccccn4)n3n2)c1

>  <Name>  (44) 
nan

>  <Pocket>  (44) 
nan

>  <ATP_Site>  (44) 
nan

>  <Peripheral>  (44) 
nan

>  <Num_H_Atoms_ProtBoundConf>  (44) 
nan

>  <Num_Resolved_Atoms>  (44) 
nan

>  <Num_Not_Resolved_Atoms>  (44) 
nan

$$$$
CHEMBL3326114
     RDKit          3D

  0  0  0  0  0  0  0  0  0  0999 V3000
M  V30 BEGIN CTAB
M  V30 COUNTS 42 45 0 0 0
M  V30 BEGIN ATOM
M  V30 1 C 0.489512 -5.457898 1.631578 0
M  V30 2 O 1.238905 -4.544673 0.847471 0
M  V30 3 C 0.553851 -3.546685 0.166533 0
M  V30 4 C -0.813244 -3.353158 0.178881 0
M  V30 5 C -1.403230 -2.329061 -0.533091 0
M  V30 6 C -0.661662 -1.447832 -1.291888 0
M  V30 7 O -1.174919 -0.406089 -2.026297 0
M  V30 8 C -2.521029 -0.051804 -2.138996 0
M  V30 9 C 0.715467 -1.602380 -1.335136 0
M  V30 10 S 1.843891 -0.546968 -2.272019 0
M  V30 11 C 2.356689 0.819777 -1.207633 0
M  V30 12 C 3.225859 1.820742 -1.613453 0
M  V30 13 C 3.553305 2.827561 -0.708547 0
M  V30 14 C 3.034282 2.844730 0.566681 0
M  V30 15 N 3.158852 3.650646 1.621312 0
M  V30 16 N 2.410541 3.156260 2.587858 0
M  V30 17 C 1.790591 2.029320 2.183585 0
M  V30 18 C 0.875464 1.148072 2.900885 0
M  V30 19 C -0.371243 1.114204 2.274965 0
M  V30 20 C -1.421679 0.345248 2.764986 0
M  V30 21 C -1.197153 -0.394304 3.902305 0
M  V30 22 C 0.032213 -0.365749 4.526173 0
M  V30 23 C 1.069097 0.396583 4.037941 0
M  V30 24 N 2.196798 1.852424 0.910955 0
M  V30 25 N 1.898137 0.914925 0.053364 0
M  V30 26 C 1.285605 -2.649219 -0.603499 0
M  V30 27 H 1.107524 -6.333037 1.936421 0
M  V30 28 H 0.095619 -4.991326 2.555744 0
M  V30 29 H -0.369580 -5.789281 0.982930 0
M  V30 30 H -1.399904 -4.041252 0.772270 0
M  V30 31 H -2.476954 -2.197913 -0.507491 0
M  V30 32 H -3.234538 -0.830274 -1.821079 0
M  V30 33 H -2.749438 0.925609 -1.630129 0
M  V30 34 H -2.744309 0.141874 -3.225987 0
M  V30 35 H 3.600022 1.753963 -2.624146 0
M  V30 36 H 4.231901 3.600252 -1.040163 0
M  V30 37 H -0.660220 1.662484 1.365704 0
M  V30 38 H -2.391811 0.290141 2.317425 0
M  V30 39 H -2.000850 -1.004762 4.307631 0
M  V30 40 H 0.253465 -0.929829 5.420611 0
M  V30 41 H 2.068466 0.504002 4.429381 0
M  V30 42 H 2.370600 -2.777872 -0.632320 0
M  V30 END ATOM
M  V30 BEGIN BOND
M  V30 1 1 1 2
M  V30 2 1 2 3
M  V30 3 2 3 4
M  V30 4 1 4 5
M  V30 5 2 5 6
M  V30 6 1 6 7
M  V30 7 1 7 8
M  V30 8 1 6 9
M  V30 9 1 9 10
M  V30 10 1 10 11
M  V30 11 1 11 12
M  V30 12 2 12 13
M  V30 13 1 13 14
M  V30 14 2 14 15
M  V30 15 1 15 16
M  V30 16 2 16 17
M  V30 17 1 17 18
M  V30 18 2 18 19
M  V30 19 1 19 20
M  V30 20 2 20 21
M  V30 21 1 21 22
M  V30 22 2 22 23
M  V30 23 1 17 24
M  V30 24 1 24 25
M  V30 25 2 9 26
M  V30 26 1 26 3
M  V30 27 2 25 11
M  V30 28 1 24 14
M  V30 29 1 23 18
M  V30 30 1 1 27
M  V30 31 1 1 28
M  V30 32 1 1 29
M  V30 33 1 4 30
M  V30 34 1 5 31
M  V30 35 1 8 32
M  V30 36 1 8 33
M  V30 37 1 8 34
M  V30 38 1 12 35
M  V30 39 1 13 36
M  V30 40 1 19 37
M  V30 41 1 20 38
M  V30 42 1 21 39
M  V30 43 1 22 40
M  V30 44 1 23 41
M  V30 45 1 26 42
M  V30 END BOND
M  V30 END CTAB
M  END
>  <Dataset>  (45) 
ChEMBL_Kinases

>  <Ligand_Instance>  (45) 
nan

>  <PDB_ID>  (45) 
nan

>  <Standardized_SMILES>  (45) 
COc1ccc(OC)c(Sc2ccc3nnc(-c4ccccc4)n3n2)c1

>  <Name>  (45) 
nan

>  <Pocket>  (45) 
nan

>  <ATP_Site>  (45) 
nan

>  <Peripheral>  (45) 
nan

>  <Num_H_Atoms_ProtBoundConf>  (45) 
nan

>  <Num_Resolved_Atoms>  (45) 
nan

>  <Num_Not_Resolved_Atoms>  (45) 
nan

$$$$
CHEMBL332575
     RDKit          3D

  0  0  0  0  0  0  0  0  0  0999 V3000
M  V30 BEGIN CTAB
M  V30 COUNTS 38 43 0 0 0
M  V30 BEGIN ATOM
M  V30 1 O 4.086733 -0.254434 1.197323 0
M  V30 2 C 3.010116 -0.842208 1.261493 0
M  V30 3 N 3.230285 -2.129764 1.796083 0
M  V30 4 C 1.929323 -2.764488 1.844238 0
M  V30 5 O 1.846461 -3.932061 2.285842 0
M  V30 6 C 1.016256 -1.763722 1.315351 0
M  V30 7 C 1.649197 -0.596026 0.957755 0
M  V30 8 C 0.946981 0.426569 0.452592 0
M  V30 9 C 1.541677 1.589061 0.091180 0
M  V30 10 C 2.851517 1.882999 0.176969 0
M  V30 11 C 3.504596 3.036094 -0.171867 0
M  V30 12 C 2.739278 4.051336 -0.683808 0
M  V30 13 C 1.379147 3.895236 -0.830913 0
M  V30 14 C 0.866298 2.665325 -0.430761 0
M  V30 15 C -0.495135 2.545679 -0.592246 0
M  V30 16 C -1.124736 1.385907 -0.237224 0
M  V30 17 C -0.405883 0.356003 0.273321 0
M  V30 18 C -1.080021 -0.796508 0.618712 0
M  V30 19 N -2.408035 -1.095541 0.532125 0
M  V30 20 C -2.528194 -2.342475 0.998906 0
M  V30 21 C -3.717253 -3.051656 1.093126 0
M  V30 22 C -3.655498 -4.327341 1.598891 0
M  V30 23 C -2.443070 -4.835958 1.982047 0
M  V30 24 C -1.318940 -4.060400 1.852078 0
M  V30 25 C -1.279482 -2.793766 1.365302 0
M  V30 26 C -0.335259 -1.833164 1.135845 0
M  V30 27 H 4.115243 -2.635404 2.128038 0
M  V30 28 H 3.509979 1.200324 0.543197 0
M  V30 29 H 4.559563 3.246110 -0.092370 0
M  V30 30 H 3.169663 4.995858 -0.985530 0
M  V30 31 H 0.757689 4.680873 -1.231542 0
M  V30 32 H -1.095905 3.332449 -0.990153 0
M  V30 33 H -2.191698 1.302585 -0.367845 0
M  V30 34 H -3.156888 -0.458854 0.169982 0
M  V30 35 H -4.660701 -2.665981 0.798909 0
M  V30 36 H -4.565320 -4.903427 1.684000 0
M  V30 37 H -2.365494 -5.835337 2.382728 0
M  V30 38 H -0.407774 -4.495027 2.160408 0
M  V30 END ATOM
M  V30 BEGIN BOND
M  V30 1 2 1 2
M  V30 2 1 2 3
M  V30 3 1 3 4
M  V30 4 2 4 5
M  V30 5 1 4 6
M  V30 6 2 6 7
M  V30 7 1 7 8
M  V30 8 2 8 9
M  V30 9 1 9 10
M  V30 10 2 10 11
M  V30 11 1 11 12
M  V30 12 2 12 13
M  V30 13 1 13 14
M  V30 14 2 14 15
M  V30 15 1 15 16
M  V30 16 2 16 17
M  V30 17 1 17 18
M  V30 18 1 18 19
M  V30 19 1 19 20
M  V30 20 2 20 21
M  V30 21 1 21 22
M  V30 22 2 22 23
M  V30 23 1 23 24
M  V30 24 2 24 25
M  V30 25 1 25 26
M  V30 26 1 7 2
M  V30 27 1 17 8
M  V30 28 2 26 18
M  V30 29 1 26 6
M  V30 30 1 14 9
M  V30 31 1 25 20
M  V30 32 1 3 27
M  V30 33 1 10 28
M  V30 34 1 11 29
M  V30 35 1 12 30
M  V30 36 1 13 31
M  V30 37 1 15 32
M  V30 38 1 16 33
M  V30 39 1 19 34
M  V30 40 1 21 35
M  V30 41 1 22 36
M  V30 42 1 23 37
M  V30 43 1 24 38
M  V30 END BOND
M  V30 END CTAB
M  END
>  <Dataset>  (46) 
ChEMBL_Kinases

>  <Ligand_Instance>  (46) 
nan

>  <PDB_ID>  (46) 
nan

>  <Standardized_SMILES>  (46) 
O=C1NC(=O)c2c1c1c3ccccc3ccc1c1[nH]c3ccccc3c21

>  <Name>  (46) 
nan

>  <Pocket>  (46) 
nan

>  <ATP_Site>  (46) 
nan

>  <Peripheral>  (46) 
nan

>  <Num_H_Atoms_ProtBoundConf>  (46) 
nan

>  <Num_Resolved_Atoms>  (46) 
nan

>  <Num_Not_Resolved_Atoms>  (46) 
nan

$$$$
CHEMBL332401
     RDKit          3D

  0  0  0  0  0  0  0  0  0  0999 V3000
M  V30 BEGIN CTAB
M  V30 COUNTS 44 47 0 0 0
M  V30 BEGIN ATOM
M  V30 1 O -1.300649 -4.571655 2.959345 0
M  V30 2 C -0.553083 -3.576287 2.788130 0
M  V30 3 N 0.020798 -2.889769 3.880936 0
M  V30 4 C 0.891737 -1.738902 3.820467 0
M  V30 5 C 1.136674 -1.327073 2.411649 0
M  V30 6 C 1.965860 -0.228279 2.304598 0
M  V30 7 C 2.309167 0.303012 1.055431 0
M  V30 8 N 3.152813 1.424134 0.848460 0
M  V30 9 S 2.743575 2.665979 -0.276500 0
M  V30 10 O 2.607403 2.091192 -1.676271 0
M  V30 11 O 3.834461 3.693826 -0.374009 0
M  V30 12 C 1.262338 3.431835 0.184019 0
M  V30 13 C 0.439976 3.186579 1.260887 0
M  V30 14 C -0.711667 3.922375 1.448233 0
M  V30 15 Cl -1.674961 3.517430 2.853598 0
M  V30 16 C -1.078215 4.928067 0.563795 0
M  V30 17 C -0.269299 5.186036 -0.515887 0
M  V30 18 C 0.893602 4.435807 -0.696221 0
M  V30 19 Cl 1.794855 4.915887 -2.134896 0
M  V30 20 C 1.764168 -0.344743 -0.049219 0
M  V30 21 C 0.937937 -1.440063 0.064415 0
M  V30 22 C 0.608313 -1.952742 1.304410 0
M  V30 23 N -0.233158 -3.073099 1.496464 0
M  V30 24 C -0.763660 -3.697588 0.326699 0
M  V30 25 C -0.034636 -4.707592 -0.239217 0
M  V30 26 Cl 1.495489 -5.274972 0.379186 0
M  V30 27 C -0.494168 -5.352270 -1.373199 0
M  V30 28 C -1.707668 -4.995753 -1.972354 0
M  V30 29 C -2.429916 -3.959573 -1.370324 0
M  V30 30 C -1.973389 -3.312936 -0.236574 0
M  V30 31 Cl -2.900383 -2.009263 0.505565 0
M  V30 32 H -0.149709 -3.177577 4.878447 0
M  V30 33 H 0.357933 -0.919348 4.374918 0
M  V30 34 H 1.833128 -2.015063 4.355869 0
M  V30 35 H 2.408751 0.300975 3.157006 0
M  V30 36 H 4.022110 1.398786 1.445310 0
M  V30 37 H 0.806552 2.389242 1.891225 0
M  V30 38 H -2.001705 5.455082 0.791128 0
M  V30 39 H -0.602573 5.975083 -1.166624 0
M  V30 40 H 1.932829 -0.058682 -1.061666 0
M  V30 41 H 0.500210 -1.963391 -0.774134 0
M  V30 42 H 0.018299 -6.166769 -1.892603 0
M  V30 43 H -2.087753 -5.490255 -2.865241 0
M  V30 44 H -3.374503 -3.648498 -1.797664 0
M  V30 END ATOM
M  V30 BEGIN BOND
M  V30 1 2 1 2
M  V30 2 1 2 3
M  V30 3 1 3 4
M  V30 4 1 4 5
M  V30 5 2 5 6
M  V30 6 1 6 7
M  V30 7 1 7 8
M  V30 8 1 8 9
M  V30 9 2 9 10
M  V30 10 2 9 11
M  V30 11 1 9 12
M  V30 12 2 12 13
M  V30 13 1 13 14
M  V30 14 1 14 15
M  V30 15 2 14 16
M  V30 16 1 16 17
M  V30 17 2 17 18
M  V30 18 1 18 19
M  V30 19 2 7 20
M  V30 20 1 20 21
M  V30 21 2 21 22
M  V30 22 1 22 23
M  V30 23 1 23 24
M  V30 24 2 24 25
M  V30 25 1 25 26
M  V30 26 1 25 27
M  V30 27 2 27 28
M  V30 28 1 28 29
M  V30 29 2 29 30
M  V30 30 1 30 31
M  V30 31 1 23 2
M  V30 32 1 30 24
M  V30 33 1 22 5
M  V30 34 1 18 12
M  V30 35 1 3 32
M  V30 36 1 4 33
M  V30 37 1 4 34
M  V30 38 1 6 35
M  V30 39 1 8 36
M  V30 40 1 13 37
M  V30 41 1 16 38
M  V30 42 1 17 39
M  V30 43 1 20 40
M  V30 44 1 21 41
M  V30 45 1 27 42
M  V30 46 1 28 43
M  V30 47 1 29 44
M  V30 END BOND
M  V30 END CTAB
M  END
>  <Dataset>  (47) 
ChEMBL_Kinases

>  <Ligand_Instance>  (47) 
nan

>  <PDB_ID>  (47) 
nan

>  <Standardized_SMILES>  (47) 
O=C1NCc2cc(NS(=O)(=O)c3cc(Cl)ccc3Cl)ccc2N1c1c(Cl)cccc1Cl

>  <Name>  (47) 
nan

>  <Pocket>  (47) 
nan

>  <ATP_Site>  (47) 
nan

>  <Peripheral>  (47) 
nan

>  <Num_H_Atoms_ProtBoundConf>  (47) 
nan

>  <Num_Resolved_Atoms>  (47) 
nan

>  <Num_Not_Resolved_Atoms>  (47) 
nan

$$$$
CHEMBL3323365
     RDKit          3D

  0  0  0  0  0  0  0  0  0  0999 V3000
M  V30 BEGIN CTAB
M  V30 COUNTS 42 44 0 0 0
M  V30 BEGIN ATOM
M  V30 1 C 2.154361 -4.475240 1.921662 0
M  V30 2 C 0.739306 -3.996294 1.764322 0
M  V30 3 C 0.068907 -4.087271 3.114667 0
M  V30 4 C -0.004616 -4.840718 0.786012 0
M  V30 5 C 0.724838 -2.568619 1.324795 0
M  V30 6 C 1.687644 -1.620523 1.039780 0
M  V30 7 C 0.979404 -0.480646 0.683919 0
M  V30 8 C 1.712082 0.729131 0.316728 0
M  V30 9 C 2.809310 0.722962 -0.533631 0
M  V30 10 C 3.429911 1.923565 -0.815543 0
M  V30 11 C 3.004044 3.137277 -0.285243 0
M  V30 12 O 3.680388 4.311001 -0.614732 0
M  V30 13 C 1.912266 3.157151 0.563154 0
M  V30 14 Cl 1.347103 4.660855 1.249163 0
M  V30 15 C 1.307254 1.945509 0.831180 0
M  V30 16 N -0.338767 -0.745780 0.756204 0
M  V30 17 C -1.341515 0.223105 0.450889 0
M  V30 18 C -1.412008 0.602395 -0.885860 0
M  V30 19 C -2.349150 1.544077 -1.324077 0
M  V30 20 C -3.207555 2.098349 -0.422360 0
M  V30 21 Cl -4.438402 3.295842 -0.831743 0
M  V30 22 C -3.147620 1.733375 0.893801 0
M  V30 23 C -2.224974 0.802932 1.339284 0
M  V30 24 N -0.476953 -1.993443 1.139258 0
M  V30 25 H 2.126009 -5.460908 2.430864 0
M  V30 26 H 2.670340 -4.649443 0.951222 0
M  V30 27 H 2.760206 -3.823073 2.560037 0
M  V30 28 H 0.848237 -4.030146 3.910049 0
M  V30 29 H -0.627008 -3.227812 3.205124 0
M  V30 30 H -0.528161 -5.037776 3.187742 0
M  V30 31 H -0.492850 -5.699777 1.323668 0
M  V30 32 H -0.805310 -4.263808 0.250113 0
M  V30 33 H 0.617189 -5.300551 -0.004753 0
M  V30 34 H 2.732110 -1.894589 1.131530 0
M  V30 35 H 3.125420 -0.219287 -0.934090 0
M  V30 36 H 4.276987 1.843879 -1.484421 0
M  V30 37 H 3.220610 5.199159 -0.457735 0
M  V30 38 H 0.456982 2.007006 1.499507 0
M  V30 39 H -0.780129 0.224763 -1.678058 0
M  V30 40 H -2.421638 1.852003 -2.351753 0
M  V30 41 H -3.811015 2.144186 1.664836 0
M  V30 42 H -2.118343 0.464637 2.366203 0
M  V30 END ATOM
M  V30 BEGIN BOND
M  V30 1 1 1 2
M  V30 2 1 2 3
M  V30 3 1 2 4
M  V30 4 1 2 5
M  V30 5 1 5 6
M  V30 6 2 6 7
M  V30 7 1 7 8
M  V30 8 2 8 9
M  V30 9 1 9 10
M  V30 10 2 10 11
M  V30 11 1 11 12
M  V30 12 1 11 13
M  V30 13 1 13 14
M  V30 14 2 13 15
M  V30 15 1 7 16
M  V30 16 1 16 17
M  V30 17 2 17 18
M  V30 18 1 18 19
M  V30 19 2 19 20
M  V30 20 1 20 21
M  V30 21 1 20 22
M  V30 22 2 22 23
M  V30 23 1 16 24
M  V30 24 2 24 5
M  V30 25 1 15 8
M  V30 26 1 23 17
M  V30 27 1 1 25
M  V30 28 1 1 26
M  V30 29 1 1 27
M  V30 30 1 3 28
M  V30 31 1 3 29
M  V30 32 1 3 30
M  V30 33 1 4 31
M  V30 34 1 4 32
M  V30 35 1 4 33
M  V30 36 1 6 34
M  V30 37 1 9 35
M  V30 38 1 10 36
M  V30 39 1 12 37
M  V30 40 1 15 38
M  V30 41 1 18 39
M  V30 42 1 19 40
M  V30 43 1 22 41
M  V30 44 1 23 42
M  V30 END BOND
M  V30 END CTAB
M  END
>  <Dataset>  (48) 
ChEMBL_Kinases

>  <Ligand_Instance>  (48) 
nan

>  <PDB_ID>  (48) 
nan

>  <Standardized_SMILES>  (48) 
CC(C)(C)c1cc(-c2ccc(O)c(Cl)c2)n(-c2ccc(Cl)cc2)n1

>  <Name>  (48) 
nan

>  <Pocket>  (48) 
nan

>  <ATP_Site>  (48) 
nan

>  <Peripheral>  (48) 
nan

>  <Num_H_Atoms_ProtBoundConf>  (48) 
nan

>  <Num_Resolved_Atoms>  (48) 
nan

>  <Num_Not_Resolved_Atoms>  (48) 
nan

$$$$
CHEMBL3323364
     RDKit          3D

  0  0  0  0  0  0  0  0  0  0999 V3000
M  V30 BEGIN CTAB
M  V30 COUNTS 46 49 0 0 0
M  V30 BEGIN ATOM
M  V30 1 C -0.315881 -2.691999 -0.245924 0
M  V30 2 C 0.625150 -2.175162 0.801145 0
M  V30 3 C 1.711806 -1.348068 0.396353 0
M  V30 4 C 2.935568 -0.842850 -0.254765 0
M  V30 5 C 3.982446 -0.412260 -0.812493 0
M  V30 6 C 5.038322 -0.571981 -1.612010 0
M  V30 7 C 5.100872 -1.833238 -2.157921 0
M  V30 8 C 4.056885 -2.701801 -1.775593 0
M  V30 9 C 3.036300 -2.215442 -0.871042 0
M  V30 10 O 2.328466 -3.468018 -0.874669 0
M  V30 11 N 1.599112 -0.202006 1.027057 0
M  V30 12 N 0.506491 -0.129441 1.871905 0
M  V30 13 C -0.031727 0.832854 2.816671 0
M  V30 14 C -1.036272 0.644757 3.729315 0
M  V30 15 C -1.415682 1.682965 4.539588 0
M  V30 16 C -0.790796 2.934126 4.447865 0
M  V30 17 C 0.216398 3.132780 3.537458 0
M  V30 18 Cl 0.963509 4.718497 3.463372 0
M  V30 19 C 0.577182 2.072079 2.736050 0
M  V30 20 C -0.233388 -1.327661 1.728525 0
M  V30 21 C -1.550749 -0.947410 1.107524 0
M  V30 22 C -1.361274 -0.080447 0.023383 0
M  V30 23 C -2.418568 0.425682 -0.722924 0
M  V30 24 C -3.690671 0.042526 -0.358962 0
M  V30 25 O -4.855135 0.468557 -1.011986 0
M  V30 26 C -3.899014 -0.807466 0.701458 0
M  V30 27 F -5.107513 -1.249080 1.146507 0
M  V30 28 C -2.862357 -1.315430 1.447913 0
M  V30 29 H -1.389160 -2.532316 -0.024575 0
M  V30 30 H -0.250442 -3.828888 -0.244223 0
M  V30 31 H -0.147845 -2.282807 -1.263531 0
M  V30 32 H 1.026781 -3.049660 1.420427 0
M  V30 33 H 3.762356 0.577155 -0.267993 0
M  V30 34 H 5.633630 0.306186 -1.675828 0
M  V30 35 H 5.953021 -1.928635 -2.791848 0
M  V30 36 H 4.321367 -3.621141 -2.323555 0
M  V30 37 H 1.803953 -3.734116 -1.685269 0
M  V30 38 H -1.463012 -0.340734 3.745860 0
M  V30 39 H -2.211626 1.459961 5.233502 0
M  V30 40 H -1.179366 3.685269 5.148077 0
M  V30 41 H 1.383950 2.301219 2.037123 0
M  V30 42 H -0.416467 -1.870858 2.686188 0
M  V30 43 H -0.395463 0.276169 -0.335439 0
M  V30 44 H -2.298884 1.094849 -1.561107 0
M  V30 45 H -5.532240 -0.215000 -1.329223 0
M  V30 46 H -2.821737 -1.978185 2.295518 0
M  V30 END ATOM
M  V30 BEGIN BOND
M  V30 1 1 1 2
M  V30 2 1 2 3
M  V30 3 1 3 4
M  V30 4 2 4 5
M  V30 5 1 5 6
M  V30 6 2 6 7
M  V30 7 1 7 8
M  V30 8 2 8 9
M  V30 9 1 9 10
M  V30 10 2 3 11
M  V30 11 1 11 12
M  V30 12 1 12 13
M  V30 13 2 13 14
M  V30 14 1 14 15
M  V30 15 2 15 16
M  V30 16 1 16 17
M  V30 17 1 17 18
M  V30 18 2 17 19
M  V30 19 1 12 20
M  V30 20 1 20 21
M  V30 21 2 21 22
M  V30 22 1 22 23
M  V30 23 2 23 24
M  V30 24 1 24 25
M  V30 25 1 24 26
M  V30 26 1 26 27
M  V30 27 2 26 28
M  V30 28 1 20 2
M  V30 29 1 28 21
M  V30 30 1 9 4
M  V30 31 1 19 13
M  V30 32 1 1 29
M  V30 33 1 1 30
M  V30 34 1 1 31
M  V30 35 1 2 32
M  V30 36 1 5 33
M  V30 37 1 6 34
M  V30 38 1 7 35
M  V30 39 1 8 36
M  V30 40 1 10 37
M  V30 41 1 14 38
M  V30 42 1 15 39
M  V30 43 1 16 40
M  V30 44 1 19 41
M  V30 45 1 20 42
M  V30 46 1 22 43
M  V30 47 1 23 44
M  V30 48 1 25 45
M  V30 49 1 28 46
M  V30 END BOND
M  V30 END CTAB
M  END
>  <Dataset>  (49) 
ChEMBL_Kinases

>  <Ligand_Instance>  (49) 
nan

>  <PDB_ID>  (49) 
nan

>  <Standardized_SMILES>  (49) 
CC1C(c2ccccc2O)=NN(c2cccc(Cl)c2)C1c1ccc(O)c(F)c1

>  <Name>  (49) 
nan

>  <Pocket>  (49) 
nan

>  <ATP_Site>  (49) 
nan

>  <Peripheral>  (49) 
nan

>  <Num_H_Atoms_ProtBoundConf>  (49) 
nan

>  <Num_Resolved_Atoms>  (49) 
nan

>  <Num_Not_Resolved_Atoms>  (49) 
nan

$$$$
CHEMBL3326739
     RDKit          3D

  0  0  0  0  0  0  0  0  0  0999 V3000
M  V30 BEGIN CTAB
M  V30 COUNTS 25 27 0 0 0
M  V30 BEGIN ATOM
M  V30 1 Br -2.216213 -1.907460 4.628199 0
M  V30 2 C -0.604292 -1.348688 3.805551 0
M  V30 3 C -0.402697 -1.420320 2.442978 0
M  V30 4 C 0.829611 -0.960954 2.100555 0
M  V30 5 C 1.618428 -0.769860 0.964782 0
M  V30 6 N 0.919207 -1.187611 -0.217586 0
M  V30 7 C 0.061919 -0.278432 -0.913268 0
M  V30 8 C -0.638141 -0.640393 -2.030337 0
M  V30 9 C -1.482553 0.186773 -2.741006 0
M  V30 10 N -1.615204 1.462790 -2.275281 0
M  V30 11 C -0.929566 1.821874 -1.179113 0
M  V30 12 C -0.077307 1.032582 -0.439247 0
M  V30 13 N 2.858951 -0.257964 1.056958 0
M  V30 14 C 3.351141 0.078897 2.285677 0
M  V30 15 N 2.616590 -0.092946 3.399201 0
M  V30 16 N 1.400796 -0.597881 3.278344 0
M  V30 17 C 0.581847 -0.811647 4.322837 0
M  V30 18 H -1.094784 -1.783323 1.693907 0
M  V30 19 H 1.006106 -2.153386 -0.611404 0
M  V30 20 H -0.490826 -1.663972 -2.349446 0
M  V30 21 H -1.989008 -0.215147 -3.619605 0
M  V30 22 H -1.111282 2.859586 -0.898478 0
M  V30 23 H 0.439257 1.401092 0.435902 0
M  V30 24 H 4.352123 0.486497 2.311492 0
M  V30 25 H 0.701345 -0.644744 5.378353 0
M  V30 END ATOM
M  V30 BEGIN BOND
M  V30 1 1 1 2
M  V30 2 1 2 3
M  V30 3 2 3 4
M  V30 4 1 4 5
M  V30 5 1 5 6
M  V30 6 1 6 7
M  V30 7 2 7 8
M  V30 8 1 8 9
M  V30 9 2 9 10
M  V30 10 1 10 11
M  V30 11 2 11 12
M  V30 12 2 5 13
M  V30 13 1 13 14
M  V30 14 2 14 15
M  V30 15 1 15 16
M  V30 16 1 16 17
M  V30 17 2 17 2
M  V30 18 1 16 4
M  V30 19 1 12 7
M  V30 20 1 3 18
M  V30 21 1 6 19
M  V30 22 1 8 20
M  V30 23 1 9 21
M  V30 24 1 11 22
M  V30 25 1 12 23
M  V30 26 1 14 24
M  V30 27 1 17 25
M  V30 END BOND
M  V30 END CTAB
M  END
>  <Dataset>  (50) 
ChEMBL_Kinases

>  <Ligand_Instance>  (50) 
nan

>  <PDB_ID>  (50) 
nan

>  <Standardized_SMILES>  (50) 
Brc1cc2c(Nc3ccncc3)ncnn2c1

>  <Name>  (50) 
nan

>  <Pocket>  (50) 
nan

>  <ATP_Site>  (50) 
nan

>  <Peripheral>  (50) 
nan

>  <Num_H_Atoms_ProtBoundConf>  (50) 
nan

>  <Num_Resolved_Atoms>  (50) 
nan

>  <Num_Not_Resolved_Atoms>  (50) 
nan

$$$$
CHEMBL3323333
     RDKit          3D

  0  0  0  0  0  0  0  0  0  0999 V3000
M  V30 BEGIN CTAB
M  V30 COUNTS 43 46 0 0 0
M  V30 BEGIN ATOM
M  V30 1 O 0.675085 -4.371563 -0.502715 0
M  V30 2 C 1.966743 -3.908288 -0.339860 0
M  V30 3 C 2.982425 -4.847895 -0.330545 0
M  V30 4 C 4.264176 -4.369890 -0.167492 0
M  V30 5 C 4.629450 -3.042806 -0.012736 0
M  V30 6 C 3.591792 -2.133375 -0.026793 0
M  V30 7 C 2.291496 -2.578745 -0.188599 0
M  V30 8 C 1.249638 -1.563460 -0.196511 0
M  V30 9 N 0.291118 -0.820368 -0.220513 0
M  V30 10 N 0.322624 0.492952 -0.103716 0
M  V30 11 C 0.369929 1.899176 0.018631 0
M  V30 12 C -0.796950 2.578346 0.317895 0
M  V30 13 C -0.749467 3.952370 0.437519 0
M  V30 14 C 0.471403 4.551811 0.247582 0
M  V30 15 C 1.647520 3.898618 -0.051118 0
M  V30 16 Cl 3.160156 4.763522 -0.274848 0
M  V30 17 C 1.601820 2.524003 -0.171159 0
M  V30 18 C -0.775066 -0.430712 0.027762 0
M  V30 19 C -1.325460 -0.441742 1.415577 0
M  V30 20 C -0.556548 -0.127499 2.515332 0
M  V30 21 C -1.099210 -0.145984 3.796766 0
M  V30 22 C -2.421083 -0.478157 4.012393 0
M  V30 23 O -2.967928 -0.498381 5.287546 0
M  V30 24 C -3.213174 -0.797836 2.920929 0
M  V30 25 F -4.533932 -1.138919 3.042722 0
M  V30 26 C -2.659544 -0.775244 1.651188 0
M  V30 27 F -3.401782 -1.079795 0.578163 0
M  V30 28 C -0.211065 -1.752712 -0.369933 0
M  V30 29 H 0.432955 -5.223210 0.025500 0
M  V30 30 H 2.784702 -5.902950 -0.444833 0
M  V30 31 H 5.052623 -5.115463 -0.161604 0
M  V30 32 H 5.697573 -2.815195 0.107544 0
M  V30 33 H 3.865583 -1.098624 0.093043 0
M  V30 34 H -1.733698 2.055230 0.457575 0
M  V30 35 H -1.620302 4.556284 0.669967 0
M  V30 36 H 0.548410 5.627902 0.333534 0
M  V30 37 H 2.491931 1.935047 -0.406206 0
M  V30 38 H -1.636890 -0.195441 -0.657164 0
M  V30 39 H 0.480660 0.138612 2.401441 0
M  V30 40 H -0.451260 0.111428 4.647334 0
M  V30 41 H -3.734130 -1.121429 5.530161 0
M  V30 42 H -0.501777 -2.576437 0.373965 0
M  V30 43 H -0.505580 -2.112563 -1.394934 0
M  V30 END ATOM
M  V30 BEGIN BOND
M  V30 1 1 1 2
M  V30 2 2 2 3
M  V30 3 1 3 4
M  V30 4 2 4 5
M  V30 5 1 5 6
M  V30 6 2 6 7
M  V30 7 1 7 8
M  V30 8 2 8 9
M  V30 9 1 9 10
M  V30 10 1 10 11
M  V30 11 2 11 12
M  V30 12 1 12 13
M  V30 13 2 13 14
M  V30 14 1 14 15
M  V30 15 1 15 16
M  V30 16 2 15 17
M  V30 17 1 10 18
M  V30 18 1 18 19
M  V30 19 2 19 20
M  V30 20 1 20 21
M  V30 21 2 21 22
M  V30 22 1 22 23
M  V30 23 1 22 24
M  V30 24 1 24 25
M  V30 25 2 24 26
M  V30 26 1 26 27
M  V30 27 1 18 28
M  V30 28 1 7 2
M  V30 29 1 28 8
M  V30 30 1 17 11
M  V30 31 1 26 19
M  V30 32 1 1 29
M  V30 33 1 3 30
M  V30 34 1 4 31
M  V30 35 1 5 32
M  V30 36 1 6 33
M  V30 37 1 12 34
M  V30 38 1 13 35
M  V30 39 1 14 36
M  V30 40 1 17 37
M  V30 41 1 18 38
M  V30 42 1 20 39
M  V30 43 1 21 40
M  V30 44 1 23 41
M  V30 45 1 28 42
M  V30 46 1 28 43
M  V30 END BOND
M  V30 END CTAB
M  END
>  <Dataset>  (51) 
ChEMBL_Kinases

>  <Ligand_Instance>  (51) 
nan

>  <PDB_ID>  (51) 
nan

>  <Standardized_SMILES>  (51) 
Oc1ccccc1C1=NN(c2cccc(Cl)c2)C(c2ccc(O)c(F)c2F)C1

>  <Name>  (51) 
nan

>  <Pocket>  (51) 
nan

>  <ATP_Site>  (51) 
nan

>  <Peripheral>  (51) 
nan

>  <Num_H_Atoms_ProtBoundConf>  (51) 
nan

>  <Num_Resolved_Atoms>  (51) 
nan

>  <Num_Not_Resolved_Atoms>  (51) 
nan

$$$$
CHEMBL3323334
     RDKit          3D

  0  0  0  0  0  0  0  0  0  0999 V3000
M  V30 BEGIN CTAB
M  V30 COUNTS 44 46 0 0 0
M  V30 BEGIN ATOM
M  V30 1 C 0.510913 -4.689987 1.647586 0
M  V30 2 C -0.559836 -3.666792 1.442540 0
M  V30 3 C -1.291516 -3.533207 2.775257 0
M  V30 4 C -1.556135 -4.179472 0.435256 0
M  V30 5 C -0.014736 -2.337382 1.054260 0
M  V30 6 N 1.181895 -1.883156 0.857730 0
M  V30 7 N 1.161461 -0.521755 0.496734 0
M  V30 8 C 2.300657 0.259143 0.890454 0
M  V30 9 C 3.513032 -0.171551 0.364044 0
M  V30 10 C 4.682277 0.497654 0.668187 0
M  V30 11 C 4.622691 1.596168 1.500467 0
M  V30 12 F 5.706292 2.340199 1.875026 0
M  V30 13 C 3.429984 2.038902 2.032588 0
M  V30 14 F 3.272376 3.105389 2.857374 0
M  V30 15 C 2.270214 1.360678 1.720114 0
M  V30 16 F 1.061756 1.733253 2.203106 0
M  V30 17 C -0.110599 -0.426148 -0.190886 0
M  V30 18 C -0.576728 0.945633 -0.420322 0
M  V30 19 C -1.883852 1.360229 -0.184962 0
M  V30 20 C -2.277263 2.674259 -0.419232 0
M  V30 21 C -1.368398 3.612807 -0.897628 0
M  V30 22 O -1.721062 4.936334 -1.144987 0
M  V30 23 C -0.060274 3.217937 -1.138311 0
M  V30 24 C 0.261649 1.913140 -0.887720 0
M  V30 25 C -0.969841 -1.196688 0.810465 0
M  V30 26 H 0.015333 -5.691781 1.558481 0
M  V30 27 H 1.293993 -4.667741 0.866117 0
M  V30 28 H 0.941495 -4.680868 2.680250 0
M  V30 29 H -0.575770 -3.344638 3.615337 0
M  V30 30 H -1.693356 -4.563991 2.984815 0
M  V30 31 H -2.119201 -2.814378 2.739557 0
M  V30 32 H -1.658484 -5.263545 0.431579 0
M  V30 33 H -1.126656 -3.910670 -0.570815 0
M  V30 34 H -2.516542 -3.614174 0.498755 0
M  V30 35 H 3.644546 -1.021610 -0.294356 0
M  V30 36 H 5.683200 0.278268 0.335531 0
M  V30 37 H -0.119181 -1.046342 -1.119794 0
M  V30 38 H -2.612092 0.638882 0.190490 0
M  V30 39 H -3.295926 3.017108 -0.240875 0
M  V30 40 H -1.119991 5.632145 -0.700003 0
M  V30 41 H 0.706676 3.905327 -1.515171 0
M  V30 42 H 1.300453 1.618744 -1.083756 0
M  V30 43 H -1.005513 -0.613047 1.742729 0
M  V30 44 H -1.930058 -1.514094 0.411577 0
M  V30 END ATOM
M  V30 BEGIN BOND
M  V30 1 1 1 2
M  V30 2 1 2 3
M  V30 3 1 2 4
M  V30 4 1 2 5
M  V30 5 2 5 6
M  V30 6 1 6 7
M  V30 7 1 7 8
M  V30 8 2 8 9
M  V30 9 1 9 10
M  V30 10 2 10 11
M  V30 11 1 11 12
M  V30 12 1 11 13
M  V30 13 1 13 14
M  V30 14 2 13 15
M  V30 15 1 15 16
M  V30 16 1 7 17
M  V30 17 1 17 18
M  V30 18 2 18 19
M  V30 19 1 19 20
M  V30 20 2 20 21
M  V30 21 1 21 22
M  V30 22 1 21 23
M  V30 23 2 23 24
M  V30 24 1 17 25
M  V30 25 1 25 5
M  V30 26 1 15 8
M  V30 27 1 24 18
M  V30 28 1 1 26
M  V30 29 1 1 27
M  V30 30 1 1 28
M  V30 31 1 3 29
M  V30 32 1 3 30
M  V30 33 1 3 31
M  V30 34 1 4 32
M  V30 35 1 4 33
M  V30 36 1 4 34
M  V30 37 1 9 35
M  V30 38 1 10 36
M  V30 39 1 17 37
M  V30 40 1 19 38
M  V30 41 1 20 39
M  V30 42 1 22 40
M  V30 43 1 23 41
M  V30 44 1 24 42
M  V30 45 1 25 43
M  V30 46 1 25 44
M  V30 END BOND
M  V30 END CTAB
M  END
>  <Dataset>  (52) 
ChEMBL_Kinases

>  <Ligand_Instance>  (52) 
nan

>  <PDB_ID>  (52) 
nan

>  <Standardized_SMILES>  (52) 
CC(C)(C)C1=NN(c2ccc(F)c(F)c2F)C(c2ccc(O)cc2)C1

>  <Name>  (52) 
nan

>  <Pocket>  (52) 
nan

>  <ATP_Site>  (52) 
nan

>  <Peripheral>  (52) 
nan

>  <Num_H_Atoms_ProtBoundConf>  (52) 
nan

>  <Num_Resolved_Atoms>  (52) 
nan

>  <Num_Not_Resolved_Atoms>  (52) 
nan

$$$$
CHEMBL3323336
     RDKit          3D

  0  0  0  0  0  0  0  0  0  0999 V3000
M  V30 BEGIN CTAB
M  V30 COUNTS 42 45 0 0 0
M  V30 BEGIN ATOM
M  V30 1 O 0.687625 -6.567070 2.177102 0
M  V30 2 C 0.814274 -5.224240 1.838052 0
M  V30 3 C 1.065048 -4.717550 0.585412 0
M  V30 4 C 1.167463 -3.357723 0.385224 0
M  V30 5 C 1.024319 -2.434223 1.427797 0
M  V30 6 C 1.180880 -1.054852 1.046188 0
M  V30 7 C 1.152216 -0.812005 -0.477045 0
M  V30 8 C 1.157266 0.708198 -0.428405 0
M  V30 9 C 1.710154 1.558749 -1.475433 0
M  V30 10 C 2.277999 1.010767 -2.606680 0
M  V30 11 C 2.796095 1.854122 -3.586018 0
M  V30 12 C 2.701629 3.226135 -3.347475 0
M  V30 13 C 2.139654 3.800071 -2.226677 0
M  V30 14 C 1.634429 2.927138 -1.273657 0
M  V30 15 N 0.598394 1.026337 0.676307 0
M  V30 16 N 0.185674 -0.105104 1.434014 0
M  V30 17 C -0.964589 0.078378 2.253829 0
M  V30 18 C -1.874571 -0.906908 2.560029 0
M  V30 19 C -2.980011 -0.772528 3.369097 0
M  V30 20 C -3.186620 0.473328 3.920320 0
M  V30 21 Cl -4.563050 0.751542 4.964503 0
M  V30 22 C -2.328239 1.521259 3.669511 0
M  V30 23 C -1.251207 1.288877 2.848271 0
M  V30 24 C 0.775518 -2.998502 2.653955 0
M  V30 25 C 0.666833 -4.352408 2.890468 0
M  V30 26 H -0.272370 -6.938202 2.098509 0
M  V30 27 H 1.168393 -5.457574 -0.187066 0
M  V30 28 H 1.366794 -3.111978 -0.653155 0
M  V30 29 H 2.208694 -0.725419 1.354674 0
M  V30 30 H 2.030858 -1.211382 -0.975705 0
M  V30 31 H 0.178624 -1.089526 -0.897207 0
M  V30 32 H 2.335325 -0.045284 -2.760213 0
M  V30 33 H 3.252095 1.486935 -4.491582 0
M  V30 34 H 3.103635 3.908538 -4.106272 0
M  V30 35 H 2.115151 4.883435 -2.136208 0
M  V30 36 H 1.185404 3.332305 -0.380220 0
M  V30 37 H -1.768921 -1.897333 2.145123 0
M  V30 38 H -3.662050 -1.564025 3.581768 0
M  V30 39 H -2.496420 2.502536 4.107119 0
M  V30 40 H -0.599752 2.146722 2.678258 0
M  V30 41 H 0.665755 -2.267822 3.459481 0
M  V30 42 H 0.466496 -4.666254 3.915718 0
M  V30 END ATOM
M  V30 BEGIN BOND
M  V30 1 1 1 2
M  V30 2 2 2 3
M  V30 3 1 3 4
M  V30 4 2 4 5
M  V30 5 1 5 6
M  V30 6 1 6 7
M  V30 7 1 7 8
M  V30 8 1 8 9
M  V30 9 2 9 10
M  V30 10 1 10 11
M  V30 11 2 11 12
M  V30 12 1 12 13
M  V30 13 2 13 14
M  V30 14 2 8 15
M  V30 15 1 15 16
M  V30 16 1 16 17
M  V30 17 2 17 18
M  V30 18 1 18 19
M  V30 19 2 19 20
M  V30 20 1 20 21
M  V30 21 1 20 22
M  V30 22 2 22 23
M  V30 23 1 5 24
M  V30 24 2 24 25
M  V30 25 1 25 2
M  V30 26 1 16 6
M  V30 27 1 23 17
M  V30 28 1 14 9
M  V30 29 1 1 26
M  V30 30 1 3 27
M  V30 31 1 4 28
M  V30 32 1 6 29
M  V30 33 1 7 30
M  V30 34 1 7 31
M  V30 35 1 10 32
M  V30 36 1 11 33
M  V30 37 1 12 34
M  V30 38 1 13 35
M  V30 39 1 14 36
M  V30 40 1 18 37
M  V30 41 1 19 38
M  V30 42 1 22 39
M  V30 43 1 23 40
M  V30 44 1 24 41
M  V30 45 1 25 42
M  V30 END BOND
M  V30 END CTAB
M  END
>  <Dataset>  (53) 
ChEMBL_Kinases

>  <Ligand_Instance>  (53) 
nan

>  <PDB_ID>  (53) 
nan

>  <Standardized_SMILES>  (53) 
Oc1ccc(C2CC(c3ccccc3)=NN2c2ccc(Cl)cc2)cc1

>  <Name>  (53) 
nan

>  <Pocket>  (53) 
nan

>  <ATP_Site>  (53) 
nan

>  <Peripheral>  (53) 
nan

>  <Num_H_Atoms_ProtBoundConf>  (53) 
nan

>  <Num_Resolved_Atoms>  (53) 
nan

>  <Num_Not_Resolved_Atoms>  (53) 
nan

$$$$
CHEMBL3323337
     RDKit          3D

  0  0  0  0  0  0  0  0  0  0999 V3000
M  V30 BEGIN CTAB
M  V30 COUNTS 42 45 0 0 0
M  V30 BEGIN ATOM
M  V30 1 O 0.401373 -6.734133 0.678661 0
M  V30 2 C 0.589403 -5.362469 0.769556 0
M  V30 3 C 0.901556 -4.613135 -0.343962 0
M  V30 4 C 1.081794 -3.254578 -0.220649 0
M  V30 5 C 0.965309 -2.567192 0.995175 0
M  V30 6 C 1.210105 -1.145136 0.932336 0
M  V30 7 C 1.196166 -0.587433 -0.491136 0
M  V30 8 C 1.174805 0.895422 -0.159995 0
M  V30 9 C 1.702296 1.956332 -1.015555 0
M  V30 10 C 2.274723 1.634666 -2.231431 0
M  V30 11 C 2.762661 2.639129 -3.018335 0
M  V30 12 C 2.686423 3.954177 -2.608146 0
M  V30 13 C 2.106786 4.224427 -1.387780 0
M  V30 14 C 1.590518 3.248523 -0.538235 0
M  V30 15 N 0.609788 0.977765 0.994280 0
M  V30 16 N 0.224581 -0.268375 1.522562 0
M  V30 17 C -0.902175 -0.241187 2.395566 0
M  V30 18 C -1.873287 -1.217052 2.468554 0
M  V30 19 C -2.946381 -1.222927 3.322295 0
M  V30 20 C -3.047234 -0.149069 4.176016 0
M  V30 21 C -2.132747 0.880658 4.185995 0
M  V30 22 Cl -2.286245 2.241671 5.287887 0
M  V30 23 C -1.096865 0.788817 3.292013 0
M  V30 24 C 0.655432 -3.365714 2.055349 0
M  V30 25 C 0.464059 -4.730051 1.989095 0
M  V30 26 H -0.223150 -7.175813 1.349910 0
M  V30 27 H 0.996901 -5.120959 -1.293744 0
M  V30 28 H 1.324295 -2.747331 -1.147704 0
M  V30 29 H 2.241884 -0.891543 1.306266 0
M  V30 30 H 0.306893 -0.883498 -1.055210 0
M  V30 31 H 2.098616 -0.862026 -1.063220 0
M  V30 32 H 2.329777 0.598348 -2.544562 0
M  V30 33 H 3.227497 2.435479 -3.994449 0
M  V30 34 H 3.050497 4.798337 -3.176816 0
M  V30 35 H 2.039063 5.265530 -1.048200 0
M  V30 36 H 1.141084 3.491557 0.414541 0
M  V30 37 H -1.831731 -2.066820 1.802377 0
M  V30 38 H -3.675822 -2.012751 3.336902 0
M  V30 39 H -3.871428 -0.095523 4.873857 0
M  V30 40 H -0.382449 1.613599 3.314255 0
M  V30 41 H 0.563029 -2.841860 3.002150 0
M  V30 42 H 0.217092 -5.280409 2.905245 0
M  V30 END ATOM
M  V30 BEGIN BOND
M  V30 1 1 1 2
M  V30 2 2 2 3
M  V30 3 1 3 4
M  V30 4 2 4 5
M  V30 5 1 5 6
M  V30 6 1 6 7
M  V30 7 1 7 8
M  V30 8 1 8 9
M  V30 9 2 9 10
M  V30 10 1 10 11
M  V30 11 2 11 12
M  V30 12 1 12 13
M  V30 13 2 13 14
M  V30 14 2 8 15
M  V30 15 1 15 16
M  V30 16 1 16 17
M  V30 17 2 17 18
M  V30 18 1 18 19
M  V30 19 2 19 20
M  V30 20 1 20 21
M  V30 21 1 21 22
M  V30 22 2 21 23
M  V30 23 1 5 24
M  V30 24 2 24 25
M  V30 25 1 25 2
M  V30 26 1 16 6
M  V30 27 1 23 17
M  V30 28 1 14 9
M  V30 29 1 1 26
M  V30 30 1 3 27
M  V30 31 1 4 28
M  V30 32 1 6 29
M  V30 33 1 7 30
M  V30 34 1 7 31
M  V30 35 1 10 32
M  V30 36 1 11 33
M  V30 37 1 12 34
M  V30 38 1 13 35
M  V30 39 1 14 36
M  V30 40 1 18 37
M  V30 41 1 19 38
M  V30 42 1 20 39
M  V30 43 1 23 40
M  V30 44 1 24 41
M  V30 45 1 25 42
M  V30 END BOND
M  V30 END CTAB
M  END
>  <Dataset>  (54) 
ChEMBL_Kinases

>  <Ligand_Instance>  (54) 
nan

>  <PDB_ID>  (54) 
nan

>  <Standardized_SMILES>  (54) 
Oc1ccc(C2CC(c3ccccc3)=NN2c2cccc(Cl)c2)cc1

>  <Name>  (54) 
nan

>  <Pocket>  (54) 
nan

>  <ATP_Site>  (54) 
nan

>  <Peripheral>  (54) 
nan

>  <Num_H_Atoms_ProtBoundConf>  (54) 
nan

>  <Num_Resolved_Atoms>  (54) 
nan

>  <Num_Not_Resolved_Atoms>  (54) 
nan

$$$$
CHEMBL3323338
     RDKit          3D

  0  0  0  0  0  0  0  0  0  0999 V3000
M  V30 BEGIN CTAB
M  V30 COUNTS 43 46 0 0 0
M  V30 BEGIN ATOM
M  V30 1 O -0.406252 -6.523920 0.962637 0
M  V30 2 C -0.003974 -5.202037 0.913075 0
M  V30 3 C 1.346096 -4.935832 0.975546 0
M  V30 4 C 1.750401 -3.618239 0.926326 0
M  V30 5 C 0.882534 -2.523910 0.816732 0
M  V30 6 C 1.372486 -1.131391 0.763181 0
M  V30 7 C 1.255181 -0.515299 -0.590933 0
M  V30 8 C 0.914351 0.889670 -0.292027 0
M  V30 9 C 0.949041 1.961963 -1.287544 0
M  V30 10 C 1.312445 1.730159 -2.611711 0
M  V30 11 C 1.354010 2.715330 -3.566541 0
M  V30 12 C 1.023224 4.011285 -3.222798 0
M  V30 13 C 0.657037 4.283559 -1.919213 0
M  V30 14 C 0.626045 3.268215 -0.984300 0
M  V30 15 O 0.252253 3.595930 0.306827 0
M  V30 16 N 0.589643 1.024318 0.948748 0
M  V30 17 N 0.668741 -0.209326 1.603131 0
M  V30 18 C 0.088014 -0.345694 2.893474 0
M  V30 19 C -0.646203 0.661995 3.479789 0
M  V30 20 C -1.217956 0.555554 4.737378 0
M  V30 21 C -1.065640 -0.603096 5.469309 0
M  V30 22 Cl -1.804276 -0.684798 7.043588 0
M  V30 23 C -0.339443 -1.644180 4.929507 0
M  V30 24 C 0.203935 -1.475553 3.673850 0
M  V30 25 C -0.462382 -2.842214 0.757416 0
M  V30 26 C -0.909753 -4.165752 0.804499 0
M  V30 27 H -1.318585 -6.821748 0.660668 0
M  V30 28 H 2.125336 -5.691553 1.061504 0
M  V30 29 H 2.802042 -3.349978 0.971649 0
M  V30 30 H 2.473070 -1.160126 0.998087 0
M  V30 31 H 2.175457 -0.611099 -1.201916 0
M  V30 32 H 0.371150 -0.941376 -1.112003 0
M  V30 33 H 1.567054 0.693310 -2.845070 0
M  V30 34 H 1.646707 2.432863 -4.556997 0
M  V30 35 H 1.072195 4.753285 -4.015276 0
M  V30 36 H 0.405325 5.310317 -1.689851 0
M  V30 37 H -0.526927 3.121498 0.730015 0
M  V30 38 H -0.806705 1.607542 2.956037 0
M  V30 39 H -1.789571 1.381079 5.156962 0
M  V30 40 H -0.215167 -2.556653 5.497142 0
M  V30 41 H 0.760595 -2.325993 3.315870 0
M  V30 42 H -1.204474 -2.068938 0.672617 0
M  V30 43 H -1.952096 -4.428551 0.759407 0
M  V30 END ATOM
M  V30 BEGIN BOND
M  V30 1 1 1 2
M  V30 2 2 2 3
M  V30 3 1 3 4
M  V30 4 2 4 5
M  V30 5 1 5 6
M  V30 6 1 6 7
M  V30 7 1 7 8
M  V30 8 1 8 9
M  V30 9 2 9 10
M  V30 10 1 10 11
M  V30 11 2 11 12
M  V30 12 1 12 13
M  V30 13 2 13 14
M  V30 14 1 14 15
M  V30 15 2 8 16
M  V30 16 1 16 17
M  V30 17 1 17 18
M  V30 18 2 18 19
M  V30 19 1 19 20
M  V30 20 2 20 21
M  V30 21 1 21 22
M  V30 22 1 21 23
M  V30 23 2 23 24
M  V30 24 1 5 25
M  V30 25 2 25 26
M  V30 26 1 26 2
M  V30 27 1 17 6
M  V30 28 1 24 18
M  V30 29 1 14 9
M  V30 30 1 1 27
M  V30 31 1 3 28
M  V30 32 1 4 29
M  V30 33 1 6 30
M  V30 34 1 7 31
M  V30 35 1 7 32
M  V30 36 1 10 33
M  V30 37 1 11 34
M  V30 38 1 12 35
M  V30 39 1 13 36
M  V30 40 1 15 37
M  V30 41 1 19 38
M  V30 42 1 20 39
M  V30 43 1 23 40
M  V30 44 1 24 41
M  V30 45 1 25 42
M  V30 46 1 26 43
M  V30 END BOND
M  V30 END CTAB
M  END
>  <Dataset>  (55) 
ChEMBL_Kinases

>  <Ligand_Instance>  (55) 
nan

>  <PDB_ID>  (55) 
nan

>  <Standardized_SMILES>  (55) 
Oc1ccc(C2CC(c3ccccc3O)=NN2c2ccc(Cl)cc2)cc1

>  <Name>  (55) 
nan

>  <Pocket>  (55) 
nan

>  <ATP_Site>  (55) 
nan

>  <Peripheral>  (55) 
nan

>  <Num_H_Atoms_ProtBoundConf>  (55) 
nan

>  <Num_Resolved_Atoms>  (55) 
nan

>  <Num_Not_Resolved_Atoms>  (55) 
nan

$$$$
CHEMBL3323342
     RDKit          3D

  0  0  0  0  0  0  0  0  0  0999 V3000
M  V30 BEGIN CTAB
M  V30 COUNTS 39 42 0 0 0
M  V30 BEGIN ATOM
M  V30 1 O 0.582421 -5.608882 2.755929 0
M  V30 2 C 0.732672 -4.275695 2.417052 0
M  V30 3 C 0.088645 -3.718813 1.332373 0
M  V30 4 C 0.292774 -2.374489 1.060884 0
M  V30 5 C 1.126626 -1.583865 1.853709 0
M  V30 6 C 1.210722 -0.189325 1.398684 0
M  V30 7 C 2.029952 -0.097351 0.129968 0
M  V30 8 C 1.296160 0.919603 -0.664755 0
M  V30 9 C 1.854857 1.500813 -1.897249 0
M  V30 10 C 1.651142 1.245225 -3.191320 0
M  V30 11 C 2.300562 1.932328 -4.164621 0
M  V30 12 C 3.204720 2.934876 -3.685987 0
M  V30 13 S 3.028686 2.788306 -1.837757 0
M  V30 14 N 0.171076 1.189730 -0.135691 0
M  V30 15 N -0.017881 0.432820 1.040895 0
M  V30 16 C -1.297768 0.395314 1.659156 0
M  V30 17 C -2.378241 1.075970 1.138401 0
M  V30 18 C -3.644980 1.078707 1.692653 0
M  V30 19 C -3.864697 0.355769 2.848340 0
M  V30 20 Cl -5.472794 0.368482 3.538418 0
M  V30 21 C -2.818480 -0.343856 3.411985 0
M  V30 22 C -1.578757 -0.306928 2.811559 0
M  V30 23 C 1.766118 -2.178921 2.947783 0
M  V30 24 C 1.560819 -3.512422 3.213323 0
M  V30 25 H -0.080688 -5.845113 3.493649 0
M  V30 26 H -0.559174 -4.347383 0.722221 0
M  V30 27 H -0.251230 -2.025636 0.193814 0
M  V30 28 H 1.714186 0.434670 2.162569 0
M  V30 29 H 2.000269 -1.050446 -0.447801 0
M  V30 30 H 3.072429 0.217034 0.347357 0
M  V30 31 H 0.939701 0.460289 -3.411856 0
M  V30 32 H 2.178287 1.771763 -5.226867 0
M  V30 33 H 3.809410 3.578872 -4.424110 0
M  V30 34 H -2.277563 1.666717 0.228784 0
M  V30 35 H -4.464388 1.627892 1.249389 0
M  V30 36 H -3.009460 -0.904670 4.317534 0
M  V30 37 H -0.791192 -0.870402 3.290472 0
M  V30 38 H 2.390173 -1.487292 3.500720 0
M  V30 39 H 2.091853 -3.894497 4.076505 0
M  V30 END ATOM
M  V30 BEGIN BOND
M  V30 1 1 1 2
M  V30 2 2 2 3
M  V30 3 1 3 4
M  V30 4 2 4 5
M  V30 5 1 5 6
M  V30 6 1 6 7
M  V30 7 1 7 8
M  V30 8 1 8 9
M  V30 9 2 9 10
M  V30 10 1 10 11
M  V30 11 2 11 12
M  V30 12 1 12 13
M  V30 13 2 8 14
M  V30 14 1 14 15
M  V30 15 1 15 16
M  V30 16 2 16 17
M  V30 17 1 17 18
M  V30 18 2 18 19
M  V30 19 1 19 20
M  V30 20 1 19 21
M  V30 21 2 21 22
M  V30 22 1 5 23
M  V30 23 2 23 24
M  V30 24 1 24 2
M  V30 25 1 15 6
M  V30 26 1 22 16
M  V30 27 1 13 9
M  V30 28 1 1 25
M  V30 29 1 3 26
M  V30 30 1 4 27
M  V30 31 1 6 28
M  V30 32 1 7 29
M  V30 33 1 7 30
M  V30 34 1 10 31
M  V30 35 1 11 32
M  V30 36 1 12 33
M  V30 37 1 17 34
M  V30 38 1 18 35
M  V30 39 1 21 36
M  V30 40 1 22 37
M  V30 41 1 23 38
M  V30 42 1 24 39
M  V30 END BOND
M  V30 END CTAB
M  END
>  <Dataset>  (56) 
ChEMBL_Kinases

>  <Ligand_Instance>  (56) 
nan

>  <PDB_ID>  (56) 
nan

>  <Standardized_SMILES>  (56) 
Oc1ccc(C2CC(c3cccs3)=NN2c2ccc(Cl)cc2)cc1

>  <Name>  (56) 
nan

>  <Pocket>  (56) 
nan

>  <ATP_Site>  (56) 
nan

>  <Peripheral>  (56) 
nan

>  <Num_H_Atoms_ProtBoundConf>  (56) 
nan

>  <Num_Resolved_Atoms>  (56) 
nan

>  <Num_Not_Resolved_Atoms>  (56) 
nan

$$$$
CHEMBL3323343
     RDKit          3D

  0  0  0  0  0  0  0  0  0  0999 V3000
M  V30 BEGIN CTAB
M  V30 COUNTS 39 42 0 0 0
M  V30 BEGIN ATOM
M  V30 1 O 0.687592 -5.665883 2.501014 0
M  V30 2 C 0.763319 -4.324832 2.195405 0
M  V30 3 C 0.177636 -3.688627 1.128113 0
M  V30 4 C 0.327486 -2.324885 0.925416 0
M  V30 5 C 1.081373 -1.546481 1.801393 0
M  V30 6 C 1.141764 -0.118766 1.444438 0
M  V30 7 C 1.999626 0.047665 0.209717 0
M  V30 8 C 1.211862 0.968688 -0.645084 0
M  V30 9 C 1.833513 1.467192 -1.867094 0
M  V30 10 C 1.708959 1.159730 -3.165821 0
M  V30 11 C 2.416569 1.784549 -4.130132 0
M  V30 12 C 3.315208 2.810852 -3.623599 0
M  V30 13 S 3.028134 2.750166 -1.798712 0
M  V30 14 N 0.068717 1.176410 -0.138244 0
M  V30 15 N -0.095551 0.477121 1.063315 0
M  V30 16 C -1.360324 0.441519 1.711076 0
M  V30 17 C -2.459256 1.083230 1.179031 0
M  V30 18 C -3.721004 1.081453 1.770915 0
M  V30 19 C -3.895304 0.396809 2.967232 0
M  V30 20 Br -5.633841 0.428127 3.727777 0
M  V30 21 C -2.816263 -0.255794 3.526315 0
M  V30 22 C -1.591310 -0.221297 2.898331 0
M  V30 23 C 1.672735 -2.206968 2.884677 0
M  V30 24 C 1.516721 -3.544444 3.070038 0
M  V30 25 H 0.228231 -6.029107 3.336176 0
M  V30 26 H -0.391985 -4.350312 0.489176 0
M  V30 27 H -0.198567 -1.983581 0.038520 0
M  V30 28 H 1.603327 0.449170 2.276593 0
M  V30 29 H 2.082441 -0.912056 -0.376667 0
M  V30 30 H 2.996988 0.458157 0.463953 0
M  V30 31 H 0.998136 0.373028 -3.379857 0
M  V30 32 H 2.350947 1.572461 -5.187045 0
M  V30 33 H 3.965788 3.399407 -4.405392 0
M  V30 34 H -2.384362 1.636104 0.243711 0
M  V30 35 H -4.555195 1.609313 1.300696 0
M  V30 36 H -2.970766 -0.783554 4.457897 0
M  V30 37 H -0.780250 -0.749546 3.380497 0
M  V30 38 H 2.245207 -1.532388 3.523845 0
M  V30 39 H 2.018664 -3.973432 3.948493 0
M  V30 END ATOM
M  V30 BEGIN BOND
M  V30 1 1 1 2
M  V30 2 2 2 3
M  V30 3 1 3 4
M  V30 4 2 4 5
M  V30 5 1 5 6
M  V30 6 1 6 7
M  V30 7 1 7 8
M  V30 8 1 8 9
M  V30 9 2 9 10
M  V30 10 1 10 11
M  V30 11 2 11 12
M  V30 12 1 12 13
M  V30 13 2 8 14
M  V30 14 1 14 15
M  V30 15 1 15 16
M  V30 16 2 16 17
M  V30 17 1 17 18
M  V30 18 2 18 19
M  V30 19 1 19 20
M  V30 20 1 19 21
M  V30 21 2 21 22
M  V30 22 1 5 23
M  V30 23 2 23 24
M  V30 24 1 24 2
M  V30 25 1 15 6
M  V30 26 1 22 16
M  V30 27 1 13 9
M  V30 28 1 1 25
M  V30 29 1 3 26
M  V30 30 1 4 27
M  V30 31 1 6 28
M  V30 32 1 7 29
M  V30 33 1 7 30
M  V30 34 1 10 31
M  V30 35 1 11 32
M  V30 36 1 12 33
M  V30 37 1 17 34
M  V30 38 1 18 35
M  V30 39 1 21 36
M  V30 40 1 22 37
M  V30 41 1 23 38
M  V30 42 1 24 39
M  V30 END BOND
M  V30 END CTAB
M  END
>  <Dataset>  (57) 
ChEMBL_Kinases

>  <Ligand_Instance>  (57) 
nan

>  <PDB_ID>  (57) 
nan

>  <Standardized_SMILES>  (57) 
Oc1ccc(C2CC(c3cccs3)=NN2c2ccc(Br)cc2)cc1

>  <Name>  (57) 
nan

>  <Pocket>  (57) 
nan

>  <ATP_Site>  (57) 
nan

>  <Peripheral>  (57) 
nan

>  <Num_H_Atoms_ProtBoundConf>  (57) 
nan

>  <Num_Resolved_Atoms>  (57) 
nan

>  <Num_Not_Resolved_Atoms>  (57) 
nan

$$$$
CHEMBL3323361
     RDKit          3D

  0  0  0  0  0  0  0  0  0  0999 V3000
M  V30 BEGIN CTAB
M  V30 COUNTS 44 47 0 0 0
M  V30 BEGIN ATOM
M  V30 1 O 1.089400 -5.900656 4.751941 0
M  V30 2 C 1.110061 -4.786061 3.894149 0
M  V30 3 C 0.731682 -5.110488 2.606654 0
M  V30 4 C 0.708095 -4.093716 1.648948 0
M  V30 5 C 1.060669 -2.798942 2.008864 0
M  V30 6 C 1.048530 -1.699040 1.028156 0
M  V30 7 N 1.347715 -0.473930 1.226555 0
M  V30 8 N 1.220850 0.280407 0.064675 0
M  V30 9 C 1.764224 1.566477 -0.211440 0
M  V30 10 C 1.583669 2.242846 -1.402567 0
M  V30 11 C 2.127709 3.490820 -1.632909 0
M  V30 12 C 2.864547 4.017381 -0.592310 0
M  V30 13 C 3.107399 3.431794 0.633024 0
M  V30 14 Cl 4.048106 4.173716 1.880639 0
M  V30 15 C 2.526567 2.177998 0.787614 0
M  V30 16 C 0.406295 -0.489165 -0.868334 0
M  V30 17 C -0.979588 -0.017050 -0.694692 0
M  V30 18 C -1.531413 0.172655 0.547862 0
M  V30 19 C -2.830491 0.615151 0.633409 0
M  V30 20 C -3.645533 0.891128 -0.453116 0
M  V30 21 O -4.947931 1.334916 -0.259282 0
M  V30 22 C -3.069565 0.693201 -1.696181 0
M  V30 23 F -3.864061 0.962208 -2.762738 0
M  V30 24 C -1.767179 0.249536 -1.811456 0
M  V30 25 C 0.661703 -1.883685 -0.412204 0
M  V30 26 C 1.436827 -2.505397 3.313318 0
M  V30 27 O 1.799250 -1.228595 3.729093 0
M  V30 28 C 1.463530 -3.506357 4.270510 0
M  V30 29 H 0.320420 -6.045845 5.390125 0
M  V30 30 H 0.447769 -6.102035 2.273633 0
M  V30 31 H 0.425807 -4.262023 0.626018 0
M  V30 32 H 0.983514 1.757584 -2.184649 0
M  V30 33 H 1.996107 4.030549 -2.555402 0
M  V30 34 H 3.303304 5.005183 -0.756385 0
M  V30 35 H 2.679614 1.655510 1.738223 0
M  V30 36 H 0.765155 -0.278980 -1.891773 0
M  V30 37 H -0.979476 -0.014009 1.450843 0
M  V30 38 H -3.247826 0.758684 1.620486 0
M  V30 39 H -5.184893 1.993274 0.493151 0
M  V30 40 H -1.403035 0.124028 -2.840322 0
M  V30 41 H 1.582607 -2.254749 -0.920740 0
M  V30 42 H -0.204244 -2.562280 -0.513730 0
M  V30 43 H 2.704663 -0.885104 3.411027 0
M  V30 44 H 1.737335 -3.397760 5.308899 0
M  V30 END ATOM
M  V30 BEGIN BOND
M  V30 1 1 1 2
M  V30 2 2 2 3
M  V30 3 1 3 4
M  V30 4 2 4 5
M  V30 5 1 5 6
M  V30 6 2 6 7
M  V30 7 1 7 8
M  V30 8 1 8 9
M  V30 9 2 9 10
M  V30 10 1 10 11
M  V30 11 2 11 12
M  V30 12 1 12 13
M  V30 13 1 13 14
M  V30 14 2 13 15
M  V30 15 1 8 16
M  V30 16 1 16 17
M  V30 17 2 17 18
M  V30 18 1 18 19
M  V30 19 2 19 20
M  V30 20 1 20 21
M  V30 21 1 20 22
M  V30 22 1 22 23
M  V30 23 2 22 24
M  V30 24 1 16 25
M  V30 25 1 5 26
M  V30 26 1 26 27
M  V30 27 2 26 28
M  V30 28 1 28 2
M  V30 29 1 25 6
M  V30 30 1 15 9
M  V30 31 1 24 17
M  V30 32 1 1 29
M  V30 33 1 3 30
M  V30 34 1 4 31
M  V30 35 1 10 32
M  V30 36 1 11 33
M  V30 37 1 12 34
M  V30 38 1 15 35
M  V30 39 1 16 36
M  V30 40 1 18 37
M  V30 41 1 19 38
M  V30 42 1 21 39
M  V30 43 1 24 40
M  V30 44 1 25 41
M  V30 45 1 25 42
M  V30 46 1 27 43
M  V30 47 1 28 44
M  V30 END BOND
M  V30 END CTAB
M  END
>  <Dataset>  (58) 
ChEMBL_Kinases

>  <Ligand_Instance>  (58) 
nan

>  <PDB_ID>  (58) 
nan

>  <Standardized_SMILES>  (58) 
Oc1ccc(C2=NN(c3cccc(Cl)c3)C(c3ccc(O)c(F)c3)C2)c(O)c1

>  <Name>  (58) 
nan

>  <Pocket>  (58) 
nan

>  <ATP_Site>  (58) 
nan

>  <Peripheral>  (58) 
nan

>  <Num_H_Atoms_ProtBoundConf>  (58) 
nan

>  <Num_Resolved_Atoms>  (58) 
nan

>  <Num_Not_Resolved_Atoms>  (58) 
nan

$$$$
CHEMBL3323345
     RDKit          3D

  0  0  0  0  0  0  0  0  0  0999 V3000
M  V30 BEGIN CTAB
M  V30 COUNTS 41 44 0 0 0
M  V30 BEGIN ATOM
M  V30 1 O 0.026619 -5.859833 -0.295800 0
M  V30 2 C 0.263033 -4.615818 0.238960 0
M  V30 3 C 1.400165 -3.966385 -0.195280 0
M  V30 4 C 1.721205 -2.715242 0.283550 0
M  V30 5 C 0.965819 -2.030591 1.200466 0
M  V30 6 C 1.194967 -0.710102 1.780297 0
M  V30 7 C 2.032151 0.216235 0.916936 0
M  V30 8 C 0.994435 0.685698 -0.055895 0
M  V30 9 C 1.269117 1.157574 -1.408573 0
M  V30 10 C 2.555045 1.198774 -1.916893 0
M  V30 11 C 2.895258 1.634114 -3.182038 0
M  V30 12 C 1.784079 2.041603 -3.922607 0
M  V30 13 C 0.480822 2.027618 -3.481448 0
M  V30 14 N 0.296650 1.579608 -2.231342 0
M  V30 15 N -0.150110 0.592857 0.535314 0
M  V30 16 N -0.035218 0.102838 1.839643 0
M  V30 17 C -0.909520 0.344360 2.943446 0
M  V30 18 C -2.038800 1.086205 2.666103 0
M  V30 19 C -2.898116 1.334804 3.716234 0
M  V30 20 C -2.675464 0.876152 5.018895 0
M  V30 21 C -1.513223 0.150688 5.153765 0
M  V30 22 Cl -1.189191 -0.450405 6.789990 0
M  V30 23 C -0.582566 -0.161528 4.187385 0
M  V30 24 C -0.180288 -2.688098 1.636858 0
M  V30 25 C -0.522127 -3.954830 1.163878 0
M  V30 26 H -0.623751 -6.502856 0.132300 0
M  V30 27 H 2.069872 -4.419960 -0.922188 0
M  V30 28 H 2.610470 -2.228721 -0.066327 0
M  V30 29 H 1.625941 -0.728337 2.784572 0
M  V30 30 H 2.378908 1.082805 1.512877 0
M  V30 31 H 2.816019 -0.275244 0.349908 0
M  V30 32 H 3.350051 0.859037 -1.257368 0
M  V30 33 H 3.899886 1.656081 -3.552593 0
M  V30 34 H 1.984798 2.401337 -4.941665 0
M  V30 35 H -0.327008 2.360913 -4.118291 0
M  V30 36 H -2.255205 1.463339 1.675342 0
M  V30 37 H -3.803305 1.919055 3.528288 0
M  V30 38 H -3.337108 1.061938 5.849971 0
M  V30 39 H 0.302517 -0.739375 4.391274 0
M  V30 40 H -0.925302 -2.357468 2.346742 0
M  V30 41 H -1.398691 -4.524890 1.460394 0
M  V30 END ATOM
M  V30 BEGIN BOND
M  V30 1 1 1 2
M  V30 2 2 2 3
M  V30 3 1 3 4
M  V30 4 2 4 5
M  V30 5 1 5 6
M  V30 6 1 6 7
M  V30 7 1 7 8
M  V30 8 1 8 9
M  V30 9 2 9 10
M  V30 10 1 10 11
M  V30 11 2 11 12
M  V30 12 1 12 13
M  V30 13 2 13 14
M  V30 14 2 8 15
M  V30 15 1 15 16
M  V30 16 1 16 17
M  V30 17 2 17 18
M  V30 18 1 18 19
M  V30 19 2 19 20
M  V30 20 1 20 21
M  V30 21 1 21 22
M  V30 22 2 21 23
M  V30 23 1 5 24
M  V30 24 2 24 25
M  V30 25 1 25 2
M  V30 26 1 16 6
M  V30 27 1 23 17
M  V30 28 1 14 9
M  V30 29 1 1 26
M  V30 30 1 3 27
M  V30 31 1 4 28
M  V30 32 1 6 29
M  V30 33 1 7 30
M  V30 34 1 7 31
M  V30 35 1 10 32
M  V30 36 1 11 33
M  V30 37 1 12 34
M  V30 38 1 13 35
M  V30 39 1 18 36
M  V30 40 1 19 37
M  V30 41 1 20 38
M  V30 42 1 23 39
M  V30 43 1 24 40
M  V30 44 1 25 41
M  V30 END BOND
M  V30 END CTAB
M  END
>  <Dataset>  (59) 
ChEMBL_Kinases

>  <Ligand_Instance>  (59) 
nan

>  <PDB_ID>  (59) 
nan

>  <Standardized_SMILES>  (59) 
Oc1ccc(C2CC(c3ccccn3)=NN2c2cccc(Cl)c2)cc1

>  <Name>  (59) 
nan

>  <Pocket>  (59) 
nan

>  <ATP_Site>  (59) 
nan

>  <Peripheral>  (59) 
nan

>  <Num_H_Atoms_ProtBoundConf>  (59) 
nan

>  <Num_Resolved_Atoms>  (59) 
nan

>  <Num_Not_Resolved_Atoms>  (59) 
nan

$$$$
CHEMBL3323346
     RDKit          3D

  0  0  0  0  0  0  0  0  0  0999 V3000
M  V30 BEGIN CTAB
M  V30 COUNTS 40 43 0 0 0
M  V30 BEGIN ATOM
M  V30 1 O 1.462422 -5.710927 1.305328 0
M  V30 2 C 1.359998 -4.307894 1.348838 0
M  V30 3 C 1.925083 -3.702237 2.458013 0
M  V30 4 C 1.885186 -2.333031 2.607951 0
M  V30 5 C 1.274109 -1.562715 1.638907 0
M  V30 6 C 1.103295 -0.089484 1.571425 0
M  V30 7 C 1.961691 0.547839 0.526009 0
M  V30 8 C 0.990385 1.165199 -0.442559 0
M  V30 9 C 1.394077 1.858209 -1.661813 0
M  V30 10 C 2.678781 2.067801 -2.133250 0
M  V30 11 C 2.613874 2.772685 -3.331395 0
M  V30 12 C 1.253119 2.977688 -3.561334 0
M  V30 13 N 0.578337 2.425487 -2.558623 0
M  V30 14 N -0.200586 0.983936 -0.027768 0
M  V30 15 N -0.240603 0.278968 1.179766 0
M  V30 16 C -1.454915 -0.000508 1.868703 0
M  V30 17 C -2.645047 0.441551 1.324114 0
M  V30 18 C -3.853287 0.181646 1.978668 0
M  V30 19 C -3.843711 -0.521468 3.174923 0
M  V30 20 C -2.654550 -0.962401 3.717765 0
M  V30 21 Cl -2.605467 -1.859143 5.236957 0
M  V30 22 C -1.468200 -0.697100 3.057853 0
M  V30 23 C 0.708352 -2.178606 0.526878 0
M  V30 24 C 0.743194 -3.562564 0.365509 0
M  V30 25 H 0.588231 -6.256528 1.347992 0
M  V30 26 H 2.420340 -4.238194 3.257686 0
M  V30 27 H 2.277786 -1.726994 3.408524 0
M  V30 28 H 1.379116 0.325064 2.569041 0
M  V30 29 H 2.612325 1.346892 0.945740 0
M  V30 30 H 2.637764 -0.143478 -0.007282 0
M  V30 31 H 3.555384 1.707595 -1.595485 0
M  V30 32 H 3.540524 3.022769 -3.840375 0
M  V30 33 H 0.999918 3.518818 -4.463161 0
M  V30 34 H -0.445864 2.486902 -2.573053 0
M  V30 35 H -2.731901 0.994064 0.398002 0
M  V30 36 H -4.829198 0.505165 1.598489 0
M  V30 37 H -4.724633 -0.776337 3.763543 0
M  V30 38 H -0.557524 -1.057517 3.512343 0
M  V30 39 H 0.198634 -1.687571 -0.305927 0
M  V30 40 H 0.317037 -4.082025 -0.481113 0
M  V30 END ATOM
M  V30 BEGIN BOND
M  V30 1 1 1 2
M  V30 2 2 2 3
M  V30 3 1 3 4
M  V30 4 2 4 5
M  V30 5 1 5 6
M  V30 6 1 6 7
M  V30 7 1 7 8
M  V30 8 1 8 9
M  V30 9 2 9 10
M  V30 10 1 10 11
M  V30 11 2 11 12
M  V30 12 1 12 13
M  V30 13 2 8 14
M  V30 14 1 14 15
M  V30 15 1 15 16
M  V30 16 2 16 17
M  V30 17 1 17 18
M  V30 18 2 18 19
M  V30 19 1 19 20
M  V30 20 1 20 21
M  V30 21 2 20 22
M  V30 22 1 5 23
M  V30 23 2 23 24
M  V30 24 1 24 2
M  V30 25 1 15 6
M  V30 26 1 22 16
M  V30 27 1 13 9
M  V30 28 1 1 25
M  V30 29 1 3 26
M  V30 30 1 4 27
M  V30 31 1 6 28
M  V30 32 1 7 29
M  V30 33 1 7 30
M  V30 34 1 10 31
M  V30 35 1 11 32
M  V30 36 1 12 33
M  V30 37 1 13 34
M  V30 38 1 17 35
M  V30 39 1 18 36
M  V30 40 1 19 37
M  V30 41 1 22 38
M  V30 42 1 23 39
M  V30 43 1 24 40
M  V30 END BOND
M  V30 END CTAB
M  END
>  <Dataset>  (60) 
ChEMBL_Kinases

>  <Ligand_Instance>  (60) 
nan

>  <PDB_ID>  (60) 
nan

>  <Standardized_SMILES>  (60) 
Oc1ccc(C2CC(c3ccc[nH]3)=NN2c2cccc(Cl)c2)cc1

>  <Name>  (60) 
nan

>  <Pocket>  (60) 
nan

>  <ATP_Site>  (60) 
nan

>  <Peripheral>  (60) 
nan

>  <Num_H_Atoms_ProtBoundConf>  (60) 
nan

>  <Num_Resolved_Atoms>  (60) 
nan

>  <Num_Not_Resolved_Atoms>  (60) 
nan

$$$$
CHEMBL3323347
     RDKit          3D

  0  0  0  0  0  0  0  0  0  0999 V3000
M  V30 BEGIN CTAB
M  V30 COUNTS 44 47 0 0 0
M  V30 BEGIN ATOM
M  V30 1 N 1.622325 -4.776486 5.167801 0
M  V30 2 C 1.521212 -3.789969 4.145967 0
M  V30 3 C 1.838310 -4.202759 2.884057 0
M  V30 4 C 1.776071 -3.331029 1.814425 0
M  V30 5 C 1.383281 -2.043791 2.084900 0
M  V30 6 C 1.280029 -1.029762 1.030284 0
M  V30 7 N 0.932759 0.208133 1.103133 0
M  V30 8 N 0.963692 0.844551 -0.147444 0
M  V30 9 C 1.231385 2.205540 -0.510234 0
M  V30 10 C 1.215783 2.652497 -1.815083 0
M  V30 11 C 1.486128 3.983129 -2.070920 0
M  V30 12 C 1.762094 4.804372 -0.978914 0
M  V30 13 Cl 2.104697 6.493406 -1.310045 0
M  V30 14 C 1.785050 4.382882 0.346007 0
M  V30 15 C 1.509095 3.043188 0.560405 0
M  V30 16 C 0.637420 -0.289841 -1.028008 0
M  V30 17 C -0.754778 -0.716736 -0.787856 0
M  V30 18 C -1.320797 -1.966112 -0.632488 0
M  V30 19 C -2.678380 -2.071233 -0.414901 0
M  V30 20 C -3.510709 -0.994827 -0.342693 0
M  V30 21 O -4.881356 -1.223010 -0.116462 0
M  V30 22 C -2.972284 0.250362 -0.493547 0
M  V30 23 C -1.598403 0.399714 -0.716042 0
M  V30 24 C 1.588512 -1.299855 -0.416622 0
M  V30 25 C 1.057776 -1.614900 3.371672 0
M  V30 26 C 1.128933 -2.516456 4.436163 0
M  V30 27 H 1.035960 -5.639103 5.009712 0
M  V30 28 H 2.183661 -4.785021 6.050083 0
M  V30 29 H 2.156937 -5.224532 2.627301 0
M  V30 30 H 2.021539 -3.631697 0.806117 0
M  V30 31 H 0.991425 1.944158 -2.600385 0
M  V30 32 H 1.484896 4.371973 -3.064719 0
M  V30 33 H 2.010502 5.102517 1.115397 0
M  V30 34 H 1.521476 2.699332 1.568588 0
M  V30 35 H 0.872664 -0.058013 -2.078845 0
M  V30 36 H -0.584931 -2.742445 -0.706069 0
M  V30 37 H -2.987046 -3.112718 -0.310844 0
M  V30 38 H -5.110849 -1.412020 0.864144 0
M  V30 39 H -3.650798 1.090412 -0.432686 0
M  V30 40 H -1.311131 1.455289 -0.817509 0
M  V30 41 H 1.402699 -2.334872 -0.712590 0
M  V30 42 H 2.619868 -0.956407 -0.661277 0
M  V30 43 H 0.744587 -0.592438 3.593866 0
M  V30 44 H 0.888580 -2.246240 5.463749 0
M  V30 END ATOM
M  V30 BEGIN BOND
M  V30 1 1 1 2
M  V30 2 2 2 3
M  V30 3 1 3 4
M  V30 4 2 4 5
M  V30 5 1 5 6
M  V30 6 2 6 7
M  V30 7 1 7 8
M  V30 8 1 8 9
M  V30 9 2 9 10
M  V30 10 1 10 11
M  V30 11 2 11 12
M  V30 12 1 12 13
M  V30 13 1 12 14
M  V30 14 2 14 15
M  V30 15 1 8 16
M  V30 16 1 16 17
M  V30 17 2 17 18
M  V30 18 1 18 19
M  V30 19 2 19 20
M  V30 20 1 20 21
M  V30 21 1 20 22
M  V30 22 2 22 23
M  V30 23 1 16 24
M  V30 24 1 5 25
M  V30 25 2 25 26
M  V30 26 1 26 2
M  V30 27 1 24 6
M  V30 28 1 15 9
M  V30 29 1 23 17
M  V30 30 1 1 27
M  V30 31 1 1 28
M  V30 32 1 3 29
M  V30 33 1 4 30
M  V30 34 1 10 31
M  V30 35 1 11 32
M  V30 36 1 14 33
M  V30 37 1 15 34
M  V30 38 1 16 35
M  V30 39 1 18 36
M  V30 40 1 19 37
M  V30 41 1 21 38
M  V30 42 1 22 39
M  V30 43 1 23 40
M  V30 44 1 24 41
M  V30 45 1 24 42
M  V30 46 1 25 43
M  V30 47 1 26 44
M  V30 END BOND
M  V30 END CTAB
M  END
>  <Dataset>  (61) 
ChEMBL_Kinases

>  <Ligand_Instance>  (61) 
nan

>  <PDB_ID>  (61) 
nan

>  <Standardized_SMILES>  (61) 
Nc1ccc(C2=NN(c3ccc(Cl)cc3)C(c3ccc(O)cc3)C2)cc1

>  <Name>  (61) 
nan

>  <Pocket>  (61) 
nan

>  <ATP_Site>  (61) 
nan

>  <Peripheral>  (61) 
nan

>  <Num_H_Atoms_ProtBoundConf>  (61) 
nan

>  <Num_Resolved_Atoms>  (61) 
nan

>  <Num_Not_Resolved_Atoms>  (61) 
nan

$$$$
CHEMBL3323353
     RDKit          3D

  0  0  0  0  0  0  0  0  0  0999 V3000
M  V30 BEGIN CTAB
M  V30 COUNTS 44 46 0 0 0
M  V30 BEGIN ATOM
M  V30 1 C -0.643779 -3.382624 -0.512842 0
M  V30 2 C 0.576841 -3.138085 0.340819 0
M  V30 3 C 0.376694 -3.691276 1.716346 0
M  V30 4 C 1.764930 -3.858759 -0.305971 0
M  V30 5 C 0.961897 -1.704243 0.410607 0
M  V30 6 N 0.283119 -0.778471 -0.220137 0
M  V30 7 N 0.842140 0.485000 0.001477 0
M  V30 8 C 0.863330 1.610172 -0.831297 0
M  V30 9 C 0.270259 1.562436 -2.075525 0
M  V30 10 C 0.305829 2.683624 -2.874048 0
M  V30 11 C 0.924084 3.868172 -2.462993 0
M  V30 12 Cl 0.974135 5.304272 -3.476189 0
M  V30 13 C 1.523197 3.908115 -1.199617 0
M  V30 14 C 1.477236 2.764584 -0.406100 0
M  V30 15 C 1.409414 0.349177 1.333643 0
M  V30 16 C 0.241326 0.251008 2.252535 0
M  V30 17 C -0.796730 1.155650 2.040330 0
M  V30 18 C -1.907049 1.124332 2.849458 0
M  V30 19 C -2.059669 0.222724 3.891368 0
M  V30 20 C -1.018610 -0.654104 4.072618 0
M  V30 21 O -1.060597 -1.605101 5.088356 0
M  V30 22 C 0.106942 -0.650693 3.281781 0
M  V30 23 C 2.082676 -0.996589 1.123310 0
M  V30 24 H -1.320001 -4.119851 -0.029744 0
M  V30 25 H -1.225766 -2.438411 -0.660195 0
M  V30 26 H -0.358536 -3.735759 -1.524295 0
M  V30 27 H 0.277935 -4.803149 1.667010 0
M  V30 28 H 1.265308 -3.435628 2.327132 0
M  V30 29 H -0.536310 -3.260818 2.177432 0
M  V30 30 H 2.676279 -3.403544 0.117667 0
M  V30 31 H 1.762603 -3.530957 -1.386878 0
M  V30 32 H 1.692265 -4.948441 -0.200819 0
M  V30 33 H -0.233830 0.671155 -2.468898 0
M  V30 34 H -0.142502 2.718249 -3.869794 0
M  V30 35 H 1.995905 4.827180 -0.895768 0
M  V30 36 H 1.963875 2.886223 0.550438 0
M  V30 37 H 2.115426 1.143866 1.602547 0
M  V30 38 H -0.807023 1.919697 1.255059 0
M  V30 39 H -2.733147 1.823916 2.701701 0
M  V30 40 H -2.917508 0.168691 4.547470 0
M  V30 41 H -1.769497 -2.351781 5.111810 0
M  V30 42 H 0.916371 -1.324956 3.414932 0
M  V30 43 H 2.868015 -0.825322 0.372140 0
M  V30 44 H 2.410410 -1.480500 2.030712 0
M  V30 END ATOM
M  V30 BEGIN BOND
M  V30 1 1 1 2
M  V30 2 1 2 3
M  V30 3 1 2 4
M  V30 4 1 2 5
M  V30 5 2 5 6
M  V30 6 1 6 7
M  V30 7 1 7 8
M  V30 8 2 8 9
M  V30 9 1 9 10
M  V30 10 2 10 11
M  V30 11 1 11 12
M  V30 12 1 11 13
M  V30 13 2 13 14
M  V30 14 1 7 15
M  V30 15 1 15 16
M  V30 16 2 16 17
M  V30 17 1 17 18
M  V30 18 2 18 19
M  V30 19 1 19 20
M  V30 20 1 20 21
M  V30 21 2 20 22
M  V30 22 1 15 23
M  V30 23 1 23 5
M  V30 24 1 14 8
M  V30 25 1 22 16
M  V30 26 1 1 24
M  V30 27 1 1 25
M  V30 28 1 1 26
M  V30 29 1 3 27
M  V30 30 1 3 28
M  V30 31 1 3 29
M  V30 32 1 4 30
M  V30 33 1 4 31
M  V30 34 1 4 32
M  V30 35 1 9 33
M  V30 36 1 10 34
M  V30 37 1 13 35
M  V30 38 1 14 36
M  V30 39 1 15 37
M  V30 40 1 17 38
M  V30 41 1 18 39
M  V30 42 1 19 40
M  V30 43 1 21 41
M  V30 44 1 22 42
M  V30 45 1 23 43
M  V30 46 1 23 44
M  V30 END BOND
M  V30 END CTAB
M  END
>  <Dataset>  (62) 
ChEMBL_Kinases

>  <Ligand_Instance>  (62) 
nan

>  <PDB_ID>  (62) 
nan

>  <Standardized_SMILES>  (62) 
CC(C)(C)C1=NN(c2ccc(Cl)cc2)C(c2cccc(O)c2)C1

>  <Name>  (62) 
nan

>  <Pocket>  (62) 
nan

>  <ATP_Site>  (62) 
nan

>  <Peripheral>  (62) 
nan

>  <Num_H_Atoms_ProtBoundConf>  (62) 
nan

>  <Num_Resolved_Atoms>  (62) 
nan

>  <Num_Not_Resolved_Atoms>  (62) 
nan

$$$$
CHEMBL3323356
     RDKit          3D

  0  0  0  0  0  0  0  0  0  0999 V3000
M  V30 BEGIN CTAB
M  V30 COUNTS 44 46 0 0 0
M  V30 BEGIN ATOM
M  V30 1 C -0.885036 -3.475881 2.125483 0
M  V30 2 C 0.556242 -3.080267 2.076180 0
M  V30 3 C 1.140846 -3.227762 3.469648 0
M  V30 4 C 1.252018 -4.092289 1.174528 0
M  V30 5 C 0.788667 -1.691815 1.638766 0
M  V30 6 N 1.452737 -1.178903 0.630558 0
M  V30 7 N 1.355007 0.210673 0.675318 0
M  V30 8 C 2.227170 1.163665 0.062141 0
M  V30 9 C 2.010076 2.530157 0.188934 0
M  V30 10 C 2.857122 3.457086 -0.406602 0
M  V30 11 C 3.915636 2.934390 -1.123737 0
M  V30 12 Cl 5.015983 4.070277 -1.896299 0
M  V30 13 C 4.167810 1.579800 -1.274765 0
M  V30 14 C 3.304839 0.689955 -0.668909 0
M  V30 15 C 0.186530 0.525140 1.471370 0
M  V30 16 C -0.990462 0.487328 0.581086 0
M  V30 17 C -1.297168 -0.468272 -0.356429 0
M  V30 18 C -2.431475 -0.400241 -1.137889 0
M  V30 19 C -3.309990 0.662840 -0.989719 0
M  V30 20 O -4.467663 0.753109 -1.771742 0
M  V30 21 C -3.047190 1.647364 -0.062793 0
M  V30 22 F -3.905123 2.685667 0.082000 0
M  V30 23 C -1.905609 1.532219 0.688848 0
M  V30 24 C 0.186143 -0.616270 2.457976 0
M  V30 25 H -1.442441 -3.219022 1.199604 0
M  V30 26 H -0.914699 -4.588269 2.206563 0
M  V30 27 H -1.422945 -3.091902 3.010825 0
M  V30 28 H 2.128355 -2.728847 3.432171 0
M  V30 29 H 0.449112 -2.728984 4.164092 0
M  V30 30 H 1.204295 -4.284163 3.787897 0
M  V30 31 H 2.093163 -3.653976 0.632405 0
M  V30 32 H 1.586025 -4.978558 1.740074 0
M  V30 33 H 0.542850 -4.474524 0.390179 0
M  V30 34 H 1.159284 2.903420 0.766100 0
M  V30 35 H 2.708139 4.525203 -0.321688 0
M  V30 36 H 5.027776 1.257922 -1.859030 0
M  V30 37 H 3.526114 -0.347346 -0.803865 0
M  V30 38 H 0.290668 1.510802 1.978370 0
M  V30 39 H -0.625396 -1.282295 -0.469412 0
M  V30 40 H -2.642477 -1.170195 -1.866799 0
M  V30 41 H -4.782303 -0.092042 -2.250959 0
M  V30 42 H -1.739251 2.327087 1.403593 0
M  V30 43 H -0.829010 -0.845888 2.827198 0
M  V30 44 H 0.903516 -0.407211 3.276314 0
M  V30 END ATOM
M  V30 BEGIN BOND
M  V30 1 1 1 2
M  V30 2 1 2 3
M  V30 3 1 2 4
M  V30 4 1 2 5
M  V30 5 2 5 6
M  V30 6 1 6 7
M  V30 7 1 7 8
M  V30 8 2 8 9
M  V30 9 1 9 10
M  V30 10 2 10 11
M  V30 11 1 11 12
M  V30 12 1 11 13
M  V30 13 2 13 14
M  V30 14 1 7 15
M  V30 15 1 15 16
M  V30 16 2 16 17
M  V30 17 1 17 18
M  V30 18 2 18 19
M  V30 19 1 19 20
M  V30 20 1 19 21
M  V30 21 1 21 22
M  V30 22 2 21 23
M  V30 23 1 15 24
M  V30 24 1 24 5
M  V30 25 1 14 8
M  V30 26 1 23 16
M  V30 27 1 1 25
M  V30 28 1 1 26
M  V30 29 1 1 27
M  V30 30 1 3 28
M  V30 31 1 3 29
M  V30 32 1 3 30
M  V30 33 1 4 31
M  V30 34 1 4 32
M  V30 35 1 4 33
M  V30 36 1 9 34
M  V30 37 1 10 35
M  V30 38 1 13 36
M  V30 39 1 14 37
M  V30 40 1 15 38
M  V30 41 1 17 39
M  V30 42 1 18 40
M  V30 43 1 20 41
M  V30 44 1 23 42
M  V30 45 1 24 43
M  V30 46 1 24 44
M  V30 END BOND
M  V30 END CTAB
M  END
>  <Dataset>  (63) 
ChEMBL_Kinases

>  <Ligand_Instance>  (63) 
nan

>  <PDB_ID>  (63) 
nan

>  <Standardized_SMILES>  (63) 
CC(C)(C)C1=NN(c2ccc(Cl)cc2)C(c2ccc(O)c(F)c2)C1

>  <Name>  (63) 
nan

>  <Pocket>  (63) 
nan

>  <ATP_Site>  (63) 
nan

>  <Peripheral>  (63) 
nan

>  <Num_H_Atoms_ProtBoundConf>  (63) 
nan

>  <Num_Resolved_Atoms>  (63) 
nan

>  <Num_Not_Resolved_Atoms>  (63) 
nan

$$$$
CHEMBL3323357
     RDKit          3D

  0  0  0  0  0  0  0  0  0  0999 V3000
M  V30 BEGIN CTAB
M  V30 COUNTS 44 46 0 0 0
M  V30 BEGIN ATOM
M  V30 1 C -1.238267 -3.052697 2.333651 0
M  V30 2 C 0.232765 -2.863965 2.065039 0
M  V30 3 C 0.993228 -3.202319 3.331691 0
M  V30 4 C 0.619584 -3.908092 1.046853 0
M  V30 5 C 0.612059 -1.505736 1.668234 0
M  V30 6 N 1.177875 -1.038513 0.592432 0
M  V30 7 N 1.345703 0.345824 0.660271 0
M  V30 8 C 2.327531 1.176155 0.056953 0
M  V30 9 C 2.402238 2.546511 0.202456 0
M  V30 10 C 3.407837 3.278574 -0.432932 0
M  V30 11 C 4.331171 2.611561 -1.212454 0
M  V30 12 Cl 5.582304 3.578239 -1.994819 0
M  V30 13 C 4.284902 1.242710 -1.378749 0
M  V30 14 C 3.266694 0.541397 -0.729542 0
M  V30 15 C 0.228155 0.748632 1.533028 0
M  V30 16 C -1.003497 0.563487 0.764766 0
M  V30 17 C -0.887268 1.050247 -0.544332 0
M  V30 18 C -1.955414 0.966639 -1.433421 0
M  V30 19 C -3.161777 0.403025 -1.056705 0
M  V30 20 O -4.242371 0.307189 -1.923070 0
M  V30 21 C -3.262188 -0.070748 0.230980 0
M  V30 22 Cl -4.734930 -0.811070 0.844526 0
M  V30 23 C -2.207434 0.010259 1.113548 0
M  V30 24 C 0.356105 -0.341539 2.579835 0
M  V30 25 H -1.840132 -2.882048 1.412229 0
M  V30 26 H -1.366731 -4.139246 2.559549 0
M  V30 27 H -1.611418 -2.506348 3.210797 0
M  V30 28 H 1.924487 -2.645085 3.441752 0
M  V30 29 H 0.335787 -2.995720 4.198610 0
M  V30 30 H 1.240145 -4.283877 3.361042 0
M  V30 31 H 0.171736 -4.869540 1.386787 0
M  V30 32 H 1.701378 -4.053307 1.025133 0
M  V30 33 H 0.193050 -3.696859 0.044627 0
M  V30 34 H 1.634606 3.007620 0.836870 0
M  V30 35 H 3.436832 4.351526 -0.297213 0
M  V30 36 H 5.035947 0.768654 -2.002832 0
M  V30 37 H 3.320502 -0.526774 -0.925724 0
M  V30 38 H 0.374466 1.765393 1.931614 0
M  V30 39 H -0.024534 1.516600 -1.000320 0
M  V30 40 H -1.924085 1.324224 -2.452494 0
M  V30 41 H -4.183221 -0.408671 -2.647780 0
M  V30 42 H -2.247495 -0.343637 2.114727 0
M  V30 43 H -0.536399 -0.439866 3.188958 0
M  V30 44 H 1.287960 -0.189626 3.173016 0
M  V30 END ATOM
M  V30 BEGIN BOND
M  V30 1 1 1 2
M  V30 2 1 2 3
M  V30 3 1 2 4
M  V30 4 1 2 5
M  V30 5 2 5 6
M  V30 6 1 6 7
M  V30 7 1 7 8
M  V30 8 2 8 9
M  V30 9 1 9 10
M  V30 10 2 10 11
M  V30 11 1 11 12
M  V30 12 1 11 13
M  V30 13 2 13 14
M  V30 14 1 7 15
M  V30 15 1 15 16
M  V30 16 2 16 17
M  V30 17 1 17 18
M  V30 18 2 18 19
M  V30 19 1 19 20
M  V30 20 1 19 21
M  V30 21 1 21 22
M  V30 22 2 21 23
M  V30 23 1 15 24
M  V30 24 1 24 5
M  V30 25 1 14 8
M  V30 26 1 23 16
M  V30 27 1 1 25
M  V30 28 1 1 26
M  V30 29 1 1 27
M  V30 30 1 3 28
M  V30 31 1 3 29
M  V30 32 1 3 30
M  V30 33 1 4 31
M  V30 34 1 4 32
M  V30 35 1 4 33
M  V30 36 1 9 34
M  V30 37 1 10 35
M  V30 38 1 13 36
M  V30 39 1 14 37
M  V30 40 1 15 38
M  V30 41 1 17 39
M  V30 42 1 18 40
M  V30 43 1 20 41
M  V30 44 1 23 42
M  V30 45 1 24 43
M  V30 46 1 24 44
M  V30 END BOND
M  V30 END CTAB
M  END
>  <Dataset>  (64) 
ChEMBL_Kinases

>  <Ligand_Instance>  (64) 
nan

>  <PDB_ID>  (64) 
nan

>  <Standardized_SMILES>  (64) 
CC(C)(C)C1=NN(c2ccc(Cl)cc2)C(c2ccc(O)c(Cl)c2)C1

>  <Name>  (64) 
nan

>  <Pocket>  (64) 
nan

>  <ATP_Site>  (64) 
nan

>  <Peripheral>  (64) 
nan

>  <Num_H_Atoms_ProtBoundConf>  (64) 
nan

>  <Num_Resolved_Atoms>  (64) 
nan

>  <Num_Not_Resolved_Atoms>  (64) 
nan

$$$$
CHEMBL3323358
     RDKit          3D

  0  0  0  0  0  0  0  0  0  0999 V3000
M  V30 BEGIN CTAB
M  V30 COUNTS 44 46 0 0 0
M  V30 BEGIN ATOM
M  V30 1 C 1.132222 -3.527643 3.196872 0
M  V30 2 C 0.429508 -3.108334 1.918313 0
M  V30 3 C -1.055635 -3.295909 2.111946 0
M  V30 4 C 0.906860 -4.058836 0.823153 0
M  V30 5 C 0.725614 -1.701281 1.554380 0
M  V30 6 N 1.270552 -1.212287 0.514218 0
M  V30 7 N 1.379493 0.162754 0.531514 0
M  V30 8 C 2.292605 0.954997 -0.213563 0
M  V30 9 C 3.180374 0.321139 -1.054474 0
M  V30 10 C 4.072800 1.086885 -1.783377 0
M  V30 11 C 4.028248 2.456639 -1.630152 0
M  V30 12 C 3.146782 3.138055 -0.790895 0
M  V30 13 Cl 3.148721 4.874635 -0.648504 0
M  V30 14 C 2.267265 2.331542 -0.076836 0
M  V30 15 C 0.364695 0.605308 1.469298 0
M  V30 16 C -0.959104 0.811656 0.859582 0
M  V30 17 C -1.697026 1.956931 1.167365 0
M  V30 18 C -2.958368 2.227131 0.632672 0
M  V30 19 C -3.482930 1.299022 -0.243776 0
M  V30 20 F -4.704635 1.626774 -0.720151 0
M  V30 21 C -2.760418 0.148673 -0.563356 0
M  V30 22 O -3.372874 -0.728042 -1.456587 0
M  V30 23 C -1.517129 -0.084579 -0.015523 0
M  V30 24 C 0.388285 -0.565881 2.451880 0
M  V30 25 H 0.808323 -4.593208 3.358149 0
M  V30 26 H 0.798517 -2.913952 4.059037 0
M  V30 27 H 2.222424 -3.571152 3.072782 0
M  V30 28 H -1.273422 -3.258176 3.212266 0
M  V30 29 H -1.636073 -2.528711 1.566378 0
M  V30 30 H -1.383154 -4.287931 1.685179 0
M  V30 31 H 1.709729 -3.503186 0.277573 0
M  V30 32 H 0.044018 -4.171997 0.133115 0
M  V30 33 H 1.308259 -4.993208 1.213746 0
M  V30 34 H 3.247947 -0.747815 -1.203180 0
M  V30 35 H 4.815950 0.669030 -2.477943 0
M  V30 36 H 4.717272 3.086984 -2.189688 0
M  V30 37 H 1.545220 2.787135 0.602117 0
M  V30 38 H 0.691192 1.542603 1.978673 0
M  V30 39 H -1.242688 2.652839 1.858611 0
M  V30 40 H -3.422234 3.149756 0.953568 0
M  V30 41 H -3.511819 -1.684527 -1.099717 0
M  V30 42 H -0.987274 -0.983104 -0.284399 0
M  V30 43 H -0.545573 -0.685315 3.004120 0
M  V30 44 H 1.265366 -0.356234 3.123203 0
M  V30 END ATOM
M  V30 BEGIN BOND
M  V30 1 1 1 2
M  V30 2 1 2 3
M  V30 3 1 2 4
M  V30 4 1 2 5
M  V30 5 2 5 6
M  V30 6 1 6 7
M  V30 7 1 7 8
M  V30 8 2 8 9
M  V30 9 1 9 10
M  V30 10 2 10 11
M  V30 11 1 11 12
M  V30 12 1 12 13
M  V30 13 2 12 14
M  V30 14 1 7 15
M  V30 15 1 15 16
M  V30 16 2 16 17
M  V30 17 1 17 18
M  V30 18 2 18 19
M  V30 19 1 19 20
M  V30 20 1 19 21
M  V30 21 1 21 22
M  V30 22 2 21 23
M  V30 23 1 15 24
M  V30 24 1 24 5
M  V30 25 1 14 8
M  V30 26 1 23 16
M  V30 27 1 1 25
M  V30 28 1 1 26
M  V30 29 1 1 27
M  V30 30 1 3 28
M  V30 31 1 3 29
M  V30 32 1 3 30
M  V30 33 1 4 31
M  V30 34 1 4 32
M  V30 35 1 4 33
M  V30 36 1 9 34
M  V30 37 1 10 35
M  V30 38 1 11 36
M  V30 39 1 14 37
M  V30 40 1 15 38
M  V30 41 1 17 39
M  V30 42 1 18 40
M  V30 43 1 22 41
M  V30 44 1 23 42
M  V30 45 1 24 43
M  V30 46 1 24 44
M  V30 END BOND
M  V30 END CTAB
M  END
>  <Dataset>  (65) 
ChEMBL_Kinases

>  <Ligand_Instance>  (65) 
nan

>  <PDB_ID>  (65) 
nan

>  <Standardized_SMILES>  (65) 
CC(C)(C)C1=NN(c2cccc(Cl)c2)C(c2ccc(F)c(O)c2)C1

>  <Name>  (65) 
nan

>  <Pocket>  (65) 
nan

>  <ATP_Site>  (65) 
nan

>  <Peripheral>  (65) 
nan

>  <Num_H_Atoms_ProtBoundConf>  (65) 
nan

>  <Num_Resolved_Atoms>  (65) 
nan

>  <Num_Not_Resolved_Atoms>  (65) 
nan

$$$$
CHEMBL3323360
     RDKit          3D

  0  0  0  0  0  0  0  0  0  0999 V3000
M  V30 BEGIN CTAB
M  V30 COUNTS 43 46 0 0 0
M  V30 BEGIN ATOM
M  V30 1 O -6.193647 -3.250231 -0.535751 0
M  V30 2 C -4.967037 -2.635681 -0.753233 0
M  V30 3 C -3.826490 -3.224982 -1.292634 0
M  V30 4 C -2.673207 -2.485251 -1.450056 0
M  V30 5 C -2.589153 -1.139757 -1.086330 0
M  V30 6 C -1.321536 -0.498971 -1.329662 0
M  V30 7 C -0.157898 -1.468239 -1.609409 0
M  V30 8 C 0.874673 -0.365625 -1.763501 0
M  V30 9 C 2.042008 -0.404245 -2.638414 0
M  V30 10 C 2.277196 -1.522442 -3.419591 0
M  V30 11 C 3.406179 -1.483437 -4.224159 0
M  V30 12 C 4.259517 -0.397758 -4.256919 0
M  V30 13 C 3.973137 0.688808 -3.455524 0
M  V30 14 C 2.861613 0.703992 -2.634205 0
M  V30 15 O 2.653122 1.828217 -1.869270 0
M  V30 16 N 0.486810 0.593305 -0.957432 0
M  V30 17 N -0.704850 0.240694 -0.275804 0
M  V30 18 C -0.859944 0.697930 1.056989 0
M  V30 19 C -0.199487 1.827213 1.491803 0
M  V30 20 C -0.301145 2.313375 2.777636 0
M  V30 21 C -1.099372 1.643973 3.678095 0
M  V30 22 C -1.789720 0.508665 3.317499 0
M  V30 23 Cl -2.789894 -0.315602 4.475813 0
M  V30 24 C -1.637396 0.084666 2.015443 0
M  V30 25 C -3.742183 -0.611434 -0.560613 0
M  V30 26 C -4.916824 -1.306763 -0.383391 0
M  V30 27 F -5.974350 -0.630798 0.154386 0
M  V30 28 H -7.057762 -2.865779 -0.941233 0
M  V30 29 H -3.963049 -4.251890 -1.546864 0
M  V30 30 H -1.889505 -3.093415 -1.879635 0
M  V30 31 H -1.328717 0.181882 -2.225050 0
M  V30 32 H -0.278473 -2.029147 -2.530505 0
M  V30 33 H 0.068240 -2.051272 -0.713520 0
M  V30 34 H 1.604008 -2.359355 -3.383082 0
M  V30 35 H 3.633897 -2.332853 -4.853465 0
M  V30 36 H 5.143502 -0.398378 -4.903870 0
M  V30 37 H 4.660730 1.525870 -3.502482 0
M  V30 38 H 2.549283 1.850090 -0.869819 0
M  V30 39 H 0.446580 2.388056 0.802372 0
M  V30 40 H 0.243590 3.209138 3.062796 0
M  V30 41 H -1.150322 2.053213 4.660999 0
M  V30 42 H -2.180898 -0.802918 1.786289 0
M  V30 43 H -3.678713 0.438519 -0.276109 0
M  V30 END ATOM
M  V30 BEGIN BOND
M  V30 1 1 1 2
M  V30 2 2 2 3
M  V30 3 1 3 4
M  V30 4 2 4 5
M  V30 5 1 5 6
M  V30 6 1 6 7
M  V30 7 1 7 8
M  V30 8 1 8 9
M  V30 9 2 9 10
M  V30 10 1 10 11
M  V30 11 2 11 12
M  V30 12 1 12 13
M  V30 13 2 13 14
M  V30 14 1 14 15
M  V30 15 2 8 16
M  V30 16 1 16 17
M  V30 17 1 17 18
M  V30 18 2 18 19
M  V30 19 1 19 20
M  V30 20 2 20 21
M  V30 21 1 21 22
M  V30 22 1 22 23
M  V30 23 2 22 24
M  V30 24 1 5 25
M  V30 25 2 25 26
M  V30 26 1 26 27
M  V30 27 1 26 2
M  V30 28 1 17 6
M  V30 29 1 24 18
M  V30 30 1 14 9
M  V30 31 1 1 28
M  V30 32 1 3 29
M  V30 33 1 4 30
M  V30 34 1 6 31
M  V30 35 1 7 32
M  V30 36 1 7 33
M  V30 37 1 10 34
M  V30 38 1 11 35
M  V30 39 1 12 36
M  V30 40 1 13 37
M  V30 41 1 15 38
M  V30 42 1 19 39
M  V30 43 1 20 40
M  V30 44 1 21 41
M  V30 45 1 24 42
M  V30 46 1 25 43
M  V30 END BOND
M  V30 END CTAB
M  END
>  <Dataset>  (66) 
ChEMBL_Kinases

>  <Ligand_Instance>  (66) 
nan

>  <PDB_ID>  (66) 
nan

>  <Standardized_SMILES>  (66) 
Oc1ccc(C2CC(c3ccccc3O)=NN2c2cccc(Cl)c2)cc1F

>  <Name>  (66) 
nan

>  <Pocket>  (66) 
nan

>  <ATP_Site>  (66) 
nan

>  <Peripheral>  (66) 
nan

>  <Num_H_Atoms_ProtBoundConf>  (66) 
nan

>  <Num_Resolved_Atoms>  (66) 
nan

>  <Num_Not_Resolved_Atoms>  (66) 
nan

$$$$
CHEMBL3323344
     RDKit          3D

  0  0  0  0  0  0  0  0  0  0999 V3000
M  V30 BEGIN CTAB
M  V30 COUNTS 42 45 0 0 0
M  V30 BEGIN ATOM
M  V30 1 O 0.454152 -6.145779 1.680728 0
M  V30 2 C 0.815416 -4.812558 1.545850 0
M  V30 3 C 0.168882 -4.059872 0.562937 0
M  V30 4 C 0.579878 -2.744518 0.488440 0
M  V30 5 C 1.535089 -2.106164 1.258052 0
M  V30 6 C 1.845605 -0.683380 1.032069 0
M  V30 7 C 2.633619 -0.455726 -0.228908 0
M  V30 8 C 2.108643 0.841759 -0.697518 0
M  V30 9 C 2.713106 1.624960 -1.738980 0
M  V30 10 C 2.148471 2.371466 -2.705924 0
M  V30 11 C 2.896117 3.056166 -3.621533 0
M  V30 12 C 4.351959 2.886914 -3.432313 0
M  V30 13 S 4.469231 1.740737 -1.930663 0
M  V30 14 N 1.042596 1.171587 -0.049638 0
M  V30 15 N 0.735690 0.181064 0.891106 0
M  V30 16 C -0.543865 0.196117 1.512328 0
M  V30 17 C -1.535708 1.078464 1.148882 0
M  V30 18 C -2.793880 1.134944 1.726722 0
M  V30 19 C -3.092089 0.251787 2.740077 0
M  V30 20 C -4.445957 0.323434 3.351321 0
M  V30 21 F -4.825011 1.654273 3.435119 0
M  V30 22 F -4.457408 -0.282575 4.587813 0
M  V30 23 F -5.293733 -0.372568 2.523092 0
M  V30 24 C -2.143641 -0.658979 3.153215 0
M  V30 25 C -0.915197 -0.653557 2.529889 0
M  V30 26 C 2.137181 -2.926710 2.219944 0
M  V30 27 C 1.780157 -4.237137 2.350195 0
M  V30 28 H 1.035274 -6.853594 2.093954 0
M  V30 29 H -0.591382 -4.431111 -0.103058 0
M  V30 30 H 0.091036 -2.138173 -0.268823 0
M  V30 31 H 2.474196 -0.297521 1.861729 0
M  V30 32 H 2.385972 -1.203775 -1.019078 0
M  V30 33 H 3.726880 -0.431521 -0.050224 0
M  V30 34 H 1.069715 2.430423 -2.758841 0
M  V30 35 H 2.542635 3.674999 -4.425653 0
M  V30 36 H 5.069626 3.443231 -4.179107 0
M  V30 37 H -1.358686 1.799911 0.354590 0
M  V30 38 H -3.529936 1.867844 1.380473 0
M  V30 39 H -2.380086 -1.349839 3.947399 0
M  V30 40 H -0.217762 -1.389235 2.903186 0
M  V30 41 H 2.891656 -2.451409 2.838794 0
M  V30 42 H 2.286453 -4.836928 3.124069 0
M  V30 END ATOM
M  V30 BEGIN BOND
M  V30 1 1 1 2
M  V30 2 2 2 3
M  V30 3 1 3 4
M  V30 4 2 4 5
M  V30 5 1 5 6
M  V30 6 1 6 7
M  V30 7 1 7 8
M  V30 8 1 8 9
M  V30 9 2 9 10
M  V30 10 1 10 11
M  V30 11 2 11 12
M  V30 12 1 12 13
M  V30 13 2 8 14
M  V30 14 1 14 15
M  V30 15 1 15 16
M  V30 16 2 16 17
M  V30 17 1 17 18
M  V30 18 2 18 19
M  V30 19 1 19 20
M  V30 20 1 20 21
M  V30 21 1 20 22
M  V30 22 1 20 23
M  V30 23 1 19 24
M  V30 24 2 24 25
M  V30 25 1 5 26
M  V30 26 2 26 27
M  V30 27 1 27 2
M  V30 28 1 15 6
M  V30 29 1 25 16
M  V30 30 1 13 9
M  V30 31 1 1 28
M  V30 32 1 3 29
M  V30 33 1 4 30
M  V30 34 1 6 31
M  V30 35 1 7 32
M  V30 36 1 7 33
M  V30 37 1 10 34
M  V30 38 1 11 35
M  V30 39 1 12 36
M  V30 40 1 17 37
M  V30 41 1 18 38
M  V30 42 1 24 39
M  V30 43 1 25 40
M  V30 44 1 26 41
M  V30 45 1 27 42
M  V30 END BOND
M  V30 END CTAB
M  END
>  <Dataset>  (67) 
ChEMBL_Kinases

>  <Ligand_Instance>  (67) 
nan

>  <PDB_ID>  (67) 
nan

>  <Standardized_SMILES>  (67) 
Oc1ccc(C2CC(c3cccs3)=NN2c2ccc(C(F)(F)F)cc2)cc1

>  <Name>  (67) 
nan

>  <Pocket>  (67) 
nan

>  <ATP_Site>  (67) 
nan

>  <Peripheral>  (67) 
nan

>  <Num_H_Atoms_ProtBoundConf>  (67) 
nan

>  <Num_Resolved_Atoms>  (67) 
nan

>  <Num_Not_Resolved_Atoms>  (67) 
nan

$$$$
CHEMBL3326656
     RDKit          3D

  0  0  0  0  0  0  0  0  0  0999 V3000
M  V30 BEGIN CTAB
M  V30 COUNTS 27 29 0 0 0
M  V30 BEGIN ATOM
M  V30 1 C 0.431974 0.944484 3.824806 0
M  V30 2 C 0.367712 0.047368 2.790419 0
M  V30 3 C 0.642818 0.668893 1.617067 0
M  V30 4 C 0.684868 0.169704 0.336158 0
M  V30 5 N 0.491383 -1.170451 -0.073152 0
M  V30 6 C 0.241634 -1.399436 -1.515672 0
M  V30 7 C -0.932009 -2.358481 -1.558265 0
M  V30 8 O -1.694944 -2.360823 -0.406541 0
M  V30 9 C -0.991087 -2.822684 0.706409 0
M  V30 10 C 0.489388 -2.470902 0.557005 0
M  V30 11 N 0.982363 1.080749 -0.607298 0
M  V30 12 C 1.217465 2.353597 -0.332834 0
M  V30 13 N 1.161893 2.778107 0.938944 0
M  V30 14 N 0.876828 1.954114 1.926938 0
M  V30 15 C 0.758162 2.153380 3.249398 0
M  V30 16 H 0.266554 0.764982 4.871704 0
M  V30 17 H 0.124232 -0.968762 2.951452 0
M  V30 18 H 0.083027 -0.466129 -2.058925 0
M  V30 19 H 1.121145 -1.978119 -1.922168 0
M  V30 20 H -1.617090 -1.957125 -2.358587 0
M  V30 21 H -0.647733 -3.377181 -1.908648 0
M  V30 22 H -1.364776 -2.223997 1.560894 0
M  V30 23 H -1.162177 -3.884199 0.930122 0
M  V30 24 H 1.036616 -2.477744 1.503681 0
M  V30 25 H 0.927210 -3.266732 -0.126746 0
M  V30 26 H 1.450964 3.018071 -1.165321 0
M  V30 27 H 0.899241 3.104954 3.747395 0
M  V30 END ATOM
M  V30 BEGIN BOND
M  V30 1 1 1 2
M  V30 2 2 2 3
M  V30 3 1 3 4
M  V30 4 1 4 5
M  V30 5 1 5 6
M  V30 6 1 6 7
M  V30 7 1 7 8
M  V30 8 1 8 9
M  V30 9 1 9 10
M  V30 10 2 4 11
M  V30 11 1 11 12
M  V30 12 2 12 13
M  V30 13 1 13 14
M  V30 14 1 14 15
M  V30 15 2 15 1
M  V30 16 1 14 3
M  V30 17 1 10 5
M  V30 18 1 1 16
M  V30 19 1 2 17
M  V30 20 1 6 18
M  V30 21 1 6 19
M  V30 22 1 7 20
M  V30 23 1 7 21
M  V30 24 1 9 22
M  V30 25 1 9 23
M  V30 26 1 10 24
M  V30 27 1 10 25
M  V30 28 1 12 26
M  V30 29 1 15 27
M  V30 END BOND
M  V30 END CTAB
M  END
>  <Dataset>  (68) 
ChEMBL_Kinases

>  <Ligand_Instance>  (68) 
nan

>  <PDB_ID>  (68) 
nan

>  <Standardized_SMILES>  (68) 
c1cc2c(N3CCOCC3)ncnn2c1

>  <Name>  (68) 
nan

>  <Pocket>  (68) 
nan

>  <ATP_Site>  (68) 
nan

>  <Peripheral>  (68) 
nan

>  <Num_H_Atoms_ProtBoundConf>  (68) 
nan

>  <Num_Resolved_Atoms>  (68) 
nan

>  <Num_Not_Resolved_Atoms>  (68) 
nan

$$$$
CHEMBL3326655
     RDKit          3D

  0  0  0  0  0  0  0  0  0  0999 V3000
M  V30 BEGIN CTAB
M  V30 COUNTS 25 27 0 0 0
M  V30 BEGIN ATOM
M  V30 1 C -1.042250 -1.428709 3.771166 0
M  V30 2 C -0.511573 -1.610377 2.510395 0
M  V30 3 C 0.529181 -0.731204 2.430003 0
M  V30 4 C 1.381191 -0.527799 1.363724 0
M  V30 5 N 1.366490 -1.190391 0.107169 0
M  V30 6 C 0.561016 -0.588023 -0.899830 0
M  V30 7 C -0.147508 0.551429 -0.643068 0
M  V30 8 C -0.949456 1.181483 -1.588857 0
M  V30 9 N -1.053523 0.674975 -2.814316 0
M  V30 10 C -0.375286 -0.446994 -3.118674 0
M  V30 11 C 0.429148 -1.090139 -2.190762 0
M  V30 12 N 2.352895 0.393635 1.482884 0
M  V30 13 C 2.519016 1.117108 2.599269 0
M  V30 14 N 1.672254 0.884136 3.599240 0
M  V30 15 N 0.696947 -0.003913 3.550904 0
M  V30 16 C -0.276138 -0.434673 4.383719 0
M  V30 17 H -1.883040 -1.929909 4.240814 0
M  V30 18 H -0.856709 -2.300579 1.764476 0
M  V30 19 H 1.871389 -2.073957 -0.191940 0
M  V30 20 H -0.117931 1.028285 0.329338 0
M  V30 21 H -1.507613 2.095565 -1.355587 0
M  V30 22 H -0.485418 -0.828191 -4.124659 0
M  V30 23 H 0.977978 -1.998636 -2.438343 0
M  V30 24 H 3.306904 1.860494 2.688541 0
M  V30 25 H -0.372516 -0.008251 5.374355 0
M  V30 END ATOM
M  V30 BEGIN BOND
M  V30 1 1 1 2
M  V30 2 2 2 3
M  V30 3 1 3 4
M  V30 4 1 4 5
M  V30 5 1 5 6
M  V30 6 2 6 7
M  V30 7 1 7 8
M  V30 8 2 8 9
M  V30 9 1 9 10
M  V30 10 2 10 11
M  V30 11 2 4 12
M  V30 12 1 12 13
M  V30 13 2 13 14
M  V30 14 1 14 15
M  V30 15 1 15 16
M  V30 16 2 16 1
M  V30 17 1 15 3
M  V30 18 1 11 6
M  V30 19 1 1 17
M  V30 20 1 2 18
M  V30 21 1 5 19
M  V30 22 1 7 20
M  V30 23 1 8 21
M  V30 24 1 10 22
M  V30 25 1 11 23
M  V30 26 1 13 24
M  V30 27 1 16 25
M  V30 END BOND
M  V30 END CTAB
M  END
>  <Dataset>  (69) 
ChEMBL_Kinases

>  <Ligand_Instance>  (69) 
nan

>  <PDB_ID>  (69) 
nan

>  <Standardized_SMILES>  (69) 
c1cc2c(Nc3ccncc3)ncnn2c1

>  <Name>  (69) 
nan

>  <Pocket>  (69) 
nan

>  <ATP_Site>  (69) 
nan

>  <Peripheral>  (69) 
nan

>  <Num_H_Atoms_ProtBoundConf>  (69) 
nan

>  <Num_Resolved_Atoms>  (69) 
nan

>  <Num_Not_Resolved_Atoms>  (69) 
nan

$$$$
CHEMBL3326654
     RDKit          3D

  0  0  0  0  0  0  0  0  0  0999 V3000
M  V30 BEGIN CTAB
M  V30 COUNTS 25 27 0 0 0
M  V30 BEGIN ATOM
M  V30 1 C 0.083072 -2.718078 3.865117 0
M  V30 2 C -0.084565 -4.033550 3.482768 0
M  V30 3 N -0.141516 -4.302634 2.165491 0
M  V30 4 C -0.042397 -3.350333 1.226114 0
M  V30 5 C 0.127705 -2.002031 1.523682 0
M  V30 6 N 0.228232 -1.025815 0.503115 0
M  V30 7 C 0.402129 0.373382 0.655196 0
M  V30 8 N 0.506658 1.053840 1.803517 0
M  V30 9 C 0.670369 2.381669 1.877930 0
M  V30 10 N 0.735296 3.086294 0.736633 0
M  V30 11 N 0.640114 2.485967 -0.435692 0
M  V30 12 C 0.676690 2.975482 -1.687437 0
M  V30 13 C 0.536026 1.966143 -2.617105 0
M  V30 14 C 0.414189 0.849272 -1.826283 0
M  V30 15 C 0.477194 1.159055 -0.473796 0
M  V30 16 C 0.182089 -1.759662 2.879190 0
M  V30 17 H 0.132670 -2.469243 4.915874 0
M  V30 18 H -0.172397 -4.857070 4.179207 0
M  V30 19 H -0.101382 -3.677322 0.184176 0
M  V30 20 H 0.163928 -1.404675 -0.470672 0
M  V30 21 H 0.731868 2.729293 2.900116 0
M  V30 22 H 0.802965 4.041160 -1.902664 0
M  V30 23 H 0.523509 2.027656 -3.695719 0
M  V30 24 H 0.282550 -0.170932 -2.198871 0
M  V30 25 H 0.310450 -0.762504 3.240074 0
M  V30 END ATOM
M  V30 BEGIN BOND
M  V30 1 2 1 2
M  V30 2 1 2 3
M  V30 3 2 3 4
M  V30 4 1 4 5
M  V30 5 1 5 6
M  V30 6 1 6 7
M  V30 7 2 7 8
M  V30 8 1 8 9
M  V30 9 2 9 10
M  V30 10 1 10 11
M  V30 11 1 11 12
M  V30 12 2 12 13
M  V30 13 1 13 14
M  V30 14 2 14 15
M  V30 15 2 5 16
M  V30 16 1 16 1
M  V30 17 1 15 7
M  V30 18 1 15 11
M  V30 19 1 1 17
M  V30 20 1 2 18
M  V30 21 1 4 19
M  V30 22 1 6 20
M  V30 23 1 9 21
M  V30 24 1 12 22
M  V30 25 1 13 23
M  V30 26 1 14 24
M  V30 27 1 16 25
M  V30 END BOND
M  V30 END CTAB
M  END
>  <Dataset>  (70) 
ChEMBL_Kinases

>  <Ligand_Instance>  (70) 
nan

>  <PDB_ID>  (70) 
nan

>  <Standardized_SMILES>  (70) 
c1cncc(Nc2ncnn3cccc23)c1

>  <Name>  (70) 
nan

>  <Pocket>  (70) 
nan

>  <ATP_Site>  (70) 
nan

>  <Peripheral>  (70) 
nan

>  <Num_H_Atoms_ProtBoundConf>  (70) 
nan

>  <Num_Resolved_Atoms>  (70) 
nan

>  <Num_Not_Resolved_Atoms>  (70) 
nan

$$$$
CHEMBL3326653
     RDKit          3D

  0  0  0  0  0  0  0  0  0  0999 V3000
M  V30 BEGIN CTAB
M  V30 COUNTS 23 25 0 0 0
M  V30 BEGIN ATOM
M  V30 1 C -1.540918 -3.298814 2.340942 0
M  V30 2 C -0.871397 -2.775796 1.254947 0
M  V30 3 C 0.100151 -1.883031 1.649442 0
M  V30 4 C 1.056427 -1.072957 1.058306 0
M  V30 5 N 1.049721 -1.165662 -0.358503 0
M  V30 6 C 0.369628 -0.296577 -1.262351 0
M  V30 7 C 0.246578 -0.369268 -2.640735 0
M  V30 8 N -0.481661 0.687729 -3.039777 0
M  V30 9 N -0.831170 1.432767 -1.984697 0
M  V30 10 C -0.310196 0.835160 -0.872715 0
M  V30 11 N 1.836017 -0.324940 1.861041 0
M  V30 12 C 1.733115 -0.327747 3.186017 0
M  V30 13 N 0.796587 -1.123687 3.739999 0
M  V30 14 N -0.004640 -1.885518 3.005537 0
M  V30 15 C -0.964836 -2.709919 3.452617 0
M  V30 16 H -2.353789 -4.024253 2.272182 0
M  V30 17 H -1.063998 -3.017928 0.212844 0
M  V30 18 H 1.616170 -1.970054 -0.660590 0
M  V30 19 H 0.668635 -1.144229 -3.263675 0
M  V30 20 H -1.393739 2.311315 -1.968911 0
M  V30 21 H -0.421491 1.203512 0.151652 0
M  V30 22 H 2.414936 0.316867 3.696205 0
M  V30 23 H -1.276480 -2.920282 4.449010 0
M  V30 END ATOM
M  V30 BEGIN BOND
M  V30 1 1 1 2
M  V30 2 2 2 3
M  V30 3 1 3 4
M  V30 4 1 4 5
M  V30 5 1 5 6
M  V30 6 1 6 7
M  V30 7 2 7 8
M  V30 8 1 8 9
M  V30 9 1 9 10
M  V30 10 2 4 11
M  V30 11 1 11 12
M  V30 12 2 12 13
M  V30 13 1 13 14
M  V30 14 1 14 15
M  V30 15 2 15 1
M  V30 16 1 14 3
M  V30 17 2 10 6
M  V30 18 1 1 16
M  V30 19 1 2 17
M  V30 20 1 5 18
M  V30 21 1 7 19
M  V30 22 1 9 20
M  V30 23 1 10 21
M  V30 24 1 12 22
M  V30 25 1 15 23
M  V30 END BOND
M  V30 END CTAB
M  END
>  <Dataset>  (71) 
ChEMBL_Kinases

>  <Ligand_Instance>  (71) 
nan

>  <PDB_ID>  (71) 
nan

>  <Standardized_SMILES>  (71) 
c1cc2c(Nc3cn[nH]c3)ncnn2c1

>  <Name>  (71) 
nan

>  <Pocket>  (71) 
nan

>  <ATP_Site>  (71) 
nan

>  <Peripheral>  (71) 
nan

>  <Num_H_Atoms_ProtBoundConf>  (71) 
nan

>  <Num_Resolved_Atoms>  (71) 
nan

>  <Num_Not_Resolved_Atoms>  (71) 
nan

$$$$
CHEMBL3326652
     RDKit          3D

  0  0  0  0  0  0  0  0  0  0999 V3000
M  V30 BEGIN CTAB
M  V30 COUNTS 25 26 0 0 0
M  V30 BEGIN ATOM
M  V30 1 C -2.278057 0.684812 1.516492 0
M  V30 2 C -1.937129 -0.202242 0.323945 0
M  V30 3 C -2.242411 -1.648257 0.664274 0
M  V30 4 N -0.544675 -0.022398 -0.043218 0
M  V30 5 C 0.508589 -0.306642 0.870981 0
M  V30 6 N 0.296803 -0.753747 2.114504 0
M  V30 7 C 1.296148 -1.027659 2.990877 0
M  V30 8 N 2.579299 -0.837289 2.582425 0
M  V30 9 N 2.843021 -0.394860 1.357349 0
M  V30 10 C 4.013844 -0.139978 0.754458 0
M  V30 11 C 3.792532 0.312194 -0.547196 0
M  V30 12 C 2.425946 0.294382 -0.635170 0
M  V30 13 C 1.835828 -0.139301 0.532230 0
M  V30 14 H -3.357291 0.747103 1.673712 0
M  V30 15 H -1.939256 1.714657 1.215352 0
M  V30 16 H -1.783176 0.350024 2.436624 0
M  V30 17 H -2.582321 0.112644 -0.521497 0
M  V30 18 H -1.550868 -2.305533 0.086583 0
M  V30 19 H -2.121513 -1.846465 1.749545 0
M  V30 20 H -3.269343 -1.856623 0.333555 0
M  V30 21 H -0.280814 0.321273 -0.991343 0
M  V30 22 H 1.006697 -1.386307 3.975993 0
M  V30 23 H 5.007309 -0.264921 1.208721 0
M  V30 24 H 4.517098 0.603168 -1.297322 0
M  V30 25 H 1.849186 0.587328 -1.521912 0
M  V30 END ATOM
M  V30 BEGIN BOND
M  V30 1 1 1 2
M  V30 2 1 2 3
M  V30 3 1 2 4
M  V30 4 1 4 5
M  V30 5 2 5 6
M  V30 6 1 6 7
M  V30 7 2 7 8
M  V30 8 1 8 9
M  V30 9 1 9 10
M  V30 10 2 10 11
M  V30 11 1 11 12
M  V30 12 2 12 13
M  V30 13 1 13 5
M  V30 14 1 13 9
M  V30 15 1 1 14
M  V30 16 1 1 15
M  V30 17 1 1 16
M  V30 18 1 2 17
M  V30 19 1 3 18
M  V30 20 1 3 19
M  V30 21 1 3 20
M  V30 22 1 4 21
M  V30 23 1 7 22
M  V30 24 1 10 23
M  V30 25 1 11 24
M  V30 26 1 12 25
M  V30 END BOND
M  V30 END CTAB
M  END
>  <Dataset>  (72) 
ChEMBL_Kinases

>  <Ligand_Instance>  (72) 
nan

>  <PDB_ID>  (72) 
nan

>  <Standardized_SMILES>  (72) 
CC(C)Nc1ncnn2cccc12

>  <Name>  (72) 
nan

>  <Pocket>  (72) 
nan

>  <ATP_Site>  (72) 
nan

>  <Peripheral>  (72) 
nan

>  <Num_H_Atoms_ProtBoundConf>  (72) 
nan

>  <Num_Resolved_Atoms>  (72) 
nan

>  <Num_Not_Resolved_Atoms>  (72) 
nan

$$$$
CHEMBL3326651
     RDKit          3D

  0  0  0  0  0  0  0  0  0  0999 V3000
M  V30 BEGIN CTAB
M  V30 COUNTS 19 20 0 0 0
M  V30 BEGIN ATOM
M  V30 1 C 0.779644 0.785642 3.846345 0
M  V30 2 N 0.223395 0.257083 2.624173 0
M  V30 3 C 1.055279 0.210062 1.473972 0
M  V30 4 N 2.330967 0.638873 1.491270 0
M  V30 5 C 3.106687 0.581433 0.370356 0
M  V30 6 N 2.615210 0.089312 -0.798770 0
M  V30 7 N 1.365328 -0.339965 -0.848209 0
M  V30 8 C 0.678906 -0.853654 -1.863692 0
M  V30 9 C -0.617226 -1.169860 -1.456431 0
M  V30 10 C -0.607798 -0.793880 -0.130638 0
M  V30 11 C 0.598158 -0.282425 0.262968 0
M  V30 12 H 1.215678 1.803939 3.681476 0
M  V30 13 H 1.576622 0.118649 4.197286 0
M  V30 14 H 0.005967 0.914175 4.635878 0
M  V30 15 H -0.751658 -0.092044 2.534983 0
M  V30 16 H 4.106790 0.936660 0.451626 0
M  V30 17 H 1.028450 -1.026662 -2.891966 0
M  V30 18 H -1.444806 -1.597600 -1.999407 0
M  V30 19 H -1.467096 -0.888111 0.549708 0
M  V30 END ATOM
M  V30 BEGIN BOND
M  V30 1 1 1 2
M  V30 2 1 2 3
M  V30 3 2 3 4
M  V30 4 1 4 5
M  V30 5 2 5 6
M  V30 6 1 6 7
M  V30 7 1 7 8
M  V30 8 2 8 9
M  V30 9 1 9 10
M  V30 10 2 10 11
M  V30 11 1 11 3
M  V30 12 1 11 7
M  V30 13 1 1 12
M  V30 14 1 1 13
M  V30 15 1 1 14
M  V30 16 1 2 15
M  V30 17 1 5 16
M  V30 18 1 8 17
M  V30 19 1 9 18
M  V30 20 1 10 19
M  V30 END BOND
M  V30 END CTAB
M  END
>  <Dataset>  (73) 
ChEMBL_Kinases

>  <Ligand_Instance>  (73) 
nan

>  <PDB_ID>  (73) 
nan

>  <Standardized_SMILES>  (73) 
CNc1ncnn2cccc12

>  <Name>  (73) 
nan

>  <Pocket>  (73) 
nan

>  <ATP_Site>  (73) 
nan

>  <Peripheral>  (73) 
nan

>  <Num_H_Atoms_ProtBoundConf>  (73) 
nan

>  <Num_Resolved_Atoms>  (73) 
nan

>  <Num_Not_Resolved_Atoms>  (73) 
nan

$$$$
CHEMBL3326650
     RDKit          3D

  0  0  0  0  0  0  0  0  0  0999 V3000
M  V30 BEGIN CTAB
M  V30 COUNTS 16 17 0 0 0
M  V30 BEGIN ATOM
M  V30 1 N -1.141358 -0.446210 0.721802 0
M  V30 2 C 0.238726 -0.747289 0.563761 0
M  V30 3 N 0.732204 -1.922180 0.118522 0
M  V30 4 C 2.084455 -2.078847 0.014060 0
M  V30 5 N 2.917984 -1.077938 0.349418 0
M  V30 6 N 2.515421 0.089315 0.788687 0
M  V30 7 C 3.121104 1.216749 1.178098 0
M  V30 8 C 2.181248 2.175675 1.560308 0
M  V30 9 C 0.972960 1.524778 1.365589 0
M  V30 10 C 1.163236 0.231844 0.887996 0
M  V30 11 H -1.895207 0.019779 0.174153 0
M  V30 12 H -1.292242 -0.848181 1.653438 0
M  V30 13 H 2.475720 -3.042149 -0.350536 0
M  V30 14 H 4.192830 1.288936 1.166822 0
M  V30 15 H 2.415908 3.151813 1.907622 0
M  V30 16 H 0.024921 1.999686 1.571808 0
M  V30 END ATOM
M  V30 BEGIN BOND
M  V30 1 1 1 2
M  V30 2 2 2 3
M  V30 3 1 3 4
M  V30 4 2 4 5
M  V30 5 1 5 6
M  V30 6 1 6 7
M  V30 7 2 7 8
M  V30 8 1 8 9
M  V30 9 2 9 10
M  V30 10 1 10 2
M  V30 11 1 10 6
M  V30 12 1 1 11
M  V30 13 1 1 12
M  V30 14 1 4 13
M  V30 15 1 7 14
M  V30 16 1 8 15
M  V30 17 1 9 16
M  V30 END BOND
M  V30 END CTAB
M  END
>  <Dataset>  (74) 
ChEMBL_Kinases

>  <Ligand_Instance>  (74) 
nan

>  <PDB_ID>  (74) 
nan

>  <Standardized_SMILES>  (74) 
Nc1ncnn2cccc12

>  <Name>  (74) 
nan

>  <Pocket>  (74) 
nan

>  <ATP_Site>  (74) 
nan

>  <Peripheral>  (74) 
nan

>  <Num_H_Atoms_ProtBoundConf>  (74) 
nan

>  <Num_Resolved_Atoms>  (74) 
nan

>  <Num_Not_Resolved_Atoms>  (74) 
nan

$$$$
CHEMBL3326559
     RDKit          3D

  0  0  0  0  0  0  0  0  0  0999 V3000
M  V30 BEGIN CTAB
M  V30 COUNTS 31 35 0 0 0
M  V30 BEGIN ATOM
M  V30 1 O 4.992925 -0.454641 0.300051 0
M  V30 2 N 4.440773 -1.531803 0.013396 0 CHG=1 VAL=4
M  V30 3 O 5.128060 -2.718301 -0.128896 0 CHG=-1 VAL=1
M  V30 4 C 3.048225 -1.708742 -0.207981 0
M  V30 5 C 2.536205 -2.635845 -1.077473 0
M  V30 6 C 1.187267 -2.787269 -1.274029 0
M  V30 7 N 0.576776 -3.675089 -2.111677 0
M  V30 8 N -0.724385 -3.398148 -1.914486 0
M  V30 9 C -0.875256 -2.417978 -1.025108 0
M  V30 10 C 0.317464 -1.984955 -0.578145 0
M  V30 11 C 0.774053 -1.069454 0.278481 0
M  V30 12 C 2.120171 -0.936552 0.457848 0
M  V30 13 N 2.580794 -0.024075 1.311006 0
M  V30 14 C 1.720796 0.751145 1.982056 0
M  V30 15 C 0.343159 0.644826 1.825748 0
M  V30 16 C -0.398957 1.521659 2.595165 0
M  V30 17 C -1.767075 1.416106 2.440157 0
M  V30 18 C -2.339315 0.498385 1.577479 0
M  V30 19 C -1.465768 -0.303217 0.882508 0
M  V30 20 C -0.117589 -0.298403 0.944401 0
M  V30 21 O -3.710374 0.680449 1.685254 0
M  V30 22 C -4.007514 1.544924 2.769753 0
M  V30 23 O -2.766766 2.143563 3.061663 0
M  V30 24 H 3.247796 -3.242891 -1.601021 0
M  V30 25 H 1.043126 -4.373931 -2.730007 0
M  V30 26 H -1.880962 -2.221725 -0.888397 0
M  V30 27 H 2.152671 1.470451 2.657087 0
M  V30 28 H 0.062555 2.231638 3.264105 0
M  V30 29 H -1.975329 -0.955347 0.264689 0
M  V30 30 H -4.374080 0.962338 3.655309 0
M  V30 31 H -4.714809 2.348571 2.486527 0
M  V30 END ATOM
M  V30 BEGIN BOND
M  V30 1 2 1 2
M  V30 2 1 2 3
M  V30 3 1 2 4
M  V30 4 2 4 5
M  V30 5 1 5 6
M  V30 6 1 6 7
M  V30 7 1 7 8
M  V30 8 2 8 9
M  V30 9 1 9 10
M  V30 10 1 10 11
M  V30 11 2 11 12
M  V30 12 1 12 13
M  V30 13 2 13 14
M  V30 14 1 14 15
M  V30 15 2 15 16
M  V30 16 1 16 17
M  V30 17 2 17 18
M  V30 18 1 18 19
M  V30 19 2 19 20
M  V30 20 1 18 21
M  V30 21 1 21 22
M  V30 22 1 22 23
M  V30 23 1 12 4
M  V30 24 1 20 15
M  V30 25 2 10 6
M  V30 26 1 20 11
M  V30 27 1 23 17
M  V30 28 1 5 24
M  V30 29 1 7 25
M  V30 30 1 9 26
M  V30 31 1 14 27
M  V30 32 1 16 28
M  V30 33 1 19 29
M  V30 34 1 22 30
M  V30 35 1 22 31
M  V30 END BOND
M  V30 END CTAB
M  END
>  <Dataset>  (75) 
ChEMBL_Kinases

>  <Ligand_Instance>  (75) 
nan

>  <PDB_ID>  (75) 
nan

>  <Standardized_SMILES>  (75) 
O=[N+]([O-])c1cc2[nH]ncc2c2c1ncc1cc3c(cc12)OCO3

>  <Name>  (75) 
nan

>  <Pocket>  (75) 
nan

>  <ATP_Site>  (75) 
nan

>  <Peripheral>  (75) 
nan

>  <Num_H_Atoms_ProtBoundConf>  (75) 
nan

>  <Num_Resolved_Atoms>  (75) 
nan

>  <Num_Not_Resolved_Atoms>  (75) 
nan

$$$$
CHEMBL3326558
     RDKit          3D

  0  0  0  0  0  0  0  0  0  0999 V3000
M  V30 BEGIN CTAB
M  V30 COUNTS 28 31 0 0 0
M  V30 BEGIN ATOM
M  V30 1 O 2.226008 -0.142556 5.100299 0
M  V30 2 N 1.412834 0.371391 4.280732 0 CHG=1 VAL=4
M  V30 3 O 0.522231 1.329857 4.701331 0 CHG=-1 VAL=1
M  V30 4 C 1.550382 -0.151583 2.965716 0
M  V30 5 C 2.714539 -0.669269 2.443701 0
M  V30 6 C 2.795873 -1.164495 1.161022 0
M  V30 7 N 3.901418 -1.695768 0.558401 0
M  V30 8 N 3.418382 -2.008740 -0.657498 0
M  V30 9 C 2.131234 -1.687609 -0.762908 0
M  V30 10 C 1.679964 -1.146976 0.361700 0
M  V30 11 C 0.522122 -0.650524 0.830825 0
M  V30 12 C 0.467525 -0.163533 2.111470 0
M  V30 13 N -0.674412 0.324982 2.570977 0
M  V30 14 C -1.760718 0.339487 1.785906 0
M  V30 15 C -1.740704 -0.145064 0.485607 0
M  V30 16 C -2.943310 -0.055717 -0.184480 0
M  V30 17 F -4.055893 0.463376 0.380757 0
M  V30 18 C -2.932688 -0.532439 -1.470525 0
M  V30 19 C -1.795521 -1.062020 -2.045082 0
M  V30 20 C -0.668388 -1.086715 -1.256563 0
M  V30 21 C -0.557977 -0.648776 0.015812 0
M  V30 22 H 3.574029 -0.668927 3.096640 0
M  V30 23 H 4.850897 -1.807458 0.975998 0
M  V30 24 H 1.794232 -1.941569 -1.707607 0
M  V30 25 H -2.656473 0.749125 2.217957 0
M  V30 26 H -3.851832 -0.484340 -2.036877 0
M  V30 27 H -1.854880 -1.420445 -3.063299 0
M  V30 28 H 0.136732 -1.496680 -1.757401 0
M  V30 END ATOM
M  V30 BEGIN BOND
M  V30 1 2 1 2
M  V30 2 1 2 3
M  V30 3 1 2 4
M  V30 4 2 4 5
M  V30 5 1 5 6
M  V30 6 1 6 7
M  V30 7 1 7 8
M  V30 8 2 8 9
M  V30 9 1 9 10
M  V30 10 1 10 11
M  V30 11 2 11 12
M  V30 12 1 12 13
M  V30 13 2 13 14
M  V30 14 1 14 15
M  V30 15 2 15 16
M  V30 16 1 16 17
M  V30 17 1 16 18
M  V30 18 2 18 19
M  V30 19 1 19 20
M  V30 20 2 20 21
M  V30 21 1 12 4
M  V30 22 1 21 15
M  V30 23 2 10 6
M  V30 24 1 21 11
M  V30 25 1 5 22
M  V30 26 1 7 23
M  V30 27 1 9 24
M  V30 28 1 14 25
M  V30 29 1 18 26
M  V30 30 1 19 27
M  V30 31 1 20 28
M  V30 END BOND
M  V30 END CTAB
M  END
>  <Dataset>  (76) 
ChEMBL_Kinases

>  <Ligand_Instance>  (76) 
nan

>  <PDB_ID>  (76) 
nan

>  <Standardized_SMILES>  (76) 
O=[N+]([O-])c1cc2[nH]ncc2c2c1ncc1c(F)cccc12

>  <Name>  (76) 
nan

>  <Pocket>  (76) 
nan

>  <ATP_Site>  (76) 
nan

>  <Peripheral>  (76) 
nan

>  <Num_H_Atoms_ProtBoundConf>  (76) 
nan

>  <Num_Resolved_Atoms>  (76) 
nan

>  <Num_Not_Resolved_Atoms>  (76) 
nan

$$$$
CHEMBL3326557
     RDKit          3D

  0  0  0  0  0  0  0  0  0  0999 V3000
M  V30 BEGIN CTAB
M  V30 COUNTS 28 31 0 0 0
M  V30 BEGIN ATOM
M  V30 1 O 2.401019 1.027907 4.851233 0
M  V30 2 N 1.412787 0.555755 4.250173 0 CHG=1 VAL=4
M  V30 3 O 0.156416 0.638326 4.845288 0 CHG=-1 VAL=1
M  V30 4 C 1.534541 -0.062548 2.978958 0
M  V30 5 C 2.674265 -0.686079 2.522628 0
M  V30 6 C 2.748044 -1.273335 1.282970 0
M  V30 7 N 3.826030 -1.912924 0.742139 0
M  V30 8 N 3.349452 -2.282515 -0.460579 0
M  V30 9 C 2.087884 -1.893813 -0.623160 0
M  V30 10 C 1.645510 -1.240004 0.463589 0
M  V30 11 C 0.520303 -0.647809 0.861837 0
M  V30 12 C 0.468457 -0.067510 2.103793 0
M  V30 13 N -0.650254 0.525258 2.508448 0
M  V30 14 C -1.718398 0.550488 1.698121 0
M  V30 15 C -1.700828 -0.029443 0.428854 0
M  V30 16 C -2.886174 0.092835 -0.262582 0
M  V30 17 C -2.880821 -0.476771 -1.520264 0
M  V30 18 C -1.767178 -1.113616 -2.026545 0
M  V30 19 Cl -1.830688 -1.814183 -3.631398 0
M  V30 20 C -0.660372 -1.150965 -1.210284 0
M  V30 21 C -0.549982 -0.630466 0.032012 0
M  V30 22 H 3.513783 -0.691998 3.191734 0
M  V30 23 H 4.759176 -2.052805 1.188083 0
M  V30 24 H 1.749466 -2.188763 -1.547777 0
M  V30 25 H -2.589612 1.042264 2.081361 0
M  V30 26 H -3.746074 0.586343 0.130776 0
M  V30 27 H -3.784438 -0.411237 -2.109432 0
M  V30 28 H 0.123293 -1.645379 -1.667364 0
M  V30 END ATOM
M  V30 BEGIN BOND
M  V30 1 2 1 2
M  V30 2 1 2 3
M  V30 3 1 2 4
M  V30 4 2 4 5
M  V30 5 1 5 6
M  V30 6 1 6 7
M  V30 7 1 7 8
M  V30 8 2 8 9
M  V30 9 1 9 10
M  V30 10 1 10 11
M  V30 11 2 11 12
M  V30 12 1 12 13
M  V30 13 2 13 14
M  V30 14 1 14 15
M  V30 15 2 15 16
M  V30 16 1 16 17
M  V30 17 2 17 18
M  V30 18 1 18 19
M  V30 19 1 18 20
M  V30 20 2 20 21
M  V30 21 1 12 4
M  V30 22 1 21 15
M  V30 23 2 10 6
M  V30 24 1 21 11
M  V30 25 1 5 22
M  V30 26 1 7 23
M  V30 27 1 9 24
M  V30 28 1 14 25
M  V30 29 1 16 26
M  V30 30 1 17 27
M  V30 31 1 20 28
M  V30 END BOND
M  V30 END CTAB
M  END
>  <Dataset>  (77) 
ChEMBL_Kinases

>  <Ligand_Instance>  (77) 
nan

>  <PDB_ID>  (77) 
nan

>  <Standardized_SMILES>  (77) 
O=[N+]([O-])c1cc2[nH]ncc2c2c1ncc1ccc(Cl)cc12

>  <Name>  (77) 
nan

>  <Pocket>  (77) 
nan

>  <ATP_Site>  (77) 
nan

>  <Peripheral>  (77) 
nan

>  <Num_H_Atoms_ProtBoundConf>  (77) 
nan

>  <Num_Resolved_Atoms>  (77) 
nan

>  <Num_Not_Resolved_Atoms>  (77) 
nan

$$$$
CHEMBL3326153
     RDKit          3D

  0  0  0  0  0  0  0  0  0  0999 V3000
M  V30 BEGIN CTAB
M  V30 COUNTS 46 49 0 0 0
M  V30 BEGIN ATOM
M  V30 1 C 2.639366 -4.617956 3.727477 0
M  V30 2 O 2.000259 -4.090399 2.578677 0
M  V30 3 C 2.722163 -3.182256 1.814843 0
M  V30 4 C 3.995350 -2.737763 2.053735 0
M  V30 5 C 4.628410 -1.833087 1.235484 0
M  V30 6 C 3.954565 -1.340825 0.111904 0
M  V30 7 O 4.592286 -0.439375 -0.698827 0
M  V30 8 C 5.919734 0.000566 -0.417573 0
M  V30 9 C 2.673374 -1.798024 -0.114906 0
M  V30 10 S 1.779411 -1.179586 -1.558064 0
M  V30 11 C 0.905102 0.290675 -0.994964 0
M  V30 12 C 1.499038 1.532514 -1.068126 0
M  V30 13 C 0.796997 2.648468 -0.624919 0
M  V30 14 N -0.444402 2.449999 -0.141052 0
M  V30 15 N -1.259033 3.380099 0.322854 0
M  V30 16 C -2.401767 2.785250 0.711353 0
M  V30 17 C -3.636758 3.364228 1.299898 0
M  V30 18 C -2.305731 1.413284 0.482393 0
M  V30 19 C -3.201291 0.283964 0.695347 0
M  V30 20 C -3.188796 -0.420065 1.894148 0
M  V30 21 N -4.121286 -1.386713 1.766559 0
M  V30 22 N -4.690685 -1.304965 0.566661 0
M  V30 23 C -5.736633 -2.194572 0.098600 0
M  V30 24 C -4.153232 -0.286632 -0.129825 0
M  V30 25 C -1.030952 1.233836 -0.067386 0
M  V30 26 N -0.338596 0.140806 -0.503439 0
M  V30 27 C 2.031269 -2.716752 0.716584 0
M  V30 28 H 3.343136 -5.389158 3.360084 0
M  V30 29 H 3.182217 -3.858987 4.310643 0
M  V30 30 H 1.898261 -5.074144 4.430805 0
M  V30 31 H 4.486988 -3.131667 2.921121 0
M  V30 32 H 5.628845 -1.550746 1.514975 0
M  V30 33 H 6.212994 0.843509 -1.041823 0
M  V30 34 H 6.632105 -0.838144 -0.392891 0
M  V30 35 H 5.880269 0.405247 0.636054 0
M  V30 36 H 2.499875 1.651775 -1.463853 0
M  V30 37 H 1.249296 3.639162 -0.674412 0
M  V30 38 H -3.336052 4.371991 1.705622 0
M  V30 39 H -3.981578 2.797276 2.193063 0
M  V30 40 H -4.442570 3.521479 0.577910 0
M  V30 41 H -2.591971 -0.276323 2.768781 0
M  V30 42 H -6.336586 -1.659600 -0.659016 0
M  V30 43 H -6.415364 -2.405479 0.943857 0
M  V30 44 H -5.299203 -3.133511 -0.331045 0
M  V30 45 H -4.374355 0.062020 -1.124907 0
M  V30 46 H 1.023831 -3.015890 0.455498 0
M  V30 END ATOM
M  V30 BEGIN BOND
M  V30 1 1 1 2
M  V30 2 1 2 3
M  V30 3 2 3 4
M  V30 4 1 4 5
M  V30 5 2 5 6
M  V30 6 1 6 7
M  V30 7 1 7 8
M  V30 8 1 6 9
M  V30 9 1 9 10
M  V30 10 1 10 11
M  V30 11 1 11 12
M  V30 12 2 12 13
M  V30 13 1 13 14
M  V30 14 1 14 15
M  V30 15 2 15 16
M  V30 16 1 16 17
M  V30 17 1 16 18
M  V30 18 1 18 19
M  V30 19 1 19 20
M  V30 20 2 20 21
M  V30 21 1 21 22
M  V30 22 1 22 23
M  V30 23 1 22 24
M  V30 24 2 18 25
M  V30 25 1 25 26
M  V30 26 2 9 27
M  V30 27 1 27 3
M  V30 28 2 26 11
M  V30 29 1 25 14
M  V30 30 2 24 19
M  V30 31 1 1 28
M  V30 32 1 1 29
M  V30 33 1 1 30
M  V30 34 1 4 31
M  V30 35 1 5 32
M  V30 36 1 8 33
M  V30 37 1 8 34
M  V30 38 1 8 35
M  V30 39 1 12 36
M  V30 40 1 13 37
M  V30 41 1 17 38
M  V30 42 1 17 39
M  V30 43 1 17 40
M  V30 44 1 20 41
M  V30 45 1 23 42
M  V30 46 1 23 43
M  V30 47 1 23 44
M  V30 48 1 24 45
M  V30 49 1 27 46
M  V30 END BOND
M  V30 END CTAB
M  END
>  <Dataset>  (78) 
ChEMBL_Kinases

>  <Ligand_Instance>  (78) 
nan

>  <PDB_ID>  (78) 
nan

>  <Standardized_SMILES>  (78) 
COc1ccc(OC)c(Sc2ccn3nc(C)c(-c4cnn(C)c4)c3n2)c1

>  <Name>  (78) 
nan

>  <Pocket>  (78) 
nan

>  <ATP_Site>  (78) 
nan

>  <Peripheral>  (78) 
nan

>  <Num_H_Atoms_ProtBoundConf>  (78) 
nan

>  <Num_Resolved_Atoms>  (78) 
nan

>  <Num_Not_Resolved_Atoms>  (78) 
nan

$$$$
CHEMBL3326152
     RDKit          3D

  0  0  0  0  0  0  0  0  0  0999 V3000
M  V30 BEGIN CTAB
M  V30 COUNTS 46 49 0 0 0
M  V30 BEGIN ATOM
M  V30 1 C 2.312956 -5.197933 2.990641 0
M  V30 2 O 1.663403 -4.396522 2.021892 0
M  V30 3 C 2.399632 -3.449088 1.344939 0
M  V30 4 C 3.753930 -3.215777 1.543459 0
M  V30 5 C 4.368615 -2.218591 0.781071 0
M  V30 6 C 3.662874 -1.466048 -0.158458 0
M  V30 7 O 4.345362 -0.496947 -0.872880 0
M  V30 8 C 5.739282 -0.250241 -0.674854 0
M  V30 9 C 2.318676 -1.738718 -0.316186 0
M  V30 10 S 1.446082 -0.756082 -1.527717 0
M  V30 11 C 0.766794 0.721757 -0.786568 0
M  V30 12 C 1.508183 1.899540 -0.741915 0
M  V30 13 C 0.893612 2.983457 -0.148796 0
M  V30 14 C -0.389515 2.813829 0.345494 0
M  V30 15 N -1.168524 3.718334 0.953710 0
M  V30 16 C -2.335996 3.102156 1.262196 0
M  V30 17 C -3.514450 3.698685 1.946226 0
M  V30 18 C -2.290829 1.791646 0.842165 0
M  V30 19 C -3.272267 0.719247 0.932043 0
M  V30 20 C -4.539666 0.733511 1.476008 0
M  V30 21 N -5.111813 -0.480738 1.348352 0
M  V30 22 N -4.235057 -1.284475 0.729324 0
M  V30 23 C -4.417327 -2.687377 0.378044 0
M  V30 24 C -3.122694 -0.573235 0.473184 0
M  V30 25 N -1.074063 1.658771 0.283600 0
M  V30 26 N -0.494381 0.611520 -0.283453 0
M  V30 27 C 1.669563 -2.713797 0.414341 0
M  V30 28 H 2.987131 -5.924566 2.460790 0
M  V30 29 H 2.890475 -4.610653 3.733538 0
M  V30 30 H 1.560275 -5.757836 3.598076 0
M  V30 31 H 4.272322 -3.800151 2.263800 0
M  V30 32 H 5.425800 -2.084703 0.982193 0
M  V30 33 H 6.133316 0.326801 -1.523458 0
M  V30 34 H 6.336592 -1.175117 -0.614081 0
M  V30 35 H 5.878864 0.283508 0.290119 0
M  V30 36 H 2.499611 1.897852 -1.164425 0
M  V30 37 H 1.435951 3.911342 -0.095842 0
M  V30 38 H -3.238065 4.768104 2.169410 0
M  V30 39 H -3.700895 3.259240 2.951955 0
M  V30 40 H -4.411232 3.774898 1.309728 0
M  V30 41 H -5.034990 1.552987 1.937463 0
M  V30 42 H -4.117904 -2.846521 -0.693415 0
M  V30 43 H -5.472203 -2.968210 0.472525 0
M  V30 44 H -3.821932 -3.351660 1.049841 0
M  V30 45 H -2.250340 -0.975414 -0.021198 0
M  V30 46 H 0.633139 -2.853254 0.225018 0
M  V30 END ATOM
M  V30 BEGIN BOND
M  V30 1 1 1 2
M  V30 2 1 2 3
M  V30 3 2 3 4
M  V30 4 1 4 5
M  V30 5 2 5 6
M  V30 6 1 6 7
M  V30 7 1 7 8
M  V30 8 1 6 9
M  V30 9 1 9 10
M  V30 10 1 10 11
M  V30 11 1 11 12
M  V30 12 2 12 13
M  V30 13 1 13 14
M  V30 14 2 14 15
M  V30 15 1 15 16
M  V30 16 1 16 17
M  V30 17 2 16 18
M  V30 18 1 18 19
M  V30 19 1 19 20
M  V30 20 2 20 21
M  V30 21 1 21 22
M  V30 22 1 22 23
M  V30 23 1 22 24
M  V30 24 1 18 25
M  V30 25 1 25 26
M  V30 26 2 9 27
M  V30 27 1 27 3
M  V30 28 2 26 11
M  V30 29 1 25 14
M  V30 30 2 24 19
M  V30 31 1 1 28
M  V30 32 1 1 29
M  V30 33 1 1 30
M  V30 34 1 4 31
M  V30 35 1 5 32
M  V30 36 1 8 33
M  V30 37 1 8 34
M  V30 38 1 8 35
M  V30 39 1 12 36
M  V30 40 1 13 37
M  V30 41 1 17 38
M  V30 42 1 17 39
M  V30 43 1 17 40
M  V30 44 1 20 41
M  V30 45 1 23 42
M  V30 46 1 23 43
M  V30 47 1 23 44
M  V30 48 1 24 45
M  V30 49 1 27 46
M  V30 END BOND
M  V30 END CTAB
M  END
>  <Dataset>  (79) 
ChEMBL_Kinases

>  <Ligand_Instance>  (79) 
nan

>  <PDB_ID>  (79) 
nan

>  <Standardized_SMILES>  (79) 
COc1ccc(OC)c(Sc2ccc3nc(C)c(-c4cnn(C)c4)n3n2)c1

>  <Name>  (79) 
nan

>  <Pocket>  (79) 
nan

>  <ATP_Site>  (79) 
nan

>  <Peripheral>  (79) 
nan

>  <Num_H_Atoms_ProtBoundConf>  (79) 
nan

>  <Num_Resolved_Atoms>  (79) 
nan

>  <Num_Not_Resolved_Atoms>  (79) 
nan

$$$$
CHEMBL3326151
     RDKit          3D

  0  0  0  0  0  0  0  0  0  0999 V3000
M  V30 BEGIN CTAB
M  V30 COUNTS 44 47 0 0 0
M  V30 BEGIN ATOM
M  V30 1 C -0.010374 -5.482012 -0.736924 0
M  V30 2 O 0.805780 -4.382218 -1.015380 0
M  V30 3 C 0.360366 -3.129251 -1.393202 0
M  V30 4 C -0.979128 -2.824650 -1.539301 0
M  V30 5 C -1.393700 -1.563313 -1.918161 0
M  V30 6 C -0.451146 -0.568579 -2.161008 0
M  V30 7 O -0.692432 0.735668 -2.544501 0
M  V30 8 C -1.936519 1.317426 -2.765624 0
M  V30 9 C 0.900320 -0.865562 -2.016559 0
M  V30 10 S 2.213799 0.317042 -2.296804 0
M  V30 11 C 2.529714 1.135672 -0.738449 0
M  V30 12 C 3.512573 2.100638 -0.704624 0
M  V30 13 C 3.735448 2.714857 0.506470 0
M  V30 14 C 2.999997 2.364529 1.612546 0
M  V30 15 N 3.031126 2.808117 2.870690 0
M  V30 16 C 2.114156 2.158699 3.602618 0
M  V30 17 C 1.446729 1.241427 2.782242 0
M  V30 18 C 0.389255 0.359817 3.222405 0
M  V30 19 C -0.427140 -0.605680 2.695254 0
M  V30 20 N -1.266161 -1.118905 3.611238 0
M  V30 21 N -1.041903 -0.526832 4.750690 0
M  V30 22 C -1.776407 -0.848712 5.940251 0
M  V30 23 C -0.062047 0.357118 4.546968 0
M  V30 24 N 2.047453 1.437658 1.605111 0
M  V30 25 C 1.845617 0.850736 0.414962 0
M  V30 26 C 1.299660 -2.151052 -1.631465 0
M  V30 27 H 0.569790 -6.408634 -0.988663 0
M  V30 28 H -0.235452 -5.500832 0.343989 0
M  V30 29 H -0.908561 -5.442648 -1.388864 0
M  V30 30 H -1.735244 -3.577524 -1.357381 0
M  V30 31 H -2.422338 -1.258190 -2.050707 0
M  V30 32 H -2.319757 1.962452 -1.974704 0
M  V30 33 H -2.713369 0.573126 -3.059784 0
M  V30 34 H -1.831616 1.970922 -3.676059 0
M  V30 35 H 4.076683 2.363253 -1.571576 0
M  V30 36 H 4.499266 3.474866 0.563514 0
M  V30 37 H 1.969763 2.366139 4.660466 0
M  V30 38 H -0.392592 -0.908462 1.671852 0
M  V30 39 H -2.868750 -0.917646 5.708487 0
M  V30 40 H -1.697407 -0.038301 6.721373 0
M  V30 41 H -1.510430 -1.828540 6.385546 0
M  V30 42 H 0.271651 0.961247 5.399947 0
M  V30 43 H 1.103493 0.095281 0.307696 0
M  V30 44 H 2.347718 -2.389963 -1.516990 0
M  V30 END ATOM
M  V30 BEGIN BOND
M  V30 1 1 1 2
M  V30 2 1 2 3
M  V30 3 2 3 4
M  V30 4 1 4 5
M  V30 5 2 5 6
M  V30 6 1 6 7
M  V30 7 1 7 8
M  V30 8 1 6 9
M  V30 9 1 9 10
M  V30 10 1 10 11
M  V30 11 1 11 12
M  V30 12 2 12 13
M  V30 13 1 13 14
M  V30 14 2 14 15
M  V30 15 1 15 16
M  V30 16 2 16 17
M  V30 17 1 17 18
M  V30 18 1 18 19
M  V30 19 2 19 20
M  V30 20 1 20 21
M  V30 21 1 21 22
M  V30 22 1 21 23
M  V30 23 1 17 24
M  V30 24 1 24 25
M  V30 25 2 9 26
M  V30 26 1 26 3
M  V30 27 2 25 11
M  V30 28 1 24 14
M  V30 29 2 23 18
M  V30 30 1 1 27
M  V30 31 1 1 28
M  V30 32 1 1 29
M  V30 33 1 4 30
M  V30 34 1 5 31
M  V30 35 1 8 32
M  V30 36 1 8 33
M  V30 37 1 8 34
M  V30 38 1 12 35
M  V30 39 1 13 36
M  V30 40 1 16 37
M  V30 41 1 19 38
M  V30 42 1 22 39
M  V30 43 1 22 40
M  V30 44 1 22 41
M  V30 45 1 23 42
M  V30 46 1 25 43
M  V30 47 1 26 44
M  V30 END BOND
M  V30 END CTAB
M  END
>  <Dataset>  (80) 
ChEMBL_Kinases

>  <Ligand_Instance>  (80) 
nan

>  <PDB_ID>  (80) 
nan

>  <Standardized_SMILES>  (80) 
COc1ccc(OC)c(Sc2ccc3ncc(-c4cnn(C)c4)n3c2)c1

>  <Name>  (80) 
nan

>  <Pocket>  (80) 
nan

>  <ATP_Site>  (80) 
nan

>  <Peripheral>  (80) 
nan

>  <Num_H_Atoms_ProtBoundConf>  (80) 
nan

>  <Num_Resolved_Atoms>  (80) 
nan

>  <Num_Not_Resolved_Atoms>  (80) 
nan

$$$$
CHEMBL3326150
     RDKit          3D

  0  0  0  0  0  0  0  0  0  0999 V3000
M  V30 BEGIN CTAB
M  V30 COUNTS 43 46 0 0 0
M  V30 BEGIN ATOM
M  V30 1 C -0.236657 -5.593871 0.692090 0
M  V30 2 O 0.583046 -4.606369 0.137975 0
M  V30 3 C 0.138181 -3.459002 -0.470252 0
M  V30 4 C -1.186932 -3.109329 -0.625318 0
M  V30 5 C -1.563311 -1.937609 -1.248440 0
M  V30 6 C -0.628556 -1.054323 -1.749206 0
M  V30 7 O -0.875048 0.132481 -2.383783 0
M  V30 8 C -2.124772 0.687420 -2.651600 0
M  V30 9 C 0.724589 -1.385032 -1.605091 0
M  V30 10 S 2.079983 -0.356450 -2.195016 0
M  V30 11 C 2.500884 0.747880 -0.853779 0
M  V30 12 C 3.529990 1.676315 -1.015169 0
M  V30 13 C 3.909074 2.563302 -0.016182 0
M  V30 14 C 3.248983 2.537655 1.194106 0
M  V30 15 N 3.376427 3.238656 2.312260 0
M  V30 16 C 2.468619 2.790495 3.174855 0
M  V30 17 N 1.757317 1.787564 2.584882 0
M  V30 18 C 0.688819 1.056663 3.205095 0
M  V30 19 C -0.538773 1.688217 3.168971 0
M  V30 20 N -1.416388 0.858251 3.795235 0
M  V30 21 N -0.790271 -0.224481 4.200709 0
M  V30 22 C -1.290711 -1.379166 4.904565 0
M  V30 23 C 0.508054 -0.145406 3.858785 0
M  V30 24 C 2.224785 1.601373 1.330889 0
M  V30 25 N 1.896405 0.772877 0.348703 0
M  V30 26 C 1.088854 -2.577768 -0.970314 0
M  V30 27 H 0.277757 -6.160230 1.501556 0
M  V30 28 H -0.430770 -6.348257 -0.115149 0
M  V30 29 H -1.221483 -5.201183 1.026627 0
M  V30 30 H -1.945164 -3.779089 -0.244348 0
M  V30 31 H -2.605882 -1.657499 -1.373141 0
M  V30 32 H -2.856704 0.291925 -1.919488 0
M  V30 33 H -2.439915 0.283883 -3.655941 0
M  V30 34 H -2.181714 1.772622 -2.641922 0
M  V30 35 H 4.072137 1.722480 -1.960457 0
M  V30 36 H 4.728260 3.259552 -0.227762 0
M  V30 37 H 2.319148 3.167490 4.192370 0
M  V30 38 H -0.930772 2.615198 2.788355 0
M  V30 39 H -1.642216 -2.168113 4.191599 0
M  V30 40 H -2.219027 -1.091507 5.465854 0
M  V30 41 H -0.565258 -1.800703 5.627045 0
M  V30 42 H 1.390608 -0.760099 3.966504 0
M  V30 43 H 2.153374 -2.836197 -0.857883 0
M  V30 END ATOM
M  V30 BEGIN BOND
M  V30 1 1 1 2
M  V30 2 1 2 3
M  V30 3 2 3 4
M  V30 4 1 4 5
M  V30 5 2 5 6
M  V30 6 1 6 7
M  V30 7 1 7 8
M  V30 8 1 6 9
M  V30 9 1 9 10
M  V30 10 1 10 11
M  V30 11 2 11 12
M  V30 12 1 12 13
M  V30 13 2 13 14
M  V30 14 1 14 15
M  V30 15 2 15 16
M  V30 16 1 16 17
M  V30 17 1 17 18
M  V30 18 1 18 19
M  V30 19 2 19 20
M  V30 20 1 20 21
M  V30 21 1 21 22
M  V30 22 1 21 23
M  V30 23 1 17 24
M  V30 24 2 24 25
M  V30 25 2 9 26
M  V30 26 1 26 3
M  V30 27 1 25 11
M  V30 28 1 24 14
M  V30 29 2 23 18
M  V30 30 1 1 27
M  V30 31 1 1 28
M  V30 32 1 1 29
M  V30 33 1 4 30
M  V30 34 1 5 31
M  V30 35 1 8 32
M  V30 36 1 8 33
M  V30 37 1 8 34
M  V30 38 1 12 35
M  V30 39 1 13 36
M  V30 40 1 16 37
M  V30 41 1 19 38
M  V30 42 1 22 39
M  V30 43 1 22 40
M  V30 44 1 22 41
M  V30 45 1 23 42
M  V30 46 1 26 43
M  V30 END BOND
M  V30 END CTAB
M  END
>  <Dataset>  (81) 
ChEMBL_Kinases

>  <Ligand_Instance>  (81) 
nan

>  <PDB_ID>  (81) 
nan

>  <Standardized_SMILES>  (81) 
COc1ccc(OC)c(Sc2ccc3ncn(-c4cnn(C)c4)c3n2)c1

>  <Name>  (81) 
nan

>  <Pocket>  (81) 
nan

>  <ATP_Site>  (81) 
nan

>  <Peripheral>  (81) 
nan

>  <Num_H_Atoms_ProtBoundConf>  (81) 
nan

>  <Num_Resolved_Atoms>  (81) 
nan

>  <Num_Not_Resolved_Atoms>  (81) 
nan

$$$$
CHEMBL3326149
     RDKit          3D

  0  0  0  0  0  0  0  0  0  0999 V3000
M  V30 BEGIN CTAB
M  V30 COUNTS 42 45 0 0 0
M  V30 BEGIN ATOM
M  V30 1 C 0.119089 -5.397868 1.737292 0
M  V30 2 O 1.051341 -4.600132 1.036737 0
M  V30 3 C 0.552523 -3.632267 0.174942 0
M  V30 4 C -0.827538 -3.486936 0.036062 0
M  V30 5 C -1.318892 -2.524760 -0.820633 0
M  V30 6 C -0.491993 -1.696082 -1.549389 0
M  V30 7 O -0.863862 -0.705622 -2.430298 0
M  V30 8 C -2.176982 -0.348063 -2.756869 0
M  V30 9 C 0.891265 -1.835606 -1.415639 0
M  V30 10 S 2.147908 -0.880703 -2.253182 0
M  V30 11 C 2.526329 0.546210 -1.234578 0
M  V30 12 C 3.472212 1.482559 -1.622413 0
M  V30 13 C 3.797331 2.595599 -0.873219 0
M  V30 14 C 3.154721 2.802237 0.330297 0
M  V30 15 N 3.177963 3.728609 1.328384 0
M  V30 16 N 2.297738 3.362395 2.252733 0
M  V30 17 N 1.693943 2.231562 1.905657 0
M  V30 18 C 0.693907 1.512335 2.617689 0
M  V30 19 C -0.318846 0.779388 1.990441 0
M  V30 20 N -1.120394 0.204104 2.912734 0
M  V30 21 N -0.640331 0.554559 4.102495 0
M  V30 22 C -1.244754 0.122595 5.344037 0
M  V30 23 C 0.446323 1.338237 3.963294 0
M  V30 24 C 2.212525 1.860701 0.706763 0
M  V30 25 N 1.923621 0.784226 -0.056485 0
M  V30 26 C 1.381044 -2.803247 -0.554107 0
M  V30 27 H 0.683916 -6.212525 2.254266 0
M  V30 28 H -0.440183 -4.852062 2.515876 0
M  V30 29 H -0.580451 -5.849581 0.988528 0
M  V30 30 H -1.546230 -4.093960 0.569071 0
M  V30 31 H -2.378964 -2.371845 -0.963912 0
M  V30 32 H -2.950744 -1.062477 -2.420000 0
M  V30 33 H -2.462205 0.663614 -2.377130 0
M  V30 34 H -2.201055 -0.259784 -3.876101 0
M  V30 35 H 4.003470 1.370309 -2.552033 0
M  V30 36 H 4.535663 3.324264 -1.178446 0
M  V30 37 H -0.437718 0.689966 0.916344 0
M  V30 38 H -1.161729 -0.984855 5.474743 0
M  V30 39 H -2.344428 0.353432 5.261959 0
M  V30 40 H -0.888755 0.692291 6.214225 0
M  V30 41 H 1.060462 1.783990 4.723631 0
M  V30 42 H 2.437653 -2.977352 -0.392056 0
M  V30 END ATOM
M  V30 BEGIN BOND
M  V30 1 1 1 2
M  V30 2 1 2 3
M  V30 3 2 3 4
M  V30 4 1 4 5
M  V30 5 2 5 6
M  V30 6 1 6 7
M  V30 7 1 7 8
M  V30 8 1 6 9
M  V30 9 1 9 10
M  V30 10 1 10 11
M  V30 11 2 11 12
M  V30 12 1 12 13
M  V30 13 2 13 14
M  V30 14 1 14 15
M  V30 15 2 15 16
M  V30 16 1 16 17
M  V30 17 1 17 18
M  V30 18 1 18 19
M  V30 19 2 19 20
M  V30 20 1 20 21
M  V30 21 1 21 22
M  V30 22 1 21 23
M  V30 23 1 17 24
M  V30 24 2 24 25
M  V30 25 2 9 26
M  V30 26 1 26 3
M  V30 27 1 25 11
M  V30 28 1 24 14
M  V30 29 2 23 18
M  V30 30 1 1 27
M  V30 31 1 1 28
M  V30 32 1 1 29
M  V30 33 1 4 30
M  V30 34 1 5 31
M  V30 35 1 8 32
M  V30 36 1 8 33
M  V30 37 1 8 34
M  V30 38 1 12 35
M  V30 39 1 13 36
M  V30 40 1 19 37
M  V30 41 1 22 38
M  V30 42 1 22 39
M  V30 43 1 22 40
M  V30 44 1 23 41
M  V30 45 1 26 42
M  V30 END BOND
M  V30 END CTAB
M  END
>  <Dataset>  (82) 
ChEMBL_Kinases

>  <Ligand_Instance>  (82) 
nan

>  <PDB_ID>  (82) 
nan

>  <Standardized_SMILES>  (82) 
COc1ccc(OC)c(Sc2ccc3nnn(-c4cnn(C)c4)c3n2)c1

>  <Name>  (82) 
nan

>  <Pocket>  (82) 
nan

>  <ATP_Site>  (82) 
nan

>  <Peripheral>  (82) 
nan

>  <Num_H_Atoms_ProtBoundConf>  (82) 
nan

>  <Num_Resolved_Atoms>  (82) 
nan

>  <Num_Not_Resolved_Atoms>  (82) 
nan

$$$$
CHEMBL3326127
     RDKit          3D

  0  0  0  0  0  0  0  0  0  0999 V3000
M  V30 BEGIN CTAB
M  V30 COUNTS 42 45 0 0 0
M  V30 BEGIN ATOM
M  V30 1 C 0.550016 -5.363716 2.018222 0
M  V30 2 O 1.341391 -4.552756 1.170002 0
M  V30 3 C 0.673705 -3.646578 0.355526 0
M  V30 4 C -0.696461 -3.495229 0.328366 0
M  V30 5 C -1.325954 -2.579697 -0.498837 0
M  V30 6 C -0.596023 -1.769594 -1.342329 0
M  V30 7 O -1.112943 -0.830894 -2.202016 0
M  V30 8 C -2.476206 -0.547500 -2.356632 0
M  V30 9 C 0.777843 -1.880039 -1.354804 0
M  V30 10 S 1.931022 -0.932029 -2.368113 0
M  V30 11 C 2.381590 0.535855 -1.462927 0
M  V30 12 C 3.285316 1.470065 -1.986838 0
M  V30 13 C 3.628996 2.613212 -1.272076 0
M  V30 14 C 3.130895 2.919828 -0.030341 0
M  V30 15 N 3.148046 3.799344 0.961450 0
M  V30 16 N 2.333837 3.405634 1.953687 0
M  V30 17 C 1.782155 2.217403 1.554582 0
M  V30 18 C 0.933232 1.941274 2.736801 0
M  V30 19 C 0.397086 0.708527 2.196952 0
M  V30 20 C -0.527507 -0.040250 2.939500 0
M  V30 21 N -0.561589 0.778697 3.995645 0
M  V30 22 C -1.228684 0.884377 5.315759 0
M  V30 23 N 0.222230 1.709992 3.726932 0
M  V30 24 N 2.285331 1.968951 0.370439 0
M  V30 25 N 1.923149 0.880082 -0.248529 0
M  V30 26 C 1.386663 -2.810520 -0.511199 0
M  V30 27 H 1.165203 -6.199719 2.461546 0
M  V30 28 H 0.062190 -4.802448 2.817837 0
M  V30 29 H -0.238197 -5.808948 1.362518 0
M  V30 30 H -1.303230 -4.113158 0.975791 0
M  V30 31 H -2.401791 -2.472723 -0.508314 0
M  V30 32 H -3.088013 -1.445160 -2.129686 0
M  V30 33 H -2.817916 0.257712 -1.645785 0
M  V30 34 H -2.639480 -0.176304 -3.391640 0
M  V30 35 H 3.731067 1.310009 -2.965662 0
M  V30 36 H 4.330028 3.363951 -1.647618 0
M  V30 37 H 0.415235 -0.011444 1.288838 0
M  V30 38 H -1.175841 -0.885997 3.069448 0
M  V30 39 H -1.928328 0.024858 5.355471 0
M  V30 40 H -0.485087 0.910952 6.124777 0
M  V30 41 H -1.827230 1.817271 5.350582 0
M  V30 42 H 2.479150 -2.945842 -0.475613 0
M  V30 END ATOM
M  V30 BEGIN BOND
M  V30 1 1 1 2
M  V30 2 1 2 3
M  V30 3 2 3 4
M  V30 4 1 4 5
M  V30 5 2 5 6
M  V30 6 1 6 7
M  V30 7 1 7 8
M  V30 8 1 6 9
M  V30 9 1 9 10
M  V30 10 1 10 11
M  V30 11 1 11 12
M  V30 12 2 12 13
M  V30 13 1 13 14
M  V30 14 2 14 15
M  V30 15 1 15 16
M  V30 16 2 16 17
M  V30 17 1 17 18
M  V30 18 1 18 19
M  V30 19 2 19 20
M  V30 20 1 20 21
M  V30 21 1 21 22
M  V30 22 1 21 23
M  V30 23 1 17 24
M  V30 24 1 24 25
M  V30 25 2 9 26
M  V30 26 1 26 3
M  V30 27 2 25 11
M  V30 28 1 24 14
M  V30 29 2 23 18
M  V30 30 1 1 27
M  V30 31 1 1 28
M  V30 32 1 1 29
M  V30 33 1 4 30
M  V30 34 1 5 31
M  V30 35 1 8 32
M  V30 36 1 8 33
M  V30 37 1 8 34
M  V30 38 1 12 35
M  V30 39 1 13 36
M  V30 40 1 19 37
M  V30 41 1 20 38
M  V30 42 1 22 39
M  V30 43 1 22 40
M  V30 44 1 22 41
M  V30 45 1 26 42
M  V30 END BOND
M  V30 END CTAB
M  END
>  <Dataset>  (83) 
ChEMBL_Kinases

>  <Ligand_Instance>  (83) 
nan

>  <PDB_ID>  (83) 
nan

>  <Standardized_SMILES>  (83) 
COc1ccc(OC)c(Sc2ccc3nnc(-c4ccn(C)n4)n3n2)c1

>  <Name>  (83) 
nan

>  <Pocket>  (83) 
nan

>  <ATP_Site>  (83) 
nan

>  <Peripheral>  (83) 
nan

>  <Num_H_Atoms_ProtBoundConf>  (83) 
nan

>  <Num_Resolved_Atoms>  (83) 
nan

>  <Num_Not_Resolved_Atoms>  (83) 
nan

$$$$
CHEMBL3326128
     RDKit          3D

  0  0  0  0  0  0  0  0  0  0999 V3000
M  V30 BEGIN CTAB
M  V30 COUNTS 42 45 0 0 0
M  V30 BEGIN ATOM
M  V30 1 C -1.019807 -5.584115 0.352552 0
M  V30 2 O 0.191171 -4.849101 0.278323 0
M  V30 3 C 0.245513 -3.691990 -0.487335 0
M  V30 4 C -0.761969 -3.114262 -1.232051 0
M  V30 5 C -0.527531 -1.951920 -1.938126 0
M  V30 6 C 0.711511 -1.336797 -1.921196 0
M  V30 7 O 0.886465 -0.184617 -2.641265 0
M  V30 8 C -0.153751 0.411464 -3.409855 0
M  V30 9 C 1.708526 -1.927532 -1.171323 0
M  V30 10 S 3.285829 -1.066066 -1.203060 0
M  V30 11 C 3.293537 0.115455 0.143192 0
M  V30 12 C 4.458826 0.856983 0.239211 0
M  V30 13 C 4.545353 1.797518 1.259245 0
M  V30 14 C 3.457966 1.923122 2.104919 0
M  V30 15 N 3.264655 2.743215 3.168125 0
M  V30 16 N 2.054330 2.512060 3.685176 0
M  V30 17 C 1.471494 1.539664 2.948889 0
M  V30 18 C 0.137693 1.005182 3.198388 0
M  V30 19 C -0.319797 -0.295563 3.211189 0
M  V30 20 N -1.636468 -0.314873 3.490598 0
M  V30 21 N -2.008277 0.941376 3.651654 0
M  V30 22 C -3.361406 1.372887 3.967948 0
M  V30 23 C -0.975509 1.800042 3.487460 0
M  V30 24 N 2.338835 1.186430 1.984633 0
M  V30 25 N 2.273208 0.294851 1.007063 0
M  V30 26 C 1.511656 -3.096586 -0.447527 0
M  V30 27 H -1.126240 -6.224658 -0.558888 0
M  V30 28 H -1.032534 -6.271387 1.221747 0
M  V30 29 H -1.880724 -4.895550 0.428188 0
M  V30 30 H -1.702331 -3.647383 -1.199971 0
M  V30 31 H -1.343941 -1.527210 -2.512191 0
M  V30 32 H -1.058667 0.593146 -2.771969 0
M  V30 33 H 0.148995 1.399820 -3.793984 0
M  V30 34 H -0.382947 -0.258892 -4.251506 0
M  V30 35 H 5.311373 0.753272 -0.429786 0
M  V30 36 H 5.395915 2.436026 1.440647 0
M  V30 37 H 0.350006 -1.103111 3.015831 0
M  V30 38 H -3.858068 0.640653 4.638396 0
M  V30 39 H -3.971975 1.379903 3.035241 0
M  V30 40 H -3.387361 2.398784 4.386201 0
M  V30 41 H -1.038712 2.886007 3.571715 0
M  V30 42 H 2.370050 -3.438790 0.085217 0
M  V30 END ATOM
M  V30 BEGIN BOND
M  V30 1 1 1 2
M  V30 2 1 2 3
M  V30 3 2 3 4
M  V30 4 1 4 5
M  V30 5 2 5 6
M  V30 6 1 6 7
M  V30 7 1 7 8
M  V30 8 1 6 9
M  V30 9 1 9 10
M  V30 10 1 10 11
M  V30 11 1 11 12
M  V30 12 2 12 13
M  V30 13 1 13 14
M  V30 14 2 14 15
M  V30 15 1 15 16
M  V30 16 2 16 17
M  V30 17 1 17 18
M  V30 18 1 18 19
M  V30 19 2 19 20
M  V30 20 1 20 21
M  V30 21 1 21 22
M  V30 22 1 21 23
M  V30 23 1 17 24
M  V30 24 1 24 25
M  V30 25 2 9 26
M  V30 26 1 26 3
M  V30 27 2 25 11
M  V30 28 1 24 14
M  V30 29 2 23 18
M  V30 30 1 1 27
M  V30 31 1 1 28
M  V30 32 1 1 29
M  V30 33 1 4 30
M  V30 34 1 5 31
M  V30 35 1 8 32
M  V30 36 1 8 33
M  V30 37 1 8 34
M  V30 38 1 12 35
M  V30 39 1 13 36
M  V30 40 1 19 37
M  V30 41 1 22 38
M  V30 42 1 22 39
M  V30 43 1 22 40
M  V30 44 1 23 41
M  V30 45 1 26 42
M  V30 END BOND
M  V30 END CTAB
M  END
>  <Dataset>  (84) 
ChEMBL_Kinases

>  <Ligand_Instance>  (84) 
nan

>  <PDB_ID>  (84) 
nan

>  <Standardized_SMILES>  (84) 
COc1ccc(OC)c(Sc2ccc3nnc(-c4cnn(C)c4)n3n2)c1

>  <Name>  (84) 
nan

>  <Pocket>  (84) 
nan

>  <ATP_Site>  (84) 
nan

>  <Peripheral>  (84) 
nan

>  <Num_H_Atoms_ProtBoundConf>  (84) 
nan

>  <Num_Resolved_Atoms>  (84) 
nan

>  <Num_Not_Resolved_Atoms>  (84) 
nan

$$$$
CHEMBL3326129
     RDKit          3D

  0  0  0  0  0  0  0  0  0  0999 V3000
M  V30 BEGIN CTAB
M  V30 COUNTS 45 48 0 0 0
M  V30 BEGIN ATOM
M  V30 1 C 1.601090 -5.266295 1.807125 0
M  V30 2 O 1.404057 -4.547503 0.590765 0
M  V30 3 C 1.951148 -3.291714 0.419705 0
M  V30 4 C 2.684055 -2.789925 1.478813 0
M  V30 5 C 3.249578 -1.526133 1.339428 0
M  V30 6 C 3.067147 -0.814630 0.163065 0
M  V30 7 O 3.637121 0.452466 0.029826 0
M  V30 8 C 4.398734 1.018974 1.081235 0
M  V30 9 C 2.324655 -1.380674 -0.846925 0
M  V30 10 S 2.104352 -0.445565 -2.351864 0
M  V30 11 C 0.624722 0.537652 -2.159473 0
M  V30 12 C 0.327984 1.322747 -3.263404 0
M  V30 13 C -0.823054 2.110772 -3.159140 0
M  V30 14 C -1.568299 2.060042 -2.001637 0
M  V30 15 N -2.694224 2.693430 -1.632674 0
M  V30 16 N -3.001375 2.289976 -0.412315 0
M  V30 17 C -2.113734 1.397168 0.061358 0
M  V30 18 C -2.215853 0.797225 1.372068 0
M  V30 19 C -3.265714 1.122063 2.231604 0
M  V30 20 N -3.165447 0.452276 3.390720 0
M  V30 21 C -3.997304 0.450380 4.575679 0
M  V30 22 N -2.086067 -0.301903 3.323538 0
M  V30 23 C -1.494067 -0.107891 2.105941 0
M  V30 24 C -0.256748 -0.751746 1.600235 0
M  V30 25 N -1.248537 1.285583 -0.951085 0
M  V30 26 N -0.165824 0.563030 -1.085484 0
M  V30 27 C 1.732711 -2.638148 -0.772363 0
M  V30 28 H 2.680330 -5.373973 2.050784 0
M  V30 29 H 1.218786 -6.300324 1.690453 0
M  V30 30 H 1.051538 -4.756991 2.628936 0
M  V30 31 H 2.827764 -3.335615 2.389348 0
M  V30 32 H 3.816485 -1.141064 2.161998 0
M  V30 33 H 3.760903 1.321228 1.938259 0
M  V30 34 H 5.127310 0.265847 1.456238 0
M  V30 35 H 4.949400 1.891174 0.681035 0
M  V30 36 H 0.885405 1.395255 -4.196336 0
M  V30 37 H -1.167923 2.764658 -3.939707 0
M  V30 38 H -4.126600 1.796111 2.144222 0
M  V30 39 H -4.968179 0.940952 4.353974 0
M  V30 40 H -3.528004 1.066280 5.384077 0
M  V30 41 H -4.115848 -0.575763 4.921326 0
M  V30 42 H 0.079691 -1.431955 2.447314 0
M  V30 43 H -0.421319 -1.449891 0.761394 0
M  V30 44 H 0.593743 -0.064796 1.474997 0
M  V30 45 H 1.154245 -3.075793 -1.562905 0
M  V30 END ATOM
M  V30 BEGIN BOND
M  V30 1 1 1 2
M  V30 2 1 2 3
M  V30 3 2 3 4
M  V30 4 1 4 5
M  V30 5 2 5 6
M  V30 6 1 6 7
M  V30 7 1 7 8
M  V30 8 1 6 9
M  V30 9 1 9 10
M  V30 10 1 10 11
M  V30 11 1 11 12
M  V30 12 2 12 13
M  V30 13 1 13 14
M  V30 14 2 14 15
M  V30 15 1 15 16
M  V30 16 2 16 17
M  V30 17 1 17 18
M  V30 18 2 18 19
M  V30 19 1 19 20
M  V30 20 1 20 21
M  V30 21 1 20 22
M  V30 22 2 22 23
M  V30 23 1 23 24
M  V30 24 1 17 25
M  V30 25 1 25 26
M  V30 26 2 9 27
M  V30 27 1 27 3
M  V30 28 2 26 11
M  V30 29 1 25 14
M  V30 30 1 23 18
M  V30 31 1 1 28
M  V30 32 1 1 29
M  V30 33 1 1 30
M  V30 34 1 4 31
M  V30 35 1 5 32
M  V30 36 1 8 33
M  V30 37 1 8 34
M  V30 38 1 8 35
M  V30 39 1 12 36
M  V30 40 1 13 37
M  V30 41 1 19 38
M  V30 42 1 21 39
M  V30 43 1 21 40
M  V30 44 1 21 41
M  V30 45 1 24 42
M  V30 46 1 24 43
M  V30 47 1 24 44
M  V30 48 1 27 45
M  V30 END BOND
M  V30 END CTAB
M  END
>  <Dataset>  (85) 
ChEMBL_Kinases

>  <Ligand_Instance>  (85) 
nan

>  <PDB_ID>  (85) 
nan

>  <Standardized_SMILES>  (85) 
COc1ccc(OC)c(Sc2ccc3nnc(-c4cn(C)nc4C)n3n2)c1

>  <Name>  (85) 
nan

>  <Pocket>  (85) 
nan

>  <ATP_Site>  (85) 
nan

>  <Peripheral>  (85) 
nan

>  <Num_H_Atoms_ProtBoundConf>  (85) 
nan

>  <Num_Resolved_Atoms>  (85) 
nan

>  <Num_Not_Resolved_Atoms>  (85) 
nan

$$$$
CHEMBL3326130
     RDKit          3D

  0  0  0  0  0  0  0  0  0  0999 V3000
M  V30 BEGIN CTAB
M  V30 COUNTS 38 41 0 0 0
M  V30 BEGIN ATOM
M  V30 1 C -0.597239 -4.219793 -0.675329 0
M  V30 2 O 0.367636 -3.219656 -0.888310 0
M  V30 3 C 1.258515 -2.942045 0.140397 0
M  V30 4 C 1.384778 -3.489332 1.399234 0
M  V30 5 C 2.350821 -3.049267 2.250939 0
M  V30 6 C 3.247351 -2.053037 1.926049 0
M  V30 7 C 3.121510 -1.505241 0.666983 0
M  V30 8 C 2.143543 -1.926971 -0.240327 0
M  V30 9 S 2.167956 -1.083293 -1.798357 0
M  V30 10 C 1.135760 0.368783 -1.793760 0
M  V30 11 C 0.984004 1.198197 -2.885832 0
M  V30 12 C 0.158080 2.295612 -2.767803 0
M  V30 13 C -0.516541 2.582650 -1.590355 0
M  V30 14 N -1.357730 3.500231 -1.115132 0
M  V30 15 N -1.689818 3.269321 0.124820 0
M  V30 16 C -1.044109 2.137500 0.518426 0
M  V30 17 C -1.137374 1.523706 1.840539 0
M  V30 18 C -2.105006 0.524812 1.879037 0
M  V30 19 C -2.342151 -0.174598 3.046621 0
M  V30 20 C -1.611336 0.115421 4.200662 0
M  V30 21 C -0.656388 1.110380 4.139328 0
M  V30 22 C -0.412047 1.814857 2.977481 0
M  V30 23 N -0.329679 1.732584 -0.549416 0
M  V30 24 N 0.467652 0.691232 -0.695416 0
M  V30 25 H -0.177409 -5.069928 -0.108101 0
M  V30 26 H -1.419488 -3.782299 -0.042136 0
M  V30 27 H -0.988935 -4.646540 -1.620442 0
M  V30 28 H 0.646779 -4.260311 1.573531 0
M  V30 29 H 2.395328 -3.526024 3.233215 0
M  V30 30 H 4.000610 -1.726706 2.622038 0
M  V30 31 H 3.844741 -0.718729 0.437399 0
M  V30 32 H 1.516506 0.963342 -3.800563 0
M  V30 33 H 0.007880 2.971798 -3.591911 0
M  V30 34 H -2.756007 0.173225 1.088562 0
M  V30 35 H -3.066514 -0.967596 3.190689 0
M  V30 36 H -1.773973 -0.421037 5.146088 0
M  V30 37 H -0.055038 1.382600 5.003386 0
M  V30 38 H 0.312052 2.605016 2.839947 0
M  V30 END ATOM
M  V30 BEGIN BOND
M  V30 1 1 1 2
M  V30 2 1 2 3
M  V30 3 2 3 4
M  V30 4 1 4 5
M  V30 5 2 5 6
M  V30 6 1 6 7
M  V30 7 2 7 8
M  V30 8 1 8 9
M  V30 9 1 9 10
M  V30 10 1 10 11
M  V30 11 2 11 12
M  V30 12 1 12 13
M  V30 13 2 13 14
M  V30 14 1 14 15
M  V30 15 2 15 16
M  V30 16 1 16 17
M  V30 17 2 17 18
M  V30 18 1 18 19
M  V30 19 2 19 20
M  V30 20 1 20 21
M  V30 21 2 21 22
M  V30 22 1 16 23
M  V30 23 1 23 24
M  V30 24 1 8 3
M  V30 25 2 24 10
M  V30 26 1 23 13
M  V30 27 1 22 17
M  V30 28 1 1 25
M  V30 29 1 1 26
M  V30 30 1 1 27
M  V30 31 1 4 28
M  V30 32 1 5 29
M  V30 33 1 6 30
M  V30 34 1 7 31
M  V30 35 1 11 32
M  V30 36 1 12 33
M  V30 37 1 18 34
M  V30 38 1 19 35
M  V30 39 1 20 36
M  V30 40 1 21 37
M  V30 41 1 22 38
M  V30 END BOND
M  V30 END CTAB
M  END
>  <Dataset>  (86) 
ChEMBL_Kinases

>  <Ligand_Instance>  (86) 
nan

>  <PDB_ID>  (86) 
nan

>  <Standardized_SMILES>  (86) 
COc1ccccc1Sc1ccc2nnc(-c3ccccc3)n2n1

>  <Name>  (86) 
nan

>  <Pocket>  (86) 
nan

>  <ATP_Site>  (86) 
nan

>  <Peripheral>  (86) 
nan

>  <Num_H_Atoms_ProtBoundConf>  (86) 
nan

>  <Num_Resolved_Atoms>  (86) 
nan

>  <Num_Not_Resolved_Atoms>  (86) 
nan

$$$$
CHEMBL3326131
     RDKit          3D

  0  0  0  0  0  0  0  0  0  0999 V3000
M  V30 BEGIN CTAB
M  V30 COUNTS 38 41 0 0 0
M  V30 BEGIN ATOM
M  V30 1 C 0.001950 -4.085197 2.455556 0
M  V30 2 O 1.354756 -3.914576 2.749114 0
M  V30 3 C 2.266522 -3.178228 2.009166 0
M  V30 4 C 3.575669 -3.145530 2.493103 0
M  V30 5 C 4.554507 -2.436560 1.821804 0
M  V30 6 C 4.263966 -1.746323 0.661689 0
M  V30 7 C 2.981011 -1.774243 0.181209 0
M  V30 8 S 2.340339 -0.968924 -1.295209 0
M  V30 9 C 1.747563 0.668238 -0.926850 0
M  V30 10 C 2.559348 1.784799 -0.996234 0
M  V30 11 C 1.924970 2.968090 -0.675695 0
M  V30 12 C 0.595053 3.013398 -0.319197 0
M  V30 13 N -0.232033 4.001502 0.026863 0
M  V30 14 N -1.440065 3.504211 0.280935 0
M  V30 15 C -1.397803 2.174443 0.097530 0
M  V30 16 C -2.534620 1.279545 0.281314 0
M  V30 17 C -3.840169 1.585083 -0.034254 0
M  V30 18 C -4.787030 0.611469 0.208974 0
M  V30 19 C -4.464634 -0.633458 0.748835 0
M  V30 20 C -3.148654 -0.917224 1.057359 0
M  V30 21 C -2.189340 0.060929 0.814197 0
M  V30 22 N -0.139297 1.877784 -0.272699 0
M  V30 23 N 0.438810 0.719296 -0.575188 0
M  V30 24 C 1.998658 -2.478931 0.844613 0
M  V30 25 H -0.356554 -5.066811 2.878642 0
M  V30 26 H -0.611276 -3.316154 2.998338 0
M  V30 27 H -0.261487 -3.997068 1.381972 0
M  V30 28 H 3.865121 -3.674204 3.408932 0
M  V30 29 H 5.590209 -2.376665 2.153294 0
M  V30 30 H 4.937992 -1.160386 0.051919 0
M  V30 31 H 3.591775 1.654924 -1.285253 0
M  V30 32 H 2.540410 3.874386 -0.720560 0
M  V30 33 H -4.046196 2.545570 -0.444391 0
M  V30 34 H -5.836102 0.819989 -0.029992 0
M  V30 35 H -5.233268 -1.377098 0.927832 0
M  V30 36 H -2.899946 -1.894679 1.480567 0
M  V30 37 H -1.180157 -0.250215 1.087740 0
M  V30 38 H 0.944721 -2.572315 0.556208 0
M  V30 END ATOM
M  V30 BEGIN BOND
M  V30 1 1 1 2
M  V30 2 1 2 3
M  V30 3 2 3 4
M  V30 4 1 4 5
M  V30 5 2 5 6
M  V30 6 1 6 7
M  V30 7 1 7 8
M  V30 8 1 8 9
M  V30 9 1 9 10
M  V30 10 2 10 11
M  V30 11 1 11 12
M  V30 12 2 12 13
M  V30 13 1 13 14
M  V30 14 2 14 15
M  V30 15 1 15 16
M  V30 16 2 16 17
M  V30 17 1 17 18
M  V30 18 2 18 19
M  V30 19 1 19 20
M  V30 20 2 20 21
M  V30 21 1 15 22
M  V30 22 1 22 23
M  V30 23 2 7 24
M  V30 24 1 24 3
M  V30 25 2 23 9
M  V30 26 1 22 12
M  V30 27 1 21 16
M  V30 28 1 1 25
M  V30 29 1 1 26
M  V30 30 1 1 27
M  V30 31 1 4 28
M  V30 32 1 5 29
M  V30 33 1 6 30
M  V30 34 1 10 31
M  V30 35 1 11 32
M  V30 36 1 17 33
M  V30 37 1 18 34
M  V30 38 1 19 35
M  V30 39 1 20 36
M  V30 40 1 21 37
M  V30 41 1 24 38
M  V30 END BOND
M  V30 END CTAB
M  END
>  <Dataset>  (87) 
ChEMBL_Kinases

>  <Ligand_Instance>  (87) 
nan

>  <PDB_ID>  (87) 
nan

>  <Standardized_SMILES>  (87) 
COc1cccc(Sc2ccc3nnc(-c4ccccc4)n3n2)c1

>  <Name>  (87) 
nan

>  <Pocket>  (87) 
nan

>  <ATP_Site>  (87) 
nan

>  <Peripheral>  (87) 
nan

>  <Num_H_Atoms_ProtBoundConf>  (87) 
nan

>  <Num_Resolved_Atoms>  (87) 
nan

>  <Num_Not_Resolved_Atoms>  (87) 
nan

$$$$
CHEMBL3326132
     RDKit          3D

  0  0  0  0  0  0  0  0  0  0999 V3000
M  V30 BEGIN CTAB
M  V30 COUNTS 39 42 0 0 0
M  V30 BEGIN ATOM
M  V30 1 C 1.131131 -4.414539 0.427419 0
M  V30 2 O 1.073383 -3.271378 -0.404186 0
M  V30 3 C 1.922597 -2.197217 -0.282056 0
M  V30 4 C 2.940201 -2.053601 0.638392 0
M  V30 5 C 3.749697 -0.936763 0.691900 0
M  V30 6 C 3.515624 0.077596 -0.228851 0
M  V30 7 C 4.363424 1.245635 -0.171657 0
M  V30 8 N 5.046239 2.177135 -0.107138 0
M  V30 9 C 2.493201 -0.050015 -1.164953 0
M  V30 10 C 1.690581 -1.191213 -1.195095 0
M  V30 11 S 0.448943 -1.129771 -2.478340 0
M  V30 12 C -1.072489 -0.392464 -1.905924 0
M  V30 13 C -2.205326 -0.212142 -2.673524 0
M  V30 14 C -3.292247 0.377474 -2.061158 0
M  V30 15 C -3.262444 0.774873 -0.738917 0
M  V30 16 N -4.188544 1.363438 0.061899 0
M  V30 17 N -3.616944 1.522411 1.258528 0
M  V30 18 C -2.358598 1.047223 1.221152 0
M  V30 19 C -1.309447 0.975539 2.240661 0
M  V30 20 C -0.071588 1.600102 2.245055 0
M  V30 21 N 0.571884 1.259214 3.372062 0
M  V30 22 N -0.201016 0.450103 4.077618 0
M  V30 23 C 0.090059 -0.166088 5.368124 0
M  V30 24 C -1.360644 0.253029 3.417791 0
M  V30 25 N -2.120205 0.573515 -0.028205 0
M  V30 26 N -1.106565 0.014499 -0.628926 0
M  V30 27 H 0.758502 -5.272863 -0.170732 0
M  V30 28 H 2.144170 -4.621278 0.797819 0
M  V30 29 H 0.413243 -4.306857 1.292069 0
M  V30 30 H 3.081207 -2.879792 1.338717 0
M  V30 31 H 4.538565 -0.865835 1.432807 0
M  V30 32 H 2.403954 0.797074 -1.827619 0
M  V30 33 H -2.140790 -0.551002 -3.693685 0
M  V30 34 H -4.165907 0.506419 -2.685890 0
M  V30 35 H 0.229233 2.237751 1.425034 0
M  V30 36 H 1.166841 -0.466908 5.409534 0
M  V30 37 H -0.484853 -1.086843 5.511850 0
M  V30 38 H -0.039245 0.543963 6.200922 0
M  V30 39 H -2.188865 -0.371230 3.763616 0
M  V30 END ATOM
M  V30 BEGIN BOND
M  V30 1 1 1 2
M  V30 2 1 2 3
M  V30 3 2 3 4
M  V30 4 1 4 5
M  V30 5 2 5 6
M  V30 6 1 6 7
M  V30 7 3 7 8
M  V30 8 1 6 9
M  V30 9 2 9 10
M  V30 10 1 10 11
M  V30 11 1 11 12
M  V30 12 1 12 13
M  V30 13 2 13 14
M  V30 14 1 14 15
M  V30 15 2 15 16
M  V30 16 1 16 17
M  V30 17 2 17 18
M  V30 18 1 18 19
M  V30 19 1 19 20
M  V30 20 2 20 21
M  V30 21 1 21 22
M  V30 22 1 22 23
M  V30 23 1 22 24
M  V30 24 1 18 25
M  V30 25 1 25 26
M  V30 26 1 10 3
M  V30 27 2 26 12
M  V30 28 1 25 15
M  V30 29 2 24 19
M  V30 30 1 1 27
M  V30 31 1 1 28
M  V30 32 1 1 29
M  V30 33 1 4 30
M  V30 34 1 5 31
M  V30 35 1 9 32
M  V30 36 1 13 33
M  V30 37 1 14 34
M  V30 38 1 20 35
M  V30 39 1 23 36
M  V30 40 1 23 37
M  V30 41 1 23 38
M  V30 42 1 24 39
M  V30 END BOND
M  V30 END CTAB
M  END
>  <Dataset>  (88) 
ChEMBL_Kinases

>  <Ligand_Instance>  (88) 
nan

>  <PDB_ID>  (88) 
nan

>  <Standardized_SMILES>  (88) 
COc1ccc(C#N)cc1Sc1ccc2nnc(-c3cnn(C)c3)n2n1

>  <Name>  (88) 
nan

>  <Pocket>  (88) 
nan

>  <ATP_Site>  (88) 
nan

>  <Peripheral>  (88) 
nan

>  <Num_H_Atoms_ProtBoundConf>  (88) 
nan

>  <Num_Resolved_Atoms>  (88) 
nan

>  <Num_Not_Resolved_Atoms>  (88) 
nan

$$$$
CHEMBL3326133
     RDKit          3D

  0  0  0  0  0  0  0  0  0  0999 V3000
M  V30 BEGIN CTAB
M  V30 COUNTS 38 41 0 0 0
M  V30 BEGIN ATOM
M  V30 1 C -0.938306 -4.143252 -0.911768 0
M  V30 2 O -0.251442 -2.980376 -1.347720 0
M  V30 3 C 0.949861 -2.602261 -0.763022 0
M  V30 4 C 1.605293 -3.273142 0.269703 0
M  V30 5 C 2.793370 -2.787594 0.757165 0
M  V30 6 C 3.386277 -1.645202 0.268089 0
M  V30 7 Cl 4.911878 -1.046632 0.914302 0
M  V30 8 C 2.742885 -0.965854 -0.762581 0
M  V30 9 C 1.538402 -1.463145 -1.252675 0
M  V30 10 S 0.866775 -0.441742 -2.582658 0
M  V30 11 C -0.198793 0.813518 -1.836308 0
M  V30 12 C -0.868582 1.758427 -2.586140 0
M  V30 13 C -1.663663 2.682451 -1.930600 0
M  V30 14 C -1.809506 2.692030 -0.559760 0
M  V30 15 N -2.493192 3.442912 0.345559 0
M  V30 16 N -2.225090 2.948432 1.554821 0
M  V30 17 C -1.389663 1.905577 1.428593 0
M  V30 18 C -0.840506 1.073439 2.492251 0
M  V30 19 C -1.766662 0.182678 3.045728 0
M  V30 20 N -1.116825 -0.519641 4.015468 0
M  V30 21 N 0.141231 -0.104177 4.076574 0
M  V30 22 C 1.220580 -0.526030 4.925344 0
M  V30 23 C 0.350077 0.871181 3.159322 0
M  V30 24 N -1.129588 1.743514 0.117841 0
M  V30 25 N -0.370672 0.862052 -0.512041 0
M  V30 26 H -0.859734 -4.292935 0.169759 0
M  V30 27 H -0.681624 -5.013164 -1.532027 0
M  V30 28 H -2.027660 -3.921543 -1.094744 0
M  V30 29 H 1.122305 -4.163133 0.635071 0
M  V30 30 H 3.301126 -3.323255 1.570175 0
M  V30 31 H 3.244431 -0.078859 -1.111721 0
M  V30 32 H -0.759229 1.756857 -3.657865 0
M  V30 33 H -2.194328 3.427344 -2.495409 0
M  V30 34 H -2.800089 -0.128862 2.965100 0
M  V30 35 H 1.792148 0.300961 5.379492 0
M  V30 36 H 0.843783 -1.164007 5.762513 0
M  V30 37 H 1.883642 -1.190462 4.327767 0
M  V30 38 H 1.165811 1.492765 2.838583 0
M  V30 END ATOM
M  V30 BEGIN BOND
M  V30 1 1 1 2
M  V30 2 1 2 3
M  V30 3 2 3 4
M  V30 4 1 4 5
M  V30 5 2 5 6
M  V30 6 1 6 7
M  V30 7 1 6 8
M  V30 8 2 8 9
M  V30 9 1 9 10
M  V30 10 1 10 11
M  V30 11 1 11 12
M  V30 12 2 12 13
M  V30 13 1 13 14
M  V30 14 2 14 15
M  V30 15 1 15 16
M  V30 16 2 16 17
M  V30 17 1 17 18
M  V30 18 1 18 19
M  V30 19 2 19 20
M  V30 20 1 20 21
M  V30 21 1 21 22
M  V30 22 1 21 23
M  V30 23 1 17 24
M  V30 24 1 24 25
M  V30 25 1 9 3
M  V30 26 2 25 11
M  V30 27 1 24 14
M  V30 28 2 23 18
M  V30 29 1 1 26
M  V30 30 1 1 27
M  V30 31 1 1 28
M  V30 32 1 4 29
M  V30 33 1 5 30
M  V30 34 1 8 31
M  V30 35 1 12 32
M  V30 36 1 13 33
M  V30 37 1 19 34
M  V30 38 1 22 35
M  V30 39 1 22 36
M  V30 40 1 22 37
M  V30 41 1 23 38
M  V30 END BOND
M  V30 END CTAB
M  END
>  <Dataset>  (89) 
ChEMBL_Kinases

>  <Ligand_Instance>  (89) 
nan

>  <PDB_ID>  (89) 
nan

>  <Standardized_SMILES>  (89) 
COc1ccc(Cl)cc1Sc1ccc2nnc(-c3cnn(C)c3)n2n1

>  <Name>  (89) 
nan

>  <Pocket>  (89) 
nan

>  <ATP_Site>  (89) 
nan

>  <Peripheral>  (89) 
nan

>  <Num_H_Atoms_ProtBoundConf>  (89) 
nan

>  <Num_Resolved_Atoms>  (89) 
nan

>  <Num_Not_Resolved_Atoms>  (89) 
nan

$$$$
CHEMBL3326134
     RDKit          3D

  0  0  0  0  0  0  0  0  0  0999 V3000
M  V30 BEGIN CTAB
M  V30 COUNTS 34 37 0 0 0
M  V30 BEGIN ATOM
M  V30 1 C -0.554794 -5.304358 0.857270 0
M  V30 2 N 0.660279 -4.501340 0.801391 0
M  V30 3 C 0.871746 -3.315490 1.423034 0
M  V30 4 C 2.166620 -2.887055 1.105584 0
M  V30 5 C 2.645350 -1.611052 1.662717 0
M  V30 6 N 3.523730 -1.407001 2.683651 0
M  V30 7 N 3.657121 -0.080870 2.839505 0
M  V30 8 C 2.868152 0.524393 1.922988 0
M  V30 9 C 2.664733 1.883408 1.687447 0
M  V30 10 C 1.779420 2.134376 0.658748 0
M  V30 11 C 1.124741 1.189053 -0.102681 0
M  V30 12 S 0.012540 1.646050 -1.394994 0
M  V30 13 C -1.668517 1.833137 -0.872574 0
M  V30 14 C -2.235708 3.005085 -0.416030 0
M  V30 15 C -3.573938 3.054544 -0.025310 0
M  V30 16 Cl -4.252221 4.560943 0.547192 0
M  V30 17 C -4.295711 1.881780 -0.117769 0
M  V30 18 C -3.760913 0.693682 -0.569242 0
M  V30 19 C -2.416472 0.669106 -0.955424 0
M  V30 20 Cl -1.830391 -0.883238 -1.513473 0
M  V30 21 N 1.396751 -0.090975 0.212622 0
M  V30 22 N 2.227029 -0.410862 1.177321 0
M  V30 23 C 2.694940 -3.861039 0.282719 0
M  V30 24 N 1.764889 -4.818317 0.118693 0
M  V30 25 H -0.678742 -5.768875 1.854887 0
M  V30 26 H -1.449999 -4.634162 0.737360 0
M  V30 27 H -0.536592 -6.020747 0.025722 0
M  V30 28 H 0.123729 -2.850456 2.036437 0
M  V30 29 H 3.136441 2.686393 2.236154 0
M  V30 30 H 1.572665 3.176285 0.419146 0
M  V30 31 H -1.606524 3.874959 -0.373980 0
M  V30 32 H -5.332845 2.005843 0.206698 0
M  V30 33 H -4.402433 -0.185793 -0.610257 0
M  V30 34 H 3.703318 -3.730893 -0.087308 0
M  V30 END ATOM
M  V30 BEGIN BOND
M  V30 1 1 1 2
M  V30 2 1 2 3
M  V30 3 2 3 4
M  V30 4 1 4 5
M  V30 5 2 5 6
M  V30 6 1 6 7
M  V30 7 2 7 8
M  V30 8 1 8 9
M  V30 9 2 9 10
M  V30 10 1 10 11
M  V30 11 1 11 12
M  V30 12 1 12 13
M  V30 13 2 13 14
M  V30 14 1 14 15
M  V30 15 1 15 16
M  V30 16 2 15 17
M  V30 17 1 17 18
M  V30 18 2 18 19
M  V30 19 1 19 20
M  V30 20 2 11 21
M  V30 21 1 21 22
M  V30 22 1 4 23
M  V30 23 2 23 24
M  V30 24 1 24 2
M  V30 25 1 22 5
M  V30 26 1 22 8
M  V30 27 1 19 13
M  V30 28 1 1 25
M  V30 29 1 1 26
M  V30 30 1 1 27
M  V30 31 1 3 28
M  V30 32 1 9 29
M  V30 33 1 10 30
M  V30 34 1 14 31
M  V30 35 1 17 32
M  V30 36 1 18 33
M  V30 37 1 23 34
M  V30 END BOND
M  V30 END CTAB
M  END
>  <Dataset>  (90) 
ChEMBL_Kinases

>  <Ligand_Instance>  (90) 
nan

>  <PDB_ID>  (90) 
nan

>  <Standardized_SMILES>  (90) 
Cn1cc(-c2nnc3ccc(Sc4cc(Cl)ccc4Cl)nn23)cn1

>  <Name>  (90) 
nan

>  <Pocket>  (90) 
nan

>  <ATP_Site>  (90) 
nan

>  <Peripheral>  (90) 
nan

>  <Num_H_Atoms_ProtBoundConf>  (90) 
nan

>  <Num_Resolved_Atoms>  (90) 
nan

>  <Num_Not_Resolved_Atoms>  (90) 
nan

$$$$
CHEMBL3326148
     RDKit          3D

  0  0  0  0  0  0  0  0  0  0999 V3000
M  V30 BEGIN CTAB
M  V30 COUNTS 43 46 0 0 0
M  V30 BEGIN ATOM
M  V30 1 C 4.768276 -3.393316 0.441972 0
M  V30 2 O 3.413230 -3.088092 0.314026 0
M  V30 3 C 2.820397 -2.392040 -0.704768 0
M  V30 4 C 3.500563 -1.870696 -1.795146 0
M  V30 5 C 2.792805 -1.185417 -2.762033 0
M  V30 6 C 1.426861 -0.990658 -2.697701 0
M  V30 7 O 0.698209 -0.305180 -3.658821 0
M  V30 8 C 1.260207 0.266076 -4.800242 0
M  V30 9 C 0.751694 -1.509547 -1.612988 0
M  V30 10 S -1.033285 -1.343403 -1.377656 0
M  V30 11 C -1.269343 0.170495 -0.455672 0
M  V30 12 C -1.449980 1.432987 -1.008256 0
M  V30 13 C -1.621121 2.517108 -0.174856 0
M  V30 14 N -1.618159 2.387060 1.159115 0
M  V30 15 N -1.761207 3.267972 2.162146 0
M  V30 16 C -1.675857 2.596102 3.336909 0
M  V30 17 C -1.473595 1.254869 3.078352 0
M  V30 18 C -1.324502 0.171159 4.042183 0
M  V30 19 C -0.323967 -0.796367 3.897788 0
M  V30 20 N -0.431411 -1.657619 4.925520 0
M  V30 21 N -1.429371 -1.299366 5.705923 0
M  V30 22 C -1.881157 -1.964102 6.926503 0
M  V30 23 C -1.993944 -0.187733 5.194123 0
M  V30 24 C -1.443851 1.168096 1.700966 0
M  V30 25 N -1.276367 0.107014 0.886625 0
M  V30 26 C 1.437635 -2.208778 -0.615865 0
M  V30 27 H 5.326644 -3.463781 -0.515095 0
M  V30 28 H 5.312353 -2.668656 1.081345 0
M  V30 29 H 4.886314 -4.403202 0.933034 0
M  V30 30 H 4.570662 -2.020732 -1.849869 0
M  V30 31 H 3.336884 -0.784823 -3.606096 0
M  V30 32 H 0.505006 0.197279 -5.610382 0
M  V30 33 H 2.157585 -0.285300 -5.194015 0
M  V30 34 H 1.504572 1.337410 -4.664629 0
M  V30 35 H -1.442818 1.474089 -2.091342 0
M  V30 36 H -1.757530 3.473086 -0.622942 0
M  V30 37 H -1.755701 3.053867 4.307854 0
M  V30 38 H 0.420016 -0.889363 3.133420 0
M  V30 39 H -2.829477 -2.483731 6.680650 0
M  V30 40 H -1.116883 -2.652946 7.319230 0
M  V30 41 H -2.067382 -1.196761 7.698030 0
M  V30 42 H -2.828096 0.404323 5.539555 0
M  V30 43 H 0.890055 -2.616765 0.241896 0
M  V30 END ATOM
M  V30 BEGIN BOND
M  V30 1 1 1 2
M  V30 2 1 2 3
M  V30 3 2 3 4
M  V30 4 1 4 5
M  V30 5 2 5 6
M  V30 6 1 6 7
M  V30 7 1 7 8
M  V30 8 1 6 9
M  V30 9 1 9 10
M  V30 10 1 10 11
M  V30 11 1 11 12
M  V30 12 2 12 13
M  V30 13 1 13 14
M  V30 14 1 14 15
M  V30 15 2 15 16
M  V30 16 1 16 17
M  V30 17 1 17 18
M  V30 18 1 18 19
M  V30 19 2 19 20
M  V30 20 1 20 21
M  V30 21 1 21 22
M  V30 22 1 21 23
M  V30 23 2 17 24
M  V30 24 1 24 25
M  V30 25 2 9 26
M  V30 26 1 26 3
M  V30 27 2 25 11
M  V30 28 1 24 14
M  V30 29 2 23 18
M  V30 30 1 1 27
M  V30 31 1 1 28
M  V30 32 1 1 29
M  V30 33 1 4 30
M  V30 34 1 5 31
M  V30 35 1 8 32
M  V30 36 1 8 33
M  V30 37 1 8 34
M  V30 38 1 12 35
M  V30 39 1 13 36
M  V30 40 1 16 37
M  V30 41 1 19 38
M  V30 42 1 22 39
M  V30 43 1 22 40
M  V30 44 1 22 41
M  V30 45 1 23 42
M  V30 46 1 26 43
M  V30 END BOND
M  V30 END CTAB
M  END
>  <Dataset>  (91) 
ChEMBL_Kinases

>  <Ligand_Instance>  (91) 
nan

>  <PDB_ID>  (91) 
nan

>  <Standardized_SMILES>  (91) 
COc1ccc(OC)c(Sc2ccn3ncc(-c4cnn(C)c4)c3n2)c1

>  <Name>  (91) 
nan

>  <Pocket>  (91) 
nan

>  <ATP_Site>  (91) 
nan

>  <Peripheral>  (91) 
nan

>  <Num_H_Atoms_ProtBoundConf>  (91) 
nan

>  <Num_Resolved_Atoms>  (91) 
nan

>  <Num_Not_Resolved_Atoms>  (91) 
nan

$$$$
CHEMBL3326137
     RDKit          3D

  0  0  0  0  0  0  0  0  0  0999 V3000
M  V30 BEGIN CTAB
M  V30 COUNTS 42 45 0 0 0
M  V30 BEGIN ATOM
M  V30 1 C 2.185904 -4.781797 3.849721 0
M  V30 2 O 0.956123 -4.548306 3.189088 0
M  V30 3 C 0.859812 -3.772960 2.044027 0
M  V30 4 C -0.447011 -3.699718 1.594486 0
M  V30 5 C -0.796123 -2.981739 0.465773 0
M  V30 6 C 0.229393 -2.331584 -0.203373 0
M  V30 7 O -0.057380 -1.590412 -1.349163 0
M  V30 8 C -1.333524 -1.450077 -1.887517 0
M  V30 9 C 1.540016 -2.390100 0.225903 0
M  V30 10 O 2.586694 -1.747707 -0.426485 0
M  V30 11 C 2.573569 -0.364230 -0.577573 0
M  V30 12 C 3.658323 0.212936 -1.243676 0
M  V30 13 C 3.594082 1.604023 -1.367361 0
M  V30 14 C 2.516222 2.333523 -0.854610 0
M  V30 15 N 2.209216 3.649825 -0.835434 0
M  V30 16 N 1.053276 3.822224 -0.215724 0
M  V30 17 C 0.592849 2.610807 0.177619 0
M  V30 18 C -0.612642 2.258216 0.884871 0
M  V30 19 C -1.915486 2.343329 0.452912 0
M  V30 20 C -2.967924 1.961093 1.261508 0
M  V30 21 C -2.699045 1.486049 2.524804 0
M  V30 22 C -1.413946 1.386509 2.990867 0
M  V30 23 C -0.367935 1.779694 2.153144 0
M  V30 24 N 1.506587 1.705567 -0.224238 0
M  V30 25 N 1.567556 0.390573 -0.107470 0
M  V30 26 C 1.862471 -3.116459 1.359697 0
M  V30 27 H 2.889056 -5.216870 3.080569 0
M  V30 28 H 2.662922 -3.850823 4.213461 0
M  V30 29 H 2.074772 -5.480412 4.677954 0
M  V30 30 H -1.320783 -4.181536 2.060402 0
M  V30 31 H -1.794160 -2.900538 0.085917 0
M  V30 32 H -2.104431 -1.115207 -1.173972 0
M  V30 33 H -1.726196 -2.363584 -2.396822 0
M  V30 34 H -1.260202 -0.687035 -2.701126 0
M  V30 35 H 4.501232 -0.312497 -1.649778 0
M  V30 36 H 4.390942 2.131441 -1.868560 0
M  V30 37 H -2.012624 2.735162 -0.568628 0
M  V30 38 H -3.963391 2.054021 0.859870 0
M  V30 39 H -3.559134 1.195963 3.128380 0
M  V30 40 H -1.250998 1.007576 3.990103 0
M  V30 41 H 0.612387 1.661446 2.617244 0
M  V30 42 H 2.844425 -3.238934 1.794904 0
M  V30 END ATOM
M  V30 BEGIN BOND
M  V30 1 1 1 2
M  V30 2 1 2 3
M  V30 3 2 3 4
M  V30 4 1 4 5
M  V30 5 2 5 6
M  V30 6 1 6 7
M  V30 7 1 7 8
M  V30 8 1 6 9
M  V30 9 1 9 10
M  V30 10 1 10 11
M  V30 11 1 11 12
M  V30 12 2 12 13
M  V30 13 1 13 14
M  V30 14 2 14 15
M  V30 15 1 15 16
M  V30 16 2 16 17
M  V30 17 1 17 18
M  V30 18 2 18 19
M  V30 19 1 19 20
M  V30 20 2 20 21
M  V30 21 1 21 22
M  V30 22 2 22 23
M  V30 23 1 17 24
M  V30 24 1 24 25
M  V30 25 2 9 26
M  V30 26 1 26 3
M  V30 27 2 25 11
M  V30 28 1 24 14
M  V30 29 1 23 18
M  V30 30 1 1 27
M  V30 31 1 1 28
M  V30 32 1 1 29
M  V30 33 1 4 30
M  V30 34 1 5 31
M  V30 35 1 8 32
M  V30 36 1 8 33
M  V30 37 1 8 34
M  V30 38 1 12 35
M  V30 39 1 13 36
M  V30 40 1 19 37
M  V30 41 1 20 38
M  V30 42 1 21 39
M  V30 43 1 22 40
M  V30 44 1 23 41
M  V30 45 1 26 42
M  V30 END BOND
M  V30 END CTAB
M  END
>  <Dataset>  (92) 
ChEMBL_Kinases

>  <Ligand_Instance>  (92) 
nan

>  <PDB_ID>  (92) 
nan

>  <Standardized_SMILES>  (92) 
COc1ccc(OC)c(Oc2ccc3nnc(-c4ccccc4)n3n2)c1

>  <Name>  (92) 
nan

>  <Pocket>  (92) 
nan

>  <ATP_Site>  (92) 
nan

>  <Peripheral>  (92) 
nan

>  <Num_H_Atoms_ProtBoundConf>  (92) 
nan

>  <Num_Resolved_Atoms>  (92) 
nan

>  <Num_Not_Resolved_Atoms>  (92) 
nan

$$$$
CHEMBL3326138
     RDKit          3D

  0  0  0  0  0  0  0  0  0  0999 V3000
M  V30 BEGIN CTAB
M  V30 COUNTS 42 45 0 0 0
M  V30 BEGIN ATOM
M  V30 1 C 0.880029 -6.120419 0.483737 0
M  V30 2 O 1.470690 -5.034831 -0.202264 0
M  V30 3 C 0.826704 -3.837800 -0.407652 0
M  V30 4 C -0.439455 -3.484641 -0.010455 0
M  V30 5 C -0.973968 -2.240165 -0.281403 0
M  V30 6 C -0.200332 -1.326545 -0.976347 0
M  V30 7 O -0.727012 -0.094673 -1.245590 0
M  V30 8 C -2.035778 0.244917 -0.824840 0
M  V30 9 C 1.074543 -1.658541 -1.385726 0
M  V30 10 O 1.783549 -0.663158 -2.085905 0
M  V30 11 C 2.009971 0.547959 -1.406333 0
M  V30 12 C 2.695468 1.561647 -2.031403 0
M  V30 13 C 2.920582 2.753533 -1.368139 0
M  V30 14 C 2.437963 2.882177 -0.076396 0
M  V30 15 N 2.502617 3.899798 0.796852 0
M  V30 16 N 1.882180 3.511722 1.897841 0
M  V30 17 C 1.408619 2.249602 1.761608 0
M  V30 18 C 0.678008 1.480109 2.742092 0
M  V30 19 C 1.407694 0.547845 3.471519 0
M  V30 20 N 0.564883 -0.077870 4.339439 0
M  V30 21 N -0.628855 0.461794 4.136191 0
M  V30 22 C -1.819719 0.076714 4.861192 0
M  V30 23 C -0.606337 1.393568 3.193687 0
M  V30 24 N 1.768915 1.875425 0.516088 0
M  V30 25 N 1.575180 0.748333 -0.157181 0
M  V30 26 C 1.585518 -2.906938 -1.103193 0
M  V30 27 H 1.303687 -7.090228 0.104571 0
M  V30 28 H 1.127066 -6.020098 1.579646 0
M  V30 29 H -0.216216 -6.122200 0.322059 0
M  V30 30 H -0.991510 -4.245815 0.529193 0
M  V30 31 H -1.963046 -2.047259 0.062101 0
M  V30 32 H -2.336543 1.247363 -1.187922 0
M  V30 33 H -2.153241 0.230002 0.259384 0
M  V30 34 H -2.720162 -0.479326 -1.339163 0
M  V30 35 H 3.042825 1.379198 -3.051958 0
M  V30 36 H 3.465698 3.532042 -1.893096 0
M  V30 37 H 2.456878 0.224680 3.498295 0
M  V30 38 H -2.271187 -0.842367 4.444405 0
M  V30 39 H -1.559826 -0.180360 5.917892 0
M  V30 40 H -2.585724 0.878805 4.843019 0
M  V30 41 H -1.355881 2.034531 2.762555 0
M  V30 42 H 2.580418 -3.081075 -1.456687 0
M  V30 END ATOM
M  V30 BEGIN BOND
M  V30 1 1 1 2
M  V30 2 1 2 3
M  V30 3 2 3 4
M  V30 4 1 4 5
M  V30 5 2 5 6
M  V30 6 1 6 7
M  V30 7 1 7 8
M  V30 8 1 6 9
M  V30 9 1 9 10
M  V30 10 1 10 11
M  V30 11 1 11 12
M  V30 12 2 12 13
M  V30 13 1 13 14
M  V30 14 2 14 15
M  V30 15 1 15 16
M  V30 16 2 16 17
M  V30 17 1 17 18
M  V30 18 1 18 19
M  V30 19 2 19 20
M  V30 20 1 20 21
M  V30 21 1 21 22
M  V30 22 1 21 23
M  V30 23 1 17 24
M  V30 24 1 24 25
M  V30 25 2 9 26
M  V30 26 1 26 3
M  V30 27 2 25 11
M  V30 28 1 24 14
M  V30 29 2 23 18
M  V30 30 1 1 27
M  V30 31 1 1 28
M  V30 32 1 1 29
M  V30 33 1 4 30
M  V30 34 1 5 31
M  V30 35 1 8 32
M  V30 36 1 8 33
M  V30 37 1 8 34
M  V30 38 1 12 35
M  V30 39 1 13 36
M  V30 40 1 19 37
M  V30 41 1 22 38
M  V30 42 1 22 39
M  V30 43 1 22 40
M  V30 44 1 23 41
M  V30 45 1 26 42
M  V30 END BOND
M  V30 END CTAB
M  END
>  <Dataset>  (93) 
ChEMBL_Kinases

>  <Ligand_Instance>  (93) 
nan

>  <PDB_ID>  (93) 
nan

>  <Standardized_SMILES>  (93) 
COc1ccc(OC)c(Oc2ccc3nnc(-c4cnn(C)c4)n3n2)c1

>  <Name>  (93) 
nan

>  <Pocket>  (93) 
nan

>  <ATP_Site>  (93) 
nan

>  <Peripheral>  (93) 
nan

>  <Num_H_Atoms_ProtBoundConf>  (93) 
nan

>  <Num_Resolved_Atoms>  (93) 
nan

>  <Num_Not_Resolved_Atoms>  (93) 
nan

$$$$
CHEMBL3326139
     RDKit          3D

  0  0  0  0  0  0  0  0  0  0999 V3000
M  V30 BEGIN CTAB
M  V30 COUNTS 44 47 0 0 0
M  V30 BEGIN ATOM
M  V30 1 C 3.534849 -5.830596 -1.317092 0
M  V30 2 O 3.759733 -4.418189 -1.369977 0
M  V30 3 C 2.733878 -3.517506 -1.140545 0
M  V30 4 C 1.490482 -4.034886 -0.860225 0
M  V30 5 C 0.427533 -3.168584 -0.622282 0
M  V30 6 C 0.673567 -1.807075 -0.679359 0
M  V30 7 O -0.375096 -0.938533 -0.444592 0
M  V30 8 C -1.685513 -1.317539 -0.149418 0
M  V30 9 C 1.944539 -1.297592 -0.965905 0
M  V30 10 C 2.080807 0.190357 -0.997894 0
M  V30 11 C 2.099520 0.738212 0.371399 0
M  V30 12 C 3.249525 0.924818 1.105256 0
M  V30 13 C 3.261661 1.438563 2.388970 0
M  V30 14 C 2.062955 1.795212 2.998447 0
M  V30 15 N 1.641827 2.304400 4.170742 0
M  V30 16 N 0.304249 2.416380 4.138136 0
M  V30 17 C -0.104637 1.964652 2.915749 0
M  V30 18 C -1.546975 2.010289 2.694697 0
M  V30 19 C -2.231222 0.844448 3.049869 0
M  V30 20 N -3.543574 1.067787 2.778833 0
M  V30 21 N -3.678405 2.298150 2.283402 0
M  V30 22 C -4.887735 2.976680 1.850981 0
M  V30 23 C -2.483244 2.904611 2.216723 0
M  V30 24 N 0.973921 1.583862 2.217232 0
M  V30 25 N 0.965747 1.101692 1.012926 0
M  V30 26 C 3.007630 -2.176338 -1.203880 0
M  V30 27 H 2.967424 -6.079561 -0.378191 0
M  V30 28 H 4.502962 -6.370144 -1.343889 0
M  V30 29 H 2.956500 -6.166556 -2.208620 0
M  V30 30 H 1.247644 -5.075476 -0.804787 0
M  V30 31 H -0.559219 -3.553178 -0.399726 0
M  V30 32 H -2.005439 -2.170193 -0.778741 0
M  V30 33 H -2.337539 -0.439184 -0.391949 0
M  V30 34 H -1.854266 -1.591503 0.911707 0
M  V30 35 H 3.086285 0.379140 -1.430590 0
M  V30 36 H 1.270269 0.613525 -1.619664 0
M  V30 37 H 4.203931 0.657078 0.660629 0
M  V30 38 H 4.162411 1.587959 2.972814 0
M  V30 39 H -2.079483 -0.152342 3.457103 0
M  V30 40 H -5.021985 3.972828 2.357604 0
M  V30 41 H -4.912289 3.197435 0.775550 0
M  V30 42 H -5.767076 2.352607 2.183195 0
M  V30 43 H -2.115504 3.867115 1.895559 0
M  V30 44 H 3.977238 -1.753644 -1.422607 0
M  V30 END ATOM
M  V30 BEGIN BOND
M  V30 1 1 1 2
M  V30 2 1 2 3
M  V30 3 2 3 4
M  V30 4 1 4 5
M  V30 5 2 5 6
M  V30 6 1 6 7
M  V30 7 1 7 8
M  V30 8 1 6 9
M  V30 9 1 9 10
M  V30 10 1 10 11
M  V30 11 1 11 12
M  V30 12 2 12 13
M  V30 13 1 13 14
M  V30 14 2 14 15
M  V30 15 1 15 16
M  V30 16 2 16 17
M  V30 17 1 17 18
M  V30 18 1 18 19
M  V30 19 2 19 20
M  V30 20 1 20 21
M  V30 21 1 21 22
M  V30 22 1 21 23
M  V30 23 1 17 24
M  V30 24 1 24 25
M  V30 25 2 9 26
M  V30 26 1 26 3
M  V30 27 2 25 11
M  V30 28 1 24 14
M  V30 29 2 23 18
M  V30 30 1 1 27
M  V30 31 1 1 28
M  V30 32 1 1 29
M  V30 33 1 4 30
M  V30 34 1 5 31
M  V30 35 1 8 32
M  V30 36 1 8 33
M  V30 37 1 8 34
M  V30 38 1 10 35
M  V30 39 1 10 36
M  V30 40 1 12 37
M  V30 41 1 13 38
M  V30 42 1 19 39
M  V30 43 1 22 40
M  V30 44 1 22 41
M  V30 45 1 22 42
M  V30 46 1 23 43
M  V30 47 1 26 44
M  V30 END BOND
M  V30 END CTAB
M  END
>  <Dataset>  (94) 
ChEMBL_Kinases

>  <Ligand_Instance>  (94) 
nan

>  <PDB_ID>  (94) 
nan

>  <Standardized_SMILES>  (94) 
COc1ccc(OC)c(Cc2ccc3nnc(-c4cnn(C)c4)n3n2)c1

>  <Name>  (94) 
nan

>  <Pocket>  (94) 
nan

>  <ATP_Site>  (94) 
nan

>  <Peripheral>  (94) 
nan

>  <Num_H_Atoms_ProtBoundConf>  (94) 
nan

>  <Num_Resolved_Atoms>  (94) 
nan

>  <Num_Not_Resolved_Atoms>  (94) 
nan

$$$$
CHEMBL3326140
     RDKit          3D

  0  0  0  0  0  0  0  0  0  0999 V3000
M  V30 BEGIN CTAB
M  V30 COUNTS 45 48 0 0 0
M  V30 BEGIN ATOM
M  V30 1 C 3.582992 -2.406252 3.696230 0
M  V30 2 O 3.340789 -1.470220 2.827417 0
M  V30 3 C 3.078173 -0.586088 1.945302 0
M  V30 4 C 3.519444 0.698536 2.158539 0
M  V30 5 C 3.301550 1.761519 1.277712 0
M  V30 6 C 2.592395 1.429541 0.143417 0
M  V30 7 O 2.343891 2.442010 -0.770469 0
M  V30 8 C 2.779796 3.764202 -0.583790 0
M  V30 9 C 2.109825 0.169458 -0.156167 0
M  V30 10 C 1.348455 -0.175057 -1.362258 0
M  V30 11 O 1.313296 -1.531195 -1.583707 0
M  V30 12 C -0.033226 0.369516 -1.340338 0
M  V30 13 C -0.583124 1.484062 -1.932999 0
M  V30 14 C -1.921134 1.760276 -1.741721 0
M  V30 15 C -2.700024 0.922829 -0.960954 0
M  V30 16 N -4.008292 0.994027 -0.640917 0
M  V30 17 N -4.267275 -0.060080 0.138751 0
M  V30 18 C -3.117119 -0.772134 0.293009 0
M  V30 19 C -2.972440 -2.012900 1.084185 0
M  V30 20 C -2.532247 -3.137057 0.407079 0
M  V30 21 N -2.481250 -4.126641 1.323577 0
M  V30 22 N -2.860665 -3.675866 2.506875 0
M  V30 23 C -2.966893 -4.365203 3.779760 0
M  V30 24 C -3.181791 -2.358311 2.424569 0
M  V30 25 N -2.122289 -0.152479 -0.402489 0
M  V30 26 N -0.846936 -0.422828 -0.580052 0
M  V30 27 C 2.385324 -0.798794 0.785762 0
M  V30 28 H 2.985298 -3.354243 3.581790 0
M  V30 29 H 3.308742 -2.077208 4.755237 0
M  V30 30 H 4.679765 -2.693319 3.800173 0
M  V30 31 H 4.085466 0.975589 3.058658 0
M  V30 32 H 3.654341 2.764223 1.459383 0
M  V30 33 H 3.866834 3.815078 -0.313289 0
M  V30 34 H 2.163960 4.204854 0.229680 0
M  V30 35 H 2.700361 4.317985 -1.544343 0
M  V30 36 H 1.890970 0.286039 -2.234892 0
M  V30 37 H 1.224098 -1.687170 -2.562616 0
M  V30 38 H 0.156946 2.027278 -2.505324 0
M  V30 39 H -2.274690 2.653981 -2.241305 0
M  V30 40 H -2.235376 -3.428792 -0.590688 0
M  V30 41 H -2.684904 -5.421484 3.721669 0
M  V30 42 H -2.287451 -3.883951 4.516354 0
M  V30 43 H -4.003292 -4.213847 4.161409 0
M  V30 44 H -3.528428 -1.591160 3.096807 0
M  V30 45 H 2.024967 -1.811725 0.595120 0
M  V30 END ATOM
M  V30 BEGIN BOND
M  V30 1 1 1 2
M  V30 2 1 2 3
M  V30 3 2 3 4
M  V30 4 1 4 5
M  V30 5 2 5 6
M  V30 6 1 6 7
M  V30 7 1 7 8
M  V30 8 1 6 9
M  V30 9 1 9 10
M  V30 10 1 10 11
M  V30 11 1 10 12
M  V30 12 1 12 13
M  V30 13 2 13 14
M  V30 14 1 14 15
M  V30 15 2 15 16
M  V30 16 1 16 17
M  V30 17 2 17 18
M  V30 18 1 18 19
M  V30 19 1 19 20
M  V30 20 2 20 21
M  V30 21 1 21 22
M  V30 22 1 22 23
M  V30 23 1 22 24
M  V30 24 1 18 25
M  V30 25 1 25 26
M  V30 26 2 9 27
M  V30 27 1 27 3
M  V30 28 2 26 12
M  V30 29 1 25 15
M  V30 30 2 24 19
M  V30 31 1 1 28
M  V30 32 1 1 29
M  V30 33 1 1 30
M  V30 34 1 4 31
M  V30 35 1 5 32
M  V30 36 1 8 33
M  V30 37 1 8 34
M  V30 38 1 8 35
M  V30 39 1 10 36
M  V30 40 1 11 37
M  V30 41 1 13 38
M  V30 42 1 14 39
M  V30 43 1 20 40
M  V30 44 1 23 41
M  V30 45 1 23 42
M  V30 46 1 23 43
M  V30 47 1 24 44
M  V30 48 1 27 45
M  V30 END BOND
M  V30 END CTAB
M  END
>  <Dataset>  (95) 
ChEMBL_Kinases

>  <Ligand_Instance>  (95) 
nan

>  <PDB_ID>  (95) 
nan

>  <Standardized_SMILES>  (95) 
COc1ccc(OC)c(C(O)c2ccc3nnc(-c4cnn(C)c4)n3n2)c1

>  <Name>  (95) 
nan

>  <Pocket>  (95) 
nan

>  <ATP_Site>  (95) 
nan

>  <Peripheral>  (95) 
nan

>  <Num_H_Atoms_ProtBoundConf>  (95) 
nan

>  <Num_Resolved_Atoms>  (95) 
nan

>  <Num_Not_Resolved_Atoms>  (95) 
nan

$$$$
CHEMBL3326141
     RDKit          3D

  0  0  0  0  0  0  0  0  0  0999 V3000
M  V30 BEGIN CTAB
M  V30 COUNTS 43 46 0 0 0
M  V30 BEGIN ATOM
M  V30 1 C 0.377228 -4.012805 1.999522 0
M  V30 2 O 1.676143 -3.458093 2.005058 0
M  V30 3 C 2.107773 -2.455231 1.175679 0
M  V30 4 C 3.438621 -2.126138 1.424320 0
M  V30 5 C 4.094473 -1.134138 0.704170 0
M  V30 6 C 3.409037 -0.446361 -0.294447 0
M  V30 7 O 3.921854 0.563871 -1.095744 0
M  V30 8 C 5.267505 1.006123 -0.955583 0
M  V30 9 C 2.077677 -0.779244 -0.539466 0
M  V30 10 C 1.302928 -0.097896 -1.570633 0
M  V30 11 O 1.911699 0.048432 -2.662200 0
M  V30 12 C -0.053162 0.399719 -1.436665 0
M  V30 13 C -0.585519 1.011540 -2.544330 0
M  V30 14 C -1.894098 1.486690 -2.401179 0
M  V30 15 C -2.569132 1.325616 -1.195818 0
M  V30 16 N -3.834498 1.715856 -0.864632 0
M  V30 17 N -4.033901 1.338988 0.408705 0
M  V30 18 C -2.899253 0.725126 0.846967 0
M  V30 19 C -2.691560 0.163230 2.179313 0
M  V30 20 C -3.729827 -0.336744 2.974335 0
M  V30 21 N -3.140467 -0.758942 4.113753 0
M  V30 22 N -1.830408 -0.549473 4.060047 0
M  V30 23 C -0.839360 -0.859945 5.075971 0
M  V30 24 C -1.510556 0.019480 2.880250 0
M  V30 25 N -1.984246 0.713954 -0.147484 0
M  V30 26 N -0.736060 0.261493 -0.286139 0
M  V30 27 C 1.441596 -1.765645 0.183656 0
M  V30 28 H 0.096792 -4.177274 3.061975 0
M  V30 29 H -0.333197 -3.326696 1.496928 0
M  V30 30 H 0.401898 -4.972551 1.438677 0
M  V30 31 H 4.083071 -2.579241 2.166679 0
M  V30 32 H 5.109768 -0.848069 0.858329 0
M  V30 33 H 5.297433 1.705946 -0.111532 0
M  V30 34 H 5.609506 1.521655 -1.875001 0
M  V30 35 H 5.928844 0.126191 -0.735608 0
M  V30 36 H -0.064756 1.140246 -3.486602 0
M  V30 37 H -2.399540 1.989681 -3.235828 0
M  V30 38 H -4.784803 -0.371211 2.715181 0
M  V30 39 H -0.642402 0.015045 5.742056 0
M  V30 40 H 0.159347 -1.064907 4.604492 0
M  V30 41 H -1.072523 -1.777344 5.647406 0
M  V30 42 H -0.530917 0.326742 2.500699 0
M  V30 43 H 0.421957 -2.087057 0.063515 0
M  V30 END ATOM
M  V30 BEGIN BOND
M  V30 1 1 1 2
M  V30 2 1 2 3
M  V30 3 2 3 4
M  V30 4 1 4 5
M  V30 5 2 5 6
M  V30 6 1 6 7
M  V30 7 1 7 8
M  V30 8 1 6 9
M  V30 9 1 9 10
M  V30 10 2 10 11
M  V30 11 1 10 12
M  V30 12 1 12 13
M  V30 13 2 13 14
M  V30 14 1 14 15
M  V30 15 2 15 16
M  V30 16 1 16 17
M  V30 17 2 17 18
M  V30 18 1 18 19
M  V30 19 1 19 20
M  V30 20 2 20 21
M  V30 21 1 21 22
M  V30 22 1 22 23
M  V30 23 1 22 24
M  V30 24 1 18 25
M  V30 25 1 25 26
M  V30 26 2 9 27
M  V30 27 1 27 3
M  V30 28 2 26 12
M  V30 29 1 25 15
M  V30 30 2 24 19
M  V30 31 1 1 28
M  V30 32 1 1 29
M  V30 33 1 1 30
M  V30 34 1 4 31
M  V30 35 1 5 32
M  V30 36 1 8 33
M  V30 37 1 8 34
M  V30 38 1 8 35
M  V30 39 1 13 36
M  V30 40 1 14 37
M  V30 41 1 20 38
M  V30 42 1 23 39
M  V30 43 1 23 40
M  V30 44 1 23 41
M  V30 45 1 24 42
M  V30 46 1 27 43
M  V30 END BOND
M  V30 END CTAB
M  END
>  <Dataset>  (96) 
ChEMBL_Kinases

>  <Ligand_Instance>  (96) 
nan

>  <PDB_ID>  (96) 
nan

>  <Standardized_SMILES>  (96) 
COc1ccc(OC)c(C(=O)c2ccc3nnc(-c4cnn(C)c4)n3n2)c1

>  <Name>  (96) 
nan

>  <Pocket>  (96) 
nan

>  <ATP_Site>  (96) 
nan

>  <Peripheral>  (96) 
nan

>  <Num_H_Atoms_ProtBoundConf>  (96) 
nan

>  <Num_Resolved_Atoms>  (96) 
nan

>  <Num_Not_Resolved_Atoms>  (96) 
nan

$$$$
CHEMBL3326142
     RDKit          3D

  0  0  0  0  0  0  0  0  0  0999 V3000
M  V30 BEGIN CTAB
M  V30 COUNTS 44 47 0 0 0
M  V30 BEGIN ATOM
M  V30 1 C -1.339223 -2.881326 -3.455294 0
M  V30 2 O -0.193738 -3.130177 -2.691344 0
M  V30 3 C 0.438443 -2.135421 -1.970726 0
M  V30 4 C 1.550198 -2.508216 -1.264483 0
M  V30 5 C 2.204267 -1.533690 -0.532946 0
M  V30 6 C 1.764557 -0.229373 -0.506261 0
M  V30 7 O 2.368520 0.798963 0.203254 0
M  V30 8 C 3.518662 0.633906 0.993350 0
M  V30 9 C 0.632283 0.175261 -1.219065 0
M  V30 10 C 0.120201 1.564412 -1.223797 0
M  V30 11 F 1.088425 2.415356 -1.756654 0
M  V30 12 F -0.972806 1.605002 -2.065056 0
M  V30 13 C -0.222879 1.971303 0.169917 0
M  V30 14 C -0.442638 3.323786 0.338013 0
M  V30 15 C -0.758100 3.712316 1.636847 0
M  V30 16 C -0.825624 2.750877 2.627568 0
M  V30 17 N -1.108564 2.886477 3.943863 0
M  V30 18 N -1.049899 1.678413 4.482555 0
M  V30 19 C -0.737418 0.748803 3.564353 0
M  V30 20 C -0.568802 -0.690601 3.738019 0
M  V30 21 C -1.129604 -1.543229 4.665804 0
M  V30 22 N -0.666044 -2.776050 4.418694 0
M  V30 23 N 0.163466 -2.795122 3.389643 0
M  V30 24 C 0.829566 -3.978258 2.877450 0
M  V30 25 C 0.230457 -1.503678 2.959541 0
M  V30 26 N -0.594934 1.425760 2.387224 0
M  V30 27 N -0.290911 1.041944 1.140436 0
M  V30 28 C -0.002454 -0.834348 -1.945800 0
M  V30 29 H -2.041868 -2.175655 -2.989453 0
M  V30 30 H -1.865796 -3.854850 -3.635174 0
M  V30 31 H -1.092721 -2.450847 -4.455036 0
M  V30 32 H 1.964790 -3.502796 -1.226773 0
M  V30 33 H 3.081321 -1.786890 0.035692 0
M  V30 34 H 4.167726 -0.154651 0.600681 0
M  V30 35 H 4.083273 1.605523 0.955219 0
M  V30 36 H 3.226638 0.489372 2.058660 0
M  V30 37 H -0.381446 4.037659 -0.452767 0
M  V30 38 H -0.951012 4.733407 1.896081 0
M  V30 39 H -1.813006 -1.170529 5.418533 0
M  V30 40 H 1.504337 -3.722847 2.035680 0
M  V30 41 H 1.477343 -4.447003 3.664033 0
M  V30 42 H 0.087717 -4.709437 2.465970 0
M  V30 43 H 0.839368 -1.198758 2.118421 0
M  V30 44 H -0.894188 -0.555609 -2.517288 0
M  V30 END ATOM
M  V30 BEGIN BOND
M  V30 1 1 1 2
M  V30 2 1 2 3
M  V30 3 2 3 4
M  V30 4 1 4 5
M  V30 5 2 5 6
M  V30 6 1 6 7
M  V30 7 1 7 8
M  V30 8 1 6 9
M  V30 9 1 9 10
M  V30 10 1 10 11
M  V30 11 1 10 12
M  V30 12 1 10 13
M  V30 13 1 13 14
M  V30 14 2 14 15
M  V30 15 1 15 16
M  V30 16 2 16 17
M  V30 17 1 17 18
M  V30 18 2 18 19
M  V30 19 1 19 20
M  V30 20 1 20 21
M  V30 21 2 21 22
M  V30 22 1 22 23
M  V30 23 1 23 24
M  V30 24 1 23 25
M  V30 25 1 19 26
M  V30 26 1 26 27
M  V30 27 2 9 28
M  V30 28 1 28 3
M  V30 29 2 27 13
M  V30 30 1 26 16
M  V30 31 2 25 20
M  V30 32 1 1 29
M  V30 33 1 1 30
M  V30 34 1 1 31
M  V30 35 1 4 32
M  V30 36 1 5 33
M  V30 37 1 8 34
M  V30 38 1 8 35
M  V30 39 1 8 36
M  V30 40 1 14 37
M  V30 41 1 15 38
M  V30 42 1 21 39
M  V30 43 1 24 40
M  V30 44 1 24 41
M  V30 45 1 24 42
M  V30 46 1 25 43
M  V30 47 1 28 44
M  V30 END BOND
M  V30 END CTAB
M  END
>  <Dataset>  (97) 
ChEMBL_Kinases

>  <Ligand_Instance>  (97) 
nan

>  <PDB_ID>  (97) 
nan

>  <Standardized_SMILES>  (97) 
COc1ccc(OC)c(C(F)(F)c2ccc3nnc(-c4cnn(C)c4)n3n2)c1

>  <Name>  (97) 
nan

>  <Pocket>  (97) 
nan

>  <ATP_Site>  (97) 
nan

>  <Peripheral>  (97) 
nan

>  <Num_H_Atoms_ProtBoundConf>  (97) 
nan

>  <Num_Resolved_Atoms>  (97) 
nan

>  <Num_Not_Resolved_Atoms>  (97) 
nan

$$$$
CHEMBL3326146
     RDKit          3D

  0  0  0  0  0  0  0  0  0  0999 V3000
M  V30 BEGIN CTAB
M  V30 COUNTS 43 46 0 0 0
M  V30 BEGIN ATOM
M  V30 1 C -1.794614 -4.768769 1.529833 0
M  V30 2 O -2.358013 -3.481926 1.561793 0
M  V30 3 C -1.981673 -2.470610 0.693251 0
M  V30 4 C -2.727718 -1.322120 0.987132 0
M  V30 5 C -2.543148 -0.144499 0.252506 0
M  V30 6 C -1.620125 -0.105865 -0.772019 0
M  V30 7 O -1.359520 1.000789 -1.557460 0
M  V30 8 C -1.960420 2.248795 -1.466991 0
M  V30 9 C -0.896604 -1.249793 -1.043393 0
M  V30 10 S 0.324136 -1.302692 -2.351260 0
M  V30 11 C 1.908821 -0.819583 -1.656329 0
M  V30 12 C 3.074134 -0.756889 -2.413897 0
M  V30 13 C 4.239094 -0.371419 -1.771592 0
M  V30 14 C 4.294495 -0.050224 -0.427824 0
M  V30 15 N 5.249509 0.343489 0.435708 0
M  V30 16 N 4.740508 0.518807 1.645540 0
M  V30 17 C 3.425387 0.235181 1.577470 0
M  V30 18 C 2.417714 0.266925 2.605268 0
M  V30 19 C 2.076604 -0.943940 3.205884 0
M  V30 20 N 1.120830 -0.669965 4.130315 0
M  V30 21 N 0.859573 0.618634 4.131952 0
M  V30 22 C -0.097770 1.303161 4.973077 0
M  V30 23 C 1.628871 1.214362 3.219040 0
M  V30 24 N 3.167004 -0.113693 0.292975 0
M  V30 25 C 2.032153 -0.486805 -0.322347 0
M  V30 26 C -1.064780 -2.415525 -0.332038 0
M  V30 27 H -1.026698 -4.916023 0.753201 0
M  V30 28 H -2.574177 -5.556812 1.324389 0
M  V30 29 H -1.382553 -5.059822 2.538097 0
M  V30 30 H -3.489815 -1.188268 1.757973 0
M  V30 31 H -3.088711 0.770647 0.433320 0
M  V30 32 H -2.483863 2.483633 -0.541667 0
M  V30 33 H -2.656231 2.403296 -2.343125 0
M  V30 34 H -1.155851 3.017348 -1.642182 0
M  V30 35 H 3.023015 -1.007244 -3.454279 0
M  V30 36 H 5.138245 -0.324391 -2.361942 0
M  V30 37 H 2.423708 -1.965679 3.060928 0
M  V30 38 H -1.111699 0.854646 4.774269 0
M  V30 39 H 0.097549 1.127741 6.041445 0
M  V30 40 H -0.169715 2.364482 4.722821 0
M  V30 41 H 1.724170 2.241264 2.908801 0
M  V30 42 H 1.114401 -0.542902 0.245152 0
M  V30 43 H -0.561257 -3.357124 -0.455007 0
M  V30 END ATOM
M  V30 BEGIN BOND
M  V30 1 1 1 2
M  V30 2 1 2 3
M  V30 3 2 3 4
M  V30 4 1 4 5
M  V30 5 2 5 6
M  V30 6 1 6 7
M  V30 7 1 7 8
M  V30 8 1 6 9
M  V30 9 1 9 10
M  V30 10 1 10 11
M  V30 11 1 11 12
M  V30 12 2 12 13
M  V30 13 1 13 14
M  V30 14 2 14 15
M  V30 15 1 15 16
M  V30 16 2 16 17
M  V30 17 1 17 18
M  V30 18 1 18 19
M  V30 19 2 19 20
M  V30 20 1 20 21
M  V30 21 1 21 22
M  V30 22 1 21 23
M  V30 23 1 17 24
M  V30 24 1 24 25
M  V30 25 2 9 26
M  V30 26 1 26 3
M  V30 27 2 25 11
M  V30 28 1 24 14
M  V30 29 2 23 18
M  V30 30 1 1 27
M  V30 31 1 1 28
M  V30 32 1 1 29
M  V30 33 1 4 30
M  V30 34 1 5 31
M  V30 35 1 8 32
M  V30 36 1 8 33
M  V30 37 1 8 34
M  V30 38 1 12 35
M  V30 39 1 13 36
M  V30 40 1 19 37
M  V30 41 1 22 38
M  V30 42 1 22 39
M  V30 43 1 22 40
M  V30 44 1 23 41
M  V30 45 1 25 42
M  V30 46 1 26 43
M  V30 END BOND
M  V30 END CTAB
M  END
>  <Dataset>  (98) 
ChEMBL_Kinases

>  <Ligand_Instance>  (98) 
nan

>  <PDB_ID>  (98) 
nan

>  <Standardized_SMILES>  (98) 
COc1ccc(OC)c(Sc2ccc3nnc(-c4cnn(C)c4)n3c2)c1

>  <Name>  (98) 
nan

>  <Pocket>  (98) 
nan

>  <ATP_Site>  (98) 
nan

>  <Peripheral>  (98) 
nan

>  <Num_H_Atoms_ProtBoundConf>  (98) 
nan

>  <Num_Resolved_Atoms>  (98) 
nan

>  <Num_Not_Resolved_Atoms>  (98) 
nan

$$$$
CHEMBL3326147
     RDKit          3D

  0  0  0  0  0  0  0  0  0  0999 V3000
M  V30 BEGIN CTAB
M  V30 COUNTS 43 46 0 0 0
M  V30 BEGIN ATOM
M  V30 1 C 5.937736 -3.164838 -2.108199 0
M  V30 2 O 5.258414 -1.972399 -1.846010 0
M  V30 3 C 3.879486 -1.856880 -1.691826 0
M  V30 4 C 3.013646 -2.942652 -1.784835 0
M  V30 5 C 1.661024 -2.693658 -1.611408 0
M  V30 6 C 1.148599 -1.436334 -1.355175 0
M  V30 7 O -0.190484 -1.208765 -1.186527 0
M  V30 8 C -1.179405 -2.217861 -1.254931 0
M  V30 9 C 2.028474 -0.377318 -1.267946 0
M  V30 10 S 1.509926 1.306313 -0.941103 0
M  V30 11 C 1.516931 1.541992 0.830568 0
M  V30 12 C 2.554229 1.981714 1.626313 0
M  V30 13 C 2.343490 2.092479 2.983964 0
M  V30 14 C 1.103364 1.758520 3.488697 0
M  V30 15 N 0.647455 1.779909 4.769699 0
M  V30 16 C -0.629335 1.367033 4.765715 0
M  V30 17 C -0.999545 1.076938 3.470228 0
M  V30 18 C -2.245755 0.591460 2.840845 0
M  V30 19 C -2.581281 0.310946 1.532421 0
M  V30 20 N -3.865798 -0.098188 1.576403 0
M  V30 21 N -4.319117 -0.081232 2.818352 0
M  V30 22 C -5.678604 -0.473800 3.171955 0
M  V30 23 C -3.345586 0.340732 3.635507 0
M  V30 24 N 0.092381 1.326850 2.689646 0
M  V30 25 N 0.330275 1.230324 1.373358 0
M  V30 26 C 3.406004 -0.565422 -1.433806 0
M  V30 27 H 5.409646 -3.811717 -2.852780 0
M  V30 28 H 6.925175 -2.863333 -2.559401 0
M  V30 29 H 6.190635 -3.770210 -1.225577 0
M  V30 30 H 3.419489 -3.926994 -1.985792 0
M  V30 31 H 0.984159 -3.549815 -1.685222 0
M  V30 32 H -0.970701 -3.030171 -0.532515 0
M  V30 33 H -1.110806 -2.632790 -2.294622 0
M  V30 34 H -2.188013 -1.775806 -1.172021 0
M  V30 35 H 3.455364 2.199687 1.071763 0
M  V30 36 H 3.175735 2.437783 3.565982 0
M  V30 37 H -1.344620 1.241612 5.568188 0
M  V30 38 H -1.873335 0.433790 0.728172 0
M  V30 39 H -5.947851 -1.449751 2.758844 0
M  V30 40 H -6.374365 0.317215 2.799012 0
M  V30 41 H -5.804960 -0.533909 4.272911 0
M  V30 42 H -3.465766 0.442445 4.703583 0
M  V30 43 H 4.098661 0.276721 -1.363640 0
M  V30 END ATOM
M  V30 BEGIN BOND
M  V30 1 1 1 2
M  V30 2 1 2 3
M  V30 3 2 3 4
M  V30 4 1 4 5
M  V30 5 2 5 6
M  V30 6 1 6 7
M  V30 7 1 7 8
M  V30 8 1 6 9
M  V30 9 1 9 10
M  V30 10 1 10 11
M  V30 11 1 11 12
M  V30 12 2 12 13
M  V30 13 1 13 14
M  V30 14 2 14 15
M  V30 15 1 15 16
M  V30 16 2 16 17
M  V30 17 1 17 18
M  V30 18 1 18 19
M  V30 19 2 19 20
M  V30 20 1 20 21
M  V30 21 1 21 22
M  V30 22 1 21 23
M  V30 23 1 17 24
M  V30 24 1 24 25
M  V30 25 2 9 26
M  V30 26 1 26 3
M  V30 27 2 25 11
M  V30 28 1 24 14
M  V30 29 2 23 18
M  V30 30 1 1 27
M  V30 31 1 1 28
M  V30 32 1 1 29
M  V30 33 1 4 30
M  V30 34 1 5 31
M  V30 35 1 8 32
M  V30 36 1 8 33
M  V30 37 1 8 34
M  V30 38 1 12 35
M  V30 39 1 13 36
M  V30 40 1 16 37
M  V30 41 1 19 38
M  V30 42 1 22 39
M  V30 43 1 22 40
M  V30 44 1 22 41
M  V30 45 1 23 42
M  V30 46 1 26 43
M  V30 END BOND
M  V30 END CTAB
M  END
>  <Dataset>  (99) 
ChEMBL_Kinases

>  <Ligand_Instance>  (99) 
nan

>  <PDB_ID>  (99) 
nan

>  <Standardized_SMILES>  (99) 
COc1ccc(OC)c(Sc2ccc3ncc(-c4cnn(C)c4)n3n2)c1

>  <Name>  (99) 
nan

>  <Pocket>  (99) 
nan

>  <ATP_Site>  (99) 
nan

>  <Peripheral>  (99) 
nan

>  <Num_H_Atoms_ProtBoundConf>  (99) 
nan

>  <Num_Resolved_Atoms>  (99) 
nan

>  <Num_Not_Resolved_Atoms>  (99) 
nan

$$$$
CHEMBL3326135
     RDKit          3D

  0  0  0  0  0  0  0  0  0  0999 V3000
M  V30 BEGIN CTAB
M  V30 COUNTS 47 50 0 0 0
M  V30 BEGIN ATOM
M  V30 1 C 0.591199 -3.948872 0.815804 0
M  V30 2 O 0.702078 -2.687604 0.163769 0
M  V30 3 C 1.756908 -1.825982 0.383235 0
M  V30 4 C 2.827247 -2.031526 1.228636 0
M  V30 5 C 3.840596 -1.119339 1.390776 0
M  V30 6 C 3.782780 0.064832 0.668641 0
M  V30 7 C 4.879965 1.054518 0.843035 0
M  V30 8 C 6.225545 0.532614 0.399229 0
M  V30 9 C 4.890159 1.549947 2.262300 0
M  V30 10 C 2.712053 0.276306 -0.180443 0
M  V30 11 C 1.690168 -0.645145 -0.343039 0
M  V30 12 S 0.416026 -0.149154 -1.494330 0
M  V30 13 C -0.854207 0.739574 -0.605978 0
M  V30 14 C -0.620826 2.102689 -0.549353 0
M  V30 15 C -1.518420 2.949493 0.109953 0
M  V30 16 C -2.612371 2.315997 0.673586 0
M  V30 17 N -3.635392 2.882502 1.367602 0
M  V30 18 N -4.473984 1.901105 1.728262 0
M  V30 19 C -3.951306 0.735314 1.247452 0
M  V30 20 C -4.622929 -0.542500 1.465474 0
M  V30 21 C -5.474506 -0.882669 2.509064 0
M  V30 22 N -5.859546 -2.160195 2.307440 0
M  V30 23 N -5.294497 -2.626126 1.200457 0
M  V30 24 C -5.420566 -3.945040 0.594658 0
M  V30 25 C -4.514249 -1.659163 0.637013 0
M  V30 26 N -2.817728 0.978828 0.603918 0
M  V30 27 N -1.951892 0.200602 -0.026496 0
M  V30 28 H 1.627314 -4.362127 0.919133 0
M  V30 29 H -0.008468 -4.653233 0.188330 0
M  V30 30 H 0.184602 -3.867996 1.838298 0
M  V30 31 H 2.840820 -2.952105 1.768732 0
M  V30 32 H 4.656011 -1.346932 2.075770 0
M  V30 33 H 4.677732 1.946613 0.191243 0
M  V30 34 H 6.821198 0.281094 1.276384 0
M  V30 35 H 6.810566 1.303021 -0.160519 0
M  V30 36 H 6.076482 -0.370844 -0.224816 0
M  V30 37 H 4.218040 0.930080 2.924834 0
M  V30 38 H 4.518505 2.588371 2.386367 0
M  V30 39 H 5.927838 1.525685 2.653907 0
M  V30 40 H 2.754707 1.229520 -0.701158 0
M  V30 41 H 0.234099 2.617171 -0.987030 0
M  V30 42 H -1.398110 4.023177 0.192572 0
M  V30 43 H -5.779012 -0.238667 3.341118 0
M  V30 44 H -6.035815 -3.904519 -0.329006 0
M  V30 45 H -4.437287 -4.341513 0.309049 0
M  V30 46 H -5.857479 -4.676187 1.316755 0
M  V30 47 H -3.933962 -1.735889 -0.259035 0
M  V30 END ATOM
M  V30 BEGIN BOND
M  V30 1 1 1 2
M  V30 2 1 2 3
M  V30 3 2 3 4
M  V30 4 1 4 5
M  V30 5 2 5 6
M  V30 6 1 6 7
M  V30 7 1 7 8
M  V30 8 1 7 9
M  V30 9 1 6 10
M  V30 10 2 10 11
M  V30 11 1 11 12
M  V30 12 1 12 13
M  V30 13 1 13 14
M  V30 14 2 14 15
M  V30 15 1 15 16
M  V30 16 2 16 17
M  V30 17 1 17 18
M  V30 18 2 18 19
M  V30 19 1 19 20
M  V30 20 1 20 21
M  V30 21 2 21 22
M  V30 22 1 22 23
M  V30 23 1 23 24
M  V30 24 1 23 25
M  V30 25 1 19 26
M  V30 26 1 26 27
M  V30 27 1 11 3
M  V30 28 2 27 13
M  V30 29 1 26 16
M  V30 30 2 25 20
M  V30 31 1 1 28
M  V30 32 1 1 29
M  V30 33 1 1 30
M  V30 34 1 4 31
M  V30 35 1 5 32
M  V30 36 1 7 33
M  V30 37 1 8 34
M  V30 38 1 8 35
M  V30 39 1 8 36
M  V30 40 1 9 37
M  V30 41 1 9 38
M  V30 42 1 9 39
M  V30 43 1 10 40
M  V30 44 1 14 41
M  V30 45 1 15 42
M  V30 46 1 21 43
M  V30 47 1 24 44
M  V30 48 1 24 45
M  V30 49 1 24 46
M  V30 50 1 25 47
M  V30 END BOND
M  V30 END CTAB
M  END
>  <Dataset>  (100) 
ChEMBL_Kinases

>  <Ligand_Instance>  (100) 
nan

>  <PDB_ID>  (100) 
nan

>  <Standardized_SMILES>  (100) 
COc1ccc(C(C)C)cc1Sc1ccc2nnc(-c3cnn(C)c3)n2n1

>  <Name>  (100) 
nan

>  <Pocket>  (100) 
nan

>  <ATP_Site>  (100) 
nan

>  <Peripheral>  (100) 
nan

>  <Num_H_Atoms_ProtBoundConf>  (100) 
nan

>  <Num_Resolved_Atoms>  (100) 
nan

>  <Num_Not_Resolved_Atoms>  (100) 
nan

$$$$
CHEMBL3338886
     RDKit          3D

  0  0  0  0  0  0  0  0  0  0999 V3000
M  V30 BEGIN CTAB
M  V30 COUNTS 39 42 0 0 0
M  V30 BEGIN ATOM
M  V30 1 C 1.972482 -5.677944 2.703202 0
M  V30 2 O 0.926351 -4.742361 2.967224 0
M  V30 3 C 1.048705 -3.427096 2.547630 0
M  V30 4 C 2.164718 -2.996740 1.876250 0
M  V30 5 C 2.179950 -1.648574 1.500807 0
M  V30 6 C 1.161215 -0.710853 1.750472 0
M  V30 7 C 1.476359 0.616417 1.296887 0
M  V30 8 N 2.668782 1.062550 1.787147 0
M  V30 9 N 3.144256 2.262822 1.501294 0
M  V30 10 C 2.506623 3.143555 0.711716 0
M  V30 11 O 2.935852 4.291736 0.424548 0
M  V30 12 C 1.297107 2.741799 0.188469 0
M  V30 13 N 0.423599 3.351818 -0.627917 0
M  V30 14 C -0.599024 2.507716 -0.845248 0
M  V30 15 C -1.743206 2.621588 -1.603877 0
M  V30 16 C -2.652447 1.588182 -1.677995 0
M  V30 17 C -2.413143 0.401773 -0.972814 0
M  V30 18 O -3.407615 -0.554808 -1.136558 0
M  V30 19 C -3.260741 -1.793724 -0.463712 0
M  V30 20 C -1.266882 0.307989 -0.221807 0
M  V30 21 C -0.375226 1.339331 -0.155805 0
M  V30 22 C 0.814246 1.492045 0.492590 0
M  V30 23 C 0.106190 -1.282042 2.430114 0
M  V30 24 C -0.000985 -2.586084 2.839205 0
M  V30 25 H 1.784191 -6.610085 3.276935 0
M  V30 26 H 1.983239 -5.892974 1.602814 0
M  V30 27 H 2.959322 -5.284740 3.043403 0
M  V30 28 H 2.986785 -3.656511 1.648248 0
M  V30 29 H 3.104819 -1.374006 0.966835 0
M  V30 30 H 4.070766 2.593905 1.889915 0
M  V30 31 H 0.504023 4.295942 -1.026772 0
M  V30 32 H -1.890523 3.550177 -2.131502 0
M  V30 33 H -3.525252 1.738128 -2.286009 0
M  V30 34 H -3.416647 -1.545677 0.626105 0
M  V30 35 H -2.250574 -2.232868 -0.568030 0
M  V30 36 H -4.015238 -2.532086 -0.802893 0
M  V30 37 H -1.233047 -0.653911 0.230879 0
M  V30 38 H -0.664579 -0.518706 2.604567 0
M  V30 39 H -0.917487 -2.826490 3.359798 0
M  V30 END ATOM
M  V30 BEGIN BOND
M  V30 1 1 1 2
M  V30 2 1 2 3
M  V30 3 2 3 4
M  V30 4 1 4 5
M  V30 5 2 5 6
M  V30 6 1 6 7
M  V30 7 2 7 8
M  V30 8 1 8 9
M  V30 9 1 9 10
M  V30 10 2 10 11
M  V30 11 1 10 12
M  V30 12 1 12 13
M  V30 13 1 13 14
M  V30 14 2 14 15
M  V30 15 1 15 16
M  V30 16 2 16 17
M  V30 17 1 17 18
M  V30 18 1 18 19
M  V30 19 1 17 20
M  V30 20 2 20 21
M  V30 21 1 21 22
M  V30 22 1 6 23
M  V30 23 2 23 24
M  V30 24 1 24 3
M  V30 25 1 22 7
M  V30 26 2 22 12
M  V30 27 1 21 14
M  V30 28 1 1 25
M  V30 29 1 1 26
M  V30 30 1 1 27
M  V30 31 1 4 28
M  V30 32 1 5 29
M  V30 33 1 9 30
M  V30 34 1 13 31
M  V30 35 1 15 32
M  V30 36 1 16 33
M  V30 37 1 19 34
M  V30 38 1 19 35
M  V30 39 1 19 36
M  V30 40 1 20 37
M  V30 41 1 23 38
M  V30 42 1 24 39
M  V30 END BOND
M  V30 END CTAB
M  END
>  <Dataset>  (101) 
ChEMBL_Kinases

>  <Ligand_Instance>  (101) 
nan

>  <PDB_ID>  (101) 
nan

>  <Standardized_SMILES>  (101) 
COc1ccc(-c2n[nH]c(=O)c3[nH]c4ccc(OC)cc4c23)cc1

>  <Name>  (101) 
nan

>  <Pocket>  (101) 
nan

>  <ATP_Site>  (101) 
nan

>  <Peripheral>  (101) 
nan

>  <Num_H_Atoms_ProtBoundConf>  (101) 
nan

>  <Num_Resolved_Atoms>  (101) 
nan

>  <Num_Not_Resolved_Atoms>  (101) 
nan

$$$$
CHEMBL3338844
     RDKit          3D

  0  0  0  0  0  0  0  0  0  0999 V3000
M  V30 BEGIN CTAB
M  V30 COUNTS 46 50 0 0 0
M  V30 BEGIN ATOM
M  V30 1 C -3.761101 -2.021111 1.076545 0
M  V30 2 N -3.273622 -2.529154 -0.178960 0
M  V30 3 C -2.383719 -1.601890 -0.853476 0
M  V30 4 C -1.011689 -2.232484 -1.019833 0
M  V30 5 N -0.577209 -2.603774 0.343470 0
M  V30 6 C 0.403277 -1.765214 0.924119 0
M  V30 7 N 0.506022 -0.497878 0.429963 0
M  V30 8 C 1.351918 0.421805 0.912578 0
M  V30 9 C 1.383211 1.751206 0.311754 0
M  V30 10 C 0.552183 2.064325 -0.743830 0
M  V30 11 C 0.604563 3.326884 -1.289708 0
M  V30 12 C 1.470107 4.286486 -0.804332 0
M  V30 13 N 1.745138 5.571811 -1.118332 0
M  V30 14 N 2.680928 6.046918 -0.324981 0
M  V30 15 C 3.084663 5.110387 0.562473 0
M  V30 16 C 2.316601 3.985862 0.262145 0
M  V30 17 C 2.251116 2.705155 0.802401 0
M  V30 18 N 2.165303 0.128044 1.939501 0
M  V30 19 C 2.158524 -1.086975 2.511465 0
M  V30 20 C 2.964759 -1.476692 3.558809 0
M  V30 21 C 2.934972 -2.740752 4.110017 0
M  V30 22 C 2.029524 -3.653620 3.556425 0
M  V30 23 C 1.237284 -3.241810 2.514503 0
M  V30 24 C 1.268536 -1.980668 1.968145 0
M  V30 25 C -1.339262 -3.762835 0.743553 0
M  V30 26 C -2.677097 -3.823481 -0.014785 0
M  V30 27 H -4.199572 -2.879513 1.627660 0
M  V30 28 H -2.983029 -1.576228 1.725306 0
M  V30 29 H -4.616454 -1.299645 0.931425 0
M  V30 30 H -2.347962 -0.646135 -0.326046 0
M  V30 31 H -2.790572 -1.493313 -1.880122 0
M  V30 32 H -1.097850 -3.112559 -1.671889 0
M  V30 33 H -0.333218 -1.460220 -1.459274 0
M  V30 34 H -0.122933 1.301102 -1.115380 0
M  V30 35 H -0.055425 3.573644 -2.127121 0
M  V30 36 H 1.222840 6.016965 -1.900376 0
M  V30 37 H 3.827514 5.188161 1.335232 0
M  V30 38 H 2.915090 2.503339 1.622699 0
M  V30 39 H 3.652392 -0.750582 3.963674 0
M  V30 40 H 3.591865 -2.955012 4.916102 0
M  V30 41 H 2.023447 -4.633868 4.001368 0
M  V30 42 H 0.593726 -4.021565 2.159090 0
M  V30 43 H -1.661901 -3.706304 1.808136 0
M  V30 44 H -0.868195 -4.732888 0.466494 0
M  V30 45 H -3.405307 -4.409742 0.620842 0
M  V30 46 H -2.541087 -4.332652 -0.989548 0
M  V30 END ATOM
M  V30 BEGIN BOND
M  V30 1 1 1 2
M  V30 2 1 2 3
M  V30 3 1 3 4
M  V30 4 1 4 5
M  V30 5 1 5 6
M  V30 6 2 6 7
M  V30 7 1 7 8
M  V30 8 1 8 9
M  V30 9 2 9 10
M  V30 10 1 10 11
M  V30 11 2 11 12
M  V30 12 1 12 13
M  V30 13 1 13 14
M  V30 14 2 14 15
M  V30 15 1 15 16
M  V30 16 2 16 17
M  V30 17 2 8 18
M  V30 18 1 18 19
M  V30 19 2 19 20
M  V30 20 1 20 21
M  V30 21 2 21 22
M  V30 22 1 22 23
M  V30 23 2 23 24
M  V30 24 1 5 25
M  V30 25 1 25 26
M  V30 26 1 26 2
M  V30 27 1 24 6
M  V30 28 1 17 9
M  V30 29 1 24 19
M  V30 30 1 16 12
M  V30 31 1 1 27
M  V30 32 1 1 28
M  V30 33 1 1 29
M  V30 34 1 3 30
M  V30 35 1 3 31
M  V30 36 1 4 32
M  V30 37 1 4 33
M  V30 38 1 10 34
M  V30 39 1 11 35
M  V30 40 1 13 36
M  V30 41 1 15 37
M  V30 42 1 17 38
M  V30 43 1 20 39
M  V30 44 1 21 40
M  V30 45 1 22 41
M  V30 46 1 23 42
M  V30 47 1 25 43
M  V30 48 1 25 44
M  V30 49 1 26 45
M  V30 50 1 26 46
M  V30 END BOND
M  V30 END CTAB
M  END
>  <Dataset>  (102) 
ChEMBL_Kinases

>  <Ligand_Instance>  (102) 
nan

>  <PDB_ID>  (102) 
nan

>  <Standardized_SMILES>  (102) 
CN1CCN(c2nc(-c3ccc4[nH]ncc4c3)nc3ccccc23)CC1

>  <Name>  (102) 
nan

>  <Pocket>  (102) 
nan

>  <ATP_Site>  (102) 
nan

>  <Peripheral>  (102) 
nan

>  <Num_H_Atoms_ProtBoundConf>  (102) 
nan

>  <Num_Resolved_Atoms>  (102) 
nan

>  <Num_Not_Resolved_Atoms>  (102) 
nan

$$$$
CHEMBL3337856
     RDKit          3D

  0  0  0  0  0  0  0  0  0  0999 V3000
M  V30 BEGIN CTAB
M  V30 COUNTS 40 43 0 0 0
M  V30 BEGIN ATOM
M  V30 1 C 3.858739 -5.704512 -1.731818 0
M  V30 2 N 2.439829 -5.671931 -1.427949 0
M  V30 3 C 1.624224 -6.836987 -1.595713 0
M  V30 4 C 1.856203 -4.474090 -0.960337 0
M  V30 5 C 2.639117 -3.349897 -0.797632 0
M  V30 6 C 2.094064 -2.162263 -0.340960 0
M  V30 7 C 0.752114 -2.063699 -0.033933 0
M  V30 8 C 0.071379 -0.868257 0.453166 0
M  V30 9 O -1.175576 -0.844885 0.718688 0
M  V30 10 N 0.726337 0.366520 0.674472 0
M  V30 11 C 0.037857 1.534392 1.155228 0
M  V30 12 N -0.022822 1.709169 2.508572 0
M  V30 13 C -0.709316 2.861352 2.763045 0
M  V30 14 C -1.094576 3.562353 3.898446 0
M  V30 15 C -1.806601 4.734631 3.747176 0
M  V30 16 C -2.171389 5.271803 2.512578 0
M  V30 17 C -1.777950 4.557752 1.386518 0
M  V30 18 C -1.064909 3.383532 1.533036 0
M  V30 19 N -0.599451 2.558867 0.567495 0
M  V30 20 O -2.879942 6.460805 2.771596 0
M  V30 21 C -3.320582 6.416648 4.132654 0
M  V30 22 F -3.304503 7.664854 4.721742 0
M  V30 23 F -4.560778 5.806878 4.254146 0
M  V30 24 O -2.308440 5.620001 4.719732 0
M  V30 25 C -0.025258 -3.200930 -0.201562 0
M  V30 26 C 0.511642 -4.400340 -0.659947 0
M  V30 27 H 4.067433 -6.619544 -2.349548 0
M  V30 28 H 4.213406 -4.810161 -2.283586 0
M  V30 29 H 4.480862 -5.798746 -0.821508 0
M  V30 30 H 0.933110 -7.031340 -0.740034 0
M  V30 31 H 1.008721 -6.847821 -2.509624 0
M  V30 32 H 2.292104 -7.720355 -1.662652 0
M  V30 33 H 3.692263 -3.309016 -1.004378 0
M  V30 34 H 2.688902 -1.269239 -0.206087 0
M  V30 35 H 1.755076 0.412045 0.474149 0
M  V30 36 H -0.823788 3.166029 4.859289 0
M  V30 37 H -2.046775 4.951053 0.429767 0
M  V30 38 H -0.658508 2.599721 -0.473755 0
M  V30 39 H -1.086812 -3.230118 0.010314 0
M  V30 40 H -0.101927 -5.272719 -0.784959 0
M  V30 END ATOM
M  V30 BEGIN BOND
M  V30 1 1 1 2
M  V30 2 1 2 3
M  V30 3 1 2 4
M  V30 4 2 4 5
M  V30 5 1 5 6
M  V30 6 2 6 7
M  V30 7 1 7 8
M  V30 8 2 8 9
M  V30 9 1 8 10
M  V30 10 1 10 11
M  V30 11 2 11 12
M  V30 12 1 12 13
M  V30 13 2 13 14
M  V30 14 1 14 15
M  V30 15 2 15 16
M  V30 16 1 16 17
M  V30 17 2 17 18
M  V30 18 1 18 19
M  V30 19 1 16 20
M  V30 20 1 20 21
M  V30 21 1 21 22
M  V30 22 1 21 23
M  V30 23 1 21 24
M  V30 24 1 7 25
M  V30 25 2 25 26
M  V30 26 1 26 4
M  V30 27 1 19 11
M  V30 28 1 18 13
M  V30 29 1 24 15
M  V30 30 1 1 27
M  V30 31 1 1 28
M  V30 32 1 1 29
M  V30 33 1 3 30
M  V30 34 1 3 31
M  V30 35 1 3 32
M  V30 36 1 5 33
M  V30 37 1 6 34
M  V30 38 1 10 35
M  V30 39 1 14 36
M  V30 40 1 17 37
M  V30 41 1 19 38
M  V30 42 1 25 39
M  V30 43 1 26 40
M  V30 END BOND
M  V30 END CTAB
M  END
>  <Dataset>  (103) 
ChEMBL_Kinases

>  <Ligand_Instance>  (103) 
nan

>  <PDB_ID>  (103) 
nan

>  <Standardized_SMILES>  (103) 
CN(C)c1ccc(C(=O)Nc2nc3cc4c(cc3[nH]2)OC(F)(F)O4)cc1

>  <Name>  (103) 
nan

>  <Pocket>  (103) 
nan

>  <ATP_Site>  (103) 
nan

>  <Peripheral>  (103) 
nan

>  <Num_H_Atoms_ProtBoundConf>  (103) 
nan

>  <Num_Resolved_Atoms>  (103) 
nan

>  <Num_Not_Resolved_Atoms>  (103) 
nan

$$$$
CHEMBL3337855
     RDKit          3D

  0  0  0  0  0  0  0  0  0  0999 V3000
M  V30 BEGIN CTAB
M  V30 COUNTS 36 39 0 0 0
M  V30 BEGIN ATOM
M  V30 1 C 3.468261 -6.782653 3.355559 0
M  V30 2 O 3.672214 -6.036657 2.163999 0
M  V30 3 C 2.924929 -4.902550 1.871957 0
M  V30 4 C 1.931216 -4.395686 2.689491 0
M  V30 5 C 1.219938 -3.247372 2.328593 0
M  V30 6 C 1.507812 -2.604420 1.140526 0
M  V30 7 C 0.729124 -1.409688 0.820570 0
M  V30 8 O -0.148766 -1.048502 1.647249 0
M  V30 9 N 0.927516 -0.657922 -0.370115 0
M  V30 10 C 0.084691 0.503284 -0.557492 0
M  V30 11 N 0.398675 1.751862 -0.128498 0
M  V30 12 C -0.599756 2.616242 -0.459767 0
M  V30 13 C -0.729569 3.973744 -0.236851 0
M  V30 14 C -1.888592 4.602625 -0.701441 0
M  V30 15 C -2.836275 3.815005 -1.359420 0
M  V30 16 C -2.683457 2.459070 -1.570110 0
M  V30 17 C -1.526531 1.825676 -1.107567 0
M  V30 18 N -1.116464 0.553649 -1.167421 0
M  V30 19 O -3.854081 4.719420 -1.692182 0
M  V30 20 C -3.767671 5.843970 -0.802651 0
M  V30 21 F -4.275005 6.960609 -1.432250 0
M  V30 22 F -4.372583 5.566725 0.398585 0
M  V30 23 O -2.342587 5.924140 -0.653734 0
M  V30 24 C 2.492398 -3.100771 0.323444 0
M  V30 25 C 3.200506 -4.248856 0.688629 0
M  V30 26 H 3.334776 -6.106853 4.226579 0
M  V30 27 H 2.615104 -7.475585 3.221682 0
M  V30 28 H 4.375420 -7.390151 3.555342 0
M  V30 29 H 1.737950 -4.941902 3.625089 0
M  V30 30 H 0.450569 -2.926034 3.047186 0
M  V30 31 H 1.652880 -0.949906 -1.060937 0
M  V30 32 H -0.012143 4.575177 0.262374 0
M  V30 33 H -3.427846 1.868892 -2.080857 0
M  V30 34 H -1.631270 -0.236325 -1.602204 0
M  V30 35 H 2.726616 -2.619220 -0.593105 0
M  V30 36 H 3.975665 -4.605907 0.004731 0
M  V30 END ATOM
M  V30 BEGIN BOND
M  V30 1 1 1 2
M  V30 2 1 2 3
M  V30 3 2 3 4
M  V30 4 1 4 5
M  V30 5 2 5 6
M  V30 6 1 6 7
M  V30 7 2 7 8
M  V30 8 1 7 9
M  V30 9 1 9 10
M  V30 10 2 10 11
M  V30 11 1 11 12
M  V30 12 2 12 13
M  V30 13 1 13 14
M  V30 14 2 14 15
M  V30 15 1 15 16
M  V30 16 2 16 17
M  V30 17 1 17 18
M  V30 18 1 15 19
M  V30 19 1 19 20
M  V30 20 1 20 21
M  V30 21 1 20 22
M  V30 22 1 20 23
M  V30 23 1 6 24
M  V30 24 2 24 25
M  V30 25 1 25 3
M  V30 26 1 18 10
M  V30 27 1 17 12
M  V30 28 1 23 14
M  V30 29 1 1 26
M  V30 30 1 1 27
M  V30 31 1 1 28
M  V30 32 1 4 29
M  V30 33 1 5 30
M  V30 34 1 9 31
M  V30 35 1 13 32
M  V30 36 1 16 33
M  V30 37 1 18 34
M  V30 38 1 24 35
M  V30 39 1 25 36
M  V30 END BOND
M  V30 END CTAB
M  END
>  <Dataset>  (104) 
ChEMBL_Kinases

>  <Ligand_Instance>  (104) 
nan

>  <PDB_ID>  (104) 
nan

>  <Standardized_SMILES>  (104) 
COc1ccc(C(=O)Nc2nc3cc4c(cc3[nH]2)OC(F)(F)O4)cc1

>  <Name>  (104) 
nan

>  <Pocket>  (104) 
nan

>  <ATP_Site>  (104) 
nan

>  <Peripheral>  (104) 
nan

>  <Num_H_Atoms_ProtBoundConf>  (104) 
nan

>  <Num_Resolved_Atoms>  (104) 
nan

>  <Num_Not_Resolved_Atoms>  (104) 
nan

$$$$
CHEMBL3337848
     RDKit          3D

  0  0  0  0  0  0  0  0  0  0999 V3000
M  V30 BEGIN CTAB
M  V30 COUNTS 35 38 0 0 0
M  V30 BEGIN ATOM
M  V30 1 C 3.778555 -6.753836 0.270636 0
M  V30 2 O 3.386636 -5.481644 0.400447 0
M  V30 3 C 3.513902 -4.240589 0.688744 0
M  V30 4 C 2.459403 -3.368426 0.552224 0
M  V30 5 C 2.584054 -2.020768 0.859208 0
M  V30 6 C 1.413700 -1.175981 0.711848 0
M  V30 7 O 0.316920 -1.749307 0.354863 0
M  V30 8 N 1.264540 0.214800 0.904009 0
M  V30 9 C 0.033366 0.897013 0.746230 0
M  V30 10 N -1.128257 0.307398 0.399151 0
M  V30 11 C -2.110318 1.234978 0.352614 0
M  V30 12 C -3.459934 1.133449 0.054957 0
M  V30 13 C -4.301458 2.253062 0.076766 0
M  V30 14 C -3.708491 3.436934 0.408802 0
M  V30 15 C -2.356398 3.598493 0.716947 0
M  V30 16 C -1.540877 2.476336 0.687410 0
M  V30 17 N -0.223347 2.204293 0.919539 0
M  V30 18 O -4.662114 4.442007 0.389827 0
M  V30 19 C -5.885229 3.937254 -0.110295 0
M  V30 20 F -6.906140 4.127512 0.798120 0
M  V30 21 F -6.175852 4.464708 -1.352032 0
M  V30 22 O -5.637074 2.546246 -0.148224 0
M  V30 23 C 3.799325 -1.564022 1.308018 0
M  V30 24 C 4.873757 -2.452166 1.445905 0
M  V30 25 N 4.680082 -3.755931 1.128525 0
M  V30 26 H 4.298482 -7.091563 1.222372 0
M  V30 27 H 4.527025 -6.890968 -0.559679 0
M  V30 28 H 2.934472 -7.495358 0.135046 0
M  V30 29 H 1.511875 -3.773842 0.194303 0
M  V30 30 H 2.173353 0.605070 1.175403 0
M  V30 31 H -3.904603 0.168664 -0.208516 0
M  V30 32 H -1.847398 4.527681 0.983254 0
M  V30 33 H 0.483696 2.906764 1.186017 0
M  V30 34 H 3.925589 -0.540135 1.544022 0
M  V30 35 H 5.782923 -1.999580 1.792834 0
M  V30 END ATOM
M  V30 BEGIN BOND
M  V30 1 1 1 2
M  V30 2 1 2 3
M  V30 3 2 3 4
M  V30 4 1 4 5
M  V30 5 1 5 6
M  V30 6 2 6 7
M  V30 7 1 6 8
M  V30 8 1 8 9
M  V30 9 2 9 10
M  V30 10 1 10 11
M  V30 11 2 11 12
M  V30 12 1 12 13
M  V30 13 2 13 14
M  V30 14 1 14 15
M  V30 15 2 15 16
M  V30 16 1 16 17
M  V30 17 1 14 18
M  V30 18 1 18 19
M  V30 19 1 19 20
M  V30 20 1 19 21
M  V30 21 1 19 22
M  V30 22 2 5 23
M  V30 23 1 23 24
M  V30 24 2 24 25
M  V30 25 1 25 3
M  V30 26 1 17 9
M  V30 27 1 16 11
M  V30 28 1 22 13
M  V30 29 1 1 26
M  V30 30 1 1 27
M  V30 31 1 1 28
M  V30 32 1 4 29
M  V30 33 1 8 30
M  V30 34 1 12 31
M  V30 35 1 15 32
M  V30 36 1 17 33
M  V30 37 1 23 34
M  V30 38 1 24 35
M  V30 END BOND
M  V30 END CTAB
M  END
>  <Dataset>  (105) 
ChEMBL_Kinases

>  <Ligand_Instance>  (105) 
nan

>  <PDB_ID>  (105) 
nan

>  <Standardized_SMILES>  (105) 
COc1cc(C(=O)Nc2nc3cc4c(cc3[nH]2)OC(F)(F)O4)ccn1

>  <Name>  (105) 
nan

>  <Pocket>  (105) 
nan

>  <ATP_Site>  (105) 
nan

>  <Peripheral>  (105) 
nan

>  <Num_H_Atoms_ProtBoundConf>  (105) 
nan

>  <Num_Resolved_Atoms>  (105) 
nan

>  <Num_Not_Resolved_Atoms>  (105) 
nan

$$$$
CHEMBL3335362
     RDKit          3D

  0  0  0  0  0  0  0  0  0  0999 V3000
M  V30 BEGIN CTAB
M  V30 COUNTS 28 30 0 0 0
M  V30 BEGIN ATOM
M  V30 1 O -1.798829 -1.593467 -0.615500 0
M  V30 2 C -0.858021 -1.496706 0.228717 0
M  V30 3 C -0.689430 -2.423583 1.330467 0
M  V30 4 C 0.391600 -2.780991 2.103867 0
M  V30 5 C 0.293447 -3.687763 3.125503 0
M  V30 6 C -0.892276 -4.305253 3.450166 0
M  V30 7 C -2.010475 -3.976921 2.697362 0
M  V30 8 O -3.196651 -4.608439 3.037025 0
M  V30 9 C -1.890753 -3.063207 1.675006 0
M  V30 10 C 0.039460 -0.350612 -0.024154 0
M  V30 11 C 0.074775 0.547858 -0.992398 0
M  V30 12 C 1.027406 1.523940 -0.959272 0
M  V30 13 C 1.265911 2.563781 -1.845518 0
M  V30 14 C 2.274467 3.449621 -1.641783 0
M  V30 15 C 3.145363 3.421272 -0.575095 0
M  V30 16 C 2.965901 2.410447 0.348826 0
M  V30 17 C 1.921597 1.535984 0.090255 0
M  V30 18 S 1.380087 0.067794 1.099152 0
M  V30 19 H 1.291678 -2.297694 1.827230 0
M  V30 20 H 1.205538 -3.900410 3.672605 0
M  V30 21 H -0.961624 -5.017758 4.256153 0
M  V30 22 H -3.860766 -4.177255 3.694773 0
M  V30 23 H -2.846380 -2.893494 1.161724 0
M  V30 24 H -0.659158 0.475112 -1.784776 0
M  V30 25 H 0.651653 2.712474 -2.745366 0
M  V30 26 H 2.433859 4.265770 -2.367310 0
M  V30 27 H 3.957886 4.097497 -0.370228 0
M  V30 28 H 3.549342 2.249017 1.225182 0
M  V30 END ATOM
M  V30 BEGIN BOND
M  V30 1 2 1 2
M  V30 2 1 2 3
M  V30 3 2 3 4
M  V30 4 1 4 5
M  V30 5 2 5 6
M  V30 6 1 6 7
M  V30 7 1 7 8
M  V30 8 2 7 9
M  V30 9 1 2 10
M  V30 10 2 10 11
M  V30 11 1 11 12
M  V30 12 2 12 13
M  V30 13 1 13 14
M  V30 14 2 14 15
M  V30 15 1 15 16
M  V30 16 2 16 17
M  V30 17 1 17 18
M  V30 18 1 9 3
M  V30 19 1 18 10
M  V30 20 1 17 12
M  V30 21 1 4 19
M  V30 22 1 5 20
M  V30 23 1 6 21
M  V30 24 1 8 22
M  V30 25 1 9 23
M  V30 26 1 11 24
M  V30 27 1 13 25
M  V30 28 1 14 26
M  V30 29 1 15 27
M  V30 30 1 16 28
M  V30 END BOND
M  V30 END CTAB
M  END
>  <Dataset>  (106) 
ChEMBL_Kinases

>  <Ligand_Instance>  (106) 
nan

>  <PDB_ID>  (106) 
nan

>  <Standardized_SMILES>  (106) 
O=C(c1cccc(O)c1)c1cc2ccccc2s1

>  <Name>  (106) 
nan

>  <Pocket>  (106) 
nan

>  <ATP_Site>  (106) 
nan

>  <Peripheral>  (106) 
nan

>  <Num_H_Atoms_ProtBoundConf>  (106) 
nan

>  <Num_Resolved_Atoms>  (106) 
nan

>  <Num_Not_Resolved_Atoms>  (106) 
nan

$$$$
CHEMBL3335349
     RDKit          3D

  0  0  0  0  0  0  0  0  0  0999 V3000
M  V30 BEGIN CTAB
M  V30 COUNTS 29 31 0 0 0
M  V30 BEGIN ATOM
M  V30 1 O -2.103307 -0.188459 4.224529 0
M  V30 2 C -0.961400 -0.429072 3.796871 0
M  V30 3 N 0.222038 -0.660293 4.531998 0
M  V30 4 C 1.264179 -0.886945 3.592851 0
M  V30 5 C 2.597088 -1.140434 3.815832 0
M  V30 6 C 3.459917 -1.314086 2.761506 0
M  V30 7 C 2.973979 -1.230891 1.468579 0
M  V30 8 Cl 4.217925 -1.477872 0.237614 0
M  V30 9 C 1.637541 -0.977168 1.261359 0
M  V30 10 C 0.782267 -0.806990 2.306144 0
M  V30 11 C -0.611505 -0.522275 2.400199 0
M  V30 12 C -1.359760 -0.347622 1.350034 0
M  V30 13 C -1.128789 -0.421210 -0.059785 0
M  V30 14 C -1.398902 0.787441 -0.730310 0
M  V30 15 C -1.326684 0.983921 -2.097407 0
M  V30 16 C -0.958078 -0.099903 -2.865350 0
M  V30 17 O -0.850803 -0.025096 -4.248552 0
M  V30 18 C -0.674425 -1.322379 -2.302454 0
M  V30 19 Br -0.155328 -2.896535 -3.243282 0
M  V30 20 C -0.764000 -1.453638 -0.940780 0
M  V30 21 H 0.256656 -0.652423 5.561526 0
M  V30 22 H 2.951719 -1.200140 4.830740 0
M  V30 23 H 4.479912 -1.507700 3.017009 0
M  V30 24 H 1.481357 -0.933173 0.230385 0
M  V30 25 H -2.405343 -0.090523 1.576083 0
M  V30 26 H -1.697722 1.697652 -0.200653 0
M  V30 27 H -1.542896 1.930039 -2.570097 0
M  V30 28 H -0.091791 -0.508882 -4.711242 0
M  V30 29 H -0.570949 -2.357742 -0.344652 0
M  V30 END ATOM
M  V30 BEGIN BOND
M  V30 1 2 1 2
M  V30 2 1 2 3
M  V30 3 1 3 4
M  V30 4 2 4 5
M  V30 5 1 5 6
M  V30 6 2 6 7
M  V30 7 1 7 8
M  V30 8 1 7 9
M  V30 9 2 9 10
M  V30 10 1 10 11
M  V30 11 2 11 12
M  V30 12 1 12 13
M  V30 13 2 13 14
M  V30 14 1 14 15
M  V30 15 2 15 16
M  V30 16 1 16 17
M  V30 17 1 16 18
M  V30 18 1 18 19
M  V30 19 2 18 20
M  V30 20 1 11 2
M  V30 21 1 20 13
M  V30 22 1 10 4
M  V30 23 1 3 21
M  V30 24 1 5 22
M  V30 25 1 6 23
M  V30 26 1 9 24
M  V30 27 1 12 25
M  V30 28 1 14 26
M  V30 29 1 15 27
M  V30 30 1 17 28
M  V30 31 1 20 29
M  V30 END BOND
M  V30 END CTAB
M  END
>  <Dataset>  (107) 
ChEMBL_Kinases

>  <Ligand_Instance>  (107) 
nan

>  <PDB_ID>  (107) 
nan

>  <Standardized_SMILES>  (107) 
O=C1Nc2ccc(Cl)cc2/C1=C\c1ccc(O)c(Br)c1

>  <Name>  (107) 
nan

>  <Pocket>  (107) 
nan

>  <ATP_Site>  (107) 
nan

>  <Peripheral>  (107) 
nan

>  <Num_H_Atoms_ProtBoundConf>  (107) 
nan

>  <Num_Resolved_Atoms>  (107) 
nan

>  <Num_Not_Resolved_Atoms>  (107) 
nan

$$$$
CHEMBL3335348
     RDKit          3D

  0  0  0  0  0  0  0  0  0  0999 V3000
M  V30 BEGIN CTAB
M  V30 COUNTS 38 40 0 0 0
M  V30 BEGIN ATOM
M  V30 1 C -0.117868 -4.043301 3.514590 0
M  V30 2 O 1.197079 -3.554341 3.205136 0
M  V30 3 C 1.281410 -2.569243 2.218406 0
M  V30 4 C 1.441173 -2.884111 0.887072 0
M  V30 5 C 1.527878 -4.284473 0.464023 0
M  V30 6 C 1.510392 -1.818411 0.011702 0
M  V30 7 C 1.432897 -0.454922 0.356447 0
M  V30 8 C 1.611279 0.430221 -0.737641 0
M  V30 9 C 0.896179 1.361233 -1.298394 0
M  V30 10 C 1.191101 2.225655 -2.429955 0
M  V30 11 O 2.278937 2.204976 -3.035925 0
M  V30 12 N 0.032945 3.016465 -2.639522 0
M  V30 13 C -0.933614 2.643302 -1.667799 0
M  V30 14 C -2.212499 3.117741 -1.481688 0
M  V30 15 C -2.996939 2.609139 -0.493720 0
M  V30 16 C -2.521227 1.597450 0.349090 0
M  V30 17 Cl -3.662827 1.067707 1.555314 0
M  V30 18 C -1.238289 1.154580 0.127502 0
M  V30 19 C -0.437437 1.652034 -0.854291 0
M  V30 20 C 1.271170 -0.274613 1.739964 0
M  V30 21 C 1.193376 -1.277302 2.675417 0
M  V30 22 C 1.021443 -0.866221 4.092229 0
M  V30 23 H -0.777489 -3.917092 2.605928 0
M  V30 24 H -0.073477 -5.115731 3.774898 0
M  V30 25 H -0.602129 -3.422599 4.287118 0
M  V30 26 H 0.756875 -4.482349 -0.333890 0
M  V30 27 H 2.489008 -4.596018 0.039561 0
M  V30 28 H 1.292037 -4.957354 1.291719 0
M  V30 29 H 1.637627 -2.144203 -1.032243 0
M  V30 30 H 2.597245 0.289145 -1.217907 0
M  V30 31 H -0.059244 3.741775 -3.390824 0
M  V30 32 H -2.575989 3.896710 -2.133015 0
M  V30 33 H -3.987298 3.028733 -0.405900 0
M  V30 34 H -1.057268 0.383221 0.833032 0
M  V30 35 H 1.216839 0.799048 1.954335 0
M  V30 36 H -0.069267 -0.843417 4.270377 0
M  V30 37 H 1.462076 0.120124 4.242640 0
M  V30 38 H 1.458613 -1.654691 4.738394 0
M  V30 END ATOM
M  V30 BEGIN BOND
M  V30 1 1 1 2
M  V30 2 1 2 3
M  V30 3 2 3 4
M  V30 4 1 4 5
M  V30 5 1 4 6
M  V30 6 2 6 7
M  V30 7 1 7 8
M  V30 8 2 8 9
M  V30 9 1 9 10
M  V30 10 2 10 11
M  V30 11 1 10 12
M  V30 12 1 12 13
M  V30 13 2 13 14
M  V30 14 1 14 15
M  V30 15 2 15 16
M  V30 16 1 16 17
M  V30 17 1 16 18
M  V30 18 2 18 19
M  V30 19 1 7 20
M  V30 20 2 20 21
M  V30 21 1 21 22
M  V30 22 1 21 3
M  V30 23 1 19 9
M  V30 24 1 19 13
M  V30 25 1 1 23
M  V30 26 1 1 24
M  V30 27 1 1 25
M  V30 28 1 5 26
M  V30 29 1 5 27
M  V30 30 1 5 28
M  V30 31 1 6 29
M  V30 32 1 8 30
M  V30 33 1 12 31
M  V30 34 1 14 32
M  V30 35 1 15 33
M  V30 36 1 18 34
M  V30 37 1 20 35
M  V30 38 1 22 36
M  V30 39 1 22 37
M  V30 40 1 22 38
M  V30 END BOND
M  V30 END CTAB
M  END
>  <Dataset>  (108) 
ChEMBL_Kinases

>  <Ligand_Instance>  (108) 
nan

>  <PDB_ID>  (108) 
nan

>  <Standardized_SMILES>  (108) 
COc1c(C)cc(/C=C2/C(=O)Nc3ccc(Cl)cc32)cc1C

>  <Name>  (108) 
nan

>  <Pocket>  (108) 
nan

>  <ATP_Site>  (108) 
nan

>  <Peripheral>  (108) 
nan

>  <Num_H_Atoms_ProtBoundConf>  (108) 
nan

>  <Num_Resolved_Atoms>  (108) 
nan

>  <Num_Not_Resolved_Atoms>  (108) 
nan

$$$$
CHEMBL3335346
     RDKit          3D

  0  0  0  0  0  0  0  0  0  0999 V3000
M  V30 BEGIN CTAB
M  V30 COUNTS 35 37 0 0 0
M  V30 BEGIN ATOM
M  V30 1 C -1.726292 -2.316080 2.916121 0
M  V30 2 C -1.518533 -1.880305 1.498467 0
M  V30 3 C -0.274761 -1.819448 0.914245 0
M  V30 4 C -0.131742 -1.393778 -0.421034 0
M  V30 5 C 1.256876 -1.392183 -0.837425 0
M  V30 6 C 2.281838 -0.669793 -0.478889 0
M  V30 7 C 3.654201 -0.703327 -0.905899 0
M  V30 8 O 4.131361 -1.522814 -1.731055 0
M  V30 9 N 4.365259 0.333001 -0.247295 0
M  V30 10 C 3.389772 0.993904 0.585275 0
M  V30 11 C 3.622361 2.083246 1.398017 0
M  V30 12 C 2.558326 2.606002 2.105973 0
M  V30 13 C 1.291091 2.045374 1.998790 0
M  V30 14 Cl 0.048481 2.832162 2.959137 0
M  V30 15 C 1.129080 0.956845 1.169527 0
M  V30 16 C 2.153230 0.410903 0.456627 0
M  V30 17 C -1.272898 -1.054306 -1.086956 0
M  V30 18 C -2.504230 -1.122692 -0.482627 0
M  V30 19 C -3.691924 -0.740378 -1.287778 0
M  V30 20 C -2.691487 -1.538916 0.839628 0
M  V30 21 O -3.955720 -1.592260 1.406645 0
M  V30 22 H -2.571942 -2.986139 3.055819 0
M  V30 23 H -0.799536 -2.875243 3.204802 0
M  V30 24 H -1.819177 -1.422840 3.568775 0
M  V30 25 H 0.541777 -2.119687 1.563733 0
M  V30 26 H 1.386318 -2.160752 -1.590857 0
M  V30 27 H 5.359582 0.565368 -0.343156 0
M  V30 28 H 4.579141 2.526155 1.495542 0
M  V30 29 H 2.761367 3.454138 2.731131 0
M  V30 30 H 0.098482 0.689087 1.185654 0
M  V30 31 H -1.082624 -0.737835 -2.104240 0
M  V30 32 H -4.558011 -1.408858 -1.035017 0
M  V30 33 H -3.516019 -0.915355 -2.379814 0
M  V30 34 H -3.973588 0.314959 -1.179957 0
M  V30 35 H -4.625896 -2.309607 1.087383 0
M  V30 END ATOM
M  V30 BEGIN BOND
M  V30 1 1 1 2
M  V30 2 2 2 3
M  V30 3 1 3 4
M  V30 4 1 4 5
M  V30 5 2 5 6
M  V30 6 1 6 7
M  V30 7 2 7 8
M  V30 8 1 7 9
M  V30 9 1 9 10
M  V30 10 2 10 11
M  V30 11 1 11 12
M  V30 12 2 12 13
M  V30 13 1 13 14
M  V30 14 1 13 15
M  V30 15 2 15 16
M  V30 16 2 4 17
M  V30 17 1 17 18
M  V30 18 1 18 19
M  V30 19 2 18 20
M  V30 20 1 20 21
M  V30 21 1 20 2
M  V30 22 1 16 6
M  V30 23 1 16 10
M  V30 24 1 1 22
M  V30 25 1 1 23
M  V30 26 1 1 24
M  V30 27 1 3 25
M  V30 28 1 5 26
M  V30 29 1 9 27
M  V30 30 1 11 28
M  V30 31 1 12 29
M  V30 32 1 15 30
M  V30 33 1 17 31
M  V30 34 1 19 32
M  V30 35 1 19 33
M  V30 36 1 19 34
M  V30 37 1 21 35
M  V30 END BOND
M  V30 END CTAB
M  END
>  <Dataset>  (109) 
ChEMBL_Kinases

>  <Ligand_Instance>  (109) 
nan

>  <PDB_ID>  (109) 
nan

>  <Standardized_SMILES>  (109) 
Cc1cc(/C=C2/C(=O)Nc3ccc(Cl)cc32)cc(C)c1O

>  <Name>  (109) 
nan

>  <Pocket>  (109) 
nan

>  <ATP_Site>  (109) 
nan

>  <Peripheral>  (109) 
nan

>  <Num_H_Atoms_ProtBoundConf>  (109) 
nan

>  <Num_Resolved_Atoms>  (109) 
nan

>  <Num_Not_Resolved_Atoms>  (109) 
nan

$$$$
CHEMBL3335345
     RDKit          3D

  0  0  0  0  0  0  0  0  0  0999 V3000
M  V30 BEGIN CTAB
M  V30 COUNTS 33 35 0 0 0
M  V30 BEGIN ATOM
M  V30 1 C 1.806944 -4.141259 2.618119 0
M  V30 2 O 1.512882 -2.851386 2.129219 0
M  V30 3 C 0.404144 -2.678734 1.312071 0
M  V30 4 C -0.356764 -3.821927 1.027365 0
M  V30 5 C -1.469749 -3.778846 0.236199 0
M  V30 6 C -1.886804 -2.592464 -0.316624 0
M  V30 7 C -1.144283 -1.474981 -0.041026 0
M  V30 8 C -0.028255 -1.500163 0.750305 0
M  V30 9 C -1.778301 -0.378181 -0.706927 0
M  V30 10 C -1.334504 0.838945 -0.737321 0
M  V30 11 C -0.165214 1.485870 -0.188713 0
M  V30 12 C -0.434951 2.546585 0.690399 0
M  V30 13 C 0.491482 3.369662 1.296537 0
M  V30 14 Br -0.010926 4.778251 2.473643 0
M  V30 15 C 1.811005 3.117759 1.003656 0
M  V30 16 O 2.831560 3.880197 1.554089 0
M  V30 17 C 2.180339 2.104314 0.156222 0
M  V30 18 Br 3.975507 1.670922 -0.315862 0
M  V30 19 C 1.209444 1.319658 -0.415769 0
M  V30 20 C -2.948385 -0.873045 -1.401816 0
M  V30 21 O -3.747363 -0.208469 -2.085684 0
M  V30 22 N -2.993432 -2.268996 -1.140847 0
M  V30 23 H 2.759147 -4.158692 3.189923 0
M  V30 24 H 0.976189 -4.625753 3.155198 0
M  V30 25 H 2.034554 -4.753028 1.696489 0
M  V30 26 H -0.108287 -4.789890 1.413711 0
M  V30 27 H -2.051051 -4.649481 0.018478 0
M  V30 28 H 0.628496 -0.726904 1.075436 0
M  V30 29 H -1.940492 1.574570 -1.289694 0
M  V30 30 H -1.469162 2.793821 0.960354 0
M  V30 31 H 3.546829 4.263937 0.927117 0
M  V30 32 H 1.358163 0.474896 -1.111278 0
M  V30 33 H -3.717782 -2.929260 -1.497861 0
M  V30 END ATOM
M  V30 BEGIN BOND
M  V30 1 1 1 2
M  V30 2 1 2 3
M  V30 3 2 3 4
M  V30 4 1 4 5
M  V30 5 2 5 6
M  V30 6 1 6 7
M  V30 7 2 7 8
M  V30 8 1 7 9
M  V30 9 2 9 10
M  V30 10 1 10 11
M  V30 11 2 11 12
M  V30 12 1 12 13
M  V30 13 1 13 14
M  V30 14 2 13 15
M  V30 15 1 15 16
M  V30 16 1 15 17
M  V30 17 1 17 18
M  V30 18 2 17 19
M  V30 19 1 9 20
M  V30 20 2 20 21
M  V30 21 1 20 22
M  V30 22 1 8 3
M  V30 23 1 19 11
M  V30 24 1 22 6
M  V30 25 1 1 23
M  V30 26 1 1 24
M  V30 27 1 1 25
M  V30 28 1 4 26
M  V30 29 1 5 27
M  V30 30 1 8 28
M  V30 31 1 10 29
M  V30 32 1 12 30
M  V30 33 1 16 31
M  V30 34 1 19 32
M  V30 35 1 22 33
M  V30 END BOND
M  V30 END CTAB
M  END
>  <Dataset>  (110) 
ChEMBL_Kinases

>  <Ligand_Instance>  (110) 
nan

>  <PDB_ID>  (110) 
nan

>  <Standardized_SMILES>  (110) 
COc1ccc2c(c1)/C(=C\c1cc(Br)c(O)c(Br)c1)C(=O)N2

>  <Name>  (110) 
nan

>  <Pocket>  (110) 
nan

>  <ATP_Site>  (110) 
nan

>  <Peripheral>  (110) 
nan

>  <Num_H_Atoms_ProtBoundConf>  (110) 
nan

>  <Num_Resolved_Atoms>  (110) 
nan

>  <Num_Not_Resolved_Atoms>  (110) 
nan

$$$$
CHEMBL3335344
     RDKit          3D

  0  0  0  0  0  0  0  0  0  0999 V3000
M  V30 BEGIN CTAB
M  V30 COUNTS 39 42 0 0 0
M  V30 BEGIN ATOM
M  V30 1 O 2.600678 -4.140257 4.044398 0
M  V30 2 C 2.528780 -3.020279 3.430652 0
M  V30 3 N 3.434094 -1.925937 3.454994 0
M  V30 4 C 2.888537 -0.915028 2.591836 0
M  V30 5 C 3.414848 0.321624 2.283781 0
M  V30 6 C 2.763614 1.171996 1.414971 0
M  V30 7 C 1.542936 0.755752 0.842167 0
M  V30 8 C 0.802721 1.619869 -0.091008 0
M  V30 9 C 0.082351 0.940544 -1.045216 0
M  V30 10 C -0.651280 1.654865 -1.967579 0
M  V30 11 C -0.680349 3.027410 -1.958057 0
M  V30 12 C 0.045517 3.721381 -0.997239 0
M  V30 13 C 0.784395 2.987829 -0.067642 0
M  V30 14 C 1.094196 -0.498641 1.209660 0
M  V30 15 C 1.696360 -1.380068 2.064520 0
M  V30 16 C 1.399358 -2.719441 2.555808 0
M  V30 17 C 0.342180 -3.447579 2.201794 0
M  V30 18 C -0.716544 -2.990549 1.312837 0
M  V30 19 C -1.588162 -2.167708 2.052837 0
M  V30 20 C -2.684430 -1.588268 1.407399 0
M  V30 21 Br -3.938512 -0.451029 2.293602 0
M  V30 22 C -2.873241 -1.849626 0.049862 0
M  V30 23 O -3.932726 -1.324239 -0.696200 0
M  V30 24 C -1.999810 -2.664665 -0.653990 0
M  V30 25 Br -2.207619 -3.048776 -2.499231 0
M  V30 26 C -0.910541 -3.244713 -0.028340 0
M  V30 27 H 4.305064 -1.977795 4.036937 0
M  V30 28 H 4.362590 0.631870 2.732331 0
M  V30 29 H 3.166385 2.146974 1.167026 0
M  V30 30 H -0.029219 -0.119975 -1.225407 0
M  V30 31 H -1.259465 1.243997 -2.765501 0
M  V30 32 H -1.240359 3.632479 -2.658582 0
M  V30 33 H 0.110324 4.791024 -0.875416 0
M  V30 34 H 1.356328 3.471322 0.691696 0
M  V30 35 H 0.183992 -0.710450 0.701912 0
M  V30 36 H 0.296233 -4.426746 2.615459 0
M  V30 37 H -1.549611 -1.896123 3.087726 0
M  V30 38 H -4.196483 -0.358697 -0.523095 0
M  V30 39 H -0.156168 -3.893148 -0.445589 0
M  V30 END ATOM
M  V30 BEGIN BOND
M  V30 1 2 1 2
M  V30 2 1 2 3
M  V30 3 1 3 4
M  V30 4 2 4 5
M  V30 5 1 5 6
M  V30 6 2 6 7
M  V30 7 1 7 8
M  V30 8 2 8 9
M  V30 9 1 9 10
M  V30 10 2 10 11
M  V30 11 1 11 12
M  V30 12 2 12 13
M  V30 13 1 7 14
M  V30 14 2 14 15
M  V30 15 1 15 16
M  V30 16 2 16 17
M  V30 17 1 17 18
M  V30 18 2 18 19
M  V30 19 1 19 20
M  V30 20 1 20 21
M  V30 21 2 20 22
M  V30 22 1 22 23
M  V30 23 1 22 24
M  V30 24 1 24 25
M  V30 25 2 24 26
M  V30 26 1 16 2
M  V30 27 1 26 18
M  V30 28 1 15 4
M  V30 29 1 13 8
M  V30 30 1 3 27
M  V30 31 1 5 28
M  V30 32 1 6 29
M  V30 33 1 9 30
M  V30 34 1 10 31
M  V30 35 1 11 32
M  V30 36 1 12 33
M  V30 37 1 13 34
M  V30 38 1 14 35
M  V30 39 1 17 36
M  V30 40 1 19 37
M  V30 41 1 23 38
M  V30 42 1 26 39
M  V30 END BOND
M  V30 END CTAB
M  END
>  <Dataset>  (111) 
ChEMBL_Kinases

>  <Ligand_Instance>  (111) 
nan

>  <PDB_ID>  (111) 
nan

>  <Standardized_SMILES>  (111) 
O=C1Nc2ccc(-c3ccccc3)cc2/C1=C\c1cc(Br)c(O)c(Br)c1

>  <Name>  (111) 
nan

>  <Pocket>  (111) 
nan

>  <ATP_Site>  (111) 
nan

>  <Peripheral>  (111) 
nan

>  <Num_H_Atoms_ProtBoundConf>  (111) 
nan

>  <Num_Resolved_Atoms>  (111) 
nan

>  <Num_Not_Resolved_Atoms>  (111) 
nan

$$$$
CHEMBL3335335
     RDKit          3D

  0  0  0  0  0  0  0  0  0  0999 V3000
M  V30 BEGIN CTAB
M  V30 COUNTS 35 37 0 0 0
M  V30 BEGIN ATOM
M  V30 1 C -0.280195 -5.534481 3.228623 0
M  V30 2 C 0.091981 -4.259079 2.566664 0
M  V30 3 O -0.751458 -3.634448 1.841023 0
M  V30 4 N 1.321884 -3.575984 2.615862 0
M  V30 5 C 1.485617 -2.357065 1.911335 0
M  V30 6 C 1.913495 -2.125107 0.621201 0
M  V30 7 C 2.000074 -0.842567 0.120788 0
M  V30 8 C 1.647238 0.246378 0.936225 0
M  V30 9 C 1.715733 1.595994 0.443607 0
M  V30 10 C 0.882059 2.283698 -0.306032 0
M  V30 11 C 0.939089 3.645005 -0.816930 0
M  V30 12 O 1.906265 4.424528 -0.608536 0
M  V30 13 N -0.254011 3.883978 -1.551400 0
M  V30 14 C -1.022348 2.689196 -1.486878 0
M  V30 15 C -2.259922 2.437558 -2.038394 0
M  V30 16 C -2.902631 1.226763 -1.887051 0
M  V30 17 C -2.232079 0.251747 -1.136998 0
M  V30 18 Cl -3.111925 -1.270910 -0.984448 0
M  V30 19 C -0.994692 0.522593 -0.593445 0
M  V30 20 C -0.372206 1.721359 -0.752577 0
M  V30 21 C 1.220753 0.010530 2.224080 0
M  V30 22 C 1.131762 -1.291250 2.735406 0
M  V30 23 H 0.103130 -6.400898 2.692484 0
M  V30 24 H -1.403456 -5.585374 3.220633 0
M  V30 25 H -0.019840 -5.530152 4.309986 0
M  V30 26 H 2.075289 -4.043365 3.207368 0
M  V30 27 H 2.157235 -3.034281 0.087839 0
M  V30 28 H 2.339449 -0.710507 -0.894161 0
M  V30 29 H 2.628040 2.096897 0.770609 0
M  V30 30 H -0.491367 4.794563 -2.040919 0
M  V30 31 H -2.774532 3.200213 -2.619486 0
M  V30 32 H -3.867999 1.054900 -2.326931 0
M  V30 33 H -0.661719 -0.320663 -0.056591 0
M  V30 34 H 0.954989 0.881756 2.832715 0
M  V30 35 H 0.780459 -1.322984 3.763618 0
M  V30 END ATOM
M  V30 BEGIN BOND
M  V30 1 1 1 2
M  V30 2 2 2 3
M  V30 3 1 2 4
M  V30 4 1 4 5
M  V30 5 2 5 6
M  V30 6 1 6 7
M  V30 7 2 7 8
M  V30 8 1 8 9
M  V30 9 2 9 10
M  V30 10 1 10 11
M  V30 11 2 11 12
M  V30 12 1 11 13
M  V30 13 1 13 14
M  V30 14 2 14 15
M  V30 15 1 15 16
M  V30 16 2 16 17
M  V30 17 1 17 18
M  V30 18 1 17 19
M  V30 19 2 19 20
M  V30 20 1 8 21
M  V30 21 2 21 22
M  V30 22 1 22 5
M  V30 23 1 20 10
M  V30 24 1 20 14
M  V30 25 1 1 23
M  V30 26 1 1 24
M  V30 27 1 1 25
M  V30 28 1 4 26
M  V30 29 1 6 27
M  V30 30 1 7 28
M  V30 31 1 9 29
M  V30 32 1 13 30
M  V30 33 1 15 31
M  V30 34 1 16 32
M  V30 35 1 19 33
M  V30 36 1 21 34
M  V30 37 1 22 35
M  V30 END BOND
M  V30 END CTAB
M  END
>  <Dataset>  (112) 
ChEMBL_Kinases

>  <Ligand_Instance>  (112) 
nan

>  <PDB_ID>  (112) 
nan

>  <Standardized_SMILES>  (112) 
CC(=O)Nc1ccc(/C=C2/C(=O)Nc3ccc(Cl)cc32)cc1

>  <Name>  (112) 
nan

>  <Pocket>  (112) 
nan

>  <ATP_Site>  (112) 
nan

>  <Peripheral>  (112) 
nan

>  <Num_H_Atoms_ProtBoundConf>  (112) 
nan

>  <Num_Resolved_Atoms>  (112) 
nan

>  <Num_Not_Resolved_Atoms>  (112) 
nan

$$$$
CHEMBL3335333
     RDKit          3D

  0  0  0  0  0  0  0  0  0  0999 V3000
M  V30 BEGIN CTAB
M  V30 COUNTS 48 51 0 0 0
M  V30 BEGIN ATOM
M  V30 1 O 6.626417 0.676839 -0.905484 0
M  V30 2 C 5.762918 0.368529 -1.753925 0
M  V30 3 N 5.876960 0.261322 -3.165653 0
M  V30 4 C 4.607915 -0.119336 -3.681852 0
M  V30 5 C 4.224047 -0.328866 -4.987516 0
M  V30 6 C 2.925075 -0.677071 -5.292243 0
M  V30 7 C 1.988900 -0.817724 -4.260127 0
M  V30 8 Cl 0.399258 -1.257966 -4.812054 0
M  V30 9 C 2.420774 -0.598641 -2.974117 0
M  V30 10 C 3.701135 -0.256167 -2.658279 0
M  V30 11 C 4.387319 0.040592 -1.425374 0
M  V30 12 C 3.772661 0.030723 -0.287610 0
M  V30 13 C 2.429740 -0.285645 0.131631 0
M  V30 14 C 1.800394 0.811422 0.744895 0
M  V30 15 C 0.539870 0.788913 1.304317 0
M  V30 16 C -0.153418 -0.401647 1.257036 0
M  V30 17 O -1.427399 -0.511676 1.795376 0
M  V30 18 C -2.154796 -1.724185 1.757279 0
M  V30 19 C -3.506498 -1.640366 2.386638 0
M  V30 20 N -3.540064 -1.286236 3.755487 0
M  V30 21 C -3.152701 0.040937 4.084756 0
M  V30 22 C -3.394842 0.409405 5.522189 0
M  V30 23 O -4.249116 -0.475813 6.172234 0
M  V30 24 C -5.337761 -0.663924 5.300141 0
M  V30 25 C -4.843798 -1.663066 4.266289 0
M  V30 26 C 0.393692 -1.523196 0.673586 0
M  V30 27 C 1.652017 -1.454020 0.129225 0
M  V30 28 H 6.782233 0.448594 -3.666146 0
M  V30 29 H 4.961012 -0.215225 -5.768677 0
M  V30 30 H 2.710706 -0.820551 -6.319646 0
M  V30 31 H 1.579019 -0.725750 -2.341294 0
M  V30 32 H 4.421006 0.327560 0.557709 0
M  V30 33 H 2.255521 1.805538 0.839697 0
M  V30 34 H 0.060199 1.619885 1.769994 0
M  V30 35 H -2.224393 -2.024420 0.692318 0
M  V30 36 H -1.492204 -2.476619 2.226455 0
M  V30 37 H -4.151393 -1.000761 1.741886 0
M  V30 38 H -3.964440 -2.659282 2.298052 0
M  V30 39 H -3.718767 0.788296 3.464072 0
M  V30 40 H -2.052473 0.135975 3.938132 0
M  V30 41 H -3.832366 1.422033 5.642736 0
M  V30 42 H -2.454408 0.416359 6.135929 0
M  V30 43 H -6.150999 -1.102651 5.891250 0
M  V30 44 H -5.593417 0.318700 4.830714 0
M  V30 45 H -5.587922 -1.798773 3.470835 0
M  V30 46 H -4.725309 -2.632994 4.797824 0
M  V30 47 H -0.066225 -2.494301 0.587823 0
M  V30 48 H 2.239948 -2.241962 -0.371779 0
M  V30 END ATOM
M  V30 BEGIN BOND
M  V30 1 2 1 2
M  V30 2 1 2 3
M  V30 3 1 3 4
M  V30 4 2 4 5
M  V30 5 1 5 6
M  V30 6 2 6 7
M  V30 7 1 7 8
M  V30 8 1 7 9
M  V30 9 2 9 10
M  V30 10 1 10 11
M  V30 11 2 11 12
M  V30 12 1 12 13
M  V30 13 2 13 14
M  V30 14 1 14 15
M  V30 15 2 15 16
M  V30 16 1 16 17
M  V30 17 1 17 18
M  V30 18 1 18 19
M  V30 19 1 19 20
M  V30 20 1 20 21
M  V30 21 1 21 22
M  V30 22 1 22 23
M  V30 23 1 23 24
M  V30 24 1 24 25
M  V30 25 1 16 26
M  V30 26 2 26 27
M  V30 27 1 11 2
M  V30 28 1 27 13
M  V30 29 1 10 4
M  V30 30 1 25 20
M  V30 31 1 3 28
M  V30 32 1 5 29
M  V30 33 1 6 30
M  V30 34 1 9 31
M  V30 35 1 12 32
M  V30 36 1 14 33
M  V30 37 1 15 34
M  V30 38 1 18 35
M  V30 39 1 18 36
M  V30 40 1 19 37
M  V30 41 1 19 38
M  V30 42 1 21 39
M  V30 43 1 21 40
M  V30 44 1 22 41
M  V30 45 1 22 42
M  V30 46 1 24 43
M  V30 47 1 24 44
M  V30 48 1 25 45
M  V30 49 1 25 46
M  V30 50 1 26 47
M  V30 51 1 27 48
M  V30 END BOND
M  V30 END CTAB
M  END
>  <Dataset>  (113) 
ChEMBL_Kinases

>  <Ligand_Instance>  (113) 
nan

>  <PDB_ID>  (113) 
nan

>  <Standardized_SMILES>  (113) 
O=C1Nc2ccc(Cl)cc2/C1=C\c1ccc(OCCN2CCOCC2)cc1

>  <Name>  (113) 
nan

>  <Pocket>  (113) 
nan

>  <ATP_Site>  (113) 
nan

>  <Peripheral>  (113) 
nan

>  <Num_H_Atoms_ProtBoundConf>  (113) 
nan

>  <Num_Resolved_Atoms>  (113) 
nan

>  <Num_Not_Resolved_Atoms>  (113) 
nan

$$$$
CHEMBL3335332
     RDKit          3D

  0  0  0  0  0  0  0  0  0  0999 V3000
M  V30 BEGIN CTAB
M  V30 COUNTS 28 30 0 0 0
M  V30 BEGIN ATOM
M  V30 1 O 0.972845 -2.922566 -2.565073 0
M  V30 2 C 1.404517 -2.199478 -1.656909 0
M  V30 3 N 2.769676 -1.865717 -1.349708 0
M  V30 4 C 2.802746 -1.001076 -0.221325 0
M  V30 5 C 3.885420 -0.421389 0.409825 0
M  V30 6 C 3.639344 0.413119 1.498265 0
M  V30 7 C 2.353778 0.674832 1.960043 0
M  V30 8 Cl 2.229893 1.758810 3.345063 0
M  V30 9 C 1.306276 0.074552 1.300046 0
M  V30 10 C 1.529769 -0.751558 0.227491 0
M  V30 11 C 0.650784 -1.484930 -0.647228 0
M  V30 12 C -0.661427 -1.475977 -0.566437 0
M  V30 13 C -1.511005 -0.808867 0.401215 0
M  V30 14 C -2.340943 0.304804 0.381167 0
M  V30 15 C -3.102072 0.634382 1.467337 0
M  V30 16 C -3.087799 -0.100336 2.614413 0
M  V30 17 C -2.275740 -1.218300 2.680843 0
M  V30 18 C -1.500171 -1.566094 1.591660 0
M  V30 19 H 3.622586 -2.208387 -1.883321 0
M  V30 20 H 4.875249 -0.611167 0.069755 0
M  V30 21 H 4.500630 0.855220 1.982145 0
M  V30 22 H 0.367236 0.362415 1.724933 0
M  V30 23 H -1.342534 -1.989809 -1.242289 0
M  V30 24 H -2.226842 0.771026 -0.598065 0
M  V30 25 H -3.692618 1.529971 1.294459 0
M  V30 26 H -3.713530 0.210835 3.443275 0
M  V30 27 H -2.324431 -1.745147 3.621315 0
M  V30 28 H -0.926032 -2.472151 1.819715 0
M  V30 END ATOM
M  V30 BEGIN BOND
M  V30 1 2 1 2
M  V30 2 1 2 3
M  V30 3 1 3 4
M  V30 4 2 4 5
M  V30 5 1 5 6
M  V30 6 2 6 7
M  V30 7 1 7 8
M  V30 8 1 7 9
M  V30 9 2 9 10
M  V30 10 1 10 11
M  V30 11 2 11 12
M  V30 12 1 12 13
M  V30 13 2 13 14
M  V30 14 1 14 15
M  V30 15 2 15 16
M  V30 16 1 16 17
M  V30 17 2 17 18
M  V30 18 1 11 2
M  V30 19 1 18 13
M  V30 20 1 10 4
M  V30 21 1 3 19
M  V30 22 1 5 20
M  V30 23 1 6 21
M  V30 24 1 9 22
M  V30 25 1 12 23
M  V30 26 1 14 24
M  V30 27 1 15 25
M  V30 28 1 16 26
M  V30 29 1 17 27
M  V30 30 1 18 28
M  V30 END BOND
M  V30 END CTAB
M  END
>  <Dataset>  (114) 
ChEMBL_Kinases

>  <Ligand_Instance>  (114) 
nan

>  <PDB_ID>  (114) 
nan

>  <Standardized_SMILES>  (114) 
O=C1Nc2ccc(Cl)cc2/C1=C\c1ccccc1

>  <Name>  (114) 
nan

>  <Pocket>  (114) 
nan

>  <ATP_Site>  (114) 
nan

>  <Peripheral>  (114) 
nan

>  <Num_H_Atoms_ProtBoundConf>  (114) 
nan

>  <Num_Resolved_Atoms>  (114) 
nan

>  <Num_Not_Resolved_Atoms>  (114) 
nan

$$$$
CHEMBL3335331
     RDKit          3D

  0  0  0  0  0  0  0  0  0  0999 V3000
M  V30 BEGIN CTAB
M  V30 COUNTS 43 45 0 0 0
M  V30 BEGIN ATOM
M  V30 1 C -1.466838 -5.059201 2.657914 0
M  V30 2 N -0.008155 -5.104587 2.680720 0
M  V30 3 C 0.470601 -4.808813 4.016127 0
M  V30 4 C 0.482076 -4.144076 1.708987 0
M  V30 5 C 1.965775 -4.088504 1.621354 0
M  V30 6 O 2.377560 -3.154489 0.683047 0
M  V30 7 C 2.184485 -1.817147 0.745981 0
M  V30 8 C 1.623159 -0.910576 1.611760 0
M  V30 9 C 1.585664 0.436846 1.362292 0
M  V30 10 C 2.129103 0.975261 0.187653 0
M  V30 11 C 2.095587 2.386153 -0.089521 0
M  V30 12 C 1.139838 3.233211 -0.352697 0
M  V30 13 C 1.234544 4.654690 -0.607507 0
M  V30 14 O 2.311147 5.274927 -0.560152 0
M  V30 15 N -0.092617 5.078472 -0.890458 0
M  V30 16 C -0.945111 3.942053 -0.807134 0
M  V30 17 C -2.303129 3.852449 -1.016848 0
M  V30 18 C -2.942727 2.652090 -0.909907 0
M  V30 19 C -2.221285 1.515200 -0.588594 0
M  V30 20 Cl -3.195814 0.039675 -0.490320 0
M  V30 21 C -0.864897 1.619603 -0.381160 0
M  V30 22 C -0.230849 2.819358 -0.486752 0
M  V30 23 C 2.702006 0.104138 -0.706548 0
M  V30 24 C 2.729718 -1.274700 -0.431800 0
M  V30 25 H -1.883766 -5.121368 3.693854 0
M  V30 26 H -1.785548 -4.107277 2.192716 0
M  V30 27 H -1.898080 -5.885358 2.080191 0
M  V30 28 H 1.339999 -5.393761 4.311042 0
M  V30 29 H 0.640672 -3.714535 4.119388 0
M  V30 30 H -0.349933 -5.069343 4.738844 0
M  V30 31 H 0.064329 -3.171462 1.964477 0
M  V30 32 H 0.115146 -4.474010 0.705804 0
M  V30 33 H 2.380756 -3.854939 2.655585 0
M  V30 34 H 2.412042 -5.106307 1.424710 0
M  V30 35 H 1.239094 -1.335344 2.498074 0
M  V30 36 H 1.125959 1.060055 2.098332 0
M  V30 37 H 3.134447 2.692081 -0.040378 0
M  V30 38 H -0.319968 6.078255 -1.112819 0
M  V30 39 H -2.849932 4.742403 -1.267047 0
M  V30 40 H -4.002439 2.650933 -1.085023 0
M  V30 41 H -0.491104 0.646803 -0.174075 0
M  V30 42 H 3.115852 0.556418 -1.607000 0
M  V30 43 H 3.227601 -1.794655 -1.264319 0
M  V30 END ATOM
M  V30 BEGIN BOND
M  V30 1 1 1 2
M  V30 2 1 2 3
M  V30 3 1 2 4
M  V30 4 1 4 5
M  V30 5 1 5 6
M  V30 6 1 6 7
M  V30 7 2 7 8
M  V30 8 1 8 9
M  V30 9 2 9 10
M  V30 10 1 10 11
M  V30 11 2 11 12
M  V30 12 1 12 13
M  V30 13 2 13 14
M  V30 14 1 13 15
M  V30 15 1 15 16
M  V30 16 2 16 17
M  V30 17 1 17 18
M  V30 18 2 18 19
M  V30 19 1 19 20
M  V30 20 1 19 21
M  V30 21 2 21 22
M  V30 22 1 10 23
M  V30 23 2 23 24
M  V30 24 1 24 7
M  V30 25 1 22 12
M  V30 26 1 22 16
M  V30 27 1 1 25
M  V30 28 1 1 26
M  V30 29 1 1 27
M  V30 30 1 3 28
M  V30 31 1 3 29
M  V30 32 1 3 30
M  V30 33 1 4 31
M  V30 34 1 4 32
M  V30 35 1 5 33
M  V30 36 1 5 34
M  V30 37 1 8 35
M  V30 38 1 9 36
M  V30 39 1 11 37
M  V30 40 1 15 38
M  V30 41 1 17 39
M  V30 42 1 18 40
M  V30 43 1 21 41
M  V30 44 1 23 42
M  V30 45 1 24 43
M  V30 END BOND
M  V30 END CTAB
M  END
>  <Dataset>  (115) 
ChEMBL_Kinases

>  <Ligand_Instance>  (115) 
nan

>  <PDB_ID>  (115) 
nan

>  <Standardized_SMILES>  (115) 
CN(C)CCOc1ccc(/C=C2/C(=O)Nc3ccc(Cl)cc32)cc1

>  <Name>  (115) 
nan

>  <Pocket>  (115) 
nan

>  <ATP_Site>  (115) 
nan

>  <Peripheral>  (115) 
nan

>  <Num_H_Atoms_ProtBoundConf>  (115) 
nan

>  <Num_Resolved_Atoms>  (115) 
nan

>  <Num_Not_Resolved_Atoms>  (115) 
nan

$$$$
CHEMBL3330169
     RDKit          3D

  0  0  0  0  0  0  0  0  0  0999 V3000
M  V30 BEGIN CTAB
M  V30 COUNTS 35 37 0 0 0
M  V30 BEGIN ATOM
M  V30 1 N 1.803212 -2.227504 4.285118 0
M  V30 2 C 1.579447 -0.909688 4.821848 0
M  V30 3 C 1.354814 0.079321 3.675407 0
M  V30 4 N 2.477815 0.140918 2.797361 0
M  V30 5 S 2.267367 1.243236 1.491274 0
M  V30 6 O 3.506772 1.237016 0.644711 0
M  V30 7 O 2.007036 2.625979 2.001969 0
M  V30 8 C 0.940203 0.815266 0.468311 0
M  V30 9 C -0.232647 1.445100 0.101711 0
M  V30 10 C -1.061185 0.773053 -0.750641 0
M  V30 11 C -0.746363 -0.449030 -1.211674 0
M  V30 12 C -1.259524 -1.455190 -2.053000 0
M  V30 13 C -0.645116 -2.683013 -2.338191 0
M  V30 14 N -1.423156 -3.390345 -3.178992 0
M  V30 15 C -2.530838 -2.720564 -3.485091 0
M  V30 16 N -3.595990 -2.983415 -4.261291 0
M  V30 17 C -4.594594 -2.094875 -4.385947 0
M  V30 18 C -4.501010 -0.902540 -3.696495 0
M  V30 19 C -3.416880 -0.629016 -2.903285 0
M  V30 20 C -2.415348 -1.539320 -2.788442 0
M  V30 21 S 0.921677 -0.793556 -0.397501 0
M  V30 22 H 2.550307 -2.235975 3.556283 0
M  V30 23 H 0.934286 -2.698214 3.956879 0
M  V30 24 H 2.411538 -0.619227 5.471076 0
M  V30 25 H 0.630957 -0.956277 5.401609 0
M  V30 26 H 0.415377 -0.201646 3.199319 0
M  V30 27 H 1.181218 1.068138 4.184313 0
M  V30 28 H 3.338802 0.337099 3.345680 0
M  V30 29 H -0.345742 2.417655 0.550734 0
M  V30 30 H -1.970931 1.271500 -1.029714 0
M  V30 31 H 0.286280 -3.126015 -2.016942 0
M  V30 32 H -1.246804 -4.353940 -3.585585 0
M  V30 33 H -5.428399 -2.351583 -5.020625 0
M  V30 34 H -5.324988 -0.224003 -3.828360 0
M  V30 35 H -3.479987 0.327787 -2.432611 0
M  V30 END ATOM
M  V30 BEGIN BOND
M  V30 1 1 1 2
M  V30 2 1 2 3
M  V30 3 1 3 4
M  V30 4 1 4 5
M  V30 5 2 5 6
M  V30 6 2 5 7
M  V30 7 1 5 8
M  V30 8 2 8 9
M  V30 9 1 9 10
M  V30 10 2 10 11
M  V30 11 1 11 12
M  V30 12 2 12 13
M  V30 13 1 13 14
M  V30 14 1 14 15
M  V30 15 2 15 16
M  V30 16 1 16 17
M  V30 17 2 17 18
M  V30 18 1 18 19
M  V30 19 2 19 20
M  V30 20 1 11 21
M  V30 21 1 21 8
M  V30 22 1 20 12
M  V30 23 1 20 15
M  V30 24 1 1 22
M  V30 25 1 1 23
M  V30 26 1 2 24
M  V30 27 1 2 25
M  V30 28 1 3 26
M  V30 29 1 3 27
M  V30 30 1 4 28
M  V30 31 1 9 29
M  V30 32 1 10 30
M  V30 33 1 13 31
M  V30 34 1 14 32
M  V30 35 1 17 33
M  V30 36 1 18 34
M  V30 37 1 19 35
M  V30 END BOND
M  V30 END CTAB
M  END
>  <Dataset>  (116) 
ChEMBL_Kinases

>  <Ligand_Instance>  (116) 
nan

>  <PDB_ID>  (116) 
nan

>  <Standardized_SMILES>  (116) 
NCCNS(=O)(=O)c1ccc(-c2c[nH]c3ncccc23)s1

>  <Name>  (116) 
nan

>  <Pocket>  (116) 
nan

>  <ATP_Site>  (116) 
nan

>  <Peripheral>  (116) 
nan

>  <Num_H_Atoms_ProtBoundConf>  (116) 
nan

>  <Num_Resolved_Atoms>  (116) 
nan

>  <Num_Not_Resolved_Atoms>  (116) 
nan

$$$$
CHEMBL3334946
     RDKit          3D

  0  0  0  0  0  0  0  0  0  0999 V3000
M  V30 BEGIN CTAB
M  V30 COUNTS 49 52 0 0 0
M  V30 BEGIN ATOM
M  V30 1 C -1.235911 -6.844591 -1.715877 0
M  V30 2 O -1.961676 -6.376011 -0.571117 0
M  V30 3 C -2.082110 -5.041107 -0.281803 0
M  V30 4 C -1.517336 -4.034305 -1.065755 0
M  V30 5 C -1.683139 -2.713390 -0.707918 0
M  V30 6 C -1.085431 -1.661415 -1.540550 0
M  V30 7 C -1.017535 -1.969223 -2.882488 0
M  V30 8 N -0.470251 -1.008077 -3.668170 0
M  V30 9 C -0.036317 0.153425 -3.127179 0
M  V30 10 S 0.685667 1.508305 -3.917406 0
M  V30 11 N 0.894412 2.516038 -2.351350 0
M  V30 12 C 0.360693 1.639411 -1.404020 0
M  V30 13 N 0.448174 2.273202 -0.135314 0
M  V30 14 C 1.657571 2.017717 0.563809 0
M  V30 15 O 2.573592 1.293628 0.103829 0
M  V30 16 C 1.842477 2.641617 1.907238 0
M  V30 17 C 0.791595 2.228430 2.885144 0
M  V30 18 C 1.277917 2.412754 4.287273 0
M  V30 19 C 2.342486 3.465518 4.443595 0
M  V30 20 C 3.526830 3.259688 3.552624 0
M  V30 21 C 3.183076 2.225948 2.498899 0
M  V30 22 C -0.123107 0.414550 -1.797884 0
M  V30 23 C -0.663038 -0.499558 -0.922753 0
M  V30 24 C -2.406656 -2.383188 0.424423 0
M  V30 25 C -2.974900 -3.368140 1.215428 0
M  V30 26 C -2.805604 -4.681634 0.852823 0
M  V30 27 N -3.390904 -5.713386 1.666561 0
M  V30 28 H -1.876540 -6.650733 -2.586278 0
M  V30 29 H -1.029288 -7.915727 -1.646464 0
M  V30 30 H -0.287007 -6.287745 -1.847324 0
M  V30 31 H -0.974269 -4.365237 -1.921645 0
M  V30 32 H -1.372948 -2.905774 -3.285389 0
M  V30 33 H -0.272835 2.890780 0.316874 0
M  V30 34 H 1.852659 3.730399 1.783118 0
M  V30 35 H 0.455393 1.178854 2.785588 0
M  V30 36 H -0.146693 2.836343 2.766681 0
M  V30 37 H 0.427272 2.730006 4.946931 0
M  V30 38 H 1.656186 1.479165 4.761759 0
M  V30 39 H 2.715861 3.368150 5.497322 0
M  V30 40 H 1.927741 4.510387 4.392331 0
M  V30 41 H 4.434807 2.924156 4.107022 0
M  V30 42 H 3.813337 4.221289 3.040619 0
M  V30 43 H 3.989997 2.163302 1.758244 0
M  V30 44 H 3.020897 1.251372 3.043050 0
M  V30 45 H -0.771192 -0.377066 0.146174 0
M  V30 46 H -2.545406 -1.352321 0.717359 0
M  V30 47 H -3.554813 -3.171196 2.116648 0
M  V30 48 H -2.718317 -5.861345 2.469292 0
M  V30 49 H -4.282517 -6.260714 1.571624 0
M  V30 END ATOM
M  V30 BEGIN BOND
M  V30 1 1 1 2
M  V30 2 1 2 3
M  V30 3 2 3 4
M  V30 4 1 4 5
M  V30 5 1 5 6
M  V30 6 2 6 7
M  V30 7 1 7 8
M  V30 8 2 8 9
M  V30 9 1 9 10
M  V30 10 1 10 11
M  V30 11 2 11 12
M  V30 12 1 12 13
M  V30 13 1 13 14
M  V30 14 2 14 15
M  V30 15 1 14 16
M  V30 16 1 16 17
M  V30 17 1 17 18
M  V30 18 1 18 19
M  V30 19 1 19 20
M  V30 20 1 20 21
M  V30 21 1 12 22
M  V30 22 2 22 23
M  V30 23 2 5 24
M  V30 24 1 24 25
M  V30 25 2 25 26
M  V30 26 1 26 27
M  V30 27 1 26 3
M  V30 28 1 23 6
M  V30 29 1 22 9
M  V30 30 1 21 16
M  V30 31 1 1 28
M  V30 32 1 1 29
M  V30 33 1 1 30
M  V30 34 1 4 31
M  V30 35 1 7 32
M  V30 36 1 13 33
M  V30 37 1 16 34
M  V30 38 1 17 35
M  V30 39 1 17 36
M  V30 40 1 18 37
M  V30 41 1 18 38
M  V30 42 1 19 39
M  V30 43 1 19 40
M  V30 44 1 20 41
M  V30 45 1 20 42
M  V30 46 1 21 43
M  V30 47 1 21 44
M  V30 48 1 23 45
M  V30 49 1 24 46
M  V30 50 1 25 47
M  V30 51 1 27 48
M  V30 52 1 27 49
M  V30 END BOND
M  V30 END CTAB
M  END
>  <Dataset>  (117) 
ChEMBL_Kinases

>  <Ligand_Instance>  (117) 
nan

>  <PDB_ID>  (117) 
nan

>  <Standardized_SMILES>  (117) 
COc1cc(-c2cnc3snc(NC(=O)C4CCCCC4)c3c2)ccc1N

>  <Name>  (117) 
nan

>  <Pocket>  (117) 
nan

>  <ATP_Site>  (117) 
nan

>  <Peripheral>  (117) 
nan

>  <Num_H_Atoms_ProtBoundConf>  (117) 
nan

>  <Num_Resolved_Atoms>  (117) 
nan

>  <Num_Not_Resolved_Atoms>  (117) 
nan

$$$$
CHEMBL3334948
     RDKit          3D

  0  0  0  0  0  0  0  0  0  0999 V3000
M  V30 BEGIN CTAB
M  V30 COUNTS 45 48 0 0 0
M  V30 BEGIN ATOM
M  V30 1 N -0.191189 -6.328505 -3.449162 0
M  V30 2 C 0.086352 -5.334747 -2.483419 0
M  V30 3 C 0.085428 -5.777145 -1.167928 0
M  V30 4 C 0.344445 -4.889802 -0.144168 0
M  V30 5 C 0.601783 -3.556585 -0.484045 0
M  V30 6 C 0.597639 -3.136301 -1.805623 0
M  V30 7 C 0.877296 -1.710512 -2.094766 0
M  V30 8 C 1.506053 -1.476624 -3.300539 0
M  V30 9 N 1.746946 -0.170615 -3.538191 0
M  V30 10 C 1.390946 0.807187 -2.650745 0
M  V30 11 S 1.610413 2.517027 -2.772640 0
M  V30 12 N 0.809883 2.864386 -1.118944 0
M  V30 13 C 0.477308 1.604637 -0.689770 0
M  V30 14 N -0.156510 1.676651 0.581349 0
M  V30 15 C 0.709265 1.606973 1.718493 0
M  V30 16 O 1.943194 1.488644 1.490201 0
M  V30 17 C 0.036777 1.684151 3.055034 0
M  V30 18 C 1.029340 1.603613 4.180071 0
M  V30 19 C 0.236471 1.154330 5.409703 0
M  V30 20 C -1.041830 1.974366 5.459268 0
M  V30 21 C -0.867569 3.277291 4.683195 0
M  V30 22 C -0.690843 3.013256 3.205327 0
M  V30 23 C 0.777810 0.522124 -1.485333 0
M  V30 24 C 0.488013 -0.782769 -1.150448 0
M  V30 25 C 0.337585 -4.026521 -2.835199 0
M  V30 26 H -0.886284 -7.102527 -3.453863 0
M  V30 27 H 0.241093 -6.519670 -4.392553 0
M  V30 28 H -0.112810 -6.804990 -0.906988 0
M  V30 29 H 0.349427 -5.210373 0.888541 0
M  V30 30 H 0.800245 -2.893308 0.350901 0
M  V30 31 H 1.770624 -2.278671 -3.973145 0
M  V30 32 H -1.207237 1.775966 0.679329 0
M  V30 33 H -0.678203 0.857885 3.165477 0
M  V30 34 H 1.464625 2.610617 4.345458 0
M  V30 35 H 1.856959 0.896906 3.975159 0
M  V30 36 H -0.081663 0.109792 5.224261 0
M  V30 37 H 0.801402 1.259101 6.335270 0
M  V30 38 H -1.920513 1.415244 5.083616 0
M  V30 39 H -1.217431 2.249467 6.507953 0
M  V30 40 H -0.007294 3.799250 5.130885 0
M  V30 41 H -1.778383 3.873072 4.869113 0
M  V30 42 H -1.631004 3.032227 2.646848 0
M  V30 43 H -0.009785 3.775677 2.739908 0
M  V30 44 H -0.000111 -1.107915 -0.241132 0
M  V30 45 H 0.330171 -3.715263 -3.866612 0
M  V30 END ATOM
M  V30 BEGIN BOND
M  V30 1 1 1 2
M  V30 2 2 2 3
M  V30 3 1 3 4
M  V30 4 2 4 5
M  V30 5 1 5 6
M  V30 6 1 6 7
M  V30 7 2 7 8
M  V30 8 1 8 9
M  V30 9 2 9 10
M  V30 10 1 10 11
M  V30 11 1 11 12
M  V30 12 2 12 13
M  V30 13 1 13 14
M  V30 14 1 14 15
M  V30 15 2 15 16
M  V30 16 1 15 17
M  V30 17 1 17 18
M  V30 18 1 18 19
M  V30 19 1 19 20
M  V30 20 1 20 21
M  V30 21 1 21 22
M  V30 22 1 13 23
M  V30 23 2 23 24
M  V30 24 2 6 25
M  V30 25 1 25 2
M  V30 26 1 24 7
M  V30 27 1 23 10
M  V30 28 1 22 17
M  V30 29 1 1 26
M  V30 30 1 1 27
M  V30 31 1 3 28
M  V30 32 1 4 29
M  V30 33 1 5 30
M  V30 34 1 8 31
M  V30 35 1 14 32
M  V30 36 1 17 33
M  V30 37 1 18 34
M  V30 38 1 18 35
M  V30 39 1 19 36
M  V30 40 1 19 37
M  V30 41 1 20 38
M  V30 42 1 20 39
M  V30 43 1 21 40
M  V30 44 1 21 41
M  V30 45 1 22 42
M  V30 46 1 22 43
M  V30 47 1 24 44
M  V30 48 1 25 45
M  V30 END BOND
M  V30 END CTAB
M  END
>  <Dataset>  (118) 
ChEMBL_Kinases

>  <Ligand_Instance>  (118) 
nan

>  <PDB_ID>  (118) 
nan

>  <Standardized_SMILES>  (118) 
Nc1cccc(-c2cnc3snc(NC(=O)C4CCCCC4)c3c2)c1

>  <Name>  (118) 
nan

>  <Pocket>  (118) 
nan

>  <ATP_Site>  (118) 
nan

>  <Peripheral>  (118) 
nan

>  <Num_H_Atoms_ProtBoundConf>  (118) 
nan

>  <Num_Resolved_Atoms>  (118) 
nan

>  <Num_Not_Resolved_Atoms>  (118) 
nan

$$$$
CHEMBL3334949
     RDKit          3D

  0  0  0  0  0  0  0  0  0  0999 V3000
M  V30 BEGIN CTAB
M  V30 COUNTS 44 47 0 0 0
M  V30 BEGIN ATOM
M  V30 1 O 1.608002 -2.748681 1.955336 0
M  V30 2 C 0.371985 -2.958363 1.846944 0
M  V30 3 N -0.120631 -3.224861 0.550432 0
M  V30 4 C 0.905484 -3.209128 -0.450552 0
M  V30 5 N 1.382992 -4.409204 -0.559981 0
M  V30 6 S 2.678876 -4.155792 -1.893823 0
M  V30 7 C 2.335897 -2.433962 -2.069127 0
M  V30 8 N 2.903318 -1.501863 -2.895694 0
M  V30 9 C 2.491916 -0.222193 -2.874098 0
M  V30 10 C 1.483900 0.040404 -1.972528 0
M  V30 11 C 1.022853 1.447485 -1.940283 0
M  V30 12 C 1.908447 2.480553 -2.204458 0
M  V30 13 C 1.416690 3.763045 -2.158036 0
M  V30 14 C 0.110773 4.084654 -1.867976 0
M  V30 15 O -0.389411 5.379253 -1.819782 0
M  V30 16 C -0.758962 3.046940 -1.607298 0
M  V30 17 C -0.314027 1.725296 -1.640676 0
M  V30 18 C 0.859722 -0.832793 -1.108209 0
M  V30 19 C 1.328288 -2.123224 -1.182089 0
M  V30 20 C -0.486520 -2.916886 3.052995 0
M  V30 21 C 0.436427 -2.596105 4.210412 0
M  V30 22 C -0.169127 -1.580642 5.155640 0
M  V30 23 C -0.438486 -0.247373 4.493139 0
M  V30 24 C -0.774843 -0.519698 3.044719 0
M  V30 25 C -1.526815 -1.833010 2.991318 0
M  V30 26 H -1.143418 -3.405705 0.416735 0
M  V30 27 H 2.906382 0.542282 -3.502400 0
M  V30 28 H 2.952967 2.290606 -2.440623 0
M  V30 29 H 2.095859 4.582876 -2.362311 0
M  V30 30 H -0.985878 5.740831 -1.075220 0
M  V30 31 H -1.810316 3.224652 -1.369330 0
M  V30 32 H -1.027152 0.949861 -1.430713 0
M  V30 33 H 0.075477 -0.502273 -0.444016 0
M  V30 34 H -0.974223 -3.894468 3.237981 0
M  V30 35 H 0.586798 -3.521030 4.821697 0
M  V30 36 H 1.457841 -2.292129 3.884640 0
M  V30 37 H -1.111135 -1.997926 5.556144 0
M  V30 38 H 0.577370 -1.396751 5.957401 0
M  V30 39 H -1.311066 0.238615 5.008033 0
M  V30 40 H 0.437307 0.444342 4.587410 0
M  V30 41 H -1.405220 0.267494 2.586544 0
M  V30 42 H 0.170255 -0.563583 2.464039 0
M  V30 43 H -2.150597 -1.882607 2.077817 0
M  V30 44 H -2.210115 -1.949758 3.847435 0
M  V30 END ATOM
M  V30 BEGIN BOND
M  V30 1 2 1 2
M  V30 2 1 2 3
M  V30 3 1 3 4
M  V30 4 2 4 5
M  V30 5 1 5 6
M  V30 6 1 6 7
M  V30 7 2 7 8
M  V30 8 1 8 9
M  V30 9 2 9 10
M  V30 10 1 10 11
M  V30 11 2 11 12
M  V30 12 1 12 13
M  V30 13 2 13 14
M  V30 14 1 14 15
M  V30 15 1 14 16
M  V30 16 2 16 17
M  V30 17 1 10 18
M  V30 18 2 18 19
M  V30 19 1 2 20
M  V30 20 1 20 21
M  V30 21 1 21 22
M  V30 22 1 22 23
M  V30 23 1 23 24
M  V30 24 1 24 25
M  V30 25 1 19 4
M  V30 26 1 25 20
M  V30 27 1 19 7
M  V30 28 1 17 11
M  V30 29 1 3 26
M  V30 30 1 9 27
M  V30 31 1 12 28
M  V30 32 1 13 29
M  V30 33 1 15 30
M  V30 34 1 16 31
M  V30 35 1 17 32
M  V30 36 1 18 33
M  V30 37 1 20 34
M  V30 38 1 21 35
M  V30 39 1 21 36
M  V30 40 1 22 37
M  V30 41 1 22 38
M  V30 42 1 23 39
M  V30 43 1 23 40
M  V30 44 1 24 41
M  V30 45 1 24 42
M  V30 46 1 25 43
M  V30 47 1 25 44
M  V30 END BOND
M  V30 END CTAB
M  END
>  <Dataset>  (119) 
ChEMBL_Kinases

>  <Ligand_Instance>  (119) 
nan

>  <PDB_ID>  (119) 
nan

>  <Standardized_SMILES>  (119) 
O=C(Nc1nsc2ncc(-c3ccc(O)cc3)cc12)C1CCCCC1

>  <Name>  (119) 
nan

>  <Pocket>  (119) 
nan

>  <ATP_Site>  (119) 
nan

>  <Peripheral>  (119) 
nan

>  <Num_H_Atoms_ProtBoundConf>  (119) 
nan

>  <Num_Resolved_Atoms>  (119) 
nan

>  <Num_Not_Resolved_Atoms>  (119) 
nan

$$$$
CHEMBL3334955
     RDKit          3D

  0  0  0  0  0  0  0  0  0  0999 V3000
M  V30 BEGIN CTAB
M  V30 COUNTS 51 54 0 0 0
M  V30 BEGIN ATOM
M  V30 1 C -0.275198 -6.905353 1.529448 0
M  V30 2 O 0.972899 -6.231544 1.627321 0
M  V30 3 C 1.195098 -4.973588 1.153544 0
M  V30 4 C 0.188244 -4.215726 0.547368 0
M  V30 5 C 0.590969 -2.948714 0.120294 0
M  V30 6 C 1.870430 -2.472307 0.276644 0
M  V30 7 C 2.302522 -1.144835 -0.144931 0
M  V30 8 C 3.597290 -0.951562 -0.571015 0
M  V30 9 N 3.960280 0.280939 -0.930300 0
M  V30 10 C 3.150651 1.349035 -0.906083 0
M  V30 11 S 3.396568 3.022602 -1.306886 0
M  V30 12 N 1.635171 3.531490 -0.874496 0
M  V30 13 C 1.164351 2.256991 -0.483457 0
M  V30 14 N -0.109280 2.731696 -0.184048 0
M  V30 15 C -1.286502 3.230337 0.083631 0
M  V30 16 O -0.645706 4.355812 -0.271384 0
M  V30 17 C -2.598241 3.712957 0.392649 0
M  V30 18 C -3.004014 3.479748 1.848468 0
M  V30 19 C -2.917882 2.022484 2.249039 0
M  V30 20 C -3.223560 1.079553 1.149410 0
M  V30 21 C -3.831368 1.606908 -0.089411 0
M  V30 22 C -3.707293 3.038763 -0.404644 0
M  V30 23 C 1.843418 1.083081 -0.461244 0
M  V30 24 C 1.377091 -0.131498 -0.075803 0
M  V30 25 C 2.851090 -3.260065 0.887312 0
M  V30 26 C 2.489039 -4.540626 1.331566 0
M  V30 27 O 3.447047 -5.336348 1.939587 0
M  V30 28 C 4.780435 -5.008915 2.164286 0
M  V30 29 H -0.233365 -7.916144 1.939972 0
M  V30 30 H -0.487227 -6.957559 0.434588 0
M  V30 31 H -1.035828 -6.234615 1.999483 0
M  V30 32 H -0.811552 -4.600912 0.437495 0
M  V30 33 H -0.147494 -2.325922 -0.352714 0
M  V30 34 H 4.330174 -1.754344 -0.629852 0
M  V30 35 H -0.612326 1.777200 0.104999 0
M  V30 36 H -2.691436 4.818021 0.272282 0
M  V30 37 H -2.474352 4.159908 2.526535 0
M  V30 38 H -4.080422 3.743654 1.878640 0
M  V30 39 H -3.562714 1.838921 3.159001 0
M  V30 40 H -1.884673 1.840533 2.607816 0
M  V30 41 H -2.336684 0.395434 0.952606 0
M  V30 42 H -3.976323 0.337929 1.576987 0
M  V30 43 H -3.391222 1.036804 -0.964984 0
M  V30 44 H -4.932615 1.319094 -0.171533 0
M  V30 45 H -3.641953 3.235423 -1.484428 0
M  V30 46 H -4.643378 3.543131 -0.023593 0
M  V30 47 H 0.349732 -0.253060 0.252034 0
M  V30 48 H 3.847981 -2.881762 1.003206 0
M  V30 49 H 5.171969 -4.349821 1.363601 0
M  V30 50 H 4.922206 -4.569219 3.170548 0
M  V30 51 H 5.355657 -5.990716 2.075106 0
M  V30 END ATOM
M  V30 BEGIN BOND
M  V30 1 1 1 2
M  V30 2 1 2 3
M  V30 3 2 3 4
M  V30 4 1 4 5
M  V30 5 2 5 6
M  V30 6 1 6 7
M  V30 7 2 7 8
M  V30 8 1 8 9
M  V30 9 2 9 10
M  V30 10 1 10 11
M  V30 11 1 11 12
M  V30 12 2 12 13
M  V30 13 1 13 14
M  V30 14 1 14 15
M  V30 15 2 15 16
M  V30 16 1 15 17
M  V30 17 1 17 18
M  V30 18 1 18 19
M  V30 19 1 19 20
M  V30 20 1 20 21
M  V30 21 1 21 22
M  V30 22 1 13 23
M  V30 23 2 23 24
M  V30 24 1 6 25
M  V30 25 2 25 26
M  V30 26 1 26 27
M  V30 27 1 27 28
M  V30 28 1 26 3
M  V30 29 1 24 7
M  V30 30 1 23 10
M  V30 31 1 22 17
M  V30 32 1 1 29
M  V30 33 1 1 30
M  V30 34 1 1 31
M  V30 35 1 4 32
M  V30 36 1 5 33
M  V30 37 1 8 34
M  V30 38 1 14 35
M  V30 39 1 17 36
M  V30 40 1 18 37
M  V30 41 1 18 38
M  V30 42 1 19 39
M  V30 43 1 19 40
M  V30 44 1 20 41
M  V30 45 1 20 42
M  V30 46 1 21 43
M  V30 47 1 21 44
M  V30 48 1 22 45
M  V30 49 1 22 46
M  V30 50 1 24 47
M  V30 51 1 25 48
M  V30 52 1 28 49
M  V30 53 1 28 50
M  V30 54 1 28 51
M  V30 END BOND
M  V30 END CTAB
M  END
>  <Dataset>  (120) 
ChEMBL_Kinases

>  <Ligand_Instance>  (120) 
nan

>  <PDB_ID>  (120) 
nan

>  <Standardized_SMILES>  (120) 
COc1ccc(-c2cnc3snc(NC(=O)C4CCCCC4)c3c2)cc1OC

>  <Name>  (120) 
nan

>  <Pocket>  (120) 
nan

>  <ATP_Site>  (120) 
nan

>  <Peripheral>  (120) 
nan

>  <Num_H_Atoms_ProtBoundConf>  (120) 
nan

>  <Num_Resolved_Atoms>  (120) 
nan

>  <Num_Not_Resolved_Atoms>  (120) 
nan

$$$$
CHEMBL3334958
     RDKit          3D

  0  0  0  0  0  0  0  0  0  0999 V3000
M  V30 BEGIN CTAB
M  V30 COUNTS 40 43 0 0 0
M  V30 BEGIN ATOM
M  V30 1 O 0.986001 -1.805216 2.730390 0
M  V30 2 C 0.264200 -2.408380 1.864321 0
M  V30 3 N 1.095994 -2.532375 0.694930 0
M  V30 4 C 2.429386 -2.031751 0.671194 0
M  V30 5 N 3.237818 -3.038619 1.097469 0
M  V30 6 S 4.894236 -2.173836 0.986316 0
M  V30 7 C 4.267616 -0.678053 0.415350 0
M  V30 8 N 4.909812 0.481298 0.095151 0
M  V30 9 C 4.187931 1.554851 -0.344141 0
M  V30 10 C 2.820627 1.395820 -0.438960 0
M  V30 11 C 2.085501 2.543434 -0.904550 0
M  V30 12 C 0.744815 2.686484 -1.098097 0
M  V30 13 C 0.194552 3.851418 -1.549444 0
M  V30 14 C 1.275059 4.917493 -1.790631 0
M  V30 15 S 2.828647 4.081904 -1.341156 0
M  V30 16 C 2.128199 0.246285 -0.127512 0
M  V30 17 C 2.913486 -0.796769 0.308400 0
M  V30 18 C -1.079408 -3.020017 1.604734 0
M  V30 19 C -1.818093 -2.396206 0.483198 0
M  V30 20 C -2.963739 -1.517352 0.912152 0
M  V30 21 C -2.479709 -0.827323 2.186335 0
M  V30 22 C -2.614414 -1.872077 3.271683 0
M  V30 23 C -1.789575 -3.043518 2.913462 0
M  V30 24 H 0.844417 -2.980479 -0.236482 0
M  V30 25 H 4.740265 2.444079 -0.583248 0
M  V30 26 H 0.086302 1.857444 -0.890820 0
M  V30 27 H -0.842871 4.062285 -1.732893 0
M  V30 28 H 0.804619 5.946497 -2.187620 0
M  V30 29 H 1.042570 0.195177 -0.228072 0
M  V30 30 H -0.861173 -4.094007 1.332837 0
M  V30 31 H -1.105304 -1.738071 -0.069258 0
M  V30 32 H -2.148481 -3.165396 -0.242195 0
M  V30 33 H -3.101165 -0.731826 0.149773 0
M  V30 34 H -3.915825 -2.060457 1.071432 0
M  V30 35 H -1.400935 -0.613208 2.064926 0
M  V30 36 H -3.073348 0.080694 2.400575 0
M  V30 37 H -2.207311 -1.398579 4.198234 0
M  V30 38 H -3.698619 -2.095920 3.375252 0
M  V30 39 H -2.452060 -3.959761 2.926493 0
M  V30 40 H -1.026543 -3.214410 3.716299 0
M  V30 END ATOM
M  V30 BEGIN BOND
M  V30 1 2 1 2
M  V30 2 1 2 3
M  V30 3 1 3 4
M  V30 4 2 4 5
M  V30 5 1 5 6
M  V30 6 1 6 7
M  V30 7 2 7 8
M  V30 8 1 8 9
M  V30 9 2 9 10
M  V30 10 1 10 11
M  V30 11 2 11 12
M  V30 12 1 12 13
M  V30 13 2 13 14
M  V30 14 1 14 15
M  V30 15 1 10 16
M  V30 16 2 16 17
M  V30 17 1 2 18
M  V30 18 1 18 19
M  V30 19 1 19 20
M  V30 20 1 20 21
M  V30 21 1 21 22
M  V30 22 1 22 23
M  V30 23 1 17 4
M  V30 24 1 23 18
M  V30 25 1 17 7
M  V30 26 1 15 11
M  V30 27 1 3 24
M  V30 28 1 9 25
M  V30 29 1 12 26
M  V30 30 1 13 27
M  V30 31 1 14 28
M  V30 32 1 16 29
M  V30 33 1 18 30
M  V30 34 1 19 31
M  V30 35 1 19 32
M  V30 36 1 20 33
M  V30 37 1 20 34
M  V30 38 1 21 35
M  V30 39 1 21 36
M  V30 40 1 22 37
M  V30 41 1 22 38
M  V30 42 1 23 39
M  V30 43 1 23 40
M  V30 END BOND
M  V30 END CTAB
M  END
>  <Dataset>  (121) 
ChEMBL_Kinases

>  <Ligand_Instance>  (121) 
nan

>  <PDB_ID>  (121) 
nan

>  <Standardized_SMILES>  (121) 
O=C(Nc1nsc2ncc(-c3cccs3)cc12)C1CCCCC1

>  <Name>  (121) 
nan

>  <Pocket>  (121) 
nan

>  <ATP_Site>  (121) 
nan

>  <Peripheral>  (121) 
nan

>  <Num_H_Atoms_ProtBoundConf>  (121) 
nan

>  <Num_Resolved_Atoms>  (121) 
nan

>  <Num_Not_Resolved_Atoms>  (121) 
nan

$$$$
CHEMBL3334959
     RDKit          3D

  0  0  0  0  0  0  0  0  0  0999 V3000
M  V30 BEGIN CTAB
M  V30 COUNTS 40 43 0 0 0
M  V30 BEGIN ATOM
M  V30 1 O 0.585399 -1.689270 2.610383 0
M  V30 2 C 0.090098 -2.347896 1.636482 0
M  V30 3 N 1.060327 -2.613428 0.632388 0
M  V30 4 C 2.317962 -2.081078 0.970153 0
M  V30 5 N 3.160093 -3.015491 1.725221 0
M  V30 6 S 4.625240 -2.182482 2.031351 0
M  V30 7 C 4.154419 -0.589610 1.170708 0
M  V30 8 N 4.782036 0.587881 0.967001 0
M  V30 9 C 4.181035 1.578926 0.296887 0
M  V30 10 C 2.910912 1.321878 -0.159064 0
M  V30 11 C 2.249352 2.401840 -0.880957 0
M  V30 12 C 1.354619 2.158406 -1.885460 0
M  V30 13 C 0.714579 3.205199 -2.570369 0
M  V30 14 S 1.443634 4.735318 -1.714997 0
M  V30 15 C 2.491443 3.771308 -0.573230 0
M  V30 16 C 2.225675 0.145407 0.018651 0
M  V30 17 C 2.851562 -0.855315 0.703771 0
M  V30 18 C -1.332393 -2.811024 1.513203 0
M  V30 19 C -2.043144 -2.277736 0.337714 0
M  V30 20 C -2.890425 -1.060131 0.563723 0
M  V30 21 C -2.720235 -0.480521 1.951092 0
M  V30 22 C -3.118978 -1.633686 2.850709 0
M  V30 23 C -1.950641 -2.578699 2.846063 0
M  V30 24 H 0.798319 -3.148359 -0.230880 0
M  V30 25 H 4.774908 2.468778 0.195785 0
M  V30 26 H 1.066318 1.178357 -2.233970 0
M  V30 27 H 0.009916 3.224037 -3.355712 0
M  V30 28 H 3.201913 4.093358 0.228459 0
M  V30 29 H 1.229185 0.055459 -0.385006 0
M  V30 30 H -1.220153 -3.914168 1.402226 0
M  V30 31 H -1.391469 -2.025587 -0.526121 0
M  V30 32 H -2.736473 -3.053426 -0.061397 0
M  V30 33 H -2.674996 -0.216990 -0.146138 0
M  V30 34 H -3.980006 -1.242072 0.441801 0
M  V30 35 H -1.670092 -0.192771 2.086538 0
M  V30 36 H -3.427801 0.360484 2.028859 0
M  V30 37 H -4.038155 -2.100643 2.420408 0
M  V30 38 H -3.277432 -1.282630 3.873680 0
M  V30 39 H -2.360376 -3.527997 3.305812 0
M  V30 40 H -1.242696 -2.214071 3.620064 0
M  V30 END ATOM
M  V30 BEGIN BOND
M  V30 1 2 1 2
M  V30 2 1 2 3
M  V30 3 1 3 4
M  V30 4 2 4 5
M  V30 5 1 5 6
M  V30 6 1 6 7
M  V30 7 2 7 8
M  V30 8 1 8 9
M  V30 9 2 9 10
M  V30 10 1 10 11
M  V30 11 1 11 12
M  V30 12 2 12 13
M  V30 13 1 13 14
M  V30 14 1 14 15
M  V30 15 1 10 16
M  V30 16 2 16 17
M  V30 17 1 2 18
M  V30 18 1 18 19
M  V30 19 1 19 20
M  V30 20 1 20 21
M  V30 21 1 21 22
M  V30 22 1 22 23
M  V30 23 1 17 4
M  V30 24 1 23 18
M  V30 25 1 17 7
M  V30 26 2 15 11
M  V30 27 1 3 24
M  V30 28 1 9 25
M  V30 29 1 12 26
M  V30 30 1 13 27
M  V30 31 1 15 28
M  V30 32 1 16 29
M  V30 33 1 18 30
M  V30 34 1 19 31
M  V30 35 1 19 32
M  V30 36 1 20 33
M  V30 37 1 20 34
M  V30 38 1 21 35
M  V30 39 1 21 36
M  V30 40 1 22 37
M  V30 41 1 22 38
M  V30 42 1 23 39
M  V30 43 1 23 40
M  V30 END BOND
M  V30 END CTAB
M  END
>  <Dataset>  (122) 
ChEMBL_Kinases

>  <Ligand_Instance>  (122) 
nan

>  <PDB_ID>  (122) 
nan

>  <Standardized_SMILES>  (122) 
O=C(Nc1nsc2ncc(-c3ccsc3)cc12)C1CCCCC1

>  <Name>  (122) 
nan

>  <Pocket>  (122) 
nan

>  <ATP_Site>  (122) 
nan

>  <Peripheral>  (122) 
nan

>  <Num_H_Atoms_ProtBoundConf>  (122) 
nan

>  <Num_Resolved_Atoms>  (122) 
nan

>  <Num_Not_Resolved_Atoms>  (122) 
nan

$$$$
CHEMBL3334961
     RDKit          3D

  0  0  0  0  0  0  0  0  0  0999 V3000
M  V30 BEGIN CTAB
M  V30 COUNTS 45 48 0 0 0
M  V30 BEGIN ATOM
M  V30 1 C 1.008021 -5.985650 2.753516 0
M  V30 2 O 0.649371 -5.673539 1.433104 0
M  V30 3 C 0.816220 -4.411356 0.864489 0
M  V30 4 C 1.365958 -3.401327 1.637111 0
M  V30 5 C 1.503845 -2.174251 1.012488 0
M  V30 6 C 1.111453 -1.983331 -0.305524 0
M  V30 7 C 1.273998 -0.652929 -0.937907 0
M  V30 8 C 1.515475 -0.659842 -2.294819 0
M  V30 9 N 1.660709 0.549389 -2.868152 0
M  V30 10 C 1.573293 1.696904 -2.147774 0
M  V30 11 S 1.712755 3.323268 -2.609009 0
M  V30 12 N 1.438305 4.059804 -0.922631 0
M  V30 13 C 1.277444 2.861718 -0.256510 0
M  V30 14 N 1.047475 3.266699 1.112475 0
M  V30 15 C -0.351341 3.462664 1.391274 0
M  V30 16 O -1.105735 3.241703 0.382659 0
M  V30 17 C -0.944663 3.878667 2.690371 0
M  V30 18 C -0.657981 2.933290 3.834207 0
M  V30 19 C -2.142274 2.889837 4.112676 0
M  V30 20 C -2.393424 3.437644 2.747201 0
M  V30 21 C 1.330845 1.610001 -0.803889 0
M  V30 22 C 1.164724 0.443753 -0.104698 0
M  V30 23 C 0.567784 -3.015141 -1.041982 0
M  V30 24 C 0.416956 -4.249792 -0.449075 0
M  V30 25 O -0.124511 -5.330221 -1.138134 0
M  V30 26 C -0.512712 -5.098640 -2.477557 0
M  V30 27 H 2.079787 -6.191268 2.863375 0
M  V30 28 H 0.447298 -6.926525 3.017646 0
M  V30 29 H 0.669845 -5.239275 3.497507 0
M  V30 30 H 1.653448 -3.608739 2.659502 0
M  V30 31 H 1.934019 -1.354313 1.592241 0
M  V30 32 H 1.580673 -1.588122 -2.844418 0
M  V30 33 H 1.685576 3.441428 1.923059 0
M  V30 34 H -0.789608 4.933123 2.979053 0
M  V30 35 H -0.037341 3.367469 4.651697 0
M  V30 36 H -0.257146 1.943376 3.532371 0
M  V30 37 H -2.494507 1.854174 4.291626 0
M  V30 38 H -2.494162 3.611027 4.901189 0
M  V30 39 H -2.671139 2.689497 1.956787 0
M  V30 40 H -3.113373 4.306821 2.748009 0
M  V30 41 H 0.972897 0.350207 0.953705 0
M  V30 42 H 0.246701 -2.917587 -2.069808 0
M  V30 43 H -1.274430 -4.274117 -2.539822 0
M  V30 44 H 0.371568 -4.761404 -3.049180 0
M  V30 45 H -0.883267 -6.028099 -2.958302 0
M  V30 END ATOM
M  V30 BEGIN BOND
M  V30 1 1 1 2
M  V30 2 1 2 3
M  V30 3 2 3 4
M  V30 4 1 4 5
M  V30 5 2 5 6
M  V30 6 1 6 7
M  V30 7 2 7 8
M  V30 8 1 8 9
M  V30 9 2 9 10
M  V30 10 1 10 11
M  V30 11 1 11 12
M  V30 12 2 12 13
M  V30 13 1 13 14
M  V30 14 1 14 15
M  V30 15 2 15 16
M  V30 16 1 15 17
M  V30 17 1 17 18
M  V30 18 1 18 19
M  V30 19 1 19 20
M  V30 20 1 13 21
M  V30 21 2 21 22
M  V30 22 1 6 23
M  V30 23 2 23 24
M  V30 24 1 24 25
M  V30 25 1 25 26
M  V30 26 1 24 3
M  V30 27 1 22 7
M  V30 28 1 21 10
M  V30 29 1 20 17
M  V30 30 1 1 27
M  V30 31 1 1 28
M  V30 32 1 1 29
M  V30 33 1 4 30
M  V30 34 1 5 31
M  V30 35 1 8 32
M  V30 36 1 14 33
M  V30 37 1 17 34
M  V30 38 1 18 35
M  V30 39 1 18 36
M  V30 40 1 19 37
M  V30 41 1 19 38
M  V30 42 1 20 39
M  V30 43 1 20 40
M  V30 44 1 22 41
M  V30 45 1 23 42
M  V30 46 1 26 43
M  V30 47 1 26 44
M  V30 48 1 26 45
M  V30 END BOND
M  V30 END CTAB
M  END
>  <Dataset>  (123) 
ChEMBL_Kinases

>  <Ligand_Instance>  (123) 
nan

>  <PDB_ID>  (123) 
nan

>  <Standardized_SMILES>  (123) 
COc1ccc(-c2cnc3snc(NC(=O)C4CCC4)c3c2)cc1OC

>  <Name>  (123) 
nan

>  <Pocket>  (123) 
nan

>  <ATP_Site>  (123) 
nan

>  <Peripheral>  (123) 
nan

>  <Num_H_Atoms_ProtBoundConf>  (123) 
nan

>  <Num_Resolved_Atoms>  (123) 
nan

>  <Num_Not_Resolved_Atoms>  (123) 
nan

$$$$
CHEMBL3335330
     RDKit          3D

  0  0  0  0  0  0  0  0  0  0999 V3000
M  V30 BEGIN CTAB
M  V30 COUNTS 52 55 0 0 0
M  V30 BEGIN ATOM
M  V30 1 C -2.401062 0.456479 -0.841103 0
M  V30 2 O -1.792897 -0.500471 -0.031434 0
M  V30 3 C -0.446966 -0.585590 0.222470 0
M  V30 4 C 0.341205 0.358889 -0.380456 0
M  V30 5 C 1.732589 0.401341 -0.216178 0
M  V30 6 C 2.783025 1.259913 -0.702508 0
M  V30 7 C 3.075779 2.526809 -0.559555 0
M  V30 8 C 4.176483 3.292263 -1.118213 0
M  V30 9 O 5.021005 2.818218 -1.889269 0
M  V30 10 N 4.029381 4.602628 -0.587873 0
M  V30 11 C 2.885340 4.620043 0.256877 0
M  V30 12 C 2.353111 5.651126 0.999591 0
M  V30 13 C 1.234642 5.456155 1.780164 0
M  V30 14 C 0.623003 4.194855 1.825851 0
M  V30 15 Cl -0.771658 4.133199 2.860238 0
M  V30 16 C 1.194079 3.202346 1.065549 0
M  V30 17 C 2.289501 3.379291 0.293968 0
M  V30 18 C 2.239803 -0.591654 0.605953 0
M  V30 19 C 1.465984 -1.556636 1.226354 0
M  V30 20 C 0.103825 -1.551314 1.030366 0
M  V30 21 O -0.798610 -2.438683 1.574672 0
M  V30 22 C -0.474982 -3.498011 2.423217 0
M  V30 23 C -1.712100 -4.244556 2.814798 0
M  V30 24 N -2.452853 -4.821226 1.743804 0
M  V30 25 C -3.094647 -3.930493 0.862043 0
M  V30 26 C -2.684102 -4.081140 -0.585213 0
M  V30 27 O -2.958819 -5.432578 -0.898560 0
M  V30 28 C -2.006284 -6.184554 -0.260413 0
M  V30 29 C -2.002628 -6.053383 1.229228 0
M  V30 30 H -2.008790 1.469946 -0.692468 0
M  V30 31 H -2.164003 0.159080 -1.903582 0
M  V30 32 H -3.501073 0.374586 -0.743918 0
M  V30 33 H 0.049163 1.186958 -1.048132 0
M  V30 34 H 3.491278 0.716781 -1.342776 0
M  V30 35 H 4.674281 5.417440 -0.798320 0
M  V30 36 H 2.834620 6.617228 0.955084 0
M  V30 37 H 0.889727 6.317940 2.324996 0
M  V30 38 H 0.620383 2.332674 1.243610 0
M  V30 39 H 3.300514 -0.741847 0.868744 0
M  V30 40 H 1.829793 -2.342648 1.871968 0
M  V30 41 H 0.315395 -4.153473 1.997376 0
M  V30 42 H -0.047452 -3.065964 3.351901 0
M  V30 43 H -2.392392 -3.480870 3.294119 0
M  V30 44 H -1.496624 -4.974523 3.624648 0
M  V30 45 H -4.193811 -4.193314 0.870762 0
M  V30 46 H -3.061718 -2.893029 1.229761 0
M  V30 47 H -1.631111 -3.837230 -0.740898 0
M  V30 48 H -3.318714 -3.404081 -1.183074 0
M  V30 49 H -2.147262 -7.253056 -0.533511 0
M  V30 50 H -0.998475 -5.902153 -0.656578 0
M  V30 51 H -0.978438 -6.273280 1.593563 0
M  V30 52 H -2.652094 -6.856976 1.656044 0
M  V30 END ATOM
M  V30 BEGIN BOND
M  V30 1 1 1 2
M  V30 2 1 2 3
M  V30 3 2 3 4
M  V30 4 1 4 5
M  V30 5 1 5 6
M  V30 6 2 6 7
M  V30 7 1 7 8
M  V30 8 2 8 9
M  V30 9 1 8 10
M  V30 10 1 10 11
M  V30 11 2 11 12
M  V30 12 1 12 13
M  V30 13 2 13 14
M  V30 14 1 14 15
M  V30 15 1 14 16
M  V30 16 2 16 17
M  V30 17 2 5 18
M  V30 18 1 18 19
M  V30 19 2 19 20
M  V30 20 1 20 21
M  V30 21 1 21 22
M  V30 22 1 22 23
M  V30 23 1 23 24
M  V30 24 1 24 25
M  V30 25 1 25 26
M  V30 26 1 26 27
M  V30 27 1 27 28
M  V30 28 1 28 29
M  V30 29 1 20 3
M  V30 30 1 29 24
M  V30 31 1 17 7
M  V30 32 1 17 11
M  V30 33 1 1 30
M  V30 34 1 1 31
M  V30 35 1 1 32
M  V30 36 1 4 33
M  V30 37 1 6 34
M  V30 38 1 10 35
M  V30 39 1 12 36
M  V30 40 1 13 37
M  V30 41 1 16 38
M  V30 42 1 18 39
M  V30 43 1 19 40
M  V30 44 1 22 41
M  V30 45 1 22 42
M  V30 46 1 23 43
M  V30 47 1 23 44
M  V30 48 1 25 45
M  V30 49 1 25 46
M  V30 50 1 26 47
M  V30 51 1 26 48
M  V30 52 1 28 49
M  V30 53 1 28 50
M  V30 54 1 29 51
M  V30 55 1 29 52
M  V30 END BOND
M  V30 END CTAB
M  END
>  <Dataset>  (124) 
ChEMBL_Kinases

>  <Ligand_Instance>  (124) 
nan

>  <PDB_ID>  (124) 
nan

>  <Standardized_SMILES>  (124) 
COc1cc(/C=C2/C(=O)Nc3ccc(Cl)cc32)ccc1OCCN1CCOCC1

>  <Name>  (124) 
nan

>  <Pocket>  (124) 
nan

>  <ATP_Site>  (124) 
nan

>  <Peripheral>  (124) 
nan

>  <Num_H_Atoms_ProtBoundConf>  (124) 
nan

>  <Num_Resolved_Atoms>  (124) 
nan

>  <Num_Not_Resolved_Atoms>  (124) 
nan

$$$$
CHEMBL3334963
     RDKit          3D

  0  0  0  0  0  0  0  0  0  0999 V3000
M  V30 BEGIN CTAB
M  V30 COUNTS 54 57 0 0 0
M  V30 BEGIN ATOM
M  V30 1 C 1.211073 -7.030186 0.567595 0
M  V30 2 O 1.440854 -6.065943 1.557122 0
M  V30 3 C 0.878419 -4.820354 1.631149 0
M  V30 4 C -0.018422 -4.367773 0.677984 0
M  V30 5 C -0.552116 -3.099969 0.809016 0
M  V30 6 C -0.177872 -2.311007 1.893055 0
M  V30 7 C -0.707135 -0.935925 2.088683 0
M  V30 8 C -0.860842 -0.496686 3.384180 0
M  V30 9 N -1.328983 0.743355 3.438211 0
M  V30 10 C -1.615331 1.474792 2.331753 0
M  V30 11 S -2.220678 3.088796 2.278603 0
M  V30 12 N -2.263253 3.165915 0.419073 0
M  V30 13 C -1.813577 1.957504 0.108078 0
M  V30 14 N -1.710013 1.686610 -1.310426 0
M  V30 15 C -2.034317 2.648308 -2.284748 0
M  V30 16 O -2.435454 3.800521 -1.983839 0
M  V30 17 C -1.893301 2.283108 -3.741617 0
M  V30 18 C -0.522805 1.842283 -4.068217 0
M  V30 19 C -0.032860 2.382082 -5.354653 0
M  V30 20 C 0.393852 3.823691 -5.326600 0
M  V30 21 C -0.321908 4.640605 -4.305160 0
M  V30 22 C -1.821770 4.680154 -4.542680 0
M  V30 23 C -2.458925 3.338709 -4.621273 0
M  V30 24 C -1.457222 1.024246 1.046570 0
M  V30 25 C -0.974841 -0.255752 0.924364 0
M  V30 26 C 0.720836 -2.782018 2.836872 0
M  V30 27 C 1.270910 -4.050248 2.726895 0
M  V30 28 O 2.181903 -4.554634 3.663645 0
M  V30 29 C 2.557001 -3.744766 4.756336 0
M  V30 30 H 0.523659 -7.825848 0.918748 0
M  V30 31 H 2.202502 -7.523096 0.372002 0
M  V30 32 H 0.899070 -6.603679 -0.409707 0
M  V30 33 H -0.305059 -4.983656 -0.159340 0
M  V30 34 H -1.259670 -2.702303 0.078813 0
M  V30 35 H -0.627884 -1.088749 4.239674 0
M  V30 36 H -1.383311 0.743895 -1.681787 0
M  V30 37 H -2.591440 1.398219 -3.843040 0
M  V30 38 H -0.520466 0.711820 -4.176918 0
M  V30 39 H 0.211560 2.014190 -3.241612 0
M  V30 40 H 0.853883 1.751017 -5.663556 0
M  V30 41 H -0.800566 2.261133 -6.136734 0
M  V30 42 H 0.273232 4.307284 -6.312119 0
M  V30 43 H 1.477185 3.862445 -5.073258 0
M  V30 44 H 0.035155 5.700086 -4.460342 0
M  V30 45 H -0.082061 4.399940 -3.250357 0
M  V30 46 H -2.023004 5.200392 -5.526955 0
M  V30 47 H -2.339909 5.310499 -3.799450 0
M  V30 48 H -2.588224 2.981252 -5.663091 0
M  V30 49 H -3.530397 3.488308 -4.270100 0
M  V30 50 H -0.815011 -0.708059 -0.046107 0
M  V30 51 H 0.994045 -2.160671 3.661426 0
M  V30 52 H 3.517679 -4.100512 5.223042 0
M  V30 53 H 2.811106 -2.704450 4.409997 0
M  V30 54 H 1.806196 -3.676121 5.551214 0
M  V30 END ATOM
M  V30 BEGIN BOND
M  V30 1 1 1 2
M  V30 2 1 2 3
M  V30 3 2 3 4
M  V30 4 1 4 5
M  V30 5 2 5 6
M  V30 6 1 6 7
M  V30 7 2 7 8
M  V30 8 1 8 9
M  V30 9 2 9 10
M  V30 10 1 10 11
M  V30 11 1 11 12
M  V30 12 2 12 13
M  V30 13 1 13 14
M  V30 14 1 14 15
M  V30 15 2 15 16
M  V30 16 1 15 17
M  V30 17 1 17 18
M  V30 18 1 18 19
M  V30 19 1 19 20
M  V30 20 1 20 21
M  V30 21 1 21 22
M  V30 22 1 22 23
M  V30 23 1 13 24
M  V30 24 2 24 25
M  V30 25 1 6 26
M  V30 26 2 26 27
M  V30 27 1 27 28
M  V30 28 1 28 29
M  V30 29 1 27 3
M  V30 30 1 25 7
M  V30 31 1 24 10
M  V30 32 1 23 17
M  V30 33 1 1 30
M  V30 34 1 1 31
M  V30 35 1 1 32
M  V30 36 1 4 33
M  V30 37 1 5 34
M  V30 38 1 8 35
M  V30 39 1 14 36
M  V30 40 1 17 37
M  V30 41 1 18 38
M  V30 42 1 18 39
M  V30 43 1 19 40
M  V30 44 1 19 41
M  V30 45 1 20 42
M  V30 46 1 20 43
M  V30 47 1 21 44
M  V30 48 1 21 45
M  V30 49 1 22 46
M  V30 50 1 22 47
M  V30 51 1 23 48
M  V30 52 1 23 49
M  V30 53 1 25 50
M  V30 54 1 26 51
M  V30 55 1 29 52
M  V30 56 1 29 53
M  V30 57 1 29 54
M  V30 END BOND
M  V30 END CTAB
M  END
>  <Dataset>  (125) 
ChEMBL_Kinases

>  <Ligand_Instance>  (125) 
nan

>  <PDB_ID>  (125) 
nan

>  <Standardized_SMILES>  (125) 
COc1ccc(-c2cnc3snc(NC(=O)C4CCCCCC4)c3c2)cc1OC

>  <Name>  (125) 
nan

>  <Pocket>  (125) 
nan

>  <ATP_Site>  (125) 
nan

>  <Peripheral>  (125) 
nan

>  <Num_H_Atoms_ProtBoundConf>  (125) 
nan

>  <Num_Resolved_Atoms>  (125) 
nan

>  <Num_Not_Resolved_Atoms>  (125) 
nan

$$$$
CHEMBL3334970
     RDKit          3D

  0  0  0  0  0  0  0  0  0  0999 V3000
M  V30 BEGIN CTAB
M  V30 COUNTS 50 53 0 0 0
M  V30 BEGIN ATOM
M  V30 1 C -4.061826 -5.595518 -2.234753 0
M  V30 2 O -2.800727 -5.316657 -1.632612 0
M  V30 3 C -2.334645 -4.000583 -1.715923 0
M  V30 4 C -3.060334 -3.008649 -2.354819 0
M  V30 5 C -2.562396 -1.713073 -2.415839 0
M  V30 6 C -1.348570 -1.381106 -1.850366 0
M  V30 7 C -0.802824 -0.007157 -1.907393 0
M  V30 8 C -1.136762 0.707137 -3.032672 0
M  V30 9 N -0.620528 1.960108 -3.050571 0
M  V30 10 C 0.156174 2.436537 -2.027219 0
M  V30 11 S 0.911929 3.986930 -1.842010 0
M  V30 12 N 1.662230 3.540658 -0.177487 0
M  V30 13 C 1.249553 2.327356 -0.005121 0
M  V30 14 N 1.730146 1.808241 1.236275 0
M  V30 15 C 0.774794 2.110055 2.258796 0
M  V30 16 O -0.211603 2.748479 1.745564 0
M  V30 17 C 0.888915 1.749030 3.692105 0
M  V30 18 C 1.037364 0.299222 3.972785 0
M  V30 19 C 2.377656 -0.117805 4.494445 0
M  V30 20 N 3.476844 0.693056 4.088893 0
M  V30 21 C 3.271329 2.098721 4.199930 0
M  V30 22 C 1.878200 2.538446 4.471214 0
M  V30 23 C 0.456756 1.665354 -0.918621 0
M  V30 24 C -0.036092 0.381713 -0.836249 0
M  V30 25 C -0.608012 -2.373905 -1.203222 0
M  V30 26 C -1.102628 -3.681195 -1.137470 0
M  V30 27 O -0.407887 -4.703659 -0.507467 0
M  V30 28 C 0.853265 -4.429441 0.097808 0
M  V30 29 H -4.847660 -4.885390 -1.967786 0
M  V30 30 H -3.898286 -5.715071 -3.336863 0
M  V30 31 H -4.436626 -6.600349 -1.893500 0
M  V30 32 H -4.014469 -3.226369 -2.810309 0
M  V30 33 H -3.153043 -0.949632 -2.924766 0
M  V30 34 H -1.748909 0.294009 -3.811121 0
M  V30 35 H 2.589894 1.283749 1.511931 0
M  V30 36 H -0.124756 2.053967 4.116807 0
M  V30 37 H 0.296903 -0.021925 4.759869 0
M  V30 38 H 0.724242 -0.327787 3.085340 0
M  V30 39 H 2.378939 -0.238089 5.601162 0
M  V30 40 H 2.576437 -1.146274 4.070477 0
M  V30 41 H 4.021862 0.374582 3.283330 0
M  V30 42 H 3.926437 2.569222 4.984957 0
M  V30 43 H 3.590781 2.589655 3.233948 0
M  V30 44 H 1.577874 2.457181 5.549011 0
M  V30 45 H 1.749882 3.608792 4.202520 0
M  V30 46 H 0.162381 -0.256352 -0.007944 0
M  V30 47 H 0.348303 -2.168870 -0.743134 0
M  V30 48 H 0.715081 -3.752076 0.967390 0
M  V30 49 H 1.561420 -3.920281 -0.573020 0
M  V30 50 H 1.274508 -5.386426 0.462966 0
M  V30 END ATOM
M  V30 BEGIN BOND
M  V30 1 1 1 2
M  V30 2 1 2 3
M  V30 3 2 3 4
M  V30 4 1 4 5
M  V30 5 2 5 6
M  V30 6 1 6 7
M  V30 7 2 7 8
M  V30 8 1 8 9
M  V30 9 2 9 10
M  V30 10 1 10 11
M  V30 11 1 11 12
M  V30 12 2 12 13
M  V30 13 1 13 14
M  V30 14 1 14 15
M  V30 15 2 15 16
M  V30 16 1 15 17
M  V30 17 1 17 18
M  V30 18 1 18 19
M  V30 19 1 19 20
M  V30 20 1 20 21
M  V30 21 1 21 22
M  V30 22 1 13 23
M  V30 23 2 23 24
M  V30 24 1 6 25
M  V30 25 2 25 26
M  V30 26 1 26 27
M  V30 27 1 27 28
M  V30 28 1 26 3
M  V30 29 1 24 7
M  V30 30 1 23 10
M  V30 31 1 22 17
M  V30 32 1 1 29
M  V30 33 1 1 30
M  V30 34 1 1 31
M  V30 35 1 4 32
M  V30 36 1 5 33
M  V30 37 1 8 34
M  V30 38 1 14 35
M  V30 39 1 17 36
M  V30 40 1 18 37
M  V30 41 1 18 38
M  V30 42 1 19 39
M  V30 43 1 19 40
M  V30 44 1 20 41
M  V30 45 1 21 42
M  V30 46 1 21 43
M  V30 47 1 22 44
M  V30 48 1 22 45
M  V30 49 1 24 46
M  V30 50 1 25 47
M  V30 51 1 28 48
M  V30 52 1 28 49
M  V30 53 1 28 50
M  V30 END BOND
M  V30 END CTAB
M  END
>  <Dataset>  (126) 
ChEMBL_Kinases

>  <Ligand_Instance>  (126) 
nan

>  <PDB_ID>  (126) 
nan

>  <Standardized_SMILES>  (126) 
COc1ccc(-c2cnc3snc(NC(=O)C4CCNCC4)c3c2)cc1OC

>  <Name>  (126) 
nan

>  <Pocket>  (126) 
nan

>  <ATP_Site>  (126) 
nan

>  <Peripheral>  (126) 
nan

>  <Num_H_Atoms_ProtBoundConf>  (126) 
nan

>  <Num_Resolved_Atoms>  (126) 
nan

>  <Num_Not_Resolved_Atoms>  (126) 
nan

$$$$
CHEMBL3334978
     RDKit          3D

  0  0  0  0  0  0  0  0  0  0999 V3000
M  V30 BEGIN CTAB
M  V30 COUNTS 53 56 0 0 0
M  V30 BEGIN ATOM
M  V30 1 C -3.826066 -5.054254 1.092966 0
M  V30 2 O -2.821801 -5.336287 0.106043 0
M  V30 3 C -1.910164 -4.364560 -0.284387 0
M  V30 4 C -2.000214 -3.112485 0.309001 0
M  V30 5 C -1.082189 -2.164924 -0.096895 0
M  V30 6 C -0.139714 -2.495763 -1.050150 0
M  V30 7 C 0.824495 -1.439210 -1.450719 0
M  V30 8 C 1.256167 -1.521461 -2.756300 0
M  V30 9 C 2.148339 -0.528196 -3.093832 0
M  V30 10 C 2.547239 0.432872 -2.195755 0
M  V30 11 S 3.658953 1.776548 -2.401031 0
M  V30 12 C 3.437173 2.371418 -0.609240 0
M  V30 13 C 2.542156 1.471067 -0.075886 0
M  V30 14 N 2.226660 1.732724 1.286518 0
M  V30 15 C 1.161349 2.565265 1.731560 0
M  V30 16 O 0.488819 3.075980 0.779741 0
M  V30 17 C 0.834332 2.836117 3.132532 0
M  V30 18 C 0.483139 1.631822 3.950066 0
M  V30 19 C -0.654327 0.885349 3.313128 0
M  V30 20 C -1.788135 1.815229 2.986409 0
M  V30 21 C -1.609501 3.148285 3.679382 0
M  V30 22 C -0.325329 3.789982 3.196223 0
M  V30 23 C 2.096183 0.479636 -0.911311 0
M  V30 24 C 1.193971 -0.498480 -0.516242 0
M  V30 25 C -0.078203 -3.751493 -1.620274 0
M  V30 26 C -0.980194 -4.725357 -1.239128 0
M  V30 27 O -0.989565 -6.016789 -1.762706 0
M  V30 28 C -0.049442 -6.403104 -2.737045 0
M  V30 29 H -3.281618 -4.633337 1.975491 0
M  V30 30 H -4.302165 -5.969114 1.451672 0
M  V30 31 H -4.501170 -4.255226 0.760771 0
M  V30 32 H -2.753792 -2.892134 1.052974 0
M  V30 33 H -1.182934 -1.204986 0.385322 0
M  V30 34 H 0.931346 -2.283329 -3.445801 0
M  V30 35 H 2.568865 -0.471161 -4.086999 0
M  V30 36 H 3.980088 3.263243 -0.231687 0
M  V30 37 H 2.832647 1.271319 2.027373 0
M  V30 38 H 1.733205 3.308683 3.597624 0
M  V30 39 H 0.098888 2.002398 4.926821 0
M  V30 40 H 1.347293 0.959448 4.098038 0
M  V30 41 H -1.016707 0.107088 4.046241 0
M  V30 42 H -0.254980 0.376944 2.425764 0
M  V30 43 H -2.750680 1.354679 3.323058 0
M  V30 44 H -1.782756 2.002768 1.899350 0
M  V30 45 H -2.460776 3.796009 3.321603 0
M  V30 46 H -1.641642 3.059467 4.769169 0
M  V30 47 H -0.563077 4.193753 2.169744 0
M  V30 48 H -0.054577 4.666601 3.810413 0
M  V30 49 H 0.755824 -0.582508 0.469767 0
M  V30 50 H 0.663677 -3.990277 -2.361391 0
M  V30 51 H 0.904312 -6.798570 -2.290256 0
M  V30 52 H -0.496074 -7.270689 -3.303195 0
M  V30 53 H 0.168739 -5.624984 -3.486929 0
M  V30 END ATOM
M  V30 BEGIN BOND
M  V30 1 1 1 2
M  V30 2 1 2 3
M  V30 3 2 3 4
M  V30 4 1 4 5
M  V30 5 2 5 6
M  V30 6 1 6 7
M  V30 7 2 7 8
M  V30 8 1 8 9
M  V30 9 2 9 10
M  V30 10 1 10 11
M  V30 11 1 11 12
M  V30 12 2 12 13
M  V30 13 1 13 14
M  V30 14 1 14 15
M  V30 15 2 15 16
M  V30 16 1 15 17
M  V30 17 1 17 18
M  V30 18 1 18 19
M  V30 19 1 19 20
M  V30 20 1 20 21
M  V30 21 1 21 22
M  V30 22 1 13 23
M  V30 23 2 23 24
M  V30 24 1 6 25
M  V30 25 2 25 26
M  V30 26 1 26 27
M  V30 27 1 27 28
M  V30 28 1 26 3
M  V30 29 1 24 7
M  V30 30 1 23 10
M  V30 31 1 22 17
M  V30 32 1 1 29
M  V30 33 1 1 30
M  V30 34 1 1 31
M  V30 35 1 4 32
M  V30 36 1 5 33
M  V30 37 1 8 34
M  V30 38 1 9 35
M  V30 39 1 12 36
M  V30 40 1 14 37
M  V30 41 1 17 38
M  V30 42 1 18 39
M  V30 43 1 18 40
M  V30 44 1 19 41
M  V30 45 1 19 42
M  V30 46 1 20 43
M  V30 47 1 20 44
M  V30 48 1 21 45
M  V30 49 1 21 46
M  V30 50 1 22 47
M  V30 51 1 22 48
M  V30 52 1 24 49
M  V30 53 1 25 50
M  V30 54 1 28 51
M  V30 55 1 28 52
M  V30 56 1 28 53
M  V30 END BOND
M  V30 END CTAB
M  END
>  <Dataset>  (127) 
ChEMBL_Kinases

>  <Ligand_Instance>  (127) 
nan

>  <PDB_ID>  (127) 
nan

>  <Standardized_SMILES>  (127) 
COc1ccc(-c2ccc3scc(NC(=O)C4CCCCC4)c3c2)cc1OC

>  <Name>  (127) 
nan

>  <Pocket>  (127) 
nan

>  <ATP_Site>  (127) 
nan

>  <Peripheral>  (127) 
nan

>  <Num_H_Atoms_ProtBoundConf>  (127) 
nan

>  <Num_Resolved_Atoms>  (127) 
nan

>  <Num_Not_Resolved_Atoms>  (127) 
nan

$$$$
CHEMBL3334982
     RDKit          3D

  0  0  0  0  0  0  0  0  0  0999 V3000
M  V30 BEGIN CTAB
M  V30 COUNTS 52 55 0 0 0
M  V30 BEGIN ATOM
M  V30 1 C -3.523658 -6.434996 -0.384041 0
M  V30 2 O -2.360535 -5.781245 0.029760 0
M  V30 3 C -1.842182 -4.614064 -0.481591 0
M  V30 4 C -2.412873 -3.883037 -1.520027 0
M  V30 5 C -1.810900 -2.715647 -1.964568 0
M  V30 6 C -0.642647 -2.274954 -1.377511 0
M  V30 7 C 0.001285 -1.028747 -1.854233 0
M  V30 8 C -0.178870 -0.789097 -3.190631 0
M  V30 9 C 0.435457 0.389732 -3.628795 0
M  V30 10 C 1.169510 1.234672 -2.742168 0
M  V30 11 S 1.988907 2.692723 -3.047855 0
M  V30 12 N 2.529436 2.865310 -1.272010 0
M  V30 13 C 2.000570 1.773255 -0.695877 0
M  V30 14 N 2.385733 1.853985 0.677499 0
M  V30 15 C 1.454843 2.568377 1.503994 0
M  V30 16 O 0.450389 2.996769 0.837944 0
M  V30 17 C 1.596262 2.806659 2.953351 0
M  V30 18 C 1.656038 1.525269 3.765292 0
M  V30 19 C 0.566670 0.647142 3.253723 0
M  V30 20 C -0.745116 1.262125 3.001269 0
M  V30 21 C -0.902594 2.727475 3.144068 0
M  V30 22 C 0.345529 3.497071 3.427827 0
M  V30 23 C 1.286028 0.903758 -1.436840 0
M  V30 24 C 0.696968 -0.252189 -0.952542 0
M  V30 25 C -0.079481 -3.011724 -0.340531 0
M  V30 26 C -0.663657 -4.175872 0.115596 0
M  V30 27 O -0.071024 -4.891344 1.159028 0
M  V30 28 C 1.124446 -4.371789 1.704889 0
M  V30 29 H -4.094088 -6.882284 0.458265 0
M  V30 30 H -3.210542 -7.256238 -1.093329 0
M  V30 31 H -4.188652 -5.767688 -0.936666 0
M  V30 32 H -3.316232 -4.240703 -1.960553 0
M  V30 33 H -2.288550 -2.180075 -2.773281 0
M  V30 34 H -0.728690 -1.414524 -3.872741 0
M  V30 35 H 0.356734 0.678331 -4.673104 0
M  V30 36 H 3.236517 1.471623 1.156215 0
M  V30 37 H 2.447851 3.477525 3.192272 0
M  V30 38 H 1.427430 1.747886 4.829467 0
M  V30 39 H 2.619505 0.990665 3.649166 0
M  V30 40 H 0.993535 0.158133 2.328921 0
M  V30 41 H 0.498220 -0.223734 3.971271 0
M  V30 42 H -1.068414 0.988627 1.955745 0
M  V30 43 H -1.516815 0.726825 3.630851 0
M  V30 44 H -1.614507 2.950593 3.987311 0
M  V30 45 H -1.392844 3.198613 2.265419 0
M  V30 46 H 0.461133 3.645256 4.533069 0
M  V30 47 H 0.342045 4.514006 2.968976 0
M  V30 48 H 0.734260 -0.599843 0.070213 0
M  V30 49 H 0.833735 -2.669158 0.119924 0
M  V30 50 H 1.011130 -3.374067 2.141201 0
M  V30 51 H 1.514364 -5.058141 2.494227 0
M  V30 52 H 1.852684 -4.297789 0.855831 0
M  V30 END ATOM
M  V30 BEGIN BOND
M  V30 1 1 1 2
M  V30 2 1 2 3
M  V30 3 2 3 4
M  V30 4 1 4 5
M  V30 5 2 5 6
M  V30 6 1 6 7
M  V30 7 2 7 8
M  V30 8 1 8 9
M  V30 9 2 9 10
M  V30 10 1 10 11
M  V30 11 1 11 12
M  V30 12 2 12 13
M  V30 13 1 13 14
M  V30 14 1 14 15
M  V30 15 2 15 16
M  V30 16 1 15 17
M  V30 17 1 17 18
M  V30 18 1 18 19
M  V30 19 1 19 20
M  V30 20 1 20 21
M  V30 21 1 21 22
M  V30 22 1 13 23
M  V30 23 2 23 24
M  V30 24 1 6 25
M  V30 25 2 25 26
M  V30 26 1 26 27
M  V30 27 1 27 28
M  V30 28 1 26 3
M  V30 29 1 24 7
M  V30 30 1 23 10
M  V30 31 1 22 17
M  V30 32 1 1 29
M  V30 33 1 1 30
M  V30 34 1 1 31
M  V30 35 1 4 32
M  V30 36 1 5 33
M  V30 37 1 8 34
M  V30 38 1 9 35
M  V30 39 1 14 36
M  V30 40 1 17 37
M  V30 41 1 18 38
M  V30 42 1 18 39
M  V30 43 1 19 40
M  V30 44 1 19 41
M  V30 45 1 20 42
M  V30 46 1 20 43
M  V30 47 1 21 44
M  V30 48 1 21 45
M  V30 49 1 22 46
M  V30 50 1 22 47
M  V30 51 1 24 48
M  V30 52 1 25 49
M  V30 53 1 28 50
M  V30 54 1 28 51
M  V30 55 1 28 52
M  V30 END BOND
M  V30 END CTAB
M  END
>  <Dataset>  (128) 
ChEMBL_Kinases

>  <Ligand_Instance>  (128) 
nan

>  <PDB_ID>  (128) 
nan

>  <Standardized_SMILES>  (128) 
COc1ccc(-c2ccc3snc(NC(=O)C4CCCCC4)c3c2)cc1OC

>  <Name>  (128) 
nan

>  <Pocket>  (128) 
nan

>  <ATP_Site>  (128) 
nan

>  <Peripheral>  (128) 
nan

>  <Num_H_Atoms_ProtBoundConf>  (128) 
nan

>  <Num_Resolved_Atoms>  (128) 
nan

>  <Num_Not_Resolved_Atoms>  (128) 
nan

$$$$
CHEMBL3334983
     RDKit          3D

  0  0  0  0  0  0  0  0  0  0999 V3000
M  V30 BEGIN CTAB
M  V30 COUNTS 52 55 0 0 0
M  V30 BEGIN ATOM
M  V30 1 C -3.389362 -6.166239 -0.209229 0
M  V30 2 O -2.143748 -5.649910 0.207053 0
M  V30 3 C -1.679119 -4.457079 -0.316226 0
M  V30 4 C -2.417068 -3.741282 -1.257512 0
M  V30 5 C -1.931946 -2.540465 -1.773988 0
M  V30 6 C -0.717833 -2.032544 -1.370212 0
M  V30 7 C -0.120477 -0.784265 -1.853288 0
M  V30 8 C -0.279212 -0.260905 -3.119958 0
M  V30 9 C 0.316561 0.923415 -3.496434 0
M  V30 10 C 1.104311 1.643853 -2.616447 0
M  V30 11 O 1.778781 2.769313 -2.691439 0
M  V30 12 N 2.377683 3.031313 -1.555196 0
M  V30 13 C 2.101492 2.049042 -0.674301 0
M  V30 14 N 2.476573 1.816883 0.699121 0
M  V30 15 C 1.500057 2.415474 1.507557 0
M  V30 16 O 0.597465 2.972478 0.804608 0
M  V30 17 C 1.525031 2.396244 2.995560 0
M  V30 18 C 1.527279 0.989452 3.547581 0
M  V30 19 C 0.337842 0.175767 3.184899 0
M  V30 20 C -0.828361 0.920789 2.633368 0
M  V30 21 C -0.965827 2.342790 2.996524 0
M  V30 22 C 0.253478 3.018411 3.554602 0
M  V30 23 C 1.287895 1.146437 -1.327214 0
M  V30 24 C 0.668904 -0.046456 -0.997146 0
M  V30 25 C -0.017935 -2.769331 -0.438037 0
M  V30 26 C -0.447610 -3.951874 0.100132 0
M  V30 27 O 0.246430 -4.702611 1.037784 0
M  V30 28 C 1.500631 -4.215572 1.480119 0
M  V30 29 H -4.195728 -5.544896 0.243030 0
M  V30 30 H -3.520181 -7.228708 0.136710 0
M  V30 31 H -3.475016 -6.091264 -1.303194 0
M  V30 32 H -3.371588 -4.084931 -1.611496 0
M  V30 33 H -2.488232 -1.956629 -2.513418 0
M  V30 34 H -0.905642 -0.838568 -3.811858 0
M  V30 35 H 0.164546 1.305457 -4.516298 0
M  V30 36 H 3.291884 1.314955 1.132682 0
M  V30 37 H 2.397473 2.921839 3.429676 0
M  V30 38 H 1.515426 1.116019 4.669298 0
M  V30 39 H 2.511423 0.521840 3.309717 0
M  V30 40 H 0.675185 -0.553354 2.407080 0
M  V30 41 H 0.035326 -0.472327 4.060413 0
M  V30 42 H -1.753715 0.378016 2.993442 0
M  V30 43 H -0.899704 0.786734 1.513606 0
M  V30 44 H -1.781894 2.492443 3.765004 0
M  V30 45 H -1.314204 2.945845 2.130659 0
M  V30 46 H 0.277565 2.816674 4.656726 0
M  V30 47 H 0.204853 4.105562 3.436235 0
M  V30 48 H 0.821380 -0.426372 0.019625 0
M  V30 49 H 0.951304 -2.461025 -0.049138 0
M  V30 50 H 1.429610 -3.176637 1.894010 0
M  V30 51 H 1.904871 -4.852373 2.312032 0
M  V30 52 H 2.227484 -4.207970 0.626863 0
M  V30 END ATOM
M  V30 BEGIN BOND
M  V30 1 1 1 2
M  V30 2 1 2 3
M  V30 3 2 3 4
M  V30 4 1 4 5
M  V30 5 2 5 6
M  V30 6 1 6 7
M  V30 7 2 7 8
M  V30 8 1 8 9
M  V30 9 2 9 10
M  V30 10 1 10 11
M  V30 11 1 11 12
M  V30 12 2 12 13
M  V30 13 1 13 14
M  V30 14 1 14 15
M  V30 15 2 15 16
M  V30 16 1 15 17
M  V30 17 1 17 18
M  V30 18 1 18 19
M  V30 19 1 19 20
M  V30 20 1 20 21
M  V30 21 1 21 22
M  V30 22 1 13 23
M  V30 23 2 23 24
M  V30 24 1 6 25
M  V30 25 2 25 26
M  V30 26 1 26 27
M  V30 27 1 27 28
M  V30 28 1 26 3
M  V30 29 1 24 7
M  V30 30 1 23 10
M  V30 31 1 22 17
M  V30 32 1 1 29
M  V30 33 1 1 30
M  V30 34 1 1 31
M  V30 35 1 4 32
M  V30 36 1 5 33
M  V30 37 1 8 34
M  V30 38 1 9 35
M  V30 39 1 14 36
M  V30 40 1 17 37
M  V30 41 1 18 38
M  V30 42 1 18 39
M  V30 43 1 19 40
M  V30 44 1 19 41
M  V30 45 1 20 42
M  V30 46 1 20 43
M  V30 47 1 21 44
M  V30 48 1 21 45
M  V30 49 1 22 46
M  V30 50 1 22 47
M  V30 51 1 24 48
M  V30 52 1 25 49
M  V30 53 1 28 50
M  V30 54 1 28 51
M  V30 55 1 28 52
M  V30 END BOND
M  V30 END CTAB
M  END
>  <Dataset>  (129) 
ChEMBL_Kinases

>  <Ligand_Instance>  (129) 
nan

>  <PDB_ID>  (129) 
nan

>  <Standardized_SMILES>  (129) 
COc1ccc(-c2ccc3onc(NC(=O)C4CCCCC4)c3c2)cc1OC

>  <Name>  (129) 
nan

>  <Pocket>  (129) 
nan

>  <ATP_Site>  (129) 
nan

>  <Peripheral>  (129) 
nan

>  <Num_H_Atoms_ProtBoundConf>  (129) 
nan

>  <Num_Resolved_Atoms>  (129) 
nan

>  <Num_Not_Resolved_Atoms>  (129) 
nan

$$$$
CHEMBL3334988
     RDKit          3D

  0  0  0  0  0  0  0  0  0  0999 V3000
M  V30 BEGIN CTAB
M  V30 COUNTS 52 55 0 0 0
M  V30 BEGIN ATOM
M  V30 1 C -0.886120 -6.392330 -0.733572 0
M  V30 2 O -0.072444 -5.915099 -1.780993 0
M  V30 3 C 0.314794 -4.590576 -1.844146 0
M  V30 4 C -0.139701 -3.773144 -0.829386 0
M  V30 5 C 0.239143 -2.448229 -0.879549 0
M  V30 6 C 1.035767 -1.992526 -1.909237 0
M  V30 7 C 1.395590 -0.579754 -1.894140 0
M  V30 8 C 2.181332 0.045098 -2.839753 0
M  V30 9 N 2.468089 1.365690 -2.749274 0
M  V30 10 C 2.003553 2.122758 -1.741152 0
M  V30 11 N 2.230906 3.433580 -1.563041 0
M  V30 12 C 1.719221 4.117736 -0.511077 0
M  V30 13 N 0.950086 3.484962 0.406209 0
M  V30 14 C 0.667893 2.172021 0.310658 0
M  V30 15 N -0.139101 1.487947 1.265001 0
M  V30 16 C -0.661254 2.216779 2.353972 0
M  V30 17 O -0.365831 3.444657 2.398216 0
M  V30 18 C -1.496829 1.563042 3.363775 0
M  V30 19 C -0.791037 0.448912 4.067619 0
M  V30 20 C -1.646930 -0.151710 5.139735 0
M  V30 21 C -2.013342 0.932887 6.124611 0
M  V30 22 C -2.849205 1.987194 5.401709 0
M  V30 23 C -2.050132 2.623453 4.287211 0
M  V30 24 C 1.216027 1.512489 -0.787005 0
M  V30 25 N 0.942554 0.198952 -0.894928 0
M  V30 26 C 1.470602 -2.839028 -2.905695 0
M  V30 27 C 1.119969 -4.170873 -2.901131 0
M  V30 28 O 1.489605 -5.120745 -3.839372 0
M  V30 29 C 2.303357 -4.784024 -4.942321 0
M  V30 30 H -0.348647 -6.371495 0.240281 0
M  V30 31 H -1.808746 -5.794676 -0.602329 0
M  V30 32 H -1.128708 -7.464686 -0.937439 0
M  V30 33 H -0.759384 -4.136616 -0.032008 0
M  V30 34 H -0.116886 -1.790258 -0.077807 0
M  V30 35 H 2.561442 -0.528805 -3.646478 0
M  V30 36 H 1.960209 5.176787 -0.454330 0
M  V30 37 H -0.306594 0.470176 1.110883 0
M  V30 38 H -2.401609 1.127155 2.847247 0
M  V30 39 H 0.135587 0.812738 4.539705 0
M  V30 40 H -0.578946 -0.333748 3.328708 0
M  V30 41 H -1.053655 -0.932849 5.676115 0
M  V30 42 H -2.595127 -0.582040 4.753643 0
M  V30 43 H -2.656258 0.546118 6.944997 0
M  V30 44 H -1.104379 1.413440 6.560273 0
M  V30 45 H -3.122371 2.776480 6.106491 0
M  V30 46 H -3.747439 1.464460 5.036340 0
M  V30 47 H -1.225871 3.195688 4.739452 0
M  V30 48 H -2.757881 3.238018 3.683224 0
M  V30 49 H 2.084593 -2.505000 -3.706308 0
M  V30 50 H 2.911623 -5.676410 -5.273022 0
M  V30 51 H 3.059107 -4.034129 -4.633887 0
M  V30 52 H 1.727719 -4.367010 -5.793008 0
M  V30 END ATOM
M  V30 BEGIN BOND
M  V30 1 1 1 2
M  V30 2 1 2 3
M  V30 3 2 3 4
M  V30 4 1 4 5
M  V30 5 2 5 6
M  V30 6 1 6 7
M  V30 7 2 7 8
M  V30 8 1 8 9
M  V30 9 2 9 10
M  V30 10 1 10 11
M  V30 11 2 11 12
M  V30 12 1 12 13
M  V30 13 2 13 14
M  V30 14 1 14 15
M  V30 15 1 15 16
M  V30 16 2 16 17
M  V30 17 1 16 18
M  V30 18 1 18 19
M  V30 19 1 19 20
M  V30 20 1 20 21
M  V30 21 1 21 22
M  V30 22 1 22 23
M  V30 23 1 14 24
M  V30 24 2 24 25
M  V30 25 1 6 26
M  V30 26 2 26 27
M  V30 27 1 27 28
M  V30 28 1 28 29
M  V30 29 1 27 3
M  V30 30 1 25 7
M  V30 31 1 24 10
M  V30 32 1 23 18
M  V30 33 1 1 30
M  V30 34 1 1 31
M  V30 35 1 1 32
M  V30 36 1 4 33
M  V30 37 1 5 34
M  V30 38 1 8 35
M  V30 39 1 12 36
M  V30 40 1 15 37
M  V30 41 1 18 38
M  V30 42 1 19 39
M  V30 43 1 19 40
M  V30 44 1 20 41
M  V30 45 1 20 42
M  V30 46 1 21 43
M  V30 47 1 21 44
M  V30 48 1 22 45
M  V30 49 1 22 46
M  V30 50 1 23 47
M  V30 51 1 23 48
M  V30 52 1 26 49
M  V30 53 1 29 50
M  V30 54 1 29 51
M  V30 55 1 29 52
M  V30 END BOND
M  V30 END CTAB
M  END
>  <Dataset>  (130) 
ChEMBL_Kinases

>  <Ligand_Instance>  (130) 
nan

>  <PDB_ID>  (130) 
nan

>  <Standardized_SMILES>  (130) 
COc1ccc(-c2cnc3ncnc(NC(=O)C4CCCCC4)c3n2)cc1OC

>  <Name>  (130) 
nan

>  <Pocket>  (130) 
nan

>  <ATP_Site>  (130) 
nan

>  <Peripheral>  (130) 
nan

>  <Num_H_Atoms_ProtBoundConf>  (130) 
nan

>  <Num_Resolved_Atoms>  (130) 
nan

>  <Num_Not_Resolved_Atoms>  (130) 
nan

$$$$
CHEMBL3335328
     RDKit          3D

  0  0  0  0  0  0  0  0  0  0999 V3000
M  V30 BEGIN CTAB
M  V30 COUNTS 29 31 0 0 0
M  V30 BEGIN ATOM
M  V30 1 O -2.216134 -2.891936 -1.750907 0
M  V30 2 C -1.096039 -2.864827 -1.179310 0
M  V30 3 N -0.007446 -3.777167 -1.227268 0
M  V30 4 C 1.025213 -3.267939 -0.390658 0
M  V30 5 C 2.271624 -3.793597 -0.133286 0
M  V30 6 C 3.148990 -3.134288 0.699143 0
M  V30 7 C 2.770960 -1.922220 1.286423 0
M  V30 8 Cl 3.998444 -1.214957 2.313401 0
M  V30 9 C 1.515484 -1.444279 0.995290 0
M  V30 10 C 0.639075 -2.079049 0.181362 0
M  V30 11 C -0.688824 -1.792498 -0.288355 0
M  V30 12 C -1.309512 -0.705798 0.053704 0
M  V30 13 C -1.002311 0.401061 0.923809 0
M  V30 14 C -0.976134 1.613064 0.248511 0
M  V30 15 C -0.774531 2.859575 0.847986 0
M  V30 16 F -0.750517 4.022788 0.191583 0
M  V30 17 C -0.589347 2.868810 2.213236 0
M  V30 18 O -0.380039 4.044494 2.920414 0
M  V30 19 C -0.601281 1.709902 2.956433 0
M  V30 20 F -0.431462 1.599209 4.294545 0
M  V30 21 C -0.804253 0.516654 2.308751 0
M  V30 22 H -0.058944 -4.649378 -1.812470 0
M  V30 23 H 2.549235 -4.730477 -0.594643 0
M  V30 24 H 4.096990 -3.607005 0.849264 0
M  V30 25 H 1.421096 -0.515907 1.505982 0
M  V30 26 H -2.302498 -0.595107 -0.420404 0
M  V30 27 H -1.110821 1.724685 -0.830099 0
M  V30 28 H 0.226774 4.053744 3.733385 0
M  V30 29 H -0.840896 -0.479957 2.752872 0
M  V30 END ATOM
M  V30 BEGIN BOND
M  V30 1 2 1 2
M  V30 2 1 2 3
M  V30 3 1 3 4
M  V30 4 2 4 5
M  V30 5 1 5 6
M  V30 6 2 6 7
M  V30 7 1 7 8
M  V30 8 1 7 9
M  V30 9 2 9 10
M  V30 10 1 10 11
M  V30 11 2 11 12
M  V30 12 1 12 13
M  V30 13 2 13 14
M  V30 14 1 14 15
M  V30 15 1 15 16
M  V30 16 2 15 17
M  V30 17 1 17 18
M  V30 18 1 17 19
M  V30 19 1 19 20
M  V30 20 2 19 21
M  V30 21 1 11 2
M  V30 22 1 21 13
M  V30 23 1 10 4
M  V30 24 1 3 22
M  V30 25 1 5 23
M  V30 26 1 6 24
M  V30 27 1 9 25
M  V30 28 1 12 26
M  V30 29 1 14 27
M  V30 30 1 18 28
M  V30 31 1 21 29
M  V30 END BOND
M  V30 END CTAB
M  END
>  <Dataset>  (131) 
ChEMBL_Kinases

>  <Ligand_Instance>  (131) 
nan

>  <PDB_ID>  (131) 
nan

>  <Standardized_SMILES>  (131) 
O=C1Nc2ccc(Cl)cc2/C1=C\c1cc(F)c(O)c(F)c1

>  <Name>  (131) 
nan

>  <Pocket>  (131) 
nan

>  <ATP_Site>  (131) 
nan

>  <Peripheral>  (131) 
nan

>  <Num_H_Atoms_ProtBoundConf>  (131) 
nan

>  <Num_Resolved_Atoms>  (131) 
nan

>  <Num_Not_Resolved_Atoms>  (131) 
nan

$$$$
CHEMBL3335329
     RDKit          3D

  0  0  0  0  0  0  0  0  0  0999 V3000
M  V30 BEGIN CTAB
M  V30 COUNTS 29 31 0 0 0
M  V30 BEGIN ATOM
M  V30 1 O 1.943302 -4.395936 1.541878 0
M  V30 2 C 2.219881 -3.171802 1.398083 0
M  V30 3 N 3.428170 -2.427705 1.460266 0
M  V30 4 C 3.126415 -1.059718 1.210234 0
M  V30 5 C 3.994039 0.009070 1.156962 0
M  V30 6 C 3.484997 1.280896 0.870775 0
M  V30 7 C 2.140450 1.451923 0.646559 0
M  V30 8 Cl 1.649769 3.112051 0.296329 0
M  V30 9 C 1.313690 0.355551 0.711167 0
M  V30 10 C 1.769448 -0.895726 0.989197 0
M  V30 11 C 1.183111 -2.202861 1.103615 0
M  V30 12 C -0.079684 -2.379876 0.911985 0
M  V30 13 C -1.187843 -1.496214 0.626552 0
M  V30 14 C -1.568271 -0.617131 1.657235 0
M  V30 15 C -2.630163 0.258352 1.439847 0
M  V30 16 C -3.276849 0.240268 0.228881 0
M  V30 17 O -4.336908 1.140524 0.059980 0
M  V30 18 C -2.931862 -0.607996 -0.802708 0
M  V30 19 C -1.864237 -1.490561 -0.589168 0
M  V30 20 H 4.334126 -2.904548 1.663493 0
M  V30 21 H 5.049899 -0.135509 1.337310 0
M  V30 22 H 4.218713 2.068260 0.846924 0
M  V30 23 H 0.324618 0.675688 0.481718 0
M  V30 24 H -0.536107 -3.374203 0.948083 0
M  V30 25 H -1.041760 -0.619591 2.603251 0
M  V30 26 H -2.885238 0.915806 2.253264 0
M  V30 27 H -5.108276 1.009339 0.725584 0
M  V30 28 H -3.466592 -0.602032 -1.763714 0
M  V30 29 H -1.543942 -2.188719 -1.364888 0
M  V30 END ATOM
M  V30 BEGIN BOND
M  V30 1 2 1 2
M  V30 2 1 2 3
M  V30 3 1 3 4
M  V30 4 2 4 5
M  V30 5 1 5 6
M  V30 6 2 6 7
M  V30 7 1 7 8
M  V30 8 1 7 9
M  V30 9 2 9 10
M  V30 10 1 10 11
M  V30 11 2 11 12
M  V30 12 1 12 13
M  V30 13 2 13 14
M  V30 14 1 14 15
M  V30 15 2 15 16
M  V30 16 1 16 17
M  V30 17 1 16 18
M  V30 18 2 18 19
M  V30 19 1 11 2
M  V30 20 1 19 13
M  V30 21 1 10 4
M  V30 22 1 3 20
M  V30 23 1 5 21
M  V30 24 1 6 22
M  V30 25 1 9 23
M  V30 26 1 12 24
M  V30 27 1 14 25
M  V30 28 1 15 26
M  V30 29 1 17 27
M  V30 30 1 18 28
M  V30 31 1 19 29
M  V30 END BOND
M  V30 END CTAB
M  END
>  <Dataset>  (132) 
ChEMBL_Kinases

>  <Ligand_Instance>  (132) 
nan

>  <PDB_ID>  (132) 
nan

>  <Standardized_SMILES>  (132) 
O=C1Nc2ccc(Cl)cc2/C1=C\c1ccc(O)cc1

>  <Name>  (132) 
nan

>  <Pocket>  (132) 
nan

>  <ATP_Site>  (132) 
nan

>  <Peripheral>  (132) 
nan

>  <Num_H_Atoms_ProtBoundConf>  (132) 
nan

>  <Num_Resolved_Atoms>  (132) 
nan

>  <Num_Not_Resolved_Atoms>  (132) 
nan

$$$$
CHEMBL3334962
     RDKit          3D

  0  0  0  0  0  0  0  0  0  0999 V3000
M  V30 BEGIN CTAB
M  V30 COUNTS 48 51 0 0 0
M  V30 BEGIN ATOM
M  V30 1 C -0.667800 -6.663464 1.154332 0
M  V30 2 O -1.661555 -5.982787 0.451998 0
M  V30 3 C -1.530947 -4.673552 0.047456 0
M  V30 4 C -0.353434 -3.996214 0.353023 0
M  V30 5 C -0.158240 -2.684131 -0.022665 0
M  V30 6 C -1.154117 -2.012926 -0.723356 0
M  V30 7 C -1.015682 -0.604947 -1.157997 0
M  V30 8 C -1.669683 -0.276002 -2.326478 0
M  V30 9 N -1.551239 1.017822 -2.734173 0
M  V30 10 C -0.817700 1.906145 -1.999146 0
M  V30 11 S -0.505410 3.561477 -2.270375 0
M  V30 12 N 0.545007 3.808508 -0.748478 0
M  V30 13 C 0.478935 2.547808 -0.274726 0
M  V30 14 N 1.262884 2.565870 0.937886 0
M  V30 15 C 2.655240 2.299840 1.028683 0
M  V30 16 O 3.168782 2.032860 -0.108225 0
M  V30 17 C 3.340323 2.349717 2.326540 0
M  V30 18 C 2.670134 1.305917 3.217286 0
M  V30 19 C 1.795230 2.037854 4.179861 0
M  V30 20 C 2.127971 3.503461 4.070162 0
M  V30 21 C 3.239062 3.641534 3.069567 0
M  V30 22 C -0.198025 1.503794 -0.850728 0
M  V30 23 C -0.258029 0.224120 -0.358512 0
M  V30 24 C -2.293107 -2.719889 -1.000680 0
M  V30 25 C -2.524163 -4.017762 -0.646521 0
M  V30 26 O -3.654400 -4.765444 -0.904975 0
M  V30 27 C -4.745382 -4.241665 -1.597460 0
M  V30 28 H -1.100126 -7.557550 1.672597 0
M  V30 29 H 0.165539 -6.967142 0.492933 0
M  V30 30 H -0.254332 -6.024342 1.947155 0
M  V30 31 H 0.484607 -4.429034 0.896060 0
M  V30 32 H 0.754281 -2.130769 0.204329 0
M  V30 33 H -2.246938 -0.964378 -2.911540 0
M  V30 34 H 0.715166 2.799032 1.791689 0
M  V30 35 H 4.396181 2.016127 2.166194 0
M  V30 36 H 2.087796 0.566137 2.598138 0
M  V30 37 H 3.455971 0.746526 3.774399 0
M  V30 38 H 0.713925 1.879896 4.028493 0
M  V30 39 H 1.988406 1.679354 5.230732 0
M  V30 40 H 1.251330 4.108436 3.730234 0
M  V30 41 H 2.481595 3.884586 5.071364 0
M  V30 42 H 3.145197 4.537833 2.430467 0
M  V30 43 H 4.206497 3.776326 3.623271 0
M  V30 44 H 0.211642 -0.146402 0.541789 0
M  V30 45 H -3.070553 -2.216994 -1.538587 0
M  V30 46 H -4.865106 -3.167071 -1.432448 0
M  V30 47 H -4.624050 -4.476871 -2.680740 0
M  V30 48 H -5.677658 -4.748858 -1.254100 0
M  V30 END ATOM
M  V30 BEGIN BOND
M  V30 1 1 1 2
M  V30 2 1 2 3
M  V30 3 2 3 4
M  V30 4 1 4 5
M  V30 5 2 5 6
M  V30 6 1 6 7
M  V30 7 2 7 8
M  V30 8 1 8 9
M  V30 9 2 9 10
M  V30 10 1 10 11
M  V30 11 1 11 12
M  V30 12 2 12 13
M  V30 13 1 13 14
M  V30 14 1 14 15
M  V30 15 2 15 16
M  V30 16 1 15 17
M  V30 17 1 17 18
M  V30 18 1 18 19
M  V30 19 1 19 20
M  V30 20 1 20 21
M  V30 21 1 13 22
M  V30 22 2 22 23
M  V30 23 1 6 24
M  V30 24 2 24 25
M  V30 25 1 25 26
M  V30 26 1 26 27
M  V30 27 1 25 3
M  V30 28 1 23 7
M  V30 29 1 22 10
M  V30 30 1 21 17
M  V30 31 1 1 28
M  V30 32 1 1 29
M  V30 33 1 1 30
M  V30 34 1 4 31
M  V30 35 1 5 32
M  V30 36 1 8 33
M  V30 37 1 14 34
M  V30 38 1 17 35
M  V30 39 1 18 36
M  V30 40 1 18 37
M  V30 41 1 19 38
M  V30 42 1 19 39
M  V30 43 1 20 40
M  V30 44 1 20 41
M  V30 45 1 21 42
M  V30 46 1 21 43
M  V30 47 1 23 44
M  V30 48 1 24 45
M  V30 49 1 27 46
M  V30 50 1 27 47
M  V30 51 1 27 48
M  V30 END BOND
M  V30 END CTAB
M  END
>  <Dataset>  (133) 
ChEMBL_Kinases

>  <Ligand_Instance>  (133) 
nan

>  <PDB_ID>  (133) 
nan

>  <Standardized_SMILES>  (133) 
COc1ccc(-c2cnc3snc(NC(=O)C4CCCC4)c3c2)cc1OC

>  <Name>  (133) 
nan

>  <Pocket>  (133) 
nan

>  <ATP_Site>  (133) 
nan

>  <Peripheral>  (133) 
nan

>  <Num_H_Atoms_ProtBoundConf>  (133) 
nan

>  <Num_Resolved_Atoms>  (133) 
nan

>  <Num_Not_Resolved_Atoms>  (133) 
nan

$$$$
CHEMBL3342919
     RDKit          3D

  0  0  0  0  0  0  0  0  0  0999 V3000
M  V30 BEGIN CTAB
M  V30 COUNTS 40 42 0 0 0
M  V30 BEGIN ATOM
M  V30 1 C -0.929133 -7.210952 -0.685490 0
M  V30 2 O 0.097023 -6.517418 -0.039366 0
M  V30 3 C 0.522620 -5.294101 -0.509530 0
M  V30 4 C 1.551204 -4.745084 0.252671 0
M  V30 5 C 2.103828 -3.507603 -0.081708 0
M  V30 6 C 1.645640 -2.781036 -1.187603 0
M  V30 7 C 2.300369 -1.477158 -1.464622 0
M  V30 8 N 1.593100 -0.447461 -0.740351 0
M  V30 9 C 0.366775 0.150484 -1.042810 0
M  V30 10 O -0.256308 -0.211649 -2.072725 0
M  V30 11 C -0.208171 1.186121 -0.190051 0
M  V30 12 C 0.282046 1.741237 0.973310 0
M  V30 13 C -0.578424 2.697302 1.470733 0
M  V30 14 C -0.450364 3.520945 2.668481 0
M  V30 15 C -1.454155 4.410407 2.961204 0
M  V30 16 C -1.327906 5.188619 4.094328 0
M  V30 17 C -0.199188 5.053058 4.902153 0
M  V30 18 C 0.832564 4.149411 4.615303 0
M  V30 19 C 0.665441 3.387427 3.467578 0
M  V30 20 N -1.596512 2.710186 0.588121 0
M  V30 21 N -1.384036 1.826686 -0.386356 0
M  V30 22 C 0.626461 -3.350650 -1.922485 0
M  V30 23 C 0.082548 -4.571751 -1.590913 0
M  V30 24 H -1.936887 -6.982348 -0.269863 0
M  V30 25 H -0.785390 -8.319494 -0.545157 0
M  V30 26 H -0.964925 -7.016819 -1.783773 0
M  V30 27 H 1.981397 -5.219647 1.126280 0
M  V30 28 H 2.909678 -3.087502 0.522987 0
M  V30 29 H 2.335284 -1.264157 -2.560206 0
M  V30 30 H 3.355695 -1.561434 -1.159403 0
M  V30 31 H 2.069986 -0.095186 0.144729 0
M  V30 32 H 1.215516 1.471348 1.443301 0
M  V30 33 H -2.337741 4.536947 2.356506 0
M  V30 34 H -2.077225 5.899569 4.375170 0
M  V30 35 H -0.084385 5.665248 5.808020 0
M  V30 36 H 1.682313 4.091004 5.280258 0
M  V30 37 H 1.449400 2.670065 3.209817 0
M  V30 38 H -2.450278 3.292983 0.600761 0
M  V30 39 H 0.266475 -2.801880 -2.776675 0
M  V30 40 H -0.710860 -5.034163 -2.146794 0
M  V30 END ATOM
M  V30 BEGIN BOND
M  V30 1 1 1 2
M  V30 2 1 2 3
M  V30 3 2 3 4
M  V30 4 1 4 5
M  V30 5 2 5 6
M  V30 6 1 6 7
M  V30 7 1 7 8
M  V30 8 1 8 9
M  V30 9 2 9 10
M  V30 10 1 9 11
M  V30 11 1 11 12
M  V30 12 2 12 13
M  V30 13 1 13 14
M  V30 14 2 14 15
M  V30 15 1 15 16
M  V30 16 2 16 17
M  V30 17 1 17 18
M  V30 18 2 18 19
M  V30 19 1 13 20
M  V30 20 1 20 21
M  V30 21 1 6 22
M  V30 22 2 22 23
M  V30 23 1 23 3
M  V30 24 2 21 11
M  V30 25 1 19 14
M  V30 26 1 1 24
M  V30 27 1 1 25
M  V30 28 1 1 26
M  V30 29 1 4 27
M  V30 30 1 5 28
M  V30 31 1 7 29
M  V30 32 1 7 30
M  V30 33 1 8 31
M  V30 34 1 12 32
M  V30 35 1 15 33
M  V30 36 1 16 34
M  V30 37 1 17 35
M  V30 38 1 18 36
M  V30 39 1 19 37
M  V30 40 1 20 38
M  V30 41 1 22 39
M  V30 42 1 23 40
M  V30 END BOND
M  V30 END CTAB
M  END
>  <Dataset>  (134) 
ChEMBL_Kinases

>  <Ligand_Instance>  (134) 
nan

>  <PDB_ID>  (134) 
nan

>  <Standardized_SMILES>  (134) 
COc1ccc(CNC(=O)c2cc(-c3ccccc3)[nH]n2)cc1

>  <Name>  (134) 
nan

>  <Pocket>  (134) 
nan

>  <ATP_Site>  (134) 
nan

>  <Peripheral>  (134) 
nan

>  <Num_H_Atoms_ProtBoundConf>  (134) 
nan

>  <Num_Resolved_Atoms>  (134) 
nan

>  <Num_Not_Resolved_Atoms>  (134) 
nan

$$$$
CHEMBL3342918
     RDKit          3D

  0  0  0  0  0  0  0  0  0  0999 V3000
M  V30 BEGIN CTAB
M  V30 COUNTS 36 38 0 0 0
M  V30 BEGIN ATOM
M  V30 1 O 2.468467 -0.346427 2.428702 0
M  V30 2 C 1.314911 -0.488503 1.972015 0
M  V30 3 N 0.586508 -1.685492 2.179764 0
M  V30 4 C 1.047993 -2.850555 2.908967 0
M  V30 5 C 2.022489 -3.669700 2.135980 0
M  V30 6 C 1.533316 -4.654297 1.338204 0
M  V30 7 C 2.372993 -5.458270 0.591823 0
M  V30 8 C 3.740246 -5.306012 0.616222 0
M  V30 9 F 4.648416 -6.036402 -0.072945 0
M  V30 10 C 4.224803 -4.295684 1.436161 0
M  V30 11 C 3.387920 -3.486359 2.186910 0
M  V30 12 C 0.720788 0.621416 1.206320 0
M  V30 13 C -0.532249 0.715096 0.599712 0
M  V30 14 C -0.641862 1.950985 -0.005430 0
M  V30 15 C -1.790950 2.465108 -0.755742 0
M  V30 16 C -2.958147 1.759821 -0.961469 0
M  V30 17 C -3.988144 2.346413 -1.692209 0
M  V30 18 C -3.869226 3.619149 -2.216803 0
M  V30 19 C -2.716823 4.356500 -2.032250 0
M  V30 20 C -1.711316 3.732736 -1.295656 0
M  V30 21 N 0.522794 2.586444 0.233516 0
M  V30 22 N 1.296265 1.805475 0.933169 0
M  V30 23 H -0.383901 -1.701422 1.749830 0
M  V30 24 H 1.547449 -2.520847 3.860961 0
M  V30 25 H 0.177062 -3.487229 3.150402 0
M  V30 26 H 0.479755 -4.841995 1.259592 0
M  V30 27 H 2.027303 -6.261893 -0.063139 0
M  V30 28 H 5.303833 -4.122101 1.500797 0
M  V30 29 H 3.797309 -2.709463 2.816899 0
M  V30 30 H -1.264050 -0.069860 0.623224 0
M  V30 31 H -3.040089 0.765945 -0.546900 0
M  V30 32 H -4.915868 1.811513 -1.867315 0
M  V30 33 H -4.654581 4.101710 -2.790347 0
M  V30 34 H -2.538031 5.368017 -2.411330 0
M  V30 35 H -0.797000 4.298697 -1.140686 0
M  V30 36 H 0.795283 3.560614 -0.081964 0
M  V30 END ATOM
M  V30 BEGIN BOND
M  V30 1 2 1 2
M  V30 2 1 2 3
M  V30 3 1 3 4
M  V30 4 1 4 5
M  V30 5 2 5 6
M  V30 6 1 6 7
M  V30 7 2 7 8
M  V30 8 1 8 9
M  V30 9 1 8 10
M  V30 10 2 10 11
M  V30 11 1 2 12
M  V30 12 1 12 13
M  V30 13 2 13 14
M  V30 14 1 14 15
M  V30 15 2 15 16
M  V30 16 1 16 17
M  V30 17 2 17 18
M  V30 18 1 18 19
M  V30 19 2 19 20
M  V30 20 1 14 21
M  V30 21 1 21 22
M  V30 22 1 11 5
M  V30 23 2 22 12
M  V30 24 1 20 15
M  V30 25 1 3 23
M  V30 26 1 4 24
M  V30 27 1 4 25
M  V30 28 1 6 26
M  V30 29 1 7 27
M  V30 30 1 10 28
M  V30 31 1 11 29
M  V30 32 1 13 30
M  V30 33 1 16 31
M  V30 34 1 17 32
M  V30 35 1 18 33
M  V30 36 1 19 34
M  V30 37 1 20 35
M  V30 38 1 21 36
M  V30 END BOND
M  V30 END CTAB
M  END
>  <Dataset>  (135) 
ChEMBL_Kinases

>  <Ligand_Instance>  (135) 
nan

>  <PDB_ID>  (135) 
nan

>  <Standardized_SMILES>  (135) 
O=C(NCc1ccc(F)cc1)c1cc(-c2ccccc2)[nH]n1

>  <Name>  (135) 
nan

>  <Pocket>  (135) 
nan

>  <ATP_Site>  (135) 
nan

>  <Peripheral>  (135) 
nan

>  <Num_H_Atoms_ProtBoundConf>  (135) 
nan

>  <Num_Resolved_Atoms>  (135) 
nan

>  <Num_Not_Resolved_Atoms>  (135) 
nan

$$$$
CHEMBL3342917
     RDKit          3D

  0  0  0  0  0  0  0  0  0  0999 V3000
M  V30 BEGIN CTAB
M  V30 COUNTS 36 38 0 0 0
M  V30 BEGIN ATOM
M  V30 1 O -0.674001 -2.253940 0.742085 0
M  V30 2 C 0.229916 -1.695459 1.413388 0
M  V30 3 N 1.251112 -2.463438 1.987325 0
M  V30 4 C 1.446182 -3.885846 1.927887 0
M  V30 5 C 1.986779 -4.230450 0.590713 0
M  V30 6 C 3.371161 -4.231240 0.390503 0
M  V30 7 C 3.917604 -4.545797 -0.833323 0
M  V30 8 C 3.151174 -4.872443 -1.914320 0
M  V30 9 Cl 3.789278 -5.278071 -3.486736 0
M  V30 10 C 1.784215 -4.880330 -1.747894 0
M  V30 11 Cl 0.721604 -5.289298 -3.085790 0
M  V30 12 C 1.246659 -4.564859 -0.521596 0
M  V30 13 C 0.132055 -0.244222 1.539843 0
M  V30 14 C -0.862460 0.531789 0.984534 0
M  V30 15 C -0.663354 1.861907 1.290223 0
M  V30 16 C -1.514632 2.978259 0.871872 0
M  V30 17 C -2.634491 2.740896 0.101986 0
M  V30 18 C -3.458967 3.773821 -0.310945 0
M  V30 19 C -3.119608 5.054889 0.076492 0
M  V30 20 C -1.989879 5.314357 0.855629 0
M  V30 21 C -1.184832 4.262790 1.253273 0
M  V30 22 N 0.471496 1.867810 2.040645 0
M  V30 23 N 0.929296 0.628202 2.180776 0
M  V30 24 H 1.950765 -1.876787 2.528512 0
M  V30 25 H 2.169104 -4.209213 2.699093 0
M  V30 26 H 0.485357 -4.450362 2.038140 0
M  V30 27 H 4.044689 -3.983321 1.196706 0
M  V30 28 H 5.001522 -4.551988 -1.012523 0
M  V30 29 H 0.172054 -4.581547 -0.418508 0
M  V30 30 H -1.717242 0.199371 0.376392 0
M  V30 31 H -2.922526 1.746473 -0.214807 0
M  V30 32 H -4.333894 3.561289 -0.916098 0
M  V30 33 H -3.748337 5.863331 -0.235424 0
M  V30 34 H -1.794450 6.348791 1.116318 0
M  V30 35 H -0.307452 4.479046 1.859390 0
M  V30 36 H 0.887768 2.748720 2.431225 0
M  V30 END ATOM
M  V30 BEGIN BOND
M  V30 1 2 1 2
M  V30 2 1 2 3
M  V30 3 1 3 4
M  V30 4 1 4 5
M  V30 5 2 5 6
M  V30 6 1 6 7
M  V30 7 2 7 8
M  V30 8 1 8 9
M  V30 9 1 8 10
M  V30 10 1 10 11
M  V30 11 2 10 12
M  V30 12 1 2 13
M  V30 13 1 13 14
M  V30 14 2 14 15
M  V30 15 1 15 16
M  V30 16 2 16 17
M  V30 17 1 17 18
M  V30 18 2 18 19
M  V30 19 1 19 20
M  V30 20 2 20 21
M  V30 21 1 15 22
M  V30 22 1 22 23
M  V30 23 1 12 5
M  V30 24 2 23 13
M  V30 25 1 21 16
M  V30 26 1 3 24
M  V30 27 1 4 25
M  V30 28 1 4 26
M  V30 29 1 6 27
M  V30 30 1 7 28
M  V30 31 1 12 29
M  V30 32 1 14 30
M  V30 33 1 17 31
M  V30 34 1 18 32
M  V30 35 1 19 33
M  V30 36 1 20 34
M  V30 37 1 21 35
M  V30 38 1 22 36
M  V30 END BOND
M  V30 END CTAB
M  END
>  <Dataset>  (136) 
ChEMBL_Kinases

>  <Ligand_Instance>  (136) 
nan

>  <PDB_ID>  (136) 
nan

>  <Standardized_SMILES>  (136) 
O=C(NCc1ccc(Cl)c(Cl)c1)c1cc(-c2ccccc2)[nH]n1

>  <Name>  (136) 
nan

>  <Pocket>  (136) 
nan

>  <ATP_Site>  (136) 
nan

>  <Peripheral>  (136) 
nan

>  <Num_H_Atoms_ProtBoundConf>  (136) 
nan

>  <Num_Resolved_Atoms>  (136) 
nan

>  <Num_Not_Resolved_Atoms>  (136) 
nan

$$$$
CHEMBL3342916
     RDKit          3D

  0  0  0  0  0  0  0  0  0  0999 V3000
M  V30 BEGIN CTAB
M  V30 COUNTS 36 38 0 0 0
M  V30 BEGIN ATOM
M  V30 1 O 3.178862 -0.579171 0.027984 0
M  V30 2 C 2.082730 -0.583114 0.639427 0
M  V30 3 N 1.768645 -1.687398 1.474819 0
M  V30 4 C 2.557069 -2.865439 1.738375 0
M  V30 5 C 2.445852 -3.773055 0.565248 0
M  V30 6 C 1.434178 -4.702713 0.459072 0
M  V30 7 C 1.303853 -5.567066 -0.618675 0
M  V30 8 C 2.230438 -5.510601 -1.657603 0
M  V30 9 C 3.245194 -4.583119 -1.558114 0
M  V30 10 C 3.343551 -3.738854 -0.470296 0
M  V30 11 C 1.171958 0.545119 0.469710 0
M  V30 12 C -0.091852 0.753672 1.036909 0
M  V30 13 C -0.588170 1.962606 0.590372 0
M  V30 14 C -1.860335 2.613558 0.896129 0
M  V30 15 C -2.113973 3.835389 0.307733 0
M  V30 16 C -3.295210 4.511064 0.545303 0
M  V30 17 C -4.227063 3.920975 1.399751 0
M  V30 18 C -3.943540 2.682449 1.982046 0
M  V30 19 C -2.765227 2.006595 1.746125 0
M  V30 20 N 0.361452 2.458803 -0.223198 0
M  V30 21 N 1.390611 1.629293 -0.293314 0
M  V30 22 H 0.818267 -1.587758 1.945678 0
M  V30 23 H 2.143777 -3.372073 2.632624 0
M  V30 24 H 3.618493 -2.620464 1.963100 0
M  V30 25 H 0.679674 -4.800022 1.231308 0
M  V30 26 H 0.527613 -6.301044 -0.730687 0
M  V30 27 H 2.181230 -6.156691 -2.522005 0
M  V30 28 H 3.970269 -4.547106 -2.382627 0
M  V30 29 H 4.172678 -3.061747 -0.495518 0
M  V30 30 H -0.582213 0.086165 1.702127 0
M  V30 31 H -1.389181 4.286582 -0.351850 0
M  V30 32 H -3.461091 5.467341 0.066879 0
M  V30 33 H -5.165506 4.429182 1.605263 0
M  V30 34 H -4.727254 2.293666 2.636603 0
M  V30 35 H -2.583780 1.062303 2.208692 0
M  V30 36 H 0.381668 3.365803 -0.772404 0
M  V30 END ATOM
M  V30 BEGIN BOND
M  V30 1 2 1 2
M  V30 2 1 2 3
M  V30 3 1 3 4
M  V30 4 1 4 5
M  V30 5 2 5 6
M  V30 6 1 6 7
M  V30 7 2 7 8
M  V30 8 1 8 9
M  V30 9 2 9 10
M  V30 10 1 2 11
M  V30 11 1 11 12
M  V30 12 2 12 13
M  V30 13 1 13 14
M  V30 14 2 14 15
M  V30 15 1 15 16
M  V30 16 2 16 17
M  V30 17 1 17 18
M  V30 18 2 18 19
M  V30 19 1 13 20
M  V30 20 1 20 21
M  V30 21 1 10 5
M  V30 22 2 21 11
M  V30 23 1 19 14
M  V30 24 1 3 22
M  V30 25 1 4 23
M  V30 26 1 4 24
M  V30 27 1 6 25
M  V30 28 1 7 26
M  V30 29 1 8 27
M  V30 30 1 9 28
M  V30 31 1 10 29
M  V30 32 1 12 30
M  V30 33 1 15 31
M  V30 34 1 16 32
M  V30 35 1 17 33
M  V30 36 1 18 34
M  V30 37 1 19 35
M  V30 38 1 20 36
M  V30 END BOND
M  V30 END CTAB
M  END
>  <Dataset>  (137) 
ChEMBL_Kinases

>  <Ligand_Instance>  (137) 
nan

>  <PDB_ID>  (137) 
nan

>  <Standardized_SMILES>  (137) 
O=C(NCc1ccccc1)c1cc(-c2ccccc2)[nH]n1

>  <Name>  (137) 
nan

>  <Pocket>  (137) 
nan

>  <ATP_Site>  (137) 
nan

>  <Peripheral>  (137) 
nan

>  <Num_H_Atoms_ProtBoundConf>  (137) 
nan

>  <Num_Resolved_Atoms>  (137) 
nan

>  <Num_Not_Resolved_Atoms>  (137) 
nan

$$$$
CHEMBL3342915
     RDKit          3D

  0  0  0  0  0  0  0  0  0  0999 V3000
M  V30 BEGIN CTAB
M  V30 COUNTS 38 40 0 0 0
M  V30 BEGIN ATOM
M  V30 1 C 1.792147 -4.941846 4.005228 0
M  V30 2 C 3.052035 -4.890564 3.232240 0
M  V30 3 O 3.991534 -5.729166 3.299300 0
M  V30 4 C 3.255667 -3.773003 2.293253 0
M  V30 5 C 4.421487 -3.690328 1.552084 0
M  V30 6 C 4.623168 -2.655185 0.674781 0
M  V30 7 C 3.656867 -1.677643 0.521510 0
M  V30 8 C 2.501021 -1.749546 1.248953 0
M  V30 9 N 1.540276 -0.717490 1.052513 0
M  V30 10 C 1.356222 0.536146 1.698308 0
M  V30 11 O 2.116975 0.916875 2.629209 0
M  V30 12 C 0.231224 1.319445 1.193088 0
M  V30 13 C -0.692648 1.068288 0.199193 0
M  V30 14 C -1.578861 2.120283 0.082828 0
M  V30 15 C -2.700209 2.243832 -0.846157 0
M  V30 16 C -3.456849 3.393052 -0.782949 0
M  V30 17 C -4.524079 3.486360 -1.682842 0
M  V30 18 C -4.771119 2.459416 -2.570007 0
M  V30 19 C -4.004173 1.313944 -2.621516 0
M  V30 20 C -2.934852 1.208701 -1.727464 0
M  V30 21 N -1.179193 3.006400 1.016108 0
M  V30 22 N -0.119974 2.532279 1.662252 0
M  V30 23 C 2.293280 -2.791188 2.134563 0
M  V30 24 H 1.751600 -5.941765 4.520302 0
M  V30 25 H 1.727655 -4.119120 4.746467 0
M  V30 26 H 0.963389 -4.877317 3.268376 0
M  V30 27 H 5.202938 -4.432571 1.640603 0
M  V30 28 H 5.534192 -2.585159 0.091617 0
M  V30 29 H 3.868297 -0.876107 -0.190071 0
M  V30 30 H 0.916731 -1.064607 0.266775 0
M  V30 31 H -0.685465 0.146202 -0.391291 0
M  V30 32 H -3.225182 4.172403 -0.069924 0
M  V30 33 H -5.150618 4.365000 -1.677765 0
M  V30 34 H -5.594800 2.486208 -3.293834 0
M  V30 35 H -4.158073 0.483639 -3.297568 0
M  V30 36 H -2.302245 0.327157 -1.728977 0
M  V30 37 H -1.613810 3.939006 1.228804 0
M  V30 38 H 1.370164 -2.833163 2.704193 0
M  V30 END ATOM
M  V30 BEGIN BOND
M  V30 1 1 1 2
M  V30 2 2 2 3
M  V30 3 1 2 4
M  V30 4 2 4 5
M  V30 5 1 5 6
M  V30 6 2 6 7
M  V30 7 1 7 8
M  V30 8 1 8 9
M  V30 9 1 9 10
M  V30 10 2 10 11
M  V30 11 1 10 12
M  V30 12 1 12 13
M  V30 13 2 13 14
M  V30 14 1 14 15
M  V30 15 2 15 16
M  V30 16 1 16 17
M  V30 17 2 17 18
M  V30 18 1 18 19
M  V30 19 2 19 20
M  V30 20 1 14 21
M  V30 21 1 21 22
M  V30 22 2 8 23
M  V30 23 1 23 4
M  V30 24 2 22 12
M  V30 25 1 20 15
M  V30 26 1 1 24
M  V30 27 1 1 25
M  V30 28 1 1 26
M  V30 29 1 5 27
M  V30 30 1 6 28
M  V30 31 1 7 29
M  V30 32 1 9 30
M  V30 33 1 13 31
M  V30 34 1 16 32
M  V30 35 1 17 33
M  V30 36 1 18 34
M  V30 37 1 19 35
M  V30 38 1 20 36
M  V30 39 1 21 37
M  V30 40 1 23 38
M  V30 END BOND
M  V30 END CTAB
M  END
>  <Dataset>  (138) 
ChEMBL_Kinases

>  <Ligand_Instance>  (138) 
nan

>  <PDB_ID>  (138) 
nan

>  <Standardized_SMILES>  (138) 
CC(=O)c1cccc(NC(=O)c2cc(-c3ccccc3)[nH]n2)c1

>  <Name>  (138) 
nan

>  <Pocket>  (138) 
nan

>  <ATP_Site>  (138) 
nan

>  <Peripheral>  (138) 
nan

>  <Num_H_Atoms_ProtBoundConf>  (138) 
nan

>  <Num_Resolved_Atoms>  (138) 
nan

>  <Num_Not_Resolved_Atoms>  (138) 
nan

$$$$
CHEMBL3342913
     RDKit          3D

  0  0  0  0  0  0  0  0  0  0999 V3000
M  V30 BEGIN CTAB
M  V30 COUNTS 33 35 0 0 0
M  V30 BEGIN ATOM
M  V30 1 O 2.546245 -0.102687 2.643031 0
M  V30 2 C 1.676390 -0.325302 1.749511 0
M  V30 3 N 2.072850 -0.905779 0.516917 0
M  V30 4 C 3.311210 -1.343123 -0.024790 0
M  V30 5 C 3.633207 -2.658977 0.220844 0
M  V30 6 C 4.844611 -3.127539 -0.296077 0
M  V30 7 C 5.672409 -2.299098 -1.018616 0
M  V30 8 Cl 7.202678 -2.899560 -1.668879 0
M  V30 9 C 5.322290 -0.971613 -1.252486 0
M  V30 10 F 6.131238 -0.128657 -1.969306 0
M  V30 11 C 4.123918 -0.469714 -0.753468 0
M  V30 12 C 0.251681 -0.026776 1.880694 0
M  V30 13 C -0.792083 -0.222040 0.981296 0
M  V30 14 C -1.921578 0.238813 1.624341 0
M  V30 15 C -3.270894 0.238042 1.066674 0
M  V30 16 C -4.327048 0.727972 1.809727 0
M  V30 17 C -5.606704 0.732488 1.293350 0
M  V30 18 C -5.883559 0.246495 0.010545 0
M  V30 19 C -4.792901 -0.243219 -0.717766 0
M  V30 20 C -3.504343 -0.249594 -0.202199 0
M  V30 21 N -1.592308 0.691275 2.847980 0
M  V30 22 N -0.269586 0.523144 2.988405 0
M  V30 23 H 1.373019 -1.107369 -0.256028 0
M  V30 24 H 2.984813 -3.312893 0.788419 0
M  V30 25 H 5.104289 -4.168137 -0.104631 0
M  V30 26 H 3.841710 0.549482 -0.925645 0
M  V30 27 H -0.671790 -0.651826 -0.002668 0
M  V30 28 H -4.208238 1.127290 2.818980 0
M  V30 29 H -6.498948 1.093274 1.793384 0
M  V30 30 H -6.876674 0.236017 -0.423804 0
M  V30 31 H -4.997391 -0.628618 -1.728840 0
M  V30 32 H -2.705289 -0.643068 -0.819230 0
M  V30 33 H -2.232245 1.099226 3.565443 0
M  V30 END ATOM
M  V30 BEGIN BOND
M  V30 1 2 1 2
M  V30 2 1 2 3
M  V30 3 1 3 4
M  V30 4 2 4 5
M  V30 5 1 5 6
M  V30 6 2 6 7
M  V30 7 1 7 8
M  V30 8 1 7 9
M  V30 9 1 9 10
M  V30 10 2 9 11
M  V30 11 1 2 12
M  V30 12 1 12 13
M  V30 13 2 13 14
M  V30 14 1 14 15
M  V30 15 2 15 16
M  V30 16 1 16 17
M  V30 17 2 17 18
M  V30 18 1 18 19
M  V30 19 2 19 20
M  V30 20 1 14 21
M  V30 21 1 21 22
M  V30 22 1 11 4
M  V30 23 2 22 12
M  V30 24 1 20 15
M  V30 25 1 3 23
M  V30 26 1 5 24
M  V30 27 1 6 25
M  V30 28 1 11 26
M  V30 29 1 13 27
M  V30 30 1 16 28
M  V30 31 1 17 29
M  V30 32 1 18 30
M  V30 33 1 19 31
M  V30 34 1 20 32
M  V30 35 1 21 33
M  V30 END BOND
M  V30 END CTAB
M  END
>  <Dataset>  (139) 
ChEMBL_Kinases

>  <Ligand_Instance>  (139) 
nan

>  <PDB_ID>  (139) 
nan

>  <Standardized_SMILES>  (139) 
O=C(Nc1ccc(Cl)c(F)c1)c1cc(-c2ccccc2)[nH]n1

>  <Name>  (139) 
nan

>  <Pocket>  (139) 
nan

>  <ATP_Site>  (139) 
nan

>  <Peripheral>  (139) 
nan

>  <Num_H_Atoms_ProtBoundConf>  (139) 
nan

>  <Num_Resolved_Atoms>  (139) 
nan

>  <Num_Not_Resolved_Atoms>  (139) 
nan

$$$$
CHEMBL3342912
     RDKit          3D

  0  0  0  0  0  0  0  0  0  0999 V3000
M  V30 BEGIN CTAB
M  V30 COUNTS 33 35 0 0 0
M  V30 BEGIN ATOM
M  V30 1 O 2.088768 -1.518041 -1.712075 0
M  V30 2 C 1.344336 -1.255626 -0.711956 0
M  V30 3 N 1.531379 -1.869543 0.559840 0
M  V30 4 C 2.564971 -2.819632 0.799255 0
M  V30 5 C 2.286605 -4.173353 0.583514 0
M  V30 6 C 3.285710 -5.110683 0.813164 0
M  V30 7 C 4.532074 -4.662571 1.251644 0
M  V30 8 Br 5.923602 -5.923999 1.575650 0
M  V30 9 C 4.800414 -3.324091 1.462762 0
M  V30 10 C 3.810233 -2.389400 1.235702 0
M  V30 11 C 0.252358 -0.290475 -0.857614 0
M  V30 12 C -0.648361 0.114819 0.108508 0
M  V30 13 C -1.506924 1.045451 -0.483552 0
M  V30 14 C -2.589566 1.683802 0.257396 0
M  V30 15 C -2.846238 1.413413 1.605427 0
M  V30 16 C -3.890050 2.055575 2.245540 0
M  V30 17 C -4.683619 2.955863 1.586655 0
M  V30 18 C -4.429718 3.220110 0.262146 0
M  V30 19 C -3.399807 2.602990 -0.415291 0
M  V30 20 N -1.115446 1.182797 -1.774852 0
M  V30 21 N -0.072159 0.386623 -1.985716 0
M  V30 22 H 0.880656 -1.613886 1.361059 0
M  V30 23 H 1.329687 -4.539631 0.244778 0
M  V30 24 H 3.126369 -6.189249 0.661131 0
M  V30 25 H 5.758643 -2.950825 1.802580 0
M  V30 26 H 3.943794 -1.318053 1.378853 0
M  V30 27 H -0.673336 -0.238959 1.149895 0
M  V30 28 H -2.209158 0.693309 2.127013 0
M  V30 29 H -4.025822 1.793686 3.289040 0
M  V30 30 H -5.492187 3.430134 2.146920 0
M  V30 31 H -5.082019 3.938700 -0.219854 0
M  V30 32 H -3.266129 2.865924 -1.456833 0
M  V30 33 H -1.588080 1.822750 -2.455620 0
M  V30 END ATOM
M  V30 BEGIN BOND
M  V30 1 2 1 2
M  V30 2 1 2 3
M  V30 3 1 3 4
M  V30 4 2 4 5
M  V30 5 1 5 6
M  V30 6 2 6 7
M  V30 7 1 7 8
M  V30 8 1 7 9
M  V30 9 2 9 10
M  V30 10 1 2 11
M  V30 11 1 11 12
M  V30 12 2 12 13
M  V30 13 1 13 14
M  V30 14 2 14 15
M  V30 15 1 15 16
M  V30 16 2 16 17
M  V30 17 1 17 18
M  V30 18 2 18 19
M  V30 19 1 13 20
M  V30 20 1 20 21
M  V30 21 1 10 4
M  V30 22 2 21 11
M  V30 23 1 19 14
M  V30 24 1 3 22
M  V30 25 1 5 23
M  V30 26 1 6 24
M  V30 27 1 9 25
M  V30 28 1 10 26
M  V30 29 1 12 27
M  V30 30 1 15 28
M  V30 31 1 16 29
M  V30 32 1 17 30
M  V30 33 1 18 31
M  V30 34 1 19 32
M  V30 35 1 20 33
M  V30 END BOND
M  V30 END CTAB
M  END
>  <Dataset>  (140) 
ChEMBL_Kinases

>  <Ligand_Instance>  (140) 
nan

>  <PDB_ID>  (140) 
nan

>  <Standardized_SMILES>  (140) 
O=C(Nc1ccc(Br)cc1)c1cc(-c2ccccc2)[nH]n1

>  <Name>  (140) 
nan

>  <Pocket>  (140) 
nan

>  <ATP_Site>  (140) 
nan

>  <Peripheral>  (140) 
nan

>  <Num_H_Atoms_ProtBoundConf>  (140) 
nan

>  <Num_Resolved_Atoms>  (140) 
nan

>  <Num_Not_Resolved_Atoms>  (140) 
nan

$$$$
CHEMBL3342910
     RDKit          3D

  0  0  0  0  0  0  0  0  0  0999 V3000
M  V30 BEGIN CTAB
M  V30 COUNTS 37 39 0 0 0
M  V30 BEGIN ATOM
M  V30 1 C 1.183110 -6.498605 4.707328 0
M  V30 2 O 1.905373 -5.267219 4.821297 0
M  V30 3 C 1.751879 -4.336009 3.796733 0
M  V30 4 C 0.920799 -4.643695 2.735421 0
M  V30 5 C 0.778230 -3.695906 1.714308 0
M  V30 6 C 1.475003 -2.484441 1.804529 0
M  V30 7 N 1.322402 -1.529174 0.761340 0
M  V30 8 C 1.904713 -1.168095 -0.476766 0
M  V30 9 O 2.893566 -1.799039 -0.958608 0
M  V30 10 C 1.256264 -0.021111 -1.115948 0
M  V30 11 C 0.189183 0.778005 -0.750082 0
M  V30 12 C -0.005746 1.737833 -1.743383 0
M  V30 13 C -1.061401 2.770070 -1.696221 0
M  V30 14 C -1.940572 2.828080 -0.612880 0
M  V30 15 C -2.897400 3.834696 -0.662624 0
M  V30 16 C -2.987438 4.737703 -1.719997 0
M  V30 17 C -2.080857 4.607630 -2.745615 0
M  V30 18 C -1.111804 3.641295 -2.764449 0
M  V30 19 N 0.936180 1.499600 -2.674870 0
M  V30 20 N 1.673096 0.453480 -2.283703 0
M  V30 21 C 2.298163 -2.229730 2.897685 0
M  V30 22 C 2.455076 -3.153111 3.921101 0
M  V30 23 H 1.521058 -6.966419 3.756114 0
M  V30 24 H 0.082939 -6.297935 4.553485 0
M  V30 25 H 1.370711 -7.162222 5.547726 0
M  V30 26 H 0.384394 -5.579047 2.668234 0
M  V30 27 H 0.144829 -3.861036 0.847265 0
M  V30 28 H 0.497694 -1.030442 1.199014 0
M  V30 29 H -0.351486 0.610922 0.180370 0
M  V30 30 H -1.872414 2.129765 0.206732 0
M  V30 31 H -3.570857 3.861567 0.190095 0
M  V30 32 H -3.764271 5.488632 -1.674010 0
M  V30 33 H -2.211339 5.349900 -3.540325 0
M  V30 34 H -0.420968 3.578836 -3.593733 0
M  V30 35 H 1.015616 2.089053 -3.547434 0
M  V30 36 H 2.816727 -1.279646 2.924186 0
M  V30 37 H 3.097199 -2.950611 4.770656 0
M  V30 END ATOM
M  V30 BEGIN BOND
M  V30 1 1 1 2
M  V30 2 1 2 3
M  V30 3 2 3 4
M  V30 4 1 4 5
M  V30 5 2 5 6
M  V30 6 1 6 7
M  V30 7 1 7 8
M  V30 8 2 8 9
M  V30 9 1 8 10
M  V30 10 1 10 11
M  V30 11 2 11 12
M  V30 12 1 12 13
M  V30 13 2 13 14
M  V30 14 1 14 15
M  V30 15 2 15 16
M  V30 16 1 16 17
M  V30 17 2 17 18
M  V30 18 1 12 19
M  V30 19 1 19 20
M  V30 20 1 6 21
M  V30 21 2 21 22
M  V30 22 1 22 3
M  V30 23 2 20 10
M  V30 24 1 18 13
M  V30 25 1 1 23
M  V30 26 1 1 24
M  V30 27 1 1 25
M  V30 28 1 4 26
M  V30 29 1 5 27
M  V30 30 1 7 28
M  V30 31 1 11 29
M  V30 32 1 14 30
M  V30 33 1 15 31
M  V30 34 1 16 32
M  V30 35 1 17 33
M  V30 36 1 18 34
M  V30 37 1 19 35
M  V30 38 1 21 36
M  V30 39 1 22 37
M  V30 END BOND
M  V30 END CTAB
M  END
>  <Dataset>  (141) 
ChEMBL_Kinases

>  <Ligand_Instance>  (141) 
nan

>  <PDB_ID>  (141) 
nan

>  <Standardized_SMILES>  (141) 
COc1ccc(NC(=O)c2cc(-c3ccccc3)[nH]n2)cc1

>  <Name>  (141) 
nan

>  <Pocket>  (141) 
nan

>  <ATP_Site>  (141) 
nan

>  <Peripheral>  (141) 
nan

>  <Num_H_Atoms_ProtBoundConf>  (141) 
nan

>  <Num_Resolved_Atoms>  (141) 
nan

>  <Num_Not_Resolved_Atoms>  (141) 
nan

$$$$
CHEMBL3342909
     RDKit          3D

  0  0  0  0  0  0  0  0  0  0999 V3000
M  V30 BEGIN CTAB
M  V30 COUNTS 35 37 0 0 0
M  V30 BEGIN ATOM
M  V30 1 O 2.301421 -1.227852 2.916018 0
M  V30 2 C 1.445095 -0.848772 2.072722 0
M  V30 3 N 1.247726 -1.668918 0.922915 0
M  V30 4 C 1.742371 -2.887801 0.357312 0
M  V30 5 C 1.138636 -4.075854 0.666678 0
M  V30 6 C 1.600019 -5.282946 0.129073 0
M  V30 7 C 2.684531 -5.167732 -0.714153 0
M  V30 8 N 3.165002 -6.383467 -1.268140 0 CHG=1 VAL=4
M  V30 9 O 2.678754 -7.509394 -1.043086 0
M  V30 10 O 4.218883 -6.539254 -2.125675 0 CHG=-1 VAL=1
M  V30 11 C 3.346408 -4.015388 -1.074690 0
M  V30 12 C 2.831753 -2.849932 -0.500785 0
M  V30 13 C 0.588954 0.334872 2.076737 0
M  V30 14 C -0.365620 0.828833 1.211912 0
M  V30 15 C -0.837498 2.002278 1.762630 0
M  V30 16 C -1.875152 2.813888 1.111656 0
M  V30 17 C -2.460036 2.471995 -0.096724 0
M  V30 18 C -3.434593 3.322223 -0.615498 0
M  V30 19 C -3.808881 4.458866 0.038031 0
M  V30 20 C -3.241615 4.820106 1.241220 0
M  V30 21 C -2.265381 3.979156 1.772191 0
M  V30 22 N -0.171317 2.199513 2.936704 0
M  V30 23 N 0.681404 1.191535 3.112664 0
M  V30 24 H 0.565544 -1.470878 0.141682 0
M  V30 25 H 0.295153 -4.109273 1.330489 0
M  V30 26 H 1.151283 -6.231445 0.349696 0
M  V30 27 H 4.187472 -4.050417 -1.746331 0
M  V30 28 H 3.316971 -1.914219 -0.752137 0
M  V30 29 H -0.594960 0.283762 0.305409 0
M  V30 30 H -2.091713 1.548260 -0.534774 0
M  V30 31 H -3.855213 2.995142 -1.569991 0
M  V30 32 H -4.557555 5.075189 -0.399272 0
M  V30 33 H -3.550882 5.727597 1.747854 0
M  V30 34 H -1.816885 4.263879 2.722530 0
M  V30 35 H -0.365919 3.044992 3.544425 0
M  V30 END ATOM
M  V30 BEGIN BOND
M  V30 1 2 1 2
M  V30 2 1 2 3
M  V30 3 1 3 4
M  V30 4 2 4 5
M  V30 5 1 5 6
M  V30 6 2 6 7
M  V30 7 1 7 8
M  V30 8 2 8 9
M  V30 9 1 8 10
M  V30 10 1 7 11
M  V30 11 2 11 12
M  V30 12 1 2 13
M  V30 13 1 13 14
M  V30 14 2 14 15
M  V30 15 1 15 16
M  V30 16 2 16 17
M  V30 17 1 17 18
M  V30 18 2 18 19
M  V30 19 1 19 20
M  V30 20 2 20 21
M  V30 21 1 15 22
M  V30 22 1 22 23
M  V30 23 1 12 4
M  V30 24 2 23 13
M  V30 25 1 21 16
M  V30 26 1 3 24
M  V30 27 1 5 25
M  V30 28 1 6 26
M  V30 29 1 11 27
M  V30 30 1 12 28
M  V30 31 1 14 29
M  V30 32 1 17 30
M  V30 33 1 18 31
M  V30 34 1 19 32
M  V30 35 1 20 33
M  V30 36 1 21 34
M  V30 37 1 22 35
M  V30 END BOND
M  V30 END CTAB
M  END
>  <Dataset>  (142) 
ChEMBL_Kinases

>  <Ligand_Instance>  (142) 
nan

>  <PDB_ID>  (142) 
nan

>  <Standardized_SMILES>  (142) 
O=C(Nc1ccc([N+](=O)[O-])cc1)c1cc(-c2ccccc2)[nH]n1

>  <Name>  (142) 
nan

>  <Pocket>  (142) 
nan

>  <ATP_Site>  (142) 
nan

>  <Peripheral>  (142) 
nan

>  <Num_H_Atoms_ProtBoundConf>  (142) 
nan

>  <Num_Resolved_Atoms>  (142) 
nan

>  <Num_Not_Resolved_Atoms>  (142) 
nan

$$$$
CHEMBL3342908
     RDKit          3D

  0  0  0  0  0  0  0  0  0  0999 V3000
M  V30 BEGIN CTAB
M  V30 COUNTS 33 35 0 0 0
M  V30 BEGIN ATOM
M  V30 1 O 3.138624 0.166358 1.731946 0
M  V30 2 C 2.069219 -0.173886 1.207498 0
M  V30 3 N 2.035653 -1.157258 0.181404 0
M  V30 4 C 2.948693 -1.984071 -0.530572 0
M  V30 5 C 3.243396 -3.238873 -0.029766 0
M  V30 6 C 4.119896 -4.112351 -0.654249 0
M  V30 7 Cl 4.416136 -5.677269 0.073660 0
M  V30 8 C 4.698994 -3.665732 -1.823914 0
M  V30 9 C 4.438235 -2.430613 -2.359361 0
M  V30 10 C 3.555815 -1.579603 -1.709681 0
M  V30 11 Cl 3.146735 0.020219 -2.299844 0
M  V30 12 C 0.748342 0.351061 1.540822 0
M  V30 13 C -0.521941 0.092711 1.069259 0
M  V30 14 C -1.435261 0.879560 1.739673 0
M  V30 15 C -2.881642 0.915668 1.545521 0
M  V30 16 C -3.629182 1.778399 2.321241 0
M  V30 17 C -4.996965 1.816274 2.141506 0
M  V30 18 C -5.565249 0.976067 1.178439 0
M  V30 19 C -4.813915 0.107349 0.397115 0
M  V30 20 C -3.443045 0.086916 0.595448 0
M  V30 21 N -0.702305 1.600892 2.605721 0
M  V30 22 N 0.597938 1.290632 2.491919 0
M  V30 23 H 1.164134 -1.503886 -0.317979 0
M  V30 24 H 2.756024 -3.547782 0.905102 0
M  V30 25 H 5.388872 -4.357934 -2.311958 0
M  V30 26 H 4.896662 -2.089279 -3.276251 0
M  V30 27 H -0.698750 -0.623545 0.297546 0
M  V30 28 H -3.207592 2.441235 3.076720 0
M  V30 29 H -5.647484 2.468503 2.714281 0
M  V30 30 H -6.653737 0.995988 1.024794 0
M  V30 31 H -5.266087 -0.533919 -0.340880 0
M  V30 32 H -2.817005 -0.589769 -0.006631 0
M  V30 33 H -1.142230 2.295865 3.256581 0
M  V30 END ATOM
M  V30 BEGIN BOND
M  V30 1 2 1 2
M  V30 2 1 2 3
M  V30 3 1 3 4
M  V30 4 2 4 5
M  V30 5 1 5 6
M  V30 6 1 6 7
M  V30 7 2 6 8
M  V30 8 1 8 9
M  V30 9 2 9 10
M  V30 10 1 10 11
M  V30 11 1 2 12
M  V30 12 1 12 13
M  V30 13 2 13 14
M  V30 14 1 14 15
M  V30 15 2 15 16
M  V30 16 1 16 17
M  V30 17 2 17 18
M  V30 18 1 18 19
M  V30 19 2 19 20
M  V30 20 1 14 21
M  V30 21 1 21 22
M  V30 22 1 10 4
M  V30 23 2 22 12
M  V30 24 1 20 15
M  V30 25 1 3 23
M  V30 26 1 5 24
M  V30 27 1 8 25
M  V30 28 1 9 26
M  V30 29 1 13 27
M  V30 30 1 16 28
M  V30 31 1 17 29
M  V30 32 1 18 30
M  V30 33 1 19 31
M  V30 34 1 20 32
M  V30 35 1 21 33
M  V30 END BOND
M  V30 END CTAB
M  END
>  <Dataset>  (143) 
ChEMBL_Kinases

>  <Ligand_Instance>  (143) 
nan

>  <PDB_ID>  (143) 
nan

>  <Standardized_SMILES>  (143) 
O=C(Nc1cc(Cl)ccc1Cl)c1cc(-c2ccccc2)[nH]n1

>  <Name>  (143) 
nan

>  <Pocket>  (143) 
nan

>  <ATP_Site>  (143) 
nan

>  <Peripheral>  (143) 
nan

>  <Num_H_Atoms_ProtBoundConf>  (143) 
nan

>  <Num_Resolved_Atoms>  (143) 
nan

>  <Num_Not_Resolved_Atoms>  (143) 
nan

$$$$
CHEMBL3342907
     RDKit          3D

  0  0  0  0  0  0  0  0  0  0999 V3000
M  V30 BEGIN CTAB
M  V30 COUNTS 33 35 0 0 0
M  V30 BEGIN ATOM
M  V30 1 O 1.088591 -3.320843 -1.347537 0
M  V30 2 C 0.747032 -2.379745 -0.569172 0
M  V30 3 N 0.995733 -2.426042 0.830139 0
M  V30 4 C 1.589461 -3.317567 1.767663 0
M  V30 5 C 2.947550 -3.260384 2.085948 0
M  V30 6 C 3.484609 -4.154657 3.010532 0
M  V30 7 C 2.652180 -5.086994 3.597084 0
M  V30 8 C 1.302908 -5.151630 3.287679 0
M  V30 9 C 0.767874 -4.266702 2.371787 0
M  V30 10 C 0.068497 -1.148236 -0.986210 0
M  V30 11 C -0.375446 -0.032154 -0.304011 0
M  V30 12 C -0.948368 0.822893 -1.224866 0
M  V30 13 C -1.529045 2.112435 -0.856738 0
M  V30 14 C -1.548868 2.579806 0.458553 0
M  V30 15 C -2.110100 3.806462 0.753634 0
M  V30 16 C -2.658017 4.584586 -0.248936 0
M  V30 17 C -2.668622 4.174108 -1.577802 0
M  V30 18 C -2.093115 2.940206 -1.806689 0
M  V30 19 N -0.850586 0.228684 -2.447267 0
M  V30 20 N -0.243574 -0.939246 -2.277952 0
M  V30 21 H 0.734227 -1.678341 1.509526 0
M  V30 22 H 3.574636 -2.533983 1.623131 0
M  V30 23 H 4.518838 -4.140007 3.278087 0
M  V30 24 H 3.020823 -5.816461 4.332456 0
M  V30 25 H 0.670948 -5.900065 3.768370 0
M  V30 26 H -0.289354 -4.320535 2.132122 0
M  V30 27 H -0.237617 0.036942 0.763234 0
M  V30 28 H -1.114821 1.952909 1.220523 0
M  V30 29 H -2.084550 4.093947 1.796671 0
M  V30 30 H -3.097607 5.556673 0.016940 0
M  V30 31 H -3.089256 4.764097 -2.370194 0
M  V30 32 H -2.072935 2.566868 -2.830339 0
M  V30 33 H -1.211046 0.670903 -3.321259 0
M  V30 END ATOM
M  V30 BEGIN BOND
M  V30 1 2 1 2
M  V30 2 1 2 3
M  V30 3 1 3 4
M  V30 4 2 4 5
M  V30 5 1 5 6
M  V30 6 2 6 7
M  V30 7 1 7 8
M  V30 8 2 8 9
M  V30 9 1 2 10
M  V30 10 1 10 11
M  V30 11 2 11 12
M  V30 12 1 12 13
M  V30 13 2 13 14
M  V30 14 1 14 15
M  V30 15 2 15 16
M  V30 16 1 16 17
M  V30 17 2 17 18
M  V30 18 1 12 19
M  V30 19 1 19 20
M  V30 20 1 9 4
M  V30 21 2 20 10
M  V30 22 1 18 13
M  V30 23 1 3 21
M  V30 24 1 5 22
M  V30 25 1 6 23
M  V30 26 1 7 24
M  V30 27 1 8 25
M  V30 28 1 9 26
M  V30 29 1 11 27
M  V30 30 1 14 28
M  V30 31 1 15 29
M  V30 32 1 16 30
M  V30 33 1 17 31
M  V30 34 1 18 32
M  V30 35 1 19 33
M  V30 END BOND
M  V30 END CTAB
M  END
>  <Dataset>  (144) 
ChEMBL_Kinases

>  <Ligand_Instance>  (144) 
nan

>  <PDB_ID>  (144) 
nan

>  <Standardized_SMILES>  (144) 
O=C(Nc1ccccc1)c1cc(-c2ccccc2)[nH]n1

>  <Name>  (144) 
nan

>  <Pocket>  (144) 
nan

>  <ATP_Site>  (144) 
nan

>  <Peripheral>  (144) 
nan

>  <Num_H_Atoms_ProtBoundConf>  (144) 
nan

>  <Num_Resolved_Atoms>  (144) 
nan

>  <Num_Not_Resolved_Atoms>  (144) 
nan

$$$$
CHEMBL334285
     RDKit          3D

  0  0  0  0  0  0  0  0  0  0999 V3000
M  V30 BEGIN CTAB
M  V30 COUNTS 61 66 0 0 0
M  V30 BEGIN ATOM
M  V30 1 O 2.849194 -2.800412 2.334443 0
M  V30 2 C 3.157416 -2.578034 1.142452 0
M  V30 3 N 3.881316 -1.380129 0.803326 0
M  V30 4 C 4.425327 -0.221457 1.446362 0
M  V30 5 C 5.720477 -0.045836 1.949855 0
M  V30 6 C 6.018516 1.165894 2.527934 0
M  V30 7 C 5.093579 2.170848 2.614120 0
M  V30 8 C 3.818698 2.023873 2.128001 0
M  V30 9 C 3.472020 0.804877 1.531471 0
M  V30 10 C 2.083401 0.983596 1.137820 0
M  V30 11 O 1.401720 0.082616 0.554014 0
M  V30 12 C 1.582329 2.306813 1.491978 0
M  V30 13 C 0.518626 3.185889 1.483208 0
M  V30 14 C -0.802029 2.768200 0.880257 0
M  V30 15 C -1.931491 3.435780 0.741845 0
M  V30 16 C -2.988707 2.867621 0.164725 0
M  V30 17 C -2.894876 1.558463 -0.295730 0
M  V30 18 C -3.295714 0.256689 -0.917139 0
M  V30 19 O -2.839694 -0.192658 -2.021538 0
M  V30 20 N -4.253252 -0.461486 -0.148223 0
M  V30 21 C -4.842116 0.016810 1.111257 0
M  V30 22 C -6.244192 -0.557533 1.159713 0
M  V30 23 N -6.829884 -0.623112 -0.171455 0
M  V30 24 C -6.165088 -1.617080 -0.995111 0
M  V30 25 C -4.748134 -1.797651 -0.512022 0
M  V30 26 S -1.135856 1.227116 0.185145 0
M  V30 27 N 0.937585 4.294733 2.058859 0
M  V30 28 N 2.221730 4.159339 2.434664 0
M  V30 29 C 2.663424 2.919402 2.093578 0
M  V30 30 N 2.897963 -3.353720 -0.016768 0
M  V30 31 N 2.198338 -4.549616 0.081332 0
M  V30 32 C 0.791218 -4.232543 -0.092428 0
M  V30 33 C 0.105430 -5.303338 -0.888876 0
M  V30 34 O 0.581289 -5.266534 -2.208607 0
M  V30 35 C 1.966390 -5.204241 -2.269717 0
M  V30 36 C 2.593253 -5.506734 -0.905297 0
M  V30 37 H 4.191314 -1.112663 -0.181208 0
M  V30 38 H 6.300905 -0.941198 1.788481 0
M  V30 39 H 7.056620 1.192290 2.885115 0
M  V30 40 H 5.403053 3.083738 3.077435 0
M  V30 41 H -2.129817 4.448364 1.054392 0
M  V30 42 H -4.009280 3.068777 -0.109902 0
M  V30 43 H -4.226833 -0.295315 1.960943 0
M  V30 44 H -4.898091 1.124749 0.971581 0
M  V30 45 H -6.862617 0.164477 1.729586 0
M  V30 46 H -6.189960 -1.529462 1.660468 0
M  V30 47 H -6.731756 0.332078 -0.594476 0
M  V30 48 H -6.686892 -2.589650 -0.994602 0
M  V30 49 H -6.091905 -1.210241 -2.022432 0
M  V30 50 H -4.727291 -2.468276 0.376126 0
M  V30 51 H -4.132553 -2.281549 -1.282015 0
M  V30 52 H 2.732598 4.927893 2.910853 0
M  V30 53 H 3.180122 -3.135711 -0.984930 0
M  V30 54 H 0.718840 -3.292826 -0.690699 0
M  V30 55 H 0.343970 -4.096519 0.916557 0
M  V30 56 H 0.178292 -6.313105 -0.443452 0
M  V30 57 H -0.986945 -5.055129 -0.913685 0
M  V30 58 H 2.276352 -4.204335 -2.634307 0
M  V30 59 H 2.330785 -5.993850 -2.963512 0
M  V30 60 H 2.238943 -6.533044 -0.632857 0
M  V30 61 H 3.686126 -5.486552 -1.061479 0
M  V30 END ATOM
M  V30 BEGIN BOND
M  V30 1 2 1 2
M  V30 2 1 2 3
M  V30 3 1 3 4
M  V30 4 2 4 5
M  V30 5 1 5 6
M  V30 6 2 6 7
M  V30 7 1 7 8
M  V30 8 2 8 9
M  V30 9 1 9 10
M  V30 10 2 10 11
M  V30 11 1 10 12
M  V30 12 1 12 13
M  V30 13 1 13 14
M  V30 14 2 14 15
M  V30 15 1 15 16
M  V30 16 2 16 17
M  V30 17 1 17 18
M  V30 18 2 18 19
M  V30 19 1 18 20
M  V30 20 1 20 21
M  V30 21 1 21 22
M  V30 22 1 22 23
M  V30 23 1 23 24
M  V30 24 1 24 25
M  V30 25 1 17 26
M  V30 26 2 13 27
M  V30 27 1 27 28
M  V30 28 1 28 29
M  V30 29 1 2 30
M  V30 30 1 30 31
M  V30 31 1 31 32
M  V30 32 1 32 33
M  V30 33 1 33 34
M  V30 34 1 34 35
M  V30 35 1 35 36
M  V30 36 1 9 4
M  V30 37 2 29 12
M  V30 38 1 36 31
M  V30 39 1 29 8
M  V30 40 1 26 14
M  V30 41 1 25 20
M  V30 42 1 3 37
M  V30 43 1 5 38
M  V30 44 1 6 39
M  V30 45 1 7 40
M  V30 46 1 15 41
M  V30 47 1 16 42
M  V30 48 1 21 43
M  V30 49 1 21 44
M  V30 50 1 22 45
M  V30 51 1 22 46
M  V30 52 1 23 47
M  V30 53 1 24 48
M  V30 54 1 24 49
M  V30 55 1 25 50
M  V30 56 1 25 51
M  V30 57 1 28 52
M  V30 58 1 30 53
M  V30 59 1 32 54
M  V30 60 1 32 55
M  V30 61 1 33 56
M  V30 62 1 33 57
M  V30 63 1 35 58
M  V30 64 1 35 59
M  V30 65 1 36 60
M  V30 66 1 36 61
M  V30 END BOND
M  V30 END CTAB
M  END
>  <Dataset>  (145) 
ChEMBL_Kinases

>  <Ligand_Instance>  (145) 
nan

>  <PDB_ID>  (145) 
nan

>  <Standardized_SMILES>  (145) 
O=C(Nc1cccc2c1C(=O)c1c(-c3ccc(C(=O)N4CCNCC4)s3)n[nH]c1-2)NN1CCOCC1

>  <Name>  (145) 
nan

>  <Pocket>  (145) 
nan

>  <ATP_Site>  (145) 
nan

>  <Peripheral>  (145) 
nan

>  <Num_H_Atoms_ProtBoundConf>  (145) 
nan

>  <Num_Resolved_Atoms>  (145) 
nan

>  <Num_Not_Resolved_Atoms>  (145) 
nan

$$$$
CHEMBL334215
     RDKit          3D

  0  0  0  0  0  0  0  0  0  0999 V3000
M  V30 BEGIN CTAB
M  V30 COUNTS 46 50 0 0 0
M  V30 BEGIN ATOM
M  V30 1 O -0.101939 -3.915070 2.955209 0
M  V30 2 C 0.130252 -2.882156 2.230051 0
M  V30 3 C 1.312981 -2.198246 2.803359 0
M  V30 4 C 1.387591 -0.804222 2.168660 0
M  V30 5 C 0.469539 -0.636777 1.047784 0
M  V30 6 C 0.603484 0.608860 0.280035 0
M  V30 7 C 0.948491 1.855653 0.705895 0
M  V30 8 C 1.293927 2.413560 1.989761 0
M  V30 9 C 0.575819 2.588697 3.177102 0
M  V30 10 C 1.133548 3.183913 4.288024 0
M  V30 11 C 2.434330 3.609990 4.204021 0
M  V30 12 F 2.902626 4.190266 5.358232 0
M  V30 13 C 3.224265 3.491383 3.103297 0
M  V30 14 C 2.618005 2.884504 2.006189 0
M  V30 15 F 3.460556 2.789870 0.917340 0
M  V30 16 N 0.971397 2.682730 -0.374632 0
M  V30 17 C 0.651376 2.017578 -1.494483 0
M  V30 18 C 0.528197 2.355010 -2.821131 0
M  V30 19 C 0.176271 1.418317 -3.761030 0
M  V30 20 C -0.052359 0.125148 -3.341273 0
M  V30 21 C 0.090075 -0.140131 -1.994251 0
M  V30 22 N 0.434758 0.770539 -1.063376 0
M  V30 23 N -0.460619 -1.382675 0.544157 0
M  V30 24 N -0.712253 -2.627379 1.126717 0
M  V30 25 C -1.658924 -3.601991 0.717004 0
M  V30 26 C -1.074593 -4.453386 -0.220238 0
M  V30 27 Cl 0.587977 -4.352231 -0.817803 0
M  V30 28 C -1.789423 -5.492019 -0.780797 0
M  V30 29 C -3.093363 -5.632036 -0.362370 0
M  V30 30 C -3.710315 -4.816163 0.558275 0
M  V30 31 C -2.960596 -3.787024 1.096657 0
M  V30 32 Cl -3.545953 -2.637637 2.276588 0
M  V30 33 H 2.199230 -2.817675 2.576964 0
M  V30 34 H 1.280587 -2.117865 3.908193 0
M  V30 35 H 1.371562 -0.051545 2.958073 0
M  V30 36 H 2.419949 -0.757446 1.745849 0
M  V30 37 H -0.433011 2.188564 3.048639 0
M  V30 38 H 0.460272 3.250773 5.133605 0
M  V30 39 H 4.245149 3.839854 3.081915 0
M  V30 40 H 0.736541 3.411985 -3.011119 0
M  V30 41 H 0.098106 1.752760 -4.784221 0
M  V30 42 H -0.326483 -0.605746 -4.093061 0
M  V30 43 H -0.112562 -1.202208 -1.786926 0
M  V30 44 H -1.397169 -6.190104 -1.513780 0
M  V30 45 H -3.688341 -6.451924 -0.791368 0
M  V30 46 H -4.740663 -4.922767 0.892165 0
M  V30 END ATOM
M  V30 BEGIN BOND
M  V30 1 2 1 2
M  V30 2 1 2 3
M  V30 3 1 3 4
M  V30 4 1 4 5
M  V30 5 1 5 6
M  V30 6 2 6 7
M  V30 7 1 7 8
M  V30 8 2 8 9
M  V30 9 1 9 10
M  V30 10 2 10 11
M  V30 11 1 11 12
M  V30 12 1 11 13
M  V30 13 2 13 14
M  V30 14 1 14 15
M  V30 15 1 7 16
M  V30 16 2 16 17
M  V30 17 1 17 18
M  V30 18 2 18 19
M  V30 19 1 19 20
M  V30 20 2 20 21
M  V30 21 1 21 22
M  V30 22 2 5 23
M  V30 23 1 23 24
M  V30 24 1 24 25
M  V30 25 2 25 26
M  V30 26 1 26 27
M  V30 27 1 26 28
M  V30 28 2 28 29
M  V30 29 1 29 30
M  V30 30 2 30 31
M  V30 31 1 31 32
M  V30 32 1 24 2
M  V30 33 1 31 25
M  V30 34 1 22 6
M  V30 35 1 14 8
M  V30 36 1 22 17
M  V30 37 1 3 33
M  V30 38 1 3 34
M  V30 39 1 4 35
M  V30 40 1 4 36
M  V30 41 1 9 37
M  V30 42 1 10 38
M  V30 43 1 13 39
M  V30 44 1 18 40
M  V30 45 1 19 41
M  V30 46 1 20 42
M  V30 47 1 21 43
M  V30 48 1 28 44
M  V30 49 1 29 45
M  V30 50 1 30 46
M  V30 END BOND
M  V30 END CTAB
M  END
>  <Dataset>  (146) 
ChEMBL_Kinases

>  <Ligand_Instance>  (146) 
nan

>  <PDB_ID>  (146) 
nan

>  <Standardized_SMILES>  (146) 
O=C1CCC(c2c(-c3ccc(F)cc3F)nc3ccccn23)=NN1c1c(Cl)cccc1Cl

>  <Name>  (146) 
nan

>  <Pocket>  (146) 
nan

>  <ATP_Site>  (146) 
nan

>  <Peripheral>  (146) 
nan

>  <Num_H_Atoms_ProtBoundConf>  (146) 
nan

>  <Num_Resolved_Atoms>  (146) 
nan

>  <Num_Not_Resolved_Atoms>  (146) 
nan

$$$$
CHEMBL3341952
     RDKit          3D

  0  0  0  0  0  0  0  0  0  0999 V3000
M  V30 BEGIN CTAB
M  V30 COUNTS 51 54 0 0 0
M  V30 BEGIN ATOM
M  V30 1 C -0.245156 -5.176943 3.485811 0
M  V30 2 O 0.073789 -6.239243 2.582120 0
M  V30 3 C -0.116858 -6.055711 1.218509 0
M  V30 4 C -0.606636 -4.879257 0.687361 0
M  V30 5 C -0.791630 -4.711000 -0.678577 0
M  V30 6 C -1.317603 -3.400927 -1.048420 0
M  V30 7 C -0.750167 -2.274220 -0.441962 0
M  V30 8 C -1.218483 -1.010232 -0.762770 0
M  V30 9 C -0.634740 0.175964 -0.136550 0
M  V30 10 C 0.725014 0.092564 0.189865 0
M  V30 11 C 1.302467 1.197498 0.782176 0
M  V30 12 C 0.642617 2.370677 1.074454 0
M  V30 13 N 1.221560 3.516732 1.682457 0
M  V30 14 C 0.427112 4.691162 1.949908 0
M  V30 15 C 1.215246 5.631893 2.811271 0
M  V30 16 N 2.450311 6.050604 2.179386 0
M  V30 17 C 3.155653 4.956978 1.581382 0
M  V30 18 C 2.610956 3.620271 2.079152 0
M  V30 19 C -0.693053 2.401750 0.733606 0
M  V30 20 C -1.337489 1.335211 0.138903 0
M  V30 21 C -2.242889 -0.823711 -1.675703 0
M  V30 22 N -2.766347 -1.930663 -2.240748 0
M  V30 23 C -2.328909 -3.174767 -1.946236 0
M  V30 24 N -2.908266 -4.300556 -2.563823 0
M  V30 25 C -0.466220 -5.770700 -1.499648 0
M  V30 26 C 0.022089 -6.939941 -0.955284 0
M  V30 27 C 0.208426 -7.115127 0.396852 0
M  V30 28 Cl 0.834809 -8.629344 1.032976 0
M  V30 29 H 0.459985 -4.343912 3.318689 0
M  V30 30 H -1.287246 -4.813293 3.320109 0
M  V30 31 H -0.107564 -5.540769 4.524143 0
M  V30 32 H -0.831465 -4.107944 1.422051 0
M  V30 33 H 0.061377 -2.412325 0.281538 0
M  V30 34 H 1.309748 -0.794184 -0.008058 0
M  V30 35 H 2.345817 1.126812 1.030102 0
M  V30 36 H -0.421638 4.326705 2.600437 0
M  V30 37 H -0.031735 5.161447 1.085196 0
M  V30 38 H 1.445481 5.218885 3.799572 0
M  V30 39 H 0.593566 6.536832 2.977632 0
M  V30 40 H 2.217889 6.754190 1.465308 0
M  V30 41 H 4.251418 5.000622 1.756881 0
M  V30 42 H 2.980171 4.974986 0.490867 0
M  V30 43 H 2.631591 3.673735 3.203816 0
M  V30 44 H 3.241666 2.784428 1.780729 0
M  V30 45 H -1.251321 3.299409 0.943252 0
M  V30 46 H -2.384445 1.333555 -0.138615 0
M  V30 47 H -2.629363 0.159243 -1.945489 0
M  V30 48 H -3.419818 -5.074182 -2.100766 0
M  V30 49 H -3.015114 -4.697177 -3.542431 0
M  V30 50 H -0.633857 -5.574569 -2.550424 0
M  V30 51 H 0.256956 -7.728163 -1.646349 0
M  V30 END ATOM
M  V30 BEGIN BOND
M  V30 1 1 1 2
M  V30 2 1 2 3
M  V30 3 2 3 4
M  V30 4 1 4 5
M  V30 5 1 5 6
M  V30 6 2 6 7
M  V30 7 1 7 8
M  V30 8 1 8 9
M  V30 9 2 9 10
M  V30 10 1 10 11
M  V30 11 2 11 12
M  V30 12 1 12 13
M  V30 13 1 13 14
M  V30 14 1 14 15
M  V30 15 1 15 16
M  V30 16 1 16 17
M  V30 17 1 17 18
M  V30 18 1 12 19
M  V30 19 2 19 20
M  V30 20 2 8 21
M  V30 21 1 21 22
M  V30 22 2 22 23
M  V30 23 1 23 24
M  V30 24 2 5 25
M  V30 25 1 25 26
M  V30 26 2 26 27
M  V30 27 1 27 28
M  V30 28 1 27 3
M  V30 29 1 23 6
M  V30 30 1 20 9
M  V30 31 1 18 13
M  V30 32 1 1 29
M  V30 33 1 1 30
M  V30 34 1 1 31
M  V30 35 1 4 32
M  V30 36 1 7 33
M  V30 37 1 10 34
M  V30 38 1 11 35
M  V30 39 1 14 36
M  V30 40 1 14 37
M  V30 41 1 15 38
M  V30 42 1 15 39
M  V30 43 1 16 40
M  V30 44 1 17 41
M  V30 45 1 17 42
M  V30 46 1 18 43
M  V30 47 1 18 44
M  V30 48 1 19 45
M  V30 49 1 20 46
M  V30 50 1 21 47
M  V30 51 1 24 48
M  V30 52 1 24 49
M  V30 53 1 25 50
M  V30 54 1 26 51
M  V30 END BOND
M  V30 END CTAB
M  END
>  <Dataset>  (147) 
ChEMBL_Kinases

>  <Ligand_Instance>  (147) 
nan

>  <PDB_ID>  (147) 
nan

>  <Standardized_SMILES>  (147) 
COc1cc(-c2cc(-c3ccc(N4CCNCC4)cc3)cnc2N)ccc1Cl

>  <Name>  (147) 
nan

>  <Pocket>  (147) 
nan

>  <ATP_Site>  (147) 
nan

>  <Peripheral>  (147) 
nan

>  <Num_H_Atoms_ProtBoundConf>  (147) 
nan

>  <Num_Resolved_Atoms>  (147) 
nan

>  <Num_Not_Resolved_Atoms>  (147) 
nan

$$$$
CHEMBL3341951
     RDKit          3D

  0  0  0  0  0  0  0  0  0  0999 V3000
M  V30 BEGIN CTAB
M  V30 COUNTS 57 60 0 0 0
M  V30 BEGIN ATOM
M  V30 1 C 1.377216 -3.652495 4.480740 0
M  V30 2 C 1.891212 -4.173173 3.153763 0
M  V30 3 C 1.682597 -5.690734 3.220433 0
M  V30 4 O 3.218938 -3.839201 2.913533 0
M  V30 5 C 3.637823 -3.144870 1.798568 0
M  V30 6 C 5.026637 -2.971616 1.857112 0
M  V30 7 C 5.697866 -2.291956 0.834383 0
M  V30 8 C 5.031451 -1.772688 -0.256158 0
M  V30 9 C 3.666470 -1.966643 -0.271897 0
M  V30 10 C 2.789684 -1.483850 -1.351281 0
M  V30 11 C 1.599542 -0.849206 -1.029231 0
M  V30 12 C 0.700015 -0.355537 -1.979175 0
M  V30 13 C -0.534077 0.301506 -1.553215 0
M  V30 14 C -0.520059 1.019172 -0.351699 0
M  V30 15 C -1.662201 1.656634 0.091530 0
M  V30 16 C -2.844045 1.617853 -0.611491 0
M  V30 17 N -4.003203 2.278740 -0.129436 0
M  V30 18 C -4.079197 2.959987 1.137426 0
M  V30 19 C -5.480115 3.003761 1.689126 0
M  V30 20 N -6.281591 1.879223 1.334585 0
M  V30 21 C -6.280712 1.542822 -0.051637 0
M  V30 22 C -5.266078 2.371676 -0.826619 0
M  V30 23 C -2.832556 0.905988 -1.789727 0
M  V30 24 C -1.715099 0.251959 -2.274036 0
M  V30 25 C 1.069699 -0.538071 -3.316430 0
M  V30 26 N 2.226695 -1.154856 -3.639607 0
M  V30 27 C 3.075012 -1.621015 -2.695613 0
M  V30 28 N 4.311618 -2.280439 -3.019353 0
M  V30 29 C 2.962588 -2.627873 0.709774 0
M  V30 30 H 1.799827 -2.663914 4.733263 0
M  V30 31 H 0.272775 -3.671358 4.530562 0
M  V30 32 H 1.746705 -4.337851 5.272430 0
M  V30 33 H 1.208936 -3.827849 2.366607 0
M  V30 34 H 0.563384 -5.817028 3.279518 0
M  V30 35 H 2.095340 -6.129570 4.132322 0
M  V30 36 H 2.012832 -6.178854 2.295320 0
M  V30 37 H 5.710982 -3.310783 2.634767 0
M  V30 38 H 6.774291 -2.133790 0.837710 0
M  V30 39 H 5.476037 -1.244245 -1.071439 0
M  V30 40 H 1.380796 -0.744299 0.020744 0
M  V30 41 H 0.415151 1.049093 0.202943 0
M  V30 42 H -1.536297 2.180098 1.027247 0
M  V30 43 H -3.771794 4.014896 0.935225 0
M  V30 44 H -3.355980 2.515553 1.836429 0
M  V30 45 H -5.960447 3.974583 1.483107 0
M  V30 46 H -5.352487 2.954872 2.810260 0
M  V30 47 H -6.133824 1.043168 1.942712 0
M  V30 48 H -6.197881 0.456448 -0.251987 0
M  V30 49 H -7.280257 1.886148 -0.452072 0
M  V30 50 H -5.660214 3.417658 -0.794347 0
M  V30 51 H -5.225815 2.041198 -1.877342 0
M  V30 52 H -3.706013 0.816777 -2.408868 0
M  V30 53 H -1.700872 -0.305962 -3.194488 0
M  V30 54 H 0.398219 -0.169034 -4.068748 0
M  V30 55 H 4.654928 -3.247121 -2.957920 0
M  V30 56 H 5.054235 -1.641260 -3.413344 0
M  V30 57 H 1.913329 -2.816422 0.766113 0
M  V30 END ATOM
M  V30 BEGIN BOND
M  V30 1 1 1 2
M  V30 2 1 2 3
M  V30 3 1 2 4
M  V30 4 1 4 5
M  V30 5 2 5 6
M  V30 6 1 6 7
M  V30 7 2 7 8
M  V30 8 1 8 9
M  V30 9 1 9 10
M  V30 10 2 10 11
M  V30 11 1 11 12
M  V30 12 1 12 13
M  V30 13 2 13 14
M  V30 14 1 14 15
M  V30 15 2 15 16
M  V30 16 1 16 17
M  V30 17 1 17 18
M  V30 18 1 18 19
M  V30 19 1 19 20
M  V30 20 1 20 21
M  V30 21 1 21 22
M  V30 22 1 16 23
M  V30 23 2 23 24
M  V30 24 2 12 25
M  V30 25 1 25 26
M  V30 26 2 26 27
M  V30 27 1 27 28
M  V30 28 2 9 29
M  V30 29 1 29 5
M  V30 30 1 27 10
M  V30 31 1 24 13
M  V30 32 1 22 17
M  V30 33 1 1 30
M  V30 34 1 1 31
M  V30 35 1 1 32
M  V30 36 1 2 33
M  V30 37 1 3 34
M  V30 38 1 3 35
M  V30 39 1 3 36
M  V30 40 1 6 37
M  V30 41 1 7 38
M  V30 42 1 8 39
M  V30 43 1 11 40
M  V30 44 1 14 41
M  V30 45 1 15 42
M  V30 46 1 18 43
M  V30 47 1 18 44
M  V30 48 1 19 45
M  V30 49 1 19 46
M  V30 50 1 20 47
M  V30 51 1 21 48
M  V30 52 1 21 49
M  V30 53 1 22 50
M  V30 54 1 22 51
M  V30 55 1 23 52
M  V30 56 1 24 53
M  V30 57 1 25 54
M  V30 58 1 28 55
M  V30 59 1 28 56
M  V30 60 1 29 57
M  V30 END BOND
M  V30 END CTAB
M  END
>  <Dataset>  (148) 
ChEMBL_Kinases

>  <Ligand_Instance>  (148) 
nan

>  <PDB_ID>  (148) 
nan

>  <Standardized_SMILES>  (148) 
CC(C)Oc1cccc(-c2cc(-c3ccc(N4CCNCC4)cc3)cnc2N)c1

>  <Name>  (148) 
nan

>  <Pocket>  (148) 
nan

>  <ATP_Site>  (148) 
nan

>  <Peripheral>  (148) 
nan

>  <Num_H_Atoms_ProtBoundConf>  (148) 
nan

>  <Num_Resolved_Atoms>  (148) 
nan

>  <Num_Not_Resolved_Atoms>  (148) 
nan

$$$$
CHEMBL3338888
     RDKit          3D

  0  0  0  0  0  0  0  0  0  0999 V3000
M  V30 BEGIN CTAB
M  V30 COUNTS 32 35 0 0 0
M  V30 BEGIN ATOM
M  V30 1 C -2.340739 -2.511145 3.300893 0
M  V30 2 O -1.905968 -3.400860 2.273066 0
M  V30 3 C -1.055168 -2.969734 1.255443 0
M  V30 4 C -0.768419 -4.017356 0.367208 0
M  V30 5 C 0.061002 -3.768004 -0.703012 0
M  V30 6 C 0.575332 -2.502575 -0.858945 0
M  V30 7 N 1.393124 -2.003380 -1.798375 0
M  V30 8 C 1.620407 -0.708400 -1.530977 0
M  V30 9 C 2.386467 0.190883 -2.213694 0
M  V30 10 O 3.015551 -0.119182 -3.253593 0
M  V30 11 N 2.436389 1.420072 -1.723149 0
M  V30 12 N 1.787934 1.743246 -0.649595 0
M  V30 13 C 1.012435 0.954090 0.096931 0
M  V30 14 C 0.326212 1.414537 1.287352 0
M  V30 15 C 0.506185 2.735080 1.633705 0
M  V30 16 C -0.154234 3.132063 2.758286 0
M  V30 17 C -0.776916 1.969938 3.116582 0
M  V30 18 O -0.446302 1.103430 2.248482 0
M  V30 19 C 0.950998 -0.316491 -0.396098 0
M  V30 20 C 0.312904 -1.459881 -0.007681 0
M  V30 21 C -0.507663 -1.725980 1.042227 0
M  V30 22 H -1.447026 -1.893637 3.607806 0
M  V30 23 H -2.707205 -3.072712 4.183974 0
M  V30 24 H -3.103859 -1.788729 2.926526 0
M  V30 25 H -1.136003 -5.014461 0.436268 0
M  V30 26 H 0.314485 -4.531189 -1.413738 0
M  V30 27 H 1.779154 -2.541975 -2.595704 0
M  V30 28 H 3.008189 2.153122 -2.204484 0
M  V30 29 H 1.099872 3.535224 1.151413 0
M  V30 30 H -0.236840 4.056186 3.298500 0
M  V30 31 H -1.445526 1.706648 3.951171 0
M  V30 32 H -0.856885 -1.113124 1.820584 0
M  V30 END ATOM
M  V30 BEGIN BOND
M  V30 1 1 1 2
M  V30 2 1 2 3
M  V30 3 2 3 4
M  V30 4 1 4 5
M  V30 5 2 5 6
M  V30 6 1 6 7
M  V30 7 1 7 8
M  V30 8 1 8 9
M  V30 9 2 9 10
M  V30 10 1 9 11
M  V30 11 1 11 12
M  V30 12 2 12 13
M  V30 13 1 13 14
M  V30 14 2 14 15
M  V30 15 1 15 16
M  V30 16 2 16 17
M  V30 17 1 17 18
M  V30 18 1 13 19
M  V30 19 1 19 20
M  V30 20 2 20 21
M  V30 21 1 21 3
M  V30 22 1 20 6
M  V30 23 2 19 8
M  V30 24 1 18 14
M  V30 25 1 1 22
M  V30 26 1 1 23
M  V30 27 1 1 24
M  V30 28 1 4 25
M  V30 29 1 5 26
M  V30 30 1 7 27
M  V30 31 1 11 28
M  V30 32 1 15 29
M  V30 33 1 16 30
M  V30 34 1 17 31
M  V30 35 1 21 32
M  V30 END BOND
M  V30 END CTAB
M  END
>  <Dataset>  (149) 
ChEMBL_Kinases

>  <Ligand_Instance>  (149) 
nan

>  <PDB_ID>  (149) 
nan

>  <Standardized_SMILES>  (149) 
COc1ccc2[nH]c3c(=O)[nH]nc(-c4ccco4)c3c2c1

>  <Name>  (149) 
nan

>  <Pocket>  (149) 
nan

>  <ATP_Site>  (149) 
nan

>  <Peripheral>  (149) 
nan

>  <Num_H_Atoms_ProtBoundConf>  (149) 
nan

>  <Num_Resolved_Atoms>  (149) 
nan

>  <Num_Not_Resolved_Atoms>  (149) 
nan

$$$$
CHEMBL3338891
     RDKit          3D

  0  0  0  0  0  0  0  0  0  0999 V3000
M  V30 BEGIN CTAB
M  V30 COUNTS 41 43 0 0 0
M  V30 BEGIN ATOM
M  V30 1 C 0.581617 -7.289670 3.549706 0
M  V30 2 O 1.230250 -7.133333 2.292710 0
M  V30 3 C 1.001751 -5.950466 1.601302 0
M  V30 4 C 0.169784 -4.962545 2.124703 0
M  V30 5 C -0.085112 -3.767479 1.467444 0
M  V30 6 C 0.534691 -3.613351 0.261911 0
M  V30 7 N 0.330059 -2.430790 -0.472589 0
M  V30 8 C -0.466255 -1.288715 -0.207823 0
M  V30 9 C 0.035030 -0.009621 -0.082179 0
M  V30 10 C -0.732731 1.107612 0.173949 0
M  V30 11 C -0.171662 2.449709 0.301524 0
M  V30 12 C 1.165923 2.769174 0.185701 0
M  V30 13 C 1.594426 4.076096 0.324238 0
M  V30 14 C 0.693398 5.089854 0.581455 0
M  V30 15 O 1.026032 6.429707 0.736433 0
M  V30 16 C 2.403677 6.791572 0.621922 0
M  V30 17 C -0.654437 4.800739 0.702947 0
M  V30 18 C -1.053151 3.481520 0.559001 0
M  V30 19 N -2.055820 0.860079 0.298503 0
M  V30 20 N -2.546033 -0.362638 0.179715 0
M  V30 21 C -1.823414 -1.469269 -0.069411 0
M  V30 22 O -2.434372 -2.564633 -0.155131 0
M  V30 23 C 1.370612 -4.535094 -0.328880 0
M  V30 24 C 1.601551 -5.726936 0.366600 0
M  V30 25 H 0.917290 -6.423089 4.182273 0
M  V30 26 H 0.839800 -8.242852 4.034702 0
M  V30 27 H -0.515020 -7.159665 3.415680 0
M  V30 28 H -0.291965 -5.156275 3.095062 0
M  V30 29 H -0.732320 -3.067660 1.939022 0
M  V30 30 H 0.761171 -2.191350 -1.390799 0
M  V30 31 H 1.104258 0.083382 -0.198442 0
M  V30 32 H 1.856994 1.964477 -0.015534 0
M  V30 33 H 2.639617 4.340425 0.235878 0
M  V30 34 H 2.982164 6.161218 1.328875 0
M  V30 35 H 2.565864 7.855275 0.790251 0
M  V30 36 H 2.711697 6.460630 -0.397605 0
M  V30 37 H -1.393127 5.575736 0.905637 0
M  V30 38 H -2.122951 3.273712 0.658591 0
M  V30 39 H -3.581399 -0.453055 0.292247 0
M  V30 40 H 1.839647 -4.367950 -1.287385 0
M  V30 41 H 2.255298 -6.500531 -0.047123 0
M  V30 END ATOM
M  V30 BEGIN BOND
M  V30 1 1 1 2
M  V30 2 1 2 3
M  V30 3 2 3 4
M  V30 4 1 4 5
M  V30 5 2 5 6
M  V30 6 1 6 7
M  V30 7 1 7 8
M  V30 8 2 8 9
M  V30 9 1 9 10
M  V30 10 1 10 11
M  V30 11 2 11 12
M  V30 12 1 12 13
M  V30 13 2 13 14
M  V30 14 1 14 15
M  V30 15 1 15 16
M  V30 16 1 14 17
M  V30 17 2 17 18
M  V30 18 2 10 19
M  V30 19 1 19 20
M  V30 20 1 20 21
M  V30 21 2 21 22
M  V30 22 1 6 23
M  V30 23 2 23 24
M  V30 24 1 24 3
M  V30 25 1 21 8
M  V30 26 1 18 11
M  V30 27 1 1 25
M  V30 28 1 1 26
M  V30 29 1 1 27
M  V30 30 1 4 28
M  V30 31 1 5 29
M  V30 32 1 7 30
M  V30 33 1 9 31
M  V30 34 1 12 32
M  V30 35 1 13 33
M  V30 36 1 16 34
M  V30 37 1 16 35
M  V30 38 1 16 36
M  V30 39 1 17 37
M  V30 40 1 18 38
M  V30 41 1 20 39
M  V30 42 1 23 40
M  V30 43 1 24 41
M  V30 END BOND
M  V30 END CTAB
M  END
>  <Dataset>  (150) 
ChEMBL_Kinases

>  <Ligand_Instance>  (150) 
nan

>  <PDB_ID>  (150) 
nan

>  <Standardized_SMILES>  (150) 
COc1ccc(Nc2cc(-c3ccc(OC)cc3)n[nH]c2=O)cc1

>  <Name>  (150) 
nan

>  <Pocket>  (150) 
nan

>  <ATP_Site>  (150) 
nan

>  <Peripheral>  (150) 
nan

>  <Num_H_Atoms_ProtBoundConf>  (150) 
nan

>  <Num_Resolved_Atoms>  (150) 
nan

>  <Num_Not_Resolved_Atoms>  (150) 
nan

$$$$
CHEMBL3338893
     RDKit          3D

  0  0  0  0  0  0  0  0  0  0999 V3000
M  V30 BEGIN CTAB
M  V30 COUNTS 36 38 0 0 0
M  V30 BEGIN ATOM
M  V30 1 C 1.988526 -6.544038 3.194598 0
M  V30 2 O 1.352693 -5.351974 3.636178 0
M  V30 3 C 1.015946 -4.409402 2.672409 0
M  V30 4 C 1.273946 -4.591154 1.331368 0
M  V30 5 C 0.960557 -3.688399 0.336083 0
M  V30 6 C 0.344957 -2.532403 0.756407 0
M  V30 7 N -0.011112 -1.549793 -0.208098 0
M  V30 8 C -0.629897 -0.292790 -0.161883 0
M  V30 9 C -0.033327 0.875308 -0.592085 0
M  V30 10 C -0.672125 2.083396 -0.529937 0
M  V30 11 C -0.108282 3.354882 -0.963668 0
M  V30 12 C -0.869441 4.480615 -0.838740 0
M  V30 13 C -0.310055 5.688046 -1.260270 0
M  V30 14 N 0.925273 5.770821 -1.772493 0
M  V30 15 C 1.712288 4.674484 -1.912623 0
M  V30 16 C 1.158326 3.480408 -1.495448 0
M  V30 17 N -1.918915 2.101076 -0.029354 0
M  V30 18 N -2.527156 0.983280 0.397410 0
M  V30 19 C -1.915013 -0.218674 0.345025 0
M  V30 20 O -2.589579 -1.184741 0.773969 0
M  V30 21 C 0.052562 -2.274922 2.078072 0
M  V30 22 C 0.395129 -3.223638 3.019434 0
M  V30 23 H 2.896300 -6.288479 2.596037 0
M  V30 24 H 1.307432 -7.077263 2.515640 0
M  V30 25 H 2.333551 -7.169789 4.025062 0
M  V30 26 H 1.762246 -5.517193 1.032954 0
M  V30 27 H 1.181584 -3.870785 -0.710215 0
M  V30 28 H 0.192488 -1.698598 -1.235541 0
M  V30 29 H 0.957445 0.842652 -0.986864 0
M  V30 30 H -1.870162 4.462712 -0.431761 0
M  V30 31 H -0.908666 6.599254 -1.166227 0
M  V30 32 H 2.713723 4.727176 -2.325517 0
M  V30 33 H 1.781738 2.603264 -1.605030 0
M  V30 34 H -3.489663 1.090819 0.768639 0
M  V30 35 H -0.427713 -1.387270 2.461078 0
M  V30 36 H 0.188060 -3.073759 4.080373 0
M  V30 END ATOM
M  V30 BEGIN BOND
M  V30 1 1 1 2
M  V30 2 1 2 3
M  V30 3 2 3 4
M  V30 4 1 4 5
M  V30 5 2 5 6
M  V30 6 1 6 7
M  V30 7 1 7 8
M  V30 8 2 8 9
M  V30 9 1 9 10
M  V30 10 1 10 11
M  V30 11 2 11 12
M  V30 12 1 12 13
M  V30 13 2 13 14
M  V30 14 1 14 15
M  V30 15 2 15 16
M  V30 16 2 10 17
M  V30 17 1 17 18
M  V30 18 1 18 19
M  V30 19 2 19 20
M  V30 20 1 6 21
M  V30 21 2 21 22
M  V30 22 1 22 3
M  V30 23 1 19 8
M  V30 24 1 16 11
M  V30 25 1 1 23
M  V30 26 1 1 24
M  V30 27 1 1 25
M  V30 28 1 4 26
M  V30 29 1 5 27
M  V30 30 1 7 28
M  V30 31 1 9 29
M  V30 32 1 12 30
M  V30 33 1 13 31
M  V30 34 1 15 32
M  V30 35 1 16 33
M  V30 36 1 18 34
M  V30 37 1 21 35
M  V30 38 1 22 36
M  V30 END BOND
M  V30 END CTAB
M  END
>  <Dataset>  (151) 
ChEMBL_Kinases

>  <Ligand_Instance>  (151) 
nan

>  <PDB_ID>  (151) 
nan

>  <Standardized_SMILES>  (151) 
COc1ccc(Nc2cc(-c3ccncc3)n[nH]c2=O)cc1

>  <Name>  (151) 
nan

>  <Pocket>  (151) 
nan

>  <ATP_Site>  (151) 
nan

>  <Peripheral>  (151) 
nan

>  <Num_H_Atoms_ProtBoundConf>  (151) 
nan

>  <Num_Resolved_Atoms>  (151) 
nan

>  <Num_Not_Resolved_Atoms>  (151) 
nan

$$$$
CHEMBL333923
     RDKit          3D

  0  0  0  0  0  0  0  0  0  0999 V3000
M  V30 BEGIN CTAB
M  V30 COUNTS 53 57 0 0 0
M  V30 BEGIN ATOM
M  V30 1 C 2.908524 -3.862137 -1.674828 0
M  V30 2 C 2.035631 -2.896474 -0.893200 0 CFG=2
M  V30 3 N 2.027694 -3.151104 0.521496 0
M  V30 4 C 1.347155 -2.414780 1.519954 0
M  V30 5 C 0.599323 -1.301205 1.220888 0
M  V30 6 C -0.077377 -0.566987 2.190582 0
M  V30 7 C -0.866971 0.611594 1.863117 0
M  V30 8 C -0.253037 1.730942 1.288745 0
M  V30 9 C 1.165689 1.897124 0.942189 0
M  V30 10 C 1.406752 2.138863 -0.408652 0
M  V30 11 C 2.720119 2.300062 -0.784703 0
M  V30 12 C 3.735034 2.220428 0.158637 0
M  V30 13 C 3.466332 1.977753 1.502317 0
M  V30 14 C 2.143611 1.811758 1.903261 0
M  V30 15 N -1.196784 2.663402 1.094037 0
M  V30 16 C -2.388348 2.174352 1.524832 0
M  V30 17 N -3.633308 2.682745 1.560998 0
M  V30 18 C -4.685449 1.988673 2.048077 0
M  V30 19 N -5.998887 2.550376 2.075734 0
M  V30 20 C -4.424807 0.716638 2.514028 0
M  V30 21 C -3.149173 0.148772 2.495982 0
M  V30 22 N -2.170981 0.929317 1.988175 0
M  V30 23 C 0.014871 -0.985705 3.502588 0
M  V30 24 C 0.774946 -2.107480 3.761367 0
M  V30 25 N 1.418100 -2.797121 2.803119 0
M  V30 26 C 0.647132 -2.997007 -1.418608 0
M  V30 27 C 0.012015 -4.115165 -0.866726 0
M  V30 28 C -1.306776 -4.424055 -1.213937 0
M  V30 29 C -1.980539 -3.617775 -2.106426 0
M  V30 30 C -1.341827 -2.510393 -2.648607 0
M  V30 31 C -0.043889 -2.208616 -2.305287 0
M  V30 32 H 2.474691 -4.859230 -1.779293 0
M  V30 33 H 3.006327 -3.423222 -2.697911 0
M  V30 34 H 3.938078 -3.886334 -1.250932 0
M  V30 35 H 2.433332 -1.879809 -1.078036 0
M  V30 36 H 2.598867 -3.980431 0.809044 0
M  V30 37 H 0.492753 -0.926909 0.217541 0
M  V30 38 H 0.610064 2.198559 -1.135415 0
M  V30 39 H 2.924894 2.490669 -1.838387 0
M  V30 40 H 4.742113 2.349492 -0.162105 0
M  V30 41 H 4.253608 1.914689 2.241187 0
M  V30 42 H 1.859463 1.619319 2.937292 0
M  V30 43 H -6.578297 2.840616 2.898875 0
M  V30 44 H -6.608884 2.766894 1.243578 0
M  V30 45 H -5.253999 0.147900 2.906944 0
M  V30 46 H -2.959939 -0.853619 2.866294 0
M  V30 47 H -0.478128 -0.476866 4.324681 0
M  V30 48 H 0.888735 -2.492014 4.780411 0
M  V30 49 H 0.423245 -4.833028 -0.155070 0
M  V30 50 H -1.840154 -5.272009 -0.817761 0
M  V30 51 H -3.002000 -3.825888 -2.398443 0
M  V30 52 H -1.807187 -1.834848 -3.352926 0
M  V30 53 H 0.563709 -1.384711 -2.651114 0
M  V30 END ATOM
M  V30 BEGIN BOND
M  V30 1 1 1 2
M  V30 2 1 2 3
M  V30 3 1 3 4
M  V30 4 2 4 5
M  V30 5 1 5 6
M  V30 6 1 6 7
M  V30 7 2 7 8
M  V30 8 1 8 9
M  V30 9 2 9 10
M  V30 10 1 10 11
M  V30 11 2 11 12
M  V30 12 1 12 13
M  V30 13 2 13 14
M  V30 14 1 8 15
M  V30 15 2 15 16
M  V30 16 1 16 17
M  V30 17 2 17 18
M  V30 18 1 18 19
M  V30 19 1 18 20
M  V30 20 2 20 21
M  V30 21 1 21 22
M  V30 22 2 6 23
M  V30 23 1 23 24
M  V30 24 2 24 25
M  V30 25 1 2 26
M  V30 26 2 26 27
M  V30 27 1 27 28
M  V30 28 2 28 29
M  V30 29 1 29 30
M  V30 30 2 30 31
M  V30 31 1 25 4
M  V30 32 1 31 26
M  V30 33 1 22 7
M  V30 34 1 14 9
M  V30 35 1 22 16
M  V30 36 1 1 32
M  V30 37 1 1 33
M  V30 38 1 1 34
M  V30 39 1 2 35 CFG=1
M  V30 40 1 3 36
M  V30 41 1 5 37
M  V30 42 1 10 38
M  V30 43 1 11 39
M  V30 44 1 12 40
M  V30 45 1 13 41
M  V30 46 1 14 42
M  V30 47 1 19 43
M  V30 48 1 19 44
M  V30 49 1 20 45
M  V30 50 1 21 46
M  V30 51 1 23 47
M  V30 52 1 24 48
M  V30 53 1 27 49
M  V30 54 1 28 50
M  V30 55 1 29 51
M  V30 56 1 30 52
M  V30 57 1 31 53
M  V30 END BOND
M  V30 END CTAB
M  END
>  <Dataset>  (152) 
ChEMBL_Kinases

>  <Ligand_Instance>  (152) 
nan

>  <PDB_ID>  (152) 
nan

>  <Standardized_SMILES>  (152) 
C[C@H](Nc1cc(-c2c(-c3ccccc3)nc3nc(N)ccn23)ccn1)c1ccccc1

>  <Name>  (152) 
nan

>  <Pocket>  (152) 
nan

>  <ATP_Site>  (152) 
nan

>  <Peripheral>  (152) 
nan

>  <Num_H_Atoms_ProtBoundConf>  (152) 
nan

>  <Num_Resolved_Atoms>  (152) 
nan

>  <Num_Not_Resolved_Atoms>  (152) 
nan

$$$$
CHEMBL333985
     RDKit          3D

  0  0  0  0  0  0  0  0  0  0999 V3000
M  V30 BEGIN CTAB
M  V30 COUNTS 39 42 0 0 0
M  V30 BEGIN ATOM
M  V30 1 O -0.460102 -5.471874 4.612506 0
M  V30 2 C -0.144550 -5.819907 3.282824 0
M  V30 3 C 0.423146 -4.637167 2.562767 0
M  V30 4 C 1.797292 -4.380616 2.556963 0
M  V30 5 C 1.964788 -3.216996 1.801541 0
M  V30 6 C 0.699320 -2.843955 1.400785 0
M  V30 7 C 0.386983 -1.675162 0.584235 0
M  V30 8 N 1.257534 -0.776498 0.089938 0
M  V30 9 N 0.631201 0.165131 -0.612958 0
M  V30 10 C 1.303404 1.259342 -1.261419 0
M  V30 11 C 1.438313 2.447689 -0.398340 0
M  V30 12 C 0.465110 3.425988 -0.375673 0
M  V30 13 C 0.673366 4.512905 0.467574 0
M  V30 14 C 1.773238 4.701057 1.288430 0
M  V30 15 C 2.711332 3.691291 1.222901 0
M  V30 16 C 2.558298 2.586435 0.402950 0
M  V30 17 C -0.702977 -0.122261 -0.581812 0
M  V30 18 C -1.764966 0.553211 -1.159686 0
M  V30 19 C -3.034064 0.005284 -0.947064 0
M  V30 20 C -3.199772 -1.142717 -0.201843 0
M  V30 21 C -2.130060 -1.795163 0.361612 0
M  V30 22 C -0.865122 -1.273251 0.165829 0
M  V30 23 O -0.181808 -3.696209 1.862894 0
M  V30 24 H -1.305818 -4.976008 4.566255 0
M  V30 25 H -1.094719 -6.135798 2.767404 0
M  V30 26 H 0.554232 -6.657558 3.243068 0
M  V30 27 H 2.645357 -4.861662 2.979529 0
M  V30 28 H 2.874990 -2.671094 1.547112 0
M  V30 29 H 2.322242 0.933770 -1.557266 0
M  V30 30 H 0.786862 1.558156 -2.208026 0
M  V30 31 H -0.421795 3.375808 -0.971153 0
M  V30 32 H -0.115213 5.274842 0.465803 0
M  V30 33 H 1.839444 5.580651 1.905919 0
M  V30 34 H 3.593271 3.787828 1.845565 0
M  V30 35 H 3.298128 1.803986 0.360369 0
M  V30 36 H -1.636711 1.455445 -1.745605 0
M  V30 37 H -3.839826 0.561015 -1.414331 0
M  V30 38 H -4.230265 -1.476528 -0.103247 0
M  V30 39 H -2.283118 -2.690213 0.939762 0
M  V30 END ATOM
M  V30 BEGIN BOND
M  V30 1 1 1 2
M  V30 2 1 2 3
M  V30 3 2 3 4
M  V30 4 1 4 5
M  V30 5 2 5 6
M  V30 6 1 6 7
M  V30 7 2 7 8
M  V30 8 1 8 9
M  V30 9 1 9 10
M  V30 10 1 10 11
M  V30 11 2 11 12
M  V30 12 1 12 13
M  V30 13 2 13 14
M  V30 14 1 14 15
M  V30 15 2 15 16
M  V30 16 1 9 17
M  V30 17 2 17 18
M  V30 18 1 18 19
M  V30 19 2 19 20
M  V30 20 1 20 21
M  V30 21 2 21 22
M  V30 22 1 6 23
M  V30 23 1 23 3
M  V30 24 1 22 7
M  V30 25 1 16 11
M  V30 26 1 22 17
M  V30 27 1 1 24
M  V30 28 1 2 25
M  V30 29 1 2 26
M  V30 30 1 4 27
M  V30 31 1 5 28
M  V30 32 1 10 29
M  V30 33 1 10 30
M  V30 34 1 12 31
M  V30 35 1 13 32
M  V30 36 1 14 33
M  V30 37 1 15 34
M  V30 38 1 16 35
M  V30 39 1 18 36
M  V30 40 1 19 37
M  V30 41 1 20 38
M  V30 42 1 21 39
M  V30 END BOND
M  V30 END CTAB
M  END
>  <Dataset>  (153) 
ChEMBL_Kinases

>  <Ligand_Instance>  (153) 
nan

>  <PDB_ID>  (153) 
nan

>  <Standardized_SMILES>  (153) 
OCc1ccc(-c2nn(Cc3ccccc3)c3ccccc23)o1

>  <Name>  (153) 
nan

>  <Pocket>  (153) 
nan

>  <ATP_Site>  (153) 
nan

>  <Peripheral>  (153) 
nan

>  <Num_H_Atoms_ProtBoundConf>  (153) 
nan

>  <Num_Resolved_Atoms>  (153) 
nan

>  <Num_Not_Resolved_Atoms>  (153) 
nan

$$$$
CHEMBL3341791
     RDKit          3D

  0  0  0  0  0  0  0  0  0  0999 V3000
M  V30 BEGIN CTAB
M  V30 COUNTS 52 56 0 0 0
M  V30 BEGIN ATOM
M  V30 1 N -2.993392 -4.753582 2.229249 0
M  V30 2 C -2.142919 -3.639204 1.966846 0
M  V30 3 N -1.065497 -3.418219 2.739910 0
M  V30 4 C -0.249786 -2.378430 2.515861 0
M  V30 5 C -0.470302 -1.471248 1.474383 0
M  V30 6 C 0.482472 -0.380357 1.325398 0
M  V30 7 C 1.786919 -0.645400 1.685819 0
M  V30 8 C 2.773443 0.312164 1.586693 0
M  V30 9 C 2.517503 1.583899 1.124499 0
M  V30 10 N 3.470296 2.629113 0.991829 0
M  V30 11 C 3.229945 3.960959 0.474825 0
M  V30 12 C 3.285698 4.912704 1.618568 0
M  V30 13 N 4.157303 4.476316 2.652253 0
M  V30 14 C 5.281073 3.672527 2.237060 0
M  V30 15 C 4.874910 2.505094 1.373374 0
M  V30 16 C 1.214455 1.847274 0.765017 0
M  V30 17 C 0.211179 0.905974 0.855323 0
M  V30 18 C -1.580169 -1.708659 0.687343 0
M  V30 19 C -2.411138 -2.784807 0.931042 0
M  V30 20 C -3.576913 -3.004451 0.074169 0
M  V30 21 C -4.855846 -2.499320 0.274564 0
M  V30 22 C -5.853696 -2.801118 -0.631770 0
M  V30 23 N -5.568723 -3.578075 -1.690984 0
M  V30 24 C -4.357495 -4.078478 -1.914411 0
M  V30 25 C -4.136964 -4.871570 -3.027595 0
M  V30 26 C -2.900258 -5.416953 -3.308838 0
M  V30 27 C -1.888782 -5.125892 -2.412773 0
M  V30 28 C -2.063611 -4.340966 -1.291659 0
M  V30 29 C -3.328558 -3.805093 -1.037555 0
M  V30 30 H -2.859630 -5.779372 2.073036 0
M  V30 31 H -3.880017 -4.358113 2.651713 0
M  V30 32 H 0.571721 -2.336013 3.222715 0
M  V30 33 H 2.079676 -1.611694 2.057895 0
M  V30 34 H 3.781151 0.069956 1.876355 0
M  V30 35 H 2.306422 4.039659 -0.129029 0
M  V30 36 H 4.055944 4.260274 -0.236744 0
M  V30 37 H 2.260019 5.012604 2.082166 0
M  V30 38 H 3.516074 5.965455 1.288217 0
M  V30 39 H 4.552153 5.322051 3.131501 0
M  V30 40 H 6.068886 4.279240 1.763957 0
M  V30 41 H 5.729290 3.262195 3.164691 0
M  V30 42 H 5.491447 2.576987 0.429833 0
M  V30 43 H 5.135938 1.561435 1.839748 0
M  V30 44 H 0.828539 2.766557 0.389806 0
M  V30 45 H -0.826541 1.050035 0.590075 0
M  V30 46 H -1.748124 -1.004188 -0.118349 0
M  V30 47 H -4.954341 -1.882650 1.171757 0
M  V30 48 H -6.828018 -2.387272 -0.434520 0
M  V30 49 H -4.931484 -5.101045 -3.732971 0
M  V30 50 H -2.673271 -6.043426 -4.164596 0
M  V30 51 H -0.914157 -5.531776 -2.597787 0
M  V30 52 H -1.238483 -4.131643 -0.604218 0
M  V30 END ATOM
M  V30 BEGIN BOND
M  V30 1 1 1 2
M  V30 2 2 2 3
M  V30 3 1 3 4
M  V30 4 2 4 5
M  V30 5 1 5 6
M  V30 6 2 6 7
M  V30 7 1 7 8
M  V30 8 2 8 9
M  V30 9 1 9 10
M  V30 10 1 10 11
M  V30 11 1 11 12
M  V30 12 1 12 13
M  V30 13 1 13 14
M  V30 14 1 14 15
M  V30 15 1 9 16
M  V30 16 2 16 17
M  V30 17 1 5 18
M  V30 18 2 18 19
M  V30 19 1 19 20
M  V30 20 2 20 21
M  V30 21 1 21 22
M  V30 22 2 22 23
M  V30 23 1 23 24
M  V30 24 2 24 25
M  V30 25 1 25 26
M  V30 26 2 26 27
M  V30 27 1 27 28
M  V30 28 2 28 29
M  V30 29 1 19 2
M  V30 30 1 29 20
M  V30 31 1 17 6
M  V30 32 1 29 24
M  V30 33 1 15 10
M  V30 34 1 1 30
M  V30 35 1 1 31
M  V30 36 1 4 32
M  V30 37 1 7 33
M  V30 38 1 8 34
M  V30 39 1 11 35
M  V30 40 1 11 36
M  V30 41 1 12 37
M  V30 42 1 12 38
M  V30 43 1 13 39
M  V30 44 1 14 40
M  V30 45 1 14 41
M  V30 46 1 15 42
M  V30 47 1 15 43
M  V30 48 1 16 44
M  V30 49 1 17 45
M  V30 50 1 18 46
M  V30 51 1 21 47
M  V30 52 1 22 48
M  V30 53 1 25 49
M  V30 54 1 26 50
M  V30 55 1 27 51
M  V30 56 1 28 52
M  V30 END BOND
M  V30 END CTAB
M  END
>  <Dataset>  (154) 
ChEMBL_Kinases

>  <Ligand_Instance>  (154) 
nan

>  <PDB_ID>  (154) 
nan

>  <Standardized_SMILES>  (154) 
Nc1ncc(-c2ccc(N3CCNCC3)cc2)cc1-c1ccnc2ccccc12

>  <Name>  (154) 
nan

>  <Pocket>  (154) 
nan

>  <ATP_Site>  (154) 
nan

>  <Peripheral>  (154) 
nan

>  <Num_H_Atoms_ProtBoundConf>  (154) 
nan

>  <Num_Resolved_Atoms>  (154) 
nan

>  <Num_Not_Resolved_Atoms>  (154) 
nan

$$$$
CHEMBL3341792
     RDKit          3D

  0  0  0  0  0  0  0  0  0  0999 V3000
M  V30 BEGIN CTAB
M  V30 COUNTS 52 56 0 0 0
M  V30 BEGIN ATOM
M  V30 1 N -2.806713 -3.969130 2.447726 0
M  V30 2 C -1.839564 -3.025130 2.039201 0
M  V30 3 N -0.761343 -2.599703 2.723003 0
M  V30 4 C 0.070378 -1.686176 2.186635 0
M  V30 5 C -0.135741 -1.151946 0.937213 0
M  V30 6 C 0.802604 -0.168137 0.416823 0
M  V30 7 C 1.009789 -0.119197 -0.941966 0
M  V30 8 C 1.891835 0.799944 -1.471261 0
M  V30 9 C 2.544722 1.649075 -0.615481 0
M  V30 10 C 2.389849 1.660748 0.756974 0
M  V30 11 N 3.078930 2.551777 1.625485 0
M  V30 12 C 2.811118 2.466528 3.066906 0
M  V30 13 C 3.301583 3.654259 3.820777 0
M  V30 14 N 3.632450 4.798211 2.995538 0
M  V30 15 C 4.597853 4.398838 2.007186 0
M  V30 16 C 4.009369 3.486580 0.973660 0
M  V30 17 C 1.494438 0.717040 1.215886 0
M  V30 18 C -1.242955 -1.570596 0.201964 0
M  V30 19 C -2.079264 -2.510761 0.780537 0
M  V30 20 C -3.209929 -2.881958 -0.073478 0
M  V30 21 C -4.388122 -2.149580 0.041162 0
M  V30 22 C -5.455472 -2.520483 -0.782646 0
M  V30 23 N -5.339700 -3.546956 -1.649926 0
M  V30 24 C -4.203593 -4.255026 -1.762132 0
M  V30 25 C -4.091261 -5.304766 -2.652003 0
M  V30 26 C -2.893967 -5.994097 -2.719413 0
M  V30 27 C -1.782055 -5.708635 -1.951783 0
M  V30 28 C -1.910572 -4.650736 -1.061993 0
M  V30 29 C -3.105334 -3.930638 -0.965831 0
M  V30 30 H -2.744357 -5.018473 2.587859 0
M  V30 31 H -3.828862 -3.906237 2.720495 0
M  V30 32 H 0.925164 -1.371939 2.770450 0
M  V30 33 H 0.500453 -0.781242 -1.606798 0
M  V30 34 H 2.052244 0.834453 -2.547632 0
M  V30 35 H 3.234045 2.362194 -1.068897 0
M  V30 36 H 3.325757 1.538452 3.388523 0
M  V30 37 H 1.721210 2.360439 3.255198 0
M  V30 38 H 4.230008 3.348582 4.379133 0
M  V30 39 H 2.581233 3.927746 4.626941 0
M  V30 40 H 2.785492 5.253636 2.634297 0
M  V30 41 H 5.070255 5.282184 1.548856 0
M  V30 42 H 5.376377 3.810738 2.564725 0
M  V30 43 H 3.538340 3.996622 0.127391 0
M  V30 44 H 4.836154 2.820380 0.611489 0
M  V30 45 H 1.286961 0.626924 2.273311 0
M  V30 46 H -1.401716 -1.141791 -0.791737 0
M  V30 47 H -4.413092 -1.339283 0.756469 0
M  V30 48 H -6.348093 -1.916862 -0.652114 0
M  V30 49 H -4.932863 -5.583051 -3.288762 0
M  V30 50 H -2.862363 -6.806082 -3.433184 0
M  V30 51 H -0.879910 -6.270927 -2.041120 0
M  V30 52 H -1.077431 -4.362355 -0.419968 0
M  V30 END ATOM
M  V30 BEGIN BOND
M  V30 1 1 1 2
M  V30 2 2 2 3
M  V30 3 1 3 4
M  V30 4 2 4 5
M  V30 5 1 5 6
M  V30 6 2 6 7
M  V30 7 1 7 8
M  V30 8 2 8 9
M  V30 9 1 9 10
M  V30 10 1 10 11
M  V30 11 1 11 12
M  V30 12 1 12 13
M  V30 13 1 13 14
M  V30 14 1 14 15
M  V30 15 1 15 16
M  V30 16 2 10 17
M  V30 17 1 5 18
M  V30 18 2 18 19
M  V30 19 1 19 20
M  V30 20 2 20 21
M  V30 21 1 21 22
M  V30 22 2 22 23
M  V30 23 1 23 24
M  V30 24 2 24 25
M  V30 25 1 25 26
M  V30 26 2 26 27
M  V30 27 1 27 28
M  V30 28 2 28 29
M  V30 29 1 19 2
M  V30 30 1 29 20
M  V30 31 1 17 6
M  V30 32 1 29 24
M  V30 33 1 16 11
M  V30 34 1 1 30
M  V30 35 1 1 31
M  V30 36 1 4 32
M  V30 37 1 7 33
M  V30 38 1 8 34
M  V30 39 1 9 35
M  V30 40 1 12 36
M  V30 41 1 12 37
M  V30 42 1 13 38
M  V30 43 1 13 39
M  V30 44 1 14 40
M  V30 45 1 15 41
M  V30 46 1 15 42
M  V30 47 1 16 43
M  V30 48 1 16 44
M  V30 49 1 17 45
M  V30 50 1 18 46
M  V30 51 1 21 47
M  V30 52 1 22 48
M  V30 53 1 25 49
M  V30 54 1 26 50
M  V30 55 1 27 51
M  V30 56 1 28 52
M  V30 END BOND
M  V30 END CTAB
M  END
>  <Dataset>  (155) 
ChEMBL_Kinases

>  <Ligand_Instance>  (155) 
nan

>  <PDB_ID>  (155) 
nan

>  <Standardized_SMILES>  (155) 
Nc1ncc(-c2cccc(N3CCNCC3)c2)cc1-c1ccnc2ccccc12

>  <Name>  (155) 
nan

>  <Pocket>  (155) 
nan

>  <ATP_Site>  (155) 
nan

>  <Peripheral>  (155) 
nan

>  <Num_H_Atoms_ProtBoundConf>  (155) 
nan

>  <Num_Resolved_Atoms>  (155) 
nan

>  <Num_Not_Resolved_Atoms>  (155) 
nan

$$$$
CHEMBL3341794
     RDKit          3D

  0  0  0  0  0  0  0  0  0  0999 V3000
M  V30 BEGIN CTAB
M  V30 COUNTS 60 64 0 0 0
M  V30 BEGIN ATOM
M  V30 1 C 1.995031 -4.014977 5.201352 0
M  V30 2 O 2.308610 -5.232004 4.553166 0
M  V30 3 C 2.538173 -5.200291 3.186011 0
M  V30 4 C 2.464631 -4.013204 2.466561 0
M  V30 5 C 2.705995 -4.065008 1.108029 0
M  V30 6 C 2.652556 -2.854688 0.256498 0
M  V30 7 C 3.585200 -2.559830 -0.720656 0
M  V30 8 N 3.185899 -1.394191 -1.265778 0
M  V30 9 N 2.060138 -0.964773 -0.671287 0
M  V30 10 C 1.344346 0.162201 -0.928088 0
M  V30 11 C 0.205131 0.370882 -0.154681 0
M  V30 12 C -0.667829 1.535685 -0.317517 0
M  V30 13 C -2.039544 1.419626 -0.049140 0
M  V30 14 C -2.946555 2.448998 -0.173959 0
M  V30 15 C -2.491828 3.683557 -0.588722 0
M  V30 16 N -3.403818 4.761663 -0.728225 0
M  V30 17 C -4.788108 4.782050 -0.362189 0
M  V30 18 C -5.692359 4.898835 -1.596481 0
M  V30 19 N -5.520418 6.255708 -2.067398 0
M  V30 20 C -4.135003 6.424461 -2.387918 0
M  V30 21 C -3.182858 6.075432 -1.269239 0
M  V30 22 C -1.151520 3.843245 -0.863170 0
M  V30 23 C -0.246970 2.809022 -0.737080 0
M  V30 24 C -0.154272 -0.543248 0.820047 0
M  V30 25 N 0.591360 -1.665799 1.048839 0
M  V30 26 C 1.691254 -1.841569 0.282621 0
M  V30 27 C 3.010735 -5.263574 0.488468 0
M  V30 28 C 3.077883 -6.436742 1.235298 0
M  V30 29 O 3.383087 -7.617223 0.598446 0
M  V30 30 C 3.639782 -7.755065 -0.768314 0
M  V30 31 C 2.841498 -6.406431 2.584623 0
M  V30 32 O 2.921069 -7.606790 3.275805 0
M  V30 33 C 1.867675 -8.503469 3.488724 0
M  V30 34 H 1.559201 -4.195027 6.223948 0
M  V30 35 H 2.854286 -3.330487 5.271510 0
M  V30 36 H 1.177067 -3.492029 4.627933 0
M  V30 37 H 2.228338 -3.072925 2.941701 0
M  V30 38 H 4.459243 -3.120030 -1.011694 0
M  V30 39 H 1.600444 0.895298 -1.681686 0
M  V30 40 H -2.369678 0.429728 0.278123 0
M  V30 41 H -3.954143 2.217722 0.063370 0
M  V30 42 H -5.148280 3.846962 0.142663 0
M  V30 43 H -5.067219 5.602769 0.341823 0
M  V30 44 H -5.312209 4.173488 -2.366016 0
M  V30 45 H -6.714087 4.653831 -1.292179 0
M  V30 46 H -6.031882 6.326381 -2.996129 0
M  V30 47 H -3.860968 7.432027 -2.757437 0
M  V30 48 H -3.911273 5.737155 -3.256638 0
M  V30 49 H -3.180710 6.800781 -0.455957 0
M  V30 50 H -2.182999 6.093934 -1.747439 0
M  V30 51 H -0.742117 4.792826 -1.190795 0
M  V30 52 H 0.807874 2.894550 -0.941177 0
M  V30 53 H -1.010701 -0.495097 1.481087 0
M  V30 54 H 3.193729 -5.259364 -0.583317 0
M  V30 55 H 4.628728 -7.307501 -1.022818 0
M  V30 56 H 3.718797 -8.842134 -1.007951 0
M  V30 57 H 2.853790 -7.255173 -1.378790 0
M  V30 58 H 1.676213 -8.715281 4.569150 0
M  V30 59 H 0.939218 -8.168238 3.017449 0
M  V30 60 H 2.097043 -9.521619 3.051489 0
M  V30 END ATOM
M  V30 BEGIN BOND
M  V30 1 1 1 2
M  V30 2 1 2 3
M  V30 3 2 3 4
M  V30 4 1 4 5
M  V30 5 1 5 6
M  V30 6 1 6 7
M  V30 7 2 7 8
M  V30 8 1 8 9
M  V30 9 1 9 10
M  V30 10 2 10 11
M  V30 11 1 11 12
M  V30 12 2 12 13
M  V30 13 1 13 14
M  V30 14 2 14 15
M  V30 15 1 15 16
M  V30 16 1 16 17
M  V30 17 1 17 18
M  V30 18 1 18 19
M  V30 19 1 19 20
M  V30 20 1 20 21
M  V30 21 1 15 22
M  V30 22 2 22 23
M  V30 23 1 11 24
M  V30 24 2 24 25
M  V30 25 1 25 26
M  V30 26 2 5 27
M  V30 27 1 27 28
M  V30 28 1 28 29
M  V30 29 1 29 30
M  V30 30 2 28 31
M  V30 31 1 31 32
M  V30 32 1 32 33
M  V30 33 1 31 3
M  V30 34 2 26 6
M  V30 35 1 26 9
M  V30 36 1 23 12
M  V30 37 1 21 16
M  V30 38 1 1 34
M  V30 39 1 1 35
M  V30 40 1 1 36
M  V30 41 1 4 37
M  V30 42 1 7 38
M  V30 43 1 10 39
M  V30 44 1 13 40
M  V30 45 1 14 41
M  V30 46 1 17 42
M  V30 47 1 17 43
M  V30 48 1 18 44
M  V30 49 1 18 45
M  V30 50 1 19 46
M  V30 51 1 20 47
M  V30 52 1 20 48
M  V30 53 1 21 49
M  V30 54 1 21 50
M  V30 55 1 22 51
M  V30 56 1 23 52
M  V30 57 1 24 53
M  V30 58 1 27 54
M  V30 59 1 30 55
M  V30 60 1 30 56
M  V30 61 1 30 57
M  V30 62 1 33 58
M  V30 63 1 33 59
M  V30 64 1 33 60
M  V30 END BOND
M  V30 END CTAB
M  END
>  <Dataset>  (156) 
ChEMBL_Kinases

>  <Ligand_Instance>  (156) 
nan

>  <PDB_ID>  (156) 
nan

>  <Standardized_SMILES>  (156) 
COc1cc(-c2cnn3cc(-c4ccc(N5CCNCC5)cc4)cnc23)cc(OC)c1OC

>  <Name>  (156) 
nan

>  <Pocket>  (156) 
nan

>  <ATP_Site>  (156) 
nan

>  <Peripheral>  (156) 
nan

>  <Num_H_Atoms_ProtBoundConf>  (156) 
nan

>  <Num_Resolved_Atoms>  (156) 
nan

>  <Num_Not_Resolved_Atoms>  (156) 
nan

$$$$
CHEMBL3341948
     RDKit          3D

  0  0  0  0  0  0  0  0  0  0999 V3000
M  V30 BEGIN CTAB
M  V30 COUNTS 51 54 0 0 0
M  V30 BEGIN ATOM
M  V30 1 C 3.126255 -7.248865 0.237855 0
M  V30 2 O 2.377215 -6.076592 0.003341 0
M  V30 3 C 2.512036 -5.259812 -1.108317 0
M  V30 4 C 3.358243 -5.381018 -2.193969 0
M  V30 5 C 3.332365 -4.454875 -3.196535 0
M  V30 6 C 2.483440 -3.365916 -3.193587 0
M  V30 7 C 1.622764 -3.224247 -2.110060 0
M  V30 8 C 0.722010 -2.076383 -2.098588 0
M  V30 9 C 0.504535 -1.279583 -0.991662 0
M  V30 10 C -0.368995 -0.204680 -1.061039 0
M  V30 11 C -0.610594 0.649183 0.102308 0
M  V30 12 C 0.327153 0.929374 1.076891 0
M  V30 13 C 0.036312 1.745369 2.154616 0
M  V30 14 C -1.204323 2.317541 2.306388 0
M  V30 15 N -1.487351 3.151051 3.417097 0
M  V30 16 C -0.537264 3.492346 4.451681 0
M  V30 17 C -1.002874 2.721478 5.692582 0
M  V30 18 N -2.344840 3.081442 6.026470 0
M  V30 19 C -3.284347 3.063285 4.950660 0
M  V30 20 C -2.755041 3.789810 3.704906 0
M  V30 21 C -2.131928 2.033578 1.332038 0
M  V30 22 C -1.860669 1.220524 0.247335 0
M  V30 23 C -1.035957 0.088191 -2.235421 0
M  V30 24 N -0.838057 -0.685067 -3.345012 0
M  V30 25 C 0.016543 -1.722586 -3.247172 0
M  V30 26 N 0.153227 -2.463311 -4.453101 0
M  V30 27 C 1.650523 -4.166858 -1.091720 0
M  V30 28 H 3.856117 -7.494476 -0.543634 0
M  V30 29 H 2.449444 -8.137120 0.318754 0
M  V30 30 H 3.686401 -7.085922 1.185091 0
M  V30 31 H 3.995586 -6.244795 -2.144567 0
M  V30 32 H 4.011569 -4.610906 -4.002253 0
M  V30 33 H 2.524500 -2.673460 -4.030497 0
M  V30 34 H 1.032254 -1.520567 -0.081936 0
M  V30 35 H 1.292373 0.465834 0.930735 0
M  V30 36 H 0.846672 1.872794 2.822554 0
M  V30 37 H -0.567575 4.569154 4.734046 0
M  V30 38 H 0.501053 3.264038 4.236372 0
M  V30 39 H -0.372398 2.989661 6.570374 0
M  V30 40 H -0.948392 1.642601 5.541793 0
M  V30 41 H -2.680596 2.346245 6.713961 0
M  V30 42 H -3.648465 2.060310 4.677361 0
M  V30 43 H -4.186926 3.615184 5.309424 0
M  V30 44 H -3.503738 3.653081 2.922853 0
M  V30 45 H -2.631666 4.850331 4.008191 0
M  V30 46 H -3.132314 2.434325 1.362268 0
M  V30 47 H -2.628056 1.018716 -0.507551 0
M  V30 48 H -1.733996 0.925928 -2.336562 0
M  V30 49 H 0.512471 -2.314341 -5.415735 0
M  V30 50 H -0.131042 -3.465157 -4.622215 0
M  V30 51 H 0.944050 -3.961547 -0.302154 0
M  V30 END ATOM
M  V30 BEGIN BOND
M  V30 1 1 1 2
M  V30 2 1 2 3
M  V30 3 2 3 4
M  V30 4 1 4 5
M  V30 5 2 5 6
M  V30 6 1 6 7
M  V30 7 1 7 8
M  V30 8 2 8 9
M  V30 9 1 9 10
M  V30 10 1 10 11
M  V30 11 2 11 12
M  V30 12 1 12 13
M  V30 13 2 13 14
M  V30 14 1 14 15
M  V30 15 1 15 16
M  V30 16 1 16 17
M  V30 17 1 17 18
M  V30 18 1 18 19
M  V30 19 1 19 20
M  V30 20 1 14 21
M  V30 21 2 21 22
M  V30 22 2 10 23
M  V30 23 1 23 24
M  V30 24 2 24 25
M  V30 25 1 25 26
M  V30 26 2 7 27
M  V30 27 1 27 3
M  V30 28 1 25 8
M  V30 29 1 22 11
M  V30 30 1 20 15
M  V30 31 1 1 28
M  V30 32 1 1 29
M  V30 33 1 1 30
M  V30 34 1 4 31
M  V30 35 1 5 32
M  V30 36 1 6 33
M  V30 37 1 9 34
M  V30 38 1 12 35
M  V30 39 1 13 36
M  V30 40 1 16 37
M  V30 41 1 16 38
M  V30 42 1 17 39
M  V30 43 1 17 40
M  V30 44 1 18 41
M  V30 45 1 19 42
M  V30 46 1 19 43
M  V30 47 1 20 44
M  V30 48 1 20 45
M  V30 49 1 21 46
M  V30 50 1 22 47
M  V30 51 1 23 48
M  V30 52 1 26 49
M  V30 53 1 26 50
M  V30 54 1 27 51
M  V30 END BOND
M  V30 END CTAB
M  END
>  <Dataset>  (157) 
ChEMBL_Kinases

>  <Ligand_Instance>  (157) 
nan

>  <PDB_ID>  (157) 
nan

>  <Standardized_SMILES>  (157) 
COc1cccc(-c2cc(-c3ccc(N4CCNCC4)cc3)cnc2N)c1

>  <Name>  (157) 
nan

>  <Pocket>  (157) 
nan

>  <ATP_Site>  (157) 
nan

>  <Peripheral>  (157) 
nan

>  <Num_H_Atoms_ProtBoundConf>  (157) 
nan

>  <Num_Resolved_Atoms>  (157) 
nan

>  <Num_Not_Resolved_Atoms>  (157) 
nan

$$$$
CHEMBL334188
     RDKit          3D

  0  0  0  0  0  0  0  0  0  0999 V3000
M  V30 BEGIN CTAB
M  V30 COUNTS 29 31 0 0 0
M  V30 BEGIN ATOM
M  V30 1 O -2.652504 -0.042085 1.648324 0
M  V30 2 C -1.779469 -0.881075 1.336245 0
M  V30 3 N -2.066414 -2.272394 1.361292 0
M  V30 4 C -1.165121 -3.366046 1.028527 0
M  V30 5 C 0.160691 -2.811131 0.639691 0
M  V30 6 C 1.058944 -3.824649 0.311648 0
M  V30 7 C 2.352755 -3.501189 -0.077954 0
M  V30 8 C 2.717116 -2.167339 -0.129904 0
M  V30 9 C 1.817760 -1.147054 0.198794 0
M  V30 10 C 0.536863 -1.486944 0.583596 0
M  V30 11 N -0.459320 -0.535743 0.939399 0
M  V30 12 C -0.124985 0.846504 0.899093 0
M  V30 13 C -0.261764 1.678271 -0.166665 0
M  V30 14 Cl -0.911957 0.995135 -1.641232 0
M  V30 15 C 0.089852 3.011396 -0.115639 0
M  V30 16 C 0.590404 3.441074 1.094125 0
M  V30 17 C 0.759539 2.661840 2.218909 0
M  V30 18 C 0.387818 1.336839 2.099632 0
M  V30 19 Cl 0.596284 0.324647 3.526004 0
M  V30 20 H -3.037419 -2.574249 1.650959 0
M  V30 21 H -1.580535 -4.007801 0.236505 0
M  V30 22 H -1.061314 -3.950649 1.986342 0
M  V30 23 H 0.870669 -4.887174 0.321133 0
M  V30 24 H 3.090815 -4.233803 -0.342846 0
M  V30 25 H 3.697955 -1.847846 -0.421802 0
M  V30 26 H 2.078510 -0.094329 0.166149 0
M  V30 27 H -0.019097 3.673284 -0.964039 0
M  V30 28 H 0.872241 4.498338 1.143797 0
M  V30 29 H 1.164580 3.111772 3.118614 0
M  V30 END ATOM
M  V30 BEGIN BOND
M  V30 1 2 1 2
M  V30 2 1 2 3
M  V30 3 1 3 4
M  V30 4 1 4 5
M  V30 5 2 5 6
M  V30 6 1 6 7
M  V30 7 2 7 8
M  V30 8 1 8 9
M  V30 9 2 9 10
M  V30 10 1 10 11
M  V30 11 1 11 12
M  V30 12 2 12 13
M  V30 13 1 13 14
M  V30 14 1 13 15
M  V30 15 2 15 16
M  V30 16 1 16 17
M  V30 17 2 17 18
M  V30 18 1 18 19
M  V30 19 1 11 2
M  V30 20 1 18 12
M  V30 21 1 10 5
M  V30 22 1 3 20
M  V30 23 1 4 21
M  V30 24 1 4 22
M  V30 25 1 6 23
M  V30 26 1 7 24
M  V30 27 1 8 25
M  V30 28 1 9 26
M  V30 29 1 15 27
M  V30 30 1 16 28
M  V30 31 1 17 29
M  V30 END BOND
M  V30 END CTAB
M  END
>  <Dataset>  (158) 
ChEMBL_Kinases

>  <Ligand_Instance>  (158) 
nan

>  <PDB_ID>  (158) 
nan

>  <Standardized_SMILES>  (158) 
O=C1NCc2ccccc2N1c1c(Cl)cccc1Cl

>  <Name>  (158) 
nan

>  <Pocket>  (158) 
nan

>  <ATP_Site>  (158) 
nan

>  <Peripheral>  (158) 
nan

>  <Num_H_Atoms_ProtBoundConf>  (158) 
nan

>  <Num_Resolved_Atoms>  (158) 
nan

>  <Num_Not_Resolved_Atoms>  (158) 
nan

$$$$
CHEMBL3341941
     RDKit          3D

  0  0  0  0  0  0  0  0  0  0999 V3000
M  V30 BEGIN CTAB
M  V30 COUNTS 46 48 0 0 0
M  V30 BEGIN ATOM
M  V30 1 C 0.552145 -3.665056 -1.985723 0
M  V30 2 O -0.273343 -4.149775 -0.934937 0
M  V30 3 C -0.390624 -3.404181 0.229305 0
M  V30 4 C 0.244418 -2.191957 0.472102 0
M  V30 5 C 0.096684 -1.491397 1.639917 0
M  V30 6 C 0.828611 -0.245263 1.735954 0
M  V30 7 C 0.870437 0.674103 0.681433 0
M  V30 8 C 1.581358 1.850786 0.811999 0
M  V30 9 C 1.641094 2.835711 -0.289191 0
M  V30 10 C 1.595618 2.364482 -1.591095 0
M  V30 11 C 1.655885 3.329060 -2.576860 0
M  V30 12 C 1.755059 4.688204 -2.361408 0
M  V30 13 O 1.811171 5.605239 -3.402539 0
M  V30 14 C 1.797185 5.109081 -1.026815 0
M  V30 15 C 1.741189 4.193655 0.030340 0
M  V30 16 C 2.276664 2.185946 1.959021 0
M  V30 17 N 2.217099 1.269390 2.969808 0
M  V30 18 C 1.536299 0.132980 2.856808 0
M  V30 19 N 1.564129 -0.729369 3.996731 0
M  V30 20 C -0.738468 -2.045301 2.617151 0
M  V30 21 C -1.374865 -3.246129 2.391498 0
M  V30 22 O -2.187330 -3.754803 3.379872 0
M  V30 23 C -2.353727 -3.043737 4.598988 0
M  V30 24 C -1.222225 -3.947157 1.213283 0
M  V30 25 O -1.890847 -5.136723 1.066096 0
M  V30 26 C -3.187058 -5.250034 0.525170 0
M  V30 27 H 0.351355 -4.232336 -2.929255 0
M  V30 28 H 1.600906 -3.814474 -1.676390 0
M  V30 29 H 0.342022 -2.569323 -2.157958 0
M  V30 30 H 0.868429 -1.835472 -0.329917 0
M  V30 31 H 0.349521 0.467429 -0.233102 0
M  V30 32 H 1.518012 1.312301 -1.819481 0
M  V30 33 H 1.626913 3.055877 -3.634147 0
M  V30 34 H 1.422965 6.548725 -3.264827 0
M  V30 35 H 1.874224 6.151877 -0.771694 0
M  V30 36 H 1.776704 4.563898 1.029740 0
M  V30 37 H 2.842384 3.089992 2.103230 0
M  V30 38 H 0.893451 -0.250259 4.657435 0
M  V30 39 H 1.963848 -1.597994 4.411266 0
M  V30 40 H -0.832018 -1.469973 3.520636 0
M  V30 41 H -1.343350 -2.976160 5.087151 0
M  V30 42 H -2.777803 -2.024921 4.447004 0
M  V30 43 H -3.060447 -3.603079 5.264247 0
M  V30 44 H -3.400195 -6.264803 0.159703 0
M  V30 45 H -3.896054 -4.962201 1.350794 0
M  V30 46 H -3.379129 -4.573329 -0.333442 0
M  V30 END ATOM
M  V30 BEGIN BOND
M  V30 1 1 1 2
M  V30 2 1 2 3
M  V30 3 2 3 4
M  V30 4 1 4 5
M  V30 5 1 5 6
M  V30 6 2 6 7
M  V30 7 1 7 8
M  V30 8 1 8 9
M  V30 9 2 9 10
M  V30 10 1 10 11
M  V30 11 2 11 12
M  V30 12 1 12 13
M  V30 13 1 12 14
M  V30 14 2 14 15
M  V30 15 2 8 16
M  V30 16 1 16 17
M  V30 17 2 17 18
M  V30 18 1 18 19
M  V30 19 2 5 20
M  V30 20 1 20 21
M  V30 21 1 21 22
M  V30 22 1 22 23
M  V30 23 2 21 24
M  V30 24 1 24 25
M  V30 25 1 25 26
M  V30 26 1 24 3
M  V30 27 1 18 6
M  V30 28 1 15 9
M  V30 29 1 1 27
M  V30 30 1 1 28
M  V30 31 1 1 29
M  V30 32 1 4 30
M  V30 33 1 7 31
M  V30 34 1 10 32
M  V30 35 1 11 33
M  V30 36 1 13 34
M  V30 37 1 14 35
M  V30 38 1 15 36
M  V30 39 1 16 37
M  V30 40 1 19 38
M  V30 41 1 19 39
M  V30 42 1 20 40
M  V30 43 1 23 41
M  V30 44 1 23 42
M  V30 45 1 23 43
M  V30 46 1 26 44
M  V30 47 1 26 45
M  V30 48 1 26 46
M  V30 END BOND
M  V30 END CTAB
M  END
>  <Dataset>  (159) 
ChEMBL_Kinases

>  <Ligand_Instance>  (159) 
nan

>  <PDB_ID>  (159) 
nan

>  <Standardized_SMILES>  (159) 
COc1cc(-c2cc(-c3ccc(O)cc3)cnc2N)cc(OC)c1OC

>  <Name>  (159) 
nan

>  <Pocket>  (159) 
nan

>  <ATP_Site>  (159) 
nan

>  <Peripheral>  (159) 
nan

>  <Num_H_Atoms_ProtBoundConf>  (159) 
nan

>  <Num_Resolved_Atoms>  (159) 
nan

>  <Num_Not_Resolved_Atoms>  (159) 
nan

$$$$
CHEMBL3341942
     RDKit          3D

  0  0  0  0  0  0  0  0  0  0999 V3000
M  V30 BEGIN CTAB
M  V30 COUNTS 50 52 0 0 0
M  V30 BEGIN ATOM
M  V30 1 C -2.136596 -4.958195 0.417209 0
M  V30 2 O -1.915536 -5.280648 -0.935930 0
M  V30 3 C -1.475657 -4.337651 -1.868493 0
M  V30 4 C -1.226960 -3.030216 -1.535304 0
M  V30 5 C -0.788153 -2.078127 -2.452721 0
M  V30 6 C -0.549654 -0.710507 -2.006409 0
M  V30 7 C -0.771612 0.281089 -2.937809 0
M  V30 8 N -0.533502 1.540020 -2.466464 0
M  V30 9 C -0.119905 1.723070 -1.192055 0
M  V30 10 N 0.078574 3.085903 -0.864359 0
M  V30 11 C 0.100442 0.729005 -0.265435 0
M  V30 12 C 0.548616 1.019000 1.090348 0
M  V30 13 C 1.554555 1.898446 1.430645 0
M  V30 14 C 1.874042 2.072813 2.761716 0
M  V30 15 O 2.866771 2.937801 3.127745 0
M  V30 16 C 3.643023 3.714858 2.251563 0
M  V30 17 C 1.213351 1.389880 3.767322 0
M  V30 18 O 1.508606 1.540783 5.115171 0
M  V30 19 C 2.483436 0.715920 5.756666 0
M  V30 20 C 0.196649 0.502636 3.405727 0
M  V30 21 O -0.465206 -0.183987 4.441514 0
M  V30 22 C -1.487257 -1.071030 4.018697 0
M  V30 23 C -0.137659 0.315833 2.062603 0
M  V30 24 C -0.130068 -0.554394 -0.707251 0
M  V30 25 C -0.612011 -2.526313 -3.743501 0
M  V30 26 C -0.849701 -3.831667 -4.124165 0
M  V30 27 C -1.284186 -4.737145 -3.174144 0
M  V30 28 O -1.526467 -6.053654 -3.546277 0
M  V30 29 H -1.246362 -4.447495 0.833589 0
M  V30 30 H -2.196650 -5.935696 0.977853 0
M  V30 31 H -3.063288 -4.378294 0.585201 0
M  V30 32 H -1.404033 -2.805020 -0.487780 0
M  V30 33 H -1.102440 0.046052 -3.936345 0
M  V30 34 H 0.781171 3.659471 -1.357555 0
M  V30 35 H 0.147434 4.066324 -0.553395 0
M  V30 36 H 2.050232 2.415511 0.620237 0
M  V30 37 H 2.955714 4.054525 1.426062 0
M  V30 38 H 4.112185 4.570708 2.761063 0
M  V30 39 H 4.375963 3.041133 1.760047 0
M  V30 40 H 2.519506 -0.262425 5.209126 0
M  V30 41 H 3.497829 1.139169 5.693716 0
M  V30 42 H 2.182760 0.484717 6.800565 0
M  V30 43 H -1.963754 -1.580650 4.887018 0
M  V30 44 H -0.966420 -1.829462 3.370297 0
M  V30 45 H -2.246721 -0.507336 3.433580 0
M  V30 46 H -0.945275 -0.395029 1.844248 0
M  V30 47 H 0.015217 -1.391558 -0.055139 0
M  V30 48 H -0.266179 -1.791216 -4.484524 0
M  V30 49 H -0.699008 -4.152523 -5.158759 0
M  V30 50 H -1.694294 -6.755866 -2.826451 0
M  V30 END ATOM
M  V30 BEGIN BOND
M  V30 1 1 1 2
M  V30 2 1 2 3
M  V30 3 2 3 4
M  V30 4 1 4 5
M  V30 5 1 5 6
M  V30 6 2 6 7
M  V30 7 1 7 8
M  V30 8 2 8 9
M  V30 9 1 9 10
M  V30 10 1 9 11
M  V30 11 1 11 12
M  V30 12 2 12 13
M  V30 13 1 13 14
M  V30 14 1 14 15
M  V30 15 1 15 16
M  V30 16 2 14 17
M  V30 17 1 17 18
M  V30 18 1 18 19
M  V30 19 1 17 20
M  V30 20 1 20 21
M  V30 21 1 21 22
M  V30 22 2 20 23
M  V30 23 2 11 24
M  V30 24 2 5 25
M  V30 25 1 25 26
M  V30 26 2 26 27
M  V30 27 1 27 28
M  V30 28 1 27 3
M  V30 29 1 24 6
M  V30 30 1 23 12
M  V30 31 1 1 29
M  V30 32 1 1 30
M  V30 33 1 1 31
M  V30 34 1 4 32
M  V30 35 1 7 33
M  V30 36 1 10 34
M  V30 37 1 10 35
M  V30 38 1 13 36
M  V30 39 1 16 37
M  V30 40 1 16 38
M  V30 41 1 16 39
M  V30 42 1 19 40
M  V30 43 1 19 41
M  V30 44 1 19 42
M  V30 45 1 22 43
M  V30 46 1 22 44
M  V30 47 1 22 45
M  V30 48 1 23 46
M  V30 49 1 24 47
M  V30 50 1 25 48
M  V30 51 1 26 49
M  V30 52 1 28 50
M  V30 END BOND
M  V30 END CTAB
M  END
>  <Dataset>  (160) 
ChEMBL_Kinases

>  <Ligand_Instance>  (160) 
nan

>  <PDB_ID>  (160) 
nan

>  <Standardized_SMILES>  (160) 
COc1cc(-c2cnc(N)c(-c3cc(OC)c(OC)c(OC)c3)c2)ccc1O

>  <Name>  (160) 
nan

>  <Pocket>  (160) 
nan

>  <ATP_Site>  (160) 
nan

>  <Peripheral>  (160) 
nan

>  <Num_H_Atoms_ProtBoundConf>  (160) 
nan

>  <Num_Resolved_Atoms>  (160) 
nan

>  <Num_Not_Resolved_Atoms>  (160) 
nan

$$$$
CHEMBL3341943
     RDKit          3D

  0  0  0  0  0  0  0  0  0  0999 V3000
M  V30 BEGIN CTAB
M  V30 COUNTS 53 55 0 0 0
M  V30 BEGIN ATOM
M  V30 1 C -6.309317 -1.976598 -0.085966 0
M  V30 2 O -5.453270 -3.092888 0.061678 0
M  V30 3 C -4.136907 -2.840068 0.424258 0
M  V30 4 C -3.732590 -1.547818 0.619125 0
M  V30 5 C -2.426123 -1.292323 0.979291 0
M  V30 6 C -1.809894 0.011292 1.230962 0
M  V30 7 C -0.553898 0.257922 0.662896 0
M  V30 8 C 0.167636 1.442484 0.803008 0
M  V30 9 C 1.467932 1.547157 0.146748 0
M  V30 10 C 1.625079 0.850024 -1.057598 0
M  V30 11 C 2.836891 0.897907 -1.746405 0
M  V30 12 C 3.877104 1.646998 -1.215276 0
M  V30 13 C 3.734543 2.348415 -0.013309 0
M  V30 14 N 4.835088 3.101139 0.486303 0
M  V30 15 S 6.430492 2.420142 0.493824 0
M  V30 16 C 6.507061 0.961724 1.510526 0
M  V30 17 O 7.364138 3.427439 1.072053 0
M  V30 18 O 6.910184 2.046761 -0.861176 0
M  V30 19 C 2.523405 2.281676 0.645158 0
M  V30 20 C -0.443527 2.420216 1.570502 0
M  V30 21 N -1.649522 2.195106 2.121191 0
M  V30 22 C -2.335696 1.045870 1.977728 0
M  V30 23 N -3.611633 0.804192 2.559029 0
M  V30 24 C -1.544914 -2.356322 1.137259 0
M  V30 25 C -1.934578 -3.666610 0.945055 0
M  V30 26 O -1.076419 -4.745924 1.096046 0
M  V30 27 C 0.292369 -4.558056 1.468034 0
M  V30 28 C -3.239196 -3.885159 0.587845 0
M  V30 29 O -3.649250 -5.208214 0.389336 0
M  V30 30 C -3.542783 -5.803246 -0.912796 0
M  V30 31 H -7.353385 -2.287825 -0.305328 0
M  V30 32 H -5.905304 -1.301014 -0.850484 0
M  V30 33 H -6.354413 -1.390629 0.872097 0
M  V30 34 H -4.351907 -0.682450 0.516068 0
M  V30 35 H -0.103318 -0.538874 0.063399 0
M  V30 36 H 0.872852 0.242640 -1.545960 0
M  V30 37 H 2.984541 0.364451 -2.685304 0
M  V30 38 H 4.802910 1.651492 -1.792424 0
M  V30 39 H 4.500207 4.042782 0.807834 0
M  V30 40 H 5.729074 1.008910 2.294842 0
M  V30 41 H 6.339905 0.040614 0.916453 0
M  V30 42 H 7.500887 0.883129 2.008332 0
M  V30 43 H 2.388178 2.812224 1.571533 0
M  V30 44 H 0.103349 3.336710 1.685093 0
M  V30 45 H -3.876723 0.834026 3.574795 0
M  V30 46 H -3.921299 0.822708 3.563122 0
M  V30 47 H -0.491800 -2.232261 1.421955 0
M  V30 48 H 0.852719 -4.023299 0.669002 0
M  V30 49 H 0.775718 -5.545840 1.608532 0
M  V30 50 H 0.396978 -3.970689 2.392948 0
M  V30 51 H -2.977002 -5.104635 -1.596432 0
M  V30 52 H -2.909375 -6.712400 -0.860993 0
M  V30 53 H -4.539134 -5.996990 -1.356805 0
M  V30 END ATOM
M  V30 BEGIN BOND
M  V30 1 1 1 2
M  V30 2 1 2 3
M  V30 3 2 3 4
M  V30 4 1 4 5
M  V30 5 1 5 6
M  V30 6 2 6 7
M  V30 7 1 7 8
M  V30 8 1 8 9
M  V30 9 2 9 10
M  V30 10 1 10 11
M  V30 11 2 11 12
M  V30 12 1 12 13
M  V30 13 1 13 14
M  V30 14 1 14 15
M  V30 15 1 15 16
M  V30 16 2 15 17
M  V30 17 2 15 18
M  V30 18 2 13 19
M  V30 19 2 8 20
M  V30 20 1 20 21
M  V30 21 2 21 22
M  V30 22 1 22 23
M  V30 23 2 5 24
M  V30 24 1 24 25
M  V30 25 1 25 26
M  V30 26 1 26 27
M  V30 27 2 25 28
M  V30 28 1 28 29
M  V30 29 1 29 30
M  V30 30 1 28 3
M  V30 31 1 22 6
M  V30 32 1 19 9
M  V30 33 1 1 31
M  V30 34 1 1 32
M  V30 35 1 1 33
M  V30 36 1 4 34
M  V30 37 1 7 35
M  V30 38 1 10 36
M  V30 39 1 11 37
M  V30 40 1 12 38
M  V30 41 1 14 39
M  V30 42 1 16 40
M  V30 43 1 16 41
M  V30 44 1 16 42
M  V30 45 1 19 43
M  V30 46 1 20 44
M  V30 47 1 23 45
M  V30 48 1 23 46
M  V30 49 1 24 47
M  V30 50 1 27 48
M  V30 51 1 27 49
M  V30 52 1 27 50
M  V30 53 1 30 51
M  V30 54 1 30 52
M  V30 55 1 30 53
M  V30 END BOND
M  V30 END CTAB
M  END
>  <Dataset>  (161) 
ChEMBL_Kinases

>  <Ligand_Instance>  (161) 
nan

>  <PDB_ID>  (161) 
nan

>  <Standardized_SMILES>  (161) 
COc1cc(-c2cc(-c3cccc(NS(C)(=O)=O)c3)cnc2N)cc(OC)c1OC

>  <Name>  (161) 
nan

>  <Pocket>  (161) 
nan

>  <ATP_Site>  (161) 
nan

>  <Peripheral>  (161) 
nan

>  <Num_H_Atoms_ProtBoundConf>  (161) 
nan

>  <Num_Resolved_Atoms>  (161) 
nan

>  <Num_Not_Resolved_Atoms>  (161) 
nan

$$$$
CHEMBL3341944
     RDKit          3D

  0  0  0  0  0  0  0  0  0  0999 V3000
M  V30 BEGIN CTAB
M  V30 COUNTS 59 62 0 0 0
M  V30 BEGIN ATOM
M  V30 1 C 1.590461 -4.864092 4.958971 0
M  V30 2 O 0.957436 -5.336276 3.759612 0
M  V30 3 C 0.968784 -4.536280 2.624893 0
M  V30 4 C 1.583521 -3.300684 2.654416 0
M  V30 5 C 1.600316 -2.504793 1.542147 0
M  V30 6 C 2.204145 -1.181141 1.410055 0
M  V30 7 C 1.451019 -0.199332 0.773502 0
M  V30 8 C 1.987143 1.081011 0.624595 0
M  V30 9 C 1.149319 2.071755 -0.052157 0
M  V30 10 C 1.856230 3.026143 -0.768114 0
M  V30 11 C 1.095148 3.976602 -1.419121 0
M  V30 12 C -0.280734 3.977721 -1.361679 0
M  V30 13 C -0.965496 3.020981 -0.644922 0
M  V30 14 N -2.383408 2.975475 -0.553272 0
M  V30 15 C -3.190884 2.025694 0.184298 0
M  V30 16 C -4.001551 1.134691 -0.724982 0
M  V30 17 N -4.281911 1.743464 -1.997161 0
M  V30 18 C -4.416548 3.166685 -1.943324 0
M  V30 19 C -3.319189 3.874134 -1.183697 0
M  V30 20 C -0.231197 2.077536 0.002147 0
M  V30 21 C 3.247695 1.394925 1.094680 0
M  V30 22 N 3.956239 0.409543 1.712324 0
M  V30 23 C 3.463713 -0.833178 1.869357 0
M  V30 24 N 4.227746 -1.846541 2.520091 0
M  V30 25 C 0.986209 -2.971800 0.391940 0
M  V30 26 C 0.376459 -4.211514 0.383201 0
M  V30 27 O -0.242976 -4.693768 -0.761038 0
M  V30 28 C -0.274140 -3.930457 -1.969763 0
M  V30 29 C 0.345045 -5.035155 1.492467 0
M  V30 30 O -0.280294 -6.274021 1.435984 0
M  V30 31 C 0.534179 -7.375848 1.040906 0
M  V30 32 H 1.005672 -4.021097 5.384662 0
M  V30 33 H 2.609829 -4.452152 4.736446 0
M  V30 34 H 1.655575 -5.646568 5.713373 0
M  V30 35 H 2.066702 -2.905926 3.519535 0
M  V30 36 H 0.464392 -0.449310 0.406714 0
M  V30 37 H 2.933309 3.075817 -0.849474 0
M  V30 38 H 1.594916 4.750063 -1.996225 0
M  V30 39 H -0.810137 4.749612 -1.894246 0
M  V30 40 H -3.909309 2.530245 0.892924 0
M  V30 41 H -2.606330 1.346073 0.833976 0
M  V30 42 H -3.498834 0.164605 -0.917693 0
M  V30 43 H -4.978138 0.911125 -0.255230 0
M  V30 44 H -3.706411 1.372163 -2.780729 0
M  V30 45 H -4.338577 3.520073 -3.011863 0
M  V30 46 H -5.434147 3.438097 -1.628583 0
M  V30 47 H -2.822604 4.646883 -1.770695 0
M  V30 48 H -3.857065 4.421640 -0.353523 0
M  V30 49 H -0.601654 1.279216 0.591382 0
M  V30 50 H 3.629062 2.399497 0.960210 0
M  V30 51 H 4.385196 -1.865679 3.553925 0
M  V30 52 H 4.773983 -2.712080 2.315528 0
M  V30 53 H 0.947939 -2.409989 -0.542500 0
M  V30 54 H 0.757816 -3.823182 -2.384401 0
M  V30 55 H -0.713273 -2.924765 -1.741117 0
M  V30 56 H -0.918184 -4.442355 -2.713380 0
M  V30 57 H 1.097869 -7.028122 0.142017 0
M  V30 58 H 1.295162 -7.519303 1.838814 0
M  V30 59 H -0.066371 -8.280997 0.863347 0
M  V30 END ATOM
M  V30 BEGIN BOND
M  V30 1 1 1 2
M  V30 2 1 2 3
M  V30 3 2 3 4
M  V30 4 1 4 5
M  V30 5 1 5 6
M  V30 6 2 6 7
M  V30 7 1 7 8
M  V30 8 1 8 9
M  V30 9 2 9 10
M  V30 10 1 10 11
M  V30 11 2 11 12
M  V30 12 1 12 13
M  V30 13 1 13 14
M  V30 14 1 14 15
M  V30 15 1 15 16
M  V30 16 1 16 17
M  V30 17 1 17 18
M  V30 18 1 18 19
M  V30 19 2 13 20
M  V30 20 2 8 21
M  V30 21 1 21 22
M  V30 22 2 22 23
M  V30 23 1 23 24
M  V30 24 2 5 25
M  V30 25 1 25 26
M  V30 26 1 26 27
M  V30 27 1 27 28
M  V30 28 2 26 29
M  V30 29 1 29 30
M  V30 30 1 30 31
M  V30 31 1 29 3
M  V30 32 1 23 6
M  V30 33 1 20 9
M  V30 34 1 19 14
M  V30 35 1 1 32
M  V30 36 1 1 33
M  V30 37 1 1 34
M  V30 38 1 4 35
M  V30 39 1 7 36
M  V30 40 1 10 37
M  V30 41 1 11 38
M  V30 42 1 12 39
M  V30 43 1 15 40
M  V30 44 1 15 41
M  V30 45 1 16 42
M  V30 46 1 16 43
M  V30 47 1 17 44
M  V30 48 1 18 45
M  V30 49 1 18 46
M  V30 50 1 19 47
M  V30 51 1 19 48
M  V30 52 1 20 49
M  V30 53 1 21 50
M  V30 54 1 24 51
M  V30 55 1 24 52
M  V30 56 1 25 53
M  V30 57 1 28 54
M  V30 58 1 28 55
M  V30 59 1 28 56
M  V30 60 1 31 57
M  V30 61 1 31 58
M  V30 62 1 31 59
M  V30 END BOND
M  V30 END CTAB
M  END
>  <Dataset>  (162) 
ChEMBL_Kinases

>  <Ligand_Instance>  (162) 
nan

>  <PDB_ID>  (162) 
nan

>  <Standardized_SMILES>  (162) 
COc1cc(-c2cc(-c3cccc(N4CCNCC4)c3)cnc2N)cc(OC)c1OC

>  <Name>  (162) 
nan

>  <Pocket>  (162) 
nan

>  <ATP_Site>  (162) 
nan

>  <Peripheral>  (162) 
nan

>  <Num_H_Atoms_ProtBoundConf>  (162) 
nan

>  <Num_Resolved_Atoms>  (162) 
nan

>  <Num_Not_Resolved_Atoms>  (162) 
nan

$$$$
CHEMBL3341945
     RDKit          3D

  0  0  0  0  0  0  0  0  0  0999 V3000
M  V30 BEGIN CTAB
M  V30 COUNTS 59 62 0 0 0
M  V30 BEGIN ATOM
M  V30 1 C 0.244407 -3.673040 3.908921 0
M  V30 2 O 0.299334 -4.744635 3.016776 0
M  V30 3 C 0.705308 -4.674345 1.691959 0
M  V30 4 C 1.120232 -3.519403 1.052126 0
M  V30 5 C 1.514772 -3.504805 -0.270524 0
M  V30 6 C 1.910427 -2.211091 -0.761111 0
M  V30 7 C 1.101943 -1.128849 -0.480068 0
M  V30 8 C 1.325553 0.186961 -0.874501 0
M  V30 9 C 0.396075 1.253587 -0.518227 0
M  V30 10 C 0.814059 2.553013 -0.310325 0
M  V30 11 C -0.038428 3.582783 0.026592 0
M  V30 12 C -1.387472 3.341634 0.172995 0
M  V30 13 N -2.361768 4.318933 0.514717 0
M  V30 14 C -3.790254 4.137408 0.715817 0
M  V30 15 C -4.290765 4.724094 2.007951 0
M  V30 16 N -3.255715 5.238326 2.860965 0
M  V30 17 C -2.338824 6.117977 2.179621 0
M  V30 18 C -2.119067 5.728707 0.735563 0
M  V30 19 C -1.829903 2.052347 -0.029378 0
M  V30 20 C -0.959960 1.032699 -0.366800 0
M  V30 21 C 2.476572 0.381516 -1.615053 0
M  V30 22 N 3.291024 -0.650362 -1.909663 0
M  V30 23 C 3.033694 -1.908531 -1.505867 0
M  V30 24 N 3.904669 -3.016762 -1.817041 0
M  V30 25 C 1.491880 -4.689394 -0.974854 0
M  V30 26 C 1.086792 -5.866852 -0.383113 0
M  V30 27 O 1.060448 -7.063761 -1.083355 0
M  V30 28 C 1.443867 -7.133056 -2.423656 0
M  V30 29 C 0.694053 -5.845295 0.957675 0
M  V30 30 O 0.290401 -7.073975 1.511266 0
M  V30 31 C 1.367639 -7.816840 2.101444 0
M  V30 32 H -0.026158 -2.717873 3.457937 0
M  V30 33 H -0.521712 -3.914612 4.691681 0
M  V30 34 H 1.201334 -3.532149 4.484828 0
M  V30 35 H 1.098364 -2.643106 1.702907 0
M  V30 36 H 0.197641 -1.284969 0.103430 0
M  V30 37 H 1.858890 2.815876 -0.408042 0
M  V30 38 H 0.333008 4.577445 0.178821 0
M  V30 39 H -4.138183 3.108831 0.582664 0
M  V30 40 H -4.319392 4.721815 -0.095740 0
M  V30 41 H -5.066582 5.498653 1.878016 0
M  V30 42 H -4.781148 3.907613 2.576743 0
M  V30 43 H -2.771937 4.518311 3.439590 0
M  V30 44 H -2.774152 7.133252 2.177719 0
M  V30 45 H -1.383113 6.076486 2.701366 0
M  V30 46 H -1.071458 5.978492 0.480503 0
M  V30 47 H -2.746985 6.328901 0.042795 0
M  V30 48 H -2.836791 1.679835 0.039935 0
M  V30 49 H -1.252944 -0.007163 -0.539600 0
M  V30 50 H 2.682586 1.392184 -1.938844 0
M  V30 51 H 4.479028 -2.854480 -2.679424 0
M  V30 52 H 3.923037 -3.865977 -1.212556 0
M  V30 53 H 1.803791 -4.644316 -2.003064 0
M  V30 54 H 2.546667 -7.182083 -2.508865 0
M  V30 55 H 1.117660 -6.257483 -3.042366 0
M  V30 56 H 0.913789 -7.999956 -2.873175 0
M  V30 57 H 2.246467 -7.804615 1.394135 0
M  V30 58 H 1.708455 -7.315113 3.025932 0
M  V30 59 H 1.047713 -8.857725 2.221370 0
M  V30 END ATOM
M  V30 BEGIN BOND
M  V30 1 1 1 2
M  V30 2 1 2 3
M  V30 3 2 3 4
M  V30 4 1 4 5
M  V30 5 1 5 6
M  V30 6 2 6 7
M  V30 7 1 7 8
M  V30 8 1 8 9
M  V30 9 2 9 10
M  V30 10 1 10 11
M  V30 11 2 11 12
M  V30 12 1 12 13
M  V30 13 1 13 14
M  V30 14 1 14 15
M  V30 15 1 15 16
M  V30 16 1 16 17
M  V30 17 1 17 18
M  V30 18 1 12 19
M  V30 19 2 19 20
M  V30 20 2 8 21
M  V30 21 1 21 22
M  V30 22 2 22 23
M  V30 23 1 23 24
M  V30 24 2 5 25
M  V30 25 1 25 26
M  V30 26 1 26 27
M  V30 27 1 27 28
M  V30 28 2 26 29
M  V30 29 1 29 30
M  V30 30 1 30 31
M  V30 31 1 29 3
M  V30 32 1 23 6
M  V30 33 1 20 9
M  V30 34 1 18 13
M  V30 35 1 1 32
M  V30 36 1 1 33
M  V30 37 1 1 34
M  V30 38 1 4 35
M  V30 39 1 7 36
M  V30 40 1 10 37
M  V30 41 1 11 38
M  V30 42 1 14 39
M  V30 43 1 14 40
M  V30 44 1 15 41
M  V30 45 1 15 42
M  V30 46 1 16 43
M  V30 47 1 17 44
M  V30 48 1 17 45
M  V30 49 1 18 46
M  V30 50 1 18 47
M  V30 51 1 19 48
M  V30 52 1 20 49
M  V30 53 1 21 50
M  V30 54 1 24 51
M  V30 55 1 24 52
M  V30 56 1 25 53
M  V30 57 1 28 54
M  V30 58 1 28 55
M  V30 59 1 28 56
M  V30 60 1 31 57
M  V30 61 1 31 58
M  V30 62 1 31 59
M  V30 END BOND
M  V30 END CTAB
M  END
>  <Dataset>  (163) 
ChEMBL_Kinases

>  <Ligand_Instance>  (163) 
nan

>  <PDB_ID>  (163) 
nan

>  <Standardized_SMILES>  (163) 
COc1cc(-c2cc(-c3ccc(N4CCNCC4)cc3)cnc2N)cc(OC)c1OC

>  <Name>  (163) 
nan

>  <Pocket>  (163) 
nan

>  <ATP_Site>  (163) 
nan

>  <Peripheral>  (163) 
nan

>  <Num_H_Atoms_ProtBoundConf>  (163) 
nan

>  <Num_Resolved_Atoms>  (163) 
nan

>  <Num_Not_Resolved_Atoms>  (163) 
nan

$$$$
CHEMBL3341946
     RDKit          3D

  0  0  0  0  0  0  0  0  0  0999 V3000
M  V30 BEGIN CTAB
M  V30 COUNTS 55 58 0 0 0
M  V30 BEGIN ATOM
M  V30 1 C 1.294027 -8.541985 1.970069 0
M  V30 2 O 0.412033 -7.558431 1.482065 0
M  V30 3 C 0.790335 -6.349618 0.931006 0
M  V30 4 C 2.102971 -6.002796 0.812995 0
M  V30 5 C 2.393513 -4.775839 0.250632 0
M  V30 6 C 1.419330 -3.893626 -0.193102 0
M  V30 7 C 1.756642 -2.596762 -0.786868 0
M  V30 8 C 0.985690 -1.538150 -0.314251 0
M  V30 9 C 1.257016 -0.285959 -0.838696 0
M  V30 10 C 0.519000 0.904636 -0.426863 0
M  V30 11 C -0.806958 0.763614 -0.064202 0
M  V30 12 C -1.549231 1.860943 0.332280 0
M  V30 13 C -1.028728 3.135397 0.390410 0
M  V30 14 N -1.746400 4.295273 0.788580 0
M  V30 15 C -1.221716 5.646942 0.855824 0
M  V30 16 C -1.265802 6.066273 2.314876 0
M  V30 17 N -2.564804 5.848797 2.894704 0
M  V30 18 C -3.071291 4.529101 2.710126 0
M  V30 19 C -3.141963 4.289140 1.194969 0
M  V30 20 C 0.295375 3.254345 0.024824 0
M  V30 21 C 1.059302 2.173610 -0.375218 0
M  V30 22 C 2.248131 -0.073445 -1.792971 0
M  V30 23 N 2.965567 -1.141475 -2.214448 0
M  V30 24 C 2.735115 -2.380433 -1.730406 0
M  V30 25 N 3.482504 -3.513170 -2.165077 0
M  V30 26 C 0.100273 -4.276833 -0.058401 0
M  V30 27 C -0.221757 -5.514053 0.507719 0
M  V30 28 O -1.566762 -5.909243 0.647136 0
M  V30 29 C -2.546169 -4.987206 0.184547 0
M  V30 30 H 1.577331 -9.260980 1.168973 0
M  V30 31 H 0.790690 -9.148368 2.762158 0
M  V30 32 H 2.227446 -8.128079 2.383543 0
M  V30 33 H 2.912795 -6.644487 1.139153 0
M  V30 34 H 3.417548 -4.407822 0.113216 0
M  V30 35 H 0.203418 -1.666614 0.430486 0
M  V30 36 H -1.288960 -0.204160 -0.082965 0
M  V30 37 H -2.578626 1.699540 0.605928 0
M  V30 38 H -0.212509 5.775487 0.473970 0
M  V30 39 H -1.926134 6.333673 0.331462 0
M  V30 40 H -0.513157 5.597053 2.945718 0
M  V30 41 H -1.077204 7.179101 2.355892 0
M  V30 42 H -2.687079 6.260397 3.821764 0
M  V30 43 H -4.035867 4.446406 3.206889 0
M  V30 44 H -2.304750 3.806792 3.112080 0
M  V30 45 H -3.694162 5.130778 0.729808 0
M  V30 46 H -3.646118 3.325823 1.072432 0
M  V30 47 H 0.861522 4.154231 0.008727 0
M  V30 48 H 2.096067 2.218959 -0.669229 0
M  V30 49 H 2.497510 0.865211 -2.228137 0
M  V30 50 H 2.858264 -4.168232 -2.694986 0
M  V30 51 H 4.514057 -3.622036 -1.953752 0
M  V30 52 H -0.715532 -3.643990 -0.380718 0
M  V30 53 H -3.533596 -5.438776 0.362294 0
M  V30 54 H -2.442961 -4.821823 -0.905596 0
M  V30 55 H -2.440154 -4.008066 0.665880 0
M  V30 END ATOM
M  V30 BEGIN BOND
M  V30 1 1 1 2
M  V30 2 1 2 3
M  V30 3 2 3 4
M  V30 4 1 4 5
M  V30 5 2 5 6
M  V30 6 1 6 7
M  V30 7 2 7 8
M  V30 8 1 8 9
M  V30 9 1 9 10
M  V30 10 2 10 11
M  V30 11 1 11 12
M  V30 12 2 12 13
M  V30 13 1 13 14
M  V30 14 1 14 15
M  V30 15 1 15 16
M  V30 16 1 16 17
M  V30 17 1 17 18
M  V30 18 1 18 19
M  V30 19 1 13 20
M  V30 20 2 20 21
M  V30 21 2 9 22
M  V30 22 1 22 23
M  V30 23 2 23 24
M  V30 24 1 24 25
M  V30 25 1 6 26
M  V30 26 2 26 27
M  V30 27 1 27 28
M  V30 28 1 28 29
M  V30 29 1 27 3
M  V30 30 1 24 7
M  V30 31 1 21 10
M  V30 32 1 19 14
M  V30 33 1 1 30
M  V30 34 1 1 31
M  V30 35 1 1 32
M  V30 36 1 4 33
M  V30 37 1 5 34
M  V30 38 1 8 35
M  V30 39 1 11 36
M  V30 40 1 12 37
M  V30 41 1 15 38
M  V30 42 1 15 39
M  V30 43 1 16 40
M  V30 44 1 16 41
M  V30 45 1 17 42
M  V30 46 1 18 43
M  V30 47 1 18 44
M  V30 48 1 19 45
M  V30 49 1 19 46
M  V30 50 1 20 47
M  V30 51 1 21 48
M  V30 52 1 22 49
M  V30 53 1 25 50
M  V30 54 1 25 51
M  V30 55 1 26 52
M  V30 56 1 29 53
M  V30 57 1 29 54
M  V30 58 1 29 55
M  V30 END BOND
M  V30 END CTAB
M  END
>  <Dataset>  (164) 
ChEMBL_Kinases

>  <Ligand_Instance>  (164) 
nan

>  <PDB_ID>  (164) 
nan

>  <Standardized_SMILES>  (164) 
COc1ccc(-c2cc(-c3ccc(N4CCNCC4)cc3)cnc2N)cc1OC

>  <Name>  (164) 
nan

>  <Pocket>  (164) 
nan

>  <ATP_Site>  (164) 
nan

>  <Peripheral>  (164) 
nan

>  <Num_H_Atoms_ProtBoundConf>  (164) 
nan

>  <Num_Resolved_Atoms>  (164) 
nan

>  <Num_Not_Resolved_Atoms>  (164) 
nan

$$$$
CHEMBL3341947
     RDKit          3D

  0  0  0  0  0  0  0  0  0  0999 V3000
M  V30 BEGIN CTAB
M  V30 COUNTS 55 58 0 0 0
M  V30 BEGIN ATOM
M  V30 1 C -2.154876 -5.427112 1.124790 0
M  V30 2 O -1.242141 -6.156457 0.323047 0
M  V30 3 C -0.436963 -5.568798 -0.642024 0
M  V30 4 C 0.460637 -6.245881 -1.438650 0
M  V30 5 C 1.248081 -5.633250 -2.390398 0
M  V30 6 O 2.124012 -6.402110 -3.145395 0
M  V30 7 C 2.944599 -5.768988 -4.136913 0
M  V30 8 C 1.165281 -4.276437 -2.587994 0
M  V30 9 C 0.273243 -3.537631 -1.810201 0
M  V30 10 C 0.180298 -2.094916 -2.014197 0
M  V30 11 C 0.151824 -1.342784 -0.835231 0
M  V30 12 C 0.061800 0.044054 -0.991078 0
M  V30 13 C 0.025275 0.876651 0.210829 0
M  V30 14 C 0.550990 2.160804 0.245371 0
M  V30 15 C 0.525295 2.966973 1.366375 0
M  V30 16 C -0.055103 2.483255 2.535257 0
M  V30 17 N -0.148561 3.221341 3.761786 0
M  V30 18 C -0.680752 2.721560 5.015205 0
M  V30 19 C -2.024258 3.408613 5.199174 0
M  V30 20 N -1.940372 4.804080 4.821059 0
M  V30 21 C -0.562941 5.284413 4.888579 0
M  V30 22 C 0.305602 4.608212 3.846180 0
M  V30 23 C -0.575468 1.208598 2.497228 0
M  V30 24 C -0.550207 0.399901 1.374100 0
M  V30 25 C 0.004782 0.628881 -2.259966 0
M  V30 26 N 0.039150 -0.188904 -3.328600 0
M  V30 27 C 0.124019 -1.519777 -3.260775 0
M  V30 28 N 0.158816 -2.368063 -4.411066 0
M  V30 29 C -0.507734 -4.187614 -0.857420 0
M  V30 30 H -1.773450 -4.437792 1.422028 0
M  V30 31 H -3.183557 -5.417740 0.721415 0
M  V30 32 H -2.228209 -6.001486 2.094264 0
M  V30 33 H 0.480921 -7.323117 -1.233126 0
M  V30 34 H 3.503117 -6.543566 -4.704953 0
M  V30 35 H 2.254415 -5.236488 -4.853698 0
M  V30 36 H 3.651749 -5.045637 -3.690115 0
M  V30 37 H 1.798612 -3.848980 -3.339277 0
M  V30 38 H 0.196986 -1.808288 0.146968 0
M  V30 39 H 1.013993 2.574726 -0.649928 0
M  V30 40 H 0.936516 3.953755 1.373208 0
M  V30 41 H -0.024632 3.082176 5.849200 0
M  V30 42 H -0.746521 1.636691 5.089392 0
M  V30 43 H -2.735317 2.916223 4.508368 0
M  V30 44 H -2.441777 3.260417 6.224409 0
M  V30 45 H -2.195120 4.869733 3.812158 0
M  V30 46 H -0.176854 5.171670 5.915502 0
M  V30 47 H -0.587174 6.362446 4.646280 0
M  V30 48 H 1.360388 4.544446 4.187202 0
M  V30 49 H 0.266447 5.123840 2.877236 0
M  V30 50 H -1.056443 0.701480 3.326839 0
M  V30 51 H -0.951640 -0.600861 1.320424 0
M  V30 52 H -0.064058 1.698014 -2.357513 0
M  V30 53 H -0.611207 -3.101265 -4.392839 0
M  V30 54 H 0.958963 -2.027909 -4.980354 0
M  V30 55 H -1.165393 -3.542039 -0.304915 0
M  V30 END ATOM
M  V30 BEGIN BOND
M  V30 1 1 1 2
M  V30 2 1 2 3
M  V30 3 2 3 4
M  V30 4 1 4 5
M  V30 5 1 5 6
M  V30 6 1 6 7
M  V30 7 2 5 8
M  V30 8 1 8 9
M  V30 9 1 9 10
M  V30 10 2 10 11
M  V30 11 1 11 12
M  V30 12 1 12 13
M  V30 13 2 13 14
M  V30 14 1 14 15
M  V30 15 2 15 16
M  V30 16 1 16 17
M  V30 17 1 17 18
M  V30 18 1 18 19
M  V30 19 1 19 20
M  V30 20 1 20 21
M  V30 21 1 21 22
M  V30 22 1 16 23
M  V30 23 2 23 24
M  V30 24 2 12 25
M  V30 25 1 25 26
M  V30 26 2 26 27
M  V30 27 1 27 28
M  V30 28 2 9 29
M  V30 29 1 29 3
M  V30 30 1 27 10
M  V30 31 1 24 13
M  V30 32 1 22 17
M  V30 33 1 1 30
M  V30 34 1 1 31
M  V30 35 1 1 32
M  V30 36 1 4 33
M  V30 37 1 7 34
M  V30 38 1 7 35
M  V30 39 1 7 36
M  V30 40 1 8 37
M  V30 41 1 11 38
M  V30 42 1 14 39
M  V30 43 1 15 40
M  V30 44 1 18 41
M  V30 45 1 18 42
M  V30 46 1 19 43
M  V30 47 1 19 44
M  V30 48 1 20 45
M  V30 49 1 21 46
M  V30 50 1 21 47
M  V30 51 1 22 48
M  V30 52 1 22 49
M  V30 53 1 23 50
M  V30 54 1 24 51
M  V30 55 1 25 52
M  V30 56 1 28 53
M  V30 57 1 28 54
M  V30 58 1 29 55
M  V30 END BOND
M  V30 END CTAB
M  END
>  <Dataset>  (165) 
ChEMBL_Kinases

>  <Ligand_Instance>  (165) 
nan

>  <PDB_ID>  (165) 
nan

>  <Standardized_SMILES>  (165) 
COc1cc(OC)cc(-c2cc(-c3ccc(N4CCNCC4)cc3)cnc2N)c1

>  <Name>  (165) 
nan

>  <Pocket>  (165) 
nan

>  <ATP_Site>  (165) 
nan

>  <Peripheral>  (165) 
nan

>  <Num_H_Atoms_ProtBoundConf>  (165) 
nan

>  <Num_Resolved_Atoms>  (165) 
nan

>  <Num_Not_Resolved_Atoms>  (165) 
nan

$$$$
CHEMBL334184
     RDKit          3D

  0  0  0  0  0  0  0  0  0  0999 V3000
M  V30 BEGIN CTAB
M  V30 COUNTS 44 48 0 0 0
M  V30 BEGIN ATOM
M  V30 1 O -2.032295 -3.443472 -1.183487 0
M  V30 2 C -1.613669 -2.519653 -0.412507 0
M  V30 3 C -2.490339 -1.667627 0.243890 0
M  V30 4 C -1.953355 -0.681132 1.071110 0
M  V30 5 C -0.572783 -0.557809 1.231383 0
M  V30 6 C -0.246627 0.530494 2.131642 0
M  V30 7 C 0.502417 1.652018 1.765749 0
M  V30 8 C 1.111077 2.003821 0.487184 0
M  V30 9 C 2.101447 1.128496 0.051917 0
M  V30 10 C 2.757301 1.352937 -1.152200 0
M  V30 11 C 2.449039 2.453777 -1.960018 0
M  V30 12 F 3.081345 2.688545 -3.141234 0
M  V30 13 C 1.459086 3.302604 -1.495368 0
M  V30 14 C 0.800441 3.092060 -0.302892 0
M  V30 15 Cl -0.448147 4.147578 0.300839 0
M  V30 16 N 0.586243 2.430025 2.873270 0
M  V30 17 C -0.068615 1.844536 3.889096 0
M  V30 18 C -0.237885 2.290227 5.202201 0
M  V30 19 C -0.962775 1.479239 6.039874 0
M  V30 20 C -1.494913 0.273463 5.580348 0
M  V30 21 C -1.288773 -0.101602 4.276011 0
M  V30 22 N -0.581765 0.675853 3.435105 0
M  V30 23 N 0.222541 -1.415700 0.566488 0
M  V30 24 N -0.291541 -2.347865 -0.215349 0
M  V30 25 C 0.683273 -3.180236 -0.851493 0
M  V30 26 C 1.622126 -3.990889 -0.245871 0
M  V30 27 C 2.489480 -4.729617 -1.015457 0
M  V30 28 C 2.441018 -4.677615 -2.391641 0
M  V30 29 C 1.505840 -3.870262 -3.023683 0
M  V30 30 C 0.629510 -3.123935 -2.229404 0
M  V30 31 Cl -0.483810 -2.161583 -3.201906 0
M  V30 32 H -3.531096 -1.830247 0.066114 0
M  V30 33 H -2.720103 -0.073936 1.532970 0
M  V30 34 H 2.482731 0.231831 0.523691 0
M  V30 35 H 3.538659 0.729138 -1.572551 0
M  V30 36 H 1.193728 4.162915 -2.092441 0
M  V30 37 H 0.177281 3.223231 5.547393 0
M  V30 38 H -1.092214 1.822946 7.048172 0
M  V30 39 H -2.056571 -0.324853 6.281665 0
M  V30 40 H -1.700098 -1.042858 3.901972 0
M  V30 41 H 1.562492 -3.947291 0.835687 0
M  V30 42 H 3.193142 -5.337763 -0.467953 0
M  V30 43 H 3.146408 -5.278799 -2.951794 0
M  V30 44 H 1.528636 -3.881805 -4.098939 0
M  V30 END ATOM
M  V30 BEGIN BOND
M  V30 1 2 1 2
M  V30 2 1 2 3
M  V30 3 2 3 4
M  V30 4 1 4 5
M  V30 5 1 5 6
M  V30 6 2 6 7
M  V30 7 1 7 8
M  V30 8 2 8 9
M  V30 9 1 9 10
M  V30 10 2 10 11
M  V30 11 1 11 12
M  V30 12 1 11 13
M  V30 13 2 13 14
M  V30 14 1 14 15
M  V30 15 1 7 16
M  V30 16 2 16 17
M  V30 17 1 17 18
M  V30 18 2 18 19
M  V30 19 1 19 20
M  V30 20 2 20 21
M  V30 21 1 21 22
M  V30 22 2 5 23
M  V30 23 1 23 24
M  V30 24 1 24 25
M  V30 25 2 25 26
M  V30 26 1 26 27
M  V30 27 2 27 28
M  V30 28 1 28 29
M  V30 29 2 29 30
M  V30 30 1 30 31
M  V30 31 1 24 2
M  V30 32 1 30 25
M  V30 33 1 22 6
M  V30 34 1 14 8
M  V30 35 1 22 17
M  V30 36 1 3 32
M  V30 37 1 4 33
M  V30 38 1 9 34
M  V30 39 1 10 35
M  V30 40 1 13 36
M  V30 41 1 18 37
M  V30 42 1 19 38
M  V30 43 1 20 39
M  V30 44 1 21 40
M  V30 45 1 26 41
M  V30 46 1 27 42
M  V30 47 1 28 43
M  V30 48 1 29 44
M  V30 END BOND
M  V30 END CTAB
M  END
>  <Dataset>  (166) 
ChEMBL_Kinases

>  <Ligand_Instance>  (166) 
nan

>  <PDB_ID>  (166) 
nan

>  <Standardized_SMILES>  (166) 
O=c1ccc(-c2c(-c3ccc(F)cc3Cl)nc3ccccn23)nn1-c1ccccc1Cl

>  <Name>  (166) 
nan

>  <Pocket>  (166) 
nan

>  <ATP_Site>  (166) 
nan

>  <Peripheral>  (166) 
nan

>  <Num_H_Atoms_ProtBoundConf>  (166) 
nan

>  <Num_Resolved_Atoms>  (166) 
nan

>  <Num_Not_Resolved_Atoms>  (166) 
nan

$$$$
CHEMBL3330264
     RDKit          3D

  0  0  0  0  0  0  0  0  0  0999 V3000
M  V30 BEGIN CTAB
M  V30 COUNTS 47 50 0 0 0
M  V30 BEGIN ATOM
M  V30 1 N 1.483347 -4.390984 -0.103250 0
M  V30 2 S 3.064531 -3.767001 0.205770 0
M  V30 3 O 3.181580 -3.556805 1.692058 0
M  V30 4 O 4.066716 -4.776992 -0.271389 0
M  V30 5 C 3.323647 -2.262656 -0.662288 0
M  V30 6 C 3.849472 -2.284620 -1.937148 0
M  V30 7 C 4.042851 -1.077670 -2.598293 0
M  V30 8 C 3.713083 0.125544 -1.987022 0
M  V30 9 C 3.185741 0.174808 -0.712792 0
M  V30 10 C 2.843977 1.445397 -0.082997 0
M  V30 11 N 3.614629 2.570060 -0.079473 0
M  V30 12 N 3.018366 3.544980 0.576185 0
M  V30 13 C 1.826109 3.135947 1.045642 0
M  V30 14 C 0.778249 3.658722 1.773063 0
M  V30 15 C -0.350732 2.929483 2.095598 0
M  V30 16 C -0.469063 1.610052 1.685862 0
M  V30 17 C -1.613509 0.750991 1.970045 0
M  V30 18 O -1.633655 -0.445567 1.553459 0
M  V30 19 N -2.723500 1.205444 2.705164 0
M  V30 20 C -3.912900 0.441033 3.046328 0
M  V30 21 C -3.800370 -0.943449 2.494008 0
M  V30 22 C -3.252322 -2.033751 3.136133 0
M  V30 23 C -3.214096 -3.248770 2.509546 0
M  V30 24 C -3.710128 -3.447509 1.229532 0
M  V30 25 C -4.261261 -2.351906 0.583303 0
M  V30 26 C -4.302378 -1.125502 1.209821 0
M  V30 27 C 0.592877 1.108026 0.958578 0
M  V30 28 C 1.724757 1.825395 0.630311 0
M  V30 29 C 3.007257 -1.041586 -0.086367 0
M  V30 30 H 0.768408 -3.692009 0.232421 0
M  V30 31 H 1.418276 -4.513646 -1.154274 0
M  V30 32 H 4.081679 -3.247760 -2.349236 0
M  V30 33 H 4.460307 -1.168518 -3.598794 0
M  V30 34 H 3.891102 1.033365 -2.563486 0
M  V30 35 H 3.384658 4.513704 0.732785 0
M  V30 36 H 0.867404 4.694237 2.096548 0
M  V30 37 H -1.166258 3.351042 2.666981 0
M  V30 38 H -2.779997 2.173015 3.079597 0
M  V30 39 H -4.786591 0.949501 2.639214 0
M  V30 40 H -3.974629 0.323696 4.166890 0
M  V30 41 H -2.873735 -1.858539 4.126943 0
M  V30 42 H -2.788070 -4.110832 3.000140 0
M  V30 43 H -3.700833 -4.388602 0.696585 0
M  V30 44 H -4.665537 -2.469550 -0.433788 0
M  V30 45 H -4.741877 -0.301245 0.665352 0
M  V30 46 H 0.522005 0.081760 0.628961 0
M  V30 47 H 2.600500 -1.085003 0.909371 0
M  V30 END ATOM
M  V30 BEGIN BOND
M  V30 1 1 1 2
M  V30 2 2 2 3
M  V30 3 2 2 4
M  V30 4 1 2 5
M  V30 5 2 5 6
M  V30 6 1 6 7
M  V30 7 2 7 8
M  V30 8 1 8 9
M  V30 9 1 9 10
M  V30 10 2 10 11
M  V30 11 1 11 12
M  V30 12 1 12 13
M  V30 13 2 13 14
M  V30 14 1 14 15
M  V30 15 2 15 16
M  V30 16 1 16 17
M  V30 17 2 17 18
M  V30 18 1 17 19
M  V30 19 1 19 20
M  V30 20 1 20 21
M  V30 21 2 21 22
M  V30 22 1 22 23
M  V30 23 2 23 24
M  V30 24 1 24 25
M  V30 25 2 25 26
M  V30 26 1 16 27
M  V30 27 2 27 28
M  V30 28 2 9 29
M  V30 29 1 29 5
M  V30 30 1 28 10
M  V30 31 1 28 13
M  V30 32 1 26 21
M  V30 33 1 1 30
M  V30 34 1 1 31
M  V30 35 1 6 32
M  V30 36 1 7 33
M  V30 37 1 8 34
M  V30 38 1 12 35
M  V30 39 1 14 36
M  V30 40 1 15 37
M  V30 41 1 19 38
M  V30 42 1 20 39
M  V30 43 1 20 40
M  V30 44 1 22 41
M  V30 45 1 23 42
M  V30 46 1 24 43
M  V30 47 1 25 44
M  V30 48 1 26 45
M  V30 49 1 27 46
M  V30 50 1 29 47
M  V30 END BOND
M  V30 END CTAB
M  END
>  <Dataset>  (167) 
ChEMBL_Kinases

>  <Ligand_Instance>  (167) 
nan

>  <PDB_ID>  (167) 
nan

>  <Standardized_SMILES>  (167) 
NS(=O)(=O)c1cccc(-c2n[nH]c3ccc(C(=O)NCc4ccccc4)cc23)c1

>  <Name>  (167) 
nan

>  <Pocket>  (167) 
nan

>  <ATP_Site>  (167) 
nan

>  <Peripheral>  (167) 
nan

>  <Num_H_Atoms_ProtBoundConf>  (167) 
nan

>  <Num_Resolved_Atoms>  (167) 
nan

>  <Num_Not_Resolved_Atoms>  (167) 
nan

$$$$
CHEMBL3330263
     RDKit          3D

  0  0  0  0  0  0  0  0  0  0999 V3000
M  V30 BEGIN CTAB
M  V30 COUNTS 59 62 0 0 0
M  V30 BEGIN ATOM
M  V30 1 C 1.375957 -1.061545 1.891085 0
M  V30 2 C 2.319026 -0.924661 0.687242 0
M  V30 3 C 3.255960 0.165318 1.035263 0
M  V30 4 C 4.506560 -0.236737 1.516687 0
M  V30 5 C 5.335515 0.796663 1.860636 0
M  V30 6 C 5.105433 2.141068 1.796146 0
M  V30 7 C 3.837080 2.483705 1.306113 0
M  V30 8 C 3.576997 3.952907 1.249192 0
M  V30 9 C 2.760733 4.400867 2.414869 0
M  V30 10 C 2.904149 1.510170 0.922354 0
M  V30 11 N 1.659633 1.907205 0.413315 0
M  V30 12 S 0.031036 2.303534 0.566936 0
M  V30 13 O -0.115583 3.568401 1.366425 0
M  V30 14 O -0.511243 2.663360 -0.816958 0
M  V30 15 N -0.999386 1.064831 1.151758 0
M  V30 16 C -2.046847 0.475275 0.379360 0
M  V30 17 C -2.811946 1.460706 -0.255843 0
M  V30 18 C -3.893461 1.097190 -1.058772 0
M  V30 19 C -4.248100 -0.234552 -1.256345 0
M  V30 20 N -5.178798 -0.935042 -1.926773 0
M  V30 21 N -5.004348 -2.232532 -1.724256 0
M  V30 22 C -3.946646 -2.444789 -0.907940 0
M  V30 23 C -3.470281 -3.753715 -0.475769 0
M  V30 24 C -4.345060 -4.738116 -0.033333 0
M  V30 25 C -3.894491 -5.990309 0.379547 0
M  V30 26 C -2.516511 -6.163677 0.310678 0
M  V30 27 C -1.620010 -5.215792 -0.120494 0
M  V30 28 S 0.082387 -5.600771 -0.142231 0
M  V30 29 N 0.562053 -6.286591 -1.644802 0
M  V30 30 O 0.340828 -6.539470 1.002987 0
M  V30 31 O 0.839402 -4.329181 0.155690 0
M  V30 32 C -2.111854 -3.990297 -0.519883 0
M  V30 33 C -3.475324 -1.181627 -0.616991 0
M  V30 34 C -2.407946 -0.836268 0.176266 0
M  V30 35 H 1.219116 -0.086407 2.383529 0
M  V30 36 H 1.867934 -1.748443 2.641047 0
M  V30 37 H 0.415333 -1.468569 1.589565 0
M  V30 38 H 2.861411 -1.877327 0.556604 0
M  V30 39 H 1.729787 -0.684552 -0.221965 0
M  V30 40 H 4.793161 -1.274319 1.609249 0
M  V30 41 H 6.308593 0.502605 2.237160 0
M  V30 42 H 5.828891 2.885215 2.093451 0
M  V30 43 H 3.094792 4.207124 0.265831 0
M  V30 44 H 4.528513 4.516573 1.236911 0
M  V30 45 H 2.040499 5.211150 2.189800 0
M  V30 46 H 3.406280 4.784472 3.251214 0
M  V30 47 H 2.234908 3.524861 2.823178 0
M  V30 48 H 2.055702 1.948460 -0.575140 0
M  V30 49 H -1.067818 0.557869 2.057891 0
M  V30 50 H -2.749885 2.551161 -0.262608 0
M  V30 51 H -4.559976 1.769334 -1.601776 0
M  V30 52 H -5.902772 -0.444171 -2.504122 0
M  V30 53 H -5.395834 -4.517295 -0.013121 0
M  V30 54 H -4.554482 -6.774261 0.728190 0
M  V30 55 H -2.134053 -7.138098 0.628862 0
M  V30 56 H 0.268815 -5.609007 -2.396102 0
M  V30 57 H 1.604476 -6.332795 -1.644868 0
M  V30 58 H -1.349380 -3.292867 -0.848265 0
M  V30 59 H -1.770055 -1.521177 0.702870 0
M  V30 END ATOM
M  V30 BEGIN BOND
M  V30 1 1 1 2
M  V30 2 1 2 3
M  V30 3 2 3 4
M  V30 4 1 4 5
M  V30 5 2 5 6
M  V30 6 1 6 7
M  V30 7 1 7 8
M  V30 8 1 8 9
M  V30 9 2 7 10
M  V30 10 1 10 11
M  V30 11 1 11 12
M  V30 12 2 12 13
M  V30 13 2 12 14
M  V30 14 1 12 15
M  V30 15 1 15 16
M  V30 16 2 16 17
M  V30 17 1 17 18
M  V30 18 2 18 19
M  V30 19 1 19 20
M  V30 20 1 20 21
M  V30 21 2 21 22
M  V30 22 1 22 23
M  V30 23 2 23 24
M  V30 24 1 24 25
M  V30 25 2 25 26
M  V30 26 1 26 27
M  V30 27 1 27 28
M  V30 28 1 28 29
M  V30 29 2 28 30
M  V30 30 2 28 31
M  V30 31 2 27 32
M  V30 32 1 22 33
M  V30 33 2 33 34
M  V30 34 1 10 3
M  V30 35 1 34 16
M  V30 36 1 33 19
M  V30 37 1 32 23
M  V30 38 1 1 35
M  V30 39 1 1 36
M  V30 40 1 1 37
M  V30 41 1 2 38
M  V30 42 1 2 39
M  V30 43 1 4 40
M  V30 44 1 5 41
M  V30 45 1 6 42
M  V30 46 1 8 43
M  V30 47 1 8 44
M  V30 48 1 9 45
M  V30 49 1 9 46
M  V30 50 1 9 47
M  V30 51 1 11 48
M  V30 52 1 15 49
M  V30 53 1 17 50
M  V30 54 1 18 51
M  V30 55 1 20 52
M  V30 56 1 24 53
M  V30 57 1 25 54
M  V30 58 1 26 55
M  V30 59 1 29 56
M  V30 60 1 29 57
M  V30 61 1 32 58
M  V30 62 1 34 59
M  V30 END BOND
M  V30 END CTAB
M  END
>  <Dataset>  (168) 
ChEMBL_Kinases

>  <Ligand_Instance>  (168) 
nan

>  <PDB_ID>  (168) 
nan

>  <Standardized_SMILES>  (168) 
CCc1cccc(CC)c1NS(=O)(=O)Nc1ccc2[nH]nc(-c3cccc(S(N)(=O)=O)c3)c2c1

>  <Name>  (168) 
nan

>  <Pocket>  (168) 
nan

>  <ATP_Site>  (168) 
nan

>  <Peripheral>  (168) 
nan

>  <Num_H_Atoms_ProtBoundConf>  (168) 
nan

>  <Num_Resolved_Atoms>  (168) 
nan

>  <Num_Not_Resolved_Atoms>  (168) 
nan

$$$$
CHEMBL3330262
     RDKit          3D

  0  0  0  0  0  0  0  0  0  0999 V3000
M  V30 BEGIN CTAB
M  V30 COUNTS 47 50 0 0 0
M  V30 BEGIN ATOM
M  V30 1 N 1.340263 -3.174766 4.312806 0
M  V30 2 S 2.292155 -3.376922 2.875870 0
M  V30 3 O 3.374383 -4.350347 3.205542 0
M  V30 4 O 1.473285 -3.939259 1.754199 0
M  V30 5 C 3.029396 -1.868763 2.403203 0
M  V30 6 C 4.276125 -1.522555 2.881540 0
M  V30 7 C 4.841185 -0.323019 2.493892 0
M  V30 8 C 4.141876 0.504516 1.633274 0
M  V30 9 C 2.889292 0.149923 1.156629 0
M  V30 10 C 2.310000 1.146602 0.263250 0
M  V30 11 N 2.969372 1.764611 -0.731105 0
M  V30 12 N 2.162216 2.612782 -1.355683 0
M  V30 13 C 0.956851 2.548694 -0.761079 0
M  V30 14 C -0.235457 3.196688 -0.989450 0
M  V30 15 C -1.371323 2.959689 -0.226490 0
M  V30 16 C -1.291996 2.039938 0.794853 0
M  V30 17 N -2.328976 1.652237 1.679345 0
M  V30 18 S -2.938503 0.187416 2.280858 0
M  V30 19 O -3.968248 0.484827 3.317370 0
M  V30 20 O -1.753248 -0.551088 2.906441 0
M  V30 21 N -3.569159 -0.880092 1.097382 0
M  V30 22 C -3.053627 -1.562195 -0.023760 0
M  V30 23 C -2.276704 -1.076368 -1.052479 0
M  V30 24 C -1.816744 -1.800659 -2.106343 0
M  V30 25 C -2.162962 -3.134820 -2.139664 0
M  V30 26 C -2.933724 -3.752498 -1.179342 0
M  V30 27 C -3.344823 -2.928494 -0.159658 0
M  V30 28 C -0.090452 1.372947 1.041064 0
M  V30 29 C 1.019137 1.632062 0.264075 0
M  V30 30 C 2.321606 -1.050235 1.543199 0
M  V30 31 H 0.850976 -2.248030 4.306349 0
M  V30 32 H 0.641031 -3.938163 4.408467 0
M  V30 33 H 4.761118 -2.230482 3.556074 0
M  V30 34 H 5.822297 -0.080512 2.887641 0
M  V30 35 H 4.662449 1.418269 1.387051 0
M  V30 36 H 2.429805 3.227837 -2.177254 0
M  V30 37 H -0.321611 3.927367 -1.790812 0
M  V30 38 H -2.332539 3.436216 -0.357945 0
M  V30 39 H -2.756079 2.582152 1.973798 0
M  V30 40 H -4.603154 -1.106403 1.191680 0
M  V30 41 H -2.026750 -0.041322 -1.005143 0
M  V30 42 H -1.213877 -1.331482 -2.863744 0
M  V30 43 H -1.803532 -3.724423 -2.973233 0
M  V30 44 H -3.214404 -4.784517 -1.184675 0
M  V30 45 H -3.963078 -3.393091 0.623905 0
M  V30 46 H 0.046431 0.636656 1.826986 0
M  V30 47 H 1.349803 -1.255197 1.132712 0
M  V30 END ATOM
M  V30 BEGIN BOND
M  V30 1 1 1 2
M  V30 2 2 2 3
M  V30 3 2 2 4
M  V30 4 1 2 5
M  V30 5 2 5 6
M  V30 6 1 6 7
M  V30 7 2 7 8
M  V30 8 1 8 9
M  V30 9 1 9 10
M  V30 10 2 10 11
M  V30 11 1 11 12
M  V30 12 1 12 13
M  V30 13 2 13 14
M  V30 14 1 14 15
M  V30 15 2 15 16
M  V30 16 1 16 17
M  V30 17 1 17 18
M  V30 18 2 18 19
M  V30 19 2 18 20
M  V30 20 1 18 21
M  V30 21 1 21 22
M  V30 22 2 22 23
M  V30 23 1 23 24
M  V30 24 2 24 25
M  V30 25 1 25 26
M  V30 26 2 26 27
M  V30 27 1 16 28
M  V30 28 2 28 29
M  V30 29 2 9 30
M  V30 30 1 30 5
M  V30 31 1 29 10
M  V30 32 1 29 13
M  V30 33 1 27 22
M  V30 34 1 1 31
M  V30 35 1 1 32
M  V30 36 1 6 33
M  V30 37 1 7 34
M  V30 38 1 8 35
M  V30 39 1 12 36
M  V30 40 1 14 37
M  V30 41 1 15 38
M  V30 42 1 17 39
M  V30 43 1 21 40
M  V30 44 1 23 41
M  V30 45 1 24 42
M  V30 46 1 25 43
M  V30 47 1 26 44
M  V30 48 1 27 45
M  V30 49 1 28 46
M  V30 50 1 30 47
M  V30 END BOND
M  V30 END CTAB
M  END
>  <Dataset>  (169) 
ChEMBL_Kinases

>  <Ligand_Instance>  (169) 
nan

>  <PDB_ID>  (169) 
nan

>  <Standardized_SMILES>  (169) 
NS(=O)(=O)c1cccc(-c2n[nH]c3ccc(NS(=O)(=O)Nc4ccccc4)cc23)c1

>  <Name>  (169) 
nan

>  <Pocket>  (169) 
nan

>  <ATP_Site>  (169) 
nan

>  <Peripheral>  (169) 
nan

>  <Num_H_Atoms_ProtBoundConf>  (169) 
nan

>  <Num_Resolved_Atoms>  (169) 
nan

>  <Num_Not_Resolved_Atoms>  (169) 
nan

$$$$
CHEMBL3330259
     RDKit          3D

  0  0  0  0  0  0  0  0  0  0999 V3000
M  V30 BEGIN CTAB
M  V30 COUNTS 46 49 0 0 0
M  V30 BEGIN ATOM
M  V30 1 N 1.285112 -3.677703 -0.892890 0
M  V30 2 S 2.856472 -3.380125 -0.235608 0
M  V30 3 O 2.822947 -3.550111 1.261271 0
M  V30 4 O 3.877371 -4.309972 -0.807728 0
M  V30 5 C 3.334840 -1.719319 -0.580521 0
M  V30 6 C 4.027488 -1.362923 -1.737628 0
M  V30 7 C 4.356142 -0.023435 -1.910901 0
M  V30 8 C 4.029346 0.957136 -0.996171 0
M  V30 9 C 3.334629 0.573507 0.155982 0
M  V30 10 C 3.032579 1.674207 1.064424 0
M  V30 11 N 3.876791 2.657586 1.454209 0
M  V30 12 N 3.269478 3.488682 2.283498 0
M  V30 13 C 2.008571 3.065617 2.455546 0
M  V30 14 C 0.930969 3.516571 3.188540 0
M  V30 15 C -0.279508 2.861249 3.173877 0
M  V30 16 C -0.488910 1.722689 2.431887 0
M  V30 17 N -1.757935 1.093901 2.458528 0
M  V30 18 C -2.222757 -0.050919 1.808732 0
M  V30 19 O -1.437071 -0.678098 1.059133 0
M  V30 20 N -3.523339 -0.584645 1.915888 0
M  V30 21 C -3.779072 -1.772143 1.156215 0
M  V30 22 C -3.567236 -3.051379 1.672276 0
M  V30 23 C -3.833143 -4.163917 0.888480 0
M  V30 24 C -4.308726 -4.054051 -0.408305 0
M  V30 25 C -4.528589 -2.786523 -0.946935 0
M  V30 26 C -4.253504 -1.710837 -0.139852 0
M  V30 27 C 0.611949 1.310159 1.717811 0
M  V30 28 C 1.833337 1.925471 1.699501 0
M  V30 29 C 3.009468 -0.750983 0.327678 0
M  V30 30 H 0.597487 -3.475145 -0.144106 0
M  V30 31 H 1.119767 -2.951012 -1.627132 0
M  V30 32 H 4.267639 -2.148152 -2.430598 0
M  V30 33 H 4.890176 0.133836 -2.840757 0
M  V30 34 H 4.362655 1.953743 -1.288076 0
M  V30 35 H 3.652038 4.338320 2.751540 0
M  V30 36 H 0.997754 4.403004 3.802638 0
M  V30 37 H -1.110245 3.260921 3.776474 0
M  V30 38 H -2.508198 1.524687 3.053076 0
M  V30 39 H -4.215660 -0.087230 2.536567 0
M  V30 40 H -3.193139 -3.139310 2.692258 0
M  V30 41 H -3.669401 -5.170631 1.286488 0
M  V30 42 H -4.509417 -4.949065 -1.002640 0
M  V30 43 H -4.898968 -2.667745 -1.955195 0
M  V30 44 H -4.431144 -0.725711 -0.576991 0
M  V30 45 H 0.544462 0.425906 1.105340 0
M  V30 46 H 2.474789 -0.992579 1.232080 0
M  V30 END ATOM
M  V30 BEGIN BOND
M  V30 1 1 1 2
M  V30 2 2 2 3
M  V30 3 2 2 4
M  V30 4 1 2 5
M  V30 5 2 5 6
M  V30 6 1 6 7
M  V30 7 2 7 8
M  V30 8 1 8 9
M  V30 9 1 9 10
M  V30 10 2 10 11
M  V30 11 1 11 12
M  V30 12 1 12 13
M  V30 13 2 13 14
M  V30 14 1 14 15
M  V30 15 2 15 16
M  V30 16 1 16 17
M  V30 17 1 17 18
M  V30 18 2 18 19
M  V30 19 1 18 20
M  V30 20 1 20 21
M  V30 21 2 21 22
M  V30 22 1 22 23
M  V30 23 2 23 24
M  V30 24 1 24 25
M  V30 25 2 25 26
M  V30 26 1 16 27
M  V30 27 2 27 28
M  V30 28 2 9 29
M  V30 29 1 29 5
M  V30 30 1 28 10
M  V30 31 1 28 13
M  V30 32 1 26 21
M  V30 33 1 1 30
M  V30 34 1 1 31
M  V30 35 1 6 32
M  V30 36 1 7 33
M  V30 37 1 8 34
M  V30 38 1 12 35
M  V30 39 1 14 36
M  V30 40 1 15 37
M  V30 41 1 17 38
M  V30 42 1 20 39
M  V30 43 1 22 40
M  V30 44 1 23 41
M  V30 45 1 24 42
M  V30 46 1 25 43
M  V30 47 1 26 44
M  V30 48 1 27 45
M  V30 49 1 29 46
M  V30 END BOND
M  V30 END CTAB
M  END
>  <Dataset>  (170) 
ChEMBL_Kinases

>  <Ligand_Instance>  (170) 
nan

>  <PDB_ID>  (170) 
nan

>  <Standardized_SMILES>  (170) 
NS(=O)(=O)c1cccc(-c2n[nH]c3ccc(NC(=O)Nc4ccccc4)cc23)c1

>  <Name>  (170) 
nan

>  <Pocket>  (170) 
nan

>  <ATP_Site>  (170) 
nan

>  <Peripheral>  (170) 
nan

>  <Num_H_Atoms_ProtBoundConf>  (170) 
nan

>  <Num_Resolved_Atoms>  (170) 
nan

>  <Num_Not_Resolved_Atoms>  (170) 
nan

$$$$
CHEMBL3330258
     RDKit          3D

  0  0  0  0  0  0  0  0  0  0999 V3000
M  V30 BEGIN CTAB
M  V30 COUNTS 51 54 0 0 0
M  V30 BEGIN ATOM
M  V30 1 C -0.510091 -3.972316 3.900764 0
M  V30 2 C 0.930300 -3.552521 3.820931 0
M  V30 3 C 1.981285 -4.205700 4.432476 0
M  V30 4 C 3.272302 -3.730703 4.292027 0
M  V30 5 C 3.545914 -2.592726 3.538161 0
M  V30 6 C 2.518350 -1.912034 2.910877 0
M  V30 7 C 2.744100 -0.691696 2.092456 0
M  V30 8 S 3.045342 -1.070203 0.380802 0
M  V30 9 O 1.808209 -1.721949 -0.166510 0
M  V30 10 O 4.194729 -1.991212 0.208941 0
M  V30 11 N 3.302596 0.384644 -0.532173 0
M  V30 12 C 2.276414 1.366338 -0.624005 0
M  V30 13 C 2.744472 2.664103 -0.435470 0
M  V30 14 C 1.852419 3.739056 -0.496680 0
M  V30 15 C 0.517367 3.460974 -0.746815 0
M  V30 16 N -0.576608 4.233285 -0.867757 0
M  V30 17 N -1.664758 3.524960 -1.112103 0
M  V30 18 C -1.326123 2.223769 -1.163899 0
M  V30 19 C -2.200981 1.080140 -1.408592 0
M  V30 20 C -3.092479 1.268939 -2.460275 0
M  V30 21 C -3.979553 0.280258 -2.809637 0
M  V30 22 C -4.006184 -0.933639 -2.118474 0
M  V30 23 C -3.108335 -1.103717 -1.071189 0
M  V30 24 S -3.089560 -2.600759 -0.164397 0
M  V30 25 N -4.156742 -2.533526 1.178950 0
M  V30 26 O -3.533908 -3.690061 -1.102624 0
M  V30 27 O -1.685648 -2.942314 0.266101 0
M  V30 28 C -2.220074 -0.115285 -0.720429 0
M  V30 29 C 0.039003 2.180762 -0.935628 0
M  V30 30 C 0.944747 1.140669 -0.869162 0
M  V30 31 C 1.246904 -2.437560 3.089496 0
M  V30 32 H -0.552817 -5.024448 4.253034 0
M  V30 33 H -1.021877 -3.897758 2.932391 0
M  V30 34 H -0.983586 -3.340517 4.691053 0
M  V30 35 H 1.737234 -5.090010 5.013632 0
M  V30 36 H 4.047194 -4.293600 4.799679 0
M  V30 37 H 4.548573 -2.235673 3.437350 0
M  V30 38 H 1.861628 -0.044713 2.169443 0
M  V30 39 H 3.614379 -0.139417 2.522597 0
M  V30 40 H 4.209214 0.532180 -1.009495 0
M  V30 41 H 3.791799 2.922953 -0.235829 0
M  V30 42 H 2.128277 4.779683 -0.362400 0
M  V30 43 H -0.546277 5.276994 -0.774918 0
M  V30 44 H -3.150011 2.176850 -3.058866 0
M  V30 45 H -4.684302 0.423020 -3.637173 0
M  V30 46 H -4.689027 -1.710195 -2.378219 0
M  V30 47 H -4.873470 -1.785620 1.093282 0
M  V30 48 H -4.600705 -3.463844 1.286916 0
M  V30 49 H -1.498094 -0.186776 0.083047 0
M  V30 50 H 0.649018 0.126676 -1.004597 0
M  V30 51 H 0.447143 -1.902469 2.597570 0
M  V30 END ATOM
M  V30 BEGIN BOND
M  V30 1 1 1 2
M  V30 2 2 2 3
M  V30 3 1 3 4
M  V30 4 2 4 5
M  V30 5 1 5 6
M  V30 6 1 6 7
M  V30 7 1 7 8
M  V30 8 2 8 9
M  V30 9 2 8 10
M  V30 10 1 8 11
M  V30 11 1 11 12
M  V30 12 2 12 13
M  V30 13 1 13 14
M  V30 14 2 14 15
M  V30 15 1 15 16
M  V30 16 1 16 17
M  V30 17 2 17 18
M  V30 18 1 18 19
M  V30 19 2 19 20
M  V30 20 1 20 21
M  V30 21 2 21 22
M  V30 22 1 22 23
M  V30 23 1 23 24
M  V30 24 1 24 25
M  V30 25 2 24 26
M  V30 26 2 24 27
M  V30 27 2 23 28
M  V30 28 1 18 29
M  V30 29 2 29 30
M  V30 30 2 6 31
M  V30 31 1 31 2
M  V30 32 1 30 12
M  V30 33 1 29 15
M  V30 34 1 28 19
M  V30 35 1 1 32
M  V30 36 1 1 33
M  V30 37 1 1 34
M  V30 38 1 3 35
M  V30 39 1 4 36
M  V30 40 1 5 37
M  V30 41 1 7 38
M  V30 42 1 7 39
M  V30 43 1 11 40
M  V30 44 1 13 41
M  V30 45 1 14 42
M  V30 46 1 16 43
M  V30 47 1 20 44
M  V30 48 1 21 45
M  V30 49 1 22 46
M  V30 50 1 25 47
M  V30 51 1 25 48
M  V30 52 1 28 49
M  V30 53 1 30 50
M  V30 54 1 31 51
M  V30 END BOND
M  V30 END CTAB
M  END
>  <Dataset>  (171) 
ChEMBL_Kinases

>  <Ligand_Instance>  (171) 
nan

>  <PDB_ID>  (171) 
nan

>  <Standardized_SMILES>  (171) 
Cc1cccc(CS(=O)(=O)Nc2ccc3[nH]nc(-c4cccc(S(N)(=O)=O)c4)c3c2)c1

>  <Name>  (171) 
nan

>  <Pocket>  (171) 
nan

>  <ATP_Site>  (171) 
nan

>  <Peripheral>  (171) 
nan

>  <Num_H_Atoms_ProtBoundConf>  (171) 
nan

>  <Num_Resolved_Atoms>  (171) 
nan

>  <Num_Not_Resolved_Atoms>  (171) 
nan

$$$$
CHEMBL3330257
     RDKit          3D

  0  0  0  0  0  0  0  0  0  0999 V3000
M  V30 BEGIN CTAB
M  V30 COUNTS 42 45 0 0 0
M  V30 BEGIN ATOM
M  V30 1 N 1.042804 -5.751908 0.407959 0
M  V30 2 S 2.676606 -5.304229 0.053499 0
M  V30 3 O 3.321060 -4.831027 1.313003 0
M  V30 4 O 3.438660 -6.470625 -0.533827 0
M  V30 5 C 2.596972 -4.007026 -1.120766 0
M  V30 6 C 2.592502 -4.297482 -2.487024 0
M  V30 7 C 2.530146 -3.279545 -3.398028 0
M  V30 8 C 2.471981 -1.967579 -2.950399 0
M  V30 9 C 2.477094 -1.689223 -1.580452 0
M  V30 10 C 2.410677 -0.257586 -1.307695 0
M  V30 11 N 3.088981 0.748255 -1.880455 0
M  V30 12 N 2.742330 1.915665 -1.349609 0
M  V30 13 C 1.805914 1.717632 -0.390266 0
M  V30 14 C 1.175576 2.647771 0.406027 0
M  V30 15 C 0.269488 2.098140 1.282696 0
M  V30 16 C -0.031796 0.763237 1.409805 0
M  V30 17 N -0.947199 0.146395 2.289277 0
M  V30 18 S -2.574199 0.222204 2.813056 0
M  V30 19 O -2.949153 -0.983541 3.634558 0
M  V30 20 O -3.415575 0.087325 1.533878 0
M  V30 21 C -2.972246 1.677238 3.539806 0
M  V30 22 C -3.367911 1.933675 4.849536 0
M  V30 23 C -3.669242 3.178247 5.329094 0
M  V30 24 C -3.516011 4.244607 4.246512 0
M  V30 25 S -2.981450 3.297641 2.773413 0
M  V30 26 C 0.682386 -0.071745 0.539784 0
M  V30 27 C 1.606765 0.360507 -0.372528 0
M  V30 28 C 2.539392 -2.705208 -0.666699 0
M  V30 29 H 0.712642 -5.333381 1.302289 0
M  V30 30 H 0.863398 -6.762960 0.291697 0
M  V30 31 H 2.640436 -5.351728 -2.759650 0
M  V30 32 H 2.526426 -3.501467 -4.464049 0
M  V30 33 H 2.423739 -1.204296 -3.742105 0
M  V30 34 H 3.157572 2.828472 -1.658182 0
M  V30 35 H 1.346196 3.700990 0.375840 0
M  V30 36 H -0.247051 2.775328 1.938995 0
M  V30 37 H -0.421510 -0.621554 2.802023 0
M  V30 38 H -3.437082 1.084448 5.519798 0
M  V30 39 H -3.975069 3.384694 6.337381 0
M  V30 40 H -3.805677 5.342533 4.756130 0
M  V30 41 H 0.497254 -1.144903 0.583100 0
M  V30 42 H 2.539066 -2.410538 0.364295 0
M  V30 END ATOM
M  V30 BEGIN BOND
M  V30 1 1 1 2
M  V30 2 2 2 3
M  V30 3 2 2 4
M  V30 4 1 2 5
M  V30 5 2 5 6
M  V30 6 1 6 7
M  V30 7 2 7 8
M  V30 8 1 8 9
M  V30 9 1 9 10
M  V30 10 2 10 11
M  V30 11 1 11 12
M  V30 12 1 12 13
M  V30 13 2 13 14
M  V30 14 1 14 15
M  V30 15 2 15 16
M  V30 16 1 16 17
M  V30 17 1 17 18
M  V30 18 2 18 19
M  V30 19 2 18 20
M  V30 20 1 18 21
M  V30 21 2 21 22
M  V30 22 1 22 23
M  V30 23 2 23 24
M  V30 24 1 24 25
M  V30 25 1 16 26
M  V30 26 2 26 27
M  V30 27 2 9 28
M  V30 28 1 28 5
M  V30 29 1 27 10
M  V30 30 1 27 13
M  V30 31 1 25 21
M  V30 32 1 1 29
M  V30 33 1 1 30
M  V30 34 1 6 31
M  V30 35 1 7 32
M  V30 36 1 8 33
M  V30 37 1 12 34
M  V30 38 1 14 35
M  V30 39 1 15 36
M  V30 40 1 17 37
M  V30 41 1 22 38
M  V30 42 1 23 39
M  V30 43 1 24 40
M  V30 44 1 26 41
M  V30 45 1 28 42
M  V30 END BOND
M  V30 END CTAB
M  END
>  <Dataset>  (172) 
ChEMBL_Kinases

>  <Ligand_Instance>  (172) 
nan

>  <PDB_ID>  (172) 
nan

>  <Standardized_SMILES>  (172) 
NS(=O)(=O)c1cccc(-c2n[nH]c3ccc(NS(=O)(=O)c4cccs4)cc23)c1

>  <Name>  (172) 
nan

>  <Pocket>  (172) 
nan

>  <ATP_Site>  (172) 
nan

>  <Peripheral>  (172) 
nan

>  <Num_H_Atoms_ProtBoundConf>  (172) 
nan

>  <Num_Resolved_Atoms>  (172) 
nan

>  <Num_Not_Resolved_Atoms>  (172) 
nan

$$$$
CHEMBL3330256
     RDKit          3D

  0  0  0  0  0  0  0  0  0  0999 V3000
M  V30 BEGIN CTAB
M  V30 COUNTS 44 47 0 0 0
M  V30 BEGIN ATOM
M  V30 1 N -0.287175 -3.370368 -1.635303 0
M  V30 2 S 0.875039 -2.538033 -2.602958 0
M  V30 3 O 2.225948 -2.731378 -1.986779 0
M  V30 4 O 0.906890 -3.100644 -4.000343 0
M  V30 5 C 0.504884 -0.820652 -2.721964 0
M  V30 6 C -0.294479 -0.336242 -3.729221 0
M  V30 7 C -0.536971 1.012565 -3.755110 0
M  V30 8 C 0.019906 1.824187 -2.786006 0
M  V30 9 C 0.832002 1.354592 -1.757451 0
M  V30 10 C 1.347498 2.331470 -0.808205 0
M  V30 11 N 1.888949 3.534728 -1.109908 0
M  V30 12 N 2.249970 4.158725 -0.002453 0
M  V30 13 C 1.953182 3.378470 1.048905 0
M  V30 14 C 2.094819 3.496383 2.415316 0
M  V30 15 C 1.684454 2.500429 3.261376 0
M  V30 16 C 1.109868 1.326597 2.825428 0
M  V30 17 N 0.722456 0.366654 3.768503 0
M  V30 18 C 0.122143 -0.892984 3.560639 0
M  V30 19 O -0.130647 -1.277391 2.403329 0
M  V30 20 C -0.246004 -1.832042 4.653651 0
M  V30 21 C -0.877279 -3.093893 3.978747 0
M  V30 22 C -0.405639 -4.249288 3.523242 0
M  V30 23 C -1.258388 -5.122554 2.990888 0
M  V30 24 C -2.541322 -4.761985 2.956399 0
M  V30 25 S -2.592884 -3.129581 3.695590 0
M  V30 26 C 0.990755 1.256785 1.460698 0
M  V30 27 C 1.383445 2.221403 0.566031 0
M  V30 28 C 1.057828 -0.004354 -1.757285 0
M  V30 29 H -0.632336 -2.714694 -0.905723 0
M  V30 30 H -1.072615 -3.728255 -2.226413 0
M  V30 31 H -0.677442 -1.061809 -4.434629 0
M  V30 32 H -1.162007 1.381840 -4.544917 0
M  V30 33 H -0.228857 2.865376 -2.892237 0
M  V30 34 H 2.692599 5.088229 0.148222 0
M  V30 35 H 2.533711 4.379294 2.849079 0
M  V30 36 H 1.822000 2.648092 4.344746 0
M  V30 37 H 0.873417 0.551939 4.783918 0
M  V30 38 H -0.990986 -1.408900 5.339316 0
M  V30 39 H 0.669758 -2.181603 5.173658 0
M  V30 40 H 0.690250 -4.312779 3.664618 0
M  V30 41 H -0.829672 -6.077010 2.620673 0
M  V30 42 H -3.332115 -5.610419 2.445043 0
M  V30 43 H 0.554300 0.380891 1.015872 0
M  V30 44 H 1.688631 -0.372611 -0.959393 0
M  V30 END ATOM
M  V30 BEGIN BOND
M  V30 1 1 1 2
M  V30 2 2 2 3
M  V30 3 2 2 4
M  V30 4 1 2 5
M  V30 5 2 5 6
M  V30 6 1 6 7
M  V30 7 2 7 8
M  V30 8 1 8 9
M  V30 9 1 9 10
M  V30 10 2 10 11
M  V30 11 1 11 12
M  V30 12 1 12 13
M  V30 13 2 13 14
M  V30 14 1 14 15
M  V30 15 2 15 16
M  V30 16 1 16 17
M  V30 17 1 17 18
M  V30 18 2 18 19
M  V30 19 1 18 20
M  V30 20 1 20 21
M  V30 21 2 21 22
M  V30 22 1 22 23
M  V30 23 2 23 24
M  V30 24 1 24 25
M  V30 25 1 16 26
M  V30 26 2 26 27
M  V30 27 2 9 28
M  V30 28 1 28 5
M  V30 29 1 27 10
M  V30 30 1 27 13
M  V30 31 1 25 21
M  V30 32 1 1 29
M  V30 33 1 1 30
M  V30 34 1 6 31
M  V30 35 1 7 32
M  V30 36 1 8 33
M  V30 37 1 12 34
M  V30 38 1 14 35
M  V30 39 1 15 36
M  V30 40 1 17 37
M  V30 41 1 20 38
M  V30 42 1 20 39
M  V30 43 1 22 40
M  V30 44 1 23 41
M  V30 45 1 24 42
M  V30 46 1 26 43
M  V30 47 1 28 44
M  V30 END BOND
M  V30 END CTAB
M  END
>  <Dataset>  (173) 
ChEMBL_Kinases

>  <Ligand_Instance>  (173) 
nan

>  <PDB_ID>  (173) 
nan

>  <Standardized_SMILES>  (173) 
NS(=O)(=O)c1cccc(-c2n[nH]c3ccc(NC(=O)Cc4cccs4)cc23)c1

>  <Name>  (173) 
nan

>  <Pocket>  (173) 
nan

>  <ATP_Site>  (173) 
nan

>  <Peripheral>  (173) 
nan

>  <Num_H_Atoms_ProtBoundConf>  (173) 
nan

>  <Num_Resolved_Atoms>  (173) 
nan

>  <Num_Not_Resolved_Atoms>  (173) 
nan

$$$$
CHEMBL3330255
     RDKit          3D

  0  0  0  0  0  0  0  0  0  0999 V3000
M  V30 BEGIN CTAB
M  V30 COUNTS 47 50 0 0 0
M  V30 BEGIN ATOM
M  V30 1 N 0.916624 -3.740316 -0.551199 0
M  V30 2 S 2.599462 -3.404523 -0.286551 0
M  V30 3 O 2.938009 -3.366574 1.181464 0
M  V30 4 O 3.421918 -4.497802 -0.917733 0
M  V30 5 C 2.949499 -1.832891 -1.012514 0
M  V30 6 C 3.363043 -1.692013 -2.335220 0
M  V30 7 C 3.602245 -0.406294 -2.773908 0
M  V30 8 C 3.437661 0.698001 -1.933012 0
M  V30 9 C 3.028574 0.541795 -0.629149 0
M  V30 10 C 2.892160 1.765473 0.152842 0
M  V30 11 N 3.767748 2.784949 0.195863 0
M  V30 12 N 3.332501 3.743897 1.010340 0
M  V30 13 C 2.148822 3.351024 1.514070 0
M  V30 14 C 1.234835 3.899705 2.388795 0
M  V30 15 C 0.070678 3.251270 2.734628 0
M  V30 16 C -0.250260 2.014495 2.226614 0
M  V30 17 N -1.463845 1.410277 2.628026 0
M  V30 18 C -2.025227 0.164045 2.262416 0
M  V30 19 O -1.396467 -0.566449 1.459350 0
M  V30 20 C -3.299534 -0.365985 2.743454 0
M  V30 21 C -3.559122 -1.699776 2.142384 0
M  V30 22 C -3.106238 -2.838705 2.797641 0
M  V30 23 C -3.332368 -4.097891 2.263003 0
M  V30 24 C -4.023098 -4.178937 1.057259 0
M  V30 25 C -4.496988 -3.073118 0.361855 0
M  V30 26 C -4.238198 -1.853684 0.948561 0
M  V30 27 C 0.680455 1.497490 1.359673 0
M  V30 28 C 1.854232 2.117240 0.991592 0
M  V30 29 C 2.790351 -0.742555 -0.193271 0
M  V30 30 H 0.603290 -4.312921 0.265336 0
M  V30 31 H 0.391944 -2.833900 -0.618320 0
M  V30 32 H 3.472275 -2.574181 -2.933776 0
M  V30 33 H 3.921639 -0.362148 -3.812987 0
M  V30 34 H 3.659929 1.624271 -2.413397 0
M  V30 35 H 3.775043 4.659784 1.260554 0
M  V30 36 H 1.405386 4.867150 2.835658 0
M  V30 37 H -0.622822 3.738316 3.438680 0
M  V30 38 H -2.086434 1.912822 3.297317 0
M  V30 39 H -3.223903 -0.452356 3.859956 0
M  V30 40 H -4.121093 0.326865 2.456694 0
M  V30 41 H -2.567456 -2.761533 3.739723 0
M  V30 42 H -3.001501 -5.018103 2.731719 0
M  V30 43 H -4.203874 -5.170758 0.631529 0
M  V30 44 H -5.027191 -3.196937 -0.570661 0
M  V30 45 H -4.602236 -0.961137 0.419244 0
M  V30 46 H 0.509042 0.533023 0.914758 0
M  V30 47 H 2.470575 -0.844676 0.832293 0
M  V30 END ATOM
M  V30 BEGIN BOND
M  V30 1 1 1 2
M  V30 2 2 2 3
M  V30 3 2 2 4
M  V30 4 1 2 5
M  V30 5 2 5 6
M  V30 6 1 6 7
M  V30 7 2 7 8
M  V30 8 1 8 9
M  V30 9 1 9 10
M  V30 10 2 10 11
M  V30 11 1 11 12
M  V30 12 1 12 13
M  V30 13 2 13 14
M  V30 14 1 14 15
M  V30 15 2 15 16
M  V30 16 1 16 17
M  V30 17 1 17 18
M  V30 18 2 18 19
M  V30 19 1 18 20
M  V30 20 1 20 21
M  V30 21 2 21 22
M  V30 22 1 22 23
M  V30 23 2 23 24
M  V30 24 1 24 25
M  V30 25 2 25 26
M  V30 26 1 16 27
M  V30 27 2 27 28
M  V30 28 2 9 29
M  V30 29 1 29 5
M  V30 30 1 28 10
M  V30 31 1 28 13
M  V30 32 1 26 21
M  V30 33 1 1 30
M  V30 34 1 1 31
M  V30 35 1 6 32
M  V30 36 1 7 33
M  V30 37 1 8 34
M  V30 38 1 12 35
M  V30 39 1 14 36
M  V30 40 1 15 37
M  V30 41 1 17 38
M  V30 42 1 20 39
M  V30 43 1 20 40
M  V30 44 1 22 41
M  V30 45 1 23 42
M  V30 46 1 24 43
M  V30 47 1 25 44
M  V30 48 1 26 45
M  V30 49 1 27 46
M  V30 50 1 29 47
M  V30 END BOND
M  V30 END CTAB
M  END
>  <Dataset>  (174) 
ChEMBL_Kinases

>  <Ligand_Instance>  (174) 
nan

>  <PDB_ID>  (174) 
nan

>  <Standardized_SMILES>  (174) 
NS(=O)(=O)c1cccc(-c2n[nH]c3ccc(NC(=O)Cc4ccccc4)cc23)c1

>  <Name>  (174) 
nan

>  <Pocket>  (174) 
nan

>  <ATP_Site>  (174) 
nan

>  <Peripheral>  (174) 
nan

>  <Num_H_Atoms_ProtBoundConf>  (174) 
nan

>  <Num_Resolved_Atoms>  (174) 
nan

>  <Num_Not_Resolved_Atoms>  (174) 
nan

$$$$
CHEMBL3330254
     RDKit          3D

  0  0  0  0  0  0  0  0  0  0999 V3000
M  V30 BEGIN CTAB
M  V30 COUNTS 44 47 0 0 0
M  V30 BEGIN ATOM
M  V30 1 N 3.743147 -2.026156 1.567307 0
M  V30 2 S 4.402584 -0.710992 0.651228 0
M  V30 3 O 4.346214 0.589323 1.384343 0
M  V30 4 O 5.824438 -1.094622 0.316741 0
M  V30 5 C 3.539599 -0.607145 -0.863943 0
M  V30 6 C 3.953204 -1.288481 -1.972499 0
M  V30 7 C 3.283490 -1.219061 -3.180736 0
M  V30 8 C 2.151100 -0.424093 -3.255297 0
M  V30 9 C 1.697953 0.283959 -2.152383 0
M  V30 10 C 0.498094 1.097537 -2.315183 0
M  V30 11 N 0.240231 1.927238 -3.361870 0
M  V30 12 N -0.932270 2.506884 -3.188200 0
M  V30 13 C -1.516657 2.110302 -2.042620 0
M  V30 14 C -2.683649 2.348025 -1.345675 0
M  V30 15 C -2.944808 1.725421 -0.145599 0
M  V30 16 C -2.035422 0.832897 0.404033 0
M  V30 17 O -2.438170 0.293474 1.604754 0
M  V30 18 C -1.729423 -0.625276 2.377856 0
M  V30 19 C -2.491981 -0.980738 3.622785 0
M  V30 20 C -1.729899 -1.976796 4.466370 0
M  V30 21 C -0.799377 -1.648202 5.495756 0
M  V30 22 C -0.247152 -2.738005 6.112238 0
M  V30 23 C -0.587745 -4.027367 5.740465 0
M  V30 24 S -1.774980 -3.781565 4.424142 0
M  V30 25 C -0.866278 0.588732 -0.284935 0
M  V30 26 C -0.600046 1.209961 -1.487506 0
M  V30 27 C 2.397730 0.187283 -0.960032 0
M  V30 28 H 3.898807 -1.846680 2.584810 0
M  V30 29 H 4.175021 -2.925761 1.283188 0
M  V30 30 H 4.839640 -1.914837 -1.925972 0
M  V30 31 H 3.651262 -1.780314 -4.036961 0
M  V30 32 H 1.651996 -0.395220 -4.222091 0
M  V30 33 H -1.400479 3.195306 -3.824816 0
M  V30 34 H -3.350957 3.052237 -1.825130 0
M  V30 35 H -3.915457 2.027740 0.272495 0
M  V30 36 H -0.792827 -0.121511 2.730716 0
M  V30 37 H -1.403471 -1.498007 1.807307 0
M  V30 38 H -3.472963 -1.413530 3.332469 0
M  V30 39 H -2.664309 -0.103927 4.255233 0
M  V30 40 H -0.599760 -0.612780 5.712387 0
M  V30 41 H 0.484920 -2.590276 6.922675 0
M  V30 42 H -0.236750 -4.926344 6.133160 0
M  V30 43 H -0.194386 -0.113747 0.187629 0
M  V30 44 H 2.027672 0.744293 -0.121052 0
M  V30 END ATOM
M  V30 BEGIN BOND
M  V30 1 1 1 2
M  V30 2 2 2 3
M  V30 3 2 2 4
M  V30 4 1 2 5
M  V30 5 2 5 6
M  V30 6 1 6 7
M  V30 7 2 7 8
M  V30 8 1 8 9
M  V30 9 1 9 10
M  V30 10 2 10 11
M  V30 11 1 11 12
M  V30 12 1 12 13
M  V30 13 2 13 14
M  V30 14 1 14 15
M  V30 15 2 15 16
M  V30 16 1 16 17
M  V30 17 1 17 18
M  V30 18 1 18 19
M  V30 19 1 19 20
M  V30 20 2 20 21
M  V30 21 1 21 22
M  V30 22 2 22 23
M  V30 23 1 23 24
M  V30 24 1 16 25
M  V30 25 2 25 26
M  V30 26 2 9 27
M  V30 27 1 27 5
M  V30 28 1 26 10
M  V30 29 1 26 13
M  V30 30 1 24 20
M  V30 31 1 1 28
M  V30 32 1 1 29
M  V30 33 1 6 30
M  V30 34 1 7 31
M  V30 35 1 8 32
M  V30 36 1 12 33
M  V30 37 1 14 34
M  V30 38 1 15 35
M  V30 39 1 18 36
M  V30 40 1 18 37
M  V30 41 1 19 38
M  V30 42 1 19 39
M  V30 43 1 21 40
M  V30 44 1 22 41
M  V30 45 1 23 42
M  V30 46 1 25 43
M  V30 47 1 27 44
M  V30 END BOND
M  V30 END CTAB
M  END
>  <Dataset>  (175) 
ChEMBL_Kinases

>  <Ligand_Instance>  (175) 
nan

>  <PDB_ID>  (175) 
nan

>  <Standardized_SMILES>  (175) 
NS(=O)(=O)c1cccc(-c2n[nH]c3ccc(OCCc4cccs4)cc23)c1

>  <Name>  (175) 
nan

>  <Pocket>  (175) 
nan

>  <ATP_Site>  (175) 
nan

>  <Peripheral>  (175) 
nan

>  <Num_H_Atoms_ProtBoundConf>  (175) 
nan

>  <Num_Resolved_Atoms>  (175) 
nan

>  <Num_Not_Resolved_Atoms>  (175) 
nan

$$$$
CHEMBL3330253
     RDKit          3D

  0  0  0  0  0  0  0  0  0  0999 V3000
M  V30 BEGIN CTAB
M  V30 COUNTS 44 47 0 0 0
M  V30 BEGIN ATOM
M  V30 1 N 3.315264 -3.801099 0.556620 0
M  V30 2 S 4.378734 -2.633606 -0.157201 0
M  V30 3 O 4.723117 -1.644684 0.928641 0
M  V30 4 O 5.575566 -3.319424 -0.696391 0
M  V30 5 C 3.487274 -1.849873 -1.449136 0
M  V30 6 C 3.550489 -2.396850 -2.715002 0
M  V30 7 C 2.840583 -1.773565 -3.746321 0
M  V30 8 C 2.078323 -0.631588 -3.547777 0
M  V30 9 C 2.021484 -0.087383 -2.264821 0
M  V30 10 C 1.233617 1.115248 -1.998111 0
M  V30 11 N 1.295852 2.176983 -2.834608 0
M  V30 12 N 0.502888 3.146358 -2.396343 0
M  V30 13 C -0.109920 2.772131 -1.265741 0
M  V30 14 C -1.012050 3.272900 -0.342799 0
M  V30 15 C -1.429050 2.550583 0.756157 0
M  V30 16 C -0.933981 1.277989 0.953013 0
M  V30 17 O -1.416269 0.637467 2.086628 0
M  V30 18 C -1.079697 -0.642658 2.513047 0
M  V30 19 C -1.840909 -0.913852 3.780691 0
M  V30 20 C -3.092280 -1.491599 3.662207 0
M  V30 21 C -3.879485 -1.783689 4.778850 0
M  V30 22 C -3.373535 -1.477308 6.041856 0
M  V30 23 C -2.124705 -0.901755 6.143101 0
M  V30 24 C -1.336982 -0.608693 5.038701 0
M  V30 25 C -0.034944 0.730629 0.067293 0
M  V30 26 C 0.345031 1.496886 -1.010271 0
M  V30 27 C 2.731456 -0.724665 -1.271920 0
M  V30 28 H 2.467108 -3.345377 0.960748 0
M  V30 29 H 3.850279 -4.379786 1.228052 0
M  V30 30 H 4.129516 -3.300052 -2.964493 0
M  V30 31 H 2.912234 -2.233727 -4.739657 0
M  V30 32 H 1.540413 -0.177126 -4.378484 0
M  V30 33 H 0.327619 4.086785 -2.811365 0
M  V30 34 H -1.375110 4.288222 -0.545021 0
M  V30 35 H -2.147144 3.053485 1.417302 0
M  V30 36 H -0.007198 -0.656215 2.795077 0
M  V30 37 H -1.270539 -1.436105 1.759775 0
M  V30 38 H -3.526538 -1.747078 2.703287 0
M  V30 39 H -4.859712 -2.236261 4.686019 0
M  V30 40 H -3.975756 -1.698761 6.929324 0
M  V30 41 H -1.744136 -0.668165 7.145601 0
M  V30 42 H -0.354481 -0.156580 5.106849 0
M  V30 43 H 0.327841 -0.256437 0.249975 0
M  V30 44 H 2.687616 -0.302528 -0.275764 0
M  V30 END ATOM
M  V30 BEGIN BOND
M  V30 1 1 1 2
M  V30 2 2 2 3
M  V30 3 2 2 4
M  V30 4 1 2 5
M  V30 5 2 5 6
M  V30 6 1 6 7
M  V30 7 2 7 8
M  V30 8 1 8 9
M  V30 9 1 9 10
M  V30 10 2 10 11
M  V30 11 1 11 12
M  V30 12 1 12 13
M  V30 13 2 13 14
M  V30 14 1 14 15
M  V30 15 2 15 16
M  V30 16 1 16 17
M  V30 17 1 17 18
M  V30 18 1 18 19
M  V30 19 2 19 20
M  V30 20 1 20 21
M  V30 21 2 21 22
M  V30 22 1 22 23
M  V30 23 2 23 24
M  V30 24 1 16 25
M  V30 25 2 25 26
M  V30 26 2 9 27
M  V30 27 1 27 5
M  V30 28 1 26 10
M  V30 29 1 26 13
M  V30 30 1 24 19
M  V30 31 1 1 28
M  V30 32 1 1 29
M  V30 33 1 6 30
M  V30 34 1 7 31
M  V30 35 1 8 32
M  V30 36 1 12 33
M  V30 37 1 14 34
M  V30 38 1 15 35
M  V30 39 1 18 36
M  V30 40 1 18 37
M  V30 41 1 20 38
M  V30 42 1 21 39
M  V30 43 1 22 40
M  V30 44 1 23 41
M  V30 45 1 24 42
M  V30 46 1 25 43
M  V30 47 1 27 44
M  V30 END BOND
M  V30 END CTAB
M  END
>  <Dataset>  (176) 
ChEMBL_Kinases

>  <Ligand_Instance>  (176) 
nan

>  <PDB_ID>  (176) 
nan

>  <Standardized_SMILES>  (176) 
NS(=O)(=O)c1cccc(-c2n[nH]c3ccc(OCc4ccccc4)cc23)c1

>  <Name>  (176) 
nan

>  <Pocket>  (176) 
nan

>  <ATP_Site>  (176) 
nan

>  <Peripheral>  (176) 
nan

>  <Num_H_Atoms_ProtBoundConf>  (176) 
nan

>  <Num_Resolved_Atoms>  (176) 
nan

>  <Num_Not_Resolved_Atoms>  (176) 
nan

$$$$
CHEMBL3330251
     RDKit          3D

  0  0  0  0  0  0  0  0  0  0999 V3000
M  V30 BEGIN CTAB
M  V30 COUNTS 41 44 0 0 0
M  V30 BEGIN ATOM
M  V30 1 N 4.112078 -4.540370 2.276798 0
M  V30 2 S 4.993896 -3.671131 1.074653 0
M  V30 3 O 5.381437 -2.336163 1.635575 0
M  V30 4 O 6.247536 -4.437707 0.680794 0
M  V30 5 C 3.964698 -3.512710 -0.338195 0
M  V30 6 C 3.937862 -4.436844 -1.357664 0
M  V30 7 C 3.096998 -4.250125 -2.451300 0
M  V30 8 C 2.294425 -3.124759 -2.492519 0
M  V30 9 C 2.337494 -2.208972 -1.456958 0
M  V30 10 C 1.443433 -1.056873 -1.610400 0
M  V30 11 N 1.264539 -0.322196 -2.723156 0
M  V30 12 N 0.380615 0.631141 -2.476329 0
M  V30 13 C -0.017003 0.515233 -1.196112 0
M  V30 14 C -0.916091 1.260257 -0.462856 0
M  V30 15 C -1.216806 1.008105 0.858386 0
M  V30 16 N -2.153155 1.825376 1.533301 0
M  V30 17 C -2.577272 1.719685 2.859787 0
M  V30 18 O -2.145257 0.847482 3.610431 0
M  V30 19 C -3.604507 2.720920 3.375820 0
M  V30 20 C -4.096525 2.727843 4.636755 0
M  V30 21 C -4.998681 3.679832 4.934073 0
M  V30 22 C -5.370372 4.597586 3.929339 0
M  V30 23 S -4.299912 3.975796 2.487365 0
M  V30 24 C -0.535508 -0.057197 1.377484 0
M  V30 25 C 0.373491 -0.840249 0.700141 0
M  V30 26 C 0.638195 -0.548497 -0.612678 0
M  V30 27 C 3.163036 -2.379491 -0.369701 0
M  V30 28 H 3.749417 -3.915363 3.028705 0
M  V30 29 H 4.667090 -5.300801 2.732154 0
M  V30 30 H 4.614503 -5.280536 -1.211671 0
M  V30 31 H 3.137383 -5.017930 -3.202052 0
M  V30 32 H 1.658520 -3.028465 -3.367130 0
M  V30 33 H 0.056219 1.342960 -3.162581 0
M  V30 34 H -1.408884 2.094156 -0.974312 0
M  V30 35 H -2.585635 2.603064 0.986525 0
M  V30 36 H -3.788778 2.007665 5.383506 0
M  V30 37 H -5.496545 3.827127 5.909118 0
M  V30 38 H -6.122234 5.454609 4.040600 0
M  V30 39 H -0.683282 -0.351741 2.393030 0
M  V30 40 H 0.886299 -1.672761 1.156652 0
M  V30 41 H 3.170118 -1.644006 0.419703 0
M  V30 END ATOM
M  V30 BEGIN BOND
M  V30 1 1 1 2
M  V30 2 2 2 3
M  V30 3 2 2 4
M  V30 4 1 2 5
M  V30 5 2 5 6
M  V30 6 1 6 7
M  V30 7 2 7 8
M  V30 8 1 8 9
M  V30 9 1 9 10
M  V30 10 2 10 11
M  V30 11 1 11 12
M  V30 12 1 12 13
M  V30 13 2 13 14
M  V30 14 1 14 15
M  V30 15 1 15 16
M  V30 16 1 16 17
M  V30 17 2 17 18
M  V30 18 1 17 19
M  V30 19 2 19 20
M  V30 20 1 20 21
M  V30 21 2 21 22
M  V30 22 1 22 23
M  V30 23 2 15 24
M  V30 24 1 24 25
M  V30 25 2 25 26
M  V30 26 2 9 27
M  V30 27 1 27 5
M  V30 28 1 26 10
M  V30 29 1 26 13
M  V30 30 1 23 19
M  V30 31 1 1 28
M  V30 32 1 1 29
M  V30 33 1 6 30
M  V30 34 1 7 31
M  V30 35 1 8 32
M  V30 36 1 12 33
M  V30 37 1 14 34
M  V30 38 1 16 35
M  V30 39 1 20 36
M  V30 40 1 21 37
M  V30 41 1 22 38
M  V30 42 1 24 39
M  V30 43 1 25 40
M  V30 44 1 27 41
M  V30 END BOND
M  V30 END CTAB
M  END
>  <Dataset>  (177) 
ChEMBL_Kinases

>  <Ligand_Instance>  (177) 
nan

>  <PDB_ID>  (177) 
nan

>  <Standardized_SMILES>  (177) 
NS(=O)(=O)c1cccc(-c2n[nH]c3cc(NC(=O)c4cccs4)ccc23)c1

>  <Name>  (177) 
nan

>  <Pocket>  (177) 
nan

>  <ATP_Site>  (177) 
nan

>  <Peripheral>  (177) 
nan

>  <Num_H_Atoms_ProtBoundConf>  (177) 
nan

>  <Num_Resolved_Atoms>  (177) 
nan

>  <Num_Not_Resolved_Atoms>  (177) 
nan

$$$$
CHEMBL3330250
     RDKit          3D

  0  0  0  0  0  0  0  0  0  0999 V3000
M  V30 BEGIN CTAB
M  V30 COUNTS 41 44 0 0 0
M  V30 BEGIN ATOM
M  V30 1 N 2.410949 -3.897245 2.637715 0
M  V30 2 S 3.680646 -3.368497 1.596479 0
M  V30 3 O 4.710713 -4.453952 1.504477 0
M  V30 4 O 4.243144 -2.102029 2.163530 0
M  V30 5 C 3.051208 -2.977402 -0.008511 0
M  V30 6 C 2.963263 -3.911066 -1.031757 0
M  V30 7 C 2.459613 -3.529615 -2.260670 0
M  V30 8 C 2.034737 -2.235229 -2.511083 0
M  V30 9 C 2.115638 -1.288082 -1.498442 0
M  V30 10 C 1.667882 0.076700 -1.761842 0
M  V30 11 N 1.934171 0.840024 -2.853846 0
M  V30 12 N 1.375726 2.021288 -2.769432 0
M  V30 13 C 0.693824 2.130770 -1.609591 0
M  V30 14 C -0.065580 3.136497 -1.018647 0
M  V30 15 C -0.647285 2.923307 0.213813 0
M  V30 16 C -0.472878 1.711126 0.856008 0
M  V30 17 N -1.038274 1.390619 2.143692 0
M  V30 18 C -2.328739 0.802705 2.037321 0
M  V30 19 O -2.821132 0.630013 0.901865 0
M  V30 20 C -3.079231 0.403413 3.192176 0
M  V30 21 C -2.894465 0.425876 4.515896 0
M  V30 22 C -3.815459 -0.039312 5.406845 0
M  V30 23 C -5.039106 -0.571746 4.775104 0
M  V30 24 S -4.684589 -0.321917 2.931770 0
M  V30 25 C 0.294285 0.717300 0.241447 0
M  V30 26 C 0.882820 0.912534 -0.989266 0
M  V30 27 C 2.620535 -1.693519 -0.285112 0
M  V30 28 H 2.397964 -3.352209 3.541932 0
M  V30 29 H 2.478912 -4.895085 2.867310 0
M  V30 30 H 3.307205 -4.909844 -0.789396 0
M  V30 31 H 2.438767 -4.341804 -2.980897 0
M  V30 32 H 1.650141 -2.010727 -3.503485 0
M  V30 33 H 1.451173 2.767366 -3.498872 0
M  V30 34 H -0.194479 4.080068 -1.531063 0
M  V30 35 H -1.247783 3.667702 0.721419 0
M  V30 36 H -0.623475 1.536054 3.101187 0
M  V30 37 H -1.948722 0.846029 4.820998 0
M  V30 38 H -3.682206 -0.028446 6.474592 0
M  V30 39 H -5.852092 -0.981164 5.535813 0
M  V30 40 H 0.426839 -0.226234 0.747163 0
M  V30 41 H 2.698176 -0.980313 0.528440 0
M  V30 END ATOM
M  V30 BEGIN BOND
M  V30 1 1 1 2
M  V30 2 2 2 3
M  V30 3 2 2 4
M  V30 4 1 2 5
M  V30 5 2 5 6
M  V30 6 1 6 7
M  V30 7 2 7 8
M  V30 8 1 8 9
M  V30 9 1 9 10
M  V30 10 2 10 11
M  V30 11 1 11 12
M  V30 12 1 12 13
M  V30 13 2 13 14
M  V30 14 1 14 15
M  V30 15 2 15 16
M  V30 16 1 16 17
M  V30 17 1 17 18
M  V30 18 2 18 19
M  V30 19 1 18 20
M  V30 20 2 20 21
M  V30 21 1 21 22
M  V30 22 2 22 23
M  V30 23 1 23 24
M  V30 24 1 16 25
M  V30 25 2 25 26
M  V30 26 2 9 27
M  V30 27 1 27 5
M  V30 28 1 26 10
M  V30 29 1 26 13
M  V30 30 1 24 20
M  V30 31 1 1 28
M  V30 32 1 1 29
M  V30 33 1 6 30
M  V30 34 1 7 31
M  V30 35 1 8 32
M  V30 36 1 12 33
M  V30 37 1 14 34
M  V30 38 1 15 35
M  V30 39 1 17 36
M  V30 40 1 21 37
M  V30 41 1 22 38
M  V30 42 1 23 39
M  V30 43 1 25 40
M  V30 44 1 27 41
M  V30 END BOND
M  V30 END CTAB
M  END
>  <Dataset>  (178) 
ChEMBL_Kinases

>  <Ligand_Instance>  (178) 
nan

>  <PDB_ID>  (178) 
nan

>  <Standardized_SMILES>  (178) 
NS(=O)(=O)c1cccc(-c2n[nH]c3ccc(NC(=O)c4cccs4)cc23)c1

>  <Name>  (178) 
nan

>  <Pocket>  (178) 
nan

>  <ATP_Site>  (178) 
nan

>  <Peripheral>  (178) 
nan

>  <Num_H_Atoms_ProtBoundConf>  (178) 
nan

>  <Num_Resolved_Atoms>  (178) 
nan

>  <Num_Not_Resolved_Atoms>  (178) 
nan

$$$$
CHEMBL3330248
     RDKit          3D

  0  0  0  0  0  0  0  0  0  0999 V3000
M  V30 BEGIN CTAB
M  V30 COUNTS 37 39 0 0 0
M  V30 BEGIN ATOM
M  V30 1 C -0.481481 -5.806735 1.216369 0
M  V30 2 C 0.381345 -4.619102 0.937874 0
M  V30 3 O 0.839932 -4.099045 1.977770 0
M  V30 4 N 0.669490 -4.109577 -0.361722 0
M  V30 5 C 1.520264 -2.974414 -0.253169 0
M  V30 6 C 2.867915 -3.207918 -0.273970 0
M  V30 7 C 3.753428 -2.157483 -0.173418 0
M  V30 8 C 3.279975 -0.865728 -0.051336 0
M  V30 9 N 3.818332 0.360445 0.065557 0
M  V30 10 N 2.861299 1.272787 0.151159 0
M  V30 11 C 1.638946 0.672307 0.092948 0
M  V30 12 C 0.415684 1.468081 0.167235 0
M  V30 13 C 0.398401 2.608473 -0.607664 0
M  V30 14 C -0.657090 3.500635 -0.684779 0
M  V30 15 C -1.764024 3.189385 0.091210 0
M  V30 16 C -1.787742 2.058270 0.880552 0
M  V30 17 S -3.166551 1.624441 1.878821 0
M  V30 18 N -2.949111 2.352511 3.431583 0
M  V30 19 O -4.438855 2.224871 1.315756 0
M  V30 20 O -3.254472 0.151171 2.040720 0
M  V30 21 C -0.702175 1.182598 0.931064 0
M  V30 22 C 1.913718 -0.673180 -0.034443 0
M  V30 23 C 0.990867 -1.686120 -0.131474 0
M  V30 24 H -1.121652 -5.622731 2.094130 0
M  V30 25 H 0.141617 -6.715628 1.399931 0
M  V30 26 H -1.152792 -6.031491 0.358994 0
M  V30 27 H 0.214909 -4.650463 -1.121193 0
M  V30 28 H 3.348481 -4.161784 -0.363986 0
M  V30 29 H 4.837525 -2.239642 -0.180119 0
M  V30 30 H 4.856241 0.510063 0.080804 0
M  V30 31 H 1.253591 2.886140 -1.232736 0
M  V30 32 H -0.624766 4.380929 -1.306134 0
M  V30 33 H -2.624524 3.840409 0.080802 0
M  V30 34 H -2.126915 2.994152 3.434588 0
M  V30 35 H -2.831535 1.623165 4.182818 0
M  V30 36 H -0.650471 0.280274 1.524886 0
M  V30 37 H -0.070159 -1.516491 -0.116455 0
M  V30 END ATOM
M  V30 BEGIN BOND
M  V30 1 1 1 2
M  V30 2 2 2 3
M  V30 3 1 2 4
M  V30 4 1 4 5
M  V30 5 2 5 6
M  V30 6 1 6 7
M  V30 7 2 7 8
M  V30 8 1 8 9
M  V30 9 1 9 10
M  V30 10 2 10 11
M  V30 11 1 11 12
M  V30 12 2 12 13
M  V30 13 1 13 14
M  V30 14 2 14 15
M  V30 15 1 15 16
M  V30 16 1 16 17
M  V30 17 1 17 18
M  V30 18 2 17 19
M  V30 19 2 17 20
M  V30 20 2 16 21
M  V30 21 1 11 22
M  V30 22 2 22 23
M  V30 23 1 23 5
M  V30 24 1 22 8
M  V30 25 1 21 12
M  V30 26 1 1 24
M  V30 27 1 1 25
M  V30 28 1 1 26
M  V30 29 1 4 27
M  V30 30 1 6 28
M  V30 31 1 7 29
M  V30 32 1 9 30
M  V30 33 1 13 31
M  V30 34 1 14 32
M  V30 35 1 15 33
M  V30 36 1 18 34
M  V30 37 1 18 35
M  V30 38 1 21 36
M  V30 39 1 23 37
M  V30 END BOND
M  V30 END CTAB
M  END
>  <Dataset>  (179) 
ChEMBL_Kinases

>  <Ligand_Instance>  (179) 
nan

>  <PDB_ID>  (179) 
nan

>  <Standardized_SMILES>  (179) 
CC(=O)Nc1ccc2[nH]nc(-c3cccc(S(N)(=O)=O)c3)c2c1

>  <Name>  (179) 
nan

>  <Pocket>  (179) 
nan

>  <ATP_Site>  (179) 
nan

>  <Peripheral>  (179) 
nan

>  <Num_H_Atoms_ProtBoundConf>  (179) 
nan

>  <Num_Resolved_Atoms>  (179) 
nan

>  <Num_Not_Resolved_Atoms>  (179) 
nan

$$$$
CHEMBL3330247
     RDKit          3D

  0  0  0  0  0  0  0  0  0  0999 V3000
M  V30 BEGIN CTAB
M  V30 COUNTS 34 36 0 0 0
M  V30 BEGIN ATOM
M  V30 1 C -0.843271 -4.145234 4.042307 0
M  V30 2 O -0.669419 -2.986154 3.282964 0
M  V30 3 C 0.152159 -3.016187 2.166073 0
M  V30 4 C 0.856908 -4.093121 1.679700 0
M  V30 5 C 1.638631 -3.963863 0.546183 0
M  V30 6 C 1.745062 -2.767821 -0.136929 0
M  V30 7 N 2.431151 -2.414015 -1.239596 0
M  V30 8 N 2.163056 -1.142924 -1.441076 0
M  V30 9 C 1.318457 -0.653588 -0.498640 0
M  V30 10 C 0.824704 0.722096 -0.436599 0
M  V30 11 C 1.746166 1.741886 -0.629918 0
M  V30 12 C 1.337551 3.060150 -0.582434 0
M  V30 13 C 0.007297 3.380626 -0.342067 0
M  V30 14 C -0.919886 2.377013 -0.148032 0
M  V30 15 S -2.611842 2.736154 0.158723 0
M  V30 16 N -3.422880 2.810622 -1.339805 0
M  V30 17 O -2.798850 3.960078 0.994169 0
M  V30 18 O -3.168179 1.567086 0.948863 0
M  V30 19 C -0.490800 1.070530 -0.199579 0
M  V30 20 C 1.032514 -1.694509 0.361807 0
M  V30 21 C 0.244224 -1.793571 1.490798 0
M  V30 22 H -0.865694 -5.087957 3.475476 0
M  V30 23 H -1.784347 -4.084038 4.626736 0
M  V30 24 H -0.007790 -4.228819 4.783539 0
M  V30 25 H 0.752507 -5.012058 2.235717 0
M  V30 26 H 2.182406 -4.849704 0.195515 0
M  V30 27 H 3.043260 -3.055766 -1.793783 0
M  V30 28 H 2.793520 1.559465 -0.820681 0
M  V30 29 H 2.015438 3.900157 -0.726588 0
M  V30 30 H -0.381619 4.389132 -0.291552 0
M  V30 31 H -4.036488 1.962096 -1.502909 0
M  V30 32 H -2.793903 2.842728 -2.172904 0
M  V30 33 H -1.206971 0.276216 -0.049298 0
M  V30 34 H -0.284678 -0.910193 1.822064 0
M  V30 END ATOM
M  V30 BEGIN BOND
M  V30 1 1 1 2
M  V30 2 1 2 3
M  V30 3 2 3 4
M  V30 4 1 4 5
M  V30 5 2 5 6
M  V30 6 1 6 7
M  V30 7 1 7 8
M  V30 8 2 8 9
M  V30 9 1 9 10
M  V30 10 2 10 11
M  V30 11 1 11 12
M  V30 12 2 12 13
M  V30 13 1 13 14
M  V30 14 1 14 15
M  V30 15 1 15 16
M  V30 16 2 15 17
M  V30 17 2 15 18
M  V30 18 2 14 19
M  V30 19 1 9 20
M  V30 20 2 20 21
M  V30 21 1 21 3
M  V30 22 1 20 6
M  V30 23 1 19 10
M  V30 24 1 1 22
M  V30 25 1 1 23
M  V30 26 1 1 24
M  V30 27 1 4 25
M  V30 28 1 5 26
M  V30 29 1 7 27
M  V30 30 1 11 28
M  V30 31 1 12 29
M  V30 32 1 13 30
M  V30 33 1 16 31
M  V30 34 1 16 32
M  V30 35 1 19 33
M  V30 36 1 21 34
M  V30 END BOND
M  V30 END CTAB
M  END
>  <Dataset>  (180) 
ChEMBL_Kinases

>  <Ligand_Instance>  (180) 
nan

>  <PDB_ID>  (180) 
nan

>  <Standardized_SMILES>  (180) 
COc1ccc2[nH]nc(-c3cccc(S(N)(=O)=O)c3)c2c1

>  <Name>  (180) 
nan

>  <Pocket>  (180) 
nan

>  <ATP_Site>  (180) 
nan

>  <Peripheral>  (180) 
nan

>  <Num_H_Atoms_ProtBoundConf>  (180) 
nan

>  <Num_Resolved_Atoms>  (180) 
nan

>  <Num_Not_Resolved_Atoms>  (180) 
nan

$$$$
CHEMBL3330246
     RDKit          3D

  0  0  0  0  0  0  0  0  0  0999 V3000
M  V30 BEGIN CTAB
M  V30 COUNTS 34 36 0 0 0
M  V30 BEGIN ATOM
M  V30 1 C -1.974347 -2.781925 0.086569 0
M  V30 2 O -0.857971 -1.989926 0.418871 0
M  V30 3 C 0.364699 -2.567525 0.695077 0
M  V30 4 C 0.487487 -3.954100 0.643695 0
M  V30 5 C 1.698115 -4.547263 0.917752 0
M  V30 6 C 2.836402 -3.804739 1.253162 0
M  V30 7 C 2.728054 -2.427550 1.307568 0
M  V30 8 N 3.532774 -1.384231 1.581001 0
M  V30 9 N 2.861835 -0.246918 1.479678 0
M  V30 10 C 1.564968 -0.494133 1.129130 0
M  V30 11 C 0.675745 0.649456 0.977800 0
M  V30 12 C 0.680777 1.582884 2.018451 0
M  V30 13 C -0.077803 2.746354 2.067397 0
M  V30 14 C -0.894631 2.971890 0.983840 0
M  V30 15 C -0.944380 2.103211 -0.058817 0
M  V30 16 S -1.986541 2.404737 -1.426160 0
M  V30 17 N -3.519345 1.705773 -1.164408 0
M  V30 18 O -2.051281 3.878467 -1.723093 0
M  V30 19 O -1.419871 1.749349 -2.677138 0
M  V30 20 C -0.173088 0.961072 -0.064014 0
M  V30 21 C 1.501427 -1.862964 1.027254 0
M  V30 22 H -2.885806 -2.160499 0.133901 0
M  V30 23 H -2.065041 -3.612182 0.824410 0
M  V30 24 H -1.795834 -3.200477 -0.925259 0
M  V30 25 H -0.327089 -4.597523 0.397062 0
M  V30 26 H 1.869250 -5.617372 0.897533 0
M  V30 27 H 3.801723 -4.234230 1.474451 0
M  V30 28 H 4.530969 -1.486781 1.832039 0
M  V30 29 H 1.319959 1.419026 2.880303 0
M  V30 30 H -0.019302 3.409593 2.896467 0
M  V30 31 H -1.501531 3.868071 0.985182 0
M  V30 32 H -3.546017 1.262915 -0.241654 0
M  V30 33 H -4.233842 2.457159 -1.286251 0
M  V30 34 H -0.182069 0.256896 -0.883554 0
M  V30 END ATOM
M  V30 BEGIN BOND
M  V30 1 1 1 2
M  V30 2 1 2 3
M  V30 3 2 3 4
M  V30 4 1 4 5
M  V30 5 2 5 6
M  V30 6 1 6 7
M  V30 7 1 7 8
M  V30 8 1 8 9
M  V30 9 2 9 10
M  V30 10 1 10 11
M  V30 11 2 11 12
M  V30 12 1 12 13
M  V30 13 2 13 14
M  V30 14 1 14 15
M  V30 15 1 15 16
M  V30 16 1 16 17
M  V30 17 2 16 18
M  V30 18 2 16 19
M  V30 19 2 15 20
M  V30 20 1 10 21
M  V30 21 1 21 3
M  V30 22 2 21 7
M  V30 23 1 20 11
M  V30 24 1 1 22
M  V30 25 1 1 23
M  V30 26 1 1 24
M  V30 27 1 4 25
M  V30 28 1 5 26
M  V30 29 1 6 27
M  V30 30 1 8 28
M  V30 31 1 12 29
M  V30 32 1 13 30
M  V30 33 1 14 31
M  V30 34 1 17 32
M  V30 35 1 17 33
M  V30 36 1 20 34
M  V30 END BOND
M  V30 END CTAB
M  END
>  <Dataset>  (181) 
ChEMBL_Kinases

>  <Ligand_Instance>  (181) 
nan

>  <PDB_ID>  (181) 
nan

>  <Standardized_SMILES>  (181) 
COc1cccc2[nH]nc(-c3cccc(S(N)(=O)=O)c3)c12

>  <Name>  (181) 
nan

>  <Pocket>  (181) 
nan

>  <ATP_Site>  (181) 
nan

>  <Peripheral>  (181) 
nan

>  <Num_H_Atoms_ProtBoundConf>  (181) 
nan

>  <Num_Resolved_Atoms>  (181) 
nan

>  <Num_Not_Resolved_Atoms>  (181) 
nan

$$$$
CHEMBL3334945
     RDKit          3D

  0  0  0  0  0  0  0  0  0  0999 V3000
M  V30 BEGIN CTAB
M  V30 COUNTS 48 51 0 0 0
M  V30 BEGIN ATOM
M  V30 1 C -1.452134 -6.998070 -1.366010 0
M  V30 2 O -2.177454 -6.389375 -0.316607 0
M  V30 3 C -2.262210 -5.029987 -0.111658 0
M  V30 4 C -1.669838 -4.044574 -0.874187 0
M  V30 5 C -1.808326 -2.698618 -0.595057 0
M  V30 6 C -1.139606 -1.705475 -1.464525 0
M  V30 7 C -1.023523 -2.079578 -2.788312 0
M  V30 8 N -0.414041 -1.172410 -3.574075 0
M  V30 9 C 0.042843 0.014657 -3.074520 0
M  V30 10 S 0.836085 1.301337 -3.869078 0
M  V30 11 N 1.010685 2.374711 -2.346913 0
M  V30 12 C 0.402797 1.548893 -1.394049 0
M  V30 13 N 0.452968 2.231234 -0.147846 0
M  V30 14 C 1.622930 1.952701 0.604805 0
M  V30 15 O 2.355045 1.134269 -0.048450 0
M  V30 16 C 1.829671 2.582798 1.923118 0
M  V30 17 C 0.778372 2.275002 2.937367 0
M  V30 18 C 1.341035 2.474274 4.312744 0
M  V30 19 C 2.390078 3.535909 4.405082 0
M  V30 20 C 3.564576 3.304431 3.494025 0
M  V30 21 C 3.167900 2.220888 2.521902 0
M  V30 22 C -0.102347 0.324844 -1.757467 0
M  V30 23 C -0.710580 -0.533350 -0.872231 0
M  V30 24 C -2.572165 -2.304703 0.494646 0
M  V30 25 C -3.177176 -3.280347 1.275310 0
M  V30 26 C -3.034359 -4.641542 0.989197 0
M  V30 27 O -3.662098 -5.595720 1.802751 0
M  V30 28 H -1.528932 -6.342062 -2.257858 0
M  V30 29 H -1.861951 -7.998504 -1.613134 0
M  V30 30 H -0.374410 -7.110795 -1.148986 0
M  V30 31 H -1.099207 -4.427126 -1.693694 0
M  V30 32 H -1.398435 -3.028959 -3.145231 0
M  V30 33 H -0.308101 2.878532 0.177607 0
M  V30 34 H 1.852018 3.680474 1.759876 0
M  V30 35 H 0.353761 1.254524 2.825627 0
M  V30 36 H -0.077392 2.979720 2.741974 0
M  V30 37 H 0.493571 2.807120 4.959375 0
M  V30 38 H 1.767947 1.544495 4.737453 0
M  V30 39 H 2.791224 3.483490 5.456055 0
M  V30 40 H 1.970675 4.570307 4.322498 0
M  V30 41 H 4.492646 3.030217 4.046382 0
M  V30 42 H 3.800803 4.209037 2.900089 0
M  V30 43 H 3.947507 2.012582 1.775975 0
M  V30 44 H 3.045492 1.289349 3.129177 0
M  V30 45 H -0.867893 -0.369499 0.185161 0
M  V30 46 H -2.677002 -1.263349 0.707136 0
M  V30 47 H -3.777100 -3.028340 2.127548 0
M  V30 48 H -4.390326 -6.140621 1.341733 0
M  V30 END ATOM
M  V30 BEGIN BOND
M  V30 1 1 1 2
M  V30 2 1 2 3
M  V30 3 2 3 4
M  V30 4 1 4 5
M  V30 5 1 5 6
M  V30 6 2 6 7
M  V30 7 1 7 8
M  V30 8 2 8 9
M  V30 9 1 9 10
M  V30 10 1 10 11
M  V30 11 2 11 12
M  V30 12 1 12 13
M  V30 13 1 13 14
M  V30 14 2 14 15
M  V30 15 1 14 16
M  V30 16 1 16 17
M  V30 17 1 17 18
M  V30 18 1 18 19
M  V30 19 1 19 20
M  V30 20 1 20 21
M  V30 21 1 12 22
M  V30 22 2 22 23
M  V30 23 2 5 24
M  V30 24 1 24 25
M  V30 25 2 25 26
M  V30 26 1 26 27
M  V30 27 1 26 3
M  V30 28 1 23 6
M  V30 29 1 22 9
M  V30 30 1 21 16
M  V30 31 1 1 28
M  V30 32 1 1 29
M  V30 33 1 1 30
M  V30 34 1 4 31
M  V30 35 1 7 32
M  V30 36 1 13 33
M  V30 37 1 16 34
M  V30 38 1 17 35
M  V30 39 1 17 36
M  V30 40 1 18 37
M  V30 41 1 18 38
M  V30 42 1 19 39
M  V30 43 1 19 40
M  V30 44 1 20 41
M  V30 45 1 20 42
M  V30 46 1 21 43
M  V30 47 1 21 44
M  V30 48 1 23 45
M  V30 49 1 24 46
M  V30 50 1 25 47
M  V30 51 1 27 48
M  V30 END BOND
M  V30 END CTAB
M  END
>  <Dataset>  (182) 
ChEMBL_Kinases

>  <Ligand_Instance>  (182) 
nan

>  <PDB_ID>  (182) 
nan

>  <Standardized_SMILES>  (182) 
COc1cc(-c2cnc3snc(NC(=O)C4CCCCC4)c3c2)ccc1O

>  <Name>  (182) 
nan

>  <Pocket>  (182) 
nan

>  <ATP_Site>  (182) 
nan

>  <Peripheral>  (182) 
nan

>  <Num_H_Atoms_ProtBoundConf>  (182) 
nan

>  <Num_Resolved_Atoms>  (182) 
nan

>  <Num_Not_Resolved_Atoms>  (182) 
nan

$$$$
CHEMBL3330170
     RDKit          3D

  0  0  0  0  0  0  0  0  0  0999 V3000
M  V30 BEGIN CTAB
M  V30 COUNTS 39 42 0 0 0
M  V30 BEGIN ATOM
M  V30 1 O 0.731176 -3.242047 2.669480 0
M  V30 2 C -0.509251 -3.377557 2.489379 0
M  V30 3 N -0.949289 -2.634076 1.380426 0
M  V30 4 C -0.236680 -1.793709 0.477351 0
M  V30 5 N 0.394342 -2.056264 -0.705177 0
M  V30 6 C 0.918151 -0.878691 -1.155887 0
M  V30 7 C 1.645236 -0.606955 -2.299779 0
M  V30 8 C 2.056272 0.708950 -2.504215 0
M  V30 9 C 2.837135 0.932273 -3.758722 0
M  V30 10 F 2.054159 0.524704 -4.835464 0
M  V30 11 F 3.973801 0.130367 -3.731087 0
M  V30 12 F 3.161724 2.259102 -3.867334 0
M  V30 13 C 1.755003 1.710934 -1.606159 0
M  V30 14 C 1.025901 1.363395 -0.487657 0
M  V30 15 N 0.683560 2.352901 0.475825 0
M  V30 16 C 1.071761 3.742254 0.337969 0
M  V30 17 C 0.692273 4.750480 1.373810 0
M  V30 18 C 2.051092 4.195708 1.387849 0
M  V30 19 N 0.618231 0.099072 -0.269347 0
M  V30 20 N -0.083393 -0.477084 0.715229 0
M  V30 21 C -1.465220 -4.168691 3.257174 0
M  V30 22 C -2.819179 -4.287039 3.022441 0
M  V30 23 C -3.551503 -5.097647 3.880475 0
M  V30 24 C -2.929398 -5.750322 4.921163 0
M  V30 25 N -1.591766 -5.624059 5.140738 0
M  V30 26 C -0.846811 -4.834264 4.313802 0
M  V30 27 H -1.936467 -2.594888 1.042949 0
M  V30 28 H 1.864961 -1.419753 -2.986027 0
M  V30 29 H 2.095460 2.716556 -1.807453 0
M  V30 30 H 0.141654 2.134446 1.322496 0
M  V30 31 H 1.151304 4.146591 -0.703209 0
M  V30 32 H 0.571917 5.799548 1.060473 0
M  V30 33 H -0.107857 4.411287 2.047682 0
M  V30 34 H 2.398514 3.489103 2.155748 0
M  V30 35 H 2.866957 4.822639 0.985228 0
M  V30 36 H -3.197324 -3.728877 2.176882 0
M  V30 37 H -4.612894 -5.173142 3.673654 0
M  V30 38 H -3.534538 -6.386450 5.585754 0
M  V30 39 H 0.197949 -4.799601 4.569650 0
M  V30 END ATOM
M  V30 BEGIN BOND
M  V30 1 2 1 2
M  V30 2 1 2 3
M  V30 3 1 3 4
M  V30 4 1 4 5
M  V30 5 2 5 6
M  V30 6 1 6 7
M  V30 7 2 7 8
M  V30 8 1 8 9
M  V30 9 1 9 10
M  V30 10 1 9 11
M  V30 11 1 9 12
M  V30 12 1 8 13
M  V30 13 2 13 14
M  V30 14 1 14 15
M  V30 15 1 15 16
M  V30 16 1 16 17
M  V30 17 1 17 18
M  V30 18 1 14 19
M  V30 19 1 19 20
M  V30 20 1 2 21
M  V30 21 2 21 22
M  V30 22 1 22 23
M  V30 23 2 23 24
M  V30 24 1 24 25
M  V30 25 2 25 26
M  V30 26 2 20 4
M  V30 27 1 26 21
M  V30 28 1 19 6
M  V30 29 1 18 16
M  V30 30 1 3 27
M  V30 31 1 7 28
M  V30 32 1 13 29
M  V30 33 1 15 30
M  V30 34 1 16 31
M  V30 35 1 17 32
M  V30 36 1 17 33
M  V30 37 1 18 34
M  V30 38 1 18 35
M  V30 39 1 22 36
M  V30 40 1 23 37
M  V30 41 1 24 38
M  V30 42 1 26 39
M  V30 END BOND
M  V30 END CTAB
M  END
>  <Dataset>  (183) 
ChEMBL_Kinases

>  <Ligand_Instance>  (183) 
nan

>  <PDB_ID>  (183) 
nan

>  <Standardized_SMILES>  (183) 
O=C(Nc1nc2cc(C(F)(F)F)cc(NC3CC3)n2n1)c1cccnc1

>  <Name>  (183) 
nan

>  <Pocket>  (183) 
nan

>  <ATP_Site>  (183) 
nan

>  <Peripheral>  (183) 
nan

>  <Num_H_Atoms_ProtBoundConf>  (183) 
nan

>  <Num_Resolved_Atoms>  (183) 
nan

>  <Num_Not_Resolved_Atoms>  (183) 
nan

$$$$
CHEMBL3330171
     RDKit          3D

  0  0  0  0  0  0  0  0  0  0999 V3000
M  V30 BEGIN CTAB
M  V30 COUNTS 37 39 0 0 0
M  V30 BEGIN ATOM
M  V30 1 N -2.432003 -1.144858 3.676125 0
M  V30 2 C -1.297334 -1.296497 3.467493 0
M  V30 3 C 0.085746 -1.489253 3.236778 0
M  V30 4 C 0.931258 -2.006821 4.227034 0
M  V30 5 N 2.176982 -2.078313 3.730558 0
M  V30 6 C 2.181962 -1.635680 2.475201 0
M  V30 7 C 3.114284 -1.466502 1.473702 0
M  V30 8 C 4.485944 -1.847400 1.778736 0
M  V30 9 N 5.579507 -1.747941 0.875054 0
M  V30 10 O 4.881792 -2.311845 2.874637 0
M  V30 11 C 2.864982 -0.970566 0.210875 0
M  V30 12 C 1.524835 -0.623540 -0.019646 0
M  V30 13 C 0.510109 -0.761688 0.939922 0
M  V30 14 O -0.640438 -0.404009 0.572743 0
M  V30 15 C -1.858366 -0.029160 0.194743 0
M  V30 16 C -2.020638 1.440170 -0.119827 0
M  V30 17 C -2.258718 1.817667 -1.517635 0
M  V30 18 N -2.769519 0.848025 -2.419847 0
M  V30 19 C -2.081315 -0.417756 -2.241897 0
M  V30 20 C -2.501131 -0.895718 -0.881545 0
M  V30 21 C 0.888161 -1.269657 2.165177 0
M  V30 22 H 0.669790 -2.311894 5.237169 0
M  V30 23 H 3.004790 -2.429062 4.259139 0
M  V30 24 H 5.741328 -2.501242 0.166378 0
M  V30 25 H 6.359529 -1.044643 0.704092 0
M  V30 26 H 3.629005 -0.855778 -0.542147 0
M  V30 27 H 1.350274 -0.232258 -1.028548 0
M  V30 28 H -2.554139 -0.196534 1.081420 0
M  V30 29 H -2.749657 1.941744 0.547029 0
M  V30 30 H -1.037669 1.906592 0.192964 0
M  V30 31 H -2.990001 2.679661 -1.569378 0
M  V30 32 H -1.344892 2.266095 -2.010726 0
M  V30 33 H -2.587283 1.157425 -3.400220 0
M  V30 34 H -1.005486 -0.217440 -2.358551 0
M  V30 35 H -2.356332 -1.156667 -3.021615 0
M  V30 36 H -2.301266 -1.945156 -0.683812 0
M  V30 37 H -3.596443 -0.725927 -0.828605 0
M  V30 END ATOM
M  V30 BEGIN BOND
M  V30 1 3 1 2
M  V30 2 1 2 3
M  V30 3 2 3 4
M  V30 4 1 4 5
M  V30 5 1 5 6
M  V30 6 2 6 7
M  V30 7 1 7 8
M  V30 8 1 8 9
M  V30 9 2 8 10
M  V30 10 1 7 11
M  V30 11 2 11 12
M  V30 12 1 12 13
M  V30 13 1 13 14
M  V30 14 1 14 15
M  V30 15 1 15 16
M  V30 16 1 16 17
M  V30 17 1 17 18
M  V30 18 1 18 19
M  V30 19 1 19 20
M  V30 20 2 13 21
M  V30 21 1 21 3
M  V30 22 1 21 6
M  V30 23 1 20 15
M  V30 24 1 4 22
M  V30 25 1 5 23
M  V30 26 1 9 24
M  V30 27 1 9 25
M  V30 28 1 11 26
M  V30 29 1 12 27
M  V30 30 1 15 28
M  V30 31 1 16 29
M  V30 32 1 16 30
M  V30 33 1 17 31
M  V30 34 1 17 32
M  V30 35 1 18 33
M  V30 36 1 19 34
M  V30 37 1 19 35
M  V30 38 1 20 36
M  V30 39 1 20 37
M  V30 END BOND
M  V30 END CTAB
M  END
>  <Dataset>  (184) 
ChEMBL_Kinases

>  <Ligand_Instance>  (184) 
nan

>  <PDB_ID>  (184) 
nan

>  <Standardized_SMILES>  (184) 
N#Cc1c[nH]c2c(C(N)=O)ccc(OC3CCNCC3)c12

>  <Name>  (184) 
nan

>  <Pocket>  (184) 
nan

>  <ATP_Site>  (184) 
nan

>  <Peripheral>  (184) 
nan

>  <Num_H_Atoms_ProtBoundConf>  (184) 
nan

>  <Num_Resolved_Atoms>  (184) 
nan

>  <Num_Not_Resolved_Atoms>  (184) 
nan

$$$$
CHEMBL3330172
     RDKit          3D

  0  0  0  0  0  0  0  0  0  0999 V3000
M  V30 BEGIN CTAB
M  V30 COUNTS 38 40 0 0 0
M  V30 BEGIN ATOM
M  V30 1 C -2.340789 -1.891126 4.336735 0
M  V30 2 C -1.775285 -2.657157 3.186038 0
M  V30 3 C -0.871726 -2.164246 2.261304 0
M  V30 4 C -0.550152 -3.112013 1.334335 0
M  V30 5 C 0.242021 -3.220209 0.235975 0
M  V30 6 C 1.045064 -2.047462 -0.194889 0
M  V30 7 C 1.902545 -1.982151 -1.286569 0
M  V30 8 C 2.530632 -0.779787 -1.471813 0
M  V30 9 C 2.315256 0.263419 -0.633728 0
M  V30 10 S 2.917099 1.870537 -0.569138 0
M  V30 11 O 3.630621 2.164136 0.739503 0
M  V30 12 O 3.811618 2.076983 -1.733039 0
M  V30 13 N 1.653366 3.046547 -0.690695 0
M  V30 14 C 0.735069 2.924252 0.395592 0
M  V30 15 C -0.385754 3.954930 0.302610 0
M  V30 16 N 0.106637 5.300706 0.325178 0
M  V30 17 S 1.155367 -0.418843 0.526898 0
M  V30 18 C 0.348230 -4.350442 -0.505176 0
M  V30 19 C -0.398717 -5.432585 -0.099841 0
M  V30 20 N -1.196802 -5.364314 0.985037 0
M  V30 21 C -1.293016 -4.225965 1.717374 0
M  V30 22 N -2.005121 -3.917948 2.816896 0
M  V30 23 H -1.553284 -1.387021 4.922566 0
M  V30 24 H -3.024182 -1.109321 3.963864 0
M  V30 25 H -2.845048 -2.601072 5.025402 0
M  V30 26 H -0.479863 -1.162229 2.279816 0
M  V30 27 H 2.057579 -2.828359 -1.940559 0
M  V30 28 H 3.231649 -0.581186 -2.287028 0
M  V30 29 H 1.125749 2.971386 -1.592209 0
M  V30 30 H 0.216980 1.942220 0.267028 0
M  V30 31 H 1.217368 3.052237 1.365674 0
M  V30 32 H -1.038855 3.808227 1.188671 0
M  V30 33 H -0.921458 3.757732 -0.646978 0
M  V30 34 H -0.500311 5.955760 0.840823 0
M  V30 35 H 0.439823 5.670385 -0.582273 0
M  V30 36 H 0.969568 -4.447580 -1.373231 0
M  V30 37 H -0.342817 -6.356877 -0.665282 0
M  V30 38 H -2.654340 -4.542698 3.337309 0
M  V30 END ATOM
M  V30 BEGIN BOND
M  V30 1 1 1 2
M  V30 2 2 2 3
M  V30 3 1 3 4
M  V30 4 2 4 5
M  V30 5 1 5 6
M  V30 6 2 6 7
M  V30 7 1 7 8
M  V30 8 2 8 9
M  V30 9 1 9 10
M  V30 10 2 10 11
M  V30 11 2 10 12
M  V30 12 1 10 13
M  V30 13 1 13 14
M  V30 14 1 14 15
M  V30 15 1 15 16
M  V30 16 1 9 17
M  V30 17 1 5 18
M  V30 18 2 18 19
M  V30 19 1 19 20
M  V30 20 2 20 21
M  V30 21 1 21 22
M  V30 22 1 22 2
M  V30 23 1 21 4
M  V30 24 1 17 6
M  V30 25 1 1 23
M  V30 26 1 1 24
M  V30 27 1 1 25
M  V30 28 1 3 26
M  V30 29 1 7 27
M  V30 30 1 8 28
M  V30 31 1 13 29
M  V30 32 1 14 30
M  V30 33 1 14 31
M  V30 34 1 15 32
M  V30 35 1 15 33
M  V30 36 1 16 34
M  V30 37 1 16 35
M  V30 38 1 18 36
M  V30 39 1 19 37
M  V30 40 1 22 38
M  V30 END BOND
M  V30 END CTAB
M  END
>  <Dataset>  (185) 
ChEMBL_Kinases

>  <Ligand_Instance>  (185) 
nan

>  <PDB_ID>  (185) 
nan

>  <Standardized_SMILES>  (185) 
Cc1cc2c(-c3ccc(S(=O)(=O)NCCN)s3)ccnc2[nH]1

>  <Name>  (185) 
nan

>  <Pocket>  (185) 
nan

>  <ATP_Site>  (185) 
nan

>  <Peripheral>  (185) 
nan

>  <Num_H_Atoms_ProtBoundConf>  (185) 
nan

>  <Num_Resolved_Atoms>  (185) 
nan

>  <Num_Not_Resolved_Atoms>  (185) 
nan

$$$$
CHEMBL3330227
     RDKit          3D

  0  0  0  0  0  0  0  0  0  0999 V3000
M  V30 BEGIN CTAB
M  V30 COUNTS 45 49 0 0 0
M  V30 BEGIN ATOM
M  V30 1 O 0.049178 -4.498753 2.101236 0
M  V30 2 C 0.831927 -3.579192 1.676264 0
M  V30 3 N 2.109869 -3.921586 1.751053 0
M  V30 4 C 3.089818 -3.185176 1.391722 0
M  V30 5 S 4.844850 -3.382730 1.377674 0
M  V30 6 C 5.186742 -1.673639 0.644266 0
M  V30 7 Cl 6.727342 -0.848319 0.214687 0
M  V30 8 C 3.880809 -1.119792 0.484750 0
M  V30 9 C 2.823156 -1.895153 0.867421 0
M  V30 10 C 1.486968 -1.483681 0.766593 0
M  V30 11 N 1.123639 -0.213832 0.247567 0
M  V30 12 C 0.764491 1.041246 -0.265421 0 CFG=1
M  V30 13 C 0.220424 2.027441 0.744421 0
M  V30 14 C 0.992292 3.304112 0.709413 0
M  V30 15 C 2.463872 2.959347 0.621530 0
M  V30 16 N 2.779875 2.425333 -0.658577 0
M  V30 17 C 1.730558 1.645384 -1.252647 0
M  V30 18 C 0.488807 -2.322461 1.170527 0
M  V30 19 C -0.946358 -2.121715 1.195078 0
M  V30 20 N -1.853333 -3.022603 1.608939 0
M  V30 21 C -3.091037 -2.577835 1.539351 0
M  V30 22 C -4.228161 -3.293138 1.901404 0
M  V30 23 C -5.412891 -2.577093 1.724953 0
M  V30 24 C -5.442388 -1.272922 1.233401 0
M  V30 25 C -4.259906 -0.640169 0.899084 0
M  V30 26 C -3.066694 -1.298341 1.052761 0
M  V30 27 N -1.758585 -1.119151 0.880446 0
M  V30 28 H 2.410439 -4.839772 2.118114 0
M  V30 29 H 3.904354 -0.129783 0.068374 0
M  V30 30 H 1.980921 0.334208 0.196548 0
M  V30 31 H -0.162884 0.873839 -0.958305 0
M  V30 32 H 0.280967 1.594626 1.778404 0
M  V30 33 H -0.847471 2.273642 0.604627 0
M  V30 34 H 0.798731 3.933178 1.576518 0
M  V30 35 H 0.739296 3.884032 -0.210814 0
M  V30 36 H 2.700614 2.262437 1.432941 0
M  V30 37 H 2.998571 3.945641 0.723373 0
M  V30 38 H 3.728441 2.082470 -0.812606 0
M  V30 39 H 1.194874 2.211032 -2.061629 0
M  V30 40 H 2.210221 0.778646 -1.765082 0
M  V30 41 H -4.212597 -4.300002 2.281451 0
M  V30 42 H -6.359585 -3.059282 1.983276 0
M  V30 43 H -6.371563 -0.744122 1.107496 0
M  V30 44 H -4.187032 0.364540 0.512718 0
M  V30 45 H -1.512728 -0.193920 0.516845 0
M  V30 END ATOM
M  V30 BEGIN BOND
M  V30 1 2 1 2
M  V30 2 1 2 3
M  V30 3 1 3 4
M  V30 4 1 4 5
M  V30 5 1 5 6
M  V30 6 1 6 7
M  V30 7 2 6 8
M  V30 8 1 8 9
M  V30 9 1 9 10
M  V30 10 1 10 11
M  V30 11 1 11 12
M  V30 12 1 12 13
M  V30 13 1 13 14
M  V30 14 1 14 15
M  V30 15 1 15 16
M  V30 16 1 16 17
M  V30 17 2 10 18
M  V30 18 1 18 19
M  V30 19 2 19 20
M  V30 20 1 20 21
M  V30 21 2 21 22
M  V30 22 1 22 23
M  V30 23 2 23 24
M  V30 24 1 24 25
M  V30 25 2 25 26
M  V30 26 1 26 27
M  V30 27 1 18 2
M  V30 28 1 27 19
M  V30 29 2 9 4
M  V30 30 1 17 12
M  V30 31 1 26 21
M  V30 32 1 3 28
M  V30 33 1 8 29
M  V30 34 1 11 30
M  V30 35 1 12 31 CFG=3
M  V30 36 1 13 32
M  V30 37 1 13 33
M  V30 38 1 14 34
M  V30 39 1 14 35
M  V30 40 1 15 36
M  V30 41 1 15 37
M  V30 42 1 16 38
M  V30 43 1 17 39
M  V30 44 1 17 40
M  V30 45 1 22 41
M  V30 46 1 23 42
M  V30 47 1 24 43
M  V30 48 1 25 44
M  V30 49 1 27 45
M  V30 END BOND
M  V30 END CTAB
M  END
>  <Dataset>  (186) 
ChEMBL_Kinases

>  <Ligand_Instance>  (186) 
nan

>  <PDB_ID>  (186) 
nan

>  <Standardized_SMILES>  (186) 
O=c1[nH]c2sc(Cl)cc2c(N[C@H]2CCCNC2)c1-c1nc2ccccc2[nH]1

>  <Name>  (186) 
nan

>  <Pocket>  (186) 
nan

>  <ATP_Site>  (186) 
nan

>  <Peripheral>  (186) 
nan

>  <Num_H_Atoms_ProtBoundConf>  (186) 
nan

>  <Num_Resolved_Atoms>  (186) 
nan

>  <Num_Not_Resolved_Atoms>  (186) 
nan

$$$$
CHEMBL3330228
     RDKit          3D

  0  0  0  0  0  0  0  0  0  0999 V3000
M  V30 BEGIN CTAB
M  V30 COUNTS 42 46 0 0 0
M  V30 BEGIN ATOM
M  V30 1 O -0.028682 -1.908440 -3.155962 0
M  V30 2 C 0.766956 -1.675131 -2.219985 0
M  V30 3 N 1.970424 -1.916679 -2.702676 0
M  V30 4 C 3.069282 -1.756694 -1.928245 0
M  V30 5 S 4.843366 -1.956707 -2.130982 0
M  V30 6 C 5.233469 -1.429486 -0.349456 0
M  V30 7 Cl 6.965642 -1.447076 0.021650 0
M  V30 8 C 3.965840 -1.162770 0.190764 0
M  V30 9 C 2.869144 -1.321600 -0.586957 0
M  V30 10 C 1.609158 -1.071966 -0.091763 0
M  V30 11 N 1.371161 -0.637518 1.236862 0
M  V30 12 C 2.047397 -0.301029 2.415314 0
M  V30 13 C 1.135426 -0.010179 3.632131 0
M  V30 14 C 2.148273 0.688782 4.521842 0
M  V30 15 N 3.153452 1.265109 3.653694 0
M  V30 16 C 2.624985 1.119845 2.308231 0
M  V30 17 C 0.545137 -1.256026 -0.934814 0
M  V30 18 C -0.847952 -1.033896 -0.565920 0
M  V30 19 N -1.448405 -0.634301 0.558179 0
M  V30 20 C -2.756916 -0.549697 0.512197 0
M  V30 21 C -3.665529 -0.170704 1.496853 0
M  V30 22 C -5.004892 -0.184035 1.132587 0
M  V30 23 C -5.377728 -0.557438 -0.142316 0
M  V30 24 C -4.401442 -0.925400 -1.075733 0
M  V30 25 C -3.053006 -0.929978 -0.766109 0
M  V30 26 N -1.901957 -1.210225 -1.379014 0
M  V30 27 H 2.308194 -2.233119 -3.631551 0
M  V30 28 H 4.317971 -0.886177 1.153500 0
M  V30 29 H 0.400834 -0.487006 1.535741 0
M  V30 30 H 2.764477 -1.027863 2.832427 0
M  V30 31 H 0.285337 0.624816 3.362106 0
M  V30 32 H 0.844711 -1.005707 4.023286 0
M  V30 33 H 2.614879 -0.020934 5.233785 0
M  V30 34 H 1.679749 1.565137 5.047113 0
M  V30 35 H 4.048642 0.695817 3.648387 0
M  V30 36 H 1.710618 1.773988 2.214570 0
M  V30 37 H 3.331259 1.268289 1.514547 0
M  V30 38 H -3.376826 0.118090 2.483046 0
M  V30 39 H -5.768567 0.098829 1.846873 0
M  V30 40 H -6.418413 -0.570939 -0.435229 0
M  V30 41 H -4.696683 -1.220771 -2.084423 0
M  V30 42 H -2.013893 -1.511757 -2.362835 0
M  V30 END ATOM
M  V30 BEGIN BOND
M  V30 1 2 1 2
M  V30 2 1 2 3
M  V30 3 1 3 4
M  V30 4 1 4 5
M  V30 5 1 5 6
M  V30 6 1 6 7
M  V30 7 2 6 8
M  V30 8 1 8 9
M  V30 9 1 9 10
M  V30 10 1 10 11
M  V30 11 1 11 12
M  V30 12 1 12 13
M  V30 13 1 13 14
M  V30 14 1 14 15
M  V30 15 1 15 16
M  V30 16 2 10 17
M  V30 17 1 17 18
M  V30 18 2 18 19
M  V30 19 1 19 20
M  V30 20 2 20 21
M  V30 21 1 21 22
M  V30 22 2 22 23
M  V30 23 1 23 24
M  V30 24 2 24 25
M  V30 25 1 25 26
M  V30 26 1 17 2
M  V30 27 1 26 18
M  V30 28 2 9 4
M  V30 29 1 16 12
M  V30 30 1 25 20
M  V30 31 1 3 27
M  V30 32 1 8 28
M  V30 33 1 11 29
M  V30 34 1 12 30
M  V30 35 1 13 31
M  V30 36 1 13 32
M  V30 37 1 14 33
M  V30 38 1 14 34
M  V30 39 1 15 35
M  V30 40 1 16 36
M  V30 41 1 16 37
M  V30 42 1 21 38
M  V30 43 1 22 39
M  V30 44 1 23 40
M  V30 45 1 24 41
M  V30 46 1 26 42
M  V30 END BOND
M  V30 END CTAB
M  END
>  <Dataset>  (187) 
ChEMBL_Kinases

>  <Ligand_Instance>  (187) 
nan

>  <PDB_ID>  (187) 
nan

>  <Standardized_SMILES>  (187) 
O=c1[nH]c2sc(Cl)cc2c(NC2CCNC2)c1-c1nc2ccccc2[nH]1

>  <Name>  (187) 
nan

>  <Pocket>  (187) 
nan

>  <ATP_Site>  (187) 
nan

>  <Peripheral>  (187) 
nan

>  <Num_H_Atoms_ProtBoundConf>  (187) 
nan

>  <Num_Resolved_Atoms>  (187) 
nan

>  <Num_Not_Resolved_Atoms>  (187) 
nan

$$$$
CHEMBL3330229
     RDKit          3D

  0  0  0  0  0  0  0  0  0  0999 V3000
M  V30 BEGIN CTAB
M  V30 COUNTS 49 54 0 0 0
M  V30 BEGIN ATOM
M  V30 1 O 0.572344 -5.111368 0.627987 0
M  V30 2 C 1.140603 -4.007036 0.347653 0
M  V30 3 N 2.418410 -4.134615 0.054974 0
M  V30 4 C 3.241671 -3.149471 -0.271851 0
M  V30 5 S 4.901237 -3.107452 -0.680870 0
M  V30 6 C 4.877099 -1.227837 -0.918608 0
M  V30 7 Cl 6.139409 0.128939 -1.401227 0
M  V30 8 C 3.562356 -0.879680 -0.644012 0
M  V30 9 C 2.709539 -1.872330 -0.307964 0
M  V30 10 C 1.342116 -1.662755 -0.003844 0
M  V30 11 N 0.729600 -0.377240 -0.015558 0
M  V30 12 C 0.130191 0.880100 -0.026936 0
M  V30 13 C 0.910923 2.034115 -0.671203 0
M  V30 14 N 1.517739 2.906690 0.288691 0
M  V30 15 C 0.468063 3.750081 0.866941 0
M  V30 16 C -0.724894 2.826303 1.140369 0
M  V30 17 C -0.212465 1.416486 1.356863 0
M  V30 18 C 1.023345 1.543648 2.219465 0
M  V30 19 C 2.109807 2.217173 1.424112 0
M  V30 20 C 0.556964 -2.731617 0.323824 0
M  V30 21 C -0.851295 -2.779177 0.653279 0
M  V30 22 N -1.537109 -3.911811 0.970587 0
M  V30 23 C -2.808213 -3.703600 1.224732 0
M  V30 24 C -3.745569 -4.674231 1.574523 0
M  V30 25 C -5.016277 -4.163137 1.784593 0
M  V30 26 C -5.321503 -2.812226 1.657330 0
M  V30 27 C -4.324986 -1.922393 1.305944 0
M  V30 28 C -3.050753 -2.380744 1.087526 0
M  V30 29 N -1.857920 -1.917937 0.753588 0
M  V30 30 H 2.883351 -5.060812 0.062300 0
M  V30 31 H 3.367232 0.185140 -0.734531 0
M  V30 32 H 1.478777 0.262949 -0.191990 0
M  V30 33 H -0.873985 0.804759 -0.559066 0
M  V30 34 H 0.147515 2.665729 -1.211954 0
M  V30 35 H 1.604139 1.635850 -1.418677 0
M  V30 36 H 0.233537 4.556747 0.175217 0
M  V30 37 H 0.877225 4.150020 1.815037 0
M  V30 38 H -1.448607 2.926786 0.333487 0
M  V30 39 H -1.229139 3.161940 2.088091 0
M  V30 40 H -0.967784 0.839994 1.876392 0
M  V30 41 H 0.718874 2.107862 3.127079 0
M  V30 42 H 1.419341 0.575405 2.572348 0
M  V30 43 H 2.959832 1.584402 1.167159 0
M  V30 44 H 2.503034 3.036375 2.081223 0
M  V30 45 H -3.542008 -5.712947 1.679040 0
M  V30 46 H -5.849679 -4.810237 2.063865 0
M  V30 47 H -6.315533 -2.436191 1.825076 0
M  V30 48 H -4.471198 -0.850220 1.183327 0
M  V30 49 H -1.802454 -0.907881 0.591266 0
M  V30 END ATOM
M  V30 BEGIN BOND
M  V30 1 2 1 2
M  V30 2 1 2 3
M  V30 3 1 3 4
M  V30 4 1 4 5
M  V30 5 1 5 6
M  V30 6 1 6 7
M  V30 7 2 6 8
M  V30 8 1 8 9
M  V30 9 1 9 10
M  V30 10 1 10 11
M  V30 11 1 11 12
M  V30 12 1 12 13
M  V30 13 1 13 14
M  V30 14 1 14 15
M  V30 15 1 15 16
M  V30 16 1 16 17
M  V30 17 1 17 18
M  V30 18 1 18 19
M  V30 19 2 10 20
M  V30 20 1 20 21
M  V30 21 2 21 22
M  V30 22 1 22 23
M  V30 23 2 23 24
M  V30 24 1 24 25
M  V30 25 2 25 26
M  V30 26 1 26 27
M  V30 27 2 27 28
M  V30 28 1 28 29
M  V30 29 1 20 2
M  V30 30 1 29 21
M  V30 31 2 9 4
M  V30 32 1 17 12
M  V30 33 1 28 23
M  V30 34 1 19 14
M  V30 35 1 3 30
M  V30 36 1 8 31
M  V30 37 1 11 32
M  V30 38 1 12 33
M  V30 39 1 13 34
M  V30 40 1 13 35
M  V30 41 1 15 36
M  V30 42 1 15 37
M  V30 43 1 16 38
M  V30 44 1 16 39
M  V30 45 1 17 40
M  V30 46 1 18 41
M  V30 47 1 18 42
M  V30 48 1 19 43
M  V30 49 1 19 44
M  V30 50 1 24 45
M  V30 51 1 25 46
M  V30 52 1 26 47
M  V30 53 1 27 48
M  V30 54 1 29 49
M  V30 END BOND
M  V30 END CTAB
M  END
>  <Dataset>  (188) 
ChEMBL_Kinases

>  <Ligand_Instance>  (188) 
nan

>  <PDB_ID>  (188) 
nan

>  <Standardized_SMILES>  (188) 
O=c1[nH]c2sc(Cl)cc2c(NC2CN3CCC2CC3)c1-c1nc2ccccc2[nH]1

>  <Name>  (188) 
nan

>  <Pocket>  (188) 
nan

>  <ATP_Site>  (188) 
nan

>  <Peripheral>  (188) 
nan

>  <Num_H_Atoms_ProtBoundConf>  (188) 
nan

>  <Num_Resolved_Atoms>  (188) 
nan

>  <Num_Not_Resolved_Atoms>  (188) 
nan

$$$$
CHEMBL3330231
     RDKit          3D

  0  0  0  0  0  0  0  0  0  0999 V3000
M  V30 BEGIN CTAB
M  V30 COUNTS 42 46 0 0 0
M  V30 BEGIN ATOM
M  V30 1 O 0.869187 -4.581804 1.535325 0
M  V30 2 C 1.436132 -3.501560 1.258281 0
M  V30 3 N 2.718601 -3.794394 1.125172 0
M  V30 4 C 3.609173 -2.833543 0.822723 0
M  V30 5 S 5.396740 -2.735733 0.549055 0
M  V30 6 C 5.380166 -0.866285 0.215452 0
M  V30 7 Br 7.127157 -0.203035 -0.153753 0
M  V30 8 C 4.030517 -0.540373 0.350106 0
M  V30 9 C 3.119666 -1.495879 0.652345 0
M  V30 10 C 1.783803 -1.205588 0.793730 0
M  V30 11 N 1.263830 0.101350 0.633040 0
M  V30 12 C 1.665610 1.405217 0.321943 0
M  V30 13 C 0.555361 2.478279 0.445423 0
M  V30 14 C 1.254935 3.598430 -0.334971 0
M  V30 15 N 2.131467 2.951805 -1.288326 0
M  V30 16 C 1.846890 1.532645 -1.188161 0
M  V30 17 C 0.936556 -2.236304 1.102478 0
M  V30 18 C -0.502333 -2.093863 1.283650 0
M  V30 19 N -1.331978 -1.048837 1.213271 0
M  V30 20 C -2.601614 -1.314614 1.444455 0
M  V30 21 C -3.706464 -0.469713 1.450095 0
M  V30 22 C -4.931226 -1.045994 1.731250 0
M  V30 23 C -5.013392 -2.395918 1.988379 0
M  V30 24 C -3.856143 -3.181468 1.964406 0
M  V30 25 C -2.607261 -2.662011 1.690102 0
M  V30 26 N -1.349305 -3.090392 1.586734 0
M  V30 27 H 3.259381 -4.677282 1.206238 0
M  V30 28 H 4.161289 0.492449 0.142980 0
M  V30 29 H 0.256523 0.246136 0.768483 0
M  V30 30 H 2.484254 1.854900 0.908823 0
M  V30 31 H -0.369103 2.174077 -0.044031 0
M  V30 32 H 0.479419 2.721738 1.508133 0
M  V30 33 H 1.891004 4.180262 0.361957 0
M  V30 34 H 0.525620 4.206973 -0.903512 0
M  V30 35 H 3.152121 3.056217 -1.006272 0
M  V30 36 H 0.809358 1.395923 -1.608771 0
M  V30 37 H 2.577820 0.883056 -1.631039 0
M  V30 38 H -3.611167 0.568685 1.247681 0
M  V30 39 H -5.837723 -0.460341 1.755420 0
M  V30 40 H -5.976326 -2.849293 2.209474 0
M  V30 41 H -3.920579 -4.257775 2.169266 0
M  V30 42 H -1.243074 -4.098687 1.754677 0
M  V30 END ATOM
M  V30 BEGIN BOND
M  V30 1 2 1 2
M  V30 2 1 2 3
M  V30 3 1 3 4
M  V30 4 1 4 5
M  V30 5 1 5 6
M  V30 6 1 6 7
M  V30 7 2 6 8
M  V30 8 1 8 9
M  V30 9 1 9 10
M  V30 10 1 10 11
M  V30 11 1 11 12
M  V30 12 1 12 13
M  V30 13 1 13 14
M  V30 14 1 14 15
M  V30 15 1 15 16
M  V30 16 2 10 17
M  V30 17 1 17 18
M  V30 18 2 18 19
M  V30 19 1 19 20
M  V30 20 2 20 21
M  V30 21 1 21 22
M  V30 22 2 22 23
M  V30 23 1 23 24
M  V30 24 2 24 25
M  V30 25 1 25 26
M  V30 26 1 17 2
M  V30 27 1 26 18
M  V30 28 2 9 4
M  V30 29 1 16 12
M  V30 30 1 25 20
M  V30 31 1 3 27
M  V30 32 1 8 28
M  V30 33 1 11 29
M  V30 34 1 12 30
M  V30 35 1 13 31
M  V30 36 1 13 32
M  V30 37 1 14 33
M  V30 38 1 14 34
M  V30 39 1 15 35
M  V30 40 1 16 36
M  V30 41 1 16 37
M  V30 42 1 21 38
M  V30 43 1 22 39
M  V30 44 1 23 40
M  V30 45 1 24 41
M  V30 46 1 26 42
M  V30 END BOND
M  V30 END CTAB
M  END
>  <Dataset>  (189) 
ChEMBL_Kinases

>  <Ligand_Instance>  (189) 
nan

>  <PDB_ID>  (189) 
nan

>  <Standardized_SMILES>  (189) 
O=c1[nH]c2sc(Br)cc2c(NC2CCNC2)c1-c1nc2ccccc2[nH]1

>  <Name>  (189) 
nan

>  <Pocket>  (189) 
nan

>  <ATP_Site>  (189) 
nan

>  <Peripheral>  (189) 
nan

>  <Num_H_Atoms_ProtBoundConf>  (189) 
nan

>  <Num_Resolved_Atoms>  (189) 
nan

>  <Num_Not_Resolved_Atoms>  (189) 
nan

$$$$
CHEMBL3330245
     RDKit          3D

  0  0  0  0  0  0  0  0  0  0999 V3000
M  V30 BEGIN CTAB
M  V30 COUNTS 40 43 0 0 0
M  V30 BEGIN ATOM
M  V30 1 N 1.799401 -5.237367 2.648152 0
M  V30 2 S 3.103195 -4.646592 1.705210 0
M  V30 3 O 4.358191 -5.473446 1.915668 0
M  V30 4 O 2.709855 -4.682398 0.256170 0
M  V30 5 C 3.463936 -2.957683 2.090287 0
M  V30 6 C 4.374722 -2.664023 3.084755 0
M  V30 7 C 4.647526 -1.321661 3.375742 0
M  V30 8 C 3.989841 -0.350523 2.650964 0
M  V30 9 C 3.074863 -0.603245 1.651675 0
M  V30 10 C 2.391431 0.441565 0.894503 0
M  V30 11 N 2.883028 1.564038 0.328127 0
M  V30 12 N 1.930220 2.256412 -0.273486 0
M  V30 13 C 0.744456 1.631765 -0.141311 0
M  V30 14 C -0.562674 1.873671 -0.546186 0
M  V30 15 C -1.592742 1.007260 -0.238551 0
M  V30 16 C -2.972652 1.247524 -0.655581 0
M  V30 17 C -3.351115 2.571564 -0.740505 0
M  V30 18 C -4.660968 2.861607 -1.134387 0
M  V30 19 C -5.514151 1.803873 -1.420037 0
M  V30 20 C -5.112415 0.486639 -1.327858 0
M  V30 21 C -3.818770 0.169567 -0.939568 0
M  V30 22 C -1.308885 -0.145074 0.501242 0
M  V30 23 C 0.004890 -0.361723 0.892462 0
M  V30 24 C 1.044625 0.495361 0.592315 0
M  V30 25 C 2.831524 -1.950028 1.392968 0
M  V30 26 H 2.216745 -5.906382 3.363184 0
M  V30 27 H 1.143958 -5.838087 2.092467 0
M  V30 28 H 4.847891 -3.463559 3.606659 0
M  V30 29 H 5.361122 -1.090832 4.154854 0
M  V30 30 H 4.190096 0.695506 2.864336 0
M  V30 31 H 2.032360 3.168095 -0.793191 0
M  V30 32 H -0.772920 2.767817 -1.118441 0
M  V30 33 H -2.686128 3.375946 -0.518205 0
M  V30 34 H -4.953391 3.901420 -1.199326 0
M  V30 35 H -6.522318 2.057425 -1.722078 0
M  V30 36 H -5.790187 -0.344847 -1.554299 0
M  V30 37 H -3.446850 -0.844169 -0.849424 0
M  V30 38 H -2.123268 -0.805491 0.729632 0
M  V30 39 H 0.116200 -1.276837 1.458131 0
M  V30 40 H 2.132841 -2.261530 0.628758 0
M  V30 END ATOM
M  V30 BEGIN BOND
M  V30 1 1 1 2
M  V30 2 2 2 3
M  V30 3 2 2 4
M  V30 4 1 2 5
M  V30 5 2 5 6
M  V30 6 1 6 7
M  V30 7 2 7 8
M  V30 8 1 8 9
M  V30 9 1 9 10
M  V30 10 2 10 11
M  V30 11 1 11 12
M  V30 12 1 12 13
M  V30 13 2 13 14
M  V30 14 1 14 15
M  V30 15 1 15 16
M  V30 16 2 16 17
M  V30 17 1 17 18
M  V30 18 2 18 19
M  V30 19 1 19 20
M  V30 20 2 20 21
M  V30 21 2 15 22
M  V30 22 1 22 23
M  V30 23 2 23 24
M  V30 24 2 9 25
M  V30 25 1 25 5
M  V30 26 1 24 10
M  V30 27 1 24 13
M  V30 28 1 21 16
M  V30 29 1 1 26
M  V30 30 1 1 27
M  V30 31 1 6 28
M  V30 32 1 7 29
M  V30 33 1 8 30
M  V30 34 1 12 31
M  V30 35 1 14 32
M  V30 36 1 17 33
M  V30 37 1 18 34
M  V30 38 1 19 35
M  V30 39 1 20 36
M  V30 40 1 21 37
M  V30 41 1 22 38
M  V30 42 1 23 39
M  V30 43 1 25 40
M  V30 END BOND
M  V30 END CTAB
M  END
>  <Dataset>  (190) 
ChEMBL_Kinases

>  <Ligand_Instance>  (190) 
nan

>  <PDB_ID>  (190) 
nan

>  <Standardized_SMILES>  (190) 
NS(=O)(=O)c1cccc(-c2n[nH]c3cc(-c4ccccc4)ccc23)c1

>  <Name>  (190) 
nan

>  <Pocket>  (190) 
nan

>  <ATP_Site>  (190) 
nan

>  <Peripheral>  (190) 
nan

>  <Num_H_Atoms_ProtBoundConf>  (190) 
nan

>  <Num_Resolved_Atoms>  (190) 
nan

>  <Num_Not_Resolved_Atoms>  (190) 
nan

$$$$
CHEMBL3330235
     RDKit          3D

  0  0  0  0  0  0  0  0  0  0999 V3000
M  V30 BEGIN CTAB
M  V30 COUNTS 45 49 0 0 0
M  V30 BEGIN ATOM
M  V30 1 C -1.414092 -5.985934 -0.822603 0
M  V30 2 C -1.388703 -4.724665 -0.143062 0
M  V30 3 C -0.800684 -3.447863 -0.147790 0
M  V30 4 C -1.155754 -2.534650 0.803143 0
M  V30 5 C -0.614635 -1.267239 0.846605 0
M  V30 6 N 0.331251 -0.819461 -0.094344 0
M  V30 7 C 1.173246 -1.165649 -1.177562 0
M  V30 8 C 1.899612 0.002417 -1.839762 0
M  V30 9 C 2.962036 -0.722200 -2.599335 0
M  V30 10 N 3.141671 -2.018402 -1.969214 0
M  V30 11 C 2.367681 -2.003829 -0.763636 0
M  V30 12 C -1.009050 -0.399283 1.820537 0
M  V30 13 C -0.506760 0.908312 2.170870 0
M  V30 14 N -1.015708 1.684456 3.143960 0
M  V30 15 C -0.360775 2.817681 3.334822 0
M  V30 16 C -0.690978 3.785280 4.279870 0
M  V30 17 C 0.184679 4.878411 4.249838 0
M  V30 18 C 1.246712 4.976048 3.382286 0
M  V30 19 C 1.470208 3.944416 2.487710 0
M  V30 20 C 0.662354 2.831875 2.445046 0
M  V30 21 N 0.513171 1.689139 1.803952 0
M  V30 22 C -1.967260 -0.871878 2.727665 0
M  V30 23 O -2.451268 -0.200366 3.693335 0
M  V30 24 N -2.469644 -2.100674 2.656179 0
M  V30 25 C -2.095654 -2.916692 1.743221 0
M  V30 26 S -2.542279 -4.604620 1.342810 0
M  V30 27 H -2.325193 -6.157384 -1.460134 0
M  V30 28 H -1.384916 -6.828962 -0.102862 0
M  V30 29 H -0.495737 -6.087292 -1.440563 0
M  V30 30 H -0.165561 -3.555137 -0.998823 0
M  V30 31 H 0.513203 0.178253 -0.102199 0
M  V30 32 H 0.680457 -1.679221 -2.015699 0
M  V30 33 H 2.253160 0.748264 -1.128613 0
M  V30 34 H 1.152747 0.480206 -2.501889 0
M  V30 35 H 3.915236 -0.185260 -2.662124 0
M  V30 36 H 2.563586 -0.922583 -3.627106 0
M  V30 37 H 2.880696 -2.821054 -2.594758 0
M  V30 38 H 2.942722 -1.525518 0.056770 0
M  V30 39 H 2.032454 -3.009310 -0.522469 0
M  V30 40 H -1.507984 3.719164 4.953333 0
M  V30 41 H 0.038037 5.709585 4.941223 0
M  V30 42 H 1.910266 5.819851 3.369965 0
M  V30 43 H 2.298069 3.943367 1.759308 0
M  V30 44 H 1.230733 1.526523 1.105679 0
M  V30 45 H -3.172523 -2.461127 3.316565 0
M  V30 END ATOM
M  V30 BEGIN BOND
M  V30 1 1 1 2
M  V30 2 2 2 3
M  V30 3 1 3 4
M  V30 4 1 4 5
M  V30 5 1 5 6
M  V30 6 1 6 7
M  V30 7 1 7 8
M  V30 8 1 8 9
M  V30 9 1 9 10
M  V30 10 1 10 11
M  V30 11 2 5 12
M  V30 12 1 12 13
M  V30 13 2 13 14
M  V30 14 1 14 15
M  V30 15 2 15 16
M  V30 16 1 16 17
M  V30 17 2 17 18
M  V30 18 1 18 19
M  V30 19 2 19 20
M  V30 20 1 20 21
M  V30 21 1 12 22
M  V30 22 2 22 23
M  V30 23 1 22 24
M  V30 24 1 24 25
M  V30 25 1 25 26
M  V30 26 1 26 2
M  V30 27 2 25 4
M  V30 28 1 11 7
M  V30 29 1 21 13
M  V30 30 1 20 15
M  V30 31 1 1 27
M  V30 32 1 1 28
M  V30 33 1 1 29
M  V30 34 1 3 30
M  V30 35 1 6 31
M  V30 36 1 7 32
M  V30 37 1 8 33
M  V30 38 1 8 34
M  V30 39 1 9 35
M  V30 40 1 9 36
M  V30 41 1 10 37
M  V30 42 1 11 38
M  V30 43 1 11 39
M  V30 44 1 16 40
M  V30 45 1 17 41
M  V30 46 1 18 42
M  V30 47 1 19 43
M  V30 48 1 21 44
M  V30 49 1 24 45
M  V30 END BOND
M  V30 END CTAB
M  END
>  <Dataset>  (191) 
ChEMBL_Kinases

>  <Ligand_Instance>  (191) 
nan

>  <PDB_ID>  (191) 
nan

>  <Standardized_SMILES>  (191) 
Cc1cc2c(NC3CCNC3)c(-c3nc4ccccc4[nH]3)c(=O)[nH]c2s1

>  <Name>  (191) 
nan

>  <Pocket>  (191) 
nan

>  <ATP_Site>  (191) 
nan

>  <Peripheral>  (191) 
nan

>  <Num_H_Atoms_ProtBoundConf>  (191) 
nan

>  <Num_Resolved_Atoms>  (191) 
nan

>  <Num_Not_Resolved_Atoms>  (191) 
nan

$$$$
CHEMBL3330237
     RDKit          3D

  0  0  0  0  0  0  0  0  0  0999 V3000
M  V30 BEGIN CTAB
M  V30 COUNTS 42 46 0 0 0
M  V30 BEGIN ATOM
M  V30 1 O 0.547661 -4.166846 2.098608 0
M  V30 2 C 1.216044 -3.317585 1.405267 0
M  V30 3 N 2.422012 -3.754522 1.104629 0
M  V30 4 C 3.241689 -2.975127 0.380542 0
M  V30 5 C 4.511975 -3.283879 -0.018039 0
M  V30 6 C 5.232221 -2.340727 -0.787801 0
M  V30 7 S 3.983795 -0.921911 -0.938306 0
M  V30 8 C 2.730407 -1.721854 -0.007395 0
M  V30 9 C 1.431483 -1.299765 0.340228 0
M  V30 10 N 1.066687 -0.025633 -0.102303 0
M  V30 11 C 1.768963 0.997910 -0.818849 0
M  V30 12 C 0.797650 2.112101 -1.186198 0
M  V30 13 C 1.461327 3.402326 -0.831391 0
M  V30 14 N 2.163295 3.015342 0.399947 0
M  V30 15 C 2.770242 1.725612 0.058777 0
M  V30 16 C 0.619102 -2.121781 1.081366 0
M  V30 17 C -0.725643 -1.748416 1.474040 0
M  V30 18 N -1.480411 -0.670971 1.277249 0
M  V30 19 C -2.686816 -0.731143 1.819433 0
M  V30 20 C -3.700269 0.213640 1.796464 0
M  V30 21 C -4.871040 -0.109859 2.450058 0
M  V30 22 C -4.989499 -1.322505 3.083347 0
M  V30 23 C -3.939435 -2.220819 3.068404 0
M  V30 24 C -2.730767 -1.960441 2.429029 0
M  V30 25 N -1.537885 -2.531728 2.196127 0
M  V30 26 H 2.739461 -4.718148 1.435313 0
M  V30 27 H 5.067593 -4.186918 0.181137 0
M  V30 28 H 6.260673 -2.419222 -1.193985 0
M  V30 29 H 0.101434 0.265009 0.116324 0
M  V30 30 H 2.193622 0.651808 -1.764562 0
M  V30 31 H -0.127878 2.040966 -0.572991 0
M  V30 32 H 0.558322 2.117084 -2.275493 0
M  V30 33 H 2.149991 3.729354 -1.623948 0
M  V30 34 H 0.744896 4.192488 -0.526207 0
M  V30 35 H 2.905234 3.738355 0.533849 0
M  V30 36 H 2.991951 1.134899 0.947153 0
M  V30 37 H 3.640263 1.994229 -0.573621 0
M  V30 38 H -3.568033 1.151702 1.289298 0
M  V30 39 H -5.711631 0.569799 2.480984 0
M  V30 40 H -5.890951 -1.632145 3.615699 0
M  V30 41 H -4.015269 -3.192032 3.567509 0
M  V30 42 H -1.477577 -3.471190 2.622022 0
M  V30 END ATOM
M  V30 BEGIN BOND
M  V30 1 2 1 2
M  V30 2 1 2 3
M  V30 3 1 3 4
M  V30 4 1 4 5
M  V30 5 2 5 6
M  V30 6 1 6 7
M  V30 7 1 7 8
M  V30 8 1 8 9
M  V30 9 1 9 10
M  V30 10 1 10 11
M  V30 11 1 11 12
M  V30 12 1 12 13
M  V30 13 1 13 14
M  V30 14 1 14 15
M  V30 15 2 9 16
M  V30 16 1 16 17
M  V30 17 2 17 18
M  V30 18 1 18 19
M  V30 19 2 19 20
M  V30 20 1 20 21
M  V30 21 2 21 22
M  V30 22 1 22 23
M  V30 23 2 23 24
M  V30 24 1 24 25
M  V30 25 1 16 2
M  V30 26 1 25 17
M  V30 27 2 8 4
M  V30 28 1 15 11
M  V30 29 1 24 19
M  V30 30 1 3 26
M  V30 31 1 5 27
M  V30 32 1 6 28
M  V30 33 1 10 29
M  V30 34 1 11 30
M  V30 35 1 12 31
M  V30 36 1 12 32
M  V30 37 1 13 33
M  V30 38 1 13 34
M  V30 39 1 14 35
M  V30 40 1 15 36
M  V30 41 1 15 37
M  V30 42 1 20 38
M  V30 43 1 21 39
M  V30 44 1 22 40
M  V30 45 1 23 41
M  V30 46 1 25 42
M  V30 END BOND
M  V30 END CTAB
M  END
>  <Dataset>  (192) 
ChEMBL_Kinases

>  <Ligand_Instance>  (192) 
nan

>  <PDB_ID>  (192) 
nan

>  <Standardized_SMILES>  (192) 
O=c1[nH]c2ccsc2c(NC2CCNC2)c1-c1nc2ccccc2[nH]1

>  <Name>  (192) 
nan

>  <Pocket>  (192) 
nan

>  <ATP_Site>  (192) 
nan

>  <Peripheral>  (192) 
nan

>  <Num_H_Atoms_ProtBoundConf>  (192) 
nan

>  <Num_Resolved_Atoms>  (192) 
nan

>  <Num_Not_Resolved_Atoms>  (192) 
nan

$$$$
CHEMBL3330238
     RDKit          3D

  0  0  0  0  0  0  0  0  0  0999 V3000
M  V30 BEGIN CTAB
M  V30 COUNTS 30 32 0 0 0
M  V30 BEGIN ATOM
M  V30 1 N -0.183499 -5.221657 2.495755 0
M  V30 2 S 0.704715 -5.062904 0.995990 0
M  V30 3 O 1.950187 -5.891957 1.080276 0
M  V30 4 O -0.162574 -5.439041 -0.164028 0
M  V30 5 C 1.171745 -3.370980 0.956384 0
M  V30 6 C 2.393678 -3.005940 1.531334 0
M  V30 7 C 2.823655 -1.691661 1.535545 0
M  V30 8 C 1.997500 -0.754278 0.948991 0
M  V30 9 C 0.769214 -1.061103 0.361009 0
M  V30 10 C -0.064471 -0.023146 -0.246278 0
M  V30 11 N -0.693737 -0.095756 -1.434099 0
M  V30 12 N -1.360532 1.027044 -1.670475 0
M  V30 13 C -1.206934 1.899268 -0.652416 0
M  V30 14 C -1.678223 3.178678 -0.405550 0
M  V30 15 C -1.285570 3.753655 0.786925 0
M  V30 16 C -0.474986 3.159229 1.730804 0
M  V30 17 C -0.033171 1.873074 1.425458 0
M  V30 18 C -0.384985 1.226692 0.245207 0
M  V30 19 C 0.399760 -2.392379 0.391134 0
M  V30 20 H -1.015345 -4.578718 2.347368 0
M  V30 21 H 0.406331 -4.736142 3.211165 0
M  V30 22 H 3.030583 -3.754901 1.987918 0
M  V30 23 H 3.766160 -1.413147 1.979529 0
M  V30 24 H 2.362202 0.264210 0.968642 0
M  V30 25 H -1.955008 1.298196 -2.503173 0
M  V30 26 H -2.313869 3.686851 -1.109898 0
M  V30 27 H -1.625407 4.762541 1.038464 0
M  V30 28 H -0.199334 3.657249 2.648361 0
M  V30 29 H 0.600074 1.389738 2.146701 0
M  V30 30 H -0.535285 -2.699856 -0.044139 0
M  V30 END ATOM
M  V30 BEGIN BOND
M  V30 1 1 1 2
M  V30 2 2 2 3
M  V30 3 2 2 4
M  V30 4 1 2 5
M  V30 5 2 5 6
M  V30 6 1 6 7
M  V30 7 2 7 8
M  V30 8 1 8 9
M  V30 9 1 9 10
M  V30 10 2 10 11
M  V30 11 1 11 12
M  V30 12 1 12 13
M  V30 13 2 13 14
M  V30 14 1 14 15
M  V30 15 2 15 16
M  V30 16 1 16 17
M  V30 17 2 17 18
M  V30 18 2 9 19
M  V30 19 1 19 5
M  V30 20 1 18 10
M  V30 21 1 18 13
M  V30 22 1 1 20
M  V30 23 1 1 21
M  V30 24 1 6 22
M  V30 25 1 7 23
M  V30 26 1 8 24
M  V30 27 1 12 25
M  V30 28 1 14 26
M  V30 29 1 15 27
M  V30 30 1 16 28
M  V30 31 1 17 29
M  V30 32 1 19 30
M  V30 END BOND
M  V30 END CTAB
M  END
>  <Dataset>  (193) 
ChEMBL_Kinases

>  <Ligand_Instance>  (193) 
nan

>  <PDB_ID>  (193) 
nan

>  <Standardized_SMILES>  (193) 
NS(=O)(=O)c1cccc(-c2n[nH]c3ccccc23)c1

>  <Name>  (193) 
nan

>  <Pocket>  (193) 
nan

>  <ATP_Site>  (193) 
nan

>  <Peripheral>  (193) 
nan

>  <Num_H_Atoms_ProtBoundConf>  (193) 
nan

>  <Num_Resolved_Atoms>  (193) 
nan

>  <Num_Not_Resolved_Atoms>  (193) 
nan

$$$$
CHEMBL3330239
     RDKit          3D

  0  0  0  0  0  0  0  0  0  0999 V3000
M  V30 BEGIN CTAB
M  V30 COUNTS 30 32 0 0 0
M  V30 BEGIN ATOM
M  V30 1 N -0.253381 -3.072297 4.691047 0
M  V30 2 S -0.813832 -3.672153 3.193678 0
M  V30 3 O -2.235775 -3.214491 2.941263 0
M  V30 4 O -0.858982 -5.172299 3.160226 0
M  V30 5 C 0.181914 -3.119683 1.877504 0
M  V30 6 C 1.281646 -3.814989 1.436535 0
M  V30 7 C 2.088176 -3.403222 0.398110 0
M  V30 8 C 1.693435 -2.201820 -0.181137 0
M  V30 9 C 0.591034 -1.419263 0.195419 0
M  V30 10 C 0.355077 -0.212762 -0.577210 0
M  V30 11 N 0.282377 -0.372338 -1.930116 0
M  V30 12 N 0.071673 0.806230 -2.521639 0
M  V30 13 C -0.002013 1.779983 -1.602594 0
M  V30 14 C -0.183647 3.144284 -1.516586 0
M  V30 15 C -0.182328 3.804944 -0.294605 0
M  V30 16 C 0.003786 3.112656 0.897863 0
M  V30 17 C 0.185581 1.752827 0.826629 0
M  V30 18 Cl 0.448788 0.951882 2.349443 0
M  V30 19 C 0.176009 1.139948 -0.394862 0
M  V30 20 C -0.123056 -1.949705 1.241812 0
M  V30 21 H 0.280701 -3.742217 5.265701 0
M  V30 22 H -0.897017 -2.445256 5.181438 0
M  V30 23 H 1.527592 -4.741014 1.935668 0
M  V30 24 H 2.946666 -3.920232 0.033286 0
M  V30 25 H 2.326529 -1.856169 -1.013677 0
M  V30 26 H -0.029929 1.008290 -3.541103 0
M  V30 27 H -0.327254 3.661019 -2.473131 0
M  V30 28 H -0.335369 4.873392 -0.364968 0
M  V30 29 H -0.006411 3.690071 1.807952 0
M  V30 30 H -0.989117 -1.412758 1.560957 0
M  V30 END ATOM
M  V30 BEGIN BOND
M  V30 1 1 1 2
M  V30 2 2 2 3
M  V30 3 2 2 4
M  V30 4 1 2 5
M  V30 5 2 5 6
M  V30 6 1 6 7
M  V30 7 2 7 8
M  V30 8 1 8 9
M  V30 9 1 9 10
M  V30 10 2 10 11
M  V30 11 1 11 12
M  V30 12 1 12 13
M  V30 13 2 13 14
M  V30 14 1 14 15
M  V30 15 2 15 16
M  V30 16 1 16 17
M  V30 17 1 17 18
M  V30 18 2 17 19
M  V30 19 2 9 20
M  V30 20 1 20 5
M  V30 21 1 19 10
M  V30 22 1 19 13
M  V30 23 1 1 21
M  V30 24 1 1 22
M  V30 25 1 6 23
M  V30 26 1 7 24
M  V30 27 1 8 25
M  V30 28 1 12 26
M  V30 29 1 14 27
M  V30 30 1 15 28
M  V30 31 1 16 29
M  V30 32 1 20 30
M  V30 END BOND
M  V30 END CTAB
M  END
>  <Dataset>  (194) 
ChEMBL_Kinases

>  <Ligand_Instance>  (194) 
nan

>  <PDB_ID>  (194) 
nan

>  <Standardized_SMILES>  (194) 
NS(=O)(=O)c1cccc(-c2n[nH]c3cccc(Cl)c23)c1

>  <Name>  (194) 
nan

>  <Pocket>  (194) 
nan

>  <ATP_Site>  (194) 
nan

>  <Peripheral>  (194) 
nan

>  <Num_H_Atoms_ProtBoundConf>  (194) 
nan

>  <Num_Resolved_Atoms>  (194) 
nan

>  <Num_Not_Resolved_Atoms>  (194) 
nan

$$$$
CHEMBL3330240
     RDKit          3D

  0  0  0  0  0  0  0  0  0  0999 V3000
M  V30 BEGIN CTAB
M  V30 COUNTS 30 32 0 0 0
M  V30 BEGIN ATOM
M  V30 1 N -0.275536 -3.691971 5.220271 0
M  V30 2 S 0.062508 -4.429323 3.681604 0
M  V30 3 O -1.050761 -5.382839 3.360657 0
M  V30 4 O 1.369077 -5.164865 3.728688 0
M  V30 5 C 0.097470 -3.214471 2.422044 0
M  V30 6 C 1.297447 -2.601452 2.135120 0
M  V30 7 C 1.349158 -1.643031 1.148616 0
M  V30 8 C 0.253320 -1.247726 0.413953 0
M  V30 9 C 0.139560 -0.240038 -0.621940 0
M  V30 10 N -0.400141 -0.619401 -1.796071 0
M  V30 11 N -0.458599 0.385821 -2.654449 0
M  V30 12 C 0.045268 1.492166 -2.081151 0
M  V30 13 C 0.269169 2.836153 -2.399243 0
M  V30 14 C 0.836249 3.685183 -1.450633 0
M  V30 15 C 1.193711 3.240512 -0.178547 0
M  V30 16 C 0.972471 1.916258 0.132207 0
M  V30 17 Cl 1.405222 1.428449 1.748710 0
M  V30 18 C 0.414038 1.091206 -0.814660 0
M  V30 19 C -0.916836 -1.914626 0.765120 0
M  V30 20 C -1.048391 -2.882881 1.737552 0
M  V30 21 H 0.441784 -2.965317 5.420362 0
M  V30 22 H -1.219020 -3.273535 5.167445 0
M  V30 23 H 2.206154 -2.845995 2.658647 0
M  V30 24 H 2.288613 -1.172801 0.898527 0
M  V30 25 H -0.821107 0.402768 -3.634741 0
M  V30 26 H -0.017729 3.137901 -3.381262 0
M  V30 27 H 1.001991 4.730435 -1.721767 0
M  V30 28 H 1.623223 3.952096 0.494597 0
M  V30 29 H -1.854928 -1.675497 0.238497 0
M  V30 30 H -2.000509 -3.350322 1.944751 0
M  V30 END ATOM
M  V30 BEGIN BOND
M  V30 1 1 1 2
M  V30 2 2 2 3
M  V30 3 2 2 4
M  V30 4 1 2 5
M  V30 5 2 5 6
M  V30 6 1 6 7
M  V30 7 2 7 8
M  V30 8 1 8 9
M  V30 9 2 9 10
M  V30 10 1 10 11
M  V30 11 1 11 12
M  V30 12 2 12 13
M  V30 13 1 13 14
M  V30 14 2 14 15
M  V30 15 1 15 16
M  V30 16 1 16 17
M  V30 17 2 16 18
M  V30 18 1 8 19
M  V30 19 2 19 20
M  V30 20 1 20 5
M  V30 21 1 18 9
M  V30 22 1 18 12
M  V30 23 1 1 21
M  V30 24 1 1 22
M  V30 25 1 6 23
M  V30 26 1 7 24
M  V30 27 1 11 25
M  V30 28 1 13 26
M  V30 29 1 14 27
M  V30 30 1 15 28
M  V30 31 1 19 29
M  V30 32 1 20 30
M  V30 END BOND
M  V30 END CTAB
M  END
>  <Dataset>  (195) 
ChEMBL_Kinases

>  <Ligand_Instance>  (195) 
nan

>  <PDB_ID>  (195) 
nan

>  <Standardized_SMILES>  (195) 
NS(=O)(=O)c1ccc(-c2n[nH]c3cccc(Cl)c23)cc1

>  <Name>  (195) 
nan

>  <Pocket>  (195) 
nan

>  <ATP_Site>  (195) 
nan

>  <Peripheral>  (195) 
nan

>  <Num_H_Atoms_ProtBoundConf>  (195) 
nan

>  <Num_Resolved_Atoms>  (195) 
nan

>  <Num_Not_Resolved_Atoms>  (195) 
nan

$$$$
CHEMBL3330241
     RDKit          3D

  0  0  0  0  0  0  0  0  0  0999 V3000
M  V30 BEGIN CTAB
M  V30 COUNTS 29 31 0 0 0
M  V30 BEGIN ATOM
M  V30 1 N -2.347401 -3.336775 2.993349 0
M  V30 2 C -1.004064 -3.654613 3.337625 0
M  V30 3 O -0.694970 -4.476971 4.236396 0
M  V30 4 C 0.078744 -2.997520 2.616111 0
M  V30 5 C 1.399768 -3.263466 2.903517 0
M  V30 6 C 2.418340 -2.637844 2.215771 0
M  V30 7 C 2.091407 -1.735555 1.229026 0
M  V30 8 C 0.809015 -1.409172 0.877007 0
M  V30 9 C 0.317001 -0.462840 -0.106664 0
M  V30 10 N -0.576553 -0.925394 -1.034108 0
M  V30 11 N -0.938514 0.042085 -1.850085 0
M  V30 12 C -0.328168 1.189834 -1.532162 0
M  V30 13 C -0.276791 2.501255 -1.955528 0
M  V30 14 C 0.537483 3.418410 -1.282761 0
M  V30 15 C 1.311932 3.059964 -0.184819 0
M  V30 16 C 1.255185 1.755118 0.228865 0
M  V30 17 Cl 2.217853 1.367436 1.633729 0
M  V30 18 C 0.450983 0.864134 -0.443922 0
M  V30 19 C -0.171108 -2.084891 1.618607 0
M  V30 20 H -3.013663 -3.962151 2.455469 0
M  V30 21 H -2.567163 -2.365824 3.367882 0
M  V30 22 H 1.670667 -3.966597 3.672473 0
M  V30 23 H 3.471027 -2.813947 2.405518 0
M  V30 24 H 2.876353 -1.262179 0.672953 0
M  V30 25 H -1.613326 -0.029115 -2.657565 0
M  V30 26 H -0.881531 2.760270 -2.804541 0
M  V30 27 H 0.536739 4.447377 -1.666648 0
M  V30 28 H 1.915256 3.829093 0.281344 0
M  V30 29 H -1.221606 -1.902520 1.421855 0
M  V30 END ATOM
M  V30 BEGIN BOND
M  V30 1 1 1 2
M  V30 2 2 2 3
M  V30 3 1 2 4
M  V30 4 2 4 5
M  V30 5 1 5 6
M  V30 6 2 6 7
M  V30 7 1 7 8
M  V30 8 1 8 9
M  V30 9 2 9 10
M  V30 10 1 10 11
M  V30 11 1 11 12
M  V30 12 2 12 13
M  V30 13 1 13 14
M  V30 14 2 14 15
M  V30 15 1 15 16
M  V30 16 1 16 17
M  V30 17 2 16 18
M  V30 18 2 8 19
M  V30 19 1 19 4
M  V30 20 1 18 9
M  V30 21 1 18 12
M  V30 22 1 1 20
M  V30 23 1 1 21
M  V30 24 1 5 22
M  V30 25 1 6 23
M  V30 26 1 7 24
M  V30 27 1 11 25
M  V30 28 1 13 26
M  V30 29 1 14 27
M  V30 30 1 15 28
M  V30 31 1 19 29
M  V30 END BOND
M  V30 END CTAB
M  END
>  <Dataset>  (196) 
ChEMBL_Kinases

>  <Ligand_Instance>  (196) 
nan

>  <PDB_ID>  (196) 
nan

>  <Standardized_SMILES>  (196) 
NC(=O)c1cccc(-c2n[nH]c3cccc(Cl)c23)c1

>  <Name>  (196) 
nan

>  <Pocket>  (196) 
nan

>  <ATP_Site>  (196) 
nan

>  <Peripheral>  (196) 
nan

>  <Num_H_Atoms_ProtBoundConf>  (196) 
nan

>  <Num_Resolved_Atoms>  (196) 
nan

>  <Num_Not_Resolved_Atoms>  (196) 
nan

$$$$
CHEMBL3330243
     RDKit          3D

  0  0  0  0  0  0  0  0  0  0999 V3000
M  V30 BEGIN CTAB
M  V30 COUNTS 40 43 0 0 0
M  V30 BEGIN ATOM
M  V30 1 N 3.110830 -4.170242 2.435881 0
M  V30 2 S 3.060690 -4.103173 0.718989 0
M  V30 3 O 4.336325 -3.421022 0.250031 0
M  V30 4 O 3.082817 -5.477655 0.105304 0
M  V30 5 C 1.712735 -3.149123 0.144514 0
M  V30 6 C 0.522082 -3.799091 -0.083761 0
M  V30 7 C -0.550518 -3.066028 -0.536566 0
M  V30 8 C -0.418597 -1.714128 -0.751120 0
M  V30 9 C 0.721729 -1.010093 -0.546649 0
M  V30 10 C 1.069438 0.391672 -0.670026 0
M  V30 11 N 2.139349 0.775135 -1.432804 0
M  V30 12 N 2.284161 2.085400 -1.386389 0
M  V30 13 C 1.354820 2.661289 -0.614321 0
M  V30 14 C 1.027627 3.932500 -0.191331 0
M  V30 15 C -0.041820 4.101544 0.663708 0
M  V30 16 C -0.786970 2.998664 1.097734 0
M  V30 17 C -0.456934 1.706579 0.668364 0
M  V30 18 C -1.376458 0.745221 1.247066 0
M  V30 19 C -2.606338 0.227287 0.897257 0
M  V30 20 F -2.997656 0.798438 -0.291078 0
M  V30 21 C -3.256425 -0.698439 1.666473 0
M  V30 22 C -2.695897 -1.153900 2.837910 0
M  V30 23 C -1.478692 -0.670166 3.226351 0
M  V30 24 C -0.813012 0.275274 2.442330 0
M  V30 25 F 0.387081 0.622977 3.014424 0
M  V30 26 C 0.613761 1.590545 -0.181449 0
M  V30 27 C 1.794907 -1.793964 -0.084770 0
M  V30 28 H 3.700695 -3.391395 2.829568 0
M  V30 29 H 2.183696 -4.185680 2.891296 0
M  V30 30 H 0.330115 -4.853367 0.057404 0
M  V30 31 H -1.527726 -3.460162 -0.750081 0
M  V30 32 H -1.214733 -1.091145 -1.125703 0
M  V30 33 H 3.044268 2.623783 -1.897663 0
M  V30 34 H 1.634183 4.763941 -0.553549 0
M  V30 35 H -0.253112 5.119009 0.963028 0
M  V30 36 H -1.588556 3.291897 1.761695 0
M  V30 37 H -4.217670 -0.995639 1.235598 0
M  V30 38 H -3.294303 -1.880017 3.361558 0
M  V30 39 H -1.113831 -1.081083 4.156354 0
M  V30 40 H 2.781417 -1.394086 0.130248 0
M  V30 END ATOM
M  V30 BEGIN BOND
M  V30 1 1 1 2
M  V30 2 2 2 3
M  V30 3 2 2 4
M  V30 4 1 2 5
M  V30 5 2 5 6
M  V30 6 1 6 7
M  V30 7 2 7 8
M  V30 8 1 8 9
M  V30 9 1 9 10
M  V30 10 2 10 11
M  V30 11 1 11 12
M  V30 12 1 12 13
M  V30 13 2 13 14
M  V30 14 1 14 15
M  V30 15 2 15 16
M  V30 16 1 16 17
M  V30 17 1 17 18
M  V30 18 2 18 19
M  V30 19 1 19 20
M  V30 20 1 19 21
M  V30 21 2 21 22
M  V30 22 1 22 23
M  V30 23 2 23 24
M  V30 24 1 24 25
M  V30 25 2 17 26
M  V30 26 2 9 27
M  V30 27 1 27 5
M  V30 28 1 26 10
M  V30 29 1 26 13
M  V30 30 1 24 18
M  V30 31 1 1 28
M  V30 32 1 1 29
M  V30 33 1 6 30
M  V30 34 1 7 31
M  V30 35 1 8 32
M  V30 36 1 12 33
M  V30 37 1 14 34
M  V30 38 1 15 35
M  V30 39 1 16 36
M  V30 40 1 21 37
M  V30 41 1 22 38
M  V30 42 1 23 39
M  V30 43 1 27 40
M  V30 END BOND
M  V30 END CTAB
M  END
>  <Dataset>  (197) 
ChEMBL_Kinases

>  <Ligand_Instance>  (197) 
nan

>  <PDB_ID>  (197) 
nan

>  <Standardized_SMILES>  (197) 
NS(=O)(=O)c1cccc(-c2n[nH]c3cccc(-c4c(F)cccc4F)c23)c1

>  <Name>  (197) 
nan

>  <Pocket>  (197) 
nan

>  <ATP_Site>  (197) 
nan

>  <Peripheral>  (197) 
nan

>  <Num_H_Atoms_ProtBoundConf>  (197) 
nan

>  <Num_Resolved_Atoms>  (197) 
nan

>  <Num_Not_Resolved_Atoms>  (197) 
nan

$$$$
CHEMBL3330244
     RDKit          3D

  0  0  0  0  0  0  0  0  0  0999 V3000
M  V30 BEGIN CTAB
M  V30 COUNTS 40 43 0 0 0
M  V30 BEGIN ATOM
M  V30 1 N 0.936481 -4.539358 2.001123 0
M  V30 2 S 1.693592 -4.416501 0.473190 0
M  V30 3 O 2.639401 -5.590588 0.326451 0
M  V30 4 O 0.687883 -4.394579 -0.666573 0
M  V30 5 C 2.655611 -2.962078 0.297741 0
M  V30 6 C 3.989406 -2.954756 0.649163 0
M  V30 7 C 4.734018 -1.790906 0.502225 0
M  V30 8 C 4.100063 -0.672700 0.003383 0
M  V30 9 C 2.765803 -0.632820 -0.362142 0
M  V30 10 C 2.136082 0.576723 -0.887171 0
M  V30 11 N 2.596263 1.450228 -1.830051 0
M  V30 12 N 1.732012 2.420320 -2.029113 0
M  V30 13 C 0.646984 2.271151 -1.247557 0
M  V30 14 C -0.544656 2.956305 -1.029616 0
M  V30 15 C -1.488454 2.534144 -0.128929 0
M  V30 16 C -1.251952 1.394551 0.585152 0
M  V30 17 C -2.228468 0.904659 1.557077 0
M  V30 18 C -3.580748 1.127600 1.327534 0
M  V30 19 C -4.480474 0.651704 2.266063 0
M  V30 20 C -4.116573 -0.033097 3.420043 0
M  V30 21 C -2.753920 -0.242960 3.625595 0
M  V30 22 C -1.847019 0.225279 2.699600 0
M  V30 23 C -0.069555 0.693963 0.384544 0
M  V30 24 C 0.895111 1.111409 -0.525485 0
M  V30 25 C 2.047991 -1.821194 -0.200858 0
M  V30 26 H 1.367422 -5.235519 2.640555 0
M  V30 27 H -0.055863 -4.883570 1.832077 0
M  V30 28 H 4.425369 -3.871018 1.035801 0
M  V30 29 H 5.783117 -1.795549 0.781873 0
M  V30 30 H 4.708835 0.212240 -0.097192 0
M  V30 31 H 1.855197 3.222269 -2.710309 0
M  V30 32 H -0.724640 3.860376 -1.600904 0
M  V30 33 H -2.415221 3.054208 0.050272 0
M  V30 34 H -3.949537 1.649115 0.459128 0
M  V30 35 H -5.543606 0.825408 2.088161 0
M  V30 36 H -4.927957 -0.359752 4.086852 0
M  V30 37 H -2.496784 -0.777574 4.529916 0
M  V30 38 H -0.788421 0.039650 2.898910 0
M  V30 39 H 0.068228 -0.184871 0.963238 0
M  V30 40 H 1.002459 -1.870357 -0.463939 0
M  V30 END ATOM
M  V30 BEGIN BOND
M  V30 1 1 1 2
M  V30 2 2 2 3
M  V30 3 2 2 4
M  V30 4 1 2 5
M  V30 5 2 5 6
M  V30 6 1 6 7
M  V30 7 2 7 8
M  V30 8 1 8 9
M  V30 9 1 9 10
M  V30 10 2 10 11
M  V30 11 1 11 12
M  V30 12 1 12 13
M  V30 13 2 13 14
M  V30 14 1 14 15
M  V30 15 2 15 16
M  V30 16 1 16 17
M  V30 17 2 17 18
M  V30 18 1 18 19
M  V30 19 2 19 20
M  V30 20 1 20 21
M  V30 21 2 21 22
M  V30 22 1 16 23
M  V30 23 2 23 24
M  V30 24 2 9 25
M  V30 25 1 25 5
M  V30 26 1 24 10
M  V30 27 1 24 13
M  V30 28 1 22 17
M  V30 29 1 1 26
M  V30 30 1 1 27
M  V30 31 1 6 28
M  V30 32 1 7 29
M  V30 33 1 8 30
M  V30 34 1 12 31
M  V30 35 1 14 32
M  V30 36 1 15 33
M  V30 37 1 18 34
M  V30 38 1 19 35
M  V30 39 1 20 36
M  V30 40 1 21 37
M  V30 41 1 22 38
M  V30 42 1 23 39
M  V30 43 1 25 40
M  V30 END BOND
M  V30 END CTAB
M  END
>  <Dataset>  (198) 
ChEMBL_Kinases

>  <Ligand_Instance>  (198) 
nan

>  <PDB_ID>  (198) 
nan

>  <Standardized_SMILES>  (198) 
NS(=O)(=O)c1cccc(-c2n[nH]c3ccc(-c4ccccc4)cc23)c1

>  <Name>  (198) 
nan

>  <Pocket>  (198) 
nan

>  <ATP_Site>  (198) 
nan

>  <Peripheral>  (198) 
nan

>  <Num_H_Atoms_ProtBoundConf>  (198) 
nan

>  <Num_Resolved_Atoms>  (198) 
nan

>  <Num_Not_Resolved_Atoms>  (198) 
nan

$$$$
CHEMBL3330234
     RDKit          3D

  0  0  0  0  0  0  0  0  0  0999 V3000
M  V30 BEGIN CTAB
M  V30 COUNTS 48 52 0 0 0
M  V30 BEGIN ATOM
M  V30 1 C 3.038134 -5.984739 0.263716 0
M  V30 2 C 1.776662 -5.154338 0.270520 0
M  V30 3 C 1.469590 -3.879968 0.340602 0
M  V30 4 C 0.192110 -3.448867 0.320196 0
M  V30 5 C -0.219457 -2.093306 0.390768 0
M  V30 6 N 0.700301 -1.017454 0.495543 0
M  V30 7 C 1.372012 0.217695 0.604743 0
M  V30 8 C 1.220255 0.936596 1.928891 0
M  V30 9 C 2.519076 1.438484 2.483154 0
M  V30 10 C 3.361659 2.189049 1.475883 0
M  V30 11 N 3.488168 1.395000 0.272312 0
M  V30 12 C 2.875153 0.115298 0.372142 0
M  V30 13 C -1.579742 -1.865379 0.352933 0
M  V30 14 C -2.162513 -0.524943 0.398948 0
M  V30 15 N -1.589094 0.670834 0.477539 0
M  V30 16 C -2.409238 1.703814 0.500814 0
M  V30 17 C -2.164596 3.060135 0.576160 0
M  V30 18 C -3.245293 3.930855 0.582535 0
M  V30 19 C -4.535244 3.394505 0.512256 0
M  V30 20 C -4.716649 2.011610 0.437744 0
M  V30 21 C -3.646730 1.138008 0.430864 0
M  V30 22 N -3.452225 -0.171117 0.372725 0
M  V30 23 C -2.514950 -2.852638 0.254793 0
M  V30 24 O -3.747175 -2.861800 0.207335 0
M  V30 25 N -2.026871 -4.092316 0.194796 0
M  V30 26 C -0.730708 -4.429668 0.222689 0
M  V30 27 S 0.109276 -5.971594 0.155550 0
M  V30 28 H 3.787802 -5.512939 -0.403395 0
M  V30 29 H 2.835574 -6.990355 -0.158372 0
M  V30 30 H 3.408363 -6.151687 1.300144 0
M  V30 31 H 2.396829 -3.277586 0.413898 0
M  V30 32 H 1.621560 -1.439820 0.535704 0
M  V30 33 H 0.965584 0.974996 -0.157196 0
M  V30 34 H 0.825087 0.195208 2.650996 0
M  V30 35 H 0.528816 1.800729 1.880002 0
M  V30 36 H 3.151882 0.664204 2.957930 0
M  V30 37 H 2.314378 2.169188 3.321260 0
M  V30 38 H 2.903269 3.146440 1.193762 0
M  V30 39 H 4.345628 2.368455 1.930968 0
M  V30 40 H 4.412721 1.415662 -0.157890 0
M  V30 41 H 3.295965 -0.418238 1.246492 0
M  V30 42 H 3.044667 -0.451012 -0.556363 0
M  V30 43 H -1.181575 3.508616 0.631681 0
M  V30 44 H -3.205574 5.010119 0.637239 0
M  V30 45 H -5.408133 4.063141 0.515691 0
M  V30 46 H -5.727709 1.576190 0.381901 0
M  V30 47 H -4.314722 -0.748531 0.315182 0
M  V30 48 H -2.638300 -4.923748 0.118936 0
M  V30 END ATOM
M  V30 BEGIN BOND
M  V30 1 1 1 2
M  V30 2 2 2 3
M  V30 3 1 3 4
M  V30 4 1 4 5
M  V30 5 1 5 6
M  V30 6 1 6 7
M  V30 7 1 7 8
M  V30 8 1 8 9
M  V30 9 1 9 10
M  V30 10 1 10 11
M  V30 11 1 11 12
M  V30 12 2 5 13
M  V30 13 1 13 14
M  V30 14 2 14 15
M  V30 15 1 15 16
M  V30 16 2 16 17
M  V30 17 1 17 18
M  V30 18 2 18 19
M  V30 19 1 19 20
M  V30 20 2 20 21
M  V30 21 1 21 22
M  V30 22 1 13 23
M  V30 23 2 23 24
M  V30 24 1 23 25
M  V30 25 1 25 26
M  V30 26 1 26 27
M  V30 27 1 27 2
M  V30 28 2 26 4
M  V30 29 1 12 7
M  V30 30 1 22 14
M  V30 31 1 21 16
M  V30 32 1 1 28
M  V30 33 1 1 29
M  V30 34 1 1 30
M  V30 35 1 3 31
M  V30 36 1 6 32
M  V30 37 1 7 33
M  V30 38 1 8 34
M  V30 39 1 8 35
M  V30 40 1 9 36
M  V30 41 1 9 37
M  V30 42 1 10 38
M  V30 43 1 10 39
M  V30 44 1 11 40
M  V30 45 1 12 41
M  V30 46 1 12 42
M  V30 47 1 17 43
M  V30 48 1 18 44
M  V30 49 1 19 45
M  V30 50 1 20 46
M  V30 51 1 22 47
M  V30 52 1 25 48
M  V30 END BOND
M  V30 END CTAB
M  END
>  <Dataset>  (199) 
ChEMBL_Kinases

>  <Ligand_Instance>  (199) 
nan

>  <PDB_ID>  (199) 
nan

>  <Standardized_SMILES>  (199) 
Cc1cc2c(NC3CCCNC3)c(-c3nc4ccccc4[nH]3)c(=O)[nH]c2s1

>  <Name>  (199) 
nan

>  <Pocket>  (199) 
nan

>  <ATP_Site>  (199) 
nan

>  <Peripheral>  (199) 
nan

>  <Num_H_Atoms_ProtBoundConf>  (199) 
nan

>  <Num_Resolved_Atoms>  (199) 
nan

>  <Num_Not_Resolved_Atoms>  (199) 
nan

$$$$
CHEMBL333243
     RDKit          3D

  0  0  0  0  0  0  0  0  0  0999 V3000
M  V30 BEGIN CTAB
M  V30 COUNTS 44 48 0 0 0
M  V30 BEGIN ATOM
M  V30 1 O 0.803194 -4.488813 -0.437674 0
M  V30 2 C 0.715107 -3.484026 0.311649 0
M  V30 3 C 1.144506 -3.482982 1.629417 0
M  V30 4 C 1.017947 -2.338730 2.401755 0
M  V30 5 C 0.459730 -1.211651 1.833403 0
M  V30 6 C 0.272734 0.061583 2.526559 0
M  V30 7 C 0.904966 1.188371 1.990405 0
M  V30 8 C 1.755536 1.296715 0.787392 0
M  V30 9 C 2.918965 0.596549 0.743874 0
M  V30 10 C 3.696207 0.707863 -0.388173 0
M  V30 11 C 3.335880 1.504268 -1.478768 0
M  V30 12 F 4.106639 1.608514 -2.591122 0
M  V30 13 C 2.143439 2.202625 -1.397632 0
M  V30 14 C 1.363482 2.093273 -0.265860 0
M  V30 15 F 0.182834 2.791989 -0.199358 0
M  V30 16 N 0.591783 2.226660 2.794693 0
M  V30 17 C -0.200645 1.780735 3.792720 0
M  V30 18 C -0.799940 2.428475 4.880262 0
M  V30 19 C -1.554921 1.625775 5.703609 0
M  V30 20 C -1.738592 0.274289 5.513720 0
M  V30 21 C -1.126491 -0.332048 4.421724 0
M  V30 22 N -0.393165 0.460334 3.626152 0
M  V30 23 N 0.076559 -1.306354 0.562673 0
M  V30 24 N 0.177289 -2.370522 -0.207891 0
M  V30 25 C -0.306438 -2.236482 -1.560847 0
M  V30 26 C 0.466472 -2.284988 -2.704359 0
M  V30 27 Cl 2.183986 -2.532461 -2.470578 0
M  V30 28 C -0.157944 -2.137793 -3.926206 0
M  V30 29 C -1.525486 -1.946347 -4.004468 0
M  V30 30 C -2.275914 -1.901651 -2.846733 0
M  V30 31 C -1.671800 -2.046787 -1.608128 0
M  V30 32 Cl -2.718254 -1.973966 -0.205882 0
M  V30 33 H 1.579360 -4.379107 2.053073 0
M  V30 34 H 1.334407 -2.288781 3.422939 0
M  V30 35 H 3.288921 -0.053464 1.544099 0
M  V30 36 H 4.636931 0.167400 -0.473995 0
M  V30 37 H 1.842975 2.833376 -2.243983 0
M  V30 38 H -0.660144 3.496722 5.037878 0
M  V30 39 H -2.000066 2.187769 6.539001 0
M  V30 40 H -2.354236 -0.257198 6.226234 0
M  V30 41 H -1.258226 -1.385320 4.257160 0
M  V30 42 H 0.478942 -2.180576 -4.808688 0
M  V30 43 H -1.995407 -1.833149 -4.972014 0
M  V30 44 H -3.343236 -1.750911 -2.930450 0
M  V30 END ATOM
M  V30 BEGIN BOND
M  V30 1 2 1 2
M  V30 2 1 2 3
M  V30 3 2 3 4
M  V30 4 1 4 5
M  V30 5 1 5 6
M  V30 6 2 6 7
M  V30 7 1 7 8
M  V30 8 2 8 9
M  V30 9 1 9 10
M  V30 10 2 10 11
M  V30 11 1 11 12
M  V30 12 1 11 13
M  V30 13 2 13 14
M  V30 14 1 14 15
M  V30 15 1 7 16
M  V30 16 2 16 17
M  V30 17 1 17 18
M  V30 18 2 18 19
M  V30 19 1 19 20
M  V30 20 2 20 21
M  V30 21 1 21 22
M  V30 22 2 5 23
M  V30 23 1 23 24
M  V30 24 1 24 25
M  V30 25 2 25 26
M  V30 26 1 26 27
M  V30 27 1 26 28
M  V30 28 2 28 29
M  V30 29 1 29 30
M  V30 30 2 30 31
M  V30 31 1 31 32
M  V30 32 1 24 2
M  V30 33 1 31 25
M  V30 34 1 22 6
M  V30 35 1 14 8
M  V30 36 1 22 17
M  V30 37 1 3 33
M  V30 38 1 4 34
M  V30 39 1 9 35
M  V30 40 1 10 36
M  V30 41 1 13 37
M  V30 42 1 18 38
M  V30 43 1 19 39
M  V30 44 1 20 40
M  V30 45 1 21 41
M  V30 46 1 28 42
M  V30 47 1 29 43
M  V30 48 1 30 44
M  V30 END BOND
M  V30 END CTAB
M  END
>  <Dataset>  (200) 
ChEMBL_Kinases

>  <Ligand_Instance>  (200) 
nan

>  <PDB_ID>  (200) 
nan

>  <Standardized_SMILES>  (200) 
O=c1ccc(-c2c(-c3ccc(F)cc3F)nc3ccccn23)nn1-c1c(Cl)cccc1Cl

>  <Name>  (200) 
nan

>  <Pocket>  (200) 
nan

>  <ATP_Site>  (200) 
nan

>  <Peripheral>  (200) 
nan

>  <Num_H_Atoms_ProtBoundConf>  (200) 
nan

>  <Num_Resolved_Atoms>  (200) 
nan

>  <Num_Not_Resolved_Atoms>  (200) 
nan

$$$$
CHEMBL3330649
     RDKit          3D

  0  0  0  0  0  0  0  0  0  0999 V3000
M  V30 BEGIN CTAB
M  V30 COUNTS 38 40 0 0 0
M  V30 BEGIN ATOM
M  V30 1 O 0.578082 -1.842824 1.491101 0
M  V30 2 C 1.250344 -1.272313 0.599894 0
M  V30 3 N 2.015831 -2.112777 -0.245982 0
M  V30 4 O 1.859773 -3.423681 0.094523 0
M  V30 5 C 2.608425 -4.268060 -0.730273 0
M  V30 6 C 2.418027 -5.718433 -0.330691 0
M  V30 7 O 3.190529 -6.490115 -1.193128 0
M  V30 8 C 1.224147 0.179430 0.467544 0
M  V30 9 O 1.847042 0.924855 -0.382691 0
M  V30 10 C 1.577019 2.204036 -0.195717 0
M  V30 11 C 1.967014 3.379091 -0.808329 0
M  V30 12 C 1.481662 4.605829 -0.350702 0
M  V30 13 N 0.630042 4.647493 0.691502 0
M  V30 14 C 0.240814 3.490536 1.301121 0
M  V30 15 C 0.699642 2.266625 0.875784 0
M  V30 16 C 0.464349 0.977152 1.311179 0
M  V30 17 N -0.373280 0.565692 2.387429 0
M  V30 18 C -1.754385 0.253069 2.243552 0
M  V30 19 C -2.297997 0.360125 0.980651 0
M  V30 20 C -3.640415 0.046427 0.892518 0
M  V30 21 C -4.373051 -0.343328 1.990190 0
M  V30 22 I -6.417950 -0.816498 1.831401 0
M  V30 23 C -3.774142 -0.432851 3.232559 0
M  V30 24 C -2.420802 -0.129059 3.386701 0
M  V30 25 F -1.792853 -0.201922 4.579083 0
M  V30 26 H 2.588519 -1.706123 -0.996203 0
M  V30 27 H 2.169168 -4.173392 -1.745444 0
M  V30 28 H 3.673249 -3.969789 -0.712084 0
M  V30 29 H 1.337968 -5.950905 -0.514898 0
M  V30 30 H 2.677541 -5.886867 0.720559 0
M  V30 31 H 3.706761 -5.950878 -1.835727 0
M  V30 32 H 2.660649 3.313593 -1.653608 0
M  V30 33 H 1.832225 5.502267 -0.883270 0
M  V30 34 H -0.436851 3.571079 2.125067 0
M  V30 35 H 0.145931 0.521142 3.291531 0
M  V30 36 H -1.669511 0.673198 0.150499 0
M  V30 37 H -4.101604 0.120171 -0.089308 0
M  V30 38 H -4.317195 -0.733126 4.105847 0
M  V30 END ATOM
M  V30 BEGIN BOND
M  V30 1 2 1 2
M  V30 2 1 2 3
M  V30 3 1 3 4
M  V30 4 1 4 5
M  V30 5 1 5 6
M  V30 6 1 6 7
M  V30 7 1 2 8
M  V30 8 1 8 9
M  V30 9 1 9 10
M  V30 10 2 10 11
M  V30 11 1 11 12
M  V30 12 2 12 13
M  V30 13 1 13 14
M  V30 14 2 14 15
M  V30 15 1 15 16
M  V30 16 1 16 17
M  V30 17 1 17 18
M  V30 18 2 18 19
M  V30 19 1 19 20
M  V30 20 2 20 21
M  V30 21 1 21 22
M  V30 22 1 21 23
M  V30 23 2 23 24
M  V30 24 1 24 25
M  V30 25 2 16 8
M  V30 26 1 24 18
M  V30 27 1 15 10
M  V30 28 1 3 26
M  V30 29 1 5 27
M  V30 30 1 5 28
M  V30 31 1 6 29
M  V30 32 1 6 30
M  V30 33 1 7 31
M  V30 34 1 11 32
M  V30 35 1 12 33
M  V30 36 1 14 34
M  V30 37 1 17 35
M  V30 38 1 19 36
M  V30 39 1 20 37
M  V30 40 1 23 38
M  V30 END BOND
M  V30 END CTAB
M  END
>  <Dataset>  (201) 
ChEMBL_Kinases

>  <Ligand_Instance>  (201) 
nan

>  <PDB_ID>  (201) 
nan

>  <Standardized_SMILES>  (201) 
O=C(NOCCO)c1oc2ccncc2c1Nc1ccc(I)cc1F

>  <Name>  (201) 
nan

>  <Pocket>  (201) 
nan

>  <ATP_Site>  (201) 
nan

>  <Peripheral>  (201) 
nan

>  <Num_H_Atoms_ProtBoundConf>  (201) 
nan

>  <Num_Resolved_Atoms>  (201) 
nan

>  <Num_Not_Resolved_Atoms>  (201) 
nan

$$$$
CHEMBL3330413
     RDKit          3D

  0  0  0  0  0  0  0  0  0  0999 V3000
M  V30 BEGIN CTAB
M  V30 COUNTS 26 28 0 0 0
M  V30 BEGIN ATOM
M  V30 1 O -0.193356 -4.883959 4.041229 0
M  V30 2 C -0.001385 -4.588579 2.823320 0
M  V30 3 C 0.053275 -3.261423 2.216329 0
M  V30 4 C 0.273386 -3.119720 0.861078 0
M  V30 5 C 0.307263 -1.823377 0.385844 0
M  V30 6 C 0.132647 -0.731760 1.209081 0
M  V30 7 C 0.128670 0.625028 0.949210 0
M  V30 8 C 0.315749 1.318419 -0.322483 0
M  V30 9 C -0.537414 2.359040 -0.643633 0
M  V30 10 C -0.409454 3.061763 -1.846118 0
M  V30 11 C 0.620731 2.633099 -2.663957 0
M  V30 12 N 1.448141 1.620177 -2.347099 0
M  V30 13 C 1.329021 0.931246 -1.177070 0
M  V30 14 N -0.090186 1.217271 2.143365 0
M  V30 15 N -0.218817 0.312068 3.107391 0
M  V30 16 C -0.084300 -0.930046 2.557103 0
M  V30 17 C -0.129292 -2.201828 3.094133 0
M  V30 18 H 0.125642 -5.505084 2.250185 0
M  V30 19 H 0.409999 -3.989553 0.220346 0
M  V30 20 H 0.478126 -1.694381 -0.670152 0
M  V30 21 H -1.319518 2.656664 0.017779 0
M  V30 22 H -1.033119 3.878517 -2.162520 0
M  V30 23 H 0.852432 3.072835 -3.628678 0
M  V30 24 H 2.011082 0.128808 -0.963272 0
M  V30 25 H -0.393480 0.531924 4.113329 0
M  V30 26 H -0.299887 -2.354078 4.153404 0
M  V30 END ATOM
M  V30 BEGIN BOND
M  V30 1 2 1 2
M  V30 2 1 2 3
M  V30 3 2 3 4
M  V30 4 1 4 5
M  V30 5 2 5 6
M  V30 6 1 6 7
M  V30 7 1 7 8
M  V30 8 2 8 9
M  V30 9 1 9 10
M  V30 10 2 10 11
M  V30 11 1 11 12
M  V30 12 2 12 13
M  V30 13 2 7 14
M  V30 14 1 14 15
M  V30 15 1 15 16
M  V30 16 2 16 17
M  V30 17 1 17 3
M  V30 18 1 16 6
M  V30 19 1 13 8
M  V30 20 1 2 18
M  V30 21 1 4 19
M  V30 22 1 5 20
M  V30 23 1 9 21
M  V30 24 1 10 22
M  V30 25 1 11 23
M  V30 26 1 13 24
M  V30 27 1 15 25
M  V30 28 1 17 26
M  V30 END BOND
M  V30 END CTAB
M  END
>  <Dataset>  (202) 
ChEMBL_Kinases

>  <Ligand_Instance>  (202) 
nan

>  <PDB_ID>  (202) 
nan

>  <Standardized_SMILES>  (202) 
O=Cc1ccc2c(-c3cccnc3)n[nH]c2c1

>  <Name>  (202) 
nan

>  <Pocket>  (202) 
nan

>  <ATP_Site>  (202) 
nan

>  <Peripheral>  (202) 
nan

>  <Num_H_Atoms_ProtBoundConf>  (202) 
nan

>  <Num_Resolved_Atoms>  (202) 
nan

>  <Num_Not_Resolved_Atoms>  (202) 
nan

$$$$
CHEMBL3330412
     RDKit          3D

  0  0  0  0  0  0  0  0  0  0999 V3000
M  V30 BEGIN CTAB
M  V30 COUNTS 29 31 0 0 0
M  V30 BEGIN ATOM
M  V30 1 N -0.127167 -5.629725 5.866255 0
M  V30 2 C 0.065497 -4.772449 5.089803 0
M  V30 3 C 0.307835 -3.725861 4.127105 0
M  V30 4 C -0.710621 -3.498774 3.226506 0
M  V30 5 C -0.552297 -2.499892 2.260565 0
M  V30 6 C 0.635935 -1.787543 2.266193 0
M  V30 7 C 1.031402 -0.764658 1.427748 0
M  V30 8 C 0.299934 -0.164036 0.312991 0
M  V30 9 C 0.759979 0.804611 -0.425710 0
M  V30 10 C 0.060849 1.426163 -1.541962 0
M  V30 11 C -1.198248 1.052100 -1.955244 0
M  V30 12 C -1.845291 1.651768 -3.014502 0
M  V30 13 N -1.226341 2.656172 -3.688827 0
M  V30 14 C 0.001387 3.061528 -3.329272 0
M  V30 15 C 0.639323 2.442576 -2.255270 0
M  V30 16 N 2.276954 -0.398680 1.840807 0
M  V30 17 N 2.649013 -1.139643 2.873466 0
M  V30 18 C 1.668100 -2.011332 3.172120 0
M  V30 19 C 1.482717 -3.003771 4.113695 0
M  V30 20 H -1.654695 -4.025936 3.180541 0
M  V30 21 H -1.323840 -2.286849 1.534456 0
M  V30 22 H -0.683247 -0.559097 0.100419 0
M  V30 23 H 1.747039 1.157066 -0.165063 0
M  V30 24 H -1.721323 0.257619 -1.443498 0
M  V30 25 H -2.834647 1.340632 -3.320847 0
M  V30 26 H 0.517596 3.853536 -3.842818 0
M  V30 27 H 1.641492 2.787939 -1.977250 0
M  V30 28 H 3.556262 -1.065673 3.380305 0
M  V30 29 H 2.259300 -3.210189 4.835983 0
M  V30 END ATOM
M  V30 BEGIN BOND
M  V30 1 3 1 2
M  V30 2 1 2 3
M  V30 3 2 3 4
M  V30 4 1 4 5
M  V30 5 2 5 6
M  V30 6 1 6 7
M  V30 7 1 7 8
M  V30 8 2 8 9
M  V30 9 1 9 10
M  V30 10 2 10 11
M  V30 11 1 11 12
M  V30 12 2 12 13
M  V30 13 1 13 14
M  V30 14 2 14 15
M  V30 15 2 7 16
M  V30 16 1 16 17
M  V30 17 1 17 18
M  V30 18 2 18 19
M  V30 19 1 19 3
M  V30 20 1 18 6
M  V30 21 1 15 10
M  V30 22 1 4 20
M  V30 23 1 5 21
M  V30 24 1 8 22
M  V30 25 1 9 23
M  V30 26 1 11 24
M  V30 27 1 12 25
M  V30 28 1 14 26
M  V30 29 1 15 27
M  V30 30 1 17 28
M  V30 31 1 19 29
M  V30 END BOND
M  V30 END CTAB
M  END
>  <Dataset>  (203) 
ChEMBL_Kinases

>  <Ligand_Instance>  (203) 
nan

>  <PDB_ID>  (203) 
nan

>  <Standardized_SMILES>  (203) 
N#Cc1ccc2c(/C=C/c3ccncc3)n[nH]c2c1

>  <Name>  (203) 
nan

>  <Pocket>  (203) 
nan

>  <ATP_Site>  (203) 
nan

>  <Peripheral>  (203) 
nan

>  <Num_H_Atoms_ProtBoundConf>  (203) 
nan

>  <Num_Resolved_Atoms>  (203) 
nan

>  <Num_Not_Resolved_Atoms>  (203) 
nan

$$$$
CHEMBL3330411
     RDKit          3D

  0  0  0  0  0  0  0  0  0  0999 V3000
M  V30 BEGIN CTAB
M  V30 COUNTS 70 74 0 0 0
M  V30 BEGIN ATOM
M  V30 1 C 4.342385 -1.077557 2.041969 0
M  V30 2 O 3.049561 -0.496070 1.861573 0
M  V30 3 C 2.516606 -0.256768 0.605766 0
M  V30 4 C 3.208620 -0.569700 -0.543218 0
M  V30 5 C 2.660777 -0.323686 -1.786694 0
M  V30 6 N 3.269188 -0.601150 -3.040543 0
M  V30 7 C 2.508259 -0.485615 -4.263201 0
M  V30 8 C 3.002061 -1.238947 -5.429875 0
M  V30 9 C 3.924104 -2.382139 -5.199243 0
M  V30 10 O 3.272927 -3.606183 -5.354499 0
M  V30 11 C 4.552450 -2.402025 -3.827472 0
M  V30 12 C 4.644669 -1.003394 -3.244611 0
M  V30 13 C 1.404908 0.243696 -1.790828 0
M  V30 14 C 0.686062 0.568670 -0.661885 0
M  V30 15 C 1.245830 0.316204 0.587105 0
M  V30 16 N 0.511316 0.632285 1.780507 0
M  V30 17 C -0.795031 1.232706 1.636686 0
M  V30 18 N -1.813660 0.388790 1.373790 0
M  V30 19 C -3.093939 0.847093 1.220072 0
M  V30 20 N -4.022982 -0.179837 0.937438 0
M  V30 21 C -3.716946 -1.548300 1.021592 0
M  V30 22 C -3.621271 -2.139348 -0.220244 0
M  V30 23 C -3.370606 -3.487569 -0.345718 0
M  V30 24 C -3.218823 -4.224659 0.798202 0
M  V30 25 C -3.331139 -3.555530 2.002601 0
M  V30 26 C -3.586066 -2.189244 2.212784 0
M  V30 27 S -3.747881 -1.677794 3.827068 0
M  V30 28 O -3.728797 -2.880557 4.768369 0
M  V30 29 O -5.137884 -1.029767 4.028127 0
M  V30 30 C -2.601973 -0.494516 4.414635 0
M  V30 31 C -2.828016 -0.317795 5.916018 0
M  V30 32 C -1.193555 -1.055120 4.266882 0
M  V30 33 C -3.296167 2.199143 1.345479 0
M  V30 34 C -4.509827 2.856879 1.226954 0
M  V30 35 C -4.148306 4.194867 1.441406 0
M  V30 36 N -2.817456 4.295191 1.667555 0
M  V30 37 C -2.277039 3.069858 1.611551 0
M  V30 38 N -1.018519 2.572661 1.756610 0
M  V30 39 H 4.386841 -1.614325 3.035455 0
M  V30 40 H 5.154653 -0.339230 2.055797 0
M  V30 41 H 4.535408 -1.890408 1.285628 0
M  V30 42 H 4.173273 -1.006518 -0.502580 0
M  V30 43 H 2.371241 0.598560 -4.452230 0
M  V30 44 H 1.473799 -0.857366 -3.980510 0
M  V30 45 H 3.465452 -0.540058 -6.155256 0
M  V30 46 H 2.109814 -1.650686 -5.991841 0
M  V30 47 H 4.773010 -2.391884 -5.918045 0
M  V30 48 H 2.314015 -3.584959 -5.134453 0
M  V30 49 H 3.949179 -3.005425 -3.117459 0
M  V30 50 H 5.554132 -2.857758 -3.851440 0
M  V30 51 H 5.141509 -1.076308 -2.267104 0
M  V30 52 H 5.174965 -0.313978 -3.938238 0
M  V30 53 H 0.820013 0.511952 -2.682217 0
M  V30 54 H -0.298357 1.011298 -0.650297 0
M  V30 55 H 0.998704 0.394233 2.675479 0
M  V30 56 H -4.981437 0.135904 0.652689 0
M  V30 57 H -3.732836 -1.605459 -1.159008 0
M  V30 58 H -3.291213 -3.973668 -1.300588 0
M  V30 59 H -3.024698 -5.264972 0.718730 0
M  V30 60 H -3.192035 -4.236784 2.861909 0
M  V30 61 H -2.678185 0.466823 3.921835 0
M  V30 62 H -3.043715 -1.281763 6.412557 0
M  V30 63 H -3.694188 0.391965 6.048403 0
M  V30 64 H -1.893768 0.089551 6.331350 0
M  V30 65 H -1.055026 -1.517331 3.282258 0
M  V30 66 H -0.462860 -0.244328 4.458390 0
M  V30 67 H -1.080673 -1.854215 5.028606 0
M  V30 68 H -5.486097 2.443030 1.020717 0
M  V30 69 H -4.816863 5.041996 1.432959 0
M  V30 70 H -2.306127 5.193016 1.854304 0
M  V30 END ATOM
M  V30 BEGIN BOND
M  V30 1 1 1 2
M  V30 2 1 2 3
M  V30 3 2 3 4
M  V30 4 1 4 5
M  V30 5 1 5 6
M  V30 6 1 6 7
M  V30 7 1 7 8
M  V30 8 1 8 9
M  V30 9 1 9 10
M  V30 10 1 9 11
M  V30 11 1 11 12
M  V30 12 2 5 13
M  V30 13 1 13 14
M  V30 14 2 14 15
M  V30 15 1 15 16
M  V30 16 1 16 17
M  V30 17 2 17 18
M  V30 18 1 18 19
M  V30 19 1 19 20
M  V30 20 1 20 21
M  V30 21 2 21 22
M  V30 22 1 22 23
M  V30 23 2 23 24
M  V30 24 1 24 25
M  V30 25 2 25 26
M  V30 26 1 26 27
M  V30 27 2 27 28
M  V30 28 2 27 29
M  V30 29 1 27 30
M  V30 30 1 30 31
M  V30 31 1 30 32
M  V30 32 2 19 33
M  V30 33 1 33 34
M  V30 34 2 34 35
M  V30 35 1 35 36
M  V30 36 1 36 37
M  V30 37 2 37 38
M  V30 38 1 15 3
M  V30 39 1 38 17
M  V30 40 1 12 6
M  V30 41 1 26 21
M  V30 42 1 37 33
M  V30 43 1 1 39
M  V30 44 1 1 40
M  V30 45 1 1 41
M  V30 46 1 4 42
M  V30 47 1 7 43
M  V30 48 1 7 44
M  V30 49 1 8 45
M  V30 50 1 8 46
M  V30 51 1 9 47
M  V30 52 1 10 48
M  V30 53 1 11 49
M  V30 54 1 11 50
M  V30 55 1 12 51
M  V30 56 1 12 52
M  V30 57 1 13 53
M  V30 58 1 14 54
M  V30 59 1 16 55
M  V30 60 1 20 56
M  V30 61 1 22 57
M  V30 62 1 23 58
M  V30 63 1 24 59
M  V30 64 1 25 60
M  V30 65 1 30 61
M  V30 66 1 31 62
M  V30 67 1 31 63
M  V30 68 1 31 64
M  V30 69 1 32 65
M  V30 70 1 32 66
M  V30 71 1 32 67
M  V30 72 1 34 68
M  V30 73 1 35 69
M  V30 74 1 36 70
M  V30 END BOND
M  V30 END CTAB
M  END
>  <Dataset>  (204) 
ChEMBL_Kinases

>  <Ligand_Instance>  (204) 
nan

>  <PDB_ID>  (204) 
nan

>  <Standardized_SMILES>  (204) 
COc1cc(N2CCC(O)CC2)ccc1Nc1nc(Nc2ccccc2S(=O)(=O)C(C)C)c2cc[nH]c2n1

>  <Name>  (204) 
nan

>  <Pocket>  (204) 
nan

>  <ATP_Site>  (204) 
nan

>  <Peripheral>  (204) 
nan

>  <Num_H_Atoms_ProtBoundConf>  (204) 
nan

>  <Num_Resolved_Atoms>  (204) 
nan

>  <Num_Not_Resolved_Atoms>  (204) 
nan

$$$$
CHEMBL3330408
     RDKit          3D

  0  0  0  0  0  0  0  0  0  0999 V3000
M  V30 BEGIN CTAB
M  V30 COUNTS 62 66 0 0 0
M  V30 BEGIN ATOM
M  V30 1 N 4.575290 2.629338 7.037825 0
M  V30 2 S 4.064134 1.276489 6.120257 0
M  V30 3 O 3.950995 0.078312 7.045178 0
M  V30 4 O 5.175192 0.941111 5.157531 0
M  V30 5 C 2.545336 1.511035 5.313767 0
M  V30 6 C 1.360131 1.174478 5.939141 0
M  V30 7 C 0.135906 1.363060 5.290915 0
M  V30 8 C 0.089922 1.888140 4.016508 0
M  V30 9 C 1.247091 2.233694 3.365144 0
M  V30 10 C 1.391315 2.797043 2.028036 0
M  V30 11 N 2.196483 3.825938 1.720576 0
M  V30 12 N 2.109195 4.105992 0.427529 0
M  V30 13 C 1.233332 3.266304 -0.185751 0
M  V30 14 C 0.776064 3.114559 -1.477858 0
M  V30 15 C -0.143742 2.108808 -1.703528 0
M  V30 16 C -0.588435 1.283939 -0.663922 0
M  V30 17 N -1.546202 0.293685 -1.097081 0
M  V30 18 C -0.901202 -0.913125 -1.499282 0
M  V30 19 O 0.361628 -0.794516 -1.367345 0
M  V30 20 C -1.723068 -2.048941 -1.977257 0
M  V30 21 C -2.880158 -2.359117 -1.113251 0
M  V30 22 C -2.921072 -3.174712 -0.004359 0
M  V30 23 C -4.032270 -3.431334 0.764462 0
M  V30 24 C -5.228104 -2.837345 0.425846 0
M  V30 25 C -5.305261 -2.000924 -0.665443 0
M  V30 26 C -4.146345 -1.805109 -1.371246 0
M  V30 27 N -1.042700 -3.196241 -2.348872 0
M  V30 28 C -0.146628 -3.890315 -1.533079 0
M  V30 29 C 1.073593 -4.425526 -2.280342 0
M  V30 30 C 0.703876 -4.739478 -3.690082 0
M  V30 31 C -0.750282 -5.154425 -3.750561 0
M  V30 32 C -1.673145 -4.033110 -3.309735 0
M  V30 33 C -0.129476 1.444105 0.606916 0
M  V30 34 C 0.789177 2.448922 0.830495 0
M  V30 35 C 2.449913 2.033757 4.037312 0
M  V30 36 H 5.628221 2.706058 7.067791 0
M  V30 37 H 4.255992 2.525716 8.020310 0
M  V30 38 H 1.412527 0.764047 6.937968 0
M  V30 39 H -0.799307 1.099726 5.778779 0
M  V30 40 H -0.815645 2.063236 3.451033 0
M  V30 41 H 2.633069 4.860327 -0.059573 0
M  V30 42 H 1.150193 3.778080 -2.248317 0
M  V30 43 H -0.490864 2.006978 -2.730444 0
M  V30 44 H -2.603579 0.396762 -1.132388 0
M  V30 45 H -2.210452 -1.657435 -2.940364 0
M  V30 46 H -2.019510 -3.656580 0.306542 0
M  V30 47 H -3.980385 -4.081541 1.615894 0
M  V30 48 H -6.095631 -3.032487 1.018918 0
M  V30 49 H -6.218658 -1.511505 -0.971257 0
M  V30 50 H -4.225308 -1.135096 -2.238804 0
M  V30 51 H 0.157383 -3.410141 -0.580248 0
M  V30 52 H -0.661304 -4.846134 -1.206550 0
M  V30 53 H 1.899296 -3.695035 -2.304824 0
M  V30 54 H 1.458324 -5.331173 -1.769550 0
M  V30 55 H 1.306282 -5.581602 -4.060012 0
M  V30 56 H 0.902126 -3.851815 -4.331574 0
M  V30 57 H -0.872905 -5.997101 -3.029606 0
M  V30 58 H -1.043313 -5.431345 -4.784363 0
M  V30 59 H -1.916994 -3.432356 -4.210330 0
M  V30 60 H -2.633753 -4.452748 -2.946686 0
M  V30 61 H -0.507315 0.783004 1.355106 0
M  V30 62 H 3.419843 2.283431 3.587812 0
M  V30 END ATOM
M  V30 BEGIN BOND
M  V30 1 1 1 2
M  V30 2 2 2 3
M  V30 3 2 2 4
M  V30 4 1 2 5
M  V30 5 2 5 6
M  V30 6 1 6 7
M  V30 7 2 7 8
M  V30 8 1 8 9
M  V30 9 1 9 10
M  V30 10 2 10 11
M  V30 11 1 11 12
M  V30 12 1 12 13
M  V30 13 2 13 14
M  V30 14 1 14 15
M  V30 15 2 15 16
M  V30 16 1 16 17
M  V30 17 1 17 18
M  V30 18 2 18 19
M  V30 19 1 18 20
M  V30 20 1 20 21
M  V30 21 2 21 22
M  V30 22 1 22 23
M  V30 23 2 23 24
M  V30 24 1 24 25
M  V30 25 2 25 26
M  V30 26 1 20 27
M  V30 27 1 27 28
M  V30 28 1 28 29
M  V30 29 1 29 30
M  V30 30 1 30 31
M  V30 31 1 31 32
M  V30 32 1 16 33
M  V30 33 2 33 34
M  V30 34 2 9 35
M  V30 35 1 35 5
M  V30 36 1 34 10
M  V30 37 1 34 13
M  V30 38 1 26 21
M  V30 39 1 32 27
M  V30 40 1 1 36
M  V30 41 1 1 37
M  V30 42 1 6 38
M  V30 43 1 7 39
M  V30 44 1 8 40
M  V30 45 1 12 41
M  V30 46 1 14 42
M  V30 47 1 15 43
M  V30 48 1 17 44
M  V30 49 1 20 45
M  V30 50 1 22 46
M  V30 51 1 23 47
M  V30 52 1 24 48
M  V30 53 1 25 49
M  V30 54 1 26 50
M  V30 55 1 28 51
M  V30 56 1 28 52
M  V30 57 1 29 53
M  V30 58 1 29 54
M  V30 59 1 30 55
M  V30 60 1 30 56
M  V30 61 1 31 57
M  V30 62 1 31 58
M  V30 63 1 32 59
M  V30 64 1 32 60
M  V30 65 1 33 61
M  V30 66 1 35 62
M  V30 END BOND
M  V30 END CTAB
M  END
>  <Dataset>  (205) 
ChEMBL_Kinases

>  <Ligand_Instance>  (205) 
nan

>  <PDB_ID>  (205) 
nan

>  <Standardized_SMILES>  (205) 
NS(=O)(=O)c1cccc(-c2n[nH]c3ccc(NC(=O)C(c4ccccc4)N4CCCCC4)cc23)c1

>  <Name>  (205) 
nan

>  <Pocket>  (205) 
nan

>  <ATP_Site>  (205) 
nan

>  <Peripheral>  (205) 
nan

>  <Num_H_Atoms_ProtBoundConf>  (205) 
nan

>  <Num_Resolved_Atoms>  (205) 
nan

>  <Num_Not_Resolved_Atoms>  (205) 
nan

$$$$
CHEMBL3330407
     RDKit          3D

  0  0  0  0  0  0  0  0  0  0999 V3000
M  V30 BEGIN CTAB
M  V30 COUNTS 59 63 0 0 0
M  V30 BEGIN ATOM
M  V30 1 N 7.885736 -1.950162 2.914848 0
M  V30 2 S 6.507699 -2.587701 2.077911 0
M  V30 3 O 6.327617 -3.998647 2.584579 0
M  V30 4 O 6.766429 -2.649040 0.616149 0
M  V30 5 C 5.068671 -1.667416 2.453748 0
M  V30 6 C 4.304469 -2.062816 3.532620 0
M  V30 7 C 3.167586 -1.411245 3.904443 0
M  V30 8 C 2.719090 -0.296931 3.198314 0
M  V30 9 C 3.488790 0.105987 2.106959 0
M  V30 10 C 3.073911 1.265186 1.323789 0
M  V30 11 N 3.889076 2.268737 0.904567 0
M  V30 12 N 3.196236 3.168871 0.213752 0
M  V30 13 C 1.902904 2.790213 0.154065 0
M  V30 14 C 0.796007 3.392996 -0.451129 0
M  V30 15 C -0.416890 2.709016 -0.311281 0
M  V30 16 C -0.492995 1.520338 0.381758 0
M  V30 17 N -1.805649 0.926490 0.444865 0
M  V30 18 C -2.105443 0.028532 -0.617145 0
M  V30 19 O -1.270731 -0.209161 -1.528685 0
M  V30 20 C -3.413461 -0.619222 -0.631528 0
M  V30 21 C -3.661306 -1.513186 0.546478 0
M  V30 22 C -2.914057 -1.700804 1.679356 0
M  V30 23 C -3.346585 -2.582356 2.644157 0
M  V30 24 C -4.508572 -3.311832 2.553696 0
M  V30 25 C -5.259253 -3.121787 1.412678 0
M  V30 26 C -4.848671 -2.245013 0.431580 0
M  V30 27 N -3.642695 -1.442355 -1.795450 0
M  V30 28 C -2.707544 -2.505217 -1.943855 0
M  V30 29 C -2.120152 -2.444696 -3.323930 0
M  V30 30 C -2.782718 -1.272008 -3.980105 0
M  V30 31 C -3.794697 -0.734115 -3.020920 0
M  V30 32 C 0.617573 0.950587 0.968076 0
M  V30 33 C 1.825229 1.603566 0.845611 0
M  V30 34 C 4.644277 -0.564560 1.737453 0
M  V30 35 H 7.778097 -2.134900 3.942494 0
M  V30 36 H 8.064284 -0.956662 2.706325 0
M  V30 37 H 4.550415 -2.907902 4.152404 0
M  V30 38 H 2.552622 -1.720115 4.763397 0
M  V30 39 H 1.814404 0.211374 3.505277 0
M  V30 40 H 3.634270 4.033190 -0.205769 0
M  V30 41 H 0.948365 4.323394 -0.973055 0
M  V30 42 H -1.235080 3.223129 -0.799726 0
M  V30 43 H -2.433137 1.188808 1.241511 0
M  V30 44 H -4.215834 0.140060 -0.626785 0
M  V30 45 H -2.017630 -1.111180 1.699029 0
M  V30 46 H -2.703998 -2.686238 3.525372 0
M  V30 47 H -4.747611 -3.974822 3.375100 0
M  V30 48 H -6.179867 -3.693115 1.329856 0
M  V30 49 H -5.519404 -2.180047 -0.415885 0
M  V30 50 H -3.297502 -3.465700 -1.873619 0
M  V30 51 H -1.943107 -2.508245 -1.139113 0
M  V30 52 H -1.002231 -2.345476 -3.285322 0
M  V30 53 H -2.307021 -3.396202 -3.895347 0
M  V30 54 H -3.241923 -1.618306 -4.944590 0
M  V30 55 H -2.080357 -0.442588 -4.210169 0
M  V30 56 H -3.760527 0.367128 -2.882754 0
M  V30 57 H -4.835058 -0.969863 -3.392808 0
M  V30 58 H 0.512512 0.018087 1.501582 0
M  V30 59 H 5.244309 -0.248993 0.884718 0
M  V30 END ATOM
M  V30 BEGIN BOND
M  V30 1 1 1 2
M  V30 2 2 2 3
M  V30 3 2 2 4
M  V30 4 1 2 5
M  V30 5 2 5 6
M  V30 6 1 6 7
M  V30 7 2 7 8
M  V30 8 1 8 9
M  V30 9 1 9 10
M  V30 10 2 10 11
M  V30 11 1 11 12
M  V30 12 1 12 13
M  V30 13 2 13 14
M  V30 14 1 14 15
M  V30 15 2 15 16
M  V30 16 1 16 17
M  V30 17 1 17 18
M  V30 18 2 18 19
M  V30 19 1 18 20
M  V30 20 1 20 21
M  V30 21 2 21 22
M  V30 22 1 22 23
M  V30 23 2 23 24
M  V30 24 1 24 25
M  V30 25 2 25 26
M  V30 26 1 20 27
M  V30 27 1 27 28
M  V30 28 1 28 29
M  V30 29 1 29 30
M  V30 30 1 30 31
M  V30 31 1 16 32
M  V30 32 2 32 33
M  V30 33 2 9 34
M  V30 34 1 34 5
M  V30 35 1 33 10
M  V30 36 1 33 13
M  V30 37 1 26 21
M  V30 38 1 31 27
M  V30 39 1 1 35
M  V30 40 1 1 36
M  V30 41 1 6 37
M  V30 42 1 7 38
M  V30 43 1 8 39
M  V30 44 1 12 40
M  V30 45 1 14 41
M  V30 46 1 15 42
M  V30 47 1 17 43
M  V30 48 1 20 44
M  V30 49 1 22 45
M  V30 50 1 23 46
M  V30 51 1 24 47
M  V30 52 1 25 48
M  V30 53 1 26 49
M  V30 54 1 28 50
M  V30 55 1 28 51
M  V30 56 1 29 52
M  V30 57 1 29 53
M  V30 58 1 30 54
M  V30 59 1 30 55
M  V30 60 1 31 56
M  V30 61 1 31 57
M  V30 62 1 32 58
M  V30 63 1 34 59
M  V30 END BOND
M  V30 END CTAB
M  END
>  <Dataset>  (206) 
ChEMBL_Kinases

>  <Ligand_Instance>  (206) 
nan

>  <PDB_ID>  (206) 
nan

>  <Standardized_SMILES>  (206) 
NS(=O)(=O)c1cccc(-c2n[nH]c3ccc(NC(=O)C(c4ccccc4)N4CCCC4)cc23)c1

>  <Name>  (206) 
nan

>  <Pocket>  (206) 
nan

>  <ATP_Site>  (206) 
nan

>  <Peripheral>  (206) 
nan

>  <Num_H_Atoms_ProtBoundConf>  (206) 
nan

>  <Num_Resolved_Atoms>  (206) 
nan

>  <Num_Not_Resolved_Atoms>  (206) 
nan

$$$$
CHEMBL3330406
     RDKit          3D

  0  0  0  0  0  0  0  0  0  0999 V3000
M  V30 BEGIN CTAB
M  V30 COUNTS 55 58 0 0 0
M  V30 BEGIN ATOM
M  V30 1 C 0.753872 -1.983438 5.050124 0
M  V30 2 N 1.675258 -2.911834 4.362828 0
M  V30 3 C 3.041674 -2.426664 4.515761 0
M  V30 4 C 1.277534 -3.045263 2.977136 0 CFG=1
M  V30 5 C 1.398524 -1.769891 2.211038 0
M  V30 6 O 1.776695 -0.621033 2.544508 0
M  V30 7 N 1.010955 -1.896977 0.859488 0
M  V30 8 C 1.043682 -0.809988 -0.061106 0
M  V30 9 C 2.248369 -0.689033 -0.732128 0
M  V30 10 C 2.460931 0.307331 -1.662506 0
M  V30 11 C 1.409248 1.174490 -1.886797 0
M  V30 12 N 1.258345 2.239334 -2.702167 0
M  V30 13 N 0.029136 2.752123 -2.547303 0
M  V30 14 C -0.664950 2.054012 -1.637330 0
M  V30 15 C -2.038758 2.317427 -1.206295 0
M  V30 16 C -2.435354 2.309956 0.117387 0
M  V30 17 C -3.768023 2.571021 0.456401 0
M  V30 18 C -4.693101 2.838050 -0.540107 0
M  V30 19 C -4.296604 2.845086 -1.857201 0
M  V30 20 S -5.444092 3.180435 -3.150825 0
M  V30 21 N -5.522736 4.856490 -3.507518 0
M  V30 22 O -6.794126 2.691853 -2.693242 0
M  V30 23 O -5.071749 2.359451 -4.344870 0
M  V30 24 C -2.969035 2.586484 -2.216133 0
M  V30 25 C 0.204410 1.063862 -1.224291 0
M  V30 26 C -0.005831 0.065532 -0.293372 0
M  V30 27 C 1.784602 -4.216402 2.277760 0
M  V30 28 C 3.053160 -4.720397 2.277375 0
M  V30 29 C 3.502647 -5.834338 1.602667 0
M  V30 30 C 2.592420 -6.532240 0.838703 0
M  V30 31 C 1.283150 -6.120826 0.760560 0
M  V30 32 C 0.935314 -4.993377 1.474188 0
M  V30 33 H -0.024042 -1.619664 4.364561 0
M  V30 34 H 1.289728 -1.111297 5.470666 0
M  V30 35 H 0.212558 -2.495991 5.878003 0
M  V30 36 H 3.461300 -1.989253 3.603651 0
M  V30 37 H 3.012147 -1.597086 5.287912 0
M  V30 38 H 3.667702 -3.205676 4.998431 0
M  V30 39 H 0.147977 -3.198371 3.044755 0
M  V30 40 H 0.659358 -2.702354 0.296964 0
M  V30 41 H 3.096514 -1.358227 -0.576421 0
M  V30 42 H 3.381692 0.440447 -2.209244 0
M  V30 43 H 2.027273 2.569496 -3.341149 0
M  V30 44 H -1.701187 2.099627 0.885263 0
M  V30 45 H -4.040549 2.556695 1.497980 0
M  V30 46 H -5.722046 3.039155 -0.271465 0
M  V30 47 H -6.093713 5.359571 -2.808887 0
M  V30 48 H -4.543074 5.238593 -3.444904 0
M  V30 49 H -2.701411 2.603459 -3.280215 0
M  V30 50 H -0.916154 -0.089682 0.266815 0
M  V30 51 H 3.810931 -4.215543 2.856423 0
M  V30 52 H 4.530405 -6.166250 1.657549 0
M  V30 53 H 2.927314 -7.407170 0.303552 0
M  V30 54 H 0.548594 -6.642385 0.174048 0
M  V30 55 H -0.121804 -4.690263 1.390226 0
M  V30 END ATOM
M  V30 BEGIN BOND
M  V30 1 1 1 2
M  V30 2 1 2 3
M  V30 3 1 2 4
M  V30 4 1 4 5
M  V30 5 2 5 6
M  V30 6 1 5 7
M  V30 7 1 7 8
M  V30 8 2 8 9
M  V30 9 1 9 10
M  V30 10 2 10 11
M  V30 11 1 11 12
M  V30 12 1 12 13
M  V30 13 2 13 14
M  V30 14 1 14 15
M  V30 15 2 15 16
M  V30 16 1 16 17
M  V30 17 2 17 18
M  V30 18 1 18 19
M  V30 19 1 19 20
M  V30 20 1 20 21
M  V30 21 2 20 22
M  V30 22 2 20 23
M  V30 23 2 19 24
M  V30 24 1 14 25
M  V30 25 2 25 26
M  V30 26 1 4 27
M  V30 27 2 27 28
M  V30 28 1 28 29
M  V30 29 2 29 30
M  V30 30 1 30 31
M  V30 31 2 31 32
M  V30 32 1 26 8
M  V30 33 1 32 27
M  V30 34 1 25 11
M  V30 35 1 24 15
M  V30 36 1 1 33
M  V30 37 1 1 34
M  V30 38 1 1 35
M  V30 39 1 3 36
M  V30 40 1 3 37
M  V30 41 1 3 38
M  V30 42 1 4 39 CFG=1
M  V30 43 1 7 40
M  V30 44 1 9 41
M  V30 45 1 10 42
M  V30 46 1 12 43
M  V30 47 1 16 44
M  V30 48 1 17 45
M  V30 49 1 18 46
M  V30 50 1 21 47
M  V30 51 1 21 48
M  V30 52 1 24 49
M  V30 53 1 26 50
M  V30 54 1 28 51
M  V30 55 1 29 52
M  V30 56 1 30 53
M  V30 57 1 31 54
M  V30 58 1 32 55
M  V30 END BOND
M  V30 END CTAB
M  END
>  <Dataset>  (207) 
ChEMBL_Kinases

>  <Ligand_Instance>  (207) 
nan

>  <PDB_ID>  (207) 
nan

>  <Standardized_SMILES>  (207) 
CN(C)[C@@H](C(=O)Nc1ccc2[nH]nc(-c3cccc(S(N)(=O)=O)c3)c2c1)c1ccccc1

>  <Name>  (207) 
nan

>  <Pocket>  (207) 
nan

>  <ATP_Site>  (207) 
nan

>  <Peripheral>  (207) 
nan

>  <Num_H_Atoms_ProtBoundConf>  (207) 
nan

>  <Num_Resolved_Atoms>  (207) 
nan

>  <Num_Not_Resolved_Atoms>  (207) 
nan

$$$$
CHEMBL3330405
     RDKit          3D

  0  0  0  0  0  0  0  0  0  0999 V3000
M  V30 BEGIN CTAB
M  V30 COUNTS 55 58 0 0 0
M  V30 BEGIN ATOM
M  V30 1 C 1.522590 -1.827204 4.283459 0
M  V30 2 N 2.441508 -2.646679 3.571777 0
M  V30 3 C 2.781307 -3.864025 4.280694 0
M  V30 4 C 2.189887 -2.850751 2.183710 0 CFG=2
M  V30 5 C 2.150901 -1.531351 1.508960 0
M  V30 6 O 2.289387 -0.349456 1.910533 0
M  V30 7 N 1.910597 -1.512430 0.108303 0
M  V30 8 C 1.893666 -0.174509 -0.444885 0
M  V30 9 C 3.129937 0.279029 -0.876626 0
M  V30 10 C 3.239097 1.556228 -1.429321 0
M  V30 11 C 2.128248 2.362139 -1.546091 0
M  V30 12 N 1.845559 3.593745 -2.002753 0
M  V30 13 N 0.542319 3.866909 -1.860096 0
M  V30 14 C -0.080938 2.801624 -1.294467 0
M  V30 15 C -1.512667 2.796042 -1.010606 0
M  V30 16 C -2.043106 3.921256 -0.422019 0
M  V30 17 C -3.397945 4.005616 -0.115020 0
M  V30 18 C -4.225678 2.925908 -0.412606 0
M  V30 19 C -3.716398 1.797730 -0.998238 0
M  V30 20 S -4.644042 0.380872 -1.420508 0
M  V30 21 N -5.208151 0.630898 -3.054375 0
M  V30 22 O -5.861322 0.314965 -0.552902 0
M  V30 23 O -3.814095 -0.865683 -1.366313 0
M  V30 24 C -2.355834 1.728695 -1.299806 0
M  V30 25 C 0.919328 1.868213 -1.102933 0
M  V30 26 C 0.765640 0.614025 -0.551053 0
M  V30 27 C 1.100538 -3.755341 1.837316 0
M  V30 28 C 1.250747 -4.736410 0.845546 0
M  V30 29 C 0.302162 -5.640896 0.432182 0
M  V30 30 C -0.924831 -5.582383 1.052675 0
M  V30 31 C -1.167727 -4.658740 2.033129 0
M  V30 32 C -0.162658 -3.786746 2.389880 0
M  V30 33 H 2.151158 -1.130415 4.918814 0
M  V30 34 H 0.941185 -1.164561 3.637070 0
M  V30 35 H 0.892942 -2.369955 5.036967 0
M  V30 36 H 3.174999 -4.645004 3.612598 0
M  V30 37 H 3.570933 -3.579134 5.027433 0
M  V30 38 H 1.899514 -4.182825 4.863504 0
M  V30 39 H 3.137427 -3.335591 1.784583 0
M  V30 40 H 1.753943 -2.362293 -0.511632 0
M  V30 41 H 4.052911 -0.271788 -0.829027 0
M  V30 42 H 4.153046 2.006231 -1.796208 0
M  V30 43 H 2.609234 4.197045 -2.403846 0
M  V30 44 H -1.492050 4.816395 -0.148281 0
M  V30 45 H -3.880098 4.855904 0.346013 0
M  V30 46 H -5.288521 2.892190 -0.214614 0
M  V30 47 H -5.456725 1.653136 -3.124846 0
M  V30 48 H -6.041228 0.048064 -3.261456 0
M  V30 49 H -1.888514 0.875119 -1.759288 0
M  V30 50 H -0.164914 0.199458 -0.195635 0
M  V30 51 H 2.231183 -4.788226 0.345004 0
M  V30 52 H 0.543910 -6.347774 -0.343946 0
M  V30 53 H -1.709453 -6.262670 0.774589 0
M  V30 54 H -2.136585 -4.625216 2.511167 0
M  V30 55 H -0.397239 -3.080315 3.160740 0
M  V30 END ATOM
M  V30 BEGIN BOND
M  V30 1 1 1 2
M  V30 2 1 2 3
M  V30 3 1 2 4
M  V30 4 1 4 5
M  V30 5 2 5 6
M  V30 6 1 5 7
M  V30 7 1 7 8
M  V30 8 2 8 9
M  V30 9 1 9 10
M  V30 10 2 10 11
M  V30 11 1 11 12
M  V30 12 1 12 13
M  V30 13 2 13 14
M  V30 14 1 14 15
M  V30 15 2 15 16
M  V30 16 1 16 17
M  V30 17 2 17 18
M  V30 18 1 18 19
M  V30 19 1 19 20
M  V30 20 1 20 21
M  V30 21 2 20 22
M  V30 22 2 20 23
M  V30 23 2 19 24
M  V30 24 1 14 25
M  V30 25 2 25 26
M  V30 26 1 4 27
M  V30 27 2 27 28
M  V30 28 1 28 29
M  V30 29 2 29 30
M  V30 30 1 30 31
M  V30 31 2 31 32
M  V30 32 1 26 8
M  V30 33 1 32 27
M  V30 34 1 25 11
M  V30 35 1 24 15
M  V30 36 1 1 33
M  V30 37 1 1 34
M  V30 38 1 1 35
M  V30 39 1 3 36
M  V30 40 1 3 37
M  V30 41 1 3 38
M  V30 42 1 4 39 CFG=3
M  V30 43 1 7 40
M  V30 44 1 9 41
M  V30 45 1 10 42
M  V30 46 1 12 43
M  V30 47 1 16 44
M  V30 48 1 17 45
M  V30 49 1 18 46
M  V30 50 1 21 47
M  V30 51 1 21 48
M  V30 52 1 24 49
M  V30 53 1 26 50
M  V30 54 1 28 51
M  V30 55 1 29 52
M  V30 56 1 30 53
M  V30 57 1 31 54
M  V30 58 1 32 55
M  V30 END BOND
M  V30 END CTAB
M  END
>  <Dataset>  (208) 
ChEMBL_Kinases

>  <Ligand_Instance>  (208) 
nan

>  <PDB_ID>  (208) 
nan

>  <Standardized_SMILES>  (208) 
CN(C)[C@H](C(=O)Nc1ccc2[nH]nc(-c3cccc(S(N)(=O)=O)c3)c2c1)c1ccccc1

>  <Name>  (208) 
nan

>  <Pocket>  (208) 
nan

>  <ATP_Site>  (208) 
nan

>  <Peripheral>  (208) 
nan

>  <Num_H_Atoms_ProtBoundConf>  (208) 
nan

>  <Num_Resolved_Atoms>  (208) 
nan

>  <Num_Not_Resolved_Atoms>  (208) 
nan

$$$$
CHEMBL3330404
     RDKit          3D

  0  0  0  0  0  0  0  0  0  0999 V3000
M  V30 BEGIN CTAB
M  V30 COUNTS 54 57 0 0 0
M  V30 BEGIN ATOM
M  V30 1 C 3.854767 -2.862917 4.413027 0
M  V30 2 C 3.788912 -3.416399 2.986546 0
M  V30 3 O 2.543743 -3.124648 2.499279 0
M  V30 4 C 2.296059 -3.554371 1.201506 0
M  V30 5 C 2.144128 -2.345638 0.351552 0
M  V30 6 O 1.913814 -2.215343 -0.900147 0
M  V30 7 N 2.251868 -1.019566 0.907133 0
M  V30 8 C 2.117156 0.179182 0.150760 0
M  V30 9 C 3.168478 0.797958 -0.449275 0
M  V30 10 C 2.957874 1.964011 -1.170149 0
M  V30 11 C 1.682675 2.487923 -1.273270 0
M  V30 12 N 1.178417 3.580143 -1.891104 0
M  V30 13 N -0.120863 3.618135 -1.672914 0
M  V30 14 C -0.535725 2.594373 -0.927844 0
M  V30 15 C -1.905197 2.327568 -0.497822 0
M  V30 16 C -2.212116 1.960072 0.796767 0
M  V30 17 C -3.503780 1.698494 1.240948 0
M  V30 18 C -4.540147 1.812309 0.336834 0
M  V30 19 C -4.242587 2.178368 -0.956323 0
M  V30 20 S -5.651948 2.288921 -2.013666 0
M  V30 21 N -6.305754 3.881336 -1.971785 0
M  V30 22 O -6.709692 1.326019 -1.604624 0
M  V30 23 O -5.197185 2.052893 -3.438455 0
M  V30 24 C -2.959599 2.436907 -1.392527 0
M  V30 25 C 0.615020 1.858260 -0.663082 0
M  V30 26 C 0.819239 0.697614 0.055460 0
M  V30 27 C 1.135538 -4.446382 1.097301 0
M  V30 28 C 1.163326 -5.410951 2.113473 0
M  V30 29 C 0.154792 -6.376239 2.218678 0
M  V30 30 C -0.889214 -6.395045 1.319550 0
M  V30 31 C -0.904084 -5.440372 0.324922 0
M  V30 32 C 0.081108 -4.484728 0.209102 0
M  V30 33 H 3.743674 -3.652715 5.179645 0
M  V30 34 H 4.822892 -2.354742 4.608700 0
M  V30 35 H 3.077531 -2.073448 4.564450 0
M  V30 36 H 4.544673 -2.809532 2.417696 0
M  V30 37 H 4.059391 -4.467956 3.058816 0
M  V30 38 H 3.218803 -4.059756 0.850789 0
M  V30 39 H 2.443422 -0.881874 1.942874 0
M  V30 40 H 4.136345 0.329819 -0.325046 0
M  V30 41 H 3.805245 2.441213 -1.639742 0
M  V30 42 H 1.810781 4.221669 -2.427629 0
M  V30 43 H -1.443207 1.857861 1.536749 0
M  V30 44 H -3.719748 1.411897 2.260958 0
M  V30 45 H -5.540721 1.604298 0.701868 0
M  V30 46 H -7.336906 3.832458 -1.996902 0
M  V30 47 H -5.929859 4.377725 -1.133221 0
M  V30 48 H -2.803797 2.716579 -2.412315 0
M  V30 49 H -0.019943 0.197763 0.538288 0
M  V30 50 H 1.911923 -5.526218 2.890558 0
M  V30 51 H 0.134555 -7.135457 2.981470 0
M  V30 52 H -1.690148 -7.130200 1.370779 0
M  V30 53 H -1.680709 -5.370318 -0.430335 0
M  V30 54 H 0.157740 -3.700407 -0.529602 0
M  V30 END ATOM
M  V30 BEGIN BOND
M  V30 1 1 1 2
M  V30 2 1 2 3
M  V30 3 1 3 4
M  V30 4 1 4 5
M  V30 5 2 5 6
M  V30 6 1 5 7
M  V30 7 1 7 8
M  V30 8 2 8 9
M  V30 9 1 9 10
M  V30 10 2 10 11
M  V30 11 1 11 12
M  V30 12 1 12 13
M  V30 13 2 13 14
M  V30 14 1 14 15
M  V30 15 2 15 16
M  V30 16 1 16 17
M  V30 17 2 17 18
M  V30 18 1 18 19
M  V30 19 1 19 20
M  V30 20 1 20 21
M  V30 21 2 20 22
M  V30 22 2 20 23
M  V30 23 2 19 24
M  V30 24 1 14 25
M  V30 25 2 25 26
M  V30 26 1 4 27
M  V30 27 2 27 28
M  V30 28 1 28 29
M  V30 29 2 29 30
M  V30 30 1 30 31
M  V30 31 2 31 32
M  V30 32 1 26 8
M  V30 33 1 32 27
M  V30 34 1 25 11
M  V30 35 1 24 15
M  V30 36 1 1 33
M  V30 37 1 1 34
M  V30 38 1 1 35
M  V30 39 1 2 36
M  V30 40 1 2 37
M  V30 41 1 4 38
M  V30 42 1 7 39
M  V30 43 1 9 40
M  V30 44 1 10 41
M  V30 45 1 12 42
M  V30 46 1 16 43
M  V30 47 1 17 44
M  V30 48 1 18 45
M  V30 49 1 21 46
M  V30 50 1 21 47
M  V30 51 1 24 48
M  V30 52 1 26 49
M  V30 53 1 28 50
M  V30 54 1 29 51
M  V30 55 1 30 52
M  V30 56 1 31 53
M  V30 57 1 32 54
M  V30 END BOND
M  V30 END CTAB
M  END
>  <Dataset>  (209) 
ChEMBL_Kinases

>  <Ligand_Instance>  (209) 
nan

>  <PDB_ID>  (209) 
nan

>  <Standardized_SMILES>  (209) 
CCOC(C(=O)Nc1ccc2[nH]nc(-c3cccc(S(N)(=O)=O)c3)c2c1)c1ccccc1

>  <Name>  (209) 
nan

>  <Pocket>  (209) 
nan

>  <ATP_Site>  (209) 
nan

>  <Peripheral>  (209) 
nan

>  <Num_H_Atoms_ProtBoundConf>  (209) 
nan

>  <Num_Resolved_Atoms>  (209) 
nan

>  <Num_Not_Resolved_Atoms>  (209) 
nan

$$$$
CHEMBL3330403
     RDKit          3D

  0  0  0  0  0  0  0  0  0  0999 V3000
M  V30 BEGIN CTAB
M  V30 COUNTS 51 54 0 0 0
M  V30 BEGIN ATOM
M  V30 1 C -1.801496 -5.674667 1.683533 0
M  V30 2 O -0.556383 -5.009373 1.652907 0
M  V30 3 C -0.668380 -4.019748 0.692604 0 CFG=1
M  V30 4 C -0.326272 -2.671863 1.145078 0
M  V30 5 O -0.424721 -1.766406 0.280621 0
M  V30 6 N 0.093267 -2.318219 2.437598 0
M  V30 7 C 0.446492 -1.055971 2.978220 0
M  V30 8 C 0.829503 -0.978311 4.297524 0
M  V30 9 C 1.184606 0.206796 4.888527 0
M  V30 10 C 1.178226 1.396477 4.190170 0
M  V30 11 N 1.471049 2.680920 4.502902 0
M  V30 12 N 1.281121 3.414243 3.410267 0
M  V30 13 C 0.870995 2.639451 2.390488 0
M  V30 14 C 0.565040 3.101646 1.038601 0
M  V30 15 C 1.467129 3.994238 0.447827 0
M  V30 16 C 1.239785 4.470005 -0.824838 0
M  V30 17 C 0.139461 4.102822 -1.568084 0
M  V30 18 C -0.754263 3.216150 -0.978015 0
M  V30 19 S -2.206813 2.662248 -1.818935 0
M  V30 20 N -3.506532 3.734583 -1.473171 0
M  V30 21 O -1.971540 2.645421 -3.298915 0
M  V30 22 O -2.549171 1.260081 -1.406083 0
M  V30 23 C -0.527669 2.748398 0.277398 0
M  V30 24 C 0.798055 1.344395 2.866469 0
M  V30 25 C 0.453551 0.150381 2.318234 0
M  V30 26 C 0.217690 -4.330191 -0.483541 0
M  V30 27 C 1.485247 -4.744268 -0.114930 0
M  V30 28 C 2.437995 -5.073678 -1.077089 0
M  V30 29 C 2.066209 -4.970126 -2.405920 0
M  V30 30 C 0.821444 -4.563550 -2.771551 0
M  V30 31 C -0.132740 -4.233825 -1.820292 0
M  V30 32 H -2.593590 -4.932525 1.951130 0
M  V30 33 H -2.045134 -6.027002 0.674959 0
M  V30 34 H -1.818572 -6.491032 2.433185 0
M  V30 35 H -1.706721 -4.098914 0.281660 0
M  V30 36 H 0.133908 -3.157204 3.058602 0
M  V30 37 H 0.851587 -1.886717 4.892037 0
M  V30 38 H 1.472600 0.183346 5.927036 0
M  V30 39 H 1.782880 2.960136 5.454294 0
M  V30 40 H 2.378354 4.357467 0.943326 0
M  V30 41 H 1.908857 5.167429 -1.334818 0
M  V30 42 H -0.061608 4.462103 -2.568905 0
M  V30 43 H -4.367345 3.156553 -1.353872 0
M  V30 44 H -3.607964 4.397041 -2.256642 0
M  V30 45 H -1.220949 2.060220 0.736052 0
M  V30 46 H 0.168553 0.182568 1.285209 0
M  V30 47 H 1.817014 -4.839033 0.909929 0
M  V30 48 H 3.435105 -5.399388 -0.785134 0
M  V30 49 H 2.759832 -5.211258 -3.196002 0
M  V30 50 H 0.494188 -4.470227 -3.791929 0
M  V30 51 H -1.154178 -3.898328 -1.993059 0
M  V30 END ATOM
M  V30 BEGIN BOND
M  V30 1 1 1 2
M  V30 2 1 2 3
M  V30 3 1 3 4
M  V30 4 2 4 5
M  V30 5 1 4 6
M  V30 6 1 6 7
M  V30 7 2 7 8
M  V30 8 1 8 9
M  V30 9 2 9 10
M  V30 10 1 10 11
M  V30 11 1 11 12
M  V30 12 2 12 13
M  V30 13 1 13 14
M  V30 14 2 14 15
M  V30 15 1 15 16
M  V30 16 2 16 17
M  V30 17 1 17 18
M  V30 18 1 18 19
M  V30 19 1 19 20
M  V30 20 2 19 21
M  V30 21 2 19 22
M  V30 22 2 18 23
M  V30 23 1 13 24
M  V30 24 2 24 25
M  V30 25 1 3 26
M  V30 26 2 26 27
M  V30 27 1 27 28
M  V30 28 2 28 29
M  V30 29 1 29 30
M  V30 30 2 30 31
M  V30 31 1 25 7
M  V30 32 1 31 26
M  V30 33 1 24 10
M  V30 34 1 23 14
M  V30 35 1 1 32
M  V30 36 1 1 33
M  V30 37 1 1 34
M  V30 38 1 3 35 CFG=3
M  V30 39 1 6 36
M  V30 40 1 8 37
M  V30 41 1 9 38
M  V30 42 1 11 39
M  V30 43 1 15 40
M  V30 44 1 16 41
M  V30 45 1 17 42
M  V30 46 1 20 43
M  V30 47 1 20 44
M  V30 48 1 23 45
M  V30 49 1 25 46
M  V30 50 1 27 47
M  V30 51 1 28 48
M  V30 52 1 29 49
M  V30 53 1 30 50
M  V30 54 1 31 51
M  V30 END BOND
M  V30 END CTAB
M  END
>  <Dataset>  (210) 
ChEMBL_Kinases

>  <Ligand_Instance>  (210) 
nan

>  <PDB_ID>  (210) 
nan

>  <Standardized_SMILES>  (210) 
CO[C@@H](C(=O)Nc1ccc2[nH]nc(-c3cccc(S(N)(=O)=O)c3)c2c1)c1ccccc1

>  <Name>  (210) 
nan

>  <Pocket>  (210) 
nan

>  <ATP_Site>  (210) 
nan

>  <Peripheral>  (210) 
nan

>  <Num_H_Atoms_ProtBoundConf>  (210) 
nan

>  <Num_Resolved_Atoms>  (210) 
nan

>  <Num_Not_Resolved_Atoms>  (210) 
nan

$$$$
CHEMBL3330402
     RDKit          3D

  0  0  0  0  0  0  0  0  0  0999 V3000
M  V30 BEGIN CTAB
M  V30 COUNTS 51 54 0 0 0
M  V30 BEGIN ATOM
M  V30 1 C -3.320546 -2.644204 -1.034312 0
M  V30 2 O -2.008498 -2.890017 -1.416906 0
M  V30 3 C -1.219380 -3.335739 -0.372253 0 CFG=2
M  V30 4 C -0.133509 -2.317263 -0.225610 0
M  V30 5 O -0.194341 -1.342453 -1.050137 0
M  V30 6 N 0.945629 -2.291685 0.700606 0
M  V30 7 C 1.715055 -1.128691 0.455381 0
M  V30 8 C 2.765157 -1.181916 -0.437650 0
M  V30 9 C 3.577407 -0.101728 -0.746726 0
M  V30 10 C 3.250212 1.067584 -0.076116 0
M  V30 11 N 3.792072 2.313778 -0.103403 0
M  V30 12 N 3.147495 3.133482 0.712646 0
M  V30 13 C 2.135788 2.456869 1.325265 0
M  V30 14 C 1.186761 2.990946 2.297747 0
M  V30 15 C 1.610868 3.799805 3.357197 0
M  V30 16 C 0.680466 4.289614 4.262417 0
M  V30 17 C -0.660491 4.014195 4.167405 0
M  V30 18 C -1.100764 3.218829 3.130790 0
M  V30 19 S -2.788353 2.848565 2.977520 0
M  V30 20 N -3.613315 4.011943 2.009781 0
M  V30 21 O -3.438271 2.823794 4.327425 0
M  V30 22 O -2.929413 1.465417 2.370583 0
M  V30 23 C -0.172991 2.734632 2.234157 0
M  V30 24 C 2.210515 1.173616 0.826218 0
M  V30 25 C 1.454592 0.073573 1.081607 0
M  V30 26 C -0.628212 -4.682121 -0.669065 0
M  V30 27 C -0.536082 -5.784747 0.123657 0
M  V30 28 C 0.058241 -6.921184 -0.378872 0
M  V30 29 C 0.556704 -6.951165 -1.667864 0
M  V30 30 C 0.473215 -5.843339 -2.488306 0
M  V30 31 C -0.130323 -4.692737 -1.974736 0
M  V30 32 H -3.863207 -3.496562 -0.634021 0
M  V30 33 H -3.247254 -1.911509 -0.177868 0
M  V30 34 H -3.866268 -2.093954 -1.818299 0
M  V30 35 H -1.865479 -3.381711 0.531334 0
M  V30 36 H 0.935964 -3.124449 1.350920 0
M  V30 37 H 2.958183 -2.136606 -0.923414 0
M  V30 38 H 4.395715 -0.156152 -1.447041 0
M  V30 39 H 4.624900 2.525584 -0.725197 0
M  V30 40 H 2.675932 4.043083 3.467631 0
M  V30 41 H 1.039526 4.917573 5.078297 0
M  V30 42 H -1.376228 4.403008 4.880901 0
M  V30 43 H -4.615449 3.747957 1.958730 0
M  V30 44 H -3.178302 4.094096 1.054179 0
M  V30 45 H -0.563323 2.124837 1.451130 0
M  V30 46 H 0.620874 0.057313 1.770707 0
M  V30 47 H -0.962006 -5.622997 1.097151 0
M  V30 48 H 0.098675 -7.770171 0.312102 0
M  V30 49 H 1.016083 -7.854755 -2.032645 0
M  V30 50 H 0.875848 -5.914867 -3.485034 0
M  V30 51 H -0.142168 -3.884077 -2.703349 0
M  V30 END ATOM
M  V30 BEGIN BOND
M  V30 1 1 1 2
M  V30 2 1 2 3
M  V30 3 1 3 4
M  V30 4 2 4 5
M  V30 5 1 4 6
M  V30 6 1 6 7
M  V30 7 2 7 8
M  V30 8 1 8 9
M  V30 9 2 9 10
M  V30 10 1 10 11
M  V30 11 1 11 12
M  V30 12 2 12 13
M  V30 13 1 13 14
M  V30 14 2 14 15
M  V30 15 1 15 16
M  V30 16 2 16 17
M  V30 17 1 17 18
M  V30 18 1 18 19
M  V30 19 1 19 20
M  V30 20 2 19 21
M  V30 21 2 19 22
M  V30 22 2 18 23
M  V30 23 1 13 24
M  V30 24 2 24 25
M  V30 25 1 3 26
M  V30 26 2 26 27
M  V30 27 1 27 28
M  V30 28 2 28 29
M  V30 29 1 29 30
M  V30 30 2 30 31
M  V30 31 1 25 7
M  V30 32 1 31 26
M  V30 33 1 24 10
M  V30 34 1 23 14
M  V30 35 1 1 32
M  V30 36 1 1 33
M  V30 37 1 1 34
M  V30 38 1 3 35 CFG=1
M  V30 39 1 6 36
M  V30 40 1 8 37
M  V30 41 1 9 38
M  V30 42 1 11 39
M  V30 43 1 15 40
M  V30 44 1 16 41
M  V30 45 1 17 42
M  V30 46 1 20 43
M  V30 47 1 20 44
M  V30 48 1 23 45
M  V30 49 1 25 46
M  V30 50 1 27 47
M  V30 51 1 28 48
M  V30 52 1 29 49
M  V30 53 1 30 50
M  V30 54 1 31 51
M  V30 END BOND
M  V30 END CTAB
M  END
>  <Dataset>  (211) 
ChEMBL_Kinases

>  <Ligand_Instance>  (211) 
nan

>  <PDB_ID>  (211) 
nan

>  <Standardized_SMILES>  (211) 
CO[C@H](C(=O)Nc1ccc2[nH]nc(-c3cccc(S(N)(=O)=O)c3)c2c1)c1ccccc1

>  <Name>  (211) 
nan

>  <Pocket>  (211) 
nan

>  <ATP_Site>  (211) 
nan

>  <Peripheral>  (211) 
nan

>  <Num_H_Atoms_ProtBoundConf>  (211) 
nan

>  <Num_Resolved_Atoms>  (211) 
nan

>  <Num_Not_Resolved_Atoms>  (211) 
nan

$$$$
CHEMBL3330401
     RDKit          3D

  0  0  0  0  0  0  0  0  0  0999 V3000
M  V30 BEGIN CTAB
M  V30 COUNTS 51 54 0 0 0
M  V30 BEGIN ATOM
M  V30 1 C -2.460739 -3.531696 3.798097 0
M  V30 2 O -2.229325 -3.239692 2.455943 0
M  V30 3 C -0.966921 -3.562680 2.040712 0
M  V30 4 C -0.175199 -2.376714 1.624695 0
M  V30 5 O -0.749660 -1.276479 1.706948 0
M  V30 6 N 1.156650 -2.450835 1.156613 0
M  V30 7 C 2.005635 -1.405117 0.735852 0
M  V30 8 C 3.276480 -1.709723 0.315074 0
M  V30 9 C 4.167002 -0.757613 -0.110056 0
M  V30 10 C 3.837448 0.580096 -0.141634 0
M  V30 11 N 4.470393 1.713316 -0.494722 0
M  V30 12 N 3.654528 2.725576 -0.315825 0
M  V30 13 C 2.457187 2.296842 0.160539 0
M  V30 14 C 1.298170 3.123888 0.483130 0
M  V30 15 C 1.596633 4.282398 1.210550 0
M  V30 16 C 0.554414 5.130658 1.562118 0
M  V30 17 C -0.754077 4.851920 1.209510 0
M  V30 18 C -1.040951 3.701532 0.488545 0
M  V30 19 S -2.656877 3.230970 -0.021565 0
M  V30 20 N -3.056653 3.858993 -1.565236 0
M  V30 21 O -2.752897 1.745320 0.026298 0
M  V30 22 O -3.606523 3.779755 1.012575 0
M  V30 23 C -0.015113 2.869968 0.144485 0
M  V30 24 C 2.570032 0.926520 0.273235 0
M  V30 25 C 1.711222 -0.064722 0.691398 0
M  V30 26 C -0.976372 -4.600344 0.950684 0
M  V30 27 C -0.179181 -5.722137 0.843516 0
M  V30 28 C -0.360242 -6.544222 -0.250356 0
M  V30 29 C -1.313870 -6.252967 -1.213165 0
M  V30 30 C -2.117437 -5.126734 -1.109843 0
M  V30 31 C -1.940575 -4.291974 -0.008385 0
M  V30 32 H -1.694982 -2.914751 4.354294 0
M  V30 33 H -2.292776 -4.572637 4.079328 0
M  V30 34 H -3.431027 -3.143435 4.149656 0
M  V30 35 H -0.415036 -3.995580 2.910522 0
M  V30 36 H 1.508059 -3.431721 1.140758 0
M  V30 37 H 3.597378 -2.763419 0.318003 0
M  V30 38 H 5.142872 -1.087707 -0.422418 0
M  V30 39 H 5.452289 1.675211 -0.841853 0
M  V30 40 H 2.557440 4.633349 1.555900 0
M  V30 41 H 0.668785 6.059976 2.127682 0
M  V30 42 H -1.589024 5.493537 1.468746 0
M  V30 43 H -4.013814 4.290480 -1.550877 0
M  V30 44 H -3.145857 3.056289 -2.232425 0
M  V30 45 H -0.192357 1.973586 -0.410891 0
M  V30 46 H 0.740040 0.273445 1.001358 0
M  V30 47 H 0.520350 -5.835501 1.653927 0
M  V30 48 H 0.289371 -7.414609 -0.292278 0
M  V30 49 H -1.395578 -6.948038 -2.043337 0
M  V30 50 H -2.860186 -4.928758 -1.889734 0
M  V30 51 H -2.601426 -3.450527 -0.011432 0
M  V30 END ATOM
M  V30 BEGIN BOND
M  V30 1 1 1 2
M  V30 2 1 2 3
M  V30 3 1 3 4
M  V30 4 2 4 5
M  V30 5 1 4 6
M  V30 6 1 6 7
M  V30 7 2 7 8
M  V30 8 1 8 9
M  V30 9 2 9 10
M  V30 10 1 10 11
M  V30 11 1 11 12
M  V30 12 2 12 13
M  V30 13 1 13 14
M  V30 14 2 14 15
M  V30 15 1 15 16
M  V30 16 2 16 17
M  V30 17 1 17 18
M  V30 18 1 18 19
M  V30 19 1 19 20
M  V30 20 2 19 21
M  V30 21 2 19 22
M  V30 22 2 18 23
M  V30 23 1 13 24
M  V30 24 2 24 25
M  V30 25 1 3 26
M  V30 26 2 26 27
M  V30 27 1 27 28
M  V30 28 2 28 29
M  V30 29 1 29 30
M  V30 30 2 30 31
M  V30 31 1 25 7
M  V30 32 1 31 26
M  V30 33 1 24 10
M  V30 34 1 23 14
M  V30 35 1 1 32
M  V30 36 1 1 33
M  V30 37 1 1 34
M  V30 38 1 3 35
M  V30 39 1 6 36
M  V30 40 1 8 37
M  V30 41 1 9 38
M  V30 42 1 11 39
M  V30 43 1 15 40
M  V30 44 1 16 41
M  V30 45 1 17 42
M  V30 46 1 20 43
M  V30 47 1 20 44
M  V30 48 1 23 45
M  V30 49 1 25 46
M  V30 50 1 27 47
M  V30 51 1 28 48
M  V30 52 1 29 49
M  V30 53 1 30 50
M  V30 54 1 31 51
M  V30 END BOND
M  V30 END CTAB
M  END
>  <Dataset>  (212) 
ChEMBL_Kinases

>  <Ligand_Instance>  (212) 
nan

>  <PDB_ID>  (212) 
nan

>  <Standardized_SMILES>  (212) 
COC(C(=O)Nc1ccc2[nH]nc(-c3cccc(S(N)(=O)=O)c3)c2c1)c1ccccc1

>  <Name>  (212) 
nan

>  <Pocket>  (212) 
nan

>  <ATP_Site>  (212) 
nan

>  <Peripheral>  (212) 
nan

>  <Num_H_Atoms_ProtBoundConf>  (212) 
nan

>  <Num_Resolved_Atoms>  (212) 
nan

>  <Num_Not_Resolved_Atoms>  (212) 
nan

$$$$
CHEMBL3330285
     RDKit          3D

  0  0  0  0  0  0  0  0  0  0999 V3000
M  V30 BEGIN CTAB
M  V30 COUNTS 63 67 0 0 0
M  V30 BEGIN ATOM
M  V30 1 N 7.435708 2.984043 -1.221487 0
M  V30 2 S 7.630453 2.819907 0.486715 0
M  V30 3 O 8.918226 2.141481 0.811421 0
M  V30 4 O 7.601393 4.215819 1.067226 0
M  V30 5 C 6.320267 1.840131 1.078609 0
M  V30 6 C 6.510656 0.468651 1.125231 0
M  V30 7 C 5.458811 -0.283581 1.597158 0
M  V30 8 C 4.256508 0.233618 2.015996 0
M  V30 9 C 4.081722 1.610893 1.962846 0
M  V30 10 C 2.797178 2.137061 2.411938 0
M  V30 11 N 2.719990 3.192201 3.209786 0
M  V30 12 N 1.443274 3.497955 3.492351 0
M  V30 13 C 0.700297 2.586195 2.836023 0
M  V30 14 C -0.663516 2.397914 2.749868 0
M  V30 15 C -1.150648 1.357101 1.985645 0
M  V30 16 C -0.329206 0.485904 1.295756 0
M  V30 17 C -0.765773 -0.622787 0.477941 0
M  V30 18 O -0.007577 -1.404751 -0.141338 0
M  V30 19 N -2.140546 -0.909312 0.316809 0
M  V30 20 C -2.821954 -1.937764 -0.430847 0
M  V30 21 C -3.709267 -1.401496 -1.476434 0
M  V30 22 C -4.565429 -0.330637 -1.211727 0
M  V30 23 C -5.390368 0.160407 -2.202525 0
M  V30 24 C -5.427165 -0.355504 -3.485858 0
M  V30 25 C -4.577792 -1.428734 -3.773485 0
M  V30 26 C -3.764315 -1.898510 -2.763110 0
M  V30 27 C -3.597287 -2.879313 0.457705 0
M  V30 28 C -4.295081 -3.935516 -0.329663 0
M  V30 29 C -3.387197 -4.994932 -0.877658 0
M  V30 30 C -2.606623 -5.675968 0.204154 0
M  V30 31 C -2.852691 -5.027993 1.538741 0
M  V30 32 C -2.735488 -3.526439 1.504376 0
M  V30 33 C 1.051960 0.675981 1.382577 0
M  V30 34 C 1.505795 1.725387 2.154685 0
M  V30 35 C 5.121994 2.406026 1.491635 0
M  V30 36 H 6.417841 3.053830 -1.447278 0
M  V30 37 H 7.846302 2.123556 -1.651436 0
M  V30 38 H 7.440488 0.003191 0.807109 0
M  V30 39 H 5.644749 -1.368465 1.620425 0
M  V30 40 H 3.535129 -0.490504 2.358188 0
M  V30 41 H 1.025154 4.253335 4.078495 0
M  V30 42 H -1.380878 3.027987 3.253827 0
M  V30 43 H -2.216269 1.194026 1.906388 0
M  V30 44 H -2.901177 -0.353049 0.766124 0
M  V30 45 H -2.046987 -2.557094 -0.928542 0
M  V30 46 H -4.607527 0.139126 -0.237884 0
M  V30 47 H -6.063107 0.986412 -2.030413 0
M  V30 48 H -6.057208 0.008726 -4.267620 0
M  V30 49 H -4.554385 -1.883043 -4.759992 0
M  V30 50 H -3.120775 -2.734308 -3.033179 0
M  V30 51 H -4.379304 -2.276344 0.979703 0
M  V30 52 H -4.925410 -3.549516 -1.145293 0
M  V30 53 H -4.992791 -4.462103 0.380076 0
M  V30 54 H -4.034085 -5.714119 -1.437545 0
M  V30 55 H -2.667601 -4.617820 -1.617068 0
M  V30 56 H -1.521309 -5.741008 -0.031206 0
M  V30 57 H -2.968005 -6.725495 0.285622 0
M  V30 58 H -3.819241 -5.327062 1.957288 0
M  V30 59 H -2.087340 -5.379482 2.272071 0
M  V30 60 H -1.689631 -3.195322 1.343548 0
M  V30 61 H -2.998378 -3.182109 2.533856 0
M  V30 62 H 1.729382 0.030117 0.868004 0
M  V30 63 H 4.970589 3.480529 1.455967 0
M  V30 END ATOM
M  V30 BEGIN BOND
M  V30 1 1 1 2
M  V30 2 2 2 3
M  V30 3 2 2 4
M  V30 4 1 2 5
M  V30 5 2 5 6
M  V30 6 1 6 7
M  V30 7 2 7 8
M  V30 8 1 8 9
M  V30 9 1 9 10
M  V30 10 2 10 11
M  V30 11 1 11 12
M  V30 12 1 12 13
M  V30 13 2 13 14
M  V30 14 1 14 15
M  V30 15 2 15 16
M  V30 16 1 16 17
M  V30 17 2 17 18
M  V30 18 1 17 19
M  V30 19 1 19 20
M  V30 20 1 20 21
M  V30 21 2 21 22
M  V30 22 1 22 23
M  V30 23 2 23 24
M  V30 24 1 24 25
M  V30 25 2 25 26
M  V30 26 1 20 27
M  V30 27 1 27 28
M  V30 28 1 28 29
M  V30 29 1 29 30
M  V30 30 1 30 31
M  V30 31 1 31 32
M  V30 32 1 16 33
M  V30 33 2 33 34
M  V30 34 2 9 35
M  V30 35 1 35 5
M  V30 36 1 34 10
M  V30 37 1 34 13
M  V30 38 1 26 21
M  V30 39 1 32 27
M  V30 40 1 1 36
M  V30 41 1 1 37
M  V30 42 1 6 38
M  V30 43 1 7 39
M  V30 44 1 8 40
M  V30 45 1 12 41
M  V30 46 1 14 42
M  V30 47 1 15 43
M  V30 48 1 19 44
M  V30 49 1 20 45
M  V30 50 1 22 46
M  V30 51 1 23 47
M  V30 52 1 24 48
M  V30 53 1 25 49
M  V30 54 1 26 50
M  V30 55 1 27 51
M  V30 56 1 28 52
M  V30 57 1 28 53
M  V30 58 1 29 54
M  V30 59 1 29 55
M  V30 60 1 30 56
M  V30 61 1 30 57
M  V30 62 1 31 58
M  V30 63 1 31 59
M  V30 64 1 32 60
M  V30 65 1 32 61
M  V30 66 1 33 62
M  V30 67 1 35 63
M  V30 END BOND
M  V30 END CTAB
M  END
>  <Dataset>  (213) 
ChEMBL_Kinases

>  <Ligand_Instance>  (213) 
nan

>  <PDB_ID>  (213) 
nan

>  <Standardized_SMILES>  (213) 
NS(=O)(=O)c1cccc(-c2n[nH]c3ccc(C(=O)NC(c4ccccc4)C4CCCCC4)cc23)c1

>  <Name>  (213) 
nan

>  <Pocket>  (213) 
nan

>  <ATP_Site>  (213) 
nan

>  <Peripheral>  (213) 
nan

>  <Num_H_Atoms_ProtBoundConf>  (213) 
nan

>  <Num_Resolved_Atoms>  (213) 
nan

>  <Num_Not_Resolved_Atoms>  (213) 
nan

$$$$
CHEMBL3330284
     RDKit          3D

  0  0  0  0  0  0  0  0  0  0999 V3000
M  V30 BEGIN CTAB
M  V30 COUNTS 63 67 0 0 0
M  V30 BEGIN ATOM
M  V30 1 N 7.294724 0.345681 3.079689 0
M  V30 2 S 6.305802 0.965123 4.353492 0
M  V30 3 O 6.713774 0.308002 5.634564 0
M  V30 4 O 6.522320 2.457506 4.422793 0
M  V30 5 C 4.616317 0.656743 3.969379 0
M  V30 6 C 3.953717 -0.509644 4.352973 0
M  V30 7 C 2.623400 -0.651961 3.999753 0
M  V30 8 C 1.965790 0.329567 3.287804 0
M  V30 9 C 2.616114 1.502082 2.897125 0
M  V30 10 C 1.955658 2.562480 2.144315 0
M  V30 11 N 2.062614 3.888635 2.427472 0
M  V30 12 N 1.335845 4.576003 1.547326 0
M  V30 13 C 0.762243 3.705249 0.700510 0
M  V30 14 C -0.085523 3.900126 -0.391724 0
M  V30 15 C -0.557946 2.813475 -1.129194 0
M  V30 16 C -0.170553 1.549626 -0.756618 0
M  V30 17 N -0.597614 0.364018 -1.445333 0
M  V30 18 C -1.789943 -0.248167 -0.989851 0
M  V30 19 O -2.461845 0.228200 -0.010372 0
M  V30 20 C -2.582997 -1.426033 -1.365305 0
M  V30 21 C -3.809881 -1.543425 -0.491402 0
M  V30 22 C -3.620734 -1.772893 0.877287 0
M  V30 23 C -4.738486 -1.879262 1.684107 0
M  V30 24 C -6.029329 -1.771058 1.210598 0
M  V30 25 C -6.195434 -1.542899 -0.153140 0
M  V30 26 C -5.114800 -1.430987 -0.988438 0
M  V30 27 C -1.877778 -2.744548 -1.219003 0
M  V30 28 C -2.835566 -3.838762 -1.642330 0
M  V30 29 C -2.540500 -4.186698 -3.090044 0
M  V30 30 C -1.249866 -4.994248 -3.072637 0
M  V30 31 C -0.233804 -4.331951 -2.162636 0
M  V30 32 C -0.580225 -2.845695 -1.980770 0
M  V30 33 C 0.675974 1.307632 0.328935 0
M  V30 34 C 1.128155 2.419933 1.042583 0
M  V30 35 C 3.943675 1.639648 3.251933 0
M  V30 36 H 6.963541 0.639854 2.140543 0
M  V30 37 H 7.233151 -0.712305 3.093571 0
M  V30 38 H 4.523085 -1.247697 4.912167 0
M  V30 39 H 2.143961 -1.568943 4.314663 0
M  V30 40 H 0.919498 0.194653 3.021526 0
M  V30 41 H 1.244796 5.613694 1.539180 0
M  V30 42 H -0.371962 4.912974 -0.658960 0
M  V30 43 H -1.215437 2.945567 -1.978549 0
M  V30 44 H -0.234020 -0.196956 -2.245579 0
M  V30 45 H -2.965636 -1.287535 -2.395935 0
M  V30 46 H -2.636502 -1.872463 1.341502 0
M  V30 47 H -4.692838 -2.056833 2.756622 0
M  V30 48 H -6.909604 -1.852714 1.833421 0
M  V30 49 H -7.194452 -1.444896 -0.606314 0
M  V30 50 H -5.173644 -1.257603 -2.034951 0
M  V30 51 H -1.611101 -2.945032 -0.157116 0
M  V30 52 H -3.856233 -3.465320 -1.535145 0
M  V30 53 H -2.623478 -4.731194 -1.019420 0
M  V30 54 H -2.471963 -3.289069 -3.719836 0
M  V30 55 H -3.371569 -4.795266 -3.479606 0
M  V30 56 H -0.884627 -5.161194 -4.097811 0
M  V30 57 H -1.495875 -5.983788 -2.630065 0
M  V30 58 H -0.211346 -4.818316 -1.164487 0
M  V30 59 H 0.734108 -4.378788 -2.690253 0
M  V30 60 H -0.598924 -2.430786 -2.990215 0
M  V30 61 H 0.271726 -2.394977 -1.435826 0
M  V30 62 H 0.982415 0.322019 0.625304 0
M  V30 63 H 4.444169 2.528852 2.958020 0
M  V30 END ATOM
M  V30 BEGIN BOND
M  V30 1 1 1 2
M  V30 2 2 2 3
M  V30 3 2 2 4
M  V30 4 1 2 5
M  V30 5 2 5 6
M  V30 6 1 6 7
M  V30 7 2 7 8
M  V30 8 1 8 9
M  V30 9 1 9 10
M  V30 10 2 10 11
M  V30 11 1 11 12
M  V30 12 1 12 13
M  V30 13 2 13 14
M  V30 14 1 14 15
M  V30 15 2 15 16
M  V30 16 1 16 17
M  V30 17 1 17 18
M  V30 18 2 18 19
M  V30 19 1 18 20
M  V30 20 1 20 21
M  V30 21 2 21 22
M  V30 22 1 22 23
M  V30 23 2 23 24
M  V30 24 1 24 25
M  V30 25 2 25 26
M  V30 26 1 20 27
M  V30 27 1 27 28
M  V30 28 1 28 29
M  V30 29 1 29 30
M  V30 30 1 30 31
M  V30 31 1 31 32
M  V30 32 1 16 33
M  V30 33 2 33 34
M  V30 34 2 9 35
M  V30 35 1 35 5
M  V30 36 1 34 10
M  V30 37 1 34 13
M  V30 38 1 26 21
M  V30 39 1 32 27
M  V30 40 1 1 36
M  V30 41 1 1 37
M  V30 42 1 6 38
M  V30 43 1 7 39
M  V30 44 1 8 40
M  V30 45 1 12 41
M  V30 46 1 14 42
M  V30 47 1 15 43
M  V30 48 1 17 44
M  V30 49 1 20 45
M  V30 50 1 22 46
M  V30 51 1 23 47
M  V30 52 1 24 48
M  V30 53 1 25 49
M  V30 54 1 26 50
M  V30 55 1 27 51
M  V30 56 1 28 52
M  V30 57 1 28 53
M  V30 58 1 29 54
M  V30 59 1 29 55
M  V30 60 1 30 56
M  V30 61 1 30 57
M  V30 62 1 31 58
M  V30 63 1 31 59
M  V30 64 1 32 60
M  V30 65 1 32 61
M  V30 66 1 33 62
M  V30 67 1 35 63
M  V30 END BOND
M  V30 END CTAB
M  END
>  <Dataset>  (214) 
ChEMBL_Kinases

>  <Ligand_Instance>  (214) 
nan

>  <PDB_ID>  (214) 
nan

>  <Standardized_SMILES>  (214) 
NS(=O)(=O)c1cccc(-c2n[nH]c3ccc(NC(=O)C(c4ccccc4)C4CCCCC4)cc23)c1

>  <Name>  (214) 
nan

>  <Pocket>  (214) 
nan

>  <ATP_Site>  (214) 
nan

>  <Peripheral>  (214) 
nan

>  <Num_H_Atoms_ProtBoundConf>  (214) 
nan

>  <Num_Resolved_Atoms>  (214) 
nan

>  <Num_Not_Resolved_Atoms>  (214) 
nan

$$$$
CHEMBL3330265
     RDKit          3D

  0  0  0  0  0  0  0  0  0  0999 V3000
M  V30 BEGIN CTAB
M  V30 COUNTS 44 47 0 0 0
M  V30 BEGIN ATOM
M  V30 1 N 5.072669 -4.244377 -0.884266 0
M  V30 2 S 5.030082 -3.229658 -2.278997 0
M  V30 3 O 6.188003 -2.287940 -2.241405 0
M  V30 4 O 5.095672 -4.113267 -3.478683 0
M  V30 5 C 3.510053 -2.341285 -2.264247 0
M  V30 6 C 2.414446 -2.900835 -2.891727 0
M  V30 7 C 1.212991 -2.186065 -2.873318 0
M  V30 8 C 1.133225 -0.959496 -2.244975 0
M  V30 9 C 2.214409 -0.384745 -1.613751 0
M  V30 10 C 2.200459 0.903113 -0.932906 0
M  V30 11 N 3.117445 1.875838 -1.025594 0
M  V30 12 N 2.757114 2.898353 -0.256422 0
M  V30 13 C 1.581654 2.588742 0.351314 0
M  V30 14 C 0.807453 3.323374 1.241177 0
M  V30 15 C -0.357038 2.743925 1.700995 0
M  V30 16 C -0.774131 1.494233 1.322080 0
M  V30 17 C -1.993409 0.836369 1.776866 0
M  V30 18 O -2.316988 -0.333884 1.378316 0
M  V30 19 N -2.915268 1.403030 2.675620 0
M  V30 20 C -4.115532 0.766140 3.128927 0
M  V30 21 C -3.763322 -0.569584 3.863940 0
M  V30 22 C -3.506400 -0.782303 5.149697 0
M  V30 23 C -3.231990 -2.039538 5.509461 0
M  V30 24 C -3.228954 -2.995840 4.586174 0
M  V30 25 S -3.620421 -2.173156 3.117669 0
M  V30 26 C 0.033423 0.809638 0.436491 0
M  V30 27 C 1.209610 1.327074 -0.063334 0
M  V30 28 C 3.405362 -1.119453 -1.645929 0
M  V30 29 H 5.300099 -3.726660 -0.018029 0
M  V30 30 H 4.216591 -4.826420 -0.814960 0
M  V30 31 H 2.442486 -3.858359 -3.392551 0
M  V30 32 H 0.343728 -2.611918 -3.361533 0
M  V30 33 H 0.196721 -0.406068 -2.232626 0
M  V30 34 H 3.262572 3.800315 -0.116716 0
M  V30 35 H 1.075986 4.318138 1.584345 0
M  V30 36 H -0.969166 3.291246 2.387078 0
M  V30 37 H -2.676758 2.377756 3.027838 0
M  V30 38 H -4.586696 1.351019 3.923573 0
M  V30 39 H -4.810057 0.501531 2.306881 0
M  V30 40 H -3.539681 0.096894 5.821084 0
M  V30 41 H -3.005953 -2.308477 6.560151 0
M  V30 42 H -3.021279 -4.097122 4.711045 0
M  V30 43 H -0.260010 -0.179646 0.112506 0
M  V30 44 H 4.268684 -0.701452 -1.163671 0
M  V30 END ATOM
M  V30 BEGIN BOND
M  V30 1 1 1 2
M  V30 2 2 2 3
M  V30 3 2 2 4
M  V30 4 1 2 5
M  V30 5 2 5 6
M  V30 6 1 6 7
M  V30 7 2 7 8
M  V30 8 1 8 9
M  V30 9 1 9 10
M  V30 10 2 10 11
M  V30 11 1 11 12
M  V30 12 1 12 13
M  V30 13 2 13 14
M  V30 14 1 14 15
M  V30 15 2 15 16
M  V30 16 1 16 17
M  V30 17 2 17 18
M  V30 18 1 17 19
M  V30 19 1 19 20
M  V30 20 1 20 21
M  V30 21 2 21 22
M  V30 22 1 22 23
M  V30 23 2 23 24
M  V30 24 1 24 25
M  V30 25 1 16 26
M  V30 26 2 26 27
M  V30 27 2 9 28
M  V30 28 1 28 5
M  V30 29 1 27 10
M  V30 30 1 27 13
M  V30 31 1 25 21
M  V30 32 1 1 29
M  V30 33 1 1 30
M  V30 34 1 6 31
M  V30 35 1 7 32
M  V30 36 1 8 33
M  V30 37 1 12 34
M  V30 38 1 14 35
M  V30 39 1 15 36
M  V30 40 1 19 37
M  V30 41 1 20 38
M  V30 42 1 20 39
M  V30 43 1 22 40
M  V30 44 1 23 41
M  V30 45 1 24 42
M  V30 46 1 26 43
M  V30 47 1 28 44
M  V30 END BOND
M  V30 END CTAB
M  END
>  <Dataset>  (215) 
ChEMBL_Kinases

>  <Ligand_Instance>  (215) 
nan

>  <PDB_ID>  (215) 
nan

>  <Standardized_SMILES>  (215) 
NS(=O)(=O)c1cccc(-c2n[nH]c3ccc(C(=O)NCc4cccs4)cc23)c1

>  <Name>  (215) 
nan

>  <Pocket>  (215) 
nan

>  <ATP_Site>  (215) 
nan

>  <Peripheral>  (215) 
nan

>  <Num_H_Atoms_ProtBoundConf>  (215) 
nan

>  <Num_Resolved_Atoms>  (215) 
nan

>  <Num_Not_Resolved_Atoms>  (215) 
nan

$$$$
CHEMBL3330266
     RDKit          3D

  0  0  0  0  0  0  0  0  0  0999 V3000
M  V30 BEGIN CTAB
M  V30 COUNTS 50 53 0 0 0
M  V30 BEGIN ATOM
M  V30 1 C 2.617189 -1.669707 -2.753833 0
M  V30 2 N 2.000807 -1.124119 -1.547097 0
M  V30 3 C 1.981406 -1.935545 -0.359325 0
M  V30 4 C 3.130286 -1.784991 0.531691 0
M  V30 5 C 4.257632 -2.571797 0.388376 0
M  V30 6 C 5.388153 -2.493971 1.189926 0
M  V30 7 C 5.370692 -1.560714 2.196532 0
M  V30 8 C 4.278557 -0.736562 2.402864 0
M  V30 9 C 3.183018 -0.861605 1.572021 0
M  V30 10 C 1.519684 0.180193 -1.827147 0
M  V30 11 O 1.805004 0.391757 -3.035079 0
M  V30 12 C 0.843805 1.035609 -0.857000 0
M  V30 13 C 1.493151 2.240445 -0.633780 0
M  V30 14 C 0.982073 3.181456 0.267530 0
M  V30 15 C -0.196460 2.885519 0.940300 0
M  V30 16 N -0.990253 3.476961 1.844547 0
M  V30 17 N -2.027214 2.709472 2.147661 0
M  V30 18 C -1.958376 1.551069 1.438031 0
M  V30 19 C -2.974198 0.520730 1.576889 0
M  V30 20 C -4.308959 0.927596 1.577044 0
M  V30 21 C -5.381927 0.091062 1.698872 0
M  V30 22 C -5.148887 -1.262107 1.833016 0
M  V30 23 C -3.821245 -1.698558 1.836205 0
M  V30 24 S -3.532710 -3.409183 2.006938 0
M  V30 25 N -3.492849 -4.149579 0.452961 0
M  V30 26 O -2.176224 -3.676114 2.625897 0
M  V30 27 O -4.547926 -4.087501 2.882014 0
M  V30 28 C -2.757362 -0.847956 1.713126 0
M  V30 29 C -0.806263 1.674081 0.685131 0
M  V30 30 C -0.328313 0.724826 -0.197256 0
M  V30 31 H 3.191359 -2.596497 -2.505044 0
M  V30 32 H 3.229126 -0.965281 -3.307876 0
M  V30 33 H 1.778773 -2.001016 -3.390588 0
M  V30 34 H 1.043029 -1.745152 0.208460 0
M  V30 35 H 1.892095 -2.997634 -0.696579 0
M  V30 36 H 4.260230 -3.316645 -0.422220 0
M  V30 37 H 6.217434 -3.174012 0.974015 0
M  V30 38 H 6.270059 -1.502288 2.830448 0
M  V30 39 H 4.281833 0.000091 3.208498 0
M  V30 40 H 2.296356 -0.228270 1.700737 0
M  V30 41 H 2.395409 2.561687 -1.094897 0
M  V30 42 H 1.453884 4.122029 0.466855 0
M  V30 43 H -0.761540 4.436126 2.228113 0
M  V30 44 H -4.569352 1.983961 1.474678 0
M  V30 45 H -6.396432 0.437281 1.695132 0
M  V30 46 H -5.970487 -1.942278 1.930403 0
M  V30 47 H -4.383451 -4.642304 0.219573 0
M  V30 48 H -3.219607 -3.426938 -0.254783 0
M  V30 49 H -1.725371 -1.155061 1.712167 0
M  V30 50 H -0.784119 -0.210002 -0.404884 0
M  V30 END ATOM
M  V30 BEGIN BOND
M  V30 1 1 1 2
M  V30 2 1 2 3
M  V30 3 1 3 4
M  V30 4 2 4 5
M  V30 5 1 5 6
M  V30 6 2 6 7
M  V30 7 1 7 8
M  V30 8 2 8 9
M  V30 9 1 2 10
M  V30 10 2 10 11
M  V30 11 1 10 12
M  V30 12 2 12 13
M  V30 13 1 13 14
M  V30 14 2 14 15
M  V30 15 1 15 16
M  V30 16 1 16 17
M  V30 17 2 17 18
M  V30 18 1 18 19
M  V30 19 2 19 20
M  V30 20 1 20 21
M  V30 21 2 21 22
M  V30 22 1 22 23
M  V30 23 1 23 24
M  V30 24 1 24 25
M  V30 25 2 24 26
M  V30 26 2 24 27
M  V30 27 2 23 28
M  V30 28 1 18 29
M  V30 29 2 29 30
M  V30 30 1 9 4
M  V30 31 1 30 12
M  V30 32 1 29 15
M  V30 33 1 28 19
M  V30 34 1 1 31
M  V30 35 1 1 32
M  V30 36 1 1 33
M  V30 37 1 3 34
M  V30 38 1 3 35
M  V30 39 1 5 36
M  V30 40 1 6 37
M  V30 41 1 7 38
M  V30 42 1 8 39
M  V30 43 1 9 40
M  V30 44 1 13 41
M  V30 45 1 14 42
M  V30 46 1 16 43
M  V30 47 1 20 44
M  V30 48 1 21 45
M  V30 49 1 22 46
M  V30 50 1 25 47
M  V30 51 1 25 48
M  V30 52 1 28 49
M  V30 53 1 30 50
M  V30 END BOND
M  V30 END CTAB
M  END
>  <Dataset>  (216) 
ChEMBL_Kinases

>  <Ligand_Instance>  (216) 
nan

>  <PDB_ID>  (216) 
nan

>  <Standardized_SMILES>  (216) 
CN(Cc1ccccc1)C(=O)c1ccc2[nH]nc(-c3cccc(S(N)(=O)=O)c3)c2c1

>  <Name>  (216) 
nan

>  <Pocket>  (216) 
nan

>  <ATP_Site>  (216) 
nan

>  <Peripheral>  (216) 
nan

>  <Num_H_Atoms_ProtBoundConf>  (216) 
nan

>  <Num_Resolved_Atoms>  (216) 
nan

>  <Num_Not_Resolved_Atoms>  (216) 
nan

$$$$
CHEMBL3330267
     RDKit          3D

  0  0  0  0  0  0  0  0  0  0999 V3000
M  V30 BEGIN CTAB
M  V30 COUNTS 47 50 0 0 0
M  V30 BEGIN ATOM
M  V30 1 N 3.153436 -4.770373 1.073052 0
M  V30 2 S 4.534315 -3.727409 0.841872 0
M  V30 3 O 4.928751 -3.237825 2.206045 0
M  V30 4 O 5.673773 -4.547516 0.297434 0
M  V30 5 C 4.124072 -2.402371 -0.213484 0
M  V30 6 C 4.314590 -2.558908 -1.556076 0
M  V30 7 C 3.992073 -1.514336 -2.413393 0
M  V30 8 C 3.485314 -0.341245 -1.881069 0
M  V30 9 C 3.310183 -0.230817 -0.511850 0
M  V30 10 C 2.769336 1.067288 -0.124154 0
M  V30 11 N 3.170884 2.279490 -0.579000 0
M  V30 12 N 2.485686 3.256002 -0.036098 0
M  V30 13 C 1.597885 2.698221 0.806880 0
M  V30 14 C 0.622414 3.186909 1.649268 0
M  V30 15 C -0.186402 2.399360 2.439097 0
M  V30 16 C -0.035570 1.021039 2.408697 0
M  V30 17 C -0.792877 -0.012009 3.167725 0
M  V30 18 N -1.956539 -0.490680 2.441877 0
M  V30 19 C -3.179601 0.213994 2.305456 0
M  V30 20 O -3.301574 1.358839 2.850379 0
M  V30 21 C -4.321729 -0.323020 1.557104 0
M  V30 22 C -4.322250 -1.544413 0.922451 0
M  V30 23 C -5.416690 -1.999831 0.235879 0
M  V30 24 C -6.580454 -1.249216 0.147265 0
M  V30 25 C -6.585313 -0.027987 0.779619 0
M  V30 26 C -5.478300 0.387147 1.450453 0
M  V30 27 C 0.949342 0.518848 1.558782 0
M  V30 28 C 1.752744 1.326653 0.772394 0
M  V30 29 C 3.629052 -1.265415 0.343681 0
M  V30 30 H 2.381333 -4.151598 1.422371 0
M  V30 31 H 3.415621 -5.401173 1.862887 0
M  V30 32 H 4.713713 -3.480751 -1.982812 0
M  V30 33 H 4.138165 -1.624671 -3.478973 0
M  V30 34 H 3.254026 0.436882 -2.610357 0
M  V30 35 H 2.598760 4.288419 -0.216923 0
M  V30 36 H 0.446198 4.257444 1.726339 0
M  V30 37 H -0.957159 2.744090 3.110351 0
M  V30 38 H -1.129133 0.410703 4.155385 0
M  V30 39 H -0.111334 -0.844007 3.434319 0
M  V30 40 H -1.853657 -1.431767 1.995311 0
M  V30 41 H -3.439591 -2.163854 0.963627 0
M  V30 42 H -5.350456 -2.981742 -0.247060 0
M  V30 43 H -7.378294 -1.705251 -0.417620 0
M  V30 44 H -7.520504 0.520003 0.679912 0
M  V30 45 H -5.553111 1.357592 1.923576 0
M  V30 46 H 1.134848 -0.545650 1.472092 0
M  V30 47 H 3.464109 -1.099355 1.388883 0
M  V30 END ATOM
M  V30 BEGIN BOND
M  V30 1 1 1 2
M  V30 2 2 2 3
M  V30 3 2 2 4
M  V30 4 1 2 5
M  V30 5 2 5 6
M  V30 6 1 6 7
M  V30 7 2 7 8
M  V30 8 1 8 9
M  V30 9 1 9 10
M  V30 10 2 10 11
M  V30 11 1 11 12
M  V30 12 1 12 13
M  V30 13 2 13 14
M  V30 14 1 14 15
M  V30 15 2 15 16
M  V30 16 1 16 17
M  V30 17 1 17 18
M  V30 18 1 18 19
M  V30 19 2 19 20
M  V30 20 1 19 21
M  V30 21 2 21 22
M  V30 22 1 22 23
M  V30 23 2 23 24
M  V30 24 1 24 25
M  V30 25 2 25 26
M  V30 26 1 16 27
M  V30 27 2 27 28
M  V30 28 2 9 29
M  V30 29 1 29 5
M  V30 30 1 28 10
M  V30 31 1 28 13
M  V30 32 1 26 21
M  V30 33 1 1 30
M  V30 34 1 1 31
M  V30 35 1 6 32
M  V30 36 1 7 33
M  V30 37 1 8 34
M  V30 38 1 12 35
M  V30 39 1 14 36
M  V30 40 1 15 37
M  V30 41 1 17 38
M  V30 42 1 17 39
M  V30 43 1 18 40
M  V30 44 1 22 41
M  V30 45 1 23 42
M  V30 46 1 24 43
M  V30 47 1 25 44
M  V30 48 1 26 45
M  V30 49 1 27 46
M  V30 50 1 29 47
M  V30 END BOND
M  V30 END CTAB
M  END
>  <Dataset>  (217) 
ChEMBL_Kinases

>  <Ligand_Instance>  (217) 
nan

>  <PDB_ID>  (217) 
nan

>  <Standardized_SMILES>  (217) 
NS(=O)(=O)c1cccc(-c2n[nH]c3ccc(CNC(=O)c4ccccc4)cc23)c1

>  <Name>  (217) 
nan

>  <Pocket>  (217) 
nan

>  <ATP_Site>  (217) 
nan

>  <Peripheral>  (217) 
nan

>  <Num_H_Atoms_ProtBoundConf>  (217) 
nan

>  <Num_Resolved_Atoms>  (217) 
nan

>  <Num_Not_Resolved_Atoms>  (217) 
nan

$$$$
CHEMBL3330269
     RDKit          3D

  0  0  0  0  0  0  0  0  0  0999 V3000
M  V30 BEGIN CTAB
M  V30 COUNTS 50 53 0 0 0
M  V30 BEGIN ATOM
M  V30 1 N 2.266541 -4.406719 0.451253 0
M  V30 2 S 3.236637 -3.506469 -0.670284 0
M  V30 3 O 4.215007 -4.449632 -1.300535 0
M  V30 4 O 2.374548 -2.929414 -1.757025 0
M  V30 5 C 4.138258 -2.238649 0.112267 0
M  V30 6 C 5.402554 -2.478287 0.604925 0
M  V30 7 C 6.122730 -1.479975 1.225676 0
M  V30 8 C 5.563239 -0.208811 1.356862 0
M  V30 9 C 4.296203 0.087958 0.880103 0
M  V30 10 C 3.689928 1.409246 1.005428 0
M  V30 11 N 4.319055 2.570192 0.747203 0
M  V30 12 N 3.496955 3.610830 0.955146 0
M  V30 13 C 2.288740 3.129855 1.362533 0
M  V30 14 C 1.106895 3.752963 1.705654 0
M  V30 15 C 0.006200 2.989903 2.093224 0
M  V30 16 C 0.139247 1.620686 2.120360 0
M  V30 17 N -0.934566 0.738730 2.505400 0
M  V30 18 C -1.660346 0.409924 1.346510 0
M  V30 19 O -1.295804 0.892631 0.242667 0
M  V30 20 C -2.860060 -0.473952 1.237892 0
M  V30 21 C -3.238395 -0.478963 -0.248945 0
M  V30 22 C -4.442207 -1.347308 -0.457058 0
M  V30 23 C -5.753255 -0.916567 -0.399429 0
M  V30 24 C -6.786847 -1.816051 -0.609921 0
M  V30 25 C -6.510721 -3.142990 -0.877394 0
M  V30 26 C -5.217910 -3.609682 -0.942885 0
M  V30 27 C -4.227085 -2.687227 -0.728671 0
M  V30 28 C 1.339103 0.994618 1.771681 0
M  V30 29 C 2.412052 1.756198 1.392983 0
M  V30 30 C 3.623839 -0.956672 0.266817 0
M  V30 31 H 2.383841 -4.046075 1.426819 0
M  V30 32 H 1.255273 -4.290716 0.185801 0
M  V30 33 H 5.793459 -3.496253 0.474365 0
M  V30 34 H 7.113751 -1.689387 1.605379 0
M  V30 35 H 6.121685 0.590616 1.845790 0
M  V30 36 H 3.756080 4.624146 0.821693 0
M  V30 37 H 0.998744 4.831335 1.685349 0
M  V30 38 H -0.962893 3.427082 2.378317 0
M  V30 39 H -1.296596 0.298666 3.392947 0
M  V30 40 H -3.701433 -0.137555 1.848376 0
M  V30 41 H -2.602528 -1.497725 1.566418 0
M  V30 42 H -2.407390 -0.902701 -0.841761 0
M  V30 43 H -3.558017 0.534220 -0.564452 0
M  V30 44 H -5.876157 0.141216 -0.183896 0
M  V30 45 H -7.797265 -1.438992 -0.556196 0
M  V30 46 H -7.324188 -3.830261 -1.038786 0
M  V30 47 H -4.954998 -4.646960 -1.150839 0
M  V30 48 H -3.200941 -3.050533 -0.779179 0
M  V30 49 H 1.421625 -0.070162 1.799427 0
M  V30 50 H 2.628934 -0.827766 -0.138744 0
M  V30 END ATOM
M  V30 BEGIN BOND
M  V30 1 1 1 2
M  V30 2 2 2 3
M  V30 3 2 2 4
M  V30 4 1 2 5
M  V30 5 2 5 6
M  V30 6 1 6 7
M  V30 7 2 7 8
M  V30 8 1 8 9
M  V30 9 1 9 10
M  V30 10 2 10 11
M  V30 11 1 11 12
M  V30 12 1 12 13
M  V30 13 2 13 14
M  V30 14 1 14 15
M  V30 15 2 15 16
M  V30 16 1 16 17
M  V30 17 1 17 18
M  V30 18 2 18 19
M  V30 19 1 18 20
M  V30 20 1 20 21
M  V30 21 1 21 22
M  V30 22 2 22 23
M  V30 23 1 23 24
M  V30 24 2 24 25
M  V30 25 1 25 26
M  V30 26 2 26 27
M  V30 27 1 16 28
M  V30 28 2 28 29
M  V30 29 2 9 30
M  V30 30 1 30 5
M  V30 31 1 29 10
M  V30 32 1 29 13
M  V30 33 1 27 22
M  V30 34 1 1 31
M  V30 35 1 1 32
M  V30 36 1 6 33
M  V30 37 1 7 34
M  V30 38 1 8 35
M  V30 39 1 12 36
M  V30 40 1 14 37
M  V30 41 1 15 38
M  V30 42 1 17 39
M  V30 43 1 20 40
M  V30 44 1 20 41
M  V30 45 1 21 42
M  V30 46 1 21 43
M  V30 47 1 23 44
M  V30 48 1 24 45
M  V30 49 1 25 46
M  V30 50 1 26 47
M  V30 51 1 27 48
M  V30 52 1 28 49
M  V30 53 1 30 50
M  V30 END BOND
M  V30 END CTAB
M  END
>  <Dataset>  (218) 
ChEMBL_Kinases

>  <Ligand_Instance>  (218) 
nan

>  <PDB_ID>  (218) 
nan

>  <Standardized_SMILES>  (218) 
NS(=O)(=O)c1cccc(-c2n[nH]c3ccc(NC(=O)CCc4ccccc4)cc23)c1

>  <Name>  (218) 
nan

>  <Pocket>  (218) 
nan

>  <ATP_Site>  (218) 
nan

>  <Peripheral>  (218) 
nan

>  <Num_H_Atoms_ProtBoundConf>  (218) 
nan

>  <Num_Resolved_Atoms>  (218) 
nan

>  <Num_Not_Resolved_Atoms>  (218) 
nan

$$$$
CHEMBL3330270
     RDKit          3D

  0  0  0  0  0  0  0  0  0  0999 V3000
M  V30 BEGIN CTAB
M  V30 COUNTS 46 49 0 0 0
M  V30 BEGIN ATOM
M  V30 1 N 3.502133 -4.398516 1.378808 0
M  V30 2 S 4.732742 -3.205368 1.501773 0
M  V30 3 O 4.732513 -2.668539 2.918227 0
M  V30 4 O 6.091092 -3.771856 1.198732 0
M  V30 5 C 4.441943 -1.837957 0.446967 0
M  V30 6 C 4.976123 -1.922881 -0.824674 0
M  V30 7 C 4.730921 -0.819896 -1.647908 0
M  V30 8 C 4.006729 0.278306 -1.223862 0
M  V30 9 C 3.494691 0.306030 0.066046 0
M  V30 10 C 2.750568 1.520719 0.387768 0
M  V30 11 N 3.143858 2.779300 0.097881 0
M  V30 12 N 2.243652 3.645439 0.525067 0
M  V30 13 C 1.216327 2.997533 1.115789 0
M  V30 14 C 0.044904 3.451233 1.714119 0
M  V30 15 C -0.828038 2.502279 2.241164 0
M  V30 16 C -0.483647 1.169429 2.140901 0
M  V30 17 N -1.425506 0.231648 2.704041 0
M  V30 18 C -2.381687 -0.176475 1.747225 0
M  V30 19 O -2.524367 0.142099 0.538030 0
M  V30 20 C -3.439966 -1.158666 2.178995 0
M  V30 21 C -4.348285 -1.465219 1.041915 0
M  V30 22 C -4.107765 -2.504878 0.158967 0
M  V30 23 C -4.890328 -2.847593 -0.903743 0
M  V30 24 C -6.037916 -2.082142 -1.122601 0
M  V30 25 C -6.288171 -1.037250 -0.242838 0
M  V30 26 N -5.472898 -0.747943 0.792736 0
M  V30 27 C 0.685432 0.711418 1.544101 0
M  V30 28 C 1.529734 1.657172 1.032588 0
M  V30 29 C 3.724659 -0.773105 0.897209 0
M  V30 30 H 3.339973 -4.843603 2.330951 0
M  V30 31 H 2.581106 -4.010702 1.092745 0
M  V30 32 H 5.548290 -2.766139 -1.191962 0
M  V30 33 H 5.160605 -0.898233 -2.657552 0
M  V30 34 H 3.897300 1.056917 -1.969921 0
M  V30 35 H 2.281062 4.703630 0.438289 0
M  V30 36 H -0.201151 4.510894 1.778987 0
M  V30 37 H -1.757531 2.804794 2.719544 0
M  V30 38 H -1.485108 -0.158716 3.669924 0
M  V30 39 H -2.886808 -2.090813 2.408755 0
M  V30 40 H -3.980411 -0.729757 3.023346 0
M  V30 41 H -3.203048 -3.079512 0.361955 0
M  V30 42 H -4.604932 -3.680733 -1.528350 0
M  V30 43 H -6.656311 -2.347929 -1.957047 0
M  V30 44 H -7.172253 -0.447717 -0.411605 0
M  V30 45 H 0.903756 -0.348658 1.494113 0
M  V30 46 H 3.304311 -0.694513 1.882310 0
M  V30 END ATOM
M  V30 BEGIN BOND
M  V30 1 1 1 2
M  V30 2 2 2 3
M  V30 3 2 2 4
M  V30 4 1 2 5
M  V30 5 2 5 6
M  V30 6 1 6 7
M  V30 7 2 7 8
M  V30 8 1 8 9
M  V30 9 1 9 10
M  V30 10 2 10 11
M  V30 11 1 11 12
M  V30 12 1 12 13
M  V30 13 2 13 14
M  V30 14 1 14 15
M  V30 15 2 15 16
M  V30 16 1 16 17
M  V30 17 1 17 18
M  V30 18 2 18 19
M  V30 19 1 18 20
M  V30 20 1 20 21
M  V30 21 2 21 22
M  V30 22 1 22 23
M  V30 23 2 23 24
M  V30 24 1 24 25
M  V30 25 2 25 26
M  V30 26 1 16 27
M  V30 27 2 27 28
M  V30 28 2 9 29
M  V30 29 1 29 5
M  V30 30 1 28 10
M  V30 31 1 28 13
M  V30 32 1 26 21
M  V30 33 1 1 30
M  V30 34 1 1 31
M  V30 35 1 6 32
M  V30 36 1 7 33
M  V30 37 1 8 34
M  V30 38 1 12 35
M  V30 39 1 14 36
M  V30 40 1 15 37
M  V30 41 1 17 38
M  V30 42 1 20 39
M  V30 43 1 20 40
M  V30 44 1 22 41
M  V30 45 1 23 42
M  V30 46 1 24 43
M  V30 47 1 25 44
M  V30 48 1 27 45
M  V30 49 1 29 46
M  V30 END BOND
M  V30 END CTAB
M  END
>  <Dataset>  (219) 
ChEMBL_Kinases

>  <Ligand_Instance>  (219) 
nan

>  <PDB_ID>  (219) 
nan

>  <Standardized_SMILES>  (219) 
NS(=O)(=O)c1cccc(-c2n[nH]c3ccc(NC(=O)Cc4ccccn4)cc23)c1

>  <Name>  (219) 
nan

>  <Pocket>  (219) 
nan

>  <ATP_Site>  (219) 
nan

>  <Peripheral>  (219) 
nan

>  <Num_H_Atoms_ProtBoundConf>  (219) 
nan

>  <Num_Resolved_Atoms>  (219) 
nan

>  <Num_Not_Resolved_Atoms>  (219) 
nan

$$$$
CHEMBL3330271
     RDKit          3D

  0  0  0  0  0  0  0  0  0  0999 V3000
M  V30 BEGIN CTAB
M  V30 COUNTS 46 49 0 0 0
M  V30 BEGIN ATOM
M  V30 1 N 0.945509 -4.046071 -0.059376 0
M  V30 2 S 2.504601 -3.801605 0.602994 0
M  V30 3 O 2.433839 -3.656138 2.115771 0
M  V30 4 O 3.374210 -4.954087 0.266827 0
M  V30 5 C 3.139715 -2.315884 -0.108177 0
M  V30 6 C 3.868173 -2.360667 -1.280443 0
M  V30 7 C 4.349773 -1.167652 -1.806187 0
M  V30 8 C 4.083912 0.026361 -1.138274 0
M  V30 9 C 3.355038 0.084237 0.037301 0
M  V30 10 C 3.140576 1.391812 0.647784 0
M  V30 11 N 4.056854 2.366623 0.830966 0
M  V30 12 N 3.517412 3.421806 1.415682 0
M  V30 13 C 2.215642 3.162353 1.633874 0
M  V30 14 C 1.169036 3.862159 2.195288 0
M  V30 15 C -0.094413 3.326632 2.286210 0
M  V30 16 C -0.385879 2.067139 1.824254 0
M  V30 17 N -1.708093 1.583538 1.952066 0
M  V30 18 C -2.263106 0.340858 1.563723 0
M  V30 19 O -1.522827 -0.507421 1.016434 0
M  V30 20 C -3.681427 -0.041954 1.758622 0
M  V30 21 C -3.846201 -1.418144 1.215128 0
M  V30 22 C -4.195868 -1.534653 -0.124870 0
M  V30 23 C -4.378335 -2.749679 -0.747263 0
M  V30 24 N -4.214932 -3.885064 -0.041842 0
M  V30 25 C -3.871714 -3.816726 1.276506 0
M  V30 26 C -3.689972 -2.598292 1.895878 0
M  V30 27 C 0.682478 1.402989 1.272522 0
M  V30 28 C 1.961597 1.893766 1.158660 0
M  V30 29 C 2.900087 -1.126665 0.516896 0
M  V30 30 H 0.188365 -4.181723 0.615356 0
M  V30 31 H 1.011813 -4.737947 -0.829902 0
M  V30 32 H 4.059358 -3.295208 -1.776238 0
M  V30 33 H 4.908228 -1.244065 -2.713429 0
M  V30 34 H 4.471671 0.953895 -1.568309 0
M  V30 35 H 3.985547 4.324547 1.681333 0
M  V30 36 H 1.309021 4.860592 2.584451 0
M  V30 37 H -0.894939 3.928091 2.743771 0
M  V30 38 H -2.429634 2.191275 2.392366 0
M  V30 39 H -3.959942 -0.070498 2.832719 0
M  V30 40 H -4.331705 0.649124 1.187019 0
M  V30 41 H -4.342397 -0.659630 -0.747926 0
M  V30 42 H -4.654837 -2.819532 -1.808356 0
M  V30 43 H -3.737753 -4.721151 1.853059 0
M  V30 44 H -3.415378 -2.487233 2.946875 0
M  V30 45 H 0.545094 0.407713 0.883578 0
M  V30 46 H 2.330100 -1.094286 1.434578 0
M  V30 END ATOM
M  V30 BEGIN BOND
M  V30 1 1 1 2
M  V30 2 2 2 3
M  V30 3 2 2 4
M  V30 4 1 2 5
M  V30 5 2 5 6
M  V30 6 1 6 7
M  V30 7 2 7 8
M  V30 8 1 8 9
M  V30 9 1 9 10
M  V30 10 2 10 11
M  V30 11 1 11 12
M  V30 12 1 12 13
M  V30 13 2 13 14
M  V30 14 1 14 15
M  V30 15 2 15 16
M  V30 16 1 16 17
M  V30 17 1 17 18
M  V30 18 2 18 19
M  V30 19 1 18 20
M  V30 20 1 20 21
M  V30 21 2 21 22
M  V30 22 1 22 23
M  V30 23 2 23 24
M  V30 24 1 24 25
M  V30 25 2 25 26
M  V30 26 1 16 27
M  V30 27 2 27 28
M  V30 28 2 9 29
M  V30 29 1 29 5
M  V30 30 1 28 10
M  V30 31 1 28 13
M  V30 32 1 26 21
M  V30 33 1 1 30
M  V30 34 1 1 31
M  V30 35 1 6 32
M  V30 36 1 7 33
M  V30 37 1 8 34
M  V30 38 1 12 35
M  V30 39 1 14 36
M  V30 40 1 15 37
M  V30 41 1 17 38
M  V30 42 1 20 39
M  V30 43 1 20 40
M  V30 44 1 22 41
M  V30 45 1 23 42
M  V30 46 1 25 43
M  V30 47 1 26 44
M  V30 48 1 27 45
M  V30 49 1 29 46
M  V30 END BOND
M  V30 END CTAB
M  END
>  <Dataset>  (220) 
ChEMBL_Kinases

>  <Ligand_Instance>  (220) 
nan

>  <PDB_ID>  (220) 
nan

>  <Standardized_SMILES>  (220) 
NS(=O)(=O)c1cccc(-c2n[nH]c3ccc(NC(=O)Cc4ccncc4)cc23)c1

>  <Name>  (220) 
nan

>  <Pocket>  (220) 
nan

>  <ATP_Site>  (220) 
nan

>  <Peripheral>  (220) 
nan

>  <Num_H_Atoms_ProtBoundConf>  (220) 
nan

>  <Num_Resolved_Atoms>  (220) 
nan

>  <Num_Not_Resolved_Atoms>  (220) 
nan

$$$$
CHEMBL3330272
     RDKit          3D

  0  0  0  0  0  0  0  0  0  0999 V3000
M  V30 BEGIN CTAB
M  V30 COUNTS 50 53 0 0 0
M  V30 BEGIN ATOM
M  V30 1 C 2.169104 -1.572206 3.553008 0
M  V30 2 C 2.701218 -2.486930 2.516037 0
M  V30 3 C 2.358507 -3.822709 2.602279 0
M  V30 4 C 2.812045 -4.744759 1.675326 0
M  V30 5 C 3.631371 -4.319778 0.632522 0
M  V30 6 C 3.981059 -2.983829 0.536289 0
M  V30 7 C 3.520346 -2.074172 1.469690 0
M  V30 8 C 3.823806 -0.611099 1.476151 0
M  V30 9 N 2.639581 0.086303 0.994604 0
M  V30 10 C 2.543211 1.496080 0.862728 0
M  V30 11 O 3.524329 2.209204 1.173263 0
M  V30 12 C 1.352844 2.182824 0.379717 0
M  V30 13 C 1.385934 3.565994 0.303151 0
M  V30 14 C 0.291459 4.311026 -0.148082 0
M  V30 15 C -0.875637 3.663400 -0.536801 0
M  V30 16 N -2.090895 4.016081 -1.007305 0
M  V30 17 N -2.821852 2.953660 -1.208607 0
M  V30 18 C -2.164311 1.816391 -0.893389 0
M  V30 19 C -2.653804 0.447905 -0.986342 0
M  V30 20 C -3.315082 0.165516 -2.165079 0
M  V30 21 C -3.843588 -1.088159 -2.416226 0
M  V30 22 C -3.695541 -2.064696 -1.453673 0
M  V30 23 C -3.036426 -1.787950 -0.275660 0
M  V30 24 S -2.807600 -2.984380 1.002753 0
M  V30 25 N -4.121290 -2.906138 2.102105 0
M  V30 26 O -2.929180 -4.331259 0.302879 0
M  V30 27 O -1.476701 -2.883514 1.648316 0
M  V30 28 C -2.500348 -0.531620 -0.010419 0
M  V30 29 C -0.921797 2.273132 -0.464737 0
M  V30 30 C 0.185532 1.586884 -0.012593 0
M  V30 31 H 1.163180 -1.910732 3.855477 0
M  V30 32 H 2.058145 -0.525001 3.219497 0
M  V30 33 H 2.857443 -1.507445 4.443243 0
M  V30 34 H 1.715067 -4.156813 3.420771 0
M  V30 35 H 2.524591 -5.796529 1.768570 0
M  V30 36 H 3.987303 -5.031676 -0.091867 0
M  V30 37 H 4.615519 -2.594744 -0.253094 0
M  V30 38 H 4.088207 -0.348157 2.521514 0
M  V30 39 H 4.731483 -0.378549 0.875846 0
M  V30 40 H 1.779179 -0.433857 0.714946 0
M  V30 41 H 2.258071 4.168231 0.585908 0
M  V30 42 H 0.286901 5.387250 -0.218552 0
M  V30 43 H -2.293300 5.029953 -1.146836 0
M  V30 44 H -3.478147 0.869272 -2.975644 0
M  V30 45 H -4.377275 -1.377065 -3.325543 0
M  V30 46 H -4.079204 -3.091672 -1.558651 0
M  V30 47 H -3.803498 -3.364243 2.986504 0
M  V30 48 H -4.949602 -3.442065 1.774187 0
M  V30 49 H -1.973958 -0.245369 0.889064 0
M  V30 50 H 0.125125 0.526570 0.032021 0
M  V30 END ATOM
M  V30 BEGIN BOND
M  V30 1 1 1 2
M  V30 2 2 2 3
M  V30 3 1 3 4
M  V30 4 2 4 5
M  V30 5 1 5 6
M  V30 6 2 6 7
M  V30 7 1 7 8
M  V30 8 1 8 9
M  V30 9 1 9 10
M  V30 10 2 10 11
M  V30 11 1 10 12
M  V30 12 2 12 13
M  V30 13 1 13 14
M  V30 14 2 14 15
M  V30 15 1 15 16
M  V30 16 1 16 17
M  V30 17 2 17 18
M  V30 18 1 18 19
M  V30 19 2 19 20
M  V30 20 1 20 21
M  V30 21 2 21 22
M  V30 22 1 22 23
M  V30 23 1 23 24
M  V30 24 1 24 25
M  V30 25 2 24 26
M  V30 26 2 24 27
M  V30 27 2 23 28
M  V30 28 1 18 29
M  V30 29 2 29 30
M  V30 30 1 7 2
M  V30 31 1 30 12
M  V30 32 1 29 15
M  V30 33 1 28 19
M  V30 34 1 1 31
M  V30 35 1 1 32
M  V30 36 1 1 33
M  V30 37 1 3 34
M  V30 38 1 4 35
M  V30 39 1 5 36
M  V30 40 1 6 37
M  V30 41 1 8 38
M  V30 42 1 8 39
M  V30 43 1 9 40
M  V30 44 1 13 41
M  V30 45 1 14 42
M  V30 46 1 16 43
M  V30 47 1 20 44
M  V30 48 1 21 45
M  V30 49 1 22 46
M  V30 50 1 25 47
M  V30 51 1 25 48
M  V30 52 1 28 49
M  V30 53 1 30 50
M  V30 END BOND
M  V30 END CTAB
M  END
>  <Dataset>  (221) 
ChEMBL_Kinases

>  <Ligand_Instance>  (221) 
nan

>  <PDB_ID>  (221) 
nan

>  <Standardized_SMILES>  (221) 
Cc1ccccc1CNC(=O)c1ccc2[nH]nc(-c3cccc(S(N)(=O)=O)c3)c2c1

>  <Name>  (221) 
nan

>  <Pocket>  (221) 
nan

>  <ATP_Site>  (221) 
nan

>  <Peripheral>  (221) 
nan

>  <Num_H_Atoms_ProtBoundConf>  (221) 
nan

>  <Num_Resolved_Atoms>  (221) 
nan

>  <Num_Not_Resolved_Atoms>  (221) 
nan

$$$$
CHEMBL3330273
     RDKit          3D

  0  0  0  0  0  0  0  0  0  0999 V3000
M  V30 BEGIN CTAB
M  V30 COUNTS 50 53 0 0 0
M  V30 BEGIN ATOM
M  V30 1 C -5.400098 -1.051796 0.922329 0
M  V30 2 C -5.925635 -1.235676 -0.450393 0
M  V30 3 C -7.183679 -0.757280 -0.805305 0
M  V30 4 C -7.659852 -0.943356 -2.107670 0
M  V30 5 C -6.889547 -1.599039 -3.057070 0
M  V30 6 C -5.630940 -2.073552 -2.696131 0
M  V30 7 C -5.173156 -1.879896 -1.386255 0
M  V30 8 C -3.819134 -2.449871 -1.200228 0
M  V30 9 C -2.814831 -1.322291 -1.159122 0
M  V30 10 O -2.503674 -0.554307 -0.258330 0
M  V30 11 N -2.009005 -0.980543 -2.332640 0
M  V30 12 C -1.281747 0.115680 -1.715220 0
M  V30 13 C -1.807517 1.364870 -1.432888 0
M  V30 14 C -1.038168 2.330004 -0.870334 0
M  V30 15 C 0.274101 2.004363 -0.601033 0
M  V30 16 N 1.191866 2.801224 -0.048439 0
M  V30 17 N 2.298693 2.095241 0.028170 0
M  V30 18 C 2.103096 0.840357 -0.474889 0
M  V30 19 C 3.151869 -0.135399 -0.524739 0
M  V30 20 C 2.969075 -1.468786 -0.251966 0
M  V30 21 C 4.002608 -2.387164 -0.288048 0
M  V30 22 C 5.268873 -1.964238 -0.608882 0
M  V30 23 C 5.433868 -0.606535 -0.882449 0
M  V30 24 S 7.054967 -0.047375 -1.243270 0
M  V30 25 N 7.823784 0.458737 0.248399 0
M  V30 26 O 7.030232 1.098485 -2.222124 0
M  V30 27 O 7.854173 -1.191039 -1.785766 0
M  V30 28 C 4.435601 0.331020 -0.857436 0
M  V30 29 C 0.806191 0.775747 -0.877183 0
M  V30 30 C 0.045078 -0.194984 -1.438647 0
M  V30 31 H -4.644096 -1.808539 1.203972 0
M  V30 32 H -4.895115 -0.041945 1.000215 0
M  V30 33 H -6.227410 -1.013378 1.654528 0
M  V30 34 H -7.820472 -0.239881 -0.105308 0
M  V30 35 H -8.646710 -0.580966 -2.442136 0
M  V30 36 H -7.226820 -1.759277 -4.093582 0
M  V30 37 H -5.057434 -2.586383 -3.484820 0
M  V30 38 H -3.759656 -3.018730 -0.228483 0
M  V30 39 H -3.522557 -3.152081 -1.987782 0
M  V30 40 H -2.115510 -1.512023 -3.221128 0
M  V30 41 H -2.865667 1.398020 -1.728479 0
M  V30 42 H -1.523247 3.260775 -0.678889 0
M  V30 43 H 1.164986 3.787331 0.293465 0
M  V30 44 H 2.009301 -1.880155 0.012349 0
M  V30 45 H 3.826779 -3.445185 -0.071908 0
M  V30 46 H 6.089398 -2.643486 -0.650866 0
M  V30 47 H 7.536353 -0.172317 1.032331 0
M  V30 48 H 7.589204 1.456442 0.461326 0
M  V30 49 H 4.663574 1.379451 -1.085199 0
M  V30 50 H 0.502700 -1.146529 -1.650560 0
M  V30 END ATOM
M  V30 BEGIN BOND
M  V30 1 1 1 2
M  V30 2 2 2 3
M  V30 3 1 3 4
M  V30 4 2 4 5
M  V30 5 1 5 6
M  V30 6 2 6 7
M  V30 7 1 7 8
M  V30 8 1 8 9
M  V30 9 2 9 10
M  V30 10 1 9 11
M  V30 11 1 11 12
M  V30 12 2 12 13
M  V30 13 1 13 14
M  V30 14 2 14 15
M  V30 15 1 15 16
M  V30 16 1 16 17
M  V30 17 2 17 18
M  V30 18 1 18 19
M  V30 19 2 19 20
M  V30 20 1 20 21
M  V30 21 2 21 22
M  V30 22 1 22 23
M  V30 23 1 23 24
M  V30 24 1 24 25
M  V30 25 2 24 26
M  V30 26 2 24 27
M  V30 27 2 23 28
M  V30 28 1 18 29
M  V30 29 2 29 30
M  V30 30 1 7 2
M  V30 31 1 30 12
M  V30 32 1 29 15
M  V30 33 1 28 19
M  V30 34 1 1 31
M  V30 35 1 1 32
M  V30 36 1 1 33
M  V30 37 1 3 34
M  V30 38 1 4 35
M  V30 39 1 5 36
M  V30 40 1 6 37
M  V30 41 1 8 38
M  V30 42 1 8 39
M  V30 43 1 11 40
M  V30 44 1 13 41
M  V30 45 1 14 42
M  V30 46 1 16 43
M  V30 47 1 20 44
M  V30 48 1 21 45
M  V30 49 1 22 46
M  V30 50 1 25 47
M  V30 51 1 25 48
M  V30 52 1 28 49
M  V30 53 1 30 50
M  V30 END BOND
M  V30 END CTAB
M  END
>  <Dataset>  (222) 
ChEMBL_Kinases

>  <Ligand_Instance>  (222) 
nan

>  <PDB_ID>  (222) 
nan

>  <Standardized_SMILES>  (222) 
Cc1ccccc1CC(=O)Nc1ccc2[nH]nc(-c3cccc(S(N)(=O)=O)c3)c2c1

>  <Name>  (222) 
nan

>  <Pocket>  (222) 
nan

>  <ATP_Site>  (222) 
nan

>  <Peripheral>  (222) 
nan

>  <Num_H_Atoms_ProtBoundConf>  (222) 
nan

>  <Num_Resolved_Atoms>  (222) 
nan

>  <Num_Not_Resolved_Atoms>  (222) 
nan

$$$$
CHEMBL3330283
     RDKit          3D

  0  0  0  0  0  0  0  0  0  0999 V3000
M  V30 BEGIN CTAB
M  V30 COUNTS 60 64 0 0 0
M  V30 BEGIN ATOM
M  V30 1 N 2.984270 -2.527707 5.023784 0
M  V30 2 S 1.466959 -1.802284 4.622162 0
M  V30 3 O 0.494626 -2.139332 5.719706 0
M  V30 4 O 0.918076 -2.372666 3.348995 0
M  V30 5 C 1.611280 -0.058217 4.550685 0
M  V30 6 C 1.403552 0.741456 5.651380 0
M  V30 7 C 1.545059 2.096843 5.481580 0
M  V30 8 C 1.881642 2.636884 4.256054 0
M  V30 9 C 2.087502 1.803992 3.151128 0
M  V30 10 C 2.441540 2.473053 1.901306 0
M  V30 11 N 3.354005 3.465991 1.758439 0
M  V30 12 N 3.425606 3.846344 0.472898 0
M  V30 13 C 2.551236 3.080645 -0.172170 0
M  V30 14 C 2.207594 3.035330 -1.504477 0
M  V30 15 C 1.263009 2.160337 -2.000829 0
M  V30 16 C 0.608818 1.272139 -1.155095 0
M  V30 17 N -0.340748 0.405809 -1.738743 0
M  V30 18 C -1.152243 -0.565257 -1.113854 0
M  V30 19 O -1.076497 -0.720806 0.116240 0
M  V30 20 C -2.155132 -1.519709 -1.608954 0
M  V30 21 C -2.933635 -2.079961 -0.461719 0
M  V30 22 C -4.325673 -1.884129 -0.483794 0
M  V30 23 C -5.149841 -2.364876 0.544066 0
M  V30 24 C -4.573816 -3.043231 1.594677 0
M  V30 25 C -3.196133 -3.274578 1.682317 0
M  V30 26 C -2.494404 -2.759354 0.623149 0
M  V30 27 C -1.603758 -2.568046 -2.483747 0
M  V30 28 C -0.561719 -3.480024 -1.933802 0
M  V30 29 C -0.166234 -4.301562 -3.164425 0
M  V30 30 C -0.518194 -3.477309 -4.373944 0
M  V30 31 C -0.968041 -2.115081 -3.777442 0
M  V30 32 C 0.970644 1.339229 0.164805 0
M  V30 33 C 1.901862 2.200696 0.659615 0
M  V30 34 C 1.952484 0.420937 3.288359 0
M  V30 35 H 2.840556 -3.426083 5.509394 0
M  V30 36 H 3.618069 -2.564129 4.203565 0
M  V30 37 H 1.136400 0.291405 6.615102 0
M  V30 38 H 1.385080 2.724643 6.340948 0
M  V30 39 H 1.980445 3.710341 4.173782 0
M  V30 40 H 4.018685 4.574685 0.022163 0
M  V30 41 H 2.684038 3.701962 -2.204152 0
M  V30 42 H 1.039091 2.175808 -3.057835 0
M  V30 43 H -0.523906 0.452786 -2.761854 0
M  V30 44 H -2.900641 -0.936473 -2.212508 0
M  V30 45 H -4.870810 -1.358992 -1.275139 0
M  V30 46 H -6.220110 -2.220357 0.537404 0
M  V30 47 H -5.201394 -3.422688 2.400679 0
M  V30 48 H -2.709737 -3.796986 2.482610 0
M  V30 49 H -1.411520 -2.926689 0.671382 0
M  V30 50 H -2.441142 -3.264513 -2.827614 0
M  V30 51 H -0.953448 -4.260897 -1.225810 0
M  V30 52 H 0.357963 -2.997888 -1.578781 0
M  V30 53 H -0.775738 -5.225833 -3.232723 0
M  V30 54 H 0.922840 -4.541235 -3.134266 0
M  V30 55 H -1.294514 -3.901705 -5.014161 0
M  V30 56 H 0.399600 -3.357815 -4.981601 0
M  V30 57 H -1.624431 -1.608631 -4.474158 0
M  V30 58 H 0.011952 -1.596046 -3.632510 0
M  V30 59 H 0.516756 0.695920 0.868060 0
M  V30 60 H 2.118891 -0.191107 2.414543 0
M  V30 END ATOM
M  V30 BEGIN BOND
M  V30 1 1 1 2
M  V30 2 2 2 3
M  V30 3 2 2 4
M  V30 4 1 2 5
M  V30 5 2 5 6
M  V30 6 1 6 7
M  V30 7 2 7 8
M  V30 8 1 8 9
M  V30 9 1 9 10
M  V30 10 2 10 11
M  V30 11 1 11 12
M  V30 12 1 12 13
M  V30 13 2 13 14
M  V30 14 1 14 15
M  V30 15 2 15 16
M  V30 16 1 16 17
M  V30 17 1 17 18
M  V30 18 2 18 19
M  V30 19 1 18 20
M  V30 20 1 20 21
M  V30 21 2 21 22
M  V30 22 1 22 23
M  V30 23 2 23 24
M  V30 24 1 24 25
M  V30 25 2 25 26
M  V30 26 1 20 27
M  V30 27 1 27 28
M  V30 28 1 28 29
M  V30 29 1 29 30
M  V30 30 1 30 31
M  V30 31 1 16 32
M  V30 32 2 32 33
M  V30 33 2 9 34
M  V30 34 1 34 5
M  V30 35 1 33 10
M  V30 36 1 33 13
M  V30 37 1 26 21
M  V30 38 1 31 27
M  V30 39 1 1 35
M  V30 40 1 1 36
M  V30 41 1 6 37
M  V30 42 1 7 38
M  V30 43 1 8 39
M  V30 44 1 12 40
M  V30 45 1 14 41
M  V30 46 1 15 42
M  V30 47 1 17 43
M  V30 48 1 20 44
M  V30 49 1 22 45
M  V30 50 1 23 46
M  V30 51 1 24 47
M  V30 52 1 25 48
M  V30 53 1 26 49
M  V30 54 1 27 50
M  V30 55 1 28 51
M  V30 56 1 28 52
M  V30 57 1 29 53
M  V30 58 1 29 54
M  V30 59 1 30 55
M  V30 60 1 30 56
M  V30 61 1 31 57
M  V30 62 1 31 58
M  V30 63 1 32 59
M  V30 64 1 34 60
M  V30 END BOND
M  V30 END CTAB
M  END
>  <Dataset>  (223) 
ChEMBL_Kinases

>  <Ligand_Instance>  (223) 
nan

>  <PDB_ID>  (223) 
nan

>  <Standardized_SMILES>  (223) 
NS(=O)(=O)c1cccc(-c2n[nH]c3ccc(NC(=O)C(c4ccccc4)C4CCCC4)cc23)c1

>  <Name>  (223) 
nan

>  <Pocket>  (223) 
nan

>  <ATP_Site>  (223) 
nan

>  <Peripheral>  (223) 
nan

>  <Num_H_Atoms_ProtBoundConf>  (223) 
nan

>  <Num_Resolved_Atoms>  (223) 
nan

>  <Num_Not_Resolved_Atoms>  (223) 
nan

$$$$
CHEMBL3330275
     RDKit          3D

  0  0  0  0  0  0  0  0  0  0999 V3000
M  V30 BEGIN CTAB
M  V30 COUNTS 59 62 0 0 0
M  V30 BEGIN ATOM
M  V30 1 C 2.346546 -1.841283 2.630725 0
M  V30 2 C 2.533196 -1.721142 1.145171 0
M  V30 3 C 3.534932 -0.659189 0.774962 0
M  V30 4 C 4.802286 -1.089679 0.384244 0
M  V30 5 C 5.745317 -0.152439 0.044030 0
M  V30 6 C 5.351449 1.154010 0.119827 0
M  V30 7 C 4.101563 1.668160 0.502308 0
M  V30 8 C 3.910717 3.111548 0.539168 0
M  V30 9 C 3.157363 3.637659 -0.640808 0
M  V30 10 C 3.195929 0.675784 0.831244 0
M  V30 11 C 1.859349 1.075489 1.302614 0
M  V30 12 N 0.758451 0.706002 0.467623 0
M  V30 13 C 0.289443 0.850529 -0.853730 0
M  V30 14 O 1.051189 1.511664 -1.598482 0
M  V30 15 C -0.937182 0.336298 -1.429812 0
M  V30 16 C -1.149104 0.641522 -2.755091 0
M  V30 17 C -2.318241 0.175126 -3.370246 0
M  V30 18 C -3.258695 -0.574746 -2.698145 0
M  V30 19 N -4.437093 -1.125429 -3.058257 0
M  V30 20 N -4.965957 -1.759294 -2.014910 0
M  V30 21 C -4.123801 -1.624292 -0.952117 0
M  V30 22 C -4.334972 -2.167785 0.386129 0
M  V30 23 C -5.540136 -2.070075 1.083218 0
M  V30 24 C -5.641673 -2.618749 2.343354 0
M  V30 25 C -4.566642 -3.262758 2.922797 0
M  V30 26 C -3.354396 -3.388936 2.281199 0
M  V30 27 S -1.964297 -4.197340 2.986094 0
M  V30 28 N -1.986193 -5.874612 2.618306 0
M  V30 29 O -1.971617 -4.018191 4.475460 0
M  V30 30 O -0.681830 -3.550194 2.504369 0
M  V30 31 C -3.270040 -2.827898 1.007160 0
M  V30 32 C -3.040839 -0.880905 -1.359949 0
M  V30 33 C -1.894852 -0.412101 -0.793087 0
M  V30 34 H 1.291430 -1.673825 2.926271 0
M  V30 35 H 3.058977 -1.181892 3.195534 0
M  V30 36 H 2.581537 -2.869252 3.027491 0
M  V30 37 H 2.926268 -2.724276 0.809414 0
M  V30 38 H 1.594017 -1.600920 0.575284 0
M  V30 39 H 5.031697 -2.128389 0.351679 0
M  V30 40 H 6.745309 -0.414327 -0.267708 0
M  V30 41 H 6.125792 1.889280 -0.159256 0
M  V30 42 H 3.502259 3.487626 1.506440 0
M  V30 43 H 4.923947 3.593970 0.496532 0
M  V30 44 H 3.536156 4.653591 -0.964295 0
M  V30 45 H 2.080290 3.791901 -0.482103 0
M  V30 46 H 3.351998 2.997298 -1.542794 0
M  V30 47 H 1.726845 0.592443 2.288919 0
M  V30 48 H 1.796400 2.164671 1.534680 0
M  V30 49 H 0.000888 0.124603 0.966094 0
M  V30 50 H -0.481390 1.226783 -3.397027 0
M  V30 51 H -2.488304 0.413255 -4.410474 0
M  V30 52 H -4.879213 -1.069950 -4.008620 0
M  V30 53 H -6.344286 -1.554788 0.577282 0
M  V30 54 H -6.580506 -2.537527 2.874631 0
M  V30 55 H -4.652620 -3.691630 3.912628 0
M  V30 56 H -2.267962 -6.474136 3.425293 0
M  V30 57 H -1.077385 -6.169194 2.185859 0
M  V30 58 H -2.311091 -2.941229 0.519444 0
M  V30 59 H -1.722358 -0.645772 0.242979 0
M  V30 END ATOM
M  V30 BEGIN BOND
M  V30 1 1 1 2
M  V30 2 1 2 3
M  V30 3 2 3 4
M  V30 4 1 4 5
M  V30 5 2 5 6
M  V30 6 1 6 7
M  V30 7 1 7 8
M  V30 8 1 8 9
M  V30 9 2 7 10
M  V30 10 1 10 11
M  V30 11 1 11 12
M  V30 12 1 12 13
M  V30 13 2 13 14
M  V30 14 1 13 15
M  V30 15 2 15 16
M  V30 16 1 16 17
M  V30 17 2 17 18
M  V30 18 1 18 19
M  V30 19 1 19 20
M  V30 20 2 20 21
M  V30 21 1 21 22
M  V30 22 2 22 23
M  V30 23 1 23 24
M  V30 24 2 24 25
M  V30 25 1 25 26
M  V30 26 1 26 27
M  V30 27 1 27 28
M  V30 28 2 27 29
M  V30 29 2 27 30
M  V30 30 2 26 31
M  V30 31 1 21 32
M  V30 32 2 32 33
M  V30 33 1 10 3
M  V30 34 1 33 15
M  V30 35 1 32 18
M  V30 36 1 31 22
M  V30 37 1 1 34
M  V30 38 1 1 35
M  V30 39 1 1 36
M  V30 40 1 2 37
M  V30 41 1 2 38
M  V30 42 1 4 39
M  V30 43 1 5 40
M  V30 44 1 6 41
M  V30 45 1 8 42
M  V30 46 1 8 43
M  V30 47 1 9 44
M  V30 48 1 9 45
M  V30 49 1 9 46
M  V30 50 1 11 47
M  V30 51 1 11 48
M  V30 52 1 12 49
M  V30 53 1 16 50
M  V30 54 1 17 51
M  V30 55 1 19 52
M  V30 56 1 23 53
M  V30 57 1 24 54
M  V30 58 1 25 55
M  V30 59 1 28 56
M  V30 60 1 28 57
M  V30 61 1 31 58
M  V30 62 1 33 59
M  V30 END BOND
M  V30 END CTAB
M  END
>  <Dataset>  (224) 
ChEMBL_Kinases

>  <Ligand_Instance>  (224) 
nan

>  <PDB_ID>  (224) 
nan

>  <Standardized_SMILES>  (224) 
CCc1cccc(CC)c1CNC(=O)c1ccc2[nH]nc(-c3cccc(S(N)(=O)=O)c3)c2c1

>  <Name>  (224) 
nan

>  <Pocket>  (224) 
nan

>  <ATP_Site>  (224) 
nan

>  <Peripheral>  (224) 
nan

>  <Num_H_Atoms_ProtBoundConf>  (224) 
nan

>  <Num_Resolved_Atoms>  (224) 
nan

>  <Num_Not_Resolved_Atoms>  (224) 
nan

$$$$
CHEMBL3330276
     RDKit          3D

  0  0  0  0  0  0  0  0  0  0999 V3000
M  V30 BEGIN CTAB
M  V30 COUNTS 59 63 0 0 0
M  V30 BEGIN ATOM
M  V30 1 N 8.066116 -1.603215 2.554028 0
M  V30 2 S 6.936841 -2.292108 1.425516 0
M  V30 3 O 6.935032 -3.786174 1.626563 0
M  V30 4 O 7.412107 -2.001750 0.043148 0
M  V30 5 C 5.358665 -1.649714 1.765826 0
M  V30 6 C 4.578697 -2.351089 2.669434 0
M  V30 7 C 3.315737 -1.893066 2.982301 0
M  V30 8 C 2.843800 -0.732401 2.385016 0
M  V30 9 C 3.613180 -0.028372 1.484883 0
M  V30 10 C 3.044495 1.182324 0.900851 0
M  V30 11 N 3.769109 2.322869 0.800689 0
M  V30 12 N 3.029192 3.273449 0.237396 0
M  V30 13 C 1.800123 2.797049 -0.051526 0
M  V30 14 C 0.636950 3.280299 -0.618835 0
M  V30 15 C -0.485570 2.457847 -0.760772 0
M  V30 16 C -0.434295 1.148526 -0.330468 0
M  V30 17 C -1.643210 0.353343 -0.511661 0
M  V30 18 O -2.633187 0.880388 -1.030408 0
M  V30 19 N -1.781294 -1.004536 -0.134065 0
M  V30 20 C -3.023147 -1.669281 -0.367934 0
M  V30 21 C -4.159898 -1.064070 0.353802 0
M  V30 22 C -3.806163 -0.430659 1.529476 0
M  V30 23 C -4.751458 0.181937 2.315897 0
M  V30 24 C -6.089383 0.167037 1.926119 0
M  V30 25 C -6.432406 -0.477107 0.735076 0
M  V30 26 C -5.473197 -1.088263 -0.045101 0
M  V30 27 C -2.867910 -3.102936 0.137944 0
M  V30 28 C -1.741319 -3.722450 -0.629983 0
M  V30 29 N -1.230460 -2.857806 -1.671126 0
M  V30 30 C -2.230341 -2.421078 -2.611657 0
M  V30 31 C -3.383901 -1.823450 -1.827540 0
M  V30 32 C 0.724153 0.659881 0.236846 0
M  V30 33 C 1.813034 1.494468 0.362955 0
M  V30 34 C 4.875069 -0.505590 1.186413 0
M  V30 35 H 7.533513 -1.394152 3.418244 0
M  V30 36 H 8.517152 -0.789516 2.111434 0
M  V30 37 H 4.950607 -3.261546 3.137087 0
M  V30 38 H 2.736800 -2.480834 3.701493 0
M  V30 39 H 1.845205 -0.474360 2.707536 0
M  V30 40 H 3.326329 4.245857 0.037506 0
M  V30 41 H 0.671478 4.327219 -0.935937 0
M  V30 42 H -1.321295 2.968848 -1.219926 0
M  V30 43 H -0.939678 -1.472009 0.313004 0
M  V30 44 H -2.798643 -0.371687 1.904331 0
M  V30 45 H -4.544518 0.694467 3.245605 0
M  V30 46 H -6.905529 0.632245 2.496527 0
M  V30 47 H -7.478219 -0.490537 0.427405 0
M  V30 48 H -5.701232 -1.595885 -0.972254 0
M  V30 49 H -2.612146 -2.990554 1.214388 0
M  V30 50 H -3.823570 -3.649710 0.009652 0
M  V30 51 H -0.897933 -3.900678 0.068452 0
M  V30 52 H -1.993199 -4.747356 -1.021326 0
M  V30 53 H -0.383954 -3.255811 -2.083826 0
M  V30 54 H -2.549988 -3.196312 -3.312215 0
M  V30 55 H -1.776691 -1.612056 -3.213880 0
M  V30 56 H -3.823054 -0.943073 -2.292521 0
M  V30 57 H -4.179420 -2.626415 -1.856464 0
M  V30 58 H 0.755699 -0.367930 0.571510 0
M  V30 59 H 5.475995 0.042546 0.484621 0
M  V30 END ATOM
M  V30 BEGIN BOND
M  V30 1 1 1 2
M  V30 2 2 2 3
M  V30 3 2 2 4
M  V30 4 1 2 5
M  V30 5 2 5 6
M  V30 6 1 6 7
M  V30 7 2 7 8
M  V30 8 1 8 9
M  V30 9 1 9 10
M  V30 10 2 10 11
M  V30 11 1 11 12
M  V30 12 1 12 13
M  V30 13 2 13 14
M  V30 14 1 14 15
M  V30 15 2 15 16
M  V30 16 1 16 17
M  V30 17 2 17 18
M  V30 18 1 17 19
M  V30 19 1 19 20
M  V30 20 1 20 21
M  V30 21 2 21 22
M  V30 22 1 22 23
M  V30 23 2 23 24
M  V30 24 1 24 25
M  V30 25 2 25 26
M  V30 26 1 20 27
M  V30 27 1 27 28
M  V30 28 1 28 29
M  V30 29 1 29 30
M  V30 30 1 30 31
M  V30 31 1 16 32
M  V30 32 2 32 33
M  V30 33 2 9 34
M  V30 34 1 34 5
M  V30 35 1 33 10
M  V30 36 1 33 13
M  V30 37 1 31 20
M  V30 38 1 26 21
M  V30 39 1 1 35
M  V30 40 1 1 36
M  V30 41 1 6 37
M  V30 42 1 7 38
M  V30 43 1 8 39
M  V30 44 1 12 40
M  V30 45 1 14 41
M  V30 46 1 15 42
M  V30 47 1 19 43
M  V30 48 1 22 44
M  V30 49 1 23 45
M  V30 50 1 24 46
M  V30 51 1 25 47
M  V30 52 1 26 48
M  V30 53 1 27 49
M  V30 54 1 27 50
M  V30 55 1 28 51
M  V30 56 1 28 52
M  V30 57 1 29 53
M  V30 58 1 30 54
M  V30 59 1 30 55
M  V30 60 1 31 56
M  V30 61 1 31 57
M  V30 62 1 32 58
M  V30 63 1 34 59
M  V30 END BOND
M  V30 END CTAB
M  END
>  <Dataset>  (225) 
ChEMBL_Kinases

>  <Ligand_Instance>  (225) 
nan

>  <PDB_ID>  (225) 
nan

>  <Standardized_SMILES>  (225) 
NS(=O)(=O)c1cccc(-c2n[nH]c3ccc(C(=O)NC4(c5ccccc5)CCNCC4)cc23)c1

>  <Name>  (225) 
nan

>  <Pocket>  (225) 
nan

>  <ATP_Site>  (225) 
nan

>  <Peripheral>  (225) 
nan

>  <Num_H_Atoms_ProtBoundConf>  (225) 
nan

>  <Num_Resolved_Atoms>  (225) 
nan

>  <Num_Not_Resolved_Atoms>  (225) 
nan

$$$$
CHEMBL3330277
     RDKit          3D

  0  0  0  0  0  0  0  0  0  0999 V3000
M  V30 BEGIN CTAB
M  V30 COUNTS 51 55 0 0 0
M  V30 BEGIN ATOM
M  V30 1 N 2.893995 0.294047 5.952197 0
M  V30 2 S 2.645324 -0.902276 4.728928 0
M  V30 3 O 1.188397 -0.941893 4.392689 0
M  V30 4 O 3.173771 -2.238606 5.138664 0
M  V30 5 C 3.519248 -0.346203 3.301000 0
M  V30 6 C 4.842973 -0.680185 3.060030 0
M  V30 7 C 5.471748 -0.214386 1.925273 0
M  V30 8 C 4.829717 0.588479 0.994993 0
M  V30 9 C 3.498979 0.921682 1.241402 0
M  V30 10 C 2.850097 1.767948 0.244258 0
M  V30 11 N 3.388671 2.870872 -0.319083 0
M  V30 12 N 2.547878 3.419599 -1.189053 0
M  V30 13 C 1.409256 2.684184 -1.228015 0
M  V30 14 C 0.230354 2.819891 -1.959585 0
M  V30 15 C -0.767512 1.876888 -1.763741 0
M  V30 16 C -0.586200 0.841366 -0.869453 0
M  V30 17 N -1.538636 -0.179566 -0.589400 0
M  V30 18 C -1.545045 -1.382009 -1.339822 0
M  V30 19 O -0.634489 -1.403863 -2.242730 0
M  V30 20 C -2.394114 -2.572913 -1.262839 0
M  V30 21 C -3.401132 -2.573008 -0.176175 0
M  V30 22 C -3.220258 -2.292276 1.151540 0
M  V30 23 C -4.227959 -2.305329 2.074896 0
M  V30 24 C -5.521652 -2.617104 1.680506 0
M  V30 25 C -5.728355 -2.907552 0.328895 0
M  V30 26 C -4.685920 -2.886126 -0.585221 0
M  V30 27 C -2.574203 -3.474205 -2.421378 0
M  V30 28 C -1.571731 -3.881148 -1.406759 0
M  V30 29 C 0.596666 0.717754 -0.145092 0
M  V30 30 C 1.595662 1.650643 -0.332544 0
M  V30 31 C 2.886025 0.445456 2.383796 0
M  V30 32 H 3.256496 1.190940 5.579347 0
M  V30 33 H 3.462666 -0.052438 6.735344 0
M  V30 34 H 5.361205 -1.306890 3.776039 0
M  V30 35 H 6.511587 -0.508860 1.788461 0
M  V30 36 H 5.425547 0.885485 0.155614 0
M  V30 37 H 2.760692 4.280019 -1.738811 0
M  V30 38 H 0.089941 3.631556 -2.659644 0
M  V30 39 H -1.711078 1.908921 -2.290268 0
M  V30 40 H -2.275249 -0.127517 0.145111 0
M  V30 41 H -2.227738 -2.063441 1.460717 0
M  V30 42 H -4.017680 -2.075653 3.097527 0
M  V30 43 H -6.301568 -2.620821 2.429305 0
M  V30 44 H -6.772482 -3.136556 0.132956 0
M  V30 45 H -5.069157 -3.137104 -1.555097 0
M  V30 46 H -2.242312 -3.181990 -3.422274 0
M  V30 47 H -3.495498 -4.090752 -2.419082 0
M  V30 48 H -0.532910 -3.819661 -1.733971 0
M  V30 49 H -1.775137 -4.634254 -0.647332 0
M  V30 50 H 0.774465 -0.083157 0.566553 0
M  V30 51 H 1.854361 0.715303 2.555991 0
M  V30 END ATOM
M  V30 BEGIN BOND
M  V30 1 1 1 2
M  V30 2 2 2 3
M  V30 3 2 2 4
M  V30 4 1 2 5
M  V30 5 2 5 6
M  V30 6 1 6 7
M  V30 7 2 7 8
M  V30 8 1 8 9
M  V30 9 1 9 10
M  V30 10 2 10 11
M  V30 11 1 11 12
M  V30 12 1 12 13
M  V30 13 2 13 14
M  V30 14 1 14 15
M  V30 15 2 15 16
M  V30 16 1 16 17
M  V30 17 1 17 18
M  V30 18 2 18 19
M  V30 19 1 18 20
M  V30 20 1 20 21
M  V30 21 2 21 22
M  V30 22 1 22 23
M  V30 23 2 23 24
M  V30 24 1 24 25
M  V30 25 2 25 26
M  V30 26 1 20 27
M  V30 27 1 27 28
M  V30 28 1 16 29
M  V30 29 2 29 30
M  V30 30 2 9 31
M  V30 31 1 31 5
M  V30 32 1 30 10
M  V30 33 1 30 13
M  V30 34 1 28 20
M  V30 35 1 26 21
M  V30 36 1 1 32
M  V30 37 1 1 33
M  V30 38 1 6 34
M  V30 39 1 7 35
M  V30 40 1 8 36
M  V30 41 1 12 37
M  V30 42 1 14 38
M  V30 43 1 15 39
M  V30 44 1 17 40
M  V30 45 1 22 41
M  V30 46 1 23 42
M  V30 47 1 24 43
M  V30 48 1 25 44
M  V30 49 1 26 45
M  V30 50 1 27 46
M  V30 51 1 27 47
M  V30 52 1 28 48
M  V30 53 1 28 49
M  V30 54 1 29 50
M  V30 55 1 31 51
M  V30 END BOND
M  V30 END CTAB
M  END
>  <Dataset>  (226) 
ChEMBL_Kinases

>  <Ligand_Instance>  (226) 
nan

>  <PDB_ID>  (226) 
nan

>  <Standardized_SMILES>  (226) 
NS(=O)(=O)c1cccc(-c2n[nH]c3ccc(NC(=O)C4(c5ccccc5)CC4)cc23)c1

>  <Name>  (226) 
nan

>  <Pocket>  (226) 
nan

>  <ATP_Site>  (226) 
nan

>  <Peripheral>  (226) 
nan

>  <Num_H_Atoms_ProtBoundConf>  (226) 
nan

>  <Num_Resolved_Atoms>  (226) 
nan

>  <Num_Not_Resolved_Atoms>  (226) 
nan

$$$$
CHEMBL3330278
     RDKit          3D

  0  0  0  0  0  0  0  0  0  0999 V3000
M  V30 BEGIN CTAB
M  V30 COUNTS 51 55 0 0 0
M  V30 BEGIN ATOM
M  V30 1 N 5.903819 -0.430940 4.172539 0
M  V30 2 S 5.422457 -1.137443 2.654169 0
M  V30 3 O 4.116253 -1.835514 2.880798 0
M  V30 4 O 6.505529 -2.088236 2.225798 0
M  V30 5 C 5.266124 0.135982 1.465695 0
M  V30 6 C 6.307307 0.555926 0.660435 0
M  V30 7 C 6.102162 1.571861 -0.257326 0
M  V30 8 C 4.833209 2.150154 -0.343929 0
M  V30 9 C 3.769364 1.749029 0.451456 0
M  V30 10 C 2.476552 2.408864 0.294381 0
M  V30 11 N 2.303345 3.738654 0.192692 0
M  V30 12 N 1.027421 4.053263 0.059396 0
M  V30 13 C 0.335243 2.900093 0.073049 0
M  V30 14 C -1.007107 2.596772 -0.026092 0
M  V30 15 C -1.395238 1.280841 0.024932 0
M  V30 16 C -0.547924 0.207380 0.169568 0
M  V30 17 C -0.928755 -1.194199 0.226753 0
M  V30 18 O -0.009615 -2.053832 0.363636 0
M  V30 19 N -2.250013 -1.691871 0.142313 0
M  V30 20 C -2.816730 -3.016792 0.179204 0
M  V30 21 C -4.291084 -2.999812 0.423556 0
M  V30 22 C -4.968570 -3.751752 1.345291 0
M  V30 23 C -6.348667 -3.604736 1.434300 0
M  V30 24 C -7.073306 -2.739643 0.641572 0
M  V30 25 C -6.347511 -2.004053 -0.271341 0
M  V30 26 C -4.995425 -2.121219 -0.387168 0
M  V30 27 C -2.404591 -4.023822 -0.855759 0
M  V30 28 C -2.011697 -4.166493 0.568685 0
M  V30 29 C 0.782618 0.549526 0.265165 0
M  V30 30 C 1.216052 1.852484 0.219008 0
M  V30 31 C 4.040806 0.730150 1.347035 0
M  V30 32 H 5.139310 0.188020 4.537188 0
M  V30 33 H 6.145647 -1.158021 4.866308 0
M  V30 34 H 7.254484 0.042662 0.805047 0
M  V30 35 H 6.926254 1.888638 -0.879401 0
M  V30 36 H 4.686462 2.951522 -1.073552 0
M  V30 37 H 0.601364 5.007756 -0.040253 0
M  V30 38 H -1.735678 3.391669 -0.142169 0
M  V30 39 H -2.454924 1.088430 -0.056392 0
M  V30 40 H -2.913866 -0.862908 0.025718 0
M  V30 41 H -4.389689 -4.410767 1.944394 0
M  V30 42 H -6.884054 -4.198556 2.162303 0
M  V30 43 H -8.144605 -2.638140 0.724087 0
M  V30 44 H -6.931935 -1.320903 -0.895145 0
M  V30 45 H -4.539198 -1.492493 -1.138262 0
M  V30 46 H -1.684416 -3.644252 -1.584434 0
M  V30 47 H -3.144838 -4.756533 -1.212883 0
M  V30 48 H -2.489113 -4.947261 1.206854 0
M  V30 49 H -0.939471 -4.065945 0.785902 0
M  V30 50 H 1.527409 -0.228810 0.381484 0
M  V30 51 H 3.206531 0.418562 1.968053 0
M  V30 END ATOM
M  V30 BEGIN BOND
M  V30 1 1 1 2
M  V30 2 2 2 3
M  V30 3 2 2 4
M  V30 4 1 2 5
M  V30 5 2 5 6
M  V30 6 1 6 7
M  V30 7 2 7 8
M  V30 8 1 8 9
M  V30 9 1 9 10
M  V30 10 2 10 11
M  V30 11 1 11 12
M  V30 12 1 12 13
M  V30 13 2 13 14
M  V30 14 1 14 15
M  V30 15 2 15 16
M  V30 16 1 16 17
M  V30 17 2 17 18
M  V30 18 1 17 19
M  V30 19 1 19 20
M  V30 20 1 20 21
M  V30 21 2 21 22
M  V30 22 1 22 23
M  V30 23 2 23 24
M  V30 24 1 24 25
M  V30 25 2 25 26
M  V30 26 1 20 27
M  V30 27 1 27 28
M  V30 28 1 16 29
M  V30 29 2 29 30
M  V30 30 2 9 31
M  V30 31 1 31 5
M  V30 32 1 30 10
M  V30 33 1 30 13
M  V30 34 1 28 20
M  V30 35 1 26 21
M  V30 36 1 1 32
M  V30 37 1 1 33
M  V30 38 1 6 34
M  V30 39 1 7 35
M  V30 40 1 8 36
M  V30 41 1 12 37
M  V30 42 1 14 38
M  V30 43 1 15 39
M  V30 44 1 19 40
M  V30 45 1 22 41
M  V30 46 1 23 42
M  V30 47 1 24 43
M  V30 48 1 25 44
M  V30 49 1 26 45
M  V30 50 1 27 46
M  V30 51 1 27 47
M  V30 52 1 28 48
M  V30 53 1 28 49
M  V30 54 1 29 50
M  V30 55 1 31 51
M  V30 END BOND
M  V30 END CTAB
M  END
>  <Dataset>  (227) 
ChEMBL_Kinases

>  <Ligand_Instance>  (227) 
nan

>  <PDB_ID>  (227) 
nan

>  <Standardized_SMILES>  (227) 
NS(=O)(=O)c1cccc(-c2n[nH]c3ccc(C(=O)NC4(c5ccccc5)CC4)cc23)c1

>  <Name>  (227) 
nan

>  <Pocket>  (227) 
nan

>  <ATP_Site>  (227) 
nan

>  <Peripheral>  (227) 
nan

>  <Num_H_Atoms_ProtBoundConf>  (227) 
nan

>  <Num_Resolved_Atoms>  (227) 
nan

>  <Num_Not_Resolved_Atoms>  (227) 
nan

$$$$
CHEMBL3330279
     RDKit          3D

  0  0  0  0  0  0  0  0  0  0999 V3000
M  V30 BEGIN CTAB
M  V30 COUNTS 53 56 0 0 0
M  V30 BEGIN ATOM
M  V30 1 C 2.788851 -5.027572 0.697739 0
M  V30 2 C 2.230261 -4.756686 2.058036 0
M  V30 3 C 1.130051 -3.776087 2.130128 0
M  V30 4 C 1.557846 -2.452372 1.623406 0
M  V30 5 O 1.989154 -1.582757 2.462392 0
M  V30 6 N 1.615471 -1.847934 0.344940 0
M  V30 7 C 2.098060 -0.530484 0.228315 0
M  V30 8 C 3.440274 -0.193681 0.019515 0
M  V30 9 C 3.873483 1.106376 -0.089253 0
M  V30 10 C 2.917765 2.094871 0.016762 0
M  V30 11 N 2.966915 3.449532 -0.037503 0
M  V30 12 N 1.741769 3.969533 0.124347 0
M  V30 13 C 0.852001 2.987492 0.289116 0
M  V30 14 C -0.578575 3.213215 0.491352 0
M  V30 15 C -0.949644 4.202892 1.393178 0
M  V30 16 C -2.309424 4.428895 1.595845 0
M  V30 17 C -3.292726 3.706342 0.934209 0
M  V30 18 C -2.875699 2.731190 0.045751 0
M  V30 19 S -4.026564 1.746466 -0.855475 0
M  V30 20 N -4.429653 2.485799 -2.365112 0
M  V30 21 O -5.273689 1.516373 -0.054127 0
M  V30 22 O -3.453849 0.389711 -1.146884 0
M  V30 23 C -1.535937 2.475466 -0.184078 0
M  V30 24 C 1.589959 1.822587 0.221205 0
M  V30 25 C 1.170659 0.512556 0.328277 0
M  V30 26 C -0.178685 -4.171958 1.609171 0
M  V30 27 C -0.471930 -4.560869 0.318263 0
M  V30 28 C -1.716061 -4.925550 -0.145934 0
M  V30 29 C -2.783576 -4.915533 0.715631 0
M  V30 30 C -2.605569 -4.543736 2.029023 0
M  V30 31 C -1.330061 -4.192991 2.414452 0
M  V30 32 H 2.225623 -5.839894 0.156877 0
M  V30 33 H 2.768180 -4.140682 0.048929 0
M  V30 34 H 3.844213 -5.407969 0.748496 0
M  V30 35 H 3.061859 -4.356278 2.721304 0
M  V30 36 H 1.973203 -5.728354 2.584319 0
M  V30 37 H 0.952975 -3.636385 3.262452 0
M  V30 38 H 1.267694 -2.455805 -0.428048 0
M  V30 39 H 4.153703 -1.014318 -0.056750 0
M  V30 40 H 4.886091 1.387908 -0.247731 0
M  V30 41 H 3.852636 3.983491 -0.186115 0
M  V30 42 H -0.277450 4.816184 1.954346 0
M  V30 43 H -2.625320 5.203985 2.302065 0
M  V30 44 H -4.349415 3.878815 1.088825 0
M  V30 45 H -5.421194 2.276317 -2.607691 0
M  V30 46 H -3.769525 2.123842 -3.111531 0
M  V30 47 H -1.232044 1.705856 -0.885333 0
M  V30 48 H 0.130040 0.266250 0.489645 0
M  V30 49 H 0.300056 -4.596827 -0.406329 0
M  V30 50 H -1.892132 -5.220389 -1.160560 0
M  V30 51 H -3.775118 -5.191378 0.403393 0
M  V30 52 H -3.417246 -4.524423 2.729917 0
M  V30 53 H -1.221640 -3.905011 3.454435 0
M  V30 END ATOM
M  V30 BEGIN BOND
M  V30 1 1 1 2
M  V30 2 1 2 3
M  V30 3 1 3 4
M  V30 4 2 4 5
M  V30 5 1 4 6
M  V30 6 1 6 7
M  V30 7 2 7 8
M  V30 8 1 8 9
M  V30 9 2 9 10
M  V30 10 1 10 11
M  V30 11 1 11 12
M  V30 12 2 12 13
M  V30 13 1 13 14
M  V30 14 2 14 15
M  V30 15 1 15 16
M  V30 16 2 16 17
M  V30 17 1 17 18
M  V30 18 1 18 19
M  V30 19 1 19 20
M  V30 20 2 19 21
M  V30 21 2 19 22
M  V30 22 2 18 23
M  V30 23 1 13 24
M  V30 24 2 24 25
M  V30 25 1 3 26
M  V30 26 2 26 27
M  V30 27 1 27 28
M  V30 28 2 28 29
M  V30 29 1 29 30
M  V30 30 2 30 31
M  V30 31 1 25 7
M  V30 32 1 31 26
M  V30 33 1 24 10
M  V30 34 1 23 14
M  V30 35 1 1 32
M  V30 36 1 1 33
M  V30 37 1 1 34
M  V30 38 1 2 35
M  V30 39 1 2 36
M  V30 40 1 3 37
M  V30 41 1 6 38
M  V30 42 1 8 39
M  V30 43 1 9 40
M  V30 44 1 11 41
M  V30 45 1 15 42
M  V30 46 1 16 43
M  V30 47 1 17 44
M  V30 48 1 20 45
M  V30 49 1 20 46
M  V30 50 1 23 47
M  V30 51 1 25 48
M  V30 52 1 27 49
M  V30 53 1 28 50
M  V30 54 1 29 51
M  V30 55 1 30 52
M  V30 56 1 31 53
M  V30 END BOND
M  V30 END CTAB
M  END
>  <Dataset>  (228) 
ChEMBL_Kinases

>  <Ligand_Instance>  (228) 
nan

>  <PDB_ID>  (228) 
nan

>  <Standardized_SMILES>  (228) 
CCC(C(=O)Nc1ccc2[nH]nc(-c3cccc(S(N)(=O)=O)c3)c2c1)c1ccccc1

>  <Name>  (228) 
nan

>  <Pocket>  (228) 
nan

>  <ATP_Site>  (228) 
nan

>  <Peripheral>  (228) 
nan

>  <Num_H_Atoms_ProtBoundConf>  (228) 
nan

>  <Num_Resolved_Atoms>  (228) 
nan

>  <Num_Not_Resolved_Atoms>  (228) 
nan

$$$$
CHEMBL3330280
     RDKit          3D

  0  0  0  0  0  0  0  0  0  0999 V3000
M  V30 BEGIN CTAB
M  V30 COUNTS 56 59 0 0 0
M  V30 BEGIN ATOM
M  V30 1 C 3.853907 -2.000319 2.991658 0
M  V30 2 C 3.260367 -2.785888 1.875255 0
M  V30 3 C 1.926830 -3.360925 2.281860 0
M  V30 4 C 3.280887 -2.063634 0.581716 0
M  V30 5 C 2.560465 -0.795886 0.513244 0
M  V30 6 O 1.974397 -1.150131 -0.569159 0
M  V30 7 N 2.408321 0.430421 1.208914 0
M  V30 8 C 1.479532 1.253511 0.520823 0
M  V30 9 C 2.045540 2.085691 -0.431365 0
M  V30 10 C 1.199206 2.925137 -1.150436 0
M  V30 11 C -0.151718 2.877536 -0.871357 0
M  V30 12 N -1.190415 3.562200 -1.398511 0
M  V30 13 N -2.317129 3.180641 -0.814209 0
M  V30 14 C -2.071441 2.240523 0.110725 0
M  V30 15 C -3.065675 1.583450 0.955724 0
M  V30 16 C -2.906396 1.377708 2.313575 0
M  V30 17 C -3.883107 0.751450 3.051082 0
M  V30 18 C -5.037926 0.321396 2.432774 0
M  V30 19 C -5.255828 0.496702 1.084849 0
M  V30 20 S -6.684533 -0.013763 0.216284 0
M  V30 21 N -6.502492 -1.624393 -0.390676 0
M  V30 22 O -7.884686 0.046526 1.114285 0
M  V30 23 O -6.865721 0.897473 -0.985624 0
M  V30 24 C -4.244564 1.136740 0.361479 0
M  V30 25 C -0.705908 2.045193 0.078993 0
M  V30 26 C 0.126216 1.214799 0.791178 0
M  V30 27 C 2.901101 -2.884535 -0.576529 0
M  V30 28 C 1.618210 -3.376871 -0.800790 0
M  V30 29 C 1.237673 -4.149122 -1.875041 0
M  V30 30 C 2.190906 -4.472255 -2.817299 0
M  V30 31 C 3.484523 -4.033204 -2.683731 0
M  V30 32 C 3.783802 -3.264820 -1.579631 0
M  V30 33 H 3.102521 -1.456159 3.598555 0
M  V30 34 H 4.376393 -2.663699 3.746396 0
M  V30 35 H 4.653857 -1.302362 2.668220 0
M  V30 36 H 3.929743 -3.686255 1.738886 0
M  V30 37 H 1.691521 -4.331757 1.798068 0
M  V30 38 H 1.132451 -2.610344 2.208199 0
M  V30 39 H 1.989960 -3.635232 3.377820 0
M  V30 40 H 4.370289 -1.798852 0.404392 0
M  V30 41 H 3.039547 0.333841 2.018078 0
M  V30 42 H 3.110294 2.112556 -0.640398 0
M  V30 43 H 1.641326 3.574763 -1.893783 0
M  V30 44 H -1.144046 4.273498 -2.137887 0
M  V30 45 H -1.982995 1.729961 2.767916 0
M  V30 46 H -3.752310 0.592554 4.117924 0
M  V30 47 H -5.834347 -0.179426 2.986955 0
M  V30 48 H -6.229140 -2.244979 0.403411 0
M  V30 49 H -7.429210 -1.894195 -0.775972 0
M  V30 50 H -4.392189 1.289820 -0.716455 0
M  V30 51 H -0.273426 0.547609 1.545374 0
M  V30 52 H 0.838354 -3.153900 -0.101008 0
M  V30 53 H 0.227542 -4.499969 -1.992248 0
M  V30 54 H 1.919466 -5.074615 -3.666442 0
M  V30 55 H 4.249833 -4.261128 -3.389574 0
M  V30 56 H 4.823724 -2.918943 -1.483645 0
M  V30 END ATOM
M  V30 BEGIN BOND
M  V30 1 1 1 2
M  V30 2 1 2 3
M  V30 3 1 2 4
M  V30 4 1 4 5
M  V30 5 2 5 6
M  V30 6 1 5 7
M  V30 7 1 7 8
M  V30 8 2 8 9
M  V30 9 1 9 10
M  V30 10 2 10 11
M  V30 11 1 11 12
M  V30 12 1 12 13
M  V30 13 2 13 14
M  V30 14 1 14 15
M  V30 15 2 15 16
M  V30 16 1 16 17
M  V30 17 2 17 18
M  V30 18 1 18 19
M  V30 19 1 19 20
M  V30 20 1 20 21
M  V30 21 2 20 22
M  V30 22 2 20 23
M  V30 23 2 19 24
M  V30 24 1 14 25
M  V30 25 2 25 26
M  V30 26 1 4 27
M  V30 27 2 27 28
M  V30 28 1 28 29
M  V30 29 2 29 30
M  V30 30 1 30 31
M  V30 31 2 31 32
M  V30 32 1 26 8
M  V30 33 1 32 27
M  V30 34 1 25 11
M  V30 35 1 24 15
M  V30 36 1 1 33
M  V30 37 1 1 34
M  V30 38 1 1 35
M  V30 39 1 2 36
M  V30 40 1 3 37
M  V30 41 1 3 38
M  V30 42 1 3 39
M  V30 43 1 4 40
M  V30 44 1 7 41
M  V30 45 1 9 42
M  V30 46 1 10 43
M  V30 47 1 12 44
M  V30 48 1 16 45
M  V30 49 1 17 46
M  V30 50 1 18 47
M  V30 51 1 21 48
M  V30 52 1 21 49
M  V30 53 1 24 50
M  V30 54 1 26 51
M  V30 55 1 28 52
M  V30 56 1 29 53
M  V30 57 1 30 54
M  V30 58 1 31 55
M  V30 59 1 32 56
M  V30 END BOND
M  V30 END CTAB
M  END
>  <Dataset>  (229) 
ChEMBL_Kinases

>  <Ligand_Instance>  (229) 
nan

>  <PDB_ID>  (229) 
nan

>  <Standardized_SMILES>  (229) 
CC(C)C(C(=O)Nc1ccc2[nH]nc(-c3cccc(S(N)(=O)=O)c3)c2c1)c1ccccc1

>  <Name>  (229) 
nan

>  <Pocket>  (229) 
nan

>  <ATP_Site>  (229) 
nan

>  <Peripheral>  (229) 
nan

>  <Num_H_Atoms_ProtBoundConf>  (229) 
nan

>  <Num_Resolved_Atoms>  (229) 
nan

>  <Num_Not_Resolved_Atoms>  (229) 
nan

$$$$
CHEMBL3330281
     RDKit          3D

  0  0  0  0  0  0  0  0  0  0999 V3000
M  V30 BEGIN CTAB
M  V30 COUNTS 54 58 0 0 0
M  V30 BEGIN ATOM
M  V30 1 N -0.904910 2.838261 5.254834 0
M  V30 2 S -0.467099 1.263569 4.682078 0
M  V30 3 O -0.424821 0.243498 5.783221 0
M  V30 4 O -1.470783 0.883555 3.619516 0
M  V30 5 C 1.091133 1.392649 3.903964 0
M  V30 6 C 2.174976 1.300510 4.747383 0
M  V30 7 C 3.456222 1.374818 4.219847 0
M  V30 8 C 3.555750 1.539218 2.852315 0
M  V30 9 C 2.446776 1.631454 2.010805 0
M  V30 10 C 2.800974 1.792511 0.606814 0
M  V30 11 N 3.760928 2.653479 0.187586 0
M  V30 12 N 3.888834 2.591948 -1.132182 0
M  V30 13 C 3.008455 1.685131 -1.593940 0
M  V30 14 C 2.703013 1.214991 -2.853863 0
M  V30 15 C 1.707544 0.242581 -2.978998 0
M  V30 16 C 1.009519 -0.275142 -1.898800 0
M  V30 17 C 0.011287 -1.280998 -2.187953 0
M  V30 18 O -0.036891 -1.713497 -3.385313 0
M  V30 19 N -0.905274 -1.801364 -1.224573 0
M  V30 20 C -1.929519 -2.799962 -1.430959 0
M  V30 21 C -1.896772 -3.872593 -0.433230 0
M  V30 22 C -1.789000 -3.382357 0.869272 0
M  V30 23 C -1.747536 -4.242892 1.960642 0
M  V30 24 C -1.815648 -5.614201 1.728882 0
M  V30 25 C -1.922227 -6.138726 0.458876 0
M  V30 26 C -1.960678 -5.235613 -0.604801 0
M  V30 27 C -3.315057 -2.135874 -1.382348 0
M  V30 28 C -3.503334 -1.049438 -2.470596 0
M  V30 29 C -4.289852 -2.347664 -2.455514 0
M  V30 30 C 1.318745 0.198946 -0.640243 0
M  V30 31 C 2.300073 1.158087 -0.508773 0
M  V30 32 C 1.177279 1.557542 2.540495 0
M  V30 33 H -1.807513 3.175990 4.882944 0
M  V30 34 H -0.151769 3.538341 5.112512 0
M  V30 35 H 2.072078 1.171558 5.819746 0
M  V30 36 H 4.311625 1.301573 4.875292 0
M  V30 37 H 4.585339 1.596702 2.475642 0
M  V30 38 H 4.573663 3.173560 -1.680409 0
M  V30 39 H 3.255677 1.627338 -3.689020 0
M  V30 40 H 1.544759 -0.055220 -4.018817 0
M  V30 41 H -0.768408 -1.369737 -0.287047 0
M  V30 42 H -1.850363 -3.206700 -2.441578 0
M  V30 43 H -1.724504 -2.360032 1.210877 0
M  V30 44 H -1.665970 -3.974566 3.006456 0
M  V30 45 H -1.789746 -6.325427 2.540258 0
M  V30 46 H -1.977515 -7.195127 0.217631 0
M  V30 47 H -2.041432 -5.542468 -1.651892 0
M  V30 48 H -3.678069 -1.877507 -0.369256 0
M  V30 49 H -2.643199 -0.926869 -3.160223 0
M  V30 50 H -4.039150 -0.129303 -2.221507 0
M  V30 51 H -4.106897 -3.015147 -3.319948 0
M  V30 52 H -5.373445 -2.244304 -2.222120 0
M  V30 53 H 0.790838 -0.191126 0.220656 0
M  V30 54 H 0.342852 1.632594 1.864055 0
M  V30 END ATOM
M  V30 BEGIN BOND
M  V30 1 1 1 2
M  V30 2 2 2 3
M  V30 3 2 2 4
M  V30 4 1 2 5
M  V30 5 2 5 6
M  V30 6 1 6 7
M  V30 7 2 7 8
M  V30 8 1 8 9
M  V30 9 1 9 10
M  V30 10 2 10 11
M  V30 11 1 11 12
M  V30 12 1 12 13
M  V30 13 2 13 14
M  V30 14 1 14 15
M  V30 15 2 15 16
M  V30 16 1 16 17
M  V30 17 2 17 18
M  V30 18 1 17 19
M  V30 19 1 19 20
M  V30 20 1 20 21
M  V30 21 2 21 22
M  V30 22 1 22 23
M  V30 23 2 23 24
M  V30 24 1 24 25
M  V30 25 2 25 26
M  V30 26 1 20 27
M  V30 27 1 27 28
M  V30 28 1 28 29
M  V30 29 1 16 30
M  V30 30 2 30 31
M  V30 31 2 9 32
M  V30 32 1 32 5
M  V30 33 1 31 10
M  V30 34 1 31 13
M  V30 35 1 26 21
M  V30 36 1 29 27
M  V30 37 1 1 33
M  V30 38 1 1 34
M  V30 39 1 6 35
M  V30 40 1 7 36
M  V30 41 1 8 37
M  V30 42 1 12 38
M  V30 43 1 14 39
M  V30 44 1 15 40
M  V30 45 1 19 41
M  V30 46 1 20 42
M  V30 47 1 22 43
M  V30 48 1 23 44
M  V30 49 1 24 45
M  V30 50 1 25 46
M  V30 51 1 26 47
M  V30 52 1 27 48
M  V30 53 1 28 49
M  V30 54 1 28 50
M  V30 55 1 29 51
M  V30 56 1 29 52
M  V30 57 1 30 53
M  V30 58 1 32 54
M  V30 END BOND
M  V30 END CTAB
M  END
>  <Dataset>  (230) 
ChEMBL_Kinases

>  <Ligand_Instance>  (230) 
nan

>  <PDB_ID>  (230) 
nan

>  <Standardized_SMILES>  (230) 
NS(=O)(=O)c1cccc(-c2n[nH]c3ccc(C(=O)NC(c4ccccc4)C4CC4)cc23)c1

>  <Name>  (230) 
nan

>  <Pocket>  (230) 
nan

>  <ATP_Site>  (230) 
nan

>  <Peripheral>  (230) 
nan

>  <Num_H_Atoms_ProtBoundConf>  (230) 
nan

>  <Num_Resolved_Atoms>  (230) 
nan

>  <Num_Not_Resolved_Atoms>  (230) 
nan

$$$$
CHEMBL3330282
     RDKit          3D

  0  0  0  0  0  0  0  0  0  0999 V3000
M  V30 BEGIN CTAB
M  V30 COUNTS 51 55 0 0 0
M  V30 BEGIN ATOM
M  V30 1 N 2.799004 -0.719732 5.295218 0
M  V30 2 S 2.510769 -1.570817 3.823739 0
M  V30 3 O 3.106061 -2.933176 3.929991 0
M  V30 4 O 1.029587 -1.602488 3.558079 0
M  V30 5 C 3.309660 -0.667709 2.541164 0
M  V30 6 C 4.621595 -1.002533 2.263010 0
M  V30 7 C 5.246098 -0.300010 1.263870 0
M  V30 8 C 4.620107 0.702726 0.548893 0
M  V30 9 C 3.310905 1.041968 0.821324 0
M  V30 10 C 2.559387 2.084737 0.124921 0
M  V30 11 N 3.046656 3.311541 -0.158280 0
M  V30 12 N 2.149370 4.039883 -0.790256 0
M  V30 13 C 1.027247 3.339540 -0.958497 0
M  V30 14 C -0.204920 3.584570 -1.534772 0
M  V30 15 C -1.155402 2.557487 -1.509761 0
M  V30 16 C -0.918182 1.323619 -0.940622 0
M  V30 17 C -1.988330 0.332356 -0.976218 0
M  V30 18 O -3.057722 0.671535 -1.525272 0
M  V30 19 N -1.828991 -0.942208 -0.421751 0
M  V30 20 C -2.899363 -1.977549 -0.440417 0
M  V30 21 C -3.298897 -2.220332 0.917672 0
M  V30 22 C -3.558400 -3.417240 1.499865 0
M  V30 23 C -3.942531 -3.515407 2.866959 0
M  V30 24 S -3.937846 -1.719685 3.389887 0
M  V30 25 C -3.426318 -1.051046 1.731053 0
M  V30 26 C -2.391105 -3.046312 -1.294102 0
M  V30 27 C -3.157250 -4.321740 -1.595626 0
M  V30 28 C -1.820957 -4.338567 -0.974818 0
M  V30 29 C 0.319755 1.115093 -0.376185 0
M  V30 30 C 1.277950 2.112811 -0.386844 0
M  V30 31 C 2.689718 0.331622 1.826777 0
M  V30 32 H 1.905963 -0.609090 5.827717 0
M  V30 33 H 3.544747 -1.169469 5.837156 0
M  V30 34 H 5.111034 -1.789662 2.825170 0
M  V30 35 H 6.283428 -0.572318 1.051544 0
M  V30 36 H 5.125960 1.254211 -0.242758 0
M  V30 37 H 2.281293 5.017048 -1.115978 0
M  V30 38 H -0.391464 4.548617 -1.979921 0
M  V30 39 H -2.089431 2.851174 -1.988279 0
M  V30 40 H -0.951568 -1.252352 0.041042 0
M  V30 41 H -3.741357 -1.446961 -0.974484 0
M  V30 42 H -3.564799 -4.434329 1.190563 0
M  V30 43 H -4.203951 -4.160833 3.623445 0
M  V30 44 H -3.301013 -0.058478 1.572915 0
M  V30 45 H -1.994769 -2.612192 -2.284142 0
M  V30 46 H -3.262549 -4.667938 -2.666989 0
M  V30 47 H -4.111977 -4.433769 -1.079799 0
M  V30 48 H -1.592157 -4.700336 0.035872 0
M  V30 49 H -1.018850 -4.756386 -1.672528 0
M  V30 50 H 0.511709 0.168847 0.064203 0
M  V30 51 H 1.669799 0.494573 2.140910 0
M  V30 END ATOM
M  V30 BEGIN BOND
M  V30 1 1 1 2
M  V30 2 2 2 3
M  V30 3 2 2 4
M  V30 4 1 2 5
M  V30 5 2 5 6
M  V30 6 1 6 7
M  V30 7 2 7 8
M  V30 8 1 8 9
M  V30 9 1 9 10
M  V30 10 2 10 11
M  V30 11 1 11 12
M  V30 12 1 12 13
M  V30 13 2 13 14
M  V30 14 1 14 15
M  V30 15 2 15 16
M  V30 16 1 16 17
M  V30 17 2 17 18
M  V30 18 1 17 19
M  V30 19 1 19 20
M  V30 20 1 20 21
M  V30 21 1 21 22
M  V30 22 2 22 23
M  V30 23 1 23 24
M  V30 24 1 24 25
M  V30 25 1 20 26
M  V30 26 1 26 27
M  V30 27 1 27 28
M  V30 28 1 16 29
M  V30 29 2 29 30
M  V30 30 2 9 31
M  V30 31 1 31 5
M  V30 32 1 30 10
M  V30 33 1 30 13
M  V30 34 2 25 21
M  V30 35 1 28 26
M  V30 36 1 1 32
M  V30 37 1 1 33
M  V30 38 1 6 34
M  V30 39 1 7 35
M  V30 40 1 8 36
M  V30 41 1 12 37
M  V30 42 1 14 38
M  V30 43 1 15 39
M  V30 44 1 19 40
M  V30 45 1 20 41
M  V30 46 1 22 42
M  V30 47 1 23 43
M  V30 48 1 25 44
M  V30 49 1 26 45
M  V30 50 1 27 46
M  V30 51 1 27 47
M  V30 52 1 28 48
M  V30 53 1 28 49
M  V30 54 1 29 50
M  V30 55 1 31 51
M  V30 END BOND
M  V30 END CTAB
M  END
>  <Dataset>  (231) 
ChEMBL_Kinases

>  <Ligand_Instance>  (231) 
nan

>  <PDB_ID>  (231) 
nan

>  <Standardized_SMILES>  (231) 
NS(=O)(=O)c1cccc(-c2n[nH]c3ccc(C(=O)NC(c4ccsc4)C4CC4)cc23)c1

>  <Name>  (231) 
nan

>  <Pocket>  (231) 
nan

>  <ATP_Site>  (231) 
nan

>  <Peripheral>  (231) 
nan

>  <Num_H_Atoms_ProtBoundConf>  (231) 
nan

>  <Num_Resolved_Atoms>  (231) 
nan

>  <Num_Not_Resolved_Atoms>  (231) 
nan

$$$$
CHEMBL3330274
     RDKit          3D

  0  0  0  0  0  0  0  0  0  0999 V3000
M  V30 BEGIN CTAB
M  V30 COUNTS 59 62 0 0 0
M  V30 BEGIN ATOM
M  V30 1 C 1.381638 -0.221450 2.972777 0
M  V30 2 C 2.856998 -0.485834 2.787651 0
M  V30 3 C 3.522917 0.685720 2.229364 0
M  V30 4 C 4.211036 1.527207 3.107581 0
M  V30 5 C 4.901171 2.677883 2.803355 0
M  V30 6 C 4.896084 3.015131 1.466283 0
M  V30 7 C 4.234871 2.237818 0.502910 0
M  V30 8 C 4.263667 2.651107 -0.913119 0
M  V30 9 C 2.961692 3.262412 -1.357040 0
M  V30 10 C 3.569306 1.098042 0.913128 0
M  V30 11 C 2.882211 0.293875 -0.094607 0
M  V30 12 C 1.420820 0.534441 -0.187317 0
M  V30 13 O 0.433913 1.188170 0.232606 0
M  V30 14 N 0.871112 -0.354422 -1.181656 0
M  V30 15 C -0.509406 -0.393374 -1.533070 0
M  V30 16 C -0.908116 0.415538 -2.575190 0
M  V30 17 C -2.215719 0.464798 -2.997287 0
M  V30 18 C -3.123406 -0.351447 -2.311872 0
M  V30 19 N -4.454836 -0.525821 -2.478388 0
M  V30 20 N -4.906291 -1.390343 -1.606499 0
M  V30 21 C -3.904501 -1.838154 -0.813718 0
M  V30 22 C -3.957910 -2.787776 0.281806 0
M  V30 23 C -5.029373 -2.524194 1.137859 0
M  V30 24 C -5.245175 -3.324100 2.250711 0
M  V30 25 C -4.403159 -4.388870 2.523253 0
M  V30 26 C -3.362394 -4.597749 1.639130 0
M  V30 27 S -2.300560 -5.942007 1.994011 0
M  V30 28 N -2.931138 -7.370522 1.295259 0
M  V30 29 O -2.071725 -6.035889 3.464790 0
M  V30 30 O -0.939328 -5.715768 1.355809 0
M  V30 31 C -3.100042 -3.838247 0.520836 0
M  V30 32 C -2.753173 -1.179221 -1.255956 0
M  V30 33 C -1.414492 -1.196297 -0.862329 0
M  V30 34 H 0.745936 -0.794190 2.264928 0
M  V30 35 H 1.141672 0.860672 2.839051 0
M  V30 36 H 1.070431 -0.452737 4.034764 0
M  V30 37 H 3.289628 -0.711079 3.792930 0
M  V30 38 H 3.034482 -1.416921 2.201030 0
M  V30 39 H 4.217955 1.262310 4.171208 0
M  V30 40 H 5.399645 3.253882 3.568340 0
M  V30 41 H 5.439533 3.929394 1.192072 0
M  V30 42 H 5.016468 3.493340 -0.987293 0
M  V30 43 H 4.670438 1.889072 -1.608644 0
M  V30 44 H 2.433195 2.650295 -2.108621 0
M  V30 45 H 3.072111 4.288728 -1.788112 0
M  V30 46 H 2.248376 3.371158 -0.504024 0
M  V30 47 H 3.091850 -0.808142 0.025197 0
M  V30 48 H 3.280584 0.516889 -1.111545 0
M  V30 49 H 1.218286 -1.099275 -1.832911 0
M  V30 50 H -0.253968 1.066617 -3.141804 0
M  V30 51 H -2.602378 1.078606 -3.812045 0
M  V30 52 H -5.047053 -0.036159 -3.205825 0
M  V30 53 H -5.752642 -1.730652 1.037332 0
M  V30 54 H -6.060689 -3.167561 2.950354 0
M  V30 55 H -4.554572 -5.023054 3.384498 0
M  V30 56 H -3.675473 -7.178095 0.589605 0
M  V30 57 H -2.222761 -8.043486 0.967247 0
M  V30 58 H -2.309500 -3.977586 -0.170961 0
M  V30 59 H -1.099373 -1.827621 -0.048293 0
M  V30 END ATOM
M  V30 BEGIN BOND
M  V30 1 1 1 2
M  V30 2 1 2 3
M  V30 3 2 3 4
M  V30 4 1 4 5
M  V30 5 2 5 6
M  V30 6 1 6 7
M  V30 7 1 7 8
M  V30 8 1 8 9
M  V30 9 2 7 10
M  V30 10 1 10 11
M  V30 11 1 11 12
M  V30 12 2 12 13
M  V30 13 1 12 14
M  V30 14 1 14 15
M  V30 15 2 15 16
M  V30 16 1 16 17
M  V30 17 2 17 18
M  V30 18 1 18 19
M  V30 19 1 19 20
M  V30 20 2 20 21
M  V30 21 1 21 22
M  V30 22 2 22 23
M  V30 23 1 23 24
M  V30 24 2 24 25
M  V30 25 1 25 26
M  V30 26 1 26 27
M  V30 27 1 27 28
M  V30 28 2 27 29
M  V30 29 2 27 30
M  V30 30 2 26 31
M  V30 31 1 21 32
M  V30 32 2 32 33
M  V30 33 1 10 3
M  V30 34 1 33 15
M  V30 35 1 32 18
M  V30 36 1 31 22
M  V30 37 1 1 34
M  V30 38 1 1 35
M  V30 39 1 1 36
M  V30 40 1 2 37
M  V30 41 1 2 38
M  V30 42 1 4 39
M  V30 43 1 5 40
M  V30 44 1 6 41
M  V30 45 1 8 42
M  V30 46 1 8 43
M  V30 47 1 9 44
M  V30 48 1 9 45
M  V30 49 1 9 46
M  V30 50 1 11 47
M  V30 51 1 11 48
M  V30 52 1 14 49
M  V30 53 1 16 50
M  V30 54 1 17 51
M  V30 55 1 19 52
M  V30 56 1 23 53
M  V30 57 1 24 54
M  V30 58 1 25 55
M  V30 59 1 28 56
M  V30 60 1 28 57
M  V30 61 1 31 58
M  V30 62 1 33 59
M  V30 END BOND
M  V30 END CTAB
M  END
>  <Dataset>  (232) 
ChEMBL_Kinases

>  <Ligand_Instance>  (232) 
nan

>  <PDB_ID>  (232) 
nan

>  <Standardized_SMILES>  (232) 
CCc1cccc(CC)c1CC(=O)Nc1ccc2[nH]nc(-c3cccc(S(N)(=O)=O)c3)c2c1

>  <Name>  (232) 
nan

>  <Pocket>  (232) 
nan

>  <ATP_Site>  (232) 
nan

>  <Peripheral>  (232) 
nan

>  <Num_H_Atoms_ProtBoundConf>  (232) 
nan

>  <Num_Resolved_Atoms>  (232) 
nan

>  <Num_Not_Resolved_Atoms>  (232) 
nan

$$$$
CHEMBL3414678
     RDKit          3D

  0  0  0  0  0  0  0  0  0  0999 V3000
M  V30 BEGIN CTAB
M  V30 COUNTS 43 44 0 0 0
M  V30 BEGIN ATOM
M  V30 1 C -1.807982 -2.217428 3.011544 0
M  V30 2 C -1.603250 -3.244225 1.916538 0
M  V30 3 C -2.036026 -4.600236 2.434658 0
M  V30 4 C -0.154180 -3.336598 1.522859 0
M  V30 5 C 0.404669 -2.042774 1.006849 0
M  V30 6 C -0.312613 -1.555762 -0.197887 0
M  V30 7 C 0.196334 -0.268856 -0.762300 0
M  V30 8 C -0.658118 0.062102 -1.980764 0
M  V30 9 C 1.610345 -0.307998 -1.244060 0
M  V30 10 C 2.140073 1.125547 -1.345384 0
M  V30 11 C 2.132547 1.757262 0.000549 0
M  V30 12 C 3.201410 2.487838 0.411206 0
M  V30 13 C 3.128008 3.047641 1.674979 0
M  V30 14 O 4.207880 3.802353 2.125052 0
M  V30 15 C 1.997385 2.852281 2.463629 0
M  V30 16 C 0.922278 2.095630 2.004370 0
M  V30 17 O -0.222223 1.882275 2.769639 0
M  V30 18 C 0.970798 1.521877 0.737523 0
M  V30 19 O -0.045350 0.752980 0.189628 0
M  V30 20 H -2.478979 -1.398556 2.618365 0
M  V30 21 H -0.841583 -1.824824 3.361334 0
M  V30 22 H -2.315697 -2.688404 3.902465 0
M  V30 23 H -2.246116 -3.030519 1.050431 0
M  V30 24 H -1.174647 -5.218578 2.761581 0
M  V30 25 H -2.716004 -4.504570 3.319888 0
M  V30 26 H -2.566796 -5.212272 1.679408 0
M  V30 27 H -0.053373 -4.137321 0.761785 0
M  V30 28 H 0.446621 -3.634448 2.406584 0
M  V30 29 H 1.488117 -2.261067 0.821611 0
M  V30 30 H 0.338529 -1.264525 1.793112 0
M  V30 31 H -0.389712 -2.304720 -1.007165 0
M  V30 32 H -1.359899 -1.336153 0.129199 0
M  V30 33 H -0.922722 1.128124 -2.043746 0
M  V30 34 H -1.597466 -0.522474 -2.016952 0
M  V30 35 H -0.123969 -0.195833 -2.936154 0
M  V30 36 H 1.625586 -0.725070 -2.262876 0
M  V30 37 H 2.330500 -0.827168 -0.611558 0
M  V30 38 H 1.514523 1.690791 -2.048912 0
M  V30 39 H 3.171858 1.104915 -1.735748 0
M  V30 40 H 4.049715 2.594876 -0.264295 0
M  V30 41 H 4.887439 3.307049 2.716387 0
M  V30 42 H 1.946044 3.299220 3.464885 0
M  V30 43 H -1.108985 1.768236 2.290535 0
M  V30 END ATOM
M  V30 BEGIN BOND
M  V30 1 1 1 2
M  V30 2 1 2 3
M  V30 3 1 2 4
M  V30 4 1 4 5
M  V30 5 1 5 6
M  V30 6 1 6 7
M  V30 7 1 7 8
M  V30 8 1 7 9
M  V30 9 1 9 10
M  V30 10 1 10 11
M  V30 11 2 11 12
M  V30 12 1 12 13
M  V30 13 1 13 14
M  V30 14 2 13 15
M  V30 15 1 15 16
M  V30 16 1 16 17
M  V30 17 2 16 18
M  V30 18 1 18 19
M  V30 19 1 19 7
M  V30 20 1 18 11
M  V30 21 1 1 20
M  V30 22 1 1 21
M  V30 23 1 1 22
M  V30 24 1 2 23
M  V30 25 1 3 24
M  V30 26 1 3 25
M  V30 27 1 3 26
M  V30 28 1 4 27
M  V30 29 1 4 28
M  V30 30 1 5 29
M  V30 31 1 5 30
M  V30 32 1 6 31
M  V30 33 1 6 32
M  V30 34 1 8 33
M  V30 35 1 8 34
M  V30 36 1 8 35
M  V30 37 1 9 36
M  V30 38 1 9 37
M  V30 39 1 10 38
M  V30 40 1 10 39
M  V30 41 1 12 40
M  V30 42 1 14 41
M  V30 43 1 15 42
M  V30 44 1 17 43
M  V30 END BOND
M  V30 END CTAB
M  END
>  <Dataset>  (233) 
ChEMBL_Kinases

>  <Ligand_Instance>  (233) 
nan

>  <PDB_ID>  (233) 
nan

>  <Standardized_SMILES>  (233) 
CC(C)CCCC1(C)CCc2cc(O)cc(O)c2O1

>  <Name>  (233) 
nan

>  <Pocket>  (233) 
nan

>  <ATP_Site>  (233) 
nan

>  <Peripheral>  (233) 
nan

>  <Num_H_Atoms_ProtBoundConf>  (233) 
nan

>  <Num_Resolved_Atoms>  (233) 
nan

>  <Num_Not_Resolved_Atoms>  (233) 
nan

$$$$
CHEMBL3414677
     RDKit          3D

  0  0  0  0  0  0  0  0  0  0999 V3000
M  V30 BEGIN CTAB
M  V30 COUNTS 45 46 0 0 0
M  V30 BEGIN ATOM
M  V30 1 C -1.071108 -3.982737 -0.578360 0
M  V30 2 C 0.342107 -4.364913 -0.188226 0
M  V30 3 C 0.464750 -4.806245 1.248133 0
M  V30 4 C 1.364788 -3.393241 -0.639914 0
M  V30 5 C 1.242834 -2.002983 -0.138370 0
M  V30 6 C 1.297714 -1.795092 1.320731 0
M  V30 7 C 1.154857 -0.299975 1.640618 0
M  V30 8 C 1.217819 -0.144189 3.145671 0
M  V30 9 C 2.248117 0.524360 1.044416 0
M  V30 10 C 1.775237 1.402452 -0.091478 0
M  V30 11 C 0.497845 2.060228 0.225437 0
M  V30 12 C 0.291571 3.383441 -0.178274 0
M  V30 13 C -0.913197 4.009336 0.118507 0
M  V30 14 O -1.163028 5.316066 -0.259854 0
M  V30 15 C -1.903406 3.328825 0.809065 0
M  V30 16 C -1.675699 2.037170 1.191538 0
M  V30 17 C -2.684466 1.255758 1.927981 0
M  V30 18 F -3.078474 0.110454 1.250313 0
M  V30 19 F -2.143538 0.863533 3.130238 0
M  V30 20 F -3.808566 2.050593 2.113522 0
M  V30 21 C -0.483530 1.397532 0.905444 0
M  V30 22 O -0.139930 0.102397 1.238171 0
M  V30 23 H -1.427312 -4.486195 -1.501954 0
M  V30 24 H -1.804224 -4.296496 0.221919 0
M  V30 25 H -1.166988 -2.886783 -0.811608 0
M  V30 26 H 0.550541 -5.300960 -0.790475 0
M  V30 27 H 0.432264 -5.928752 1.370769 0
M  V30 28 H 1.416554 -4.517571 1.710642 0
M  V30 29 H -0.441991 -4.478999 1.836643 0
M  V30 30 H 2.358652 -3.821507 -0.389635 0
M  V30 31 H 1.318963 -3.350310 -1.748066 0
M  V30 32 H 2.123185 -1.446240 -0.572011 0
M  V30 33 H 0.346441 -1.501154 -0.557860 0
M  V30 34 H 2.312268 -2.047603 1.740032 0
M  V30 35 H 0.543347 -2.292690 1.927207 0
M  V30 36 H 1.378113 0.952660 3.339487 0
M  V30 37 H 0.267796 -0.389057 3.656733 0
M  V30 38 H 2.093571 -0.654661 3.581670 0
M  V30 39 H 3.070401 -0.125104 0.694082 0
M  V30 40 H 2.683659 1.215409 1.794546 0
M  V30 41 H 1.733888 0.868358 -1.070544 0
M  V30 42 H 2.545750 2.188991 -0.234318 0
M  V30 43 H 1.022324 3.964237 -0.717260 0
M  V30 44 H -0.529618 6.070345 -0.022620 0
M  V30 45 H -2.831451 3.838310 1.027457 0
M  V30 END ATOM
M  V30 BEGIN BOND
M  V30 1 1 1 2
M  V30 2 1 2 3
M  V30 3 1 2 4
M  V30 4 1 4 5
M  V30 5 1 5 6
M  V30 6 1 6 7
M  V30 7 1 7 8
M  V30 8 1 7 9
M  V30 9 1 9 10
M  V30 10 1 10 11
M  V30 11 2 11 12
M  V30 12 1 12 13
M  V30 13 1 13 14
M  V30 14 2 13 15
M  V30 15 1 15 16
M  V30 16 1 16 17
M  V30 17 1 17 18
M  V30 18 1 17 19
M  V30 19 1 17 20
M  V30 20 2 16 21
M  V30 21 1 21 22
M  V30 22 1 22 7
M  V30 23 1 21 11
M  V30 24 1 1 23
M  V30 25 1 1 24
M  V30 26 1 1 25
M  V30 27 1 2 26
M  V30 28 1 3 27
M  V30 29 1 3 28
M  V30 30 1 3 29
M  V30 31 1 4 30
M  V30 32 1 4 31
M  V30 33 1 5 32
M  V30 34 1 5 33
M  V30 35 1 6 34
M  V30 36 1 6 35
M  V30 37 1 8 36
M  V30 38 1 8 37
M  V30 39 1 8 38
M  V30 40 1 9 39
M  V30 41 1 9 40
M  V30 42 1 10 41
M  V30 43 1 10 42
M  V30 44 1 12 43
M  V30 45 1 14 44
M  V30 46 1 15 45
M  V30 END BOND
M  V30 END CTAB
M  END
>  <Dataset>  (234) 
ChEMBL_Kinases

>  <Ligand_Instance>  (234) 
nan

>  <PDB_ID>  (234) 
nan

>  <Standardized_SMILES>  (234) 
CC(C)CCCC1(C)CCc2cc(O)cc(C(F)(F)F)c2O1

>  <Name>  (234) 
nan

>  <Pocket>  (234) 
nan

>  <ATP_Site>  (234) 
nan

>  <Peripheral>  (234) 
nan

>  <Num_H_Atoms_ProtBoundConf>  (234) 
nan

>  <Num_Resolved_Atoms>  (234) 
nan

>  <Num_Not_Resolved_Atoms>  (234) 
nan

$$$$
CHEMBL3414676
     RDKit          3D

  0  0  0  0  0  0  0  0  0  0999 V3000
M  V30 BEGIN CTAB
M  V30 COUNTS 41 42 0 0 0
M  V30 BEGIN ATOM
M  V30 1 C -2.798590 -3.117921 1.683940 0
M  V30 2 C -1.572047 -3.849618 1.221755 0
M  V30 3 C -1.742911 -5.307944 1.599497 0
M  V30 4 C -0.302273 -3.364092 1.801863 0
M  V30 5 C 0.030690 -1.935615 1.523397 0
M  V30 6 C 0.157918 -1.635732 0.043489 0
M  V30 7 C 0.490217 -0.185457 -0.096986 0
M  V30 8 C -0.586828 0.666490 0.502318 0
M  V30 9 C 0.734290 0.274433 -1.499089 0
M  V30 10 C 1.295737 1.664371 -1.406431 0
M  V30 11 O 1.160687 2.456855 -2.396420 0
M  V30 12 C 2.000539 2.161252 -0.218391 0
M  V30 13 C 2.437136 3.466579 -0.134391 0
M  V30 14 C 3.095002 3.868332 1.015059 0
M  V30 15 O 3.564842 5.181727 1.165136 0
M  V30 16 C 3.324174 3.004326 2.071605 0
M  V30 17 C 2.890584 1.695359 1.996434 0
M  V30 18 C 2.226718 1.285404 0.839469 0
M  V30 19 O 1.728607 0.010978 0.603226 0
M  V30 20 H -3.425406 -2.852957 0.807806 0
M  V30 21 H -2.579402 -2.192267 2.242516 0
M  V30 22 H -3.446387 -3.734722 2.349702 0
M  V30 23 H -1.521213 -3.826908 0.096530 0
M  V30 24 H -0.905868 -5.662829 2.234489 0
M  V30 25 H -2.657211 -5.471008 2.228148 0
M  V30 26 H -1.826608 -5.971665 0.713411 0
M  V30 27 H 0.516825 -3.980074 1.368427 0
M  V30 28 H -0.291864 -3.512969 2.889038 0
M  V30 29 H 1.070596 -1.786239 1.937499 0
M  V30 30 H -0.579241 -1.193104 2.034747 0
M  V30 31 H -0.749124 -1.924300 -0.524439 0
M  V30 32 H 1.007577 -2.202654 -0.397933 0
M  V30 33 H -0.226988 1.081272 1.468782 0
M  V30 34 H -0.858442 1.524107 -0.150292 0
M  V30 35 H -1.473756 0.057617 0.693800 0
M  V30 36 H -0.190056 0.302594 -2.088904 0
M  V30 37 H 1.441630 -0.381455 -2.049208 0
M  V30 38 H 2.266600 4.160914 -0.954196 0
M  V30 39 H 2.995669 5.909828 1.593218 0
M  V30 40 H 3.836365 3.288400 2.985278 0
M  V30 41 H 3.014646 0.932643 2.761184 0
M  V30 END ATOM
M  V30 BEGIN BOND
M  V30 1 1 1 2
M  V30 2 1 2 3
M  V30 3 1 2 4
M  V30 4 1 4 5
M  V30 5 1 5 6
M  V30 6 1 6 7
M  V30 7 1 7 8
M  V30 8 1 7 9
M  V30 9 1 9 10
M  V30 10 2 10 11
M  V30 11 1 10 12
M  V30 12 2 12 13
M  V30 13 1 13 14
M  V30 14 1 14 15
M  V30 15 2 14 16
M  V30 16 1 16 17
M  V30 17 2 17 18
M  V30 18 1 18 19
M  V30 19 1 19 7
M  V30 20 1 18 12
M  V30 21 1 1 20
M  V30 22 1 1 21
M  V30 23 1 1 22
M  V30 24 1 2 23
M  V30 25 1 3 24
M  V30 26 1 3 25
M  V30 27 1 3 26
M  V30 28 1 4 27
M  V30 29 1 4 28
M  V30 30 1 5 29
M  V30 31 1 5 30
M  V30 32 1 6 31
M  V30 33 1 6 32
M  V30 34 1 8 33
M  V30 35 1 8 34
M  V30 36 1 8 35
M  V30 37 1 9 36
M  V30 38 1 9 37
M  V30 39 1 13 38
M  V30 40 1 15 39
M  V30 41 1 16 40
M  V30 42 1 17 41
M  V30 END BOND
M  V30 END CTAB
M  END
>  <Dataset>  (235) 
ChEMBL_Kinases

>  <Ligand_Instance>  (235) 
nan

>  <PDB_ID>  (235) 
nan

>  <Standardized_SMILES>  (235) 
CC(C)CCCC1(C)CC(=O)c2cc(O)ccc2O1

>  <Name>  (235) 
nan

>  <Pocket>  (235) 
nan

>  <ATP_Site>  (235) 
nan

>  <Peripheral>  (235) 
nan

>  <Num_H_Atoms_ProtBoundConf>  (235) 
nan

>  <Num_Resolved_Atoms>  (235) 
nan

>  <Num_Not_Resolved_Atoms>  (235) 
nan

$$$$
CHEMBL3414675
     RDKit          3D

  0  0  0  0  0  0  0  0  0  0999 V3000
M  V30 BEGIN CTAB
M  V30 COUNTS 44 45 0 0 0
M  V30 BEGIN ATOM
M  V30 1 C -0.986993 -1.012987 3.356767 0
M  V30 2 C -1.130723 -2.057673 2.317605 0
M  V30 3 C -1.411793 -3.343633 2.704567 0
M  V30 4 C -1.555851 -4.352752 1.783126 0
M  V30 5 O -1.840103 -5.661443 2.148390 0
M  V30 6 C -1.410201 -4.047415 0.427490 0
M  V30 7 C -1.125390 -2.730541 0.079522 0
M  V30 8 C -0.976945 -1.701539 0.994456 0
M  V30 9 O -0.694288 -0.424211 0.554816 0
M  V30 10 C -0.127692 -0.184979 -0.705468 0
M  V30 11 C 1.123109 -0.854657 -1.064716 0
M  V30 12 C -0.158096 1.245391 -1.053498 0
M  V30 13 C 0.449657 2.267846 -0.197638 0
M  V30 14 C 1.847465 2.337455 0.191857 0
M  V30 15 C 2.505633 1.333124 1.034863 0
M  V30 16 C 1.847351 1.180496 2.405639 0
M  V30 17 C 3.902523 1.969866 1.388034 0
M  V30 18 C -1.200213 -0.919937 -1.637190 0
M  V30 19 C -0.962024 -2.352605 -1.329597 0
M  V30 20 O -0.640769 -3.224182 -2.177828 0
M  V30 21 H 0.088233 -0.861526 3.659582 0
M  V30 22 H -1.608379 -1.223585 4.260093 0
M  V30 23 H -1.372964 -0.053720 2.937427 0
M  V30 24 H -1.519613 -3.552713 3.762417 0
M  V30 25 H -1.460620 -6.005851 3.034057 0
M  V30 26 H -1.505905 -4.773818 -0.363713 0
M  V30 27 H 1.578926 -1.442209 -0.238079 0
M  V30 28 H 1.873348 -0.091852 -1.433498 0
M  V30 29 H 0.999390 -1.513109 -1.975299 0
M  V30 30 H -1.257468 1.490184 -1.270672 0
M  V30 31 H 0.286858 1.406092 -2.095621 0
M  V30 32 H -0.232136 2.475945 0.718209 0
M  V30 33 H 0.246086 3.264212 -0.767349 0
M  V30 34 H 2.015030 3.348866 0.718617 0
M  V30 35 H 2.455078 2.517645 -0.760496 0
M  V30 36 H 2.780732 0.368418 0.683072 0
M  V30 37 H 2.275019 0.302113 2.931504 0
M  V30 38 H 0.751158 1.073867 2.341346 0
M  V30 39 H 2.119211 2.093808 3.005390 0
M  V30 40 H 4.549704 1.208280 1.847452 0
M  V30 41 H 3.701469 2.751074 2.147011 0
M  V30 42 H 4.358911 2.369334 0.465707 0
M  V30 43 H -2.191688 -0.616890 -1.274423 0
M  V30 44 H -0.987152 -0.671006 -2.676347 0
M  V30 END ATOM
M  V30 BEGIN BOND
M  V30 1 1 1 2
M  V30 2 2 2 3
M  V30 3 1 3 4
M  V30 4 1 4 5
M  V30 5 2 4 6
M  V30 6 1 6 7
M  V30 7 2 7 8
M  V30 8 1 8 9
M  V30 9 1 9 10
M  V30 10 1 10 11
M  V30 11 1 10 12
M  V30 12 1 12 13
M  V30 13 1 13 14
M  V30 14 1 14 15
M  V30 15 1 15 16
M  V30 16 1 15 17
M  V30 17 1 10 18
M  V30 18 1 18 19
M  V30 19 2 19 20
M  V30 20 1 8 2
M  V30 21 1 19 7
M  V30 22 1 1 21
M  V30 23 1 1 22
M  V30 24 1 1 23
M  V30 25 1 3 24
M  V30 26 1 5 25
M  V30 27 1 6 26
M  V30 28 1 11 27
M  V30 29 1 11 28
M  V30 30 1 11 29
M  V30 31 1 12 30
M  V30 32 1 12 31
M  V30 33 1 13 32
M  V30 34 1 13 33
M  V30 35 1 14 34
M  V30 36 1 14 35
M  V30 37 1 15 36
M  V30 38 1 16 37
M  V30 39 1 16 38
M  V30 40 1 16 39
M  V30 41 1 17 40
M  V30 42 1 17 41
M  V30 43 1 17 42
M  V30 44 1 18 43
M  V30 45 1 18 44
M  V30 END BOND
M  V30 END CTAB
M  END
>  <Dataset>  (236) 
ChEMBL_Kinases

>  <Ligand_Instance>  (236) 
nan

>  <PDB_ID>  (236) 
nan

>  <Standardized_SMILES>  (236) 
Cc1cc(O)cc2c1OC(C)(CCCC(C)C)CC2=O

>  <Name>  (236) 
nan

>  <Pocket>  (236) 
nan

>  <ATP_Site>  (236) 
nan

>  <Peripheral>  (236) 
nan

>  <Num_H_Atoms_ProtBoundConf>  (236) 
nan

>  <Num_Resolved_Atoms>  (236) 
nan

>  <Num_Not_Resolved_Atoms>  (236) 
nan

$$$$
CHEMBL3414674
     RDKit          3D

  0  0  0  0  0  0  0  0  0  0999 V3000
M  V30 BEGIN CTAB
M  V30 COUNTS 47 48 0 0 0
M  V30 BEGIN ATOM
M  V30 1 C -0.927790 -4.332936 3.367734 0
M  V30 2 C -0.963475 -3.718489 2.020122 0
M  V30 3 C -1.453929 -4.387841 0.917223 0
M  V30 4 O -1.934794 -5.683065 1.056993 0
M  V30 5 C -1.443841 -3.727908 -0.294981 0
M  V30 6 C -0.952103 -2.421292 -0.403732 0
M  V30 7 C -0.462181 -1.772995 0.736829 0
M  V30 8 C -0.476901 -2.441809 1.943515 0
M  V30 9 C 0.071392 -1.635367 3.065764 0
M  V30 10 O -0.023232 -0.494255 0.424941 0
M  V30 11 C -0.623364 0.313674 -0.552404 0
M  V30 12 C -2.115428 0.440540 -0.377741 0
M  V30 13 C 0.094659 1.585797 -0.717423 0
M  V30 14 C 0.254681 2.517685 0.381268 0
M  V30 15 C 0.953212 2.294376 1.622277 0
M  V30 16 C 2.387986 2.027947 1.717398 0
M  V30 17 C 3.293129 3.100576 1.160694 0
M  V30 18 C 2.817891 0.701190 1.166026 0
M  V30 19 C -0.456527 -0.470244 -1.868797 0
M  V30 20 C -0.996292 -1.834022 -1.740298 0
M  V30 21 O -1.459195 -2.443656 -2.709308 0
M  V30 22 H -1.595905 -3.700030 4.011240 0
M  V30 23 H 0.078016 -4.382949 3.800789 0
M  V30 24 H -1.311693 -5.369390 3.307271 0
M  V30 25 H -2.792496 -5.912789 1.539003 0
M  V30 26 H -1.835997 -4.271723 -1.160382 0
M  V30 27 H 1.169139 -1.724329 3.130095 0
M  V30 28 H -0.298254 -2.091271 4.029998 0
M  V30 29 H -0.329720 -0.624641 3.010091 0
M  V30 30 H -2.426311 1.450988 -0.014497 0
M  V30 31 H -2.688257 0.306325 -1.320439 0
M  V30 32 H -2.460347 -0.381043 0.293701 0
M  V30 33 H 1.017692 1.368185 -1.337408 0
M  V30 34 H -0.515543 2.167486 -1.499595 0
M  V30 35 H -0.798610 2.866940 0.664431 0
M  V30 36 H 0.653405 3.486345 -0.077056 0
M  V30 37 H 0.409021 1.539532 2.282458 0
M  V30 38 H 0.770948 3.238237 2.243081 0
M  V30 39 H 2.711894 1.983807 2.818143 0
M  V30 40 H 3.454205 2.841921 0.078404 0
M  V30 41 H 4.312971 3.006924 1.596393 0
M  V30 42 H 2.966451 4.123395 1.335010 0
M  V30 43 H 2.327706 -0.130556 1.760454 0
M  V30 44 H 2.692356 0.559067 0.096934 0
M  V30 45 H 3.912242 0.504328 1.369653 0
M  V30 46 H -1.057633 0.071341 -2.624527 0
M  V30 47 H 0.640906 -0.488279 -2.127748 0
M  V30 END ATOM
M  V30 BEGIN BOND
M  V30 1 1 1 2
M  V30 2 2 2 3
M  V30 3 1 3 4
M  V30 4 1 3 5
M  V30 5 2 5 6
M  V30 6 1 6 7
M  V30 7 2 7 8
M  V30 8 1 8 9
M  V30 9 1 7 10
M  V30 10 1 10 11
M  V30 11 1 11 12
M  V30 12 1 11 13
M  V30 13 1 13 14
M  V30 14 1 14 15
M  V30 15 1 15 16
M  V30 16 1 16 17
M  V30 17 1 16 18
M  V30 18 1 11 19
M  V30 19 1 19 20
M  V30 20 2 20 21
M  V30 21 1 8 2
M  V30 22 1 20 6
M  V30 23 1 1 22
M  V30 24 1 1 23
M  V30 25 1 1 24
M  V30 26 1 4 25
M  V30 27 1 5 26
M  V30 28 1 9 27
M  V30 29 1 9 28
M  V30 30 1 9 29
M  V30 31 1 12 30
M  V30 32 1 12 31
M  V30 33 1 12 32
M  V30 34 1 13 33
M  V30 35 1 13 34
M  V30 36 1 14 35
M  V30 37 1 14 36
M  V30 38 1 15 37
M  V30 39 1 15 38
M  V30 40 1 16 39
M  V30 41 1 17 40
M  V30 42 1 17 41
M  V30 43 1 17 42
M  V30 44 1 18 43
M  V30 45 1 18 44
M  V30 46 1 18 45
M  V30 47 1 19 46
M  V30 48 1 19 47
M  V30 END BOND
M  V30 END CTAB
M  END
>  <Dataset>  (237) 
ChEMBL_Kinases

>  <Ligand_Instance>  (237) 
nan

>  <PDB_ID>  (237) 
nan

>  <Standardized_SMILES>  (237) 
Cc1c(O)cc2c(c1C)OC(C)(CCCC(C)C)CC2=O

>  <Name>  (237) 
nan

>  <Pocket>  (237) 
nan

>  <ATP_Site>  (237) 
nan

>  <Peripheral>  (237) 
nan

>  <Num_H_Atoms_ProtBoundConf>  (237) 
nan

>  <Num_Resolved_Atoms>  (237) 
nan

>  <Num_Not_Resolved_Atoms>  (237) 
nan

$$$$
CHEMBL3414673
     RDKit          3D

  0  0  0  0  0  0  0  0  0  0999 V3000
M  V30 BEGIN CTAB
M  V30 COUNTS 42 43 0 0 0
M  V30 BEGIN ATOM
M  V30 1 C -2.899986 -3.329187 1.842262 0
M  V30 2 C -1.611606 -4.071145 1.671074 0
M  V30 3 C -1.945583 -5.519336 1.383420 0
M  V30 4 C -0.758860 -3.562169 0.553702 0
M  V30 5 C -0.357545 -2.114013 0.722938 0
M  V30 6 C 0.505421 -1.635412 -0.430433 0
M  V30 7 C 0.897571 -0.179005 -0.241934 0
M  V30 8 C -0.325920 0.717382 -0.172519 0
M  V30 9 C 1.706185 0.308736 -1.424651 0
M  V30 10 C 2.215149 1.690839 -1.164281 0
M  V30 11 C 2.366983 1.965584 0.284413 0
M  V30 12 C 2.827545 3.266320 0.505012 0
M  V30 13 C 3.039620 3.732189 1.796959 0
M  V30 14 O 3.495148 5.010465 2.088820 0
M  V30 15 C 2.781144 2.869233 2.862531 0
M  V30 16 C 2.328003 1.589710 2.643482 0
M  V30 17 C 2.118243 1.129033 1.364394 0
M  V30 18 O 1.670369 -0.112632 0.942219 0
M  V30 19 H -3.053338 -2.488818 1.138589 0
M  V30 20 H -3.780076 -3.982704 1.741337 0
M  V30 21 H -2.911921 -2.842621 2.859569 0
M  V30 22 H -1.020238 -4.043783 2.610270 0
M  V30 23 H -2.429560 -5.549930 0.391022 0
M  V30 24 H -2.737000 -5.812210 2.122670 0
M  V30 25 H -1.066908 -6.178257 1.460415 0
M  V30 26 H -1.155534 -3.771898 -0.452283 0
M  V30 27 H 0.201177 -4.139257 0.612022 0
M  V30 28 H 0.224474 -1.955515 1.653860 0
M  V30 29 H -1.284712 -1.522301 0.810662 0
M  V30 30 H 1.456619 -2.205682 -0.460165 0
M  V30 31 H -0.017439 -1.833977 -1.374802 0
M  V30 32 H -1.239007 0.238302 -0.601314 0
M  V30 33 H -0.562928 0.950018 0.884417 0
M  V30 34 H -0.184238 1.675546 -0.722426 0
M  V30 35 H 1.015013 0.366402 -2.306696 0
M  V30 36 H 2.522933 -0.412212 -1.631242 0
M  V30 37 H 3.264674 1.717438 -1.580941 0
M  V30 38 H 1.640783 2.465894 -1.709146 0
M  V30 39 H 3.055873 4.006745 -0.240612 0
M  V30 40 H 2.854651 5.770797 2.280791 0
M  V30 41 H 2.917239 3.143900 3.909058 0
M  V30 42 H 2.102472 0.854983 3.409252 0
M  V30 END ATOM
M  V30 BEGIN BOND
M  V30 1 1 1 2
M  V30 2 1 2 3
M  V30 3 1 2 4
M  V30 4 1 4 5
M  V30 5 1 5 6
M  V30 6 1 6 7
M  V30 7 1 7 8
M  V30 8 1 7 9
M  V30 9 1 9 10
M  V30 10 1 10 11
M  V30 11 2 11 12
M  V30 12 1 12 13
M  V30 13 1 13 14
M  V30 14 2 13 15
M  V30 15 1 15 16
M  V30 16 2 16 17
M  V30 17 1 17 18
M  V30 18 1 18 7
M  V30 19 1 17 11
M  V30 20 1 1 19
M  V30 21 1 1 20
M  V30 22 1 1 21
M  V30 23 1 2 22
M  V30 24 1 3 23
M  V30 25 1 3 24
M  V30 26 1 3 25
M  V30 27 1 4 26
M  V30 28 1 4 27
M  V30 29 1 5 28
M  V30 30 1 5 29
M  V30 31 1 6 30
M  V30 32 1 6 31
M  V30 33 1 8 32
M  V30 34 1 8 33
M  V30 35 1 8 34
M  V30 36 1 9 35
M  V30 37 1 9 36
M  V30 38 1 10 37
M  V30 39 1 10 38
M  V30 40 1 12 39
M  V30 41 1 14 40
M  V30 42 1 15 41
M  V30 43 1 16 42
M  V30 END BOND
M  V30 END CTAB
M  END
>  <Dataset>  (238) 
ChEMBL_Kinases

>  <Ligand_Instance>  (238) 
nan

>  <PDB_ID>  (238) 
nan

>  <Standardized_SMILES>  (238) 
CC(C)CCCC1(C)CCc2cc(O)ccc2O1

>  <Name>  (238) 
nan

>  <Pocket>  (238) 
nan

>  <ATP_Site>  (238) 
nan

>  <Peripheral>  (238) 
nan

>  <Num_H_Atoms_ProtBoundConf>  (238) 
nan

>  <Num_Resolved_Atoms>  (238) 
nan

>  <Num_Not_Resolved_Atoms>  (238) 
nan

$$$$
CHEMBL3414672
     RDKit          3D

  0  0  0  0  0  0  0  0  0  0999 V3000
M  V30 BEGIN CTAB
M  V30 COUNTS 45 46 0 0 0
M  V30 BEGIN ATOM
M  V30 1 C -0.147335 -1.126675 3.477254 0
M  V30 2 C -0.134077 -2.265661 2.521673 0
M  V30 3 C 0.156771 -3.554922 2.925946 0
M  V30 4 C 0.151666 -4.582270 1.974803 0
M  V30 5 O 0.442147 -5.886888 2.363231 0
M  V30 6 C -0.143952 -4.305856 0.634263 0
M  V30 7 C -0.432461 -2.986075 0.270029 0
M  V30 8 C -0.425937 -1.988062 1.202286 0
M  V30 9 O -0.729667 -0.756947 0.676210 0
M  V30 10 C -0.254816 -0.427551 -0.607692 0
M  V30 11 C 1.157173 -0.722636 -0.944672 0
M  V30 12 C -0.735021 0.879297 -1.028753 0
M  V30 13 C -0.598561 2.146423 -0.334675 0
M  V30 14 C 0.565205 2.856159 0.143799 0
M  V30 15 C 1.411115 2.501791 1.272852 0
M  V30 16 C 2.162902 1.254233 1.360743 0
M  V30 17 C 0.678686 2.727848 2.623969 0
M  V30 18 C -1.025083 -1.453109 -1.575331 0
M  V30 19 C -0.726756 -2.842529 -1.179534 0
M  V30 20 H -0.682164 -1.520077 4.388192 0
M  V30 21 H -0.746628 -0.289486 3.076987 0
M  V30 22 H 0.865255 -0.828187 3.814592 0
M  V30 23 H 0.386206 -3.764534 3.970846 0
M  V30 24 H 1.356781 -6.073966 2.748134 0
M  V30 25 H -0.128067 -5.160654 -0.048821 0
M  V30 26 H 1.292187 -1.442405 -1.811337 0
M  V30 27 H 1.738218 -1.180198 -0.107097 0
M  V30 28 H 1.702546 0.194134 -1.328194 0
M  V30 29 H -1.888261 0.742119 -1.230954 0
M  V30 30 H -0.404899 1.072043 -2.143323 0
M  V30 31 H -1.260022 2.948405 -0.927394 0
M  V30 32 H -1.321255 2.137648 0.609460 0
M  V30 33 H 0.295784 3.987430 0.279826 0
M  V30 34 H 1.325134 3.015263 -0.741744 0
M  V30 35 H 2.200183 3.354620 1.334643 0
M  V30 36 H 1.545924 0.383936 1.649173 0
M  V30 37 H 2.896394 1.336330 2.247608 0
M  V30 38 H 2.830253 1.065642 0.520206 0
M  V30 39 H -0.147093 2.030597 2.758671 0
M  V30 40 H 0.404738 3.785313 2.713426 0
M  V30 41 H 1.446889 2.512758 3.394456 0
M  V30 42 H -2.065561 -1.120001 -1.524574 0
M  V30 43 H -0.588690 -1.213490 -2.553983 0
M  V30 44 H 0.052079 -3.338345 -1.803253 0
M  V30 45 H -1.649099 -3.474468 -1.341802 0
M  V30 END ATOM
M  V30 BEGIN BOND
M  V30 1 1 1 2
M  V30 2 2 2 3
M  V30 3 1 3 4
M  V30 4 1 4 5
M  V30 5 2 4 6
M  V30 6 1 6 7
M  V30 7 2 7 8
M  V30 8 1 8 9
M  V30 9 1 9 10
M  V30 10 1 10 11
M  V30 11 1 10 12
M  V30 12 1 12 13
M  V30 13 1 13 14
M  V30 14 1 14 15
M  V30 15 1 15 16
M  V30 16 1 15 17
M  V30 17 1 10 18
M  V30 18 1 18 19
M  V30 19 1 8 2
M  V30 20 1 19 7
M  V30 21 1 1 20
M  V30 22 1 1 21
M  V30 23 1 1 22
M  V30 24 1 3 23
M  V30 25 1 5 24
M  V30 26 1 6 25
M  V30 27 1 11 26
M  V30 28 1 11 27
M  V30 29 1 11 28
M  V30 30 1 12 29
M  V30 31 1 12 30
M  V30 32 1 13 31
M  V30 33 1 13 32
M  V30 34 1 14 33
M  V30 35 1 14 34
M  V30 36 1 15 35
M  V30 37 1 16 36
M  V30 38 1 16 37
M  V30 39 1 16 38
M  V30 40 1 17 39
M  V30 41 1 17 40
M  V30 42 1 17 41
M  V30 43 1 18 42
M  V30 44 1 18 43
M  V30 45 1 19 44
M  V30 46 1 19 45
M  V30 END BOND
M  V30 END CTAB
M  END
>  <Dataset>  (239) 
ChEMBL_Kinases

>  <Ligand_Instance>  (239) 
nan

>  <PDB_ID>  (239) 
nan

>  <Standardized_SMILES>  (239) 
Cc1cc(O)cc2c1OC(C)(CCCC(C)C)CC2

>  <Name>  (239) 
nan

>  <Pocket>  (239) 
nan

>  <ATP_Site>  (239) 
nan

>  <Peripheral>  (239) 
nan

>  <Num_H_Atoms_ProtBoundConf>  (239) 
nan

>  <Num_Resolved_Atoms>  (239) 
nan

>  <Num_Not_Resolved_Atoms>  (239) 
nan

$$$$
CHEMBL3414671
     RDKit          3D

  0  0  0  0  0  0  0  0  0  0999 V3000
M  V30 BEGIN CTAB
M  V30 COUNTS 51 52 0 0 0
M  V30 BEGIN ATOM
M  V30 1 C -1.091251 -5.421646 1.822292 0
M  V30 2 O 0.089957 -5.080865 1.084423 0
M  V30 3 C 0.205692 -3.882716 0.430629 0
M  V30 4 C -0.780872 -2.898567 0.413486 0
M  V30 5 C -0.574043 -1.724327 -0.272146 0
M  V30 6 C 0.575066 -1.437330 -0.967444 0
M  V30 7 C 1.550588 -2.428024 -0.941881 0
M  V30 8 C 2.801193 -2.132656 -1.690413 0
M  V30 9 C 1.366435 -3.612047 -0.262402 0
M  V30 10 C 2.462883 -4.608305 -0.292197 0
M  V30 11 O 0.651661 -0.217431 -1.612938 0
M  V30 12 C -0.002798 0.917436 -0.963699 0
M  V30 13 C 0.062620 2.002297 -2.032379 0
M  V30 14 C 0.861245 1.217833 0.204771 0
M  V30 15 C 0.588019 2.309923 1.119269 0
M  V30 16 C -0.595193 2.443875 1.948756 0
M  V30 17 C -0.873558 1.349956 2.941806 0
M  V30 18 C 0.276630 1.213966 3.940170 0
M  V30 19 C -2.083233 1.798394 3.742139 0
M  V30 20 C -1.425655 0.580657 -0.755706 0
M  V30 21 C -1.709506 -0.795713 -0.199459 0
M  V30 22 H -1.101330 -6.507740 2.044854 0
M  V30 23 H -1.165733 -4.863223 2.773725 0
M  V30 24 H -2.003909 -5.229355 1.190278 0
M  V30 25 H -1.677155 -3.149384 0.969490 0
M  V30 26 H 3.681644 -2.622741 -1.191075 0
M  V30 27 H 2.731703 -2.430497 -2.760693 0
M  V30 28 H 2.999431 -1.043829 -1.671298 0
M  V30 29 H 3.002182 -4.596319 -1.274388 0
M  V30 30 H 3.190476 -4.497156 0.531239 0
M  V30 31 H 2.055028 -5.650652 -0.219468 0
M  V30 32 H -0.861772 2.003289 -2.660041 0
M  V30 33 H 0.905776 1.856576 -2.742902 0
M  V30 34 H 0.196023 3.013756 -1.603726 0
M  V30 35 H 1.890258 1.395323 -0.277801 0
M  V30 36 H 1.070897 0.229268 0.708962 0
M  V30 37 H 1.499341 2.391416 1.812170 0
M  V30 38 H 0.689699 3.312478 0.569103 0
M  V30 39 H -0.395699 3.345766 2.652693 0
M  V30 40 H -1.550222 2.759273 1.505111 0
M  V30 41 H -1.105043 0.373824 2.540477 0
M  V30 42 H 1.258160 1.127746 3.433542 0
M  V30 43 H 0.109631 0.249836 4.463707 0
M  V30 44 H 0.257208 2.037548 4.656896 0
M  V30 45 H -2.611345 0.946154 4.204111 0
M  V30 46 H -2.808423 2.271783 3.032888 0
M  V30 47 H -1.803114 2.586435 4.455954 0
M  V30 48 H -1.951411 1.345232 -0.203735 0
M  V30 49 H -1.897534 0.647010 -1.800929 0
M  V30 50 H -2.207074 -0.764758 0.791922 0
M  V30 51 H -2.505870 -1.258477 -0.863484 0
M  V30 END ATOM
M  V30 BEGIN BOND
M  V30 1 1 1 2
M  V30 2 1 2 3
M  V30 3 2 3 4
M  V30 4 1 4 5
M  V30 5 2 5 6
M  V30 6 1 6 7
M  V30 7 1 7 8
M  V30 8 2 7 9
M  V30 9 1 9 10
M  V30 10 1 6 11
M  V30 11 1 11 12
M  V30 12 1 12 13
M  V30 13 1 12 14
M  V30 14 1 14 15
M  V30 15 1 15 16
M  V30 16 1 16 17
M  V30 17 1 17 18
M  V30 18 1 17 19
M  V30 19 1 12 20
M  V30 20 1 20 21
M  V30 21 1 9 3
M  V30 22 1 21 5
M  V30 23 1 1 22
M  V30 24 1 1 23
M  V30 25 1 1 24
M  V30 26 1 4 25
M  V30 27 1 8 26
M  V30 28 1 8 27
M  V30 29 1 8 28
M  V30 30 1 10 29
M  V30 31 1 10 30
M  V30 32 1 10 31
M  V30 33 1 13 32
M  V30 34 1 13 33
M  V30 35 1 13 34
M  V30 36 1 14 35
M  V30 37 1 14 36
M  V30 38 1 15 37
M  V30 39 1 15 38
M  V30 40 1 16 39
M  V30 41 1 16 40
M  V30 42 1 17 41
M  V30 43 1 18 42
M  V30 44 1 18 43
M  V30 45 1 18 44
M  V30 46 1 19 45
M  V30 47 1 19 46
M  V30 48 1 19 47
M  V30 49 1 20 48
M  V30 50 1 20 49
M  V30 51 1 21 50
M  V30 52 1 21 51
M  V30 END BOND
M  V30 END CTAB
M  END
>  <Dataset>  (240) 
ChEMBL_Kinases

>  <Ligand_Instance>  (240) 
nan

>  <PDB_ID>  (240) 
nan

>  <Standardized_SMILES>  (240) 
COc1cc2c(c(C)c1C)OC(C)(CCCC(C)C)CC2

>  <Name>  (240) 
nan

>  <Pocket>  (240) 
nan

>  <ATP_Site>  (240) 
nan

>  <Peripheral>  (240) 
nan

>  <Num_H_Atoms_ProtBoundConf>  (240) 
nan

>  <Num_Resolved_Atoms>  (240) 
nan

>  <Num_Not_Resolved_Atoms>  (240) 
nan

$$$$
CHEMBL3414670
     RDKit          3D

  0  0  0  0  0  0  0  0  0  0999 V3000
M  V30 BEGIN CTAB
M  V30 COUNTS 48 49 0 0 0
M  V30 BEGIN ATOM
M  V30 1 C 0.843974 -5.416082 1.617115 0
M  V30 2 C -0.200000 -4.398150 1.424910 0
M  V30 3 C -1.405995 -4.468268 2.092309 0
M  V30 4 O -1.695986 -5.485405 2.966812 0
M  V30 5 C -2.365642 -3.497194 1.890378 0
M  V30 6 C -2.108892 -2.465344 1.022388 0
M  V30 7 C -0.901897 -2.399326 0.357403 0
M  V30 8 C 0.079205 -3.364873 0.544407 0
M  V30 9 C 1.376571 -3.255628 -0.197702 0
M  V30 10 O -0.745061 -1.333993 -0.483339 0
M  V30 11 C -1.223266 -0.017619 -0.256302 0
M  V30 12 C -1.588855 0.660082 -1.553570 0
M  V30 13 C -0.012624 0.712286 0.354161 0
M  V30 14 C -0.320903 2.127434 0.665923 0
M  V30 15 C 0.769859 2.937200 1.293910 0
M  V30 16 C 2.032537 3.100366 0.527661 0
M  V30 17 C 2.932275 3.991969 1.412301 0
M  V30 18 C 2.831598 1.849117 0.304491 0
M  V30 19 C -2.380572 -0.034684 0.702601 0
M  V30 20 C -3.082470 -1.376737 0.743669 0
M  V30 21 H 1.890036 -4.997886 1.546004 0
M  V30 22 H 0.805303 -5.898064 2.613260 0
M  V30 23 H 0.811695 -6.219108 0.836925 0
M  V30 24 H -1.137166 -6.297685 3.091738 0
M  V30 25 H -3.317315 -3.539374 2.407648 0
M  V30 26 H 1.173245 -2.706357 -1.158445 0
M  V30 27 H 2.001036 -2.534937 0.407708 0
M  V30 28 H 1.873877 -4.216721 -0.338894 0
M  V30 29 H -2.197591 1.547406 -1.362249 0
M  V30 30 H -0.676432 0.964182 -2.108702 0
M  V30 31 H -2.173794 -0.068897 -2.174808 0
M  V30 32 H 0.774988 0.587828 -0.422075 0
M  V30 33 H 0.356616 0.210503 1.267293 0
M  V30 34 H -1.243600 2.254372 1.279290 0
M  V30 35 H -0.613463 2.611475 -0.319608 0
M  V30 36 H 0.367636 3.976586 1.451272 0
M  V30 37 H 1.029167 2.562049 2.318749 0
M  V30 38 H 1.886052 3.580186 -0.451313 0
M  V30 39 H 3.284789 3.330907 2.254269 0
M  V30 40 H 3.861376 4.267344 0.855683 0
M  V30 41 H 2.396472 4.844851 1.823986 0
M  V30 42 H 2.590732 1.042774 1.007628 0
M  V30 43 H 2.868503 1.551199 -0.766812 0
M  V30 44 H 3.914331 2.095890 0.540845 0
M  V30 45 H -3.159116 0.712700 0.439340 0
M  V30 46 H -1.992306 0.128534 1.749892 0
M  V30 47 H -3.590475 -1.508511 -0.232944 0
M  V30 48 H -3.874429 -1.313612 1.509517 0
M  V30 END ATOM
M  V30 BEGIN BOND
M  V30 1 1 1 2
M  V30 2 2 2 3
M  V30 3 1 3 4
M  V30 4 1 3 5
M  V30 5 2 5 6
M  V30 6 1 6 7
M  V30 7 2 7 8
M  V30 8 1 8 9
M  V30 9 1 7 10
M  V30 10 1 10 11
M  V30 11 1 11 12
M  V30 12 1 11 13
M  V30 13 1 13 14
M  V30 14 1 14 15
M  V30 15 1 15 16
M  V30 16 1 16 17
M  V30 17 1 16 18
M  V30 18 1 11 19
M  V30 19 1 19 20
M  V30 20 1 8 2
M  V30 21 1 20 6
M  V30 22 1 1 21
M  V30 23 1 1 22
M  V30 24 1 1 23
M  V30 25 1 4 24
M  V30 26 1 5 25
M  V30 27 1 9 26
M  V30 28 1 9 27
M  V30 29 1 9 28
M  V30 30 1 12 29
M  V30 31 1 12 30
M  V30 32 1 12 31
M  V30 33 1 13 32
M  V30 34 1 13 33
M  V30 35 1 14 34
M  V30 36 1 14 35
M  V30 37 1 15 36
M  V30 38 1 15 37
M  V30 39 1 16 38
M  V30 40 1 17 39
M  V30 41 1 17 40
M  V30 42 1 17 41
M  V30 43 1 18 42
M  V30 44 1 18 43
M  V30 45 1 18 44
M  V30 46 1 19 45
M  V30 47 1 19 46
M  V30 48 1 20 47
M  V30 49 1 20 48
M  V30 END BOND
M  V30 END CTAB
M  END
>  <Dataset>  (241) 
ChEMBL_Kinases

>  <Ligand_Instance>  (241) 
nan

>  <PDB_ID>  (241) 
nan

>  <Standardized_SMILES>  (241) 
Cc1c(O)cc2c(c1C)OC(C)(CCCC(C)C)CC2

>  <Name>  (241) 
nan

>  <Pocket>  (241) 
nan

>  <ATP_Site>  (241) 
nan

>  <Peripheral>  (241) 
nan

>  <Num_H_Atoms_ProtBoundConf>  (241) 
nan

>  <Num_Resolved_Atoms>  (241) 
nan

>  <Num_Not_Resolved_Atoms>  (241) 
nan

$$$$
CHEMBL3414584
     RDKit          3D

  0  0  0  0  0  0  0  0  0  0999 V3000
M  V30 BEGIN CTAB
M  V30 COUNTS 48 51 0 0 0
M  V30 BEGIN ATOM
M  V30 1 N 3.174411 -4.910183 -0.060805 0
M  V30 2 C 1.926000 -4.176955 -0.135260 0
M  V30 3 O 1.796818 -5.387922 -0.353468 0
M  V30 4 C 1.919552 -2.756171 0.096238 0
M  V30 5 N 3.125526 -2.234369 0.360091 0
M  V30 6 C 3.321914 -0.937496 0.592210 0
M  V30 7 C 2.184597 -0.190567 0.537314 0
M  V30 8 N 2.179563 1.211757 0.742589 0
M  V30 9 C 1.004997 2.084750 0.726267 0 CFG=2
M  V30 10 C 1.405263 3.499342 0.867626 0
M  V30 11 C 1.277891 4.181120 2.161862 0
M  V30 12 C 0.579035 3.442768 3.252268 0
M  V30 13 C -0.517752 2.635788 2.665185 0
M  V30 14 C 0.072125 1.562522 1.779187 0 CFG=2
M  V30 15 N 0.701035 0.576468 2.639227 0
M  V30 16 N 0.987065 -0.710211 0.275820 0
M  V30 17 C 0.775133 -2.014030 0.039856 0
M  V30 18 C -0.531412 -2.544601 -0.250044 0
M  V30 19 C -1.621345 -1.672279 -0.311879 0
M  V30 20 C -2.795633 -2.308400 -0.606047 0
M  V30 21 C -4.110056 -1.952034 -0.781291 0
M  V30 22 C -5.098953 -2.861697 -1.083357 0
M  V30 23 C -4.695422 -4.191282 -1.205855 0
M  V30 24 C -3.369160 -4.581627 -1.033375 0
M  V30 25 C -2.420743 -3.626370 -0.731977 0
M  V30 26 N -1.107315 -3.694361 -0.515284 0
M  V30 27 H 3.992155 -4.689249 0.574175 0
M  V30 28 H 3.997100 -4.707650 0.561833 0
M  V30 29 H 4.211902 -0.382930 0.813886 0
M  V30 30 H 3.101839 1.664080 0.923134 0
M  V30 31 H 0.524717 1.935703 -0.259546 0
M  V30 32 H 2.485443 3.566974 0.537838 0
M  V30 33 H 0.889461 4.126968 0.078929 0
M  V30 34 H 0.774145 5.181972 2.059848 0
M  V30 35 H 2.279221 4.467427 2.600433 0
M  V30 36 H 0.087446 4.185837 3.946906 0
M  V30 37 H 1.293058 2.909689 3.898685 0
M  V30 38 H -1.123351 2.094113 3.434170 0
M  V30 39 H -1.146683 3.299564 2.049220 0
M  V30 40 H -0.815415 1.054439 1.340171 0
M  V30 41 H 0.008415 -0.038965 3.115086 0
M  V30 42 H 1.332604 0.951801 3.350211 0
M  V30 43 H -1.663903 -0.578470 -0.164285 0
M  V30 44 H -4.365948 -0.925328 -0.677663 0
M  V30 45 H -6.144937 -2.583518 -1.224191 0
M  V30 46 H -5.448373 -4.929583 -1.441245 0
M  V30 47 H -3.078365 -5.638750 -1.134920 0
M  V30 48 H -0.609643 -4.575293 -0.555047 0
M  V30 END ATOM
M  V30 BEGIN BOND
M  V30 1 1 1 2
M  V30 2 2 2 3
M  V30 3 1 2 4
M  V30 4 2 4 5
M  V30 5 1 5 6
M  V30 6 2 6 7
M  V30 7 1 7 8
M  V30 8 1 8 9
M  V30 9 1 9 10
M  V30 10 1 10 11
M  V30 11 1 11 12
M  V30 12 1 12 13
M  V30 13 1 13 14
M  V30 14 1 14 15
M  V30 15 1 7 16
M  V30 16 2 16 17
M  V30 17 1 17 18
M  V30 18 2 18 19
M  V30 19 1 19 20
M  V30 20 2 20 21
M  V30 21 1 21 22
M  V30 22 2 22 23
M  V30 23 1 23 24
M  V30 24 2 24 25
M  V30 25 1 25 26
M  V30 26 1 17 4
M  V30 27 1 26 18
M  V30 28 1 14 9
M  V30 29 1 25 20
M  V30 30 1 1 27
M  V30 31 1 1 28
M  V30 32 1 6 29
M  V30 33 1 8 30
M  V30 34 1 9 31 CFG=3
M  V30 35 1 10 32
M  V30 36 1 10 33
M  V30 37 1 11 34
M  V30 38 1 11 35
M  V30 39 1 12 36
M  V30 40 1 12 37
M  V30 41 1 13 38
M  V30 42 1 13 39
M  V30 43 1 14 40 CFG=3
M  V30 44 1 15 41
M  V30 45 1 15 42
M  V30 46 1 19 43
M  V30 47 1 21 44
M  V30 48 1 22 45
M  V30 49 1 23 46
M  V30 50 1 24 47
M  V30 51 1 26 48
M  V30 END BOND
M  V30 END CTAB
M  END
>  <Dataset>  (242) 
ChEMBL_Kinases

>  <Ligand_Instance>  (242) 
nan

>  <PDB_ID>  (242) 
nan

>  <Standardized_SMILES>  (242) 
NC(=O)c1ncc(N[C@@H]2CCCC[C@@H]2N)nc1-c1cc2ccccc2[nH]1

>  <Name>  (242) 
nan

>  <Pocket>  (242) 
nan

>  <ATP_Site>  (242) 
nan

>  <Peripheral>  (242) 
nan

>  <Num_H_Atoms_ProtBoundConf>  (242) 
nan

>  <Num_Resolved_Atoms>  (242) 
nan

>  <Num_Not_Resolved_Atoms>  (242) 
nan

$$$$
CHEMBL341432
     RDKit          3D

  0  0  0  0  0  0  0  0  0  0999 V3000
M  V30 BEGIN CTAB
M  V30 COUNTS 50 53 0 0 0
M  V30 BEGIN ATOM
M  V30 1 N -1.207841 0.114809 -4.335614 0
M  V30 2 C -0.258182 0.781941 -4.367231 0
M  V30 3 C 0.905313 1.601341 -4.384069 0
M  V30 4 C 1.170700 2.319316 -5.525876 0
M  V30 5 C 2.294570 3.115932 -5.553050 0
M  V30 6 C 3.135558 3.197311 -4.470386 0
M  V30 7 C 2.910933 2.492682 -3.296249 0
M  V30 8 N 3.790557 2.588691 -2.187043 0
M  V30 9 C 3.713712 1.945677 -0.926411 0
M  V30 10 N 4.675094 2.194283 -0.020938 0
M  V30 11 C 4.708016 1.648105 1.196379 0
M  V30 12 C 3.698051 0.781174 1.540671 0
M  V30 13 C 2.687404 0.487039 0.658924 0
M  V30 14 C 1.607874 -0.427355 1.000517 0
M  V30 15 C 0.578434 -0.747044 0.145184 0
M  V30 16 C -0.458141 -1.611455 0.443801 0
M  V30 17 C -0.480613 -2.209364 1.688522 0
M  V30 18 S -1.754419 -3.315850 2.149777 0
M  V30 19 O -1.240683 -4.368390 3.106922 0
M  V30 20 O -2.278514 -4.083729 0.966828 0
M  V30 21 N -3.080148 -2.551376 2.885519 0
M  V30 22 C -2.809389 -1.865262 4.102453 0
M  V30 23 C -2.845507 -2.786550 5.285345 0
M  V30 24 N -4.146947 -3.429948 5.319781 0
M  V30 25 C -4.268183 -4.281303 4.160946 0
M  V30 26 C -4.210051 -3.421671 2.920625 0
M  V30 27 C 0.531047 -1.921324 2.584955 0
M  V30 28 C 1.539480 -1.047981 2.225191 0
M  V30 29 N 2.783480 1.107249 -0.523883 0
M  V30 30 C 1.771253 1.719024 -3.341911 0
M  V30 31 H 0.517978 2.265104 -6.385397 0
M  V30 32 H 2.552080 3.707327 -6.435450 0
M  V30 33 H 4.016169 3.843348 -4.538452 0
M  V30 34 H 4.613869 3.240755 -2.351498 0
M  V30 35 H 5.534304 1.930319 1.828011 0
M  V30 36 H 3.758683 0.360678 2.530617 0
M  V30 37 H 0.540103 -0.312272 -0.841657 0
M  V30 38 H -1.247795 -1.826414 -0.276990 0
M  V30 39 H -3.491992 -0.993960 4.220582 0
M  V30 40 H -1.754999 -1.471336 4.033950 0
M  V30 41 H -2.040454 -3.536969 5.144575 0
M  V30 42 H -2.721415 -2.207288 6.222754 0
M  V30 43 H -4.880364 -2.688463 5.233323 0
M  V30 44 H -5.281289 -4.737513 4.181355 0
M  V30 45 H -3.541012 -5.105017 4.144309 0
M  V30 46 H -5.184875 -2.869162 2.890144 0
M  V30 47 H -4.208215 -4.091994 2.050086 0
M  V30 48 H 0.485795 -2.404220 3.549753 0
M  V30 49 H 2.270873 -0.898363 2.998629 0
M  V30 50 H 1.501221 1.128032 -2.479058 0
M  V30 END ATOM
M  V30 BEGIN BOND
M  V30 1 3 1 2
M  V30 2 1 2 3
M  V30 3 2 3 4
M  V30 4 1 4 5
M  V30 5 2 5 6
M  V30 6 1 6 7
M  V30 7 1 7 8
M  V30 8 1 8 9
M  V30 9 2 9 10
M  V30 10 1 10 11
M  V30 11 2 11 12
M  V30 12 1 12 13
M  V30 13 1 13 14
M  V30 14 2 14 15
M  V30 15 1 15 16
M  V30 16 2 16 17
M  V30 17 1 17 18
M  V30 18 2 18 19
M  V30 19 2 18 20
M  V30 20 1 18 21
M  V30 21 1 21 22
M  V30 22 1 22 23
M  V30 23 1 23 24
M  V30 24 1 24 25
M  V30 25 1 25 26
M  V30 26 1 17 27
M  V30 27 2 27 28
M  V30 28 2 13 29
M  V30 29 2 7 30
M  V30 30 1 30 3
M  V30 31 1 29 9
M  V30 32 1 28 14
M  V30 33 1 26 21
M  V30 34 1 4 31
M  V30 35 1 5 32
M  V30 36 1 6 33
M  V30 37 1 8 34
M  V30 38 1 11 35
M  V30 39 1 12 36
M  V30 40 1 15 37
M  V30 41 1 16 38
M  V30 42 1 22 39
M  V30 43 1 22 40
M  V30 44 1 23 41
M  V30 45 1 23 42
M  V30 46 1 24 43
M  V30 47 1 25 44
M  V30 48 1 25 45
M  V30 49 1 26 46
M  V30 50 1 26 47
M  V30 51 1 27 48
M  V30 52 1 28 49
M  V30 53 1 30 50
M  V30 END BOND
M  V30 END CTAB
M  END
>  <Dataset>  (243) 
ChEMBL_Kinases

>  <Ligand_Instance>  (243) 
nan

>  <PDB_ID>  (243) 
nan

>  <Standardized_SMILES>  (243) 
N#Cc1cccc(Nc2nccc(-c3ccc(S(=O)(=O)N4CCNCC4)cc3)n2)c1

>  <Name>  (243) 
nan

>  <Pocket>  (243) 
nan

>  <ATP_Site>  (243) 
nan

>  <Peripheral>  (243) 
nan

>  <Num_H_Atoms_ProtBoundConf>  (243) 
nan

>  <Num_Resolved_Atoms>  (243) 
nan

>  <Num_Not_Resolved_Atoms>  (243) 
nan

$$$$
CHEMBL3410112
     RDKit          3D

  0  0  0  0  0  0  0  0  0  0999 V3000
M  V30 BEGIN CTAB
M  V30 COUNTS 34 36 0 0 0
M  V30 BEGIN ATOM
M  V30 1 N 0.623533 -3.993502 5.832684 0
M  V30 2 C 0.863717 -4.568830 4.564191 0
M  V30 3 O 1.061548 -5.818259 4.547866 0
M  V30 4 C 0.884753 -3.783806 3.345217 0
M  V30 5 C 1.124970 -4.406889 2.139966 0
M  V30 6 C 1.144745 -3.667129 0.991786 0
M  V30 7 C 0.933175 -2.303306 0.972533 0
M  V30 8 C 0.956173 -1.520349 -0.260135 0
M  V30 9 C 1.183492 -2.016823 -1.524132 0
M  V30 10 C 1.185154 -1.194793 -2.628210 0
M  V30 11 N 0.961804 0.132162 -2.499047 0
M  V30 12 C 0.733497 0.661424 -1.270176 0
M  V30 13 N 0.487542 2.068283 -1.055851 0
M  V30 14 C -0.893059 2.372677 -1.131478 0
M  V30 15 O -1.689974 1.404586 -1.367764 0
M  V30 16 C -1.439841 3.730290 -0.953092 0
M  V30 17 C -2.714603 3.827069 -0.108628 0
M  V30 18 C -2.726048 4.138516 -1.570201 0
M  V30 19 C 0.731111 -0.163212 -0.156483 0
M  V30 20 N 0.703634 -1.746945 2.175938 0
M  V30 21 N 0.686963 -2.471496 3.277710 0
M  V30 22 H 1.272927 -3.805094 6.627902 0
M  V30 23 H -0.408994 -3.813565 5.729917 0
M  V30 24 H 1.294132 -5.484628 2.138554 0
M  V30 25 H 1.336985 -4.203060 0.076654 0
M  V30 26 H 1.358687 -3.065681 -1.614867 0
M  V30 27 H 1.368506 -1.638502 -3.590331 0
M  V30 28 H 1.170520 2.843525 -0.862506 0
M  V30 29 H -0.696072 4.506227 -0.754040 0
M  V30 30 H -3.193292 2.871403 0.197626 0
M  V30 31 H -2.853822 4.682953 0.555022 0
M  V30 32 H -2.807109 5.196774 -1.904956 0
M  V30 33 H -3.194506 3.413070 -2.275267 0
M  V30 34 H 0.548146 0.273424 0.811841 0
M  V30 END ATOM
M  V30 BEGIN BOND
M  V30 1 1 1 2
M  V30 2 2 2 3
M  V30 3 1 2 4
M  V30 4 2 4 5
M  V30 5 1 5 6
M  V30 6 2 6 7
M  V30 7 1 7 8
M  V30 8 2 8 9
M  V30 9 1 9 10
M  V30 10 2 10 11
M  V30 11 1 11 12
M  V30 12 1 12 13
M  V30 13 1 13 14
M  V30 14 2 14 15
M  V30 15 1 14 16
M  V30 16 1 16 17
M  V30 17 1 17 18
M  V30 18 2 12 19
M  V30 19 1 7 20
M  V30 20 2 20 21
M  V30 21 1 21 4
M  V30 22 1 19 8
M  V30 23 1 18 16
M  V30 24 1 1 22
M  V30 25 1 1 23
M  V30 26 1 5 24
M  V30 27 1 6 25
M  V30 28 1 9 26
M  V30 29 1 10 27
M  V30 30 1 13 28
M  V30 31 1 16 29
M  V30 32 1 17 30
M  V30 33 1 17 31
M  V30 34 1 18 32
M  V30 35 1 18 33
M  V30 36 1 19 34
M  V30 END BOND
M  V30 END CTAB
M  END
>  <Dataset>  (244) 
ChEMBL_Kinases

>  <Ligand_Instance>  (244) 
nan

>  <PDB_ID>  (244) 
nan

>  <Standardized_SMILES>  (244) 
NC(=O)c1ccc(-c2ccnc(NC(=O)C3CC3)c2)nn1

>  <Name>  (244) 
nan

>  <Pocket>  (244) 
nan

>  <ATP_Site>  (244) 
nan

>  <Peripheral>  (244) 
nan

>  <Num_H_Atoms_ProtBoundConf>  (244) 
nan

>  <Num_Resolved_Atoms>  (244) 
nan

>  <Num_Not_Resolved_Atoms>  (244) 
nan

$$$$
CHEMBL3410111
     RDKit          3D

  0  0  0  0  0  0  0  0  0  0999 V3000
M  V30 BEGIN CTAB
M  V30 COUNTS 44 46 0 0 0
M  V30 BEGIN ATOM
M  V30 1 C -0.272740 -4.446780 2.382292 0
M  V30 2 C -1.124009 -4.275320 1.096388 0
M  V30 3 C -0.352567 -5.127925 0.064338 0
M  V30 4 O -1.191067 -2.989421 0.799574 0
M  V30 5 C -1.811051 -1.858199 0.583216 0
M  V30 6 N -0.873372 -0.898094 0.282860 0
M  V30 7 C -1.201954 0.376598 0.009558 0
M  V30 8 C -0.228514 1.414599 -0.311940 0
M  V30 9 C -0.600961 2.710671 -0.586756 0
M  V30 10 C 0.327717 3.685835 -0.889906 0
M  V30 11 N 1.636092 3.323663 -0.909125 0
M  V30 12 C 1.998572 2.038404 -0.636057 0
M  V30 13 N 3.418399 1.786437 -0.690052 0
M  V30 14 C 3.922366 2.026822 0.618635 0
M  V30 15 O 3.087477 2.386385 1.501477 0
M  V30 16 C 5.355792 1.895041 1.057729 0
M  V30 17 C 5.810280 2.980298 2.062051 0
M  V30 18 C 5.625851 1.553246 2.468796 0
M  V30 19 C 1.106432 1.023426 -0.326466 0
M  V30 20 N -2.493078 0.738630 0.027444 0
M  V30 21 C -3.508446 -0.087565 0.302531 0
M  V30 22 C -3.090230 -1.364146 0.569131 0
M  V30 23 C -4.069373 -2.384491 0.886906 0
M  V30 24 N -5.437730 -1.997836 0.905259 0
M  V30 25 O -4.431459 -3.534134 1.185824 0
M  V30 26 H 0.800213 -4.403599 2.086250 0
M  V30 27 H -0.543000 -3.707374 3.141223 0
M  V30 28 H -0.443983 -5.464965 2.804383 0
M  V30 29 H -2.113252 -4.768168 1.291228 0
M  V30 30 H -0.699931 -6.167707 0.226219 0
M  V30 31 H -0.471200 -4.747550 -0.955911 0
M  V30 32 H 0.737853 -5.124747 0.270413 0
M  V30 33 H -1.661607 2.912149 -0.549536 0
M  V30 34 H -0.041033 4.681508 -1.094437 0
M  V30 35 H 4.123257 1.493182 -1.393914 0
M  V30 36 H 6.113845 1.583819 0.317497 0
M  V30 37 H 5.058459 3.730030 2.372770 0
M  V30 38 H 6.837991 3.375638 1.946061 0
M  V30 39 H 6.554003 1.017359 2.739923 0
M  V30 40 H 4.791869 1.389933 3.190072 0
M  V30 41 H 1.436544 0.033878 -0.120303 0
M  V30 42 H -4.557481 0.156417 0.328851 0
M  V30 43 H -5.999301 -1.628195 1.720284 0
M  V30 44 H -6.127789 -2.008573 0.102809 0
M  V30 END ATOM
M  V30 BEGIN BOND
M  V30 1 1 1 2
M  V30 2 1 2 3
M  V30 3 1 2 4
M  V30 4 1 4 5
M  V30 5 2 5 6
M  V30 6 1 6 7
M  V30 7 1 7 8
M  V30 8 2 8 9
M  V30 9 1 9 10
M  V30 10 2 10 11
M  V30 11 1 11 12
M  V30 12 1 12 13
M  V30 13 1 13 14
M  V30 14 2 14 15
M  V30 15 1 14 16
M  V30 16 1 16 17
M  V30 17 1 17 18
M  V30 18 2 12 19
M  V30 19 2 7 20
M  V30 20 1 20 21
M  V30 21 2 21 22
M  V30 22 1 22 23
M  V30 23 1 23 24
M  V30 24 2 23 25
M  V30 25 1 22 5
M  V30 26 1 19 8
M  V30 27 1 18 16
M  V30 28 1 1 26
M  V30 29 1 1 27
M  V30 30 1 1 28
M  V30 31 1 2 29
M  V30 32 1 3 30
M  V30 33 1 3 31
M  V30 34 1 3 32
M  V30 35 1 9 33
M  V30 36 1 10 34
M  V30 37 1 13 35
M  V30 38 1 16 36
M  V30 39 1 17 37
M  V30 40 1 17 38
M  V30 41 1 18 39
M  V30 42 1 18 40
M  V30 43 1 19 41
M  V30 44 1 21 42
M  V30 45 1 24 43
M  V30 46 1 24 44
M  V30 END BOND
M  V30 END CTAB
M  END
>  <Dataset>  (245) 
ChEMBL_Kinases

>  <Ligand_Instance>  (245) 
nan

>  <PDB_ID>  (245) 
nan

>  <Standardized_SMILES>  (245) 
CC(C)Oc1nc(-c2ccnc(NC(=O)C3CC3)c2)ncc1C(N)=O

>  <Name>  (245) 
nan

>  <Pocket>  (245) 
nan

>  <ATP_Site>  (245) 
nan

>  <Peripheral>  (245) 
nan

>  <Num_H_Atoms_ProtBoundConf>  (245) 
nan

>  <Num_Resolved_Atoms>  (245) 
nan

>  <Num_Not_Resolved_Atoms>  (245) 
nan

$$$$
CHEMBL3410110
     RDKit          3D

  0  0  0  0  0  0  0  0  0  0999 V3000
M  V30 BEGIN CTAB
M  V30 COUNTS 38 40 0 0 0
M  V30 BEGIN ATOM
M  V30 1 C 0.407830 -4.902641 3.736248 0
M  V30 2 O -0.832448 -4.770911 3.060155 0
M  V30 3 C -1.012700 -3.705816 2.197557 0
M  V30 4 N -0.076221 -2.771095 1.952322 0
M  V30 5 C -0.233911 -1.728942 1.117046 0
M  V30 6 C 0.850858 -0.769305 0.922892 0
M  V30 7 C 2.039513 -0.939304 1.602684 0
M  V30 8 C 3.081510 -0.050129 1.440005 0
M  V30 9 N 2.884535 0.986286 0.590645 0
M  V30 10 C 1.741949 1.179350 -0.084468 0
M  V30 11 N 1.708056 2.321611 -0.934944 0
M  V30 12 C 1.248329 3.539468 -0.373982 0
M  V30 13 O 0.803692 4.251838 0.563022 0
M  V30 14 C 1.152998 4.811042 -1.121168 0
M  V30 15 C 0.733784 4.657592 -2.572139 0
M  V30 16 C 2.126486 5.151969 -2.182902 0
M  V30 17 C 0.687570 0.299502 0.065609 0
M  V30 18 N -1.397189 -1.573299 0.459467 0
M  V30 19 C -2.425662 -2.457652 0.624888 0
M  V30 20 C -2.185686 -3.499747 1.498588 0
M  V30 21 C -3.288488 -4.440636 1.670548 0
M  V30 22 N -3.213386 -5.574182 2.533893 0
M  V30 23 O -4.456382 -4.573171 1.221451 0
M  V30 24 H 0.242414 -4.885280 4.827559 0
M  V30 25 H 1.082131 -4.034039 3.508591 0
M  V30 26 H 0.905473 -5.834025 3.405676 0
M  V30 27 H 2.119436 -1.806830 2.273931 0
M  V30 28 H 3.996405 -0.220502 1.992108 0
M  V30 29 H 1.973393 2.421866 -1.939307 0
M  V30 30 H 0.772714 5.653809 -0.517568 0
M  V30 31 H 0.007417 5.383655 -2.981769 0
M  V30 32 H 0.618336 3.645897 -2.988013 0
M  V30 33 H 2.289784 6.206401 -2.426232 0
M  V30 34 H 2.930964 4.483216 -2.492305 0
M  V30 35 H -0.223249 0.476894 -0.489726 0
M  V30 36 H -3.361351 -2.350140 0.108891 0
M  V30 37 H -2.671888 -6.467498 2.361531 0
M  V30 38 H -3.552298 -5.936388 3.451395 0
M  V30 END ATOM
M  V30 BEGIN BOND
M  V30 1 1 1 2
M  V30 2 1 2 3
M  V30 3 2 3 4
M  V30 4 1 4 5
M  V30 5 1 5 6
M  V30 6 2 6 7
M  V30 7 1 7 8
M  V30 8 2 8 9
M  V30 9 1 9 10
M  V30 10 1 10 11
M  V30 11 1 11 12
M  V30 12 2 12 13
M  V30 13 1 12 14
M  V30 14 1 14 15
M  V30 15 1 15 16
M  V30 16 2 10 17
M  V30 17 2 5 18
M  V30 18 1 18 19
M  V30 19 2 19 20
M  V30 20 1 20 21
M  V30 21 1 21 22
M  V30 22 2 21 23
M  V30 23 1 20 3
M  V30 24 1 17 6
M  V30 25 1 16 14
M  V30 26 1 1 24
M  V30 27 1 1 25
M  V30 28 1 1 26
M  V30 29 1 7 27
M  V30 30 1 8 28
M  V30 31 1 11 29
M  V30 32 1 14 30
M  V30 33 1 15 31
M  V30 34 1 15 32
M  V30 35 1 16 33
M  V30 36 1 16 34
M  V30 37 1 17 35
M  V30 38 1 19 36
M  V30 39 1 22 37
M  V30 40 1 22 38
M  V30 END BOND
M  V30 END CTAB
M  END
>  <Dataset>  (246) 
ChEMBL_Kinases

>  <Ligand_Instance>  (246) 
nan

>  <PDB_ID>  (246) 
nan

>  <Standardized_SMILES>  (246) 
COc1nc(-c2ccnc(NC(=O)C3CC3)c2)ncc1C(N)=O

>  <Name>  (246) 
nan

>  <Pocket>  (246) 
nan

>  <ATP_Site>  (246) 
nan

>  <Peripheral>  (246) 
nan

>  <Num_H_Atoms_ProtBoundConf>  (246) 
nan

>  <Num_Resolved_Atoms>  (246) 
nan

>  <Num_Not_Resolved_Atoms>  (246) 
nan

$$$$
CHEMBL3410109
     RDKit          3D

  0  0  0  0  0  0  0  0  0  0999 V3000
M  V30 BEGIN CTAB
M  V30 COUNTS 34 36 0 0 0
M  V30 BEGIN ATOM
M  V30 1 N 2.516363 -5.599535 3.581100 0
M  V30 2 C 2.021521 -5.800168 2.280096 0
M  V30 3 O 1.946928 -6.959079 1.800383 0
M  V30 4 C 1.639160 -4.543244 1.629630 0
M  V30 5 C 1.150733 -4.689212 0.358138 0
M  V30 6 N 0.757296 -3.624021 -0.368656 0
M  V30 7 C 0.820407 -2.367180 0.106896 0
M  V30 8 C 0.379691 -1.257302 -0.728349 0
M  V30 9 C -0.085126 -1.582348 -1.985357 0
M  V30 10 C -0.503408 -0.510060 -2.773358 0
M  V30 11 N -0.472840 0.783872 -2.370723 0
M  V30 12 C -0.014658 1.054735 -1.144112 0
M  V30 13 N 0.050773 2.405289 -0.639116 0
M  V30 14 C -1.162726 2.708708 0.008256 0
M  V30 15 O -2.062558 1.805523 0.042705 0
M  V30 16 C -1.473094 4.020861 0.661432 0
M  V30 17 C -2.855406 4.404192 0.918195 0
M  V30 18 C -2.100279 3.828456 2.066495 0
M  V30 19 C 0.423729 0.048514 -0.288651 0
M  V30 20 C 1.315763 -2.251838 1.388196 0
M  V30 21 N 1.711703 -3.303979 2.124617 0
M  V30 22 H 2.887152 -5.453713 4.536944 0
M  V30 23 H 1.763821 -5.280561 4.229116 0
M  V30 24 H 1.071573 -5.658550 -0.085792 0
M  V30 25 H -0.143726 -2.578210 -2.383984 0
M  V30 26 H -0.880585 -0.736020 -3.783782 0
M  V30 27 H 0.781901 3.152403 -0.661863 0
M  V30 28 H -0.710034 4.813291 0.642870 0
M  V30 29 H -3.729275 3.843380 0.504863 0
M  V30 30 H -3.088615 5.488678 1.027200 0
M  V30 31 H -1.707906 4.431472 2.894785 0
M  V30 32 H -2.420751 2.829060 2.368940 0
M  V30 33 H 0.782717 0.305228 0.683560 0
M  V30 34 H 1.388150 -1.272124 1.817572 0
M  V30 END ATOM
M  V30 BEGIN BOND
M  V30 1 1 1 2
M  V30 2 2 2 3
M  V30 3 1 2 4
M  V30 4 2 4 5
M  V30 5 1 5 6
M  V30 6 2 6 7
M  V30 7 1 7 8
M  V30 8 2 8 9
M  V30 9 1 9 10
M  V30 10 2 10 11
M  V30 11 1 11 12
M  V30 12 1 12 13
M  V30 13 1 13 14
M  V30 14 2 14 15
M  V30 15 1 14 16
M  V30 16 1 16 17
M  V30 17 1 17 18
M  V30 18 2 12 19
M  V30 19 1 7 20
M  V30 20 2 20 21
M  V30 21 1 21 4
M  V30 22 1 19 8
M  V30 23 1 18 16
M  V30 24 1 1 22
M  V30 25 1 1 23
M  V30 26 1 5 24
M  V30 27 1 9 25
M  V30 28 1 10 26
M  V30 29 1 13 27
M  V30 30 1 16 28
M  V30 31 1 17 29
M  V30 32 1 17 30
M  V30 33 1 18 31
M  V30 34 1 18 32
M  V30 35 1 19 33
M  V30 36 1 20 34
M  V30 END BOND
M  V30 END CTAB
M  END
>  <Dataset>  (247) 
ChEMBL_Kinases

>  <Ligand_Instance>  (247) 
nan

>  <PDB_ID>  (247) 
nan

>  <Standardized_SMILES>  (247) 
NC(=O)c1cnc(-c2ccnc(NC(=O)C3CC3)c2)cn1

>  <Name>  (247) 
nan

>  <Pocket>  (247) 
nan

>  <ATP_Site>  (247) 
nan

>  <Peripheral>  (247) 
nan

>  <Num_H_Atoms_ProtBoundConf>  (247) 
nan

>  <Num_Resolved_Atoms>  (247) 
nan

>  <Num_Not_Resolved_Atoms>  (247) 
nan

$$$$
CHEMBL3359889
     RDKit          3D

  0  0  0  0  0  0  0  0  0  0999 V3000
M  V30 BEGIN CTAB
M  V30 COUNTS 52 56 0 0 0
M  V30 BEGIN ATOM
M  V30 1 C 2.796962 -5.308265 -3.531901 0
M  V30 2 N 2.970915 -4.775912 -2.201851 0
M  V30 3 C 2.442752 -5.615074 -1.157624 0
M  V30 4 C 2.321600 -4.777488 0.100206 0
M  V30 5 N 3.048622 -3.523850 -0.068228 0
M  V30 6 C 2.570972 -2.203079 0.130277 0
M  V30 7 C 3.278849 -1.061059 -0.071179 0
M  V30 8 C 2.751269 0.185468 0.142265 0
M  V30 9 C 1.458857 0.370688 0.578462 0
M  V30 10 C 0.847173 1.672942 0.820812 0
M  V30 11 C 1.522788 2.857061 0.629916 0
M  V30 12 N 0.888964 4.035729 0.875366 0
M  V30 13 C -0.395324 4.048750 1.303853 0
M  V30 14 C -1.083846 2.870238 1.499179 0
M  V30 15 C -2.469152 2.801278 1.958456 0
M  V30 16 C -3.022507 1.545722 2.106074 0
M  V30 17 C -4.332692 1.367247 2.536886 0
M  V30 18 C -5.101241 2.478886 2.824910 0
M  V30 19 C -6.479482 2.313154 3.278740 0
M  V30 20 N -7.325558 3.312428 3.589383 0
M  V30 21 N -8.459026 2.694298 3.948700 0
M  V30 22 N -8.317844 1.387647 3.863639 0
M  V30 23 N -7.094426 1.128556 3.448940 0
M  V30 24 C -4.555072 3.738342 2.679769 0
M  V30 25 C -3.234610 3.910599 2.245347 0
M  V30 26 N -0.427189 1.749413 1.247815 0
M  V30 27 C 0.731194 -0.782350 0.786191 0
M  V30 28 C 1.275262 -2.043633 0.566826 0
M  V30 29 C 4.381911 -3.900207 -0.487179 0
M  V30 30 C 4.313305 -4.324176 -1.938795 0
M  V30 31 H 2.969310 -6.395006 -3.590966 0
M  V30 32 H 3.564259 -4.805186 -4.164214 0
M  V30 33 H 1.820906 -4.971166 -3.909578 0
M  V30 34 H 1.425488 -5.946324 -1.513223 0
M  V30 35 H 3.049374 -6.509588 -0.971509 0
M  V30 36 H 1.292024 -4.662340 0.435392 0
M  V30 37 H 2.831398 -5.356580 0.925651 0
M  V30 38 H 4.299895 -1.130165 -0.414376 0
M  V30 39 H 3.364145 1.039874 -0.036167 0
M  V30 40 H 2.547735 2.868287 0.288718 0
M  V30 41 H -0.893637 4.988525 1.496959 0
M  V30 42 H -2.481874 0.625456 1.899494 0
M  V30 43 H -4.775594 0.380146 2.655754 0
M  V30 44 H -6.720971 0.147341 3.296022 0
M  V30 45 H -5.186911 4.573473 2.914123 0
M  V30 46 H -2.821074 4.885384 2.135939 0
M  V30 47 H -0.302902 -0.636684 1.135388 0
M  V30 48 H 0.561633 -2.825908 0.781050 0
M  V30 49 H 4.827812 -4.692450 0.152247 0
M  V30 50 H 5.040611 -2.990308 -0.481646 0
M  V30 51 H 5.061981 -5.131309 -2.138711 0
M  V30 52 H 4.587310 -3.505368 -2.617912 0
M  V30 END ATOM
M  V30 BEGIN BOND
M  V30 1 1 1 2
M  V30 2 1 2 3
M  V30 3 1 3 4
M  V30 4 1 4 5
M  V30 5 1 5 6
M  V30 6 2 6 7
M  V30 7 1 7 8
M  V30 8 2 8 9
M  V30 9 1 9 10
M  V30 10 2 10 11
M  V30 11 1 11 12
M  V30 12 2 12 13
M  V30 13 1 13 14
M  V30 14 1 14 15
M  V30 15 2 15 16
M  V30 16 1 16 17
M  V30 17 2 17 18
M  V30 18 1 18 19
M  V30 19 2 19 20
M  V30 20 1 20 21
M  V30 21 2 21 22
M  V30 22 1 22 23
M  V30 23 1 18 24
M  V30 24 2 24 25
M  V30 25 2 14 26
M  V30 26 1 9 27
M  V30 27 2 27 28
M  V30 28 1 5 29
M  V30 29 1 29 30
M  V30 30 1 30 2
M  V30 31 1 28 6
M  V30 32 1 26 10
M  V30 33 1 25 15
M  V30 34 1 23 19
M  V30 35 1 1 31
M  V30 36 1 1 32
M  V30 37 1 1 33
M  V30 38 1 3 34
M  V30 39 1 3 35
M  V30 40 1 4 36
M  V30 41 1 4 37
M  V30 42 1 7 38
M  V30 43 1 8 39
M  V30 44 1 11 40
M  V30 45 1 13 41
M  V30 46 1 16 42
M  V30 47 1 17 43
M  V30 48 1 23 44
M  V30 49 1 24 45
M  V30 50 1 25 46
M  V30 51 1 27 47
M  V30 52 1 28 48
M  V30 53 1 29 49
M  V30 54 1 29 50
M  V30 55 1 30 51
M  V30 56 1 30 52
M  V30 END BOND
M  V30 END CTAB
M  END
>  <Dataset>  (248) 
ChEMBL_Kinases

>  <Ligand_Instance>  (248) 
nan

>  <PDB_ID>  (248) 
nan

>  <Standardized_SMILES>  (248) 
CN1CCN(c2ccc(-c3cncc(-c4ccc(-c5nnn[nH]5)cc4)n3)cc2)CC1

>  <Name>  (248) 
nan

>  <Pocket>  (248) 
nan

>  <ATP_Site>  (248) 
nan

>  <Peripheral>  (248) 
nan

>  <Num_H_Atoms_ProtBoundConf>  (248) 
nan

>  <Num_Resolved_Atoms>  (248) 
nan

>  <Num_Not_Resolved_Atoms>  (248) 
nan

$$$$
CHEMBL3410092
     RDKit          3D

  0  0  0  0  0  0  0  0  0  0999 V3000
M  V30 BEGIN CTAB
M  V30 COUNTS 43 46 0 0 0
M  V30 BEGIN ATOM
M  V30 1 N 2.520240 -6.075602 2.470636 0
M  V30 2 C 2.025825 -4.899061 3.052660 0
M  V30 3 O 1.955637 -4.852509 4.300573 0
M  V30 4 C 1.652301 -3.865611 2.094281 0
M  V30 5 S 1.759016 -3.945993 0.254024 0
M  V30 6 C 1.065914 -2.192462 0.118300 0
M  V30 7 C 0.928267 -1.699552 -1.304650 0
M  V30 8 C 1.263127 -2.423629 -2.417870 0
M  V30 9 C 1.057415 -1.780537 -3.609817 0
M  V30 10 N 0.571948 -0.550520 -3.699667 0
M  V30 11 C 0.238242 0.175712 -2.634671 0
M  V30 12 N -0.266556 1.471396 -2.873775 0
M  V30 13 C -0.698910 2.459313 -1.962625 0
M  V30 14 O -0.656198 2.217812 -0.732365 0
M  V30 15 C -1.219034 3.804608 -2.304050 0
M  V30 16 C -2.278351 4.410415 -1.471036 0
M  V30 17 C -0.870069 4.961423 -1.411033 0
M  V30 18 C 0.426755 -0.426422 -1.423050 0
M  V30 19 N 0.907847 -1.905149 1.190602 0
M  V30 20 C 1.142338 -2.605196 2.285094 0
M  V30 21 O 0.926543 -2.196725 3.595175 0
M  V30 22 C 0.416533 -0.950632 3.981318 0
M  V30 23 C -0.644851 -1.029759 5.062654 0
M  V30 24 C 0.516392 -1.167618 6.048230 0
M  V30 25 C 1.297717 -0.315640 5.066302 0
M  V30 26 H 2.062920 -6.953396 2.110653 0
M  V30 27 H 2.575838 -7.004139 2.040734 0
M  V30 28 H 1.652886 -3.417449 -2.290894 0
M  V30 29 H 1.302990 -2.300722 -4.526406 0
M  V30 30 H -0.369637 1.838367 -3.848700 0
M  V30 31 H -1.270890 4.052869 -3.389512 0
M  V30 32 H -2.659294 3.839522 -0.607382 0
M  V30 33 H -3.015458 5.096424 -1.930119 0
M  V30 34 H -0.689650 5.970013 -1.835159 0
M  V30 35 H -0.203418 4.696420 -0.564964 0
M  V30 36 H 0.171424 0.121331 -0.536722 0
M  V30 37 H 0.181012 -0.265375 3.147981 0
M  V30 38 H -1.326152 -1.874701 5.001491 0
M  V30 39 H -1.089580 -0.022759 5.223447 0
M  V30 40 H 0.333753 -0.730384 7.038819 0
M  V30 41 H 0.892485 -2.224912 6.048214 0
M  V30 42 H 1.025542 0.741995 5.157868 0
M  V30 43 H 2.362107 -0.560548 4.974204 0
M  V30 END ATOM
M  V30 BEGIN BOND
M  V30 1 1 1 2
M  V30 2 2 2 3
M  V30 3 1 2 4
M  V30 4 1 4 5
M  V30 5 1 5 6
M  V30 6 1 6 7
M  V30 7 2 7 8
M  V30 8 1 8 9
M  V30 9 2 9 10
M  V30 10 1 10 11
M  V30 11 1 11 12
M  V30 12 1 12 13
M  V30 13 2 13 14
M  V30 14 1 13 15
M  V30 15 1 15 16
M  V30 16 1 16 17
M  V30 17 2 11 18
M  V30 18 2 6 19
M  V30 19 1 19 20
M  V30 20 1 20 21
M  V30 21 1 21 22
M  V30 22 1 22 23
M  V30 23 1 23 24
M  V30 24 1 24 25
M  V30 25 2 20 4
M  V30 26 1 25 22
M  V30 27 1 18 7
M  V30 28 1 17 15
M  V30 29 1 1 26
M  V30 30 1 1 27
M  V30 31 1 8 28
M  V30 32 1 9 29
M  V30 33 1 12 30
M  V30 34 1 15 31
M  V30 35 1 16 32
M  V30 36 1 16 33
M  V30 37 1 17 34
M  V30 38 1 17 35
M  V30 39 1 18 36
M  V30 40 1 22 37
M  V30 41 1 23 38
M  V30 42 1 23 39
M  V30 43 1 24 40
M  V30 44 1 24 41
M  V30 45 1 25 42
M  V30 46 1 25 43
M  V30 END BOND
M  V30 END CTAB
M  END
>  <Dataset>  (249) 
ChEMBL_Kinases

>  <Ligand_Instance>  (249) 
nan

>  <PDB_ID>  (249) 
nan

>  <Standardized_SMILES>  (249) 
NC(=O)c1sc(-c2ccnc(NC(=O)C3CC3)c2)nc1OC1CCC1

>  <Name>  (249) 
nan

>  <Pocket>  (249) 
nan

>  <ATP_Site>  (249) 
nan

>  <Peripheral>  (249) 
nan

>  <Num_H_Atoms_ProtBoundConf>  (249) 
nan

>  <Num_Resolved_Atoms>  (249) 
nan

>  <Num_Not_Resolved_Atoms>  (249) 
nan

$$$$
CHEMBL3410093
     RDKit          3D

  0  0  0  0  0  0  0  0  0  0999 V3000
M  V30 BEGIN CTAB
M  V30 COUNTS 36 38 0 0 0
M  V30 BEGIN ATOM
M  V30 1 C -0.252163 -6.124275 3.856778 0
M  V30 2 O 0.244117 -5.668565 2.646519 0
M  V30 3 C 0.398723 -4.473041 2.155868 0
M  V30 4 S 1.123365 -4.101602 0.420520 0
M  V30 5 C 0.969666 -2.389360 0.595396 0
M  V30 6 C 1.385423 -1.367617 -0.487357 0
M  V30 7 C 1.889784 -1.955046 -1.603671 0
M  V30 8 C 2.265068 -1.031166 -2.581139 0
M  V30 9 N 2.129679 0.312780 -2.409482 0
M  V30 10 C 1.609122 0.796216 -1.244070 0
M  V30 11 N 1.457037 2.218699 -1.041801 0
M  V30 12 C 0.176494 2.661795 -1.495562 0
M  V30 13 O -0.646557 1.839207 -1.994307 0
M  V30 14 C -0.244115 4.076120 -1.407324 0
M  V30 15 C -1.727917 4.344916 -0.994283 0
M  V30 16 C -1.222968 4.672621 -2.339665 0
M  V30 17 C 1.206909 -0.056821 -0.211255 0
M  V30 18 N 0.487598 -2.156427 1.698056 0
M  V30 19 C 0.188541 -3.170455 2.507074 0
M  V30 20 C -0.377677 -2.801460 3.791965 0
M  V30 21 N -0.674249 -1.530092 4.348507 0
M  V30 22 O -0.790522 -3.371014 4.819390 0
M  V30 23 H -1.327843 -5.934660 4.044916 0
M  V30 24 H -0.165131 -7.255260 3.862324 0
M  V30 25 H 0.411511 -5.822050 4.703755 0
M  V30 26 H 2.018696 -2.992521 -1.793251 0
M  V30 27 H 2.685814 -1.365229 -3.529207 0
M  V30 28 H 2.121002 2.922424 -0.631961 0
M  V30 29 H 0.499667 4.784866 -0.963018 0
M  V30 30 H -2.277697 3.420894 -0.755812 0
M  V30 31 H -1.870829 5.137166 -0.255156 0
M  V30 32 H -1.481383 4.051835 -3.226269 0
M  V30 33 H -1.146840 5.741171 -2.606167 0
M  V30 34 H 0.798180 0.326107 0.703438 0
M  V30 35 H -1.570975 -0.971254 4.289961 0
M  V30 36 H -0.075864 -0.895772 4.921272 0
M  V30 END ATOM
M  V30 BEGIN BOND
M  V30 1 1 1 2
M  V30 2 1 2 3
M  V30 3 1 3 4
M  V30 4 1 4 5
M  V30 5 1 5 6
M  V30 6 2 6 7
M  V30 7 1 7 8
M  V30 8 2 8 9
M  V30 9 1 9 10
M  V30 10 1 10 11
M  V30 11 1 11 12
M  V30 12 2 12 13
M  V30 13 1 12 14
M  V30 14 1 14 15
M  V30 15 1 15 16
M  V30 16 2 10 17
M  V30 17 2 5 18
M  V30 18 1 18 19
M  V30 19 1 19 20
M  V30 20 1 20 21
M  V30 21 2 20 22
M  V30 22 2 19 3
M  V30 23 1 17 6
M  V30 24 1 16 14
M  V30 25 1 1 23
M  V30 26 1 1 24
M  V30 27 1 1 25
M  V30 28 1 7 26
M  V30 29 1 8 27
M  V30 30 1 11 28
M  V30 31 1 14 29
M  V30 32 1 15 30
M  V30 33 1 15 31
M  V30 34 1 16 32
M  V30 35 1 16 33
M  V30 36 1 17 34
M  V30 37 1 21 35
M  V30 38 1 21 36
M  V30 END BOND
M  V30 END CTAB
M  END
>  <Dataset>  (250) 
ChEMBL_Kinases

>  <Ligand_Instance>  (250) 
nan

>  <PDB_ID>  (250) 
nan

>  <Standardized_SMILES>  (250) 
COc1sc(-c2ccnc(NC(=O)C3CC3)c2)nc1C(N)=O

>  <Name>  (250) 
nan

>  <Pocket>  (250) 
nan

>  <ATP_Site>  (250) 
nan

>  <Peripheral>  (250) 
nan

>  <Num_H_Atoms_ProtBoundConf>  (250) 
nan

>  <Num_Resolved_Atoms>  (250) 
nan

>  <Num_Not_Resolved_Atoms>  (250) 
nan

$$$$
CHEMBL3410094
     RDKit          3D

  0  0  0  0  0  0  0  0  0  0999 V3000
M  V30 BEGIN CTAB
M  V30 COUNTS 40 43 0 0 0
M  V30 BEGIN ATOM
M  V30 1 O -1.471584 -4.488416 4.444443 0
M  V30 2 C -1.201322 -4.571721 3.206718 0
M  V30 3 N -0.993592 -5.824114 2.568201 0
M  V30 4 C -1.226634 -5.978257 1.154242 0
M  V30 5 C -0.576353 -4.856861 0.373273 0
M  V30 6 C -0.798566 -3.581885 1.067337 0
M  V30 7 C -0.692804 -2.440661 0.270638 0
M  V30 8 C -0.873366 -1.151206 0.770681 0
M  V30 9 C -0.741612 0.001988 -0.147532 0
M  V30 10 C -1.081950 -0.075703 -1.481692 0
M  V30 11 C -0.933160 1.042584 -2.293469 0
M  V30 12 N -0.454211 2.203555 -1.769466 0
M  V30 13 C -0.122491 2.271940 -0.459849 0
M  V30 14 N 0.390568 3.448075 0.182668 0
M  V30 15 C 1.816689 3.392143 0.069049 0
M  V30 16 O 2.329556 2.388658 -0.534611 0
M  V30 17 C 2.785010 4.411971 0.596700 0
M  V30 18 C 4.091820 4.504408 -0.054257 0
M  V30 19 C 4.030641 3.750551 1.255064 0
M  V30 20 C -0.253178 1.178271 0.396951 0
M  V30 21 C -1.167612 -1.021578 2.109292 0
M  V30 22 C -1.282162 -2.124138 2.936746 0
M  V30 23 C -1.092822 -3.359559 2.381581 0
M  V30 24 H -0.666535 -6.629786 3.157356 0
M  V30 25 H -2.319573 -5.934336 0.944235 0
M  V30 26 H -0.828207 -6.966705 0.832429 0
M  V30 27 H 0.529501 -5.080812 0.327570 0
M  V30 28 H -1.027333 -4.881449 -0.640912 0
M  V30 29 H -0.462414 -2.508055 -0.795062 0
M  V30 30 H -1.457526 -1.012757 -1.857450 0
M  V30 31 H -1.196679 0.992283 -3.339197 0
M  V30 32 H 0.018931 4.295171 0.688172 0
M  V30 33 H 2.392398 5.290413 1.117775 0
M  V30 34 H 4.687123 5.441436 -0.019215 0
M  V30 35 H 4.313653 3.913990 -0.985780 0
M  V30 36 H 4.121515 2.651863 1.183902 0
M  V30 37 H 4.427296 4.243507 2.176161 0
M  V30 38 H 0.004669 1.213566 1.435633 0
M  V30 39 H -1.301111 -0.000936 2.457447 0
M  V30 40 H -1.513093 -1.995883 3.980053 0
M  V30 END ATOM
M  V30 BEGIN BOND
M  V30 1 2 1 2
M  V30 2 1 2 3
M  V30 3 1 3 4
M  V30 4 1 4 5
M  V30 5 1 5 6
M  V30 6 2 6 7
M  V30 7 1 7 8
M  V30 8 1 8 9
M  V30 9 2 9 10
M  V30 10 1 10 11
M  V30 11 2 11 12
M  V30 12 1 12 13
M  V30 13 1 13 14
M  V30 14 1 14 15
M  V30 15 2 15 16
M  V30 16 1 15 17
M  V30 17 1 17 18
M  V30 18 1 18 19
M  V30 19 2 13 20
M  V30 20 2 8 21
M  V30 21 1 21 22
M  V30 22 2 22 23
M  V30 23 1 23 2
M  V30 24 1 23 6
M  V30 25 1 20 9
M  V30 26 1 19 17
M  V30 27 1 3 24
M  V30 28 1 4 25
M  V30 29 1 4 26
M  V30 30 1 5 27
M  V30 31 1 5 28
M  V30 32 1 7 29
M  V30 33 1 10 30
M  V30 34 1 11 31
M  V30 35 1 14 32
M  V30 36 1 17 33
M  V30 37 1 18 34
M  V30 38 1 18 35
M  V30 39 1 19 36
M  V30 40 1 19 37
M  V30 41 1 20 38
M  V30 42 1 21 39
M  V30 43 1 22 40
M  V30 END BOND
M  V30 END CTAB
M  END
>  <Dataset>  (251) 
ChEMBL_Kinases

>  <Ligand_Instance>  (251) 
nan

>  <PDB_ID>  (251) 
nan

>  <Standardized_SMILES>  (251) 
O=C1NCCc2cc(-c3ccnc(NC(=O)C4CC4)c3)ccc21

>  <Name>  (251) 
nan

>  <Pocket>  (251) 
nan

>  <ATP_Site>  (251) 
nan

>  <Peripheral>  (251) 
nan

>  <Num_H_Atoms_ProtBoundConf>  (251) 
nan

>  <Num_Resolved_Atoms>  (251) 
nan

>  <Num_Not_Resolved_Atoms>  (251) 
nan

$$$$
CHEMBL3410095
     RDKit          3D

  0  0  0  0  0  0  0  0  0  0999 V3000
M  V30 BEGIN CTAB
M  V30 COUNTS 37 40 0 0 0
M  V30 BEGIN ATOM
M  V30 1 O 0.465968 -5.528547 4.850438 0
M  V30 2 C 0.633618 -5.228760 3.624303 0
M  V30 3 N 0.642565 -6.219279 2.581892 0
M  V30 4 C 0.850793 -5.620057 1.269057 0
M  V30 5 C 0.970324 -4.173573 1.601576 0
M  V30 6 C 1.177925 -3.054439 0.814705 0
M  V30 7 C 1.264635 -1.752508 1.299147 0
M  V30 8 C 1.486826 -0.667566 0.348461 0
M  V30 9 C 2.231303 -0.896796 -0.797821 0
M  V30 10 C 2.480153 0.099267 -1.747489 0
M  V30 11 N 1.954975 1.325914 -1.501381 0
M  V30 12 C 1.228379 1.572938 -0.394950 0
M  V30 13 N 0.653900 2.847375 -0.090191 0
M  V30 14 C -0.643753 2.859867 -0.669113 0
M  V30 15 O -0.997066 1.804647 -1.294898 0
M  V30 16 C -1.661491 3.970224 -0.636327 0
M  V30 17 C -3.134988 3.488756 -0.520599 0
M  V30 18 C -2.603002 4.046249 -1.781599 0
M  V30 19 C 0.967405 0.606845 0.559592 0
M  V30 20 C 1.128790 -1.606926 2.669635 0
M  V30 21 C 0.920717 -2.690194 3.496033 0
M  V30 22 C 0.845696 -3.941070 2.955433 0
M  V30 23 H 0.512573 -7.261032 2.752670 0
M  V30 24 H 1.833856 -5.963147 0.852840 0
M  V30 25 H 0.015761 -5.825331 0.586915 0
M  V30 26 H 1.276993 -3.225810 -0.247688 0
M  V30 27 H 2.639074 -1.880380 -0.972739 0
M  V30 28 H 3.064204 -0.100102 -2.636324 0
M  V30 29 H 0.876743 3.754447 0.411120 0
M  V30 30 H -1.403835 4.891142 -0.113385 0
M  V30 31 H -3.733000 4.068275 0.203682 0
M  V30 32 H -3.260447 2.395785 -0.386418 0
M  V30 33 H -2.438678 3.297592 -2.601436 0
M  V30 34 H -3.063757 5.002341 -2.091684 0
M  V30 35 H 0.396477 0.763603 1.448673 0
M  V30 36 H 1.198135 -0.591679 3.031712 0
M  V30 37 H 0.819875 -2.524496 4.569128 0
M  V30 END ATOM
M  V30 BEGIN BOND
M  V30 1 2 1 2
M  V30 2 1 2 3
M  V30 3 1 3 4
M  V30 4 1 4 5
M  V30 5 2 5 6
M  V30 6 1 6 7
M  V30 7 1 7 8
M  V30 8 2 8 9
M  V30 9 1 9 10
M  V30 10 2 10 11
M  V30 11 1 11 12
M  V30 12 1 12 13
M  V30 13 1 13 14
M  V30 14 2 14 15
M  V30 15 1 14 16
M  V30 16 1 16 17
M  V30 17 1 17 18
M  V30 18 2 12 19
M  V30 19 2 7 20
M  V30 20 1 20 21
M  V30 21 2 21 22
M  V30 22 1 22 2
M  V30 23 1 22 5
M  V30 24 1 19 8
M  V30 25 1 18 16
M  V30 26 1 3 23
M  V30 27 1 4 24
M  V30 28 1 4 25
M  V30 29 1 6 26
M  V30 30 1 9 27
M  V30 31 1 10 28
M  V30 32 1 13 29
M  V30 33 1 16 30
M  V30 34 1 17 31
M  V30 35 1 17 32
M  V30 36 1 18 33
M  V30 37 1 18 34
M  V30 38 1 19 35
M  V30 39 1 20 36
M  V30 40 1 21 37
M  V30 END BOND
M  V30 END CTAB
M  END
>  <Dataset>  (252) 
ChEMBL_Kinases

>  <Ligand_Instance>  (252) 
nan

>  <PDB_ID>  (252) 
nan

>  <Standardized_SMILES>  (252) 
O=C1NCc2cc(-c3ccnc(NC(=O)C4CC4)c3)ccc21

>  <Name>  (252) 
nan

>  <Pocket>  (252) 
nan

>  <ATP_Site>  (252) 
nan

>  <Peripheral>  (252) 
nan

>  <Num_H_Atoms_ProtBoundConf>  (252) 
nan

>  <Num_Resolved_Atoms>  (252) 
nan

>  <Num_Not_Resolved_Atoms>  (252) 
nan

$$$$
CHEMBL3410096
     RDKit          3D

  0  0  0  0  0  0  0  0  0  0999 V3000
M  V30 BEGIN CTAB
M  V30 COUNTS 43 46 0 0 0
M  V30 BEGIN ATOM
M  V30 1 O 3.812179 -4.004139 3.017566 0
M  V30 2 C 3.171189 -4.177157 1.926625 0
M  V30 3 N 3.062315 -5.456829 1.305202 0
M  V30 4 C 2.517527 -5.686586 -0.040599 0
M  V30 5 C 3.117797 -4.700710 -1.005976 0
M  V30 6 C 2.333437 -3.430583 -1.150382 0
M  V30 7 C 2.267469 -2.656355 0.116611 0
M  V30 8 C 1.738193 -1.430590 -0.233075 0
M  V30 9 C 1.541660 -0.449416 0.745161 0
M  V30 10 C 0.978899 0.846819 0.365962 0
M  V30 11 C 1.193624 1.433098 -0.863693 0
M  V30 12 C 0.672433 2.652902 -1.241213 0
M  V30 13 N -0.102362 3.313859 -0.336174 0
M  V30 14 C -0.331797 2.769723 0.872968 0
M  V30 15 N -1.146140 3.420135 1.877480 0
M  V30 16 C -2.476155 2.956524 1.648026 0
M  V30 17 O -2.634569 2.135835 0.682747 0
M  V30 18 C -3.722873 3.320219 2.411082 0
M  V30 19 C -4.994763 3.249087 1.669247 0
M  V30 20 C -4.687762 2.115043 2.628469 0
M  V30 21 C 0.188885 1.540902 1.262922 0
M  V30 22 C 1.878622 -0.703529 2.076092 0
M  V30 23 C 2.408753 -1.932599 2.423023 0
M  V30 24 C 2.600585 -2.896311 1.455953 0
M  V30 25 H 3.424711 -6.197624 1.944258 0
M  V30 26 H 1.402756 -5.625932 -0.005951 0
M  V30 27 H 2.763934 -6.735476 -0.296392 0
M  V30 28 H 3.174443 -5.137795 -2.046107 0
M  V30 29 H 4.143390 -4.428268 -0.638882 0
M  V30 30 H 1.302294 -3.656416 -1.534024 0
M  V30 31 H 2.909134 -2.797807 -1.879196 0
M  V30 32 H 1.446655 -1.147534 -1.248902 0
M  V30 33 H 1.812687 0.911242 -1.594571 0
M  V30 34 H 0.851305 3.098050 -2.210113 0
M  V30 35 H -1.084524 4.094178 2.688143 0
M  V30 36 H -3.623635 4.022149 3.244323 0
M  V30 37 H -5.871308 3.864818 1.964886 0
M  V30 38 H -4.931251 2.995230 0.571252 0
M  V30 39 H -4.360389 1.141899 2.203944 0
M  V30 40 H -5.210208 2.073711 3.604627 0
M  V30 41 H -0.004188 1.117742 2.236060 0
M  V30 42 H 1.740578 0.030828 2.856767 0
M  V30 43 H 2.701436 -2.231718 3.414647 0
M  V30 END ATOM
M  V30 BEGIN BOND
M  V30 1 2 1 2
M  V30 2 1 2 3
M  V30 3 1 3 4
M  V30 4 1 4 5
M  V30 5 1 5 6
M  V30 6 1 6 7
M  V30 7 2 7 8
M  V30 8 1 8 9
M  V30 9 1 9 10
M  V30 10 2 10 11
M  V30 11 1 11 12
M  V30 12 2 12 13
M  V30 13 1 13 14
M  V30 14 1 14 15
M  V30 15 1 15 16
M  V30 16 2 16 17
M  V30 17 1 16 18
M  V30 18 1 18 19
M  V30 19 1 19 20
M  V30 20 2 14 21
M  V30 21 2 9 22
M  V30 22 1 22 23
M  V30 23 2 23 24
M  V30 24 1 24 2
M  V30 25 1 24 7
M  V30 26 1 21 10
M  V30 27 1 20 18
M  V30 28 1 3 25
M  V30 29 1 4 26
M  V30 30 1 4 27
M  V30 31 1 5 28
M  V30 32 1 5 29
M  V30 33 1 6 30
M  V30 34 1 6 31
M  V30 35 1 8 32
M  V30 36 1 11 33
M  V30 37 1 12 34
M  V30 38 1 15 35
M  V30 39 1 18 36
M  V30 40 1 19 37
M  V30 41 1 19 38
M  V30 42 1 20 39
M  V30 43 1 20 40
M  V30 44 1 21 41
M  V30 45 1 22 42
M  V30 46 1 23 43
M  V30 END BOND
M  V30 END CTAB
M  END
>  <Dataset>  (253) 
ChEMBL_Kinases

>  <Ligand_Instance>  (253) 
nan

>  <PDB_ID>  (253) 
nan

>  <Standardized_SMILES>  (253) 
O=C1NCCCc2cc(-c3ccnc(NC(=O)C4CC4)c3)ccc21

>  <Name>  (253) 
nan

>  <Pocket>  (253) 
nan

>  <ATP_Site>  (253) 
nan

>  <Peripheral>  (253) 
nan

>  <Num_H_Atoms_ProtBoundConf>  (253) 
nan

>  <Num_Resolved_Atoms>  (253) 
nan

>  <Num_Not_Resolved_Atoms>  (253) 
nan

$$$$
CHEMBL3410097
     RDKit          3D

  0  0  0  0  0  0  0  0  0  0999 V3000
M  V30 BEGIN CTAB
M  V30 COUNTS 41 44 0 0 0
M  V30 BEGIN ATOM
M  V30 1 O 4.240061 -4.977686 0.304519 0
M  V30 2 C 3.248957 -4.642518 0.997385 0
M  V30 3 N 2.727641 -5.527145 2.010677 0
M  V30 4 C 1.450164 -5.424026 2.685628 0
M  V30 5 C 1.253594 -4.125210 3.400822 0
M  V30 6 O 1.168352 -2.992849 2.580866 0
M  V30 7 C 1.771843 -2.589945 1.400047 0
M  V30 8 C 1.389769 -1.358835 0.930872 0
M  V30 9 C 1.883485 -0.792655 -0.228672 0
M  V30 10 C 1.395168 0.528257 -0.625924 0
M  V30 11 C 2.188789 1.445519 -1.326674 0
M  V30 12 C 1.658712 2.690327 -1.676249 0
M  V30 13 N 0.383401 3.032091 -1.349479 0
M  V30 14 C -0.418482 2.180253 -0.674530 0
M  V30 15 N -1.751505 2.409103 -0.276123 0
M  V30 16 C -1.847733 2.998545 1.001865 0
M  V30 17 O -1.114697 3.395755 1.918028 0
M  V30 18 C -3.098257 3.357175 1.696942 0
M  V30 19 C -4.171426 2.226546 1.747057 0
M  V30 20 C -4.391648 3.510772 1.033354 0
M  V30 21 C 0.114435 0.950027 -0.332421 0
M  V30 22 C 2.816639 -1.519420 -0.949454 0
M  V30 23 C 3.202433 -2.758033 -0.479634 0
M  V30 24 C 2.703292 -3.314030 0.679384 0
M  V30 25 H 3.401253 -6.308179 2.233320 0
M  V30 26 H 0.590082 -5.588475 1.982816 0
M  V30 27 H 1.426445 -6.217031 3.460215 0
M  V30 28 H 1.989146 -4.022253 4.214088 0
M  V30 29 H 0.260213 -4.221111 3.923753 0
M  V30 30 H 0.659502 -0.868076 1.558753 0
M  V30 31 H 3.211803 1.162141 -1.584712 0
M  V30 32 H 2.258031 3.401872 -2.212705 0
M  V30 33 H -2.652113 2.213241 -0.771853 0
M  V30 34 H -2.932107 3.811638 2.692634 0
M  V30 35 H -3.932814 1.334454 1.131059 0
M  V30 36 H -4.620681 1.992290 2.720581 0
M  V30 37 H -5.134566 4.202221 1.508586 0
M  V30 38 H -4.455421 3.500953 -0.064735 0
M  V30 39 H -0.472350 0.223505 0.207677 0
M  V30 40 H 3.210514 -1.086165 -1.857705 0
M  V30 41 H 3.942913 -3.329094 -1.054971 0
M  V30 END ATOM
M  V30 BEGIN BOND
M  V30 1 2 1 2
M  V30 2 1 2 3
M  V30 3 1 3 4
M  V30 4 1 4 5
M  V30 5 1 5 6
M  V30 6 1 6 7
M  V30 7 2 7 8
M  V30 8 1 8 9
M  V30 9 1 9 10
M  V30 10 2 10 11
M  V30 11 1 11 12
M  V30 12 2 12 13
M  V30 13 1 13 14
M  V30 14 1 14 15
M  V30 15 1 15 16
M  V30 16 2 16 17
M  V30 17 1 16 18
M  V30 18 1 18 19
M  V30 19 1 19 20
M  V30 20 2 14 21
M  V30 21 2 9 22
M  V30 22 1 22 23
M  V30 23 2 23 24
M  V30 24 1 24 2
M  V30 25 1 24 7
M  V30 26 1 21 10
M  V30 27 1 20 18
M  V30 28 1 3 25
M  V30 29 1 4 26
M  V30 30 1 4 27
M  V30 31 1 5 28
M  V30 32 1 5 29
M  V30 33 1 8 30
M  V30 34 1 11 31
M  V30 35 1 12 32
M  V30 36 1 15 33
M  V30 37 1 18 34
M  V30 38 1 19 35
M  V30 39 1 19 36
M  V30 40 1 20 37
M  V30 41 1 20 38
M  V30 42 1 21 39
M  V30 43 1 22 40
M  V30 44 1 23 41
M  V30 END BOND
M  V30 END CTAB
M  END
>  <Dataset>  (254) 
ChEMBL_Kinases

>  <Ligand_Instance>  (254) 
nan

>  <PDB_ID>  (254) 
nan

>  <Standardized_SMILES>  (254) 
O=C1NCCOc2cc(-c3ccnc(NC(=O)C4CC4)c3)ccc21

>  <Name>  (254) 
nan

>  <Pocket>  (254) 
nan

>  <ATP_Site>  (254) 
nan

>  <Peripheral>  (254) 
nan

>  <Num_H_Atoms_ProtBoundConf>  (254) 
nan

>  <Num_Resolved_Atoms>  (254) 
nan

>  <Num_Not_Resolved_Atoms>  (254) 
nan

$$$$
CHEMBL3410098
     RDKit          3D

  0  0  0  0  0  0  0  0  0  0999 V3000
M  V30 BEGIN CTAB
M  V30 COUNTS 43 46 0 0 0
M  V30 BEGIN ATOM
M  V30 1 O 2.579725 -6.600369 2.875177 0
M  V30 2 C 2.074951 -5.870123 1.961951 0
M  V30 3 C 1.147002 -6.375482 0.888109 0
M  V30 4 C 1.616279 -5.793438 -0.419376 0
M  V30 5 C 0.889305 -4.526864 -0.723040 0
M  V30 6 C 1.262396 -3.434824 0.212172 0
M  V30 7 C 0.763872 -2.273682 -0.344517 0
M  V30 8 C 0.944755 -1.045318 0.296123 0
M  V30 9 C 0.424562 0.205935 -0.275534 0
M  V30 10 C 0.328441 0.410078 -1.638190 0
M  V30 11 C -0.163841 1.591138 -2.171850 0
M  V30 12 N -0.567081 2.585479 -1.327984 0
M  V30 13 C -0.465753 2.367949 0.007453 0
M  V30 14 N -0.874672 3.373522 0.926821 0
M  V30 15 C -0.175870 4.454058 1.533022 0
M  V30 16 O 1.040518 4.626464 1.258944 0
M  V30 17 C -0.991138 5.277294 2.447280 0
M  V30 18 C -1.988776 4.611381 3.365996 0
M  V30 19 C -2.436093 5.486302 2.221956 0
M  V30 20 C 0.009250 1.229945 0.585010 0
M  V30 21 C 1.633406 -0.997021 1.504589 0
M  V30 22 C 2.136782 -2.151631 2.071306 0
M  V30 23 C 1.950825 -3.360356 1.426935 0
M  V30 24 N 2.513181 -4.503323 2.099466 0
M  V30 25 H 0.107494 -6.005360 1.064174 0
M  V30 26 H 1.202241 -7.478727 0.874121 0
M  V30 27 H 1.392960 -6.545852 -1.210378 0
M  V30 28 H 2.705949 -5.600841 -0.458878 0
M  V30 29 H -0.218973 -4.708710 -0.608196 0
M  V30 30 H 1.099396 -4.182792 -1.759199 0
M  V30 31 H 0.218134 -2.201196 -1.273424 0
M  V30 32 H 0.659581 -0.405438 -2.273526 0
M  V30 33 H -0.187175 1.624852 -3.252437 0
M  V30 34 H -1.892271 3.108684 1.061906 0
M  V30 35 H -0.454345 6.126669 2.927957 0
M  V30 36 H -2.145691 3.515087 3.332692 0
M  V30 37 H -2.178760 5.024019 4.381330 0
M  V30 38 H -3.001077 4.979781 1.410867 0
M  V30 39 H -2.864862 6.495059 2.451049 0
M  V30 40 H 0.079700 1.081007 1.648466 0
M  V30 41 H 1.805028 -0.077376 2.047877 0
M  V30 42 H 2.687493 -2.191240 3.016751 0
M  V30 43 H 3.308120 -4.224121 2.725819 0
M  V30 END ATOM
M  V30 BEGIN BOND
M  V30 1 2 1 2
M  V30 2 1 2 3
M  V30 3 1 3 4
M  V30 4 1 4 5
M  V30 5 1 5 6
M  V30 6 2 6 7
M  V30 7 1 7 8
M  V30 8 1 8 9
M  V30 9 2 9 10
M  V30 10 1 10 11
M  V30 11 2 11 12
M  V30 12 1 12 13
M  V30 13 1 13 14
M  V30 14 1 14 15
M  V30 15 2 15 16
M  V30 16 1 15 17
M  V30 17 1 17 18
M  V30 18 1 18 19
M  V30 19 2 13 20
M  V30 20 2 8 21
M  V30 21 1 21 22
M  V30 22 2 22 23
M  V30 23 1 23 24
M  V30 24 1 24 2
M  V30 25 1 23 6
M  V30 26 1 20 9
M  V30 27 1 19 17
M  V30 28 1 3 25
M  V30 29 1 3 26
M  V30 30 1 4 27
M  V30 31 1 4 28
M  V30 32 1 5 29
M  V30 33 1 5 30
M  V30 34 1 7 31
M  V30 35 1 10 32
M  V30 36 1 11 33
M  V30 37 1 14 34
M  V30 38 1 17 35
M  V30 39 1 18 36
M  V30 40 1 18 37
M  V30 41 1 19 38
M  V30 42 1 19 39
M  V30 43 1 20 40
M  V30 44 1 21 41
M  V30 45 1 22 42
M  V30 46 1 24 43
M  V30 END BOND
M  V30 END CTAB
M  END
>  <Dataset>  (255) 
ChEMBL_Kinases

>  <Ligand_Instance>  (255) 
nan

>  <PDB_ID>  (255) 
nan

>  <Standardized_SMILES>  (255) 
O=C1CCCc2cc(-c3ccnc(NC(=O)C4CC4)c3)ccc2N1

>  <Name>  (255) 
nan

>  <Pocket>  (255) 
nan

>  <ATP_Site>  (255) 
nan

>  <Peripheral>  (255) 
nan

>  <Num_H_Atoms_ProtBoundConf>  (255) 
nan

>  <Num_Resolved_Atoms>  (255) 
nan

>  <Num_Not_Resolved_Atoms>  (255) 
nan

$$$$
CHEMBL3410108
     RDKit          3D

  0  0  0  0  0  0  0  0  0  0999 V3000
M  V30 BEGIN CTAB
M  V30 COUNTS 36 38 0 0 0
M  V30 BEGIN ATOM
M  V30 1 C -0.236872 -2.545956 2.152777 0
M  V30 2 N 1.069428 -2.740275 1.572846 0
M  V30 3 N 1.651734 -3.942860 1.489896 0
M  V30 4 C 2.864556 -3.801750 0.900909 0
M  V30 5 C 3.868084 -4.832099 0.594005 0
M  V30 6 N 3.549027 -6.174011 0.954122 0
M  V30 7 O 4.975986 -4.564064 0.034146 0
M  V30 8 C 3.068236 -2.456060 0.594031 0
M  V30 9 C 1.914594 -1.815814 1.032446 0
M  V30 10 C 1.635251 -0.383517 0.937625 0
M  V30 11 C 2.626450 0.513454 1.287530 0
M  V30 12 C 2.270772 1.841645 1.165674 0
M  V30 13 N 1.066703 2.261944 0.744014 0
M  V30 14 C 0.089151 1.405283 0.398993 0
M  V30 15 N -1.148269 1.941960 -0.034094 0
M  V30 16 C -2.322017 1.272894 -0.447536 0
M  V30 17 O -2.338048 0.028704 -0.455955 0
M  V30 18 C -3.557755 1.932921 -0.879753 0
M  V30 19 C -4.015135 3.225378 -0.294398 0
M  V30 20 C -3.512073 3.189738 -1.685010 0
M  V30 21 C 0.411230 0.088976 0.509080 0
M  V30 22 H -1.059492 -2.745837 1.441707 0
M  V30 23 H -0.276009 -3.181438 3.069804 0
M  V30 24 H -0.398936 -1.500963 2.507538 0
M  V30 25 H 2.733010 -6.748175 0.646139 0
M  V30 26 H 3.928510 -6.949715 1.545752 0
M  V30 27 H 3.939601 -2.026182 0.119185 0
M  V30 28 H 3.605809 0.211285 1.630579 0
M  V30 29 H 2.971049 2.626644 1.413215 0
M  V30 30 H -1.272232 2.982060 -0.075261 0
M  V30 31 H -4.389365 1.258562 -1.173079 0
M  V30 32 H -3.422165 3.801641 0.429161 0
M  V30 33 H -5.113942 3.409632 -0.156020 0
M  V30 34 H -2.495617 3.636675 -1.872642 0
M  V30 35 H -4.176933 3.308939 -2.563503 0
M  V30 36 H -0.290653 -0.656491 0.261060 0
M  V30 END ATOM
M  V30 BEGIN BOND
M  V30 1 1 1 2
M  V30 2 1 2 3
M  V30 3 2 3 4
M  V30 4 1 4 5
M  V30 5 1 5 6
M  V30 6 2 5 7
M  V30 7 1 4 8
M  V30 8 2 8 9
M  V30 9 1 9 10
M  V30 10 2 10 11
M  V30 11 1 11 12
M  V30 12 2 12 13
M  V30 13 1 13 14
M  V30 14 1 14 15
M  V30 15 1 15 16
M  V30 16 2 16 17
M  V30 17 1 16 18
M  V30 18 1 18 19
M  V30 19 1 19 20
M  V30 20 2 14 21
M  V30 21 1 9 2
M  V30 22 1 21 10
M  V30 23 1 20 18
M  V30 24 1 1 22
M  V30 25 1 1 23
M  V30 26 1 1 24
M  V30 27 1 6 25
M  V30 28 1 6 26
M  V30 29 1 8 27
M  V30 30 1 11 28
M  V30 31 1 12 29
M  V30 32 1 15 30
M  V30 33 1 18 31
M  V30 34 1 19 32
M  V30 35 1 19 33
M  V30 36 1 20 34
M  V30 37 1 20 35
M  V30 38 1 21 36
M  V30 END BOND
M  V30 END CTAB
M  END
>  <Dataset>  (256) 
ChEMBL_Kinases

>  <Ligand_Instance>  (256) 
nan

>  <PDB_ID>  (256) 
nan

>  <Standardized_SMILES>  (256) 
Cn1nc(C(N)=O)cc1-c1ccnc(NC(=O)C2CC2)c1

>  <Name>  (256) 
nan

>  <Pocket>  (256) 
nan

>  <ATP_Site>  (256) 
nan

>  <Peripheral>  (256) 
nan

>  <Num_H_Atoms_ProtBoundConf>  (256) 
nan

>  <Num_Resolved_Atoms>  (256) 
nan

>  <Num_Not_Resolved_Atoms>  (256) 
nan

$$$$
CHEMBL3410100
     RDKit          3D

  0  0  0  0  0  0  0  0  0  0999 V3000
M  V30 BEGIN CTAB
M  V30 COUNTS 37 40 0 0 0
M  V30 BEGIN ATOM
M  V30 1 O 0.482160 -1.870539 3.641385 0
M  V30 2 C -0.771169 -1.780683 3.808221 0
M  V30 3 N -1.584283 -2.240219 2.728879 0
M  V30 4 C -0.792518 -2.722520 1.647573 0
M  V30 5 C -0.444397 -1.769233 0.688973 0
M  V30 6 C 0.317870 -2.046949 -0.429197 0
M  V30 7 C 0.652913 -1.026386 -1.394390 0
M  V30 8 C 0.842451 -1.229582 -2.742972 0
M  V30 9 C 1.164748 -0.145226 -3.564431 0
M  V30 10 C 1.304558 1.149636 -3.072337 0
M  V30 11 C 1.623834 2.192967 -3.917748 0
M  V30 12 C 1.760347 3.478819 -3.414774 0
M  V30 13 N 1.570111 3.649525 -2.095217 0
M  V30 14 C 1.256943 2.617622 -1.274673 0
M  V30 15 C 1.109476 1.323926 -1.720111 0
M  V30 16 C 0.792493 0.271494 -0.897699 0
M  V30 17 C 0.747110 -3.371309 -0.574502 0
M  V30 18 C 0.388508 -4.313842 0.396589 0
M  V30 19 N -0.361322 -3.991846 1.476256 0
M  V30 20 C -1.373747 -1.229829 5.052732 0
M  V30 21 C -0.648087 0.047419 5.592063 0
M  V30 22 C -0.533912 -1.247162 6.281511 0
M  V30 23 H -2.637670 -2.194572 2.800642 0
M  V30 24 H -0.772600 -0.727259 0.787793 0
M  V30 25 H 0.733717 -2.222103 -3.111036 0
M  V30 26 H 1.303116 -0.358874 -4.615944 0
M  V30 27 H 1.773972 2.034752 -4.983116 0
M  V30 28 H 2.008025 4.342769 -4.014315 0
M  V30 29 H 1.111565 2.801829 -0.211572 0
M  V30 30 H 0.670751 0.552015 0.123439 0
M  V30 31 H 1.349673 -3.663991 -1.428132 0
M  V30 32 H 0.718533 -5.349891 0.292141 0
M  V30 33 H -2.472356 -1.178106 5.136783 0
M  V30 34 H -1.300640 0.875512 5.936270 0
M  V30 35 H 0.186463 0.429768 4.966939 0
M  V30 36 H -1.017183 -1.268923 7.294778 0
M  V30 37 H 0.438190 -1.775434 6.252171 0
M  V30 END ATOM
M  V30 BEGIN BOND
M  V30 1 2 1 2
M  V30 2 1 2 3
M  V30 3 1 3 4
M  V30 4 2 4 5
M  V30 5 1 5 6
M  V30 6 1 6 7
M  V30 7 2 7 8
M  V30 8 1 8 9
M  V30 9 2 9 10
M  V30 10 1 10 11
M  V30 11 2 11 12
M  V30 12 1 12 13
M  V30 13 2 13 14
M  V30 14 1 14 15
M  V30 15 2 15 16
M  V30 16 2 6 17
M  V30 17 1 17 18
M  V30 18 2 18 19
M  V30 19 1 2 20
M  V30 20 1 20 21
M  V30 21 1 21 22
M  V30 22 1 19 4
M  V30 23 1 22 20
M  V30 24 1 16 7
M  V30 25 1 15 10
M  V30 26 1 3 23
M  V30 27 1 5 24
M  V30 28 1 8 25
M  V30 29 1 9 26
M  V30 30 1 11 27
M  V30 31 1 12 28
M  V30 32 1 14 29
M  V30 33 1 16 30
M  V30 34 1 17 31
M  V30 35 1 18 32
M  V30 36 1 20 33
M  V30 37 1 21 34
M  V30 38 1 21 35
M  V30 39 1 22 36
M  V30 40 1 22 37
M  V30 END BOND
M  V30 END CTAB
M  END
>  <Dataset>  (257) 
ChEMBL_Kinases

>  <Ligand_Instance>  (257) 
nan

>  <PDB_ID>  (257) 
nan

>  <Standardized_SMILES>  (257) 
O=C(Nc1cc(-c2ccc3ccncc3c2)ccn1)C1CC1

>  <Name>  (257) 
nan

>  <Pocket>  (257) 
nan

>  <ATP_Site>  (257) 
nan

>  <Peripheral>  (257) 
nan

>  <Num_H_Atoms_ProtBoundConf>  (257) 
nan

>  <Num_Resolved_Atoms>  (257) 
nan

>  <Num_Not_Resolved_Atoms>  (257) 
nan

$$$$
CHEMBL3410101
     RDKit          3D

  0  0  0  0  0  0  0  0  0  0999 V3000
M  V30 BEGIN CTAB
M  V30 COUNTS 37 40 0 0 0
M  V30 BEGIN ATOM
M  V30 1 O 0.351075 -1.871685 3.702045 0
M  V30 2 C -0.905299 -1.884730 3.627729 0
M  V30 3 N -1.607692 -2.416502 2.498768 0
M  V30 4 C -0.707247 -2.908857 1.510503 0
M  V30 5 C -0.375327 -1.897150 0.601754 0
M  V30 6 C 0.495297 -2.158187 -0.451456 0
M  V30 7 C 0.854949 -1.099814 -1.418714 0
M  V30 8 C 1.156842 -1.313254 -2.736013 0
M  V30 9 C 1.480663 -0.237582 -3.551767 0
M  V30 10 C 1.509979 1.073926 -3.069413 0
M  V30 11 N 1.827049 2.106347 -3.877988 0
M  V30 12 C 1.858629 3.372183 -3.426071 0
M  V30 13 C 1.563792 3.645365 -2.109713 0
M  V30 14 C 1.242917 2.587617 -1.297308 0
M  V30 15 C 1.205805 1.285180 -1.743680 0
M  V30 16 C 0.881845 0.199493 -0.932324 0
M  V30 17 C 1.031090 -3.430384 -0.592208 0
M  V30 18 C 0.655485 -4.392464 0.352601 0
M  V30 19 N -0.189364 -4.120837 1.366301 0
M  V30 20 C -1.674070 -1.315801 4.777821 0
M  V30 21 C -1.110667 0.034031 5.333236 0
M  V30 22 C -1.033989 -1.215050 6.124574 0
M  V30 23 H -2.656887 -2.400051 2.493755 0
M  V30 24 H -0.744571 -0.860409 0.625490 0
M  V30 25 H 1.129673 -2.324880 -3.088747 0
M  V30 26 H 1.713847 -0.441109 -4.587031 0
M  V30 27 H 2.113090 4.222346 -4.064660 0
M  V30 28 H 1.567181 4.638267 -1.669506 0
M  V30 29 H 1.005610 2.777975 -0.252159 0
M  V30 30 H 0.664753 0.511853 0.087951 0
M  V30 31 H 1.719660 -3.683833 -1.403878 0
M  V30 32 H 1.038431 -5.401853 0.297729 0
M  V30 33 H -2.776296 -1.322788 4.722813 0
M  V30 34 H -1.829947 0.830582 5.535798 0
M  V30 35 H -0.193226 0.393484 4.826429 0
M  V30 36 H -1.650728 -1.269130 7.026018 0
M  V30 37 H -0.014705 -1.668724 6.204292 0
M  V30 END ATOM
M  V30 BEGIN BOND
M  V30 1 2 1 2
M  V30 2 1 2 3
M  V30 3 1 3 4
M  V30 4 2 4 5
M  V30 5 1 5 6
M  V30 6 1 6 7
M  V30 7 2 7 8
M  V30 8 1 8 9
M  V30 9 2 9 10
M  V30 10 1 10 11
M  V30 11 2 11 12
M  V30 12 1 12 13
M  V30 13 2 13 14
M  V30 14 1 14 15
M  V30 15 2 15 16
M  V30 16 2 6 17
M  V30 17 1 17 18
M  V30 18 2 18 19
M  V30 19 1 2 20
M  V30 20 1 20 21
M  V30 21 1 21 22
M  V30 22 1 19 4
M  V30 23 1 22 20
M  V30 24 1 16 7
M  V30 25 1 15 10
M  V30 26 1 3 23
M  V30 27 1 5 24
M  V30 28 1 8 25
M  V30 29 1 9 26
M  V30 30 1 12 27
M  V30 31 1 13 28
M  V30 32 1 14 29
M  V30 33 1 16 30
M  V30 34 1 17 31
M  V30 35 1 18 32
M  V30 36 1 20 33
M  V30 37 1 21 34
M  V30 38 1 21 35
M  V30 39 1 22 36
M  V30 40 1 22 37
M  V30 END BOND
M  V30 END CTAB
M  END
>  <Dataset>  (258) 
ChEMBL_Kinases

>  <Ligand_Instance>  (258) 
nan

>  <PDB_ID>  (258) 
nan

>  <Standardized_SMILES>  (258) 
O=C(Nc1cc(-c2ccc3ncccc3c2)ccn1)C1CC1

>  <Name>  (258) 
nan

>  <Pocket>  (258) 
nan

>  <ATP_Site>  (258) 
nan

>  <Peripheral>  (258) 
nan

>  <Num_H_Atoms_ProtBoundConf>  (258) 
nan

>  <Num_Resolved_Atoms>  (258) 
nan

>  <Num_Not_Resolved_Atoms>  (258) 
nan

$$$$
CHEMBL3410102
     RDKit          3D

  0  0  0  0  0  0  0  0  0  0999 V3000
M  V30 BEGIN CTAB
M  V30 COUNTS 38 41 0 0 0
M  V30 BEGIN ATOM
M  V30 1 O -0.762299 -2.363304 3.429116 0
M  V30 2 C -1.741360 -1.648521 3.835424 0
M  V30 3 N -2.522640 -1.134846 2.757332 0
M  V30 4 C -1.947995 -1.594225 1.534108 0
M  V30 5 C -0.959859 -0.870400 0.856891 0
M  V30 6 C -0.456383 -1.385457 -0.320246 0
M  V30 7 C 0.581163 -0.631755 -1.037041 0
M  V30 8 C 1.502084 -1.382425 -1.757821 0
M  V30 9 C 2.502470 -0.735947 -2.454598 0
M  V30 10 C 2.531697 0.641079 -2.394920 0
M  V30 11 C 3.540835 1.263769 -3.099497 0
M  V30 12 C 3.633314 2.640649 -3.086343 0
M  V30 13 C 2.747694 3.468698 -2.387147 0
M  V30 14 C 1.731965 2.813399 -1.679552 0
M  V30 15 C 1.647708 1.437657 -1.698646 0
M  V30 16 C 0.646705 0.756825 -1.003365 0
M  V30 17 C -0.897619 -2.596848 -0.853748 0
M  V30 18 C -1.882407 -3.268284 -0.131682 0
M  V30 19 N -2.371872 -2.762692 1.017180 0
M  V30 20 C -2.021421 -1.390112 5.286612 0
M  V30 21 C -0.751739 -0.943433 6.060498 0
M  V30 22 C -1.400305 -2.288006 6.265070 0
M  V30 23 H -3.345033 -0.538571 2.997419 0
M  V30 24 H -0.627166 0.066479 1.281393 0
M  V30 25 H 1.451708 -2.452532 -1.783782 0
M  V30 26 H 3.210301 -1.304631 -3.008252 0
M  V30 27 H 4.274572 0.700374 -3.671589 0
M  V30 28 H 4.435476 3.113672 -3.647727 0
M  V30 29 H 2.863101 4.532825 -2.409309 0
M  V30 30 H 1.016653 3.402227 -1.119279 0
M  V30 31 H -0.082022 1.300116 -0.436197 0
M  V30 32 H -0.519830 -3.018850 -1.770694 0
M  V30 33 H -2.285351 -4.208113 -0.462354 0
M  V30 34 H -2.898304 -0.755530 5.513035 0
M  V30 35 H -0.885451 -0.178968 6.853371 0
M  V30 36 H 0.189386 -0.846373 5.496770 0
M  V30 37 H -1.805349 -2.471924 7.272033 0
M  V30 38 H -0.867707 -3.187161 5.839718 0
M  V30 END ATOM
M  V30 BEGIN BOND
M  V30 1 2 1 2
M  V30 2 1 2 3
M  V30 3 1 3 4
M  V30 4 2 4 5
M  V30 5 1 5 6
M  V30 6 1 6 7
M  V30 7 2 7 8
M  V30 8 1 8 9
M  V30 9 2 9 10
M  V30 10 1 10 11
M  V30 11 2 11 12
M  V30 12 1 12 13
M  V30 13 2 13 14
M  V30 14 1 14 15
M  V30 15 2 15 16
M  V30 16 2 6 17
M  V30 17 1 17 18
M  V30 18 2 18 19
M  V30 19 1 2 20
M  V30 20 1 20 21
M  V30 21 1 21 22
M  V30 22 1 19 4
M  V30 23 1 22 20
M  V30 24 1 16 7
M  V30 25 1 15 10
M  V30 26 1 3 23
M  V30 27 1 5 24
M  V30 28 1 8 25
M  V30 29 1 9 26
M  V30 30 1 11 27
M  V30 31 1 12 28
M  V30 32 1 13 29
M  V30 33 1 14 30
M  V30 34 1 16 31
M  V30 35 1 17 32
M  V30 36 1 18 33
M  V30 37 1 20 34
M  V30 38 1 21 35
M  V30 39 1 21 36
M  V30 40 1 22 37
M  V30 41 1 22 38
M  V30 END BOND
M  V30 END CTAB
M  END
>  <Dataset>  (259) 
ChEMBL_Kinases

>  <Ligand_Instance>  (259) 
nan

>  <PDB_ID>  (259) 
nan

>  <Standardized_SMILES>  (259) 
O=C(Nc1cc(-c2ccc3ccccc3c2)ccn1)C1CC1

>  <Name>  (259) 
nan

>  <Pocket>  (259) 
nan

>  <ATP_Site>  (259) 
nan

>  <Peripheral>  (259) 
nan

>  <Num_H_Atoms_ProtBoundConf>  (259) 
nan

>  <Num_Resolved_Atoms>  (259) 
nan

>  <Num_Not_Resolved_Atoms>  (259) 
nan

$$$$
CHEMBL3410103
     RDKit          3D

  0  0  0  0  0  0  0  0  0  0999 V3000
M  V30 BEGIN CTAB
M  V30 COUNTS 35 37 0 0 0
M  V30 BEGIN ATOM
M  V30 1 N 0.707914 -4.360113 5.835362 0
M  V30 2 C 0.934972 -4.508186 4.452335 0
M  V30 3 O 1.001057 -5.754779 4.305901 0
M  V30 4 C 1.069984 -3.509830 3.399185 0
M  V30 5 C 1.289937 -4.038371 2.143585 0
M  V30 6 C 1.430837 -3.145896 1.077360 0
M  V30 7 C 1.345802 -1.767888 1.312935 0
M  V30 8 C 1.495397 -0.845526 0.187599 0
M  V30 9 C 2.303666 -1.118810 -0.902623 0
M  V30 10 C 2.413978 -0.210967 -1.949548 0
M  V30 11 N 1.745532 0.957943 -1.943905 0
M  V30 12 C 0.947255 1.255894 -0.893801 0
M  V30 13 N 0.173506 2.458181 -0.745037 0
M  V30 14 C -1.114944 2.260605 -1.315612 0
M  V30 15 O -1.273935 1.109612 -1.805188 0
M  V30 16 C -2.169857 3.312702 -1.331416 0
M  V30 17 C -3.622817 2.781122 -1.170422 0
M  V30 18 C -3.175375 3.238111 -2.509966 0
M  V30 19 C 0.826640 0.376563 0.143283 0
M  V30 20 C 1.121448 -1.303738 2.609677 0
M  V30 21 N 0.988620 -2.185110 3.623466 0
M  V30 22 H 1.648695 -4.032018 6.143083 0
M  V30 23 H -0.204977 -4.555858 6.323643 0
M  V30 24 H 1.358164 -5.106288 1.945922 0
M  V30 25 H 1.607350 -3.508946 0.056815 0
M  V30 26 H 2.850552 -2.048636 -0.932521 0
M  V30 27 H 3.046455 -0.422364 -2.805144 0
M  V30 28 H 0.366994 3.410750 -0.316031 0
M  V30 29 H -2.000808 4.297538 -0.897594 0
M  V30 30 H -3.718272 1.690471 -1.009219 0
M  V30 31 H -4.346946 3.422728 -0.647501 0
M  V30 32 H -3.469723 4.208688 -2.915735 0
M  V30 33 H -2.929386 2.450640 -3.267941 0
M  V30 34 H 0.192779 0.565642 1.021517 0
M  V30 35 H 1.053669 -0.245318 2.806829 0
M  V30 END ATOM
M  V30 BEGIN BOND
M  V30 1 1 1 2
M  V30 2 2 2 3
M  V30 3 1 2 4
M  V30 4 2 4 5
M  V30 5 1 5 6
M  V30 6 2 6 7
M  V30 7 1 7 8
M  V30 8 2 8 9
M  V30 9 1 9 10
M  V30 10 2 10 11
M  V30 11 1 11 12
M  V30 12 1 12 13
M  V30 13 1 13 14
M  V30 14 2 14 15
M  V30 15 1 14 16
M  V30 16 1 16 17
M  V30 17 1 17 18
M  V30 18 2 12 19
M  V30 19 1 7 20
M  V30 20 2 20 21
M  V30 21 1 21 4
M  V30 22 1 19 8
M  V30 23 1 18 16
M  V30 24 1 1 22
M  V30 25 1 1 23
M  V30 26 1 5 24
M  V30 27 1 6 25
M  V30 28 1 9 26
M  V30 29 1 10 27
M  V30 30 1 13 28
M  V30 31 1 16 29
M  V30 32 1 17 30
M  V30 33 1 17 31
M  V30 34 1 18 32
M  V30 35 1 18 33
M  V30 36 1 19 34
M  V30 37 1 20 35
M  V30 END BOND
M  V30 END CTAB
M  END
>  <Dataset>  (260) 
ChEMBL_Kinases

>  <Ligand_Instance>  (260) 
nan

>  <PDB_ID>  (260) 
nan

>  <Standardized_SMILES>  (260) 
NC(=O)c1ccc(-c2ccnc(NC(=O)C3CC3)c2)cn1

>  <Name>  (260) 
nan

>  <Pocket>  (260) 
nan

>  <ATP_Site>  (260) 
nan

>  <Peripheral>  (260) 
nan

>  <Num_H_Atoms_ProtBoundConf>  (260) 
nan

>  <Num_Resolved_Atoms>  (260) 
nan

>  <Num_Not_Resolved_Atoms>  (260) 
nan

$$$$
CHEMBL3410104
     RDKit          3D

  0  0  0  0  0  0  0  0  0  0999 V3000
M  V30 BEGIN CTAB
M  V30 COUNTS 39 41 0 0 0
M  V30 BEGIN ATOM
M  V30 1 C -3.328488 -1.814196 2.082804 0
M  V30 2 O -2.478864 -2.272310 3.107083 0
M  V30 3 C -1.110008 -2.266739 3.054624 0
M  V30 4 C -0.377937 -1.805344 1.977131 0
M  V30 5 C 1.000906 -1.792652 1.908262 0
M  V30 6 C 1.706821 -1.287449 0.730556 0
M  V30 7 C 2.929941 -1.804610 0.355027 0
M  V30 8 C 3.582601 -1.302699 -0.775785 0
M  V30 9 N 3.023514 -0.308666 -1.510351 0
M  V30 10 C 1.827990 0.190082 -1.135233 0
M  V30 11 N 1.168917 1.232210 -1.846359 0
M  V30 12 C 1.322668 2.623583 -1.599127 0
M  V30 13 O 2.057272 3.147009 -0.722408 0
M  V30 14 C 0.550247 3.579260 -2.446210 0
M  V30 15 C 0.095832 3.151665 -3.822362 0
M  V30 16 C -0.918681 3.159966 -2.746287 0
M  V30 17 C 1.145898 -0.268523 -0.032305 0
M  V30 18 C 1.677254 -2.285799 3.017676 0
M  V30 19 N 0.995464 -2.751534 4.103624 0
M  V30 20 C -0.358782 -2.745096 4.128037 0
M  V30 21 C -1.067588 -3.241255 5.284038 0
M  V30 22 N -0.385347 -3.748296 6.423204 0
M  V30 23 O -2.324564 -3.235895 5.309385 0
M  V30 24 H -4.344184 -2.197905 2.145093 0
M  V30 25 H -2.940649 -2.032868 1.068324 0
M  V30 26 H -3.390538 -0.710459 2.177446 0
M  V30 27 H -0.904259 -1.417382 1.104058 0
M  V30 28 H 3.403973 -2.605429 0.927528 0
M  V30 29 H 4.553032 -1.744830 -1.035699 0
M  V30 30 H 0.537035 0.874888 -2.595906 0
M  V30 31 H 0.659881 4.656622 -2.266037 0
M  V30 32 H 0.440356 2.158662 -4.176766 0
M  V30 33 H 0.055196 3.937125 -4.622817 0
M  V30 34 H -1.244302 2.230692 -2.269421 0
M  V30 35 H -1.666369 3.960355 -2.813260 0
M  V30 36 H 0.201404 0.097561 0.297552 0
M  V30 37 H 2.774077 -2.302486 3.024310 0
M  V30 38 H -0.476633 -3.112479 7.242558 0
M  V30 39 H 0.193878 -4.585581 6.694126 0
M  V30 END ATOM
M  V30 BEGIN BOND
M  V30 1 1 1 2
M  V30 2 1 2 3
M  V30 3 2 3 4
M  V30 4 1 4 5
M  V30 5 1 5 6
M  V30 6 2 6 7
M  V30 7 1 7 8
M  V30 8 2 8 9
M  V30 9 1 9 10
M  V30 10 1 10 11
M  V30 11 1 11 12
M  V30 12 2 12 13
M  V30 13 1 12 14
M  V30 14 1 14 15
M  V30 15 1 15 16
M  V30 16 2 10 17
M  V30 17 2 5 18
M  V30 18 1 18 19
M  V30 19 2 19 20
M  V30 20 1 20 21
M  V30 21 1 21 22
M  V30 22 2 21 23
M  V30 23 1 20 3
M  V30 24 1 17 6
M  V30 25 1 16 14
M  V30 26 1 1 24
M  V30 27 1 1 25
M  V30 28 1 1 26
M  V30 29 1 4 27
M  V30 30 1 7 28
M  V30 31 1 8 29
M  V30 32 1 11 30
M  V30 33 1 14 31
M  V30 34 1 15 32
M  V30 35 1 15 33
M  V30 36 1 16 34
M  V30 37 1 16 35
M  V30 38 1 17 36
M  V30 39 1 18 37
M  V30 40 1 22 38
M  V30 41 1 22 39
M  V30 END BOND
M  V30 END CTAB
M  END
>  <Dataset>  (261) 
ChEMBL_Kinases

>  <Ligand_Instance>  (261) 
nan

>  <PDB_ID>  (261) 
nan

>  <Standardized_SMILES>  (261) 
COc1cc(-c2ccnc(NC(=O)C3CC3)c2)cnc1C(N)=O

>  <Name>  (261) 
nan

>  <Pocket>  (261) 
nan

>  <ATP_Site>  (261) 
nan

>  <Peripheral>  (261) 
nan

>  <Num_H_Atoms_ProtBoundConf>  (261) 
nan

>  <Num_Resolved_Atoms>  (261) 
nan

>  <Num_Not_Resolved_Atoms>  (261) 
nan

$$$$
CHEMBL3410105
     RDKit          3D

  0  0  0  0  0  0  0  0  0  0999 V3000
M  V30 BEGIN CTAB
M  V30 COUNTS 39 41 0 0 0
M  V30 BEGIN ATOM
M  V30 1 C -0.278569 -5.939213 1.605118 0
M  V30 2 O -1.301099 -5.066086 2.099624 0
M  V30 3 C -1.167837 -3.702322 1.866171 0
M  V30 4 C -0.078830 -3.194191 1.175032 0
M  V30 5 C 0.089589 -1.874314 0.926163 0
M  V30 6 C 1.223757 -1.310900 0.202428 0
M  V30 7 C 2.222033 -2.120261 -0.285267 0
M  V30 8 C 3.232110 -1.456913 -0.948331 0
M  V30 9 N 3.271408 -0.127094 -1.123335 0
M  V30 10 C 2.312376 0.687379 -0.659039 0
M  V30 11 N 2.436778 2.080466 -0.890801 0
M  V30 12 C 1.589017 3.145247 -0.519707 0
M  V30 13 O 0.543200 2.879977 0.119092 0
M  V30 14 C 1.822680 4.553512 -0.817306 0
M  V30 15 C 0.675751 5.514255 -0.962408 0
M  V30 16 C 1.431743 5.513213 0.313005 0
M  V30 17 C 1.298104 0.042078 0.004400 0
M  V30 18 N -0.887522 -1.062144 1.401241 0
M  V30 19 C -1.960193 -1.527762 2.078020 0
M  V30 20 C -2.141434 -2.868194 2.336692 0
M  V30 21 C -3.291505 -3.390938 3.064988 0
M  V30 22 N -4.299302 -2.514542 3.550578 0
M  V30 23 O -3.346911 -4.634927 3.239455 0
M  V30 24 H 0.696985 -5.727347 2.099231 0
M  V30 25 H -0.563930 -6.993521 1.794217 0
M  V30 26 H -0.188039 -5.808250 0.495851 0
M  V30 27 H 0.637589 -3.905584 0.839957 0
M  V30 28 H 2.235358 -3.176888 -0.172109 0
M  V30 29 H 4.070082 -1.996859 -1.373668 0
M  V30 30 H 3.271084 2.431026 -1.416036 0
M  V30 31 H 2.733568 4.874146 -1.383346 0
M  V30 32 H 0.770129 6.381771 -1.617949 0
M  V30 33 H -0.320394 5.021366 -0.961797 0
M  V30 34 H 2.071220 6.392835 0.505534 0
M  V30 35 H 0.913296 5.111832 1.196927 0
M  V30 36 H 0.491694 0.633445 0.405495 0
M  V30 37 H -2.722109 -0.835240 2.441702 0
M  V30 38 H -4.364974 -2.407011 4.596353 0
M  V30 39 H -4.539941 -2.262853 4.519941 0
M  V30 END ATOM
M  V30 BEGIN BOND
M  V30 1 1 1 2
M  V30 2 1 2 3
M  V30 3 2 3 4
M  V30 4 1 4 5
M  V30 5 1 5 6
M  V30 6 2 6 7
M  V30 7 1 7 8
M  V30 8 2 8 9
M  V30 9 1 9 10
M  V30 10 1 10 11
M  V30 11 1 11 12
M  V30 12 2 12 13
M  V30 13 1 12 14
M  V30 14 1 14 15
M  V30 15 1 15 16
M  V30 16 2 10 17
M  V30 17 2 5 18
M  V30 18 1 18 19
M  V30 19 2 19 20
M  V30 20 1 20 21
M  V30 21 1 21 22
M  V30 22 2 21 23
M  V30 23 1 20 3
M  V30 24 1 17 6
M  V30 25 1 16 14
M  V30 26 1 1 24
M  V30 27 1 1 25
M  V30 28 1 1 26
M  V30 29 1 4 27
M  V30 30 1 7 28
M  V30 31 1 8 29
M  V30 32 1 11 30
M  V30 33 1 14 31
M  V30 34 1 15 32
M  V30 35 1 15 33
M  V30 36 1 16 34
M  V30 37 1 16 35
M  V30 38 1 17 36
M  V30 39 1 19 37
M  V30 40 1 22 38
M  V30 41 1 22 39
M  V30 END BOND
M  V30 END CTAB
M  END
>  <Dataset>  (262) 
ChEMBL_Kinases

>  <Ligand_Instance>  (262) 
nan

>  <PDB_ID>  (262) 
nan

>  <Standardized_SMILES>  (262) 
COc1cc(-c2ccnc(NC(=O)C3CC3)c2)ncc1C(N)=O

>  <Name>  (262) 
nan

>  <Pocket>  (262) 
nan

>  <ATP_Site>  (262) 
nan

>  <Peripheral>  (262) 
nan

>  <Num_H_Atoms_ProtBoundConf>  (262) 
nan

>  <Num_Resolved_Atoms>  (262) 
nan

>  <Num_Not_Resolved_Atoms>  (262) 
nan

$$$$
CHEMBL3410106
     RDKit          3D

  0  0  0  0  0  0  0  0  0  0999 V3000
M  V30 BEGIN CTAB
M  V30 COUNTS 42 44 0 0 0
M  V30 BEGIN ATOM
M  V30 1 N 1.953671 -4.749865 4.037634 0
M  V30 2 C 1.183990 -4.929067 2.868476 0
M  V30 3 O 0.799436 -6.083214 2.560736 0
M  V30 4 C 0.864343 -3.742233 2.055396 0
M  V30 5 C 1.338423 -2.491425 2.481155 0
M  V30 6 N 1.069246 -1.385963 1.769048 0
M  V30 7 C 0.343193 -1.417913 0.629670 0
M  V30 8 C 0.063399 -0.207596 -0.126304 0
M  V30 9 C -0.661082 -0.121144 -1.293907 0
M  V30 10 C -0.886233 1.066233 -1.957385 0
M  V30 11 N -0.369987 2.211032 -1.437932 0
M  V30 12 C 0.352597 2.172419 -0.285715 0
M  V30 13 N 0.854953 3.416971 0.186263 0
M  V30 14 C -0.024058 4.099901 1.063648 0
M  V30 15 O -1.154539 3.612272 1.378834 0
M  V30 16 C 0.353935 5.416779 1.645172 0
M  V30 17 C 1.326665 6.288915 0.943696 0
M  V30 18 C 1.807346 5.482650 2.135285 0
M  V30 19 C 0.562843 0.984715 0.354316 0
M  V30 20 C -0.097522 -2.639596 0.249795 0
M  V30 21 C 0.102690 -3.845936 0.877565 0
M  V30 22 O -0.245878 -5.111871 0.657457 0
M  V30 23 C -0.932161 -5.849811 -0.262821 0
M  V30 24 C -0.336150 -5.865768 -1.624046 0
M  V30 25 F -1.070357 -6.633167 -2.517796 0
M  V30 26 F -0.184579 -4.643721 -2.210845 0
M  V30 27 F 0.945098 -6.424981 -1.505595 0
M  V30 28 H 2.532335 -4.606048 4.881142 0
M  V30 29 H 1.679541 -5.161291 4.977714 0
M  V30 30 H 1.927941 -2.352107 3.377427 0
M  V30 31 H -1.066066 -1.029937 -1.698750 0
M  V30 32 H -1.467246 1.047192 -2.870840 0
M  V30 33 H 1.798023 3.840404 -0.066642 0
M  V30 34 H -0.379796 5.888036 2.318563 0
M  V30 35 H 1.240836 7.385482 1.145670 0
M  V30 36 H 1.704792 6.090639 -0.061964 0
M  V30 37 H 1.977492 6.034697 3.099138 0
M  V30 38 H 2.511067 4.687756 1.842085 0
M  V30 39 H 1.137900 0.998741 1.259716 0
M  V30 40 H -0.684712 -2.695480 -0.627473 0
M  V30 41 H -0.970408 -6.938086 0.082613 0
M  V30 42 H -2.036088 -5.591161 -0.298484 0
M  V30 END ATOM
M  V30 BEGIN BOND
M  V30 1 1 1 2
M  V30 2 2 2 3
M  V30 3 1 2 4
M  V30 4 2 4 5
M  V30 5 1 5 6
M  V30 6 2 6 7
M  V30 7 1 7 8
M  V30 8 2 8 9
M  V30 9 1 9 10
M  V30 10 2 10 11
M  V30 11 1 11 12
M  V30 12 1 12 13
M  V30 13 1 13 14
M  V30 14 2 14 15
M  V30 15 1 14 16
M  V30 16 1 16 17
M  V30 17 1 17 18
M  V30 18 2 12 19
M  V30 19 1 7 20
M  V30 20 2 20 21
M  V30 21 1 21 22
M  V30 22 1 22 23
M  V30 23 1 23 24
M  V30 24 1 24 25
M  V30 25 1 24 26
M  V30 26 1 24 27
M  V30 27 1 21 4
M  V30 28 1 19 8
M  V30 29 1 18 16
M  V30 30 1 1 28
M  V30 31 1 1 29
M  V30 32 1 5 30
M  V30 33 1 9 31
M  V30 34 1 10 32
M  V30 35 1 13 33
M  V30 36 1 16 34
M  V30 37 1 17 35
M  V30 38 1 17 36
M  V30 39 1 18 37
M  V30 40 1 18 38
M  V30 41 1 19 39
M  V30 42 1 20 40
M  V30 43 1 23 41
M  V30 44 1 23 42
M  V30 END BOND
M  V30 END CTAB
M  END
>  <Dataset>  (263) 
ChEMBL_Kinases

>  <Ligand_Instance>  (263) 
nan

>  <PDB_ID>  (263) 
nan

>  <Standardized_SMILES>  (263) 
NC(=O)c1cnc(-c2ccnc(NC(=O)C3CC3)c2)cc1OCC(F)(F)F

>  <Name>  (263) 
nan

>  <Pocket>  (263) 
nan

>  <ATP_Site>  (263) 
nan

>  <Peripheral>  (263) 
nan

>  <Num_H_Atoms_ProtBoundConf>  (263) 
nan

>  <Num_Resolved_Atoms>  (263) 
nan

>  <Num_Not_Resolved_Atoms>  (263) 
nan

$$$$
CHEMBL3410107
     RDKit          3D

  0  0  0  0  0  0  0  0  0  0999 V3000
M  V30 BEGIN CTAB
M  V30 COUNTS 45 47 0 0 0
M  V30 BEGIN ATOM
M  V30 1 C -2.586056 -3.591816 2.352653 0
M  V30 2 C -2.479883 -2.075591 2.229923 0
M  V30 3 C -3.423924 -1.467389 3.269632 0
M  V30 4 O -2.956557 -1.731529 0.968806 0
M  V30 5 C -2.271121 -1.067292 -0.016459 0
M  V30 6 C -0.974054 -0.604420 0.036626 0
M  V30 7 C -0.368623 0.056068 -1.011816 0
M  V30 8 C 1.005697 0.534582 -0.926896 0
M  V30 9 C 1.520430 1.190279 -2.045734 0
M  V30 10 C 2.811522 1.686066 -2.077699 0
M  V30 11 N 3.608811 1.530400 -0.982202 0
M  V30 12 C 3.144954 0.902634 0.115113 0
M  V30 13 N 3.943648 0.716878 1.284586 0
M  V30 14 C 4.127116 1.517376 2.441100 0
M  V30 15 O 3.555681 2.626104 2.631980 0
M  V30 16 C 5.054471 0.978152 3.458219 0
M  V30 17 C 4.859486 -0.522954 3.710363 0
M  V30 18 C 6.118124 0.014285 3.144506 0
M  V30 19 C 1.853554 0.414326 0.128756 0
M  V30 20 N -1.052145 0.261298 -2.124393 0
M  V30 21 C -2.326368 -0.163573 -2.248623 0
M  V30 22 C -2.944949 -0.824654 -1.210628 0
M  V30 23 C -4.323291 -1.278277 -1.359550 0
M  V30 24 N -5.026305 -1.039042 -2.571510 0
M  V30 25 O -4.901767 -1.883559 -0.420510 0
M  V30 26 H -3.582835 -3.874327 1.928320 0
M  V30 27 H -1.773688 -4.081994 1.772188 0
M  V30 28 H -2.554082 -3.909468 3.403873 0
M  V30 29 H -1.444514 -1.765113 2.414952 0
M  V30 30 H -3.455762 -0.379415 3.081958 0
M  V30 31 H -4.411589 -1.892320 3.056696 0
M  V30 32 H -3.038898 -1.659263 4.283448 0
M  V30 33 H -0.439258 -0.781756 0.947586 0
M  V30 34 H 0.953344 1.357234 -2.960707 0
M  V30 35 H 3.205770 2.197231 -2.956255 0
M  V30 36 H 4.429238 -0.196648 1.152481 0
M  V30 37 H 5.176200 1.626399 4.348586 0
M  V30 38 H 4.172816 -1.088803 3.058678 0
M  V30 39 H 4.813681 -0.872503 4.760903 0
M  V30 40 H 6.328842 -0.295428 2.086568 0
M  V30 41 H 7.001816 0.003802 3.799832 0
M  V30 42 H 1.473626 -0.089953 1.003642 0
M  V30 43 H -2.804571 0.050370 -3.196902 0
M  V30 44 H -4.639272 -0.944512 -3.526413 0
M  V30 45 H -4.550484 -0.954889 -3.515533 0
M  V30 END ATOM
M  V30 BEGIN BOND
M  V30 1 1 1 2
M  V30 2 1 2 3
M  V30 3 1 2 4
M  V30 4 1 4 5
M  V30 5 2 5 6
M  V30 6 1 6 7
M  V30 7 1 7 8
M  V30 8 2 8 9
M  V30 9 1 9 10
M  V30 10 2 10 11
M  V30 11 1 11 12
M  V30 12 1 12 13
M  V30 13 1 13 14
M  V30 14 2 14 15
M  V30 15 1 14 16
M  V30 16 1 16 17
M  V30 17 1 17 18
M  V30 18 2 12 19
M  V30 19 2 7 20
M  V30 20 1 20 21
M  V30 21 2 21 22
M  V30 22 1 22 23
M  V30 23 1 23 24
M  V30 24 2 23 25
M  V30 25 1 22 5
M  V30 26 1 19 8
M  V30 27 1 18 16
M  V30 28 1 1 26
M  V30 29 1 1 27
M  V30 30 1 1 28
M  V30 31 1 2 29
M  V30 32 1 3 30
M  V30 33 1 3 31
M  V30 34 1 3 32
M  V30 35 1 6 33
M  V30 36 1 9 34
M  V30 37 1 10 35
M  V30 38 1 13 36
M  V30 39 1 16 37
M  V30 40 1 17 38
M  V30 41 1 17 39
M  V30 42 1 18 40
M  V30 43 1 18 41
M  V30 44 1 19 42
M  V30 45 1 21 43
M  V30 46 1 24 44
M  V30 47 1 24 45
M  V30 END BOND
M  V30 END CTAB
M  END
>  <Dataset>  (264) 
ChEMBL_Kinases

>  <Ligand_Instance>  (264) 
nan

>  <PDB_ID>  (264) 
nan

>  <Standardized_SMILES>  (264) 
CC(C)Oc1cc(-c2ccnc(NC(=O)C3CC3)c2)ncc1C(N)=O

>  <Name>  (264) 
nan

>  <Pocket>  (264) 
nan

>  <ATP_Site>  (264) 
nan

>  <Peripheral>  (264) 
nan

>  <Num_H_Atoms_ProtBoundConf>  (264) 
nan

>  <Num_Resolved_Atoms>  (264) 
nan

>  <Num_Not_Resolved_Atoms>  (264) 
nan

$$$$
CHEMBL3410099
     RDKit          3D

  0  0  0  0  0  0  0  0  0  0999 V3000
M  V30 BEGIN CTAB
M  V30 COUNTS 37 40 0 0 0
M  V30 BEGIN ATOM
M  V30 1 O 0.413905 -2.287667 3.640422 0
M  V30 2 C -0.846354 -2.147621 3.735333 0
M  V30 3 N -1.578926 -2.447883 2.559650 0
M  V30 4 C -0.829405 -2.863975 1.426161 0
M  V30 5 C -0.421667 -1.835272 0.585293 0
M  V30 6 C 0.324829 -2.048134 -0.578856 0
M  V30 7 C 0.714047 -0.892490 -1.410978 0
M  V30 8 C 0.870445 -0.946221 -2.782250 0
M  V30 9 C 1.242227 0.218238 -3.453721 0
M  V30 10 C 1.457631 1.411342 -2.803862 0
M  V30 11 C 1.829462 2.556484 -3.515359 0
M  V30 12 C 2.046381 3.756023 -2.867379 0
M  V30 13 C 1.876423 3.763525 -1.479396 0
M  V30 14 N 1.517992 2.636244 -0.839081 0
M  V30 15 C 1.300266 1.460817 -1.432689 0
M  V30 16 C 0.931157 0.311906 -0.751957 0
M  V30 17 C 0.668027 -3.364823 -0.895949 0
M  V30 18 C 0.245156 -4.368003 -0.035252 0
M  V30 19 N -0.472354 -4.127795 1.077400 0
M  V30 20 C -1.572312 -1.703709 4.960958 0
M  V30 21 C -0.949648 -0.427810 5.599375 0
M  V30 22 C -0.920600 -1.743703 6.291820 0
M  V30 23 H -2.619808 -2.374801 2.503621 0
M  V30 24 H -0.671839 -0.790064 0.799917 0
M  V30 25 H 0.697511 -1.889673 -3.276226 0
M  V30 26 H 1.366878 0.188226 -4.520163 0
M  V30 27 H 1.957024 2.528508 -4.602866 0
M  V30 28 H 2.335986 4.680777 -3.355422 0
M  V30 29 H 2.020374 4.652699 -0.865496 0
M  V30 30 H 0.841289 0.479133 0.315665 0
M  V30 31 H 1.245026 -3.538023 -1.794652 0
M  V30 32 H 0.502576 -5.392858 -0.265902 0
M  V30 33 H -2.690472 -1.627839 4.880776 0
M  V30 34 H -1.637399 0.361367 5.936911 0
M  V30 35 H -0.038840 -0.015837 5.128549 0
M  V30 36 H -1.583219 -1.823327 7.177389 0
M  V30 37 H 0.025876 -2.304186 6.351188 0
M  V30 END ATOM
M  V30 BEGIN BOND
M  V30 1 2 1 2
M  V30 2 1 2 3
M  V30 3 1 3 4
M  V30 4 2 4 5
M  V30 5 1 5 6
M  V30 6 1 6 7
M  V30 7 2 7 8
M  V30 8 1 8 9
M  V30 9 2 9 10
M  V30 10 1 10 11
M  V30 11 2 11 12
M  V30 12 1 12 13
M  V30 13 2 13 14
M  V30 14 1 14 15
M  V30 15 2 15 16
M  V30 16 2 6 17
M  V30 17 1 17 18
M  V30 18 2 18 19
M  V30 19 1 2 20
M  V30 20 1 20 21
M  V30 21 1 21 22
M  V30 22 1 19 4
M  V30 23 1 22 20
M  V30 24 1 16 7
M  V30 25 1 15 10
M  V30 26 1 3 23
M  V30 27 1 5 24
M  V30 28 1 8 25
M  V30 29 1 9 26
M  V30 30 1 11 27
M  V30 31 1 12 28
M  V30 32 1 13 29
M  V30 33 1 16 30
M  V30 34 1 17 31
M  V30 35 1 18 32
M  V30 36 1 20 33
M  V30 37 1 21 34
M  V30 38 1 21 35
M  V30 39 1 22 36
M  V30 40 1 22 37
M  V30 END BOND
M  V30 END CTAB
M  END
>  <Dataset>  (265) 
ChEMBL_Kinases

>  <Ligand_Instance>  (265) 
nan

>  <PDB_ID>  (265) 
nan

>  <Standardized_SMILES>  (265) 
O=C(Nc1cc(-c2ccc3cccnc3c2)ccn1)C1CC1

>  <Name>  (265) 
nan

>  <Pocket>  (265) 
nan

>  <ATP_Site>  (265) 
nan

>  <Peripheral>  (265) 
nan

>  <Num_H_Atoms_ProtBoundConf>  (265) 
nan

>  <Num_Resolved_Atoms>  (265) 
nan

>  <Num_Not_Resolved_Atoms>  (265) 
nan

$$$$
CHEMBL3422060
     RDKit          3D

  0  0  0  0  0  0  0  0  0  0999 V3000
M  V30 BEGIN CTAB
M  V30 COUNTS 78 83 0 0 0
M  V30 BEGIN ATOM
M  V30 1 C 2.578401 -0.795704 5.656476 0
M  V30 2 N 3.036237 -0.093453 4.475288 0
M  V30 3 C 3.873451 -0.988893 3.709932 0
M  V30 4 C 4.577829 -0.273642 2.576108 0
M  V30 5 N 4.161055 1.117228 2.555740 0
M  V30 6 C 3.494333 1.781031 1.492373 0
M  V30 7 C 3.154559 3.115426 1.496289 0
M  V30 8 C 2.500912 3.693680 0.429279 0
M  V30 9 C 2.149799 2.975871 -0.698849 0
M  V30 10 C 1.458062 3.608721 -1.814801 0
M  V30 11 N 1.712125 4.778987 -2.433297 0
M  V30 12 N 0.844929 5.004854 -3.407278 0
M  V30 13 C -0.048596 3.988539 -3.497873 0
M  V30 14 C -1.131041 3.708046 -4.299878 0
M  V30 15 C -1.877425 2.535661 -4.136115 0
M  V30 16 C -1.506132 1.652972 -3.143844 0
M  V30 17 C -2.289811 0.442700 -2.983565 0
M  V30 18 O -3.274052 0.286521 -3.750504 0
M  V30 19 N -2.045007 -0.578298 -2.040963 0
M  V30 20 C -2.898781 -1.747715 -1.971083 0
M  V30 21 C -2.381882 -2.651892 -0.878573 0
M  V30 22 N -3.150517 -3.843365 -0.717106 0
M  V30 23 C -3.236254 -4.693453 -1.830913 0
M  V30 24 C -4.594262 -5.363393 -2.028580 0
M  V30 25 O -4.949763 -5.853646 -0.770260 0
M  V30 26 C -5.339258 -4.739720 -0.043505 0
M  V30 27 C -4.229496 -3.763451 0.187448 0
M  V30 28 C -2.294492 -1.859090 0.380502 0
M  V30 29 C -0.935339 -1.994676 1.069287 0
M  V30 30 C -0.555551 -3.445809 1.187403 0
M  V30 31 C -0.336971 -3.955517 -0.209587 0
M  V30 32 C -0.982172 -3.086001 -1.267893 0
M  V30 33 C -0.415743 1.972075 -2.362773 0
M  V30 34 C 0.345924 3.114257 -2.490713 0
M  V30 35 C 2.494111 1.637657 -0.696492 0
M  V30 36 C 3.151654 1.072891 0.385925 0
M  V30 37 C 4.527616 1.755364 3.820618 0
M  V30 38 C 3.695836 1.110290 4.887665 0
M  V30 39 H 1.604129 -0.415711 6.043218 0
M  V30 40 H 3.284665 -0.661463 6.522063 0
M  V30 41 H 2.556155 -1.899015 5.506566 0
M  V30 42 H 3.193413 -1.726094 3.217554 0
M  V30 43 H 4.549244 -1.567174 4.363348 0
M  V30 44 H 4.504435 -0.794538 1.625817 0
M  V30 45 H 5.676593 -0.266477 2.843383 0
M  V30 46 H 3.394891 3.724448 2.332561 0
M  V30 47 H 2.247587 4.744904 0.463499 0
M  V30 48 H 0.786341 5.822779 -4.060608 0
M  V30 49 H -1.416014 4.421940 -5.088117 0
M  V30 50 H -2.714302 2.397534 -4.812881 0
M  V30 51 H -1.240063 -0.460740 -1.408039 0
M  V30 52 H -3.072657 -2.217147 -2.931637 0
M  V30 53 H -3.894208 -1.353027 -1.620201 0
M  V30 54 H -2.977350 -4.249081 -2.821811 0
M  V30 55 H -2.512342 -5.533311 -1.716874 0
M  V30 56 H -5.330692 -4.578002 -2.287375 0
M  V30 57 H -4.478264 -6.144577 -2.789747 0
M  V30 58 H -5.778485 -5.125760 0.900417 0
M  V30 59 H -6.194303 -4.290154 -0.605836 0
M  V30 60 H -4.681020 -2.751727 0.132241 0
M  V30 61 H -3.841223 -3.994843 1.219827 0
M  V30 62 H -3.037986 -2.121361 1.158658 0
M  V30 63 H -2.434237 -0.769014 0.213064 0
M  V30 64 H -1.052777 -1.577643 2.087321 0
M  V30 65 H -0.159316 -1.467369 0.504940 0
M  V30 66 H -1.307322 -4.012832 1.753451 0
M  V30 67 H 0.397823 -3.486367 1.766288 0
M  V30 68 H -0.684908 -4.991556 -0.255192 0
M  V30 69 H 0.757694 -3.909763 -0.413187 0
M  V30 70 H -1.111738 -3.771846 -2.154104 0
M  V30 71 H -0.337805 -2.275463 -1.610856 0
M  V30 72 H -0.175346 1.257283 -1.612432 0
M  V30 73 H 2.205821 1.102203 -1.600074 0
M  V30 74 H 3.335494 0.028887 0.211073 0
M  V30 75 H 4.393072 2.831827 3.837031 0
M  V30 76 H 5.596479 1.540873 4.034968 0
M  V30 77 H 4.327430 0.966899 5.788991 0
M  V30 78 H 2.871658 1.796957 5.248719 0
M  V30 END ATOM
M  V30 BEGIN BOND
M  V30 1 1 1 2
M  V30 2 1 2 3
M  V30 3 1 3 4
M  V30 4 1 4 5
M  V30 5 1 5 6
M  V30 6 2 6 7
M  V30 7 1 7 8
M  V30 8 2 8 9
M  V30 9 1 9 10
M  V30 10 2 10 11
M  V30 11 1 11 12
M  V30 12 1 12 13
M  V30 13 2 13 14
M  V30 14 1 14 15
M  V30 15 2 15 16
M  V30 16 1 16 17
M  V30 17 2 17 18
M  V30 18 1 17 19
M  V30 19 1 19 20
M  V30 20 1 20 21
M  V30 21 1 21 22
M  V30 22 1 22 23
M  V30 23 1 23 24
M  V30 24 1 24 25
M  V30 25 1 25 26
M  V30 26 1 26 27
M  V30 27 1 21 28
M  V30 28 1 28 29
M  V30 29 1 29 30
M  V30 30 1 30 31
M  V30 31 1 31 32
M  V30 32 1 16 33
M  V30 33 2 33 34
M  V30 34 1 9 35
M  V30 35 2 35 36
M  V30 36 1 5 37
M  V30 37 1 37 38
M  V30 38 1 38 2
M  V30 39 1 36 6
M  V30 40 1 34 10
M  V30 41 1 34 13
M  V30 42 1 32 21
M  V30 43 1 27 22
M  V30 44 1 1 39
M  V30 45 1 1 40
M  V30 46 1 1 41
M  V30 47 1 3 42
M  V30 48 1 3 43
M  V30 49 1 4 44
M  V30 50 1 4 45
M  V30 51 1 7 46
M  V30 52 1 8 47
M  V30 53 1 12 48
M  V30 54 1 14 49
M  V30 55 1 15 50
M  V30 56 1 19 51
M  V30 57 1 20 52
M  V30 58 1 20 53
M  V30 59 1 23 54
M  V30 60 1 23 55
M  V30 61 1 24 56
M  V30 62 1 24 57
M  V30 63 1 26 58
M  V30 64 1 26 59
M  V30 65 1 27 60
M  V30 66 1 27 61
M  V30 67 1 28 62
M  V30 68 1 28 63
M  V30 69 1 29 64
M  V30 70 1 29 65
M  V30 71 1 30 66
M  V30 72 1 30 67
M  V30 73 1 31 68
M  V30 74 1 31 69
M  V30 75 1 32 70
M  V30 76 1 32 71
M  V30 77 1 33 72
M  V30 78 1 35 73
M  V30 79 1 36 74
M  V30 80 1 37 75
M  V30 81 1 37 76
M  V30 82 1 38 77
M  V30 83 1 38 78
M  V30 END BOND
M  V30 END CTAB
M  END
>  <Dataset>  (266) 
ChEMBL_Kinases

>  <Ligand_Instance>  (266) 
nan

>  <PDB_ID>  (266) 
nan

>  <Standardized_SMILES>  (266) 
CN1CCN(c2ccc(-c3n[nH]c4ccc(C(=O)NCC5(N6CCOCC6)CCCCC5)cc34)cc2)CC1

>  <Name>  (266) 
nan

>  <Pocket>  (266) 
nan

>  <ATP_Site>  (266) 
nan

>  <Peripheral>  (266) 
nan

>  <Num_H_Atoms_ProtBoundConf>  (266) 
nan

>  <Num_Resolved_Atoms>  (266) 
nan

>  <Num_Not_Resolved_Atoms>  (266) 
nan

$$$$
CHEMBL3422059
     RDKit          3D

  0  0  0  0  0  0  0  0  0  0999 V3000
M  V30 BEGIN CTAB
M  V30 COUNTS 67 72 0 0 0
M  V30 BEGIN ATOM
M  V30 1 O 2.395099 -2.756235 -0.872235 0
M  V30 2 C 1.879269 -3.459416 0.054562 0
M  V30 3 N 2.023264 -2.755498 1.261066 0
M  V30 4 C 2.626412 -1.507974 1.418583 0
M  V30 5 C 3.986752 -1.362535 1.679234 0
M  V30 6 C 4.574084 -0.106269 1.836250 0
M  V30 7 C 3.784439 1.015713 1.729878 0
M  V30 8 N 4.081061 2.325956 1.835862 0
M  V30 9 N 2.963465 3.043748 1.653800 0
M  V30 10 C 1.950596 2.190547 1.431029 0
M  V30 11 C 0.560634 2.559778 1.186833 0
M  V30 12 C 0.015310 3.523565 2.021347 0
M  V30 13 C -1.299371 3.908710 1.829969 0
M  V30 14 C -2.124047 3.398615 0.855544 0
M  V30 15 N -3.471285 3.789314 0.666456 0
M  V30 16 C -4.204881 4.678416 1.544901 0
M  V30 17 C -5.613261 4.182809 1.806191 0
M  V30 18 C -5.685569 2.692879 1.535690 0
M  V30 19 O -6.926344 2.215757 1.900786 0
M  V30 20 C -5.478973 2.533067 0.035499 0
M  V30 21 C -4.297419 3.365799 -0.421735 0
M  V30 22 C -1.542254 2.446443 0.051536 0
M  V30 23 C -0.237219 2.024603 0.196586 0
M  V30 24 C 2.448544 0.915169 1.475404 0
M  V30 25 C 1.907810 -0.330804 1.327460 0
M  V30 26 C 1.219787 -4.754508 0.086699 0
M  V30 27 C 1.895457 -5.738082 0.976705 0
M  V30 28 C 3.002713 -5.494880 1.740641 0
M  V30 29 C 3.489329 -6.548895 2.516476 0
M  V30 30 S 2.349809 -7.944214 2.164131 0
M  V30 31 C 1.300966 -7.021491 1.003311 0
M  V30 32 N 1.000720 -5.363229 -1.212515 0
M  V30 33 C 0.186845 -4.557105 -2.063193 0
M  V30 34 C 0.931709 -4.375101 -3.362019 0
M  V30 35 C 2.006902 -5.410463 -3.359931 0
M  V30 36 C 2.188163 -5.737341 -1.906019 0
M  V30 37 H 1.698361 -3.055668 2.228606 0
M  V30 38 H 4.589605 -2.259698 1.759089 0
M  V30 39 H 5.636097 -0.052164 2.037005 0
M  V30 40 H 5.046611 2.685273 2.030841 0
M  V30 41 H 0.620432 3.972481 2.821144 0
M  V30 42 H -1.661439 4.663685 2.512143 0
M  V30 43 H -3.675319 4.735240 2.513220 0
M  V30 44 H -4.209001 5.681701 1.065757 0
M  V30 45 H -6.350239 4.755786 1.206640 0
M  V30 46 H -5.857941 4.352215 2.869929 0
M  V30 47 H -4.861315 2.215166 2.090586 0
M  V30 48 H -6.971871 1.226480 1.879244 0
M  V30 49 H -6.428715 2.851980 -0.438834 0
M  V30 50 H -5.361590 1.455747 -0.160903 0
M  V30 51 H -4.745485 4.282872 -0.907443 0
M  V30 52 H -3.803804 2.831442 -1.229747 0
M  V30 53 H -2.052997 1.947823 -0.758235 0
M  V30 54 H 0.230678 1.284831 -0.420628 0
M  V30 55 H 0.858823 -0.436070 1.126651 0
M  V30 56 H 0.202825 -4.588455 0.517614 0
M  V30 57 H 3.498741 -4.539590 1.756747 0
M  V30 58 H 4.354300 -6.512363 3.171737 0
M  V30 59 H 0.486186 -7.444707 0.533059 0
M  V30 60 H -0.747193 -5.131913 -2.315760 0
M  V30 61 H -0.104160 -3.601377 -1.598608 0
M  V30 62 H 0.281132 -4.581612 -4.243873 0
M  V30 63 H 1.331961 -3.355883 -3.484290 0
M  V30 64 H 1.736084 -6.314778 -3.975009 0
M  V30 65 H 2.969447 -5.039720 -3.752898 0
M  V30 66 H 2.299423 -6.847378 -1.836637 0
M  V30 67 H 3.112610 -5.268408 -1.517152 0
M  V30 END ATOM
M  V30 BEGIN BOND
M  V30 1 2 1 2
M  V30 2 1 2 3
M  V30 3 1 3 4
M  V30 4 2 4 5
M  V30 5 1 5 6
M  V30 6 2 6 7
M  V30 7 1 7 8
M  V30 8 1 8 9
M  V30 9 2 9 10
M  V30 10 1 10 11
M  V30 11 2 11 12
M  V30 12 1 12 13
M  V30 13 2 13 14
M  V30 14 1 14 15
M  V30 15 1 15 16
M  V30 16 1 16 17
M  V30 17 1 17 18
M  V30 18 1 18 19
M  V30 19 1 18 20
M  V30 20 1 20 21
M  V30 21 1 14 22
M  V30 22 2 22 23
M  V30 23 1 10 24
M  V30 24 2 24 25
M  V30 25 1 2 26
M  V30 26 1 26 27
M  V30 27 1 27 28
M  V30 28 2 28 29
M  V30 29 1 29 30
M  V30 30 1 30 31
M  V30 31 1 26 32
M  V30 32 1 32 33
M  V30 33 1 33 34
M  V30 34 1 34 35
M  V30 35 1 35 36
M  V30 36 1 25 4
M  V30 37 2 31 27
M  V30 38 1 36 32
M  V30 39 1 24 7
M  V30 40 1 23 11
M  V30 41 1 21 15
M  V30 42 1 3 37
M  V30 43 1 5 38
M  V30 44 1 6 39
M  V30 45 1 8 40
M  V30 46 1 12 41
M  V30 47 1 13 42
M  V30 48 1 16 43
M  V30 49 1 16 44
M  V30 50 1 17 45
M  V30 51 1 17 46
M  V30 52 1 18 47
M  V30 53 1 19 48
M  V30 54 1 20 49
M  V30 55 1 20 50
M  V30 56 1 21 51
M  V30 57 1 21 52
M  V30 58 1 22 53
M  V30 59 1 23 54
M  V30 60 1 25 55
M  V30 61 1 26 56
M  V30 62 1 28 57
M  V30 63 1 29 58
M  V30 64 1 31 59
M  V30 65 1 33 60
M  V30 66 1 33 61
M  V30 67 1 34 62
M  V30 68 1 34 63
M  V30 69 1 35 64
M  V30 70 1 35 65
M  V30 71 1 36 66
M  V30 72 1 36 67
M  V30 END BOND
M  V30 END CTAB
M  END
>  <Dataset>  (267) 
ChEMBL_Kinases

>  <Ligand_Instance>  (267) 
nan

>  <PDB_ID>  (267) 
nan

>  <Standardized_SMILES>  (267) 
O=C(Nc1ccc2[nH]nc(-c3ccc(N4CCC(O)CC4)cc3)c2c1)C(c1ccsc1)N1CCCC1

>  <Name>  (267) 
nan

>  <Pocket>  (267) 
nan

>  <ATP_Site>  (267) 
nan

>  <Peripheral>  (267) 
nan

>  <Num_H_Atoms_ProtBoundConf>  (267) 
nan

>  <Num_Resolved_Atoms>  (267) 
nan

>  <Num_Not_Resolved_Atoms>  (267) 
nan

$$$$
CHEMBL3422058
     RDKit          3D

  0  0  0  0  0  0  0  0  0  0999 V3000
M  V30 BEGIN CTAB
M  V30 COUNTS 70 75 0 0 0
M  V30 BEGIN ATOM
M  V30 1 C 2.908988 -3.839015 4.525229 0
M  V30 2 N 4.139266 -3.178814 4.199005 0
M  V30 3 C 4.466872 -2.044360 4.991494 0
M  V30 4 C 4.006409 -0.722046 4.486923 0
M  V30 5 C 3.856955 -0.764419 2.984440 0
M  V30 6 O 3.911583 0.518768 2.441587 0
M  V30 7 C 2.871522 1.178577 1.805867 0
M  V30 8 C 1.574554 0.765694 1.580547 0
M  V30 9 C 0.697658 1.607870 0.910932 0
M  V30 10 C 1.030719 2.853380 0.441636 0
M  V30 11 C 0.039276 3.652782 -0.268576 0
M  V30 12 N -0.298683 4.950015 -0.151375 0
M  V30 13 N -1.268195 5.232725 -1.038562 0
M  V30 14 C -1.590984 4.129425 -1.759859 0
M  V30 15 C -2.545811 4.009947 -2.774533 0
M  V30 16 C -2.671720 2.765032 -3.343158 0
M  V30 17 C -1.891182 1.734447 -2.913155 0
M  V30 18 N -1.897670 0.399504 -3.385339 0
M  V30 19 C -2.835537 -0.369765 -2.659755 0
M  V30 20 O -3.479401 0.290838 -1.755168 0
M  V30 21 C -3.452467 -1.701940 -2.455613 0
M  V30 22 C -2.509022 -2.814782 -2.568085 0
M  V30 23 C -2.380494 -3.601609 -3.693323 0
M  V30 24 C -1.451968 -4.637796 -3.712868 0
M  V30 25 S -0.678941 -4.550077 -2.071095 0
M  V30 26 C -1.627006 -3.166437 -1.482872 0
M  V30 27 N -4.262676 -1.636977 -1.307054 0
M  V30 28 C -3.730466 -1.274688 -0.059741 0
M  V30 29 C -4.060939 -2.388769 0.918281 0
M  V30 30 C -5.286173 -3.039452 0.307972 0
M  V30 31 C -5.227089 -2.663618 -1.157665 0
M  V30 32 C -0.947455 1.905918 -1.892421 0
M  V30 33 C -0.770837 3.129755 -1.279548 0
M  V30 34 C 2.334480 3.235382 0.684762 0
M  V30 35 C 3.262064 2.445715 1.347261 0
M  V30 36 C 4.905933 -1.706056 2.446044 0
M  V30 37 C 4.450429 -3.104703 2.809950 0
M  V30 38 H 3.013536 -4.949847 4.348934 0
M  V30 39 H 2.745434 -3.726289 5.606034 0
M  V30 40 H 2.049725 -3.526658 3.899447 0
M  V30 41 H 5.583471 -2.029743 5.140613 0
M  V30 42 H 4.009160 -2.206659 5.995512 0
M  V30 43 H 4.778113 0.058838 4.689914 0
M  V30 44 H 3.056778 -0.408448 4.966026 0
M  V30 45 H 2.863471 -1.247454 2.803103 0
M  V30 46 H 1.352059 -0.206083 1.958094 0
M  V30 47 H -0.272044 1.148314 0.820417 0
M  V30 48 H -1.687719 6.204484 -1.120592 0
M  V30 49 H -3.143816 4.851110 -3.086850 0
M  V30 50 H -3.376197 2.560382 -4.135026 0
M  V30 51 H -1.532153 -0.347251 -4.045461 0
M  V30 52 H -4.197348 -1.775832 -3.331038 0
M  V30 53 H -2.959837 -3.476051 -4.594151 0
M  V30 54 H -1.222958 -5.334468 -4.486680 0
M  V30 55 H -1.444715 -2.817737 -0.533743 0
M  V30 56 H -2.703487 -0.957107 0.025570 0
M  V30 57 H -4.336273 -0.375463 0.297678 0
M  V30 58 H -4.267382 -1.944217 1.923278 0
M  V30 59 H -3.240980 -3.122909 0.980038 0
M  V30 60 H -6.170640 -2.617889 0.821923 0
M  V30 61 H -5.231618 -4.131139 0.433177 0
M  V30 62 H -5.106857 -3.524570 -1.827526 0
M  V30 63 H -6.241319 -2.219315 -1.390575 0
M  V30 64 H -0.303126 1.107110 -1.530119 0
M  V30 65 H 2.631718 4.221635 0.326173 0
M  V30 66 H 4.265674 2.878957 1.473976 0
M  V30 67 H 5.863951 -1.523352 2.979557 0
M  V30 68 H 5.050605 -1.609571 1.350640 0
M  V30 69 H 5.262120 -3.830091 2.572473 0
M  V30 70 H 3.602431 -3.357462 2.135521 0
M  V30 END ATOM
M  V30 BEGIN BOND
M  V30 1 1 1 2
M  V30 2 1 2 3
M  V30 3 1 3 4
M  V30 4 1 4 5
M  V30 5 1 5 6
M  V30 6 1 6 7
M  V30 7 2 7 8
M  V30 8 1 8 9
M  V30 9 2 9 10
M  V30 10 1 10 11
M  V30 11 2 11 12
M  V30 12 1 12 13
M  V30 13 1 13 14
M  V30 14 2 14 15
M  V30 15 1 15 16
M  V30 16 2 16 17
M  V30 17 1 17 18
M  V30 18 1 18 19
M  V30 19 2 19 20
M  V30 20 1 19 21
M  V30 21 1 21 22
M  V30 22 1 22 23
M  V30 23 2 23 24
M  V30 24 1 24 25
M  V30 25 1 25 26
M  V30 26 1 21 27
M  V30 27 1 27 28
M  V30 28 1 28 29
M  V30 29 1 29 30
M  V30 30 1 30 31
M  V30 31 1 17 32
M  V30 32 2 32 33
M  V30 33 1 10 34
M  V30 34 2 34 35
M  V30 35 1 5 36
M  V30 36 1 36 37
M  V30 37 1 37 2
M  V30 38 1 35 7
M  V30 39 1 33 11
M  V30 40 1 33 14
M  V30 41 2 26 22
M  V30 42 1 31 27
M  V30 43 1 1 38
M  V30 44 1 1 39
M  V30 45 1 1 40
M  V30 46 1 3 41
M  V30 47 1 3 42
M  V30 48 1 4 43
M  V30 49 1 4 44
M  V30 50 1 5 45
M  V30 51 1 8 46
M  V30 52 1 9 47
M  V30 53 1 13 48
M  V30 54 1 15 49
M  V30 55 1 16 50
M  V30 56 1 18 51
M  V30 57 1 21 52
M  V30 58 1 23 53
M  V30 59 1 24 54
M  V30 60 1 26 55
M  V30 61 1 28 56
M  V30 62 1 28 57
M  V30 63 1 29 58
M  V30 64 1 29 59
M  V30 65 1 30 60
M  V30 66 1 30 61
M  V30 67 1 31 62
M  V30 68 1 31 63
M  V30 69 1 32 64
M  V30 70 1 34 65
M  V30 71 1 35 66
M  V30 72 1 36 67
M  V30 73 1 36 68
M  V30 74 1 37 69
M  V30 75 1 37 70
M  V30 END BOND
M  V30 END CTAB
M  END
>  <Dataset>  (268) 
ChEMBL_Kinases

>  <Ligand_Instance>  (268) 
nan

>  <PDB_ID>  (268) 
nan

>  <Standardized_SMILES>  (268) 
CN1CCC(Oc2ccc(-c3n[nH]c4ccc(NC(=O)C(c5ccsc5)N5CCCC5)cc34)cc2)CC1

>  <Name>  (268) 
nan

>  <Pocket>  (268) 
nan

>  <ATP_Site>  (268) 
nan

>  <Peripheral>  (268) 
nan

>  <Num_H_Atoms_ProtBoundConf>  (268) 
nan

>  <Num_Resolved_Atoms>  (268) 
nan

>  <Num_Not_Resolved_Atoms>  (268) 
nan

$$$$
CHEMBL3422057
     RDKit          3D

  0  0  0  0  0  0  0  0  0  0999 V3000
M  V30 BEGIN CTAB
M  V30 COUNTS 64 69 0 0 0
M  V30 BEGIN ATOM
M  V30 1 O -0.322289 -2.097411 -0.485676 0
M  V30 2 C 0.072960 -3.231472 -0.772580 0
M  V30 3 N 1.306548 -3.704970 -0.266210 0
M  V30 4 C 2.216595 -3.034784 0.571794 0
M  V30 5 C 3.375699 -3.669652 0.954735 0
M  V30 6 C 4.324075 -3.098468 1.769739 0
M  V30 7 C 4.162317 -1.823041 2.262237 0
M  V30 8 N 4.883379 -1.012147 3.055158 0
M  V30 9 N 4.241343 0.133940 3.208690 0
M  V30 10 C 3.072039 0.095962 2.510273 0
M  V30 11 C 2.090786 1.172601 2.436067 0
M  V30 12 C 1.487860 1.589494 1.267948 0
M  V30 13 C 0.558285 2.601945 1.166018 0
M  V30 14 C 0.188586 3.264140 2.317422 0
M  V30 15 N -0.752000 4.321838 2.358998 0
M  V30 16 C -1.265738 5.132519 3.454111 0
M  V30 17 C -2.747126 5.125301 3.583297 0
M  V30 18 O -3.264573 4.191508 2.670251 0
M  V30 19 C -2.967631 4.766469 1.410457 0
M  V30 20 C -1.476419 4.889295 1.240019 0
M  V30 21 C 0.763357 2.884469 3.512206 0
M  V30 22 C 1.694046 1.860202 3.566025 0
M  V30 23 C 3.017144 -1.144179 1.907681 0
M  V30 24 C 2.105445 -1.767657 1.089982 0
M  V30 25 C -0.763047 -4.081471 -1.649422 0
M  V30 26 C 0.023868 -4.577150 -2.815564 0
M  V30 27 C 1.273088 -4.139290 -3.099695 0
M  V30 28 C 1.996617 -4.590247 -4.133317 0
M  V30 29 S 0.828907 -5.838857 -4.903234 0
M  V30 30 C -0.460851 -5.548633 -3.693847 0
M  V30 31 N -2.020484 -3.528353 -1.961277 0
M  V30 32 C -2.935257 -4.272481 -2.735114 0
M  V30 33 C -4.319527 -3.640871 -2.465709 0
M  V30 34 C -4.149653 -3.082546 -1.067917 0
M  V30 35 C -2.674303 -2.755572 -0.970418 0
M  V30 36 H 1.543103 -4.675383 -0.565354 0
M  V30 37 H 3.574652 -4.693192 0.599700 0
M  V30 38 H 5.207194 -3.668667 2.021556 0
M  V30 39 H 5.819540 -1.271073 3.481281 0
M  V30 40 H 1.745941 1.103359 0.345679 0
M  V30 41 H 0.130824 2.872931 0.225378 0
M  V30 42 H -0.910777 6.189255 3.364764 0
M  V30 43 H -0.822522 4.717295 4.388793 0
M  V30 44 H -3.158348 6.139539 3.392356 0
M  V30 45 H -3.037905 4.842071 4.592327 0
M  V30 46 H -3.367373 4.055027 0.669775 0
M  V30 47 H -3.479535 5.749310 1.387653 0
M  V30 48 H -1.262172 5.963995 1.065216 0
M  V30 49 H -1.195085 4.376121 0.298776 0
M  V30 50 H 0.587145 3.295147 4.495300 0
M  V30 51 H 2.179487 1.523056 4.495732 0
M  V30 52 H 1.235298 -1.178243 0.855758 0
M  V30 53 H -0.959075 -5.014215 -1.038802 0
M  V30 54 H 1.828769 -3.390427 -2.551016 0
M  V30 55 H 2.963223 -4.440542 -4.586240 0
M  V30 56 H -1.371670 -6.114651 -3.781774 0
M  V30 57 H -3.067908 -5.324523 -2.357507 0
M  V30 58 H -2.832597 -4.253656 -3.817429 0
M  V30 59 H -4.508703 -2.786410 -3.144524 0
M  V30 60 H -5.134351 -4.354444 -2.574596 0
M  V30 61 H -4.462155 -3.806996 -0.312846 0
M  V30 62 H -4.726297 -2.125177 -0.974833 0
M  V30 63 H -2.487401 -1.679896 -1.209256 0
M  V30 64 H -2.384883 -3.025429 0.074721 0
M  V30 END ATOM
M  V30 BEGIN BOND
M  V30 1 2 1 2
M  V30 2 1 2 3
M  V30 3 1 3 4
M  V30 4 2 4 5
M  V30 5 1 5 6
M  V30 6 2 6 7
M  V30 7 1 7 8
M  V30 8 1 8 9
M  V30 9 2 9 10
M  V30 10 1 10 11
M  V30 11 2 11 12
M  V30 12 1 12 13
M  V30 13 2 13 14
M  V30 14 1 14 15
M  V30 15 1 15 16
M  V30 16 1 16 17
M  V30 17 1 17 18
M  V30 18 1 18 19
M  V30 19 1 19 20
M  V30 20 1 14 21
M  V30 21 2 21 22
M  V30 22 1 10 23
M  V30 23 2 23 24
M  V30 24 1 2 25
M  V30 25 1 25 26
M  V30 26 1 26 27
M  V30 27 2 27 28
M  V30 28 1 28 29
M  V30 29 1 29 30
M  V30 30 1 25 31
M  V30 31 1 31 32
M  V30 32 1 32 33
M  V30 33 1 33 34
M  V30 34 1 34 35
M  V30 35 1 24 4
M  V30 36 2 30 26
M  V30 37 1 35 31
M  V30 38 1 23 7
M  V30 39 1 22 11
M  V30 40 1 20 15
M  V30 41 1 3 36
M  V30 42 1 5 37
M  V30 43 1 6 38
M  V30 44 1 8 39
M  V30 45 1 12 40
M  V30 46 1 13 41
M  V30 47 1 16 42
M  V30 48 1 16 43
M  V30 49 1 17 44
M  V30 50 1 17 45
M  V30 51 1 19 46
M  V30 52 1 19 47
M  V30 53 1 20 48
M  V30 54 1 20 49
M  V30 55 1 21 50
M  V30 56 1 22 51
M  V30 57 1 24 52
M  V30 58 1 25 53
M  V30 59 1 27 54
M  V30 60 1 28 55
M  V30 61 1 30 56
M  V30 62 1 32 57
M  V30 63 1 32 58
M  V30 64 1 33 59
M  V30 65 1 33 60
M  V30 66 1 34 61
M  V30 67 1 34 62
M  V30 68 1 35 63
M  V30 69 1 35 64
M  V30 END BOND
M  V30 END CTAB
M  END
>  <Dataset>  (269) 
ChEMBL_Kinases

>  <Ligand_Instance>  (269) 
nan

>  <PDB_ID>  (269) 
nan

>  <Standardized_SMILES>  (269) 
O=C(Nc1ccc2[nH]nc(-c3ccc(N4CCOCC4)cc3)c2c1)C(c1ccsc1)N1CCCC1

>  <Name>  (269) 
nan

>  <Pocket>  (269) 
nan

>  <ATP_Site>  (269) 
nan

>  <Peripheral>  (269) 
nan

>  <Num_H_Atoms_ProtBoundConf>  (269) 
nan

>  <Num_Resolved_Atoms>  (269) 
nan

>  <Num_Not_Resolved_Atoms>  (269) 
nan

$$$$
CHEMBL3422056
     RDKit          3D

  0  0  0  0  0  0  0  0  0  0999 V3000
M  V30 BEGIN CTAB
M  V30 COUNTS 68 73 0 0 0
M  V30 BEGIN ATOM
M  V30 1 C 7.208455 1.681634 3.215630 0
M  V30 2 N 7.407982 1.181257 1.890794 0
M  V30 3 C 7.063020 -0.171925 1.672385 0
M  V30 4 C 5.833866 -0.381040 0.827254 0
M  V30 5 N 5.245314 0.868796 0.398341 0
M  V30 6 C 3.899815 1.241097 0.589863 0
M  V30 7 C 2.994339 0.431649 1.231909 0
M  V30 8 C 1.675707 0.785008 1.425809 0
M  V30 9 C 1.195263 2.003602 0.969375 0
M  V30 10 C -0.189020 2.428940 1.148283 0
M  V30 11 N -0.462108 3.674488 1.550160 0
M  V30 12 N -1.770010 3.865902 1.652872 0
M  V30 13 C -2.415009 2.728893 1.314816 0
M  V30 14 C -3.738342 2.312828 1.227406 0
M  V30 15 C -3.987314 1.007726 0.824762 0
M  V30 16 C -2.976842 0.139129 0.518265 0
M  V30 17 N -3.337782 -1.171922 0.123841 0
M  V30 18 C -3.617972 -1.743505 -1.140455 0
M  V30 19 O -3.531538 -0.919490 -2.119095 0
M  V30 20 C -3.984073 -3.086642 -1.525951 0
M  V30 21 C -5.368782 -3.093246 -2.135836 0
M  V30 22 C -5.867213 -4.278678 -2.571911 0
M  V30 23 C -7.116051 -4.318442 -3.119926 0
M  V30 24 S -7.708877 -2.618019 -3.060742 0
M  V30 25 C -6.236292 -1.945544 -2.298120 0
M  V30 26 N -3.928487 -4.134120 -0.607693 0
M  V30 27 C -2.709878 -4.514644 -0.011549 0
M  V30 28 C -3.133206 -5.812839 0.698082 0
M  V30 29 C -4.644403 -5.730873 0.837595 0
M  V30 30 C -4.915534 -4.284663 0.385894 0
M  V30 31 C -1.647209 0.520278 0.594272 0
M  V30 32 C -1.417369 1.819594 0.995666 0
M  V30 33 C 2.077516 2.829710 0.325544 0
M  V30 34 C 3.389008 2.438170 0.152007 0
M  V30 35 C 6.263873 1.664272 -0.251153 0
M  V30 36 C 7.230314 2.101016 0.829181 0
M  V30 37 H 7.597267 0.935807 3.935047 0
M  V30 38 H 6.190266 1.996159 3.439623 0
M  V30 39 H 7.878985 2.573834 3.345452 0
M  V30 40 H 7.915720 -0.745542 1.293469 0
M  V30 41 H 6.833153 -0.617947 2.681817 0
M  V30 42 H 6.188131 -0.872914 -0.128692 0
M  V30 43 H 5.132041 -1.104402 1.255485 0
M  V30 44 H 3.244778 -0.522289 1.623805 0
M  V30 45 H 0.964690 0.146413 1.930880 0
M  V30 46 H -2.284343 4.728815 1.941585 0
M  V30 47 H -4.497688 3.044267 1.482308 0
M  V30 48 H -5.049465 0.760481 0.781181 0
M  V30 49 H -3.403899 -1.794734 0.926659 0
M  V30 50 H -3.297678 -3.377015 -2.386477 0
M  V30 51 H -5.404146 -5.250412 -2.552288 0
M  V30 52 H -7.757372 -5.095612 -3.541864 0
M  V30 53 H -5.823140 -0.926167 -1.927013 0
M  V30 54 H -1.936872 -4.768512 -0.770721 0
M  V30 55 H -2.312617 -3.873068 0.791946 0
M  V30 56 H -2.931873 -6.634345 -0.006798 0
M  V30 57 H -2.617092 -5.928998 1.669319 0
M  V30 58 H -4.950707 -5.866497 1.894580 0
M  V30 59 H -5.192539 -6.386515 0.154086 0
M  V30 60 H -5.949585 -4.201346 -0.010485 0
M  V30 61 H -4.775293 -3.696385 1.315423 0
M  V30 62 H -0.836871 -0.160252 0.352631 0
M  V30 63 H 1.699412 3.774757 -0.026827 0
M  V30 64 H 3.989672 3.166691 -0.365402 0
M  V30 65 H 5.874039 2.577813 -0.713773 0
M  V30 66 H 6.818678 1.044441 -0.995514 0
M  V30 67 H 8.224112 2.282116 0.357704 0
M  V30 68 H 6.871850 3.092097 1.230047 0
M  V30 END ATOM
M  V30 BEGIN BOND
M  V30 1 1 1 2
M  V30 2 1 2 3
M  V30 3 1 3 4
M  V30 4 1 4 5
M  V30 5 1 5 6
M  V30 6 2 6 7
M  V30 7 1 7 8
M  V30 8 2 8 9
M  V30 9 1 9 10
M  V30 10 2 10 11
M  V30 11 1 11 12
M  V30 12 1 12 13
M  V30 13 2 13 14
M  V30 14 1 14 15
M  V30 15 2 15 16
M  V30 16 1 16 17
M  V30 17 1 17 18
M  V30 18 2 18 19
M  V30 19 1 18 20
M  V30 20 1 20 21
M  V30 21 1 21 22
M  V30 22 2 22 23
M  V30 23 1 23 24
M  V30 24 1 24 25
M  V30 25 1 20 26
M  V30 26 1 26 27
M  V30 27 1 27 28
M  V30 28 1 28 29
M  V30 29 1 29 30
M  V30 30 1 16 31
M  V30 31 2 31 32
M  V30 32 1 9 33
M  V30 33 2 33 34
M  V30 34 1 5 35
M  V30 35 1 35 36
M  V30 36 1 36 2
M  V30 37 1 34 6
M  V30 38 1 32 10
M  V30 39 1 32 13
M  V30 40 2 25 21
M  V30 41 1 30 26
M  V30 42 1 1 37
M  V30 43 1 1 38
M  V30 44 1 1 39
M  V30 45 1 3 40
M  V30 46 1 3 41
M  V30 47 1 4 42
M  V30 48 1 4 43
M  V30 49 1 7 44
M  V30 50 1 8 45
M  V30 51 1 12 46
M  V30 52 1 14 47
M  V30 53 1 15 48
M  V30 54 1 17 49
M  V30 55 1 20 50
M  V30 56 1 22 51
M  V30 57 1 23 52
M  V30 58 1 25 53
M  V30 59 1 27 54
M  V30 60 1 27 55
M  V30 61 1 28 56
M  V30 62 1 28 57
M  V30 63 1 29 58
M  V30 64 1 29 59
M  V30 65 1 30 60
M  V30 66 1 30 61
M  V30 67 1 31 62
M  V30 68 1 33 63
M  V30 69 1 34 64
M  V30 70 1 35 65
M  V30 71 1 35 66
M  V30 72 1 36 67
M  V30 73 1 36 68
M  V30 END BOND
M  V30 END CTAB
M  END
>  <Dataset>  (270) 
ChEMBL_Kinases

>  <Ligand_Instance>  (270) 
nan

>  <PDB_ID>  (270) 
nan

>  <Standardized_SMILES>  (270) 
CN1CCN(c2ccc(-c3n[nH]c4ccc(NC(=O)C(c5ccsc5)N5CCCC5)cc34)cc2)CC1

>  <Name>  (270) 
nan

>  <Pocket>  (270) 
nan

>  <ATP_Site>  (270) 
nan

>  <Peripheral>  (270) 
nan

>  <Num_H_Atoms_ProtBoundConf>  (270) 
nan

>  <Num_Resolved_Atoms>  (270) 
nan

>  <Num_Not_Resolved_Atoms>  (270) 
nan

$$$$
CHEMBL3422055
     RDKit          3D

  0  0  0  0  0  0  0  0  0  0999 V3000
M  V30 BEGIN CTAB
M  V30 COUNTS 74 79 0 0 0
M  V30 BEGIN ATOM
M  V30 1 C 4.152939 -2.894666 4.405081 0
M  V30 2 N 4.516494 -4.162859 3.851565 0
M  V30 3 C 3.392663 -5.005474 3.551519 0
M  V30 4 C 2.559595 -4.491406 2.398070 0
M  V30 5 N 3.313276 -3.606537 1.533668 0
M  V30 6 C 3.051418 -2.394140 0.840326 0
M  V30 7 C 3.866270 -1.347644 1.224018 0
M  V30 8 C 3.751722 -0.092293 0.653862 0
M  V30 9 C 2.791585 0.104708 -0.324720 0
M  V30 10 C 2.630246 1.401168 -0.955319 0
M  V30 11 N 3.654575 2.164059 -1.400386 0
M  V30 12 N 3.171984 3.292510 -1.925807 0
M  V30 13 C 1.832083 3.329569 -1.854975 0
M  V30 14 C 0.887791 4.255329 -2.249188 0
M  V30 15 C -0.462131 3.971378 -2.018615 0
M  V30 16 C -0.799095 2.779473 -1.407091 0
M  V30 17 N -2.131023 2.387447 -1.123306 0
M  V30 18 C -3.028846 1.650281 -1.940204 0
M  V30 19 O -2.401884 1.389037 -3.027637 0
M  V30 20 C -4.395072 1.293901 -1.549856 0
M  V30 21 C -4.595917 -0.195185 -1.695197 0
M  V30 22 C -3.643103 -1.075478 -2.099811 0
M  V30 23 C -4.017011 -2.473590 -2.189745 0
M  V30 24 S -5.773550 -2.494808 -1.678233 0
M  V30 25 C -5.907640 -0.677818 -1.379801 0
M  V30 26 N -4.805927 1.776672 -0.302883 0
M  V30 27 C -4.232767 1.259107 0.882341 0
M  V30 28 C -5.385889 0.661033 1.687457 0
M  V30 29 C -6.596194 1.431764 1.197539 0
M  V30 30 C -6.159425 2.110114 -0.083714 0
M  V30 31 C 0.172683 1.853422 -1.014645 0
M  V30 32 C 1.506065 2.140886 -1.245969 0
M  V30 33 C 1.983760 -0.948317 -0.699495 0
M  V30 34 C 2.094012 -2.203966 -0.133266 0
M  V30 35 S 1.101961 -3.578717 -0.563414 0
M  V30 36 C -0.047729 -3.068472 -1.849037 0
M  V30 37 O 0.205010 -4.007571 0.590179 0
M  V30 38 O 1.883621 -4.721681 -1.112148 0
M  V30 39 C 4.655979 -4.184937 1.404577 0
M  V30 40 C 5.408443 -4.088609 2.712695 0
M  V30 41 H 4.908795 -2.108567 4.243746 0
M  V30 42 H 3.126596 -2.597499 4.069411 0
M  V30 43 H 4.091254 -3.017803 5.523162 0
M  V30 44 H 3.836565 -6.006311 3.280824 0
M  V30 45 H 2.771398 -5.152632 4.458555 0
M  V30 46 H 1.707543 -3.938411 2.886270 0
M  V30 47 H 2.201642 -5.407206 1.854196 0
M  V30 48 H 4.654463 -1.370139 1.975715 0
M  V30 49 H 4.352095 0.773492 0.901721 0
M  V30 50 H 3.815726 4.015049 -2.325353 0
M  V30 51 H 1.184631 5.170411 -2.721122 0
M  V30 52 H -1.244797 4.656274 -2.304629 0
M  V30 53 H -2.389773 2.729911 -0.182651 0
M  V30 54 H -5.072161 1.721503 -2.346544 0
M  V30 55 H -2.645548 -0.770034 -2.343904 0
M  V30 56 H -3.232700 -3.233571 -2.527963 0
M  V30 57 H -6.842046 -0.361073 -1.062027 0
M  V30 58 H -3.896926 2.129861 1.523028 0
M  V30 59 H -3.374443 0.595573 0.785611 0
M  V30 60 H -5.516302 -0.402066 1.477824 0
M  V30 61 H -5.280211 0.836363 2.763204 0
M  V30 62 H -6.928294 2.162379 1.956757 0
M  V30 63 H -7.443986 0.762752 0.953394 0
M  V30 64 H -6.851854 1.986977 -0.916538 0
M  V30 65 H -6.182115 3.225451 0.135338 0
M  V30 66 H -0.096115 0.906546 -0.528427 0
M  V30 67 H 1.210721 -0.877652 -1.455367 0
M  V30 68 H -0.505301 -2.114730 -1.453974 0
M  V30 69 H -0.788882 -3.862940 -1.999946 0
M  V30 70 H 0.473866 -2.769010 -2.774018 0
M  V30 71 H 4.604713 -5.230150 1.034078 0
M  V30 72 H 5.251036 -3.636165 0.646822 0
M  V30 73 H 6.079214 -4.973226 2.764481 0
M  V30 74 H 6.056437 -3.196253 2.791355 0
M  V30 END ATOM
M  V30 BEGIN BOND
M  V30 1 1 1 2
M  V30 2 1 2 3
M  V30 3 1 3 4
M  V30 4 1 4 5
M  V30 5 1 5 6
M  V30 6 2 6 7
M  V30 7 1 7 8
M  V30 8 2 8 9
M  V30 9 1 9 10
M  V30 10 2 10 11
M  V30 11 1 11 12
M  V30 12 1 12 13
M  V30 13 2 13 14
M  V30 14 1 14 15
M  V30 15 2 15 16
M  V30 16 1 16 17
M  V30 17 1 17 18
M  V30 18 2 18 19
M  V30 19 1 18 20
M  V30 20 1 20 21
M  V30 21 1 21 22
M  V30 22 2 22 23
M  V30 23 1 23 24
M  V30 24 1 24 25
M  V30 25 1 20 26
M  V30 26 1 26 27
M  V30 27 1 27 28
M  V30 28 1 28 29
M  V30 29 1 29 30
M  V30 30 1 16 31
M  V30 31 2 31 32
M  V30 32 1 9 33
M  V30 33 2 33 34
M  V30 34 1 34 35
M  V30 35 1 35 36
M  V30 36 2 35 37
M  V30 37 2 35 38
M  V30 38 1 5 39
M  V30 39 1 39 40
M  V30 40 1 40 2
M  V30 41 1 34 6
M  V30 42 1 32 10
M  V30 43 1 32 13
M  V30 44 2 25 21
M  V30 45 1 30 26
M  V30 46 1 1 41
M  V30 47 1 1 42
M  V30 48 1 1 43
M  V30 49 1 3 44
M  V30 50 1 3 45
M  V30 51 1 4 46
M  V30 52 1 4 47
M  V30 53 1 7 48
M  V30 54 1 8 49
M  V30 55 1 12 50
M  V30 56 1 14 51
M  V30 57 1 15 52
M  V30 58 1 17 53
M  V30 59 1 20 54
M  V30 60 1 22 55
M  V30 61 1 23 56
M  V30 62 1 25 57
M  V30 63 1 27 58
M  V30 64 1 27 59
M  V30 65 1 28 60
M  V30 66 1 28 61
M  V30 67 1 29 62
M  V30 68 1 29 63
M  V30 69 1 30 64
M  V30 70 1 30 65
M  V30 71 1 31 66
M  V30 72 1 33 67
M  V30 73 1 36 68
M  V30 74 1 36 69
M  V30 75 1 36 70
M  V30 76 1 39 71
M  V30 77 1 39 72
M  V30 78 1 40 73
M  V30 79 1 40 74
M  V30 END BOND
M  V30 END CTAB
M  END
>  <Dataset>  (271) 
ChEMBL_Kinases

>  <Ligand_Instance>  (271) 
nan

>  <PDB_ID>  (271) 
nan

>  <Standardized_SMILES>  (271) 
CN1CCN(c2ccc(-c3n[nH]c4ccc(NC(=O)C(c5ccsc5)N5CCCC5)cc34)cc2S(C)(=O)=O)CC1

>  <Name>  (271) 
nan

>  <Pocket>  (271) 
nan

>  <ATP_Site>  (271) 
nan

>  <Peripheral>  (271) 
nan

>  <Num_H_Atoms_ProtBoundConf>  (271) 
nan

>  <Num_Resolved_Atoms>  (271) 
nan

>  <Num_Not_Resolved_Atoms>  (271) 
nan

$$$$
CHEMBL3422054
     RDKit          3D

  0  0  0  0  0  0  0  0  0  0999 V3000
M  V30 BEGIN CTAB
M  V30 COUNTS 57 61 0 0 0
M  V30 BEGIN ATOM
M  V30 1 C 7.535157 -2.275961 2.170016 0
M  V30 2 S 6.011191 -3.076673 1.663326 0
M  V30 3 O 5.848009 -4.351145 2.439763 0
M  V30 4 O 6.078581 -3.306051 0.192654 0
M  V30 5 C 4.720577 -1.946280 2.023875 0
M  V30 6 C 4.069420 -1.945124 3.253828 0
M  V30 7 C 3.055067 -1.049300 3.523613 0
M  V30 8 C 2.671536 -0.132954 2.562023 0
M  V30 9 C 3.299174 -0.107997 1.328523 0
M  V30 10 C 2.844263 0.885797 0.359262 0
M  V30 11 N 3.737910 1.607918 -0.340381 0
M  V30 12 N 3.122507 2.447550 -1.160184 0
M  V30 13 C 1.776461 2.307095 -1.028565 0
M  V30 14 C 0.625282 2.851904 -1.563445 0
M  V30 15 C -0.612029 2.406556 -1.134618 0
M  V30 16 C -0.762733 1.423456 -0.178050 0
M  V30 17 N -2.058496 1.004644 0.224640 0
M  V30 18 C -2.656773 -0.068758 -0.490195 0
M  V30 19 O -1.824270 -0.424310 -1.390714 0
M  V30 20 C -3.992761 -0.510223 -0.084876 0
M  V30 21 C -3.963175 -0.990379 1.346488 0
M  V30 22 C -5.102666 -1.530798 1.881366 0
M  V30 23 C -5.053995 -1.971016 3.187240 0
M  V30 24 S -3.367661 -1.638726 3.736431 0
M  V30 25 C -2.816161 -0.920323 2.166911 0
M  V30 26 N -4.584141 -1.505829 -0.942537 0
M  V30 27 C -3.855199 -2.728062 -1.058720 0
M  V30 28 C -3.598378 -2.996027 -2.522130 0
M  V30 29 C -4.661786 -2.180412 -3.210496 0
M  V30 30 C -4.780464 -0.979295 -2.262216 0
M  V30 31 C 0.383124 0.863817 0.371223 0
M  V30 32 C 1.608779 1.324659 -0.072719 0
M  V30 33 C 4.311714 -1.012628 1.078373 0
M  V30 34 H 7.398793 -1.997766 3.235493 0
M  V30 35 H 8.410037 -2.915953 2.012790 0
M  V30 36 H 7.602165 -1.301695 1.609634 0
M  V30 37 H 4.413871 -2.683738 3.962051 0
M  V30 38 H 2.641187 -1.163091 4.516381 0
M  V30 39 H 1.876046 0.512265 2.879189 0
M  V30 40 H 3.537157 3.125353 -1.818511 0
M  V30 41 H 0.775024 3.622174 -2.312808 0
M  V30 42 H -1.483274 2.873562 -1.592623 0
M  V30 43 H -2.486848 1.537222 1.040202 0
M  V30 44 H -4.672418 0.365664 -0.091566 0
M  V30 45 H -6.058298 -1.659611 1.399701 0
M  V30 46 H -5.770236 -2.416809 3.827673 0
M  V30 47 H -1.860190 -0.561310 1.980027 0
M  V30 48 H -4.520165 -3.556910 -0.694698 0
M  V30 49 H -2.898972 -2.738875 -0.500278 0
M  V30 50 H -3.718509 -4.089264 -2.760906 0
M  V30 51 H -2.607176 -2.626092 -2.838754 0
M  V30 52 H -4.337370 -1.806818 -4.221110 0
M  V30 53 H -5.588265 -2.756249 -3.240025 0
M  V30 54 H -3.926314 -0.327807 -2.569383 0
M  V30 55 H -5.759347 -0.522105 -2.440887 0
M  V30 56 H 0.285669 0.094125 1.120293 0
M  V30 57 H 4.801384 -0.995148 0.119498 0
M  V30 END ATOM
M  V30 BEGIN BOND
M  V30 1 1 1 2
M  V30 2 2 2 3
M  V30 3 2 2 4
M  V30 4 1 2 5
M  V30 5 2 5 6
M  V30 6 1 6 7
M  V30 7 2 7 8
M  V30 8 1 8 9
M  V30 9 1 9 10
M  V30 10 2 10 11
M  V30 11 1 11 12
M  V30 12 1 12 13
M  V30 13 2 13 14
M  V30 14 1 14 15
M  V30 15 2 15 16
M  V30 16 1 16 17
M  V30 17 1 17 18
M  V30 18 2 18 19
M  V30 19 1 18 20
M  V30 20 1 20 21
M  V30 21 1 21 22
M  V30 22 2 22 23
M  V30 23 1 23 24
M  V30 24 1 24 25
M  V30 25 1 20 26
M  V30 26 1 26 27
M  V30 27 1 27 28
M  V30 28 1 28 29
M  V30 29 1 29 30
M  V30 30 1 16 31
M  V30 31 2 31 32
M  V30 32 2 9 33
M  V30 33 1 33 5
M  V30 34 1 32 10
M  V30 35 1 32 13
M  V30 36 2 25 21
M  V30 37 1 30 26
M  V30 38 1 1 34
M  V30 39 1 1 35
M  V30 40 1 1 36
M  V30 41 1 6 37
M  V30 42 1 7 38
M  V30 43 1 8 39
M  V30 44 1 12 40
M  V30 45 1 14 41
M  V30 46 1 15 42
M  V30 47 1 17 43
M  V30 48 1 20 44
M  V30 49 1 22 45
M  V30 50 1 23 46
M  V30 51 1 25 47
M  V30 52 1 27 48
M  V30 53 1 27 49
M  V30 54 1 28 50
M  V30 55 1 28 51
M  V30 56 1 29 52
M  V30 57 1 29 53
M  V30 58 1 30 54
M  V30 59 1 30 55
M  V30 60 1 31 56
M  V30 61 1 33 57
M  V30 END BOND
M  V30 END CTAB
M  END
>  <Dataset>  (272) 
ChEMBL_Kinases

>  <Ligand_Instance>  (272) 
nan

>  <PDB_ID>  (272) 
nan

>  <Standardized_SMILES>  (272) 
CS(=O)(=O)c1cccc(-c2n[nH]c3ccc(NC(=O)C(c4ccsc4)N4CCCC4)cc23)c1

>  <Name>  (272) 
nan

>  <Pocket>  (272) 
nan

>  <ATP_Site>  (272) 
nan

>  <Peripheral>  (272) 
nan

>  <Num_H_Atoms_ProtBoundConf>  (272) 
nan

>  <Num_Resolved_Atoms>  (272) 
nan

>  <Num_Not_Resolved_Atoms>  (272) 
nan

$$$$
CHEMBL3422053
     RDKit          3D

  0  0  0  0  0  0  0  0  0  0999 V3000
M  V30 BEGIN CTAB
M  V30 COUNTS 74 78 0 0 0
M  V30 BEGIN ATOM
M  V30 1 C 6.376294 -4.556296 1.985071 0
M  V30 2 N 5.007376 -4.909704 2.187095 0
M  V30 3 C 4.923532 -5.875784 3.255610 0
M  V30 4 C 4.341377 -5.445926 1.023289 0
M  V30 5 C 4.171234 -4.334002 -0.039709 0
M  V30 6 C 3.355964 -3.287697 0.618790 0
M  V30 7 C 2.966696 -2.106159 -0.122472 0
M  V30 8 C 1.682127 -2.229753 -0.682796 0
M  V30 9 C 1.028998 -1.281604 -1.445993 0
M  V30 10 C 1.675956 -0.089579 -1.698127 0
M  V30 11 C 1.061492 0.968768 -2.492171 0
M  V30 12 N 1.659736 1.673947 -3.489360 0
M  V30 13 N 0.828093 2.559059 -4.009256 0
M  V30 14 C -0.352691 2.473243 -3.375516 0
M  V30 15 C -1.548194 3.145267 -3.510294 0
M  V30 16 C -2.577523 2.785634 -2.667227 0
M  V30 17 C -2.510150 1.813248 -1.704165 0
M  V30 18 N -3.559558 1.430313 -0.837381 0
M  V30 19 C -4.888404 1.841089 -0.680599 0
M  V30 20 O -5.213486 2.755770 -1.519364 0
M  V30 21 C -5.877457 1.348149 0.289150 0
M  V30 22 C -6.440074 0.006336 -0.072367 0
M  V30 23 C -5.914642 -1.143309 0.421579 0
M  V30 24 C -6.415491 -2.370493 0.101138 0
M  V30 25 S -7.821680 -1.971983 -1.047844 0
M  V30 26 C -7.532638 -0.146110 -0.935299 0
M  V30 27 N -5.574616 1.506617 1.669866 0
M  V30 28 C -5.822122 2.917124 2.072400 0
M  V30 29 C -5.185545 2.944491 3.433976 0
M  V30 30 C -4.353401 1.687035 3.585796 0
M  V30 31 C -4.213992 1.299104 2.087942 0
M  V30 32 C -1.291681 1.181423 -1.620899 0
M  V30 33 C -0.228447 1.487264 -2.425146 0
M  V30 34 C 2.937487 0.058135 -1.160382 0
M  V30 35 C 3.583700 -0.916866 -0.387950 0
M  V30 36 S 5.156525 -0.638443 0.235117 0
M  V30 37 C 6.377308 -1.622114 -0.562817 0
M  V30 38 O 5.520597 0.796384 -0.027376 0
M  V30 39 O 5.223846 -0.785754 1.739236 0
M  V30 40 H 6.517359 -3.495892 2.269342 0
M  V30 41 H 7.077771 -5.138153 2.627839 0
M  V30 42 H 6.732912 -4.650576 0.938771 0
M  V30 43 H 5.944460 -6.232200 3.565732 0
M  V30 44 H 4.495195 -5.438754 4.188712 0
M  V30 45 H 4.366224 -6.788551 2.966034 0
M  V30 46 H 3.361796 -5.833641 1.344480 0
M  V30 47 H 5.007628 -6.223505 0.582032 0
M  V30 48 H 5.173759 -4.108994 -0.352498 0
M  V30 49 H 3.581341 -4.745570 -0.892231 0
M  V30 50 H 3.897692 -3.017323 1.592074 0
M  V30 51 H 2.459998 -3.831253 1.048874 0
M  V30 52 H 1.051505 -3.129484 -0.560402 0
M  V30 53 H 0.042502 -1.421654 -1.858894 0
M  V30 54 H 1.058767 3.220245 -4.791590 0
M  V30 55 H -1.644885 3.922337 -4.260009 0
M  V30 56 H -3.470896 3.339486 -2.820136 0
M  V30 57 H -3.333198 0.644886 -0.155796 0
M  V30 58 H -6.789050 2.055042 0.148052 0
M  V30 59 H -5.113348 -1.416478 1.077864 0
M  V30 60 H -6.369970 -3.434995 0.206427 0
M  V30 61 H -8.084867 0.651805 -1.429021 0
M  V30 62 H -6.923333 3.018261 2.096522 0
M  V30 63 H -5.329275 3.538253 1.323802 0
M  V30 64 H -6.013327 2.997461 4.169857 0
M  V30 65 H -4.593447 3.875109 3.486420 0
M  V30 66 H -3.378083 1.853144 4.045791 0
M  V30 67 H -4.972758 0.905024 4.063330 0
M  V30 68 H -3.908586 0.262460 2.106901 0
M  V30 69 H -3.486543 2.026116 1.667466 0
M  V30 70 H -1.136920 0.400974 -0.889060 0
M  V30 71 H 3.495972 0.990465 -1.332964 0
M  V30 72 H 5.941553 -2.152329 -1.440636 0
M  V30 73 H 6.748564 -2.392537 0.133956 0
M  V30 74 H 7.273156 -1.031205 -0.867117 0
M  V30 END ATOM
M  V30 BEGIN BOND
M  V30 1 1 1 2
M  V30 2 1 2 3
M  V30 3 1 2 4
M  V30 4 1 4 5
M  V30 5 1 5 6
M  V30 6 1 6 7
M  V30 7 2 7 8
M  V30 8 1 8 9
M  V30 9 2 9 10
M  V30 10 1 10 11
M  V30 11 2 11 12
M  V30 12 1 12 13
M  V30 13 1 13 14
M  V30 14 2 14 15
M  V30 15 1 15 16
M  V30 16 2 16 17
M  V30 17 1 17 18
M  V30 18 1 18 19
M  V30 19 2 19 20
M  V30 20 1 19 21
M  V30 21 1 21 22
M  V30 22 1 22 23
M  V30 23 2 23 24
M  V30 24 1 24 25
M  V30 25 1 25 26
M  V30 26 1 21 27
M  V30 27 1 27 28
M  V30 28 1 28 29
M  V30 29 1 29 30
M  V30 30 1 30 31
M  V30 31 1 17 32
M  V30 32 2 32 33
M  V30 33 1 10 34
M  V30 34 2 34 35
M  V30 35 1 35 36
M  V30 36 1 36 37
M  V30 37 2 36 38
M  V30 38 2 36 39
M  V30 39 1 35 7
M  V30 40 1 33 11
M  V30 41 1 33 14
M  V30 42 2 26 22
M  V30 43 1 31 27
M  V30 44 1 1 40
M  V30 45 1 1 41
M  V30 46 1 1 42
M  V30 47 1 3 43
M  V30 48 1 3 44
M  V30 49 1 3 45
M  V30 50 1 4 46
M  V30 51 1 4 47
M  V30 52 1 5 48
M  V30 53 1 5 49
M  V30 54 1 6 50
M  V30 55 1 6 51
M  V30 56 1 8 52
M  V30 57 1 9 53
M  V30 58 1 13 54
M  V30 59 1 15 55
M  V30 60 1 16 56
M  V30 61 1 18 57
M  V30 62 1 21 58
M  V30 63 1 23 59
M  V30 64 1 24 60
M  V30 65 1 26 61
M  V30 66 1 28 62
M  V30 67 1 28 63
M  V30 68 1 29 64
M  V30 69 1 29 65
M  V30 70 1 30 66
M  V30 71 1 30 67
M  V30 72 1 31 68
M  V30 73 1 31 69
M  V30 74 1 32 70
M  V30 75 1 34 71
M  V30 76 1 37 72
M  V30 77 1 37 73
M  V30 78 1 37 74
M  V30 END BOND
M  V30 END CTAB
M  END
>  <Dataset>  (273) 
ChEMBL_Kinases

>  <Ligand_Instance>  (273) 
nan

>  <PDB_ID>  (273) 
nan

>  <Standardized_SMILES>  (273) 
CN(C)CCCc1ccc(-c2n[nH]c3ccc(NC(=O)C(c4ccsc4)N4CCCC4)cc23)cc1S(C)(=O)=O

>  <Name>  (273) 
nan

>  <Pocket>  (273) 
nan

>  <ATP_Site>  (273) 
nan

>  <Peripheral>  (273) 
nan

>  <Num_H_Atoms_ProtBoundConf>  (273) 
nan

>  <Num_Resolved_Atoms>  (273) 
nan

>  <Num_Not_Resolved_Atoms>  (273) 
nan

$$$$
CHEMBL3421980
     RDKit          3D

  0  0  0  0  0  0  0  0  0  0999 V3000
M  V30 BEGIN CTAB
M  V30 COUNTS 39 42 0 0 0
M  V30 BEGIN ATOM
M  V30 1 C 1.925960 3.408061 -3.166394 0
M  V30 2 C 0.738898 2.620362 -2.743419 0
M  V30 3 N -0.519869 2.831744 -3.165239 0
M  V30 4 C -1.559512 2.089643 -2.751370 0
M  V30 5 C -1.327580 1.057068 -1.847407 0
M  V30 6 C -0.043480 0.830441 -1.407958 0
M  V30 7 C 0.237109 -0.244732 -0.459076 0
M  V30 8 C -0.621946 -1.154664 0.129668 0
M  V30 9 N 0.092829 -1.975352 0.951802 0
M  V30 10 C -0.479607 -3.067149 1.747794 0
M  V30 11 C -0.895630 -2.612589 3.080960 0
M  V30 12 C -2.188315 -2.151642 3.219429 0
M  V30 13 C -2.639799 -1.711261 4.443525 0
M  V30 14 C -1.862441 -1.699303 5.577043 0
M  V30 15 C -0.573410 -2.163549 5.419598 0
M  V30 16 C -0.071743 -2.616709 4.211655 0
M  V30 17 C 1.388716 -1.617497 0.907508 0
M  V30 18 C 2.515176 -2.108988 1.536361 0
M  V30 19 N 3.753660 -1.579961 1.338508 0
M  V30 20 C 3.866543 -0.531071 0.488378 0
M  V30 21 C 2.751103 -0.026293 -0.149369 0
M  V30 22 C 1.489396 -0.549842 0.039389 0
M  V30 23 N 0.954426 1.622027 -1.871136 0
M  V30 24 H 2.048611 4.268467 -2.469502 0
M  V30 25 H 1.703063 3.832803 -4.165137 0
M  V30 26 H 2.811182 2.736175 -3.187048 0
M  V30 27 H -2.550442 2.300893 -3.120733 0
M  V30 28 H -2.157640 0.450747 -1.505476 0
M  V30 29 H -1.683271 -1.195834 -0.043529 0
M  V30 30 H 0.312361 -3.850858 1.868003 0
M  V30 31 H -1.341287 -3.541492 1.250738 0
M  V30 32 H -2.860187 -2.132350 2.364395 0
M  V30 33 H -3.660226 -1.356136 4.516075 0
M  V30 34 H -2.200846 -1.357441 6.544109 0
M  V30 35 H 0.072382 -2.171108 6.287630 0
M  V30 36 H 0.938796 -2.978643 4.096695 0
M  V30 37 H 2.427426 -2.944923 2.214321 0
M  V30 38 H 4.875112 -0.155943 0.373562 0
M  V30 39 H 2.921447 0.806094 -0.808242 0
M  V30 END ATOM
M  V30 BEGIN BOND
M  V30 1 1 1 2
M  V30 2 2 2 3
M  V30 3 1 3 4
M  V30 4 2 4 5
M  V30 5 1 5 6
M  V30 6 1 6 7
M  V30 7 2 7 8
M  V30 8 1 8 9
M  V30 9 1 9 10
M  V30 10 1 10 11
M  V30 11 2 11 12
M  V30 12 1 12 13
M  V30 13 2 13 14
M  V30 14 1 14 15
M  V30 15 2 15 16
M  V30 16 1 9 17
M  V30 17 2 17 18
M  V30 18 1 18 19
M  V30 19 2 19 20
M  V30 20 1 20 21
M  V30 21 2 21 22
M  V30 22 2 6 23
M  V30 23 1 23 2
M  V30 24 1 22 7
M  V30 25 1 16 11
M  V30 26 1 22 17
M  V30 27 1 1 24
M  V30 28 1 1 25
M  V30 29 1 1 26
M  V30 30 1 4 27
M  V30 31 1 5 28
M  V30 32 1 8 29
M  V30 33 1 10 30
M  V30 34 1 10 31
M  V30 35 1 12 32
M  V30 36 1 13 33
M  V30 37 1 14 34
M  V30 38 1 15 35
M  V30 39 1 16 36
M  V30 40 1 18 37
M  V30 41 1 20 38
M  V30 42 1 21 39
M  V30 END BOND
M  V30 END CTAB
M  END
>  <Dataset>  (274) 
ChEMBL_Kinases

>  <Ligand_Instance>  (274) 
nan

>  <PDB_ID>  (274) 
nan

>  <Standardized_SMILES>  (274) 
Cc1nccc(-c2cn(Cc3ccccc3)c3cnccc23)n1

>  <Name>  (274) 
nan

>  <Pocket>  (274) 
nan

>  <ATP_Site>  (274) 
nan

>  <Peripheral>  (274) 
nan

>  <Num_H_Atoms_ProtBoundConf>  (274) 
nan

>  <Num_Resolved_Atoms>  (274) 
nan

>  <Num_Not_Resolved_Atoms>  (274) 
nan

$$$$
CHEMBL3421977
     RDKit          3D

  0  0  0  0  0  0  0  0  0  0999 V3000
M  V30 BEGIN CTAB
M  V30 COUNTS 42 45 0 0 0
M  V30 BEGIN ATOM
M  V30 1 C 3.878490 -6.296050 0.657863 0
M  V30 2 C 3.083596 -5.052590 0.921057 0
M  V30 3 N 2.554223 -4.841043 2.138143 0
M  V30 4 C 1.842290 -3.724709 2.369390 0
M  V30 5 C 1.671774 -2.818770 1.345787 0
M  V30 6 C 2.201715 -3.006216 0.086300 0
M  V30 7 C 2.174762 -2.268434 -1.080134 0
M  V30 8 C 1.518371 -0.983174 -1.299486 0
M  V30 9 C 1.587971 -0.379029 -2.527054 0
M  V30 10 C 0.992330 0.850630 -2.833135 0
M  V30 11 N 0.307504 1.454204 -1.816353 0
M  V30 12 C 0.228803 0.875040 -0.603923 0
M  V30 13 C -0.515002 1.556859 0.456012 0
M  V30 14 C -0.618654 0.995051 1.713365 0
M  V30 15 C -1.331780 1.662896 2.705681 0
M  V30 16 C -1.929352 2.890861 2.408102 0
M  V30 17 S -2.792145 3.614457 3.751332 0
M  V30 18 C -4.499737 3.088153 3.774585 0
M  V30 19 O -2.127736 3.355426 5.056675 0
M  V30 20 O -2.826279 5.108972 3.523516 0
M  V30 21 C -1.811698 3.432347 1.143440 0
M  V30 22 C -1.107135 2.778636 0.152714 0
M  V30 23 N 0.814892 -0.307647 -0.348784 0
M  V30 24 C 2.895275 -2.983272 -2.015303 0
M  V30 25 N 3.336376 -4.117154 -1.411382 0
M  V30 26 C 2.931397 -4.164448 -0.126952 0
M  V30 27 H 3.437184 -6.933941 -0.112720 0
M  V30 28 H 4.903533 -5.997214 0.355397 0
M  V30 29 H 3.918148 -6.901267 1.586749 0
M  V30 30 H 1.391536 -3.510182 3.347625 0
M  V30 31 H 1.111447 -1.931599 1.513335 0
M  V30 32 H 2.120703 -0.827401 -3.353716 0
M  V30 33 H 1.065053 1.301895 -3.811723 0
M  V30 34 H -0.166015 0.048283 1.966876 0
M  V30 35 H -1.394807 1.188601 3.694375 0
M  V30 36 H -4.651316 2.233915 4.480028 0
M  V30 37 H -5.124239 3.914105 4.199221 0
M  V30 38 H -4.881122 2.881674 2.767059 0
M  V30 39 H -2.305967 4.387106 1.000240 0
M  V30 40 H -1.029704 3.221606 -0.825888 0
M  V30 41 H 3.093435 -2.714442 -3.058923 0
M  V30 42 H 3.916768 -4.874678 -1.857677 0
M  V30 END ATOM
M  V30 BEGIN BOND
M  V30 1 1 1 2
M  V30 2 2 2 3
M  V30 3 1 3 4
M  V30 4 2 4 5
M  V30 5 1 5 6
M  V30 6 1 6 7
M  V30 7 1 7 8
M  V30 8 2 8 9
M  V30 9 1 9 10
M  V30 10 2 10 11
M  V30 11 1 11 12
M  V30 12 1 12 13
M  V30 13 2 13 14
M  V30 14 1 14 15
M  V30 15 2 15 16
M  V30 16 1 16 17
M  V30 17 1 17 18
M  V30 18 2 17 19
M  V30 19 2 17 20
M  V30 20 1 16 21
M  V30 21 2 21 22
M  V30 22 2 12 23
M  V30 23 2 7 24
M  V30 24 1 24 25
M  V30 25 1 25 26
M  V30 26 1 26 2
M  V30 27 2 26 6
M  V30 28 1 23 8
M  V30 29 1 22 13
M  V30 30 1 1 27
M  V30 31 1 1 28
M  V30 32 1 1 29
M  V30 33 1 4 30
M  V30 34 1 5 31
M  V30 35 1 9 32
M  V30 36 1 10 33
M  V30 37 1 14 34
M  V30 38 1 15 35
M  V30 39 1 18 36
M  V30 40 1 18 37
M  V30 41 1 18 38
M  V30 42 1 21 39
M  V30 43 1 22 40
M  V30 44 1 24 41
M  V30 45 1 25 42
M  V30 END BOND
M  V30 END CTAB
M  END
>  <Dataset>  (275) 
ChEMBL_Kinases

>  <Ligand_Instance>  (275) 
nan

>  <PDB_ID>  (275) 
nan

>  <Standardized_SMILES>  (275) 
Cc1nccc2c(-c3ccnc(-c4ccc(S(C)(=O)=O)cc4)n3)c[nH]c12

>  <Name>  (275) 
nan

>  <Pocket>  (275) 
nan

>  <ATP_Site>  (275) 
nan

>  <Peripheral>  (275) 
nan

>  <Num_H_Atoms_ProtBoundConf>  (275) 
nan

>  <Num_Resolved_Atoms>  (275) 
nan

>  <Num_Not_Resolved_Atoms>  (275) 
nan

$$$$
CHEMBL3421976
     RDKit          3D

  0  0  0  0  0  0  0  0  0  0999 V3000
M  V30 BEGIN CTAB
M  V30 COUNTS 42 45 0 0 0
M  V30 BEGIN ATOM
M  V30 1 C -0.394554 -6.990360 0.415309 0
M  V30 2 N -0.227117 -5.554926 0.577345 0
M  V30 3 C -0.348351 -4.658584 -0.415654 0
M  V30 4 C -0.128971 -3.388280 0.072797 0
M  V30 5 C -0.162671 -2.128069 -0.660783 0
M  V30 6 C -0.447082 -2.172561 -2.019723 0
M  V30 7 C -0.490866 -1.000345 -2.762671 0
M  V30 8 N -0.251782 0.165701 -2.131208 0
M  V30 9 C 0.024637 0.220511 -0.815685 0
M  V30 10 C 0.281118 1.492894 -0.148304 0
M  V30 11 C 0.233462 2.661008 -0.909504 0
M  V30 12 C 0.467809 3.893274 -0.331644 0
M  V30 13 C 0.754102 3.980741 1.017654 0
M  V30 14 S 1.072934 5.463789 1.891495 0
M  V30 15 C 2.824757 5.845035 1.868841 0
M  V30 16 O 0.549922 5.415963 3.284603 0
M  V30 17 O 0.393921 6.594514 1.194551 0
M  V30 18 C 0.809354 2.830576 1.807571 0
M  V30 19 C 0.570297 1.612154 1.200588 0
M  V30 20 N 0.067198 -0.919977 -0.093031 0
M  V30 21 C 0.131499 -3.565604 1.415270 0
M  V30 22 C 0.426265 -2.693097 2.449062 0
M  V30 23 C 0.649458 -3.136219 3.731166 0
M  V30 24 N 0.578104 -4.454676 3.981814 0
M  V30 25 C 0.295454 -5.357584 3.020512 0
M  V30 26 C 0.065631 -4.927034 1.711961 0
M  V30 27 H -0.328462 -7.259594 -0.659874 0
M  V30 28 H 0.468295 -7.521217 0.890483 0
M  V30 29 H -1.358762 -7.253883 0.874238 0
M  V30 30 H -0.583652 -4.909217 -1.442475 0
M  V30 31 H -0.640953 -3.122927 -2.529558 0
M  V30 32 H -0.711400 -1.047424 -3.810693 0
M  V30 33 H 0.012611 2.651602 -1.976720 0
M  V30 34 H 0.442140 4.830615 -0.881494 0
M  V30 35 H 3.133970 6.234702 0.890712 0
M  V30 36 H 3.358856 4.868721 2.013668 0
M  V30 37 H 3.105653 6.493946 2.706042 0
M  V30 38 H 1.027868 2.842644 2.862252 0
M  V30 39 H 0.610632 0.714957 1.803444 0
M  V30 40 H 0.471752 -1.648702 2.197054 0
M  V30 41 H 0.880172 -2.461714 4.544096 0
M  V30 42 H 0.231642 -6.433900 3.198204 0
M  V30 END ATOM
M  V30 BEGIN BOND
M  V30 1 1 1 2
M  V30 2 1 2 3
M  V30 3 2 3 4
M  V30 4 1 4 5
M  V30 5 2 5 6
M  V30 6 1 6 7
M  V30 7 2 7 8
M  V30 8 1 8 9
M  V30 9 1 9 10
M  V30 10 2 10 11
M  V30 11 1 11 12
M  V30 12 2 12 13
M  V30 13 1 13 14
M  V30 14 1 14 15
M  V30 15 2 14 16
M  V30 16 2 14 17
M  V30 17 1 13 18
M  V30 18 2 18 19
M  V30 19 2 9 20
M  V30 20 1 4 21
M  V30 21 2 21 22
M  V30 22 1 22 23
M  V30 23 2 23 24
M  V30 24 1 24 25
M  V30 25 2 25 26
M  V30 26 1 26 2
M  V30 27 1 20 5
M  V30 28 1 26 21
M  V30 29 1 19 10
M  V30 30 1 1 27
M  V30 31 1 1 28
M  V30 32 1 1 29
M  V30 33 1 3 30
M  V30 34 1 6 31
M  V30 35 1 7 32
M  V30 36 1 11 33
M  V30 37 1 12 34
M  V30 38 1 15 35
M  V30 39 1 15 36
M  V30 40 1 15 37
M  V30 41 1 18 38
M  V30 42 1 19 39
M  V30 43 1 22 40
M  V30 44 1 23 41
M  V30 45 1 25 42
M  V30 END BOND
M  V30 END CTAB
M  END
>  <Dataset>  (276) 
ChEMBL_Kinases

>  <Ligand_Instance>  (276) 
nan

>  <PDB_ID>  (276) 
nan

>  <Standardized_SMILES>  (276) 
Cn1cc(-c2ccnc(-c3ccc(S(C)(=O)=O)cc3)n2)c2ccncc21

>  <Name>  (276) 
nan

>  <Pocket>  (276) 
nan

>  <ATP_Site>  (276) 
nan

>  <Peripheral>  (276) 
nan

>  <Num_H_Atoms_ProtBoundConf>  (276) 
nan

>  <Num_Resolved_Atoms>  (276) 
nan

>  <Num_Not_Resolved_Atoms>  (276) 
nan

$$$$
CHEMBL3421975
     RDKit          3D

  0  0  0  0  0  0  0  0  0  0999 V3000
M  V30 BEGIN CTAB
M  V30 COUNTS 39 42 0 0 0
M  V30 BEGIN ATOM
M  V30 1 C 2.358975 -6.530374 1.173818 0
M  V30 2 S 3.344809 -5.099909 1.542416 0
M  V30 3 O 3.424217 -4.973442 3.037992 0
M  V30 4 O 4.762345 -5.281533 1.067239 0
M  V30 5 C 2.683687 -3.652380 0.815411 0
M  V30 6 C 3.008248 -3.192823 -0.442950 0
M  V30 7 C 2.419061 -2.019751 -0.929394 0
M  V30 8 C 1.504369 -1.312782 -0.146631 0
M  V30 9 C 0.925371 -0.095976 -0.713101 0
M  V30 10 N 1.250800 0.347757 -1.951216 0
M  V30 11 C 0.699244 1.474399 -2.446086 0
M  V30 12 C -0.207705 2.183849 -1.681872 0
M  V30 13 C -0.542326 1.734069 -0.417727 0
M  V30 14 C -1.505949 2.519924 0.350023 0
M  V30 15 C -2.147153 3.684352 -0.025179 0
M  V30 16 N -2.958067 4.095290 0.966765 0
M  V30 17 C -2.893608 3.245819 2.016140 0
M  V30 18 C -3.490660 3.171417 3.267202 0
M  V30 19 N -3.204425 2.157381 4.117397 0
M  V30 20 C -2.330625 1.184421 3.780815 0
M  V30 21 C -1.745843 1.271145 2.536324 0
M  V30 22 C -1.989721 2.273641 1.620601 0
M  V30 23 N 0.039807 0.612127 0.011873 0
M  V30 24 C 1.195975 -1.793737 1.110187 0
M  V30 25 C 1.772929 -2.949724 1.596570 0
M  V30 26 H 1.650822 -6.357932 0.338414 0
M  V30 27 H 3.040182 -7.384033 1.028340 0
M  V30 28 H 1.699177 -6.802507 2.040419 0
M  V30 29 H 3.724648 -3.771300 -1.021825 0
M  V30 30 H 2.684839 -1.676549 -1.914112 0
M  V30 31 H 1.004618 1.776305 -3.449918 0
M  V30 32 H -0.629418 3.071813 -2.096884 0
M  V30 33 H -2.029929 4.202758 -0.966682 0
M  V30 34 H -3.568423 4.944239 0.967979 0
M  V30 35 H -4.190513 3.957873 3.526877 0
M  V30 36 H -2.082130 0.361444 4.439718 0
M  V30 37 H -1.054808 0.502228 2.269414 0
M  V30 38 H 0.489087 -1.251166 1.720347 0
M  V30 39 H 1.475054 -3.267136 2.607408 0
M  V30 END ATOM
M  V30 BEGIN BOND
M  V30 1 1 1 2
M  V30 2 2 2 3
M  V30 3 2 2 4
M  V30 4 1 2 5
M  V30 5 2 5 6
M  V30 6 1 6 7
M  V30 7 2 7 8
M  V30 8 1 8 9
M  V30 9 2 9 10
M  V30 10 1 10 11
M  V30 11 2 11 12
M  V30 12 1 12 13
M  V30 13 1 13 14
M  V30 14 2 14 15
M  V30 15 1 15 16
M  V30 16 1 16 17
M  V30 17 2 17 18
M  V30 18 1 18 19
M  V30 19 2 19 20
M  V30 20 1 20 21
M  V30 21 2 21 22
M  V30 22 2 13 23
M  V30 23 1 8 24
M  V30 24 2 24 25
M  V30 25 1 25 5
M  V30 26 1 23 9
M  V30 27 1 22 14
M  V30 28 1 22 17
M  V30 29 1 1 26
M  V30 30 1 1 27
M  V30 31 1 1 28
M  V30 32 1 6 29
M  V30 33 1 7 30
M  V30 34 1 11 31
M  V30 35 1 12 32
M  V30 36 1 15 33
M  V30 37 1 16 34
M  V30 38 1 18 35
M  V30 39 1 20 36
M  V30 40 1 21 37
M  V30 41 1 24 38
M  V30 42 1 25 39
M  V30 END BOND
M  V30 END CTAB
M  END
>  <Dataset>  (277) 
ChEMBL_Kinases

>  <Ligand_Instance>  (277) 
nan

>  <PDB_ID>  (277) 
nan

>  <Standardized_SMILES>  (277) 
CS(=O)(=O)c1ccc(-c2nccc(-c3c[nH]c4cnccc34)n2)cc1

>  <Name>  (277) 
nan

>  <Pocket>  (277) 
nan

>  <ATP_Site>  (277) 
nan

>  <Peripheral>  (277) 
nan

>  <Num_H_Atoms_ProtBoundConf>  (277) 
nan

>  <Num_Resolved_Atoms>  (277) 
nan

>  <Num_Not_Resolved_Atoms>  (277) 
nan

$$$$
CHEMBL3421974
     RDKit          3D

  0  0  0  0  0  0  0  0  0  0999 V3000
M  V30 BEGIN CTAB
M  V30 COUNTS 50 54 0 0 0
M  V30 BEGIN ATOM
M  V30 1 O 1.107691 -3.398159 3.340335 0
M  V30 2 C 1.662404 -2.317748 3.056441 0
M  V30 3 N 2.795672 -2.043622 3.845447 0
M  V30 4 C 3.425851 -2.743307 4.887651 0
M  V30 5 C 3.232364 -1.912960 6.164914 0
M  V30 6 C 4.381005 -0.898866 6.088540 0
M  V30 7 C 5.517309 -1.655180 5.405908 0
M  V30 8 C 4.882700 -2.937150 4.891676 0
M  V30 9 C 1.190384 -1.414803 2.007509 0
M  V30 10 C 1.789042 -0.199104 1.665928 0
M  V30 11 C 1.225763 0.545429 0.650027 0
M  V30 12 C 0.100928 0.153330 -0.048098 0
M  V30 13 C -0.407929 1.029380 -1.109899 0
M  V30 14 N 0.208746 2.194116 -1.399780 0
M  V30 15 C -0.244848 3.011828 -2.372312 0
M  V30 16 C -1.369221 2.617043 -3.068071 0
M  V30 17 C -2.018484 1.430525 -2.791035 0
M  V30 18 C -3.200988 1.089198 -3.575095 0
M  V30 19 C -3.781236 1.796382 -4.579152 0
M  V30 20 N -4.864755 1.133642 -5.049780 0
M  V30 21 C -5.014000 -0.014794 -4.366082 0
M  V30 22 C -5.974518 -0.994860 -4.505332 0
M  V30 23 N -5.874329 -2.057629 -3.665930 0
M  V30 24 C -4.901258 -2.152164 -2.754915 0
M  V30 25 C -3.943334 -1.149745 -2.633739 0
M  V30 26 C -3.983277 -0.040963 -3.453463 0
M  V30 27 N -1.500624 0.678038 -1.808945 0
M  V30 28 C -0.485005 -1.051127 0.296561 0
M  V30 29 C 0.064553 -1.810473 1.311047 0
M  V30 30 H 3.352167 -1.152819 3.697366 0
M  V30 31 H 2.878501 -3.694779 5.086644 0
M  V30 32 H 2.292118 -1.361876 6.178459 0
M  V30 33 H 3.315628 -2.534242 7.061389 0
M  V30 34 H 4.618133 -0.578616 7.104358 0
M  V30 35 H 4.080931 -0.023582 5.466953 0
M  V30 36 H 6.012872 -1.059954 4.619859 0
M  V30 37 H 6.283960 -1.836846 6.189482 0
M  V30 38 H 5.362138 -3.365778 4.017610 0
M  V30 39 H 5.081355 -3.691013 5.714187 0
M  V30 40 H 2.663604 0.081229 2.226091 0
M  V30 41 H 1.764047 1.485284 0.451417 0
M  V30 42 H 0.312293 3.930108 -2.539303 0
M  V30 43 H -1.673712 3.328941 -3.836326 0
M  V30 44 H -3.385194 2.760485 -4.918250 0
M  V30 45 H -5.457443 1.489563 -5.815909 0
M  V30 46 H -6.769231 -0.933875 -5.237877 0
M  V30 47 H -4.897107 -3.035119 -2.126138 0
M  V30 48 H -3.158342 -1.232141 -1.894471 0
M  V30 49 H -1.367204 -1.341103 -0.263400 0
M  V30 50 H -0.428598 -2.761563 1.556767 0
M  V30 END ATOM
M  V30 BEGIN BOND
M  V30 1 2 1 2
M  V30 2 1 2 3
M  V30 3 1 3 4
M  V30 4 1 4 5
M  V30 5 1 5 6
M  V30 6 1 6 7
M  V30 7 1 7 8
M  V30 8 1 2 9
M  V30 9 2 9 10
M  V30 10 1 10 11
M  V30 11 2 11 12
M  V30 12 1 12 13
M  V30 13 2 13 14
M  V30 14 1 14 15
M  V30 15 2 15 16
M  V30 16 1 16 17
M  V30 17 1 17 18
M  V30 18 2 18 19
M  V30 19 1 19 20
M  V30 20 1 20 21
M  V30 21 2 21 22
M  V30 22 1 22 23
M  V30 23 2 23 24
M  V30 24 1 24 25
M  V30 25 2 25 26
M  V30 26 2 17 27
M  V30 27 1 12 28
M  V30 28 2 28 29
M  V30 29 1 8 4
M  V30 30 1 29 9
M  V30 31 1 27 13
M  V30 32 1 26 18
M  V30 33 1 26 21
M  V30 34 1 3 30
M  V30 35 1 4 31
M  V30 36 1 5 32
M  V30 37 1 5 33
M  V30 38 1 6 34
M  V30 39 1 6 35
M  V30 40 1 7 36
M  V30 41 1 7 37
M  V30 42 1 8 38
M  V30 43 1 8 39
M  V30 44 1 10 40
M  V30 45 1 11 41
M  V30 46 1 15 42
M  V30 47 1 16 43
M  V30 48 1 19 44
M  V30 49 1 20 45
M  V30 50 1 22 46
M  V30 51 1 24 47
M  V30 52 1 25 48
M  V30 53 1 28 49
M  V30 54 1 29 50
M  V30 END BOND
M  V30 END CTAB
M  END
>  <Dataset>  (278) 
ChEMBL_Kinases

>  <Ligand_Instance>  (278) 
nan

>  <PDB_ID>  (278) 
nan

>  <Standardized_SMILES>  (278) 
O=C(NC1CCCC1)c1ccc(-c2nccc(-c3c[nH]c4cnccc34)n2)cc1

>  <Name>  (278) 
nan

>  <Pocket>  (278) 
nan

>  <ATP_Site>  (278) 
nan

>  <Peripheral>  (278) 
nan

>  <Num_H_Atoms_ProtBoundConf>  (278) 
nan

>  <Num_Resolved_Atoms>  (278) 
nan

>  <Num_Not_Resolved_Atoms>  (278) 
nan

$$$$
CHEMBL3421971
     RDKit          3D

  0  0  0  0  0  0  0  0  0  0999 V3000
M  V30 BEGIN CTAB
M  V30 COUNTS 62 66 0 0 0
M  V30 BEGIN ATOM
M  V30 1 C 1.128075 0.384504 5.379758 0
M  V30 2 O 0.079207 0.262392 4.440020 0
M  V30 3 C 0.260761 0.851941 3.199416 0
M  V30 4 C 1.402994 1.540747 2.851815 0
M  V30 5 C 1.575925 2.123038 1.618381 0
M  V30 6 N 2.755753 2.815716 1.297295 0
M  V30 7 C 3.892286 2.939030 2.182148 0
M  V30 8 C 5.187169 2.903368 1.395151 0
M  V30 9 N 5.046679 2.131826 0.191381 0
M  V30 10 C 4.715576 0.773878 0.512826 0
M  V30 11 C 4.048942 2.660443 -0.704339 0
M  V30 12 C 3.014735 3.505780 0.051663 0
M  V30 13 C 0.542672 1.991529 0.718734 0
M  V30 14 C -0.602205 1.303621 1.061617 0
M  V30 15 C -0.789831 0.715902 2.290930 0
M  V30 16 N -1.993346 0.017370 2.587877 0
M  V30 17 C -3.085001 -0.135168 1.672646 0
M  V30 18 N -4.161959 0.648753 1.492049 0
M  V30 19 C -5.061352 0.274298 0.545819 0
M  V30 20 C -4.923757 -0.856042 -0.227584 0
M  V30 21 C -3.806419 -1.635150 -0.013884 0
M  V30 22 C -3.631034 -2.841630 -0.820737 0
M  V30 23 C -4.462075 -3.336314 -1.806225 0
M  V30 24 N -3.968089 -4.477120 -2.332381 0
M  V30 25 C -4.532317 -5.298838 -3.377484 0
M  V30 26 C -2.801188 -4.736100 -1.687602 0
M  V30 27 C -1.831942 -5.723210 -1.750616 0
M  V30 28 C -2.004082 -6.836709 -2.739246 0
M  V30 29 N -0.753488 -5.684723 -0.939650 0
M  V30 30 C -0.533958 -4.717834 -0.031294 0
M  V30 31 C -1.477964 -3.716714 0.060912 0
M  V30 32 C -2.578499 -3.732960 -0.748792 0
M  V30 33 N -2.915781 -1.263840 0.923728 0
M  V30 34 H 2.060787 -0.043386 4.914263 0
M  V30 35 H 1.272707 1.457422 5.605129 0
M  V30 36 H 0.861427 -0.122130 6.330804 0
M  V30 37 H 2.124967 1.572727 3.629254 0
M  V30 38 H 3.827422 3.983322 2.598893 0
M  V30 39 H 3.935576 2.188252 2.973565 0
M  V30 40 H 5.948254 2.421285 2.037959 0
M  V30 41 H 5.589934 3.930784 1.191063 0
M  V30 42 H 5.618027 0.110881 0.367070 0
M  V30 43 H 4.466766 0.711508 1.581653 0
M  V30 44 H 3.893470 0.401507 -0.140862 0
M  V30 45 H 4.563698 3.316242 -1.454448 0
M  V30 46 H 3.526119 1.868035 -1.265471 0
M  V30 47 H 2.142632 3.603746 -0.605506 0
M  V30 48 H 3.517195 4.503110 0.222006 0
M  V30 49 H 0.560236 2.396947 -0.263086 0
M  V30 50 H -1.427027 1.196440 0.347700 0
M  V30 51 H -2.056365 -0.401213 3.546210 0
M  V30 52 H -5.923752 0.908371 0.407542 0
M  V30 53 H -5.650724 -1.136975 -0.975343 0
M  V30 54 H -5.394046 -2.872991 -2.122083 0
M  V30 55 H -3.793433 -5.525179 -4.143961 0
M  V30 56 H -5.326554 -4.670917 -3.877042 0
M  V30 57 H -5.092469 -6.162105 -2.975661 0
M  V30 58 H -1.295674 -7.660364 -2.428552 0
M  V30 59 H -1.634042 -6.547244 -3.747290 0
M  V30 60 H -2.992318 -7.291651 -2.713047 0
M  V30 61 H 0.391278 -4.847776 0.538623 0
M  V30 62 H -1.251757 -2.962675 0.809990 0
M  V30 END ATOM
M  V30 BEGIN BOND
M  V30 1 1 1 2
M  V30 2 1 2 3
M  V30 3 2 3 4
M  V30 4 1 4 5
M  V30 5 1 5 6
M  V30 6 1 6 7
M  V30 7 1 7 8
M  V30 8 1 8 9
M  V30 9 1 9 10
M  V30 10 1 9 11
M  V30 11 1 11 12
M  V30 12 2 5 13
M  V30 13 1 13 14
M  V30 14 2 14 15
M  V30 15 1 15 16
M  V30 16 1 16 17
M  V30 17 2 17 18
M  V30 18 1 18 19
M  V30 19 2 19 20
M  V30 20 1 20 21
M  V30 21 1 21 22
M  V30 22 2 22 23
M  V30 23 1 23 24
M  V30 24 1 24 25
M  V30 25 1 24 26
M  V30 26 2 26 27
M  V30 27 1 27 28
M  V30 28 1 27 29
M  V30 29 2 29 30
M  V30 30 1 30 31
M  V30 31 2 31 32
M  V30 32 2 21 33
M  V30 33 1 15 3
M  V30 34 1 33 17
M  V30 35 1 12 6
M  V30 36 1 32 22
M  V30 37 1 32 26
M  V30 38 1 1 34
M  V30 39 1 1 35
M  V30 40 1 1 36
M  V30 41 1 4 37
M  V30 42 1 7 38
M  V30 43 1 7 39
M  V30 44 1 8 40
M  V30 45 1 8 41
M  V30 46 1 10 42
M  V30 47 1 10 43
M  V30 48 1 10 44
M  V30 49 1 11 45
M  V30 50 1 11 46
M  V30 51 1 12 47
M  V30 52 1 12 48
M  V30 53 1 13 49
M  V30 54 1 14 50
M  V30 55 1 16 51
M  V30 56 1 19 52
M  V30 57 1 20 53
M  V30 58 1 23 54
M  V30 59 1 25 55
M  V30 60 1 25 56
M  V30 61 1 25 57
M  V30 62 1 28 58
M  V30 63 1 28 59
M  V30 64 1 28 60
M  V30 65 1 30 61
M  V30 66 1 31 62
M  V30 END BOND
M  V30 END CTAB
M  END
>  <Dataset>  (279) 
ChEMBL_Kinases

>  <Ligand_Instance>  (279) 
nan

>  <PDB_ID>  (279) 
nan

>  <Standardized_SMILES>  (279) 
COc1cc(N2CCN(C)CC2)ccc1Nc1nccc(-c2cn(C)c3c(C)nccc23)n1

>  <Name>  (279) 
nan

>  <Pocket>  (279) 
nan

>  <ATP_Site>  (279) 
nan

>  <Peripheral>  (279) 
nan

>  <Num_H_Atoms_ProtBoundConf>  (279) 
nan

>  <Num_Resolved_Atoms>  (279) 
nan

>  <Num_Not_Resolved_Atoms>  (279) 
nan

$$$$
CHEMBL3421970
     RDKit          3D

  0  0  0  0  0  0  0  0  0  0999 V3000
M  V30 BEGIN CTAB
M  V30 COUNTS 59 63 0 0 0
M  V30 BEGIN ATOM
M  V30 1 C 0.337083 0.735487 5.429286 0
M  V30 2 O -0.605844 0.392061 4.430402 0
M  V30 3 C -0.382300 0.487941 3.079720 0
M  V30 4 C 0.818852 0.939897 2.579404 0
M  V30 5 C 1.086011 1.052612 1.231817 0
M  V30 6 N 2.345172 1.505583 0.694090 0
M  V30 7 C 3.562799 1.545803 1.453892 0
M  V30 8 C 4.221953 2.888136 1.236799 0
M  V30 9 N 4.524900 3.004624 -0.161096 0
M  V30 10 C 5.495358 2.048675 -0.626769 0
M  V30 11 C 3.343560 3.033781 -0.982182 0
M  V30 12 C 2.362458 1.946908 -0.686982 0
M  V30 13 C 0.065372 0.681583 0.352918 0
M  V30 14 C -1.134795 0.229689 0.870093 0
M  V30 15 C -1.390977 0.120872 2.216592 0
M  V30 16 N -2.638707 -0.329020 2.737067 0
M  V30 17 C -3.706437 -0.834466 1.938664 0
M  V30 18 N -5.043074 -0.584814 1.951563 0
M  V30 19 C -5.839150 -1.246926 1.076735 0
M  V30 20 C -5.347469 -2.175556 0.161489 0
M  V30 21 C -3.986335 -2.412139 0.168478 0
M  V30 22 C -3.400576 -3.388870 -0.759736 0
M  V30 23 C -3.983298 -4.150646 -1.746404 0
M  V30 24 N -3.037498 -4.921352 -2.351683 0
M  V30 25 C -1.860591 -4.670104 -1.773085 0
M  V30 26 C -0.596665 -5.168318 -1.997969 0
M  V30 27 C -0.281075 -6.182262 -3.032502 0
M  V30 28 N 0.495933 -4.777041 -1.287579 0
M  V30 29 C 0.344659 -3.856891 -0.313506 0
M  V30 30 C -0.927884 -3.368377 -0.102110 0
M  V30 31 C -2.064159 -3.730625 -0.792475 0
M  V30 32 N -3.252422 -1.728752 1.053831 0
M  V30 33 H -0.255951 0.987951 6.355231 0
M  V30 34 H 0.999348 -0.090788 5.729122 0
M  V30 35 H 0.887868 1.655594 5.170578 0
M  V30 36 H 1.553876 1.207033 3.293407 0
M  V30 37 H 3.401787 1.428268 2.537527 0
M  V30 38 H 4.263413 0.723299 1.175237 0
M  V30 39 H 5.168128 2.960694 1.809388 0
M  V30 40 H 3.495828 3.655975 1.510352 0
M  V30 41 H 5.101693 1.019171 -0.743297 0
M  V30 42 H 5.846645 2.367296 -1.638272 0
M  V30 43 H 6.357531 2.028335 0.039660 0
M  V30 44 H 2.885096 4.062903 -0.898275 0
M  V30 45 H 3.663289 2.941702 -2.051773 0
M  V30 46 H 1.345865 2.397697 -0.896889 0
M  V30 47 H 2.443255 1.071723 -1.366312 0
M  V30 48 H 0.198764 0.738521 -0.723922 0
M  V30 49 H -1.875956 -0.037326 0.154797 0
M  V30 50 H -2.804623 -0.294949 3.765487 0
M  V30 51 H -6.883552 -0.994364 1.151026 0
M  V30 52 H -6.024993 -2.678894 -0.519770 0
M  V30 53 H -5.017493 -4.133407 -1.992636 0
M  V30 54 H -3.165569 -5.603989 -3.132538 0
M  V30 55 H 0.542253 -5.848051 -3.703145 0
M  V30 56 H -1.203561 -6.448556 -3.549006 0
M  V30 57 H 0.084015 -7.085416 -2.489170 0
M  V30 58 H 1.169020 -3.498390 0.290800 0
M  V30 59 H -1.031961 -2.634460 0.683179 0
M  V30 END ATOM
M  V30 BEGIN BOND
M  V30 1 1 1 2
M  V30 2 1 2 3
M  V30 3 2 3 4
M  V30 4 1 4 5
M  V30 5 1 5 6
M  V30 6 1 6 7
M  V30 7 1 7 8
M  V30 8 1 8 9
M  V30 9 1 9 10
M  V30 10 1 9 11
M  V30 11 1 11 12
M  V30 12 2 5 13
M  V30 13 1 13 14
M  V30 14 2 14 15
M  V30 15 1 15 16
M  V30 16 1 16 17
M  V30 17 2 17 18
M  V30 18 1 18 19
M  V30 19 2 19 20
M  V30 20 1 20 21
M  V30 21 1 21 22
M  V30 22 2 22 23
M  V30 23 1 23 24
M  V30 24 1 24 25
M  V30 25 2 25 26
M  V30 26 1 26 27
M  V30 27 1 26 28
M  V30 28 2 28 29
M  V30 29 1 29 30
M  V30 30 2 30 31
M  V30 31 2 21 32
M  V30 32 1 15 3
M  V30 33 1 32 17
M  V30 34 1 12 6
M  V30 35 1 31 22
M  V30 36 1 31 25
M  V30 37 1 1 33
M  V30 38 1 1 34
M  V30 39 1 1 35
M  V30 40 1 4 36
M  V30 41 1 7 37
M  V30 42 1 7 38
M  V30 43 1 8 39
M  V30 44 1 8 40
M  V30 45 1 10 41
M  V30 46 1 10 42
M  V30 47 1 10 43
M  V30 48 1 11 44
M  V30 49 1 11 45
M  V30 50 1 12 46
M  V30 51 1 12 47
M  V30 52 1 13 48
M  V30 53 1 14 49
M  V30 54 1 16 50
M  V30 55 1 19 51
M  V30 56 1 20 52
M  V30 57 1 23 53
M  V30 58 1 24 54
M  V30 59 1 27 55
M  V30 60 1 27 56
M  V30 61 1 27 57
M  V30 62 1 29 58
M  V30 63 1 30 59
M  V30 END BOND
M  V30 END CTAB
M  END
>  <Dataset>  (280) 
ChEMBL_Kinases

>  <Ligand_Instance>  (280) 
nan

>  <PDB_ID>  (280) 
nan

>  <Standardized_SMILES>  (280) 
COc1cc(N2CCN(C)CC2)ccc1Nc1nccc(-c2c[nH]c3c(C)nccc23)n1

>  <Name>  (280) 
nan

>  <Pocket>  (280) 
nan

>  <ATP_Site>  (280) 
nan

>  <Peripheral>  (280) 
nan

>  <Num_H_Atoms_ProtBoundConf>  (280) 
nan

>  <Num_Resolved_Atoms>  (280) 
nan

>  <Num_Not_Resolved_Atoms>  (280) 
nan

$$$$
CHEMBL3414679
     RDKit          3D

  0  0  0  0  0  0  0  0  0  0999 V3000
M  V30 BEGIN CTAB
M  V30 COUNTS 46 47 0 0 0
M  V30 BEGIN ATOM
M  V30 1 C -1.297915 -2.248886 4.675426 0
M  V30 2 O -1.240218 -1.540313 3.457572 0
M  V30 3 C -1.170695 -2.295124 2.289421 0
M  V30 4 C -1.160713 -3.678237 2.358872 0
M  V30 5 C -1.092039 -4.433950 1.206867 0
M  V30 6 O -1.079700 -5.822311 1.232822 0
M  V30 7 C -1.033873 -3.781433 -0.009312 0
M  V30 8 C -1.044750 -2.403217 -0.061010 0
M  V30 9 C -1.113040 -1.632214 1.080881 0
M  V30 10 O -1.119911 -0.262988 0.955485 0
M  V30 11 C -1.076702 0.456421 -0.249769 0
M  V30 12 C -2.093681 1.573987 -0.167535 0
M  V30 13 C 0.333604 1.002468 -0.400809 0
M  V30 14 C 0.725389 1.905563 0.713943 0
M  V30 15 C 2.074954 2.503539 0.664347 0
M  V30 16 C 3.256312 1.621985 0.647539 0
M  V30 17 C 3.391950 0.710638 1.827822 0
M  V30 18 C 3.498701 0.876641 -0.640281 0
M  V30 19 C -1.472157 -0.383531 -1.437329 0
M  V30 20 C -0.979962 -1.793409 -1.393649 0
M  V30 21 H -1.146477 -1.537385 5.499972 0
M  V30 22 H -2.189651 -2.864036 4.803627 0
M  V30 23 H -0.410040 -2.920285 4.679097 0
M  V30 24 H -1.205455 -4.211438 3.300194 0
M  V30 25 H -0.556022 -6.299324 1.935444 0
M  V30 26 H -0.979668 -4.401483 -0.914247 0
M  V30 27 H -1.994143 2.178045 0.741091 0
M  V30 28 H -2.106706 2.181474 -1.092610 0
M  V30 29 H -3.091386 1.060204 -0.101540 0
M  V30 30 H 1.051214 0.160922 -0.435090 0
M  V30 31 H 0.376442 1.506146 -1.385834 0
M  V30 32 H 0.477418 1.481177 1.724953 0
M  V30 33 H 0.008786 2.781732 0.652500 0
M  V30 34 H 2.148374 3.217514 1.535215 0
M  V30 35 H 2.106379 3.185856 -0.224539 0
M  V30 36 H 4.154682 2.320755 0.732619 0
M  V30 37 H 2.480935 0.166736 2.107326 0
M  V30 38 H 4.139112 -0.063188 1.552683 0
M  V30 39 H 3.786210 1.205048 2.744856 0
M  V30 40 H 2.890122 1.252693 -1.478714 0
M  V30 41 H 4.569831 0.969192 -0.999831 0
M  V30 42 H 3.396754 -0.228066 -0.470629 0
M  V30 43 H -2.592381 -0.422569 -1.495616 0
M  V30 44 H -1.113410 0.089765 -2.372230 0
M  V30 45 H 0.040292 -1.830965 -1.839832 0
M  V30 46 H -1.658471 -2.400619 -2.062267 0
M  V30 END ATOM
M  V30 BEGIN BOND
M  V30 1 1 1 2
M  V30 2 1 2 3
M  V30 3 2 3 4
M  V30 4 1 4 5
M  V30 5 1 5 6
M  V30 6 2 5 7
M  V30 7 1 7 8
M  V30 8 2 8 9
M  V30 9 1 9 10
M  V30 10 1 10 11
M  V30 11 1 11 12
M  V30 12 1 11 13
M  V30 13 1 13 14
M  V30 14 1 14 15
M  V30 15 1 15 16
M  V30 16 1 16 17
M  V30 17 1 16 18
M  V30 18 1 11 19
M  V30 19 1 19 20
M  V30 20 1 9 3
M  V30 21 1 20 8
M  V30 22 1 1 21
M  V30 23 1 1 22
M  V30 24 1 1 23
M  V30 25 1 4 24
M  V30 26 1 6 25
M  V30 27 1 7 26
M  V30 28 1 12 27
M  V30 29 1 12 28
M  V30 30 1 12 29
M  V30 31 1 13 30
M  V30 32 1 13 31
M  V30 33 1 14 32
M  V30 34 1 14 33
M  V30 35 1 15 34
M  V30 36 1 15 35
M  V30 37 1 16 36
M  V30 38 1 17 37
M  V30 39 1 17 38
M  V30 40 1 17 39
M  V30 41 1 18 40
M  V30 42 1 18 41
M  V30 43 1 18 42
M  V30 44 1 19 43
M  V30 45 1 19 44
M  V30 46 1 20 45
M  V30 47 1 20 46
M  V30 END BOND
M  V30 END CTAB
M  END
>  <Dataset>  (281) 
ChEMBL_Kinases

>  <Ligand_Instance>  (281) 
nan

>  <PDB_ID>  (281) 
nan

>  <Standardized_SMILES>  (281) 
COc1cc(O)cc2c1OC(C)(CCCC(C)C)CC2

>  <Name>  (281) 
nan

>  <Pocket>  (281) 
nan

>  <ATP_Site>  (281) 
nan

>  <Peripheral>  (281) 
nan

>  <Num_H_Atoms_ProtBoundConf>  (281) 
nan

>  <Num_Resolved_Atoms>  (281) 
nan

>  <Num_Not_Resolved_Atoms>  (281) 
nan

$$$$
CHEMBL3414680
     RDKit          3D

  0  0  0  0  0  0  0  0  0  0999 V3000
M  V30 BEGIN CTAB
M  V30 COUNTS 42 43 0 0 0
M  V30 BEGIN ATOM
M  V30 1 C -1.680411 -2.199727 3.016278 0
M  V30 2 C -1.679275 -3.267884 1.924752 0
M  V30 3 C -2.138510 -4.598838 2.482685 0
M  V30 4 C -0.269049 -3.410475 1.460069 0
M  V30 5 C 0.306291 -2.133614 0.896679 0
M  V30 6 C -0.425189 -1.588180 -0.282897 0
M  V30 7 C 0.254641 -0.315447 -0.742188 0
M  V30 8 C -0.503482 0.238052 -1.954336 0
M  V30 9 C 1.695359 -0.518983 -1.135764 0
M  V30 10 C 2.211886 0.864195 -1.531526 0
M  V30 11 C 2.209915 1.655638 -0.255852 0
M  V30 12 C 3.199225 2.536656 0.129595 0
M  V30 13 C 3.093260 3.211869 1.326771 0
M  V30 14 O 4.077648 4.100145 1.729034 0
M  V30 15 C 2.022293 3.041171 2.169636 0
M  V30 16 C 1.004721 2.171867 1.832532 0
M  V30 17 F -0.060540 1.975524 2.628185 0
M  V30 18 C 1.143726 1.510464 0.623101 0
M  V30 19 O 0.106935 0.630829 0.289432 0
M  V30 20 H -2.155307 -1.254718 2.680287 0
M  V30 21 H -0.646661 -1.941422 3.349996 0
M  V30 22 H -2.189100 -2.614369 3.906912 0
M  V30 23 H -2.392132 -3.010000 1.120176 0
M  V30 24 H -1.284097 -5.213568 2.836121 0
M  V30 25 H -2.841873 -4.409881 3.329785 0
M  V30 26 H -2.688629 -5.209066 1.749734 0
M  V30 27 H -0.107785 -4.274688 0.785773 0
M  V30 28 H 0.343470 -3.626512 2.375221 0
M  V30 29 H 1.379114 -2.386168 0.653892 0
M  V30 30 H 0.359075 -1.347441 1.675845 0
M  V30 31 H -0.543134 -2.312500 -1.100384 0
M  V30 32 H -1.419761 -1.233895 0.107697 0
M  V30 33 H -0.383805 1.336984 -1.923605 0
M  V30 34 H -1.583506 0.003388 -1.767316 0
M  V30 35 H -0.142990 -0.195452 -2.895471 0
M  V30 36 H 1.712127 -1.199196 -1.986179 0
M  V30 37 H 2.299943 -0.824014 -0.280219 0
M  V30 38 H 1.615982 1.314170 -2.325552 0
M  V30 39 H 3.272929 0.761388 -1.841391 0
M  V30 40 H 4.034595 2.662295 -0.539943 0
M  V30 41 H 4.761174 3.722298 2.383121 0
M  V30 42 H 1.895821 3.556559 3.131029 0
M  V30 END ATOM
M  V30 BEGIN BOND
M  V30 1 1 1 2
M  V30 2 1 2 3
M  V30 3 1 2 4
M  V30 4 1 4 5
M  V30 5 1 5 6
M  V30 6 1 6 7
M  V30 7 1 7 8
M  V30 8 1 7 9
M  V30 9 1 9 10
M  V30 10 1 10 11
M  V30 11 2 11 12
M  V30 12 1 12 13
M  V30 13 1 13 14
M  V30 14 2 13 15
M  V30 15 1 15 16
M  V30 16 1 16 17
M  V30 17 2 16 18
M  V30 18 1 18 19
M  V30 19 1 19 7
M  V30 20 1 18 11
M  V30 21 1 1 20
M  V30 22 1 1 21
M  V30 23 1 1 22
M  V30 24 1 2 23
M  V30 25 1 3 24
M  V30 26 1 3 25
M  V30 27 1 3 26
M  V30 28 1 4 27
M  V30 29 1 4 28
M  V30 30 1 5 29
M  V30 31 1 5 30
M  V30 32 1 6 31
M  V30 33 1 6 32
M  V30 34 1 8 33
M  V30 35 1 8 34
M  V30 36 1 8 35
M  V30 37 1 9 36
M  V30 38 1 9 37
M  V30 39 1 10 38
M  V30 40 1 10 39
M  V30 41 1 12 40
M  V30 42 1 14 41
M  V30 43 1 15 42
M  V30 END BOND
M  V30 END CTAB
M  END
>  <Dataset>  (282) 
ChEMBL_Kinases

>  <Ligand_Instance>  (282) 
nan

>  <PDB_ID>  (282) 
nan

>  <Standardized_SMILES>  (282) 
CC(C)CCCC1(C)CCc2cc(O)cc(F)c2O1

>  <Name>  (282) 
nan

>  <Pocket>  (282) 
nan

>  <ATP_Site>  (282) 
nan

>  <Peripheral>  (282) 
nan

>  <Num_H_Atoms_ProtBoundConf>  (282) 
nan

>  <Num_Resolved_Atoms>  (282) 
nan

>  <Num_Not_Resolved_Atoms>  (282) 
nan

$$$$
CHEMBL3414681
     RDKit          3D

  0  0  0  0  0  0  0  0  0  0999 V3000
M  V30 BEGIN CTAB
M  V30 COUNTS 42 43 0 0 0
M  V30 BEGIN ATOM
M  V30 1 C -1.656663 -2.063119 3.128251 0
M  V30 2 C -1.745930 -3.156588 2.066314 0
M  V30 3 C -2.286394 -4.409718 2.722320 0
M  V30 4 C -0.331520 -3.395599 1.588716 0
M  V30 5 C 0.292059 -2.163233 0.995861 0
M  V30 6 C -0.433245 -1.615920 -0.184300 0
M  V30 7 C 0.237153 -0.387435 -0.730310 0
M  V30 8 C -0.599343 0.064903 -1.922603 0
M  V30 9 C 1.674581 -0.621936 -1.133601 0
M  V30 10 C 2.245006 0.706826 -1.587556 0
M  V30 11 C 2.289673 1.588806 -0.379939 0
M  V30 12 C 3.308386 2.472354 -0.090811 0
M  V30 13 C 3.261347 3.252488 1.059216 0
M  V30 14 O 4.310573 4.132173 1.314028 0
M  V30 15 C 2.187848 3.145928 1.922978 0
M  V30 16 C 1.154942 2.257004 1.639646 0
M  V30 17 Br -0.312986 2.116594 2.828271 0
M  V30 18 C 1.218846 1.490872 0.493523 0
M  V30 19 O 0.162226 0.620731 0.259247 0
M  V30 20 H -2.061343 -1.095952 2.729851 0
M  V30 21 H -0.609971 -1.851586 3.434278 0
M  V30 22 H -2.193998 -2.385661 4.052592 0
M  V30 23 H -2.431487 -2.885895 1.264835 0
M  V30 24 H -1.444353 -5.036774 3.077437 0
M  V30 25 H -2.958137 -4.125987 3.563508 0
M  V30 26 H -2.884335 -5.041605 2.046920 0
M  V30 27 H -0.353618 -4.239649 0.872467 0
M  V30 28 H 0.300426 -3.713374 2.442622 0
M  V30 29 H 1.327450 -2.484350 0.678885 0
M  V30 30 H 0.456548 -1.375086 1.756036 0
M  V30 31 H -0.509486 -2.405386 -0.959814 0
M  V30 32 H -1.447560 -1.271702 0.149140 0
M  V30 33 H -0.938399 1.107037 -1.813760 0
M  V30 34 H -1.504209 -0.543334 -2.071312 0
M  V30 35 H 0.021521 -0.009097 -2.832499 0
M  V30 36 H 1.729377 -1.405691 -1.887996 0
M  V30 37 H 2.233106 -0.896372 -0.225282 0
M  V30 38 H 3.298566 0.578849 -1.910958 0
M  V30 39 H 1.657171 1.134655 -2.403011 0
M  V30 40 H 4.107852 2.500524 -0.806619 0
M  V30 41 H 4.949212 3.862758 2.056143 0
M  V30 42 H 2.144003 3.756002 2.828998 0
M  V30 END ATOM
M  V30 BEGIN BOND
M  V30 1 1 1 2
M  V30 2 1 2 3
M  V30 3 1 2 4
M  V30 4 1 4 5
M  V30 5 1 5 6
M  V30 6 1 6 7
M  V30 7 1 7 8
M  V30 8 1 7 9
M  V30 9 1 9 10
M  V30 10 1 10 11
M  V30 11 2 11 12
M  V30 12 1 12 13
M  V30 13 1 13 14
M  V30 14 2 13 15
M  V30 15 1 15 16
M  V30 16 1 16 17
M  V30 17 2 16 18
M  V30 18 1 18 19
M  V30 19 1 19 7
M  V30 20 1 18 11
M  V30 21 1 1 20
M  V30 22 1 1 21
M  V30 23 1 1 22
M  V30 24 1 2 23
M  V30 25 1 3 24
M  V30 26 1 3 25
M  V30 27 1 3 26
M  V30 28 1 4 27
M  V30 29 1 4 28
M  V30 30 1 5 29
M  V30 31 1 5 30
M  V30 32 1 6 31
M  V30 33 1 6 32
M  V30 34 1 8 33
M  V30 35 1 8 34
M  V30 36 1 8 35
M  V30 37 1 9 36
M  V30 38 1 9 37
M  V30 39 1 10 38
M  V30 40 1 10 39
M  V30 41 1 12 40
M  V30 42 1 14 41
M  V30 43 1 15 42
M  V30 END BOND
M  V30 END CTAB
M  END
>  <Dataset>  (283) 
ChEMBL_Kinases

>  <Ligand_Instance>  (283) 
nan

>  <PDB_ID>  (283) 
nan

>  <Standardized_SMILES>  (283) 
CC(C)CCCC1(C)CCc2cc(O)cc(Br)c2O1

>  <Name>  (283) 
nan

>  <Pocket>  (283) 
nan

>  <ATP_Site>  (283) 
nan

>  <Peripheral>  (283) 
nan

>  <Num_H_Atoms_ProtBoundConf>  (283) 
nan

>  <Num_Resolved_Atoms>  (283) 
nan

>  <Num_Not_Resolved_Atoms>  (283) 
nan

$$$$
CHEMBL3414682
     RDKit          3D

  0  0  0  0  0  0  0  0  0  0999 V3000
M  V30 BEGIN CTAB
M  V30 COUNTS 42 43 0 0 0
M  V30 BEGIN ATOM
M  V30 1 C -2.435208 -3.215018 2.230805 0
M  V30 2 C -1.260486 -4.022985 1.755367 0
M  V30 3 C -1.623382 -5.472188 1.737791 0
M  V30 4 C -0.720887 -3.526636 0.449062 0
M  V30 5 C -0.273658 -2.088316 0.616004 0
M  V30 6 C 0.292341 -1.511236 -0.687281 0
M  V30 7 C 0.698063 -0.076882 -0.378420 0
M  V30 8 C -0.538847 0.655027 0.070922 0
M  V30 9 C 1.350859 0.584808 -1.546983 0
M  V30 10 C 1.816836 1.949400 -1.158524 0
M  V30 11 C 2.196986 1.999025 0.258776 0
M  V30 12 C 2.670806 3.259224 0.625224 0
M  V30 13 O 2.791209 4.371064 -0.206469 0
M  V30 14 C 3.083076 3.503681 1.939500 0
M  V30 15 C 3.017153 2.491537 2.866148 0
M  V30 16 C 2.550163 1.242637 2.513003 0
M  V30 17 C 2.145716 1.010718 1.214436 0
M  V30 18 O 1.648940 -0.190355 0.689828 0
M  V30 19 H -2.979455 -2.778401 1.371280 0
M  V30 20 H -3.147025 -3.887611 2.749169 0
M  V30 21 H -2.145358 -2.445650 2.975372 0
M  V30 22 H -0.444454 -3.850436 2.510256 0
M  V30 23 H -1.982959 -5.747750 0.734383 0
M  V30 24 H -0.766142 -6.088762 2.055294 0
M  V30 25 H -2.453304 -5.623067 2.481839 0
M  V30 26 H -1.402666 -3.653167 -0.407144 0
M  V30 27 H 0.211460 -4.129531 0.253114 0
M  V30 28 H 0.530575 -2.015813 1.375258 0
M  V30 29 H -1.108772 -1.450457 0.971132 0
M  V30 30 H 1.224519 -2.040905 -0.946807 0
M  V30 31 H -0.421735 -1.594255 -1.516585 0
M  V30 32 H -0.539710 1.723778 -0.283294 0
M  V30 33 H -0.563741 0.621489 1.175067 0
M  V30 34 H -1.456717 0.194031 -0.303360 0
M  V30 35 H 0.661271 0.643990 -2.396799 0
M  V30 36 H 2.215172 -0.042941 -1.852903 0
M  V30 37 H 1.045293 2.706071 -1.399867 0
M  V30 38 H 2.720326 2.231416 -1.748592 0
M  V30 39 H 2.040557 5.066338 -0.079950 0
M  V30 40 H 3.458806 4.467077 2.272070 0
M  V30 41 H 3.304707 2.563570 3.897861 0
M  V30 42 H 2.454565 0.374935 3.155731 0
M  V30 END ATOM
M  V30 BEGIN BOND
M  V30 1 1 1 2
M  V30 2 1 2 3
M  V30 3 1 2 4
M  V30 4 1 4 5
M  V30 5 1 5 6
M  V30 6 1 6 7
M  V30 7 1 7 8
M  V30 8 1 7 9
M  V30 9 1 9 10
M  V30 10 1 10 11
M  V30 11 2 11 12
M  V30 12 1 12 13
M  V30 13 1 12 14
M  V30 14 2 14 15
M  V30 15 1 15 16
M  V30 16 2 16 17
M  V30 17 1 17 18
M  V30 18 1 18 7
M  V30 19 1 17 11
M  V30 20 1 1 19
M  V30 21 1 1 20
M  V30 22 1 1 21
M  V30 23 1 2 22
M  V30 24 1 3 23
M  V30 25 1 3 24
M  V30 26 1 3 25
M  V30 27 1 4 26
M  V30 28 1 4 27
M  V30 29 1 5 28
M  V30 30 1 5 29
M  V30 31 1 6 30
M  V30 32 1 6 31
M  V30 33 1 8 32
M  V30 34 1 8 33
M  V30 35 1 8 34
M  V30 36 1 9 35
M  V30 37 1 9 36
M  V30 38 1 10 37
M  V30 39 1 10 38
M  V30 40 1 13 39
M  V30 41 1 14 40
M  V30 42 1 15 41
M  V30 43 1 16 42
M  V30 END BOND
M  V30 END CTAB
M  END
>  <Dataset>  (284) 
ChEMBL_Kinases

>  <Ligand_Instance>  (284) 
nan

>  <PDB_ID>  (284) 
nan

>  <Standardized_SMILES>  (284) 
CC(C)CCCC1(C)CCc2c(O)cccc2O1

>  <Name>  (284) 
nan

>  <Pocket>  (284) 
nan

>  <ATP_Site>  (284) 
nan

>  <Peripheral>  (284) 
nan

>  <Num_H_Atoms_ProtBoundConf>  (284) 
nan

>  <Num_Resolved_Atoms>  (284) 
nan

>  <Num_Not_Resolved_Atoms>  (284) 
nan

$$$$
CHEMBL3414683
     RDKit          3D

  0  0  0  0  0  0  0  0  0  0999 V3000
M  V30 BEGIN CTAB
M  V30 COUNTS 43 44 0 0 0
M  V30 BEGIN ATOM
M  V30 1 C -1.750586 -1.336059 2.695858 0
M  V30 2 C -1.899526 -2.519928 1.750434 0
M  V30 3 C -2.679445 -3.635170 2.370666 0
M  V30 4 C -0.480409 -2.948084 1.404918 0
M  V30 5 C 0.277763 -1.823830 0.737985 0
M  V30 6 C -0.374865 -1.380988 -0.532668 0
M  V30 7 C 0.418125 -0.254638 -1.166285 0
M  V30 8 C -0.345214 0.108251 -2.442539 0
M  V30 9 C 1.837171 -0.619774 -1.471851 0
M  V30 10 C 2.867092 0.319503 -0.954923 0
M  V30 11 C 2.528443 0.967677 0.314936 0
M  V30 12 C 3.576893 1.286954 1.134170 0
M  V30 13 C 3.311328 1.904553 2.349006 0
M  V30 14 C 2.006207 2.180705 2.700877 0
M  V30 15 O 1.727437 2.791796 3.900269 0
M  V30 16 C 0.979071 1.843668 1.848963 0
M  V30 17 O -0.372886 2.098096 2.149069 0
M  V30 18 C 1.220096 1.223645 0.625313 0
M  V30 19 O 0.265167 0.844317 -0.300921 0
M  V30 20 H -1.820969 -0.380349 2.127444 0
M  V30 21 H -0.738961 -1.328982 3.184557 0
M  V30 22 H -2.478931 -1.365210 3.518153 0
M  V30 23 H -2.453037 -2.207728 0.849492 0
M  V30 24 H -1.984518 -4.324532 2.891875 0
M  V30 25 H -3.460753 -3.237607 3.060301 0
M  V30 26 H -3.232938 -4.246788 1.628558 0
M  V30 27 H -0.461789 -3.859608 0.774482 0
M  V30 28 H 0.049518 -3.196206 2.346761 0
M  V30 29 H 0.333065 -0.944852 1.418227 0
M  V30 30 H 1.316360 -2.185963 0.622281 0
M  V30 31 H -0.525057 -2.225134 -1.237717 0
M  V30 32 H -1.341069 -0.901538 -0.248445 0
M  V30 33 H -1.370455 -0.300115 -2.456225 0
M  V30 34 H -0.463059 1.206628 -2.561649 0
M  V30 35 H 0.200442 -0.285848 -3.318573 0
M  V30 36 H 1.931284 -0.652340 -2.598777 0
M  V30 37 H 2.099410 -1.665670 -1.171376 0
M  V30 38 H 3.099708 1.072238 -1.764571 0
M  V30 39 H 3.834737 -0.258620 -0.877334 0
M  V30 40 H 4.602825 1.075748 0.869487 0
M  V30 41 H 4.157964 2.153004 2.991551 0
M  V30 42 H 2.334413 2.793153 4.688335 0
M  V30 43 H -0.765086 1.836242 3.038678 0
M  V30 END ATOM
M  V30 BEGIN BOND
M  V30 1 1 1 2
M  V30 2 1 2 3
M  V30 3 1 2 4
M  V30 4 1 4 5
M  V30 5 1 5 6
M  V30 6 1 6 7
M  V30 7 1 7 8
M  V30 8 1 7 9
M  V30 9 1 9 10
M  V30 10 1 10 11
M  V30 11 2 11 12
M  V30 12 1 12 13
M  V30 13 2 13 14
M  V30 14 1 14 15
M  V30 15 1 14 16
M  V30 16 1 16 17
M  V30 17 2 16 18
M  V30 18 1 18 19
M  V30 19 1 19 7
M  V30 20 1 18 11
M  V30 21 1 1 20
M  V30 22 1 1 21
M  V30 23 1 1 22
M  V30 24 1 2 23
M  V30 25 1 3 24
M  V30 26 1 3 25
M  V30 27 1 3 26
M  V30 28 1 4 27
M  V30 29 1 4 28
M  V30 30 1 5 29
M  V30 31 1 5 30
M  V30 32 1 6 31
M  V30 33 1 6 32
M  V30 34 1 8 33
M  V30 35 1 8 34
M  V30 36 1 8 35
M  V30 37 1 9 36
M  V30 38 1 9 37
M  V30 39 1 10 38
M  V30 40 1 10 39
M  V30 41 1 12 40
M  V30 42 1 13 41
M  V30 43 1 15 42
M  V30 44 1 17 43
M  V30 END BOND
M  V30 END CTAB
M  END
>  <Dataset>  (285) 
ChEMBL_Kinases

>  <Ligand_Instance>  (285) 
nan

>  <PDB_ID>  (285) 
nan

>  <Standardized_SMILES>  (285) 
CC(C)CCCC1(C)CCc2ccc(O)c(O)c2O1

>  <Name>  (285) 
nan

>  <Pocket>  (285) 
nan

>  <ATP_Site>  (285) 
nan

>  <Peripheral>  (285) 
nan

>  <Num_H_Atoms_ProtBoundConf>  (285) 
nan

>  <Num_Resolved_Atoms>  (285) 
nan

>  <Num_Not_Resolved_Atoms>  (285) 
nan

$$$$
CHEMBL3414684
     RDKit          3D

  0  0  0  0  0  0  0  0  0  0999 V3000
M  V30 BEGIN CTAB
M  V30 COUNTS 46 47 0 0 0
M  V30 BEGIN ATOM
M  V30 1 C -0.189933 -1.370636 3.441573 0
M  V30 2 C -0.313160 -2.442653 2.430183 0
M  V30 3 C -0.224982 -3.772070 2.791593 0
M  V30 4 C -0.338128 -4.782547 1.857411 0
M  V30 5 O -0.238523 -6.098710 2.297646 0
M  V30 6 C -0.544342 -4.487287 0.525046 0
M  V30 7 C -0.630003 -3.154498 0.181225 0
M  V30 8 C -0.522011 -2.089096 1.090011 0
M  V30 9 N -0.630468 -0.719798 0.635067 0
M  V30 10 C -0.164254 -0.498098 -0.712340 0
M  V30 11 C 1.223732 -1.091957 -0.919094 0
M  V30 12 C -0.310007 0.836741 -1.272170 0
M  V30 13 C 0.298346 2.070689 -0.875151 0
M  V30 14 C 0.252776 2.706063 0.455741 0
M  V30 15 C 0.966041 2.072987 1.596631 0
M  V30 16 C 0.719676 2.984923 2.823995 0
M  V30 17 C 2.481491 2.168704 1.375374 0
M  V30 18 C -1.083568 -1.415280 -1.552013 0
M  V30 19 C -0.853040 -2.856568 -1.257426 0
M  V30 20 H -1.058729 -0.683156 3.395834 0
M  V30 21 H 0.759806 -0.818827 3.366650 0
M  V30 22 H -0.241378 -1.835187 4.461292 0
M  V30 23 H -0.061609 -3.973617 3.852814 0
M  V30 24 H 0.495625 -6.390534 2.950463 0
M  V30 25 H -0.636013 -5.258933 -0.223709 0
M  V30 26 H -1.062182 -0.177610 1.427295 0
M  V30 27 H 1.266726 -1.579045 -1.886383 0
M  V30 28 H 1.389050 -1.832473 -0.123020 0
M  V30 29 H 2.018741 -0.336499 -0.806967 0
M  V30 30 H -1.464681 1.030628 -1.256605 0
M  V30 31 H -0.198524 0.758608 -2.430547 0
M  V30 32 H -0.187291 2.878073 -1.567855 0
M  V30 33 H 1.379150 2.184083 -1.278324 0
M  V30 34 H -0.819407 2.957470 0.759812 0
M  V30 35 H 0.689755 3.768445 0.405175 0
M  V30 36 H 0.728622 1.097275 1.933020 0
M  V30 37 H -0.139984 2.579677 3.423090 0
M  V30 38 H 0.458325 3.995519 2.513169 0
M  V30 39 H 1.591739 2.928443 3.502909 0
M  V30 40 H 2.955726 1.428336 2.046228 0
M  V30 41 H 2.778089 1.936217 0.347354 0
M  V30 42 H 2.879470 3.164517 1.686478 0
M  V30 43 H -2.119923 -1.081605 -1.496253 0
M  V30 44 H -0.740770 -1.225080 -2.606344 0
M  V30 45 H -1.746914 -3.404030 -1.650982 0
M  V30 46 H 0.075234 -3.218077 -1.769997 0
M  V30 END ATOM
M  V30 BEGIN BOND
M  V30 1 1 1 2
M  V30 2 2 2 3
M  V30 3 1 3 4
M  V30 4 1 4 5
M  V30 5 2 4 6
M  V30 6 1 6 7
M  V30 7 2 7 8
M  V30 8 1 8 9
M  V30 9 1 9 10
M  V30 10 1 10 11
M  V30 11 1 10 12
M  V30 12 1 12 13
M  V30 13 1 13 14
M  V30 14 1 14 15
M  V30 15 1 15 16
M  V30 16 1 15 17
M  V30 17 1 10 18
M  V30 18 1 18 19
M  V30 19 1 8 2
M  V30 20 1 19 7
M  V30 21 1 1 20
M  V30 22 1 1 21
M  V30 23 1 1 22
M  V30 24 1 3 23
M  V30 25 1 5 24
M  V30 26 1 6 25
M  V30 27 1 9 26
M  V30 28 1 11 27
M  V30 29 1 11 28
M  V30 30 1 11 29
M  V30 31 1 12 30
M  V30 32 1 12 31
M  V30 33 1 13 32
M  V30 34 1 13 33
M  V30 35 1 14 34
M  V30 36 1 14 35
M  V30 37 1 15 36
M  V30 38 1 16 37
M  V30 39 1 16 38
M  V30 40 1 16 39
M  V30 41 1 17 40
M  V30 42 1 17 41
M  V30 43 1 17 42
M  V30 44 1 18 43
M  V30 45 1 18 44
M  V30 46 1 19 45
M  V30 47 1 19 46
M  V30 END BOND
M  V30 END CTAB
M  END
>  <Dataset>  (286) 
ChEMBL_Kinases

>  <Ligand_Instance>  (286) 
nan

>  <PDB_ID>  (286) 
nan

>  <Standardized_SMILES>  (286) 
Cc1cc(O)cc2c1NC(C)(CCCC(C)C)CC2

>  <Name>  (286) 
nan

>  <Pocket>  (286) 
nan

>  <ATP_Site>  (286) 
nan

>  <Peripheral>  (286) 
nan

>  <Num_H_Atoms_ProtBoundConf>  (286) 
nan

>  <Num_Resolved_Atoms>  (286) 
nan

>  <Num_Not_Resolved_Atoms>  (286) 
nan

$$$$
CHEMBL3414685
     RDKit          3D

  0  0  0  0  0  0  0  0  0  0999 V3000
M  V30 BEGIN CTAB
M  V30 COUNTS 43 44 0 0 0
M  V30 BEGIN ATOM
M  V30 1 C -2.773260 -2.835127 0.897046 0
M  V30 2 C -1.697723 -2.995379 1.886357 0
M  V30 3 C -1.858432 -4.386014 2.540258 0
M  V30 4 C -0.291780 -2.881249 1.497161 0
M  V30 5 C 0.263395 -1.648982 0.926391 0
M  V30 6 C -0.380269 -1.250173 -0.340338 0
M  V30 7 C 0.232336 0.021725 -0.942743 0
M  V30 8 C -0.564159 0.250757 -2.220657 0
M  V30 9 C 1.647217 -0.205070 -1.333851 0
M  V30 10 C 2.698206 0.526186 -0.592714 0
M  V30 11 C 2.239067 1.297054 0.580618 0
M  V30 12 C 3.184756 1.728010 1.477442 0
M  V30 13 C 2.810920 2.452654 2.592012 0
M  V30 14 N 3.680406 2.956318 3.592909 0
M  V30 15 C 1.468102 2.752109 2.814560 0
M  V30 16 C 0.493870 2.329045 1.924969 0
M  V30 17 C 0.913397 1.601397 0.814619 0
M  V30 18 O -0.006650 1.138574 -0.129393 0
M  V30 19 H -3.321409 -1.872222 0.892450 0
M  V30 20 H -3.601734 -3.576766 1.164810 0
M  V30 21 H -2.513027 -3.148583 -0.140409 0
M  V30 22 H -1.921485 -2.298034 2.760887 0
M  V30 23 H -1.965153 -5.097788 1.689108 0
M  V30 24 H -2.817391 -4.400754 3.086200 0
M  V30 25 H -0.979355 -4.586911 3.157883 0
M  V30 26 H 0.319732 -3.132583 2.428536 0
M  V30 27 H -0.002287 -3.743097 0.813785 0
M  V30 28 H 1.348635 -1.873460 0.671261 0
M  V30 29 H 0.368021 -0.819931 1.665688 0
M  V30 30 H -0.247678 -2.039952 -1.103410 0
M  V30 31 H -1.478889 -1.053190 -0.265363 0
M  V30 32 H -0.374387 1.292792 -2.560617 0
M  V30 33 H -1.635850 0.209394 -1.940633 0
M  V30 34 H -0.312404 -0.466148 -3.022790 0
M  V30 35 H 1.869782 -1.300164 -1.230192 0
M  V30 36 H 1.831013 -0.022496 -2.433184 0
M  V30 37 H 3.522595 -0.147716 -0.217209 0
M  V30 38 H 3.240014 1.263891 -1.230705 0
M  V30 39 H 4.262452 1.537814 1.381116 0
M  V30 40 H 4.068119 3.822994 3.143006 0
M  V30 41 H 3.692363 2.358505 4.450786 0
M  V30 42 H 1.113619 3.317597 3.671760 0
M  V30 43 H -0.549729 2.545590 2.071382 0
M  V30 END ATOM
M  V30 BEGIN BOND
M  V30 1 1 1 2
M  V30 2 1 2 3
M  V30 3 1 2 4
M  V30 4 1 4 5
M  V30 5 1 5 6
M  V30 6 1 6 7
M  V30 7 1 7 8
M  V30 8 1 7 9
M  V30 9 1 9 10
M  V30 10 1 10 11
M  V30 11 2 11 12
M  V30 12 1 12 13
M  V30 13 1 13 14
M  V30 14 2 13 15
M  V30 15 1 15 16
M  V30 16 2 16 17
M  V30 17 1 17 18
M  V30 18 1 18 7
M  V30 19 1 17 11
M  V30 20 1 1 19
M  V30 21 1 1 20
M  V30 22 1 1 21
M  V30 23 1 2 22
M  V30 24 1 3 23
M  V30 25 1 3 24
M  V30 26 1 3 25
M  V30 27 1 4 26
M  V30 28 1 4 27
M  V30 29 1 5 28
M  V30 30 1 5 29
M  V30 31 1 6 30
M  V30 32 1 6 31
M  V30 33 1 8 32
M  V30 34 1 8 33
M  V30 35 1 8 34
M  V30 36 1 9 35
M  V30 37 1 9 36
M  V30 38 1 10 37
M  V30 39 1 10 38
M  V30 40 1 12 39
M  V30 41 1 14 40
M  V30 42 1 14 41
M  V30 43 1 15 42
M  V30 44 1 16 43
M  V30 END BOND
M  V30 END CTAB
M  END
>  <Dataset>  (287) 
ChEMBL_Kinases

>  <Ligand_Instance>  (287) 
nan

>  <PDB_ID>  (287) 
nan

>  <Standardized_SMILES>  (287) 
CC(C)CCCC1(C)CCc2cc(N)ccc2O1

>  <Name>  (287) 
nan

>  <Pocket>  (287) 
nan

>  <ATP_Site>  (287) 
nan

>  <Peripheral>  (287) 
nan

>  <Num_H_Atoms_ProtBoundConf>  (287) 
nan

>  <Num_Resolved_Atoms>  (287) 
nan

>  <Num_Not_Resolved_Atoms>  (287) 
nan

$$$$
CHEMBL3414686
     RDKit          3D

  0  0  0  0  0  0  0  0  0  0999 V3000
M  V30 BEGIN CTAB
M  V30 COUNTS 52 53 0 0 0
M  V30 BEGIN ATOM
M  V30 1 C 0.429300 -4.396080 -1.043075 0
M  V30 2 C 1.007542 -3.066430 -0.631426 0
M  V30 3 C 2.269338 -3.048072 -0.069321 0
M  V30 4 S 3.182973 -4.524066 0.164072 0
M  V30 5 N 4.722683 -4.200999 0.885068 0
M  V30 6 O 2.453707 -5.468565 1.090676 0
M  V30 7 O 3.467121 -5.173666 -1.156890 0
M  V30 8 C 2.789184 -1.823779 0.304096 0
M  V30 9 C 2.035179 -0.684562 0.102295 0
M  V30 10 C 0.773938 -0.680865 -0.456959 0
M  V30 11 C 0.259952 -1.928946 -0.830583 0
M  V30 12 C -1.087704 -2.071934 -1.445807 0
M  V30 13 O 0.017424 0.466650 -0.658846 0
M  V30 14 C 0.329281 1.617904 0.095343 0
M  V30 15 C -0.264069 2.855118 -0.541162 0
M  V30 16 C 0.049101 1.533913 1.545738 0
M  V30 17 C -1.344619 1.293050 1.980436 0
M  V30 18 C -1.932005 -0.001704 1.476876 0
M  V30 19 C -3.358074 -0.189319 1.972159 0
M  V30 20 C -4.222694 0.932523 1.494050 0
M  V30 21 C -3.401654 -0.402742 3.459542 0
M  V30 22 C 1.846899 1.790489 -0.056153 0
M  V30 23 C 2.595332 0.612720 0.501349 0
M  V30 24 H 1.134145 -5.207733 -0.893300 0
M  V30 25 H -0.556414 -4.528331 -0.576493 0
M  V30 26 H 0.257081 -4.313954 -2.142973 0
M  V30 27 H 5.223523 -3.408071 0.394889 0
M  V30 28 H 4.596535 -3.939506 1.892891 0
M  V30 29 H 3.771466 -1.734678 0.750389 0
M  V30 30 H -1.760877 -2.654388 -0.791982 0
M  V30 31 H -0.965318 -2.696499 -2.369009 0
M  V30 32 H -1.499811 -1.118213 -1.767047 0
M  V30 33 H 0.046885 3.726024 0.078385 0
M  V30 34 H 0.254232 2.974103 -1.517852 0
M  V30 35 H -1.350055 2.805532 -0.701334 0
M  V30 36 H 0.672925 0.731741 1.995720 0
M  V30 37 H 0.462368 2.477831 2.007807 0
M  V30 38 H -2.031549 2.147180 1.822755 0
M  V30 39 H -1.322843 1.178409 3.104934 0
M  V30 40 H -1.978075 0.005342 0.368547 0
M  V30 41 H -1.353859 -0.884931 1.797835 0
M  V30 42 H -3.725434 -1.116592 1.465072 0
M  V30 43 H -4.221295 1.753406 2.265831 0
M  V30 44 H -3.845423 1.311243 0.520205 0
M  V30 45 H -5.304032 0.639742 1.413241 0
M  V30 46 H -3.943681 -1.353537 3.719048 0
M  V30 47 H -2.368025 -0.569028 3.863835 0
M  V30 48 H -3.868865 0.415999 4.021467 0
M  V30 49 H 2.092068 2.691143 0.544024 0
M  V30 50 H 2.028413 1.951911 -1.126448 0
M  V30 51 H 2.674040 0.698449 1.603362 0
M  V30 52 H 3.628080 0.680223 0.058411 0
M  V30 END ATOM
M  V30 BEGIN BOND
M  V30 1 1 1 2
M  V30 2 2 2 3
M  V30 3 1 3 4
M  V30 4 1 4 5
M  V30 5 2 4 6
M  V30 6 2 4 7
M  V30 7 1 3 8
M  V30 8 2 8 9
M  V30 9 1 9 10
M  V30 10 2 10 11
M  V30 11 1 11 12
M  V30 12 1 10 13
M  V30 13 1 13 14
M  V30 14 1 14 15
M  V30 15 1 14 16
M  V30 16 1 16 17
M  V30 17 1 17 18
M  V30 18 1 18 19
M  V30 19 1 19 20
M  V30 20 1 19 21
M  V30 21 1 14 22
M  V30 22 1 22 23
M  V30 23 1 11 2
M  V30 24 1 23 9
M  V30 25 1 1 24
M  V30 26 1 1 25
M  V30 27 1 1 26
M  V30 28 1 5 27
M  V30 29 1 5 28
M  V30 30 1 8 29
M  V30 31 1 12 30
M  V30 32 1 12 31
M  V30 33 1 12 32
M  V30 34 1 15 33
M  V30 35 1 15 34
M  V30 36 1 15 35
M  V30 37 1 16 36
M  V30 38 1 16 37
M  V30 39 1 17 38
M  V30 40 1 17 39
M  V30 41 1 18 40
M  V30 42 1 18 41
M  V30 43 1 19 42
M  V30 44 1 20 43
M  V30 45 1 20 44
M  V30 46 1 20 45
M  V30 47 1 21 46
M  V30 48 1 21 47
M  V30 49 1 21 48
M  V30 50 1 22 49
M  V30 51 1 22 50
M  V30 52 1 23 51
M  V30 53 1 23 52
M  V30 END BOND
M  V30 END CTAB
M  END
>  <Dataset>  (288) 
ChEMBL_Kinases

>  <Ligand_Instance>  (288) 
nan

>  <PDB_ID>  (288) 
nan

>  <Standardized_SMILES>  (288) 
Cc1c(S(N)(=O)=O)cc2c(c1C)OC(C)(CCCC(C)C)CC2

>  <Name>  (288) 
nan

>  <Pocket>  (288) 
nan

>  <ATP_Site>  (288) 
nan

>  <Peripheral>  (288) 
nan

>  <Num_H_Atoms_ProtBoundConf>  (288) 
nan

>  <Num_Resolved_Atoms>  (288) 
nan

>  <Num_Not_Resolved_Atoms>  (288) 
nan

$$$$
CHEMBL3421969
     RDKit          3D

  0  0  0  0  0  0  0  0  0  0999 V3000
M  V30 BEGIN CTAB
M  V30 COUNTS 59 63 0 0 0
M  V30 BEGIN ATOM
M  V30 1 C -1.469166 1.976296 3.732161 0
M  V30 2 O -1.262044 1.109742 2.643901 0
M  V30 3 C -0.118506 1.252497 1.864883 0
M  V30 4 C 0.806068 2.228801 2.148686 0
M  V30 5 C 1.951021 2.412360 1.411637 0
M  V30 6 N 2.885644 3.433787 1.729657 0
M  V30 7 C 2.730132 4.453574 2.744810 0
M  V30 8 C 3.642788 4.084638 3.887376 0
M  V30 9 N 4.908034 3.582336 3.476531 0
M  V30 10 C 5.211108 2.254624 3.938155 0
M  V30 11 C 5.277539 3.832771 2.125317 0
M  V30 12 C 4.159777 3.662976 1.131025 0
M  V30 13 C 2.154109 1.564891 0.346822 0
M  V30 14 C 1.210421 0.588185 0.078296 0
M  V30 15 C 0.054899 0.370850 0.788092 0
M  V30 16 N -0.908998 -0.624288 0.517493 0
M  V30 17 C -0.891115 -1.593690 -0.521351 0
M  V30 18 N 0.062407 -1.722456 -1.445060 0
M  V30 19 C 0.029996 -2.661709 -2.402059 0
M  V30 20 C -1.065928 -3.488192 -2.360878 0
M  V30 21 C -2.087105 -3.436525 -1.460907 0
M  V30 22 C -3.278033 -4.241487 -1.348633 0
M  V30 23 C -4.306110 -3.880079 -0.476204 0
M  V30 24 N -5.293161 -4.769295 -0.526184 0
M  V30 25 C -5.025675 -5.755551 -1.392795 0
M  V30 26 C -5.609026 -6.912077 -1.864426 0
M  V30 27 N -4.992149 -7.701959 -2.786427 0
M  V30 28 C -3.763170 -7.343573 -3.259447 0
M  V30 29 C -3.181029 -8.283810 -4.266190 0
M  V30 30 C -3.169263 -6.193681 -2.799270 0
M  V30 31 C -3.787599 -5.397123 -1.872950 0
M  V30 32 N -1.897840 -2.453105 -0.588300 0
M  V30 33 H -2.437489 1.826199 4.226408 0
M  V30 34 H -0.696873 1.814137 4.510715 0
M  V30 35 H -1.415952 3.046876 3.444919 0
M  V30 36 H 0.564042 2.845096 3.002928 0
M  V30 37 H 1.698253 4.481408 3.145688 0
M  V30 38 H 2.954908 5.483293 2.355908 0
M  V30 39 H 3.810689 4.952570 4.572908 0
M  V30 40 H 3.126785 3.310394 4.490063 0
M  V30 41 H 6.199882 2.275521 4.460747 0
M  V30 42 H 4.463947 1.982651 4.711844 0
M  V30 43 H 5.180472 1.496344 3.132596 0
M  V30 44 H 5.779063 4.821006 2.070577 0
M  V30 45 H 6.060673 3.090270 1.863967 0
M  V30 46 H 4.086170 4.654599 0.593188 0
M  V30 47 H 4.409836 2.938443 0.342359 0
M  V30 48 H 3.036345 1.639440 -0.293937 0
M  V30 49 H 1.435534 -0.025352 -0.756265 0
M  V30 50 H -1.741818 -0.635959 1.179831 0
M  V30 51 H 0.796179 -2.772241 -3.152057 0
M  V30 52 H -1.087655 -4.214535 -3.128573 0
M  V30 53 H -4.403317 -3.016797 0.201449 0
M  V30 54 H -6.198209 -4.766590 0.014091 0
M  V30 55 H -6.583074 -7.121374 -1.436660 0
M  V30 56 H -3.666554 -8.041224 -5.239414 0
M  V30 57 H -3.377851 -9.334747 -3.967548 0
M  V30 58 H -2.090379 -8.058216 -4.290887 0
M  V30 59 H -2.212760 -6.035875 -3.239060 0
M  V30 END ATOM
M  V30 BEGIN BOND
M  V30 1 1 1 2
M  V30 2 1 2 3
M  V30 3 2 3 4
M  V30 4 1 4 5
M  V30 5 1 5 6
M  V30 6 1 6 7
M  V30 7 1 7 8
M  V30 8 1 8 9
M  V30 9 1 9 10
M  V30 10 1 9 11
M  V30 11 1 11 12
M  V30 12 2 5 13
M  V30 13 1 13 14
M  V30 14 2 14 15
M  V30 15 1 15 16
M  V30 16 1 16 17
M  V30 17 2 17 18
M  V30 18 1 18 19
M  V30 19 2 19 20
M  V30 20 1 20 21
M  V30 21 1 21 22
M  V30 22 2 22 23
M  V30 23 1 23 24
M  V30 24 1 24 25
M  V30 25 2 25 26
M  V30 26 1 26 27
M  V30 27 2 27 28
M  V30 28 1 28 29
M  V30 29 1 28 30
M  V30 30 2 30 31
M  V30 31 2 21 32
M  V30 32 1 15 3
M  V30 33 1 32 17
M  V30 34 1 12 6
M  V30 35 1 31 22
M  V30 36 1 31 25
M  V30 37 1 1 33
M  V30 38 1 1 34
M  V30 39 1 1 35
M  V30 40 1 4 36
M  V30 41 1 7 37
M  V30 42 1 7 38
M  V30 43 1 8 39
M  V30 44 1 8 40
M  V30 45 1 10 41
M  V30 46 1 10 42
M  V30 47 1 10 43
M  V30 48 1 11 44
M  V30 49 1 11 45
M  V30 50 1 12 46
M  V30 51 1 12 47
M  V30 52 1 13 48
M  V30 53 1 14 49
M  V30 54 1 16 50
M  V30 55 1 19 51
M  V30 56 1 20 52
M  V30 57 1 23 53
M  V30 58 1 24 54
M  V30 59 1 26 55
M  V30 60 1 29 56
M  V30 61 1 29 57
M  V30 62 1 29 58
M  V30 63 1 30 59
M  V30 END BOND
M  V30 END CTAB
M  END
>  <Dataset>  (289) 
ChEMBL_Kinases

>  <Ligand_Instance>  (289) 
nan

>  <PDB_ID>  (289) 
nan

>  <Standardized_SMILES>  (289) 
COc1cc(N2CCN(C)CC2)ccc1Nc1nccc(-c2c[nH]c3cnc(C)cc23)n1

>  <Name>  (289) 
nan

>  <Pocket>  (289) 
nan

>  <ATP_Site>  (289) 
nan

>  <Peripheral>  (289) 
nan

>  <Num_H_Atoms_ProtBoundConf>  (289) 
nan

>  <Num_Resolved_Atoms>  (289) 
nan

>  <Num_Not_Resolved_Atoms>  (289) 
nan

$$$$
CHEMBL3415610
     RDKit          3D

  0  0  0  0  0  0  0  0  0  0999 V3000
M  V30 BEGIN CTAB
M  V30 COUNTS 50 53 0 0 0
M  V30 BEGIN ATOM
M  V30 1 C 3.664057 -6.103167 -0.098518 0
M  V30 2 O 2.736254 -5.046631 -0.255058 0
M  V30 3 C 2.749200 -4.027968 0.686057 0
M  V30 4 C 3.635887 -4.033072 1.748435 0
M  V30 5 C 3.587642 -2.990876 2.637292 0
M  V30 6 C 2.688920 -1.954790 2.497173 0
M  V30 7 C 1.793368 -1.920848 1.450346 0
M  V30 8 N 0.811627 -1.127510 0.990024 0
M  V30 9 C 0.202478 -1.559707 -0.136162 0
M  V30 10 C -0.847936 -0.753390 -0.681792 0
M  V30 11 N -1.201551 0.392375 -0.097675 0
M  V30 12 C -2.171918 1.207145 -0.495741 0
M  V30 13 N -2.407852 2.389431 0.227177 0
M  V30 14 C -1.789019 3.036921 1.368545 0 CFG=2
M  V30 15 C -0.424981 3.520999 0.981723 0
M  V30 16 C 0.718268 2.741458 1.489788 0
M  V30 17 O 0.661969 2.219636 2.742982 0
M  V30 18 C -0.487033 2.480439 3.440090 0
M  V30 19 C -1.728976 2.219328 2.604278 0 CFG=2
M  V30 20 N -1.957257 0.802009 2.425563 0
M  V30 21 C -2.912254 0.901985 -1.595889 0
M  V30 22 N -2.596749 -0.233509 -2.215560 0
M  V30 23 C -1.605772 -1.026914 -1.775880 0
M  V30 24 C -1.371237 -2.222650 -2.540581 0
M  V30 25 N -2.242873 -2.431986 -3.677030 0
M  V30 26 O -0.923827 -3.282225 -2.954623 0
M  V30 27 C 0.888923 -2.707509 -0.352968 0
M  V30 28 C 1.860349 -2.977060 0.571278 0
M  V30 29 H 4.698570 -5.688448 -0.238931 0
M  V30 30 H 3.653387 -6.534441 0.907968 0
M  V30 31 H 3.430172 -6.850872 -0.901789 0
M  V30 32 H 4.349445 -4.838519 1.875282 0
M  V30 33 H 4.243566 -2.912781 3.497570 0
M  V30 34 H 2.642775 -1.130471 3.190597 0
M  V30 35 H 0.655384 -0.266505 1.596733 0
M  V30 36 H -3.240212 2.957441 -0.143414 0
M  V30 37 H -2.424473 3.940150 1.630163 0
M  V30 38 H -0.401647 3.578992 -0.142372 0
M  V30 39 H -0.321365 4.620628 1.275604 0
M  V30 40 H 0.943880 1.910981 0.756976 0
M  V30 41 H 1.682516 3.364138 1.433255 0
M  V30 42 H -0.502756 3.487736 3.892030 0
M  V30 43 H -0.524855 1.745143 4.278404 0
M  V30 44 H -2.576562 2.546258 3.283541 0
M  V30 45 H -2.984540 0.549994 2.450488 0
M  V30 46 H -1.434228 0.222593 3.118572 0
M  V30 47 H -3.702066 1.520823 -1.957168 0
M  V30 48 H -2.127041 -2.087432 -4.681726 0
M  V30 49 H -3.176629 -2.944714 -3.760233 0
M  V30 50 H 0.688490 -3.344045 -1.175558 0
M  V30 END ATOM
M  V30 BEGIN BOND
M  V30 1 1 1 2
M  V30 2 1 2 3
M  V30 3 2 3 4
M  V30 4 1 4 5
M  V30 5 2 5 6
M  V30 6 1 6 7
M  V30 7 1 7 8
M  V30 8 1 8 9
M  V30 9 1 9 10
M  V30 10 2 10 11
M  V30 11 1 11 12
M  V30 12 1 12 13
M  V30 13 1 13 14
M  V30 14 1 14 15
M  V30 15 1 15 16
M  V30 16 1 16 17
M  V30 17 1 17 18
M  V30 18 1 18 19
M  V30 19 1 19 20
M  V30 20 2 12 21
M  V30 21 1 21 22
M  V30 22 2 22 23
M  V30 23 1 23 24
M  V30 24 1 24 25
M  V30 25 2 24 26
M  V30 26 2 9 27
M  V30 27 1 27 28
M  V30 28 1 28 3
M  V30 29 2 28 7
M  V30 30 1 23 10
M  V30 31 1 19 14
M  V30 32 1 1 29
M  V30 33 1 1 30
M  V30 34 1 1 31
M  V30 35 1 4 32
M  V30 36 1 5 33
M  V30 37 1 6 34
M  V30 38 1 8 35
M  V30 39 1 13 36
M  V30 40 1 14 37 CFG=1
M  V30 41 1 15 38
M  V30 42 1 15 39
M  V30 43 1 16 40
M  V30 44 1 16 41
M  V30 45 1 18 42
M  V30 46 1 18 43
M  V30 47 1 19 44 CFG=1
M  V30 48 1 20 45
M  V30 49 1 20 46
M  V30 50 1 21 47
M  V30 51 1 25 48
M  V30 52 1 25 49
M  V30 53 1 27 50
M  V30 END BOND
M  V30 END CTAB
M  END
>  <Dataset>  (290) 
ChEMBL_Kinases

>  <Ligand_Instance>  (290) 
nan

>  <PDB_ID>  (290) 
nan

>  <Standardized_SMILES>  (290) 
COc1cccc2[nH]c(-c3nc(N[C@@H]4CCOC[C@@H]4N)cnc3C(N)=O)cc12

>  <Name>  (290) 
nan

>  <Pocket>  (290) 
nan

>  <ATP_Site>  (290) 
nan

>  <Peripheral>  (290) 
nan

>  <Num_H_Atoms_ProtBoundConf>  (290) 
nan

>  <Num_Resolved_Atoms>  (290) 
nan

>  <Num_Not_Resolved_Atoms>  (290) 
nan

$$$$
CHEMBL3417201
     RDKit          3D

  0  0  0  0  0  0  0  0  0  0999 V3000
M  V30 BEGIN CTAB
M  V30 COUNTS 41 43 0 0 0
M  V30 BEGIN ATOM
M  V30 1 C 0.768584 -6.671432 3.073207 0
M  V30 2 N 0.780624 -5.417395 2.371480 0
M  V30 3 C 1.852329 -4.531589 2.351884 0
M  V30 4 O 2.771566 -5.083163 3.073085 0
M  V30 5 C 2.148406 -3.250654 1.761567 0
M  V30 6 S 3.742030 -2.621710 2.114120 0
M  V30 7 C 3.589732 -1.072593 1.163551 0
M  V30 8 N 4.380729 0.003974 0.892696 0
M  V30 9 C 3.968351 1.003258 0.129256 0
M  V30 10 N 2.737039 0.884291 -0.351460 0
M  V30 11 C 1.923768 -0.144579 -0.117564 0
M  V30 12 N 0.699374 0.074988 -0.798775 0
M  V30 13 C -0.215671 1.027251 -0.282123 0
M  V30 14 C -0.523455 2.057464 -1.187232 0
M  V30 15 C -1.378906 3.088895 -0.888958 0
M  V30 16 C -1.710213 4.179429 -1.829827 0
M  V30 17 C -1.971790 3.130319 0.351670 0
M  V30 18 N -1.673939 2.146452 1.205986 0
M  V30 19 C -2.275902 2.144867 2.540134 0
M  V30 20 C -0.852526 1.149595 0.928560 0
M  V30 21 O -0.589468 0.248338 1.731083 0
M  V30 22 C 2.299832 -1.207894 0.666337 0
M  V30 23 C 1.563345 -2.304661 0.963166 0
M  V30 24 C 0.184353 -2.638631 0.545711 0
M  V30 25 H 1.659513 -7.289737 2.956205 0
M  V30 26 H 0.645060 -6.505747 4.164488 0
M  V30 27 H -0.157760 -7.249076 2.779478 0
M  V30 28 H -0.034547 -5.074698 1.809877 0
M  V30 29 H 4.707501 1.776436 0.010569 0
M  V30 30 H 0.363370 -0.382589 -1.676392 0
M  V30 31 H -0.093905 2.094302 -2.185668 0
M  V30 32 H -1.783022 3.782567 -2.875093 0
M  V30 33 H -0.841296 4.887635 -1.868530 0
M  V30 34 H -2.617575 4.719134 -1.525657 0
M  V30 35 H -2.652696 3.928514 0.627689 0
M  V30 36 H -3.091834 2.876433 2.611442 0
M  V30 37 H -1.438905 2.341529 3.244212 0
M  V30 38 H -2.665609 1.110899 2.711566 0
M  V30 39 H -0.337846 -1.897925 -0.042692 0
M  V30 40 H 0.148251 -3.594770 -0.035502 0
M  V30 41 H -0.474057 -2.813778 1.441535 0
M  V30 END ATOM
M  V30 BEGIN BOND
M  V30 1 1 1 2
M  V30 2 1 2 3
M  V30 3 2 3 4
M  V30 4 1 3 5
M  V30 5 1 5 6
M  V30 6 1 6 7
M  V30 7 2 7 8
M  V30 8 1 8 9
M  V30 9 2 9 10
M  V30 10 1 10 11
M  V30 11 1 11 12
M  V30 12 1 12 13
M  V30 13 2 13 14
M  V30 14 1 14 15
M  V30 15 1 15 16
M  V30 16 2 15 17
M  V30 17 1 17 18
M  V30 18 1 18 19
M  V30 19 1 18 20
M  V30 20 2 20 21
M  V30 21 2 11 22
M  V30 22 1 22 23
M  V30 23 1 23 24
M  V30 24 2 23 5
M  V30 25 1 22 7
M  V30 26 1 20 13
M  V30 27 1 1 25
M  V30 28 1 1 26
M  V30 29 1 1 27
M  V30 30 1 2 28
M  V30 31 1 9 29
M  V30 32 1 12 30
M  V30 33 1 14 31
M  V30 34 1 16 32
M  V30 35 1 16 33
M  V30 36 1 16 34
M  V30 37 1 17 35
M  V30 38 1 19 36
M  V30 39 1 19 37
M  V30 40 1 19 38
M  V30 41 1 24 39
M  V30 42 1 24 40
M  V30 43 1 24 41
M  V30 END BOND
M  V30 END CTAB
M  END
>  <Dataset>  (291) 
ChEMBL_Kinases

>  <Ligand_Instance>  (291) 
nan

>  <PDB_ID>  (291) 
nan

>  <Standardized_SMILES>  (291) 
CNC(=O)c1sc2ncnc(Nc3cc(C)cn(C)c3=O)c2c1C

>  <Name>  (291) 
nan

>  <Pocket>  (291) 
nan

>  <ATP_Site>  (291) 
nan

>  <Peripheral>  (291) 
nan

>  <Num_H_Atoms_ProtBoundConf>  (291) 
nan

>  <Num_Resolved_Atoms>  (291) 
nan

>  <Num_Not_Resolved_Atoms>  (291) 
nan

$$$$
CHEMBL3417202
     RDKit          3D

  0  0  0  0  0  0  0  0  0  0999 V3000
M  V30 BEGIN CTAB
M  V30 COUNTS 44 46 0 0 0
M  V30 BEGIN ATOM
M  V30 1 C 1.463911 -6.961096 0.277921 0
M  V30 2 C 1.122983 -6.016185 1.407230 0
M  V30 3 N 0.863625 -4.663366 0.950178 0
M  V30 4 C 1.799261 -3.879942 0.267265 0
M  V30 5 O 2.881513 -4.551688 0.130854 0
M  V30 6 C 1.722324 -2.543612 -0.255827 0
M  V30 7 S 3.203951 -1.968127 -1.055274 0
M  V30 8 C 2.616053 -0.352869 -1.496964 0
M  V30 9 N 3.178776 0.677928 -2.135151 0
M  V30 10 C 2.495033 1.814879 -2.343490 0
M  V30 11 N 1.239965 1.816191 -1.866978 0
M  V30 12 C 0.663902 0.791750 -1.226314 0
M  V30 13 N -0.661800 1.140943 -0.860855 0
M  V30 14 C -0.735313 1.859906 0.392542 0
M  V30 15 C 0.387711 2.161148 1.136655 0
M  V30 16 C 0.319375 2.846049 2.331494 0
M  V30 17 C 1.583771 3.139207 3.088468 0
M  V30 18 C -0.902094 3.257824 2.826034 0
M  V30 19 N -2.010848 2.960764 2.091838 0
M  V30 20 C -3.317240 3.391373 2.603206 0
M  V30 21 C -1.949951 2.292894 0.925667 0
M  V30 22 O -2.988179 2.031115 0.267091 0
M  V30 23 C 1.348952 -0.380365 -1.004749 0
M  V30 24 C 0.872885 -1.479669 -0.372155 0
M  V30 25 C -0.461988 -1.738191 0.220049 0
M  V30 26 H 0.761685 -6.790939 -0.577217 0
M  V30 27 H 2.523283 -6.849316 -0.029184 0
M  V30 28 H 1.281224 -7.993887 0.662533 0
M  V30 29 H 0.226562 -6.444942 1.911206 0
M  V30 30 H 1.925257 -6.044828 2.171745 0
M  V30 31 H -0.055846 -4.231868 1.129794 0
M  V30 32 H 2.986822 2.621209 -2.862786 0
M  V30 33 H -1.576995 0.971319 -1.335955 0
M  V30 34 H 1.364644 1.858252 0.788052 0
M  V30 35 H 1.304465 3.479454 4.093495 0
M  V30 36 H 2.265609 2.253022 3.077092 0
M  V30 37 H 2.075603 3.951525 2.533401 0
M  V30 38 H -0.924703 3.794071 3.766955 0
M  V30 39 H -3.276781 3.484776 3.704957 0
M  V30 40 H -4.103622 2.672725 2.291059 0
M  V30 41 H -3.535579 4.403447 2.206072 0
M  V30 42 H -0.436840 -1.901938 1.300744 0
M  V30 43 H -0.940332 -2.619837 -0.311073 0
M  V30 44 H -1.203151 -0.929925 0.057966 0
M  V30 END ATOM
M  V30 BEGIN BOND
M  V30 1 1 1 2
M  V30 2 1 2 3
M  V30 3 1 3 4
M  V30 4 2 4 5
M  V30 5 1 4 6
M  V30 6 1 6 7
M  V30 7 1 7 8
M  V30 8 2 8 9
M  V30 9 1 9 10
M  V30 10 2 10 11
M  V30 11 1 11 12
M  V30 12 1 12 13
M  V30 13 1 13 14
M  V30 14 2 14 15
M  V30 15 1 15 16
M  V30 16 1 16 17
M  V30 17 2 16 18
M  V30 18 1 18 19
M  V30 19 1 19 20
M  V30 20 1 19 21
M  V30 21 2 21 22
M  V30 22 2 12 23
M  V30 23 1 23 24
M  V30 24 1 24 25
M  V30 25 2 24 6
M  V30 26 1 23 8
M  V30 27 1 21 14
M  V30 28 1 1 26
M  V30 29 1 1 27
M  V30 30 1 1 28
M  V30 31 1 2 29
M  V30 32 1 2 30
M  V30 33 1 3 31
M  V30 34 1 10 32
M  V30 35 1 13 33
M  V30 36 1 15 34
M  V30 37 1 17 35
M  V30 38 1 17 36
M  V30 39 1 17 37
M  V30 40 1 18 38
M  V30 41 1 20 39
M  V30 42 1 20 40
M  V30 43 1 20 41
M  V30 44 1 25 42
M  V30 45 1 25 43
M  V30 46 1 25 44
M  V30 END BOND
M  V30 END CTAB
M  END
>  <Dataset>  (292) 
ChEMBL_Kinases

>  <Ligand_Instance>  (292) 
nan

>  <PDB_ID>  (292) 
nan

>  <Standardized_SMILES>  (292) 
CCNC(=O)c1sc2ncnc(Nc3cc(C)cn(C)c3=O)c2c1C

>  <Name>  (292) 
nan

>  <Pocket>  (292) 
nan

>  <ATP_Site>  (292) 
nan

>  <Peripheral>  (292) 
nan

>  <Num_H_Atoms_ProtBoundConf>  (292) 
nan

>  <Num_Resolved_Atoms>  (292) 
nan

>  <Num_Not_Resolved_Atoms>  (292) 
nan

$$$$
CHEMBL3421636
     RDKit          3D

  0  0  0  0  0  0  0  0  0  0999 V3000
M  V30 BEGIN CTAB
M  V30 COUNTS 53 57 0 0 0
M  V30 BEGIN ATOM
M  V30 1 C 2.429333 -6.080384 3.836369 0
M  V30 2 N 2.743524 -5.608377 2.504617 0
M  V30 3 C 3.721855 -4.566603 2.549149 0
M  V30 4 C 4.132876 -4.188758 1.137114 0
M  V30 5 N 2.900208 -3.848483 0.429853 0
M  V30 6 C 2.545552 -2.567520 -0.069249 0
M  V30 7 C 3.476478 -1.556834 -0.083611 0
M  V30 8 C 3.092822 -0.325041 -0.556966 0
M  V30 9 C 1.815534 -0.003008 -1.033605 0
M  V30 10 N 1.533484 1.285286 -1.507966 0
M  V30 11 C 0.382896 2.104778 -1.400719 0
M  V30 12 C -0.744539 1.823964 -0.670750 0
M  V30 13 C -1.838075 2.682521 -0.619093 0
M  V30 14 C -2.984099 2.293881 0.193971 0
M  V30 15 C -3.134892 1.127366 0.918048 0
M  V30 16 N -4.322851 1.125067 1.547901 0
M  V30 17 C -4.992146 2.277801 1.265606 0
M  V30 18 C -6.228050 2.781717 1.643170 0
M  V30 19 C -6.653443 4.024585 1.183683 0
M  V30 20 C -5.801899 4.728004 0.344589 0
M  V30 21 C -4.576333 4.213683 -0.021919 0
M  V30 22 C -4.147308 2.999193 0.420042 0
M  V30 23 N -1.761505 3.829419 -1.323232 0
M  V30 24 C -0.652716 4.123933 -2.051657 0
M  V30 25 N 0.377288 3.265856 -2.071556 0
M  V30 26 C 0.936922 -1.064791 -0.989445 0
M  V30 27 C 1.265969 -2.340680 -0.519885 0
M  V30 28 C 2.051181 -5.019876 0.294475 0
M  V30 29 C 1.588513 -5.344182 1.700466 0
M  V30 30 H 2.733812 -5.385275 4.640117 0
M  V30 31 H 1.334864 -6.216544 3.908691 0
M  V30 32 H 2.975050 -7.050114 3.982052 0
M  V30 33 H 4.623291 -4.952636 3.060823 0
M  V30 34 H 3.360136 -3.679416 3.109706 0
M  V30 35 H 4.892032 -3.408338 1.123858 0
M  V30 36 H 4.548440 -5.096730 0.658993 0
M  V30 37 H 4.501204 -1.642466 0.247623 0
M  V30 38 H 3.819050 0.504014 -0.579694 0
M  V30 39 H 2.356093 1.664095 -2.034529 0
M  V30 40 H -0.798536 0.927814 -0.113360 0
M  V30 41 H -2.420640 0.313575 0.989497 0
M  V30 42 H -4.721382 0.378452 2.171367 0
M  V30 43 H -6.852625 2.183704 2.304689 0
M  V30 44 H -7.625444 4.415659 1.483849 0
M  V30 45 H -6.093698 5.697614 -0.034463 0
M  V30 46 H -3.930652 4.772399 -0.671906 0
M  V30 47 H -0.583382 5.048467 -2.623687 0
M  V30 48 H -0.070929 -0.918410 -1.346159 0
M  V30 49 H 0.484456 -3.089198 -0.535301 0
M  V30 50 H 1.270450 -4.950907 -0.450769 0
M  V30 51 H 2.675412 -5.911733 -0.010889 0
M  V30 52 H 0.992597 -6.290413 1.691717 0
M  V30 53 H 0.959885 -4.500115 2.045976 0
M  V30 END ATOM
M  V30 BEGIN BOND
M  V30 1 1 1 2
M  V30 2 1 2 3
M  V30 3 1 3 4
M  V30 4 1 4 5
M  V30 5 1 5 6
M  V30 6 2 6 7
M  V30 7 1 7 8
M  V30 8 2 8 9
M  V30 9 1 9 10
M  V30 10 1 10 11
M  V30 11 2 11 12
M  V30 12 1 12 13
M  V30 13 1 13 14
M  V30 14 2 14 15
M  V30 15 1 15 16
M  V30 16 1 16 17
M  V30 17 2 17 18
M  V30 18 1 18 19
M  V30 19 2 19 20
M  V30 20 1 20 21
M  V30 21 2 21 22
M  V30 22 2 13 23
M  V30 23 1 23 24
M  V30 24 2 24 25
M  V30 25 1 9 26
M  V30 26 2 26 27
M  V30 27 1 5 28
M  V30 28 1 28 29
M  V30 29 1 29 2
M  V30 30 1 27 6
M  V30 31 1 25 11
M  V30 32 1 22 14
M  V30 33 1 22 17
M  V30 34 1 1 30
M  V30 35 1 1 31
M  V30 36 1 1 32
M  V30 37 1 3 33
M  V30 38 1 3 34
M  V30 39 1 4 35
M  V30 40 1 4 36
M  V30 41 1 7 37
M  V30 42 1 8 38
M  V30 43 1 10 39
M  V30 44 1 12 40
M  V30 45 1 15 41
M  V30 46 1 16 42
M  V30 47 1 18 43
M  V30 48 1 19 44
M  V30 49 1 20 45
M  V30 50 1 21 46
M  V30 51 1 24 47
M  V30 52 1 26 48
M  V30 53 1 27 49
M  V30 54 1 28 50
M  V30 55 1 28 51
M  V30 56 1 29 52
M  V30 57 1 29 53
M  V30 END BOND
M  V30 END CTAB
M  END
>  <Dataset>  (293) 
ChEMBL_Kinases

>  <Ligand_Instance>  (293) 
nan

>  <PDB_ID>  (293) 
nan

>  <Standardized_SMILES>  (293) 
CN1CCN(c2ccc(Nc3cc(-c4c[nH]c5ccccc45)ncn3)cc2)CC1

>  <Name>  (293) 
nan

>  <Pocket>  (293) 
nan

>  <ATP_Site>  (293) 
nan

>  <Peripheral>  (293) 
nan

>  <Num_H_Atoms_ProtBoundConf>  (293) 
nan

>  <Num_Resolved_Atoms>  (293) 
nan

>  <Num_Not_Resolved_Atoms>  (293) 
nan

$$$$
CHEMBL3421637
     RDKit          3D

  0  0  0  0  0  0  0  0  0  0999 V3000
M  V30 BEGIN CTAB
M  V30 COUNTS 62 67 0 0 0
M  V30 BEGIN ATOM
M  V30 1 O 0.992328 0.675083 0.447878 0
M  V30 2 C 0.528106 1.343408 1.428913 0
M  V30 3 N 1.355516 2.358782 1.977327 0
M  V30 4 C 2.688557 2.625868 1.439801 0
M  V30 5 C 3.734705 2.285684 2.456512 0
M  V30 6 C 3.533580 2.715084 3.752242 0
M  V30 7 C 4.446771 2.447379 4.773703 0
M  V30 8 C 5.584894 1.729092 4.468194 0
M  V30 9 C 5.788969 1.300326 3.181869 0
M  V30 10 C 4.885233 1.561789 2.156426 0
M  V30 11 C 2.842327 4.010037 0.896455 0
M  V30 12 C 4.122619 4.469028 0.308558 0
M  V30 13 C 2.934208 4.210585 -0.603915 0
M  V30 14 C -0.800505 1.081158 1.973529 0
M  V30 15 C -1.401346 1.743215 3.020042 0
M  V30 16 C -2.663499 1.424677 3.473872 0
M  V30 17 C -3.352724 0.396623 2.849818 0
M  V30 18 N -4.571187 -0.151994 3.046838 0
M  V30 19 N -4.778067 -1.123349 2.185828 0
M  V30 20 C -3.709173 -1.270658 1.372623 0
M  V30 21 C -3.488428 -2.213935 0.282316 0
M  V30 22 C -2.986761 -1.926751 -0.978506 0
M  V30 23 C -2.824526 -2.928595 -1.913380 0
M  V30 24 C -3.140780 -4.244987 -1.664391 0
M  V30 25 N -2.953589 -5.227081 -2.668981 0
M  V30 26 C -2.640587 -4.949500 -4.029875 0
M  V30 27 C -1.276099 -5.548522 -4.326500 0
M  V30 28 O -1.366199 -6.941665 -4.122786 0
M  V30 29 C -1.654517 -7.198201 -2.796725 0
M  V30 30 C -3.039293 -6.663355 -2.449728 0
M  V30 31 C -3.637319 -4.514339 -0.409421 0
M  V30 32 C -3.817319 -3.530268 0.565663 0
M  V30 33 C -2.796949 -0.298937 1.796441 0
M  V30 34 C -1.545439 0.061095 1.391578 0
M  V30 35 H 1.055918 2.955381 2.779979 0
M  V30 36 H 2.836645 1.908844 0.594783 0
M  V30 37 H 2.653022 3.274201 4.004485 0
M  V30 38 H 4.282574 2.787191 5.786837 0
M  V30 39 H 6.297222 1.512183 5.233796 0
M  V30 40 H 6.695890 0.730520 2.950094 0
M  V30 41 H 5.032986 1.232029 1.148208 0
M  V30 42 H 2.236006 4.808258 1.404241 0
M  V30 43 H 4.973257 3.790958 0.120764 0
M  V30 44 H 4.438032 5.518425 0.490827 0
M  V30 45 H 2.946982 3.316189 -1.250339 0
M  V30 46 H 2.537572 5.127561 -1.071287 0
M  V30 47 H -0.814247 2.534786 3.466031 0
M  V30 48 H -3.086815 1.976877 4.298682 0
M  V30 49 H -5.250166 0.137748 3.763054 0
M  V30 50 H -2.746168 -0.885581 -1.148171 0
M  V30 51 H -2.431353 -2.561386 -2.829558 0
M  V30 52 H -3.349131 -5.534666 -4.686911 0
M  V30 53 H -2.685246 -3.887935 -4.332920 0
M  V30 54 H -0.573538 -5.139897 -3.572384 0
M  V30 55 H -0.952732 -5.346802 -5.365635 0
M  V30 56 H -0.936164 -6.669499 -2.134616 0
M  V30 57 H -1.695299 -8.294212 -2.638755 0
M  V30 58 H -3.762966 -7.068836 -3.174788 0
M  V30 59 H -3.252168 -6.923036 -1.411991 0
M  V30 60 H -3.912604 -5.518284 -0.128414 0
M  V30 61 H -4.216867 -3.822044 1.539837 0
M  V30 62 H -1.115333 -0.487989 0.565643 0
M  V30 END ATOM
M  V30 BEGIN BOND
M  V30 1 2 1 2
M  V30 2 1 2 3
M  V30 3 1 3 4
M  V30 4 1 4 5
M  V30 5 2 5 6
M  V30 6 1 6 7
M  V30 7 2 7 8
M  V30 8 1 8 9
M  V30 9 2 9 10
M  V30 10 1 4 11
M  V30 11 1 11 12
M  V30 12 1 12 13
M  V30 13 1 2 14
M  V30 14 2 14 15
M  V30 15 1 15 16
M  V30 16 2 16 17
M  V30 17 1 17 18
M  V30 18 1 18 19
M  V30 19 2 19 20
M  V30 20 1 20 21
M  V30 21 2 21 22
M  V30 22 1 22 23
M  V30 23 2 23 24
M  V30 24 1 24 25
M  V30 25 1 25 26
M  V30 26 1 26 27
M  V30 27 1 27 28
M  V30 28 1 28 29
M  V30 29 1 29 30
M  V30 30 1 24 31
M  V30 31 2 31 32
M  V30 32 1 20 33
M  V30 33 2 33 34
M  V30 34 1 10 5
M  V30 35 1 13 11
M  V30 36 1 34 14
M  V30 37 1 33 17
M  V30 38 1 32 21
M  V30 39 1 30 25
M  V30 40 1 3 35
M  V30 41 1 4 36
M  V30 42 1 6 37
M  V30 43 1 7 38
M  V30 44 1 8 39
M  V30 45 1 9 40
M  V30 46 1 10 41
M  V30 47 1 11 42
M  V30 48 1 12 43
M  V30 49 1 12 44
M  V30 50 1 13 45
M  V30 51 1 13 46
M  V30 52 1 15 47
M  V30 53 1 16 48
M  V30 54 1 18 49
M  V30 55 1 22 50
M  V30 56 1 23 51
M  V30 57 1 26 52
M  V30 58 1 26 53
M  V30 59 1 27 54
M  V30 60 1 27 55
M  V30 61 1 29 56
M  V30 62 1 29 57
M  V30 63 1 30 58
M  V30 64 1 30 59
M  V30 65 1 31 60
M  V30 66 1 32 61
M  V30 67 1 34 62
M  V30 END BOND
M  V30 END CTAB
M  END
>  <Dataset>  (294) 
ChEMBL_Kinases

>  <Ligand_Instance>  (294) 
nan

>  <PDB_ID>  (294) 
nan

>  <Standardized_SMILES>  (294) 
O=C(NC(c1ccccc1)C1CC1)c1ccc2[nH]nc(-c3ccc(N4CCOCC4)cc3)c2c1

>  <Name>  (294) 
nan

>  <Pocket>  (294) 
nan

>  <ATP_Site>  (294) 
nan

>  <Peripheral>  (294) 
nan

>  <Num_H_Atoms_ProtBoundConf>  (294) 
nan

>  <Num_Resolved_Atoms>  (294) 
nan

>  <Num_Not_Resolved_Atoms>  (294) 
nan

$$$$
CHEMBL3421963
     RDKit          3D

  0  0  0  0  0  0  0  0  0  0999 V3000
M  V30 BEGIN CTAB
M  V30 COUNTS 56 60 0 0 0
M  V30 BEGIN ATOM
M  V30 1 C -0.118612 -2.486738 1.742852 0
M  V30 2 O -0.543354 -1.296553 1.158745 0
M  V30 3 C 0.102656 -0.091654 1.128169 0
M  V30 4 C 1.332498 0.201506 1.680928 0
M  V30 5 C 1.888365 1.457597 1.587996 0
M  V30 6 N 3.160489 1.729810 2.162765 0
M  V30 7 C 3.775934 3.015360 2.329251 0
M  V30 8 C 5.203344 3.118109 1.929542 0
M  V30 9 N 5.942303 1.919692 1.797937 0
M  V30 10 C 7.013783 1.760951 2.744251 0
M  V30 11 C 5.227951 0.700905 1.666348 0
M  V30 12 C 4.072987 0.734241 2.679364 0
M  V30 13 C 1.192216 2.442212 0.924023 0
M  V30 14 C -0.055419 2.209386 0.343932 0
M  V30 15 C -0.578947 0.917371 0.464774 0
M  V30 16 N -1.869419 0.767476 -0.167922 0
M  V30 17 C -2.431970 -0.036213 -1.194709 0
M  V30 18 C -3.087460 -1.168215 -0.703043 0
M  V30 19 C -3.686737 -2.055583 -1.578135 0
M  V30 20 C -4.370581 -3.233501 -1.055812 0
M  V30 21 C -4.532479 -3.637313 0.269866 0
M  V30 22 N -5.225135 -4.777965 0.301011 0
M  V30 23 C -5.539869 -5.164849 -0.947534 0
M  V30 24 C -6.226767 -6.241871 -1.435932 0
M  V30 25 N -6.402483 -6.390497 -2.776045 0
M  V30 26 C -5.892968 -5.464159 -3.638986 0
M  V30 27 C -5.195579 -4.371794 -3.133296 0
M  V30 28 C -5.009897 -4.208019 -1.781346 0
M  V30 29 N -3.619825 -1.798671 -2.904178 0
M  V30 30 C -2.975746 -0.688230 -3.375954 0
M  V30 31 N -2.394950 0.171553 -2.519213 0
M  V30 32 H -0.958894 -3.223555 1.602706 0
M  V30 33 H 0.700289 -2.887413 1.080867 0
M  V30 34 H 0.207609 -2.408303 2.783160 0
M  V30 35 H 1.771869 -0.635683 2.166350 0
M  V30 36 H 3.224442 3.841982 1.815771 0
M  V30 37 H 3.681009 3.244273 3.437999 0
M  V30 38 H 5.731808 3.735164 2.723993 0
M  V30 39 H 5.317070 3.759851 1.019970 0
M  V30 40 H 7.489316 0.772986 2.699061 0
M  V30 41 H 6.603236 2.014029 3.754974 0
M  V30 42 H 7.809693 2.522755 2.505099 0
M  V30 43 H 5.908515 -0.138529 1.947338 0
M  V30 44 H 4.779403 0.537739 0.665651 0
M  V30 45 H 3.634697 -0.274371 2.791099 0
M  V30 46 H 4.474904 1.011854 3.662751 0
M  V30 47 H 1.547101 3.454213 0.800053 0
M  V30 48 H -0.592778 3.009408 -0.180988 0
M  V30 49 H -2.649617 1.367779 0.152141 0
M  V30 50 H -3.165256 -1.413602 0.366770 0
M  V30 51 H -4.143803 -3.086964 1.112501 0
M  V30 52 H -5.468747 -5.270132 1.192412 0
M  V30 53 H -6.629747 -6.977212 -0.733761 0
M  V30 54 H -6.060690 -5.631691 -4.676312 0
M  V30 55 H -4.797400 -3.645357 -3.830244 0
M  V30 56 H -2.944854 -0.519430 -4.436162 0
M  V30 END ATOM
M  V30 BEGIN BOND
M  V30 1 1 1 2
M  V30 2 1 2 3
M  V30 3 2 3 4
M  V30 4 1 4 5
M  V30 5 1 5 6
M  V30 6 1 6 7
M  V30 7 1 7 8
M  V30 8 1 8 9
M  V30 9 1 9 10
M  V30 10 1 9 11
M  V30 11 1 11 12
M  V30 12 2 5 13
M  V30 13 1 13 14
M  V30 14 2 14 15
M  V30 15 1 15 16
M  V30 16 1 16 17
M  V30 17 2 17 18
M  V30 18 1 18 19
M  V30 19 1 19 20
M  V30 20 2 20 21
M  V30 21 1 21 22
M  V30 22 1 22 23
M  V30 23 2 23 24
M  V30 24 1 24 25
M  V30 25 2 25 26
M  V30 26 1 26 27
M  V30 27 2 27 28
M  V30 28 2 19 29
M  V30 29 1 29 30
M  V30 30 2 30 31
M  V30 31 1 15 3
M  V30 32 1 31 17
M  V30 33 1 12 6
M  V30 34 1 28 20
M  V30 35 1 28 23
M  V30 36 1 1 32
M  V30 37 1 1 33
M  V30 38 1 1 34
M  V30 39 1 4 35
M  V30 40 1 7 36
M  V30 41 1 7 37
M  V30 42 1 8 38
M  V30 43 1 8 39
M  V30 44 1 10 40
M  V30 45 1 10 41
M  V30 46 1 10 42
M  V30 47 1 11 43
M  V30 48 1 11 44
M  V30 49 1 12 45
M  V30 50 1 12 46
M  V30 51 1 13 47
M  V30 52 1 14 48
M  V30 53 1 16 49
M  V30 54 1 18 50
M  V30 55 1 21 51
M  V30 56 1 22 52
M  V30 57 1 24 53
M  V30 58 1 26 54
M  V30 59 1 27 55
M  V30 60 1 30 56
M  V30 END BOND
M  V30 END CTAB
M  END
>  <Dataset>  (295) 
ChEMBL_Kinases

>  <Ligand_Instance>  (295) 
nan

>  <PDB_ID>  (295) 
nan

>  <Standardized_SMILES>  (295) 
COc1cc(N2CCN(C)CC2)ccc1Nc1cc(-c2c[nH]c3cnccc23)ncn1

>  <Name>  (295) 
nan

>  <Pocket>  (295) 
nan

>  <ATP_Site>  (295) 
nan

>  <Peripheral>  (295) 
nan

>  <Num_H_Atoms_ProtBoundConf>  (295) 
nan

>  <Num_Resolved_Atoms>  (295) 
nan

>  <Num_Not_Resolved_Atoms>  (295) 
nan

$$$$
CHEMBL3421964
     RDKit          3D

  0  0  0  0  0  0  0  0  0  0999 V3000
M  V30 BEGIN CTAB
M  V30 COUNTS 58 62 0 0 0
M  V30 BEGIN ATOM
M  V30 1 C 3.102572 -1.891935 2.462122 0
M  V30 2 O 1.917389 -1.912641 1.706941 0
M  V30 3 C 1.066241 -0.818176 1.770966 0
M  V30 4 C 1.368874 0.272579 2.557125 0
M  V30 5 C 0.546864 1.372413 2.642481 0
M  V30 6 N 0.901601 2.479337 3.466277 0
M  V30 7 C 2.100140 2.630492 4.231285 0
M  V30 8 C 2.776663 3.938074 3.818856 0
M  V30 9 N 2.162406 4.535922 2.670599 0
M  V30 10 C 2.932857 4.718192 1.484856 0
M  V30 11 C 2.414270 5.319627 0.243232 0
M  V30 12 O 4.111573 4.305071 1.619950 0
M  V30 13 C 0.800512 4.835684 3.014337 0
M  V30 14 C 0.120201 3.659259 3.687260 0
M  V30 15 C -0.616751 1.374109 1.913246 0
M  V30 16 C -0.882821 0.259070 1.136816 0
M  V30 17 C -0.109711 -0.872077 1.003627 0
M  V30 18 N -0.392695 -1.984132 0.218857 0
M  V30 19 C -1.516868 -2.196650 -0.598252 0
M  V30 20 C -1.645555 -3.351832 -1.323741 0
M  V30 21 C -2.653751 -3.721680 -2.154973 0
M  V30 22 C -2.853312 -4.899413 -2.950924 0
M  V30 23 C -3.951123 -4.983636 -3.818897 0
M  V30 24 N -3.927756 -6.168681 -4.444262 0
M  V30 25 C -2.882891 -6.924704 -4.071281 0
M  V30 26 C -2.387007 -8.174368 -4.372713 0
M  V30 27 N -1.251909 -8.614182 -3.754918 0
M  V30 28 C -0.617356 -7.826595 -2.850998 0
M  V30 29 C -1.119495 -6.586696 -2.559722 0
M  V30 30 C -2.255483 -6.109645 -3.158813 0
M  V30 31 N -3.595729 -2.767808 -2.205932 0
M  V30 32 C -3.573485 -1.606287 -1.543035 0
M  V30 33 N -2.530611 -1.346364 -0.751303 0
M  V30 34 H 3.791433 -1.114313 2.057705 0
M  V30 35 H 2.893058 -1.717399 3.551136 0
M  V30 36 H 3.661561 -2.833501 2.426988 0
M  V30 37 H 2.300773 0.188362 3.096375 0
M  V30 38 H 1.818038 2.717334 5.316847 0
M  V30 39 H 2.800438 1.784665 4.177551 0
M  V30 40 H 2.744034 4.676570 4.661460 0
M  V30 41 H 3.833499 3.708002 3.631000 0
M  V30 42 H 2.844549 4.830453 -0.651437 0
M  V30 43 H 1.316187 5.223903 0.265496 0
M  V30 44 H 2.739703 6.395620 0.207416 0
M  V30 45 H 0.729975 5.704933 3.675812 0
M  V30 46 H 0.284531 5.103749 2.053371 0
M  V30 47 H -0.902013 3.621091 3.263607 0
M  V30 48 H -0.031356 3.841672 4.773777 0
M  V30 49 H -1.312831 2.203192 1.928301 0
M  V30 50 H -1.811784 0.331656 0.593319 0
M  V30 51 H 0.332313 -2.758152 0.247501 0
M  V30 52 H -0.833941 -4.046285 -1.220273 0
M  V30 53 H -4.761294 -4.304986 -4.057838 0
M  V30 54 H -4.617790 -6.541219 -5.163795 0
M  V30 55 H -2.933834 -8.771068 -5.107115 0
M  V30 56 H 0.280963 -8.235228 -2.394590 0
M  V30 57 H -0.557422 -6.053570 -1.840326 0
M  V30 58 H -4.422035 -0.935659 -1.694091 0
M  V30 END ATOM
M  V30 BEGIN BOND
M  V30 1 1 1 2
M  V30 2 1 2 3
M  V30 3 2 3 4
M  V30 4 1 4 5
M  V30 5 1 5 6
M  V30 6 1 6 7
M  V30 7 1 7 8
M  V30 8 1 8 9
M  V30 9 1 9 10
M  V30 10 1 10 11
M  V30 11 2 10 12
M  V30 12 1 9 13
M  V30 13 1 13 14
M  V30 14 2 5 15
M  V30 15 1 15 16
M  V30 16 2 16 17
M  V30 17 1 17 18
M  V30 18 1 18 19
M  V30 19 2 19 20
M  V30 20 1 20 21
M  V30 21 1 21 22
M  V30 22 2 22 23
M  V30 23 1 23 24
M  V30 24 1 24 25
M  V30 25 2 25 26
M  V30 26 1 26 27
M  V30 27 2 27 28
M  V30 28 1 28 29
M  V30 29 2 29 30
M  V30 30 2 21 31
M  V30 31 1 31 32
M  V30 32 2 32 33
M  V30 33 1 17 3
M  V30 34 1 33 19
M  V30 35 1 14 6
M  V30 36 1 30 22
M  V30 37 1 30 25
M  V30 38 1 1 34
M  V30 39 1 1 35
M  V30 40 1 1 36
M  V30 41 1 4 37
M  V30 42 1 7 38
M  V30 43 1 7 39
M  V30 44 1 8 40
M  V30 45 1 8 41
M  V30 46 1 11 42
M  V30 47 1 11 43
M  V30 48 1 11 44
M  V30 49 1 13 45
M  V30 50 1 13 46
M  V30 51 1 14 47
M  V30 52 1 14 48
M  V30 53 1 15 49
M  V30 54 1 16 50
M  V30 55 1 18 51
M  V30 56 1 20 52
M  V30 57 1 23 53
M  V30 58 1 24 54
M  V30 59 1 26 55
M  V30 60 1 28 56
M  V30 61 1 29 57
M  V30 62 1 32 58
M  V30 END BOND
M  V30 END CTAB
M  END
>  <Dataset>  (296) 
ChEMBL_Kinases

>  <Ligand_Instance>  (296) 
nan

>  <PDB_ID>  (296) 
nan

>  <Standardized_SMILES>  (296) 
COc1cc(N2CCN(C(C)=O)CC2)ccc1Nc1cc(-c2c[nH]c3cnccc23)ncn1

>  <Name>  (296) 
nan

>  <Pocket>  (296) 
nan

>  <ATP_Site>  (296) 
nan

>  <Peripheral>  (296) 
nan

>  <Num_H_Atoms_ProtBoundConf>  (296) 
nan

>  <Num_Resolved_Atoms>  (296) 
nan

>  <Num_Not_Resolved_Atoms>  (296) 
nan

$$$$
CHEMBL3421965
     RDKit          3D

  0  0  0  0  0  0  0  0  0  0999 V3000
M  V30 BEGIN CTAB
M  V30 COUNTS 61 65 0 0 0
M  V30 BEGIN ATOM
M  V30 1 C 0.776453 -3.102202 2.781890 0
M  V30 2 O -0.309609 -2.215615 3.005307 0
M  V30 3 C -0.170320 -0.843558 2.948580 0
M  V30 4 C 1.079063 -0.338579 2.664636 0
M  V30 5 C 1.309817 1.017410 2.589367 0
M  V30 6 N 2.569780 1.611745 2.305811 0
M  V30 7 C 2.839039 3.032044 2.133483 0
M  V30 8 C 3.813293 3.274939 1.001097 0
M  V30 9 N 3.857877 2.147676 0.088576 0
M  V30 10 C 3.646516 2.369741 -1.298663 0
M  V30 11 C 3.676855 1.274361 -2.285585 0
M  V30 12 O 3.455971 3.599851 -1.401754 0
M  V30 13 C 4.118663 0.840527 0.656190 0
M  V30 14 C 3.809136 0.875806 2.146367 0
M  V30 15 C 0.243200 1.863462 2.808864 0
M  V30 16 C -1.016140 1.360676 3.094801 0
M  V30 17 C -1.263698 -0.008762 3.173804 0
M  V30 18 N -2.552740 -0.516144 3.474516 0
M  V30 19 C -3.348904 -1.346499 2.653048 0
M  V30 20 C -2.979335 -1.739994 1.395444 0
M  V30 21 C -3.663740 -2.532294 0.540896 0
M  V30 22 C -3.348754 -2.981794 -0.787654 0
M  V30 23 C -4.254567 -3.747232 -1.522843 0
M  V30 24 N -3.743148 -4.048188 -2.719221 0
M  V30 25 C -4.359115 -4.830137 -3.794076 0
M  V30 26 C -2.512015 -3.531778 -2.871337 0
M  V30 27 C -1.526198 -3.504066 -3.835698 0
M  V30 28 N -0.348516 -2.858169 -3.640529 0
M  V30 29 C -0.147959 -2.230684 -2.469115 0
M  V30 30 C -1.115740 -2.245288 -1.495040 0
M  V30 31 C -2.309562 -2.890213 -1.672285 0
M  V30 32 N -4.824755 -2.929107 1.072021 0
M  V30 33 C -5.295604 -2.613957 2.283650 0
M  V30 34 N -4.538700 -1.806804 3.085204 0
M  V30 35 H 1.601846 -2.938397 3.500287 0
M  V30 36 H 1.153995 -3.022875 1.735816 0
M  V30 37 H 0.432303 -4.143241 2.908480 0
M  V30 38 H 1.901876 -1.017362 2.494459 0
M  V30 39 H 1.901251 3.544883 1.839350 0
M  V30 40 H 3.245312 3.420567 3.085512 0
M  V30 41 H 3.585637 4.194260 0.453870 0
M  V30 42 H 4.826500 3.369172 1.446561 0
M  V30 43 H 2.725866 0.692771 -2.339463 0
M  V30 44 H 4.553524 0.601949 -2.118454 0
M  V30 45 H 3.835787 1.661058 -3.329680 0
M  V30 46 H 5.176674 0.589024 0.459511 0
M  V30 47 H 3.495691 0.082029 0.174275 0
M  V30 48 H 4.666558 1.344224 2.674554 0
M  V30 49 H 3.731106 -0.153724 2.538347 0
M  V30 50 H 0.235999 2.923744 2.792931 0
M  V30 51 H -1.907338 1.977277 3.279790 0
M  V30 52 H -2.926913 -0.233449 4.398264 0
M  V30 53 H -2.045624 -1.344478 1.097512 0
M  V30 54 H -5.263788 -4.119560 -1.286887 0
M  V30 55 H -4.197171 -4.263177 -4.743820 0
M  V30 56 H -5.437668 -4.947251 -3.683617 0
M  V30 57 H -3.848287 -5.809823 -3.927523 0
M  V30 58 H -1.752409 -4.027095 -4.749638 0
M  V30 59 H 0.809462 -1.724221 -2.351313 0
M  V30 60 H -0.843770 -1.719817 -0.611335 0
M  V30 61 H -6.250776 -3.004277 2.587890 0
M  V30 END ATOM
M  V30 BEGIN BOND
M  V30 1 1 1 2
M  V30 2 1 2 3
M  V30 3 2 3 4
M  V30 4 1 4 5
M  V30 5 1 5 6
M  V30 6 1 6 7
M  V30 7 1 7 8
M  V30 8 1 8 9
M  V30 9 1 9 10
M  V30 10 1 10 11
M  V30 11 2 10 12
M  V30 12 1 9 13
M  V30 13 1 13 14
M  V30 14 2 5 15
M  V30 15 1 15 16
M  V30 16 2 16 17
M  V30 17 1 17 18
M  V30 18 1 18 19
M  V30 19 2 19 20
M  V30 20 1 20 21
M  V30 21 1 21 22
M  V30 22 2 22 23
M  V30 23 1 23 24
M  V30 24 1 24 25
M  V30 25 1 24 26
M  V30 26 2 26 27
M  V30 27 1 27 28
M  V30 28 2 28 29
M  V30 29 1 29 30
M  V30 30 2 30 31
M  V30 31 2 21 32
M  V30 32 1 32 33
M  V30 33 2 33 34
M  V30 34 1 17 3
M  V30 35 1 34 19
M  V30 36 1 14 6
M  V30 37 1 31 22
M  V30 38 1 31 26
M  V30 39 1 1 35
M  V30 40 1 1 36
M  V30 41 1 1 37
M  V30 42 1 4 38
M  V30 43 1 7 39
M  V30 44 1 7 40
M  V30 45 1 8 41
M  V30 46 1 8 42
M  V30 47 1 11 43
M  V30 48 1 11 44
M  V30 49 1 11 45
M  V30 50 1 13 46
M  V30 51 1 13 47
M  V30 52 1 14 48
M  V30 53 1 14 49
M  V30 54 1 15 50
M  V30 55 1 16 51
M  V30 56 1 18 52
M  V30 57 1 20 53
M  V30 58 1 23 54
M  V30 59 1 25 55
M  V30 60 1 25 56
M  V30 61 1 25 57
M  V30 62 1 27 58
M  V30 63 1 29 59
M  V30 64 1 30 60
M  V30 65 1 33 61
M  V30 END BOND
M  V30 END CTAB
M  END
>  <Dataset>  (297) 
ChEMBL_Kinases

>  <Ligand_Instance>  (297) 
nan

>  <PDB_ID>  (297) 
nan

>  <Standardized_SMILES>  (297) 
COc1cc(N2CCN(C(C)=O)CC2)ccc1Nc1cc(-c2cn(C)c3cnccc23)ncn1

>  <Name>  (297) 
nan

>  <Pocket>  (297) 
nan

>  <ATP_Site>  (297) 
nan

>  <Peripheral>  (297) 
nan

>  <Num_H_Atoms_ProtBoundConf>  (297) 
nan

>  <Num_Resolved_Atoms>  (297) 
nan

>  <Num_Not_Resolved_Atoms>  (297) 
nan

$$$$
CHEMBL3414687
     RDKit          3D

  0  0  0  0  0  0  0  0  0  0999 V3000
M  V30 BEGIN CTAB
M  V30 COUNTS 46 47 0 0 0
M  V30 BEGIN ATOM
M  V30 1 C -0.079885 -5.308789 1.621972 0
M  V30 2 C 0.390580 -5.078452 0.211922 0
M  V30 3 C 1.899117 -5.092391 0.229935 0
M  V30 4 C -0.209007 -3.911535 -0.439020 0
M  V30 5 C -0.022018 -2.555734 0.098117 0
M  V30 6 C -0.503284 -2.264136 1.481826 0
M  V30 7 C -0.239431 -0.775723 1.832165 0
M  V30 8 C -0.785852 -0.657292 3.260108 0
M  V30 9 C 1.198161 -0.447088 1.877031 0
M  V30 10 C 1.670898 0.623516 0.957405 0
M  V30 11 C 0.636632 1.571487 0.506577 0
M  V30 12 C 1.029870 2.814323 0.049731 0
M  V30 13 C 0.056273 3.708350 -0.375308 0
M  V30 14 S 0.460678 5.289253 -0.963764 0
M  V30 15 N 0.491772 6.455565 0.332380 0
M  V30 16 O 1.846979 5.326463 -1.565170 0
M  V30 17 O -0.470296 5.809507 -2.003433 0
M  V30 18 C -1.294485 3.403410 -0.359456 0
M  V30 19 C -1.674118 2.152166 0.101730 0
M  V30 20 F -2.983839 1.774424 0.149253 0
M  V30 21 C -0.714319 1.250845 0.528566 0
M  V30 22 O -1.055902 -0.025982 1.002696 0
M  V30 23 H -0.270185 -6.423720 1.785738 0
M  V30 24 H 0.678312 -5.071558 2.399092 0
M  V30 25 H -1.074763 -4.859359 1.805958 0
M  V30 26 H 0.062510 -5.990307 -0.377691 0
M  V30 27 H 2.373864 -4.865947 -0.728059 0
M  V30 28 H 2.210423 -6.129470 0.491588 0
M  V30 29 H 2.251360 -4.452910 1.080815 0
M  V30 30 H 0.070469 -3.857716 -1.541724 0
M  V30 31 H -1.334918 -4.072412 -0.510668 0
M  V30 32 H -0.651854 -1.878454 -0.566066 0
M  V30 33 H 1.011239 -2.141789 -0.077792 0
M  V30 34 H 0.003911 -2.837811 2.286570 0
M  V30 35 H -1.589868 -2.434704 1.553306 0
M  V30 36 H -0.703658 0.409295 3.558547 0
M  V30 37 H -1.814810 -1.014411 3.336692 0
M  V30 38 H -0.083254 -1.202283 3.925469 0
M  V30 39 H 1.780959 -1.373671 1.648673 0
M  V30 40 H 1.556693 -0.165075 2.904708 0
M  V30 41 H 2.110973 0.188765 0.012395 0
M  V30 42 H 2.498191 1.221750 1.395943 0
M  V30 43 H 2.070733 3.149137 -0.001595 0
M  V30 44 H 0.687041 5.885812 1.209944 0
M  V30 45 H -0.522772 6.754616 0.435361 0
M  V30 46 H -2.080826 4.053567 -0.674567 0
M  V30 END ATOM
M  V30 BEGIN BOND
M  V30 1 1 1 2
M  V30 2 1 2 3
M  V30 3 1 2 4
M  V30 4 1 4 5
M  V30 5 1 5 6
M  V30 6 1 6 7
M  V30 7 1 7 8
M  V30 8 1 7 9
M  V30 9 1 9 10
M  V30 10 1 10 11
M  V30 11 2 11 12
M  V30 12 1 12 13
M  V30 13 1 13 14
M  V30 14 1 14 15
M  V30 15 2 14 16
M  V30 16 2 14 17
M  V30 17 2 13 18
M  V30 18 1 18 19
M  V30 19 1 19 20
M  V30 20 2 19 21
M  V30 21 1 21 22
M  V30 22 1 22 7
M  V30 23 1 21 11
M  V30 24 1 1 23
M  V30 25 1 1 24
M  V30 26 1 1 25
M  V30 27 1 2 26
M  V30 28 1 3 27
M  V30 29 1 3 28
M  V30 30 1 3 29
M  V30 31 1 4 30
M  V30 32 1 4 31
M  V30 33 1 5 32
M  V30 34 1 5 33
M  V30 35 1 6 34
M  V30 36 1 6 35
M  V30 37 1 8 36
M  V30 38 1 8 37
M  V30 39 1 8 38
M  V30 40 1 9 39
M  V30 41 1 9 40
M  V30 42 1 10 41
M  V30 43 1 10 42
M  V30 44 1 12 43
M  V30 45 1 15 44
M  V30 46 1 15 45
M  V30 47 1 18 46
M  V30 END BOND
M  V30 END CTAB
M  END
>  <Dataset>  (298) 
ChEMBL_Kinases

>  <Ligand_Instance>  (298) 
nan

>  <PDB_ID>  (298) 
nan

>  <Standardized_SMILES>  (298) 
CC(C)CCCC1(C)CCc2cc(S(N)(=O)=O)cc(F)c2O1

>  <Name>  (298) 
nan

>  <Pocket>  (298) 
nan

>  <ATP_Site>  (298) 
nan

>  <Peripheral>  (298) 
nan

>  <Num_H_Atoms_ProtBoundConf>  (298) 
nan

>  <Num_Resolved_Atoms>  (298) 
nan

>  <Num_Not_Resolved_Atoms>  (298) 
nan

$$$$
CHEMBL3410033
     RDKit          3D

  0  0  0  0  0  0  0  0  0  0999 V3000
M  V30 BEGIN CTAB
M  V30 COUNTS 39 42 0 0 0
M  V30 BEGIN ATOM
M  V30 1 C 1.327656 -3.235549 1.522631 0
M  V30 2 C 2.170754 -3.727418 0.444106 0
M  V30 3 C 2.594187 -5.047362 0.275665 0
M  V30 4 N 3.337181 -5.163913 -0.838002 0
M  V30 5 C 3.422240 -3.957683 -1.418780 0
M  V30 6 N 4.021273 -3.509538 -2.548176 0
M  V30 7 C 3.879740 -2.185015 -2.847114 0
M  V30 8 N 3.187020 -1.329012 -2.082592 0
M  V30 9 C 2.574845 -1.754037 -0.939050 0
M  V30 10 C 1.885128 -0.685141 -0.261693 0
M  V30 11 C 0.966593 0.020965 -1.055963 0
M  V30 12 C 0.205909 1.109308 -0.658277 0
M  V30 13 C 0.377532 1.528185 0.644400 0
M  V30 14 N -0.361562 2.640360 1.147014 0
M  V30 15 C -1.616992 2.340428 1.744011 0
M  V30 16 O -1.935798 1.113566 1.760665 0
M  V30 17 N -2.440395 3.342140 2.276111 0
M  V30 18 C -3.704400 2.924685 2.863643 0
M  V30 19 N -4.160099 1.650814 2.943677 0
M  V30 20 C -5.355939 1.575320 3.537009 0
M  V30 21 C -6.103547 2.737904 4.049869 0
M  V30 22 S -4.835320 4.047830 3.564899 0
M  V30 23 C 1.261500 0.886307 1.486100 0
M  V30 24 C 1.983129 -0.187038 1.021923 0
M  V30 25 C 2.707633 -3.087012 -0.627231 0
M  V30 26 H 0.497930 -2.569108 1.248100 0
M  V30 27 H 0.801070 -4.136226 1.977031 0
M  V30 28 H 1.887779 -2.786772 2.352397 0
M  V30 29 H 2.338672 -5.857160 0.974763 0
M  V30 30 H 3.770444 -6.054967 -1.181493 0
M  V30 31 H 4.374452 -1.858904 -3.764222 0
M  V30 32 H 0.786858 -0.267123 -2.104657 0
M  V30 33 H -0.473321 1.603221 -1.304647 0
M  V30 34 H -0.062740 3.646480 1.114548 0
M  V30 35 H -2.185133 4.345058 2.265191 0
M  V30 36 H -5.587927 0.491217 3.526644 0
M  V30 37 H -7.087753 2.301484 4.494289 0
M  V30 38 H 1.437536 1.169798 2.515757 0
M  V30 39 H 2.700833 -0.716896 1.627568 0
M  V30 END ATOM
M  V30 BEGIN BOND
M  V30 1 1 1 2
M  V30 2 2 2 3
M  V30 3 1 3 4
M  V30 4 1 4 5
M  V30 5 2 5 6
M  V30 6 1 6 7
M  V30 7 2 7 8
M  V30 8 1 8 9
M  V30 9 1 9 10
M  V30 10 2 10 11
M  V30 11 1 11 12
M  V30 12 2 12 13
M  V30 13 1 13 14
M  V30 14 1 14 15
M  V30 15 2 15 16
M  V30 16 1 15 17
M  V30 17 1 17 18
M  V30 18 2 18 19
M  V30 19 1 19 20
M  V30 20 2 20 21
M  V30 21 1 21 22
M  V30 22 1 13 23
M  V30 23 2 23 24
M  V30 24 2 9 25
M  V30 25 1 25 2
M  V30 26 1 25 5
M  V30 27 1 24 10
M  V30 28 1 22 18
M  V30 29 1 1 26
M  V30 30 1 1 27
M  V30 31 1 1 28
M  V30 32 1 3 29
M  V30 33 1 4 30
M  V30 34 1 7 31
M  V30 35 1 11 32
M  V30 36 1 12 33
M  V30 37 1 14 34
M  V30 38 1 17 35
M  V30 39 1 20 36
M  V30 40 1 21 37
M  V30 41 1 23 38
M  V30 42 1 24 39
M  V30 END BOND
M  V30 END CTAB
M  END
>  <Dataset>  (299) 
ChEMBL_Kinases

>  <Ligand_Instance>  (299) 
nan

>  <PDB_ID>  (299) 
nan

>  <Standardized_SMILES>  (299) 
Cc1c[nH]c2ncnc(-c3ccc(NC(=O)Nc4nccs4)cc3)c12

>  <Name>  (299) 
nan

>  <Pocket>  (299) 
nan

>  <ATP_Site>  (299) 
nan

>  <Peripheral>  (299) 
nan

>  <Num_H_Atoms_ProtBoundConf>  (299) 
nan

>  <Num_Resolved_Atoms>  (299) 
nan

>  <Num_Not_Resolved_Atoms>  (299) 
nan

$$$$
CHEMBL3410031
     RDKit          3D

  0  0  0  0  0  0  0  0  0  0999 V3000
M  V30 BEGIN CTAB
M  V30 COUNTS 47 50 0 0 0
M  V30 BEGIN ATOM
M  V30 1 C 5.291978 -5.121455 3.462818 0
M  V30 2 O 4.950362 -4.188619 2.481576 0
M  V30 3 C 4.872301 -2.828552 2.676732 0
M  V30 4 C 5.119176 -2.186746 3.867031 0
M  V30 5 C 5.036374 -0.827359 4.043582 0
M  V30 6 C 4.684677 -0.025454 2.975428 0
M  V30 7 C 4.430925 -0.642591 1.767529 0
M  V30 8 N 4.053453 0.061852 0.563977 0
M  V30 9 C 2.648350 0.222516 0.411190 0
M  V30 10 O 1.920532 -0.252104 1.312704 0
M  V30 11 N 2.002407 0.874813 -0.675917 0
M  V30 12 C 0.577763 0.961849 -0.697510 0
M  V30 13 C -0.057982 2.040572 -0.118242 0
M  V30 14 C -1.457331 2.049339 -0.182372 0
M  V30 15 C -2.234899 1.048080 -0.787496 0
M  V30 16 C -3.649669 1.294313 -0.761190 0
M  V30 17 N -3.964728 2.521711 -1.278844 0
M  V30 18 C -5.260437 2.948229 -1.343609 0
M  V30 19 N -6.300112 2.211243 -0.913112 0
M  V30 20 C -6.010297 1.003237 -0.400037 0
M  V30 21 N -6.766094 0.023868 0.128313 0
M  V30 22 C -5.969115 -1.007522 0.524980 0
M  V30 23 C -4.630214 -0.698044 0.247435 0
M  V30 24 C -3.461093 -1.532784 0.543502 0
M  V30 25 C -4.720901 0.548858 -0.321832 0
M  V30 26 C -1.498699 0.017896 -1.335333 0
M  V30 27 C -0.124893 -0.055321 -1.308515 0
M  V30 28 C 4.519414 -2.029207 1.603039 0
M  V30 29 H 5.059374 -4.800424 4.493091 0
M  V30 30 H 4.717652 -6.070934 3.276575 0
M  V30 31 H 6.367907 -5.420005 3.398447 0
M  V30 32 H 5.397574 -2.784335 4.726164 0
M  V30 33 H 5.239361 -0.350341 5.003741 0
M  V30 34 H 4.596051 1.050024 3.025613 0
M  V30 35 H 4.655172 0.466010 -0.202046 0
M  V30 36 H 2.616338 1.266936 -1.421876 0
M  V30 37 H 0.468812 2.848480 0.365123 0
M  V30 38 H -1.921796 2.928875 0.292557 0
M  V30 39 H -5.504060 3.916412 -1.752761 0
M  V30 40 H -7.817983 0.050827 0.221347 0
M  V30 41 H -6.269927 -1.956855 0.994000 0
M  V30 42 H -3.791921 -2.258875 1.351764 0
M  V30 43 H -3.111030 -2.175166 -0.261500 0
M  V30 44 H -2.692009 -0.928562 1.064640 0
M  V30 45 H -2.076684 -0.736688 -1.812989 0
M  V30 46 H 0.338802 -0.911285 -1.770245 0
M  V30 47 H 4.317201 -2.510984 0.644123 0
M  V30 END ATOM
M  V30 BEGIN BOND
M  V30 1 1 1 2
M  V30 2 1 2 3
M  V30 3 2 3 4
M  V30 4 1 4 5
M  V30 5 2 5 6
M  V30 6 1 6 7
M  V30 7 1 7 8
M  V30 8 1 8 9
M  V30 9 2 9 10
M  V30 10 1 9 11
M  V30 11 1 11 12
M  V30 12 2 12 13
M  V30 13 1 13 14
M  V30 14 2 14 15
M  V30 15 1 15 16
M  V30 16 2 16 17
M  V30 17 1 17 18
M  V30 18 2 18 19
M  V30 19 1 19 20
M  V30 20 1 20 21
M  V30 21 1 21 22
M  V30 22 2 22 23
M  V30 23 1 23 24
M  V30 24 1 23 25
M  V30 25 1 15 26
M  V30 26 2 26 27
M  V30 27 2 7 28
M  V30 28 1 28 3
M  V30 29 1 27 12
M  V30 30 1 25 16
M  V30 31 2 25 20
M  V30 32 1 1 29
M  V30 33 1 1 30
M  V30 34 1 1 31
M  V30 35 1 4 32
M  V30 36 1 5 33
M  V30 37 1 6 34
M  V30 38 1 8 35
M  V30 39 1 11 36
M  V30 40 1 13 37
M  V30 41 1 14 38
M  V30 42 1 18 39
M  V30 43 1 21 40
M  V30 44 1 22 41
M  V30 45 1 24 42
M  V30 46 1 24 43
M  V30 47 1 24 44
M  V30 48 1 26 45
M  V30 49 1 27 46
M  V30 50 1 28 47
M  V30 END BOND
M  V30 END CTAB
M  END
>  <Dataset>  (300) 
ChEMBL_Kinases

>  <Ligand_Instance>  (300) 
nan

>  <PDB_ID>  (300) 
nan

>  <Standardized_SMILES>  (300) 
COc1cccc(NC(=O)Nc2ccc(-c3ncnc4[nH]cc(C)c34)cc2)c1

>  <Name>  (300) 
nan

>  <Pocket>  (300) 
nan

>  <ATP_Site>  (300) 
nan

>  <Peripheral>  (300) 
nan

>  <Num_H_Atoms_ProtBoundConf>  (300) 
nan

>  <Num_Resolved_Atoms>  (300) 
nan

>  <Num_Not_Resolved_Atoms>  (300) 
nan

$$$$
CHEMBL3410030
     RDKit          3D

  0  0  0  0  0  0  0  0  0  0999 V3000
M  V30 BEGIN CTAB
M  V30 COUNTS 47 50 0 0 0
M  V30 BEGIN ATOM
M  V30 1 C 4.719370 -2.363794 1.170223 0
M  V30 2 O 4.293510 -1.066613 1.424289 0
M  V30 3 C 5.121767 -0.079600 1.898126 0
M  V30 4 C 6.430087 -0.430590 2.119834 0
M  V30 5 C 7.262751 0.536076 2.589133 0
M  V30 6 C 6.777105 1.793572 2.817701 0
M  V30 7 C 5.470229 2.105568 2.585590 0
M  V30 8 C 4.587425 1.164157 2.111050 0
M  V30 9 N 3.274165 1.622194 1.917668 0
M  V30 10 C 2.068109 1.052441 1.466896 0
M  V30 11 O 2.090469 -0.151634 1.140218 0
M  V30 12 N 0.796677 1.652066 1.322761 0
M  V30 13 C -0.247776 0.793168 0.831573 0
M  V30 14 C -0.488987 0.678870 -0.520208 0
M  V30 15 C -1.514200 -0.170811 -0.895215 0
M  V30 16 C -2.321827 -0.918988 -0.026461 0
M  V30 17 C -3.310493 -1.774093 -0.662064 0
M  V30 18 N -2.729029 -2.596884 -1.579117 0
M  V30 19 C -3.479395 -3.463326 -2.271912 0
M  V30 20 N -4.829412 -3.566989 -2.102964 0
M  V30 21 C -5.436586 -2.752263 -1.190776 0
M  V30 22 N -6.707760 -2.577588 -0.789433 0
M  V30 23 C -6.718688 -1.606108 0.140106 0
M  V30 24 C -5.424626 -1.115739 0.369863 0
M  V30 25 C -5.038940 -0.030431 1.297491 0
M  V30 26 C -4.652022 -1.865769 -0.485773 0
M  V30 27 C -2.002720 -0.737905 1.303209 0
M  V30 28 C -1.001948 0.087447 1.737480 0
M  V30 29 H 3.948757 -2.938213 0.611697 0
M  V30 30 H 5.637459 -2.430495 0.541254 0
M  V30 31 H 4.902814 -2.889532 2.143063 0
M  V30 32 H 6.778550 -1.433878 1.927975 0
M  V30 33 H 8.298148 0.316324 2.780592 0
M  V30 34 H 7.459754 2.530704 3.187177 0
M  V30 35 H 5.198219 3.150634 2.807582 0
M  V30 36 H 3.035594 2.628213 2.137071 0
M  V30 37 H 0.744651 2.680006 1.593638 0
M  V30 38 H 0.085978 1.219373 -1.254173 0
M  V30 39 H -1.674108 -0.234197 -1.974363 0
M  V30 40 H -3.102203 -4.152719 -3.017825 0
M  V30 41 H -7.528579 -3.113058 -1.149207 0
M  V30 42 H -7.607710 -1.239173 0.654238 0
M  V30 43 H -4.729666 -0.355598 2.295758 0
M  V30 44 H -6.000174 0.544917 1.483492 0
M  V30 45 H -4.382683 0.742261 0.840257 0
M  V30 46 H -2.603383 -1.323324 1.983837 0
M  V30 47 H -0.858586 0.137052 2.810243 0
M  V30 END ATOM
M  V30 BEGIN BOND
M  V30 1 1 1 2
M  V30 2 1 2 3
M  V30 3 2 3 4
M  V30 4 1 4 5
M  V30 5 2 5 6
M  V30 6 1 6 7
M  V30 7 2 7 8
M  V30 8 1 8 9
M  V30 9 1 9 10
M  V30 10 2 10 11
M  V30 11 1 10 12
M  V30 12 1 12 13
M  V30 13 2 13 14
M  V30 14 1 14 15
M  V30 15 2 15 16
M  V30 16 1 16 17
M  V30 17 2 17 18
M  V30 18 1 18 19
M  V30 19 2 19 20
M  V30 20 1 20 21
M  V30 21 1 21 22
M  V30 22 1 22 23
M  V30 23 2 23 24
M  V30 24 1 24 25
M  V30 25 1 24 26
M  V30 26 1 16 27
M  V30 27 2 27 28
M  V30 28 1 8 3
M  V30 29 1 28 13
M  V30 30 1 26 17
M  V30 31 2 26 21
M  V30 32 1 1 29
M  V30 33 1 1 30
M  V30 34 1 1 31
M  V30 35 1 4 32
M  V30 36 1 5 33
M  V30 37 1 6 34
M  V30 38 1 7 35
M  V30 39 1 9 36
M  V30 40 1 12 37
M  V30 41 1 14 38
M  V30 42 1 15 39
M  V30 43 1 19 40
M  V30 44 1 22 41
M  V30 45 1 23 42
M  V30 46 1 25 43
M  V30 47 1 25 44
M  V30 48 1 25 45
M  V30 49 1 27 46
M  V30 50 1 28 47
M  V30 END BOND
M  V30 END CTAB
M  END
>  <Dataset>  (301) 
ChEMBL_Kinases

>  <Ligand_Instance>  (301) 
nan

>  <PDB_ID>  (301) 
nan

>  <Standardized_SMILES>  (301) 
COc1ccccc1NC(=O)Nc1ccc(-c2ncnc3[nH]cc(C)c23)cc1

>  <Name>  (301) 
nan

>  <Pocket>  (301) 
nan

>  <ATP_Site>  (301) 
nan

>  <Peripheral>  (301) 
nan

>  <Num_H_Atoms_ProtBoundConf>  (301) 
nan

>  <Num_Resolved_Atoms>  (301) 
nan

>  <Num_Not_Resolved_Atoms>  (301) 
nan

$$$$
CHEMBL3410029
     RDKit          3D

  0  0  0  0  0  0  0  0  0  0999 V3000
M  V30 BEGIN CTAB
M  V30 COUNTS 43 46 0 0 0
M  V30 BEGIN ATOM
M  V30 1 C 1.793693 -3.952828 -0.425101 0
M  V30 2 C 2.401476 -3.906355 -1.763805 0
M  V30 3 C 2.896193 -4.991396 -2.497593 0
M  V30 4 N 3.405006 -4.567923 -3.670547 0
M  V30 5 C 3.269065 -3.233018 -3.750992 0
M  V30 6 N 3.622099 -2.351930 -4.687869 0
M  V30 7 C 3.352511 -1.058814 -4.445001 0
M  V30 8 N 2.750771 -0.638231 -3.312691 0
M  V30 9 C 2.373759 -1.510691 -2.331537 0
M  V30 10 C 1.747306 -0.891174 -1.189617 0
M  V30 11 C 2.534760 0.130025 -0.635759 0
M  V30 12 C 2.129303 0.888847 0.442963 0
M  V30 13 C 0.909336 0.673677 1.036030 0
M  V30 14 N 0.520119 1.469020 2.143413 0
M  V30 15 C -0.647004 1.450289 2.909572 0
M  V30 16 O -1.541662 0.641138 2.652206 0
M  V30 17 N -0.910853 2.313812 4.004985 0
M  V30 18 C -2.194457 2.087952 4.629465 0
M  V30 19 C -3.283670 2.795784 4.148434 0
M  V30 20 C -4.532304 2.588151 4.742320 0
M  V30 21 C -4.617285 1.684793 5.782135 0
M  V30 22 C -3.540568 0.966243 6.278820 0
M  V30 23 F -3.660938 0.086788 7.301989 0
M  V30 24 C -2.299398 1.187255 5.672052 0
M  V30 25 C 0.136469 -0.324717 0.495607 0
M  V30 26 C 0.528215 -1.084567 -0.575599 0
M  V30 27 C 2.654393 -2.832671 -2.584915 0
M  V30 28 H 2.097185 -4.952304 0.018028 0
M  V30 29 H 2.191711 -3.200289 0.288186 0
M  V30 30 H 0.712050 -4.015036 -0.507395 0
M  V30 31 H 2.856776 -6.019630 -2.136270 0
M  V30 32 H 3.846072 -5.134833 -4.433308 0
M  V30 33 H 3.629739 -0.302368 -5.194123 0
M  V30 34 H 3.530556 0.404295 -1.015173 0
M  V30 35 H 2.770442 1.679072 0.850245 0
M  V30 36 H 1.191245 2.214630 2.483807 0
M  V30 37 H -0.170132 3.029310 4.266498 0
M  V30 38 H -3.198539 3.504944 3.326836 0
M  V30 39 H -5.428445 3.108185 4.416606 0
M  V30 40 H -5.558748 1.463216 6.303002 0
M  V30 41 H -1.419589 0.655538 6.015612 0
M  V30 42 H -0.817080 -0.569911 0.877189 0
M  V30 43 H -0.054611 -1.863660 -1.039915 0
M  V30 END ATOM
M  V30 BEGIN BOND
M  V30 1 1 1 2
M  V30 2 2 2 3
M  V30 3 1 3 4
M  V30 4 1 4 5
M  V30 5 2 5 6
M  V30 6 1 6 7
M  V30 7 2 7 8
M  V30 8 1 8 9
M  V30 9 1 9 10
M  V30 10 2 10 11
M  V30 11 1 11 12
M  V30 12 2 12 13
M  V30 13 1 13 14
M  V30 14 1 14 15
M  V30 15 2 15 16
M  V30 16 1 15 17
M  V30 17 1 17 18
M  V30 18 2 18 19
M  V30 19 1 19 20
M  V30 20 2 20 21
M  V30 21 1 21 22
M  V30 22 1 22 23
M  V30 23 2 22 24
M  V30 24 1 13 25
M  V30 25 2 25 26
M  V30 26 2 9 27
M  V30 27 1 27 2
M  V30 28 1 27 5
M  V30 29 1 26 10
M  V30 30 1 24 18
M  V30 31 1 1 28
M  V30 32 1 1 29
M  V30 33 1 1 30
M  V30 34 1 3 31
M  V30 35 1 4 32
M  V30 36 1 7 33
M  V30 37 1 11 34
M  V30 38 1 12 35
M  V30 39 1 14 36
M  V30 40 1 17 37
M  V30 41 1 19 38
M  V30 42 1 20 39
M  V30 43 1 21 40
M  V30 44 1 24 41
M  V30 45 1 25 42
M  V30 46 1 26 43
M  V30 END BOND
M  V30 END CTAB
M  END
>  <Dataset>  (302) 
ChEMBL_Kinases

>  <Ligand_Instance>  (302) 
nan

>  <PDB_ID>  (302) 
nan

>  <Standardized_SMILES>  (302) 
Cc1c[nH]c2ncnc(-c3ccc(NC(=O)Nc4cccc(F)c4)cc3)c12

>  <Name>  (302) 
nan

>  <Pocket>  (302) 
nan

>  <ATP_Site>  (302) 
nan

>  <Peripheral>  (302) 
nan

>  <Num_H_Atoms_ProtBoundConf>  (302) 
nan

>  <Num_Resolved_Atoms>  (302) 
nan

>  <Num_Not_Resolved_Atoms>  (302) 
nan

$$$$
CHEMBL3410028
     RDKit          3D

  0  0  0  0  0  0  0  0  0  0999 V3000
M  V30 BEGIN CTAB
M  V30 COUNTS 43 46 0 0 0
M  V30 BEGIN ATOM
M  V30 1 C 0.607311 -4.099279 0.119043 0
M  V30 2 C 0.953685 -4.483030 -1.254944 0
M  V30 3 C 0.753797 -5.742634 -1.837547 0
M  V30 4 N 1.162090 -5.723537 -3.107113 0
M  V30 5 C 1.625302 -4.506793 -3.395866 0
M  V30 6 N 2.121649 -3.991644 -4.517998 0
M  V30 7 C 2.497737 -2.686624 -4.496731 0
M  V30 8 N 2.380661 -1.916953 -3.379203 0
M  V30 9 C 1.873029 -2.433793 -2.217801 0
M  V30 10 C 1.822737 -1.467677 -1.136102 0
M  V30 11 C 1.146327 -0.291072 -1.484625 0
M  V30 12 C 0.994786 0.791370 -0.634737 0
M  V30 13 C 1.531723 0.722195 0.621742 0
M  V30 14 N 1.399850 1.812791 1.531045 0
M  V30 15 C 0.265140 1.828312 2.384175 0
M  V30 16 O -0.505553 0.862840 2.237374 0
M  V30 17 N -0.020640 2.817818 3.332413 0
M  V30 18 C -1.115202 2.921944 4.221691 0
M  V30 19 C -2.164075 2.045483 4.347472 0
M  V30 20 C -3.218515 2.172454 5.223975 0
M  V30 21 C -3.243841 3.269351 6.058892 0
M  V30 22 C -2.207800 4.174329 5.963847 0
M  V30 23 C -1.174220 4.002371 5.069346 0
M  V30 24 C 2.205008 -0.419570 1.000438 0
M  V30 25 C 2.334732 -1.465869 0.136248 0
M  V30 26 C 1.499653 -3.753733 -2.269797 0
M  V30 27 H -0.142278 -4.862260 0.480296 0
M  V30 28 H 1.463216 -4.199765 0.785803 0
M  V30 29 H 0.051187 -3.133543 0.200366 0
M  V30 30 H 0.325352 -6.588870 -1.301045 0
M  V30 31 H 1.117696 -6.528166 -3.742414 0
M  V30 32 H 2.902424 -2.262652 -5.410966 0
M  V30 33 H 0.683191 -0.130890 -2.454654 0
M  V30 34 H 0.477300 1.687376 -0.905886 0
M  V30 35 H 2.094147 2.611304 1.610272 0
M  V30 36 H 0.715104 3.557963 3.337480 0
M  V30 37 H -2.195588 1.171063 3.720241 0
M  V30 38 H -4.007976 1.466771 5.284421 0
M  V30 39 H -4.010042 3.488429 6.790145 0
M  V30 40 H -2.168154 5.055175 6.589825 0
M  V30 41 H -0.371847 4.753438 5.033089 0
M  V30 42 H 2.654301 -0.543217 1.977032 0
M  V30 43 H 2.861562 -2.360584 0.379544 0
M  V30 END ATOM
M  V30 BEGIN BOND
M  V30 1 1 1 2
M  V30 2 2 2 3
M  V30 3 1 3 4
M  V30 4 1 4 5
M  V30 5 2 5 6
M  V30 6 1 6 7
M  V30 7 2 7 8
M  V30 8 1 8 9
M  V30 9 1 9 10
M  V30 10 2 10 11
M  V30 11 1 11 12
M  V30 12 2 12 13
M  V30 13 1 13 14
M  V30 14 1 14 15
M  V30 15 2 15 16
M  V30 16 1 15 17
M  V30 17 1 17 18
M  V30 18 2 18 19
M  V30 19 1 19 20
M  V30 20 2 20 21
M  V30 21 1 21 22
M  V30 22 2 22 23
M  V30 23 1 13 24
M  V30 24 2 24 25
M  V30 25 2 9 26
M  V30 26 1 26 2
M  V30 27 1 26 5
M  V30 28 1 25 10
M  V30 29 1 23 18
M  V30 30 1 1 27
M  V30 31 1 1 28
M  V30 32 1 1 29
M  V30 33 1 3 30
M  V30 34 1 4 31
M  V30 35 1 7 32
M  V30 36 1 11 33
M  V30 37 1 12 34
M  V30 38 1 14 35
M  V30 39 1 17 36
M  V30 40 1 19 37
M  V30 41 1 20 38
M  V30 42 1 21 39
M  V30 43 1 22 40
M  V30 44 1 23 41
M  V30 45 1 24 42
M  V30 46 1 25 43
M  V30 END BOND
M  V30 END CTAB
M  END
>  <Dataset>  (303) 
ChEMBL_Kinases

>  <Ligand_Instance>  (303) 
nan

>  <PDB_ID>  (303) 
nan

>  <Standardized_SMILES>  (303) 
Cc1c[nH]c2ncnc(-c3ccc(NC(=O)Nc4ccccc4)cc3)c12

>  <Name>  (303) 
nan

>  <Pocket>  (303) 
nan

>  <ATP_Site>  (303) 
nan

>  <Peripheral>  (303) 
nan

>  <Num_H_Atoms_ProtBoundConf>  (303) 
nan

>  <Num_Resolved_Atoms>  (303) 
nan

>  <Num_Not_Resolved_Atoms>  (303) 
nan

$$$$
CHEMBL3410027
     RDKit          3D

  0  0  0  0  0  0  0  0  0  0999 V3000
M  V30 BEGIN CTAB
M  V30 COUNTS 71 74 0 0 0
M  V30 BEGIN ATOM
M  V30 1 C 0.319634 1.590500 6.331857 0
M  V30 2 C 1.763977 1.889454 6.310459 0
M  V30 3 C 2.559127 2.253788 7.406641 0
M  V30 4 N 3.823683 2.477157 7.004322 0
M  V30 5 C 3.912898 2.277059 5.676226 0
M  V30 6 N 4.888195 2.363578 4.753153 0
M  V30 7 C 4.656164 2.108698 3.450588 0
M  V30 8 N 3.419034 1.761291 3.085336 0
M  V30 9 C 2.372726 1.648719 3.955458 0
M  V30 10 C 1.135416 1.255956 3.297135 0
M  V30 11 C 0.270617 0.208138 3.548384 0
M  V30 12 C -0.885944 0.009136 2.828446 0
M  V30 13 C -1.207813 0.901713 1.793796 0
M  V30 14 N -2.457061 0.500389 1.180307 0
M  V30 15 C -2.347380 -0.415932 0.071169 0
M  V30 16 O -1.158936 -0.748007 -0.217558 0
M  V30 17 N -3.393520 -0.973348 -0.713245 0
M  V30 18 C -2.979739 -1.869548 -1.767683 0
M  V30 19 C -2.703890 -1.387763 -3.031823 0
M  V30 20 C -2.315426 -2.273075 -3.999084 0
M  V30 21 C -2.210705 -3.611852 -3.687959 0
M  V30 22 C -2.479251 -4.119203 -2.437369 0
M  V30 23 C -2.380313 -5.527106 -2.069222 0
M  V30 24 O -2.636540 -5.946746 -0.910757 0
M  V30 25 N -1.986451 -6.491525 -3.013974 0
M  V30 26 C -1.852725 -7.913124 -2.766540 0
M  V30 27 C -2.781089 -8.643377 -3.712277 0
M  V30 28 C -0.456311 -8.406260 -3.001433 0
M  V30 29 C -2.871748 -3.228427 -1.458094 0
M  V30 30 C -0.368460 1.987614 1.487645 0
M  V30 31 O -0.954778 2.646007 0.454734 0
M  V30 32 C -0.500112 3.778366 -0.203535 0
M  V30 33 C 0.807494 3.666011 -0.911018 0
M  V30 34 N 0.799946 2.644362 -1.942678 0
M  V30 35 C 2.111400 2.618641 -2.563960 0
M  V30 36 C -0.195627 2.888236 -2.949520 0
M  V30 37 C 0.762509 2.098500 2.266637 0
M  V30 38 C 2.645106 1.918469 5.276926 0
M  V30 39 H -0.255785 2.131377 5.549562 0
M  V30 40 H 0.048626 0.541459 6.411418 0
M  V30 41 H -0.060251 2.070507 7.290146 0
M  V30 42 H 2.151630 2.329624 8.427052 0
M  V30 43 H 4.635199 2.765022 7.616307 0
M  V30 44 H 5.467464 2.190480 2.740239 0
M  V30 45 H 0.600839 -0.440775 4.346866 0
M  V30 46 H -1.452573 -0.848094 3.144348 0
M  V30 47 H -3.465010 0.760365 1.398826 0
M  V30 48 H -4.345886 -0.658903 -0.422907 0
M  V30 49 H -2.813652 -0.321426 -3.182825 0
M  V30 50 H -2.095690 -1.908388 -4.996067 0
M  V30 51 H -1.906822 -4.287160 -4.453517 0
M  V30 52 H -1.749206 -6.269928 -3.999816 0
M  V30 53 H -2.111472 -8.133812 -1.704298 0
M  V30 54 H -2.971372 -8.030672 -4.640651 0
M  V30 55 H -2.328452 -9.590651 -4.087161 0
M  V30 56 H -3.775859 -8.864160 -3.273386 0
M  V30 57 H -0.393001 -8.940913 -3.967784 0
M  V30 58 H 0.230905 -7.521459 -3.105141 0
M  V30 59 H -0.072342 -9.095904 -2.226926 0
M  V30 60 H -3.102164 -3.536745 -0.451026 0
M  V30 61 H -0.430647 4.618994 0.547719 0
M  V30 62 H -1.311399 4.083902 -0.932723 0
M  V30 63 H 0.994072 4.649720 -1.439637 0
M  V30 64 H 1.665812 3.533004 -0.257230 0
M  V30 65 H 2.356248 1.634404 -2.975470 0
M  V30 66 H 2.890144 2.895302 -1.824312 0
M  V30 67 H 2.193157 3.409145 -3.364152 0
M  V30 68 H 0.124155 2.329535 -3.876495 0
M  V30 69 H -1.201598 2.529588 -2.603691 0
M  V30 70 H -0.326066 3.960015 -3.205041 0
M  V30 71 H 1.324165 2.950627 1.965883 0
M  V30 END ATOM
M  V30 BEGIN BOND
M  V30 1 1 1 2
M  V30 2 2 2 3
M  V30 3 1 3 4
M  V30 4 1 4 5
M  V30 5 2 5 6
M  V30 6 1 6 7
M  V30 7 2 7 8
M  V30 8 1 8 9
M  V30 9 1 9 10
M  V30 10 2 10 11
M  V30 11 1 11 12
M  V30 12 2 12 13
M  V30 13 1 13 14
M  V30 14 1 14 15
M  V30 15 2 15 16
M  V30 16 1 15 17
M  V30 17 1 17 18
M  V30 18 2 18 19
M  V30 19 1 19 20
M  V30 20 2 20 21
M  V30 21 1 21 22
M  V30 22 1 22 23
M  V30 23 2 23 24
M  V30 24 1 23 25
M  V30 25 1 25 26
M  V30 26 1 26 27
M  V30 27 1 26 28
M  V30 28 2 22 29
M  V30 29 1 13 30
M  V30 30 1 30 31
M  V30 31 1 31 32
M  V30 32 1 32 33
M  V30 33 1 33 34
M  V30 34 1 34 35
M  V30 35 1 34 36
M  V30 36 2 30 37
M  V30 37 2 9 38
M  V30 38 1 38 2
M  V30 39 1 38 5
M  V30 40 1 37 10
M  V30 41 1 29 18
M  V30 42 1 1 39
M  V30 43 1 1 40
M  V30 44 1 1 41
M  V30 45 1 3 42
M  V30 46 1 4 43
M  V30 47 1 7 44
M  V30 48 1 11 45
M  V30 49 1 12 46
M  V30 50 1 14 47
M  V30 51 1 17 48
M  V30 52 1 19 49
M  V30 53 1 20 50
M  V30 54 1 21 51
M  V30 55 1 25 52
M  V30 56 1 26 53
M  V30 57 1 27 54
M  V30 58 1 27 55
M  V30 59 1 27 56
M  V30 60 1 28 57
M  V30 61 1 28 58
M  V30 62 1 28 59
M  V30 63 1 29 60
M  V30 64 1 32 61
M  V30 65 1 32 62
M  V30 66 1 33 63
M  V30 67 1 33 64
M  V30 68 1 35 65
M  V30 69 1 35 66
M  V30 70 1 35 67
M  V30 71 1 36 68
M  V30 72 1 36 69
M  V30 73 1 36 70
M  V30 74 1 37 71
M  V30 END BOND
M  V30 END CTAB
M  END
>  <Dataset>  (304) 
ChEMBL_Kinases

>  <Ligand_Instance>  (304) 
nan

>  <PDB_ID>  (304) 
nan

>  <Standardized_SMILES>  (304) 
Cc1c[nH]c2ncnc(-c3ccc(NC(=O)Nc4cccc(C(=O)NC(C)C)c4)c(OCCN(C)C)c3)c12

>  <Name>  (304) 
nan

>  <Pocket>  (304) 
nan

>  <ATP_Site>  (304) 
nan

>  <Peripheral>  (304) 
nan

>  <Num_H_Atoms_ProtBoundConf>  (304) 
nan

>  <Num_Resolved_Atoms>  (304) 
nan

>  <Num_Not_Resolved_Atoms>  (304) 
nan

$$$$
CHEMBL3410026
     RDKit          3D

  0  0  0  0  0  0  0  0  0  0999 V3000
M  V30 BEGIN CTAB
M  V30 COUNTS 59 62 0 0 0
M  V30 BEGIN ATOM
M  V30 1 C 3.972009 -1.047757 1.358023 0
M  V30 2 C 5.185027 -0.578707 0.647406 0
M  V30 3 C 6.403920 -1.259348 0.509907 0
M  V30 4 N 7.266140 -0.533534 -0.223664 0
M  V30 5 C 6.675111 0.617734 -0.589647 0
M  V30 6 N 7.059885 1.676588 -1.322448 0
M  V30 7 C 6.167502 2.675153 -1.501563 0
M  V30 8 N 4.927415 2.652183 -0.982062 0
M  V30 9 C 4.491987 1.595549 -0.228377 0
M  V30 10 C 3.147051 1.771006 0.224948 0
M  V30 11 C 2.580737 1.721428 1.454672 0
M  V30 12 C 1.242820 1.883728 1.745103 0
M  V30 13 C 0.376930 2.121627 0.698734 0
M  V30 14 N -1.004353 2.288824 1.013151 0
M  V30 15 C -1.846441 1.143101 1.042129 0
M  V30 16 O -1.302648 0.040555 0.784234 0
M  V30 17 N -3.214636 1.165811 1.333793 0
M  V30 18 C -4.161199 0.116111 1.397384 0
M  V30 19 C -5.469185 0.405218 1.710058 0
M  V30 20 C -6.438486 -0.568370 1.788339 0
M  V30 21 C -6.146498 -1.895679 1.555420 0
M  V30 22 C -4.844733 -2.216387 1.239967 0
M  V30 23 C -4.547584 -3.620577 0.996212 0
M  V30 24 O -5.468507 -4.458600 1.082775 0
M  V30 25 N -3.267912 -4.139831 0.658953 0
M  V30 26 C -3.007153 -5.540538 0.423412 0
M  V30 27 C -2.476546 -5.765688 -0.996397 0
M  V30 28 C -1.904928 -6.036580 1.367914 0
M  V30 29 C -3.909126 -1.214188 1.172469 0
M  V30 30 C 0.853224 2.191977 -0.594238 0
M  V30 31 C -0.072292 2.449361 -1.726362 0
M  V30 32 F -1.050326 1.513940 -1.869757 0
M  V30 33 F 0.680006 2.609428 -2.886653 0
M  V30 34 F -0.722495 3.674874 -1.559296 0
M  V30 35 C 2.207770 2.017082 -0.794040 0
M  V30 36 C 5.412337 0.584039 -0.056229 0
M  V30 37 H 3.048384 -0.989827 0.746856 0
M  V30 38 H 4.115846 -2.170253 1.452755 0
M  V30 39 H 3.883823 -0.718185 2.395579 0
M  V30 40 H 6.580349 -2.246144 0.958199 0
M  V30 41 H 8.244175 -0.832244 -0.464538 0
M  V30 42 H 6.526628 3.514457 -2.105572 0
M  V30 43 H 3.273628 1.554540 2.267823 0
M  V30 44 H 0.944251 1.814127 2.792627 0
M  V30 45 H -1.421662 3.228659 1.224110 0
M  V30 46 H -3.545644 2.141933 1.530188 0
M  V30 47 H -5.752312 1.448912 1.904506 0
M  V30 48 H -7.432841 -0.255269 2.038097 0
M  V30 49 H -6.975496 -2.584679 1.640939 0
M  V30 50 H -2.474170 -3.485986 0.575540 0
M  V30 51 H -3.890418 -6.173681 0.528530 0
M  V30 52 H -2.970117 -6.614840 -1.502087 0
M  V30 53 H -2.595931 -4.825394 -1.599562 0
M  V30 54 H -1.382898 -5.952413 -0.992994 0
M  V30 55 H -1.343700 -6.832571 0.857533 0
M  V30 56 H -1.222502 -5.173781 1.525074 0
M  V30 57 H -2.331020 -6.450116 2.287814 0
M  V30 58 H -2.921995 -1.537623 0.922947 0
M  V30 59 H 2.517668 2.085906 -1.849084 0
M  V30 END ATOM
M  V30 BEGIN BOND
M  V30 1 1 1 2
M  V30 2 2 2 3
M  V30 3 1 3 4
M  V30 4 1 4 5
M  V30 5 2 5 6
M  V30 6 1 6 7
M  V30 7 2 7 8
M  V30 8 1 8 9
M  V30 9 1 9 10
M  V30 10 2 10 11
M  V30 11 1 11 12
M  V30 12 2 12 13
M  V30 13 1 13 14
M  V30 14 1 14 15
M  V30 15 2 15 16
M  V30 16 1 15 17
M  V30 17 1 17 18
M  V30 18 2 18 19
M  V30 19 1 19 20
M  V30 20 2 20 21
M  V30 21 1 21 22
M  V30 22 1 22 23
M  V30 23 2 23 24
M  V30 24 1 23 25
M  V30 25 1 25 26
M  V30 26 1 26 27
M  V30 27 1 26 28
M  V30 28 2 22 29
M  V30 29 1 13 30
M  V30 30 1 30 31
M  V30 31 1 31 32
M  V30 32 1 31 33
M  V30 33 1 31 34
M  V30 34 2 30 35
M  V30 35 2 9 36
M  V30 36 1 36 2
M  V30 37 1 36 5
M  V30 38 1 35 10
M  V30 39 1 29 18
M  V30 40 1 1 37
M  V30 41 1 1 38
M  V30 42 1 1 39
M  V30 43 1 3 40
M  V30 44 1 4 41
M  V30 45 1 7 42
M  V30 46 1 11 43
M  V30 47 1 12 44
M  V30 48 1 14 45
M  V30 49 1 17 46
M  V30 50 1 19 47
M  V30 51 1 20 48
M  V30 52 1 21 49
M  V30 53 1 25 50
M  V30 54 1 26 51
M  V30 55 1 27 52
M  V30 56 1 27 53
M  V30 57 1 27 54
M  V30 58 1 28 55
M  V30 59 1 28 56
M  V30 60 1 28 57
M  V30 61 1 29 58
M  V30 62 1 35 59
M  V30 END BOND
M  V30 END CTAB
M  END
>  <Dataset>  (305) 
ChEMBL_Kinases

>  <Ligand_Instance>  (305) 
nan

>  <PDB_ID>  (305) 
nan

>  <Standardized_SMILES>  (305) 
Cc1c[nH]c2ncnc(-c3ccc(NC(=O)Nc4cccc(C(=O)NC(C)C)c4)c(C(F)(F)F)c3)c12

>  <Name>  (305) 
nan

>  <Pocket>  (305) 
nan

>  <ATP_Site>  (305) 
nan

>  <Peripheral>  (305) 
nan

>  <Num_H_Atoms_ProtBoundConf>  (305) 
nan

>  <Num_Resolved_Atoms>  (305) 
nan

>  <Num_Not_Resolved_Atoms>  (305) 
nan

$$$$
CHEMBL3410023
     RDKit          3D

  0  0  0  0  0  0  0  0  0  0999 V3000
M  V30 BEGIN CTAB
M  V30 COUNTS 52 55 0 0 0
M  V30 BEGIN ATOM
M  V30 1 C 3.227776 -1.100183 4.753430 0
M  V30 2 C 4.139674 -1.364056 3.551575 0
M  V30 3 C 3.975152 -2.843604 3.203880 0
M  V30 4 N 3.753142 -0.520077 2.466245 0
M  V30 5 C 4.590087 0.443199 1.848942 0
M  V30 6 O 5.748940 0.522194 2.328394 0
M  V30 7 C 4.218445 1.314665 0.741625 0
M  V30 8 C 5.189502 2.183799 0.289513 0
M  V30 9 C 4.841940 3.012210 -0.760321 0
M  V30 10 C 3.590368 2.976570 -1.330857 0
M  V30 11 C 2.619305 2.121078 -0.893257 0
M  V30 12 N 1.349183 2.132472 -1.522851 0
M  V30 13 C 0.196442 1.370934 -1.273471 0
M  V30 14 O 0.221662 0.520779 -0.357166 0
M  V30 15 N -1.019679 1.473539 -1.973821 0
M  V30 16 C -2.056024 0.575309 -1.522499 0
M  V30 17 C -2.885355 1.056506 -0.524188 0
M  V30 18 C -3.901121 0.232014 -0.052135 0
M  V30 19 C -4.097776 -1.053266 -0.558400 0
M  V30 20 C -5.148449 -1.930192 -0.082898 0
M  V30 21 N -6.435431 -1.557352 0.132963 0
M  V30 22 C -7.354739 -2.455427 0.582158 0
M  V30 23 N -6.988447 -3.744440 0.820410 0
M  V30 24 C -5.705311 -4.139903 0.611206 0
M  V30 25 N -5.152607 -5.359729 0.786982 0
M  V30 26 C -3.872951 -5.206130 0.439514 0
M  V30 27 N -3.619299 -3.937892 0.057042 0
M  V30 28 C -4.767713 -3.239095 0.156909 0
M  V30 29 C -3.241920 -1.490367 -1.557057 0
M  V30 30 C -2.224911 -0.691651 -2.043912 0
M  V30 31 C 2.987996 1.306108 0.152558 0
M  V30 32 H 2.184916 -0.934409 4.440323 0
M  V30 33 H 3.312459 -1.950130 5.473692 0
M  V30 34 H 3.574532 -0.202783 5.307600 0
M  V30 35 H 5.176512 -1.209240 3.891143 0
M  V30 36 H 2.950432 -3.209901 3.378762 0
M  V30 37 H 4.632452 -3.485953 3.828957 0
M  V30 38 H 4.287388 -3.031265 2.149862 0
M  V30 39 H 2.781363 -0.621156 2.101229 0
M  V30 40 H 6.199127 2.291104 0.666226 0
M  V30 41 H 5.552124 3.718203 -1.165783 0
M  V30 42 H 3.369571 3.646913 -2.150986 0
M  V30 43 H 1.189941 2.803590 -2.313918 0
M  V30 44 H -1.084547 2.182745 -2.759534 0
M  V30 45 H -2.771844 2.043983 -0.101565 0
M  V30 46 H -4.556236 0.588756 0.724054 0
M  V30 47 H -8.384486 -2.100973 0.740658 0
M  V30 48 H -5.568485 -6.259090 1.115112 0
M  V30 49 H -3.049474 -5.907458 0.418637 0
M  V30 50 H -3.369884 -2.487560 -1.971892 0
M  V30 51 H -1.536849 -0.988598 -2.817870 0
M  V30 52 H 2.297446 0.608669 0.558470 0
M  V30 END ATOM
M  V30 BEGIN BOND
M  V30 1 1 1 2
M  V30 2 1 2 3
M  V30 3 1 2 4
M  V30 4 1 4 5
M  V30 5 2 5 6
M  V30 6 1 5 7
M  V30 7 2 7 8
M  V30 8 1 8 9
M  V30 9 2 9 10
M  V30 10 1 10 11
M  V30 11 1 11 12
M  V30 12 1 12 13
M  V30 13 2 13 14
M  V30 14 1 13 15
M  V30 15 1 15 16
M  V30 16 2 16 17
M  V30 17 1 17 18
M  V30 18 2 18 19
M  V30 19 1 19 20
M  V30 20 2 20 21
M  V30 21 1 21 22
M  V30 22 2 22 23
M  V30 23 1 23 24
M  V30 24 1 24 25
M  V30 25 1 25 26
M  V30 26 2 26 27
M  V30 27 1 27 28
M  V30 28 1 19 29
M  V30 29 2 29 30
M  V30 30 2 11 31
M  V30 31 1 31 7
M  V30 32 1 30 16
M  V30 33 1 28 20
M  V30 34 2 28 24
M  V30 35 1 1 32
M  V30 36 1 1 33
M  V30 37 1 1 34
M  V30 38 1 2 35
M  V30 39 1 3 36
M  V30 40 1 3 37
M  V30 41 1 3 38
M  V30 42 1 4 39
M  V30 43 1 8 40
M  V30 44 1 9 41
M  V30 45 1 10 42
M  V30 46 1 12 43
M  V30 47 1 15 44
M  V30 48 1 17 45
M  V30 49 1 18 46
M  V30 50 1 22 47
M  V30 51 1 25 48
M  V30 52 1 26 49
M  V30 53 1 29 50
M  V30 54 1 30 51
M  V30 55 1 31 52
M  V30 END BOND
M  V30 END CTAB
M  END
>  <Dataset>  (306) 
ChEMBL_Kinases

>  <Ligand_Instance>  (306) 
nan

>  <PDB_ID>  (306) 
nan

>  <Standardized_SMILES>  (306) 
CC(C)NC(=O)c1cccc(NC(=O)Nc2ccc(-c3ncnc4[nH]cnc34)cc2)c1

>  <Name>  (306) 
nan

>  <Pocket>  (306) 
nan

>  <ATP_Site>  (306) 
nan

>  <Peripheral>  (306) 
nan

>  <Num_H_Atoms_ProtBoundConf>  (306) 
nan

>  <Num_Resolved_Atoms>  (306) 
nan

>  <Num_Not_Resolved_Atoms>  (306) 
nan

$$$$
CHEMBL3410022
     RDKit          3D

  0  0  0  0  0  0  0  0  0  0999 V3000
M  V30 BEGIN CTAB
M  V30 COUNTS 48 50 0 0 0
M  V30 BEGIN ATOM
M  V30 1 C 4.926182 -3.713918 3.321757 0
M  V30 2 C 4.654153 -3.597239 1.840201 0
M  V30 3 C 3.677348 -4.690786 1.480953 0
M  V30 4 N 4.137475 -2.278861 1.562031 0
M  V30 5 C 4.666152 -1.248939 0.739145 0
M  V30 6 O 5.746344 -1.404701 0.110541 0
M  V30 7 C 3.989223 0.031231 0.582461 0
M  V30 8 C 4.577516 0.978331 -0.236438 0
M  V30 9 C 3.957986 2.220642 -0.413366 0
M  V30 10 C 2.770252 2.545518 0.202000 0
M  V30 11 C 2.187446 1.597863 1.017687 0
M  V30 12 N 0.944683 1.823233 1.714833 0
M  V30 13 C -0.281826 1.483096 1.085252 0
M  V30 14 O -0.089333 0.998341 -0.075808 0
M  V30 15 N -1.534417 1.687974 1.735338 0
M  V30 16 C -2.714827 1.316272 1.026212 0
M  V30 17 C -3.052937 -0.002110 1.290433 0
M  V30 18 C -4.180025 -0.594094 0.704919 0
M  V30 19 C -4.957139 0.184754 -0.156573 0
M  V30 20 C -6.158688 -0.361516 -0.814033 0
M  V30 21 C -7.360941 0.225923 -1.218996 0
M  V30 22 N -8.097940 -0.781264 -1.772931 0
M  V30 23 N -7.410945 -1.910097 -1.718880 0
M  V30 24 C -6.215057 -1.702543 -1.139013 0
M  V30 25 C -4.604152 1.499725 -0.408795 0
M  V30 26 C -3.491996 2.074197 0.172804 0
M  V30 27 C 2.800203 0.360343 1.196678 0
M  V30 28 H 6.023790 -3.558581 3.538652 0
M  V30 29 H 4.400352 -2.897684 3.852351 0
M  V30 30 H 4.666396 -4.711468 3.722027 0
M  V30 31 H 5.606574 -3.790326 1.306278 0
M  V30 32 H 3.914490 -5.561955 2.132532 0
M  V30 33 H 3.805895 -5.052382 0.435946 0
M  V30 34 H 2.611511 -4.371274 1.562653 0
M  V30 35 H 3.243604 -2.161050 2.087471 0
M  V30 36 H 5.512924 0.827362 -0.769595 0
M  V30 37 H 4.379544 2.992167 -1.043174 0
M  V30 38 H 2.275045 3.499312 0.079007 0
M  V30 39 H 0.917613 2.239214 2.692739 0
M  V30 40 H -1.495707 2.092918 2.677459 0
M  V30 41 H -2.532601 -0.690790 1.931507 0
M  V30 42 H -4.482615 -1.615128 0.880081 0
M  V30 43 H -7.510922 1.268711 -1.052748 0
M  V30 44 H -7.931183 -2.736945 -2.135882 0
M  V30 45 H -5.569870 -2.556456 -1.042312 0
M  V30 46 H -5.173402 2.158335 -1.073683 0
M  V30 47 H -3.128562 3.078597 0.047958 0
M  V30 48 H 2.326412 -0.361164 1.837047 0
M  V30 END ATOM
M  V30 BEGIN BOND
M  V30 1 1 1 2
M  V30 2 1 2 3
M  V30 3 1 2 4
M  V30 4 1 4 5
M  V30 5 2 5 6
M  V30 6 1 5 7
M  V30 7 2 7 8
M  V30 8 1 8 9
M  V30 9 2 9 10
M  V30 10 1 10 11
M  V30 11 1 11 12
M  V30 12 1 12 13
M  V30 13 2 13 14
M  V30 14 1 13 15
M  V30 15 1 15 16
M  V30 16 2 16 17
M  V30 17 1 17 18
M  V30 18 2 18 19
M  V30 19 1 19 20
M  V30 20 1 20 21
M  V30 21 2 21 22
M  V30 22 1 22 23
M  V30 23 1 23 24
M  V30 24 1 19 25
M  V30 25 2 25 26
M  V30 26 2 11 27
M  V30 27 1 27 7
M  V30 28 1 26 16
M  V30 29 2 24 20
M  V30 30 1 1 28
M  V30 31 1 1 29
M  V30 32 1 1 30
M  V30 33 1 2 31
M  V30 34 1 3 32
M  V30 35 1 3 33
M  V30 36 1 3 34
M  V30 37 1 4 35
M  V30 38 1 8 36
M  V30 39 1 9 37
M  V30 40 1 10 38
M  V30 41 1 12 39
M  V30 42 1 15 40
M  V30 43 1 17 41
M  V30 44 1 18 42
M  V30 45 1 21 43
M  V30 46 1 23 44
M  V30 47 1 24 45
M  V30 48 1 25 46
M  V30 49 1 26 47
M  V30 50 1 27 48
M  V30 END BOND
M  V30 END CTAB
M  END
>  <Dataset>  (307) 
ChEMBL_Kinases

>  <Ligand_Instance>  (307) 
nan

>  <PDB_ID>  (307) 
nan

>  <Standardized_SMILES>  (307) 
CC(C)NC(=O)c1cccc(NC(=O)Nc2ccc(-c3cn[nH]c3)cc2)c1

>  <Name>  (307) 
nan

>  <Pocket>  (307) 
nan

>  <ATP_Site>  (307) 
nan

>  <Peripheral>  (307) 
nan

>  <Num_H_Atoms_ProtBoundConf>  (307) 
nan

>  <Num_Resolved_Atoms>  (307) 
nan

>  <Num_Not_Resolved_Atoms>  (307) 
nan

$$$$
CHEMBL3409610
     RDKit          3D

  0  0  0  0  0  0  0  0  0  0999 V3000
M  V30 BEGIN CTAB
M  V30 COUNTS 53 56 0 0 0
M  V30 BEGIN ATOM
M  V30 1 O -1.373736 -4.086727 0.005696 0
M  V30 2 C -0.906405 -2.932317 0.164646 0
M  V30 3 C 0.422848 -2.696404 0.323189 0
M  V30 4 C 0.948392 -1.436229 0.498379 0
M  V30 5 C 2.358960 -1.152463 0.668706 0
M  V30 6 C 3.304022 -2.154222 0.665164 0
M  V30 7 C 4.592488 -1.745714 0.833890 0
M  V30 8 N 4.980339 -0.470224 0.997473 0
M  V30 9 C 4.030436 0.510515 0.998527 0
M  V30 10 N 4.417730 1.861183 1.170753 0
M  V30 11 C 3.499765 2.957564 1.186321 0
M  V30 12 C 2.722628 3.095381 -0.103912 0
M  V30 13 C 1.525230 3.982148 0.186710 0
M  V30 14 O 1.731480 4.830310 1.269817 0
M  V30 15 C 1.798252 4.136552 2.472564 0
M  V30 16 C 2.465963 2.783989 2.302417 0
M  V30 17 N 2.775737 0.113995 0.834311 0
M  V30 18 C 0.019541 -0.420670 0.501340 0
M  V30 19 C -1.324815 -0.679295 0.339025 0
M  V30 20 N -1.815328 -1.942988 0.167097 0
M  V30 21 C -3.243380 -2.039045 0.011343 0 CFG=1
M  V30 22 C -3.612923 -1.485065 -1.348349 0
M  V30 23 O -3.033920 -2.143214 -2.404334 0
M  V30 24 C -3.807320 -3.363366 0.293479 0
M  V30 25 C -4.166618 -3.650562 1.616998 0
M  V30 26 C -4.709843 -4.841147 2.051142 0
M  V30 27 C -4.912458 -5.821489 1.102375 0
M  V30 28 Cl -5.603148 -7.370799 1.580736 0
M  V30 29 C -4.578468 -5.600496 -0.222863 0
M  V30 30 F -4.786921 -6.578742 -1.136166 0
M  V30 31 C -4.045231 -4.399094 -0.581285 0
M  V30 32 H 1.070702 -3.548437 0.307155 0
M  V30 33 H 3.052346 -3.195792 0.538111 0
M  V30 34 H 5.371029 -2.515261 0.836469 0
M  V30 35 H 5.432761 2.080854 1.294773 0
M  V30 36 H 4.030756 3.936322 1.312754 0
M  V30 37 H 2.384414 2.089616 -0.411113 0
M  V30 38 H 3.351593 3.516879 -0.919235 0
M  V30 39 H 0.589499 3.379235 0.304555 0
M  V30 40 H 1.375161 4.626185 -0.704420 0
M  V30 41 H 2.451754 4.725545 3.151566 0
M  V30 42 H 0.815816 4.045787 2.960540 0
M  V30 43 H 2.938089 2.431777 3.237014 0
M  V30 44 H 1.708487 2.075987 1.925923 0
M  V30 45 H 0.340235 0.595907 0.631779 0
M  V30 46 H -2.005882 0.184704 0.352687 0
M  V30 47 H -3.697202 -1.308261 0.745468 0
M  V30 48 H -4.719172 -1.387438 -1.444414 0
M  V30 49 H -3.246366 -0.420115 -1.333522 0
M  V30 50 H -2.579447 -1.499125 -3.003772 0
M  V30 51 H -4.015365 -2.897009 2.370153 0
M  V30 52 H -4.959742 -4.988500 3.080386 0
M  V30 53 H -3.776692 -4.204208 -1.610442 0
M  V30 END ATOM
M  V30 BEGIN BOND
M  V30 1 2 1 2
M  V30 2 1 2 3
M  V30 3 2 3 4
M  V30 4 1 4 5
M  V30 5 2 5 6
M  V30 6 1 6 7
M  V30 7 2 7 8
M  V30 8 1 8 9
M  V30 9 1 9 10
M  V30 10 1 10 11
M  V30 11 1 11 12
M  V30 12 1 12 13
M  V30 13 1 13 14
M  V30 14 1 14 15
M  V30 15 1 15 16
M  V30 16 2 9 17
M  V30 17 1 4 18
M  V30 18 2 18 19
M  V30 19 1 19 20
M  V30 20 1 20 21
M  V30 21 1 21 22
M  V30 22 1 22 23
M  V30 23 1 21 24
M  V30 24 2 24 25
M  V30 25 1 25 26
M  V30 26 2 26 27
M  V30 27 1 27 28
M  V30 28 1 27 29
M  V30 29 1 29 30
M  V30 30 2 29 31
M  V30 31 1 20 2
M  V30 32 1 31 24
M  V30 33 1 17 5
M  V30 34 1 16 11
M  V30 35 1 3 32
M  V30 36 1 6 33
M  V30 37 1 7 34
M  V30 38 1 10 35
M  V30 39 1 11 36
M  V30 40 1 12 37
M  V30 41 1 12 38
M  V30 42 1 13 39
M  V30 43 1 13 40
M  V30 44 1 15 41
M  V30 45 1 15 42
M  V30 46 1 16 43
M  V30 47 1 16 44
M  V30 48 1 18 45
M  V30 49 1 19 46
M  V30 50 1 21 47 CFG=1
M  V30 51 1 22 48
M  V30 52 1 22 49
M  V30 53 1 23 50
M  V30 54 1 25 51
M  V30 55 1 26 52
M  V30 56 1 31 53
M  V30 END BOND
M  V30 END CTAB
M  END
>  <Dataset>  (308) 
ChEMBL_Kinases

>  <Ligand_Instance>  (308) 
nan

>  <PDB_ID>  (308) 
nan

>  <Standardized_SMILES>  (308) 
O=c1cc(-c2ccnc(NC3CCOCC3)n2)ccn1[C@@H](CO)c1ccc(Cl)c(F)c1

>  <Name>  (308) 
nan

>  <Pocket>  (308) 
nan

>  <ATP_Site>  (308) 
nan

>  <Peripheral>  (308) 
nan

>  <Num_H_Atoms_ProtBoundConf>  (308) 
nan

>  <Num_Resolved_Atoms>  (308) 
nan

>  <Num_Not_Resolved_Atoms>  (308) 
nan

$$$$
CHEMBL3409609
     RDKit          3D

  0  0  0  0  0  0  0  0  0  0999 V3000
M  V30 BEGIN CTAB
M  V30 COUNTS 53 55 0 0 0
M  V30 BEGIN ATOM
M  V30 1 C 3.676273 -1.199786 -1.637767 0
M  V30 2 O 3.779180 0.064874 -1.052414 0
M  V30 3 C 3.808426 -0.054475 0.347388 0
M  V30 4 C 3.919990 1.323101 0.960979 0 CFG=1
M  V30 5 C 2.799361 2.194719 0.430909 0
M  V30 6 O 2.990245 3.486223 0.874976 0
M  V30 7 N 3.957730 1.311065 2.401577 0
M  V30 8 C 2.899962 0.779276 3.200546 0
M  V30 9 N 2.936183 0.766930 4.562799 0
M  V30 10 C 1.950119 0.271137 5.319223 0
M  V30 11 C 0.848934 -0.249676 4.669871 0
M  V30 12 C 0.759363 -0.263029 3.297602 0
M  V30 13 C -0.372789 -0.796500 2.546018 0
M  V30 14 C -0.302243 -0.731731 1.169301 0
M  V30 15 C -1.369270 -1.234112 0.445785 0
M  V30 16 N -2.471691 -1.782512 1.023094 0
M  V30 17 C -3.550856 -2.288336 0.195176 0 CFG=2
M  V30 18 C -3.538455 -3.780205 0.085894 0
M  V30 19 O -3.674399 -4.401013 1.336586 0
M  V30 20 C -3.475488 -1.713565 -1.170407 0
M  V30 21 C -2.815588 -2.195080 -2.278907 0
M  V30 22 C -2.856660 -1.521815 -3.476276 0
M  V30 23 C -3.543076 -0.346328 -3.651217 0
M  V30 24 Cl -3.543658 0.446074 -5.209294 0
M  V30 25 C -4.219458 0.173943 -2.567577 0
M  V30 26 F -4.914240 1.329799 -2.677870 0
M  V30 27 C -4.167900 -0.513937 -1.374161 0
M  V30 28 C -2.516322 -1.833976 2.366748 0
M  V30 29 O -3.495095 -2.322424 2.949580 0
M  V30 30 C -1.475376 -1.345922 3.165329 0
M  V30 31 N 1.797530 0.256371 2.618256 0
M  V30 32 H 4.513600 -1.863560 -1.384446 0
M  V30 33 H 2.705404 -1.620242 -1.243728 0
M  V30 34 H 3.540826 -1.044410 -2.729296 0
M  V30 35 H 2.930725 -0.609493 0.713297 0
M  V30 36 H 4.712355 -0.655105 0.569564 0
M  V30 37 H 4.858154 1.786778 0.601624 0
M  V30 38 H 1.793405 1.787781 0.697815 0
M  V30 39 H 2.857041 2.146140 -0.676623 0
M  V30 40 H 3.290761 3.435445 1.822393 0
M  V30 41 H 4.784286 1.701995 2.944486 0
M  V30 42 H 2.030787 0.286556 6.401979 0
M  V30 43 H 0.050787 -0.650088 5.241744 0
M  V30 44 H 0.551329 -0.305268 0.641563 0
M  V30 45 H -1.289183 -1.171220 -0.636422 0
M  V30 46 H -4.534131 -1.996209 0.661746 0
M  V30 47 H -2.545101 -4.082409 -0.358390 0
M  V30 48 H -4.310695 -4.137905 -0.593656 0
M  V30 49 H -3.310302 -5.326097 1.289339 0
M  V30 50 H -2.282144 -3.120768 -2.117220 0
M  V30 51 H -2.319640 -1.942241 -4.322086 0
M  V30 52 H -4.718371 -0.059645 -0.552782 0
M  V30 53 H -1.544563 -1.403109 4.224955 0
M  V30 END ATOM
M  V30 BEGIN BOND
M  V30 1 1 1 2
M  V30 2 1 2 3
M  V30 3 1 3 4
M  V30 4 1 4 5
M  V30 5 1 5 6
M  V30 6 1 4 7
M  V30 7 1 7 8
M  V30 8 2 8 9
M  V30 9 1 9 10
M  V30 10 2 10 11
M  V30 11 1 11 12
M  V30 12 1 12 13
M  V30 13 1 13 14
M  V30 14 2 14 15
M  V30 15 1 15 16
M  V30 16 1 16 17
M  V30 17 1 17 18
M  V30 18 1 18 19
M  V30 19 1 17 20
M  V30 20 2 20 21
M  V30 21 1 21 22
M  V30 22 2 22 23
M  V30 23 1 23 24
M  V30 24 1 23 25
M  V30 25 1 25 26
M  V30 26 2 25 27
M  V30 27 1 16 28
M  V30 28 2 28 29
M  V30 29 1 28 30
M  V30 30 2 12 31
M  V30 31 1 31 8
M  V30 32 2 30 13
M  V30 33 1 27 20
M  V30 34 1 1 32
M  V30 35 1 1 33
M  V30 36 1 1 34
M  V30 37 1 3 35
M  V30 38 1 3 36
M  V30 39 1 4 37 CFG=3
M  V30 40 1 5 38
M  V30 41 1 5 39
M  V30 42 1 6 40
M  V30 43 1 7 41
M  V30 44 1 10 42
M  V30 45 1 11 43
M  V30 46 1 14 44
M  V30 47 1 15 45
M  V30 48 1 17 46 CFG=1
M  V30 49 1 18 47
M  V30 50 1 18 48
M  V30 51 1 19 49
M  V30 52 1 21 50
M  V30 53 1 22 51
M  V30 54 1 27 52
M  V30 55 1 30 53
M  V30 END BOND
M  V30 END CTAB
M  END
>  <Dataset>  (309) 
ChEMBL_Kinases

>  <Ligand_Instance>  (309) 
nan

>  <PDB_ID>  (309) 
nan

>  <Standardized_SMILES>  (309) 
COC[C@@H](CO)Nc1nccc(-c2ccn([C@H](CO)c3ccc(Cl)c(F)c3)c(=O)c2)n1

>  <Name>  (309) 
nan

>  <Pocket>  (309) 
nan

>  <ATP_Site>  (309) 
nan

>  <Peripheral>  (309) 
nan

>  <Num_H_Atoms_ProtBoundConf>  (309) 
nan

>  <Num_Resolved_Atoms>  (309) 
nan

>  <Num_Not_Resolved_Atoms>  (309) 
nan

$$$$
CHEMBL3409608
     RDKit          3D

  0  0  0  0  0  0  0  0  0  0999 V3000
M  V30 BEGIN CTAB
M  V30 COUNTS 48 50 0 0 0
M  V30 BEGIN ATOM
M  V30 1 O -2.219635 0.452655 1.553619 0
M  V30 2 C -1.310027 -0.239445 1.028556 0
M  V30 3 C -0.067644 0.335475 0.852583 0
M  V30 4 C 0.968510 -0.374325 0.282389 0
M  V30 5 C 2.266602 0.262071 0.110202 0
M  V30 6 C 3.328574 -0.413304 -0.449851 0
M  V30 7 C 4.514062 0.263954 -0.568556 0
M  V30 8 N 4.615053 1.534393 -0.149488 0
M  V30 9 C 3.594628 2.217815 0.400752 0
M  V30 10 N 3.749428 3.561569 0.840260 0
M  V30 11 C 2.721090 4.397997 1.401180 0
M  V30 12 C 1.597632 4.707713 0.452270 0
M  V30 13 F 0.932752 3.606682 -0.001758 0
M  V30 14 C 2.168648 3.796079 2.685404 0
M  V30 15 F 1.189337 4.652697 3.163638 0
M  V30 16 N 2.442658 1.533417 0.506732 0
M  V30 17 C 0.721189 -1.671609 -0.103574 0
M  V30 18 C -0.549597 -2.161477 0.111385 0
M  V30 19 N -1.604904 -1.499496 0.670329 0
M  V30 20 C -2.867512 -2.142149 0.828599 0 CFG=2
M  V30 21 C -3.540463 -1.954830 2.154155 0
M  V30 22 O -2.839675 -2.403157 3.245877 0
M  V30 23 C -2.739494 -3.560931 0.423941 0
M  V30 24 C -2.357782 -4.593513 1.248062 0
M  V30 25 C -2.248940 -5.904119 0.842460 0
M  V30 26 C -2.527108 -6.247724 -0.449254 0
M  V30 27 Cl -2.388413 -7.913192 -0.960899 0
M  V30 28 C -2.918672 -5.271917 -1.347186 0
M  V30 29 F -3.207653 -5.550786 -2.639084 0
M  V30 30 C -3.010362 -3.976567 -0.884887 0
M  V30 31 H 0.069581 1.348633 1.172810 0
M  V30 32 H 3.276368 -1.420651 -0.790541 0
M  V30 33 H 5.426284 -0.177488 -1.000570 0
M  V30 34 H 4.725219 3.965173 0.734690 0
M  V30 35 H 3.163687 5.371627 1.690040 0
M  V30 36 H 0.843859 5.360512 0.930435 0
M  V30 37 H 1.998843 5.286898 -0.413778 0
M  V30 38 H 2.959122 3.710484 3.458387 0
M  V30 39 H 1.728231 2.805097 2.520181 0
M  V30 40 H 1.468308 -2.281765 -0.549715 0
M  V30 41 H -0.725822 -3.189084 -0.200375 0
M  V30 42 H -3.585385 -1.691529 0.074094 0
M  V30 43 H -4.468412 -2.603683 2.111095 0
M  V30 44 H -3.952978 -0.930568 2.254088 0
M  V30 45 H -3.209042 -1.895743 4.033513 0
M  V30 46 H -2.127791 -4.383971 2.265457 0
M  V30 47 H -1.937723 -6.667801 1.562775 0
M  V30 48 H -3.320607 -3.217329 -1.605718 0
M  V30 END ATOM
M  V30 BEGIN BOND
M  V30 1 2 1 2
M  V30 2 1 2 3
M  V30 3 2 3 4
M  V30 4 1 4 5
M  V30 5 2 5 6
M  V30 6 1 6 7
M  V30 7 2 7 8
M  V30 8 1 8 9
M  V30 9 1 9 10
M  V30 10 1 10 11
M  V30 11 1 11 12
M  V30 12 1 12 13
M  V30 13 1 11 14
M  V30 14 1 14 15
M  V30 15 2 9 16
M  V30 16 1 4 17
M  V30 17 2 17 18
M  V30 18 1 18 19
M  V30 19 1 19 20
M  V30 20 1 20 21
M  V30 21 1 21 22
M  V30 22 1 20 23
M  V30 23 2 23 24
M  V30 24 1 24 25
M  V30 25 2 25 26
M  V30 26 1 26 27
M  V30 27 1 26 28
M  V30 28 1 28 29
M  V30 29 2 28 30
M  V30 30 1 19 2
M  V30 31 1 30 23
M  V30 32 1 16 5
M  V30 33 1 3 31
M  V30 34 1 6 32
M  V30 35 1 7 33
M  V30 36 1 10 34
M  V30 37 1 11 35
M  V30 38 1 12 36
M  V30 39 1 12 37
M  V30 40 1 14 38
M  V30 41 1 14 39
M  V30 42 1 17 40
M  V30 43 1 18 41
M  V30 44 1 20 42 CFG=3
M  V30 45 1 21 43
M  V30 46 1 21 44
M  V30 47 1 22 45
M  V30 48 1 24 46
M  V30 49 1 25 47
M  V30 50 1 30 48
M  V30 END BOND
M  V30 END CTAB
M  END
>  <Dataset>  (310) 
ChEMBL_Kinases

>  <Ligand_Instance>  (310) 
nan

>  <PDB_ID>  (310) 
nan

>  <Standardized_SMILES>  (310) 
O=c1cc(-c2ccnc(NC(CF)CF)n2)ccn1[C@H](CO)c1ccc(Cl)c(F)c1

>  <Name>  (310) 
nan

>  <Pocket>  (310) 
nan

>  <ATP_Site>  (310) 
nan

>  <Peripheral>  (310) 
nan

>  <Num_H_Atoms_ProtBoundConf>  (310) 
nan

>  <Num_Resolved_Atoms>  (310) 
nan

>  <Num_Not_Resolved_Atoms>  (310) 
nan

$$$$
CHEMBL3409607
     RDKit          3D

  0  0  0  0  0  0  0  0  0  0999 V3000
M  V30 BEGIN CTAB
M  V30 COUNTS 55 57 0 0 0
M  V30 BEGIN ATOM
M  V30 1 C 5.345565 -0.670178 6.121380 0
M  V30 2 O 5.604434 0.355540 5.184869 0
M  V30 3 C 4.585428 0.288307 4.253365 0
M  V30 4 C 4.715941 1.332164 3.168941 0
M  V30 5 C 3.544315 1.160691 2.207191 0 CFG=2
M  V30 6 C 3.537801 -0.198905 1.582193 0
M  V30 7 N 3.496779 2.252735 1.254165 0
M  V30 8 C 2.507098 2.367358 0.227709 0
M  V30 9 N 2.462064 3.379404 -0.657681 0
M  V30 10 C 1.517160 3.452124 -1.606882 0
M  V30 11 C 0.577858 2.424600 -1.634333 0
M  V30 12 C 0.592069 1.374098 -0.745926 0
M  V30 13 C -0.389816 0.292994 -0.768472 0
M  V30 14 C -1.428605 0.206665 -1.673621 0
M  V30 15 C -2.294425 -0.872870 -1.588074 0
M  V30 16 N -2.166715 -1.847024 -0.655833 0
M  V30 17 C -3.077885 -2.975175 -0.572527 0 CFG=2
M  V30 18 C -2.465534 -4.179688 -1.294211 0
M  V30 19 O -3.287961 -5.287324 -1.249235 0
M  V30 20 C -4.426385 -2.691062 -1.099861 0
M  V30 21 C -5.344727 -2.196956 -0.177990 0
M  V30 22 C -6.657209 -1.885251 -0.541435 0
M  V30 23 C -6.978864 -2.103286 -1.885184 0
M  V30 24 Cl -8.640312 -1.709828 -2.349798 0
M  V30 25 C -6.085433 -2.589501 -2.805508 0
M  V30 26 F -6.442049 -2.786364 -4.104020 0
M  V30 27 C -4.798932 -2.886984 -2.414930 0
M  V30 28 C -1.146822 -1.778790 0.246644 0
M  V30 29 O -0.967259 -2.648697 1.140759 0
M  V30 30 C -0.270682 -0.707228 0.177451 0
M  V30 31 N 1.587309 1.410443 0.159782 0
M  V30 32 H 5.354980 -1.624568 5.533998 0
M  V30 33 H 6.079813 -0.673398 6.938382 0
M  V30 34 H 4.308637 -0.519525 6.492536 0
M  V30 35 H 3.588622 0.416603 4.729451 0
M  V30 36 H 4.595883 -0.701677 3.768020 0
M  V30 37 H 5.643641 1.201749 2.579984 0
M  V30 38 H 4.687651 2.356880 3.544923 0
M  V30 39 H 2.618038 1.211499 2.847668 0
M  V30 40 H 2.855253 -0.923337 2.071862 0
M  V30 41 H 4.577087 -0.615948 1.729970 0
M  V30 42 H 3.286963 -0.218723 0.504373 0
M  V30 43 H 4.207568 3.013731 1.289960 0
M  V30 44 H 1.475863 4.259808 -2.318504 0
M  V30 45 H -0.171077 2.483892 -2.387991 0
M  V30 46 H -1.535999 0.974425 -2.414783 0
M  V30 47 H -3.114418 -0.946805 -2.297769 0
M  V30 48 H -3.129165 -3.274435 0.491897 0
M  V30 49 H -1.497422 -4.368124 -0.784523 0
M  V30 50 H -2.202488 -3.881884 -2.338447 0
M  V30 51 H -2.879142 -5.946270 -0.627305 0
M  V30 52 H -5.119983 -2.019886 0.866121 0
M  V30 53 H -7.377919 -1.501434 0.165223 0
M  V30 54 H -4.051750 -3.268021 -3.075524 0
M  V30 55 H 0.540241 -0.657496 0.898800 0
M  V30 END ATOM
M  V30 BEGIN BOND
M  V30 1 1 1 2
M  V30 2 1 2 3
M  V30 3 1 3 4
M  V30 4 1 4 5
M  V30 5 1 5 6
M  V30 6 1 5 7
M  V30 7 1 7 8
M  V30 8 2 8 9
M  V30 9 1 9 10
M  V30 10 2 10 11
M  V30 11 1 11 12
M  V30 12 1 12 13
M  V30 13 1 13 14
M  V30 14 2 14 15
M  V30 15 1 15 16
M  V30 16 1 16 17
M  V30 17 1 17 18
M  V30 18 1 18 19
M  V30 19 1 17 20
M  V30 20 2 20 21
M  V30 21 1 21 22
M  V30 22 2 22 23
M  V30 23 1 23 24
M  V30 24 1 23 25
M  V30 25 1 25 26
M  V30 26 2 25 27
M  V30 27 1 16 28
M  V30 28 2 28 29
M  V30 29 1 28 30
M  V30 30 2 12 31
M  V30 31 1 31 8
M  V30 32 2 30 13
M  V30 33 1 27 20
M  V30 34 1 1 32
M  V30 35 1 1 33
M  V30 36 1 1 34
M  V30 37 1 3 35
M  V30 38 1 3 36
M  V30 39 1 4 37
M  V30 40 1 4 38
M  V30 41 1 5 39 CFG=1
M  V30 42 1 6 40
M  V30 43 1 6 41
M  V30 44 1 6 42
M  V30 45 1 7 43
M  V30 46 1 10 44
M  V30 47 1 11 45
M  V30 48 1 14 46
M  V30 49 1 15 47
M  V30 50 1 17 48 CFG=1
M  V30 51 1 18 49
M  V30 52 1 18 50
M  V30 53 1 19 51
M  V30 54 1 21 52
M  V30 55 1 22 53
M  V30 56 1 27 54
M  V30 57 1 30 55
M  V30 END BOND
M  V30 END CTAB
M  END
>  <Dataset>  (311) 
ChEMBL_Kinases

>  <Ligand_Instance>  (311) 
nan

>  <PDB_ID>  (311) 
nan

>  <Standardized_SMILES>  (311) 
COCC[C@H](C)Nc1nccc(-c2ccn([C@H](CO)c3ccc(Cl)c(F)c3)c(=O)c2)n1

>  <Name>  (311) 
nan

>  <Pocket>  (311) 
nan

>  <ATP_Site>  (311) 
nan

>  <Peripheral>  (311) 
nan

>  <Num_H_Atoms_ProtBoundConf>  (311) 
nan

>  <Num_Resolved_Atoms>  (311) 
nan

>  <Num_Not_Resolved_Atoms>  (311) 
nan

$$$$
CHEMBL3409606
     RDKit          3D

  0  0  0  0  0  0  0  0  0  0999 V3000
M  V30 BEGIN CTAB
M  V30 COUNTS 52 55 0 0 0
M  V30 BEGIN ATOM
M  V30 1 O -0.869126 -5.056416 1.540381 0
M  V30 2 C -0.662846 -3.830510 1.433538 0
M  V30 3 C 0.530997 -3.345767 1.895757 0
M  V30 4 C 0.807342 -2.010433 1.802846 0
M  V30 5 C 2.044815 -1.396244 2.263727 0
M  V30 6 C 3.040125 -2.124612 2.835311 0
M  V30 7 C 4.213939 -1.551035 3.274625 0
M  V30 8 N 4.399216 -0.233854 3.142948 0
M  V30 9 C 3.417496 0.518470 2.573570 0
M  V30 10 N 3.565780 1.941558 2.408478 0
M  V30 11 C 2.555495 2.792859 1.808136 0
M  V30 12 C 2.303435 2.360170 0.429611 0
M  V30 13 C 1.900779 3.503780 -0.443300 0
M  V30 14 S 1.939697 4.928143 0.618684 0
M  V30 15 O 0.587299 5.203192 1.207599 0
M  V30 16 O 2.558317 6.122813 -0.017051 0
M  V30 17 C 2.994600 4.201481 1.879582 0
M  V30 18 N 2.284784 -0.076739 2.156469 0
M  V30 19 C -0.180857 -1.223820 1.226148 0
M  V30 20 C -1.377169 -1.769002 0.772684 0
M  V30 21 N -1.631169 -3.086917 0.872837 0
M  V30 22 C -2.894928 -3.565497 0.377379 0 CFG=2
M  V30 23 C -3.007085 -5.024511 0.155593 0
M  V30 24 O -2.087316 -5.480304 -0.753357 0
M  V30 25 C -3.309000 -2.768198 -0.800330 0
M  V30 26 C -2.927581 -2.977805 -2.106193 0
M  V30 27 C -3.357877 -2.194518 -3.156099 0
M  V30 28 C -4.213899 -1.137561 -2.931074 0
M  V30 29 Cl -4.743534 -0.160551 -4.282871 0
M  V30 30 C -4.636132 -0.869186 -1.652563 0
M  V30 31 F -5.476704 0.157376 -1.379398 0
M  V30 32 C -4.177676 -1.679085 -0.647911 0
M  V30 33 H 1.242680 -4.004728 2.326193 0
M  V30 34 H 2.981066 -3.180789 2.981538 0
M  V30 35 H 5.019025 -2.109989 3.732044 0
M  V30 36 H 4.480326 2.358606 2.757620 0
M  V30 37 H 1.635741 2.696252 2.449810 0
M  V30 38 H 3.156240 1.795922 -0.019197 0
M  V30 39 H 1.453004 1.646235 0.415438 0
M  V30 40 H 2.689772 3.652217 -1.209697 0
M  V30 41 H 0.918292 3.386403 -0.941782 0
M  V30 42 H 4.065038 4.384805 1.631259 0
M  V30 43 H 2.696851 4.678259 2.842003 0
M  V30 44 H 0.047327 -0.148178 1.154271 0
M  V30 45 H -2.033054 -1.018517 0.352686 0
M  V30 46 H -3.628816 -3.324139 1.214908 0
M  V30 47 H -4.011290 -5.190655 -0.341364 0
M  V30 48 H -3.086604 -5.606532 1.093744 0
M  V30 49 H -2.029842 -6.448631 -0.840024 0
M  V30 50 H -2.265027 -3.785787 -2.315027 0
M  V30 51 H -3.028923 -2.400235 -4.167737 0
M  V30 52 H -4.528681 -1.444338 0.361248 0
M  V30 END ATOM
M  V30 BEGIN BOND
M  V30 1 2 1 2
M  V30 2 1 2 3
M  V30 3 2 3 4
M  V30 4 1 4 5
M  V30 5 2 5 6
M  V30 6 1 6 7
M  V30 7 2 7 8
M  V30 8 1 8 9
M  V30 9 1 9 10
M  V30 10 1 10 11
M  V30 11 1 11 12
M  V30 12 1 12 13
M  V30 13 1 13 14
M  V30 14 2 14 15
M  V30 15 2 14 16
M  V30 16 1 14 17
M  V30 17 2 9 18
M  V30 18 1 4 19
M  V30 19 2 19 20
M  V30 20 1 20 21
M  V30 21 1 21 22
M  V30 22 1 22 23
M  V30 23 1 23 24
M  V30 24 1 22 25
M  V30 25 2 25 26
M  V30 26 1 26 27
M  V30 27 2 27 28
M  V30 28 1 28 29
M  V30 29 1 28 30
M  V30 30 1 30 31
M  V30 31 2 30 32
M  V30 32 1 21 2
M  V30 33 1 32 25
M  V30 34 1 18 5
M  V30 35 1 17 11
M  V30 36 1 3 33
M  V30 37 1 6 34
M  V30 38 1 7 35
M  V30 39 1 10 36
M  V30 40 1 11 37
M  V30 41 1 12 38
M  V30 42 1 12 39
M  V30 43 1 13 40
M  V30 44 1 13 41
M  V30 45 1 17 42
M  V30 46 1 17 43
M  V30 47 1 19 44
M  V30 48 1 20 45
M  V30 49 1 22 46 CFG=1
M  V30 50 1 23 47
M  V30 51 1 23 48
M  V30 52 1 24 49
M  V30 53 1 26 50
M  V30 54 1 27 51
M  V30 55 1 32 52
M  V30 END BOND
M  V30 END CTAB
M  END
>  <Dataset>  (312) 
ChEMBL_Kinases

>  <Ligand_Instance>  (312) 
nan

>  <PDB_ID>  (312) 
nan

>  <Standardized_SMILES>  (312) 
O=c1cc(-c2ccnc(NC3CCS(=O)(=O)C3)n2)ccn1[C@H](CO)c1ccc(Cl)c(F)c1

>  <Name>  (312) 
nan

>  <Pocket>  (312) 
nan

>  <ATP_Site>  (312) 
nan

>  <Peripheral>  (312) 
nan

>  <Num_H_Atoms_ProtBoundConf>  (312) 
nan

>  <Num_Resolved_Atoms>  (312) 
nan

>  <Num_Not_Resolved_Atoms>  (312) 
nan

$$$$
CHEMBL3409605
     RDKit          3D

  0  0  0  0  0  0  0  0  0  0999 V3000
M  V30 BEGIN CTAB
M  V30 COUNTS 56 59 0 0 0
M  V30 BEGIN ATOM
M  V30 1 C 4.530006 2.230327 3.985029 0
M  V30 2 C 3.733443 1.326846 3.109642 0
M  V30 3 C 4.601189 0.422784 2.224003 0
M  V30 4 C 3.628382 -0.201824 1.250728 0
M  V30 5 N 4.272286 -0.987733 0.241643 0
M  V30 6 C 3.620677 -1.697483 -0.811889 0
M  V30 7 N 4.261935 -2.426642 -1.743017 0
M  V30 8 C 3.541276 -3.067255 -2.709172 0
M  V30 9 C 2.146616 -2.952202 -2.711441 0
M  V30 10 C 1.508337 -2.200327 -1.748660 0
M  V30 11 C 0.060639 -2.029712 -1.680463 0
M  V30 12 C -0.434959 -1.246648 -0.658259 0
M  V30 13 C -1.797189 -1.009463 -0.488406 0
M  V30 14 N -2.612471 -1.590234 -1.382930 0
M  V30 15 C -4.037986 -1.369321 -1.242778 0 CFG=2
M  V30 16 C -4.576186 -0.452555 -2.320072 0
M  V30 17 O -5.941910 -0.325546 -2.071003 0
M  V30 18 C -4.403536 -0.853526 0.086646 0
M  V30 19 C -4.453148 0.516306 0.356813 0
M  V30 20 C -4.798615 0.967564 1.610719 0
M  V30 21 C -5.109314 0.118974 2.651832 0
M  V30 22 Cl -5.552900 0.644978 4.258195 0
M  V30 23 C -5.064174 -1.247335 2.397737 0
M  V30 24 F -5.366560 -2.129675 3.407113 0
M  V30 25 C -4.715543 -1.697896 1.132675 0
M  V30 26 C -2.148914 -2.354507 -2.382928 0
M  V30 27 O -2.934356 -2.898733 -3.223636 0
M  V30 28 C -0.822703 -2.602595 -2.571962 0
M  V30 29 N 2.264815 -1.600699 -0.834867 0
M  V30 30 C 2.653114 -1.003690 2.108409 0
M  V30 31 C 1.874179 0.008942 2.930637 0
M  V30 32 O 2.806631 0.596033 3.816217 0
M  V30 33 H 4.131192 3.283887 3.915832 0
M  V30 34 H 4.393220 1.957710 5.048304 0
M  V30 35 H 5.608399 2.255054 3.744404 0
M  V30 36 H 3.158746 1.956075 2.368978 0
M  V30 37 H 5.382537 1.032290 1.759521 0
M  V30 38 H 5.033439 -0.329932 2.898301 0
M  V30 39 H 3.045055 0.623089 0.787678 0
M  V30 40 H 5.319106 -1.041987 0.287591 0
M  V30 41 H 4.013927 -3.656354 -3.466671 0
M  V30 42 H 1.569142 -3.447779 -3.461159 0
M  V30 43 H 0.205541 -0.757747 0.089482 0
M  V30 44 H -2.161668 -0.393481 0.318610 0
M  V30 45 H -4.585464 -2.339752 -1.377037 0
M  V30 46 H -4.499971 -0.938996 -3.324062 0
M  V30 47 H -4.103146 0.535798 -2.328989 0
M  V30 48 H -6.247292 -0.762468 -1.252363 0
M  V30 49 H -4.220328 1.239165 -0.417328 0
M  V30 50 H -4.846411 2.025556 1.852945 0
M  V30 51 H -4.683471 -2.761953 0.945692 0
M  V30 52 H -0.452194 -3.206398 -3.361498 0
M  V30 53 H 3.274218 -1.573845 2.858467 0
M  V30 54 H 2.018853 -1.678614 1.534171 0
M  V30 55 H 1.474953 0.748719 2.203327 0
M  V30 56 H 1.062063 -0.461051 3.512088 0
M  V30 END ATOM
M  V30 BEGIN BOND
M  V30 1 1 1 2
M  V30 2 1 2 3
M  V30 3 1 3 4
M  V30 4 1 4 5
M  V30 5 1 5 6
M  V30 6 2 6 7
M  V30 7 1 7 8
M  V30 8 2 8 9
M  V30 9 1 9 10
M  V30 10 1 10 11
M  V30 11 1 11 12
M  V30 12 2 12 13
M  V30 13 1 13 14
M  V30 14 1 14 15
M  V30 15 1 15 16
M  V30 16 1 16 17
M  V30 17 1 15 18
M  V30 18 2 18 19
M  V30 19 1 19 20
M  V30 20 2 20 21
M  V30 21 1 21 22
M  V30 22 1 21 23
M  V30 23 1 23 24
M  V30 24 2 23 25
M  V30 25 1 14 26
M  V30 26 2 26 27
M  V30 27 1 26 28
M  V30 28 2 10 29
M  V30 29 1 4 30
M  V30 30 1 30 31
M  V30 31 1 31 32
M  V30 32 1 32 2
M  V30 33 1 29 6
M  V30 34 2 28 11
M  V30 35 1 25 18
M  V30 36 1 1 33
M  V30 37 1 1 34
M  V30 38 1 1 35
M  V30 39 1 2 36
M  V30 40 1 3 37
M  V30 41 1 3 38
M  V30 42 1 4 39
M  V30 43 1 5 40
M  V30 44 1 8 41
M  V30 45 1 9 42
M  V30 46 1 12 43
M  V30 47 1 13 44
M  V30 48 1 15 45 CFG=3
M  V30 49 1 16 46
M  V30 50 1 16 47
M  V30 51 1 17 48
M  V30 52 1 19 49
M  V30 53 1 20 50
M  V30 54 1 25 51
M  V30 55 1 28 52
M  V30 56 1 30 53
M  V30 57 1 30 54
M  V30 58 1 31 55
M  V30 59 1 31 56
M  V30 END BOND
M  V30 END CTAB
M  END
>  <Dataset>  (313) 
ChEMBL_Kinases

>  <Ligand_Instance>  (313) 
nan

>  <PDB_ID>  (313) 
nan

>  <Standardized_SMILES>  (313) 
CC1CC(Nc2nccc(-c3ccn([C@H](CO)c4ccc(Cl)c(F)c4)c(=O)c3)n2)CCO1

>  <Name>  (313) 
nan

>  <Pocket>  (313) 
nan

>  <ATP_Site>  (313) 
nan

>  <Peripheral>  (313) 
nan

>  <Num_H_Atoms_ProtBoundConf>  (313) 
nan

>  <Num_Resolved_Atoms>  (313) 
nan

>  <Num_Not_Resolved_Atoms>  (313) 
nan

$$$$
CHEMBL3410091
     RDKit          3D

  0  0  0  0  0  0  0  0  0  0999 V3000
M  V30 BEGIN CTAB
M  V30 COUNTS 43 46 0 0 0
M  V30 BEGIN ATOM
M  V30 1 N 2.572024 -6.546235 0.921002 0
M  V30 2 C 1.397209 -5.909279 1.355635 0
M  V30 3 O 0.623827 -6.611297 2.059978 0
M  V30 4 C 1.161420 -4.521224 0.972845 0
M  V30 5 S 2.404394 -3.565292 -0.094895 0
M  V30 6 C 1.305268 -2.039097 -0.035201 0
M  V30 7 C 1.823313 -0.796638 -0.795001 0
M  V30 8 C 2.999613 -0.802766 -1.465649 0
M  V30 9 C 3.315000 0.395863 -2.093178 0
M  V30 10 N 2.482152 1.461959 -2.014389 0
M  V30 11 C 1.312681 1.391328 -1.319014 0
M  V30 12 N 0.433400 2.528114 -1.239983 0
M  V30 13 C 0.411742 3.578286 -0.271943 0
M  V30 14 O 1.276001 3.506723 0.638806 0
M  V30 15 C -0.622551 4.626361 -0.452233 0
M  V30 16 C -1.072072 5.323370 0.842678 0
M  V30 17 C -0.193583 6.061728 -0.079220 0
M  V30 18 C 0.916942 0.228948 -0.659043 0
M  V30 19 N 0.447598 -2.384516 0.584376 0
M  V30 20 C 0.205259 -3.542287 1.154843 0
M  V30 21 O -0.819817 -4.043931 1.925212 0
M  V30 22 C -1.967747 -3.438770 2.366041 0
M  V30 23 C -1.864441 -2.279644 3.295137 0
M  V30 24 C -1.204388 -2.492753 4.654362 0
M  V30 25 C -0.649827 -1.553700 3.643622 0
M  V30 26 H 2.891452 -7.308345 0.286713 0
M  V30 27 H 3.629976 -6.604142 0.981526 0
M  V30 28 H 3.601950 -1.683953 -1.481537 0
M  V30 29 H 4.260937 0.448320 -2.653896 0
M  V30 30 H -0.236952 2.463261 -2.060152 0
M  V30 31 H -1.323859 4.572910 -1.296713 0
M  V30 32 H -0.633366 4.951876 1.790563 0
M  V30 33 H -2.127444 5.604735 0.920065 0
M  V30 34 H -0.671497 6.898962 -0.627095 0
M  V30 35 H 0.864794 6.235568 0.128606 0
M  V30 36 H -0.012903 0.187374 -0.111598 0
M  V30 37 H -2.720230 -4.185205 2.749099 0
M  V30 38 H -2.487702 -3.036379 1.436131 0
M  V30 39 H -2.835081 -1.701360 3.417309 0
M  V30 40 H -1.690691 -2.106260 5.571180 0
M  V30 41 H -0.784434 -3.502113 4.802334 0
M  V30 42 H -0.769425 -0.469751 3.949983 0
M  V30 43 H 0.326024 -1.720127 3.191484 0
M  V30 END ATOM
M  V30 BEGIN BOND
M  V30 1 1 1 2
M  V30 2 2 2 3
M  V30 3 1 2 4
M  V30 4 1 4 5
M  V30 5 1 5 6
M  V30 6 1 6 7
M  V30 7 2 7 8
M  V30 8 1 8 9
M  V30 9 2 9 10
M  V30 10 1 10 11
M  V30 11 1 11 12
M  V30 12 1 12 13
M  V30 13 2 13 14
M  V30 14 1 13 15
M  V30 15 1 15 16
M  V30 16 1 16 17
M  V30 17 2 11 18
M  V30 18 2 6 19
M  V30 19 1 19 20
M  V30 20 1 20 21
M  V30 21 1 21 22
M  V30 22 1 22 23
M  V30 23 1 23 24
M  V30 24 1 24 25
M  V30 25 2 20 4
M  V30 26 1 25 23
M  V30 27 1 18 7
M  V30 28 1 17 15
M  V30 29 1 1 26
M  V30 30 1 1 27
M  V30 31 1 8 28
M  V30 32 1 9 29
M  V30 33 1 12 30
M  V30 34 1 15 31
M  V30 35 1 16 32
M  V30 36 1 16 33
M  V30 37 1 17 34
M  V30 38 1 17 35
M  V30 39 1 18 36
M  V30 40 1 22 37
M  V30 41 1 22 38
M  V30 42 1 23 39
M  V30 43 1 24 40
M  V30 44 1 24 41
M  V30 45 1 25 42
M  V30 46 1 25 43
M  V30 END BOND
M  V30 END CTAB
M  END
>  <Dataset>  (314) 
ChEMBL_Kinases

>  <Ligand_Instance>  (314) 
nan

>  <PDB_ID>  (314) 
nan

>  <Standardized_SMILES>  (314) 
NC(=O)c1sc(-c2ccnc(NC(=O)C3CC3)c2)nc1OCC1CC1

>  <Name>  (314) 
nan

>  <Pocket>  (314) 
nan

>  <ATP_Site>  (314) 
nan

>  <Peripheral>  (314) 
nan

>  <Num_H_Atoms_ProtBoundConf>  (314) 
nan

>  <Num_Resolved_Atoms>  (314) 
nan

>  <Num_Not_Resolved_Atoms>  (314) 
nan

$$$$
CHEMBL3409587
     RDKit          3D

  0  0  0  0  0  0  0  0  0  0999 V3000
M  V30 BEGIN CTAB
M  V30 COUNTS 53 56 0 0 0
M  V30 BEGIN ATOM
M  V30 1 O -0.590570 -2.395055 1.642915 0
M  V30 2 C -1.147531 -1.871924 0.644879 0
M  V30 3 C -0.527847 -0.811037 0.016868 0
M  V30 4 C -1.135809 -0.233086 -1.079918 0
M  V30 5 C -0.470924 0.888542 -1.736167 0
M  V30 6 C -0.997525 1.530552 -2.835774 0
M  V30 7 C -0.254489 2.573109 -3.346005 0
M  V30 8 N 0.920912 2.965444 -2.823117 0
M  V30 9 C 1.420454 2.315504 -1.736695 0
M  V30 10 N 2.663222 2.709488 -1.163323 0
M  V30 11 C 3.174635 1.990903 0.008028 0
M  V30 12 C 2.231780 2.081266 1.188308 0
M  V30 13 C 2.668875 3.234053 2.066043 0
M  V30 14 O 3.875866 2.990670 2.667134 0
M  V30 15 C 4.736042 2.220630 1.890869 0
M  V30 16 C 4.528210 2.458245 0.410694 0
M  V30 17 N 0.705515 1.294748 -1.227130 0
M  V30 18 C -2.343425 -0.763860 -1.482109 0
M  V30 19 C -2.920564 -1.839715 -0.804331 0
M  V30 20 N -2.314671 -2.399942 0.272093 0
M  V30 21 C -3.011936 -3.491529 0.870548 0 CFG=2
M  V30 22 C -4.274802 -3.026615 1.597887 0
M  V30 23 O -5.151974 -2.404601 0.740044 0
M  V30 24 C -2.224670 -4.341061 1.762790 0
M  V30 25 C -1.541528 -5.436583 1.220826 0
M  V30 26 C -0.775396 -6.293639 1.983845 0
M  V30 27 C -0.660495 -6.085445 3.340619 0
M  V30 28 C -1.315342 -5.018298 3.922860 0
M  V30 29 F -1.301318 -4.678114 5.249772 0
M  V30 30 C -2.074597 -4.176830 3.137567 0
M  V30 31 H 0.436785 -0.447504 0.402183 0
M  V30 32 H -1.923818 1.226969 -3.253780 0
M  V30 33 H -0.599145 3.130089 -4.210417 0
M  V30 34 H 3.180832 3.505871 -1.596006 0
M  V30 35 H 3.174100 0.906229 -0.307522 0
M  V30 36 H 2.365150 1.148757 1.779049 0
M  V30 37 H 1.179288 2.183710 0.924653 0
M  V30 38 H 1.862400 3.354237 2.832644 0
M  V30 39 H 2.670636 4.186354 1.492678 0
M  V30 40 H 4.716691 1.144720 2.145940 0
M  V30 41 H 5.771037 2.579968 2.125235 0
M  V30 42 H 4.639756 3.527061 0.202316 0
M  V30 43 H 5.304155 1.862536 -0.114618 0
M  V30 44 H -2.840940 -0.336845 -2.331027 0
M  V30 45 H -3.885277 -2.183939 -1.210325 0
M  V30 46 H -3.388608 -4.144014 0.028769 0
M  V30 47 H -4.009558 -2.321969 2.397258 0
M  V30 48 H -4.768570 -3.925093 2.019135 0
M  V30 49 H -5.616162 -1.616833 1.109061 0
M  V30 50 H -1.616046 -5.623510 0.148990 0
M  V30 51 H -0.252550 -7.137990 1.547216 0
M  V30 52 H -0.082287 -6.705614 4.014978 0
M  V30 53 H -2.621899 -3.312997 3.521173 0
M  V30 END ATOM
M  V30 BEGIN BOND
M  V30 1 2 1 2
M  V30 2 1 2 3
M  V30 3 2 3 4
M  V30 4 1 4 5
M  V30 5 2 5 6
M  V30 6 1 6 7
M  V30 7 2 7 8
M  V30 8 1 8 9
M  V30 9 1 9 10
M  V30 10 1 10 11
M  V30 11 1 11 12
M  V30 12 1 12 13
M  V30 13 1 13 14
M  V30 14 1 14 15
M  V30 15 1 15 16
M  V30 16 2 9 17
M  V30 17 1 4 18
M  V30 18 2 18 19
M  V30 19 1 19 20
M  V30 20 1 20 21
M  V30 21 1 21 22
M  V30 22 1 22 23
M  V30 23 1 21 24
M  V30 24 2 24 25
M  V30 25 1 25 26
M  V30 26 2 26 27
M  V30 27 1 27 28
M  V30 28 1 28 29
M  V30 29 2 28 30
M  V30 30 1 20 2
M  V30 31 1 30 24
M  V30 32 1 17 5
M  V30 33 1 16 11
M  V30 34 1 3 31
M  V30 35 1 6 32
M  V30 36 1 7 33
M  V30 37 1 10 34
M  V30 38 1 11 35
M  V30 39 1 12 36
M  V30 40 1 12 37
M  V30 41 1 13 38
M  V30 42 1 13 39
M  V30 43 1 15 40
M  V30 44 1 15 41
M  V30 45 1 16 42
M  V30 46 1 16 43
M  V30 47 1 18 44
M  V30 48 1 19 45
M  V30 49 1 21 46 CFG=3
M  V30 50 1 22 47
M  V30 51 1 22 48
M  V30 52 1 23 49
M  V30 53 1 25 50
M  V30 54 1 26 51
M  V30 55 1 27 52
M  V30 56 1 30 53
M  V30 END BOND
M  V30 END CTAB
M  END
>  <Dataset>  (315) 
ChEMBL_Kinases

>  <Ligand_Instance>  (315) 
nan

>  <PDB_ID>  (315) 
nan

>  <Standardized_SMILES>  (315) 
O=c1cc(-c2ccnc(NC3CCOCC3)n2)ccn1[C@H](CO)c1cccc(F)c1

>  <Name>  (315) 
nan

>  <Pocket>  (315) 
nan

>  <ATP_Site>  (315) 
nan

>  <Peripheral>  (315) 
nan

>  <Num_H_Atoms_ProtBoundConf>  (315) 
nan

>  <Num_Resolved_Atoms>  (315) 
nan

>  <Num_Not_Resolved_Atoms>  (315) 
nan

$$$$
CHEMBL3409589
     RDKit          3D

  0  0  0  0  0  0  0  0  0  0999 V3000
M  V30 BEGIN CTAB
M  V30 COUNTS 53 56 0 0 0
M  V30 BEGIN ATOM
M  V30 1 O -4.545238 -1.307641 0.731814 0
M  V30 2 C -3.352199 -1.238408 0.342544 0
M  V30 3 C -2.549654 -0.391113 1.075743 0
M  V30 4 C -1.229520 -0.271486 0.698494 0
M  V30 5 C -0.263657 0.583804 1.376586 0
M  V30 6 C -0.604231 1.352974 2.468134 0
M  V30 7 C 0.385624 2.126948 3.035629 0
M  V30 8 N 1.646994 2.161026 2.575467 0
M  V30 9 C 1.961026 1.406579 1.512790 0
M  V30 10 N 3.271252 1.389734 0.969909 0
M  V30 11 C 4.372448 2.164592 1.501634 0
M  V30 12 C 4.651961 1.749230 2.914895 0
M  V30 13 C 5.770136 2.611478 3.458789 0
M  V30 14 O 5.481312 3.964323 3.355149 0
M  V30 15 C 4.197369 4.234059 2.897186 0
M  V30 16 C 3.922449 3.615108 1.555046 0
M  V30 17 N 1.008415 0.646363 0.947555 0
M  V30 18 C -0.824321 -1.016792 -0.389103 0
M  V30 19 C -1.700707 -1.857473 -1.084669 0
M  V30 20 N -2.982784 -1.972753 -0.717182 0
M  V30 21 C -3.824379 -2.845816 -1.466686 0 CFG=2
M  V30 22 C -5.218071 -2.997525 -0.974986 0
M  V30 23 O -5.944341 -3.887518 -1.803421 0
M  V30 24 C -3.121601 -4.143510 -1.650469 0
M  V30 25 C -3.340196 -4.981144 -0.556998 0
M  V30 26 C -2.771133 -6.254481 -0.524354 0
M  V30 27 C -1.989173 -6.692846 -1.572657 0
M  V30 28 F -1.419346 -7.929600 -1.571791 0
M  V30 29 C -1.787547 -5.846617 -2.642708 0
M  V30 30 Cl -0.811286 -6.336650 -3.999222 0
M  V30 31 C -2.339281 -4.583301 -2.698423 0
M  V30 32 H -2.914791 0.160322 1.906459 0
M  V30 33 H -1.595763 1.359736 2.871546 0
M  V30 34 H 0.129435 2.735189 3.893570 0
M  V30 35 H 3.480839 0.785749 0.130225 0
M  V30 36 H 5.287910 2.041677 0.900196 0
M  V30 37 H 5.081015 0.708586 2.871991 0
M  V30 38 H 3.773483 1.845075 3.551509 0
M  V30 39 H 6.676223 2.399510 2.880668 0
M  V30 40 H 5.942432 2.299518 4.512765 0
M  V30 41 H 4.173419 5.342944 2.731594 0
M  V30 42 H 3.411893 4.047444 3.654988 0
M  V30 43 H 2.865006 3.759361 1.305207 0
M  V30 44 H 4.507462 4.159316 0.789597 0
M  V30 45 H 0.228651 -0.920048 -0.688353 0
M  V30 46 H -1.238000 -2.367793 -1.903053 0
M  V30 47 H -3.902924 -2.408765 -2.506330 0
M  V30 48 H -5.738418 -2.008440 -1.139067 0
M  V30 49 H -5.348620 -3.379439 0.035774 0
M  V30 50 H -6.234160 -3.401453 -2.632908 0
M  V30 51 H -3.918050 -4.801527 0.338041 0
M  V30 52 H -2.886639 -6.968444 0.279645 0
M  V30 53 H -2.244661 -3.854043 -3.481154 0
M  V30 END ATOM
M  V30 BEGIN BOND
M  V30 1 2 1 2
M  V30 2 1 2 3
M  V30 3 2 3 4
M  V30 4 1 4 5
M  V30 5 2 5 6
M  V30 6 1 6 7
M  V30 7 2 7 8
M  V30 8 1 8 9
M  V30 9 1 9 10
M  V30 10 1 10 11
M  V30 11 1 11 12
M  V30 12 1 12 13
M  V30 13 1 13 14
M  V30 14 1 14 15
M  V30 15 1 15 16
M  V30 16 2 9 17
M  V30 17 1 4 18
M  V30 18 2 18 19
M  V30 19 1 19 20
M  V30 20 1 20 21
M  V30 21 1 21 22
M  V30 22 1 22 23
M  V30 23 1 21 24
M  V30 24 2 24 25
M  V30 25 1 25 26
M  V30 26 2 26 27
M  V30 27 1 27 28
M  V30 28 1 27 29
M  V30 29 1 29 30
M  V30 30 2 29 31
M  V30 31 1 20 2
M  V30 32 1 31 24
M  V30 33 1 17 5
M  V30 34 1 16 11
M  V30 35 1 3 32
M  V30 36 1 6 33
M  V30 37 1 7 34
M  V30 38 1 10 35
M  V30 39 1 11 36
M  V30 40 1 12 37
M  V30 41 1 12 38
M  V30 42 1 13 39
M  V30 43 1 13 40
M  V30 44 1 15 41
M  V30 45 1 15 42
M  V30 46 1 16 43
M  V30 47 1 16 44
M  V30 48 1 18 45
M  V30 49 1 19 46
M  V30 50 1 21 47 CFG=3
M  V30 51 1 22 48
M  V30 52 1 22 49
M  V30 53 1 23 50
M  V30 54 1 25 51
M  V30 55 1 26 52
M  V30 56 1 31 53
M  V30 END BOND
M  V30 END CTAB
M  END
>  <Dataset>  (316) 
ChEMBL_Kinases

>  <Ligand_Instance>  (316) 
nan

>  <PDB_ID>  (316) 
nan

>  <Standardized_SMILES>  (316) 
O=c1cc(-c2ccnc(NC3CCOCC3)n2)ccn1[C@H](CO)c1ccc(F)c(Cl)c1

>  <Name>  (316) 
nan

>  <Pocket>  (316) 
nan

>  <ATP_Site>  (316) 
nan

>  <Peripheral>  (316) 
nan

>  <Num_H_Atoms_ProtBoundConf>  (316) 
nan

>  <Num_Resolved_Atoms>  (316) 
nan

>  <Num_Not_Resolved_Atoms>  (316) 
nan

$$$$
CHEMBL3409590
     RDKit          3D

  0  0  0  0  0  0  0  0  0  0999 V3000
M  V30 BEGIN CTAB
M  V30 COUNTS 53 56 0 0 0
M  V30 BEGIN ATOM
M  V30 1 O -1.788238 -0.987011 2.579083 0
M  V30 2 C -1.441049 -1.260382 1.394792 0
M  V30 3 C -0.279960 -0.717072 0.829281 0
M  V30 4 F 0.424892 0.107941 1.640565 0
M  V30 5 C 0.088643 -1.023610 -0.465713 0
M  V30 6 C 1.309724 -0.433717 -1.012550 0
M  V30 7 C 1.750769 -0.693308 -2.291447 0
M  V30 8 C 2.918437 -0.132176 -2.817145 0
M  V30 9 N 3.614766 0.684205 -2.026680 0
M  V30 10 C 3.216575 0.959953 -0.777168 0
M  V30 11 N 4.001429 1.837782 0.022007 0
M  V30 12 C 3.661177 2.207258 1.388850 0
M  V30 13 C 2.334079 2.907897 1.457648 0
M  V30 14 C 2.585527 4.350758 1.844195 0
M  V30 15 O 3.102601 4.303299 3.137077 0
M  V30 16 C 4.380332 3.810192 3.191963 0
M  V30 17 C 4.774735 2.871075 2.109826 0
M  V30 18 N 2.093470 0.408731 -0.298030 0
M  V30 19 C -0.722196 -1.878952 -1.179050 0
M  V30 20 C -1.878590 -2.422003 -0.620427 0
M  V30 21 N -2.226513 -2.106775 0.662342 0
M  V30 22 C -3.402178 -2.636735 1.282123 0
M  V30 23 C -4.612466 -1.732161 1.079687 0
M  V30 24 O -4.394266 -0.483310 1.617688 0
M  V30 25 C -3.757509 -3.979011 0.812906 0
M  V30 26 C -3.213581 -5.050774 1.510006 0
M  V30 27 C -3.475504 -6.374090 1.161987 0
M  V30 28 C -4.302422 -6.638955 0.089452 0
M  V30 29 Cl -4.632823 -8.312407 -0.348771 0
M  V30 30 C -4.861975 -5.595007 -0.628104 0
M  V30 31 F -5.670819 -5.836603 -1.676793 0
M  V30 32 C -4.571347 -4.304826 -0.243019 0
M  V30 33 H 1.212527 -1.341904 -2.943322 0
M  V30 34 H 3.233123 -0.368110 -3.845134 0
M  V30 35 H 4.868598 2.261744 -0.342698 0
M  V30 36 H 3.491207 1.223304 1.920253 0
M  V30 37 H 1.623068 2.460799 2.182328 0
M  V30 38 H 1.856258 2.815268 0.450543 0
M  V30 39 H 1.627883 4.871136 1.903373 0
M  V30 40 H 3.231712 4.838603 1.109645 0
M  V30 41 H 5.097831 4.673404 3.270881 0
M  V30 42 H 4.463248 3.286454 4.189311 0
M  V30 43 H 5.471990 2.103453 2.559412 0
M  V30 44 H 5.380060 3.448868 1.350656 0
M  V30 45 H -0.483918 -2.146031 -2.176408 0
M  V30 46 H -2.479198 -3.080316 -1.206966 0
M  V30 47 H -3.257135 -2.657500 2.395781 0
M  V30 48 H -4.816561 -1.607402 -0.005278 0
M  V30 49 H -5.496606 -2.174688 1.537030 0
M  V30 50 H -3.870316 0.080500 0.996996 0
M  V30 51 H -2.573090 -4.893312 2.340659 0
M  V30 52 H -3.023352 -7.177330 1.742542 0
M  V30 53 H -4.996983 -3.481128 -0.788581 0
M  V30 END ATOM
M  V30 BEGIN BOND
M  V30 1 2 1 2
M  V30 2 1 2 3
M  V30 3 1 3 4
M  V30 4 2 3 5
M  V30 5 1 5 6
M  V30 6 2 6 7
M  V30 7 1 7 8
M  V30 8 2 8 9
M  V30 9 1 9 10
M  V30 10 1 10 11
M  V30 11 1 11 12
M  V30 12 1 12 13
M  V30 13 1 13 14
M  V30 14 1 14 15
M  V30 15 1 15 16
M  V30 16 1 16 17
M  V30 17 2 10 18
M  V30 18 1 5 19
M  V30 19 2 19 20
M  V30 20 1 20 21
M  V30 21 1 21 22
M  V30 22 1 22 23
M  V30 23 1 23 24
M  V30 24 1 22 25
M  V30 25 2 25 26
M  V30 26 1 26 27
M  V30 27 2 27 28
M  V30 28 1 28 29
M  V30 29 1 28 30
M  V30 30 1 30 31
M  V30 31 2 30 32
M  V30 32 1 21 2
M  V30 33 1 32 25
M  V30 34 1 18 6
M  V30 35 1 17 12
M  V30 36 1 7 33
M  V30 37 1 8 34
M  V30 38 1 11 35
M  V30 39 1 12 36
M  V30 40 1 13 37
M  V30 41 1 13 38
M  V30 42 1 14 39
M  V30 43 1 14 40
M  V30 44 1 16 41
M  V30 45 1 16 42
M  V30 46 1 17 43
M  V30 47 1 17 44
M  V30 48 1 19 45
M  V30 49 1 20 46
M  V30 50 1 22 47
M  V30 51 1 23 48
M  V30 52 1 23 49
M  V30 53 1 24 50
M  V30 54 1 26 51
M  V30 55 1 27 52
M  V30 56 1 32 53
M  V30 END BOND
M  V30 END CTAB
M  END
>  <Dataset>  (317) 
ChEMBL_Kinases

>  <Ligand_Instance>  (317) 
nan

>  <PDB_ID>  (317) 
nan

>  <Standardized_SMILES>  (317) 
O=c1c(F)c(-c2ccnc(NC3CCOCC3)n2)ccn1C(CO)c1ccc(Cl)c(F)c1

>  <Name>  (317) 
nan

>  <Pocket>  (317) 
nan

>  <ATP_Site>  (317) 
nan

>  <Peripheral>  (317) 
nan

>  <Num_H_Atoms_ProtBoundConf>  (317) 
nan

>  <Num_Resolved_Atoms>  (317) 
nan

>  <Num_Not_Resolved_Atoms>  (317) 
nan

$$$$
CHEMBL3409591
     RDKit          3D

  0  0  0  0  0  0  0  0  0  0999 V3000
M  V30 BEGIN CTAB
M  V30 COUNTS 53 56 0 0 0
M  V30 BEGIN ATOM
M  V30 1 O -2.635741 -0.145800 0.079606 0
M  V30 2 C -1.701386 -0.986667 0.112018 0
M  V30 3 C -0.396136 -0.552742 0.192651 0
M  V30 4 C 0.660884 -1.436852 0.230912 0
M  V30 5 C 2.001074 -0.893580 0.316250 0
M  V30 6 C 3.195109 -1.564612 0.368942 0
M  V30 7 C 4.432737 -0.972518 0.450092 0
M  V30 8 N 4.456471 0.371390 0.479178 0
M  V30 9 C 3.298101 1.091802 0.429500 0
M  V30 10 N 3.352171 2.509003 0.457433 0
M  V30 11 C 2.210492 3.399650 0.418673 0
M  V30 12 C 1.371777 3.144260 1.640053 0
M  V30 13 C 2.059460 3.843535 2.804135 0
M  V30 14 O 2.219925 5.191293 2.571943 0
M  V30 15 C 3.090793 5.467600 1.539805 0
M  V30 16 C 2.603202 4.833561 0.259676 0
M  V30 17 N 2.146674 0.432635 0.351710 0
M  V30 18 C 0.278707 -2.750716 0.181229 0
M  V30 19 F 1.237088 -3.691711 0.212893 0
M  V30 20 C -1.015911 -3.211533 0.100602 0
M  V30 21 N -2.013461 -2.310514 0.066007 0
M  V30 22 C -3.395090 -2.731835 -0.017562 0
M  V30 23 C -3.896315 -2.453316 -1.398699 0
M  V30 24 O -3.208508 -3.095439 -2.399738 0
M  V30 25 C -3.499409 -4.120667 0.426543 0
M  V30 26 C -3.684045 -4.289672 1.804709 0
M  V30 27 C -3.802992 -5.541019 2.381849 0
M  V30 28 C -3.742839 -6.679920 1.608240 0
M  V30 29 Cl -3.893653 -8.261993 2.341827 0
M  V30 30 C -3.562947 -6.529883 0.261711 0
M  V30 31 F -3.495195 -7.623553 -0.556334 0
M  V30 32 C -3.444960 -5.280642 -0.308705 0
M  V30 33 H -0.240919 0.522842 0.224552 0
M  V30 34 H 3.177387 -2.640839 0.345623 0
M  V30 35 H 5.329351 -1.573214 0.487697 0
M  V30 36 H 4.300284 2.983922 0.511722 0
M  V30 37 H 1.622978 3.126322 -0.487378 0
M  V30 38 H 0.321953 3.482973 1.530523 0
M  V30 39 H 1.374686 2.069794 1.864323 0
M  V30 40 H 1.387216 3.713441 3.676893 0
M  V30 41 H 3.005969 3.292611 2.980511 0
M  V30 42 H 3.090975 6.564513 1.377309 0
M  V30 43 H 4.142117 5.157389 1.739276 0
M  V30 44 H 1.734451 5.394929 -0.139761 0
M  V30 45 H 3.396643 4.872291 -0.510140 0
M  V30 46 H -1.235286 -4.262778 0.065543 0
M  V30 47 H -3.970604 -2.033589 0.659868 0
M  V30 48 H -3.790168 -1.352191 -1.554847 0
M  V30 49 H -4.993936 -2.637138 -1.481971 0
M  V30 50 H -3.297626 -2.567347 -3.221699 0
M  V30 51 H -3.744876 -3.450049 2.501294 0
M  V30 52 H -3.945805 -5.679315 3.446444 0
M  V30 53 H -3.304802 -5.158094 -1.355330 0
M  V30 END ATOM
M  V30 BEGIN BOND
M  V30 1 2 1 2
M  V30 2 1 2 3
M  V30 3 2 3 4
M  V30 4 1 4 5
M  V30 5 2 5 6
M  V30 6 1 6 7
M  V30 7 2 7 8
M  V30 8 1 8 9
M  V30 9 1 9 10
M  V30 10 1 10 11
M  V30 11 1 11 12
M  V30 12 1 12 13
M  V30 13 1 13 14
M  V30 14 1 14 15
M  V30 15 1 15 16
M  V30 16 2 9 17
M  V30 17 1 4 18
M  V30 18 1 18 19
M  V30 19 2 18 20
M  V30 20 1 20 21
M  V30 21 1 21 22
M  V30 22 1 22 23
M  V30 23 1 23 24
M  V30 24 1 22 25
M  V30 25 2 25 26
M  V30 26 1 26 27
M  V30 27 2 27 28
M  V30 28 1 28 29
M  V30 29 1 28 30
M  V30 30 1 30 31
M  V30 31 2 30 32
M  V30 32 1 21 2
M  V30 33 1 32 25
M  V30 34 1 17 5
M  V30 35 1 16 11
M  V30 36 1 3 33
M  V30 37 1 6 34
M  V30 38 1 7 35
M  V30 39 1 10 36
M  V30 40 1 11 37
M  V30 41 1 12 38
M  V30 42 1 12 39
M  V30 43 1 13 40
M  V30 44 1 13 41
M  V30 45 1 15 42
M  V30 46 1 15 43
M  V30 47 1 16 44
M  V30 48 1 16 45
M  V30 49 1 20 46
M  V30 50 1 22 47
M  V30 51 1 23 48
M  V30 52 1 23 49
M  V30 53 1 24 50
M  V30 54 1 26 51
M  V30 55 1 27 52
M  V30 56 1 32 53
M  V30 END BOND
M  V30 END CTAB
M  END
>  <Dataset>  (318) 
ChEMBL_Kinases

>  <Ligand_Instance>  (318) 
nan

>  <PDB_ID>  (318) 
nan

>  <Standardized_SMILES>  (318) 
O=c1cc(-c2ccnc(NC3CCOCC3)n2)c(F)cn1C(CO)c1ccc(Cl)c(F)c1

>  <Name>  (318) 
nan

>  <Pocket>  (318) 
nan

>  <ATP_Site>  (318) 
nan

>  <Peripheral>  (318) 
nan

>  <Num_H_Atoms_ProtBoundConf>  (318) 
nan

>  <Num_Resolved_Atoms>  (318) 
nan

>  <Num_Not_Resolved_Atoms>  (318) 
nan

$$$$
CHEMBL3409592
     RDKit          3D

  0  0  0  0  0  0  0  0  0  0999 V3000
M  V30 BEGIN CTAB
M  V30 COUNTS 56 59 0 0 0
M  V30 BEGIN ATOM
M  V30 1 C -2.242263 -0.341350 4.005186 0
M  V30 2 C -1.270006 -0.168201 2.905013 0
M  V30 3 C -0.069089 0.474381 3.124730 0
M  V30 4 N 0.866012 0.628342 2.174492 0
M  V30 5 C 2.054482 1.322236 2.578385 0
M  V30 6 C 2.872288 0.561625 3.586755 0
M  V30 7 O 3.323586 -0.670328 3.170375 0
M  V30 8 C 2.819190 1.830533 1.446834 0
M  V30 9 C 3.902563 1.230024 0.823288 0
M  V30 10 C 4.561805 1.797123 -0.248778 0
M  V30 11 C 4.154555 3.015964 -0.751816 0
M  V30 12 Cl 5.016686 3.701641 -2.111994 0
M  V30 13 C 3.084561 3.675987 -0.185564 0
M  V30 14 F 2.655846 4.862811 -0.643485 0
M  V30 15 C 2.462810 3.063499 0.883015 0
M  V30 16 C 0.590740 0.123720 0.967336 0
M  V30 17 O 1.451887 0.261656 0.081889 0
M  V30 18 C -0.600027 -0.516428 0.737279 0
M  V30 19 C -1.593016 -0.696682 1.688422 0
M  V30 20 C -2.756937 -1.410227 1.233032 0
M  V30 21 C -3.995750 -1.515734 1.793051 0
M  V30 22 C -5.080330 -2.189458 1.297500 0
M  V30 23 N -4.900529 -2.827501 0.106066 0
M  V30 24 C -3.681257 -2.761089 -0.510874 0
M  V30 25 N -3.405721 -3.399260 -1.757605 0
M  V30 26 C -2.180313 -3.389662 -2.475759 0
M  V30 27 C -1.077814 -3.989333 -1.667053 0
M  V30 28 C 0.256599 -3.939239 -2.378610 0
M  V30 29 O 0.561445 -2.670791 -2.831059 0
M  V30 30 C -0.398155 -2.112127 -3.629918 0
M  V30 31 C -1.781658 -2.056239 -3.025880 0
M  V30 32 N -2.713292 -2.078479 0.070193 0
M  V30 33 H -2.537415 -1.407453 4.179758 0
M  V30 34 H -1.634192 -0.138428 4.958013 0
M  V30 35 H -3.033103 0.397849 4.060429 0
M  V30 36 H 0.103357 0.871459 4.139318 0
M  V30 37 H 1.703770 2.228150 3.160251 0
M  V30 38 H 3.636419 1.239866 3.986172 0
M  V30 39 H 2.182198 0.355488 4.451835 0
M  V30 40 H 3.456967 -1.248035 3.951212 0
M  V30 41 H 4.208443 0.278054 1.228351 0
M  V30 42 H 5.405073 1.303307 -0.714686 0
M  V30 43 H 1.613282 3.594646 1.327333 0
M  V30 44 H -0.699118 -0.880595 -0.286107 0
M  V30 45 H -4.199432 -1.019362 2.707641 0
M  V30 46 H -6.035500 -2.232261 1.796103 0
M  V30 47 H -4.248687 -3.926406 -2.146477 0
M  V30 48 H -2.301017 -4.074527 -3.369132 0
M  V30 49 H -0.941643 -3.408093 -0.734572 0
M  V30 50 H -1.336468 -5.015845 -1.349967 0
M  V30 51 H 1.036122 -4.335990 -1.726500 0
M  V30 52 H 0.163744 -4.608908 -3.256629 0
M  V30 53 H -0.082919 -1.039664 -3.793613 0
M  V30 54 H -0.414764 -2.545461 -4.652982 0
M  V30 55 H -1.848509 -1.208011 -2.354801 0
M  V30 56 H -2.461999 -1.803059 -3.892551 0
M  V30 END ATOM
M  V30 BEGIN BOND
M  V30 1 1 1 2
M  V30 2 2 2 3
M  V30 3 1 3 4
M  V30 4 1 4 5
M  V30 5 1 5 6
M  V30 6 1 6 7
M  V30 7 1 5 8
M  V30 8 2 8 9
M  V30 9 1 9 10
M  V30 10 2 10 11
M  V30 11 1 11 12
M  V30 12 1 11 13
M  V30 13 1 13 14
M  V30 14 2 13 15
M  V30 15 1 4 16
M  V30 16 2 16 17
M  V30 17 1 16 18
M  V30 18 2 18 19
M  V30 19 1 19 20
M  V30 20 2 20 21
M  V30 21 1 21 22
M  V30 22 2 22 23
M  V30 23 1 23 24
M  V30 24 1 24 25
M  V30 25 1 25 26
M  V30 26 1 26 27
M  V30 27 1 27 28
M  V30 28 1 28 29
M  V30 29 1 29 30
M  V30 30 1 30 31
M  V30 31 2 24 32
M  V30 32 1 19 2
M  V30 33 1 32 20
M  V30 34 1 15 8
M  V30 35 1 31 26
M  V30 36 1 1 33
M  V30 37 1 1 34
M  V30 38 1 1 35
M  V30 39 1 3 36
M  V30 40 1 5 37
M  V30 41 1 6 38
M  V30 42 1 6 39
M  V30 43 1 7 40
M  V30 44 1 9 41
M  V30 45 1 10 42
M  V30 46 1 15 43
M  V30 47 1 18 44
M  V30 48 1 21 45
M  V30 49 1 22 46
M  V30 50 1 25 47
M  V30 51 1 26 48
M  V30 52 1 27 49
M  V30 53 1 27 50
M  V30 54 1 28 51
M  V30 55 1 28 52
M  V30 56 1 30 53
M  V30 57 1 30 54
M  V30 58 1 31 55
M  V30 59 1 31 56
M  V30 END BOND
M  V30 END CTAB
M  END
>  <Dataset>  (319) 
ChEMBL_Kinases

>  <Ligand_Instance>  (319) 
nan

>  <PDB_ID>  (319) 
nan

>  <Standardized_SMILES>  (319) 
Cc1cn(C(CO)c2ccc(Cl)c(F)c2)c(=O)cc1-c1ccnc(NC2CCOCC2)n1

>  <Name>  (319) 
nan

>  <Pocket>  (319) 
nan

>  <ATP_Site>  (319) 
nan

>  <Peripheral>  (319) 
nan

>  <Num_H_Atoms_ProtBoundConf>  (319) 
nan

>  <Num_Resolved_Atoms>  (319) 
nan

>  <Num_Not_Resolved_Atoms>  (319) 
nan

$$$$
CHEMBL3409593
     RDKit          3D

  0  0  0  0  0  0  0  0  0  0999 V3000
M  V30 BEGIN CTAB
M  V30 COUNTS 56 59 0 0 0
M  V30 BEGIN ATOM
M  V30 1 C -2.386916 -0.755532 -0.389523 0
M  V30 2 C -1.114219 -1.424726 0.027064 0
M  V30 3 C -0.021674 -0.705796 0.472934 0
M  V30 4 C 1.155962 -1.309647 0.858540 0
M  V30 5 C 2.254623 -0.466200 1.315155 0
M  V30 6 C 3.472221 -0.967883 1.722126 0
M  V30 7 C 4.433172 -0.079096 2.131815 0
M  V30 8 N 4.186781 1.240500 2.133347 0
M  V30 9 C 2.988738 1.742316 1.733466 0
M  V30 10 N 2.635052 3.118162 1.699533 0
M  V30 11 C 1.363501 3.626104 1.274289 0
M  V30 12 C 1.414914 5.156524 1.391962 0
M  V30 13 C 0.015837 5.688919 1.668397 0
M  V30 14 O -0.417221 5.347339 2.925637 0
M  V30 15 C -0.031255 4.082005 3.296714 0
M  V30 16 C 0.203538 3.154788 2.121055 0
M  V30 17 N 2.051877 0.861303 1.333073 0
M  V30 18 C 1.196669 -2.684894 0.778564 0
M  V30 19 C 0.081009 -3.358727 0.327426 0
M  V30 20 O 0.205863 -4.590633 0.287811 0
M  V30 21 N -1.075914 -2.789301 -0.053027 0
M  V30 22 C -2.220770 -3.518508 -0.518473 0
M  V30 23 C -3.041600 -4.083680 0.625529 0
M  V30 24 O -2.355098 -4.950673 1.436239 0
M  V30 25 C -1.938184 -4.526888 -1.555430 0
M  V30 26 C -1.757087 -5.884045 -1.412444 0
M  V30 27 C -1.492910 -6.719266 -2.464728 0
M  V30 28 C -1.392431 -6.235683 -3.748737 0
M  V30 29 Cl -1.056109 -7.288602 -5.099420 0
M  V30 30 C -1.561181 -4.879428 -3.984124 0
M  V30 31 F -1.474890 -4.354431 -5.208311 0
M  V30 32 C -1.823674 -4.098434 -2.884066 0
M  V30 33 H -2.275895 0.322455 -0.082734 0
M  V30 34 H -3.207299 -1.164828 0.199102 0
M  V30 35 H -2.567238 -0.824385 -1.478198 0
M  V30 36 H -0.141420 0.368806 0.503552 0
M  V30 37 H 3.652218 -2.029896 1.714285 0
M  V30 38 H 5.398970 -0.412194 2.459095 0
M  V30 39 H 3.417364 3.749017 2.025650 0
M  V30 40 H 1.165789 3.359312 0.232096 0
M  V30 41 H 1.786545 5.617056 0.470633 0
M  V30 42 H 2.044685 5.453184 2.237774 0
M  V30 43 H 0.058734 6.787079 1.588675 0
M  V30 44 H -0.647981 5.298966 0.863495 0
M  V30 45 H -0.824682 3.649987 3.936899 0
M  V30 46 H 0.874889 4.131233 3.943313 0
M  V30 47 H -0.701546 3.195979 1.487313 0
M  V30 48 H 0.375466 2.126561 2.447353 0
M  V30 49 H 2.106067 -3.184934 1.074008 0
M  V30 50 H -2.918394 -2.777184 -1.013115 0
M  V30 51 H -3.562362 -3.314654 1.198124 0
M  V30 52 H -3.861076 -4.691704 0.141765 0
M  V30 53 H -2.892254 -5.741228 1.696542 0
M  V30 54 H -1.838580 -6.265985 -0.405892 0
M  V30 55 H -1.362381 -7.777159 -2.272913 0
M  V30 56 H -1.954737 -3.027232 -3.086370 0
M  V30 END ATOM
M  V30 BEGIN BOND
M  V30 1 1 1 2
M  V30 2 2 2 3
M  V30 3 1 3 4
M  V30 4 1 4 5
M  V30 5 2 5 6
M  V30 6 1 6 7
M  V30 7 2 7 8
M  V30 8 1 8 9
M  V30 9 1 9 10
M  V30 10 1 10 11
M  V30 11 1 11 12
M  V30 12 1 12 13
M  V30 13 1 13 14
M  V30 14 1 14 15
M  V30 15 1 15 16
M  V30 16 2 9 17
M  V30 17 2 4 18
M  V30 18 1 18 19
M  V30 19 2 19 20
M  V30 20 1 19 21
M  V30 21 1 21 22
M  V30 22 1 22 23
M  V30 23 1 23 24
M  V30 24 1 22 25
M  V30 25 2 25 26
M  V30 26 1 26 27
M  V30 27 2 27 28
M  V30 28 1 28 29
M  V30 29 1 28 30
M  V30 30 1 30 31
M  V30 31 2 30 32
M  V30 32 1 21 2
M  V30 33 1 32 25
M  V30 34 1 17 5
M  V30 35 1 16 11
M  V30 36 1 1 33
M  V30 37 1 1 34
M  V30 38 1 1 35
M  V30 39 1 3 36
M  V30 40 1 6 37
M  V30 41 1 7 38
M  V30 42 1 10 39
M  V30 43 1 11 40
M  V30 44 1 12 41
M  V30 45 1 12 42
M  V30 46 1 13 43
M  V30 47 1 13 44
M  V30 48 1 15 45
M  V30 49 1 15 46
M  V30 50 1 16 47
M  V30 51 1 16 48
M  V30 52 1 18 49
M  V30 53 1 22 50
M  V30 54 1 23 51
M  V30 55 1 23 52
M  V30 56 1 24 53
M  V30 57 1 26 54
M  V30 58 1 27 55
M  V30 59 1 32 56
M  V30 END BOND
M  V30 END CTAB
M  END
>  <Dataset>  (320) 
ChEMBL_Kinases

>  <Ligand_Instance>  (320) 
nan

>  <PDB_ID>  (320) 
nan

>  <Standardized_SMILES>  (320) 
Cc1cc(-c2ccnc(NC3CCOCC3)n2)cc(=O)n1C(CO)c1ccc(Cl)c(F)c1

>  <Name>  (320) 
nan

>  <Pocket>  (320) 
nan

>  <ATP_Site>  (320) 
nan

>  <Peripheral>  (320) 
nan

>  <Num_H_Atoms_ProtBoundConf>  (320) 
nan

>  <Num_Resolved_Atoms>  (320) 
nan

>  <Num_Not_Resolved_Atoms>  (320) 
nan

$$$$
CHEMBL3409594
     RDKit          3D

  0  0  0  0  0  0  0  0  0  0999 V3000
M  V30 BEGIN CTAB
M  V30 COUNTS 52 55 0 0 0
M  V30 BEGIN ATOM
M  V30 1 O -0.785116 -2.705201 0.918123 0
M  V30 2 C -1.297580 -1.648720 0.473848 0
M  V30 3 N -0.575734 -0.539985 0.254588 0
M  V30 4 C -1.086175 0.610232 -0.219800 0
M  V30 5 C -0.242707 1.771477 -0.431410 0
M  V30 6 C -0.698763 2.980261 -0.914576 0
M  V30 7 C 0.140103 4.041454 -1.093879 0
M  V30 8 N 1.436542 3.866155 -0.780699 0
M  V30 9 C 1.927953 2.714458 -0.309121 0
M  V30 10 N 3.310987 2.601087 0.000987 0
M  V30 11 C 3.797561 1.339469 0.508325 0
M  V30 12 C 3.125883 0.932272 1.808693 0
M  V30 13 C 3.184705 2.144008 2.714784 0
M  V30 14 O 4.453572 2.690686 2.684772 0
M  V30 15 C 5.447814 1.833838 2.269399 0
M  V30 16 C 5.280141 1.386390 0.813922 0
M  V30 17 N 1.066715 1.693401 -0.147293 0
M  V30 18 C -2.437479 0.611970 -0.485294 0
M  V30 19 C -3.209372 -0.534838 -0.263446 0
M  V30 20 N -2.638324 -1.655153 0.213079 0
M  V30 21 C -3.502255 -2.782542 0.411188 0
M  V30 22 C -4.384475 -3.092352 -0.784465 0
M  V30 23 O -5.194539 -4.209646 -0.499529 0
M  V30 24 C -2.801079 -3.997310 0.893978 0
M  V30 25 C -2.573088 -4.372220 2.204370 0
M  V30 26 C -1.898596 -5.544238 2.487210 0
M  V30 27 C -1.425410 -6.387094 1.504327 0
M  V30 28 Cl -0.573824 -7.866214 1.892072 0
M  V30 29 C -1.667882 -5.986913 0.194165 0
M  V30 30 F -1.179109 -6.856184 -0.749593 0
M  V30 31 C -2.340018 -4.819726 -0.129468 0
M  V30 32 H -1.726358 3.096329 -1.155408 0
M  V30 33 H -0.180511 5.009676 -1.471952 0
M  V30 34 H 3.939670 3.394884 -0.133615 0
M  V30 35 H 3.542611 0.561843 -0.240548 0
M  V30 36 H 3.712739 0.094417 2.222387 0
M  V30 37 H 2.092552 0.610354 1.704989 0
M  V30 38 H 2.818480 1.851038 3.700171 0
M  V30 39 H 2.502113 2.895157 2.283569 0
M  V30 40 H 5.558294 0.975810 2.959790 0
M  V30 41 H 6.395635 2.400126 2.301087 0
M  V30 42 H 5.647183 0.333015 0.784289 0
M  V30 43 H 5.869858 1.984384 0.121228 0
M  V30 44 H -2.923710 1.476036 -0.861760 0
M  V30 45 H -4.259323 -0.481097 -0.486687 0
M  V30 46 H -4.220837 -2.482478 1.227291 0
M  V30 47 H -3.796671 -3.253681 -1.710003 0
M  V30 48 H -5.095950 -2.269285 -0.991592 0
M  V30 49 H -6.045822 -4.136581 -0.965462 0
M  V30 50 H -2.960350 -3.683620 2.941230 0
M  V30 51 H -1.736291 -5.809341 3.518168 0
M  V30 52 H -2.429422 -4.682349 -1.202738 0
M  V30 END ATOM
M  V30 BEGIN BOND
M  V30 1 2 1 2
M  V30 2 1 2 3
M  V30 3 2 3 4
M  V30 4 1 4 5
M  V30 5 2 5 6
M  V30 6 1 6 7
M  V30 7 2 7 8
M  V30 8 1 8 9
M  V30 9 1 9 10
M  V30 10 1 10 11
M  V30 11 1 11 12
M  V30 12 1 12 13
M  V30 13 1 13 14
M  V30 14 1 14 15
M  V30 15 1 15 16
M  V30 16 2 9 17
M  V30 17 1 4 18
M  V30 18 2 18 19
M  V30 19 1 19 20
M  V30 20 1 20 21
M  V30 21 1 21 22
M  V30 22 1 22 23
M  V30 23 1 21 24
M  V30 24 2 24 25
M  V30 25 1 25 26
M  V30 26 2 26 27
M  V30 27 1 27 28
M  V30 28 1 27 29
M  V30 29 1 29 30
M  V30 30 2 29 31
M  V30 31 1 20 2
M  V30 32 1 31 24
M  V30 33 1 17 5
M  V30 34 1 16 11
M  V30 35 1 6 32
M  V30 36 1 7 33
M  V30 37 1 10 34
M  V30 38 1 11 35
M  V30 39 1 12 36
M  V30 40 1 12 37
M  V30 41 1 13 38
M  V30 42 1 13 39
M  V30 43 1 15 40
M  V30 44 1 15 41
M  V30 45 1 16 42
M  V30 46 1 16 43
M  V30 47 1 18 44
M  V30 48 1 19 45
M  V30 49 1 21 46
M  V30 50 1 22 47
M  V30 51 1 22 48
M  V30 52 1 23 49
M  V30 53 1 25 50
M  V30 54 1 26 51
M  V30 55 1 31 52
M  V30 END BOND
M  V30 END CTAB
M  END
>  <Dataset>  (321) 
ChEMBL_Kinases

>  <Ligand_Instance>  (321) 
nan

>  <PDB_ID>  (321) 
nan

>  <Standardized_SMILES>  (321) 
O=c1nc(-c2ccnc(NC3CCOCC3)n2)ccn1C(CO)c1ccc(Cl)c(F)c1

>  <Name>  (321) 
nan

>  <Pocket>  (321) 
nan

>  <ATP_Site>  (321) 
nan

>  <Peripheral>  (321) 
nan

>  <Num_H_Atoms_ProtBoundConf>  (321) 
nan

>  <Num_Resolved_Atoms>  (321) 
nan

>  <Num_Not_Resolved_Atoms>  (321) 
nan

$$$$
CHEMBL3409604
     RDKit          3D

  0  0  0  0  0  0  0  0  0  0999 V3000
M  V30 BEGIN CTAB
M  V30 COUNTS 49 52 0 0 0
M  V30 BEGIN ATOM
M  V30 1 O -1.142313 -3.642979 1.667954 0
M  V30 2 C -0.666097 -2.588050 1.214917 0
M  V30 3 C 0.595476 -2.176924 1.548002 0
M  V30 4 C 1.104114 -1.018578 1.043793 0
M  V30 5 C 2.433004 -0.495217 1.336573 0
M  V30 6 C 3.335778 -1.116773 2.164021 0
M  V30 7 C 4.594453 -0.630349 2.447310 0
M  V30 8 N 4.943075 0.543182 1.857535 0
M  V30 9 C 4.075823 1.186465 1.032934 0
M  V30 10 N 4.456209 2.414301 0.423348 0
M  V30 11 C 3.543381 3.121485 -0.464046 0
M  V30 12 C 2.263129 3.496952 0.252390 0
M  V30 13 C 2.369377 4.869717 -0.386837 0
M  V30 14 F 2.115912 5.903960 0.495274 0
M  V30 15 F 1.629353 4.975997 -1.545681 0
M  V30 16 C 3.839955 4.595706 -0.613556 0
M  V30 17 N 2.874517 0.660303 0.802380 0
M  V30 18 C 0.294074 -0.306302 0.201923 0
M  V30 19 C -0.994720 -0.716627 -0.144574 0
M  V30 20 N -1.459812 -1.870669 0.377496 0
M  V30 21 C -2.805816 -2.230869 -0.028356 0 CFG=2
M  V30 22 C -3.802734 -1.127372 0.220443 0
M  V30 23 O -5.064392 -1.571202 -0.202568 0
M  V30 24 C -3.250570 -3.527750 0.525537 0
M  V30 25 C -3.049812 -4.743584 -0.128648 0
M  V30 26 C -3.503651 -5.904955 0.472921 0
M  V30 27 C -4.146044 -5.860767 1.703187 0
M  V30 28 Cl -4.729422 -7.316117 2.484827 0
M  V30 29 C -4.349902 -4.661383 2.359569 0
M  V30 30 F -4.982389 -4.645158 3.564697 0
M  V30 31 C -3.899691 -3.498530 1.765224 0
M  V30 32 H 1.204799 -2.768057 2.216866 0
M  V30 33 H 3.066834 -2.048763 2.636177 0
M  V30 34 H 5.258094 -1.170767 3.109296 0
M  V30 35 H 5.384957 2.823993 0.599867 0
M  V30 36 H 3.337502 2.619942 -1.432566 0
M  V30 37 H 2.370810 3.542805 1.368457 0
M  V30 38 H 1.397585 2.909678 -0.081642 0
M  V30 39 H 4.458113 4.946289 0.236706 0
M  V30 40 H 4.219858 4.879709 -1.613879 0
M  V30 41 H 0.666609 0.626516 -0.221686 0
M  V30 42 H -1.550934 -0.065343 -0.826998 0
M  V30 43 H -2.771314 -2.380179 -1.133579 0
M  V30 44 H -3.546227 -0.291941 -0.468147 0
M  V30 45 H -3.788903 -0.737652 1.236511 0
M  V30 46 H -5.785700 -0.945168 0.023953 0
M  V30 47 H -2.541669 -4.735883 -1.092242 0
M  V30 48 H -3.348208 -6.850837 -0.034617 0
M  V30 49 H -4.059571 -2.579706 2.275132 0
M  V30 END ATOM
M  V30 BEGIN BOND
M  V30 1 2 1 2
M  V30 2 1 2 3
M  V30 3 2 3 4
M  V30 4 1 4 5
M  V30 5 2 5 6
M  V30 6 1 6 7
M  V30 7 2 7 8
M  V30 8 1 8 9
M  V30 9 1 9 10
M  V30 10 1 10 11
M  V30 11 1 11 12
M  V30 12 1 12 13
M  V30 13 1 13 14
M  V30 14 1 13 15
M  V30 15 1 13 16
M  V30 16 2 9 17
M  V30 17 1 4 18
M  V30 18 2 18 19
M  V30 19 1 19 20
M  V30 20 1 20 21
M  V30 21 1 21 22
M  V30 22 1 22 23
M  V30 23 1 21 24
M  V30 24 2 24 25
M  V30 25 1 25 26
M  V30 26 2 26 27
M  V30 27 1 27 28
M  V30 28 1 27 29
M  V30 29 1 29 30
M  V30 30 2 29 31
M  V30 31 1 20 2
M  V30 32 1 31 24
M  V30 33 1 17 5
M  V30 34 1 16 11
M  V30 35 1 3 32
M  V30 36 1 6 33
M  V30 37 1 7 34
M  V30 38 1 10 35
M  V30 39 1 11 36
M  V30 40 1 12 37
M  V30 41 1 12 38
M  V30 42 1 16 39
M  V30 43 1 16 40
M  V30 44 1 18 41
M  V30 45 1 19 42
M  V30 46 1 21 43 CFG=3
M  V30 47 1 22 44
M  V30 48 1 22 45
M  V30 49 1 23 46
M  V30 50 1 25 47
M  V30 51 1 26 48
M  V30 52 1 31 49
M  V30 END BOND
M  V30 END CTAB
M  END
>  <Dataset>  (322) 
ChEMBL_Kinases

>  <Ligand_Instance>  (322) 
nan

>  <PDB_ID>  (322) 
nan

>  <Standardized_SMILES>  (322) 
O=c1cc(-c2ccnc(NC3CC(F)(F)C3)n2)ccn1[C@H](CO)c1ccc(Cl)c(F)c1

>  <Name>  (322) 
nan

>  <Pocket>  (322) 
nan

>  <ATP_Site>  (322) 
nan

>  <Peripheral>  (322) 
nan

>  <Num_H_Atoms_ProtBoundConf>  (322) 
nan

>  <Num_Resolved_Atoms>  (322) 
nan

>  <Num_Not_Resolved_Atoms>  (322) 
nan

$$$$
CHEMBL3409596
     RDKit          3D

  0  0  0  0  0  0  0  0  0  0999 V3000
M  V30 BEGIN CTAB
M  V30 COUNTS 54 57 0 0 0
M  V30 BEGIN ATOM
M  V30 1 O -1.738242 -4.270249 0.654252 0
M  V30 2 C -1.639758 -3.058798 0.344124 0
M  V30 3 C -0.750056 -2.155703 0.885924 0
M  V30 4 C -0.692256 -0.834287 0.500767 0
M  V30 5 C 0.296306 0.024167 1.152156 0
M  V30 6 C 0.630370 -0.238162 2.466012 0
M  V30 7 C 1.570064 0.630081 2.981520 0
M  V30 8 N 2.173070 1.663672 2.369171 0
M  V30 9 C 1.836004 1.904652 1.090521 0
M  V30 10 N 2.418107 2.982845 0.338348 0
M  V30 11 C 3.396370 3.873215 0.927418 0
M  V30 12 C 2.800256 4.620950 2.065561 0
M  V30 13 C 3.820325 5.239319 2.987828 0
M  V30 14 O 5.106758 4.770485 2.747168 0
M  V30 15 C 4.999980 3.365278 2.692629 0
M  V30 16 C 4.581741 3.010500 1.301783 0
M  V30 17 C 0.896069 1.077720 0.492416 0
M  V30 18 C -1.580320 -0.431310 -0.474344 0
M  V30 19 C -2.454866 -1.365056 -0.991615 0
M  V30 20 N -2.505760 -2.670664 -0.605144 0
M  V30 21 C -3.517484 -3.436486 -1.309195 0
M  V30 22 C -4.873785 -3.125770 -0.733563 0
M  V30 23 O -4.989695 -3.426360 0.620076 0
M  V30 24 C -3.196534 -4.868096 -1.375147 0
M  V30 25 C -3.605821 -5.892021 -0.544117 0
M  V30 26 C -3.213666 -7.198753 -0.736731 0
M  V30 27 C -2.391285 -7.559950 -1.768513 0
M  V30 28 Cl -1.890062 -9.210021 -2.020087 0
M  V30 29 C -1.947375 -6.590608 -2.632567 0
M  V30 30 F -1.133788 -6.898022 -3.665980 0
M  V30 31 C -2.358388 -5.314960 -2.405834 0
M  V30 32 H -0.091703 -2.553770 1.641859 0
M  V30 33 H 0.221474 -1.031699 3.065258 0
M  V30 34 H 1.898010 0.498376 4.021859 0
M  V30 35 H 2.104334 3.098274 -0.656801 0
M  V30 36 H 3.679882 4.611670 0.128363 0
M  V30 37 H 2.044424 4.008533 2.565551 0
M  V30 38 H 2.244640 5.496797 1.617377 0
M  V30 39 H 3.856465 6.334496 2.957305 0
M  V30 40 H 3.552603 4.938615 4.024252 0
M  V30 41 H 4.294626 3.101892 3.488120 0
M  V30 42 H 5.960575 2.881204 2.958164 0
M  V30 43 H 4.404018 1.932760 1.151116 0
M  V30 44 H 5.425278 3.270727 0.631043 0
M  V30 45 H 0.609923 1.252606 -0.534866 0
M  V30 46 H -1.546669 0.587827 -0.781649 0
M  V30 47 H -3.115906 -0.940198 -1.758986 0
M  V30 48 H -3.580854 -3.095718 -2.388640 0
M  V30 49 H -5.030010 -2.029066 -0.883514 0
M  V30 50 H -5.658142 -3.632227 -1.331830 0
M  V30 51 H -5.603608 -2.760036 1.017719 0
M  V30 52 H -4.254902 -5.594774 0.267165 0
M  V30 53 H -3.585377 -7.955122 -0.028140 0
M  V30 54 H -1.984402 -4.562226 -3.116865 0
M  V30 END ATOM
M  V30 BEGIN BOND
M  V30 1 2 1 2
M  V30 2 1 2 3
M  V30 3 2 3 4
M  V30 4 1 4 5
M  V30 5 2 5 6
M  V30 6 1 6 7
M  V30 7 2 7 8
M  V30 8 1 8 9
M  V30 9 1 9 10
M  V30 10 1 10 11
M  V30 11 1 11 12
M  V30 12 1 12 13
M  V30 13 1 13 14
M  V30 14 1 14 15
M  V30 15 1 15 16
M  V30 16 2 9 17
M  V30 17 1 4 18
M  V30 18 2 18 19
M  V30 19 1 19 20
M  V30 20 1 20 21
M  V30 21 1 21 22
M  V30 22 1 22 23
M  V30 23 1 21 24
M  V30 24 2 24 25
M  V30 25 1 25 26
M  V30 26 2 26 27
M  V30 27 1 27 28
M  V30 28 1 27 29
M  V30 29 1 29 30
M  V30 30 2 29 31
M  V30 31 1 20 2
M  V30 32 1 31 24
M  V30 33 1 17 5
M  V30 34 1 16 11
M  V30 35 1 3 32
M  V30 36 1 6 33
M  V30 37 1 7 34
M  V30 38 1 10 35
M  V30 39 1 11 36
M  V30 40 1 12 37
M  V30 41 1 12 38
M  V30 42 1 13 39
M  V30 43 1 13 40
M  V30 44 1 15 41
M  V30 45 1 15 42
M  V30 46 1 16 43
M  V30 47 1 16 44
M  V30 48 1 17 45
M  V30 49 1 18 46
M  V30 50 1 19 47
M  V30 51 1 21 48
M  V30 52 1 22 49
M  V30 53 1 22 50
M  V30 54 1 23 51
M  V30 55 1 25 52
M  V30 56 1 26 53
M  V30 57 1 31 54
M  V30 END BOND
M  V30 END CTAB
M  END
>  <Dataset>  (323) 
ChEMBL_Kinases

>  <Ligand_Instance>  (323) 
nan

>  <PDB_ID>  (323) 
nan

>  <Standardized_SMILES>  (323) 
O=c1cc(-c2ccnc(NC3CCOCC3)c2)ccn1C(CO)c1ccc(Cl)c(F)c1

>  <Name>  (323) 
nan

>  <Pocket>  (323) 
nan

>  <ATP_Site>  (323) 
nan

>  <Peripheral>  (323) 
nan

>  <Num_H_Atoms_ProtBoundConf>  (323) 
nan

>  <Num_Resolved_Atoms>  (323) 
nan

>  <Num_Not_Resolved_Atoms>  (323) 
nan

$$$$
CHEMBL3409597
     RDKit          3D

  0  0  0  0  0  0  0  0  0  0999 V3000
M  V30 BEGIN CTAB
M  V30 COUNTS 53 56 0 0 0
M  V30 BEGIN ATOM
M  V30 1 O -3.202864 -1.846535 2.592598 0
M  V30 2 C -2.653370 -1.580319 1.474848 0
M  V30 3 C -1.460825 -0.892822 1.561378 0
M  V30 4 C -0.761525 -0.541406 0.427853 0
M  V30 5 C 0.499760 0.177805 0.340292 0
M  V30 6 C 1.102738 0.574218 1.506774 0
M  V30 7 C 2.300469 1.258278 1.450439 0
M  V30 8 N 3.075165 1.752963 2.547064 0
M  V30 9 C 4.342829 2.472559 2.492190 0
M  V30 10 C 5.449555 1.707938 1.862669 0
M  V30 11 C 5.914718 2.125199 0.519574 0
M  V30 12 O 5.442203 3.299624 0.013109 0
M  V30 13 C 5.239874 4.280643 0.978955 0
M  V30 14 C 4.192554 3.859488 1.982343 0
M  V30 15 N 2.865124 1.530211 0.262848 0
M  V30 16 C 2.256892 1.132411 -0.866346 0
M  V30 17 N 1.089557 0.464720 -0.834158 0
M  V30 18 C -1.355306 -0.934256 -0.772254 0
M  V30 19 C -2.550271 -1.621549 -0.822250 0
M  V30 20 N -3.197718 -1.943418 0.307120 0
M  V30 21 C -4.454973 -2.664281 0.306919 0
M  V30 22 C -5.383266 -2.125907 -0.763084 0
M  V30 23 O -5.573425 -0.766064 -0.424782 0
M  V30 24 C -4.216863 -4.124834 0.153273 0
M  V30 25 C -4.031350 -4.983018 1.230219 0
M  V30 26 C -3.812281 -6.341488 1.025802 0
M  V30 27 C -3.774456 -6.866510 -0.252118 0
M  V30 28 Cl -3.495215 -8.583655 -0.450765 0
M  V30 29 C -3.955625 -6.038422 -1.346607 0
M  V30 30 F -3.920233 -6.544209 -2.604548 0
M  V30 31 C -4.169333 -4.705634 -1.114844 0
M  V30 32 H -1.010515 -0.593821 2.496074 0
M  V30 33 H 0.748288 0.414264 2.498952 0
M  V30 34 H 2.577853 1.514336 3.459200 0
M  V30 35 H 4.624249 2.577895 3.589403 0
M  V30 36 H 6.359092 1.737961 2.540972 0
M  V30 37 H 5.113206 0.619067 1.869503 0
M  V30 38 H 5.600410 1.320101 -0.211113 0
M  V30 39 H 7.047540 2.117151 0.432605 0
M  V30 40 H 4.873276 5.187854 0.456050 0
M  V30 41 H 6.181362 4.567377 1.492696 0
M  V30 42 H 3.163778 3.983721 1.531316 0
M  V30 43 H 4.208056 4.597005 2.807267 0
M  V30 44 H 2.584544 1.274939 -1.906173 0
M  V30 45 H -0.865878 -0.694967 -1.718082 0
M  V30 46 H -2.951870 -1.894017 -1.787735 0
M  V30 47 H -4.977680 -2.526242 1.274901 0
M  V30 48 H -6.390863 -2.579259 -0.680406 0
M  V30 49 H -4.971997 -2.174215 -1.780393 0
M  V30 50 H -6.091607 -0.335189 -1.174589 0
M  V30 51 H -4.061691 -4.570644 2.217801 0
M  V30 52 H -3.670409 -6.992529 1.871869 0
M  V30 53 H -4.305615 -4.096502 -1.997025 0
M  V30 END ATOM
M  V30 BEGIN BOND
M  V30 1 2 1 2
M  V30 2 1 2 3
M  V30 3 2 3 4
M  V30 4 1 4 5
M  V30 5 2 5 6
M  V30 6 1 6 7
M  V30 7 1 7 8
M  V30 8 1 8 9
M  V30 9 1 9 10
M  V30 10 1 10 11
M  V30 11 1 11 12
M  V30 12 1 12 13
M  V30 13 1 13 14
M  V30 14 2 7 15
M  V30 15 1 15 16
M  V30 16 2 16 17
M  V30 17 1 4 18
M  V30 18 2 18 19
M  V30 19 1 19 20
M  V30 20 1 20 21
M  V30 21 1 21 22
M  V30 22 1 22 23
M  V30 23 1 21 24
M  V30 24 2 24 25
M  V30 25 1 25 26
M  V30 26 2 26 27
M  V30 27 1 27 28
M  V30 28 1 27 29
M  V30 29 1 29 30
M  V30 30 2 29 31
M  V30 31 1 20 2
M  V30 32 1 31 24
M  V30 33 1 17 5
M  V30 34 1 14 9
M  V30 35 1 3 32
M  V30 36 1 6 33
M  V30 37 1 8 34
M  V30 38 1 9 35
M  V30 39 1 10 36
M  V30 40 1 10 37
M  V30 41 1 11 38
M  V30 42 1 11 39
M  V30 43 1 13 40
M  V30 44 1 13 41
M  V30 45 1 14 42
M  V30 46 1 14 43
M  V30 47 1 16 44
M  V30 48 1 18 45
M  V30 49 1 19 46
M  V30 50 1 21 47
M  V30 51 1 22 48
M  V30 52 1 22 49
M  V30 53 1 23 50
M  V30 54 1 25 51
M  V30 55 1 26 52
M  V30 56 1 31 53
M  V30 END BOND
M  V30 END CTAB
M  END
>  <Dataset>  (324) 
ChEMBL_Kinases

>  <Ligand_Instance>  (324) 
nan

>  <PDB_ID>  (324) 
nan

>  <Standardized_SMILES>  (324) 
O=c1cc(-c2cc(NC3CCOCC3)ncn2)ccn1C(CO)c1ccc(Cl)c(F)c1

>  <Name>  (324) 
nan

>  <Pocket>  (324) 
nan

>  <ATP_Site>  (324) 
nan

>  <Peripheral>  (324) 
nan

>  <Num_H_Atoms_ProtBoundConf>  (324) 
nan

>  <Num_Resolved_Atoms>  (324) 
nan

>  <Num_Not_Resolved_Atoms>  (324) 
nan

$$$$
CHEMBL3409598
     RDKit          3D

  0  0  0  0  0  0  0  0  0  0999 V3000
M  V30 BEGIN CTAB
M  V30 COUNTS 56 59 0 0 0
M  V30 BEGIN ATOM
M  V30 1 C -1.615200 0.891164 4.079702 0
M  V30 2 C -0.285927 1.045775 3.464262 0
M  V30 3 C 0.666873 1.751217 4.182945 0
M  V30 4 N 1.919900 1.971558 3.748730 0
M  V30 5 C 2.273054 1.479716 2.546193 0
M  V30 6 N 3.579877 1.655836 1.988781 0
M  V30 7 C 3.938077 1.118551 0.693958 0
M  V30 8 C 5.381500 1.492201 0.428369 0
M  V30 9 C 5.663795 1.586711 -1.055975 0
M  V30 10 O 4.991305 2.668982 -1.591238 0
M  V30 11 C 3.838097 3.012665 -0.894723 0
M  V30 12 C 3.133612 1.748048 -0.422802 0
M  V30 13 N 1.365017 0.786294 1.820081 0
M  V30 14 C 0.103901 0.552895 2.234403 0
M  V30 15 C -0.880343 -0.184755 1.475034 0
M  V30 16 C -2.197149 0.174816 1.277358 0
M  V30 17 C -3.003707 -0.651205 0.520705 0
M  V30 18 N -2.602318 -1.820068 -0.062545 0
M  V30 19 C -3.646483 -2.493544 -0.801824 0
M  V30 20 C -3.887265 -1.801325 -2.120522 0
M  V30 21 O -4.272094 -0.486057 -1.878619 0
M  V30 22 C -3.338080 -3.925233 -0.965448 0
M  V30 23 C -2.743375 -4.553790 -2.040674 0
M  V30 24 C -2.515022 -5.909219 -2.055690 0
M  V30 25 C -2.868490 -6.731226 -0.989667 0
M  V30 26 Cl -2.601045 -8.442853 -0.962898 0
M  V30 27 C -3.465411 -6.144670 0.105410 0
M  V30 28 F -3.836067 -6.882099 1.178797 0
M  V30 29 C -3.680597 -4.780433 0.088513 0
M  V30 30 C -1.317787 -2.156303 0.139155 0
M  V30 31 O -0.984167 -3.234560 -0.410312 0
M  V30 32 C -0.471555 -1.366623 0.886271 0
M  V30 33 H -2.141436 -0.044691 3.808155 0
M  V30 34 H -1.466102 0.787833 5.195864 0
M  V30 35 H -2.238753 1.807122 3.992529 0
M  V30 36 H 0.462747 2.177523 5.154825 0
M  V30 37 H 4.267033 2.205405 2.586894 0
M  V30 38 H 3.780272 0.027032 0.628538 0
M  V30 39 H 6.017642 0.728081 0.911180 0
M  V30 40 H 5.571993 2.459360 0.941203 0
M  V30 41 H 6.770076 1.776608 -1.135540 0
M  V30 42 H 5.403068 0.629983 -1.510980 0
M  V30 43 H 3.998034 3.746049 -0.097198 0
M  V30 44 H 3.163429 3.514123 -1.644438 0
M  V30 45 H 2.083817 1.936481 -0.147308 0
M  V30 46 H 3.118120 1.061572 -1.300087 0
M  V30 47 H -2.525139 1.080321 1.723632 0
M  V30 48 H -4.018417 -0.272906 0.430752 0
M  V30 49 H -4.587376 -2.420585 -0.221437 0
M  V30 50 H -3.006702 -1.771044 -2.777035 0
M  V30 51 H -4.675016 -2.371423 -2.657418 0
M  V30 52 H -3.851963 0.141311 -2.537079 0
M  V30 53 H -2.477496 -3.894348 -2.857234 0
M  V30 54 H -2.047965 -6.368230 -2.912427 0
M  V30 55 H -4.152919 -4.362603 0.971475 0
M  V30 56 H 0.533632 -1.751307 0.970250 0
M  V30 END ATOM
M  V30 BEGIN BOND
M  V30 1 1 1 2
M  V30 2 2 2 3
M  V30 3 1 3 4
M  V30 4 2 4 5
M  V30 5 1 5 6
M  V30 6 1 6 7
M  V30 7 1 7 8
M  V30 8 1 8 9
M  V30 9 1 9 10
M  V30 10 1 10 11
M  V30 11 1 11 12
M  V30 12 1 5 13
M  V30 13 2 13 14
M  V30 14 1 14 15
M  V30 15 1 15 16
M  V30 16 2 16 17
M  V30 17 1 17 18
M  V30 18 1 18 19
M  V30 19 1 19 20
M  V30 20 1 20 21
M  V30 21 1 19 22
M  V30 22 2 22 23
M  V30 23 1 23 24
M  V30 24 2 24 25
M  V30 25 1 25 26
M  V30 26 1 25 27
M  V30 27 1 27 28
M  V30 28 2 27 29
M  V30 29 1 18 30
M  V30 30 2 30 31
M  V30 31 1 30 32
M  V30 32 1 14 2
M  V30 33 2 32 15
M  V30 34 1 12 7
M  V30 35 1 29 22
M  V30 36 1 1 33
M  V30 37 1 1 34
M  V30 38 1 1 35
M  V30 39 1 3 36
M  V30 40 1 6 37
M  V30 41 1 7 38
M  V30 42 1 8 39
M  V30 43 1 8 40
M  V30 44 1 9 41
M  V30 45 1 9 42
M  V30 46 1 11 43
M  V30 47 1 11 44
M  V30 48 1 12 45
M  V30 49 1 12 46
M  V30 50 1 16 47
M  V30 51 1 17 48
M  V30 52 1 19 49
M  V30 53 1 20 50
M  V30 54 1 20 51
M  V30 55 1 21 52
M  V30 56 1 23 53
M  V30 57 1 24 54
M  V30 58 1 29 55
M  V30 59 1 32 56
M  V30 END BOND
M  V30 END CTAB
M  END
>  <Dataset>  (325) 
ChEMBL_Kinases

>  <Ligand_Instance>  (325) 
nan

>  <PDB_ID>  (325) 
nan

>  <Standardized_SMILES>  (325) 
Cc1cnc(NC2CCOCC2)nc1-c1ccn(C(CO)c2ccc(Cl)c(F)c2)c(=O)c1

>  <Name>  (325) 
nan

>  <Pocket>  (325) 
nan

>  <ATP_Site>  (325) 
nan

>  <Peripheral>  (325) 
nan

>  <Num_H_Atoms_ProtBoundConf>  (325) 
nan

>  <Num_Resolved_Atoms>  (325) 
nan

>  <Num_Not_Resolved_Atoms>  (325) 
nan

$$$$
CHEMBL3409599
     RDKit          3D

  0  0  0  0  0  0  0  0  0  0999 V3000
M  V30 BEGIN CTAB
M  V30 COUNTS 53 56 0 0 0
M  V30 BEGIN ATOM
M  V30 1 O -3.063667 0.478062 0.071475 0
M  V30 2 C -2.292089 -0.487167 0.273856 0
M  V30 3 C -0.937625 -0.261514 0.298605 0
M  V30 4 C -0.120097 -1.347370 0.524223 0
M  V30 5 C 1.315036 -1.095607 0.548552 0
M  V30 6 N 1.681781 -0.023764 1.251898 0
M  V30 7 C 2.944343 0.408836 1.419257 0
M  V30 8 N 3.242456 1.566369 2.189191 0
M  V30 9 C 4.617900 1.965774 2.321417 0
M  V30 10 C 5.301674 2.280546 1.026154 0
M  V30 11 C 4.535116 3.468266 0.429769 0
M  V30 12 O 4.785856 4.555124 1.230300 0
M  V30 13 C 4.338798 4.447542 2.533223 0
M  V30 14 C 4.775251 3.172828 3.213719 0
M  V30 15 N 3.887183 -0.327946 0.810875 0
M  V30 16 C 3.607311 -1.416656 0.086776 0
M  V30 17 C 2.301117 -1.838095 -0.068311 0
M  V30 18 Cl 1.756930 -3.233568 -0.977344 0
M  V30 19 C -0.709664 -2.580387 0.709120 0
M  V30 20 C -2.102294 -2.720983 0.667899 0
M  V30 21 N -2.920427 -1.646426 0.444125 0
M  V30 22 C -4.277152 -2.081167 0.454921 0
M  V30 23 C -5.245991 -1.041020 -0.003696 0
M  V30 24 O -4.944071 -0.663557 -1.293678 0
M  V30 25 C -4.497679 -3.393894 -0.205399 0
M  V30 26 C -4.606096 -4.584716 0.521540 0
M  V30 27 C -4.808022 -5.833690 -0.022307 0
M  V30 28 C -4.913351 -5.930326 -1.392840 0
M  V30 29 Cl -5.169942 -7.523842 -2.070473 0
M  V30 30 C -4.815976 -4.796799 -2.171494 0
M  V30 31 F -4.924308 -4.932948 -3.508869 0
M  V30 32 C -4.613535 -3.583935 -1.549757 0
M  V30 33 H -0.596738 0.749538 0.140331 0
M  V30 34 H 2.456879 2.078823 2.626250 0
M  V30 35 H 5.160890 1.122458 2.801139 0
M  V30 36 H 6.296306 2.706803 1.290970 0
M  V30 37 H 5.390683 1.451212 0.326062 0
M  V30 38 H 4.861284 3.701384 -0.581882 0
M  V30 39 H 3.466859 3.180755 0.522829 0
M  V30 40 H 3.231286 4.586857 2.596082 0
M  V30 41 H 4.787131 5.292481 3.096576 0
M  V30 42 H 4.134539 3.023454 4.105059 0
M  V30 43 H 5.829231 3.245822 3.550666 0
M  V30 44 H 4.351354 -2.030165 -0.415512 0
M  V30 45 H 0.014118 -3.363875 0.878365 0
M  V30 46 H -2.334922 -3.762946 0.837468 0
M  V30 47 H -4.527838 -2.272324 1.551722 0
M  V30 48 H -5.157954 -0.152761 0.652107 0
M  V30 49 H -6.306215 -1.395535 0.088374 0
M  V30 50 H -5.646244 -0.177639 -1.776627 0
M  V30 51 H -4.527157 -4.545811 1.614474 0
M  V30 52 H -4.879497 -6.701234 0.618597 0
M  V30 53 H -4.546698 -2.749249 -2.218173 0
M  V30 END ATOM
M  V30 BEGIN BOND
M  V30 1 2 1 2
M  V30 2 1 2 3
M  V30 3 2 3 4
M  V30 4 1 4 5
M  V30 5 2 5 6
M  V30 6 1 6 7
M  V30 7 1 7 8
M  V30 8 1 8 9
M  V30 9 1 9 10
M  V30 10 1 10 11
M  V30 11 1 11 12
M  V30 12 1 12 13
M  V30 13 1 13 14
M  V30 14 2 7 15
M  V30 15 1 15 16
M  V30 16 2 16 17
M  V30 17 1 17 18
M  V30 18 1 4 19
M  V30 19 2 19 20
M  V30 20 1 20 21
M  V30 21 1 21 22
M  V30 22 1 22 23
M  V30 23 1 23 24
M  V30 24 1 22 25
M  V30 25 2 25 26
M  V30 26 1 26 27
M  V30 27 2 27 28
M  V30 28 1 28 29
M  V30 29 1 28 30
M  V30 30 1 30 31
M  V30 31 2 30 32
M  V30 32 1 21 2
M  V30 33 1 32 25
M  V30 34 1 17 5
M  V30 35 1 14 9
M  V30 36 1 3 33
M  V30 37 1 8 34
M  V30 38 1 9 35
M  V30 39 1 10 36
M  V30 40 1 10 37
M  V30 41 1 11 38
M  V30 42 1 11 39
M  V30 43 1 13 40
M  V30 44 1 13 41
M  V30 45 1 14 42
M  V30 46 1 14 43
M  V30 47 1 16 44
M  V30 48 1 19 45
M  V30 49 1 20 46
M  V30 50 1 22 47
M  V30 51 1 23 48
M  V30 52 1 23 49
M  V30 53 1 24 50
M  V30 54 1 26 51
M  V30 55 1 27 52
M  V30 56 1 32 53
M  V30 END BOND
M  V30 END CTAB
M  END
>  <Dataset>  (326) 
ChEMBL_Kinases

>  <Ligand_Instance>  (326) 
nan

>  <PDB_ID>  (326) 
nan

>  <Standardized_SMILES>  (326) 
O=c1cc(-c2nc(NC3CCOCC3)ncc2Cl)ccn1C(CO)c1ccc(Cl)c(F)c1

>  <Name>  (326) 
nan

>  <Pocket>  (326) 
nan

>  <ATP_Site>  (326) 
nan

>  <Peripheral>  (326) 
nan

>  <Num_H_Atoms_ProtBoundConf>  (326) 
nan

>  <Num_Resolved_Atoms>  (326) 
nan

>  <Num_Not_Resolved_Atoms>  (326) 
nan

$$$$
CHEMBL3409600
     RDKit          3D

  0  0  0  0  0  0  0  0  0  0999 V3000
M  V30 BEGIN CTAB
M  V30 COUNTS 53 56 0 0 0
M  V30 BEGIN ATOM
M  V30 1 O -3.245782 -0.642504 2.654968 0
M  V30 2 C -2.441222 -1.095065 1.780450 0
M  V30 3 C -1.070561 -0.920859 1.882246 0
M  V30 4 C -0.181611 -1.406860 0.939621 0
M  V30 5 C 1.247781 -1.193778 1.098688 0
M  V30 6 N 1.676154 0.031751 1.457291 0
M  V30 7 C 2.966896 0.365990 1.638873 0
M  V30 8 N 3.337353 1.705436 2.023846 0
M  V30 9 C 4.718265 2.036253 2.210943 0
M  V30 10 C 5.541602 1.827211 0.957324 0
M  V30 11 C 4.733862 2.401935 -0.195477 0
M  V30 12 O 3.840530 3.340590 0.283147 0
M  V30 13 C 4.394376 4.233582 1.195330 0
M  V30 14 C 4.792850 3.540669 2.496485 0
M  V30 15 N 3.903257 -0.558037 1.458370 0
M  V30 16 C 3.532949 -1.795259 1.100780 0
M  V30 17 C 2.216558 -2.164661 0.907957 0
M  V30 18 F 1.805765 -3.406727 0.546180 0
M  V30 19 C -0.712449 -2.091156 -0.138500 0
M  V30 20 C -2.082421 -2.248322 -0.211696 0
M  V30 21 N -2.927353 -1.765919 0.718717 0
M  V30 22 C -4.375675 -1.957335 0.598764 0
M  V30 23 C -4.986543 -0.653450 0.141313 0
M  V30 24 O -4.412409 -0.326600 -1.080830 0
M  V30 25 C -4.758485 -3.070644 -0.252118 0
M  V30 26 C -4.777741 -4.299904 0.428328 0
M  V30 27 C -5.109777 -5.506675 -0.151620 0
M  V30 28 C -5.450432 -5.542936 -1.486908 0
M  V30 29 Cl -5.897953 -6.956093 -2.399995 0
M  V30 30 C -5.443549 -4.359774 -2.188195 0
M  V30 31 F -5.763841 -4.277099 -3.515579 0
M  V30 32 C -5.108301 -3.182958 -1.576934 0
M  V30 33 H -0.718058 -0.377071 2.748679 0
M  V30 34 H 2.552998 2.410213 2.156526 0
M  V30 35 H 5.149226 1.467278 3.049295 0
M  V30 36 H 6.465728 2.435191 1.069498 0
M  V30 37 H 5.809733 0.780436 0.781263 0
M  V30 38 H 5.367392 2.748713 -1.017519 0
M  V30 39 H 4.115816 1.544833 -0.590900 0
M  V30 40 H 3.595735 4.972694 1.419187 0
M  V30 41 H 5.241413 4.801270 0.762676 0
M  V30 42 H 5.868077 3.759276 2.666447 0
M  V30 43 H 4.150261 3.801792 3.342066 0
M  V30 44 H 4.280802 -2.588057 0.941943 0
M  V30 45 H -0.007467 -2.458694 -0.855920 0
M  V30 46 H -2.460129 -2.787877 -1.067487 0
M  V30 47 H -4.737713 -2.090341 1.651371 0
M  V30 48 H -6.084398 -0.689635 0.108970 0
M  V30 49 H -4.665476 0.176209 0.834152 0
M  V30 50 H -3.551241 0.112638 -1.006145 0
M  V30 51 H -4.527710 -4.414112 1.495105 0
M  V30 52 H -5.124655 -6.437292 0.362335 0
M  V30 53 H -5.096360 -2.242248 -2.105704 0
M  V30 END ATOM
M  V30 BEGIN BOND
M  V30 1 2 1 2
M  V30 2 1 2 3
M  V30 3 2 3 4
M  V30 4 1 4 5
M  V30 5 2 5 6
M  V30 6 1 6 7
M  V30 7 1 7 8
M  V30 8 1 8 9
M  V30 9 1 9 10
M  V30 10 1 10 11
M  V30 11 1 11 12
M  V30 12 1 12 13
M  V30 13 1 13 14
M  V30 14 2 7 15
M  V30 15 1 15 16
M  V30 16 2 16 17
M  V30 17 1 17 18
M  V30 18 1 4 19
M  V30 19 2 19 20
M  V30 20 1 20 21
M  V30 21 1 21 22
M  V30 22 1 22 23
M  V30 23 1 23 24
M  V30 24 1 22 25
M  V30 25 2 25 26
M  V30 26 1 26 27
M  V30 27 2 27 28
M  V30 28 1 28 29
M  V30 29 1 28 30
M  V30 30 1 30 31
M  V30 31 2 30 32
M  V30 32 1 21 2
M  V30 33 1 32 25
M  V30 34 1 17 5
M  V30 35 1 14 9
M  V30 36 1 3 33
M  V30 37 1 8 34
M  V30 38 1 9 35
M  V30 39 1 10 36
M  V30 40 1 10 37
M  V30 41 1 11 38
M  V30 42 1 11 39
M  V30 43 1 13 40
M  V30 44 1 13 41
M  V30 45 1 14 42
M  V30 46 1 14 43
M  V30 47 1 16 44
M  V30 48 1 19 45
M  V30 49 1 20 46
M  V30 50 1 22 47
M  V30 51 1 23 48
M  V30 52 1 23 49
M  V30 53 1 24 50
M  V30 54 1 26 51
M  V30 55 1 27 52
M  V30 56 1 32 53
M  V30 END BOND
M  V30 END CTAB
M  END
>  <Dataset>  (327) 
ChEMBL_Kinases

>  <Ligand_Instance>  (327) 
nan

>  <PDB_ID>  (327) 
nan

>  <Standardized_SMILES>  (327) 
O=c1cc(-c2nc(NC3CCOCC3)ncc2F)ccn1C(CO)c1ccc(Cl)c(F)c1

>  <Name>  (327) 
nan

>  <Pocket>  (327) 
nan

>  <ATP_Site>  (327) 
nan

>  <Peripheral>  (327) 
nan

>  <Num_H_Atoms_ProtBoundConf>  (327) 
nan

>  <Num_Resolved_Atoms>  (327) 
nan

>  <Num_Not_Resolved_Atoms>  (327) 
nan

$$$$
CHEMBL3409601
     RDKit          3D

  0  0  0  0  0  0  0  0  0  0999 V3000
M  V30 BEGIN CTAB
M  V30 COUNTS 50 53 0 0 0
M  V30 BEGIN ATOM
M  V30 1 O -1.703652 -0.998194 1.776247 0
M  V30 2 C -1.219969 -0.764178 0.648562 0
M  V30 3 C -0.078158 -0.001672 0.528883 0
M  V30 4 C 0.497884 0.287569 -0.685818 0
M  V30 5 C 1.704939 1.098278 -0.744596 0
M  V30 6 C 2.294803 1.401234 -1.952185 0
M  V30 7 C 3.423925 2.163351 -1.992639 0
M  V30 8 N 3.946295 2.608907 -0.852063 0
M  V30 9 C 3.393232 2.331591 0.365014 0
M  V30 10 N 3.997154 2.838177 1.540048 0
M  V30 11 C 3.573347 2.653107 2.887093 0 CFG=2
M  V30 12 C 3.600185 1.170183 3.215876 0
M  V30 13 C 2.352605 1.012280 4.051027 0
M  V30 14 O 1.930013 2.297113 4.359191 0
M  V30 15 C 2.111484 2.982176 3.136265 0
M  V30 16 N 2.282192 1.578462 0.364837 0
M  V30 17 C -0.127993 -0.225757 -1.774150 0
M  V30 18 C -1.266393 -0.982697 -1.615366 0
M  V30 19 N -1.839276 -1.270876 -0.413271 0
M  V30 20 C -3.037625 -2.080215 -0.393401 0 CFG=2
M  V30 21 C -4.081578 -1.638031 0.572719 0
M  V30 22 O -4.476878 -0.342234 0.257422 0
M  V30 23 C -2.661298 -3.502637 -0.213691 0
M  V30 24 C -2.530634 -4.134113 1.006291 0
M  V30 25 C -2.177033 -5.464239 1.131309 0
M  V30 26 C -1.936332 -6.224729 0.000907 0
M  V30 27 Cl -1.480765 -7.921162 0.020004 0
M  V30 28 C -2.049086 -5.655637 -1.254743 0
M  V30 29 F -1.836832 -6.303608 -2.440972 0
M  V30 30 C -2.405480 -4.323389 -1.310553 0
M  V30 31 H 0.352730 0.365673 1.435910 0
M  V30 32 H 1.915683 1.067627 -2.907152 0
M  V30 33 H 3.936058 2.436441 -2.916422 0
M  V30 34 H 4.873320 3.430685 1.430376 0
M  V30 35 H 4.157440 3.198384 3.629150 0
M  V30 36 H 3.603750 0.562033 2.306234 0
M  V30 37 H 4.512249 0.962383 3.827608 0
M  V30 38 H 2.548091 0.409431 4.963940 0
M  V30 39 H 1.515643 0.535428 3.514059 0
M  V30 40 H 1.447424 2.523341 2.383536 0
M  V30 41 H 1.926935 4.048491 3.285288 0
M  V30 42 H 0.243378 -0.056547 -2.766205 0
M  V30 43 H -1.753252 -1.386382 -2.514378 0
M  V30 44 H -3.515843 -2.030395 -1.413092 0
M  V30 45 H -3.881750 -1.819792 1.628671 0
M  V30 46 H -4.989972 -2.270146 0.340343 0
M  V30 47 H -4.890583 0.127924 1.027505 0
M  V30 48 H -2.716146 -3.551575 1.903210 0
M  V30 49 H -2.076791 -5.950348 2.081250 0
M  V30 50 H -2.505916 -3.833154 -2.288812 0
M  V30 END ATOM
M  V30 BEGIN BOND
M  V30 1 2 1 2
M  V30 2 1 2 3
M  V30 3 2 3 4
M  V30 4 1 4 5
M  V30 5 2 5 6
M  V30 6 1 6 7
M  V30 7 2 7 8
M  V30 8 1 8 9
M  V30 9 1 9 10
M  V30 10 1 10 11
M  V30 11 1 11 12
M  V30 12 1 12 13
M  V30 13 1 13 14
M  V30 14 1 14 15
M  V30 15 2 9 16
M  V30 16 1 4 17
M  V30 17 2 17 18
M  V30 18 1 18 19
M  V30 19 1 19 20
M  V30 20 1 20 21
M  V30 21 1 21 22
M  V30 22 1 20 23
M  V30 23 2 23 24
M  V30 24 1 24 25
M  V30 25 2 25 26
M  V30 26 1 26 27
M  V30 27 1 26 28
M  V30 28 1 28 29
M  V30 29 2 28 30
M  V30 30 1 19 2
M  V30 31 1 30 23
M  V30 32 1 16 5
M  V30 33 1 15 11
M  V30 34 1 3 31
M  V30 35 1 6 32
M  V30 36 1 7 33
M  V30 37 1 10 34
M  V30 38 1 11 35 CFG=1
M  V30 39 1 12 36
M  V30 40 1 12 37
M  V30 41 1 13 38
M  V30 42 1 13 39
M  V30 43 1 15 40
M  V30 44 1 15 41
M  V30 45 1 17 42
M  V30 46 1 18 43
M  V30 47 1 20 44 CFG=3
M  V30 48 1 21 45
M  V30 49 1 21 46
M  V30 50 1 22 47
M  V30 51 1 24 48
M  V30 52 1 25 49
M  V30 53 1 30 50
M  V30 END BOND
M  V30 END CTAB
M  END
>  <Dataset>  (328) 
ChEMBL_Kinases

>  <Ligand_Instance>  (328) 
nan

>  <PDB_ID>  (328) 
nan

>  <Standardized_SMILES>  (328) 
O=c1cc(-c2ccnc(N[C@@H]3CCOC3)n2)ccn1[C@H](CO)c1ccc(Cl)c(F)c1

>  <Name>  (328) 
nan

>  <Pocket>  (328) 
nan

>  <ATP_Site>  (328) 
nan

>  <Peripheral>  (328) 
nan

>  <Num_H_Atoms_ProtBoundConf>  (328) 
nan

>  <Num_Resolved_Atoms>  (328) 
nan

>  <Num_Not_Resolved_Atoms>  (328) 
nan

$$$$
CHEMBL3409602
     RDKit          3D

  0  0  0  0  0  0  0  0  0  0999 V3000
M  V30 BEGIN CTAB
M  V30 COUNTS 50 53 0 0 0
M  V30 BEGIN ATOM
M  V30 1 O -1.844731 -0.573891 1.524658 0
M  V30 2 C -1.109536 -0.696039 0.515286 0
M  V30 3 C 0.091076 -0.028520 0.421080 0
M  V30 4 C 0.904904 -0.153362 -0.677718 0
M  V30 5 C 2.162424 0.579329 -0.716177 0
M  V30 6 C 3.034591 0.508918 -1.780310 0
M  V30 7 C 4.180041 1.245859 -1.690687 0
M  V30 8 N 4.445796 1.996543 -0.630449 0
M  V30 9 C 3.587014 2.071363 0.427180 0
M  V30 10 N 3.885394 2.882399 1.552624 0
M  V30 11 C 3.081998 3.045153 2.719790 0 CFG=1
M  V30 12 C 1.674069 3.573480 2.421157 0
M  V30 13 C 0.990786 3.175061 3.731077 0
M  V30 14 O 1.575834 2.004374 4.149963 0
M  V30 15 C 2.728582 1.768556 3.438743 0
M  V30 16 N 2.464496 1.350078 0.340962 0
M  V30 17 C 0.446141 -0.985175 -1.675651 0
M  V30 18 C -0.751201 -1.622644 -1.531093 0
M  V30 19 N -1.566038 -1.503588 -0.441561 0
M  V30 20 C -2.793559 -2.260159 -0.478213 0 CFG=2
M  V30 21 C -3.882769 -1.736337 0.396205 0
M  V30 22 O -4.196037 -0.438106 0.008986 0
M  V30 23 C -2.506073 -3.697033 -0.232319 0
M  V30 24 C -2.498306 -4.161371 1.087166 0
M  V30 25 C -2.242345 -5.475020 1.401386 0
M  V30 26 C -1.979370 -6.399992 0.413713 0
M  V30 27 Cl -1.652622 -8.074416 0.806851 0
M  V30 28 C -1.982616 -5.959818 -0.897251 0
M  V30 29 F -1.724949 -6.865276 -1.867503 0
M  V30 30 C -2.242684 -4.637304 -1.178996 0
M  V30 31 H 0.374012 0.612913 1.266837 0
M  V30 32 H 2.819287 -0.094125 -2.630062 0
M  V30 33 H 4.887140 1.213516 -2.509021 0
M  V30 34 H 4.799959 3.426622 1.528951 0
M  V30 35 H 3.526748 3.743894 3.459567 0
M  V30 36 H 1.182116 2.952213 1.643015 0
M  V30 37 H 1.652725 4.646261 2.235904 0
M  V30 38 H -0.091244 3.114788 3.553566 0
M  V30 39 H 1.213522 4.002101 4.456834 0
M  V30 40 H 2.483169 1.005776 2.675476 0
M  V30 41 H 3.563116 1.397394 4.067924 0
M  V30 42 H 1.058637 -1.109988 -2.557925 0
M  V30 43 H -1.038754 -2.254405 -2.355149 0
M  V30 44 H -3.166975 -2.217554 -1.542182 0
M  V30 45 H -3.759145 -1.882391 1.469553 0
M  V30 46 H -4.804701 -2.337699 0.128175 0
M  V30 47 H -4.923131 -0.060304 0.569974 0
M  V30 48 H -2.686151 -3.549552 1.944775 0
M  V30 49 H -2.230155 -5.859786 2.410471 0
M  V30 50 H -2.238963 -4.324172 -2.206314 0
M  V30 END ATOM
M  V30 BEGIN BOND
M  V30 1 2 1 2
M  V30 2 1 2 3
M  V30 3 2 3 4
M  V30 4 1 4 5
M  V30 5 2 5 6
M  V30 6 1 6 7
M  V30 7 2 7 8
M  V30 8 1 8 9
M  V30 9 1 9 10
M  V30 10 1 10 11
M  V30 11 1 11 12
M  V30 12 1 12 13
M  V30 13 1 13 14
M  V30 14 1 14 15
M  V30 15 2 9 16
M  V30 16 1 4 17
M  V30 17 2 17 18
M  V30 18 1 18 19
M  V30 19 1 19 20
M  V30 20 1 20 21
M  V30 21 1 21 22
M  V30 22 1 20 23
M  V30 23 2 23 24
M  V30 24 1 24 25
M  V30 25 2 25 26
M  V30 26 1 26 27
M  V30 27 1 26 28
M  V30 28 1 28 29
M  V30 29 2 28 30
M  V30 30 1 19 2
M  V30 31 1 30 23
M  V30 32 1 16 5
M  V30 33 1 15 11
M  V30 34 1 3 31
M  V30 35 1 6 32
M  V30 36 1 7 33
M  V30 37 1 10 34
M  V30 38 1 11 35 CFG=1
M  V30 39 1 12 36
M  V30 40 1 12 37
M  V30 41 1 13 38
M  V30 42 1 13 39
M  V30 43 1 15 40
M  V30 44 1 15 41
M  V30 45 1 17 42
M  V30 46 1 18 43
M  V30 47 1 20 44 CFG=3
M  V30 48 1 21 45
M  V30 49 1 21 46
M  V30 50 1 22 47
M  V30 51 1 24 48
M  V30 52 1 25 49
M  V30 53 1 30 50
M  V30 END BOND
M  V30 END CTAB
M  END
>  <Dataset>  (329) 
ChEMBL_Kinases

>  <Ligand_Instance>  (329) 
nan

>  <PDB_ID>  (329) 
nan

>  <Standardized_SMILES>  (329) 
O=c1cc(-c2ccnc(N[C@H]3CCOC3)n2)ccn1[C@H](CO)c1ccc(Cl)c(F)c1

>  <Name>  (329) 
nan

>  <Pocket>  (329) 
nan

>  <ATP_Site>  (329) 
nan

>  <Peripheral>  (329) 
nan

>  <Num_H_Atoms_ProtBoundConf>  (329) 
nan

>  <Num_Resolved_Atoms>  (329) 
nan

>  <Num_Not_Resolved_Atoms>  (329) 
nan

$$$$
CHEMBL3409603
     RDKit          3D

  0  0  0  0  0  0  0  0  0  0999 V3000
M  V30 BEGIN CTAB
M  V30 COUNTS 47 50 0 0 0
M  V30 BEGIN ATOM
M  V30 1 O -0.494911 -3.372985 1.762571 0
M  V30 2 C -0.186653 -2.218789 1.385977 0
M  V30 3 C 0.924594 -1.920835 0.628325 0
M  V30 4 C 1.220043 -0.632707 0.238980 0
M  V30 5 C 2.383972 -0.274094 -0.562178 0
M  V30 6 C 3.292546 -1.210648 -0.999537 0
M  V30 7 C 4.359079 -0.769031 -1.751805 0
M  V30 8 N 4.481387 0.527521 -2.031195 0
M  V30 9 C 3.601790 1.482942 -1.615313 0
M  V30 10 N 3.772136 2.858900 -1.934836 0
M  V30 11 C 2.909552 3.928680 -1.551370 0
M  V30 12 C 2.715932 4.114137 -0.063679 0
M  V30 13 O 1.366637 3.910192 -0.237037 0
M  V30 14 C 1.443249 3.625650 -1.614281 0
M  V30 15 N 2.598769 1.009220 -0.898797 0
M  V30 16 C 0.336704 0.342777 0.652787 0
M  V30 17 C -0.773420 0.011775 1.414855 0
M  V30 18 N -1.043513 -1.273814 1.787630 0
M  V30 19 C -2.251648 -1.362305 2.573969 0 CFG=2
M  V30 20 C -2.011891 -0.888710 3.988614 0
M  V30 21 O -1.587119 0.446626 3.949276 0
M  V30 22 C -2.746979 -2.742184 2.587862 0
M  V30 23 C -3.536725 -3.077062 1.482253 0
M  V30 24 C -4.108504 -4.317098 1.296072 0
M  V30 25 C -3.902860 -5.294689 2.239635 0
M  V30 26 Cl -4.585033 -6.897278 2.093318 0
M  V30 27 C -3.129740 -4.991483 3.337147 0
M  V30 28 F -2.897524 -5.909752 4.288336 0
M  V30 29 C -2.559610 -3.755003 3.522768 0
M  V30 30 H 1.572481 -2.734178 0.340023 0
M  V30 31 H 3.191173 -2.260816 -0.771751 0
M  V30 32 H 5.109222 -1.465452 -2.124805 0
M  V30 33 H 4.639003 3.073361 -2.517570 0
M  V30 34 H 3.176711 4.869192 -2.084137 0
M  V30 35 H 2.939125 5.144901 0.262487 0
M  V30 36 H 3.269454 3.313623 0.464213 0
M  V30 37 H 0.845452 4.347535 -2.233862 0
M  V30 38 H 1.169288 2.606936 -1.892545 0
M  V30 39 H 0.563595 1.354691 0.350059 0
M  V30 40 H -1.382486 0.884961 1.667957 0
M  V30 41 H -3.049506 -0.673445 2.169971 0
M  V30 42 H -2.977884 -0.910654 4.533941 0
M  V30 43 H -1.301100 -1.520955 4.557205 0
M  V30 44 H -2.350070 1.066227 3.944992 0
M  V30 45 H -3.760462 -2.378273 0.680311 0
M  V30 46 H -4.710721 -4.570896 0.452020 0
M  V30 47 H -1.943451 -3.440980 4.352739 0
M  V30 END ATOM
M  V30 BEGIN BOND
M  V30 1 2 1 2
M  V30 2 1 2 3
M  V30 3 2 3 4
M  V30 4 1 4 5
M  V30 5 2 5 6
M  V30 6 1 6 7
M  V30 7 2 7 8
M  V30 8 1 8 9
M  V30 9 1 9 10
M  V30 10 1 10 11
M  V30 11 1 11 12
M  V30 12 1 12 13
M  V30 13 1 13 14
M  V30 14 2 9 15
M  V30 15 1 4 16
M  V30 16 2 16 17
M  V30 17 1 17 18
M  V30 18 1 18 19
M  V30 19 1 19 20
M  V30 20 1 20 21
M  V30 21 1 19 22
M  V30 22 2 22 23
M  V30 23 1 23 24
M  V30 24 2 24 25
M  V30 25 1 25 26
M  V30 26 1 25 27
M  V30 27 1 27 28
M  V30 28 2 27 29
M  V30 29 1 18 2
M  V30 30 1 29 22
M  V30 31 1 15 5
M  V30 32 1 14 11
M  V30 33 1 3 30
M  V30 34 1 6 31
M  V30 35 1 7 32
M  V30 36 1 10 33
M  V30 37 1 11 34
M  V30 38 1 12 35
M  V30 39 1 12 36
M  V30 40 1 14 37
M  V30 41 1 14 38
M  V30 42 1 16 39
M  V30 43 1 17 40
M  V30 44 1 19 41 CFG=3
M  V30 45 1 20 42
M  V30 46 1 20 43
M  V30 47 1 21 44
M  V30 48 1 23 45
M  V30 49 1 24 46
M  V30 50 1 29 47
M  V30 END BOND
M  V30 END CTAB
M  END
>  <Dataset>  (330) 
ChEMBL_Kinases

>  <Ligand_Instance>  (330) 
nan

>  <PDB_ID>  (330) 
nan

>  <Standardized_SMILES>  (330) 
O=c1cc(-c2ccnc(NC3COC3)n2)ccn1[C@H](CO)c1ccc(Cl)c(F)c1

>  <Name>  (330) 
nan

>  <Pocket>  (330) 
nan

>  <ATP_Site>  (330) 
nan

>  <Peripheral>  (330) 
nan

>  <Num_H_Atoms_ProtBoundConf>  (330) 
nan

>  <Num_Resolved_Atoms>  (330) 
nan

>  <Num_Not_Resolved_Atoms>  (330) 
nan

$$$$
CHEMBL3409595
     RDKit          3D

  0  0  0  0  0  0  0  0  0  0999 V3000
M  V30 BEGIN CTAB
M  V30 COUNTS 52 55 0 0 0
M  V30 BEGIN ATOM
M  V30 1 O -4.744377 -1.155356 0.887999 0
M  V30 2 C -3.530900 -1.296369 0.632745 0
M  V30 3 C -2.696569 -0.281076 1.107963 0
M  V30 4 C -1.337170 -0.338941 0.880575 0
M  V30 5 C -0.373225 0.658788 1.327051 0
M  V30 6 C -0.755791 1.777479 2.035961 0
M  V30 7 C 0.223783 2.666022 2.416306 0
M  V30 8 N 1.517771 2.470793 2.117872 0
M  V30 9 C 1.883868 1.381022 1.428225 0
M  V30 10 N 3.244668 1.139907 1.093441 0
M  V30 11 C 4.294082 2.059192 1.483763 0
M  V30 12 C 4.083524 3.449813 0.919458 0
M  V30 13 C 4.719241 4.412301 1.901426 0
M  V30 14 O 5.878372 3.850321 2.419388 0
M  V30 15 C 5.626221 2.835052 3.346948 0
M  V30 16 C 4.298082 2.151934 2.994385 0
M  V30 17 N 0.934600 0.506250 1.051624 0
M  V30 18 C -0.898576 -1.441026 0.173358 0
M  V30 19 N -1.724859 -2.408652 -0.275117 0
M  V30 20 N -3.049119 -2.356948 -0.056337 0
M  V30 21 C -3.952979 -3.389608 -0.531814 0
M  V30 22 C -4.655982 -4.122262 0.588592 0
M  V30 23 O -5.489506 -5.082816 -0.024358 0
M  V30 24 C -3.137510 -4.330157 -1.361570 0
M  V30 25 C -2.505473 -5.426290 -0.840227 0
M  V30 26 C -1.767283 -6.257537 -1.655404 0
M  V30 27 C -1.622022 -6.045337 -3.007676 0
M  V30 28 Cl -0.675234 -7.122222 -4.019128 0
M  V30 29 C -2.257105 -4.936972 -3.553550 0
M  V30 30 F -2.114068 -4.729797 -4.879469 0
M  V30 31 C -2.989032 -4.117791 -2.729393 0
M  V30 32 H -3.091068 0.548695 1.649592 0
M  V30 33 H -1.787074 1.964984 2.292479 0
M  V30 34 H 0.024891 3.569557 2.973204 0
M  V30 35 H 3.493368 0.278405 0.552627 0
M  V30 36 H 5.274772 1.680742 1.115195 0
M  V30 37 H 3.033441 3.728090 0.783984 0
M  V30 38 H 4.601247 3.594107 -0.050738 0
M  V30 39 H 4.005801 4.760225 2.683269 0
M  V30 40 H 5.045816 5.330801 1.356326 0
M  V30 41 H 5.568479 3.300276 4.337710 0
M  V30 42 H 6.455828 2.096031 3.233536 0
M  V30 43 H 3.511186 2.828512 3.350930 0
M  V30 44 H 4.229518 1.161052 3.479144 0
M  V30 45 H 0.152886 -1.581196 -0.058345 0
M  V30 46 H -4.714112 -2.985595 -1.230723 0
M  V30 47 H -3.964457 -4.605662 1.282259 0
M  V30 48 H -5.354805 -3.404800 1.063466 0
M  V30 49 H -6.228722 -4.642840 -0.499539 0
M  V30 50 H -2.578809 -5.648857 0.208676 0
M  V30 51 H -1.280277 -7.116098 -1.209420 0
M  V30 52 H -3.460998 -3.272690 -3.202981 0
M  V30 END ATOM
M  V30 BEGIN BOND
M  V30 1 2 1 2
M  V30 2 1 2 3
M  V30 3 2 3 4
M  V30 4 1 4 5
M  V30 5 2 5 6
M  V30 6 1 6 7
M  V30 7 2 7 8
M  V30 8 1 8 9
M  V30 9 1 9 10
M  V30 10 1 10 11
M  V30 11 1 11 12
M  V30 12 1 12 13
M  V30 13 1 13 14
M  V30 14 1 14 15
M  V30 15 1 15 16
M  V30 16 2 9 17
M  V30 17 1 4 18
M  V30 18 2 18 19
M  V30 19 1 19 20
M  V30 20 1 20 21
M  V30 21 1 21 22
M  V30 22 1 22 23
M  V30 23 1 21 24
M  V30 24 2 24 25
M  V30 25 1 25 26
M  V30 26 2 26 27
M  V30 27 1 27 28
M  V30 28 1 27 29
M  V30 29 1 29 30
M  V30 30 2 29 31
M  V30 31 1 20 2
M  V30 32 1 31 24
M  V30 33 1 17 5
M  V30 34 1 16 11
M  V30 35 1 3 32
M  V30 36 1 6 33
M  V30 37 1 7 34
M  V30 38 1 10 35
M  V30 39 1 11 36
M  V30 40 1 12 37
M  V30 41 1 12 38
M  V30 42 1 13 39
M  V30 43 1 13 40
M  V30 44 1 15 41
M  V30 45 1 15 42
M  V30 46 1 16 43
M  V30 47 1 16 44
M  V30 48 1 18 45
M  V30 49 1 21 46
M  V30 50 1 22 47
M  V30 51 1 22 48
M  V30 52 1 23 49
M  V30 53 1 25 50
M  V30 54 1 26 51
M  V30 55 1 31 52
M  V30 END BOND
M  V30 END CTAB
M  END
>  <Dataset>  (331) 
ChEMBL_Kinases

>  <Ligand_Instance>  (331) 
nan

>  <PDB_ID>  (331) 
nan

>  <Standardized_SMILES>  (331) 
O=c1cc(-c2ccnc(NC3CCOCC3)n2)cnn1C(CO)c1ccc(Cl)c(F)c1

>  <Name>  (331) 
nan

>  <Pocket>  (331) 
nan

>  <ATP_Site>  (331) 
nan

>  <Peripheral>  (331) 
nan

>  <Num_H_Atoms_ProtBoundConf>  (331) 
nan

>  <Num_Resolved_Atoms>  (331) 
nan

>  <Num_Not_Resolved_Atoms>  (331) 
nan

$$$$
CHEMBL3410090
     RDKit          3D

  0  0  0  0  0  0  0  0  0  0999 V3000
M  V30 BEGIN CTAB
M  V30 COUNTS 42 44 0 0 0
M  V30 BEGIN ATOM
M  V30 1 C -0.298385 -4.616476 2.261483 0
M  V30 2 C -0.968394 -3.637745 1.290627 0
M  V30 3 C -2.451238 -3.834508 1.332748 0
M  V30 4 O -0.408373 -3.912385 0.032785 0
M  V30 5 C 0.308201 -3.014559 -0.747171 0
M  V30 6 N 0.580526 -1.763518 -0.439287 0
M  V30 7 C 1.147867 -0.983217 -1.010667 0
M  V30 8 C 1.634487 0.470993 -0.979424 0
M  V30 9 C 2.360495 1.033513 -2.000429 0
M  V30 10 C 2.699925 2.349590 -1.778183 0
M  V30 11 N 2.355789 3.021265 -0.670860 0
M  V30 12 C 1.646832 2.465897 0.322147 0
M  V30 13 N 1.349498 3.283349 1.436562 0
M  V30 14 C 0.638894 2.996602 2.612080 0
M  V30 15 O 0.164568 1.845339 2.759272 0
M  V30 16 C 0.392355 3.952332 3.720744 0
M  V30 17 C 0.453945 3.343425 5.139009 0
M  V30 18 C -0.857644 3.746435 4.525381 0
M  V30 19 C 1.289553 1.152973 0.136275 0
M  V30 20 S 1.639584 -1.922172 -2.578705 0
M  V30 21 C 0.799299 -3.434531 -1.969317 0
M  V30 22 C 0.743056 -4.722692 -2.716849 0
M  V30 23 N 1.392018 -4.743869 -3.977179 0
M  V30 24 O 0.112105 -5.562713 -2.063081 0
M  V30 25 H -0.462496 -4.312207 3.306343 0
M  V30 26 H -0.734666 -5.614212 2.013386 0
M  V30 27 H 0.775760 -4.646571 1.986709 0
M  V30 28 H -0.739529 -2.593390 1.544249 0
M  V30 29 H -2.981215 -2.871730 1.474918 0
M  V30 30 H -2.826425 -4.341348 0.412023 0
M  V30 31 H -2.713259 -4.468897 2.211599 0
M  V30 32 H 2.615892 0.466682 -2.867605 0
M  V30 33 H 3.272229 2.885413 -2.521621 0
M  V30 34 H 1.686707 4.284718 1.453338 0
M  V30 35 H 0.803851 4.988757 3.619078 0
M  V30 36 H 0.910261 3.953887 5.935389 0
M  V30 37 H 0.655409 2.247995 5.214064 0
M  V30 38 H -1.535460 2.911160 4.223349 0
M  V30 39 H -1.338139 4.611804 5.038284 0
M  V30 40 H 0.719152 0.673060 0.913180 0
M  V30 41 H 0.616240 -4.468084 -4.619476 0
M  V30 42 H 2.415618 -5.012912 -3.943455 0
M  V30 END ATOM
M  V30 BEGIN BOND
M  V30 1 1 1 2
M  V30 2 1 2 3
M  V30 3 1 2 4
M  V30 4 1 4 5
M  V30 5 1 5 6
M  V30 6 2 6 7
M  V30 7 1 7 8
M  V30 8 2 8 9
M  V30 9 1 9 10
M  V30 10 2 10 11
M  V30 11 1 11 12
M  V30 12 1 12 13
M  V30 13 1 13 14
M  V30 14 2 14 15
M  V30 15 1 14 16
M  V30 16 1 16 17
M  V30 17 1 17 18
M  V30 18 2 12 19
M  V30 19 1 7 20
M  V30 20 1 20 21
M  V30 21 1 21 22
M  V30 22 1 22 23
M  V30 23 2 22 24
M  V30 24 2 21 5
M  V30 25 1 19 8
M  V30 26 1 18 16
M  V30 27 1 1 25
M  V30 28 1 1 26
M  V30 29 1 1 27
M  V30 30 1 2 28
M  V30 31 1 3 29
M  V30 32 1 3 30
M  V30 33 1 3 31
M  V30 34 1 9 32
M  V30 35 1 10 33
M  V30 36 1 13 34
M  V30 37 1 16 35
M  V30 38 1 17 36
M  V30 39 1 17 37
M  V30 40 1 18 38
M  V30 41 1 18 39
M  V30 42 1 19 40
M  V30 43 1 23 41
M  V30 44 1 23 42
M  V30 END BOND
M  V30 END CTAB
M  END
>  <Dataset>  (332) 
ChEMBL_Kinases

>  <Ligand_Instance>  (332) 
nan

>  <PDB_ID>  (332) 
nan

>  <Standardized_SMILES>  (332) 
CC(C)Oc1nc(-c2ccnc(NC(=O)C3CC3)c2)sc1C(N)=O

>  <Name>  (332) 
nan

>  <Pocket>  (332) 
nan

>  <ATP_Site>  (332) 
nan

>  <Peripheral>  (332) 
nan

>  <Num_H_Atoms_ProtBoundConf>  (332) 
nan

>  <Num_Resolved_Atoms>  (332) 
nan

>  <Num_Not_Resolved_Atoms>  (332) 
nan

$$$$
CHEMBL3410089
     RDKit          3D

  0  0  0  0  0  0  0  0  0  0999 V3000
M  V30 BEGIN CTAB
M  V30 COUNTS 36 38 0 0 0
M  V30 BEGIN ATOM
M  V30 1 C 1.859716 -6.034160 -0.706857 0
M  V30 2 O 2.097923 -5.434107 0.547429 0
M  V30 3 C 1.813983 -4.101316 0.825310 0
M  V30 4 N 1.300288 -3.264392 -0.032537 0
M  V30 5 C 1.024021 -2.134209 0.096441 0
M  V30 6 C 0.442853 -0.970540 -0.645534 0
M  V30 7 C 0.072470 -1.116856 -1.954793 0
M  V30 8 C -0.484842 -0.177571 -2.786974 0
M  V30 9 N -0.669632 1.016539 -2.198464 0
M  V30 10 C -0.323313 1.232728 -0.900690 0
M  V30 11 N -0.516892 2.544321 -0.407114 0
M  V30 12 C -0.642524 3.823462 0.046692 0
M  V30 13 O 0.506092 4.319975 -0.303005 0
M  V30 14 C -1.654191 4.650153 0.747565 0
M  V30 15 C -2.263713 3.964664 2.004472 0
M  V30 16 C -3.061989 4.280747 0.800164 0
M  V30 17 C 0.242829 0.248662 -0.082253 0
M  V30 18 S 1.514726 -1.853260 1.851275 0
M  V30 19 C 2.065410 -3.564239 2.066282 0
M  V30 20 C 2.640711 -4.168254 3.342130 0
M  V30 21 N 2.730645 -3.200900 4.407884 0
M  V30 22 O 2.892065 -5.378487 3.128386 0
M  V30 23 H 2.107504 -5.366427 -1.561870 0
M  V30 24 H 0.822782 -6.375712 -0.755501 0
M  V30 25 H 2.531968 -6.929603 -0.829315 0
M  V30 26 H 0.241460 -2.095913 -2.392225 0
M  V30 27 H -0.736712 -0.417723 -3.810209 0
M  V30 28 H -1.506301 2.239508 -0.069305 0
M  V30 29 H -1.335565 5.683648 0.914104 0
M  V30 30 H -1.908523 2.953292 2.231103 0
M  V30 31 H -2.357886 4.623739 2.900159 0
M  V30 32 H -3.793644 5.132698 0.938505 0
M  V30 33 H -3.504678 3.417575 0.283095 0
M  V30 34 H 0.517561 0.420106 0.947674 0
M  V30 35 H 1.784340 -2.886344 4.790451 0
M  V30 36 H 3.764726 -3.208676 4.362507 0
M  V30 END ATOM
M  V30 BEGIN BOND
M  V30 1 1 1 2
M  V30 2 1 2 3
M  V30 3 1 3 4
M  V30 4 2 4 5
M  V30 5 1 5 6
M  V30 6 2 6 7
M  V30 7 1 7 8
M  V30 8 2 8 9
M  V30 9 1 9 10
M  V30 10 1 10 11
M  V30 11 1 11 12
M  V30 12 2 12 13
M  V30 13 1 12 14
M  V30 14 1 14 15
M  V30 15 1 15 16
M  V30 16 2 10 17
M  V30 17 1 5 18
M  V30 18 1 18 19
M  V30 19 1 19 20
M  V30 20 1 20 21
M  V30 21 2 20 22
M  V30 22 2 19 3
M  V30 23 1 17 6
M  V30 24 1 16 14
M  V30 25 1 1 23
M  V30 26 1 1 24
M  V30 27 1 1 25
M  V30 28 1 7 26
M  V30 29 1 8 27
M  V30 30 1 11 28
M  V30 31 1 14 29
M  V30 32 1 15 30
M  V30 33 1 15 31
M  V30 34 1 16 32
M  V30 35 1 16 33
M  V30 36 1 17 34
M  V30 37 1 21 35
M  V30 38 1 21 36
M  V30 END BOND
M  V30 END CTAB
M  END
>  <Dataset>  (333) 
ChEMBL_Kinases

>  <Ligand_Instance>  (333) 
nan

>  <PDB_ID>  (333) 
nan

>  <Standardized_SMILES>  (333) 
COc1nc(-c2ccnc(NC(=O)C3CC3)c2)sc1C(N)=O

>  <Name>  (333) 
nan

>  <Pocket>  (333) 
nan

>  <ATP_Site>  (333) 
nan

>  <Peripheral>  (333) 
nan

>  <Num_H_Atoms_ProtBoundConf>  (333) 
nan

>  <Num_Resolved_Atoms>  (333) 
nan

>  <Num_Not_Resolved_Atoms>  (333) 
nan

$$$$
CHEMBL3410088
     RDKit          3D

  0  0  0  0  0  0  0  0  0  0999 V3000
M  V30 BEGIN CTAB
M  V30 COUNTS 35 37 0 0 0
M  V30 BEGIN ATOM
M  V30 1 C -0.586217 -5.306284 3.238368 0
M  V30 2 C -0.210655 -3.935326 2.724366 0
M  V30 3 N -0.154575 -3.471465 1.500947 0
M  V30 4 C 0.138554 -2.409469 1.135326 0
M  V30 5 C 0.256601 -1.712128 -0.205136 0
M  V30 6 C -0.061547 -2.532461 -1.279676 0
M  V30 7 C 0.052436 -1.878157 -2.488912 0
M  V30 8 N 0.429763 -0.594006 -2.590968 0
M  V30 9 C 0.729545 0.163983 -1.512093 0
M  V30 10 N 1.122430 1.521060 -1.705902 0
M  V30 11 C 0.158842 2.561606 -1.725741 0
M  V30 12 O -1.034994 2.184011 -1.561379 0
M  V30 13 C 0.589103 3.972101 -1.929439 0
M  V30 14 C -0.245907 4.997623 -1.183614 0
M  V30 15 C -0.325658 4.833285 -2.696568 0
M  V30 16 C 0.640653 -0.416257 -0.259675 0
M  V30 17 S 0.485930 -1.620422 2.779239 0
M  V30 18 C 0.110945 -3.077380 3.682317 0
M  V30 19 C 0.186103 -3.163201 5.173695 0
M  V30 20 N 0.578125 -2.027051 5.917594 0
M  V30 21 O -0.102876 -4.249336 5.728897 0
M  V30 22 H -0.757873 -6.012343 2.433791 0
M  V30 23 H -1.501881 -5.228995 3.847977 0
M  V30 24 H 0.216006 -5.731059 3.885503 0
M  V30 25 H -0.360710 -3.563380 -1.142239 0
M  V30 26 H -0.189699 -2.486892 -3.375591 0
M  V30 27 H 2.149316 1.687183 -1.829280 0
M  V30 28 H 1.665879 4.151017 -2.059476 0
M  V30 29 H -1.147510 4.627112 -0.640158 0
M  V30 30 H 0.261106 5.902528 -0.789751 0
M  V30 31 H -1.275726 4.418173 -3.125330 0
M  V30 32 H 0.049048 5.667113 -3.330025 0
M  V30 33 H 0.873632 0.162865 0.623213 0
M  V30 34 H 0.285309 -1.096689 6.332440 0
M  V30 35 H 0.870666 -1.208812 6.456572 0
M  V30 END ATOM
M  V30 BEGIN BOND
M  V30 1 1 1 2
M  V30 2 1 2 3
M  V30 3 2 3 4
M  V30 4 1 4 5
M  V30 5 2 5 6
M  V30 6 1 6 7
M  V30 7 2 7 8
M  V30 8 1 8 9
M  V30 9 1 9 10
M  V30 10 1 10 11
M  V30 11 2 11 12
M  V30 12 1 11 13
M  V30 13 1 13 14
M  V30 14 1 14 15
M  V30 15 2 9 16
M  V30 16 1 4 17
M  V30 17 1 17 18
M  V30 18 1 18 19
M  V30 19 1 19 20
M  V30 20 2 19 21
M  V30 21 2 18 2
M  V30 22 1 16 5
M  V30 23 1 15 13
M  V30 24 1 1 22
M  V30 25 1 1 23
M  V30 26 1 1 24
M  V30 27 1 6 25
M  V30 28 1 7 26
M  V30 29 1 10 27
M  V30 30 1 13 28
M  V30 31 1 14 29
M  V30 32 1 14 30
M  V30 33 1 15 31
M  V30 34 1 15 32
M  V30 35 1 16 33
M  V30 36 1 20 34
M  V30 37 1 20 35
M  V30 END BOND
M  V30 END CTAB
M  END
>  <Dataset>  (334) 
ChEMBL_Kinases

>  <Ligand_Instance>  (334) 
nan

>  <PDB_ID>  (334) 
nan

>  <Standardized_SMILES>  (334) 
Cc1nc(-c2ccnc(NC(=O)C3CC3)c2)sc1C(N)=O

>  <Name>  (334) 
nan

>  <Pocket>  (334) 
nan

>  <ATP_Site>  (334) 
nan

>  <Peripheral>  (334) 
nan

>  <Num_H_Atoms_ProtBoundConf>  (334) 
nan

>  <Num_Resolved_Atoms>  (334) 
nan

>  <Num_Not_Resolved_Atoms>  (334) 
nan

$$$$
CHEMBL3410087
     RDKit          3D

  0  0  0  0  0  0  0  0  0  0999 V3000
M  V30 BEGIN CTAB
M  V30 COUNTS 32 34 0 0 0
M  V30 BEGIN ATOM
M  V30 1 N 6.216644 -0.744762 4.189192 0
M  V30 2 C 5.428840 -1.729855 3.562585 0
M  V30 3 O 5.867805 -2.889716 3.604321 0
M  V30 4 C 4.154733 -1.276235 2.917431 0
M  V30 5 C 3.400592 -0.199005 2.680584 0
M  V30 6 N 2.294314 -0.400938 2.013792 0
M  V30 7 C 1.843613 -1.331555 1.590125 0
M  V30 8 C 0.652203 -1.903899 0.808843 0
M  V30 9 C 0.527451 -3.220886 0.502947 0
M  V30 10 C -0.620725 -3.561820 -0.211899 0
M  V30 11 N -1.513073 -2.583829 -0.545841 0
M  V30 12 C -1.332448 -1.291058 -0.212429 0
M  V30 13 N -2.326918 -0.344649 -0.610248 0
M  V30 14 C -2.337722 0.380387 -1.833052 0
M  V30 15 O -1.429839 0.232686 -2.690945 0
M  V30 16 C -3.475325 1.315296 -2.036380 0
M  V30 17 C -3.916521 2.059013 -0.769288 0
M  V30 18 C -4.781662 1.005280 -1.307663 0
M  V30 19 C -0.198225 -0.887764 0.505572 0
M  V30 20 S 3.165138 -2.588964 2.118098 0
M  V30 21 H 6.589610 0.128982 4.618188 0
M  V30 22 H 5.920108 0.234904 4.392087 0
M  V30 23 H 3.823375 0.708926 3.084266 0
M  V30 24 H 1.292805 -3.898463 0.818097 0
M  V30 25 H -0.755495 -4.604246 -0.474566 0
M  V30 26 H -3.020084 -0.304905 0.169510 0
M  V30 27 H -3.531871 1.901431 -2.963610 0
M  V30 28 H -3.328682 1.869412 0.157205 0
M  V30 29 H -4.270239 3.097062 -0.845523 0
M  V30 30 H -4.801892 0.040913 -0.758863 0
M  V30 31 H -5.739546 1.296120 -1.811922 0
M  V30 32 H -0.099078 0.147838 0.746759 0
M  V30 END ATOM
M  V30 BEGIN BOND
M  V30 1 1 1 2
M  V30 2 2 2 3
M  V30 3 1 2 4
M  V30 4 2 4 5
M  V30 5 1 5 6
M  V30 6 2 6 7
M  V30 7 1 7 8
M  V30 8 2 8 9
M  V30 9 1 9 10
M  V30 10 2 10 11
M  V30 11 1 11 12
M  V30 12 1 12 13
M  V30 13 1 13 14
M  V30 14 2 14 15
M  V30 15 1 14 16
M  V30 16 1 16 17
M  V30 17 1 17 18
M  V30 18 2 12 19
M  V30 19 1 7 20
M  V30 20 1 20 4
M  V30 21 1 19 8
M  V30 22 1 18 16
M  V30 23 1 1 21
M  V30 24 1 1 22
M  V30 25 1 5 23
M  V30 26 1 9 24
M  V30 27 1 10 25
M  V30 28 1 13 26
M  V30 29 1 16 27
M  V30 30 1 17 28
M  V30 31 1 17 29
M  V30 32 1 18 30
M  V30 33 1 18 31
M  V30 34 1 19 32
M  V30 END BOND
M  V30 END CTAB
M  END
>  <Dataset>  (335) 
ChEMBL_Kinases

>  <Ligand_Instance>  (335) 
nan

>  <PDB_ID>  (335) 
nan

>  <Standardized_SMILES>  (335) 
NC(=O)c1cnc(-c2ccnc(NC(=O)C3CC3)c2)s1

>  <Name>  (335) 
nan

>  <Pocket>  (335) 
nan

>  <ATP_Site>  (335) 
nan

>  <Peripheral>  (335) 
nan

>  <Num_H_Atoms_ProtBoundConf>  (335) 
nan

>  <Num_Resolved_Atoms>  (335) 
nan

>  <Num_Not_Resolved_Atoms>  (335) 
nan

$$$$
CHEMBL3410084
     RDKit          3D

  0  0  0  0  0  0  0  0  0  0999 V3000
M  V30 BEGIN CTAB
M  V30 COUNTS 68 72 0 0 0
M  V30 BEGIN ATOM
M  V30 1 C 3.245603 1.641053 0.446624 0
M  V30 2 C 3.355556 0.145051 0.591376 0
M  V30 3 C 2.705283 -0.250649 1.901158 0
M  V30 4 N 2.669663 -0.521873 -0.506002 0
M  V30 5 C 1.313181 -0.135764 -0.461983 0
M  V30 6 C 0.804342 0.957762 -1.118419 0
M  V30 7 C -0.522852 1.373958 -1.102555 0
M  V30 8 N -0.998685 2.513430 -1.781932 0
M  V30 9 C -0.316255 3.456921 -2.626047 0
M  V30 10 C 0.163415 2.887331 -3.933250 0
M  V30 11 C 0.875534 3.931194 -4.774438 0
M  V30 12 C 0.038508 4.412313 -5.927404 0
M  V30 13 O -0.304520 3.393978 -6.803904 0
M  V30 14 C -0.709203 2.252704 -6.138935 0
M  V30 15 C -1.108721 2.544126 -4.724562 0
M  V30 16 C -1.328443 0.537506 -0.319595 0
M  V30 17 N -2.655254 0.628228 -0.072317 0
M  V30 18 C -3.033368 -0.381448 0.733024 0
M  V30 19 C -1.874215 -1.065297 0.946118 0
M  V30 20 C -1.772142 -2.274251 1.779980 0
M  V30 21 C -2.414972 -2.265267 3.008118 0
M  V30 22 C -2.353047 -3.370359 3.830397 0
M  V30 23 C -1.661561 -4.508304 3.470337 0
M  V30 24 C -1.537457 -5.724351 4.267877 0
M  V30 25 O -0.882636 -6.743708 3.877556 0
M  V30 26 N -2.137475 -5.872881 5.547956 0
M  V30 27 C -2.039988 -7.061355 6.373500 0
M  V30 28 C -1.828533 -6.742682 7.884904 0
M  V30 29 C -3.139392 -7.255185 7.389936 0
M  V30 30 C -1.026558 -4.497598 2.240529 0
M  V30 31 C -1.070580 -3.403971 1.393600 0
M  V30 32 N -0.829152 -0.528379 0.319602 0
M  V30 33 N 0.464528 -0.886242 0.269716 0
M  V30 34 C 4.816382 -0.225505 0.641103 0
M  V30 35 F 5.434777 0.178804 -0.518804 0
M  V30 36 F 4.988905 -1.578835 0.899675 0
M  V30 37 F 5.374052 0.443907 1.713332 0
M  V30 38 H 2.212760 1.997922 0.616550 0
M  V30 39 H 3.885786 2.111142 1.230958 0
M  V30 40 H 3.622403 1.930831 -0.557416 0
M  V30 41 H 3.412891 -0.219747 2.746738 0
M  V30 42 H 1.854422 0.437575 2.133155 0
M  V30 43 H 2.275637 -1.282315 1.855054 0
M  V30 44 H 2.755559 -1.169567 -1.318099 0
M  V30 45 H 1.537014 1.497984 -1.662762 0
M  V30 46 H -2.039435 2.668934 -1.621233 0
M  V30 47 H -0.972071 4.336683 -2.769284 0
M  V30 48 H 0.594258 3.851612 -2.094803 0
M  V30 49 H 0.758476 1.967804 -3.819774 0
M  V30 50 H 1.060676 4.820806 -4.122003 0
M  V30 51 H 1.827478 3.525120 -5.185530 0
M  V30 52 H -0.884266 4.912594 -5.519264 0
M  V30 53 H 0.624316 5.192692 -6.459547 0
M  V30 54 H 0.160283 1.564639 -6.117063 0
M  V30 55 H -1.506631 1.736113 -6.709725 0
M  V30 56 H -1.581592 1.630467 -4.305509 0
M  V30 57 H -1.843847 3.355705 -4.620986 0
M  V30 58 H -4.008064 -0.640860 1.146080 0
M  V30 59 H -2.971451 -1.390971 3.333236 0
M  V30 60 H -2.843336 -3.383335 4.784013 0
M  V30 61 H -2.687831 -5.068781 5.920840 0
M  V30 62 H -1.461372 -7.926361 5.996346 0
M  V30 63 H -1.148865 -7.405598 8.434766 0
M  V30 64 H -1.710322 -5.681621 8.161843 0
M  V30 65 H -3.407996 -8.273810 7.744602 0
M  V30 66 H -4.013179 -6.569385 7.337141 0
M  V30 67 H -0.447711 -5.326592 1.833696 0
M  V30 68 H -0.575930 -3.384906 0.426477 0
M  V30 END ATOM
M  V30 BEGIN BOND
M  V30 1 1 1 2
M  V30 2 1 2 3
M  V30 3 1 2 4
M  V30 4 1 4 5
M  V30 5 1 5 6
M  V30 6 2 6 7
M  V30 7 1 7 8
M  V30 8 1 8 9
M  V30 9 1 9 10
M  V30 10 1 10 11
M  V30 11 1 11 12
M  V30 12 1 12 13
M  V30 13 1 13 14
M  V30 14 1 14 15
M  V30 15 1 7 16
M  V30 16 2 16 17
M  V30 17 1 17 18
M  V30 18 2 18 19
M  V30 19 1 19 20
M  V30 20 2 20 21
M  V30 21 1 21 22
M  V30 22 2 22 23
M  V30 23 1 23 24
M  V30 24 2 24 25
M  V30 25 1 24 26
M  V30 26 1 26 27
M  V30 27 1 27 28
M  V30 28 1 28 29
M  V30 29 1 23 30
M  V30 30 2 30 31
M  V30 31 1 19 32
M  V30 32 1 32 33
M  V30 33 1 2 34
M  V30 34 1 34 35
M  V30 35 1 34 36
M  V30 36 1 34 37
M  V30 37 2 33 5
M  V30 38 1 15 10
M  V30 39 1 32 16
M  V30 40 1 31 20
M  V30 41 1 29 27
M  V30 42 1 1 38
M  V30 43 1 1 39
M  V30 44 1 1 40
M  V30 45 1 3 41
M  V30 46 1 3 42
M  V30 47 1 3 43
M  V30 48 1 4 44
M  V30 49 1 6 45
M  V30 50 1 8 46
M  V30 51 1 9 47
M  V30 52 1 9 48
M  V30 53 1 10 49
M  V30 54 1 11 50
M  V30 55 1 11 51
M  V30 56 1 12 52
M  V30 57 1 12 53
M  V30 58 1 14 54
M  V30 59 1 14 55
M  V30 60 1 15 56
M  V30 61 1 15 57
M  V30 62 1 18 58
M  V30 63 1 21 59
M  V30 64 1 22 60
M  V30 65 1 26 61
M  V30 66 1 27 62
M  V30 67 1 28 63
M  V30 68 1 28 64
M  V30 69 1 29 65
M  V30 70 1 29 66
M  V30 71 1 30 67
M  V30 72 1 31 68
M  V30 END BOND
M  V30 END CTAB
M  END
>  <Dataset>  (336) 
ChEMBL_Kinases

>  <Ligand_Instance>  (336) 
nan

>  <PDB_ID>  (336) 
nan

>  <Standardized_SMILES>  (336) 
CC(C)(Nc1cc(NCC2CCOCC2)c2ncc(-c3ccc(C(=O)NC4CC4)cc3)n2n1)C(F)(F)F

>  <Name>  (336) 
nan

>  <Pocket>  (336) 
nan

>  <ATP_Site>  (336) 
nan

>  <Peripheral>  (336) 
nan

>  <Num_H_Atoms_ProtBoundConf>  (336) 
nan

>  <Num_Resolved_Atoms>  (336) 
nan

>  <Num_Not_Resolved_Atoms>  (336) 
nan

$$$$
CHEMBL3410083
     RDKit          3D

  0  0  0  0  0  0  0  0  0  0999 V3000
M  V30 BEGIN CTAB
M  V30 COUNTS 68 72 0 0 0
M  V30 BEGIN ATOM
M  V30 1 C 2.005145 0.043080 2.611213 0
M  V30 2 C 1.803962 1.559225 2.545994 0
M  V30 3 C 2.122435 2.231566 3.847705 0
M  V30 4 C 2.732278 2.103709 1.467709 0
M  V30 5 N 0.411057 1.751993 2.197669 0
M  V30 6 C -0.165142 1.281552 0.990894 0
M  V30 7 C -0.292053 1.892914 -0.246709 0
M  V30 8 C -0.905450 1.239977 -1.319341 0
M  V30 9 N -0.932705 2.088893 -2.452809 0
M  V30 10 C -0.738431 3.196887 -3.298116 0
M  V30 11 C 0.691790 3.327264 -3.712484 0
M  V30 12 C 1.567780 3.534347 -2.519072 0
M  V30 13 C 2.773634 4.335944 -3.019175 0
M  V30 14 O 3.139986 3.903722 -4.295088 0
M  V30 15 C 2.244249 4.367022 -5.258344 0
M  V30 16 C 0.827809 4.453330 -4.713596 0
M  V30 17 C -1.374788 -0.027774 -1.096162 0
M  V30 18 N -1.981385 -0.795919 -1.993964 0
M  V30 19 C -2.283135 -1.954283 -1.387395 0
M  V30 20 C -1.811778 -1.790480 -0.102639 0
M  V30 21 C -1.930034 -2.826876 0.917840 0
M  V30 22 C -2.339161 -2.608886 2.231549 0
M  V30 23 C -2.397047 -3.706952 3.075496 0
M  V30 24 C -2.072739 -4.989584 2.680171 0
M  V30 25 C -2.181882 -6.059391 3.693717 0
M  V30 26 O -2.515369 -5.722650 4.842004 0
M  V30 27 N -1.917384 -7.414646 3.367913 0
M  V30 28 C -2.038799 -8.446191 4.407531 0
M  V30 29 C -2.821088 -9.704333 4.002298 0
M  V30 30 C -1.361784 -9.755342 4.105901 0
M  V30 31 C -1.667511 -5.209018 1.380098 0
M  V30 32 C -1.609314 -4.114365 0.538213 0
M  V30 33 N -1.236259 -0.582830 0.100433 0
M  V30 34 N -0.658222 0.035433 1.107092 0
M  V30 35 H 1.123255 -0.374956 3.164840 0
M  V30 36 H 2.942396 -0.177028 3.161063 0
M  V30 37 H 2.001618 -0.314497 1.568054 0
M  V30 38 H 1.454468 3.087452 4.044092 0
M  V30 39 H 2.066489 1.535876 4.715374 0
M  V30 40 H 3.155485 2.622546 3.857312 0
M  V30 41 H 3.757500 2.095711 1.867562 0
M  V30 42 H 2.663389 1.459786 0.542998 0
M  V30 43 H 2.493814 3.128378 1.158280 0
M  V30 44 H -0.250363 2.259492 2.837884 0
M  V30 45 H 0.164594 2.876441 -0.097937 0
M  V30 46 H -1.444092 1.440495 -3.134334 0
M  V30 47 H -1.032932 4.119151 -2.686846 0
M  V30 48 H -1.439055 3.210016 -4.163906 0
M  V30 49 H 1.064164 2.383417 -4.215239 0
M  V30 50 H 1.079391 4.219981 -1.766584 0
M  V30 51 H 1.874353 2.636834 -1.987831 0
M  V30 52 H 3.635079 4.273178 -2.354761 0
M  V30 53 H 2.416010 5.399590 -3.088462 0
M  V30 54 H 2.233453 3.619061 -6.075881 0
M  V30 55 H 2.571731 5.323421 -5.713338 0
M  V30 56 H 0.575143 5.430028 -4.294226 0
M  V30 57 H 0.137183 4.228900 -5.552197 0
M  V30 58 H -2.780491 -2.806056 -1.817897 0
M  V30 59 H -2.586971 -1.599293 2.509859 0
M  V30 60 H -2.728172 -3.429805 4.080803 0
M  V30 61 H -1.636788 -7.710671 2.408739 0
M  V30 62 H -2.271584 -8.127058 5.426062 0
M  V30 63 H -3.292589 -9.669558 2.994653 0
M  V30 64 H -3.456309 -10.202665 4.758936 0
M  V30 65 H -0.908169 -10.345147 4.926578 0
M  V30 66 H -0.792902 -9.846529 3.167784 0
M  V30 67 H -1.412640 -6.206932 1.068668 0
M  V30 68 H -1.282346 -4.357754 -0.471880 0
M  V30 END ATOM
M  V30 BEGIN BOND
M  V30 1 1 1 2
M  V30 2 1 2 3
M  V30 3 1 2 4
M  V30 4 1 2 5
M  V30 5 1 5 6
M  V30 6 1 6 7
M  V30 7 2 7 8
M  V30 8 1 8 9
M  V30 9 1 9 10
M  V30 10 1 10 11
M  V30 11 1 11 12
M  V30 12 1 12 13
M  V30 13 1 13 14
M  V30 14 1 14 15
M  V30 15 1 15 16
M  V30 16 1 8 17
M  V30 17 2 17 18
M  V30 18 1 18 19
M  V30 19 2 19 20
M  V30 20 1 20 21
M  V30 21 2 21 22
M  V30 22 1 22 23
M  V30 23 2 23 24
M  V30 24 1 24 25
M  V30 25 2 25 26
M  V30 26 1 25 27
M  V30 27 1 27 28
M  V30 28 1 28 29
M  V30 29 1 29 30
M  V30 30 1 24 31
M  V30 31 2 31 32
M  V30 32 1 20 33
M  V30 33 1 33 34
M  V30 34 2 34 6
M  V30 35 1 16 11
M  V30 36 1 33 17
M  V30 37 1 32 21
M  V30 38 1 30 28
M  V30 39 1 1 35
M  V30 40 1 1 36
M  V30 41 1 1 37
M  V30 42 1 3 38
M  V30 43 1 3 39
M  V30 44 1 3 40
M  V30 45 1 4 41
M  V30 46 1 4 42
M  V30 47 1 4 43
M  V30 48 1 5 44
M  V30 49 1 7 45
M  V30 50 1 9 46
M  V30 51 1 10 47
M  V30 52 1 10 48
M  V30 53 1 11 49
M  V30 54 1 12 50
M  V30 55 1 12 51
M  V30 56 1 13 52
M  V30 57 1 13 53
M  V30 58 1 15 54
M  V30 59 1 15 55
M  V30 60 1 16 56
M  V30 61 1 16 57
M  V30 62 1 19 58
M  V30 63 1 22 59
M  V30 64 1 23 60
M  V30 65 1 27 61
M  V30 66 1 28 62
M  V30 67 1 29 63
M  V30 68 1 29 64
M  V30 69 1 30 65
M  V30 70 1 30 66
M  V30 71 1 31 67
M  V30 72 1 32 68
M  V30 END BOND
M  V30 END CTAB
M  END
>  <Dataset>  (337) 
ChEMBL_Kinases

>  <Ligand_Instance>  (337) 
nan

>  <PDB_ID>  (337) 
nan

>  <Standardized_SMILES>  (337) 
CC(C)(C)Nc1cc(NCC2CCOCC2)c2ncc(-c3ccc(C(=O)NC4CC4)cc3)n2n1

>  <Name>  (337) 
nan

>  <Pocket>  (337) 
nan

>  <ATP_Site>  (337) 
nan

>  <Peripheral>  (337) 
nan

>  <Num_H_Atoms_ProtBoundConf>  (337) 
nan

>  <Num_Resolved_Atoms>  (337) 
nan

>  <Num_Not_Resolved_Atoms>  (337) 
nan

$$$$
CHEMBL3410082
     RDKit          3D

  0  0  0  0  0  0  0  0  0  0999 V3000
M  V30 BEGIN CTAB
M  V30 COUNTS 65 69 0 0 0
M  V30 BEGIN ATOM
M  V30 1 C 3.296369 2.186797 2.729825 0
M  V30 2 C 2.023205 1.698294 3.368685 0
M  V30 3 C 0.905942 2.717540 3.323073 0
M  V30 4 N 1.569319 0.492407 2.743473 0
M  V30 5 C 1.203159 0.364652 1.393615 0
M  V30 6 C 1.209461 1.391011 0.480082 0
M  V30 7 C 0.858224 1.306068 -0.858353 0
M  V30 8 N 0.885396 2.367981 -1.766081 0
M  V30 9 C 1.230732 3.762485 -1.612183 0
M  V30 10 C 0.295908 4.541421 -0.740705 0
M  V30 11 C -1.117534 4.511323 -1.305247 0
M  V30 12 C -2.062425 5.334518 -0.512991 0
M  V30 13 O -1.604854 6.464122 0.049759 0
M  V30 14 C -0.282525 6.724169 0.156558 0
M  V30 15 C 0.633521 6.039425 -0.794319 0
M  V30 16 C 0.471322 0.014025 -1.237904 0
M  V30 17 N 0.064781 -0.442848 -2.458052 0
M  V30 18 C -0.203156 -1.755287 -2.336632 0
M  V30 19 C 0.053305 -2.067670 -1.017402 0
M  V30 20 C -0.111477 -3.406217 -0.448311 0
M  V30 21 C 0.760149 -4.079723 0.382814 0
M  V30 22 C 0.453597 -5.345964 0.837499 0
M  V30 23 C -0.714344 -5.992417 0.493621 0
M  V30 24 C -0.992322 -7.331009 1.001267 0
M  V30 25 O -0.094039 -7.823443 1.750945 0
M  V30 26 N -2.160449 -8.045073 0.698449 0
M  V30 27 C -2.441096 -9.362320 1.194449 0
M  V30 28 C -3.456026 -10.247033 0.618491 0
M  V30 29 C -3.828205 -9.457450 1.842004 0
M  V30 30 C -1.574331 -5.305218 -0.337798 0
M  V30 31 C -1.306993 -4.038435 -0.815134 0
M  V30 32 N 0.467934 -0.980753 -0.341551 0
M  V30 33 N 0.809468 -0.850460 0.917130 0
M  V30 34 H 4.166927 2.146429 3.428551 0
M  V30 35 H 3.551852 1.543443 1.863919 0
M  V30 36 H 3.145401 3.231713 2.376736 0
M  V30 37 H 2.259301 1.548941 4.453024 0
M  V30 38 H 0.046329 2.320970 2.760573 0
M  V30 39 H 0.544281 3.003003 4.335546 0
M  V30 40 H 1.222899 3.670998 2.833571 0
M  V30 41 H 1.511715 -0.357903 3.362625 0
M  V30 42 H 1.524574 2.325473 0.874630 0
M  V30 43 H 0.598354 2.112375 -2.761560 0
M  V30 44 H 2.252261 3.827645 -1.118112 0
M  V30 45 H 1.338928 4.267365 -2.573215 0
M  V30 46 H 0.342623 4.271430 0.310934 0
M  V30 47 H -1.502876 3.499705 -1.473645 0
M  V30 48 H -1.021369 4.991018 -2.318312 0
M  V30 49 H -2.910225 5.603161 -1.211046 0
M  V30 50 H -2.549421 4.693109 0.251162 0
M  V30 51 H 0.056369 6.472931 1.203050 0
M  V30 52 H -0.129769 7.820249 0.063370 0
M  V30 53 H 0.466370 6.383192 -1.840231 0
M  V30 54 H 1.673618 6.180168 -0.468253 0
M  V30 55 H -0.550824 -2.472079 -3.081553 0
M  V30 56 H 1.665519 -3.526780 0.623559 0
M  V30 57 H 1.199989 -5.812741 1.494547 0
M  V30 58 H -2.892968 -7.631960 0.081189 0
M  V30 59 H -1.647134 -9.795138 1.855956 0
M  V30 60 H -3.952677 -10.043818 -0.331658 0
M  V30 61 H -3.306574 -11.332562 0.813538 0
M  V30 62 H -3.935692 -9.968131 2.813201 0
M  V30 63 H -4.547071 -8.637924 1.691779 0
M  V30 64 H -2.508234 -5.764913 -0.641362 0
M  V30 65 H -2.035556 -3.562091 -1.466798 0
M  V30 END ATOM
M  V30 BEGIN BOND
M  V30 1 1 1 2
M  V30 2 1 2 3
M  V30 3 1 2 4
M  V30 4 1 4 5
M  V30 5 1 5 6
M  V30 6 2 6 7
M  V30 7 1 7 8
M  V30 8 1 8 9
M  V30 9 1 9 10
M  V30 10 1 10 11
M  V30 11 1 11 12
M  V30 12 1 12 13
M  V30 13 1 13 14
M  V30 14 1 14 15
M  V30 15 1 7 16
M  V30 16 2 16 17
M  V30 17 1 17 18
M  V30 18 2 18 19
M  V30 19 1 19 20
M  V30 20 2 20 21
M  V30 21 1 21 22
M  V30 22 2 22 23
M  V30 23 1 23 24
M  V30 24 2 24 25
M  V30 25 1 24 26
M  V30 26 1 26 27
M  V30 27 1 27 28
M  V30 28 1 28 29
M  V30 29 1 23 30
M  V30 30 2 30 31
M  V30 31 1 19 32
M  V30 32 1 32 33
M  V30 33 2 33 5
M  V30 34 1 15 10
M  V30 35 1 32 16
M  V30 36 1 31 20
M  V30 37 1 29 27
M  V30 38 1 1 34
M  V30 39 1 1 35
M  V30 40 1 1 36
M  V30 41 1 2 37
M  V30 42 1 3 38
M  V30 43 1 3 39
M  V30 44 1 3 40
M  V30 45 1 4 41
M  V30 46 1 6 42
M  V30 47 1 8 43
M  V30 48 1 9 44
M  V30 49 1 9 45
M  V30 50 1 10 46
M  V30 51 1 11 47
M  V30 52 1 11 48
M  V30 53 1 12 49
M  V30 54 1 12 50
M  V30 55 1 14 51
M  V30 56 1 14 52
M  V30 57 1 15 53
M  V30 58 1 15 54
M  V30 59 1 18 55
M  V30 60 1 21 56
M  V30 61 1 22 57
M  V30 62 1 26 58
M  V30 63 1 27 59
M  V30 64 1 28 60
M  V30 65 1 28 61
M  V30 66 1 29 62
M  V30 67 1 29 63
M  V30 68 1 30 64
M  V30 69 1 31 65
M  V30 END BOND
M  V30 END CTAB
M  END
>  <Dataset>  (338) 
ChEMBL_Kinases

>  <Ligand_Instance>  (338) 
nan

>  <PDB_ID>  (338) 
nan

>  <Standardized_SMILES>  (338) 
CC(C)Nc1cc(NCC2CCOCC2)c2ncc(-c3ccc(C(=O)NC4CC4)cc3)n2n1

>  <Name>  (338) 
nan

>  <Pocket>  (338) 
nan

>  <ATP_Site>  (338) 
nan

>  <Peripheral>  (338) 
nan

>  <Num_H_Atoms_ProtBoundConf>  (338) 
nan

>  <Num_Resolved_Atoms>  (338) 
nan

>  <Num_Not_Resolved_Atoms>  (338) 
nan

$$$$
CHEMBL3410081
     RDKit          3D

  0  0  0  0  0  0  0  0  0  0999 V3000
M  V30 BEGIN CTAB
M  V30 COUNTS 69 74 0 0 0
M  V30 BEGIN ATOM
M  V30 1 O 6.839500 -0.086944 1.461226 0
M  V30 2 C 6.255596 0.987015 1.731193 0
M  V30 3 N 7.000829 1.941566 2.453155 0
M  V30 4 C 8.347118 1.719636 2.864779 0
M  V30 5 C 8.647624 2.199876 4.299161 0
M  V30 6 C 9.310662 2.802122 3.117638 0
M  V30 7 C 4.877053 1.227809 1.316045 0
M  V30 8 C 4.157528 2.377728 1.575876 0
M  V30 9 C 2.854303 2.547014 1.155590 0
M  V30 10 C 2.224251 1.540156 0.445548 0
M  V30 11 C 0.833968 1.616822 -0.050370 0
M  V30 12 C 0.247134 2.686536 -0.686597 0
M  V30 13 N -0.996168 2.304967 -0.944484 0
M  V30 14 C -1.173491 1.047528 -0.486090 0
M  V30 15 C -2.301387 0.237861 -0.529335 0
M  V30 16 N -3.508663 0.700139 -1.108454 0
M  V30 17 C -4.801732 0.080814 -1.294623 0
M  V30 18 C -4.756405 -1.063442 -2.283637 0
M  V30 19 C -6.139612 -1.671721 -2.436889 0
M  V30 20 C -6.198313 -2.672526 -3.551220 0
M  V30 21 O -5.218797 -2.457676 -4.518358 0
M  V30 22 C -5.132604 -1.079391 -4.717264 0
M  V30 23 C -4.225516 -0.562640 -3.602503 0
M  V30 24 C -2.132555 -1.003549 0.038417 0
M  V30 25 C -0.970003 -1.465340 0.616578 0
M  V30 26 N -0.812769 -2.745334 1.204987 0
M  V30 27 C -1.840487 -3.737349 1.308138 0
M  V30 28 C -3.004448 -3.346067 2.171568 0
M  V30 29 C -2.854409 -4.111955 3.470876 0
M  V30 30 C -1.761881 -5.117143 3.287874 0
M  V30 31 C -1.332317 -5.039800 1.839922 0
M  V30 32 N 0.072275 -0.591084 0.604308 0
M  V30 33 N -0.052561 0.611614 0.067470 0
M  V30 34 C 2.894988 0.368444 0.157010 0
M  V30 35 C 4.212360 0.248461 0.605660 0
M  V30 36 H 6.583490 2.863752 2.717839 0
M  V30 37 H 8.753098 0.734454 2.590690 0
M  V30 38 H 7.867957 2.823522 4.802170 0
M  V30 39 H 9.148416 1.512534 4.991867 0
M  V30 40 H 9.121109 3.852661 2.902477 0
M  V30 41 H 10.392073 2.541025 3.030676 0
M  V30 42 H 4.652558 3.159096 2.129746 0
M  V30 43 H 2.294857 3.432871 1.353499 0
M  V30 44 H 0.725959 3.617768 -0.910495 0
M  V30 45 H -3.490388 1.678173 -1.485261 0
M  V30 46 H -5.032429 -0.395890 -0.293201 0
M  V30 47 H -5.600411 0.789704 -1.499295 0
M  V30 48 H -4.097949 -1.883514 -1.972461 0
M  V30 49 H -6.829496 -0.839380 -2.676452 0
M  V30 50 H -6.476391 -2.149342 -1.506830 0
M  V30 51 H -7.202543 -2.656951 -4.062913 0
M  V30 52 H -6.052623 -3.697820 -3.135973 0
M  V30 53 H -4.672336 -0.823261 -5.693394 0
M  V30 54 H -6.132893 -0.657533 -4.585486 0
M  V30 55 H -4.225347 0.541462 -3.584025 0
M  V30 56 H -3.216671 -0.982788 -3.840158 0
M  V30 57 H -2.940898 -1.691245 0.055078 0
M  V30 58 H 0.120265 -2.995475 1.597910 0
M  V30 59 H -2.260840 -3.861407 0.267965 0
M  V30 60 H -3.093445 -2.255286 2.350707 0
M  V30 61 H -3.961717 -3.679470 1.724587 0
M  V30 62 H -3.774127 -4.640355 3.781631 0
M  V30 63 H -2.625926 -3.403500 4.321761 0
M  V30 64 H -0.894094 -4.884810 3.971234 0
M  V30 65 H -2.063813 -6.167860 3.486088 0
M  V30 66 H -0.241537 -5.202295 1.696249 0
M  V30 67 H -1.846005 -5.844693 1.242577 0
M  V30 68 H 2.412148 -0.434170 -0.401440 0
M  V30 69 H 4.707712 -0.699901 0.353762 0
M  V30 END ATOM
M  V30 BEGIN BOND
M  V30 1 2 1 2
M  V30 2 1 2 3
M  V30 3 1 3 4
M  V30 4 1 4 5
M  V30 5 1 5 6
M  V30 6 1 2 7
M  V30 7 2 7 8
M  V30 8 1 8 9
M  V30 9 2 9 10
M  V30 10 1 10 11
M  V30 11 2 11 12
M  V30 12 1 12 13
M  V30 13 2 13 14
M  V30 14 1 14 15
M  V30 15 1 15 16
M  V30 16 1 16 17
M  V30 17 1 17 18
M  V30 18 1 18 19
M  V30 19 1 19 20
M  V30 20 1 20 21
M  V30 21 1 21 22
M  V30 22 1 22 23
M  V30 23 2 15 24
M  V30 24 1 24 25
M  V30 25 1 25 26
M  V30 26 1 26 27
M  V30 27 1 27 28
M  V30 28 1 28 29
M  V30 29 1 29 30
M  V30 30 1 30 31
M  V30 31 2 25 32
M  V30 32 1 32 33
M  V30 33 1 10 34
M  V30 34 2 34 35
M  V30 35 1 6 4
M  V30 36 1 35 7
M  V30 37 1 33 11
M  V30 38 1 33 14
M  V30 39 1 23 18
M  V30 40 1 31 27
M  V30 41 1 3 36
M  V30 42 1 4 37
M  V30 43 1 5 38
M  V30 44 1 5 39
M  V30 45 1 6 40
M  V30 46 1 6 41
M  V30 47 1 8 42
M  V30 48 1 9 43
M  V30 49 1 12 44
M  V30 50 1 16 45
M  V30 51 1 17 46
M  V30 52 1 17 47
M  V30 53 1 18 48
M  V30 54 1 19 49
M  V30 55 1 19 50
M  V30 56 1 20 51
M  V30 57 1 20 52
M  V30 58 1 22 53
M  V30 59 1 22 54
M  V30 60 1 23 55
M  V30 61 1 23 56
M  V30 62 1 24 57
M  V30 63 1 26 58
M  V30 64 1 27 59
M  V30 65 1 28 60
M  V30 66 1 28 61
M  V30 67 1 29 62
M  V30 68 1 29 63
M  V30 69 1 30 64
M  V30 70 1 30 65
M  V30 71 1 31 66
M  V30 72 1 31 67
M  V30 73 1 34 68
M  V30 74 1 35 69
M  V30 END BOND
M  V30 END CTAB
M  END
>  <Dataset>  (339) 
ChEMBL_Kinases

>  <Ligand_Instance>  (339) 
nan

>  <PDB_ID>  (339) 
nan

>  <Standardized_SMILES>  (339) 
O=C(NC1CC1)c1ccc(-c2cnc3c(NCC4CCOCC4)cc(NC4CCCC4)nn23)cc1

>  <Name>  (339) 
nan

>  <Pocket>  (339) 
nan

>  <ATP_Site>  (339) 
nan

>  <Peripheral>  (339) 
nan

>  <Num_H_Atoms_ProtBoundConf>  (339) 
nan

>  <Num_Resolved_Atoms>  (339) 
nan

>  <Num_Not_Resolved_Atoms>  (339) 
nan

$$$$
CHEMBL3410080
     RDKit          3D

  0  0  0  0  0  0  0  0  0  0999 V3000
M  V30 BEGIN CTAB
M  V30 COUNTS 72 77 0 0 0
M  V30 BEGIN ATOM
M  V30 1 O 7.654755 0.717246 0.040516 0
M  V30 2 C 6.795199 0.673321 0.942474 0
M  V30 3 N 7.250810 0.391805 2.234449 0
M  V30 4 C 8.659239 0.148737 2.580945 0
M  V30 5 C 8.819546 -0.987772 3.563763 0
M  V30 6 C 9.145372 0.414593 3.954980 0
M  V30 7 C 5.392101 0.910028 0.624101 0
M  V30 8 C 4.379233 0.871526 1.559486 0
M  V30 9 C 3.043622 1.104397 1.216152 0
M  V30 10 C 2.750675 1.381200 -0.114084 0
M  V30 11 C 1.373039 1.631373 -0.524535 0
M  V30 12 C 1.053850 2.677357 -1.363714 0
M  V30 13 N -0.278244 2.606776 -1.525631 0
M  V30 14 C -0.749171 1.560126 -0.813601 0
M  V30 15 C -2.063308 1.092029 -0.673461 0
M  V30 16 N -3.166786 1.719733 -1.307491 0
M  V30 17 C -4.556779 1.399554 -1.303946 0
M  V30 18 C -4.940184 0.134292 -1.994261 0
M  V30 19 C -6.441159 -0.036082 -1.888005 0
M  V30 20 C -6.928846 -1.162648 -2.775551 0
M  V30 21 O -6.638863 -0.870851 -4.124349 0
M  V30 22 C -5.247245 -0.967147 -4.221649 0
M  V30 23 C -4.565549 0.125402 -3.458895 0
M  V30 24 C -2.163236 -0.013596 0.143092 0
M  V30 25 C -1.132768 -0.648283 0.786532 0
M  V30 26 N -1.254138 -1.793448 1.613380 0
M  V30 27 C -2.478042 -2.514075 1.896290 0
M  V30 28 C -3.073521 -3.213354 0.723569 0
M  V30 29 C -2.647048 -4.650375 0.552888 0
M  V30 30 C -1.696759 -5.125449 1.617532 0
M  V30 31 C -2.378825 -4.808194 2.954313 0
M  V30 32 C -2.301946 -3.329272 3.128251 0
M  V30 33 N 0.104503 -0.111543 0.582502 0
M  V30 34 N 0.266244 0.947959 -0.188704 0
M  V30 35 C 3.733788 1.434293 -1.109083 0
M  V30 36 C 5.004941 1.191369 -0.664320 0
M  V30 37 H 6.566853 0.345133 3.024471 0
M  V30 38 H 9.368603 0.193394 1.741425 0
M  V30 39 H 9.592299 -1.747476 3.400076 0
M  V30 40 H 7.917726 -1.389015 4.085487 0
M  V30 41 H 10.244263 0.621884 4.036084 0
M  V30 42 H 8.518610 0.976461 4.659243 0
M  V30 43 H 4.605137 0.659432 2.575434 0
M  V30 44 H 2.263497 1.072145 1.951187 0
M  V30 45 H 1.674421 3.430101 -1.830380 0
M  V30 46 H -2.875657 2.573242 -1.877254 0
M  V30 47 H -5.108784 2.223929 -1.817552 0
M  V30 48 H -4.988111 1.357767 -0.272289 0
M  V30 49 H -4.485345 -0.755952 -1.535575 0
M  V30 50 H -6.739423 -0.217365 -0.857585 0
M  V30 51 H -6.903640 0.915971 -2.224589 0
M  V30 52 H -6.392295 -2.099825 -2.534247 0
M  V30 53 H -7.997977 -1.342819 -2.687895 0
M  V30 54 H -4.894310 -0.961707 -5.261938 0
M  V30 55 H -4.997616 -1.973459 -3.823486 0
M  V30 56 H -3.461192 -0.105730 -3.497032 0
M  V30 57 H -4.697743 1.098361 -3.939811 0
M  V30 58 H -3.118568 -0.436528 0.330405 0
M  V30 59 H -0.375447 -2.157778 2.064787 0
M  V30 60 H -3.220268 -1.687244 2.159011 0
M  V30 61 H -4.187613 -3.172869 0.798051 0
M  V30 62 H -2.788942 -2.696071 -0.215272 0
M  V30 63 H -3.548569 -5.304861 0.514363 0
M  V30 64 H -2.146325 -4.834204 -0.441015 0
M  V30 65 H -0.762569 -4.539151 1.519158 0
M  V30 66 H -1.560820 -6.204517 1.504088 0
M  V30 67 H -1.851177 -5.317355 3.781259 0
M  V30 68 H -3.440556 -5.094244 2.874767 0
M  V30 69 H -1.307331 -3.092466 3.607628 0
M  V30 70 H -3.033762 -3.029815 3.938095 0
M  V30 71 H 3.500754 1.648168 -2.131711 0
M  V30 72 H 5.789647 1.225301 -1.410692 0
M  V30 END ATOM
M  V30 BEGIN BOND
M  V30 1 2 1 2
M  V30 2 1 2 3
M  V30 3 1 3 4
M  V30 4 1 4 5
M  V30 5 1 5 6
M  V30 6 1 2 7
M  V30 7 2 7 8
M  V30 8 1 8 9
M  V30 9 2 9 10
M  V30 10 1 10 11
M  V30 11 2 11 12
M  V30 12 1 12 13
M  V30 13 2 13 14
M  V30 14 1 14 15
M  V30 15 1 15 16
M  V30 16 1 16 17
M  V30 17 1 17 18
M  V30 18 1 18 19
M  V30 19 1 19 20
M  V30 20 1 20 21
M  V30 21 1 21 22
M  V30 22 1 22 23
M  V30 23 2 15 24
M  V30 24 1 24 25
M  V30 25 1 25 26
M  V30 26 1 26 27
M  V30 27 1 27 28
M  V30 28 1 28 29
M  V30 29 1 29 30
M  V30 30 1 30 31
M  V30 31 1 31 32
M  V30 32 2 25 33
M  V30 33 1 33 34
M  V30 34 1 10 35
M  V30 35 2 35 36
M  V30 36 1 6 4
M  V30 37 1 36 7
M  V30 38 1 34 11
M  V30 39 1 34 14
M  V30 40 1 23 18
M  V30 41 1 32 27
M  V30 42 1 3 37
M  V30 43 1 4 38
M  V30 44 1 5 39
M  V30 45 1 5 40
M  V30 46 1 6 41
M  V30 47 1 6 42
M  V30 48 1 8 43
M  V30 49 1 9 44
M  V30 50 1 12 45
M  V30 51 1 16 46
M  V30 52 1 17 47
M  V30 53 1 17 48
M  V30 54 1 18 49
M  V30 55 1 19 50
M  V30 56 1 19 51
M  V30 57 1 20 52
M  V30 58 1 20 53
M  V30 59 1 22 54
M  V30 60 1 22 55
M  V30 61 1 23 56
M  V30 62 1 23 57
M  V30 63 1 24 58
M  V30 64 1 26 59
M  V30 65 1 27 60
M  V30 66 1 28 61
M  V30 67 1 28 62
M  V30 68 1 29 63
M  V30 69 1 29 64
M  V30 70 1 30 65
M  V30 71 1 30 66
M  V30 72 1 31 67
M  V30 73 1 31 68
M  V30 74 1 32 69
M  V30 75 1 32 70
M  V30 76 1 35 71
M  V30 77 1 36 72
M  V30 END BOND
M  V30 END CTAB
M  END
>  <Dataset>  (340) 
ChEMBL_Kinases

>  <Ligand_Instance>  (340) 
nan

>  <PDB_ID>  (340) 
nan

>  <Standardized_SMILES>  (340) 
O=C(NC1CC1)c1ccc(-c2cnc3c(NCC4CCOCC4)cc(NC4CCCCC4)nn23)cc1

>  <Name>  (340) 
nan

>  <Pocket>  (340) 
nan

>  <ATP_Site>  (340) 
nan

>  <Peripheral>  (340) 
nan

>  <Num_H_Atoms_ProtBoundConf>  (340) 
nan

>  <Num_Resolved_Atoms>  (340) 
nan

>  <Num_Not_Resolved_Atoms>  (340) 
nan

$$$$
CHEMBL3410079
     RDKit          3D

  0  0  0  0  0  0  0  0  0  0999 V3000
M  V30 BEGIN CTAB
M  V30 COUNTS 66 71 0 0 0
M  V30 BEGIN ATOM
M  V30 1 O 5.801658 -2.615351 3.040395 0
M  V30 2 C 5.827146 -1.360932 2.940120 0
M  V30 3 N 6.896176 -0.634007 3.507272 0
M  V30 4 C 8.012896 -1.224043 4.223814 0
M  V30 5 C 8.345950 -0.475621 5.547411 0
M  V30 6 C 9.250858 -0.430588 4.389796 0
M  V30 7 C 4.719723 -0.737088 2.225978 0
M  V30 8 C 3.732279 -1.553202 1.714564 0
M  V30 9 C 2.631853 -1.043999 1.014985 0
M  V30 10 C 2.572796 0.343925 0.853108 0
M  V30 11 C 1.406631 0.855069 0.114192 0
M  V30 12 C 1.482132 1.815152 -0.872391 0
M  V30 13 N 0.201240 1.963234 -1.253605 0
M  V30 14 C -0.594519 1.134565 -0.531525 0
M  V30 15 C -1.984444 0.975118 -0.611633 0
M  V30 16 N -2.812590 1.690312 -1.485740 0
M  V30 17 C -4.220759 1.651812 -1.708488 0
M  V30 18 C -4.714484 0.353708 -2.313019 0
M  V30 19 C -6.212214 0.377992 -2.522604 0
M  V30 20 C -6.586533 0.249708 -3.988014 0
M  V30 21 O -5.984076 1.247422 -4.720720 0
M  V30 22 C -4.609849 1.227348 -4.650948 0
M  V30 23 C -4.084433 0.173376 -3.700459 0
M  V30 24 C -2.445943 0.030551 0.291060 0
M  V30 25 C -1.679844 -0.693069 1.180294 0
M  V30 26 N -2.221018 -1.649729 2.081084 0
M  V30 27 C -2.435852 -3.044455 1.902470 0
M  V30 28 C -2.981467 -3.756157 2.951668 0
M  V30 29 C -3.190829 -5.106167 2.781685 0
M  V30 30 C -2.850148 -5.706650 1.570979 0
M  V30 31 C -2.306559 -4.964020 0.543520 0
M  V30 32 C -2.082525 -3.592641 0.686522 0
M  V30 33 N -0.335088 -0.456536 1.171771 0
M  V30 34 N 0.146918 0.435533 0.327921 0
M  V30 35 C 3.538458 1.195818 1.348341 0
M  V30 36 C 4.590671 0.614802 2.025870 0
M  V30 37 H 6.904891 0.408398 3.416532 0
M  V30 38 H 8.029914 -2.337774 4.335895 0
M  V30 39 H 8.556939 -1.092497 6.439765 0
M  V30 40 H 7.766717 0.427156 5.779031 0
M  V30 41 H 10.220873 -0.967237 4.489887 0
M  V30 42 H 9.270421 0.517512 3.786477 0
M  V30 43 H 3.713755 -2.641257 1.803051 0
M  V30 44 H 1.856545 -1.675640 0.612588 0
M  V30 45 H 2.392336 2.295447 -1.211258 0
M  V30 46 H -2.264310 2.383151 -2.083694 0
M  V30 47 H -4.717980 1.754282 -0.696659 0
M  V30 48 H -4.541200 2.528805 -2.297125 0
M  V30 49 H -4.447089 -0.537477 -1.753333 0
M  V30 50 H -6.641129 -0.494690 -2.006052 0
M  V30 51 H -6.675172 1.287540 -2.076371 0
M  V30 52 H -6.432312 -0.775358 -4.364471 0
M  V30 53 H -7.694689 0.447811 -4.046526 0
M  V30 54 H -4.248720 2.225529 -4.285603 0
M  V30 55 H -4.152651 1.095044 -5.670114 0
M  V30 56 H -4.419105 -0.816714 -4.071506 0
M  V30 57 H -2.988958 0.193163 -3.624344 0
M  V30 58 H -3.487896 -0.202387 0.361398 0
M  V30 59 H -2.457877 -1.145602 2.963004 0
M  V30 60 H -3.253129 -3.314225 3.897514 0
M  V30 61 H -3.617454 -5.726464 3.568224 0
M  V30 62 H -3.031395 -6.777585 1.475544 0
M  V30 63 H -2.045961 -5.440687 -0.391699 0
M  V30 64 H -1.656273 -3.012009 -0.120073 0
M  V30 65 H 3.441726 2.253238 1.194317 0
M  V30 66 H 5.351756 1.275035 2.417161 0
M  V30 END ATOM
M  V30 BEGIN BOND
M  V30 1 2 1 2
M  V30 2 1 2 3
M  V30 3 1 3 4
M  V30 4 1 4 5
M  V30 5 1 5 6
M  V30 6 1 2 7
M  V30 7 2 7 8
M  V30 8 1 8 9
M  V30 9 2 9 10
M  V30 10 1 10 11
M  V30 11 2 11 12
M  V30 12 1 12 13
M  V30 13 2 13 14
M  V30 14 1 14 15
M  V30 15 1 15 16
M  V30 16 1 16 17
M  V30 17 1 17 18
M  V30 18 1 18 19
M  V30 19 1 19 20
M  V30 20 1 20 21
M  V30 21 1 21 22
M  V30 22 1 22 23
M  V30 23 2 15 24
M  V30 24 1 24 25
M  V30 25 1 25 26
M  V30 26 1 26 27
M  V30 27 2 27 28
M  V30 28 1 28 29
M  V30 29 2 29 30
M  V30 30 1 30 31
M  V30 31 2 31 32
M  V30 32 2 25 33
M  V30 33 1 33 34
M  V30 34 1 10 35
M  V30 35 2 35 36
M  V30 36 1 6 4
M  V30 37 1 36 7
M  V30 38 1 34 11
M  V30 39 1 34 14
M  V30 40 1 23 18
M  V30 41 1 32 27
M  V30 42 1 3 37
M  V30 43 1 4 38
M  V30 44 1 5 39
M  V30 45 1 5 40
M  V30 46 1 6 41
M  V30 47 1 6 42
M  V30 48 1 8 43
M  V30 49 1 9 44
M  V30 50 1 12 45
M  V30 51 1 16 46
M  V30 52 1 17 47
M  V30 53 1 17 48
M  V30 54 1 18 49
M  V30 55 1 19 50
M  V30 56 1 19 51
M  V30 57 1 20 52
M  V30 58 1 20 53
M  V30 59 1 22 54
M  V30 60 1 22 55
M  V30 61 1 23 56
M  V30 62 1 23 57
M  V30 63 1 24 58
M  V30 64 1 26 59
M  V30 65 1 28 60
M  V30 66 1 29 61
M  V30 67 1 30 62
M  V30 68 1 31 63
M  V30 69 1 32 64
M  V30 70 1 35 65
M  V30 71 1 36 66
M  V30 END BOND
M  V30 END CTAB
M  END
>  <Dataset>  (341) 
ChEMBL_Kinases

>  <Ligand_Instance>  (341) 
nan

>  <PDB_ID>  (341) 
nan

>  <Standardized_SMILES>  (341) 
O=C(NC1CC1)c1ccc(-c2cnc3c(NCC4CCOCC4)cc(Nc4ccccc4)nn23)cc1

>  <Name>  (341) 
nan

>  <Pocket>  (341) 
nan

>  <ATP_Site>  (341) 
nan

>  <Peripheral>  (341) 
nan

>  <Num_H_Atoms_ProtBoundConf>  (341) 
nan

>  <Num_Resolved_Atoms>  (341) 
nan

>  <Num_Not_Resolved_Atoms>  (341) 
nan

$$$$
CHEMBL3410078
     RDKit          3D

  0  0  0  0  0  0  0  0  0  0999 V3000
M  V30 BEGIN CTAB
M  V30 COUNTS 66 71 0 0 0
M  V30 BEGIN ATOM
M  V30 1 O 6.412165 -1.792031 3.131591 0
M  V30 2 C 5.880213 -0.719358 3.518077 0
M  V30 3 N 6.568281 -0.110709 4.603427 0
M  V30 4 C 7.749337 -0.675277 5.188345 0
M  V30 5 C 7.696290 -0.721661 6.714224 0
M  V30 6 C 8.704317 0.097267 5.977654 0
M  V30 7 C 4.686542 -0.139737 2.934075 0
M  V30 8 C 4.092002 1.034780 3.345930 0
M  V30 9 C 2.953457 1.530037 2.743283 0
M  V30 10 C 2.382867 0.838120 1.695493 0
M  V30 11 C 1.168430 1.256488 0.965431 0
M  V30 12 C 0.888241 2.522256 0.513175 0
M  V30 13 N -0.308637 2.382691 -0.072371 0
M  V30 14 C -0.722842 1.102754 0.023957 0
M  V30 15 C -1.907591 0.525710 -0.449023 0
M  V30 16 N -2.904936 1.266498 -1.130885 0
M  V30 17 C -4.164361 0.845920 -1.691426 0
M  V30 18 C -4.054718 -0.081702 -2.852927 0
M  V30 19 C -5.489441 -0.399711 -3.288166 0
M  V30 20 C -5.934662 0.454454 -4.444989 0
M  V30 21 O -5.496652 1.748931 -4.250868 0
M  V30 22 C -4.120797 1.876236 -4.433366 0
M  V30 23 C -3.365041 0.639998 -3.997029 0
M  V30 24 C -2.026062 -0.814555 -0.184596 0
M  V30 25 C -1.098063 -1.560411 0.476284 0
M  V30 26 O -1.073365 -2.884953 0.810929 0
M  V30 27 C -2.088691 -3.758195 0.479582 0
M  V30 28 C -2.657478 -4.295097 1.637581 0
M  V30 29 C -3.706185 -5.207865 1.588267 0
M  V30 30 C -4.192716 -5.588335 0.348073 0
M  V30 31 C -3.629983 -5.057573 -0.790871 0
M  V30 32 C -2.590300 -4.152918 -0.739837 0
M  V30 33 O -1.949033 -3.557567 -1.809055 0
M  V30 34 N 0.027800 -0.911129 0.901201 0
M  V30 35 N 0.187228 0.385172 0.669129 0
M  V30 36 C 2.980346 -0.353028 1.273015 0
M  V30 37 C 4.118799 -0.847564 1.876154 0
M  V30 38 H 6.230238 0.785995 5.019825 0
M  V30 39 H 8.115827 -1.634125 4.747160 0
M  V30 40 H 6.848526 -0.256826 7.238308 0
M  V30 41 H 8.084700 -1.632095 7.236426 0
M  V30 42 H 8.652334 1.177926 6.139796 0
M  V30 43 H 9.768506 -0.269425 6.008351 0
M  V30 44 H 4.547596 1.570672 4.169397 0
M  V30 45 H 2.481979 2.433615 3.047806 0
M  V30 46 H 1.532140 3.379736 0.638259 0
M  V30 47 H -2.665825 2.300683 -1.236666 0
M  V30 48 H -4.741744 1.736158 -2.036816 0
M  V30 49 H -4.767222 0.305448 -0.900443 0
M  V30 50 H -3.550757 -1.025607 -2.701314 0
M  V30 51 H -6.217370 -0.237518 -2.458481 0
M  V30 52 H -5.578626 -1.468724 -3.583234 0
M  V30 53 H -7.046312 0.469223 -4.438279 0
M  V30 54 H -5.564339 0.034347 -5.403495 0
M  V30 55 H -3.893775 2.028780 -5.519632 0
M  V30 56 H -3.765266 2.795531 -3.908761 0
M  V30 57 H -2.364512 0.957718 -3.633308 0
M  V30 58 H -3.313727 -0.068098 -4.848559 0
M  V30 59 H -2.882913 -1.371662 -0.478917 0
M  V30 60 H -2.371486 -4.082294 2.674220 0
M  V30 61 H -4.175992 -5.647587 2.438501 0
M  V30 62 H -5.005190 -6.290083 0.160311 0
M  V30 63 H -3.946792 -5.297867 -1.810203 0
M  V30 64 H -0.939206 -3.453109 -1.863316 0
M  V30 65 H 2.544653 -0.900929 0.457419 0
M  V30 66 H 4.526577 -1.792120 1.483415 0
M  V30 END ATOM
M  V30 BEGIN BOND
M  V30 1 2 1 2
M  V30 2 1 2 3
M  V30 3 1 3 4
M  V30 4 1 4 5
M  V30 5 1 5 6
M  V30 6 1 2 7
M  V30 7 2 7 8
M  V30 8 1 8 9
M  V30 9 2 9 10
M  V30 10 1 10 11
M  V30 11 2 11 12
M  V30 12 1 12 13
M  V30 13 2 13 14
M  V30 14 1 14 15
M  V30 15 1 15 16
M  V30 16 1 16 17
M  V30 17 1 17 18
M  V30 18 1 18 19
M  V30 19 1 19 20
M  V30 20 1 20 21
M  V30 21 1 21 22
M  V30 22 1 22 23
M  V30 23 2 15 24
M  V30 24 1 24 25
M  V30 25 1 25 26
M  V30 26 1 26 27
M  V30 27 2 27 28
M  V30 28 1 28 29
M  V30 29 2 29 30
M  V30 30 1 30 31
M  V30 31 2 31 32
M  V30 32 1 32 33
M  V30 33 2 25 34
M  V30 34 1 34 35
M  V30 35 1 10 36
M  V30 36 2 36 37
M  V30 37 1 6 4
M  V30 38 1 37 7
M  V30 39 1 35 11
M  V30 40 1 35 14
M  V30 41 1 23 18
M  V30 42 1 32 27
M  V30 43 1 3 38
M  V30 44 1 4 39
M  V30 45 1 5 40
M  V30 46 1 5 41
M  V30 47 1 6 42
M  V30 48 1 6 43
M  V30 49 1 8 44
M  V30 50 1 9 45
M  V30 51 1 12 46
M  V30 52 1 16 47
M  V30 53 1 17 48
M  V30 54 1 17 49
M  V30 55 1 18 50
M  V30 56 1 19 51
M  V30 57 1 19 52
M  V30 58 1 20 53
M  V30 59 1 20 54
M  V30 60 1 22 55
M  V30 61 1 22 56
M  V30 62 1 23 57
M  V30 63 1 23 58
M  V30 64 1 24 59
M  V30 65 1 28 60
M  V30 66 1 29 61
M  V30 67 1 30 62
M  V30 68 1 31 63
M  V30 69 1 33 64
M  V30 70 1 36 65
M  V30 71 1 37 66
M  V30 END BOND
M  V30 END CTAB
M  END
>  <Dataset>  (342) 
ChEMBL_Kinases

>  <Ligand_Instance>  (342) 
nan

>  <PDB_ID>  (342) 
nan

>  <Standardized_SMILES>  (342) 
O=C(NC1CC1)c1ccc(-c2cnc3c(NCC4CCOCC4)cc(Oc4ccccc4O)nn23)cc1

>  <Name>  (342) 
nan

>  <Pocket>  (342) 
nan

>  <ATP_Site>  (342) 
nan

>  <Peripheral>  (342) 
nan

>  <Num_H_Atoms_ProtBoundConf>  (342) 
nan

>  <Num_Resolved_Atoms>  (342) 
nan

>  <Num_Not_Resolved_Atoms>  (342) 
nan

$$$$
CHEMBL3410077
     RDKit          3D

  0  0  0  0  0  0  0  0  0  0999 V3000
M  V30 BEGIN CTAB
M  V30 COUNTS 65 70 0 0 0
M  V30 BEGIN ATOM
M  V30 1 O 4.751361 2.044024 5.965464 0
M  V30 2 C 4.726935 1.235239 5.002041 0
M  V30 3 N 5.770237 0.272949 4.909601 0
M  V30 4 C 6.852084 0.196462 5.883460 0
M  V30 5 C 8.120254 -0.416564 5.461025 0
M  V30 6 C 7.252122 -1.214901 6.360602 0
M  V30 7 C 3.629851 1.339421 4.044999 0
M  V30 8 C 2.694534 2.327080 4.280197 0
M  V30 9 C 1.598666 2.522225 3.429816 0
M  V30 10 C 1.492598 1.675125 2.333971 0
M  V30 11 C 0.382065 1.775700 1.359371 0
M  V30 12 C -0.075045 2.964535 0.826808 0
M  V30 13 N -1.074421 2.603383 0.001212 0
M  V30 14 C -1.188152 1.265198 0.055652 0
M  V30 15 C -2.091337 0.453895 -0.635336 0
M  V30 16 N -3.088347 0.919351 -1.535153 0
M  V30 17 C -4.063252 0.214306 -2.313401 0
M  V30 18 C -3.527676 -0.647271 -3.403591 0
M  V30 19 C -4.723521 -1.296894 -4.093760 0
M  V30 20 C -5.280315 -0.475736 -5.210807 0
M  V30 21 O -5.115422 0.881986 -5.087506 0
M  V30 22 C -3.812363 1.295238 -4.956117 0
M  V30 23 C -2.882161 0.237434 -4.457769 0
M  V30 24 C -1.952232 -0.896417 -0.360118 0
M  V30 25 C -1.024595 -1.436642 0.506083 0
M  V30 26 O -0.842689 -2.753677 0.814374 0
M  V30 27 C -1.517518 -3.840932 0.348713 0
M  V30 28 C -2.151917 -4.556089 1.368784 0
M  V30 29 C -2.889986 -5.698705 1.081804 0
M  V30 30 C -3.018179 -6.159541 -0.212821 0
M  V30 31 C -2.392221 -5.453193 -1.215771 0
M  V30 32 C -1.655710 -4.317606 -0.951113 0
M  V30 33 F -1.021380 -3.583866 -1.869187 0
M  V30 34 N -0.178923 -0.569998 1.140708 0
M  V30 35 N -0.299038 0.712490 0.890148 0
M  V30 36 C 2.435696 0.691610 2.111244 0
M  V30 37 C 3.515263 0.503080 2.953335 0
M  V30 38 H 5.768031 -0.407030 4.118158 0
M  V30 39 H 6.779059 0.949378 6.685859 0
M  V30 40 H 8.170164 -0.747924 4.394972 0
M  V30 41 H 9.038134 0.001299 5.887529 0
M  V30 42 H 6.605084 -2.042990 5.958355 0
M  V30 43 H 7.525845 -1.354708 7.418034 0
M  V30 44 H 2.719282 3.024839 5.121326 0
M  V30 45 H 0.847224 3.285141 3.583055 0
M  V30 46 H 0.298631 3.961841 1.036885 0
M  V30 47 H -3.061408 1.984388 -1.606259 0
M  V30 48 H -4.743612 0.965218 -2.782637 0
M  V30 49 H -4.743903 -0.406658 -1.682145 0
M  V30 50 H -2.813726 -1.407033 -3.115139 0
M  V30 51 H -5.494659 -1.490906 -3.344264 0
M  V30 52 H -4.437087 -2.300626 -4.505051 0
M  V30 53 H -6.384933 -0.648823 -5.307662 0
M  V30 54 H -4.862070 -0.764820 -6.205287 0
M  V30 55 H -3.449804 1.654082 -5.959859 0
M  V30 56 H -3.784165 2.226918 -4.323711 0
M  V30 57 H -2.502777 -0.348946 -5.311471 0
M  V30 58 H -1.997798 0.718496 -4.000944 0
M  V30 59 H -2.566324 -1.655694 -0.794616 0
M  V30 60 H -2.143648 -4.321330 2.424718 0
M  V30 61 H -3.402432 -6.292331 1.830085 0
M  V30 62 H -3.583817 -7.048400 -0.495589 0
M  V30 63 H -2.416965 -5.711564 -2.269505 0
M  V30 64 H 2.353100 0.027067 1.252178 0
M  V30 65 H 4.248243 -0.269390 2.770813 0
M  V30 END ATOM
M  V30 BEGIN BOND
M  V30 1 2 1 2
M  V30 2 1 2 3
M  V30 3 1 3 4
M  V30 4 1 4 5
M  V30 5 1 5 6
M  V30 6 1 2 7
M  V30 7 2 7 8
M  V30 8 1 8 9
M  V30 9 2 9 10
M  V30 10 1 10 11
M  V30 11 2 11 12
M  V30 12 1 12 13
M  V30 13 2 13 14
M  V30 14 1 14 15
M  V30 15 1 15 16
M  V30 16 1 16 17
M  V30 17 1 17 18
M  V30 18 1 18 19
M  V30 19 1 19 20
M  V30 20 1 20 21
M  V30 21 1 21 22
M  V30 22 1 22 23
M  V30 23 2 15 24
M  V30 24 1 24 25
M  V30 25 1 25 26
M  V30 26 1 26 27
M  V30 27 2 27 28
M  V30 28 1 28 29
M  V30 29 2 29 30
M  V30 30 1 30 31
M  V30 31 2 31 32
M  V30 32 1 32 33
M  V30 33 2 25 34
M  V30 34 1 34 35
M  V30 35 1 10 36
M  V30 36 2 36 37
M  V30 37 1 6 4
M  V30 38 1 37 7
M  V30 39 1 35 11
M  V30 40 1 35 14
M  V30 41 1 23 18
M  V30 42 1 32 27
M  V30 43 1 3 38
M  V30 44 1 4 39
M  V30 45 1 5 40
M  V30 46 1 5 41
M  V30 47 1 6 42
M  V30 48 1 6 43
M  V30 49 1 8 44
M  V30 50 1 9 45
M  V30 51 1 12 46
M  V30 52 1 16 47
M  V30 53 1 17 48
M  V30 54 1 17 49
M  V30 55 1 18 50
M  V30 56 1 19 51
M  V30 57 1 19 52
M  V30 58 1 20 53
M  V30 59 1 20 54
M  V30 60 1 22 55
M  V30 61 1 22 56
M  V30 62 1 23 57
M  V30 63 1 23 58
M  V30 64 1 24 59
M  V30 65 1 28 60
M  V30 66 1 29 61
M  V30 67 1 30 62
M  V30 68 1 31 63
M  V30 69 1 36 64
M  V30 70 1 37 65
M  V30 END BOND
M  V30 END CTAB
M  END
>  <Dataset>  (343) 
ChEMBL_Kinases

>  <Ligand_Instance>  (343) 
nan

>  <PDB_ID>  (343) 
nan

>  <Standardized_SMILES>  (343) 
O=C(NC1CC1)c1ccc(-c2cnc3c(NCC4CCOCC4)cc(Oc4ccccc4F)nn23)cc1

>  <Name>  (343) 
nan

>  <Pocket>  (343) 
nan

>  <ATP_Site>  (343) 
nan

>  <Peripheral>  (343) 
nan

>  <Num_H_Atoms_ProtBoundConf>  (343) 
nan

>  <Num_Resolved_Atoms>  (343) 
nan

>  <Num_Not_Resolved_Atoms>  (343) 
nan

$$$$
CHEMBL3410076
     RDKit          3D

  0  0  0  0  0  0  0  0  0  0999 V3000
M  V30 BEGIN CTAB
M  V30 COUNTS 65 70 0 0 0
M  V30 BEGIN ATOM
M  V30 1 O 3.670520 2.798890 6.198748 0
M  V30 2 C 4.342633 2.120782 5.378695 0
M  V30 3 N 5.678848 1.790951 5.646387 0
M  V30 4 C 6.441024 2.153715 6.827783 0
M  V30 5 C 7.944595 2.179911 6.733951 0
M  V30 6 C 7.312371 0.973559 7.357772 0
M  V30 7 C 3.652794 1.711463 4.160856 0
M  V30 8 C 2.335345 2.065485 3.964066 0
M  V30 9 C 1.609375 1.718295 2.843481 0
M  V30 10 C 2.197515 0.975987 1.840753 0
M  V30 11 C 1.619095 0.501013 0.586455 0
M  V30 12 C 2.223536 0.574759 -0.634670 0
M  V30 13 N 1.398290 0.037535 -1.550633 0
M  V30 14 C 0.283324 -0.366827 -0.887315 0
M  V30 15 C -0.879934 -0.977509 -1.307156 0
M  V30 16 N -1.104843 -1.311429 -2.681734 0
M  V30 17 C -2.332674 -1.938506 -3.026296 0
M  V30 18 C -2.507590 -2.247831 -4.494630 0
M  V30 19 C -3.828799 -2.906366 -4.746179 0
M  V30 20 C -4.884947 -2.070025 -5.363349 0
M  V30 21 O -4.441593 -1.023228 -6.155594 0
M  V30 22 C -3.641596 -0.244888 -5.302848 0
M  V30 23 C -2.309367 -0.973445 -5.267394 0
M  V30 24 C -1.810434 -1.246031 -0.341952 0
M  V30 25 C -1.708125 -0.970239 1.006283 0
M  V30 26 O -2.722343 -1.284590 1.921310 0
M  V30 27 C -3.852575 -1.924897 1.362632 0
M  V30 28 C -3.615113 -3.289106 1.476736 0
M  V30 29 C -4.575624 -4.185636 1.000526 0
M  V30 30 C -5.751027 -3.696104 0.421407 0
M  V30 31 F -6.742820 -4.456087 -0.070474 0
M  V30 32 C -5.927781 -2.349747 0.337373 0
M  V30 33 C -5.004403 -1.436391 0.795324 0
M  V30 34 N -0.529937 -0.366990 1.340943 0
M  V30 35 N 0.395363 -0.090643 0.438457 0
M  V30 36 C 3.536321 0.599081 2.008289 0
M  V30 37 C 4.235619 0.969677 3.155220 0
M  V30 38 H 6.202710 1.230947 4.946435 0
M  V30 39 H 5.922682 2.763099 7.606812 0
M  V30 40 H 8.349834 2.100816 5.703196 0
M  V30 41 H 8.446803 2.856173 7.456404 0
M  V30 42 H 7.340161 0.053171 6.748048 0
M  V30 43 H 7.301205 0.841578 8.440367 0
M  V30 44 H 1.817974 2.641955 4.702936 0
M  V30 45 H 0.582876 1.969030 2.643606 0
M  V30 46 H 3.201891 0.983379 -0.900848 0
M  V30 47 H -0.330711 -1.066891 -3.360753 0
M  V30 48 H -3.162499 -1.214547 -2.773410 0
M  V30 49 H -2.575474 -2.835686 -2.429436 0
M  V30 50 H -1.712131 -2.951027 -4.817694 0
M  V30 51 H -4.228131 -3.248354 -3.753687 0
M  V30 52 H -3.744516 -3.846624 -5.336737 0
M  V30 53 H -5.551503 -1.610782 -4.577265 0
M  V30 54 H -5.584492 -2.679272 -5.978438 0
M  V30 55 H -3.467840 0.770741 -5.680663 0
M  V30 56 H -4.120701 -0.229461 -4.299688 0
M  V30 57 H -1.523345 -0.353736 -4.840191 0
M  V30 58 H -2.041542 -1.210147 -6.317795 0
M  V30 59 H -2.722909 -1.724195 -0.669837 0
M  V30 60 H -2.787800 -3.844718 1.884129 0
M  V30 61 H -4.530745 -5.268977 1.020271 0
M  V30 62 H -6.812897 -1.862402 -0.098916 0
M  V30 63 H -4.994661 -0.360093 0.802244 0
M  V30 64 H 4.085377 0.008602 1.263068 0
M  V30 65 H 5.254278 0.665025 3.249411 0
M  V30 END ATOM
M  V30 BEGIN BOND
M  V30 1 2 1 2
M  V30 2 1 2 3
M  V30 3 1 3 4
M  V30 4 1 4 5
M  V30 5 1 5 6
M  V30 6 1 2 7
M  V30 7 2 7 8
M  V30 8 1 8 9
M  V30 9 2 9 10
M  V30 10 1 10 11
M  V30 11 2 11 12
M  V30 12 1 12 13
M  V30 13 2 13 14
M  V30 14 1 14 15
M  V30 15 1 15 16
M  V30 16 1 16 17
M  V30 17 1 17 18
M  V30 18 1 18 19
M  V30 19 1 19 20
M  V30 20 1 20 21
M  V30 21 1 21 22
M  V30 22 1 22 23
M  V30 23 2 15 24
M  V30 24 1 24 25
M  V30 25 1 25 26
M  V30 26 1 26 27
M  V30 27 2 27 28
M  V30 28 1 28 29
M  V30 29 2 29 30
M  V30 30 1 30 31
M  V30 31 1 30 32
M  V30 32 2 32 33
M  V30 33 2 25 34
M  V30 34 1 34 35
M  V30 35 1 10 36
M  V30 36 2 36 37
M  V30 37 1 6 4
M  V30 38 1 37 7
M  V30 39 1 35 11
M  V30 40 1 35 14
M  V30 41 1 23 18
M  V30 42 1 33 27
M  V30 43 1 3 38
M  V30 44 1 4 39
M  V30 45 1 5 40
M  V30 46 1 5 41
M  V30 47 1 6 42
M  V30 48 1 6 43
M  V30 49 1 8 44
M  V30 50 1 9 45
M  V30 51 1 12 46
M  V30 52 1 16 47
M  V30 53 1 17 48
M  V30 54 1 17 49
M  V30 55 1 18 50
M  V30 56 1 19 51
M  V30 57 1 19 52
M  V30 58 1 20 53
M  V30 59 1 20 54
M  V30 60 1 22 55
M  V30 61 1 22 56
M  V30 62 1 23 57
M  V30 63 1 23 58
M  V30 64 1 24 59
M  V30 65 1 28 60
M  V30 66 1 29 61
M  V30 67 1 32 62
M  V30 68 1 33 63
M  V30 69 1 36 64
M  V30 70 1 37 65
M  V30 END BOND
M  V30 END CTAB
M  END
>  <Dataset>  (344) 
ChEMBL_Kinases

>  <Ligand_Instance>  (344) 
nan

>  <PDB_ID>  (344) 
nan

>  <Standardized_SMILES>  (344) 
O=C(NC1CC1)c1ccc(-c2cnc3c(NCC4CCOCC4)cc(Oc4ccc(F)cc4)nn23)cc1

>  <Name>  (344) 
nan

>  <Pocket>  (344) 
nan

>  <ATP_Site>  (344) 
nan

>  <Peripheral>  (344) 
nan

>  <Num_H_Atoms_ProtBoundConf>  (344) 
nan

>  <Num_Resolved_Atoms>  (344) 
nan

>  <Num_Not_Resolved_Atoms>  (344) 
nan

$$$$
CHEMBL3410075
     RDKit          3D

  0  0  0  0  0  0  0  0  0  0999 V3000
M  V30 BEGIN CTAB
M  V30 COUNTS 65 70 0 0 0
M  V30 BEGIN ATOM
M  V30 1 O 6.772591 -1.664311 2.367642 0
M  V30 2 C 6.396871 -0.518380 2.726098 0
M  V30 3 N 7.203111 0.285904 3.578164 0
M  V30 4 C 8.483464 -0.174459 4.068047 0
M  V30 5 C 8.622528 -0.056769 5.590455 0
M  V30 6 C 9.460627 0.739459 4.660658 0
M  V30 7 C 5.102669 -0.070339 2.222356 0
M  V30 8 C 4.392898 -0.923262 1.400140 0
M  V30 9 C 3.146478 -0.530545 0.895778 0
M  V30 10 C 2.588223 0.716614 1.202284 0
M  V30 11 C 1.278093 1.001959 0.608820 0
M  V30 12 C 1.005703 2.218761 0.020226 0
M  V30 13 N -0.266866 2.107708 -0.400205 0
M  V30 14 C -0.736490 0.887566 -0.081437 0
M  V30 15 C -1.999470 0.327395 -0.317890 0
M  V30 16 N -3.033364 1.037033 -0.967330 0
M  V30 17 C -4.367601 0.681630 -1.321414 0
M  V30 18 C -4.518466 -0.376599 -2.360414 0
M  V30 19 C -5.989160 -0.674090 -2.658304 0
M  V30 20 C -6.573162 0.429526 -3.490387 0
M  V30 21 O -5.926936 0.423993 -4.728005 0
M  V30 22 C -4.636197 0.914466 -4.525760 0
M  V30 23 C -3.849812 -0.025506 -3.666085 0
M  V30 24 C -2.113353 -0.961317 0.158785 0
M  V30 25 C -1.151555 -1.697887 0.806181 0
M  V30 26 O -1.333948 -2.979169 1.254554 0
M  V30 27 C -2.553344 -3.628415 1.069814 0
M  V30 28 C -3.429931 -3.436083 2.099633 0
M  V30 29 C -4.703550 -4.007119 2.095587 0
M  V30 30 C -5.067090 -4.790845 0.999410 0
M  V30 31 C -4.171628 -4.973860 -0.028837 0
M  V30 32 C -2.919608 -4.405346 -0.012215 0
M  V30 33 N 0.036687 -1.045281 0.977975 0
M  V30 34 N 0.209232 0.186943 0.545772 0
M  V30 35 C 3.310859 1.558082 2.026033 0
M  V30 36 C 4.537840 1.155046 2.514349 0
M  V30 37 H 6.888167 1.235611 3.873170 0
M  V30 38 H 8.751692 -1.201222 3.708555 0
M  V30 39 H 7.842543 0.513802 6.143595 0
M  V30 40 H 9.080146 -0.884609 6.153568 0
M  V30 41 H 10.525827 0.471385 4.522185 0
M  V30 42 H 9.236224 1.832016 4.557063 0
M  V30 43 H 4.753705 -1.919274 1.107641 0
M  V30 44 H 2.611343 -1.226531 0.249581 0
M  V30 45 H 1.629223 3.086312 -0.100565 0
M  V30 46 H -2.760044 2.029772 -1.246257 0
M  V30 47 H -4.911032 0.347324 -0.382440 0
M  V30 48 H -4.963779 1.553663 -1.658383 0
M  V30 49 H -4.092932 -1.344372 -2.047833 0
M  V30 50 H -6.525060 -0.747427 -1.697449 0
M  V30 51 H -6.027976 -1.613417 -3.247119 0
M  V30 52 H -7.641433 0.188983 -3.680735 0
M  V30 53 H -6.483457 1.409182 -3.006110 0
M  V30 54 H -4.644747 1.956663 -4.151945 0
M  V30 55 H -4.139463 0.933089 -5.518006 0
M  V30 56 H -3.788189 -0.987941 -4.252836 0
M  V30 57 H -2.819602 0.316693 -3.543799 0
M  V30 58 H -3.043530 -1.497350 0.043495 0
M  V30 59 H -3.290721 -2.855930 3.013375 0
M  V30 60 H -5.476753 -3.934581 2.832585 0
M  V30 61 H -6.022462 -5.279822 0.889351 0
M  V30 62 H -4.372320 -5.567907 -0.918583 0
M  V30 63 H -2.148143 -4.489546 -0.768558 0
M  V30 64 H 2.866614 2.499349 2.244546 0
M  V30 65 H 5.078750 1.835779 3.156221 0
M  V30 END ATOM
M  V30 BEGIN BOND
M  V30 1 2 1 2
M  V30 2 1 2 3
M  V30 3 1 3 4
M  V30 4 1 4 5
M  V30 5 1 5 6
M  V30 6 1 2 7
M  V30 7 2 7 8
M  V30 8 1 8 9
M  V30 9 2 9 10
M  V30 10 1 10 11
M  V30 11 2 11 12
M  V30 12 1 12 13
M  V30 13 2 13 14
M  V30 14 1 14 15
M  V30 15 1 15 16
M  V30 16 1 16 17
M  V30 17 1 17 18
M  V30 18 1 18 19
M  V30 19 1 19 20
M  V30 20 1 20 21
M  V30 21 1 21 22
M  V30 22 1 22 23
M  V30 23 2 15 24
M  V30 24 1 24 25
M  V30 25 1 25 26
M  V30 26 1 26 27
M  V30 27 2 27 28
M  V30 28 1 28 29
M  V30 29 2 29 30
M  V30 30 1 30 31
M  V30 31 2 31 32
M  V30 32 2 25 33
M  V30 33 1 33 34
M  V30 34 1 10 35
M  V30 35 2 35 36
M  V30 36 1 6 4
M  V30 37 1 36 7
M  V30 38 1 34 11
M  V30 39 1 34 14
M  V30 40 1 23 18
M  V30 41 1 32 27
M  V30 42 1 3 37
M  V30 43 1 4 38
M  V30 44 1 5 39
M  V30 45 1 5 40
M  V30 46 1 6 41
M  V30 47 1 6 42
M  V30 48 1 8 43
M  V30 49 1 9 44
M  V30 50 1 12 45
M  V30 51 1 16 46
M  V30 52 1 17 47
M  V30 53 1 17 48
M  V30 54 1 18 49
M  V30 55 1 19 50
M  V30 56 1 19 51
M  V30 57 1 20 52
M  V30 58 1 20 53
M  V30 59 1 22 54
M  V30 60 1 22 55
M  V30 61 1 23 56
M  V30 62 1 23 57
M  V30 63 1 24 58
M  V30 64 1 28 59
M  V30 65 1 29 60
M  V30 66 1 30 61
M  V30 67 1 31 62
M  V30 68 1 32 63
M  V30 69 1 35 64
M  V30 70 1 36 65
M  V30 END BOND
M  V30 END CTAB
M  END
>  <Dataset>  (345) 
ChEMBL_Kinases

>  <Ligand_Instance>  (345) 
nan

>  <PDB_ID>  (345) 
nan

>  <Standardized_SMILES>  (345) 
O=C(NC1CC1)c1ccc(-c2cnc3c(NCC4CCOCC4)cc(Oc4ccccc4)nn23)cc1

>  <Name>  (345) 
nan

>  <Pocket>  (345) 
nan

>  <ATP_Site>  (345) 
nan

>  <Peripheral>  (345) 
nan

>  <Num_H_Atoms_ProtBoundConf>  (345) 
nan

>  <Num_Resolved_Atoms>  (345) 
nan

>  <Num_Not_Resolved_Atoms>  (345) 
nan

$$$$
CHEMBL3410074
     RDKit          3D

  0  0  0  0  0  0  0  0  0  0999 V3000
M  V30 BEGIN CTAB
M  V30 COUNTS 71 76 0 0 0
M  V30 BEGIN ATOM
M  V30 1 O 7.394148 0.105694 0.655212 0
M  V30 2 C 6.336913 0.494824 1.192999 0
M  V30 3 N 6.505464 0.901927 2.533824 0
M  V30 4 C 7.777198 0.879286 3.241090 0
M  V30 5 C 7.646735 0.306207 4.656740 0
M  V30 6 C 7.998855 1.753263 4.411211 0
M  V30 7 C 5.032161 0.534610 0.517307 0
M  V30 8 C 3.849139 0.960266 1.086972 0
M  V30 9 C 2.672268 0.958185 0.363193 0
M  V30 10 C 2.644287 0.531442 -0.948131 0
M  V30 11 C 1.331916 0.570557 -1.629519 0
M  V30 12 C 1.116343 1.048702 -2.903360 0
M  V30 13 N -0.203793 0.889738 -3.100115 0
M  V30 14 C -0.721808 0.347841 -1.996146 0
M  V30 15 C -2.047722 0.006029 -1.745485 0
M  V30 16 N -3.127797 0.192568 -2.647876 0
M  V30 17 C -4.531576 -0.089279 -2.604697 0
M  V30 18 C -4.894500 -1.539813 -2.597783 0
M  V30 19 C -6.404404 -1.661961 -2.550612 0
M  V30 20 C -6.983213 -1.796302 -3.948374 0
M  V30 21 O -6.223325 -1.118658 -4.879134 0
M  V30 22 C -4.981917 -1.668391 -5.081268 0
M  V30 23 C -4.369949 -2.256492 -3.833789 0
M  V30 24 C -2.319716 -0.542931 -0.513737 0
M  V30 25 C -1.363556 -0.762111 0.451853 0
M  V30 26 O -1.372511 -1.281417 1.726764 0
M  V30 27 C -2.568230 -1.730007 2.300784 0
M  V30 28 C -2.880345 -0.992214 3.598652 0
M  V30 29 C -1.588645 -0.791036 4.327098 0
M  V30 30 C -0.699508 -1.980164 4.205778 0
M  V30 31 C -1.424673 -3.268780 3.912112 0
M  V30 32 C -2.336590 -3.173010 2.729257 0
M  V30 33 N -0.081796 -0.403725 0.140026 0
M  V30 34 N 0.183660 0.123420 -1.039885 0
M  V30 35 C 3.828009 0.097190 -1.543383 0
M  V30 36 C 4.990641 0.108492 -0.800257 0
M  V30 37 H 5.685807 1.251999 3.098544 0
M  V30 38 H 8.650703 0.521214 2.684705 0
M  V30 39 H 8.461626 -0.382256 5.009096 0
M  V30 40 H 6.638525 0.152858 5.076668 0
M  V30 41 H 9.036065 2.077206 4.622545 0
M  V30 42 H 7.251634 2.537244 4.682775 0
M  V30 43 H 3.895859 1.290166 2.115977 0
M  V30 44 H 1.798755 1.312204 0.904271 0
M  V30 45 H 1.897370 1.446969 -3.536063 0
M  V30 46 H -2.780596 0.644376 -3.550357 0
M  V30 47 H -4.926797 0.353077 -1.635482 0
M  V30 48 H -5.048234 0.488285 -3.385150 0
M  V30 49 H -4.484648 -2.086259 -1.739291 0
M  V30 50 H -6.826780 -0.779107 -2.057709 0
M  V30 51 H -6.654000 -2.595187 -2.023002 0
M  V30 52 H -7.017858 -2.880497 -4.256705 0
M  V30 53 H -8.029050 -1.436290 -3.975946 0
M  V30 54 H -4.286330 -0.841704 -5.400730 0
M  V30 55 H -4.929537 -2.404376 -5.911363 0
M  V30 56 H -4.654317 -3.327909 -3.826410 0
M  V30 57 H -3.268828 -2.239975 -3.867743 0
M  V30 58 H -3.285337 -0.855538 -0.151451 0
M  V30 59 H -3.456175 -1.629954 1.669136 0
M  V30 60 H -3.445861 -0.056017 3.437422 0
M  V30 61 H -3.529469 -1.661114 4.194141 0
M  V30 62 H -1.814847 -0.506510 5.391322 0
M  V30 63 H -1.063499 0.115828 3.920447 0
M  V30 64 H 0.122309 -1.809235 3.463918 0
M  V30 65 H -0.178036 -2.121730 5.188651 0
M  V30 66 H -0.633693 -4.019684 3.658293 0
M  V30 67 H -1.909344 -3.642478 4.839058 0
M  V30 68 H -3.333045 -3.559274 3.049435 0
M  V30 69 H -2.030251 -3.755877 1.849812 0
M  V30 70 H 3.758184 -0.228640 -2.573987 0
M  V30 71 H 5.844803 -0.255192 -1.382549 0
M  V30 END ATOM
M  V30 BEGIN BOND
M  V30 1 2 1 2
M  V30 2 1 2 3
M  V30 3 1 3 4
M  V30 4 1 4 5
M  V30 5 1 5 6
M  V30 6 1 2 7
M  V30 7 2 7 8
M  V30 8 1 8 9
M  V30 9 2 9 10
M  V30 10 1 10 11
M  V30 11 2 11 12
M  V30 12 1 12 13
M  V30 13 2 13 14
M  V30 14 1 14 15
M  V30 15 1 15 16
M  V30 16 1 16 17
M  V30 17 1 17 18
M  V30 18 1 18 19
M  V30 19 1 19 20
M  V30 20 1 20 21
M  V30 21 1 21 22
M  V30 22 1 22 23
M  V30 23 2 15 24
M  V30 24 1 24 25
M  V30 25 1 25 26
M  V30 26 1 26 27
M  V30 27 1 27 28
M  V30 28 1 28 29
M  V30 29 1 29 30
M  V30 30 1 30 31
M  V30 31 1 31 32
M  V30 32 2 25 33
M  V30 33 1 33 34
M  V30 34 1 10 35
M  V30 35 2 35 36
M  V30 36 1 6 4
M  V30 37 1 36 7
M  V30 38 1 34 11
M  V30 39 1 34 14
M  V30 40 1 23 18
M  V30 41 1 32 27
M  V30 42 1 3 37
M  V30 43 1 4 38
M  V30 44 1 5 39
M  V30 45 1 5 40
M  V30 46 1 6 41
M  V30 47 1 6 42
M  V30 48 1 8 43
M  V30 49 1 9 44
M  V30 50 1 12 45
M  V30 51 1 16 46
M  V30 52 1 17 47
M  V30 53 1 17 48
M  V30 54 1 18 49
M  V30 55 1 19 50
M  V30 56 1 19 51
M  V30 57 1 20 52
M  V30 58 1 20 53
M  V30 59 1 22 54
M  V30 60 1 22 55
M  V30 61 1 23 56
M  V30 62 1 23 57
M  V30 63 1 24 58
M  V30 64 1 27 59
M  V30 65 1 28 60
M  V30 66 1 28 61
M  V30 67 1 29 62
M  V30 68 1 29 63
M  V30 69 1 30 64
M  V30 70 1 30 65
M  V30 71 1 31 66
M  V30 72 1 31 67
M  V30 73 1 32 68
M  V30 74 1 32 69
M  V30 75 1 35 70
M  V30 76 1 36 71
M  V30 END BOND
M  V30 END CTAB
M  END
>  <Dataset>  (346) 
ChEMBL_Kinases

>  <Ligand_Instance>  (346) 
nan

>  <PDB_ID>  (346) 
nan

>  <Standardized_SMILES>  (346) 
O=C(NC1CC1)c1ccc(-c2cnc3c(NCC4CCOCC4)cc(OC4CCCCC4)nn23)cc1

>  <Name>  (346) 
nan

>  <Pocket>  (346) 
nan

>  <ATP_Site>  (346) 
nan

>  <Peripheral>  (346) 
nan

>  <Num_H_Atoms_ProtBoundConf>  (346) 
nan

>  <Num_Resolved_Atoms>  (346) 
nan

>  <Num_Not_Resolved_Atoms>  (346) 
nan

$$$$
CHEMBL3410037
     RDKit          3D

  0  0  0  0  0  0  0  0  0  0999 V3000
M  V30 BEGIN CTAB
M  V30 COUNTS 50 53 0 0 0
M  V30 BEGIN ATOM
M  V30 1 C 4.254141 -2.772044 0.610016 0
M  V30 2 C 5.404986 -1.872554 0.825717 0
M  V30 3 C 6.748156 -2.256849 0.733686 0
M  V30 4 N 7.513885 -1.171480 0.965004 0
M  V30 5 C 6.768647 -0.075235 1.208303 0
M  V30 6 N 7.015045 1.220391 1.473219 0
M  V30 7 C 5.953925 2.049853 1.646240 0
M  V30 8 N 4.688112 1.599023 1.558465 0
M  V30 9 C 4.382877 0.291610 1.292588 0
M  V30 10 C 2.963250 0.039109 1.244568 0
M  V30 11 C 2.269723 0.882569 0.362226 0
M  V30 12 C 0.897482 0.865162 0.159989 0
M  V30 13 C 0.172360 -0.054588 0.886658 0
M  V30 14 N -1.239431 -0.189147 0.784667 0
M  V30 15 C -1.933590 -1.036323 -0.114178 0
M  V30 16 O -1.146170 -1.704584 -0.865122 0
M  V30 17 N -3.357414 -1.081839 -0.118932 0
M  V30 18 C -4.032921 -1.962906 -1.055596 0
M  V30 19 C -4.331930 -1.289525 -2.371555 0
M  V30 20 O -4.977299 -2.212880 -3.197263 0
M  V30 21 C -4.272008 -0.361842 0.692560 0
M  V30 22 C -4.820922 0.864246 0.411957 0
M  V30 23 C -5.701924 1.491128 1.257953 0
M  V30 24 C -5.999920 0.795587 2.421492 0
M  V30 25 C -5.475346 -0.450314 2.761355 0
M  V30 26 C -4.595777 -1.018725 1.861192 0
M  V30 27 F -4.116580 -2.226631 2.239068 0
M  V30 28 C 0.790810 -0.911669 1.770195 0
M  V30 29 C 2.157019 -0.845679 1.927552 0
M  V30 30 C 5.471968 -0.530729 1.118688 0
M  V30 31 H 4.617778 -3.684129 0.036809 0
M  V30 32 H 3.477038 -2.362550 -0.069099 0
M  V30 33 H 3.866881 -3.211252 1.547959 0
M  V30 34 H 7.088412 -3.261495 0.513004 0
M  V30 35 H 8.576465 -1.162386 0.960252 0
M  V30 36 H 6.152056 3.103006 1.860685 0
M  V30 37 H 2.777598 1.638989 -0.249476 0
M  V30 38 H 0.401949 1.523542 -0.521511 0
M  V30 39 H -1.760504 0.417092 1.459734 0
M  V30 40 H -3.362514 -2.835220 -1.305896 0
M  V30 41 H -4.946242 -2.418446 -0.650775 0
M  V30 42 H -5.060930 -0.449007 -2.226016 0
M  V30 43 H -3.408093 -0.969065 -2.858333 0
M  V30 44 H -4.813111 -2.032784 -4.154204 0
M  V30 45 H -4.519246 1.319070 -0.525001 0
M  V30 46 H -6.134448 2.446084 1.047646 0
M  V30 47 H -6.698788 1.250100 3.133994 0
M  V30 48 H -5.779572 -0.903704 3.701083 0
M  V30 49 H 0.280335 -1.650416 2.365449 0
M  V30 50 H 2.695302 -1.471998 2.612250 0
M  V30 END ATOM
M  V30 BEGIN BOND
M  V30 1 1 1 2
M  V30 2 2 2 3
M  V30 3 1 3 4
M  V30 4 1 4 5
M  V30 5 2 5 6
M  V30 6 1 6 7
M  V30 7 2 7 8
M  V30 8 1 8 9
M  V30 9 1 9 10
M  V30 10 2 10 11
M  V30 11 1 11 12
M  V30 12 2 12 13
M  V30 13 1 13 14
M  V30 14 1 14 15
M  V30 15 2 15 16
M  V30 16 1 15 17
M  V30 17 1 17 18
M  V30 18 1 18 19
M  V30 19 1 19 20
M  V30 20 1 17 21
M  V30 21 2 21 22
M  V30 22 1 22 23
M  V30 23 2 23 24
M  V30 24 1 24 25
M  V30 25 2 25 26
M  V30 26 1 26 27
M  V30 27 1 13 28
M  V30 28 2 28 29
M  V30 29 2 9 30
M  V30 30 1 30 2
M  V30 31 1 30 5
M  V30 32 1 29 10
M  V30 33 1 26 21
M  V30 34 1 1 31
M  V30 35 1 1 32
M  V30 36 1 1 33
M  V30 37 1 3 34
M  V30 38 1 4 35
M  V30 39 1 7 36
M  V30 40 1 11 37
M  V30 41 1 12 38
M  V30 42 1 14 39
M  V30 43 1 18 40
M  V30 44 1 18 41
M  V30 45 1 19 42
M  V30 46 1 19 43
M  V30 47 1 20 44
M  V30 48 1 22 45
M  V30 49 1 23 46
M  V30 50 1 24 47
M  V30 51 1 25 48
M  V30 52 1 28 49
M  V30 53 1 29 50
M  V30 END BOND
M  V30 END CTAB
M  END
>  <Dataset>  (347) 
ChEMBL_Kinases

>  <Ligand_Instance>  (347) 
nan

>  <PDB_ID>  (347) 
nan

>  <Standardized_SMILES>  (347) 
Cc1c[nH]c2ncnc(-c3ccc(NC(=O)N(CCO)c4ccccc4F)cc3)c12

>  <Name>  (347) 
nan

>  <Pocket>  (347) 
nan

>  <ATP_Site>  (347) 
nan

>  <Peripheral>  (347) 
nan

>  <Num_H_Atoms_ProtBoundConf>  (347) 
nan

>  <Num_Resolved_Atoms>  (347) 
nan

>  <Num_Not_Resolved_Atoms>  (347) 
nan

$$$$
CHEMBL3410038
     RDKit          3D

  0  0  0  0  0  0  0  0  0  0999 V3000
M  V30 BEGIN CTAB
M  V30 COUNTS 50 53 0 0 0
M  V30 BEGIN ATOM
M  V30 1 C 3.675487 -1.240827 3.483219 0
M  V30 2 C 5.004451 -1.186988 2.828705 0
M  V30 3 C 6.248323 -1.414818 3.433842 0
M  V30 4 N 7.235588 -1.301865 2.505187 0
M  V30 5 C 6.703679 -1.008005 1.305111 0
M  V30 6 N 7.209029 -0.807750 0.073902 0
M  V30 7 C 6.340897 -0.538417 -0.944388 0
M  V30 8 N 5.011499 -0.472779 -0.726535 0
M  V30 9 C 4.451964 -0.667814 0.506577 0
M  V30 10 C 3.021903 -0.547398 0.480201 0
M  V30 11 C 2.378959 -1.355961 -0.470363 0
M  V30 12 C 1.004275 -1.375945 -0.693601 0
M  V30 13 C 0.231971 -0.536541 0.081494 0
M  V30 14 N -1.181851 -0.492554 -0.079096 0
M  V30 15 C -1.971246 0.327837 -0.930225 0
M  V30 16 O -1.422777 1.169402 -1.689488 0
M  V30 17 N -3.384276 0.077291 -0.808920 0
M  V30 18 C -4.206824 0.913929 -1.678320 0
M  V30 19 C -4.586265 2.195665 -0.960456 0
M  V30 20 O -5.370366 3.003718 -1.776101 0
M  V30 21 C -4.052742 -0.862562 0.034361 0
M  V30 22 C -4.437466 -0.472667 1.293780 0
M  V30 23 C -5.097030 -1.296858 2.211721 0
M  V30 24 C -5.346378 -2.585227 1.746508 0
M  V30 25 C -4.990469 -3.048273 0.496303 0
M  V30 26 F -5.263261 -4.315795 0.105421 0
M  V30 27 C -4.335247 -2.156990 -0.355295 0
M  V30 28 C 0.794634 0.286568 1.034933 0
M  V30 29 C 2.161670 0.253900 1.200743 0
M  V30 30 C 5.344966 -0.940048 1.518041 0
M  V30 31 H 3.837364 -1.844557 4.432034 0
M  V30 32 H 2.933463 -1.862204 2.933957 0
M  V30 33 H 3.314612 -0.278653 3.845661 0
M  V30 34 H 6.363007 -1.645438 4.494837 0
M  V30 35 H 8.264913 -1.425757 2.695441 0
M  V30 36 H 6.765380 -0.381028 -1.927850 0
M  V30 37 H 2.945004 -2.040008 -1.111349 0
M  V30 38 H 0.574438 -2.024341 -1.443202 0
M  V30 39 H -1.515622 -1.226239 0.594920 0
M  V30 40 H -3.675022 1.195968 -2.603590 0
M  V30 41 H -5.124820 0.380347 -2.016007 0
M  V30 42 H -5.176782 1.944043 -0.057495 0
M  V30 43 H -3.622564 2.702352 -0.694499 0
M  V30 44 H -5.513260 2.611754 -2.676284 0
M  V30 45 H -4.239500 0.532989 1.648766 0
M  V30 46 H -5.380302 -0.957307 3.182683 0
M  V30 47 H -5.858854 -3.293000 2.403693 0
M  V30 48 H -4.040551 -2.486495 -1.345663 0
M  V30 49 H 0.243924 0.964489 1.671552 0
M  V30 50 H 2.633600 0.889420 1.914398 0
M  V30 END ATOM
M  V30 BEGIN BOND
M  V30 1 1 1 2
M  V30 2 2 2 3
M  V30 3 1 3 4
M  V30 4 1 4 5
M  V30 5 2 5 6
M  V30 6 1 6 7
M  V30 7 2 7 8
M  V30 8 1 8 9
M  V30 9 1 9 10
M  V30 10 2 10 11
M  V30 11 1 11 12
M  V30 12 2 12 13
M  V30 13 1 13 14
M  V30 14 1 14 15
M  V30 15 2 15 16
M  V30 16 1 15 17
M  V30 17 1 17 18
M  V30 18 1 18 19
M  V30 19 1 19 20
M  V30 20 1 17 21
M  V30 21 2 21 22
M  V30 22 1 22 23
M  V30 23 2 23 24
M  V30 24 1 24 25
M  V30 25 1 25 26
M  V30 26 2 25 27
M  V30 27 1 13 28
M  V30 28 2 28 29
M  V30 29 2 9 30
M  V30 30 1 30 2
M  V30 31 1 30 5
M  V30 32 1 29 10
M  V30 33 1 27 21
M  V30 34 1 1 31
M  V30 35 1 1 32
M  V30 36 1 1 33
M  V30 37 1 3 34
M  V30 38 1 4 35
M  V30 39 1 7 36
M  V30 40 1 11 37
M  V30 41 1 12 38
M  V30 42 1 14 39
M  V30 43 1 18 40
M  V30 44 1 18 41
M  V30 45 1 19 42
M  V30 46 1 19 43
M  V30 47 1 20 44
M  V30 48 1 22 45
M  V30 49 1 23 46
M  V30 50 1 24 47
M  V30 51 1 27 48
M  V30 52 1 28 49
M  V30 53 1 29 50
M  V30 END BOND
M  V30 END CTAB
M  END
>  <Dataset>  (348) 
ChEMBL_Kinases

>  <Ligand_Instance>  (348) 
nan

>  <PDB_ID>  (348) 
nan

>  <Standardized_SMILES>  (348) 
Cc1c[nH]c2ncnc(-c3ccc(NC(=O)N(CCO)c4cccc(F)c4)cc3)c12

>  <Name>  (348) 
nan

>  <Pocket>  (348) 
nan

>  <ATP_Site>  (348) 
nan

>  <Peripheral>  (348) 
nan

>  <Num_H_Atoms_ProtBoundConf>  (348) 
nan

>  <Num_Resolved_Atoms>  (348) 
nan

>  <Num_Not_Resolved_Atoms>  (348) 
nan

$$$$
CHEMBL3410044
     RDKit          3D

  0  0  0  0  0  0  0  0  0  0999 V3000
M  V30 BEGIN CTAB
M  V30 COUNTS 53 56 0 0 0
M  V30 BEGIN ATOM
M  V30 1 C 4.342962 -2.154400 -3.167114 0
M  V30 2 C 4.279453 -1.920579 -1.693572 0
M  V30 3 C 4.811212 -2.829618 -0.785112 0
M  V30 4 C 4.744188 -2.598364 0.580155 0
M  V30 5 C 4.132090 -1.438812 0.970296 0
M  V30 6 C 3.576712 -0.480956 0.128462 0
M  V30 7 N 2.963797 0.690349 0.654757 0
M  V30 8 C 3.680809 1.925697 0.907155 0
M  V30 9 C 4.227297 1.912097 2.330749 0
M  V30 10 O 4.927299 3.108699 2.588817 0
M  V30 11 C 1.583821 0.422417 0.871702 0
M  V30 12 O 1.308723 -0.761941 0.537285 0
M  V30 13 N 0.665259 1.365113 1.390415 0
M  V30 14 C -0.644592 0.823365 1.499938 0
M  V30 15 C -1.458076 0.977679 0.397137 0
M  V30 16 C -2.751120 0.506772 0.352207 0
M  V30 17 C -3.308644 -0.156399 1.427441 0
M  V30 18 C -4.610675 -0.776412 1.637956 0
M  V30 19 N -5.244652 -0.310773 2.757195 0
M  V30 20 C -6.458196 -0.781705 3.095102 0
M  V30 21 N -7.116206 -1.713896 2.382509 0
M  V30 22 C -6.513547 -2.189626 1.277624 0
M  V30 23 N -6.862433 -3.112175 0.362475 0
M  V30 24 C -5.873018 -3.220976 -0.542759 0
M  V30 25 C -4.816232 -2.348383 -0.239878 0
M  V30 26 C -3.535257 -2.183265 -0.971004 0
M  V30 27 C -5.275547 -1.732536 0.902722 0
M  V30 28 C -2.452813 -0.296150 2.535324 0
M  V30 29 C -1.157167 0.168545 2.598701 0
M  V30 30 C 3.679569 -0.776934 -1.220009 0
M  V30 31 H 4.639642 -3.187557 -3.398892 0
M  V30 32 H 4.977816 -1.389248 -3.654246 0
M  V30 33 H 3.295516 -1.981834 -3.548397 0
M  V30 34 H 5.284858 -3.733240 -1.167606 0
M  V30 35 H 5.147189 -3.284210 1.308861 0
M  V30 36 H 4.051698 -1.206135 2.042170 0
M  V30 37 H 4.499867 2.034120 0.169367 0
M  V30 38 H 3.013809 2.808256 0.803985 0
M  V30 39 H 3.389182 1.874775 3.054171 0
M  V30 40 H 4.862590 1.018180 2.490606 0
M  V30 41 H 5.436341 3.009050 3.416923 0
M  V30 42 H 0.995011 2.315407 1.634697 0
M  V30 43 H -1.201710 1.468192 -0.540938 0
M  V30 44 H -3.448296 0.607718 -0.464949 0
M  V30 45 H -6.949734 -0.397123 3.993437 0
M  V30 46 H -7.758695 -3.643268 0.373697 0
M  V30 47 H -5.851403 -3.889036 -1.417403 0
M  V30 48 H -3.454128 -3.133707 -1.588626 0
M  V30 49 H -2.642674 -2.255393 -0.310680 0
M  V30 50 H -3.514679 -1.390386 -1.712337 0
M  V30 51 H -2.756613 -0.801487 3.466227 0
M  V30 52 H -0.519662 0.055170 3.446096 0
M  V30 53 H 3.245122 -0.029061 -1.895239 0
M  V30 END ATOM
M  V30 BEGIN BOND
M  V30 1 1 1 2
M  V30 2 2 2 3
M  V30 3 1 3 4
M  V30 4 2 4 5
M  V30 5 1 5 6
M  V30 6 1 6 7
M  V30 7 1 7 8
M  V30 8 1 8 9
M  V30 9 1 9 10
M  V30 10 1 7 11
M  V30 11 2 11 12
M  V30 12 1 11 13
M  V30 13 1 13 14
M  V30 14 2 14 15
M  V30 15 1 15 16
M  V30 16 2 16 17
M  V30 17 1 17 18
M  V30 18 2 18 19
M  V30 19 1 19 20
M  V30 20 2 20 21
M  V30 21 1 21 22
M  V30 22 1 22 23
M  V30 23 1 23 24
M  V30 24 2 24 25
M  V30 25 1 25 26
M  V30 26 1 25 27
M  V30 27 1 17 28
M  V30 28 2 28 29
M  V30 29 2 6 30
M  V30 30 1 30 2
M  V30 31 1 29 14
M  V30 32 1 27 18
M  V30 33 2 27 22
M  V30 34 1 1 31
M  V30 35 1 1 32
M  V30 36 1 1 33
M  V30 37 1 3 34
M  V30 38 1 4 35
M  V30 39 1 5 36
M  V30 40 1 8 37
M  V30 41 1 8 38
M  V30 42 1 9 39
M  V30 43 1 9 40
M  V30 44 1 10 41
M  V30 45 1 13 42
M  V30 46 1 15 43
M  V30 47 1 16 44
M  V30 48 1 20 45
M  V30 49 1 23 46
M  V30 50 1 24 47
M  V30 51 1 26 48
M  V30 52 1 26 49
M  V30 53 1 26 50
M  V30 54 1 28 51
M  V30 55 1 29 52
M  V30 56 1 30 53
M  V30 END BOND
M  V30 END CTAB
M  END
>  <Dataset>  (349) 
ChEMBL_Kinases

>  <Ligand_Instance>  (349) 
nan

>  <PDB_ID>  (349) 
nan

>  <Standardized_SMILES>  (349) 
Cc1cccc(N(CCO)C(=O)Nc2ccc(-c3ncnc4[nH]cc(C)c34)cc2)c1

>  <Name>  (349) 
nan

>  <Pocket>  (349) 
nan

>  <ATP_Site>  (349) 
nan

>  <Peripheral>  (349) 
nan

>  <Num_H_Atoms_ProtBoundConf>  (349) 
nan

>  <Num_Resolved_Atoms>  (349) 
nan

>  <Num_Not_Resolved_Atoms>  (349) 
nan

$$$$
CHEMBL3410050
     RDKit          3D

  0  0  0  0  0  0  0  0  0  0999 V3000
M  V30 BEGIN CTAB
M  V30 COUNTS 51 54 0 0 0
M  V30 BEGIN ATOM
M  V30 1 C 4.003995 -2.076661 2.668619 0
M  V30 2 C 5.169078 -1.232609 2.363525 0
M  V30 3 C 6.438305 -1.307271 2.955806 0
M  V30 4 N 7.241971 -0.353701 2.439041 0
M  V30 5 C 6.565152 0.359616 1.522861 0
M  V30 6 N 6.880839 1.404910 0.743246 0
M  V30 7 C 5.926140 1.892822 -0.067941 0
M  V30 8 N 4.685534 1.366213 -0.115607 0
M  V30 9 C 4.313368 0.299365 0.658123 0
M  V30 10 C 2.952048 -0.098322 0.451432 0
M  V30 11 C 2.366494 -1.305692 0.132056 0
M  V30 12 C 1.008110 -1.488501 0.007468 0
M  V30 13 C 0.144702 -0.431531 0.203490 0
M  V30 14 N -1.239607 -0.721080 0.052368 0
M  V30 15 C -2.066005 -0.663915 -1.080914 0
M  V30 16 O -1.429729 -0.290187 -2.102665 0
M  V30 17 N -3.417985 -1.051291 -0.754256 0
M  V30 18 C -4.422451 -1.055352 -1.797976 0
M  V30 19 C -5.127505 0.274432 -1.914271 0
M  V30 20 N -4.203950 1.347945 -2.223631 0
M  V30 21 C -3.947283 -1.456955 0.525248 0
M  V30 22 C -4.423476 -0.419327 1.267995 0
M  V30 23 C -4.960479 -0.668460 2.518831 0
M  V30 24 C -4.990536 -1.986810 2.968633 0
M  V30 25 Cl -5.666067 -2.335320 4.552346 0
M  V30 26 C -4.499551 -3.015606 2.190856 0
M  V30 27 C -3.965167 -2.770487 0.946941 0
M  V30 28 C 0.657368 0.807551 0.524954 0
M  V30 29 C 2.025735 0.940246 0.638831 0
M  V30 30 C 5.305432 -0.182645 1.482400 0
M  V30 31 H 4.213920 -2.523290 3.692227 0
M  V30 32 H 3.856959 -2.941003 2.026897 0
M  V30 33 H 3.067706 -1.479062 2.877850 0
M  V30 34 H 6.677333 -2.055838 3.721822 0
M  V30 35 H 8.246824 -0.229183 2.744492 0
M  V30 36 H 6.215263 2.735276 -0.680950 0
M  V30 37 H 3.089472 -2.092583 -0.028906 0
M  V30 38 H 0.665696 -2.471859 -0.243814 0
M  V30 39 H -1.507028 -1.000924 1.038547 0
M  V30 40 H -3.995376 -1.252866 -2.813230 0
M  V30 41 H -5.214481 -1.825297 -1.643738 0
M  V30 42 H -5.806509 0.194759 -2.796546 0
M  V30 43 H -5.715863 0.546998 -1.034438 0
M  V30 44 H -3.623059 1.119682 -3.059874 0
M  V30 45 H -3.669231 1.634831 -1.394048 0
M  V30 46 H -4.442416 0.624485 1.005647 0
M  V30 47 H -5.362434 0.086944 3.180863 0
M  V30 48 H -4.517168 -4.058829 2.533255 0
M  V30 49 H -3.558453 -3.507132 0.269018 0
M  V30 50 H -0.027990 1.619657 0.673865 0
M  V30 51 H 2.330060 1.967148 0.897915 0
M  V30 END ATOM
M  V30 BEGIN BOND
M  V30 1 1 1 2
M  V30 2 2 2 3
M  V30 3 1 3 4
M  V30 4 1 4 5
M  V30 5 2 5 6
M  V30 6 1 6 7
M  V30 7 2 7 8
M  V30 8 1 8 9
M  V30 9 1 9 10
M  V30 10 2 10 11
M  V30 11 1 11 12
M  V30 12 2 12 13
M  V30 13 1 13 14
M  V30 14 1 14 15
M  V30 15 2 15 16
M  V30 16 1 15 17
M  V30 17 1 17 18
M  V30 18 1 18 19
M  V30 19 1 19 20
M  V30 20 1 17 21
M  V30 21 2 21 22
M  V30 22 1 22 23
M  V30 23 2 23 24
M  V30 24 1 24 25
M  V30 25 1 24 26
M  V30 26 2 26 27
M  V30 27 1 13 28
M  V30 28 2 28 29
M  V30 29 2 9 30
M  V30 30 1 30 2
M  V30 31 1 30 5
M  V30 32 1 29 10
M  V30 33 1 27 21
M  V30 34 1 1 31
M  V30 35 1 1 32
M  V30 36 1 1 33
M  V30 37 1 3 34
M  V30 38 1 4 35
M  V30 39 1 7 36
M  V30 40 1 11 37
M  V30 41 1 12 38
M  V30 42 1 14 39
M  V30 43 1 18 40
M  V30 44 1 18 41
M  V30 45 1 19 42
M  V30 46 1 19 43
M  V30 47 1 20 44
M  V30 48 1 20 45
M  V30 49 1 22 46
M  V30 50 1 23 47
M  V30 51 1 26 48
M  V30 52 1 27 49
M  V30 53 1 28 50
M  V30 54 1 29 51
M  V30 END BOND
M  V30 END CTAB
M  END
>  <Dataset>  (350) 
ChEMBL_Kinases

>  <Ligand_Instance>  (350) 
nan

>  <PDB_ID>  (350) 
nan

>  <Standardized_SMILES>  (350) 
Cc1c[nH]c2ncnc(-c3ccc(NC(=O)N(CCN)c4ccc(Cl)cc4)cc3)c12

>  <Name>  (350) 
nan

>  <Pocket>  (350) 
nan

>  <ATP_Site>  (350) 
nan

>  <Peripheral>  (350) 
nan

>  <Num_H_Atoms_ProtBoundConf>  (350) 
nan

>  <Num_Resolved_Atoms>  (350) 
nan

>  <Num_Not_Resolved_Atoms>  (350) 
nan

$$$$
CHEMBL3410060
     RDKit          3D

  0  0  0  0  0  0  0  0  0  0999 V3000
M  V30 BEGIN CTAB
M  V30 COUNTS 49 52 0 0 0
M  V30 BEGIN ATOM
M  V30 1 C 7.346574 -3.789054 0.235438 0
M  V30 2 C 6.005433 -3.282868 0.709265 0
M  V30 3 C 6.120116 -2.967217 2.185189 0
M  V30 4 C 4.914735 -4.312807 0.482822 0
M  V30 5 N 3.626122 -3.825888 0.937814 0
M  V30 6 C 2.994926 -2.687771 0.366218 0
M  V30 7 N 3.548198 -1.996490 -0.647846 0
M  V30 8 C 2.910235 -0.911342 -1.183941 0
M  V30 9 C 1.666138 -0.485636 -0.697568 0
M  V30 10 N 1.145457 -1.206566 0.322033 0
M  V30 11 C -0.020852 -1.001716 0.959269 0
M  V30 12 C -1.086885 -0.015675 0.819104 0
M  V30 13 C -0.922525 1.347063 0.652222 0
M  V30 14 C -2.044607 2.171312 0.539404 0
M  V30 15 C -3.339038 1.692696 0.586498 0
M  V30 16 C -4.450601 2.630571 0.454321 0
M  V30 17 O -4.255974 3.832059 0.225349 0
M  V30 18 N -5.793249 2.189575 0.585898 0
M  V30 19 C -6.929391 3.061776 0.462457 0
M  V30 20 C -8.000589 3.042522 1.540661 0
M  V30 21 C -8.273294 2.694863 0.093271 0
M  V30 22 C -3.531971 0.338252 0.752286 0
M  V30 23 C -2.406830 -0.457937 0.861692 0
M  V30 24 C -0.093878 -2.008265 1.925061 0
M  V30 25 N 1.017344 -2.763953 1.826846 0
M  V30 26 C 1.772465 -2.268714 0.844922 0
M  V30 27 H 7.301144 -4.898632 0.066894 0
M  V30 28 H 7.723704 -3.257220 -0.662728 0
M  V30 29 H 8.088604 -3.639134 1.037175 0
M  V30 30 H 5.805033 -2.344075 0.172988 0
M  V30 31 H 5.834394 -3.856098 2.779556 0
M  V30 32 H 5.446501 -2.136053 2.467712 0
M  V30 33 H 7.182255 -2.722013 2.418838 0
M  V30 34 H 4.814044 -4.380383 -0.640595 0
M  V30 35 H 5.155888 -5.303891 0.856204 0
M  V30 36 H 3.189372 -4.347631 1.702567 0
M  V30 37 H 3.312284 -0.318770 -2.005469 0
M  V30 38 H 1.143640 0.368037 -1.106788 0
M  V30 39 H 0.097733 1.692318 0.618958 0
M  V30 40 H -1.846509 3.229511 0.410410 0
M  V30 41 H -6.063592 1.200586 0.782925 0
M  V30 42 H -6.607081 4.115132 0.243257 0
M  V30 43 H -7.995342 2.213087 2.293331 0
M  V30 44 H -8.391549 3.975618 1.961189 0
M  V30 45 H -8.702129 1.707361 -0.038818 0
M  V30 46 H -8.907599 3.479150 -0.416860 0
M  V30 47 H -4.504520 -0.090240 0.795257 0
M  V30 48 H -2.586611 -1.537395 0.993827 0
M  V30 49 H -0.814820 -2.275504 2.677084 0
M  V30 END ATOM
M  V30 BEGIN BOND
M  V30 1 1 1 2
M  V30 2 1 2 3
M  V30 3 1 2 4
M  V30 4 1 4 5
M  V30 5 1 5 6
M  V30 6 2 6 7
M  V30 7 1 7 8
M  V30 8 2 8 9
M  V30 9 1 9 10
M  V30 10 1 10 11
M  V30 11 1 11 12
M  V30 12 2 12 13
M  V30 13 1 13 14
M  V30 14 2 14 15
M  V30 15 1 15 16
M  V30 16 2 16 17
M  V30 17 1 16 18
M  V30 18 1 18 19
M  V30 19 1 19 20
M  V30 20 1 20 21
M  V30 21 1 15 22
M  V30 22 2 22 23
M  V30 23 2 11 24
M  V30 24 1 24 25
M  V30 25 2 25 26
M  V30 26 1 26 6
M  V30 27 1 26 10
M  V30 28 1 23 12
M  V30 29 1 21 19
M  V30 30 1 1 27
M  V30 31 1 1 28
M  V30 32 1 1 29
M  V30 33 1 2 30
M  V30 34 1 3 31
M  V30 35 1 3 32
M  V30 36 1 3 33
M  V30 37 1 4 34
M  V30 38 1 4 35
M  V30 39 1 5 36
M  V30 40 1 8 37
M  V30 41 1 9 38
M  V30 42 1 13 39
M  V30 43 1 14 40
M  V30 44 1 18 41
M  V30 45 1 19 42
M  V30 46 1 20 43
M  V30 47 1 20 44
M  V30 48 1 21 45
M  V30 49 1 21 46
M  V30 50 1 22 47
M  V30 51 1 23 48
M  V30 52 1 24 49
M  V30 END BOND
M  V30 END CTAB
M  END
>  <Dataset>  (351) 
ChEMBL_Kinases

>  <Ligand_Instance>  (351) 
nan

>  <PDB_ID>  (351) 
nan

>  <Standardized_SMILES>  (351) 
CC(C)CNc1nccn2c(-c3ccc(C(=O)NC4CC4)cc3)cnc12

>  <Name>  (351) 
nan

>  <Pocket>  (351) 
nan

>  <ATP_Site>  (351) 
nan

>  <Peripheral>  (351) 
nan

>  <Num_H_Atoms_ProtBoundConf>  (351) 
nan

>  <Num_Resolved_Atoms>  (351) 
nan

>  <Num_Not_Resolved_Atoms>  (351) 
nan

$$$$
CHEMBL3410061
     RDKit          3D

  0  0  0  0  0  0  0  0  0  0999 V3000
M  V30 BEGIN CTAB
M  V30 COUNTS 52 55 0 0 0
M  V30 BEGIN ATOM
M  V30 1 C 4.360776 -6.267229 2.278810 0
M  V30 2 C 3.732187 -6.768010 0.995252 0
M  V30 3 C 2.288785 -7.090250 1.167231 0
M  V30 4 C 4.091887 -5.944057 -0.189105 0
M  V30 5 N 3.731095 -4.562352 -0.143994 0
M  V30 6 C 2.559543 -3.802321 -0.112935 0
M  V30 7 N 1.425748 -4.511804 -0.148010 0
M  V30 8 C 0.202871 -3.963982 -0.136669 0
M  V30 9 C 0.072722 -2.592915 -0.086180 0
M  V30 10 N 1.211530 -1.884332 -0.051041 0
M  V30 11 C 1.471738 -0.564108 0.001110 0
M  V30 12 C 0.529948 0.543928 0.035458 0
M  V30 13 C 0.760053 1.634454 -0.780722 0
M  V30 14 C -0.124207 2.712160 -0.769556 0
M  V30 15 C -1.244399 2.723238 0.047855 0
M  V30 16 C -2.114224 3.897887 -0.008121 0
M  V30 17 O -1.767875 4.826775 -0.784206 0
M  V30 18 N -3.297717 3.993592 0.774540 0
M  V30 19 C -4.225140 5.095543 0.802360 0
M  V30 20 C -4.774460 5.506362 2.126102 0
M  V30 21 C -6.124189 4.998429 1.703294 0
M  V30 22 C -5.601319 4.587699 0.358784 0
M  V30 23 C -1.488468 1.639857 0.870135 0
M  V30 24 C -0.593431 0.589802 0.834742 0
M  V30 25 C 2.821933 -0.294449 0.021740 0
M  V30 26 N 3.425076 -1.516058 -0.020110 0
M  V30 27 C 2.444519 -2.408041 -0.061557 0
M  V30 28 H 5.222842 -5.582930 2.069095 0
M  V30 29 H 3.594928 -5.666480 2.806790 0
M  V30 30 H 4.649312 -7.085531 2.941232 0
M  V30 31 H 4.241360 -7.774878 0.824066 0
M  V30 32 H 2.146210 -8.080539 1.708681 0
M  V30 33 H 1.764053 -7.228423 0.218213 0
M  V30 34 H 1.808556 -6.364115 1.869719 0
M  V30 35 H 5.197851 -6.052774 -0.329344 0
M  V30 36 H 3.669528 -6.465693 -1.087907 0
M  V30 37 H 4.560304 -3.888213 -0.126661 0
M  V30 38 H -0.690711 -4.577706 -0.166332 0
M  V30 39 H -0.870739 -2.074868 -0.073724 0
M  V30 40 H 1.650325 1.617949 -1.426682 0
M  V30 41 H 0.141388 3.511100 -1.439647 0
M  V30 42 H -3.590885 3.227778 1.419333 0
M  V30 43 H -3.975648 5.958726 0.170297 0
M  V30 44 H -4.284777 4.913896 2.935066 0
M  V30 45 H -4.809874 6.609049 2.300935 0
M  V30 46 H -6.428431 4.129657 2.343433 0
M  V30 47 H -6.919382 5.759016 1.570081 0
M  V30 48 H -6.043092 5.102902 -0.502766 0
M  V30 49 H -5.662326 3.497569 0.195539 0
M  V30 50 H -2.338954 1.627985 1.502899 0
M  V30 51 H -0.801197 -0.230090 1.474530 0
M  V30 52 H 3.358718 0.640255 0.061633 0
M  V30 END ATOM
M  V30 BEGIN BOND
M  V30 1 1 1 2
M  V30 2 1 2 3
M  V30 3 1 2 4
M  V30 4 1 4 5
M  V30 5 1 5 6
M  V30 6 2 6 7
M  V30 7 1 7 8
M  V30 8 2 8 9
M  V30 9 1 9 10
M  V30 10 1 10 11
M  V30 11 1 11 12
M  V30 12 2 12 13
M  V30 13 1 13 14
M  V30 14 2 14 15
M  V30 15 1 15 16
M  V30 16 2 16 17
M  V30 17 1 16 18
M  V30 18 1 18 19
M  V30 19 1 19 20
M  V30 20 1 20 21
M  V30 21 1 21 22
M  V30 22 1 15 23
M  V30 23 2 23 24
M  V30 24 2 11 25
M  V30 25 1 25 26
M  V30 26 2 26 27
M  V30 27 1 27 6
M  V30 28 1 27 10
M  V30 29 1 24 12
M  V30 30 1 22 19
M  V30 31 1 1 28
M  V30 32 1 1 29
M  V30 33 1 1 30
M  V30 34 1 2 31
M  V30 35 1 3 32
M  V30 36 1 3 33
M  V30 37 1 3 34
M  V30 38 1 4 35
M  V30 39 1 4 36
M  V30 40 1 5 37
M  V30 41 1 8 38
M  V30 42 1 9 39
M  V30 43 1 13 40
M  V30 44 1 14 41
M  V30 45 1 18 42
M  V30 46 1 19 43
M  V30 47 1 20 44
M  V30 48 1 20 45
M  V30 49 1 21 46
M  V30 50 1 21 47
M  V30 51 1 22 48
M  V30 52 1 22 49
M  V30 53 1 23 50
M  V30 54 1 24 51
M  V30 55 1 25 52
M  V30 END BOND
M  V30 END CTAB
M  END
>  <Dataset>  (352) 
ChEMBL_Kinases

>  <Ligand_Instance>  (352) 
nan

>  <PDB_ID>  (352) 
nan

>  <Standardized_SMILES>  (352) 
CC(C)CNc1nccn2c(-c3ccc(C(=O)NC4CCC4)cc3)cnc12

>  <Name>  (352) 
nan

>  <Pocket>  (352) 
nan

>  <ATP_Site>  (352) 
nan

>  <Peripheral>  (352) 
nan

>  <Num_H_Atoms_ProtBoundConf>  (352) 
nan

>  <Num_Resolved_Atoms>  (352) 
nan

>  <Num_Not_Resolved_Atoms>  (352) 
nan

$$$$
CHEMBL3410062
     RDKit          3D

  0  0  0  0  0  0  0  0  0  0999 V3000
M  V30 BEGIN CTAB
M  V30 COUNTS 51 53 0 0 0
M  V30 BEGIN ATOM
M  V30 1 C 2.944792 -6.349884 2.306764 0
M  V30 2 C 3.877761 -6.459660 1.158012 0
M  V30 3 C 5.055373 -7.308429 1.670912 0
M  V30 4 C 4.466497 -5.216946 0.616954 0
M  V30 5 N 3.600769 -4.219412 0.101052 0
M  V30 6 C 2.636294 -3.315668 0.539622 0
M  V30 7 N 2.427450 -3.330959 1.863543 0
M  V30 8 C 1.551433 -2.526750 2.478450 0
M  V30 9 C 0.810839 -1.626461 1.744539 0
M  V30 10 N 1.022267 -1.613531 0.418297 0
M  V30 11 C 0.504458 -0.897255 -0.596422 0
M  V30 12 C -0.510693 0.145677 -0.529033 0
M  V30 13 C -0.474177 1.148742 0.417957 0
M  V30 14 C -1.423523 2.146549 0.502685 0
M  V30 15 C -2.466647 2.151764 -0.399946 0
M  V30 16 C -3.584676 3.084410 -0.522415 0
M  V30 17 O -4.533128 3.076038 -1.349904 0
M  V30 18 N -3.670043 4.172138 0.388018 0
M  V30 19 C -4.470863 5.300532 0.716909 0
M  V30 20 C -3.813812 6.636656 0.589489 0
M  V30 21 C -5.142501 5.195670 2.071104 0
M  V30 22 C -2.529998 1.155014 -1.364472 0
M  V30 23 C -1.561389 0.163484 -1.426661 0
M  V30 24 C 1.049735 -1.252028 -1.813876 0
M  V30 25 N 1.936864 -2.225055 -1.528899 0
M  V30 26 C 1.894045 -2.410177 -0.214265 0
M  V30 27 H 2.838548 -7.354912 2.788614 0
M  V30 28 H 3.239752 -5.657930 3.090311 0
M  V30 29 H 1.945185 -6.047942 1.925477 0
M  V30 30 H 3.433264 -7.053558 0.329049 0
M  V30 31 H 5.518441 -7.871301 0.838625 0
M  V30 32 H 5.753973 -6.589069 2.145375 0
M  V30 33 H 4.721333 -7.981304 2.488409 0
M  V30 34 H 5.088970 -4.771212 1.435166 0
M  V30 35 H 5.229803 -5.534899 -0.149232 0
M  V30 36 H 3.691801 -4.099686 -0.958035 0
M  V30 37 H 1.380480 -2.539488 3.563649 0
M  V30 38 H 0.087054 -0.949301 2.176221 0
M  V30 39 H 0.307029 1.200645 1.143680 0
M  V30 40 H -1.461136 2.947582 1.200817 0
M  V30 41 H -2.959376 4.321742 1.137691 0
M  V30 42 H -5.328248 5.306434 -0.018938 0
M  V30 43 H -3.267435 6.834218 1.536353 0
M  V30 44 H -3.059102 6.668331 -0.232665 0
M  V30 45 H -4.577019 7.423793 0.439524 0
M  V30 46 H -4.366763 4.910987 2.817842 0
M  V30 47 H -5.914648 4.380232 1.963273 0
M  V30 48 H -5.615206 6.151652 2.322187 0
M  V30 49 H -3.296322 1.049018 -2.127524 0
M  V30 50 H -1.582963 -0.630447 -2.169680 0
M  V30 51 H 0.843160 -0.864753 -2.799945 0
M  V30 END ATOM
M  V30 BEGIN BOND
M  V30 1 1 1 2
M  V30 2 1 2 3
M  V30 3 1 2 4
M  V30 4 1 4 5
M  V30 5 1 5 6
M  V30 6 2 6 7
M  V30 7 1 7 8
M  V30 8 2 8 9
M  V30 9 1 9 10
M  V30 10 1 10 11
M  V30 11 1 11 12
M  V30 12 2 12 13
M  V30 13 1 13 14
M  V30 14 2 14 15
M  V30 15 1 15 16
M  V30 16 2 16 17
M  V30 17 1 16 18
M  V30 18 1 18 19
M  V30 19 1 19 20
M  V30 20 1 19 21
M  V30 21 1 15 22
M  V30 22 2 22 23
M  V30 23 2 11 24
M  V30 24 1 24 25
M  V30 25 2 25 26
M  V30 26 1 26 6
M  V30 27 1 26 10
M  V30 28 1 23 12
M  V30 29 1 1 27
M  V30 30 1 1 28
M  V30 31 1 1 29
M  V30 32 1 2 30
M  V30 33 1 3 31
M  V30 34 1 3 32
M  V30 35 1 3 33
M  V30 36 1 4 34
M  V30 37 1 4 35
M  V30 38 1 5 36
M  V30 39 1 8 37
M  V30 40 1 9 38
M  V30 41 1 13 39
M  V30 42 1 14 40
M  V30 43 1 18 41
M  V30 44 1 19 42
M  V30 45 1 20 43
M  V30 46 1 20 44
M  V30 47 1 20 45
M  V30 48 1 21 46
M  V30 49 1 21 47
M  V30 50 1 21 48
M  V30 51 1 22 49
M  V30 52 1 23 50
M  V30 53 1 24 51
M  V30 END BOND
M  V30 END CTAB
M  END
>  <Dataset>  (353) 
ChEMBL_Kinases

>  <Ligand_Instance>  (353) 
nan

>  <PDB_ID>  (353) 
nan

>  <Standardized_SMILES>  (353) 
CC(C)CNc1nccn2c(-c3ccc(C(=O)NC(C)C)cc3)cnc12

>  <Name>  (353) 
nan

>  <Pocket>  (353) 
nan

>  <ATP_Site>  (353) 
nan

>  <Peripheral>  (353) 
nan

>  <Num_H_Atoms_ProtBoundConf>  (353) 
nan

>  <Num_Resolved_Atoms>  (353) 
nan

>  <Num_Not_Resolved_Atoms>  (353) 
nan

$$$$
CHEMBL3410063
     RDKit          3D

  0  0  0  0  0  0  0  0  0  0999 V3000
M  V30 BEGIN CTAB
M  V30 COUNTS 42 44 0 0 0
M  V30 BEGIN ATOM
M  V30 1 C 0.205997 -5.954482 -1.625198 0
M  V30 2 C 1.360094 -6.039468 -0.653174 0
M  V30 3 C 0.837899 -6.500975 0.671879 0
M  V30 4 C 2.028506 -4.678406 -0.561230 0
M  V30 5 N 1.133447 -3.664566 -0.106909 0
M  V30 6 C 1.473660 -2.297853 0.077428 0
M  V30 7 N 2.721119 -1.861654 -0.178806 0
M  V30 8 C 3.084714 -0.564095 -0.014941 0
M  V30 9 C 2.148831 0.347499 0.429792 0
M  V30 10 N 0.893494 -0.074437 0.691111 0
M  V30 11 C -0.200785 0.546670 1.120432 0
M  V30 12 C -0.372965 1.956909 1.455449 0
M  V30 13 C 0.510280 2.727176 2.217372 0
M  V30 14 C 0.232819 4.056738 2.464989 0
M  V30 15 C -0.904897 4.673593 1.982137 0
M  V30 16 C -1.221967 6.081010 2.230398 0
M  V30 17 N -0.265353 6.816100 3.024778 0
M  V30 18 O -2.265852 6.623793 1.780254 0
M  V30 19 C -1.788099 3.927874 1.227844 0
M  V30 20 C -1.524262 2.592983 0.970508 0
M  V30 21 C -1.241518 -0.358490 1.223872 0
M  V30 22 N -0.731260 -1.547145 0.840451 0
M  V30 23 C 0.552691 -1.369788 0.521390 0
M  V30 24 H -0.125934 -6.952570 -1.940543 0
M  V30 25 H -0.625438 -5.351428 -1.208132 0
M  V30 26 H 0.596284 -5.449280 -2.534630 0
M  V30 27 H 2.047030 -6.804816 -1.030319 0
M  V30 28 H 1.524800 -7.256562 1.152546 0
M  V30 29 H 0.594006 -5.672264 1.371657 0
M  V30 30 H -0.102895 -7.066484 0.504876 0
M  V30 31 H 2.538792 -4.455342 -1.514710 0
M  V30 32 H 2.858477 -4.795363 0.195909 0
M  V30 33 H 0.139850 -3.954219 0.109067 0
M  V30 34 H 4.064113 -0.178457 -0.207314 0
M  V30 35 H 2.402400 1.382586 0.570608 0
M  V30 36 H 1.382341 2.224336 2.578184 0
M  V30 37 H 0.935033 4.641128 3.062070 0
M  V30 38 H 0.095661 7.532469 2.385144 0
M  V30 39 H 0.071397 6.745283 4.009791 0
M  V30 40 H -2.685022 4.371821 0.834058 0
M  V30 41 H -2.247772 2.043981 0.371756 0
M  V30 42 H -2.264826 -0.236352 1.531868 0
M  V30 END ATOM
M  V30 BEGIN BOND
M  V30 1 1 1 2
M  V30 2 1 2 3
M  V30 3 1 2 4
M  V30 4 1 4 5
M  V30 5 1 5 6
M  V30 6 2 6 7
M  V30 7 1 7 8
M  V30 8 2 8 9
M  V30 9 1 9 10
M  V30 10 1 10 11
M  V30 11 1 11 12
M  V30 12 2 12 13
M  V30 13 1 13 14
M  V30 14 2 14 15
M  V30 15 1 15 16
M  V30 16 1 16 17
M  V30 17 2 16 18
M  V30 18 1 15 19
M  V30 19 2 19 20
M  V30 20 2 11 21
M  V30 21 1 21 22
M  V30 22 2 22 23
M  V30 23 1 23 6
M  V30 24 1 23 10
M  V30 25 1 20 12
M  V30 26 1 1 24
M  V30 27 1 1 25
M  V30 28 1 1 26
M  V30 29 1 2 27
M  V30 30 1 3 28
M  V30 31 1 3 29
M  V30 32 1 3 30
M  V30 33 1 4 31
M  V30 34 1 4 32
M  V30 35 1 5 33
M  V30 36 1 8 34
M  V30 37 1 9 35
M  V30 38 1 13 36
M  V30 39 1 14 37
M  V30 40 1 17 38
M  V30 41 1 17 39
M  V30 42 1 19 40
M  V30 43 1 20 41
M  V30 44 1 21 42
M  V30 END BOND
M  V30 END CTAB
M  END
>  <Dataset>  (354) 
ChEMBL_Kinases

>  <Ligand_Instance>  (354) 
nan

>  <PDB_ID>  (354) 
nan

>  <Standardized_SMILES>  (354) 
CC(C)CNc1nccn2c(-c3ccc(C(N)=O)cc3)cnc12

>  <Name>  (354) 
nan

>  <Pocket>  (354) 
nan

>  <ATP_Site>  (354) 
nan

>  <Peripheral>  (354) 
nan

>  <Num_H_Atoms_ProtBoundConf>  (354) 
nan

>  <Num_Resolved_Atoms>  (354) 
nan

>  <Num_Not_Resolved_Atoms>  (354) 
nan

$$$$
CHEMBL3410073
     RDKit          3D

  0  0  0  0  0  0  0  0  0  0999 V3000
M  V30 BEGIN CTAB
M  V30 COUNTS 67 72 0 0 0
M  V30 BEGIN ATOM
M  V30 1 N 4.865009 -0.856078 7.207831 0
M  V30 2 C 4.325636 -0.673806 6.201222 0
M  V30 3 C 3.629411 -0.449673 4.953541 0
M  V30 4 C 3.605827 0.820410 4.422208 0
M  V30 5 C 2.946202 1.090683 3.219256 0
M  V30 6 C 2.293587 0.106468 2.512937 0
M  V30 7 C 1.598146 0.329035 1.261253 0
M  V30 8 C 1.571368 1.614534 0.799503 0
M  V30 9 C 0.891479 1.835340 -0.367108 0
M  V30 10 N 0.636458 3.092571 -1.077597 0
M  V30 11 C 0.395340 4.285252 -1.750357 0
M  V30 12 C -0.496769 5.169334 -0.914257 0
M  V30 13 C -1.837389 4.485233 -0.655416 0
M  V30 14 C -2.493954 5.236770 0.479845 0
M  V30 15 O -1.817413 6.434332 0.730348 0
M  V30 16 C -1.670288 7.212160 -0.420985 0
M  V30 17 C -0.782435 6.526588 -1.471485 0
M  V30 18 C 0.221938 0.846957 -1.127172 0
M  V30 19 N -0.496462 0.700387 -2.232542 0
M  V30 20 C -0.843501 -0.584244 -2.371043 0
M  V30 21 C -0.349196 -1.337355 -1.331839 0
M  V30 22 C -0.468741 -2.747431 -1.038663 0
M  V30 23 C 0.702928 -3.378946 -0.689359 0
M  V30 24 C 0.672939 -4.742507 -0.368057 0
M  V30 25 C -0.503793 -5.467055 -0.394022 0
M  V30 26 C -0.523372 -6.891097 -0.044773 0
M  V30 27 O 0.624631 -7.331639 0.253281 0
M  V30 28 N -1.723127 -7.628294 -0.057256 0
M  V30 29 C -1.733746 -9.032242 0.294156 0
M  V30 30 C -2.707299 -9.345112 1.441343 0
M  V30 31 C -2.871025 -9.923297 0.045279 0
M  V30 32 C -1.655260 -4.797077 -0.752266 0
M  V30 33 C -1.674607 -3.451966 -1.076996 0
M  V30 34 N 0.308789 -0.403602 -0.580873 0
M  V30 35 N 0.968385 -0.593911 0.544510 0
M  V30 36 C 2.355977 -1.115081 3.087633 0
M  V30 37 N 1.722449 -2.211784 2.491824 0
M  V30 38 C 2.976821 -1.453927 4.254096 0
M  V30 39 H 4.109641 1.602629 4.959461 0
M  V30 40 H 2.992112 2.105909 2.901465 0
M  V30 41 H 2.020130 2.491505 1.238944 0
M  V30 42 H 1.200109 3.713555 -0.411662 0
M  V30 43 H 1.272223 4.817538 -2.149595 0
M  V30 44 H -0.263087 4.038691 -2.674062 0
M  V30 45 H -0.056944 5.358334 0.110635 0
M  V30 46 H -1.764774 3.412576 -0.533254 0
M  V30 47 H -2.472345 4.714975 -1.559908 0
M  V30 48 H -2.394742 4.605702 1.388097 0
M  V30 49 H -3.571620 5.432479 0.281814 0
M  V30 50 H -1.106032 8.114661 -0.082551 0
M  V30 51 H -2.618507 7.541319 -0.838030 0
M  V30 52 H -1.404512 6.381853 -2.379268 0
M  V30 53 H 0.114622 7.140208 -1.696999 0
M  V30 54 H -1.438854 -0.993244 -3.192307 0
M  V30 55 H 1.657920 -2.867403 -0.646495 0
M  V30 56 H 1.615804 -5.199294 -0.097946 0
M  V30 57 H -2.651177 -7.232700 -0.313586 0
M  V30 58 H -0.741550 -9.519207 0.513830 0
M  V30 59 H -2.396993 -9.989508 2.268968 0
M  V30 60 H -3.455442 -8.571914 1.713273 0
M  V30 61 H -2.749233 -11.011322 -0.038154 0
M  V30 62 H -3.712789 -9.511834 -0.575183 0
M  V30 63 H -2.624492 -5.273108 -0.804270 0
M  V30 64 H -2.559111 -2.904886 -1.360037 0
M  V30 65 H 2.143101 -2.863236 1.799322 0
M  V30 66 H 1.182675 -2.992515 2.105630 0
M  V30 67 H 3.019683 -2.411910 4.698646 0
M  V30 END ATOM
M  V30 BEGIN BOND
M  V30 1 3 1 2
M  V30 2 1 2 3
M  V30 3 2 3 4
M  V30 4 1 4 5
M  V30 5 2 5 6
M  V30 6 1 6 7
M  V30 7 1 7 8
M  V30 8 2 8 9
M  V30 9 1 9 10
M  V30 10 1 10 11
M  V30 11 1 11 12
M  V30 12 1 12 13
M  V30 13 1 13 14
M  V30 14 1 14 15
M  V30 15 1 15 16
M  V30 16 1 16 17
M  V30 17 1 9 18
M  V30 18 2 18 19
M  V30 19 1 19 20
M  V30 20 2 20 21
M  V30 21 1 21 22
M  V30 22 2 22 23
M  V30 23 1 23 24
M  V30 24 2 24 25
M  V30 25 1 25 26
M  V30 26 2 26 27
M  V30 27 1 26 28
M  V30 28 1 28 29
M  V30 29 1 29 30
M  V30 30 1 30 31
M  V30 31 1 25 32
M  V30 32 2 32 33
M  V30 33 1 21 34
M  V30 34 1 34 35
M  V30 35 1 6 36
M  V30 36 1 36 37
M  V30 37 2 36 38
M  V30 38 1 38 3
M  V30 39 2 35 7
M  V30 40 1 17 12
M  V30 41 1 34 18
M  V30 42 1 33 22
M  V30 43 1 31 29
M  V30 44 1 4 39
M  V30 45 1 5 40
M  V30 46 1 8 41
M  V30 47 1 10 42
M  V30 48 1 11 43
M  V30 49 1 11 44
M  V30 50 1 12 45
M  V30 51 1 13 46
M  V30 52 1 13 47
M  V30 53 1 14 48
M  V30 54 1 14 49
M  V30 55 1 16 50
M  V30 56 1 16 51
M  V30 57 1 17 52
M  V30 58 1 17 53
M  V30 59 1 20 54
M  V30 60 1 23 55
M  V30 61 1 24 56
M  V30 62 1 28 57
M  V30 63 1 29 58
M  V30 64 1 30 59
M  V30 65 1 30 60
M  V30 66 1 31 61
M  V30 67 1 31 62
M  V30 68 1 32 63
M  V30 69 1 33 64
M  V30 70 1 37 65
M  V30 71 1 37 66
M  V30 72 1 38 67
M  V30 END BOND
M  V30 END CTAB
M  END
>  <Dataset>  (355) 
ChEMBL_Kinases

>  <Ligand_Instance>  (355) 
nan

>  <PDB_ID>  (355) 
nan

>  <Standardized_SMILES>  (355) 
N#Cc1ccc(-c2cc(NCC3CCOCC3)c3ncc(-c4ccc(C(=O)NC5CC5)cc4)n3n2)c(N)c1

>  <Name>  (355) 
nan

>  <Pocket>  (355) 
nan

>  <ATP_Site>  (355) 
nan

>  <Peripheral>  (355) 
nan

>  <Num_H_Atoms_ProtBoundConf>  (355) 
nan

>  <Num_Resolved_Atoms>  (355) 
nan

>  <Num_Not_Resolved_Atoms>  (355) 
nan

$$$$
CHEMBL3410065
     RDKit          3D

  0  0  0  0  0  0  0  0  0  0999 V3000
M  V30 BEGIN CTAB
M  V30 COUNTS 46 49 0 0 0
M  V30 BEGIN ATOM
M  V30 1 C -0.025721 -7.055790 -3.422456 0
M  V30 2 C -0.303413 -6.272212 -2.170072 0
M  V30 3 C -1.809121 -6.322841 -1.946418 0
M  V30 4 N 0.100206 -4.872925 -2.265172 0
M  V30 5 C -0.094472 -3.992918 -1.163780 0
M  V30 6 N -0.659800 -4.473443 -0.026241 0
M  V30 7 C -0.845478 -3.651537 1.012445 0
M  V30 8 C -0.455268 -2.332127 0.897771 0
M  V30 9 N 0.104310 -1.859696 -0.230369 0
M  V30 10 C 0.533036 -0.608750 -0.491431 0
M  V30 11 C 0.545290 0.615025 0.307616 0
M  V30 12 C 0.953234 0.622606 1.629953 0
M  V30 13 C 0.961613 1.784629 2.378069 0
M  V30 14 C 0.561662 2.991154 1.834892 0
M  V30 15 C 0.533764 4.272232 2.538979 0
M  V30 16 O 0.151138 5.334436 1.964439 0
M  V30 17 N 0.933930 4.383558 3.897316 0
M  V30 18 C 0.922856 5.629075 4.633386 0
M  V30 19 C 1.763914 5.834531 5.818661 0
M  V30 20 C 0.297070 5.475715 6.036824 0
M  V30 21 C 0.157697 2.965101 0.513931 0
M  V30 22 C 0.139894 1.815100 -0.257150 0
M  V30 23 C 1.020759 -0.680141 -1.802834 0
M  V30 24 N 0.873325 -1.934402 -2.272418 0
M  V30 25 C 0.304346 -2.658788 -1.290742 0
M  V30 26 H -0.942790 -7.238746 -4.016150 0
M  V30 27 H 0.736696 -6.595413 -4.082184 0
M  V30 28 H 0.343562 -8.082635 -3.143780 0
M  V30 29 H 0.207845 -6.754118 -1.320600 0
M  V30 30 H -2.136174 -7.334230 -2.267818 0
M  V30 31 H -2.322194 -5.504632 -2.465567 0
M  V30 32 H -1.950301 -6.304807 -0.836085 0
M  V30 33 H 0.522199 -4.555844 -3.142290 0
M  V30 34 H -1.301364 -4.098232 1.889669 0
M  V30 35 H -0.623646 -1.703584 1.760243 0
M  V30 36 H 1.276984 -0.282118 2.113841 0
M  V30 37 H 1.279511 1.795746 3.411785 0
M  V30 38 H 1.262052 3.555746 4.441675 0
M  V30 39 H 0.577843 6.493573 4.058775 0
M  V30 40 H 2.516564 5.109688 6.150859 0
M  V30 41 H 1.976429 6.899791 6.089325 0
M  V30 42 H 0.127457 4.453095 6.424553 0
M  V30 43 H -0.417124 6.244087 6.360226 0
M  V30 44 H -0.175753 3.860184 -0.007650 0
M  V30 45 H -0.186994 1.833049 -1.301821 0
M  V30 46 H 1.452722 0.155338 -2.354301 0
M  V30 END ATOM
M  V30 BEGIN BOND
M  V30 1 1 1 2
M  V30 2 1 2 3
M  V30 3 1 2 4
M  V30 4 1 4 5
M  V30 5 2 5 6
M  V30 6 1 6 7
M  V30 7 2 7 8
M  V30 8 1 8 9
M  V30 9 1 9 10
M  V30 10 1 10 11
M  V30 11 2 11 12
M  V30 12 1 12 13
M  V30 13 2 13 14
M  V30 14 1 14 15
M  V30 15 2 15 16
M  V30 16 1 15 17
M  V30 17 1 17 18
M  V30 18 1 18 19
M  V30 19 1 19 20
M  V30 20 1 14 21
M  V30 21 2 21 22
M  V30 22 2 10 23
M  V30 23 1 23 24
M  V30 24 2 24 25
M  V30 25 1 25 5
M  V30 26 1 25 9
M  V30 27 1 22 11
M  V30 28 1 20 18
M  V30 29 1 1 26
M  V30 30 1 1 27
M  V30 31 1 1 28
M  V30 32 1 2 29
M  V30 33 1 3 30
M  V30 34 1 3 31
M  V30 35 1 3 32
M  V30 36 1 4 33
M  V30 37 1 7 34
M  V30 38 1 8 35
M  V30 39 1 12 36
M  V30 40 1 13 37
M  V30 41 1 17 38
M  V30 42 1 18 39
M  V30 43 1 19 40
M  V30 44 1 19 41
M  V30 45 1 20 42
M  V30 46 1 20 43
M  V30 47 1 21 44
M  V30 48 1 22 45
M  V30 49 1 23 46
M  V30 END BOND
M  V30 END CTAB
M  END
>  <Dataset>  (356) 
ChEMBL_Kinases

>  <Ligand_Instance>  (356) 
nan

>  <PDB_ID>  (356) 
nan

>  <Standardized_SMILES>  (356) 
CC(C)Nc1nccn2c(-c3ccc(C(=O)NC4CC4)cc3)cnc12

>  <Name>  (356) 
nan

>  <Pocket>  (356) 
nan

>  <ATP_Site>  (356) 
nan

>  <Peripheral>  (356) 
nan

>  <Num_H_Atoms_ProtBoundConf>  (356) 
nan

>  <Num_Resolved_Atoms>  (356) 
nan

>  <Num_Not_Resolved_Atoms>  (356) 
nan

$$$$
CHEMBL3410066
     RDKit          3D

  0  0  0  0  0  0  0  0  0  0999 V3000
M  V30 BEGIN CTAB
M  V30 COUNTS 50 54 0 0 0
M  V30 BEGIN ATOM
M  V30 1 O 6.392517 1.186991 -0.126852 0
M  V30 2 C 5.696812 0.113727 -0.139549 0
M  V30 3 N 6.313909 -1.153488 -0.227563 0
M  V30 4 C 7.696489 -1.489786 -0.310914 0
M  V30 5 C 8.208020 -2.702760 -0.942868 0
M  V30 6 C 8.160065 -2.674031 0.551339 0
M  V30 7 C 4.252518 0.309087 -0.057682 0
M  V30 8 C 3.759113 1.597512 -0.016974 0
M  V30 9 C 2.385823 1.865415 0.065237 0
M  V30 10 C 1.472183 0.807261 0.108566 0
M  V30 11 C 0.029938 1.026310 0.187677 0
M  V30 12 C -0.571168 1.952881 -0.640930 0
M  V30 13 N -1.888392 1.901970 -0.307392 0
M  V30 14 C -2.018170 0.990450 0.662183 0
M  V30 15 C -3.152972 0.563717 1.348197 0
M  V30 16 N -4.449090 1.072337 1.093980 0
M  V30 17 C -5.751627 0.791601 1.664036 0
M  V30 18 C -6.047558 -0.644515 1.441516 0
M  V30 19 C -5.830340 -1.723147 2.265250 0
M  V30 20 C -6.151777 -3.009230 1.903504 0
M  V30 21 C -6.721644 -3.286293 0.667546 0
M  V30 22 C -6.943679 -2.212682 -0.164636 0
M  V30 23 C -6.621027 -0.916186 0.196124 0
M  V30 24 N -3.045382 -0.368269 2.291446 0
M  V30 25 C -1.852263 -0.899794 2.585989 0
M  V30 26 C -0.699422 -0.520171 1.944531 0
M  V30 27 N -0.852730 0.420554 1.002238 0
M  V30 28 C 1.987404 -0.486787 0.066550 0
M  V30 29 C 3.347602 -0.729626 -0.014842 0
M  V30 30 H 5.704740 -2.008826 -0.237853 0
M  V30 31 H 8.382372 -0.594913 -0.279675 0
M  V30 32 H 7.561749 -3.425553 -1.493518 0
M  V30 33 H 9.230463 -2.661589 -1.373977 0
M  V30 34 H 9.059664 -2.560483 1.174154 0
M  V30 35 H 7.381074 -3.287365 1.048979 0
M  V30 36 H 4.357591 2.483708 -0.043366 0
M  V30 37 H 1.976048 2.865865 0.097777 0
M  V30 38 H -0.147089 2.597424 -1.396854 0
M  V30 39 H -4.469387 1.812468 0.325509 0
M  V30 40 H -6.543572 1.404846 1.241614 0
M  V30 41 H -5.704708 0.921049 2.782243 0
M  V30 42 H -5.395269 -1.471340 3.218844 0
M  V30 43 H -5.941269 -3.785682 2.621178 0
M  V30 44 H -6.940091 -4.322793 0.469304 0
M  V30 45 H -7.389248 -2.461622 -1.120240 0
M  V30 46 H -6.854274 -0.187954 -0.560634 0
M  V30 47 H -1.766021 -1.664853 3.360958 0
M  V30 48 H 0.259726 -0.954323 2.189606 0
M  V30 49 H 1.334702 -1.371271 0.094264 0
M  V30 50 H 3.699169 -1.751281 -0.044758 0
M  V30 END ATOM
M  V30 BEGIN BOND
M  V30 1 2 1 2
M  V30 2 1 2 3
M  V30 3 1 3 4
M  V30 4 1 4 5
M  V30 5 1 5 6
M  V30 6 1 2 7
M  V30 7 2 7 8
M  V30 8 1 8 9
M  V30 9 2 9 10
M  V30 10 1 10 11
M  V30 11 2 11 12
M  V30 12 1 12 13
M  V30 13 2 13 14
M  V30 14 1 14 15
M  V30 15 1 15 16
M  V30 16 1 16 17
M  V30 17 1 17 18
M  V30 18 2 18 19
M  V30 19 1 19 20
M  V30 20 2 20 21
M  V30 21 1 21 22
M  V30 22 2 22 23
M  V30 23 2 15 24
M  V30 24 1 24 25
M  V30 25 2 25 26
M  V30 26 1 26 27
M  V30 27 1 10 28
M  V30 28 2 28 29
M  V30 29 1 6 4
M  V30 30 1 29 7
M  V30 31 1 27 11
M  V30 32 1 27 14
M  V30 33 1 23 18
M  V30 34 1 3 30
M  V30 35 1 4 31
M  V30 36 1 5 32
M  V30 37 1 5 33
M  V30 38 1 6 34
M  V30 39 1 6 35
M  V30 40 1 8 36
M  V30 41 1 9 37
M  V30 42 1 12 38
M  V30 43 1 16 39
M  V30 44 1 17 40
M  V30 45 1 17 41
M  V30 46 1 19 42
M  V30 47 1 20 43
M  V30 48 1 21 44
M  V30 49 1 22 45
M  V30 50 1 23 46
M  V30 51 1 25 47
M  V30 52 1 26 48
M  V30 53 1 28 49
M  V30 54 1 29 50
M  V30 END BOND
M  V30 END CTAB
M  END
>  <Dataset>  (357) 
ChEMBL_Kinases

>  <Ligand_Instance>  (357) 
nan

>  <PDB_ID>  (357) 
nan

>  <Standardized_SMILES>  (357) 
O=C(NC1CC1)c1ccc(-c2cnc3c(NCc4ccccc4)nccn23)cc1

>  <Name>  (357) 
nan

>  <Pocket>  (357) 
nan

>  <ATP_Site>  (357) 
nan

>  <Peripheral>  (357) 
nan

>  <Num_H_Atoms_ProtBoundConf>  (357) 
nan

>  <Num_Resolved_Atoms>  (357) 
nan

>  <Num_Not_Resolved_Atoms>  (357) 
nan

$$$$
CHEMBL3410067
     RDKit          3D

  0  0  0  0  0  0  0  0  0  0999 V3000
M  V30 BEGIN CTAB
M  V30 COUNTS 47 51 0 0 0
M  V30 BEGIN ATOM
M  V30 1 O -3.077276 -5.725834 -0.442236 0
M  V30 2 C -2.109573 -5.292245 0.249004 0
M  V30 3 N -1.583096 -6.261760 1.169753 0
M  V30 4 C -2.139730 -7.611610 1.269348 0
M  V30 5 C -2.093038 -8.172035 2.670502 0
M  V30 6 C -1.122842 -8.710440 1.666721 0
M  V30 7 C -1.561265 -3.941120 0.141146 0
M  V30 8 C -0.508788 -3.437819 0.878673 0
M  V30 9 C -0.112211 -2.157055 0.663399 0
M  V30 10 C -0.673810 -1.283982 -0.246157 0
M  V30 11 C -0.223184 0.087663 -0.452984 0
M  V30 12 C -0.041146 0.637822 -1.705649 0
M  V30 13 N 0.378199 1.915507 -1.537112 0
M  V30 14 C 0.457481 2.161438 -0.211193 0
M  V30 15 C 0.839382 3.326866 0.463106 0
M  V30 16 N 1.226137 4.502920 -0.236376 0
M  V30 17 C 1.604461 5.657546 0.518921 0
M  V30 18 C 2.791027 5.438917 1.430664 0
M  V30 19 C 3.188856 6.677422 2.234402 0
M  V30 20 C 4.067376 6.156678 1.177859 0
M  V30 21 N 0.815668 3.259274 1.806248 0
M  V30 22 C 0.449529 2.146448 2.467259 0
M  V30 23 C 0.078298 1.013485 1.786876 0
M  V30 24 N 0.088526 1.040009 0.444628 0
M  V30 25 C -1.734749 -1.808622 -0.981796 0
M  V30 26 C -2.171317 -3.122095 -0.788401 0
M  V30 27 H -0.786081 -6.011125 1.787238 0
M  V30 28 H -2.976251 -7.881654 0.624280 0
M  V30 29 H -1.604958 -7.566433 3.484309 0
M  V30 30 H -2.896334 -8.811974 3.059397 0
M  V30 31 H -1.278071 -9.727100 1.304963 0
M  V30 32 H -0.046361 -8.397161 1.726586 0
M  V30 33 H -0.054867 -4.106947 1.597295 0
M  V30 34 H 0.725316 -1.802962 1.271278 0
M  V30 35 H -0.189275 0.183391 -2.696623 0
M  V30 36 H 1.214688 4.464966 -1.278453 0
M  V30 37 H 0.754177 5.923772 1.212220 0
M  V30 38 H 1.737991 6.564339 -0.104438 0
M  V30 39 H 2.873984 4.450025 1.881894 0
M  V30 40 H 2.654664 7.625377 2.033769 0
M  V30 41 H 3.371891 6.472973 3.294777 0
M  V30 42 H 4.211607 6.751034 0.238076 0
M  V30 43 H 5.007496 5.670183 1.507090 0
M  V30 44 H 0.435644 2.107916 3.563478 0
M  V30 45 H -0.208559 0.141699 2.323173 0
M  V30 46 H -2.189392 -1.124401 -1.707927 0
M  V30 47 H -3.000139 -3.367564 -1.437390 0
M  V30 END ATOM
M  V30 BEGIN BOND
M  V30 1 2 1 2
M  V30 2 1 2 3
M  V30 3 1 3 4
M  V30 4 1 4 5
M  V30 5 1 5 6
M  V30 6 1 2 7
M  V30 7 2 7 8
M  V30 8 1 8 9
M  V30 9 2 9 10
M  V30 10 1 10 11
M  V30 11 2 11 12
M  V30 12 1 12 13
M  V30 13 2 13 14
M  V30 14 1 14 15
M  V30 15 1 15 16
M  V30 16 1 16 17
M  V30 17 1 17 18
M  V30 18 1 18 19
M  V30 19 1 19 20
M  V30 20 2 15 21
M  V30 21 1 21 22
M  V30 22 2 22 23
M  V30 23 1 23 24
M  V30 24 1 10 25
M  V30 25 2 25 26
M  V30 26 1 6 4
M  V30 27 1 26 7
M  V30 28 1 24 11
M  V30 29 1 24 14
M  V30 30 1 20 18
M  V30 31 1 3 27
M  V30 32 1 4 28
M  V30 33 1 5 29
M  V30 34 1 5 30
M  V30 35 1 6 31
M  V30 36 1 6 32
M  V30 37 1 8 33
M  V30 38 1 9 34
M  V30 39 1 12 35
M  V30 40 1 16 36
M  V30 41 1 17 37
M  V30 42 1 17 38
M  V30 43 1 18 39
M  V30 44 1 19 40
M  V30 45 1 19 41
M  V30 46 1 20 42
M  V30 47 1 20 43
M  V30 48 1 22 44
M  V30 49 1 23 45
M  V30 50 1 25 46
M  V30 51 1 26 47
M  V30 END BOND
M  V30 END CTAB
M  END
>  <Dataset>  (358) 
ChEMBL_Kinases

>  <Ligand_Instance>  (358) 
nan

>  <PDB_ID>  (358) 
nan

>  <Standardized_SMILES>  (358) 
O=C(NC1CC1)c1ccc(-c2cnc3c(NCC4CC4)nccn23)cc1

>  <Name>  (358) 
nan

>  <Pocket>  (358) 
nan

>  <ATP_Site>  (358) 
nan

>  <Peripheral>  (358) 
nan

>  <Num_H_Atoms_ProtBoundConf>  (358) 
nan

>  <Num_Resolved_Atoms>  (358) 
nan

>  <Num_Not_Resolved_Atoms>  (358) 
nan

$$$$
CHEMBL3410068
     RDKit          3D

  0  0  0  0  0  0  0  0  0  0999 V3000
M  V30 BEGIN CTAB
M  V30 COUNTS 54 58 0 0 0
M  V30 BEGIN ATOM
M  V30 1 O 5.193294 -5.546238 -0.241410 0
M  V30 2 C 4.890389 -4.349314 -0.306229 0
M  V30 3 N 6.016311 -3.538881 -0.543496 0
M  V30 4 C 7.462396 -3.484957 -0.752216 0
M  V30 5 C 7.975927 -2.253909 -1.491333 0
M  V30 6 C 8.107214 -2.260476 -0.010660 0
M  V30 7 C 3.619521 -3.666821 -0.185743 0
M  V30 8 C 2.343725 -3.988498 -0.446662 0
M  V30 9 C 1.110574 -3.441747 -0.374825 0
M  V30 10 C 1.224176 -2.132031 0.130826 0
M  V30 11 C 0.093059 -1.248046 0.271869 0
M  V30 12 C -0.936730 -0.763101 -0.485020 0
M  V30 13 N -1.645106 0.029178 0.284441 0
M  V30 14 C -1.093635 0.092858 1.601634 0
M  V30 15 C -2.021857 0.909147 1.988696 0
M  V30 16 N -2.998515 1.773864 2.444746 0
M  V30 17 C -3.684876 2.300869 1.290814 0
M  V30 18 C -4.673468 1.396103 0.624365 0
M  V30 19 C -5.745830 1.044553 1.641096 0
M  V30 20 C -6.940627 0.410296 0.942717 0
M  V30 21 O -7.486839 1.418994 0.152252 0
M  V30 22 C -6.657864 1.613626 -0.935646 0
M  V30 23 C -5.261667 2.024698 -0.617187 0
M  V30 24 N -1.437736 0.907568 3.302946 0
M  V30 25 C -0.324041 0.210026 3.676666 0
M  V30 26 C 0.328556 -0.589847 2.712448 0
M  V30 27 N -0.118873 -0.693285 1.408377 0
M  V30 28 C 2.472285 -1.593935 0.471970 0
M  V30 29 C 3.615370 -2.326867 0.321381 0
M  V30 30 H 5.722984 -2.514031 -0.635842 0
M  V30 31 H 8.076739 -4.367238 -0.822152 0
M  V30 32 H 8.842216 -2.389646 -2.124207 0
M  V30 33 H 7.190787 -1.565997 -1.928103 0
M  V30 34 H 7.383400 -1.619676 0.547759 0
M  V30 35 H 9.064757 -2.416414 0.467753 0
M  V30 36 H 2.375714 -5.042569 -0.842502 0
M  V30 37 H 0.199983 -3.911988 -0.649984 0
M  V30 38 H -0.972666 -1.119234 -1.541454 0
M  V30 39 H -3.415052 2.157691 3.289139 0
M  V30 40 H -2.924341 2.714557 0.536015 0
M  V30 41 H -4.209263 3.271486 1.592451 0
M  V30 42 H -4.209341 0.441475 0.346747 0
M  V30 43 H -6.103626 1.977828 2.102557 0
M  V30 44 H -5.286884 0.404518 2.406957 0
M  V30 45 H -7.624896 0.055622 1.713375 0
M  V30 46 H -6.558530 -0.422466 0.280091 0
M  V30 47 H -6.686028 0.721613 -1.637853 0
M  V30 48 H -7.135905 2.421787 -1.547894 0
M  V30 49 H -4.625115 1.667802 -1.484964 0
M  V30 50 H -5.127541 3.137429 -0.643567 0
M  V30 51 H 0.228704 0.140185 4.655088 0
M  V30 52 H 1.243806 -1.182395 2.951391 0
M  V30 53 H 2.504925 -0.562018 0.867128 0
M  V30 54 H 4.511003 -1.775598 0.633957 0
M  V30 END ATOM
M  V30 BEGIN BOND
M  V30 1 2 1 2
M  V30 2 1 2 3
M  V30 3 1 3 4
M  V30 4 1 4 5
M  V30 5 1 5 6
M  V30 6 1 2 7
M  V30 7 2 7 8
M  V30 8 1 8 9
M  V30 9 2 9 10
M  V30 10 1 10 11
M  V30 11 2 11 12
M  V30 12 1 12 13
M  V30 13 2 13 14
M  V30 14 1 14 15
M  V30 15 1 15 16
M  V30 16 1 16 17
M  V30 17 1 17 18
M  V30 18 1 18 19
M  V30 19 1 19 20
M  V30 20 1 20 21
M  V30 21 1 21 22
M  V30 22 1 22 23
M  V30 23 2 15 24
M  V30 24 1 24 25
M  V30 25 2 25 26
M  V30 26 1 26 27
M  V30 27 1 10 28
M  V30 28 2 28 29
M  V30 29 1 6 4
M  V30 30 1 29 7
M  V30 31 1 27 11
M  V30 32 1 27 14
M  V30 33 1 23 18
M  V30 34 1 3 30
M  V30 35 1 4 31
M  V30 36 1 5 32
M  V30 37 1 5 33
M  V30 38 1 6 34
M  V30 39 1 6 35
M  V30 40 1 8 36
M  V30 41 1 9 37
M  V30 42 1 12 38
M  V30 43 1 16 39
M  V30 44 1 17 40
M  V30 45 1 17 41
M  V30 46 1 18 42
M  V30 47 1 19 43
M  V30 48 1 19 44
M  V30 49 1 20 45
M  V30 50 1 20 46
M  V30 51 1 22 47
M  V30 52 1 22 48
M  V30 53 1 23 49
M  V30 54 1 23 50
M  V30 55 1 25 51
M  V30 56 1 26 52
M  V30 57 1 28 53
M  V30 58 1 29 54
M  V30 END BOND
M  V30 END CTAB
M  END
>  <Dataset>  (359) 
ChEMBL_Kinases

>  <Ligand_Instance>  (359) 
nan

>  <PDB_ID>  (359) 
nan

>  <Standardized_SMILES>  (359) 
O=C(NC1CC1)c1ccc(-c2cnc3c(NCC4CCOCC4)nccn23)cc1

>  <Name>  (359) 
nan

>  <Pocket>  (359) 
nan

>  <ATP_Site>  (359) 
nan

>  <Peripheral>  (359) 
nan

>  <Num_H_Atoms_ProtBoundConf>  (359) 
nan

>  <Num_Resolved_Atoms>  (359) 
nan

>  <Num_Not_Resolved_Atoms>  (359) 
nan

$$$$
CHEMBL3410069
     RDKit          3D

  0  0  0  0  0  0  0  0  0  0999 V3000
M  V30 BEGIN CTAB
M  V30 COUNTS 47 51 0 0 0
M  V30 BEGIN ATOM
M  V30 1 O 2.657597 -5.744088 1.914297 0
M  V30 2 C 3.030146 -4.545105 2.122288 0
M  V30 3 N 4.141904 -4.419941 3.003381 0
M  V30 4 C 4.846955 -5.493709 3.649121 0
M  V30 5 C 5.453612 -5.337203 4.984849 0
M  V30 6 C 6.345085 -5.455680 3.745356 0
M  V30 7 C 2.381342 -3.385022 1.515094 0
M  V30 8 C 2.748999 -2.067590 1.710352 0
M  V30 9 C 2.076338 -1.031417 1.093372 0
M  V30 10 C 0.996989 -1.302252 0.249083 0
M  V30 11 C 0.405643 -0.093893 -0.315745 0
M  V30 12 C 1.108083 0.965884 -0.853013 0
M  V30 13 N 0.208549 1.879544 -1.264521 0
M  V30 14 C -1.035666 1.410829 -0.994843 0
M  V30 15 C -2.257304 2.042840 -1.258921 0
M  V30 16 N -2.307511 3.314186 -1.873158 0
M  V30 17 C -3.579324 3.952735 -2.138469 0
M  V30 18 C -4.405579 4.216909 -0.991079 0
M  V30 19 C -4.527275 5.271534 -0.133443 0
M  V30 20 C -5.421309 5.256719 0.902942 0
M  V30 21 C -6.211491 4.094020 1.039320 0
M  V30 22 S -5.635181 3.012876 -0.368408 0
M  V30 23 N -3.333413 1.348190 -0.885639 0
M  V30 24 C -3.227879 0.140015 -0.304261 0
M  V30 25 C -2.006123 -0.450507 -0.060263 0
M  V30 26 N -0.898844 0.213660 -0.419869 0
M  V30 27 C 0.618185 -2.614478 0.044508 0
M  V30 28 C 1.312424 -3.629887 0.677209 0
M  V30 29 H 4.526989 -3.478530 3.240831 0
M  V30 30 H 4.452651 -6.502855 3.409841 0
M  V30 31 H 5.437417 -6.172555 5.712612 0
M  V30 32 H 5.445279 -4.328763 5.493472 0
M  V30 33 H 6.869200 -4.547850 3.439927 0
M  V30 34 H 6.927102 -6.400874 3.688836 0
M  V30 35 H 3.587589 -1.887773 2.368618 0
M  V30 36 H 2.444113 -0.022977 1.312043 0
M  V30 37 H 2.204904 0.992774 -0.903697 0
M  V30 38 H -1.407389 3.775765 -2.127993 0
M  V30 39 H -3.453635 4.860142 -2.782289 0
M  V30 40 H -4.130007 3.227096 -2.806839 0
M  V30 41 H -3.872659 6.107637 -0.332653 0
M  V30 42 H -5.544794 6.068672 1.598119 0
M  V30 43 H -6.970057 3.943990 1.825402 0
M  V30 44 H -4.165088 -0.345666 -0.036909 0
M  V30 45 H -1.951139 -1.424042 0.409224 0
M  V30 46 H -0.221905 -2.732350 -0.619606 0
M  V30 47 H 0.926563 -4.625277 0.443118 0
M  V30 END ATOM
M  V30 BEGIN BOND
M  V30 1 2 1 2
M  V30 2 1 2 3
M  V30 3 1 3 4
M  V30 4 1 4 5
M  V30 5 1 5 6
M  V30 6 1 2 7
M  V30 7 2 7 8
M  V30 8 1 8 9
M  V30 9 2 9 10
M  V30 10 1 10 11
M  V30 11 2 11 12
M  V30 12 1 12 13
M  V30 13 2 13 14
M  V30 14 1 14 15
M  V30 15 1 15 16
M  V30 16 1 16 17
M  V30 17 1 17 18
M  V30 18 2 18 19
M  V30 19 1 19 20
M  V30 20 2 20 21
M  V30 21 1 21 22
M  V30 22 2 15 23
M  V30 23 1 23 24
M  V30 24 2 24 25
M  V30 25 1 25 26
M  V30 26 1 10 27
M  V30 27 2 27 28
M  V30 28 1 6 4
M  V30 29 1 28 7
M  V30 30 1 26 11
M  V30 31 1 26 14
M  V30 32 1 22 18
M  V30 33 1 3 29
M  V30 34 1 4 30
M  V30 35 1 5 31
M  V30 36 1 5 32
M  V30 37 1 6 33
M  V30 38 1 6 34
M  V30 39 1 8 35
M  V30 40 1 9 36
M  V30 41 1 12 37
M  V30 42 1 16 38
M  V30 43 1 17 39
M  V30 44 1 17 40
M  V30 45 1 19 41
M  V30 46 1 20 42
M  V30 47 1 21 43
M  V30 48 1 24 44
M  V30 49 1 25 45
M  V30 50 1 27 46
M  V30 51 1 28 47
M  V30 END BOND
M  V30 END CTAB
M  END
>  <Dataset>  (360) 
ChEMBL_Kinases

>  <Ligand_Instance>  (360) 
nan

>  <PDB_ID>  (360) 
nan

>  <Standardized_SMILES>  (360) 
O=C(NC1CC1)c1ccc(-c2cnc3c(NCc4cccs4)nccn23)cc1

>  <Name>  (360) 
nan

>  <Pocket>  (360) 
nan

>  <ATP_Site>  (360) 
nan

>  <Peripheral>  (360) 
nan

>  <Num_H_Atoms_ProtBoundConf>  (360) 
nan

>  <Num_Resolved_Atoms>  (360) 
nan

>  <Num_Not_Resolved_Atoms>  (360) 
nan

$$$$
CHEMBL3410070
     RDKit          3D

  0  0  0  0  0  0  0  0  0  0999 V3000
M  V30 BEGIN CTAB
M  V30 COUNTS 64 69 0 0 0
M  V30 BEGIN ATOM
M  V30 1 O 6.594722 -0.940738 2.284103 0
M  V30 2 C 5.974497 0.074243 2.628299 0
M  V30 3 N 6.647784 0.944708 3.529195 0
M  V30 4 C 7.978259 0.700779 4.040023 0
M  V30 5 C 8.320516 1.026187 5.452428 0
M  V30 6 C 8.927910 1.790059 4.325589 0
M  V30 7 C 4.631175 0.311835 2.106755 0
M  V30 8 C 4.132412 -0.638708 1.239861 0
M  V30 9 C 2.866664 -0.482086 0.704662 0
M  V30 10 C 2.076268 0.606847 1.012749 0
M  V30 11 C 0.734130 0.851141 0.495059 0
M  V30 12 C 0.366370 2.117579 0.031726 0
M  V30 13 N -0.921754 1.965956 -0.362180 0
M  V30 14 C -1.312828 0.690415 -0.152369 0
M  V30 15 C -2.540010 0.097838 -0.407566 0
M  V30 16 N -3.618674 0.830887 -0.967227 0
M  V30 17 C -4.927388 0.275967 -1.261015 0
M  V30 18 C -4.796628 -0.831939 -2.254649 0
M  V30 19 C -6.142303 -1.447775 -2.598798 0
M  V30 20 C -6.964888 -0.446749 -3.376150 0
M  V30 21 O -6.339263 0.014900 -4.508712 0
M  V30 22 C -5.084068 0.543521 -4.301183 0
M  V30 23 C -4.161916 -0.374595 -3.550726 0
M  V30 24 N -2.633344 -1.203925 -0.090119 0
M  V30 25 C -1.631516 -1.925831 0.441351 0
M  V30 26 C -1.858637 -3.332671 0.741662 0
M  V30 27 C -0.918999 -4.180314 1.285720 0
M  V30 28 C -1.144071 -5.504067 1.564292 0
M  V30 29 C -2.393023 -6.035785 1.285288 0
M  V30 30 C -3.375181 -5.243364 0.741701 0
M  V30 31 C -3.077389 -3.918669 0.487428 0
M  V30 32 C -0.429333 -1.304923 0.680446 0
M  V30 33 N -0.300750 -0.001274 0.374358 0
M  V30 34 C 2.630780 1.537564 1.894850 0
M  V30 35 C 3.888713 1.423618 2.453760 0
M  V30 36 H 6.159192 1.812666 3.844678 0
M  V30 37 H 8.435461 -0.237073 3.660952 0
M  V30 38 H 7.480132 1.516005 6.005845 0
M  V30 39 H 8.871577 0.317032 6.067765 0
M  V30 40 H 8.669487 2.861398 4.262355 0
M  V30 41 H 10.014294 1.610259 4.187300 0
M  V30 42 H 4.697844 -1.521819 0.952034 0
M  V30 43 H 2.455543 -1.214655 0.022746 0
M  V30 44 H 0.956519 3.024121 -0.011934 0
M  V30 45 H -3.461629 1.839544 -1.183431 0
M  V30 46 H -5.273068 -0.205503 -0.302919 0
M  V30 47 H -5.637749 1.053729 -1.559736 0
M  V30 48 H -4.198832 -1.646811 -1.814851 0
M  V30 49 H -6.679113 -1.686830 -1.669102 0
M  V30 50 H -5.922308 -2.355140 -3.178864 0
M  V30 51 H -7.246638 0.351676 -2.669695 0
M  V30 52 H -7.896079 -0.957024 -3.701685 0
M  V30 53 H -4.627135 0.670184 -5.325069 0
M  V30 54 H -5.104657 1.552987 -3.841676 0
M  V30 55 H -3.206645 0.148308 -3.391878 0
M  V30 56 H -4.046421 -1.303985 -4.163201 0
M  V30 57 H 0.063969 -3.793911 1.513873 0
M  V30 58 H -0.390598 -6.131336 1.986512 0
M  V30 59 H -2.614186 -7.065159 1.486271 0
M  V30 60 H -4.368808 -5.650782 0.515482 0
M  V30 61 H -3.865339 -3.306970 0.057663 0
M  V30 62 H 0.408552 -1.837770 1.106181 0
M  V30 63 H 2.055827 2.421625 2.178713 0
M  V30 64 H 4.283039 2.159225 3.128780 0
M  V30 END ATOM
M  V30 BEGIN BOND
M  V30 1 2 1 2
M  V30 2 1 2 3
M  V30 3 1 3 4
M  V30 4 1 4 5
M  V30 5 1 5 6
M  V30 6 1 2 7
M  V30 7 2 7 8
M  V30 8 1 8 9
M  V30 9 2 9 10
M  V30 10 1 10 11
M  V30 11 2 11 12
M  V30 12 1 12 13
M  V30 13 2 13 14
M  V30 14 1 14 15
M  V30 15 1 15 16
M  V30 16 1 16 17
M  V30 17 1 17 18
M  V30 18 1 18 19
M  V30 19 1 19 20
M  V30 20 1 20 21
M  V30 21 1 21 22
M  V30 22 1 22 23
M  V30 23 2 15 24
M  V30 24 1 24 25
M  V30 25 1 25 26
M  V30 26 2 26 27
M  V30 27 1 27 28
M  V30 28 2 28 29
M  V30 29 1 29 30
M  V30 30 2 30 31
M  V30 31 2 25 32
M  V30 32 1 32 33
M  V30 33 1 10 34
M  V30 34 2 34 35
M  V30 35 1 6 4
M  V30 36 1 35 7
M  V30 37 1 33 11
M  V30 38 1 33 14
M  V30 39 1 23 18
M  V30 40 1 31 26
M  V30 41 1 3 36
M  V30 42 1 4 37
M  V30 43 1 5 38
M  V30 44 1 5 39
M  V30 45 1 6 40
M  V30 46 1 6 41
M  V30 47 1 8 42
M  V30 48 1 9 43
M  V30 49 1 12 44
M  V30 50 1 16 45
M  V30 51 1 17 46
M  V30 52 1 17 47
M  V30 53 1 18 48
M  V30 54 1 19 49
M  V30 55 1 19 50
M  V30 56 1 20 51
M  V30 57 1 20 52
M  V30 58 1 22 53
M  V30 59 1 22 54
M  V30 60 1 23 55
M  V30 61 1 23 56
M  V30 62 1 27 57
M  V30 63 1 28 58
M  V30 64 1 29 59
M  V30 65 1 30 60
M  V30 66 1 31 61
M  V30 67 1 32 62
M  V30 68 1 34 63
M  V30 69 1 35 64
M  V30 END BOND
M  V30 END CTAB
M  END
>  <Dataset>  (361) 
ChEMBL_Kinases

>  <Ligand_Instance>  (361) 
nan

>  <PDB_ID>  (361) 
nan

>  <Standardized_SMILES>  (361) 
O=C(NC1CC1)c1ccc(-c2cnc3c(NCC4CCOCC4)nc(-c4ccccc4)cn23)cc1

>  <Name>  (361) 
nan

>  <Pocket>  (361) 
nan

>  <ATP_Site>  (361) 
nan

>  <Peripheral>  (361) 
nan

>  <Num_H_Atoms_ProtBoundConf>  (361) 
nan

>  <Num_Resolved_Atoms>  (361) 
nan

>  <Num_Not_Resolved_Atoms>  (361) 
nan

$$$$
CHEMBL3410071
     RDKit          3D

  0  0  0  0  0  0  0  0  0  0999 V3000
M  V30 BEGIN CTAB
M  V30 COUNTS 65 70 0 0 0
M  V30 BEGIN ATOM
M  V30 1 N 5.542162 -3.700701 6.615752 0
M  V30 2 C 4.913967 -3.427111 5.686790 0
M  V30 3 C 4.138400 -3.066386 4.504117 0
M  V30 4 C 3.408540 -1.881057 4.561833 0
M  V30 5 C 2.702747 -1.616184 3.405368 0
M  V30 6 C 2.665610 -2.381736 2.272564 0
M  V30 7 C 1.886002 -1.979552 1.119219 0
M  V30 8 C 1.118346 -0.869704 0.933542 0
M  V30 9 N 0.416890 -0.528823 -0.146302 0
M  V30 10 C -0.344397 0.540802 -0.420934 0
M  V30 11 C -0.652775 1.690133 0.413932 0
M  V30 12 C -1.105305 1.368217 1.668871 0
M  V30 13 C -1.454332 2.277239 2.636105 0
M  V30 14 C -1.332835 3.601462 2.299845 0
M  V30 15 C -1.646834 4.849626 3.033583 0
M  V30 16 O -1.347976 6.055061 2.933150 0
M  V30 17 N -2.528252 4.528058 4.132692 0
M  V30 18 C -2.986013 5.600380 5.017023 0
M  V30 19 C -3.675681 5.309204 6.291370 0
M  V30 20 C -4.486353 5.664939 5.090811 0
M  V30 21 C -0.881455 4.001680 1.053792 0
M  V30 22 C -0.534145 3.035420 0.087197 0
M  V30 23 C -0.784490 0.333303 -1.707917 0
M  V30 24 N -0.288316 -0.827163 -2.152470 0
M  V30 25 C 0.478888 -1.396741 -1.182091 0
M  V30 26 C 1.249407 -2.587562 -1.096567 0
M  V30 27 N 1.129552 -3.304139 -2.218180 0
M  V30 28 C 1.010675 -4.088543 -3.421800 0
M  V30 29 C -0.035805 -3.507058 -4.371314 0
M  V30 30 C -1.407751 -3.445223 -3.802551 0
M  V30 31 C -2.215563 -4.698970 -4.039183 0
M  V30 32 O -2.214241 -5.122045 -5.336220 0
M  V30 33 C -1.375582 -4.459246 -6.196938 0
M  V30 34 C 0.000305 -4.360687 -5.621954 0
M  V30 35 N 1.889986 -2.766098 0.065784 0
M  V30 36 C 3.406684 -3.543587 2.272763 0
M  V30 37 C 4.161092 -3.908153 3.394852 0
M  V30 38 H 3.379910 -1.226660 5.404139 0
M  V30 39 H 2.115984 -0.711658 3.382955 0
M  V30 40 H 1.079530 -0.182739 1.763466 0
M  V30 41 H -1.235899 0.336466 2.028193 0
M  V30 42 H -1.814591 2.152154 3.640023 0
M  V30 43 H -2.918672 3.610889 4.426188 0
M  V30 44 H -2.505574 6.606561 4.869883 0
M  V30 45 H -3.800169 4.312687 6.720799 0
M  V30 46 H -3.631861 6.119104 7.067971 0
M  V30 47 H -4.977912 6.646964 5.006903 0
M  V30 48 H -5.106840 4.822260 4.672687 0
M  V30 49 H -0.718956 4.975141 0.607186 0
M  V30 50 H -0.171829 3.206801 -0.916413 0
M  V30 51 H -1.440831 0.993739 -2.300621 0
M  V30 52 H 1.812879 -4.076304 -1.897163 0
M  V30 53 H 0.700031 -5.116617 -3.235186 0
M  V30 54 H 1.947640 -4.041975 -4.003258 0
M  V30 55 H 0.250023 -2.494084 -4.701438 0
M  V30 56 H -1.462981 -3.248250 -2.721596 0
M  V30 57 H -1.986055 -2.630761 -4.308217 0
M  V30 58 H -3.264804 -4.482472 -3.738496 0
M  V30 59 H -1.880319 -5.542084 -3.375942 0
M  V30 60 H -1.295119 -5.130198 -7.108429 0
M  V30 61 H -1.755582 -3.511942 -6.597823 0
M  V30 62 H 0.748939 -3.987942 -6.354980 0
M  V30 63 H 0.285780 -5.402337 -5.298308 0
M  V30 64 H 3.407923 -4.181796 1.401661 0
M  V30 65 H 4.737141 -4.811808 3.394076 0
M  V30 END ATOM
M  V30 BEGIN BOND
M  V30 1 3 1 2
M  V30 2 1 2 3
M  V30 3 2 3 4
M  V30 4 1 4 5
M  V30 5 2 5 6
M  V30 6 1 6 7
M  V30 7 2 7 8
M  V30 8 1 8 9
M  V30 9 1 9 10
M  V30 10 1 10 11
M  V30 11 2 11 12
M  V30 12 1 12 13
M  V30 13 2 13 14
M  V30 14 1 14 15
M  V30 15 2 15 16
M  V30 16 1 15 17
M  V30 17 1 17 18
M  V30 18 1 18 19
M  V30 19 1 19 20
M  V30 20 1 14 21
M  V30 21 2 21 22
M  V30 22 2 10 23
M  V30 23 1 23 24
M  V30 24 2 24 25
M  V30 25 1 25 26
M  V30 26 1 26 27
M  V30 27 1 27 28
M  V30 28 1 28 29
M  V30 29 1 29 30
M  V30 30 1 30 31
M  V30 31 1 31 32
M  V30 32 1 32 33
M  V30 33 1 33 34
M  V30 34 2 26 35
M  V30 35 1 6 36
M  V30 36 2 36 37
M  V30 37 1 37 3
M  V30 38 1 35 7
M  V30 39 1 25 9
M  V30 40 1 34 29
M  V30 41 1 22 11
M  V30 42 1 20 18
M  V30 43 1 4 38
M  V30 44 1 5 39
M  V30 45 1 8 40
M  V30 46 1 12 41
M  V30 47 1 13 42
M  V30 48 1 17 43
M  V30 49 1 18 44
M  V30 50 1 19 45
M  V30 51 1 19 46
M  V30 52 1 20 47
M  V30 53 1 20 48
M  V30 54 1 21 49
M  V30 55 1 22 50
M  V30 56 1 23 51
M  V30 57 1 27 52
M  V30 58 1 28 53
M  V30 59 1 28 54
M  V30 60 1 29 55
M  V30 61 1 30 56
M  V30 62 1 30 57
M  V30 63 1 31 58
M  V30 64 1 31 59
M  V30 65 1 33 60
M  V30 66 1 33 61
M  V30 67 1 34 62
M  V30 68 1 34 63
M  V30 69 1 36 64
M  V30 70 1 37 65
M  V30 END BOND
M  V30 END CTAB
M  END
>  <Dataset>  (362) 
ChEMBL_Kinases

>  <Ligand_Instance>  (362) 
nan

>  <PDB_ID>  (362) 
nan

>  <Standardized_SMILES>  (362) 
N#Cc1ccc(-c2cn3c(-c4ccc(C(=O)NC5CC5)cc4)cnc3c(NCC3CCOCC3)n2)cc1

>  <Name>  (362) 
nan

>  <Pocket>  (362) 
nan

>  <ATP_Site>  (362) 
nan

>  <Peripheral>  (362) 
nan

>  <Num_H_Atoms_ProtBoundConf>  (362) 
nan

>  <Num_Resolved_Atoms>  (362) 
nan

>  <Num_Not_Resolved_Atoms>  (362) 
nan

$$$$
CHEMBL3410072
     RDKit          3D

  0  0  0  0  0  0  0  0  0  0999 V3000
M  V30 BEGIN CTAB
M  V30 COUNTS 65 70 0 0 0
M  V30 BEGIN ATOM
M  V30 1 N 1.498626 3.448834 6.367527 0
M  V30 2 C 1.218463 3.154512 5.280499 0
M  V30 3 C 0.848967 2.788090 3.943439 0
M  V30 4 C 0.222905 1.591195 3.625978 0
M  V30 5 C -0.112485 1.286618 2.318512 0
M  V30 6 C 0.171373 2.172220 1.303366 0
M  V30 7 C -0.200892 1.806438 -0.053693 0
M  V30 8 C -0.011653 2.536867 -1.204171 0
M  V30 9 C -0.382219 2.144387 -2.461673 0
M  V30 10 N -0.146064 3.002204 -3.560444 0
M  V30 11 C 0.398754 4.237824 -3.975872 0
M  V30 12 C 1.872517 4.378680 -4.049573 0
M  V30 13 C 2.664683 4.198990 -2.805689 0
M  V30 14 C 3.218396 2.790014 -2.694864 0
M  V30 15 O 4.227174 2.642680 -3.618810 0
M  V30 16 C 3.919097 3.180052 -4.824570 0
M  V30 17 C 2.477547 3.456427 -5.113495 0
M  V30 18 C -1.003074 0.891896 -2.551882 0
M  V30 19 N -1.474118 0.240979 -3.630739 0
M  V30 20 C -1.983558 -0.928831 -3.221396 0
M  V30 21 C -1.788786 -0.930099 -1.860786 0
M  V30 22 C -2.206016 -2.039190 -1.006472 0
M  V30 23 C -2.862499 -1.859542 0.194755 0
M  V30 24 C -3.219745 -2.992967 0.936928 0
M  V30 25 C -2.949638 -4.284378 0.530033 0
M  V30 26 C -3.361483 -5.403018 1.371695 0
M  V30 27 O -3.950076 -5.073289 2.444680 0
M  V30 28 N -3.108242 -6.748757 0.990881 0
M  V30 29 C -3.528173 -7.859626 1.846603 0
M  V30 30 C -2.476749 -8.940786 1.989929 0
M  V30 31 C -3.768136 -9.200042 1.278101 0
M  V30 32 C -2.292118 -4.403129 -0.677477 0
M  V30 33 C -1.919424 -3.317222 -1.444643 0
M  V30 34 N -1.183353 0.189209 -1.430931 0
M  V30 35 N -0.811873 0.600942 -0.234709 0
M  V30 36 C 0.791690 3.353250 1.634293 0
M  V30 37 C 1.144029 3.695538 2.932548 0
M  V30 38 H -0.004480 0.885715 4.425633 0
M  V30 39 H -0.605025 0.315576 2.167383 0
M  V30 40 H 0.457400 3.455396 -0.953605 0
M  V30 41 H -0.526661 2.531229 -4.444431 0
M  V30 42 H -0.011611 5.073148 -3.298451 0
M  V30 43 H -0.000640 4.574891 -4.977819 0
M  V30 44 H 2.073277 5.416182 -4.444275 0
M  V30 45 H 3.604535 4.834846 -2.950803 0
M  V30 46 H 2.231618 4.576433 -1.893990 0
M  V30 47 H 2.467996 2.002689 -2.729645 0
M  V30 48 H 3.721190 2.765227 -1.685403 0
M  V30 49 H 4.390262 2.582287 -5.635290 0
M  V30 50 H 4.444790 4.181567 -4.876650 0
M  V30 51 H 1.902762 2.527701 -5.106737 0
M  V30 52 H 2.405364 3.935190 -6.108689 0
M  V30 53 H -2.445127 -1.698361 -3.833422 0
M  V30 54 H -3.086694 -0.859584 0.537621 0
M  V30 55 H -3.734357 -2.762187 1.872210 0
M  V30 56 H -2.621173 -6.992284 0.100437 0
M  V30 57 H -4.032342 -7.519501 2.764082 0
M  V30 58 H -1.528902 -8.862117 1.419014 0
M  V30 59 H -2.329330 -9.387091 2.992336 0
M  V30 60 H -4.482015 -9.846809 1.829606 0
M  V30 61 H -3.831416 -9.242783 0.183825 0
M  V30 62 H -2.061908 -5.395136 -1.031707 0
M  V30 63 H -1.406511 -3.495827 -2.380428 0
M  V30 64 H 1.031533 4.068420 0.888432 0
M  V30 65 H 1.631946 4.635078 3.157325 0
M  V30 END ATOM
M  V30 BEGIN BOND
M  V30 1 3 1 2
M  V30 2 1 2 3
M  V30 3 2 3 4
M  V30 4 1 4 5
M  V30 5 2 5 6
M  V30 6 1 6 7
M  V30 7 1 7 8
M  V30 8 2 8 9
M  V30 9 1 9 10
M  V30 10 1 10 11
M  V30 11 1 11 12
M  V30 12 1 12 13
M  V30 13 1 13 14
M  V30 14 1 14 15
M  V30 15 1 15 16
M  V30 16 1 16 17
M  V30 17 1 9 18
M  V30 18 2 18 19
M  V30 19 1 19 20
M  V30 20 2 20 21
M  V30 21 1 21 22
M  V30 22 2 22 23
M  V30 23 1 23 24
M  V30 24 2 24 25
M  V30 25 1 25 26
M  V30 26 2 26 27
M  V30 27 1 26 28
M  V30 28 1 28 29
M  V30 29 1 29 30
M  V30 30 1 30 31
M  V30 31 1 25 32
M  V30 32 2 32 33
M  V30 33 1 21 34
M  V30 34 1 34 35
M  V30 35 1 6 36
M  V30 36 2 36 37
M  V30 37 1 37 3
M  V30 38 2 35 7
M  V30 39 1 17 12
M  V30 40 1 34 18
M  V30 41 1 33 22
M  V30 42 1 31 29
M  V30 43 1 4 38
M  V30 44 1 5 39
M  V30 45 1 8 40
M  V30 46 1 10 41
M  V30 47 1 11 42
M  V30 48 1 11 43
M  V30 49 1 12 44
M  V30 50 1 13 45
M  V30 51 1 13 46
M  V30 52 1 14 47
M  V30 53 1 14 48
M  V30 54 1 16 49
M  V30 55 1 16 50
M  V30 56 1 17 51
M  V30 57 1 17 52
M  V30 58 1 20 53
M  V30 59 1 23 54
M  V30 60 1 24 55
M  V30 61 1 28 56
M  V30 62 1 29 57
M  V30 63 1 30 58
M  V30 64 1 30 59
M  V30 65 1 31 60
M  V30 66 1 31 61
M  V30 67 1 32 62
M  V30 68 1 33 63
M  V30 69 1 36 64
M  V30 70 1 37 65
M  V30 END BOND
M  V30 END CTAB
M  END
>  <Dataset>  (363) 
ChEMBL_Kinases

>  <Ligand_Instance>  (363) 
nan

>  <PDB_ID>  (363) 
nan

>  <Standardized_SMILES>  (363) 
N#Cc1ccc(-c2cc(NCC3CCOCC3)c3ncc(-c4ccc(C(=O)NC5CC5)cc4)n3n2)cc1

>  <Name>  (363) 
nan

>  <Pocket>  (363) 
nan

>  <ATP_Site>  (363) 
nan

>  <Peripheral>  (363) 
nan

>  <Num_H_Atoms_ProtBoundConf>  (363) 
nan

>  <Num_Resolved_Atoms>  (363) 
nan

>  <Num_Not_Resolved_Atoms>  (363) 
nan

$$$$
CHEMBL3410064
     RDKit          3D

  0  0  0  0  0  0  0  0  0  0999 V3000
M  V30 BEGIN CTAB
M  V30 COUNTS 46 49 0 0 0
M  V30 BEGIN ATOM
M  V30 1 C 1.021317 -7.010463 -1.695117 0
M  V30 2 C -0.458844 -6.867108 -1.583905 0
M  V30 3 C -1.085580 -6.000541 -2.648121 0
M  V30 4 N -0.587136 -4.644666 -2.651924 0
M  V30 5 C -0.733253 -3.836105 -1.518389 0
M  V30 6 N -1.329925 -4.291416 -0.417173 0
M  V30 7 C -1.448957 -3.481879 0.648010 0
M  V30 8 C -0.968587 -2.198018 0.622848 0
M  V30 9 N -0.369165 -1.744273 -0.486884 0
M  V30 10 C 0.164737 -0.528690 -0.713352 0
M  V30 11 C 0.280425 0.667924 0.113925 0
M  V30 12 C 0.684578 0.597884 1.433648 0
M  V30 13 C 0.796059 1.726784 2.221885 0
M  V30 14 C 0.505996 2.982399 1.720020 0
M  V30 15 C 0.591612 4.236163 2.468259 0
M  V30 16 O 0.309246 5.347494 1.938907 0
M  V30 17 N 0.996633 4.268555 3.828490 0
M  V30 18 C 1.086776 5.496146 4.582169 0
M  V30 19 C 1.929141 5.607233 5.787801 0
M  V30 20 C 0.451111 5.392720 5.977891 0
M  V30 21 C 0.103093 3.040953 0.400220 0
M  V30 22 C -0.015020 1.923988 -0.405683 0
M  V30 23 C 0.641764 -0.610314 -2.012255 0
M  V30 24 N 0.396985 -1.832791 -2.533058 0
M  V30 25 C -0.234514 -2.529641 -1.569398 0
M  V30 26 H 1.345077 -7.832070 -2.355047 0
M  V30 27 H 1.540190 -6.060301 -1.922082 0
M  V30 28 H 1.408213 -7.305208 -0.676927 0
M  V30 29 H -0.898950 -7.890495 -1.758969 0
M  V30 30 H -0.735206 -6.609334 -0.563634 0
M  V30 31 H -0.922224 -6.516061 -3.611171 0
M  V30 32 H -2.177665 -6.025908 -2.474242 0
M  V30 33 H -0.123572 -4.311586 -3.526743 0
M  V30 34 H -1.926429 -3.839525 1.535509 0
M  V30 35 H -1.085164 -1.581741 1.500265 0
M  V30 36 H 0.928002 -0.336270 1.898986 0
M  V30 37 H 1.111991 1.675303 3.254722 0
M  V30 38 H 1.248117 3.395304 4.342992 0
M  V30 39 H 0.821141 6.412214 4.036493 0
M  V30 40 H 2.543487 4.724837 6.090532 0
M  V30 41 H 2.406611 6.558558 6.020134 0
M  V30 42 H 0.077896 4.404044 6.315160 0
M  V30 43 H -0.069085 6.264345 6.401386 0
M  V30 44 H -0.148047 3.966153 -0.094099 0
M  V30 45 H -0.334102 1.989401 -1.443873 0
M  V30 46 H 1.149522 0.159534 -2.590303 0
M  V30 END ATOM
M  V30 BEGIN BOND
M  V30 1 1 1 2
M  V30 2 1 2 3
M  V30 3 1 3 4
M  V30 4 1 4 5
M  V30 5 2 5 6
M  V30 6 1 6 7
M  V30 7 2 7 8
M  V30 8 1 8 9
M  V30 9 1 9 10
M  V30 10 1 10 11
M  V30 11 2 11 12
M  V30 12 1 12 13
M  V30 13 2 13 14
M  V30 14 1 14 15
M  V30 15 2 15 16
M  V30 16 1 15 17
M  V30 17 1 17 18
M  V30 18 1 18 19
M  V30 19 1 19 20
M  V30 20 1 14 21
M  V30 21 2 21 22
M  V30 22 2 10 23
M  V30 23 1 23 24
M  V30 24 2 24 25
M  V30 25 1 25 5
M  V30 26 1 25 9
M  V30 27 1 22 11
M  V30 28 1 20 18
M  V30 29 1 1 26
M  V30 30 1 1 27
M  V30 31 1 1 28
M  V30 32 1 2 29
M  V30 33 1 2 30
M  V30 34 1 3 31
M  V30 35 1 3 32
M  V30 36 1 4 33
M  V30 37 1 7 34
M  V30 38 1 8 35
M  V30 39 1 12 36
M  V30 40 1 13 37
M  V30 41 1 17 38
M  V30 42 1 18 39
M  V30 43 1 19 40
M  V30 44 1 19 41
M  V30 45 1 20 42
M  V30 46 1 20 43
M  V30 47 1 21 44
M  V30 48 1 22 45
M  V30 49 1 23 46
M  V30 END BOND
M  V30 END CTAB
M  END
>  <Dataset>  (364) 
ChEMBL_Kinases

>  <Ligand_Instance>  (364) 
nan

>  <PDB_ID>  (364) 
nan

>  <Standardized_SMILES>  (364) 
CCCNc1nccn2c(-c3ccc(C(=O)NC4CC4)cc3)cnc12

>  <Name>  (364) 
nan

>  <Pocket>  (364) 
nan

>  <ATP_Site>  (364) 
nan

>  <Peripheral>  (364) 
nan

>  <Num_H_Atoms_ProtBoundConf>  (364) 
nan

>  <Num_Resolved_Atoms>  (364) 
nan

>  <Num_Not_Resolved_Atoms>  (364) 
nan

$$$$
CHEMBL346467
     RDKit          3D

  0  0  0  0  0  0  0  0  0  0999 V3000
M  V30 BEGIN CTAB
M  V30 COUNTS 55 60 0 0 0
M  V30 BEGIN ATOM
M  V30 1 C 4.852032 -5.616930 3.426192 0
M  V30 2 O 4.557096 -4.670927 2.416297 0
M  V30 3 C 3.351858 -3.979277 2.459218 0
M  V30 4 C 2.460713 -4.222707 3.489291 0
M  V30 5 C 1.313637 -3.486327 3.423848 0
M  V30 6 C 0.961416 -2.536634 2.445714 0
M  V30 7 C 1.878628 -2.328259 1.441586 0
M  V30 8 C 3.034407 -3.057060 1.489754 0
M  V30 9 C 1.285022 -1.380485 0.649612 0
M  V30 10 C 1.744068 -0.788755 -0.492346 0
M  V30 11 C 0.989646 0.158702 -1.151441 0
M  V30 12 C -0.238767 0.441569 -0.562471 0
M  V30 13 C -1.192140 1.334869 -1.003955 0
M  V30 14 C -1.286823 2.193466 -2.084801 0
M  V30 15 C -2.384849 2.979637 -2.283324 0
M  V30 16 O -2.488176 3.846822 -3.370485 0
M  V30 17 C -1.398436 3.878701 -4.270797 0
M  V30 18 C -3.441209 2.941603 -1.405890 0
M  V30 19 C -3.300248 2.077738 -0.354523 0
M  V30 20 C -2.200107 1.243154 -0.092584 0
M  V30 21 N -1.953006 0.341103 0.911449 0
M  V30 22 C -2.885348 0.142260 1.908233 0
M  V30 23 C -3.912469 -0.920342 1.468579 0
M  V30 24 C -4.911003 -1.176244 2.485802 0
M  V30 25 N -5.691333 -1.396376 3.291438 0
M  V30 26 C -0.739976 -0.142464 0.605230 0
M  V30 27 C 0.050373 -1.080464 1.226568 0
M  V30 28 N -0.181962 -1.781181 2.345928 0
M  V30 29 C -1.211686 -1.858500 3.295910 0
M  V30 30 C 1.650096 0.701217 -2.349680 0
M  V30 31 N 2.894615 -0.010789 -2.395553 0
M  V30 32 C 2.947260 -0.891085 -1.284191 0
M  V30 33 O 3.962793 -1.545858 -1.204112 0
M  V30 34 H 5.009808 -5.159476 4.422315 0
M  V30 35 H 3.989235 -6.334289 3.554143 0
M  V30 36 H 5.724943 -6.248581 3.156939 0
M  V30 37 H 2.705724 -4.937085 4.243878 0
M  V30 38 H 0.666869 -3.742817 4.278584 0
M  V30 39 H 3.781202 -2.943274 0.745735 0
M  V30 40 H -0.493184 2.270733 -2.811912 0
M  V30 41 H -1.173837 2.832799 -4.632580 0
M  V30 42 H -1.599787 4.524859 -5.151162 0
M  V30 43 H -0.505190 4.285319 -3.755469 0
M  V30 44 H -4.296218 3.560669 -1.569768 0
M  V30 45 H -4.182571 2.092591 0.311705 0
M  V30 46 H -2.717297 0.259312 2.954664 0
M  V30 47 H -3.645024 1.024187 1.895136 0
M  V30 48 H -3.408428 -1.840255 1.120235 0
M  V30 49 H -4.428098 -0.562233 0.524350 0
M  V30 50 H -1.239564 -0.952761 3.990946 0
M  V30 51 H -0.904674 -2.611221 4.097697 0
M  V30 52 H -2.165604 -2.301134 3.059826 0
M  V30 53 H 1.765540 1.792290 -2.381940 0
M  V30 54 H 1.052771 0.404404 -3.232580 0
M  V30 55 H 3.492345 0.234853 -3.187991 0
M  V30 END ATOM
M  V30 BEGIN BOND
M  V30 1 1 1 2
M  V30 2 1 2 3
M  V30 3 2 3 4
M  V30 4 1 4 5
M  V30 5 2 5 6
M  V30 6 1 6 7
M  V30 7 2 7 8
M  V30 8 1 7 9
M  V30 9 2 9 10
M  V30 10 1 10 11
M  V30 11 2 11 12
M  V30 12 1 12 13
M  V30 13 2 13 14
M  V30 14 1 14 15
M  V30 15 1 15 16
M  V30 16 1 16 17
M  V30 17 2 15 18
M  V30 18 1 18 19
M  V30 19 2 19 20
M  V30 20 1 20 21
M  V30 21 1 21 22
M  V30 22 1 22 23
M  V30 23 1 23 24
M  V30 24 3 24 25
M  V30 25 1 21 26
M  V30 26 2 26 27
M  V30 27 1 27 28
M  V30 28 1 28 29
M  V30 29 1 11 30
M  V30 30 1 30 31
M  V30 31 1 31 32
M  V30 32 2 32 33
M  V30 33 1 8 3
M  V30 34 1 27 9
M  V30 35 1 28 6
M  V30 36 1 32 10
M  V30 37 1 26 12
M  V30 38 1 20 13
M  V30 39 1 1 34
M  V30 40 1 1 35
M  V30 41 1 1 36
M  V30 42 1 4 37
M  V30 43 1 5 38
M  V30 44 1 8 39
M  V30 45 1 14 40
M  V30 46 1 17 41
M  V30 47 1 17 42
M  V30 48 1 17 43
M  V30 49 1 18 44
M  V30 50 1 19 45
M  V30 51 1 22 46
M  V30 52 1 22 47
M  V30 53 1 23 48
M  V30 54 1 23 49
M  V30 55 1 29 50
M  V30 56 1 29 51
M  V30 57 1 29 52
M  V30 58 1 30 53
M  V30 59 1 30 54
M  V30 60 1 31 55
M  V30 END BOND
M  V30 END CTAB
M  END
>  <Dataset>  (365) 
ChEMBL_Kinases

>  <Ligand_Instance>  (365) 
nan

>  <PDB_ID>  (365) 
nan

>  <Standardized_SMILES>  (365) 
COc1ccc2c(c1)c1c3c(c4c5cc(OC)ccc5n(CCC#N)c4c1n2C)CNC3=O

>  <Name>  (365) 
nan

>  <Pocket>  (365) 
nan

>  <ATP_Site>  (365) 
nan

>  <Peripheral>  (365) 
nan

>  <Num_H_Atoms_ProtBoundConf>  (365) 
nan

>  <Num_Resolved_Atoms>  (365) 
nan

>  <Num_Not_Resolved_Atoms>  (365) 
nan

$$$$
CHEMBL346038
     RDKit          3D

  0  0  0  0  0  0  0  0  0  0999 V3000
M  V30 BEGIN CTAB
M  V30 COUNTS 58 63 0 0 0
M  V30 BEGIN ATOM
M  V30 1 C 0.639507 2.003493 4.254885 0
M  V30 2 N 1.991019 1.635902 4.037102 0
M  V30 3 C 2.778063 1.861391 5.209503 0
M  V30 4 C 2.251017 0.343661 3.486273 0
M  V30 5 C 1.932700 0.089495 2.078332 0
M  V30 6 O 2.183318 -1.186061 1.596429 0
M  V30 7 C 0.603913 0.578456 1.541243 0
M  V30 8 N 0.375426 0.235491 0.199495 0
M  V30 9 C 0.939600 1.009806 -0.778622 0
M  V30 10 C 1.757129 2.145773 -0.731370 0
M  V30 11 C 2.263526 2.830530 -1.795906 0
M  V30 12 C 1.928452 2.343876 -3.034513 0
M  V30 13 C 1.133959 1.238055 -3.162169 0
M  V30 14 C 0.662331 0.602133 -2.039623 0
M  V30 15 C -0.135365 -0.510480 -1.880765 0
M  V30 16 C -0.705631 -1.310419 -2.859340 0
M  V30 17 C -1.476564 -2.360885 -2.415553 0
M  V30 18 C -1.638294 -2.559208 -1.068476 0
M  V30 19 C -2.365150 -3.511282 -0.446864 0
M  V30 20 C -3.160707 -4.583814 -0.746703 0
M  V30 21 C -3.790935 -5.389795 0.163902 0
M  V30 22 C -3.647463 -5.147406 1.504681 0
M  V30 23 C -2.853304 -4.076615 1.816373 0
M  V30 24 C -2.193603 -3.231865 0.897892 0
M  V30 25 N -1.388458 -2.145506 1.102832 0
M  V30 26 C -1.148774 -1.747199 2.458258 0
M  V30 27 C -1.058226 -1.748314 -0.124208 0
M  V30 28 C -0.282626 -0.692906 -0.500360 0
M  V30 29 C -1.925200 -2.984358 -3.622870 0
M  V30 30 O -2.632190 -3.953937 -3.862014 0
M  V30 31 N -1.444981 -2.335817 -4.765136 0
M  V30 32 C -0.615852 -1.229819 -4.342712 0
M  V30 33 H 0.003978 1.122509 4.576850 0
M  V30 34 H 0.641656 2.637892 5.209154 0
M  V30 35 H 0.156551 2.651233 3.522393 0
M  V30 36 H 2.781249 0.966529 5.897297 0
M  V30 37 H 3.853670 2.091882 4.995887 0
M  V30 38 H 2.409286 2.693479 5.836979 0
M  V30 39 H 3.379367 0.191349 3.592105 0
M  V30 40 H 1.743530 -0.414205 4.153839 0
M  V30 41 H 2.765766 0.697929 1.502076 0
M  V30 42 H 2.347687 -1.184671 0.619572 0
M  V30 43 H 0.804444 1.741321 1.521458 0
M  V30 44 H -0.131079 0.589449 2.297063 0
M  V30 45 H 2.067435 2.591248 0.214350 0
M  V30 46 H 2.884119 3.693348 -1.741486 0
M  V30 47 H 2.279316 2.815818 -3.939070 0
M  V30 48 H 0.892861 0.888923 -4.152791 0
M  V30 49 H -3.344589 -4.868334 -1.752794 0
M  V30 50 H -4.408586 -6.225296 -0.142552 0
M  V30 51 H -4.141986 -5.779272 2.225521 0
M  V30 52 H -2.799075 -3.959917 2.917205 0
M  V30 53 H -0.083811 -1.740280 2.677558 0
M  V30 54 H -1.518097 -2.510408 3.198764 0
M  V30 55 H -1.641323 -0.802913 2.732052 0
M  V30 56 H -1.534396 -2.450369 -5.817939 0
M  V30 57 H -1.082120 -0.310617 -4.751263 0
M  V30 58 H 0.442117 -1.376855 -4.674958 0
M  V30 END ATOM
M  V30 BEGIN BOND
M  V30 1 1 1 2
M  V30 2 1 2 3
M  V30 3 1 2 4
M  V30 4 1 4 5
M  V30 5 1 5 6
M  V30 6 1 5 7
M  V30 7 1 7 8
M  V30 8 1 8 9
M  V30 9 2 9 10
M  V30 10 1 10 11
M  V30 11 2 11 12
M  V30 12 1 12 13
M  V30 13 2 13 14
M  V30 14 1 14 15
M  V30 15 2 15 16
M  V30 16 1 16 17
M  V30 17 2 17 18
M  V30 18 1 18 19
M  V30 19 2 19 20
M  V30 20 1 20 21
M  V30 21 2 21 22
M  V30 22 1 22 23
M  V30 23 2 23 24
M  V30 24 1 24 25
M  V30 25 1 25 26
M  V30 26 1 25 27
M  V30 27 2 27 28
M  V30 28 1 17 29
M  V30 29 2 29 30
M  V30 30 1 29 31
M  V30 31 1 31 32
M  V30 32 1 28 8
M  V30 33 1 14 9
M  V30 34 1 28 15
M  V30 35 1 32 16
M  V30 36 1 27 18
M  V30 37 1 24 19
M  V30 38 1 1 33
M  V30 39 1 1 34
M  V30 40 1 1 35
M  V30 41 1 3 36
M  V30 42 1 3 37
M  V30 43 1 3 38
M  V30 44 1 4 39
M  V30 45 1 4 40
M  V30 46 1 5 41
M  V30 47 1 6 42
M  V30 48 1 7 43
M  V30 49 1 7 44
M  V30 50 1 10 45
M  V30 51 1 11 46
M  V30 52 1 12 47
M  V30 53 1 13 48
M  V30 54 1 20 49
M  V30 55 1 21 50
M  V30 56 1 22 51
M  V30 57 1 23 52
M  V30 58 1 26 53
M  V30 59 1 26 54
M  V30 60 1 26 55
M  V30 61 1 31 56
M  V30 62 1 32 57
M  V30 63 1 32 58
M  V30 END BOND
M  V30 END CTAB
M  END
>  <Dataset>  (366) 
ChEMBL_Kinases

>  <Ligand_Instance>  (366) 
nan

>  <PDB_ID>  (366) 
nan

>  <Standardized_SMILES>  (366) 
CN(C)CC(O)Cn1c2ccccc2c2c3c(c4c5ccccc5n(C)c4c21)C(=O)NC3

>  <Name>  (366) 
nan

>  <Pocket>  (366) 
nan

>  <ATP_Site>  (366) 
nan

>  <Peripheral>  (366) 
nan

>  <Num_H_Atoms_ProtBoundConf>  (366) 
nan

>  <Num_Resolved_Atoms>  (366) 
nan

>  <Num_Not_Resolved_Atoms>  (366) 
nan

$$$$
CHEMBL344379
     RDKit          3D

  0  0  0  0  0  0  0  0  0  0999 V3000
M  V30 BEGIN CTAB
M  V30 COUNTS 77 78 0 0 0
M  V30 BEGIN ATOM
M  V30 1 C 3.326275 2.684010 5.599178 0
M  V30 2 C 3.328681 1.200221 5.785478 0
M  V30 3 C 4.543541 0.549728 5.136384 0
M  V30 4 C 4.552642 0.837862 3.629642 0
M  V30 5 C 3.304245 0.283031 2.991148 0
M  V30 6 C 3.250491 0.535734 1.489084 0
M  V30 7 C 4.396991 -0.085421 0.772277 0
M  V30 8 C 4.342781 0.202354 -0.688974 0
M  V30 9 C 3.124369 -0.313932 -1.317134 0
M  V30 10 C 2.064210 0.148741 -2.037082 0
M  V30 11 C 2.031884 1.577751 -2.325860 0
M  V30 12 C 0.821639 2.302189 -1.902043 0
M  V30 13 C 0.361961 2.298702 -0.500132 0
M  V30 14 C -0.130133 0.964556 0.016664 0
M  V30 15 C -0.556540 1.034307 1.444380 0
M  V30 16 C -1.015012 -0.188195 2.111424 0
M  V30 17 C -2.210850 -0.923090 1.601585 0
M  V30 18 C -2.061378 -1.435659 0.234180 0
M  V30 19 C -2.746507 -1.336368 -0.887838 0
M  V30 20 C -2.722802 -1.783077 -2.304292 0
M  V30 21 C -4.211284 -2.065555 -2.487561 0 CFG=2
M  V30 22 C -4.543404 -3.220490 -1.676447 0
M  V30 23 C -4.478586 -4.517814 -1.883389 0
M  V30 24 C -3.982397 -5.067355 -3.166361 0
M  V30 25 C -3.815279 -6.548420 -2.857359 0
M  V30 26 O -4.241405 -6.767546 -1.547280 0
M  V30 27 C -4.832704 -5.631185 -1.012524 0
M  V30 28 O -5.548191 -5.496617 0.014945 0
M  V30 29 C -4.469128 -2.134485 -3.959622 0
M  V30 30 O -5.855291 -2.147265 -4.142779 0
M  V30 31 O -4.774957 -0.856073 -1.936040 0
M  V30 32 C -3.985924 -0.528767 -0.841255 0
M  V30 33 O -4.354834 0.323968 -0.008809 0
M  V30 34 H 2.677755 3.146615 6.389262 0
M  V30 35 H 2.825417 2.960357 4.634422 0
M  V30 36 H 4.337328 3.122778 5.561514 0
M  V30 37 H 3.423676 0.982509 6.877074 0
M  V30 38 H 2.372941 0.758410 5.460499 0
M  V30 39 H 5.431673 1.059303 5.562522 0
M  V30 40 H 4.600218 -0.513904 5.364149 0
M  V30 41 H 4.621548 1.927299 3.548101 0
M  V30 42 H 5.426153 0.276429 3.243011 0
M  V30 43 H 2.434016 0.831843 3.425444 0
M  V30 44 H 3.155044 -0.779471 3.195720 0
M  V30 45 H 3.071935 1.587321 1.279342 0
M  V30 46 H 2.330530 -0.031319 1.161269 0
M  V30 47 H 4.358122 -1.213334 0.887940 0
M  V30 48 H 5.387224 0.193525 1.209938 0
M  V30 49 H 4.449976 1.311954 -0.806681 0
M  V30 50 H 5.276151 -0.230791 -1.168821 0
M  V30 51 H 3.163902 -1.379955 -1.091952 0
M  V30 52 H 1.337377 -0.575693 -2.340648 0
M  V30 53 H 2.093504 1.704296 -3.461571 0
M  V30 54 H 2.977847 2.086631 -1.973873 0
M  V30 55 H 0.832799 3.380860 -2.261932 0
M  V30 56 H -0.042416 1.889005 -2.544095 0
M  V30 57 H 1.176690 2.694864 0.165253 0
M  V30 58 H -0.516203 2.988263 -0.433848 0
M  V30 59 H 0.553359 0.184923 -0.233978 0
M  V30 60 H -1.123285 0.845333 -0.559128 0
M  V30 61 H 0.335587 1.424651 2.030413 0
M  V30 62 H -1.359921 1.829094 1.564296 0
M  V30 63 H -0.163886 -0.903674 2.335993 0
M  V30 64 H -1.308485 0.126930 3.173823 0
M  V30 65 H -3.073703 -0.229930 1.730648 0
M  V30 66 H -2.367217 -1.796869 2.301491 0
M  V30 67 H -1.171232 -2.060396 0.063789 0
M  V30 68 H -2.131318 -2.698755 -2.436285 0
M  V30 69 H -2.396613 -0.935051 -2.940010 0
M  V30 70 H -4.936868 -2.990043 -0.666044 0
M  V30 71 H -4.716051 -5.017248 -3.974459 0
M  V30 72 H -2.958977 -4.722191 -3.418016 0
M  V30 73 H -2.775846 -6.900037 -2.924856 0
M  V30 74 H -4.385471 -7.178024 -3.577615 0
M  V30 75 H -4.175117 -1.146458 -4.447365 0
M  V30 76 H -3.919580 -2.867829 -4.527652 0
M  V30 77 H -6.179946 -2.951051 -4.614996 0
M  V30 END ATOM
M  V30 BEGIN BOND
M  V30 1 1 1 2
M  V30 2 1 2 3
M  V30 3 1 3 4
M  V30 4 1 4 5
M  V30 5 1 5 6
M  V30 6 1 6 7
M  V30 7 1 7 8
M  V30 8 1 8 9
M  V30 9 2 9 10
M  V30 10 1 10 11
M  V30 11 1 11 12
M  V30 12 1 12 13
M  V30 13 1 13 14
M  V30 14 1 14 15
M  V30 15 1 15 16
M  V30 16 1 16 17
M  V30 17 1 17 18
M  V30 18 2 18 19
M  V30 19 1 19 20
M  V30 20 1 20 21
M  V30 21 1 21 22
M  V30 22 2 22 23
M  V30 23 1 23 24
M  V30 24 1 24 25
M  V30 25 1 25 26
M  V30 26 1 26 27
M  V30 27 2 27 28
M  V30 28 1 21 29 CFG=3
M  V30 29 1 29 30
M  V30 30 1 21 31
M  V30 31 1 31 32
M  V30 32 2 32 33
M  V30 33 1 32 19
M  V30 34 1 27 23
M  V30 35 1 1 34
M  V30 36 1 1 35
M  V30 37 1 1 36
M  V30 38 1 2 37
M  V30 39 1 2 38
M  V30 40 1 3 39
M  V30 41 1 3 40
M  V30 42 1 4 41
M  V30 43 1 4 42
M  V30 44 1 5 43
M  V30 45 1 5 44
M  V30 46 1 6 45
M  V30 47 1 6 46
M  V30 48 1 7 47
M  V30 49 1 7 48
M  V30 50 1 8 49
M  V30 51 1 8 50
M  V30 52 1 9 51
M  V30 53 1 10 52
M  V30 54 1 11 53
M  V30 55 1 11 54
M  V30 56 1 12 55
M  V30 57 1 12 56
M  V30 58 1 13 57
M  V30 59 1 13 58
M  V30 60 1 14 59
M  V30 61 1 14 60
M  V30 62 1 15 61
M  V30 63 1 15 62
M  V30 64 1 16 63
M  V30 65 1 16 64
M  V30 66 1 17 65
M  V30 67 1 17 66
M  V30 68 1 18 67
M  V30 69 1 20 68
M  V30 70 1 20 69
M  V30 71 1 22 70
M  V30 72 1 24 71
M  V30 73 1 24 72
M  V30 74 1 25 73
M  V30 75 1 25 74
M  V30 76 1 29 75
M  V30 77 1 29 76
M  V30 78 1 30 77
M  V30 END BOND
M  V30 END CTAB
M  END
>  <Dataset>  (367) 
ChEMBL_Kinases

>  <Ligand_Instance>  (367) 
nan

>  <PDB_ID>  (367) 
nan

>  <Standardized_SMILES>  (367) 
CCCCCCCC/C=C\CCCCCCC/C=C1/C[C@](/C=C2\CCOC2=O)(CO)OC1=O

>  <Name>  (367) 
nan

>  <Pocket>  (367) 
nan

>  <ATP_Site>  (367) 
nan

>  <Peripheral>  (367) 
nan

>  <Num_H_Atoms_ProtBoundConf>  (367) 
nan

>  <Num_Resolved_Atoms>  (367) 
nan

>  <Num_Not_Resolved_Atoms>  (367) 
nan

$$$$
CHEMBL344314
     RDKit          3D

  0  0  0  0  0  0  0  0  0  0999 V3000
M  V30 BEGIN CTAB
M  V30 COUNTS 30 31 0 0 0
M  V30 BEGIN ATOM
M  V30 1 N -2.596806 2.406035 0.709407 0
M  V30 2 C -1.094853 2.907040 0.445571 0
M  V30 3 C -0.626448 1.610489 -0.021904 0
M  V30 4 N -0.672572 0.621704 0.990980 0
M  V30 5 S -1.389594 -0.726282 0.147890 0
M  V30 6 O -1.051027 -1.969105 1.005963 0
M  V30 7 O -2.894762 -0.595823 0.361681 0
M  V30 8 C -0.891770 -0.946615 -1.433117 0
M  V30 9 C -1.876207 -0.587410 -2.380928 0
M  V30 10 C -1.606852 -0.945418 -3.721322 0
M  V30 11 C -0.418849 -1.615840 -3.995932 0
M  V30 12 C 0.518249 -1.919973 -2.999359 0
M  V30 13 C 1.713394 -2.372190 -3.365451 0
M  V30 14 N 2.715814 -2.330051 -2.485570 0
M  V30 15 C 2.519323 -1.879271 -1.240813 0
M  V30 16 C 1.271761 -1.478476 -0.832279 0
M  V30 17 C 0.203129 -1.491365 -1.729287 0
M  V30 18 H -3.237408 2.948434 0.168376 0
M  V30 19 H -2.773614 2.405892 1.720479 0
M  V30 20 H -0.864603 3.356456 1.322816 0
M  V30 21 H -1.248434 3.504748 -0.500512 0
M  V30 22 H 0.669991 1.934434 0.180716 0
M  V30 23 H -0.449333 1.413810 -1.038296 0
M  V30 24 H -0.001151 0.423832 1.674545 0
M  V30 25 H -2.766881 0.030852 -2.199655 0
M  V30 26 H -2.370150 -0.838688 -4.455487 0
M  V30 27 H -0.214062 -1.893001 -5.013665 0
M  V30 28 H 1.854176 -2.964826 -4.277577 0
M  V30 29 H 3.343427 -1.829445 -0.546307 0
M  V30 30 H 1.085688 -1.230067 0.193679 0
M  V30 END ATOM
M  V30 BEGIN BOND
M  V30 1 1 1 2
M  V30 2 1 2 3
M  V30 3 1 3 4
M  V30 4 1 4 5
M  V30 5 2 5 6
M  V30 6 2 5 7
M  V30 7 1 5 8
M  V30 8 2 8 9
M  V30 9 1 9 10
M  V30 10 2 10 11
M  V30 11 1 11 12
M  V30 12 2 12 13
M  V30 13 1 13 14
M  V30 14 2 14 15
M  V30 15 1 15 16
M  V30 16 2 16 17
M  V30 17 1 17 8
M  V30 18 1 17 12
M  V30 19 1 1 18
M  V30 20 1 1 19
M  V30 21 1 2 20
M  V30 22 1 2 21
M  V30 23 1 3 22
M  V30 24 1 3 23
M  V30 25 1 4 24
M  V30 26 1 9 25
M  V30 27 1 10 26
M  V30 28 1 11 27
M  V30 29 1 13 28
M  V30 30 1 15 29
M  V30 31 1 16 30
M  V30 END BOND
M  V30 END CTAB
M  END
>  <Dataset>  (368) 
ChEMBL_Kinases

>  <Ligand_Instance>  (368) 
nan

>  <PDB_ID>  (368) 
nan

>  <Standardized_SMILES>  (368) 
NCCNS(=O)(=O)c1cccc2cnccc12

>  <Name>  (368) 
nan

>  <Pocket>  (368) 
nan

>  <ATP_Site>  (368) 
nan

>  <Peripheral>  (368) 
nan

>  <Num_H_Atoms_ProtBoundConf>  (368) 
nan

>  <Num_Resolved_Atoms>  (368) 
nan

>  <Num_Not_Resolved_Atoms>  (368) 
nan

$$$$
CHEMBL3426891
     RDKit          3D

  0  0  0  0  0  0  0  0  0  0999 V3000
M  V30 BEGIN CTAB
M  V30 COUNTS 55 58 0 0 0
M  V30 BEGIN ATOM
M  V30 1 C -0.939194 -4.538357 1.306398 0
M  V30 2 N 0.144280 -5.359440 0.891799 0
M  V30 3 C 0.932818 -5.756069 2.010025 0
M  V30 4 C 2.099357 -4.900871 2.363690 0
M  V30 5 N 2.316203 -3.956552 1.285921 0
M  V30 6 C 2.454279 -2.526424 1.278740 0
M  V30 7 C 1.742599 -1.910073 2.270267 0
M  V30 8 C 1.863504 -0.547669 2.186873 0
M  V30 9 C 2.572162 0.160673 1.277657 0
M  V30 10 N 2.717623 1.533166 1.029693 0
M  V30 11 C 2.070729 2.784051 1.104184 0
M  V30 12 N 2.202423 4.006671 1.546811 0
M  V30 13 C 1.294275 4.951729 1.323677 0
M  V30 14 C 0.163144 4.650788 0.598825 0
M  V30 15 Cl -0.825794 6.097239 0.465331 0
M  V30 16 C -0.017833 3.371973 0.113456 0
M  V30 17 N -1.241182 3.457194 -0.603606 0
M  V30 18 C -2.376800 3.147960 -1.366446 0
M  V30 19 C -3.342012 2.242241 -0.697321 0 CFG=1
M  V30 20 C -4.347917 1.673907 -1.732408 0
M  V30 21 C -5.010620 0.677355 -0.802471 0
M  V30 22 C -3.783887 0.160631 -0.039839 0
M  V30 23 O -2.728185 1.033485 -0.355455 0
M  V30 24 N 0.982098 2.493331 0.410041 0
M  V30 25 C 3.265937 -0.587258 0.308653 0
M  V30 26 C 3.238967 -1.958616 0.266117 0
M  V30 27 C 2.319832 -4.671471 0.001115 0
M  V30 28 C 0.807371 -4.860498 -0.252037 0
M  V30 29 H -0.860541 -4.360436 2.407106 0
M  V30 30 H -1.939396 -5.013087 1.097170 0
M  V30 31 H -0.983680 -3.525065 0.856043 0
M  V30 32 H 0.242818 -5.730023 2.906179 0
M  V30 33 H 1.237088 -6.845262 1.930051 0
M  V30 34 H 3.018641 -5.568848 2.333832 0
M  V30 35 H 2.097930 -4.450717 3.371464 0
M  V30 36 H 1.166706 -2.392589 3.030149 0
M  V30 37 H 1.359709 0.123349 2.896019 0
M  V30 38 H 3.621543 1.948125 0.642404 0
M  V30 39 H 1.619877 5.893579 1.799026 0
M  V30 40 H -1.070382 2.398582 -0.719579 0
M  V30 41 H -2.148354 2.730737 -2.394817 0
M  V30 42 H -2.915428 4.140583 -1.635905 0
M  V30 43 H -3.934844 2.645416 0.116227 0
M  V30 44 H -3.769782 1.035986 -2.459184 0
M  V30 45 H -4.993001 2.414815 -2.159455 0
M  V30 46 H -5.661042 1.171508 -0.059436 0
M  V30 47 H -5.517505 -0.150382 -1.333201 0
M  V30 48 H -3.548911 -0.831473 -0.473007 0
M  V30 49 H -3.954659 0.100395 1.031171 0
M  V30 50 H 3.861831 -0.115545 -0.487855 0
M  V30 51 H 3.789395 -2.499038 -0.485246 0
M  V30 52 H 2.781848 -4.130261 -0.817801 0
M  V30 53 H 2.806282 -5.645689 0.145651 0
M  V30 54 H 0.635605 -5.353799 -1.211603 0
M  V30 55 H 0.429155 -3.800894 -0.407844 0
M  V30 END ATOM
M  V30 BEGIN BOND
M  V30 1 1 1 2
M  V30 2 1 2 3
M  V30 3 1 3 4
M  V30 4 1 4 5
M  V30 5 1 5 6
M  V30 6 2 6 7
M  V30 7 1 7 8
M  V30 8 2 8 9
M  V30 9 1 9 10
M  V30 10 1 10 11
M  V30 11 2 11 12
M  V30 12 1 12 13
M  V30 13 2 13 14
M  V30 14 1 14 15
M  V30 15 1 14 16
M  V30 16 1 16 17
M  V30 17 1 17 18
M  V30 18 1 18 19
M  V30 19 1 19 20
M  V30 20 1 20 21
M  V30 21 1 21 22
M  V30 22 1 22 23
M  V30 23 2 16 24
M  V30 24 1 9 25
M  V30 25 2 25 26
M  V30 26 1 5 27
M  V30 27 1 27 28
M  V30 28 1 28 2
M  V30 29 1 26 6
M  V30 30 1 24 11
M  V30 31 1 23 19
M  V30 32 1 1 29
M  V30 33 1 1 30
M  V30 34 1 1 31
M  V30 35 1 3 32
M  V30 36 1 3 33
M  V30 37 1 4 34
M  V30 38 1 4 35
M  V30 39 1 7 36
M  V30 40 1 8 37
M  V30 41 1 10 38
M  V30 42 1 13 39
M  V30 43 1 17 40
M  V30 44 1 18 41
M  V30 45 1 18 42
M  V30 46 1 19 43 CFG=1
M  V30 47 1 20 44
M  V30 48 1 20 45
M  V30 49 1 21 46
M  V30 50 1 21 47
M  V30 51 1 22 48
M  V30 52 1 22 49
M  V30 53 1 25 50
M  V30 54 1 26 51
M  V30 55 1 27 52
M  V30 56 1 27 53
M  V30 57 1 28 54
M  V30 58 1 28 55
M  V30 END BOND
M  V30 END CTAB
M  END
>  <Dataset>  (369) 
ChEMBL_Kinases

>  <Ligand_Instance>  (369) 
nan

>  <PDB_ID>  (369) 
nan

>  <Standardized_SMILES>  (369) 
CN1CCN(c2ccc(Nc3ncc(Cl)c(NC[C@H]4CCCO4)n3)cc2)CC1

>  <Name>  (369) 
nan

>  <Pocket>  (369) 
nan

>  <ATP_Site>  (369) 
nan

>  <Peripheral>  (369) 
nan

>  <Num_H_Atoms_ProtBoundConf>  (369) 
nan

>  <Num_Resolved_Atoms>  (369) 
nan

>  <Num_Not_Resolved_Atoms>  (369) 
nan

$$$$
CHEMBL3426732
     RDKit          3D

  0  0  0  0  0  0  0  0  0  0999 V3000
M  V30 BEGIN CTAB
M  V30 COUNTS 57 60 0 0 0
M  V30 BEGIN ATOM
M  V30 1 N 0.723524 -3.583178 5.364224 0
M  V30 2 C 1.617952 -3.034255 4.369674 0
M  V30 3 C 1.290747 -1.654487 3.992872 0
M  V30 4 C 2.011816 -0.628814 4.549618 0
M  V30 5 C 1.808310 0.725532 4.283383 0
M  V30 6 C 0.810268 1.079849 3.395117 0
M  V30 7 C 0.610680 2.498140 3.139977 0
M  V30 8 O 1.380884 3.290351 3.737601 0
M  V30 9 N -0.370961 3.049774 2.283222 0
M  V30 10 C -0.644902 4.400649 1.973185 0
M  V30 11 C -0.005088 5.519721 2.440289 0
M  V30 12 C -0.317226 6.816845 2.106597 0
M  V30 13 N -1.331456 7.009858 1.253019 0
M  V30 14 C -2.006098 5.965449 0.752565 0
M  V30 15 C -1.674485 4.674703 1.102277 0
M  V30 16 F -2.419724 3.688388 0.539066 0
M  V30 17 C 0.092633 0.041066 2.842189 0
M  V30 18 C 0.308896 -1.314222 3.119788 0
M  V30 19 C -0.572376 -2.250155 2.441798 0
M  V30 20 C -1.456357 -3.229678 2.830253 0
M  V30 21 C -2.140693 -3.987372 1.919995 0
M  V30 22 C -2.002569 -3.833056 0.557926 0
M  V30 23 C -1.114685 -2.848202 0.131367 0
M  V30 24 N -1.026509 -2.747176 -1.280337 0
M  V30 25 C -0.104874 -3.536377 -2.007585 0
M  V30 26 O 0.539083 -4.260202 -1.212047 0
M  V30 27 C -0.102282 -3.350021 -3.450923 0
M  V30 28 C -0.864867 -2.473327 -4.188179 0
M  V30 29 C -0.692735 -2.479024 -5.552468 0
M  V30 30 C 0.186977 -3.298543 -6.228016 0
M  V30 31 C 0.334268 -3.272306 -7.672242 0
M  V30 32 O 1.136063 -4.021073 -8.282485 0
M  V30 33 O -0.386590 -2.429547 -8.500382 0
M  V30 34 C 0.948120 -4.173761 -5.485359 0
M  V30 35 C 0.801095 -4.197164 -4.096699 0
M  V30 36 C -0.428859 -2.088951 1.052721 0
M  V30 37 H 0.020906 -2.898149 5.699966 0
M  V30 38 H 1.210399 -4.053403 6.145263 0
M  V30 39 H 2.632125 -3.065779 4.816514 0
M  V30 40 H 1.580990 -3.726452 3.493960 0
M  V30 41 H 2.815363 -0.879085 5.262183 0
M  V30 42 H 2.450031 1.442436 4.791900 0
M  V30 43 H -0.943561 2.304288 1.846246 0
M  V30 44 H 0.809878 5.399290 3.125717 0
M  V30 45 H 0.215719 7.655158 2.501289 0
M  V30 46 H -2.814450 6.164551 0.071262 0
M  V30 47 H -0.701238 0.321833 2.135178 0
M  V30 48 H -1.523015 -3.282525 3.903719 0
M  V30 49 H -2.788322 -4.707626 2.419199 0
M  V30 50 H -2.621074 -4.518311 -0.001544 0
M  V30 51 H -1.713097 -2.042414 -1.619466 0
M  V30 52 H -1.535475 -1.852796 -3.634458 0
M  V30 53 H -1.310703 -1.777744 -6.090818 0
M  V30 54 H 0.045611 -1.960029 -9.283513 0
M  V30 55 H 1.635129 -4.812710 -6.015719 0
M  V30 56 H 1.444613 -4.919024 -3.616550 0
M  V30 57 H 0.214208 -1.374692 0.518762 0
M  V30 END ATOM
M  V30 BEGIN BOND
M  V30 1 1 1 2
M  V30 2 1 2 3
M  V30 3 2 3 4
M  V30 4 1 4 5
M  V30 5 2 5 6
M  V30 6 1 6 7
M  V30 7 2 7 8
M  V30 8 1 7 9
M  V30 9 1 9 10
M  V30 10 2 10 11
M  V30 11 1 11 12
M  V30 12 2 12 13
M  V30 13 1 13 14
M  V30 14 2 14 15
M  V30 15 1 15 16
M  V30 16 1 6 17
M  V30 17 2 17 18
M  V30 18 1 18 19
M  V30 19 2 19 20
M  V30 20 1 20 21
M  V30 21 2 21 22
M  V30 22 1 22 23
M  V30 23 1 23 24
M  V30 24 1 24 25
M  V30 25 2 25 26
M  V30 26 1 25 27
M  V30 27 2 27 28
M  V30 28 1 28 29
M  V30 29 2 29 30
M  V30 30 1 30 31
M  V30 31 2 31 32
M  V30 32 1 31 33
M  V30 33 1 30 34
M  V30 34 2 34 35
M  V30 35 2 23 36
M  V30 36 1 18 3
M  V30 37 1 36 19
M  V30 38 1 15 10
M  V30 39 1 35 27
M  V30 40 1 1 37
M  V30 41 1 1 38
M  V30 42 1 2 39
M  V30 43 1 2 40
M  V30 44 1 4 41
M  V30 45 1 5 42
M  V30 46 1 9 43
M  V30 47 1 11 44
M  V30 48 1 12 45
M  V30 49 1 14 46
M  V30 50 1 17 47
M  V30 51 1 20 48
M  V30 52 1 21 49
M  V30 53 1 22 50
M  V30 54 1 24 51
M  V30 55 1 28 52
M  V30 56 1 29 53
M  V30 57 1 33 54
M  V30 58 1 34 55
M  V30 59 1 35 56
M  V30 60 1 36 57
M  V30 END BOND
M  V30 END CTAB
M  END
>  <Dataset>  (370) 
ChEMBL_Kinases

>  <Ligand_Instance>  (370) 
nan

>  <PDB_ID>  (370) 
nan

>  <Standardized_SMILES>  (370) 
NCc1ccc(C(=O)Nc2ccncc2F)cc1-c1cccc(NC(=O)c2ccc(C(=O)O)cc2)c1

>  <Name>  (370) 
nan

>  <Pocket>  (370) 
nan

>  <ATP_Site>  (370) 
nan

>  <Peripheral>  (370) 
nan

>  <Num_H_Atoms_ProtBoundConf>  (370) 
nan

>  <Num_Resolved_Atoms>  (370) 
nan

>  <Num_Not_Resolved_Atoms>  (370) 
nan

$$$$
CHEMBL3426731
     RDKit          3D

  0  0  0  0  0  0  0  0  0  0999 V3000
M  V30 BEGIN CTAB
M  V30 COUNTS 60 63 0 0 0
M  V30 BEGIN ATOM
M  V30 1 C 7.095670 -3.429304 5.988693 0
M  V30 2 O 6.333337 -2.685998 5.089921 0
M  V30 3 C 6.711517 -2.256974 3.833182 0
M  V30 4 O 7.877369 -2.555239 3.418496 0
M  V30 5 C 5.787336 -1.480784 3.010197 0
M  V30 6 C 4.530411 -1.177455 3.496552 0
M  V30 7 C 3.620939 -0.446477 2.755021 0
M  V30 8 C 3.958870 0.000590 1.494284 0
M  V30 9 C 3.137361 0.781167 0.563857 0
M  V30 10 O 3.516227 1.164037 -0.588632 0
M  V30 11 N 1.829835 1.134873 0.975479 0
M  V30 12 C 0.749866 1.848781 0.416900 0
M  V30 13 C 0.655871 3.212802 0.611721 0
M  V30 14 C -0.395105 3.927606 0.075924 0
M  V30 15 C -1.368108 3.289740 -0.662918 0
M  V30 16 C -1.335300 1.936532 -0.895574 0
M  V30 17 C -2.213058 1.055387 -1.642016 0
M  V30 18 C -2.711906 -0.031667 -0.907905 0
M  V30 19 C -3.576305 -0.988431 -1.399963 0
M  V30 20 C -4.036023 -2.081144 -0.551745 0
M  V30 21 O -3.644645 -2.158361 0.639604 0
M  V30 22 N -4.915300 -3.081686 -0.998086 0
M  V30 23 C -5.186678 -4.022745 0.063971 0
M  V30 24 C -4.289099 -5.095172 0.089612 0
M  V30 25 C -4.413790 -6.074021 1.041348 0
M  V30 26 N -5.414983 -5.992911 1.957296 0
M  V30 27 C -6.270218 -4.976768 1.937666 0
M  V30 28 C -6.209214 -3.947898 1.006188 0
M  V30 29 F -7.008784 -2.882752 0.890373 0
M  V30 30 C -3.980053 -0.866959 -2.712319 0
M  V30 31 C -3.511366 0.188519 -3.468670 0
M  V30 32 C -2.646720 1.129422 -2.946013 0
M  V30 33 C -2.124670 2.255481 -3.756484 0
M  V30 34 N -0.751094 1.949542 -4.107127 0
M  V30 35 C -0.269040 1.256303 -0.343175 0
M  V30 36 C 5.225158 -0.313748 1.023140 0
M  V30 37 C 6.150397 -1.044919 1.750752 0
M  V30 38 H 6.566197 -4.310539 6.403753 0
M  V30 39 H 8.066693 -3.731867 5.551407 0
M  V30 40 H 7.328077 -2.758146 6.857691 0
M  V30 41 H 4.174108 -1.482690 4.470608 0
M  V30 42 H 2.627065 -0.175733 3.072744 0
M  V30 43 H 1.374787 0.898870 1.884230 0
M  V30 44 H 1.388181 3.786981 1.185733 0
M  V30 45 H -0.541712 5.000296 0.183005 0
M  V30 46 H -2.201522 3.797486 -1.082938 0
M  V30 47 H -2.419824 -0.173930 0.144473 0
M  V30 48 H -5.285609 -3.088370 -1.972959 0
M  V30 49 H -3.471615 -5.202793 -0.623202 0
M  V30 50 H -3.706084 -6.910954 1.054351 0
M  V30 51 H -7.083170 -4.871805 2.647951 0
M  V30 52 H -4.655511 -1.575374 -3.170396 0
M  V30 53 H -3.814135 0.304645 -4.500000 0
M  V30 54 H -2.676971 2.221859 -4.735753 0
M  V30 55 H -2.294344 3.229401 -3.321804 0
M  V30 56 H -0.518690 2.252922 -5.066353 0
M  V30 57 H -0.429657 1.018086 -3.833283 0
M  V30 58 H -0.096172 0.170774 -0.435624 0
M  V30 59 H 5.584731 -0.005265 0.040023 0
M  V30 60 H 7.133148 -1.278191 1.361662 0
M  V30 END ATOM
M  V30 BEGIN BOND
M  V30 1 1 1 2
M  V30 2 1 2 3
M  V30 3 2 3 4
M  V30 4 1 3 5
M  V30 5 2 5 6
M  V30 6 1 6 7
M  V30 7 2 7 8
M  V30 8 1 8 9
M  V30 9 2 9 10
M  V30 10 1 9 11
M  V30 11 1 11 12
M  V30 12 2 12 13
M  V30 13 1 13 14
M  V30 14 2 14 15
M  V30 15 1 15 16
M  V30 16 1 16 17
M  V30 17 2 17 18
M  V30 18 1 18 19
M  V30 19 1 19 20
M  V30 20 2 20 21
M  V30 21 1 20 22
M  V30 22 1 22 23
M  V30 23 2 23 24
M  V30 24 1 24 25
M  V30 25 2 25 26
M  V30 26 1 26 27
M  V30 27 2 27 28
M  V30 28 1 28 29
M  V30 29 2 19 30
M  V30 30 1 30 31
M  V30 31 2 31 32
M  V30 32 1 32 33
M  V30 33 1 33 34
M  V30 34 2 16 35
M  V30 35 1 8 36
M  V30 36 2 36 37
M  V30 37 1 37 5
M  V30 38 1 35 12
M  V30 39 1 32 17
M  V30 40 1 28 23
M  V30 41 1 1 38
M  V30 42 1 1 39
M  V30 43 1 1 40
M  V30 44 1 6 41
M  V30 45 1 7 42
M  V30 46 1 11 43
M  V30 47 1 13 44
M  V30 48 1 14 45
M  V30 49 1 15 46
M  V30 50 1 18 47
M  V30 51 1 22 48
M  V30 52 1 24 49
M  V30 53 1 25 50
M  V30 54 1 27 51
M  V30 55 1 30 52
M  V30 56 1 31 53
M  V30 57 1 33 54
M  V30 58 1 33 55
M  V30 59 1 34 56
M  V30 60 1 34 57
M  V30 61 1 35 58
M  V30 62 1 36 59
M  V30 63 1 37 60
M  V30 END BOND
M  V30 END CTAB
M  END
>  <Dataset>  (371) 
ChEMBL_Kinases

>  <Ligand_Instance>  (371) 
nan

>  <PDB_ID>  (371) 
nan

>  <Standardized_SMILES>  (371) 
COC(=O)c1ccc(C(=O)Nc2cccc(-c3cc(C(=O)Nc4ccncc4F)ccc3CN)c2)cc1

>  <Name>  (371) 
nan

>  <Pocket>  (371) 
nan

>  <ATP_Site>  (371) 
nan

>  <Peripheral>  (371) 
nan

>  <Num_H_Atoms_ProtBoundConf>  (371) 
nan

>  <Num_Resolved_Atoms>  (371) 
nan

>  <Num_Not_Resolved_Atoms>  (371) 
nan

$$$$
CHEMBL3426729
     RDKit          3D

  0  0  0  0  0  0  0  0  0  0999 V3000
M  V30 BEGIN CTAB
M  V30 COUNTS 78 82 0 0 0
M  V30 BEGIN ATOM
M  V30 1 C 4.661351 -9.753913 1.820968 0
M  V30 2 N 4.798049 -8.358065 1.437338 0
M  V30 3 C 5.757959 -8.176915 0.360436 0
M  V30 4 C 6.051077 -6.701384 0.252475 0
M  V30 5 C 4.843543 -5.857481 0.057676 0
M  V30 6 O 4.588800 -5.585789 -1.321432 0
M  V30 7 C 4.586584 -4.274949 -1.796443 0
M  V30 8 O 4.804693 -3.327711 -0.992507 0
M  V30 9 C 4.396968 -3.537512 -3.044374 0
M  V30 10 C 3.434895 -2.421180 -2.972053 0
M  V30 11 C 2.159086 -2.790014 -3.420227 0
M  V30 12 C 1.154868 -1.814218 -3.399765 0
M  V30 13 C 1.453317 -0.524314 -2.940272 0
M  V30 14 N 0.472046 0.491813 -2.918845 0
M  V30 15 C -0.073231 1.560062 -3.650705 0
M  V30 16 O 0.424537 1.801733 -4.776559 0
M  V30 17 C -1.166776 2.353059 -3.124728 0
M  V30 18 C -1.510526 3.432255 -3.904886 0
M  V30 19 C -2.545646 4.294253 -3.531298 0
M  V30 20 C -3.187696 3.996210 -2.351063 0
M  V30 21 C -2.897467 2.931845 -1.519586 0
M  V30 22 C -3.582024 2.668154 -0.261016 0
M  V30 23 C -3.464024 3.580817 0.767653 0
M  V30 24 C -4.040880 3.389626 2.009145 0
M  V30 25 C -3.854383 4.407585 3.039440 0
M  V30 26 O -3.236817 5.456831 2.729941 0
M  V30 27 N -4.361702 4.197153 4.344333 0
M  V30 28 C -4.257792 5.084319 5.449511 0
M  V30 29 C -3.088239 4.847243 6.183346 0
M  V30 30 C -2.833277 5.630789 7.308650 0
M  V30 31 N -3.644450 6.613977 7.746623 0
M  V30 32 C -4.770036 6.820840 7.015451 0
M  V30 33 C -5.084423 6.087752 5.896377 0
M  V30 34 F -6.182330 6.234392 5.119321 0
M  V30 35 C -4.762269 2.232678 2.210903 0
M  V30 36 C -4.905627 1.295781 1.212244 0
M  V30 37 C -4.310501 1.526427 -0.019940 0
M  V30 38 C -4.528839 0.491695 -1.055245 0
M  V30 39 N -5.540203 1.017790 -1.971847 0
M  V30 40 C -1.859094 2.133169 -1.968096 0
M  V30 41 C 2.733780 -0.199230 -2.503137 0
M  V30 42 C 3.751924 -1.162481 -2.516296 0
M  V30 43 C 3.602209 -6.365923 0.751132 0
M  V30 44 C 3.531185 -7.862168 0.878661 0
M  V30 45 H 4.525447 -10.352183 0.895373 0
M  V30 46 H 5.596511 -10.078120 2.327185 0
M  V30 47 H 3.779126 -9.795580 2.492796 0
M  V30 48 H 6.717593 -8.688861 0.547146 0
M  V30 49 H 5.239709 -8.482190 -0.571372 0
M  V30 50 H 6.662620 -6.402182 1.111169 0
M  V30 51 H 6.718370 -6.611970 -0.657455 0
M  V30 52 H 5.039851 -4.862969 0.531119 0
M  V30 53 H 4.165868 -4.252020 -3.881320 0
M  V30 54 H 5.367086 -3.064843 -3.390717 0
M  V30 55 H 1.893643 -3.769106 -3.778234 0
M  V30 56 H 0.153511 -2.071207 -3.740865 0
M  V30 57 H 0.111643 0.232983 -1.973428 0
M  V30 58 H -1.014558 3.687636 -4.848086 0
M  V30 59 H -2.801515 5.130639 -4.151221 0
M  V30 60 H -3.993355 4.651914 -2.041570 0
M  V30 61 H -2.892686 4.475416 0.576551 0
M  V30 62 H -4.880760 3.345227 4.650780 0
M  V30 63 H -2.281045 4.116885 6.034416 0
M  V30 64 H -1.941644 5.516848 7.944720 0
M  V30 65 H -5.565034 7.566512 7.192519 0
M  V30 66 H -5.230609 2.034116 3.149122 0
M  V30 67 H -5.480658 0.391277 1.399115 0
M  V30 68 H -4.918454 -0.449330 -0.635037 0
M  V30 69 H -3.624094 0.331573 -1.658516 0
M  V30 70 H -5.376670 2.038528 -2.063012 0
M  V30 71 H -5.443784 0.549460 -2.901750 0
M  V30 72 H -1.515545 1.274892 -1.411168 0
M  V30 73 H 2.984382 0.793573 -2.144155 0
M  V30 74 H 4.758492 -0.975829 -2.192043 0
M  V30 75 H 3.471894 -5.888545 1.769216 0
M  V30 76 H 2.726231 -6.032743 0.154847 0
M  V30 77 H 2.683839 -8.071263 1.576718 0
M  V30 78 H 3.380828 -8.304006 -0.122231 0
M  V30 END ATOM
M  V30 BEGIN BOND
M  V30 1 1 1 2
M  V30 2 1 2 3
M  V30 3 1 3 4
M  V30 4 1 4 5
M  V30 5 1 5 6
M  V30 6 1 6 7
M  V30 7 2 7 8
M  V30 8 1 7 9
M  V30 9 1 9 10
M  V30 10 2 10 11
M  V30 11 1 11 12
M  V30 12 2 12 13
M  V30 13 1 13 14
M  V30 14 1 14 15
M  V30 15 2 15 16
M  V30 16 1 15 17
M  V30 17 2 17 18
M  V30 18 1 18 19
M  V30 19 2 19 20
M  V30 20 1 20 21
M  V30 21 1 21 22
M  V30 22 2 22 23
M  V30 23 1 23 24
M  V30 24 1 24 25
M  V30 25 2 25 26
M  V30 26 1 25 27
M  V30 27 1 27 28
M  V30 28 2 28 29
M  V30 29 1 29 30
M  V30 30 2 30 31
M  V30 31 1 31 32
M  V30 32 2 32 33
M  V30 33 1 33 34
M  V30 34 2 24 35
M  V30 35 1 35 36
M  V30 36 2 36 37
M  V30 37 1 37 38
M  V30 38 1 38 39
M  V30 39 2 21 40
M  V30 40 1 13 41
M  V30 41 2 41 42
M  V30 42 1 5 43
M  V30 43 1 43 44
M  V30 44 1 44 2
M  V30 45 1 42 10
M  V30 46 1 40 17
M  V30 47 1 37 22
M  V30 48 1 33 28
M  V30 49 1 1 45
M  V30 50 1 1 46
M  V30 51 1 1 47
M  V30 52 1 3 48
M  V30 53 1 3 49
M  V30 54 1 4 50
M  V30 55 1 4 51
M  V30 56 1 5 52
M  V30 57 1 9 53
M  V30 58 1 9 54
M  V30 59 1 11 55
M  V30 60 1 12 56
M  V30 61 1 14 57
M  V30 62 1 18 58
M  V30 63 1 19 59
M  V30 64 1 20 60
M  V30 65 1 23 61
M  V30 66 1 27 62
M  V30 67 1 29 63
M  V30 68 1 30 64
M  V30 69 1 32 65
M  V30 70 1 35 66
M  V30 71 1 36 67
M  V30 72 1 38 68
M  V30 73 1 38 69
M  V30 74 1 39 70
M  V30 75 1 39 71
M  V30 76 1 40 72
M  V30 77 1 41 73
M  V30 78 1 42 74
M  V30 79 1 43 75
M  V30 80 1 43 76
M  V30 81 1 44 77
M  V30 82 1 44 78
M  V30 END BOND
M  V30 END CTAB
M  END
>  <Dataset>  (372) 
ChEMBL_Kinases

>  <Ligand_Instance>  (372) 
nan

>  <PDB_ID>  (372) 
nan

>  <Standardized_SMILES>  (372) 
CN1CCC(OC(=O)Cc2ccc(NC(=O)c3cccc(-c4cc(C(=O)Nc5ccncc5F)ccc4CN)c3)cc2)CC1

>  <Name>  (372) 
nan

>  <Pocket>  (372) 
nan

>  <ATP_Site>  (372) 
nan

>  <Peripheral>  (372) 
nan

>  <Num_H_Atoms_ProtBoundConf>  (372) 
nan

>  <Num_Resolved_Atoms>  (372) 
nan

>  <Num_Not_Resolved_Atoms>  (372) 
nan

$$$$
CHEMBL3426727
     RDKit          3D

  0  0  0  0  0  0  0  0  0  0999 V3000
M  V30 BEGIN CTAB
M  V30 COUNTS 73 77 0 0 0
M  V30 BEGIN ATOM
M  V30 1 N 1.688878 3.612619 -4.231894 0
M  V30 2 C 0.437015 3.069652 -3.672954 0
M  V30 3 C 0.064485 1.950961 -4.542629 0
M  V30 4 C -0.961536 2.153997 -5.450501 0
M  V30 5 C -1.300315 1.104204 -6.281087 0
M  V30 6 C -0.647912 -0.113933 -6.221458 0
M  V30 7 C -0.996994 -1.241724 -7.078577 0
M  V30 8 O -0.356262 -2.340153 -6.966736 0
M  V30 9 N -2.022396 -1.206219 -8.049332 0
M  V30 10 C -2.481199 -2.182719 -8.933326 0
M  V30 11 C -3.511710 -2.926024 -8.338137 0
M  V30 12 C -4.138332 -3.969266 -9.031894 0
M  V30 13 N -3.769967 -4.282012 -10.278268 0
M  V30 14 C -2.775811 -3.576333 -10.872229 0
M  V30 15 C -2.129299 -2.545228 -10.237571 0
M  V30 16 F -1.129535 -1.760028 -10.700000 0
M  V30 17 C 0.361606 -0.237353 -5.290933 0
M  V30 18 C 0.761553 0.771515 -4.419856 0
M  V30 19 C 1.823094 0.442247 -3.509308 0
M  V30 20 C 2.961139 -0.046129 -4.189736 0
M  V30 21 C 4.075797 -0.422945 -3.428436 0
M  V30 22 C 4.109665 -0.336479 -2.029527 0
M  V30 23 C 2.999842 0.140358 -1.362470 0
M  V30 24 C 3.020436 0.231607 0.086572 0
M  V30 25 O 4.062270 -0.142687 0.667655 0
M  V30 26 N 1.954430 0.708249 0.868093 0
M  V30 27 C 1.824638 0.851140 2.264575 0
M  V30 28 C 2.773002 0.574796 3.216671 0
M  V30 29 C 2.594503 0.708411 4.567445 0
M  V30 30 C 1.417140 1.143084 5.083620 0
M  V30 31 C 0.827910 1.414200 6.428319 0
M  V30 32 C 0.281542 0.121593 6.907661 0
M  V30 33 O 0.743542 -0.849057 6.232488 0
M  V30 34 O -0.630229 -0.115455 7.949928 0
M  V30 35 C -1.022899 -1.437076 8.276235 0
M  V30 36 C -1.176607 -1.738760 9.701763 0
M  V30 37 C -2.687524 -1.922882 9.943797 0
M  V30 38 C -3.156087 -2.513546 8.644196 0
M  V30 39 C -2.392899 -1.714196 7.615273 0
M  V30 40 C 0.411152 1.440329 4.124800 0
M  V30 41 C 0.632425 1.290760 2.773910 0
M  V30 42 C 1.938204 0.494572 -2.147549 0
M  V30 43 H 1.444896 3.815980 -5.251176 0
M  V30 44 H 1.978620 4.491417 -3.762783 0
M  V30 45 H -0.278972 3.942494 -3.790525 0
M  V30 46 H 0.468426 2.893825 -2.608274 0
M  V30 47 H -1.457285 3.115915 -5.479567 0
M  V30 48 H -2.112357 1.256768 -7.004439 0
M  V30 49 H -2.581467 -0.330136 -8.190729 0
M  V30 50 H -3.922219 -2.792344 -7.332009 0
M  V30 51 H -4.935901 -4.576470 -8.627963 0
M  V30 52 H -2.430667 -3.774564 -11.876038 0
M  V30 53 H 0.864255 -1.213720 -5.263343 0
M  V30 54 H 3.035447 -0.154863 -5.272955 0
M  V30 55 H 4.953010 -0.798873 -3.954253 0
M  V30 56 H 5.016033 -0.652794 -1.559090 0
M  V30 57 H 1.152223 0.992493 0.269985 0
M  V30 58 H 3.742743 0.220386 2.909925 0
M  V30 59 H 3.273651 0.515320 5.376450 0
M  V30 60 H 1.722148 1.677080 7.073624 0
M  V30 61 H 0.121273 2.236179 6.447523 0
M  V30 62 H -0.303448 -2.125289 7.745751 0
M  V30 63 H -0.830179 -0.878048 10.341932 0
M  V30 64 H -0.616200 -2.629518 10.067382 0
M  V30 65 H -2.879297 -2.512819 10.835498 0
M  V30 66 H -3.123583 -0.915921 10.086908 0
M  V30 67 H -2.948195 -3.599486 8.584163 0
M  V30 68 H -4.238684 -2.386313 8.510237 0
M  V30 69 H -2.233011 -2.374616 6.738292 0
M  V30 70 H -2.917871 -0.803940 7.329908 0
M  V30 71 H -0.609789 1.805750 4.349479 0
M  V30 72 H -0.178547 1.533957 2.058345 0
M  V30 73 H 1.035305 0.856504 -1.688997 0
M  V30 END ATOM
M  V30 BEGIN BOND
M  V30 1 1 1 2
M  V30 2 1 2 3
M  V30 3 2 3 4
M  V30 4 1 4 5
M  V30 5 2 5 6
M  V30 6 1 6 7
M  V30 7 2 7 8
M  V30 8 1 7 9
M  V30 9 1 9 10
M  V30 10 2 10 11
M  V30 11 1 11 12
M  V30 12 2 12 13
M  V30 13 1 13 14
M  V30 14 2 14 15
M  V30 15 1 15 16
M  V30 16 1 6 17
M  V30 17 2 17 18
M  V30 18 1 18 19
M  V30 19 2 19 20
M  V30 20 1 20 21
M  V30 21 2 21 22
M  V30 22 1 22 23
M  V30 23 1 23 24
M  V30 24 2 24 25
M  V30 25 1 24 26
M  V30 26 1 26 27
M  V30 27 2 27 28
M  V30 28 1 28 29
M  V30 29 2 29 30
M  V30 30 1 30 31
M  V30 31 1 31 32
M  V30 32 2 32 33
M  V30 33 1 32 34
M  V30 34 1 34 35
M  V30 35 1 35 36
M  V30 36 1 36 37
M  V30 37 1 37 38
M  V30 38 1 38 39
M  V30 39 1 30 40
M  V30 40 2 40 41
M  V30 41 2 23 42
M  V30 42 1 18 3
M  V30 43 1 42 19
M  V30 44 1 15 10
M  V30 45 1 41 27
M  V30 46 1 39 35
M  V30 47 1 1 43
M  V30 48 1 1 44
M  V30 49 1 2 45
M  V30 50 1 2 46
M  V30 51 1 4 47
M  V30 52 1 5 48
M  V30 53 1 9 49
M  V30 54 1 11 50
M  V30 55 1 12 51
M  V30 56 1 14 52
M  V30 57 1 17 53
M  V30 58 1 20 54
M  V30 59 1 21 55
M  V30 60 1 22 56
M  V30 61 1 26 57
M  V30 62 1 28 58
M  V30 63 1 29 59
M  V30 64 1 31 60
M  V30 65 1 31 61
M  V30 66 1 35 62
M  V30 67 1 36 63
M  V30 68 1 36 64
M  V30 69 1 37 65
M  V30 70 1 37 66
M  V30 71 1 38 67
M  V30 72 1 38 68
M  V30 73 1 39 69
M  V30 74 1 39 70
M  V30 75 1 40 71
M  V30 76 1 41 72
M  V30 77 1 42 73
M  V30 END BOND
M  V30 END CTAB
M  END
>  <Dataset>  (373) 
ChEMBL_Kinases

>  <Ligand_Instance>  (373) 
nan

>  <PDB_ID>  (373) 
nan

>  <Standardized_SMILES>  (373) 
NCc1ccc(C(=O)Nc2ccncc2F)cc1-c1cccc(C(=O)Nc2ccc(CC(=O)OC3CCCC3)cc2)c1

>  <Name>  (373) 
nan

>  <Pocket>  (373) 
nan

>  <ATP_Site>  (373) 
nan

>  <Peripheral>  (373) 
nan

>  <Num_H_Atoms_ProtBoundConf>  (373) 
nan

>  <Num_Resolved_Atoms>  (373) 
nan

>  <Num_Not_Resolved_Atoms>  (373) 
nan

$$$$
CHEMBL3426726
     RDKit          3D

  0  0  0  0  0  0  0  0  0  0999 V3000
M  V30 BEGIN CTAB
M  V30 COUNTS 70 74 0 0 0
M  V30 BEGIN ATOM
M  V30 1 N 0.382911 -6.721995 1.951650 0
M  V30 2 C -0.145968 -6.407823 3.272147 0
M  V30 3 C -0.087682 -4.990222 3.590601 0
M  V30 4 C 0.866008 -4.472228 4.477223 0
M  V30 5 C 0.967678 -3.116558 4.794920 0
M  V30 6 C 0.099438 -2.245030 4.218513 0
M  V30 7 C 0.218460 -0.836314 4.549183 0
M  V30 8 O 1.128235 -0.498905 5.345922 0
M  V30 9 N -0.600790 0.199733 4.054174 0
M  V30 10 C -0.220139 1.483225 4.573550 0
M  V30 11 C 0.728625 2.100644 3.744465 0
M  V30 12 C 1.179139 3.357449 4.139593 0
M  V30 13 N 0.771106 3.984570 5.229886 0
M  V30 14 C -0.148430 3.376947 6.026740 0
M  V30 15 C -0.660377 2.137555 5.730283 0
M  V30 16 F -1.573239 1.415727 6.422932 0
M  V30 17 C -0.839784 -2.747276 3.345491 0
M  V30 18 C -0.953657 -4.104587 3.016839 0
M  V30 19 C -2.013020 -4.448271 2.079991 0
M  V30 20 C -3.050913 -5.354224 2.108750 0
M  V30 21 C -3.878110 -5.477637 1.012060 0
M  V30 22 C -3.734959 -4.725491 -0.161055 0
M  V30 23 C -2.701796 -3.814405 -0.209208 0
M  V30 24 C -2.555457 -3.073899 -1.452643 0
M  V30 25 O -3.215485 -3.513637 -2.455083 0
M  V30 26 N -1.759926 -1.942290 -1.618475 0
M  V30 27 C -1.391405 -1.033374 -2.629757 0
M  V30 28 C -0.181804 -1.420192 -3.248930 0
M  V30 29 C 0.229126 -0.571217 -4.256346 0
M  V30 30 C -0.374251 0.573970 -4.720624 0
M  V30 31 C 0.293746 1.329982 -5.812865 0
M  V30 32 C 1.052068 2.442409 -5.195491 0
M  V30 33 O 0.492405 1.943570 -4.165947 0
M  V30 34 O 1.827853 3.521201 -4.829782 0
M  V30 35 C 1.951250 3.981912 -3.500172 0
M  V30 36 C 1.772748 5.473466 -3.338257 0
M  V30 37 C 2.886243 5.382914 -2.280459 0
M  V30 38 C 3.414204 4.190741 -3.082596 0
M  V30 39 C -1.540291 0.896106 -4.080957 0
M  V30 40 C -2.039672 0.106730 -3.055668 0
M  V30 41 C -1.883982 -3.702908 0.896990 0
M  V30 42 H 0.689208 -5.843412 1.495033 0
M  V30 43 H -0.338908 -7.178052 1.341924 0
M  V30 44 H -1.076765 -6.944213 3.416370 0
M  V30 45 H 0.578328 -6.916442 3.982702 0
M  V30 46 H 1.548607 -5.186338 4.924242 0
M  V30 47 H 1.752912 -2.822963 5.494777 0
M  V30 48 H -1.363348 -0.059623 3.397110 0
M  V30 49 H 1.145600 1.707358 2.836186 0
M  V30 50 H 1.918306 3.892798 3.541086 0
M  V30 51 H -0.535478 3.830416 6.943732 0
M  V30 52 H -1.516486 -2.028934 2.906459 0
M  V30 53 H -3.106129 -5.883139 3.045369 0
M  V30 54 H -4.666743 -6.209535 1.109823 0
M  V30 55 H -4.445688 -4.921024 -0.942389 0
M  V30 56 H -1.242168 -1.588469 -0.761172 0
M  V30 57 H 0.400552 -2.288643 -2.989529 0
M  V30 58 H 1.173899 -0.861761 -4.752896 0
M  V30 59 H 1.040940 0.674043 -6.311812 0
M  V30 60 H -0.405834 1.665104 -6.611074 0
M  V30 61 H 1.372739 3.434311 -2.740858 0
M  V30 62 H 2.097273 6.072720 -4.210837 0
M  V30 63 H 0.825271 5.756636 -2.836637 0
M  V30 64 H 3.532185 6.261535 -2.253485 0
M  V30 65 H 2.507544 5.061789 -1.293452 0
M  V30 66 H 3.782470 3.337558 -2.482938 0
M  V30 67 H 4.032849 4.543407 -3.918922 0
M  V30 68 H -2.065835 1.786419 -4.391536 0
M  V30 69 H -2.957818 0.330885 -2.529866 0
M  V30 70 H -1.105816 -2.937127 0.723505 0
M  V30 END ATOM
M  V30 BEGIN BOND
M  V30 1 1 1 2
M  V30 2 1 2 3
M  V30 3 2 3 4
M  V30 4 1 4 5
M  V30 5 2 5 6
M  V30 6 1 6 7
M  V30 7 2 7 8
M  V30 8 1 7 9
M  V30 9 1 9 10
M  V30 10 2 10 11
M  V30 11 1 11 12
M  V30 12 2 12 13
M  V30 13 1 13 14
M  V30 14 2 14 15
M  V30 15 1 15 16
M  V30 16 1 6 17
M  V30 17 2 17 18
M  V30 18 1 18 19
M  V30 19 2 19 20
M  V30 20 1 20 21
M  V30 21 2 21 22
M  V30 22 1 22 23
M  V30 23 1 23 24
M  V30 24 2 24 25
M  V30 25 1 24 26
M  V30 26 1 26 27
M  V30 27 2 27 28
M  V30 28 1 28 29
M  V30 29 2 29 30
M  V30 30 1 30 31
M  V30 31 1 31 32
M  V30 32 2 32 33
M  V30 33 1 32 34
M  V30 34 1 34 35
M  V30 35 1 35 36
M  V30 36 1 36 37
M  V30 37 1 37 38
M  V30 38 1 30 39
M  V30 39 2 39 40
M  V30 40 2 23 41
M  V30 41 1 18 3
M  V30 42 1 41 19
M  V30 43 1 15 10
M  V30 44 1 40 27
M  V30 45 1 38 35
M  V30 46 1 1 42
M  V30 47 1 1 43
M  V30 48 1 2 44
M  V30 49 1 2 45
M  V30 50 1 4 46
M  V30 51 1 5 47
M  V30 52 1 9 48
M  V30 53 1 11 49
M  V30 54 1 12 50
M  V30 55 1 14 51
M  V30 56 1 17 52
M  V30 57 1 20 53
M  V30 58 1 21 54
M  V30 59 1 22 55
M  V30 60 1 26 56
M  V30 61 1 28 57
M  V30 62 1 29 58
M  V30 63 1 31 59
M  V30 64 1 31 60
M  V30 65 1 35 61
M  V30 66 1 36 62
M  V30 67 1 36 63
M  V30 68 1 37 64
M  V30 69 1 37 65
M  V30 70 1 38 66
M  V30 71 1 38 67
M  V30 72 1 39 68
M  V30 73 1 40 69
M  V30 74 1 41 70
M  V30 END BOND
M  V30 END CTAB
M  END
>  <Dataset>  (374) 
ChEMBL_Kinases

>  <Ligand_Instance>  (374) 
nan

>  <PDB_ID>  (374) 
nan

>  <Standardized_SMILES>  (374) 
NCc1ccc(C(=O)Nc2ccncc2F)cc1-c1cccc(C(=O)Nc2ccc(CC(=O)OC3CCC3)cc2)c1

>  <Name>  (374) 
nan

>  <Pocket>  (374) 
nan

>  <ATP_Site>  (374) 
nan

>  <Peripheral>  (374) 
nan

>  <Num_H_Atoms_ProtBoundConf>  (374) 
nan

>  <Num_Resolved_Atoms>  (374) 
nan

>  <Num_Not_Resolved_Atoms>  (374) 
nan

$$$$
CHEMBL3426646
     RDKit          3D

  0  0  0  0  0  0  0  0  0  0999 V3000
M  V30 BEGIN CTAB
M  V30 COUNTS 57 60 0 0 0
M  V30 BEGIN ATOM
M  V30 1 N 3.269575 -3.685837 2.821604 0
M  V30 2 C 3.317316 -2.566165 3.738408 0
M  V30 3 C 2.970441 -1.289471 3.098376 0
M  V30 4 C 3.930398 -0.345518 2.778006 0
M  V30 5 C 3.613668 0.848811 2.166106 0
M  V30 6 C 2.303097 1.134771 1.853077 0
M  V30 7 C 2.005059 2.403466 1.206953 0
M  V30 8 O 2.973091 3.172223 0.966159 0
M  V30 9 N 0.697656 2.785110 0.852532 0
M  V30 10 C 0.217993 3.966124 0.223819 0
M  V30 11 C 0.196400 3.831581 -1.156974 0
M  V30 12 C -0.241889 4.876891 -1.963918 0
M  V30 13 N -0.643639 6.018585 -1.386091 0
M  V30 14 C -0.631302 6.171164 -0.052061 0
M  V30 15 C -0.205359 5.159978 0.770943 0
M  V30 16 F -0.139110 5.170089 2.128833 0
M  V30 17 C 1.382675 0.174817 2.186774 0
M  V30 18 C 1.648955 -1.046561 2.805046 0
M  V30 19 C 0.492456 -1.887247 3.068541 0
M  V30 20 C -0.001833 -2.493674 4.200044 0
M  V30 21 C -1.133437 -3.274749 4.176862 0
M  V30 22 C -1.849852 -3.497779 2.996597 0
M  V30 23 C -1.371231 -2.894731 1.835635 0
M  V30 24 C -2.174807 -3.175889 0.656132 0
M  V30 25 O -3.183445 -3.884941 0.721275 0
M  V30 26 N -1.821553 -2.640982 -0.609656 0
M  V30 27 C -2.343732 -2.698245 -1.916260 0
M  V30 28 C -3.262664 -1.693840 -2.226582 0
M  V30 29 C -3.892075 -1.563463 -3.445400 0
M  V30 30 C -3.565634 -2.510278 -4.399410 0
M  V30 31 C -2.665006 -3.514730 -4.130942 0
M  V30 32 C -2.354276 -4.489629 -5.169542 0
M  V30 33 O -2.888401 -4.428216 -6.298002 0
M  V30 34 O -1.456996 -5.523142 -4.953070 0
M  V30 35 C -2.062174 -3.612830 -2.915836 0
M  V30 36 F -1.174398 -4.563194 -2.578427 0
M  V30 37 C -0.236409 -2.119382 1.891520 0
M  V30 38 H 2.737504 -3.482681 1.957427 0
M  V30 39 H 3.081814 -4.584763 3.276869 0
M  V30 40 H 4.415318 -2.502889 4.029599 0
M  V30 41 H 2.819221 -2.744122 4.703979 0
M  V30 42 H 4.957639 -0.613219 3.043666 0
M  V30 43 H 4.439298 1.493541 1.970380 0
M  V30 44 H -0.133477 2.182063 1.032046 0
M  V30 45 H 0.497364 2.959292 -1.719237 0
M  V30 46 H -0.272824 4.807695 -3.042766 0
M  V30 47 H -0.950026 7.086179 0.466522 0
M  V30 48 H 0.343900 0.431905 1.924760 0
M  V30 49 H 0.586676 -2.272080 5.075734 0
M  V30 50 H -1.419494 -3.694798 5.128907 0
M  V30 51 H -2.717709 -4.125251 3.101251 0
M  V30 52 H -0.995920 -2.032574 -0.787374 0
M  V30 53 H -3.546997 -0.922728 -1.495114 0
M  V30 54 H -4.593907 -0.790885 -3.671116 0
M  V30 55 H -4.014135 -2.489331 -5.399514 0
M  V30 56 H -0.903559 -5.810625 -5.772267 0
M  V30 57 H 0.011769 -1.721596 0.926267 0
M  V30 END ATOM
M  V30 BEGIN BOND
M  V30 1 1 1 2
M  V30 2 1 2 3
M  V30 3 2 3 4
M  V30 4 1 4 5
M  V30 5 2 5 6
M  V30 6 1 6 7
M  V30 7 2 7 8
M  V30 8 1 7 9
M  V30 9 1 9 10
M  V30 10 2 10 11
M  V30 11 1 11 12
M  V30 12 2 12 13
M  V30 13 1 13 14
M  V30 14 2 14 15
M  V30 15 1 15 16
M  V30 16 1 6 17
M  V30 17 2 17 18
M  V30 18 1 18 19
M  V30 19 2 19 20
M  V30 20 1 20 21
M  V30 21 2 21 22
M  V30 22 1 22 23
M  V30 23 1 23 24
M  V30 24 2 24 25
M  V30 25 1 24 26
M  V30 26 1 26 27
M  V30 27 2 27 28
M  V30 28 1 28 29
M  V30 29 2 29 30
M  V30 30 1 30 31
M  V30 31 1 31 32
M  V30 32 2 32 33
M  V30 33 1 32 34
M  V30 34 2 31 35
M  V30 35 1 35 36
M  V30 36 2 23 37
M  V30 37 1 18 3
M  V30 38 1 37 19
M  V30 39 1 15 10
M  V30 40 1 35 27
M  V30 41 1 1 38
M  V30 42 1 1 39
M  V30 43 1 2 40
M  V30 44 1 2 41
M  V30 45 1 4 42
M  V30 46 1 5 43
M  V30 47 1 9 44
M  V30 48 1 11 45
M  V30 49 1 12 46
M  V30 50 1 14 47
M  V30 51 1 17 48
M  V30 52 1 20 49
M  V30 53 1 21 50
M  V30 54 1 22 51
M  V30 55 1 26 52
M  V30 56 1 28 53
M  V30 57 1 29 54
M  V30 58 1 30 55
M  V30 59 1 34 56
M  V30 60 1 37 57
M  V30 END BOND
M  V30 END CTAB
M  END
>  <Dataset>  (375) 
ChEMBL_Kinases

>  <Ligand_Instance>  (375) 
nan

>  <PDB_ID>  (375) 
nan

>  <Standardized_SMILES>  (375) 
NCc1ccc(C(=O)Nc2ccncc2F)cc1-c1cccc(C(=O)Nc2cccc(C(=O)O)c2F)c1

>  <Name>  (375) 
nan

>  <Pocket>  (375) 
nan

>  <ATP_Site>  (375) 
nan

>  <Peripheral>  (375) 
nan

>  <Num_H_Atoms_ProtBoundConf>  (375) 
nan

>  <Num_Resolved_Atoms>  (375) 
nan

>  <Num_Not_Resolved_Atoms>  (375) 
nan

$$$$
CHEMBL3426643
     RDKit          3D

  0  0  0  0  0  0  0  0  0  0999 V3000
M  V30 BEGIN CTAB
M  V30 COUNTS 57 60 0 0 0
M  V30 BEGIN ATOM
M  V30 1 N 0.321786 -2.932784 5.999592 0
M  V30 2 C 1.404570 -2.432358 5.181483 0
M  V30 3 C 1.126723 -1.143418 4.525139 0
M  V30 4 C 1.573394 0.034103 5.081002 0
M  V30 5 C 1.337667 1.275822 4.534433 0
M  V30 6 C 0.615725 1.357927 3.365506 0
M  V30 7 C 0.368108 2.671033 2.795784 0
M  V30 8 O 0.807534 3.673824 3.414632 0
M  V30 9 N -0.331384 2.933064 1.591499 0
M  V30 10 C -0.561726 4.228843 1.053378 0
M  V30 11 C -1.729159 4.904502 1.426594 0
M  V30 12 C -1.943351 6.151674 0.903345 0
M  V30 13 N -1.084867 6.746827 0.053584 0
M  V30 14 C 0.045848 6.120427 -0.322634 0
M  V30 15 C 0.296119 4.865752 0.182052 0
M  V30 16 F 1.417454 4.187889 -0.160486 0
M  V30 17 C 0.172229 0.174365 2.814050 0
M  V30 18 C 0.404331 -1.095573 3.358867 0
M  V30 19 C -0.167133 -2.166426 2.574178 0
M  V30 20 C -0.995259 -3.217737 2.858550 0
M  V30 21 C -1.439751 -4.174142 1.987245 0
M  V30 22 C -1.020565 -4.086784 0.677020 0
M  V30 23 C -0.185741 -3.066638 0.282542 0
M  V30 24 C 0.262340 -2.951523 -1.100144 0
M  V30 25 O 1.025037 -2.015402 -1.452590 0
M  V30 26 N -0.144088 -3.878067 -2.071406 0
M  V30 27 C 0.159455 -3.961425 -3.457160 0
M  V30 28 C -0.784175 -3.256988 -4.199739 0
M  V30 29 C -0.694431 -3.197807 -5.590738 0
M  V30 30 C -1.668870 -2.467745 -6.408514 0
M  V30 31 O -1.600130 -2.406479 -7.667790 0
M  V30 32 O -2.733190 -1.797233 -5.818104 0
M  V30 33 C 0.338884 -3.843324 -6.236072 0
M  V30 34 C 1.264757 -4.536344 -5.483536 0
M  V30 35 C 1.192954 -4.606734 -4.102526 0
M  V30 36 F 2.027204 -5.244177 -3.268755 0
M  V30 37 C 0.215393 -2.145363 1.224264 0
M  V30 38 H -0.001072 -3.889276 5.762252 0
M  V30 39 H -0.488439 -2.289062 5.893317 0
M  V30 40 H 2.283287 -2.273077 5.836701 0
M  V30 41 H 1.718333 -3.217008 4.444235 0
M  V30 42 H 2.149581 -0.019127 6.012164 0
M  V30 43 H 1.712601 2.155919 5.015843 0
M  V30 44 H -0.705436 2.144400 1.053870 0
M  V30 45 H -2.400293 4.389901 2.115985 0
M  V30 46 H -2.865026 6.607929 1.238247 0
M  V30 47 H 0.788007 6.522756 -0.998095 0
M  V30 48 H -0.393161 0.325505 1.887157 0
M  V30 49 H -1.321514 -3.256985 3.879154 0
M  V30 50 H -2.087694 -4.939489 2.362871 0
M  V30 51 H -1.385194 -4.853663 0.011221 0
M  V30 52 H -0.768701 -4.692089 -1.899033 0
M  V30 53 H -1.649070 -2.703453 -3.812451 0
M  V30 54 H -3.201836 -1.004900 -6.251409 0
M  V30 55 H 0.419911 -3.805322 -7.313563 0
M  V30 56 H 2.085555 -5.054512 -5.929961 0
M  V30 57 H 0.878486 -1.363779 0.838041 0
M  V30 END ATOM
M  V30 BEGIN BOND
M  V30 1 1 1 2
M  V30 2 1 2 3
M  V30 3 2 3 4
M  V30 4 1 4 5
M  V30 5 2 5 6
M  V30 6 1 6 7
M  V30 7 2 7 8
M  V30 8 1 7 9
M  V30 9 1 9 10
M  V30 10 2 10 11
M  V30 11 1 11 12
M  V30 12 2 12 13
M  V30 13 1 13 14
M  V30 14 2 14 15
M  V30 15 1 15 16
M  V30 16 1 6 17
M  V30 17 2 17 18
M  V30 18 1 18 19
M  V30 19 2 19 20
M  V30 20 1 20 21
M  V30 21 2 21 22
M  V30 22 1 22 23
M  V30 23 1 23 24
M  V30 24 2 24 25
M  V30 25 1 24 26
M  V30 26 1 26 27
M  V30 27 2 27 28
M  V30 28 1 28 29
M  V30 29 1 29 30
M  V30 30 2 30 31
M  V30 31 1 30 32
M  V30 32 2 29 33
M  V30 33 1 33 34
M  V30 34 2 34 35
M  V30 35 1 35 36
M  V30 36 2 23 37
M  V30 37 1 18 3
M  V30 38 1 37 19
M  V30 39 1 15 10
M  V30 40 1 35 27
M  V30 41 1 1 38
M  V30 42 1 1 39
M  V30 43 1 2 40
M  V30 44 1 2 41
M  V30 45 1 4 42
M  V30 46 1 5 43
M  V30 47 1 9 44
M  V30 48 1 11 45
M  V30 49 1 12 46
M  V30 50 1 14 47
M  V30 51 1 17 48
M  V30 52 1 20 49
M  V30 53 1 21 50
M  V30 54 1 22 51
M  V30 55 1 26 52
M  V30 56 1 28 53
M  V30 57 1 32 54
M  V30 58 1 33 55
M  V30 59 1 34 56
M  V30 60 1 37 57
M  V30 END BOND
M  V30 END CTAB
M  END
>  <Dataset>  (376) 
ChEMBL_Kinases

>  <Ligand_Instance>  (376) 
nan

>  <PDB_ID>  (376) 
nan

>  <Standardized_SMILES>  (376) 
NCc1ccc(C(=O)Nc2ccncc2F)cc1-c1cccc(C(=O)Nc2cc(C(=O)O)ccc2F)c1

>  <Name>  (376) 
nan

>  <Pocket>  (376) 
nan

>  <ATP_Site>  (376) 
nan

>  <Peripheral>  (376) 
nan

>  <Num_H_Atoms_ProtBoundConf>  (376) 
nan

>  <Num_Resolved_Atoms>  (376) 
nan

>  <Num_Not_Resolved_Atoms>  (376) 
nan

$$$$
CHEMBL3426642
     RDKit          3D

  0  0  0  0  0  0  0  0  0  0999 V3000
M  V30 BEGIN CTAB
M  V30 COUNTS 70 74 0 0 0
M  V30 BEGIN ATOM
M  V30 1 N -5.050522 -0.767511 -1.070285 0
M  V30 2 C -4.959289 -1.084529 -2.477819 0
M  V30 3 C -4.095665 -0.163244 -3.247065 0
M  V30 4 C -4.742673 0.812970 -3.969771 0
M  V30 5 C -4.019617 1.716602 -4.716810 0
M  V30 6 C -2.643814 1.652162 -4.747791 0
M  V30 7 C -1.945073 2.637078 -5.555879 0
M  V30 8 O -2.621570 3.471392 -6.209155 0
M  V30 9 N -0.525484 2.630198 -5.584880 0
M  V30 10 C 0.438174 3.431271 -6.251965 0
M  V30 11 C 1.023206 3.246952 -7.507019 0
M  V30 12 C 1.946868 4.162722 -7.962188 0
M  V30 13 N 2.307191 5.237086 -7.233139 0
M  V30 14 C 1.760934 5.440476 -6.021838 0
M  V30 15 C 0.831844 4.550481 -5.524199 0
M  V30 16 F 0.334060 4.847895 -4.280483 0
M  V30 17 C -2.046826 0.658495 -4.008790 0
M  V30 18 C -2.726912 -0.286383 -3.231949 0
M  V30 19 C -1.932202 -1.259424 -2.506436 0
M  V30 20 C -1.122341 -1.944240 -3.426740 0
M  V30 21 C -0.223378 -2.941942 -3.034469 0
M  V30 22 C -0.117106 -3.276497 -1.699174 0
M  V30 23 C -0.914747 -2.600061 -0.800432 0
M  V30 24 C -0.929684 -2.822366 0.642360 0
M  V30 25 O -1.631550 -2.240062 1.511688 0
M  V30 26 N -0.079879 -3.793862 1.209248 0
M  V30 27 C -0.135925 -3.968541 2.641517 0
M  V30 28 C -0.961863 -4.836989 3.328306 0
M  V30 29 C -0.888274 -4.881072 4.705551 0
M  V30 30 C -0.023994 -4.094760 5.439829 0
M  V30 31 C 0.787929 -3.237623 4.726626 0
M  V30 32 C 1.729868 -2.372716 5.426125 0
M  V30 33 O 2.485630 -1.592525 4.794086 0
M  V30 34 O 1.925640 -2.281123 6.795580 0
M  V30 35 C 2.841123 -1.435163 7.398837 0
M  V30 36 C 3.844562 -2.080058 8.301901 0
M  V30 37 C 4.612005 -0.826244 8.748737 0
M  V30 38 C 3.518585 0.201831 8.919005 0
M  V30 39 C 2.244429 -0.404578 8.332576 0
M  V30 40 C 0.748824 -3.161436 3.368849 0
M  V30 41 F 1.581355 -2.287677 2.709533 0
M  V30 42 C -1.782723 -1.633778 -1.194045 0
M  V30 43 H -5.975573 -0.264550 -0.954696 0
M  V30 44 H -5.149900 -1.619607 -0.465244 0
M  V30 45 H -4.468223 -2.090661 -2.517018 0
M  V30 46 H -5.970482 -1.159923 -2.943473 0
M  V30 47 H -5.817628 0.892549 -3.968882 0
M  V30 48 H -4.565050 2.467040 -5.270019 0
M  V30 49 H 0.095019 1.973083 -5.071490 0
M  V30 50 H 0.667878 2.364805 -8.001380 0
M  V30 51 H 2.359677 3.970296 -8.926020 0
M  V30 52 H 2.062449 6.319374 -5.436503 0
M  V30 53 H -0.976150 0.608441 -4.032359 0
M  V30 54 H -1.068027 -1.818880 -4.509766 0
M  V30 55 H 0.418840 -3.498160 -3.687112 0
M  V30 56 H 0.549516 -4.032303 -1.319052 0
M  V30 57 H 0.576777 -4.386320 0.675412 0
M  V30 58 H -1.618922 -5.429775 2.714956 0
M  V30 59 H -1.531967 -5.558401 5.230829 0
M  V30 60 H -0.007619 -4.170310 6.516927 0
M  V30 61 H 3.377691 -0.864815 6.613287 0
M  V30 62 H 3.356951 -2.471567 9.223215 0
M  V30 63 H 4.518111 -2.800838 7.828824 0
M  V30 64 H 5.209680 -0.988923 9.645066 0
M  V30 65 H 5.263017 -0.542555 7.871358 0
M  V30 66 H 3.805162 1.115684 8.330317 0
M  V30 67 H 3.410197 0.514547 9.962899 0
M  V30 68 H 1.696253 0.372888 7.796487 0
M  V30 69 H 1.647367 -0.903403 9.127699 0
M  V30 70 H -2.424392 -1.055248 -0.553786 0
M  V30 END ATOM
M  V30 BEGIN BOND
M  V30 1 1 1 2
M  V30 2 1 2 3
M  V30 3 2 3 4
M  V30 4 1 4 5
M  V30 5 2 5 6
M  V30 6 1 6 7
M  V30 7 2 7 8
M  V30 8 1 7 9
M  V30 9 1 9 10
M  V30 10 2 10 11
M  V30 11 1 11 12
M  V30 12 2 12 13
M  V30 13 1 13 14
M  V30 14 2 14 15
M  V30 15 1 15 16
M  V30 16 1 6 17
M  V30 17 2 17 18
M  V30 18 1 18 19
M  V30 19 2 19 20
M  V30 20 1 20 21
M  V30 21 2 21 22
M  V30 22 1 22 23
M  V30 23 1 23 24
M  V30 24 2 24 25
M  V30 25 1 24 26
M  V30 26 1 26 27
M  V30 27 2 27 28
M  V30 28 1 28 29
M  V30 29 2 29 30
M  V30 30 1 30 31
M  V30 31 1 31 32
M  V30 32 2 32 33
M  V30 33 1 32 34
M  V30 34 1 34 35
M  V30 35 1 35 36
M  V30 36 1 36 37
M  V30 37 1 37 38
M  V30 38 1 38 39
M  V30 39 2 31 40
M  V30 40 1 40 41
M  V30 41 2 23 42
M  V30 42 1 18 3
M  V30 43 1 42 19
M  V30 44 1 15 10
M  V30 45 1 40 27
M  V30 46 1 39 35
M  V30 47 1 1 43
M  V30 48 1 1 44
M  V30 49 1 2 45
M  V30 50 1 2 46
M  V30 51 1 4 47
M  V30 52 1 5 48
M  V30 53 1 9 49
M  V30 54 1 11 50
M  V30 55 1 12 51
M  V30 56 1 14 52
M  V30 57 1 17 53
M  V30 58 1 20 54
M  V30 59 1 21 55
M  V30 60 1 22 56
M  V30 61 1 26 57
M  V30 62 1 28 58
M  V30 63 1 29 59
M  V30 64 1 30 60
M  V30 65 1 35 61
M  V30 66 1 36 62
M  V30 67 1 36 63
M  V30 68 1 37 64
M  V30 69 1 37 65
M  V30 70 1 38 66
M  V30 71 1 38 67
M  V30 72 1 39 68
M  V30 73 1 39 69
M  V30 74 1 42 70
M  V30 END BOND
M  V30 END CTAB
M  END
>  <Dataset>  (377) 
ChEMBL_Kinases

>  <Ligand_Instance>  (377) 
nan

>  <PDB_ID>  (377) 
nan

>  <Standardized_SMILES>  (377) 
NCc1ccc(C(=O)Nc2ccncc2F)cc1-c1cccc(C(=O)Nc2cccc(C(=O)OC3CCCC3)c2F)c1

>  <Name>  (377) 
nan

>  <Pocket>  (377) 
nan

>  <ATP_Site>  (377) 
nan

>  <Peripheral>  (377) 
nan

>  <Num_H_Atoms_ProtBoundConf>  (377) 
nan

>  <Num_Resolved_Atoms>  (377) 
nan

>  <Num_Not_Resolved_Atoms>  (377) 
nan

$$$$
CHEMBL3426641
     RDKit          3D

  0  0  0  0  0  0  0  0  0  0999 V3000
M  V30 BEGIN CTAB
M  V30 COUNTS 60 63 0 0 0
M  V30 BEGIN ATOM
M  V30 1 C 6.011783 0.360674 7.506549 0
M  V30 2 O 5.917184 1.173243 6.338302 0
M  V30 3 C 4.815218 0.945150 5.493963 0
M  V30 4 O 4.020874 0.038716 5.862941 0
M  V30 5 C 4.582526 1.695696 4.263217 0
M  V30 6 C 5.487385 2.672832 3.912139 0
M  V30 7 C 5.195533 3.334087 2.735869 0
M  V30 8 C 4.075826 3.037483 1.965022 0
M  V30 9 C 3.199975 2.046568 2.364301 0
M  V30 10 N 2.042691 1.700101 1.616688 0
M  V30 11 C 0.732619 2.195722 1.674173 0
M  V30 12 O 0.485203 3.101131 2.510442 0
M  V30 13 C -0.346686 1.726381 0.829153 0
M  V30 14 C -1.588973 2.305540 0.984189 0
M  V30 15 C -2.603215 1.845237 0.173446 0
M  V30 16 C -2.339743 0.845871 -0.740509 0
M  V30 17 C -1.078889 0.249534 -0.907156 0
M  V30 18 C -1.137514 -0.769466 -1.923341 0
M  V30 19 C -2.073736 -1.779657 -1.728214 0
M  V30 20 C -2.303107 -2.856763 -2.556862 0
M  V30 21 C -3.294177 -3.897890 -2.321547 0
M  V30 22 O -3.436486 -4.846102 -3.130149 0
M  V30 23 N -4.157966 -3.944559 -1.208866 0
M  V30 24 C -5.079578 -5.050781 -1.136615 0
M  V30 25 C -6.310686 -4.922784 -1.704045 0
M  V30 26 C -7.110758 -6.043675 -1.575034 0
M  V30 27 N -6.705285 -7.174865 -0.938090 0
M  V30 28 C -5.455345 -7.233286 -0.391682 0
M  V30 29 C -4.600736 -6.166028 -0.475622 0
M  V30 30 F -3.361400 -6.228641 0.067951 0
M  V30 31 C -1.518913 -2.927260 -3.689015 0
M  V30 32 C -0.573535 -1.955784 -3.937613 0
M  V30 33 C -0.376521 -0.878014 -3.064621 0
M  V30 34 C 0.656033 0.134358 -3.389250 0
M  V30 35 N 1.901939 -0.041179 -2.677932 0
M  V30 36 C -0.094743 0.735891 -0.079465 0
M  V30 37 C 3.463011 1.355166 3.550626 0
M  V30 38 F 2.603924 0.395720 3.925841 0
M  V30 39 H 5.794186 -0.705983 7.233343 0
M  V30 40 H 7.080726 0.337634 7.842641 0
M  V30 41 H 5.354285 0.664452 8.317436 0
M  V30 42 H 6.362874 2.919932 4.494810 0
M  V30 43 H 5.859117 4.118560 2.388513 0
M  V30 44 H 3.844066 3.558725 1.035870 0
M  V30 45 H 2.315847 0.957790 0.953876 0
M  V30 46 H -1.761513 3.086220 1.709250 0
M  V30 47 H -3.563866 2.317188 0.317445 0
M  V30 48 H -3.253026 0.595541 -1.305385 0
M  V30 49 H -2.719279 -1.762163 -0.839040 0
M  V30 50 H -4.109840 -3.196958 -0.484847 0
M  V30 51 H -6.658578 -4.042038 -2.213797 0
M  V30 52 H -8.124139 -6.048512 -1.996232 0
M  V30 53 H -5.192516 -8.170701 0.105487 0
M  V30 54 H -1.606702 -3.723264 -4.411575 0
M  V30 55 H 0.052744 -2.007196 -4.836989 0
M  V30 56 H 0.864135 0.046737 -4.478873 0
M  V30 57 H 0.312967 1.163790 -3.127324 0
M  V30 58 H 1.879404 -0.904911 -2.113033 0
M  V30 59 H 2.744729 0.023960 -3.297373 0
M  V30 60 H 0.837319 0.247865 -0.228517 0
M  V30 END ATOM
M  V30 BEGIN BOND
M  V30 1 1 1 2
M  V30 2 1 2 3
M  V30 3 2 3 4
M  V30 4 1 3 5
M  V30 5 2 5 6
M  V30 6 1 6 7
M  V30 7 2 7 8
M  V30 8 1 8 9
M  V30 9 1 9 10
M  V30 10 1 10 11
M  V30 11 2 11 12
M  V30 12 1 11 13
M  V30 13 2 13 14
M  V30 14 1 14 15
M  V30 15 2 15 16
M  V30 16 1 16 17
M  V30 17 1 17 18
M  V30 18 2 18 19
M  V30 19 1 19 20
M  V30 20 1 20 21
M  V30 21 2 21 22
M  V30 22 1 21 23
M  V30 23 1 23 24
M  V30 24 2 24 25
M  V30 25 1 25 26
M  V30 26 2 26 27
M  V30 27 1 27 28
M  V30 28 2 28 29
M  V30 29 1 29 30
M  V30 30 2 20 31
M  V30 31 1 31 32
M  V30 32 2 32 33
M  V30 33 1 33 34
M  V30 34 1 34 35
M  V30 35 2 17 36
M  V30 36 2 9 37
M  V30 37 1 37 38
M  V30 38 1 37 5
M  V30 39 1 36 13
M  V30 40 1 33 18
M  V30 41 1 29 24
M  V30 42 1 1 39
M  V30 43 1 1 40
M  V30 44 1 1 41
M  V30 45 1 6 42
M  V30 46 1 7 43
M  V30 47 1 8 44
M  V30 48 1 10 45
M  V30 49 1 14 46
M  V30 50 1 15 47
M  V30 51 1 16 48
M  V30 52 1 19 49
M  V30 53 1 23 50
M  V30 54 1 25 51
M  V30 55 1 26 52
M  V30 56 1 28 53
M  V30 57 1 31 54
M  V30 58 1 32 55
M  V30 59 1 34 56
M  V30 60 1 34 57
M  V30 61 1 35 58
M  V30 62 1 35 59
M  V30 63 1 36 60
M  V30 END BOND
M  V30 END CTAB
M  END
>  <Dataset>  (378) 
ChEMBL_Kinases

>  <Ligand_Instance>  (378) 
nan

>  <PDB_ID>  (378) 
nan

>  <Standardized_SMILES>  (378) 
COC(=O)c1cccc(NC(=O)c2cccc(-c3cc(C(=O)Nc4ccncc4F)ccc3CN)c2)c1F

>  <Name>  (378) 
nan

>  <Pocket>  (378) 
nan

>  <ATP_Site>  (378) 
nan

>  <Peripheral>  (378) 
nan

>  <Num_H_Atoms_ProtBoundConf>  (378) 
nan

>  <Num_Resolved_Atoms>  (378) 
nan

>  <Num_Not_Resolved_Atoms>  (378) 
nan

$$$$
CHEMBL3426640
     RDKit          3D

  0  0  0  0  0  0  0  0  0  0999 V3000
M  V30 BEGIN CTAB
M  V30 COUNTS 67 70 0 0 0
M  V30 BEGIN ATOM
M  V30 1 C 4.290109 1.192248 6.441145 0
M  V30 2 O 5.195970 0.629087 7.285980 0
M  V30 3 C 5.501490 -0.677983 7.034808 0
M  V30 4 C 6.100820 -1.014729 5.714847 0
M  V30 5 O 5.351396 -0.724857 4.586072 0
M  V30 6 C 5.782889 -0.971690 3.289303 0
M  V30 7 O 6.920308 -1.484997 3.158165 0
M  V30 8 C 4.978546 -0.662479 2.122184 0
M  V30 9 C 5.579634 -0.979031 0.926756 0
M  V30 10 C 4.856282 -0.712831 -0.232709 0
M  V30 11 C 3.610046 -0.160458 -0.115120 0
M  V30 12 F 2.880951 0.110529 -1.210492 0
M  V30 13 C 2.995640 0.162061 1.070666 0
M  V30 14 C 1.706054 0.743221 1.379950 0
M  V30 15 O 1.264001 0.964066 2.557089 0
M  V30 16 N 0.733339 1.158482 0.499044 0
M  V30 17 C -0.489149 1.693481 0.067985 0
M  V30 18 C -0.602967 3.061037 -0.157692 0
M  V30 19 C -1.813147 3.634947 -0.568082 0
M  V30 20 C -2.834017 2.735360 -0.718314 0
M  V30 21 C -2.827566 1.377771 -0.523480 0
M  V30 22 C -3.862193 0.368396 -0.641532 0
M  V30 23 C -3.516036 -0.698160 -1.462358 0
M  V30 24 C -4.301582 -1.786639 -1.759114 0
M  V30 25 C -3.925730 -2.893366 -2.623891 0
M  V30 26 O -4.712552 -3.879810 -2.754053 0
M  V30 27 N -2.736836 -2.987453 -3.359894 0
M  V30 28 C -2.445293 -4.123213 -4.192755 0
M  V30 29 C -1.748549 -5.153358 -3.585602 0
M  V30 30 C -1.411011 -6.300917 -4.270525 0
M  V30 31 N -1.766663 -6.435462 -5.578165 0
M  V30 32 C -2.453780 -5.433793 -6.196676 0
M  V30 33 C -2.800167 -4.275230 -5.523407 0
M  V30 34 F -3.472847 -3.252392 -6.075756 0
M  V30 35 C -5.564529 -1.782195 -1.158022 0
M  V30 36 C -5.927371 -0.749164 -0.350684 0
M  V30 37 C -5.111951 0.326266 -0.074389 0
M  V30 38 C -5.492554 1.434356 0.800106 0
M  V30 39 N -4.796282 1.288789 2.070485 0
M  V30 40 C -1.594339 0.873170 -0.116575 0
M  V30 41 C 3.726780 -0.106969 2.238378 0
M  V30 42 H 4.127183 2.251424 6.803290 0
M  V30 43 H 3.305672 0.691769 6.438848 0
M  V30 44 H 4.626402 1.251384 5.361537 0
M  V30 45 H 6.189021 -0.991695 7.884142 0
M  V30 46 H 4.552485 -1.269357 7.230127 0
M  V30 47 H 7.108762 -0.517380 5.667942 0
M  V30 48 H 6.365152 -2.117943 5.770006 0
M  V30 49 H 6.548034 -1.414630 0.754820 0
M  V30 50 H 5.212685 -0.910793 -1.219906 0
M  V30 51 H 1.025082 1.008718 -0.520552 0
M  V30 52 H 0.229279 3.765270 -0.033275 0
M  V30 53 H -1.985559 4.668292 -0.761791 0
M  V30 54 H -3.781117 3.117108 -1.045516 0
M  V30 55 H -2.533563 -0.758935 -1.962538 0
M  V30 56 H -2.043373 -2.210839 -3.304703 0
M  V30 57 H -1.452615 -5.070653 -2.534020 0
M  V30 58 H -0.861895 -7.136846 -3.834634 0
M  V30 59 H -2.744599 -5.530635 -7.239545 0
M  V30 60 H -6.225416 -2.619049 -1.356135 0
M  V30 61 H -6.920964 -0.743609 0.121210 0
M  V30 62 H -6.579832 1.245963 1.073366 0
M  V30 63 H -5.483571 2.432357 0.382803 0
M  V30 64 H -4.526735 0.307149 2.245131 0
M  V30 65 H -5.357771 1.649017 2.861677 0
M  V30 66 H -1.422934 -0.194308 0.080331 0
M  V30 67 H 3.373801 0.091916 3.248485 0
M  V30 END ATOM
M  V30 BEGIN BOND
M  V30 1 1 1 2
M  V30 2 1 2 3
M  V30 3 1 3 4
M  V30 4 1 4 5
M  V30 5 1 5 6
M  V30 6 2 6 7
M  V30 7 1 6 8
M  V30 8 2 8 9
M  V30 9 1 9 10
M  V30 10 2 10 11
M  V30 11 1 11 12
M  V30 12 1 11 13
M  V30 13 1 13 14
M  V30 14 2 14 15
M  V30 15 1 14 16
M  V30 16 1 16 17
M  V30 17 2 17 18
M  V30 18 1 18 19
M  V30 19 2 19 20
M  V30 20 1 20 21
M  V30 21 1 21 22
M  V30 22 2 22 23
M  V30 23 1 23 24
M  V30 24 1 24 25
M  V30 25 2 25 26
M  V30 26 1 25 27
M  V30 27 1 27 28
M  V30 28 2 28 29
M  V30 29 1 29 30
M  V30 30 2 30 31
M  V30 31 1 31 32
M  V30 32 2 32 33
M  V30 33 1 33 34
M  V30 34 2 24 35
M  V30 35 1 35 36
M  V30 36 2 36 37
M  V30 37 1 37 38
M  V30 38 1 38 39
M  V30 39 2 21 40
M  V30 40 2 13 41
M  V30 41 1 41 8
M  V30 42 1 40 17
M  V30 43 1 37 22
M  V30 44 1 33 28
M  V30 45 1 1 42
M  V30 46 1 1 43
M  V30 47 1 1 44
M  V30 48 1 3 45
M  V30 49 1 3 46
M  V30 50 1 4 47
M  V30 51 1 4 48
M  V30 52 1 9 49
M  V30 53 1 10 50
M  V30 54 1 16 51
M  V30 55 1 18 52
M  V30 56 1 19 53
M  V30 57 1 20 54
M  V30 58 1 23 55
M  V30 59 1 27 56
M  V30 60 1 29 57
M  V30 61 1 30 58
M  V30 62 1 32 59
M  V30 63 1 35 60
M  V30 64 1 36 61
M  V30 65 1 38 62
M  V30 66 1 38 63
M  V30 67 1 39 64
M  V30 68 1 39 65
M  V30 69 1 40 66
M  V30 70 1 41 67
M  V30 END BOND
M  V30 END CTAB
M  END
>  <Dataset>  (379) 
ChEMBL_Kinases

>  <Ligand_Instance>  (379) 
nan

>  <PDB_ID>  (379) 
nan

>  <Standardized_SMILES>  (379) 
COCCOC(=O)c1ccc(F)c(C(=O)Nc2cccc(-c3cc(C(=O)Nc4ccncc4F)ccc3CN)c2)c1

>  <Name>  (379) 
nan

>  <Pocket>  (379) 
nan

>  <ATP_Site>  (379) 
nan

>  <Peripheral>  (379) 
nan

>  <Num_H_Atoms_ProtBoundConf>  (379) 
nan

>  <Num_Resolved_Atoms>  (379) 
nan

>  <Num_Not_Resolved_Atoms>  (379) 
nan

$$$$
CHEMBL3422061
     RDKit          3D

  0  0  0  0  0  0  0  0  0  0999 V3000
M  V30 BEGIN CTAB
M  V30 COUNTS 62 67 0 0 0
M  V30 BEGIN ATOM
M  V30 1 O 1.466567 0.904571 0.899901 0
M  V30 2 C 0.535762 1.380557 1.591125 0
M  V30 3 N 0.818180 2.673121 2.115048 0
M  V30 4 C 2.062073 3.383984 1.879210 0
M  V30 5 C 2.829315 3.588167 3.129893 0
M  V30 6 C 2.250119 4.021428 4.321246 0
M  V30 7 C 2.997505 4.204594 5.480924 0
M  V30 8 C 4.363995 3.954258 5.474907 0
M  V30 9 C 4.988650 3.521372 4.315042 0
M  V30 10 C 4.208076 3.354716 3.193363 0
M  V30 11 C 1.872995 4.660049 1.086125 0
M  V30 12 C 3.038854 5.513210 0.753154 0
M  V30 13 C 2.381131 4.737307 -0.340295 0
M  V30 14 C -0.724808 0.691977 1.846479 0
M  V30 15 C -1.765429 1.207001 2.616190 0
M  V30 16 C -2.923535 0.475715 2.799751 0
M  V30 17 C -3.053236 -0.770342 2.219676 0
M  V30 18 N -4.037386 -1.698530 2.217037 0
M  V30 19 N -3.660023 -2.731920 1.500967 0
M  V30 20 C -2.418291 -2.539016 0.999367 0
M  V30 21 C -1.692639 -3.485972 0.158396 0
M  V30 22 C -0.364017 -3.750479 0.421457 0
M  V30 23 C 0.351607 -4.630050 -0.342844 0
M  V30 24 C -0.252123 -5.274413 -1.402041 0
M  V30 25 C -1.596401 -5.045275 -1.715431 0
M  V30 26 N -2.219504 -5.709054 -2.806942 0
M  V30 27 C -3.631078 -5.417435 -3.074336 0
M  V30 28 C -4.076684 -6.056560 -4.369861 0
M  V30 29 O -3.548622 -7.365589 -4.430569 0
M  V30 30 C -2.198670 -7.233191 -4.727105 0
M  V30 31 C -1.429232 -6.635957 -3.595007 0
M  V30 32 C -2.266219 -4.151870 -0.913911 0
M  V30 33 C -2.017311 -1.297704 1.445932 0
M  V30 34 C -0.859466 -0.571141 1.259999 0
M  V30 35 H 0.118340 3.173194 2.707151 0
M  V30 36 H 2.688664 2.716911 1.240371 0
M  V30 37 H 1.190303 4.216358 4.328896 0
M  V30 38 H 2.580475 4.533421 6.400081 0
M  V30 39 H 5.034478 4.065210 6.321090 0
M  V30 40 H 6.030047 3.295261 4.182118 0
M  V30 41 H 4.637053 3.015883 2.246426 0
M  V30 42 H 0.904744 5.188423 1.210408 0
M  V30 43 H 4.064739 5.209097 0.981533 0
M  V30 44 H 2.888442 6.610567 0.703350 0
M  V30 45 H 2.906906 3.845387 -0.758097 0
M  V30 46 H 1.804984 5.292097 -1.105938 0
M  V30 47 H -1.628369 2.178015 3.050770 0
M  V30 48 H -3.718233 0.896812 3.402031 0
M  V30 49 H -4.949562 -1.581788 2.718856 0
M  V30 50 H 0.195083 -3.296056 1.228292 0
M  V30 51 H 1.390941 -4.882103 -0.192545 0
M  V30 52 H 0.271579 -5.991361 -2.051545 0
M  V30 53 H -4.202517 -5.819898 -2.230624 0
M  V30 54 H -3.786160 -4.340624 -3.155390 0
M  V30 55 H -3.655965 -5.498784 -5.229778 0
M  V30 56 H -5.174000 -6.109924 -4.379309 0
M  V30 57 H -1.790637 -8.261932 -4.911146 0
M  V30 58 H -2.041978 -6.655966 -5.679541 0
M  V30 59 H -0.508097 -6.145968 -3.971611 0
M  V30 60 H -1.113918 -7.457080 -2.917625 0
M  V30 61 H -3.311100 -3.944180 -1.121301 0
M  V30 62 H -0.057579 -0.980738 0.659938 0
M  V30 END ATOM
M  V30 BEGIN BOND
M  V30 1 2 1 2
M  V30 2 1 2 3
M  V30 3 1 3 4
M  V30 4 1 4 5
M  V30 5 2 5 6
M  V30 6 1 6 7
M  V30 7 2 7 8
M  V30 8 1 8 9
M  V30 9 2 9 10
M  V30 10 1 4 11
M  V30 11 1 11 12
M  V30 12 1 12 13
M  V30 13 1 2 14
M  V30 14 2 14 15
M  V30 15 1 15 16
M  V30 16 2 16 17
M  V30 17 1 17 18
M  V30 18 1 18 19
M  V30 19 2 19 20
M  V30 20 1 20 21
M  V30 21 2 21 22
M  V30 22 1 22 23
M  V30 23 2 23 24
M  V30 24 1 24 25
M  V30 25 1 25 26
M  V30 26 1 26 27
M  V30 27 1 27 28
M  V30 28 1 28 29
M  V30 29 1 29 30
M  V30 30 1 30 31
M  V30 31 2 25 32
M  V30 32 1 20 33
M  V30 33 2 33 34
M  V30 34 1 10 5
M  V30 35 1 13 11
M  V30 36 1 34 14
M  V30 37 1 33 17
M  V30 38 1 32 21
M  V30 39 1 31 26
M  V30 40 1 3 35
M  V30 41 1 4 36
M  V30 42 1 6 37
M  V30 43 1 7 38
M  V30 44 1 8 39
M  V30 45 1 9 40
M  V30 46 1 10 41
M  V30 47 1 11 42
M  V30 48 1 12 43
M  V30 49 1 12 44
M  V30 50 1 13 45
M  V30 51 1 13 46
M  V30 52 1 15 47
M  V30 53 1 16 48
M  V30 54 1 18 49
M  V30 55 1 22 50
M  V30 56 1 23 51
M  V30 57 1 24 52
M  V30 58 1 27 53
M  V30 59 1 27 54
M  V30 60 1 28 55
M  V30 61 1 28 56
M  V30 62 1 30 57
M  V30 63 1 30 58
M  V30 64 1 31 59
M  V30 65 1 31 60
M  V30 66 1 32 61
M  V30 67 1 34 62
M  V30 END BOND
M  V30 END CTAB
M  END
>  <Dataset>  (380) 
ChEMBL_Kinases

>  <Ligand_Instance>  (380) 
nan

>  <PDB_ID>  (380) 
nan

>  <Standardized_SMILES>  (380) 
O=C(NC(c1ccccc1)C1CC1)c1ccc2[nH]nc(-c3cccc(N4CCOCC4)c3)c2c1

>  <Name>  (380) 
nan

>  <Pocket>  (380) 
nan

>  <ATP_Site>  (380) 
nan

>  <Peripheral>  (380) 
nan

>  <Num_H_Atoms_ProtBoundConf>  (380) 
nan

>  <Num_Resolved_Atoms>  (380) 
nan

>  <Num_Not_Resolved_Atoms>  (380) 
nan

$$$$
CHEMBL3426623
     RDKit          3D

  0  0  0  0  0  0  0  0  0  0999 V3000
M  V30 BEGIN CTAB
M  V30 COUNTS 63 66 0 0 0
M  V30 BEGIN ATOM
M  V30 1 C 6.696611 1.077499 5.604104 0
M  V30 2 O 5.381263 1.564857 5.756359 0
M  V30 3 C 4.797853 2.300555 4.758531 0
M  V30 4 O 5.425849 2.552785 3.690421 0
M  V30 5 C 3.399936 2.746334 5.070603 0
M  V30 6 C 2.836075 3.532212 3.963827 0
M  V30 7 C 3.071794 4.895702 4.030560 0
M  V30 8 C 2.564679 5.683395 3.016531 0
M  V30 9 C 1.855053 5.123459 1.986172 0
M  V30 10 C 1.602209 3.770742 1.888799 0
M  V30 11 N 0.859572 3.280826 0.789074 0
M  V30 12 C 0.465846 1.970173 0.436200 0
M  V30 13 O 0.819441 1.062577 1.209359 0
M  V30 14 C -0.297993 1.642965 -0.734909 0
M  V30 15 C -0.781914 2.538071 -1.663016 0
M  V30 16 C -1.501109 2.186688 -2.768764 0
M  V30 17 C -1.768032 0.861458 -2.984710 0
M  V30 18 C -1.327297 -0.114126 -2.114850 0
M  V30 19 C -1.565222 -1.516453 -2.319647 0
M  V30 20 C -2.272767 -2.261016 -1.369171 0
M  V30 21 C -2.571351 -3.598511 -1.509835 0
M  V30 22 C -3.313472 -4.255241 -0.442820 0
M  V30 23 O -3.618782 -3.587680 0.578597 0
M  V30 24 N -3.688144 -5.619954 -0.546452 0
M  V30 25 C -4.391571 -6.480367 0.319654 0
M  V30 26 C -5.767823 -6.527684 0.198249 0
M  V30 27 C -6.504504 -7.353788 1.017155 0
M  V30 28 N -5.903201 -8.115140 1.933313 0
M  V30 29 C -4.558367 -8.075200 2.058841 0
M  V30 30 C -3.749716 -7.258892 1.259964 0
M  V30 31 F -2.414597 -7.232462 1.398149 0
M  V30 32 C -2.161904 -4.267537 -2.642475 0
M  V30 33 C -1.465277 -3.525744 -3.572251 0
M  V30 34 C -1.150415 -2.172007 -3.452655 0
M  V30 35 C -0.370218 -1.572046 -4.539442 0
M  V30 36 N 1.043849 -1.422159 -4.151545 0
M  V30 37 C -0.608615 0.327657 -1.023579 0
M  V30 38 C 2.124510 3.040029 2.914600 0
M  V30 39 H 6.891075 0.771969 4.543521 0
M  V30 40 H 6.867774 0.139769 6.191686 0
M  V30 41 H 7.458481 1.807926 5.916460 0
M  V30 42 H 2.810680 1.843233 5.314259 0
M  V30 43 H 3.451796 3.326641 6.015333 0
M  V30 44 H 3.620287 5.410530 4.807608 0
M  V30 45 H 2.725573 6.749183 3.029501 0
M  V30 46 H 1.480540 5.812924 1.211891 0
M  V30 47 H 0.523011 3.999034 0.084750 0
M  V30 48 H -0.592179 3.592659 -1.526995 0
M  V30 49 H -1.858286 2.952869 -3.472058 0
M  V30 50 H -2.355127 0.634202 -3.863388 0
M  V30 51 H -2.586474 -1.717870 -0.484522 0
M  V30 52 H -3.464921 -6.222893 -1.366686 0
M  V30 53 H -6.339392 -5.943387 -0.518661 0
M  V30 54 H -7.577383 -7.461083 1.000909 0
M  V30 55 H -4.093662 -8.709397 2.816746 0
M  V30 56 H -2.370625 -5.314433 -2.801625 0
M  V30 57 H -1.152201 -4.080918 -4.461753 0
M  V30 58 H -0.336197 -2.231391 -5.432727 0
M  V30 59 H -0.683207 -0.592897 -4.868505 0
M  V30 60 H 1.681392 -2.000642 -4.702647 0
M  V30 61 H 1.327064 -0.443751 -4.055549 0
M  V30 62 H -0.260735 -0.439725 -0.334575 0
M  V30 63 H 1.985002 1.982908 2.934379 0
M  V30 END ATOM
M  V30 BEGIN BOND
M  V30 1 1 1 2
M  V30 2 1 2 3
M  V30 3 2 3 4
M  V30 4 1 3 5
M  V30 5 1 5 6
M  V30 6 2 6 7
M  V30 7 1 7 8
M  V30 8 2 8 9
M  V30 9 1 9 10
M  V30 10 1 10 11
M  V30 11 1 11 12
M  V30 12 2 12 13
M  V30 13 1 12 14
M  V30 14 2 14 15
M  V30 15 1 15 16
M  V30 16 2 16 17
M  V30 17 1 17 18
M  V30 18 1 18 19
M  V30 19 2 19 20
M  V30 20 1 20 21
M  V30 21 1 21 22
M  V30 22 2 22 23
M  V30 23 1 22 24
M  V30 24 1 24 25
M  V30 25 2 25 26
M  V30 26 1 26 27
M  V30 27 2 27 28
M  V30 28 1 28 29
M  V30 29 2 29 30
M  V30 30 1 30 31
M  V30 31 2 21 32
M  V30 32 1 32 33
M  V30 33 2 33 34
M  V30 34 1 34 35
M  V30 35 1 35 36
M  V30 36 2 18 37
M  V30 37 2 10 38
M  V30 38 1 38 6
M  V30 39 1 37 14
M  V30 40 1 34 19
M  V30 41 1 30 25
M  V30 42 1 1 39
M  V30 43 1 1 40
M  V30 44 1 1 41
M  V30 45 1 5 42
M  V30 46 1 5 43
M  V30 47 1 7 44
M  V30 48 1 8 45
M  V30 49 1 9 46
M  V30 50 1 11 47
M  V30 51 1 15 48
M  V30 52 1 16 49
M  V30 53 1 17 50
M  V30 54 1 20 51
M  V30 55 1 24 52
M  V30 56 1 26 53
M  V30 57 1 27 54
M  V30 58 1 29 55
M  V30 59 1 32 56
M  V30 60 1 33 57
M  V30 61 1 35 58
M  V30 62 1 35 59
M  V30 63 1 36 60
M  V30 64 1 36 61
M  V30 65 1 37 62
M  V30 66 1 38 63
M  V30 END BOND
M  V30 END CTAB
M  END
>  <Dataset>  (381) 
ChEMBL_Kinases

>  <Ligand_Instance>  (381) 
nan

>  <PDB_ID>  (381) 
nan

>  <Standardized_SMILES>  (381) 
COC(=O)Cc1cccc(NC(=O)c2cccc(-c3cc(C(=O)Nc4ccncc4F)ccc3CN)c2)c1

>  <Name>  (381) 
nan

>  <Pocket>  (381) 
nan

>  <ATP_Site>  (381) 
nan

>  <Peripheral>  (381) 
nan

>  <Num_H_Atoms_ProtBoundConf>  (381) 
nan

>  <Num_Resolved_Atoms>  (381) 
nan

>  <Num_Not_Resolved_Atoms>  (381) 
nan

$$$$
CHEMBL3426624
     RDKit          3D

  0  0  0  0  0  0  0  0  0  0999 V3000
M  V30 BEGIN CTAB
M  V30 COUNTS 60 63 0 0 0
M  V30 BEGIN ATOM
M  V30 1 C 6.952013 -4.272077 4.479196 0
M  V30 2 O 6.181386 -3.151545 4.019788 0
M  V30 3 C 6.344178 -2.613296 2.758894 0
M  V30 4 O 7.238096 -3.216893 2.072084 0
M  V30 5 C 5.560842 -1.469899 2.284038 0
M  V30 6 C 4.621821 -0.901546 3.122280 0
M  V30 7 C 3.892123 0.187717 2.637096 0
M  V30 8 C 4.147810 0.638913 1.345343 0
M  V30 9 N 3.315309 1.767648 0.990760 0
M  V30 10 C 2.153409 1.190082 0.419263 0
M  V30 11 O 2.190643 -0.087833 0.392641 0
M  V30 12 C 0.979025 1.910604 -0.113152 0
M  V30 13 C 0.978649 3.288530 -0.081069 0
M  V30 14 C -0.138774 3.915275 -0.589562 0
M  V30 15 C -1.180658 3.172101 -1.094774 0
M  V30 16 C -1.191722 1.801237 -1.132689 0
M  V30 17 C -2.184971 0.873630 -1.644846 0
M  V30 18 C -2.629451 -0.034606 -0.672333 0
M  V30 19 C -3.588238 -1.004990 -0.895033 0
M  V30 20 C -3.996439 -1.912118 0.171262 0
M  V30 21 O -3.498309 -1.823100 1.301968 0
M  V30 22 N -4.969419 -2.923863 -0.036537 0
M  V30 23 C -5.185058 -3.675174 1.176932 0
M  V30 24 C -4.372220 -4.776412 1.339810 0
M  V30 25 C -4.483405 -5.572381 2.456678 0
M  V30 26 N -5.381684 -5.294538 3.406781 0
M  V30 27 C -6.180742 -4.220900 3.257520 0
M  V30 28 C -6.114541 -3.386990 2.159384 0
M  V30 29 F -6.879933 -2.298484 1.944233 0
M  V30 30 C -4.135624 -1.075066 -2.158163 0
M  V30 31 C -3.715247 -0.194112 -3.131099 0
M  V30 32 C -2.756630 0.768137 -2.891282 0
M  V30 33 C -2.273134 1.706572 -3.926845 0
M  V30 34 N -0.958963 1.219806 -4.347960 0
M  V30 35 C -0.068359 1.174544 -0.621002 0
M  V30 36 C 5.094037 0.055049 0.520321 0
M  V30 37 C 5.815004 -1.022995 1.002926 0
M  V30 38 H 6.560339 -4.489543 5.501279 0
M  V30 39 H 8.024656 -4.018491 4.539507 0
M  V30 40 H 6.836727 -5.133999 3.790281 0
M  V30 41 H 4.458441 -1.285196 4.115326 0
M  V30 42 H 3.171923 0.608844 3.306099 0
M  V30 43 H 3.330967 2.808573 1.035055 0
M  V30 44 H 1.782103 3.895673 0.309397 0
M  V30 45 H -0.236050 4.991762 -0.609619 0
M  V30 46 H -2.051563 3.662282 -1.473321 0
M  V30 47 H -2.234433 -0.033034 0.353188 0
M  V30 48 H -5.440043 -3.071050 -0.954533 0
M  V30 49 H -3.599775 -5.107845 0.634280 0
M  V30 50 H -3.853964 -6.448005 2.610670 0
M  V30 51 H -6.929274 -3.966027 4.021703 0
M  V30 52 H -4.888991 -1.797978 -2.424686 0
M  V30 53 H -4.110282 -0.203432 -4.139560 0
M  V30 54 H -2.967622 1.573781 -4.793200 0
M  V30 55 H -2.235322 2.733123 -3.572359 0
M  V30 56 H -0.181191 1.824594 -4.033975 0
M  V30 57 H -0.816691 0.216664 -4.143536 0
M  V30 58 H 0.038276 0.077640 -0.596757 0
M  V30 59 H 5.184052 0.512231 -0.457530 0
M  V30 60 H 6.533567 -1.436557 0.324307 0
M  V30 END ATOM
M  V30 BEGIN BOND
M  V30 1 1 1 2
M  V30 2 1 2 3
M  V30 3 2 3 4
M  V30 4 1 3 5
M  V30 5 2 5 6
M  V30 6 1 6 7
M  V30 7 2 7 8
M  V30 8 1 8 9
M  V30 9 1 9 10
M  V30 10 2 10 11
M  V30 11 1 10 12
M  V30 12 2 12 13
M  V30 13 1 13 14
M  V30 14 2 14 15
M  V30 15 1 15 16
M  V30 16 1 16 17
M  V30 17 2 17 18
M  V30 18 1 18 19
M  V30 19 1 19 20
M  V30 20 2 20 21
M  V30 21 1 20 22
M  V30 22 1 22 23
M  V30 23 2 23 24
M  V30 24 1 24 25
M  V30 25 2 25 26
M  V30 26 1 26 27
M  V30 27 2 27 28
M  V30 28 1 28 29
M  V30 29 2 19 30
M  V30 30 1 30 31
M  V30 31 2 31 32
M  V30 32 1 32 33
M  V30 33 1 33 34
M  V30 34 2 16 35
M  V30 35 1 8 36
M  V30 36 2 36 37
M  V30 37 1 37 5
M  V30 38 1 35 12
M  V30 39 1 32 17
M  V30 40 1 28 23
M  V30 41 1 1 38
M  V30 42 1 1 39
M  V30 43 1 1 40
M  V30 44 1 6 41
M  V30 45 1 7 42
M  V30 46 1 9 43
M  V30 47 1 13 44
M  V30 48 1 14 45
M  V30 49 1 15 46
M  V30 50 1 18 47
M  V30 51 1 22 48
M  V30 52 1 24 49
M  V30 53 1 25 50
M  V30 54 1 27 51
M  V30 55 1 30 52
M  V30 56 1 31 53
M  V30 57 1 33 54
M  V30 58 1 33 55
M  V30 59 1 34 56
M  V30 60 1 34 57
M  V30 61 1 35 58
M  V30 62 1 36 59
M  V30 63 1 37 60
M  V30 END BOND
M  V30 END CTAB
M  END
>  <Dataset>  (382) 
ChEMBL_Kinases

>  <Ligand_Instance>  (382) 
nan

>  <PDB_ID>  (382) 
nan

>  <Standardized_SMILES>  (382) 
COC(=O)c1ccc(NC(=O)c2cccc(-c3cc(C(=O)Nc4ccncc4F)ccc3CN)c2)cc1

>  <Name>  (382) 
nan

>  <Pocket>  (382) 
nan

>  <ATP_Site>  (382) 
nan

>  <Peripheral>  (382) 
nan

>  <Num_H_Atoms_ProtBoundConf>  (382) 
nan

>  <Num_Resolved_Atoms>  (382) 
nan

>  <Num_Not_Resolved_Atoms>  (382) 
nan

$$$$
CHEMBL3426625
     RDKit          3D

  0  0  0  0  0  0  0  0  0  0999 V3000
M  V30 BEGIN CTAB
M  V30 COUNTS 63 66 0 0 0
M  V30 BEGIN ATOM
M  V30 1 C 5.628355 2.781208 7.992289 0
M  V30 2 O 5.205716 4.074626 7.608613 0
M  V30 3 C 4.412754 4.232450 6.492692 0
M  V30 4 O 3.951911 3.363114 5.676179 0
M  V30 5 C 3.629900 5.000909 5.497791 0
M  V30 6 C 3.021707 4.149615 4.476543 0
M  V30 7 C 1.752303 3.629084 4.659146 0
M  V30 8 C 1.204704 2.820274 3.657082 0
M  V30 9 C 1.930568 2.554240 2.510232 0
M  V30 10 N 1.300802 1.712479 1.520968 0
M  V30 11 C 1.620362 0.356140 1.786422 0
M  V30 12 O 2.361492 0.159570 2.793317 0
M  V30 13 C 1.194132 -0.795976 1.039273 0
M  V30 14 C 1.610355 -2.040026 1.461525 0
M  V30 15 C 1.180100 -3.144971 0.716135 0
M  V30 16 C 0.375149 -2.932310 -0.384504 0
M  V30 17 C -0.045399 -1.664281 -0.810577 0
M  V30 18 C -0.891942 -1.771637 -1.986410 0
M  V30 19 C -2.002714 -2.618302 -1.869314 0
M  V30 20 C -2.942590 -2.855030 -2.849007 0
M  V30 21 C -4.057166 -3.760098 -2.605878 0
M  V30 22 O -4.173375 -4.331008 -1.501112 0
M  V30 23 N -5.032636 -4.025014 -3.586617 0
M  V30 24 C -6.023945 -4.950331 -3.096415 0
M  V30 25 C -5.660133 -6.255387 -3.366313 0
M  V30 26 C -6.521711 -7.273408 -2.951548 0
M  V30 27 N -7.663042 -6.965018 -2.311510 0
M  V30 28 C -8.014504 -5.698445 -2.050492 0
M  V30 29 C -7.208193 -4.647671 -2.433348 0
M  V30 30 F -7.411928 -3.321108 -2.249235 0
M  V30 31 C -2.765070 -2.200975 -4.034432 0
M  V30 32 C -1.686674 -1.360791 -4.189672 0
M  V30 33 C -0.735144 -1.124573 -3.190750 0
M  V30 34 C 0.410000 -0.239576 -3.380385 0
M  V30 35 N 1.657767 -0.963676 -3.573071 0
M  V30 36 C 0.390598 -0.595783 -0.060582 0
M  V30 37 C 3.208777 3.079825 2.329223 0
M  V30 38 C 3.758905 3.889616 3.330649 0
M  V30 39 H 5.346032 2.575358 9.066317 0
M  V30 40 H 5.212351 1.976697 7.384719 0
M  V30 41 H 6.753789 2.716777 8.015362 0
M  V30 42 H 2.818912 5.546430 6.028821 0
M  V30 43 H 4.302616 5.780671 5.073786 0
M  V30 44 H 1.214522 3.860935 5.572262 0
M  V30 45 H 0.212060 2.418573 3.809171 0
M  V30 46 H 0.692991 1.899045 0.699636 0
M  V30 47 H 2.241434 -2.177113 2.327761 0
M  V30 48 H 1.516880 -4.089052 1.065846 0
M  V30 49 H 0.119912 -3.890397 -0.865285 0
M  V30 50 H -2.169586 -3.158441 -0.922639 0
M  V30 51 H -5.008018 -3.590355 -4.532343 0
M  V30 52 H -4.770121 -6.584499 -3.869861 0
M  V30 53 H -6.276911 -8.308828 -3.141985 0
M  V30 54 H -8.917859 -5.402680 -1.540427 0
M  V30 55 H -3.452054 -2.325421 -4.858380 0
M  V30 56 H -1.567102 -0.847374 -5.151963 0
M  V30 57 H 0.241470 0.265674 -4.384363 0
M  V30 58 H 0.505764 0.605034 -2.683914 0
M  V30 59 H 2.339568 -0.259987 -3.972062 0
M  V30 60 H 1.486041 -1.676716 -4.291705 0
M  V30 61 H 0.025391 0.343294 -0.430190 0
M  V30 62 H 3.744219 2.840693 1.403570 0
M  V30 63 H 4.762043 4.281361 3.151255 0
M  V30 END ATOM
M  V30 BEGIN BOND
M  V30 1 1 1 2
M  V30 2 1 2 3
M  V30 3 2 3 4
M  V30 4 1 3 5
M  V30 5 1 5 6
M  V30 6 2 6 7
M  V30 7 1 7 8
M  V30 8 2 8 9
M  V30 9 1 9 10
M  V30 10 1 10 11
M  V30 11 2 11 12
M  V30 12 1 11 13
M  V30 13 2 13 14
M  V30 14 1 14 15
M  V30 15 2 15 16
M  V30 16 1 16 17
M  V30 17 1 17 18
M  V30 18 2 18 19
M  V30 19 1 19 20
M  V30 20 1 20 21
M  V30 21 2 21 22
M  V30 22 1 21 23
M  V30 23 1 23 24
M  V30 24 2 24 25
M  V30 25 1 25 26
M  V30 26 2 26 27
M  V30 27 1 27 28
M  V30 28 2 28 29
M  V30 29 1 29 30
M  V30 30 2 20 31
M  V30 31 1 31 32
M  V30 32 2 32 33
M  V30 33 1 33 34
M  V30 34 1 34 35
M  V30 35 2 17 36
M  V30 36 1 9 37
M  V30 37 2 37 38
M  V30 38 1 38 6
M  V30 39 1 36 13
M  V30 40 1 33 18
M  V30 41 1 29 24
M  V30 42 1 1 39
M  V30 43 1 1 40
M  V30 44 1 1 41
M  V30 45 1 5 42
M  V30 46 1 5 43
M  V30 47 1 7 44
M  V30 48 1 8 45
M  V30 49 1 10 46
M  V30 50 1 14 47
M  V30 51 1 15 48
M  V30 52 1 16 49
M  V30 53 1 19 50
M  V30 54 1 23 51
M  V30 55 1 25 52
M  V30 56 1 26 53
M  V30 57 1 28 54
M  V30 58 1 31 55
M  V30 59 1 32 56
M  V30 60 1 34 57
M  V30 61 1 34 58
M  V30 62 1 35 59
M  V30 63 1 35 60
M  V30 64 1 36 61
M  V30 65 1 37 62
M  V30 66 1 38 63
M  V30 END BOND
M  V30 END CTAB
M  END
>  <Dataset>  (383) 
ChEMBL_Kinases

>  <Ligand_Instance>  (383) 
nan

>  <PDB_ID>  (383) 
nan

>  <Standardized_SMILES>  (383) 
COC(=O)Cc1ccc(NC(=O)c2cccc(-c3cc(C(=O)Nc4ccncc4F)ccc3CN)c2)cc1

>  <Name>  (383) 
nan

>  <Pocket>  (383) 
nan

>  <ATP_Site>  (383) 
nan

>  <Peripheral>  (383) 
nan

>  <Num_H_Atoms_ProtBoundConf>  (383) 
nan

>  <Num_Resolved_Atoms>  (383) 
nan

>  <Num_Not_Resolved_Atoms>  (383) 
nan

$$$$
CHEMBL3426626
     RDKit          3D

  0  0  0  0  0  0  0  0  0  0999 V3000
M  V30 BEGIN CTAB
M  V30 COUNTS 57 60 0 0 0
M  V30 BEGIN ATOM
M  V30 1 N 0.989496 -3.904943 5.336224 0
M  V30 2 C 1.664192 -3.742589 4.069993 0
M  V30 3 C 1.531253 -2.375888 3.573834 0
M  V30 4 C 2.613008 -1.553971 3.805773 0
M  V30 5 C 2.584020 -0.246849 3.380336 0
M  V30 6 C 1.484496 0.258006 2.721803 0
M  V30 7 C 1.360000 1.635547 2.226340 0
M  V30 8 O 0.344988 2.066977 1.602296 0
M  V30 9 N 2.360595 2.622050 2.394703 0
M  V30 10 C 1.870811 3.827903 1.773799 0
M  V30 11 C 2.274011 3.863356 0.439495 0
M  V30 12 C 1.906558 4.940271 -0.349610 0
M  V30 13 N 1.171958 5.924098 0.186011 0
M  V30 14 C 0.779754 5.898897 1.467115 0
M  V30 15 C 1.108721 4.864501 2.300674 0
M  V30 16 F 0.811421 4.660927 3.605299 0
M  V30 17 C 0.429649 -0.602334 2.514507 0
M  V30 18 C 0.413929 -1.940745 2.929428 0
M  V30 19 C -0.789281 -2.682711 2.612563 0
M  V30 20 C -1.686457 -3.440963 3.321007 0
M  V30 21 C -2.767178 -4.073634 2.761433 0
M  V30 22 C -3.004495 -3.962739 1.386609 0
M  V30 23 C -2.133755 -3.204762 0.593070 0
M  V30 24 C -2.456237 -3.140139 -0.824700 0
M  V30 25 O -3.468229 -3.788074 -1.197456 0
M  V30 26 N -1.750754 -2.428339 -1.808580 0
M  V30 27 C -1.983096 -2.304164 -3.195209 0
M  V30 28 C -2.990070 -2.875998 -3.926592 0
M  V30 29 C -3.189921 -2.733467 -5.280100 0
M  V30 30 C -2.308941 -1.948951 -5.981973 0
M  V30 31 C -1.274702 -1.347778 -5.296467 0
M  V30 32 C -0.324958 -0.508152 -6.014121 0
M  V30 33 O 0.657971 0.081894 -5.454489 0
M  V30 34 O -0.418272 -0.284215 -7.374184 0
M  V30 35 C -1.122709 -1.525492 -3.940377 0
M  V30 36 C -1.086047 -2.613426 1.242696 0
M  V30 37 H 0.908534 -2.971131 5.801157 0
M  V30 38 H 1.460744 -4.577492 5.984899 0
M  V30 39 H 2.705401 -4.066338 4.217526 0
M  V30 40 H 1.227939 -4.447953 3.321813 0
M  V30 41 H 3.500622 -1.890532 4.314782 0
M  V30 42 H 3.411292 0.419335 3.545695 0
M  V30 43 H 3.247039 2.374302 2.901512 0
M  V30 44 H 2.861288 3.132804 -0.088983 0
M  V30 45 H 2.138780 5.111499 -1.391391 0
M  V30 46 H 0.186582 6.664020 1.952675 0
M  V30 47 H -0.440672 -0.200888 1.993414 0
M  V30 48 H -1.467300 -3.480102 4.372366 0
M  V30 49 H -3.378945 -4.632489 3.451150 0
M  V30 50 H -3.883181 -4.503204 1.060744 0
M  V30 51 H -0.931543 -1.925717 -1.402268 0
M  V30 52 H -3.708961 -3.499792 -3.430517 0
M  V30 53 H -3.992781 -3.203244 -5.796433 0
M  V30 54 H -2.429179 -1.811973 -7.036769 0
M  V30 55 H -0.208169 0.646416 -7.757681 0
M  V30 56 H -0.274976 -1.015806 -3.458364 0
M  V30 57 H -0.472227 -2.049574 0.534614 0
M  V30 END ATOM
M  V30 BEGIN BOND
M  V30 1 1 1 2
M  V30 2 1 2 3
M  V30 3 2 3 4
M  V30 4 1 4 5
M  V30 5 2 5 6
M  V30 6 1 6 7
M  V30 7 2 7 8
M  V30 8 1 7 9
M  V30 9 1 9 10
M  V30 10 2 10 11
M  V30 11 1 11 12
M  V30 12 2 12 13
M  V30 13 1 13 14
M  V30 14 2 14 15
M  V30 15 1 15 16
M  V30 16 1 6 17
M  V30 17 2 17 18
M  V30 18 1 18 19
M  V30 19 2 19 20
M  V30 20 1 20 21
M  V30 21 2 21 22
M  V30 22 1 22 23
M  V30 23 1 23 24
M  V30 24 2 24 25
M  V30 25 1 24 26
M  V30 26 1 26 27
M  V30 27 2 27 28
M  V30 28 1 28 29
M  V30 29 2 29 30
M  V30 30 1 30 31
M  V30 31 1 31 32
M  V30 32 2 32 33
M  V30 33 1 32 34
M  V30 34 2 31 35
M  V30 35 2 23 36
M  V30 36 1 18 3
M  V30 37 1 36 19
M  V30 38 1 15 10
M  V30 39 1 35 27
M  V30 40 1 1 37
M  V30 41 1 1 38
M  V30 42 1 2 39
M  V30 43 1 2 40
M  V30 44 1 4 41
M  V30 45 1 5 42
M  V30 46 1 9 43
M  V30 47 1 11 44
M  V30 48 1 12 45
M  V30 49 1 14 46
M  V30 50 1 17 47
M  V30 51 1 20 48
M  V30 52 1 21 49
M  V30 53 1 22 50
M  V30 54 1 26 51
M  V30 55 1 28 52
M  V30 56 1 29 53
M  V30 57 1 30 54
M  V30 58 1 34 55
M  V30 59 1 35 56
M  V30 60 1 36 57
M  V30 END BOND
M  V30 END CTAB
M  END
>  <Dataset>  (384) 
ChEMBL_Kinases

>  <Ligand_Instance>  (384) 
nan

>  <PDB_ID>  (384) 
nan

>  <Standardized_SMILES>  (384) 
NCc1ccc(C(=O)Nc2ccncc2F)cc1-c1cccc(C(=O)Nc2cccc(C(=O)O)c2)c1

>  <Name>  (384) 
nan

>  <Pocket>  (384) 
nan

>  <ATP_Site>  (384) 
nan

>  <Peripheral>  (384) 
nan

>  <Num_H_Atoms_ProtBoundConf>  (384) 
nan

>  <Num_Resolved_Atoms>  (384) 
nan

>  <Num_Not_Resolved_Atoms>  (384) 
nan

$$$$
CHEMBL3426627
     RDKit          3D

  0  0  0  0  0  0  0  0  0  0999 V3000
M  V30 BEGIN CTAB
M  V30 COUNTS 60 63 0 0 0
M  V30 BEGIN ATOM
M  V30 1 N 0.804584 -2.929087 4.272607 0
M  V30 2 C 1.611920 -2.181202 3.294748 0
M  V30 3 C 1.109565 -0.796106 3.230802 0
M  V30 4 C 1.847166 0.199949 3.882544 0
M  V30 5 C 1.472775 1.526051 3.912812 0
M  V30 6 C 0.313825 1.905002 3.272169 0
M  V30 7 C -0.051171 3.312789 3.323669 0
M  V30 8 O 0.693421 4.103658 3.933215 0
M  V30 9 N -1.201528 3.890380 2.732950 0
M  V30 10 C -1.484460 5.282801 2.830855 0
M  V30 11 C -0.913340 5.979280 1.763128 0
M  V30 12 C -1.045647 7.362245 1.627637 0
M  V30 13 N -1.760953 7.988890 2.593360 0
M  V30 14 C -2.322527 7.350557 3.631772 0
M  V30 15 C -2.199112 5.981683 3.777666 0
M  V30 16 F -2.696874 5.193110 4.753616 0
M  V30 17 C -0.410338 0.928420 2.632214 0
M  V30 18 C -0.032447 -0.408336 2.601504 0
M  V30 19 C -0.880979 -1.327290 1.866812 0
M  V30 20 C -2.194003 -1.250890 2.353128 0
M  V30 21 C -3.219565 -2.021304 1.810953 0
M  V30 22 C -2.962082 -2.899012 0.757458 0
M  V30 23 C -1.659664 -2.943589 0.309136 0
M  V30 24 C -1.390055 -3.859441 -0.787707 0
M  V30 25 O -2.332445 -4.550785 -1.251749 0
M  V30 26 N -0.098332 -3.989752 -1.341817 0
M  V30 27 C 0.469309 -4.769325 -2.381932 0
M  V30 28 C 1.024377 -6.018333 -2.218141 0
M  V30 29 C 1.556853 -6.703026 -3.302285 0
M  V30 30 C 1.548512 -6.154208 -4.586030 0
M  V30 31 C 0.984088 -4.896321 -4.723567 0
M  V30 32 C 0.926422 -4.217816 -6.067600 0
M  V30 33 C 2.185489 -3.432830 -6.179106 0
M  V30 34 O 3.133108 -3.326252 -5.349433 0
M  V30 35 O 2.504349 -2.656877 -7.296040 0
M  V30 36 C 0.440280 -4.183778 -3.648514 0
M  V30 37 C -0.647828 -2.182229 0.844738 0
M  V30 38 H 1.358071 -3.219514 5.101534 0
M  V30 39 H -0.057320 -2.390382 4.545636 0
M  V30 40 H 2.655272 -2.223793 3.686990 0
M  V30 41 H 1.586253 -2.758266 2.378122 0
M  V30 42 H 2.774441 -0.082914 4.399277 0
M  V30 43 H 2.109906 2.236547 4.446112 0
M  V30 44 H -1.851182 3.244239 2.210148 0
M  V30 45 H -0.325949 5.547421 0.949819 0
M  V30 46 H -0.622619 7.928594 0.824005 0
M  V30 47 H -2.894922 7.832375 4.409185 0
M  V30 48 H -1.318524 1.268877 2.139094 0
M  V30 49 H -2.562563 -0.614034 3.173354 0
M  V30 50 H -4.240916 -1.988794 2.159420 0
M  V30 51 H -3.765780 -3.492008 0.345069 0
M  V30 52 H 0.734552 -3.454723 -1.016280 0
M  V30 53 H 1.034008 -6.445398 -1.235801 0
M  V30 54 H 2.001383 -7.702375 -3.171939 0
M  V30 55 H 1.960734 -6.673962 -5.448965 0
M  V30 56 H 0.927738 -5.035804 -6.822739 0
M  V30 57 H 0.084598 -3.527624 -6.155946 0
M  V30 58 H 2.872986 -1.718246 -7.208282 0
M  V30 59 H 0.008826 -3.193770 -3.823348 0
M  V30 60 H 0.364989 -2.188438 0.504833 0
M  V30 END ATOM
M  V30 BEGIN BOND
M  V30 1 1 1 2
M  V30 2 1 2 3
M  V30 3 2 3 4
M  V30 4 1 4 5
M  V30 5 2 5 6
M  V30 6 1 6 7
M  V30 7 2 7 8
M  V30 8 1 7 9
M  V30 9 1 9 10
M  V30 10 2 10 11
M  V30 11 1 11 12
M  V30 12 2 12 13
M  V30 13 1 13 14
M  V30 14 2 14 15
M  V30 15 1 15 16
M  V30 16 1 6 17
M  V30 17 2 17 18
M  V30 18 1 18 19
M  V30 19 2 19 20
M  V30 20 1 20 21
M  V30 21 2 21 22
M  V30 22 1 22 23
M  V30 23 1 23 24
M  V30 24 2 24 25
M  V30 25 1 24 26
M  V30 26 1 26 27
M  V30 27 2 27 28
M  V30 28 1 28 29
M  V30 29 2 29 30
M  V30 30 1 30 31
M  V30 31 1 31 32
M  V30 32 1 32 33
M  V30 33 2 33 34
M  V30 34 1 33 35
M  V30 35 2 31 36
M  V30 36 2 23 37
M  V30 37 1 18 3
M  V30 38 1 37 19
M  V30 39 1 15 10
M  V30 40 1 36 27
M  V30 41 1 1 38
M  V30 42 1 1 39
M  V30 43 1 2 40
M  V30 44 1 2 41
M  V30 45 1 4 42
M  V30 46 1 5 43
M  V30 47 1 9 44
M  V30 48 1 11 45
M  V30 49 1 12 46
M  V30 50 1 14 47
M  V30 51 1 17 48
M  V30 52 1 20 49
M  V30 53 1 21 50
M  V30 54 1 22 51
M  V30 55 1 26 52
M  V30 56 1 28 53
M  V30 57 1 29 54
M  V30 58 1 30 55
M  V30 59 1 32 56
M  V30 60 1 32 57
M  V30 61 1 35 58
M  V30 62 1 36 59
M  V30 63 1 37 60
M  V30 END BOND
M  V30 END CTAB
M  END
>  <Dataset>  (385) 
ChEMBL_Kinases

>  <Ligand_Instance>  (385) 
nan

>  <PDB_ID>  (385) 
nan

>  <Standardized_SMILES>  (385) 
NCc1ccc(C(=O)Nc2ccncc2F)cc1-c1cccc(C(=O)Nc2cccc(CC(=O)O)c2)c1

>  <Name>  (385) 
nan

>  <Pocket>  (385) 
nan

>  <ATP_Site>  (385) 
nan

>  <Peripheral>  (385) 
nan

>  <Num_H_Atoms_ProtBoundConf>  (385) 
nan

>  <Num_Resolved_Atoms>  (385) 
nan

>  <Num_Not_Resolved_Atoms>  (385) 
nan

$$$$
CHEMBL3426628
     RDKit          3D

  0  0  0  0  0  0  0  0  0  0999 V3000
M  V30 BEGIN CTAB
M  V30 COUNTS 57 60 0 0 0
M  V30 BEGIN ATOM
M  V30 1 N 0.398215 -4.154428 5.253785 0
M  V30 2 C 1.292134 -3.823691 4.165468 0
M  V30 3 C 1.084898 -2.435493 3.757663 0
M  V30 4 C 1.986563 -1.519933 4.257970 0
M  V30 5 C 1.850004 -0.190162 3.919803 0
M  V30 6 C 0.843049 0.263181 3.097161 0
M  V30 7 C 0.644423 1.644703 2.704656 0
M  V30 8 O -0.296396 2.019528 1.935715 0
M  V30 9 N 1.476647 2.707141 3.138505 0
M  V30 10 C 1.000367 3.942266 2.564049 0
M  V30 11 C 1.619481 4.166857 1.331932 0
M  V30 12 C 1.303218 5.301464 0.610401 0
M  V30 13 N 0.403480 6.173918 1.104448 0
M  V30 14 C -0.189278 5.959992 2.282688 0
M  V30 15 C 0.082777 4.848587 3.049899 0
M  V30 16 F -0.422544 4.490281 4.244969 0
M  V30 17 C -0.027709 -0.697296 2.627562 0
M  V30 18 C 0.053258 -2.063699 2.931518 0
M  V30 19 C -0.961658 -2.917103 2.339437 0
M  V30 20 C -1.890140 -3.822798 2.790851 0
M  V30 21 C -2.726203 -4.517967 1.951700 0
M  V30 22 C -2.686638 -4.347590 0.578553 0
M  V30 23 C -1.754837 -3.432810 0.073333 0
M  V30 24 C -1.792876 -3.322169 -1.376033 0
M  V30 25 O -2.585332 -3.967251 -2.069907 0
M  V30 26 N -0.914116 -2.459193 -2.080185 0
M  V30 27 C -0.733699 -2.156862 -3.455469 0
M  V30 28 C -1.524805 -1.078679 -3.873059 0
M  V30 29 C -1.468684 -0.653753 -5.179650 0
M  V30 30 C -0.624279 -1.311759 -6.047535 0
M  V30 31 C -0.610792 -0.810825 -7.415178 0
M  V30 32 O -1.307482 0.150305 -7.806306 0
M  V30 33 O 0.116034 -1.247599 -8.504144 0
M  V30 34 C 0.164242 -2.370931 -5.672979 0
M  V30 35 C 0.084348 -2.771932 -4.356172 0
M  V30 36 C -0.950137 -2.769862 0.940258 0
M  V30 37 H -0.012425 -3.256694 5.642865 0
M  V30 38 H 0.903246 -4.568844 6.068474 0
M  V30 39 H 1.077098 -4.509862 3.312046 0
M  V30 40 H 2.308896 -4.049447 4.503579 0
M  V30 41 H 2.798183 -1.813928 4.908272 0
M  V30 42 H 2.554555 0.531719 4.309427 0
M  V30 43 H 2.286243 2.482677 3.783133 0
M  V30 44 H 2.347996 3.544466 0.841602 0
M  V30 45 H 1.757176 5.533343 -0.365588 0
M  V30 46 H -0.928900 6.627860 2.741951 0
M  V30 47 H -0.840610 -0.351576 1.967330 0
M  V30 48 H -1.878785 -3.895623 3.863978 0
M  V30 49 H -3.387248 -5.183626 2.482334 0
M  V30 50 H -3.405665 -4.964733 0.060831 0
M  V30 51 H -0.197879 -1.861202 -1.618705 0
M  V30 52 H -2.206516 -0.533913 -3.207695 0
M  V30 53 H -2.087287 0.186448 -5.496846 0
M  V30 54 H 0.842377 -0.686765 -8.974058 0
M  V30 55 H 0.822720 -2.880483 -6.360181 0
M  V30 56 H 0.659931 -3.589594 -3.964505 0
M  V30 57 H -0.286626 -2.098415 0.377139 0
M  V30 END ATOM
M  V30 BEGIN BOND
M  V30 1 1 1 2
M  V30 2 1 2 3
M  V30 3 2 3 4
M  V30 4 1 4 5
M  V30 5 2 5 6
M  V30 6 1 6 7
M  V30 7 2 7 8
M  V30 8 1 7 9
M  V30 9 1 9 10
M  V30 10 2 10 11
M  V30 11 1 11 12
M  V30 12 2 12 13
M  V30 13 1 13 14
M  V30 14 2 14 15
M  V30 15 1 15 16
M  V30 16 1 6 17
M  V30 17 2 17 18
M  V30 18 1 18 19
M  V30 19 2 19 20
M  V30 20 1 20 21
M  V30 21 2 21 22
M  V30 22 1 22 23
M  V30 23 1 23 24
M  V30 24 2 24 25
M  V30 25 1 24 26
M  V30 26 1 26 27
M  V30 27 2 27 28
M  V30 28 1 28 29
M  V30 29 2 29 30
M  V30 30 1 30 31
M  V30 31 2 31 32
M  V30 32 1 31 33
M  V30 33 1 30 34
M  V30 34 2 34 35
M  V30 35 2 23 36
M  V30 36 1 18 3
M  V30 37 1 36 19
M  V30 38 1 15 10
M  V30 39 1 35 27
M  V30 40 1 1 37
M  V30 41 1 1 38
M  V30 42 1 2 39
M  V30 43 1 2 40
M  V30 44 1 4 41
M  V30 45 1 5 42
M  V30 46 1 9 43
M  V30 47 1 11 44
M  V30 48 1 12 45
M  V30 49 1 14 46
M  V30 50 1 17 47
M  V30 51 1 20 48
M  V30 52 1 21 49
M  V30 53 1 22 50
M  V30 54 1 26 51
M  V30 55 1 28 52
M  V30 56 1 29 53
M  V30 57 1 33 54
M  V30 58 1 34 55
M  V30 59 1 35 56
M  V30 60 1 36 57
M  V30 END BOND
M  V30 END CTAB
M  END
>  <Dataset>  (386) 
ChEMBL_Kinases

>  <Ligand_Instance>  (386) 
nan

>  <PDB_ID>  (386) 
nan

>  <Standardized_SMILES>  (386) 
NCc1ccc(C(=O)Nc2ccncc2F)cc1-c1cccc(C(=O)Nc2ccc(C(=O)O)cc2)c1

>  <Name>  (386) 
nan

>  <Pocket>  (386) 
nan

>  <ATP_Site>  (386) 
nan

>  <Peripheral>  (386) 
nan

>  <Num_H_Atoms_ProtBoundConf>  (386) 
nan

>  <Num_Resolved_Atoms>  (386) 
nan

>  <Num_Not_Resolved_Atoms>  (386) 
nan

$$$$
CHEMBL3426629
     RDKit          3D

  0  0  0  0  0  0  0  0  0  0999 V3000
M  V30 BEGIN CTAB
M  V30 COUNTS 60 63 0 0 0
M  V30 BEGIN ATOM
M  V30 1 N 1.256028 -2.503491 5.982737 0
M  V30 2 C 0.348181 -2.220264 4.911742 0
M  V30 3 C 0.621530 -0.984518 4.164060 0
M  V30 4 C 1.506232 0.034183 4.430113 0
M  V30 5 C 1.639018 1.126185 3.599244 0
M  V30 6 C 0.871623 1.226109 2.461624 0
M  V30 7 C 0.864086 2.301772 1.476059 0
M  V30 8 O 1.374893 2.617629 0.373769 0
M  V30 9 N -0.003979 3.406611 1.815903 0
M  V30 10 C -0.441568 4.669158 1.314534 0
M  V30 11 C -1.599361 4.849587 0.562658 0
M  V30 12 C -1.837809 6.157064 0.146885 0
M  V30 13 N -1.004870 7.160034 0.454728 0
M  V30 14 C 0.121110 6.999012 1.178423 0
M  V30 15 C 0.403262 5.730671 1.615524 0
M  V30 16 F 1.525313 5.606171 2.349287 0
M  V30 17 C -0.034718 0.221898 2.157996 0
M  V30 18 C -0.151775 -0.889851 3.022338 0
M  V30 19 C -1.138965 -1.890009 2.596133 0
M  V30 20 C -2.310697 -2.297551 3.149173 0
M  V30 21 C -3.089293 -3.290153 2.622195 0
M  V30 22 C -2.757882 -3.964472 1.485096 0
M  V30 23 C -1.566936 -3.597674 0.863565 0
M  V30 24 C -0.824632 -4.168322 -0.302771 0
M  V30 25 O -0.961841 -3.171425 -1.170938 0
M  V30 26 N -0.078492 -5.249007 -0.826371 0
M  V30 27 C 0.209789 -4.748650 -2.124331 0
M  V30 28 C -0.531621 -4.988399 -3.241366 0
M  V30 29 C -0.084491 -4.385475 -4.411923 0
M  V30 30 C 1.062229 -3.599768 -4.353460 0
M  V30 31 C 1.395635 -3.030349 -5.678144 0
M  V30 32 C 0.720747 -1.725339 -5.893330 0
M  V30 33 O 1.173991 -0.721299 -6.508548 0
M  V30 34 O -0.545392 -1.623878 -5.334858 0
M  V30 35 C 1.819299 -3.348038 -3.235618 0
M  V30 36 C 1.360163 -3.958521 -2.072689 0
M  V30 37 C -0.791381 -2.580157 1.421715 0
M  V30 38 H 1.887936 -3.266711 5.736790 0
M  V30 39 H 1.659322 -1.705321 6.466609 0
M  V30 40 H 0.381682 -3.082189 4.196579 0
M  V30 41 H -0.694535 -2.104730 5.322222 0
M  V30 42 H 2.088063 -0.080617 5.318632 0
M  V30 43 H 2.325455 1.930459 3.787105 0
M  V30 44 H -0.565316 3.427542 2.722693 0
M  V30 45 H -2.248423 4.022642 0.343610 0
M  V30 46 H -2.711962 6.314865 -0.430477 0
M  V30 47 H 0.746337 7.890422 1.376532 0
M  V30 48 H -0.657300 0.268852 1.244289 0
M  V30 49 H -2.612480 -1.786043 4.051053 0
M  V30 50 H -4.025190 -3.593905 3.071762 0
M  V30 51 H -3.270011 -4.750691 0.964742 0
M  V30 52 H -0.172578 -5.742905 0.068822 0
M  V30 53 H -1.403283 -5.610369 -3.152734 0
M  V30 54 H -0.685306 -4.596358 -5.288309 0
M  V30 55 H 2.493863 -2.766400 -5.661769 0
M  V30 56 H 1.244870 -3.690552 -6.530773 0
M  V30 57 H -1.173196 -0.881433 -5.692805 0
M  V30 58 H 2.673453 -2.716446 -3.389388 0
M  V30 59 H 1.996387 -3.727601 -1.229608 0
M  V30 60 H 0.161460 -2.266952 0.968139 0
M  V30 END ATOM
M  V30 BEGIN BOND
M  V30 1 1 1 2
M  V30 2 1 2 3
M  V30 3 2 3 4
M  V30 4 1 4 5
M  V30 5 2 5 6
M  V30 6 1 6 7
M  V30 7 2 7 8
M  V30 8 1 7 9
M  V30 9 1 9 10
M  V30 10 2 10 11
M  V30 11 1 11 12
M  V30 12 2 12 13
M  V30 13 1 13 14
M  V30 14 2 14 15
M  V30 15 1 15 16
M  V30 16 1 6 17
M  V30 17 2 17 18
M  V30 18 1 18 19
M  V30 19 2 19 20
M  V30 20 1 20 21
M  V30 21 2 21 22
M  V30 22 1 22 23
M  V30 23 1 23 24
M  V30 24 2 24 25
M  V30 25 1 24 26
M  V30 26 1 26 27
M  V30 27 2 27 28
M  V30 28 1 28 29
M  V30 29 2 29 30
M  V30 30 1 30 31
M  V30 31 1 31 32
M  V30 32 2 32 33
M  V30 33 1 32 34
M  V30 34 1 30 35
M  V30 35 2 35 36
M  V30 36 2 23 37
M  V30 37 1 18 3
M  V30 38 1 37 19
M  V30 39 1 15 10
M  V30 40 1 36 27
M  V30 41 1 1 38
M  V30 42 1 1 39
M  V30 43 1 2 40
M  V30 44 1 2 41
M  V30 45 1 4 42
M  V30 46 1 5 43
M  V30 47 1 9 44
M  V30 48 1 11 45
M  V30 49 1 12 46
M  V30 50 1 14 47
M  V30 51 1 17 48
M  V30 52 1 20 49
M  V30 53 1 21 50
M  V30 54 1 22 51
M  V30 55 1 26 52
M  V30 56 1 28 53
M  V30 57 1 29 54
M  V30 58 1 31 55
M  V30 59 1 31 56
M  V30 60 1 34 57
M  V30 61 1 35 58
M  V30 62 1 36 59
M  V30 63 1 37 60
M  V30 END BOND
M  V30 END CTAB
M  END
>  <Dataset>  (387) 
ChEMBL_Kinases

>  <Ligand_Instance>  (387) 
nan

>  <PDB_ID>  (387) 
nan

>  <Standardized_SMILES>  (387) 
NCc1ccc(C(=O)Nc2ccncc2F)cc1-c1cccc(C(=O)Nc2ccc(CC(=O)O)cc2)c1

>  <Name>  (387) 
nan

>  <Pocket>  (387) 
nan

>  <ATP_Site>  (387) 
nan

>  <Peripheral>  (387) 
nan

>  <Num_H_Atoms_ProtBoundConf>  (387) 
nan

>  <Num_Resolved_Atoms>  (387) 
nan

>  <Num_Not_Resolved_Atoms>  (387) 
nan

$$$$
CHEMBL3426639
     RDKit          3D

  0  0  0  0  0  0  0  0  0  0999 V3000
M  V30 BEGIN CTAB
M  V30 COUNTS 60 63 0 0 0
M  V30 BEGIN ATOM
M  V30 1 C 4.557338 4.150530 7.989898 0
M  V30 2 O 4.186113 3.501441 6.769948 0
M  V30 3 C 5.117383 2.984876 5.901909 0
M  V30 4 O 6.333579 3.087209 6.193175 0
M  V30 5 C 4.817447 2.313611 4.643965 0
M  V30 6 C 5.839865 1.852253 3.873433 0
M  V30 7 C 5.642656 1.203864 2.658236 0
M  V30 8 C 4.328834 1.056555 2.279382 0
M  V30 9 F 4.025583 0.443083 1.120148 0
M  V30 10 C 3.267561 1.507861 3.028908 0
M  V30 11 C 1.858624 1.414759 2.730202 0
M  V30 12 O 0.921756 1.822213 3.513741 0
M  V30 13 N 0.979410 1.012300 1.822466 0
M  V30 14 C -0.023830 0.619097 0.925250 0
M  V30 15 C -1.195354 0.970225 1.634267 0
M  V30 16 C -2.480096 0.757111 1.105640 0
M  V30 17 C -2.479780 0.175151 -0.167716 0
M  V30 18 C -1.333835 -0.155390 -0.834847 0
M  V30 19 C -1.498510 -0.773233 -2.124979 0
M  V30 20 C -2.189950 -1.962230 -2.030733 0
M  V30 21 C -2.476000 -2.759364 -3.118585 0
M  V30 22 C -3.187868 -4.027243 -3.153511 0
M  V30 23 O -3.464123 -4.710302 -4.154331 0
M  V30 24 N -3.641776 -4.597076 -1.938363 0
M  V30 25 C -4.350185 -5.785537 -1.604718 0
M  V30 26 C -5.714924 -5.941084 -1.495538 0
M  V30 27 C -6.203367 -7.196789 -1.159802 0
M  V30 28 N -5.385826 -8.248320 -0.943111 0
M  V30 29 C -4.050769 -8.099033 -1.049588 0
M  V30 30 C -3.518174 -6.867858 -1.380979 0
M  V30 31 F -2.168230 -6.843584 -1.458544 0
M  V30 32 C -2.045089 -2.344052 -4.382051 0
M  V30 33 C -1.351601 -1.156591 -4.499652 0
M  V30 34 C -1.089204 -0.392767 -3.381052 0
M  V30 35 C -0.352193 0.883405 -3.519168 0
M  V30 36 N 1.050198 0.794692 -3.180155 0
M  V30 37 C -0.118031 0.059911 -0.301791 0
M  V30 38 C 3.521711 2.137502 4.214328 0
M  V30 39 H 3.649752 4.651991 8.367823 0
M  V30 40 H 5.277173 4.944351 7.714248 0
M  V30 41 H 4.942217 3.472598 8.751618 0
M  V30 42 H 6.898965 1.955218 4.150836 0
M  V30 43 H 6.414817 0.822337 2.017402 0
M  V30 44 H 1.797490 0.671439 1.166138 0
M  V30 45 H -1.359447 1.430252 2.630683 0
M  V30 46 H -3.443832 0.977366 1.542311 0
M  V30 47 H -3.450685 -0.013478 -0.628447 0
M  V30 48 H -2.583719 -2.408667 -1.122526 0
M  V30 49 H -3.518398 -4.197519 -0.988810 0
M  V30 50 H -6.290712 -5.059623 -1.683641 0
M  V30 51 H -7.287649 -7.225436 -1.095260 0
M  V30 52 H -3.443694 -8.981649 -0.862792 0
M  V30 53 H -2.211334 -2.886376 -5.305307 0
M  V30 54 H -0.990561 -0.778907 -5.448380 0
M  V30 55 H -0.767313 1.664328 -2.836053 0
M  V30 56 H -0.397586 1.197859 -4.573311 0
M  V30 57 H 1.332882 -0.203426 -3.410481 0
M  V30 58 H 1.660485 1.362982 -3.837455 0
M  V30 59 H 0.829115 -0.163019 -0.699857 0
M  V30 60 H 2.769364 2.535222 4.890448 0
M  V30 END ATOM
M  V30 BEGIN BOND
M  V30 1 1 1 2
M  V30 2 1 2 3
M  V30 3 2 3 4
M  V30 4 1 3 5
M  V30 5 2 5 6
M  V30 6 1 6 7
M  V30 7 2 7 8
M  V30 8 1 8 9
M  V30 9 1 8 10
M  V30 10 1 10 11
M  V30 11 2 11 12
M  V30 12 1 11 13
M  V30 13 1 13 14
M  V30 14 2 14 15
M  V30 15 1 15 16
M  V30 16 2 16 17
M  V30 17 1 17 18
M  V30 18 1 18 19
M  V30 19 2 19 20
M  V30 20 1 20 21
M  V30 21 1 21 22
M  V30 22 2 22 23
M  V30 23 1 22 24
M  V30 24 1 24 25
M  V30 25 2 25 26
M  V30 26 1 26 27
M  V30 27 2 27 28
M  V30 28 1 28 29
M  V30 29 2 29 30
M  V30 30 1 30 31
M  V30 31 2 21 32
M  V30 32 1 32 33
M  V30 33 2 33 34
M  V30 34 1 34 35
M  V30 35 1 35 36
M  V30 36 2 18 37
M  V30 37 2 10 38
M  V30 38 1 38 5
M  V30 39 1 37 14
M  V30 40 1 34 19
M  V30 41 1 30 25
M  V30 42 1 1 39
M  V30 43 1 1 40
M  V30 44 1 1 41
M  V30 45 1 6 42
M  V30 46 1 7 43
M  V30 47 1 13 44
M  V30 48 1 15 45
M  V30 49 1 16 46
M  V30 50 1 17 47
M  V30 51 1 20 48
M  V30 52 1 24 49
M  V30 53 1 26 50
M  V30 54 1 27 51
M  V30 55 1 29 52
M  V30 56 1 32 53
M  V30 57 1 33 54
M  V30 58 1 35 55
M  V30 59 1 35 56
M  V30 60 1 36 57
M  V30 61 1 36 58
M  V30 62 1 37 59
M  V30 63 1 38 60
M  V30 END BOND
M  V30 END CTAB
M  END
>  <Dataset>  (388) 
ChEMBL_Kinases

>  <Ligand_Instance>  (388) 
nan

>  <PDB_ID>  (388) 
nan

>  <Standardized_SMILES>  (388) 
COC(=O)c1ccc(F)c(C(=O)Nc2cccc(-c3cc(C(=O)Nc4ccncc4F)ccc3CN)c2)c1

>  <Name>  (388) 
nan

>  <Pocket>  (388) 
nan

>  <ATP_Site>  (388) 
nan

>  <Peripheral>  (388) 
nan

>  <Num_H_Atoms_ProtBoundConf>  (388) 
nan

>  <Num_Resolved_Atoms>  (388) 
nan

>  <Num_Not_Resolved_Atoms>  (388) 
nan

$$$$
CHEMBL3426631
     RDKit          3D

  0  0  0  0  0  0  0  0  0  0999 V3000
M  V30 BEGIN CTAB
M  V30 COUNTS 69 72 0 0 0
M  V30 BEGIN ATOM
M  V30 1 C 6.770902 -0.149640 2.727090 0
M  V30 2 C 6.205693 -1.270871 1.846890 0
M  V30 3 C 7.345273 -1.775689 0.993999 0
M  V30 4 C 7.839901 -0.592592 0.159300 0
M  V30 5 O 6.751528 -0.170502 -0.611192 0
M  V30 6 C 6.724798 0.859545 -1.512650 0
M  V30 7 O 7.779789 1.519714 -1.692571 0
M  V30 8 C 5.498411 1.170976 -2.237463 0
M  V30 9 C 5.430186 2.197135 -3.156205 0
M  V30 10 C 4.237520 2.466114 -3.830300 0
M  V30 11 C 3.104047 1.716341 -3.595409 0
M  V30 12 C 3.162002 0.687795 -2.678295 0
M  V30 13 N 2.085371 -0.194249 -2.307332 0
M  V30 14 C 1.182123 0.079677 -1.247138 0
M  V30 15 O 1.456338 1.183812 -0.693424 0
M  V30 16 C 0.113970 -0.860021 -0.925743 0
M  V30 17 C -0.134085 -2.057629 -1.561275 0
M  V30 18 C -1.193814 -2.823402 -1.123311 0
M  V30 19 C -1.965431 -2.372329 -0.072847 0
M  V30 20 C -1.727499 -1.156427 0.585766 0
M  V30 21 C -2.715029 -0.956165 1.626728 0
M  V30 22 C -4.046346 -0.983539 1.249088 0
M  V30 23 C -5.100459 -0.789157 2.100135 0
M  V30 24 C -6.506181 -0.813606 1.727606 0
M  V30 25 O -7.450986 -0.627474 2.520538 0
M  V30 26 N -6.938456 -1.057914 0.393291 0
M  V30 27 C -8.344910 -1.050745 0.182079 0
M  V30 28 C -8.947602 -2.297737 0.346321 0
M  V30 29 C -10.317347 -2.409845 0.164098 0
M  V30 30 N -11.101184 -1.362221 -0.167157 0
M  V30 31 C -10.507652 -0.159407 -0.323778 0
M  V30 32 C -9.149171 0.017625 -0.156391 0
M  V30 33 F -8.495009 1.196083 -0.298862 0
M  V30 34 C -4.825843 -0.549364 3.424595 0
M  V30 35 C -3.516942 -0.511968 3.854006 0
M  V30 36 C -2.469577 -0.716289 2.951849 0
M  V30 37 C -1.081437 -0.692648 3.467428 0
M  V30 38 N -0.652095 -2.098995 3.549369 0
M  V30 39 C -0.661854 -0.418430 0.121051 0
M  V30 40 C 4.360307 0.430875 -2.012648 0
M  V30 41 H 7.775349 -0.404265 3.095629 0
M  V30 42 H 6.839695 0.782382 2.125709 0
M  V30 43 H 6.077445 0.022960 3.589589 0
M  V30 44 H 5.402607 -0.860966 1.183024 0
M  V30 45 H 5.743589 -2.075309 2.441255 0
M  V30 46 H 7.010408 -2.600778 0.362561 0
M  V30 47 H 8.139588 -2.130403 1.681803 0
M  V30 48 H 8.669151 -0.951685 -0.512332 0
M  V30 49 H 8.282696 0.186779 0.810004 0
M  V30 50 H 6.317369 2.807156 -3.360313 0
M  V30 51 H 4.159159 3.276167 -4.564621 0
M  V30 52 H 2.142183 1.851616 -4.068076 0
M  V30 53 H 2.027474 -1.056787 -2.889367 0
M  V30 54 H 0.526596 -2.324748 -2.373559 0
M  V30 55 H -1.333628 -3.738631 -1.656272 0
M  V30 56 H -2.764417 -3.095475 0.151190 0
M  V30 57 H -4.303173 -1.170383 0.211539 0
M  V30 58 H -6.250509 -1.230300 -0.374288 0
M  V30 59 H -8.422608 -3.218142 0.612921 0
M  V30 60 H -10.858053 -3.351497 0.275413 0
M  V30 61 H -11.078500 0.722445 -0.589558 0
M  V30 62 H -5.564020 -0.378967 4.199945 0
M  V30 63 H -3.261389 -0.325363 4.890321 0
M  V30 64 H -0.346171 -0.200581 2.845186 0
M  V30 65 H -1.057853 -0.337837 4.533394 0
M  V30 66 H -0.555522 -2.436446 4.513711 0
M  V30 67 H 0.191524 -2.294845 2.999292 0
M  V30 68 H -0.545751 0.502921 0.656419 0
M  V30 69 H 4.446346 -0.381632 -1.273428 0
M  V30 END ATOM
M  V30 BEGIN BOND
M  V30 1 1 1 2
M  V30 2 1 2 3
M  V30 3 1 3 4
M  V30 4 1 4 5
M  V30 5 1 5 6
M  V30 6 2 6 7
M  V30 7 1 6 8
M  V30 8 2 8 9
M  V30 9 1 9 10
M  V30 10 2 10 11
M  V30 11 1 11 12
M  V30 12 1 12 13
M  V30 13 1 13 14
M  V30 14 2 14 15
M  V30 15 1 14 16
M  V30 16 2 16 17
M  V30 17 1 17 18
M  V30 18 2 18 19
M  V30 19 1 19 20
M  V30 20 1 20 21
M  V30 21 2 21 22
M  V30 22 1 22 23
M  V30 23 1 23 24
M  V30 24 2 24 25
M  V30 25 1 24 26
M  V30 26 1 26 27
M  V30 27 2 27 28
M  V30 28 1 28 29
M  V30 29 2 29 30
M  V30 30 1 30 31
M  V30 31 2 31 32
M  V30 32 1 32 33
M  V30 33 2 23 34
M  V30 34 1 34 35
M  V30 35 2 35 36
M  V30 36 1 36 37
M  V30 37 1 37 38
M  V30 38 2 20 39
M  V30 39 2 12 40
M  V30 40 1 40 8
M  V30 41 1 39 16
M  V30 42 1 36 21
M  V30 43 1 32 27
M  V30 44 1 1 41
M  V30 45 1 1 42
M  V30 46 1 1 43
M  V30 47 1 2 44
M  V30 48 1 2 45
M  V30 49 1 3 46
M  V30 50 1 3 47
M  V30 51 1 4 48
M  V30 52 1 4 49
M  V30 53 1 9 50
M  V30 54 1 10 51
M  V30 55 1 11 52
M  V30 56 1 13 53
M  V30 57 1 17 54
M  V30 58 1 18 55
M  V30 59 1 19 56
M  V30 60 1 22 57
M  V30 61 1 26 58
M  V30 62 1 28 59
M  V30 63 1 29 60
M  V30 64 1 31 61
M  V30 65 1 34 62
M  V30 66 1 35 63
M  V30 67 1 37 64
M  V30 68 1 37 65
M  V30 69 1 38 66
M  V30 70 1 38 67
M  V30 71 1 39 68
M  V30 72 1 40 69
M  V30 END BOND
M  V30 END CTAB
M  END
>  <Dataset>  (389) 
ChEMBL_Kinases

>  <Ligand_Instance>  (389) 
nan

>  <PDB_ID>  (389) 
nan

>  <Standardized_SMILES>  (389) 
CCCCOC(=O)c1cccc(NC(=O)c2cccc(-c3cc(C(=O)Nc4ccncc4F)ccc3CN)c2)c1

>  <Name>  (389) 
nan

>  <Pocket>  (389) 
nan

>  <ATP_Site>  (389) 
nan

>  <Peripheral>  (389) 
nan

>  <Num_H_Atoms_ProtBoundConf>  (389) 
nan

>  <Num_Resolved_Atoms>  (389) 
nan

>  <Num_Not_Resolved_Atoms>  (389) 
nan

$$$$
CHEMBL3426632
     RDKit          3D

  0  0  0  0  0  0  0  0  0  0999 V3000
M  V30 BEGIN CTAB
M  V30 COUNTS 69 72 0 0 0
M  V30 BEGIN ATOM
M  V30 1 C 7.343545 -0.200419 2.082516 0
M  V30 2 C 7.334627 -1.637881 1.616267 0
M  V30 3 C 7.742111 -1.734486 0.143643 0
M  V30 4 C 7.691847 -3.230067 -0.192810 0
M  V30 5 O 6.720042 -1.134841 -0.589611 0
M  V30 6 C 6.833711 -0.076983 -1.461130 0
M  V30 7 O 7.877845 0.527153 -1.742569 0
M  V30 8 C 5.610538 0.377467 -2.116772 0
M  V30 9 C 5.619879 1.436402 -3.012352 0
M  V30 10 C 4.463097 1.866975 -3.634796 0
M  V30 11 C 3.254893 1.249817 -3.380532 0
M  V30 12 C 3.200675 0.191355 -2.495371 0
M  V30 13 N 2.003613 -0.529311 -2.152646 0
M  V30 14 C 1.154184 -0.167072 -1.083879 0
M  V30 15 O 1.583795 0.860813 -0.479777 0
M  V30 16 C -0.057505 -0.954843 -0.792356 0
M  V30 17 C -0.480485 -2.076184 -1.472452 0
M  V30 18 C -1.647099 -2.676977 -1.049160 0
M  V30 19 C -2.346355 -2.149296 0.024186 0
M  V30 20 C -1.918125 -1.008656 0.718232 0
M  V30 21 C -2.863598 -0.692874 1.769976 0
M  V30 22 C -4.190596 -0.501108 1.397695 0
M  V30 23 C -5.209915 -0.174315 2.252571 0
M  V30 24 C -6.593817 0.022612 1.843529 0
M  V30 25 O -7.498422 0.328355 2.663111 0
M  V30 26 N -7.063254 -0.105522 0.506980 0
M  V30 27 C -8.462392 0.124957 0.282833 0
M  V30 28 C -9.204988 -1.031404 0.404518 0
M  V30 29 C -10.578277 -0.959536 0.213306 0
M  V30 30 N -11.165746 0.216043 -0.084112 0
M  V30 31 C -10.424926 1.325285 -0.197158 0
M  V30 32 C -9.057938 1.331514 -0.021421 0
M  V30 33 F -8.225725 2.385086 -0.112259 0
M  V30 34 C -4.904117 -0.024602 3.571479 0
M  V30 35 C -3.609473 -0.199631 4.014902 0
M  V30 36 C -2.626189 -0.527501 3.112116 0
M  V30 37 C -1.250377 -0.736410 3.611083 0
M  V30 38 N -1.050311 -2.195869 3.634764 0
M  V30 39 C -0.752441 -0.430378 0.273841 0
M  V30 40 C 4.382529 -0.199234 -1.901219 0
M  V30 41 H 8.330478 -0.041392 2.598126 0
M  V30 42 H 7.308083 0.446553 1.160074 0
M  V30 43 H 6.498860 -0.030656 2.752974 0
M  V30 44 H 7.993948 -2.284309 2.253293 0
M  V30 45 H 6.315944 -2.034951 1.769998 0
M  V30 46 H 8.726240 -1.295217 -0.013486 0
M  V30 47 H 6.630965 -3.500602 -0.415704 0
M  V30 48 H 8.252266 -3.419958 -1.148957 0
M  V30 49 H 8.073403 -3.862178 0.608256 0
M  V30 50 H 6.558596 1.944112 -3.233675 0
M  V30 51 H 4.443809 2.697964 -4.343493 0
M  V30 52 H 2.299724 1.534116 -3.834054 0
M  V30 53 H 1.814730 -1.351212 -2.767951 0
M  V30 54 H 0.141978 -2.400564 -2.293313 0
M  V30 55 H -1.933869 -3.549408 -1.613866 0
M  V30 56 H -3.240712 -2.747360 0.222105 0
M  V30 57 H -4.460769 -0.615506 0.347451 0
M  V30 58 H -6.386409 -0.357368 -0.245725 0
M  V30 59 H -8.822130 -2.017355 0.639483 0
M  V30 60 H -11.253177 -1.815544 0.287129 0
M  V30 61 H -10.853116 2.302328 -0.436382 0
M  V30 62 H -5.677473 0.235049 4.292743 0
M  V30 63 H -3.348375 -0.082376 5.072043 0
M  V30 64 H -0.448594 -0.321732 3.018202 0
M  V30 65 H -1.171598 -0.451626 4.702720 0
M  V30 66 H -1.661326 -2.642912 4.347892 0
M  V30 67 H -0.046708 -2.443787 3.764124 0
M  V30 68 H -0.492624 0.447000 0.841848 0
M  V30 69 H 4.381833 -1.035320 -1.192693 0
M  V30 END ATOM
M  V30 BEGIN BOND
M  V30 1 1 1 2
M  V30 2 1 2 3
M  V30 3 1 3 4
M  V30 4 1 3 5
M  V30 5 1 5 6
M  V30 6 2 6 7
M  V30 7 1 6 8
M  V30 8 2 8 9
M  V30 9 1 9 10
M  V30 10 2 10 11
M  V30 11 1 11 12
M  V30 12 1 12 13
M  V30 13 1 13 14
M  V30 14 2 14 15
M  V30 15 1 14 16
M  V30 16 2 16 17
M  V30 17 1 17 18
M  V30 18 2 18 19
M  V30 19 1 19 20
M  V30 20 1 20 21
M  V30 21 2 21 22
M  V30 22 1 22 23
M  V30 23 1 23 24
M  V30 24 2 24 25
M  V30 25 1 24 26
M  V30 26 1 26 27
M  V30 27 2 27 28
M  V30 28 1 28 29
M  V30 29 2 29 30
M  V30 30 1 30 31
M  V30 31 2 31 32
M  V30 32 1 32 33
M  V30 33 2 23 34
M  V30 34 1 34 35
M  V30 35 2 35 36
M  V30 36 1 36 37
M  V30 37 1 37 38
M  V30 38 2 20 39
M  V30 39 2 12 40
M  V30 40 1 40 8
M  V30 41 1 39 16
M  V30 42 1 36 21
M  V30 43 1 32 27
M  V30 44 1 1 41
M  V30 45 1 1 42
M  V30 46 1 1 43
M  V30 47 1 2 44
M  V30 48 1 2 45
M  V30 49 1 3 46
M  V30 50 1 4 47
M  V30 51 1 4 48
M  V30 52 1 4 49
M  V30 53 1 9 50
M  V30 54 1 10 51
M  V30 55 1 11 52
M  V30 56 1 13 53
M  V30 57 1 17 54
M  V30 58 1 18 55
M  V30 59 1 19 56
M  V30 60 1 22 57
M  V30 61 1 26 58
M  V30 62 1 28 59
M  V30 63 1 29 60
M  V30 64 1 31 61
M  V30 65 1 34 62
M  V30 66 1 35 63
M  V30 67 1 37 64
M  V30 68 1 37 65
M  V30 69 1 38 66
M  V30 70 1 38 67
M  V30 71 1 39 68
M  V30 72 1 40 69
M  V30 END BOND
M  V30 END CTAB
M  END
>  <Dataset>  (390) 
ChEMBL_Kinases

>  <Ligand_Instance>  (390) 
nan

>  <PDB_ID>  (390) 
nan

>  <Standardized_SMILES>  (390) 
CCC(C)OC(=O)c1cccc(NC(=O)c2cccc(-c3cc(C(=O)Nc4ccncc4F)ccc3CN)c2)c1

>  <Name>  (390) 
nan

>  <Pocket>  (390) 
nan

>  <ATP_Site>  (390) 
nan

>  <Peripheral>  (390) 
nan

>  <Num_H_Atoms_ProtBoundConf>  (390) 
nan

>  <Num_Resolved_Atoms>  (390) 
nan

>  <Num_Not_Resolved_Atoms>  (390) 
nan

$$$$
CHEMBL3426633
     RDKit          3D

  0  0  0  0  0  0  0  0  0  0999 V3000
M  V30 BEGIN CTAB
M  V30 COUNTS 60 63 0 0 0
M  V30 BEGIN ATOM
M  V30 1 C 6.054663 -0.968439 5.071422 0
M  V30 2 O 5.463048 0.011337 4.257363 0
M  V30 3 C 6.009785 1.240717 3.946416 0
M  V30 4 O 7.133749 1.700044 4.337261 0
M  V30 5 C 5.240715 2.125951 3.081852 0
M  V30 6 C 5.739090 3.367831 2.742200 0
M  V30 7 C 5.060073 4.252040 1.928546 0
M  V30 8 C 3.812321 3.885530 1.419800 0
M  V30 9 F 3.024221 4.635915 0.612917 0
M  V30 10 C 3.280877 2.651080 1.737262 0
M  V30 11 N 2.052513 2.094905 1.333510 0
M  V30 12 C 0.787366 2.176094 1.963187 0
M  V30 13 O 0.720325 2.818552 3.018235 0
M  V30 14 C -0.428835 1.561390 1.459567 0
M  V30 15 C -1.593628 1.699853 2.183105 0
M  V30 16 C -2.739403 1.100626 1.674603 0
M  V30 17 C -2.668890 0.402664 0.485883 0
M  V30 18 C -1.493343 0.252007 -0.263509 0
M  V30 19 C -1.764174 -0.536858 -1.425342 0
M  V30 20 C -2.328613 -1.796661 -1.251738 0
M  V30 21 C -2.659454 -2.706375 -2.233542 0
M  V30 22 C -3.250008 -4.024035 -2.048202 0
M  V30 23 O -3.489553 -4.731724 -3.067379 0
M  V30 24 N -3.584567 -4.589062 -0.798856 0
M  V30 25 C -4.156503 -5.840544 -0.470261 0
M  V30 26 C -4.536244 -6.838729 -1.335129 0
M  V30 27 C -5.090348 -8.043273 -0.960773 0
M  V30 28 N -5.273622 -8.257903 0.357625 0
M  V30 29 C -4.926943 -7.332720 1.239440 0
M  V30 30 C -4.378550 -6.142716 0.853846 0
M  V30 31 F -4.060436 -5.263662 1.854908 0
M  V30 32 C -2.380736 -2.272422 -3.513475 0
M  V30 33 C -1.821961 -1.037057 -3.762505 0
M  V30 34 C -1.510394 -0.162338 -2.720331 0
M  V30 35 C -0.923765 1.117359 -3.102203 0
M  V30 36 N 0.514203 1.209206 -2.963440 0
M  V30 37 C -0.388461 0.860688 0.279588 0
M  V30 38 C 4.003288 1.791891 2.562499 0
M  V30 39 H 5.335584 -1.223035 5.903697 0
M  V30 40 H 6.985243 -0.577372 5.529216 0
M  V30 41 H 6.243590 -1.918064 4.534164 0
M  V30 42 H 6.715158 3.717753 3.108962 0
M  V30 43 H 5.412824 5.232613 1.637537 0
M  V30 44 H 2.151495 1.561711 0.442670 0
M  V30 45 H -1.595997 2.256179 3.107430 0
M  V30 46 H -3.612476 1.244980 2.284813 0
M  V30 47 H -3.666145 0.003954 0.247991 0
M  V30 48 H -2.538946 -2.113617 -0.221970 0
M  V30 49 H -3.354060 -3.939959 -0.016112 0
M  V30 50 H -4.403242 -6.695440 -2.383006 0
M  V30 51 H -5.365528 -8.783468 -1.701301 0
M  V30 52 H -5.093914 -7.551668 2.285609 0
M  V30 53 H -2.608392 -2.925182 -4.356643 0
M  V30 54 H -1.635967 -0.778477 -4.813055 0
M  V30 55 H -1.319384 1.975817 -2.505611 0
M  V30 56 H -1.162744 1.362521 -4.168867 0
M  V30 57 H 0.903359 0.242016 -2.898166 0
M  V30 58 H 0.967283 1.657984 -3.789129 0
M  V30 59 H 0.485071 0.704592 -0.319617 0
M  V30 60 H 3.666057 0.790031 2.871908 0
M  V30 END ATOM
M  V30 BEGIN BOND
M  V30 1 1 1 2
M  V30 2 1 2 3
M  V30 3 2 3 4
M  V30 4 1 3 5
M  V30 5 2 5 6
M  V30 6 1 6 7
M  V30 7 2 7 8
M  V30 8 1 8 9
M  V30 9 1 8 10
M  V30 10 1 10 11
M  V30 11 1 11 12
M  V30 12 2 12 13
M  V30 13 1 12 14
M  V30 14 2 14 15
M  V30 15 1 15 16
M  V30 16 2 16 17
M  V30 17 1 17 18
M  V30 18 1 18 19
M  V30 19 2 19 20
M  V30 20 1 20 21
M  V30 21 1 21 22
M  V30 22 2 22 23
M  V30 23 1 22 24
M  V30 24 1 24 25
M  V30 25 2 25 26
M  V30 26 1 26 27
M  V30 27 2 27 28
M  V30 28 1 28 29
M  V30 29 2 29 30
M  V30 30 1 30 31
M  V30 31 2 21 32
M  V30 32 1 32 33
M  V30 33 2 33 34
M  V30 34 1 34 35
M  V30 35 1 35 36
M  V30 36 2 18 37
M  V30 37 2 10 38
M  V30 38 1 38 5
M  V30 39 1 37 14
M  V30 40 1 34 19
M  V30 41 1 30 25
M  V30 42 1 1 39
M  V30 43 1 1 40
M  V30 44 1 1 41
M  V30 45 1 6 42
M  V30 46 1 7 43
M  V30 47 1 11 44
M  V30 48 1 15 45
M  V30 49 1 16 46
M  V30 50 1 17 47
M  V30 51 1 20 48
M  V30 52 1 24 49
M  V30 53 1 26 50
M  V30 54 1 27 51
M  V30 55 1 29 52
M  V30 56 1 32 53
M  V30 57 1 33 54
M  V30 58 1 35 55
M  V30 59 1 35 56
M  V30 60 1 36 57
M  V30 61 1 36 58
M  V30 62 1 37 59
M  V30 63 1 38 60
M  V30 END BOND
M  V30 END CTAB
M  END
>  <Dataset>  (391) 
ChEMBL_Kinases

>  <Ligand_Instance>  (391) 
nan

>  <PDB_ID>  (391) 
nan

>  <Standardized_SMILES>  (391) 
COC(=O)c1ccc(F)c(NC(=O)c2cccc(-c3cc(C(=O)Nc4ccncc4F)ccc3CN)c2)c1

>  <Name>  (391) 
nan

>  <Pocket>  (391) 
nan

>  <ATP_Site>  (391) 
nan

>  <Peripheral>  (391) 
nan

>  <Num_H_Atoms_ProtBoundConf>  (391) 
nan

>  <Num_Resolved_Atoms>  (391) 
nan

>  <Num_Not_Resolved_Atoms>  (391) 
nan

$$$$
CHEMBL3426634
     RDKit          3D

  0  0  0  0  0  0  0  0  0  0999 V3000
M  V30 BEGIN CTAB
M  V30 COUNTS 66 69 0 0 0
M  V30 BEGIN ATOM
M  V30 1 C 6.264129 -3.388686 3.533850 0
M  V30 2 C 6.666530 -2.197673 4.375101 0
M  V30 3 C 7.488546 -1.225728 3.563404 0
M  V30 4 O 6.781977 -0.733276 2.442398 0
M  V30 5 C 5.596719 -0.038144 2.643097 0
M  V30 6 O 5.086507 0.194909 3.785617 0
M  V30 7 C 4.871114 0.469251 1.458635 0
M  V30 8 C 5.377856 0.246711 0.176622 0
M  V30 9 C 4.744015 0.696531 -0.964875 0
M  V30 10 C 3.557815 1.397272 -0.842878 0
M  V30 11 F 2.921765 1.845907 -1.946533 0
M  V30 12 C 3.082996 1.600834 0.438451 0
M  V30 13 N 1.849615 2.326639 0.605813 0
M  V30 14 C 0.752391 1.460876 0.597343 0
M  V30 15 O 1.025330 0.245742 0.450558 0
M  V30 16 C -0.633454 1.886915 0.744819 0
M  V30 17 C -0.917907 3.226483 0.898083 0
M  V30 18 C -2.229950 3.613637 1.036788 0
M  V30 19 C -3.242752 2.684346 1.023453 0
M  V30 20 C -3.008954 1.335742 0.874033 0
M  V30 21 C -3.897011 0.185451 0.853635 0
M  V30 22 C -3.806198 -0.609350 -0.273518 0
M  V30 23 C -4.571505 -1.733582 -0.497762 0
M  V30 24 C -4.546826 -2.622460 -1.641988 0
M  V30 25 O -5.335469 -3.627445 -1.669965 0
M  V30 26 N -3.708625 -2.474174 -2.756773 0
M  V30 27 C -3.563921 -3.240285 -3.934300 0
M  V30 28 C -4.244688 -4.369358 -4.278328 0
M  V30 29 C -4.092661 -5.106238 -5.432766 0
M  V30 30 N -3.168564 -4.658937 -6.316692 0
M  V30 31 C -2.444824 -3.537147 -6.048613 0
M  V30 32 C -2.641991 -2.842810 -4.876914 0
M  V30 33 F -1.875080 -1.733065 -4.691428 0
M  V30 34 C -5.470959 -2.010574 0.536602 0
M  V30 35 C -5.605087 -1.263955 1.670886 0
M  V30 36 C -4.799083 -0.134029 1.840824 0
M  V30 37 C -4.922820 0.665035 3.071302 0
M  V30 38 N -3.787220 0.354982 3.924551 0
M  V30 39 C -1.680703 0.968692 0.735578 0
M  V30 40 C 3.700692 1.160712 1.579680 0
M  V30 41 H 5.736723 -4.102139 4.168524 0
M  V30 42 H 5.667188 -3.089340 2.647797 0
M  V30 43 H 7.228703 -3.815432 3.141991 0
M  V30 44 H 7.356090 -2.595494 5.167340 0
M  V30 45 H 5.817466 -1.726215 4.897290 0
M  V30 46 H 7.907599 -0.454808 4.213660 0
M  V30 47 H 8.366998 -1.819585 3.181423 0
M  V30 48 H 6.316008 -0.309629 0.111450 0
M  V30 49 H 5.210418 0.476184 -1.895157 0
M  V30 50 H 1.715106 3.353997 0.723117 0
M  V30 51 H -0.188024 4.018480 0.919810 0
M  V30 52 H -2.555582 4.647304 1.163162 0
M  V30 53 H -4.287477 2.936735 1.112719 0
M  V30 54 H -3.102736 -0.376552 -1.062040 0
M  V30 55 H -3.092910 -1.622703 -2.651707 0
M  V30 56 H -4.986271 -4.758807 -3.606709 0
M  V30 57 H -4.658901 -5.984256 -5.643157 0
M  V30 58 H -1.725918 -3.210037 -6.762189 0
M  V30 59 H -6.140271 -2.878182 0.483513 0
M  V30 60 H -6.312099 -1.510171 2.448548 0
M  V30 61 H -5.048732 1.727591 2.924002 0
M  V30 62 H -5.814035 0.307700 3.644808 0
M  V30 63 H -3.428401 -0.599727 3.777511 0
M  V30 64 H -3.971978 0.522262 4.939221 0
M  V30 65 H -1.337018 -0.061243 0.608113 0
M  V30 66 H 3.313087 1.330019 2.576411 0
M  V30 END ATOM
M  V30 BEGIN BOND
M  V30 1 1 1 2
M  V30 2 1 2 3
M  V30 3 1 3 4
M  V30 4 1 4 5
M  V30 5 2 5 6
M  V30 6 1 5 7
M  V30 7 2 7 8
M  V30 8 1 8 9
M  V30 9 2 9 10
M  V30 10 1 10 11
M  V30 11 1 10 12
M  V30 12 1 12 13
M  V30 13 1 13 14
M  V30 14 2 14 15
M  V30 15 1 14 16
M  V30 16 2 16 17
M  V30 17 1 17 18
M  V30 18 2 18 19
M  V30 19 1 19 20
M  V30 20 1 20 21
M  V30 21 2 21 22
M  V30 22 1 22 23
M  V30 23 1 23 24
M  V30 24 2 24 25
M  V30 25 1 24 26
M  V30 26 1 26 27
M  V30 27 2 27 28
M  V30 28 1 28 29
M  V30 29 2 29 30
M  V30 30 1 30 31
M  V30 31 2 31 32
M  V30 32 1 32 33
M  V30 33 2 23 34
M  V30 34 1 34 35
M  V30 35 2 35 36
M  V30 36 1 36 37
M  V30 37 1 37 38
M  V30 38 2 20 39
M  V30 39 2 12 40
M  V30 40 1 40 7
M  V30 41 1 39 16
M  V30 42 1 36 21
M  V30 43 1 32 27
M  V30 44 1 1 41
M  V30 45 1 1 42
M  V30 46 1 1 43
M  V30 47 1 2 44
M  V30 48 1 2 45
M  V30 49 1 3 46
M  V30 50 1 3 47
M  V30 51 1 8 48
M  V30 52 1 9 49
M  V30 53 1 13 50
M  V30 54 1 17 51
M  V30 55 1 18 52
M  V30 56 1 19 53
M  V30 57 1 22 54
M  V30 58 1 26 55
M  V30 59 1 28 56
M  V30 60 1 29 57
M  V30 61 1 31 58
M  V30 62 1 34 59
M  V30 63 1 35 60
M  V30 64 1 37 61
M  V30 65 1 37 62
M  V30 66 1 38 63
M  V30 67 1 38 64
M  V30 68 1 39 65
M  V30 69 1 40 66
M  V30 END BOND
M  V30 END CTAB
M  END
>  <Dataset>  (392) 
ChEMBL_Kinases

>  <Ligand_Instance>  (392) 
nan

>  <PDB_ID>  (392) 
nan

>  <Standardized_SMILES>  (392) 
CCCOC(=O)c1ccc(F)c(NC(=O)c2cccc(-c3cc(C(=O)Nc4ccncc4F)ccc3CN)c2)c1

>  <Name>  (392) 
nan

>  <Pocket>  (392) 
nan

>  <ATP_Site>  (392) 
nan

>  <Peripheral>  (392) 
nan

>  <Num_H_Atoms_ProtBoundConf>  (392) 
nan

>  <Num_Resolved_Atoms>  (392) 
nan

>  <Num_Not_Resolved_Atoms>  (392) 
nan

$$$$
CHEMBL3426635
     RDKit          3D

  0  0  0  0  0  0  0  0  0  0999 V3000
M  V30 BEGIN CTAB
M  V30 COUNTS 69 72 0 0 0
M  V30 BEGIN ATOM
M  V30 1 C 5.118844 -5.403513 -3.081518 0
M  V30 2 C 4.515163 -4.015376 -2.936608 0
M  V30 3 C 5.531351 -3.069369 -2.346971 0 CFG=2
M  V30 4 C 5.924168 -3.630437 -0.972810 0
M  V30 5 O 5.006780 -1.766570 -2.178278 0
M  V30 6 C 5.612993 -0.652403 -2.699713 0
M  V30 7 O 6.677473 -0.625152 -3.376411 0
M  V30 8 C 4.965474 0.638187 -2.447600 0
M  V30 9 C 5.529496 1.821415 -2.932553 0
M  V30 10 C 4.924173 3.057602 -2.692911 0
M  V30 11 C 3.734694 3.134535 -1.959153 0
M  V30 12 F 3.061492 4.250921 -1.665400 0
M  V30 13 C 3.180809 1.986545 -1.485919 0
M  V30 14 N 1.974258 1.851384 -0.706927 0
M  V30 15 C 0.777281 1.727546 -1.437683 0
M  V30 16 O 0.915257 1.754021 -2.702078 0
M  V30 17 C -0.578024 1.576032 -0.929334 0
M  V30 18 C -1.621860 1.586209 -1.825870 0
M  V30 19 C -2.915509 1.443121 -1.362894 0
M  V30 20 C -3.083544 1.295800 0.005453 0
M  V30 21 C -2.046045 1.279387 0.956420 0
M  V30 22 C -2.478066 1.089020 2.325496 0
M  V30 23 C -3.290156 -0.034623 2.477939 0
M  V30 24 C -3.820961 -0.441235 3.680075 0
M  V30 25 C -4.678213 -1.593764 3.907886 0
M  V30 26 O -5.166505 -1.919753 5.017668 0
M  V30 27 N -5.040687 -2.463253 2.868066 0
M  V30 28 C -5.853227 -3.629664 2.838101 0
M  V30 29 C -5.576957 -4.973416 3.023668 0
M  V30 30 C -6.594608 -5.892154 2.924947 0
M  V30 31 N -7.863324 -5.557210 2.654190 0
M  V30 32 C -8.150337 -4.247966 2.469379 0
M  V30 33 C -7.178534 -3.258750 2.552182 0
M  V30 34 F -7.652272 -2.022389 2.342300 0
M  V30 35 C -3.538545 0.304689 4.824576 0
M  V30 36 C -2.735504 1.414961 4.672577 0
M  V30 37 C -2.206597 1.817174 3.460415 0
M  V30 38 C -1.369434 3.011506 3.311403 0
M  V30 39 N -2.086624 4.143064 2.718765 0
M  V30 40 C -0.819251 1.425592 0.403635 0
M  V30 41 C 3.794540 0.763546 -1.731102 0
M  V30 42 H 6.229534 -5.362623 -3.151188 0
M  V30 43 H 4.850661 -6.052133 -2.202397 0
M  V30 44 H 4.749008 -5.941147 -3.980792 0
M  V30 45 H 3.652874 -4.096784 -2.215739 0
M  V30 46 H 4.115090 -3.672480 -3.900874 0
M  V30 47 H 6.461168 -3.061740 -2.945896 0
M  V30 48 H 5.452341 -3.027895 -0.158705 0
M  V30 49 H 5.544782 -4.660487 -0.862315 0
M  V30 50 H 7.043550 -3.644979 -0.863867 0
M  V30 51 H 6.445699 1.814899 -3.503864 0
M  V30 52 H 5.319214 4.001683 -3.044558 0
M  V30 53 H 1.863332 1.832840 0.337549 0
M  V30 54 H -1.495524 1.701097 -2.897197 0
M  V30 55 H -3.779649 1.445354 -2.021368 0
M  V30 56 H -4.130993 1.185040 0.329998 0
M  V30 57 H -3.579284 -0.690823 1.670275 0
M  V30 58 H -4.722142 -2.347986 1.882136 0
M  V30 59 H -4.528920 -5.108101 3.231544 0
M  V30 60 H -6.246755 -6.905917 3.092721 0
M  V30 61 H -9.196013 -4.058636 2.255161 0
M  V30 62 H -3.898725 0.083406 5.830936 0
M  V30 63 H -2.477046 2.038339 5.522308 0
M  V30 64 H -1.138945 3.352708 4.371125 0
M  V30 65 H -0.422848 2.842118 2.802033 0
M  V30 66 H -1.707365 5.051375 3.113140 0
M  V30 67 H -3.105868 4.094579 2.944270 0
M  V30 68 H 0.020961 1.403913 1.077391 0
M  V30 69 H 3.391238 -0.196657 -1.370910 0
M  V30 END ATOM
M  V30 BEGIN BOND
M  V30 1 1 1 2
M  V30 2 1 2 3
M  V30 3 1 3 4
M  V30 4 1 3 5
M  V30 5 1 5 6
M  V30 6 2 6 7
M  V30 7 1 6 8
M  V30 8 2 8 9
M  V30 9 1 9 10
M  V30 10 2 10 11
M  V30 11 1 11 12
M  V30 12 1 11 13
M  V30 13 1 13 14
M  V30 14 1 14 15
M  V30 15 2 15 16
M  V30 16 1 15 17
M  V30 17 2 17 18
M  V30 18 1 18 19
M  V30 19 2 19 20
M  V30 20 1 20 21
M  V30 21 1 21 22
M  V30 22 2 22 23
M  V30 23 1 23 24
M  V30 24 1 24 25
M  V30 25 2 25 26
M  V30 26 1 25 27
M  V30 27 1 27 28
M  V30 28 2 28 29
M  V30 29 1 29 30
M  V30 30 2 30 31
M  V30 31 1 31 32
M  V30 32 2 32 33
M  V30 33 1 33 34
M  V30 34 2 24 35
M  V30 35 1 35 36
M  V30 36 2 36 37
M  V30 37 1 37 38
M  V30 38 1 38 39
M  V30 39 2 21 40
M  V30 40 2 13 41
M  V30 41 1 41 8
M  V30 42 1 40 17
M  V30 43 1 37 22
M  V30 44 1 33 28
M  V30 45 1 1 42
M  V30 46 1 1 43
M  V30 47 1 1 44
M  V30 48 1 2 45
M  V30 49 1 2 46
M  V30 50 1 3 47 CFG=3
M  V30 51 1 4 48
M  V30 52 1 4 49
M  V30 53 1 4 50
M  V30 54 1 9 51
M  V30 55 1 10 52
M  V30 56 1 14 53
M  V30 57 1 18 54
M  V30 58 1 19 55
M  V30 59 1 20 56
M  V30 60 1 23 57
M  V30 61 1 27 58
M  V30 62 1 29 59
M  V30 63 1 30 60
M  V30 64 1 32 61
M  V30 65 1 35 62
M  V30 66 1 36 63
M  V30 67 1 38 64
M  V30 68 1 38 65
M  V30 69 1 39 66
M  V30 70 1 39 67
M  V30 71 1 40 68
M  V30 72 1 41 69
M  V30 END BOND
M  V30 END CTAB
M  END
>  <Dataset>  (393) 
ChEMBL_Kinases

>  <Ligand_Instance>  (393) 
nan

>  <PDB_ID>  (393) 
nan

>  <Standardized_SMILES>  (393) 
CC[C@H](C)OC(=O)c1ccc(F)c(NC(=O)c2cccc(-c3cc(C(=O)Nc4ccncc4F)ccc3CN)c2)c1

>  <Name>  (393) 
nan

>  <Pocket>  (393) 
nan

>  <ATP_Site>  (393) 
nan

>  <Peripheral>  (393) 
nan

>  <Num_H_Atoms_ProtBoundConf>  (393) 
nan

>  <Num_Resolved_Atoms>  (393) 
nan

>  <Num_Not_Resolved_Atoms>  (393) 
nan

$$$$
CHEMBL3426636
     RDKit          3D

  0  0  0  0  0  0  0  0  0  0999 V3000
M  V30 BEGIN CTAB
M  V30 COUNTS 69 72 0 0 0
M  V30 BEGIN ATOM
M  V30 1 C 2.107738 -3.456904 -6.423461 0
M  V30 2 C 2.294125 -2.426692 -5.330164 0
M  V30 3 C 2.159390 -1.038281 -5.927164 0 CFG=1
M  V30 4 C 0.744755 -0.976102 -6.523281 0
M  V30 5 O 2.245984 -0.040094 -4.961099 0
M  V30 6 C 3.080844 1.067873 -4.989468 0
M  V30 7 O 3.897741 1.373633 -5.872094 0
M  V30 8 C 3.008779 1.998084 -3.860847 0
M  V30 9 C 3.819906 3.138545 -3.837988 0
M  V30 10 C 3.774255 4.036808 -2.781466 0
M  V30 11 C 2.921555 3.829914 -1.714856 0
M  V30 12 F 2.782409 4.622145 -0.633016 0
M  V30 13 C 2.103705 2.699228 -1.716232 0
M  V30 14 N 1.165779 2.304650 -0.722725 0
M  V30 15 C -0.213750 2.595206 -0.576776 0
M  V30 16 O -0.793020 3.319205 -1.425356 0
M  V30 17 C -1.007394 2.087270 0.526848 0
M  V30 18 C -2.345296 2.420272 0.561558 0
M  V30 19 C -3.095515 1.922106 1.632212 0
M  V30 20 C -2.489992 1.136207 2.592560 0
M  V30 21 C -1.129604 0.807186 2.543557 0
M  V30 22 C -0.771314 -0.041440 3.664785 0
M  V30 23 C -1.477469 -1.219345 3.795238 0
M  V30 24 C -1.245520 -2.158504 4.793102 0
M  V30 25 C -1.947256 -3.414117 4.989558 0
M  V30 26 O -1.605887 -4.168020 5.963747 0
M  V30 27 N -2.993975 -3.890571 4.188255 0
M  V30 28 C -3.767603 -5.071181 4.245407 0
M  V30 29 C -3.665534 -6.088543 5.156785 0
M  V30 30 C -4.423047 -7.234458 5.204499 0
M  V30 31 N -5.372101 -7.369393 4.245294 0
M  V30 32 C -5.527442 -6.407146 3.317212 0
M  V30 33 C -4.748719 -5.271189 3.301199 0
M  V30 34 F -4.976340 -4.339201 2.316060 0
M  V30 35 C -0.230714 -1.818181 5.666981 0
M  V30 36 C 0.513952 -0.661614 5.597437 0
M  V30 37 C 0.221447 0.220100 4.577419 0
M  V30 38 C 1.004835 1.473804 4.526613 0
M  V30 39 N 0.106128 2.509900 5.066881 0
M  V30 40 C -0.408817 1.304280 1.484853 0
M  V30 41 C 2.173915 1.822691 -2.786458 0
M  V30 42 H 2.826730 -4.291726 -6.316172 0
M  V30 43 H 2.305376 -3.024176 -7.426207 0
M  V30 44 H 1.057084 -3.824488 -6.457486 0
M  V30 45 H 3.326565 -2.488385 -4.878093 0
M  V30 46 H 1.573208 -2.594306 -4.510829 0
M  V30 47 H 2.826494 -0.934226 -6.795452 0
M  V30 48 H 0.611357 -1.780324 -7.270346 0
M  V30 49 H 0.577790 0.025132 -7.008593 0
M  V30 50 H 0.045738 -1.035129 -5.661800 0
M  V30 51 H 4.513126 3.340037 -4.668236 0
M  V30 52 H 4.381033 4.928243 -2.722821 0
M  V30 53 H 1.691495 1.710886 -0.048209 0
M  V30 54 H -2.815624 3.036935 -0.192848 0
M  V30 55 H -4.139804 2.200946 1.629134 0
M  V30 56 H -3.208700 0.827497 3.358903 0
M  V30 57 H -2.266510 -1.458654 3.096159 0
M  V30 58 H -3.208751 -3.210005 3.413880 0
M  V30 59 H -2.922591 -6.016126 5.934198 0
M  V30 60 H -4.276974 -7.991799 5.961923 0
M  V30 61 H -6.290391 -6.515871 2.546781 0
M  V30 62 H 0.021555 -2.503857 6.488066 0
M  V30 63 H 1.292622 -0.471101 6.323423 0
M  V30 64 H 1.878415 1.447233 5.211442 0
M  V30 65 H 1.297057 1.827031 3.548297 0
M  V30 66 H -0.262217 2.120952 5.964846 0
M  V30 67 H 0.688241 3.353356 5.272867 0
M  V30 68 H 0.624517 0.999713 1.501863 0
M  V30 69 H 1.571064 0.918305 -2.865971 0
M  V30 END ATOM
M  V30 BEGIN BOND
M  V30 1 1 1 2
M  V30 2 1 2 3
M  V30 3 1 3 4
M  V30 4 1 3 5
M  V30 5 1 5 6
M  V30 6 2 6 7
M  V30 7 1 6 8
M  V30 8 2 8 9
M  V30 9 1 9 10
M  V30 10 2 10 11
M  V30 11 1 11 12
M  V30 12 1 11 13
M  V30 13 1 13 14
M  V30 14 1 14 15
M  V30 15 2 15 16
M  V30 16 1 15 17
M  V30 17 2 17 18
M  V30 18 1 18 19
M  V30 19 2 19 20
M  V30 20 1 20 21
M  V30 21 1 21 22
M  V30 22 2 22 23
M  V30 23 1 23 24
M  V30 24 1 24 25
M  V30 25 2 25 26
M  V30 26 1 25 27
M  V30 27 1 27 28
M  V30 28 2 28 29
M  V30 29 1 29 30
M  V30 30 2 30 31
M  V30 31 1 31 32
M  V30 32 2 32 33
M  V30 33 1 33 34
M  V30 34 2 24 35
M  V30 35 1 35 36
M  V30 36 2 36 37
M  V30 37 1 37 38
M  V30 38 1 38 39
M  V30 39 2 21 40
M  V30 40 2 13 41
M  V30 41 1 41 8
M  V30 42 1 40 17
M  V30 43 1 37 22
M  V30 44 1 33 28
M  V30 45 1 1 42
M  V30 46 1 1 43
M  V30 47 1 1 44
M  V30 48 1 2 45
M  V30 49 1 2 46
M  V30 50 1 3 47 CFG=3
M  V30 51 1 4 48
M  V30 52 1 4 49
M  V30 53 1 4 50
M  V30 54 1 9 51
M  V30 55 1 10 52
M  V30 56 1 14 53
M  V30 57 1 18 54
M  V30 58 1 19 55
M  V30 59 1 20 56
M  V30 60 1 23 57
M  V30 61 1 27 58
M  V30 62 1 29 59
M  V30 63 1 30 60
M  V30 64 1 32 61
M  V30 65 1 35 62
M  V30 66 1 36 63
M  V30 67 1 38 64
M  V30 68 1 38 65
M  V30 69 1 39 66
M  V30 70 1 39 67
M  V30 71 1 40 68
M  V30 72 1 41 69
M  V30 END BOND
M  V30 END CTAB
M  END
>  <Dataset>  (394) 
ChEMBL_Kinases

>  <Ligand_Instance>  (394) 
nan

>  <PDB_ID>  (394) 
nan

>  <Standardized_SMILES>  (394) 
CC[C@@H](C)OC(=O)c1ccc(F)c(NC(=O)c2cccc(-c3cc(C(=O)Nc4ccncc4F)ccc3CN)c2)c1

>  <Name>  (394) 
nan

>  <Pocket>  (394) 
nan

>  <ATP_Site>  (394) 
nan

>  <Peripheral>  (394) 
nan

>  <Num_H_Atoms_ProtBoundConf>  (394) 
nan

>  <Num_Resolved_Atoms>  (394) 
nan

>  <Num_Not_Resolved_Atoms>  (394) 
nan

$$$$
CHEMBL3426637
     RDKit          3D

  0  0  0  0  0  0  0  0  0  0999 V3000
M  V30 BEGIN CTAB
M  V30 COUNTS 60 63 0 0 0
M  V30 BEGIN ATOM
M  V30 1 C 2.887670 -1.756759 7.192177 0
M  V30 2 O 3.159833 -1.101480 5.966924 0
M  V30 3 C 4.434687 -0.804747 5.503908 0
M  V30 4 O 5.535870 -1.070949 6.097863 0
M  V30 5 C 4.588321 -0.123407 4.221082 0
M  V30 6 C 5.856158 0.177761 3.752623 0
M  V30 7 C 5.979709 0.832844 2.520602 0
M  V30 8 C 4.864009 1.189967 1.753136 0
M  V30 9 C 3.614301 0.874969 2.248871 0
M  V30 10 C 2.467855 1.259929 1.432218 0
M  V30 11 O 2.688469 1.865175 0.349215 0
M  V30 12 N 1.114260 1.020744 1.734478 0
M  V30 13 C 0.169522 1.479175 0.806240 0
M  V30 14 C -0.265234 2.775998 1.064069 0
M  V30 15 C -1.202546 3.341636 0.213344 0
M  V30 16 C -1.671296 2.611783 -0.850846 0
M  V30 17 C -1.285588 1.331902 -1.162814 0
M  V30 18 C -1.570889 0.355883 -2.193698 0
M  V30 19 C -2.032546 -0.901123 -1.776515 0
M  V30 20 C -2.356133 -1.943512 -2.618058 0
M  V30 21 C -2.837747 -3.260892 -2.222100 0
M  V30 22 O -3.088879 -4.119177 -3.116590 0
M  V30 23 N -3.050554 -3.662756 -0.883610 0
M  V30 24 C -3.507658 -4.890817 -0.346710 0
M  V30 25 C -3.863945 -6.021501 -1.034283 0
M  V30 26 C -4.305343 -7.201330 -0.475478 0
M  V30 27 N -4.393644 -7.244677 0.868185 0
M  V30 28 C -4.056501 -6.159755 1.614605 0
M  V30 29 C -3.619190 -4.996684 1.022010 0
M  V30 30 F -3.298621 -3.949561 1.840544 0
M  V30 31 C -2.195126 -1.676192 -3.963698 0
M  V30 32 C -1.747135 -0.469407 -4.459260 0
M  V30 33 C -1.443815 0.524742 -3.552952 0
M  V30 34 C -0.969229 1.798930 -4.135403 0
M  V30 35 N -2.028480 2.753047 -4.192357 0
M  V30 36 C -0.333656 0.783223 -0.281804 0
M  V30 37 C 3.498863 0.234389 3.454139 0
M  V30 38 H 2.362564 -2.730363 7.058055 0
M  V30 39 H 3.818793 -1.971251 7.752602 0
M  V30 40 H 2.186817 -1.148357 7.824218 0
M  V30 41 H 6.759053 -0.076189 4.307557 0
M  V30 42 H 7.006809 1.048695 2.193896 0
M  V30 43 H 5.055529 1.692051 0.816941 0
M  V30 44 H 0.919276 0.513819 2.638530 0
M  V30 45 H 0.063095 3.402504 1.881213 0
M  V30 46 H -1.636682 4.323911 0.273690 0
M  V30 47 H -2.409378 2.967063 -1.548150 0
M  V30 48 H -2.145080 -1.071562 -0.715809 0
M  V30 49 H -2.819160 -2.893927 -0.218460 0
M  V30 50 H -3.803329 -6.017203 -2.106108 0
M  V30 51 H -4.567678 -8.049493 -1.093182 0
M  V30 52 H -4.132775 -6.209302 2.687805 0
M  V30 53 H -2.433736 -2.460124 -4.694286 0
M  V30 54 H -1.641482 -0.321200 -5.524652 0
M  V30 55 H -0.081020 2.157282 -3.568688 0
M  V30 56 H -0.594933 1.678086 -5.172347 0
M  V30 57 H -1.620457 3.686086 -4.492756 0
M  V30 58 H -2.697044 2.476115 -4.937581 0
M  V30 59 H 0.123594 -0.196263 -0.310909 0
M  V30 60 H 2.508124 -0.002716 3.823233 0
M  V30 END ATOM
M  V30 BEGIN BOND
M  V30 1 1 1 2
M  V30 2 1 2 3
M  V30 3 2 3 4
M  V30 4 1 3 5
M  V30 5 2 5 6
M  V30 6 1 6 7
M  V30 7 2 7 8
M  V30 8 1 8 9
M  V30 9 1 9 10
M  V30 10 2 10 11
M  V30 11 1 10 12
M  V30 12 1 12 13
M  V30 13 2 13 14
M  V30 14 1 14 15
M  V30 15 2 15 16
M  V30 16 1 16 17
M  V30 17 1 17 18
M  V30 18 2 18 19
M  V30 19 1 19 20
M  V30 20 1 20 21
M  V30 21 2 21 22
M  V30 22 1 21 23
M  V30 23 1 23 24
M  V30 24 2 24 25
M  V30 25 1 25 26
M  V30 26 2 26 27
M  V30 27 1 27 28
M  V30 28 2 28 29
M  V30 29 1 29 30
M  V30 30 2 20 31
M  V30 31 1 31 32
M  V30 32 2 32 33
M  V30 33 1 33 34
M  V30 34 1 34 35
M  V30 35 2 17 36
M  V30 36 2 9 37
M  V30 37 1 37 5
M  V30 38 1 36 13
M  V30 39 1 33 18
M  V30 40 1 29 24
M  V30 41 1 1 38
M  V30 42 1 1 39
M  V30 43 1 1 40
M  V30 44 1 6 41
M  V30 45 1 7 42
M  V30 46 1 8 43
M  V30 47 1 12 44
M  V30 48 1 14 45
M  V30 49 1 15 46
M  V30 50 1 16 47
M  V30 51 1 19 48
M  V30 52 1 23 49
M  V30 53 1 25 50
M  V30 54 1 26 51
M  V30 55 1 28 52
M  V30 56 1 31 53
M  V30 57 1 32 54
M  V30 58 1 34 55
M  V30 59 1 34 56
M  V30 60 1 35 57
M  V30 61 1 35 58
M  V30 62 1 36 59
M  V30 63 1 37 60
M  V30 END BOND
M  V30 END CTAB
M  END
>  <Dataset>  (395) 
ChEMBL_Kinases

>  <Ligand_Instance>  (395) 
nan

>  <PDB_ID>  (395) 
nan

>  <Standardized_SMILES>  (395) 
COC(=O)c1cccc(C(=O)Nc2cccc(-c3cc(C(=O)Nc4ccncc4F)ccc3CN)c2)c1

>  <Name>  (395) 
nan

>  <Pocket>  (395) 
nan

>  <ATP_Site>  (395) 
nan

>  <Peripheral>  (395) 
nan

>  <Num_H_Atoms_ProtBoundConf>  (395) 
nan

>  <Num_Resolved_Atoms>  (395) 
nan

>  <Num_Not_Resolved_Atoms>  (395) 
nan

$$$$
CHEMBL3426638
     RDKit          3D

  0  0  0  0  0  0  0  0  0  0999 V3000
M  V30 BEGIN CTAB
M  V30 COUNTS 66 69 0 0 0
M  V30 BEGIN ATOM
M  V30 1 C 6.441510 -3.395429 5.776639 0
M  V30 2 C 5.336752 -4.376903 5.459521 0
M  V30 3 C 5.523084 -4.796599 4.022725 0
M  V30 4 O 5.449942 -3.699315 3.133326 0
M  V30 5 C 4.287137 -2.944900 3.075806 0
M  V30 6 O 3.250039 -3.143985 3.759590 0
M  V30 7 C 4.269279 -1.809861 2.127769 0
M  V30 8 C 5.375016 -1.510205 1.324995 0
M  V30 9 C 5.315742 -0.441122 0.453339 0
M  V30 10 C 4.189279 0.349626 0.347340 0
M  V30 11 C 3.085709 0.072443 1.130094 0
M  V30 12 C 1.829558 0.817228 1.128219 0
M  V30 13 O 0.808413 0.585252 1.827792 0
M  V30 14 N 1.633703 1.948819 0.277789 0
M  V30 15 C 0.329711 2.504858 0.457570 0
M  V30 16 C 0.246989 3.479734 1.430391 0
M  V30 17 C -0.999650 4.035260 1.627216 0
M  V30 18 C -2.114237 3.659786 0.910726 0
M  V30 19 C -2.043802 2.689317 -0.062247 0
M  V30 20 C -3.020998 2.115777 -0.972429 0
M  V30 21 C -3.137703 0.720970 -0.926546 0
M  V30 22 C -4.002816 -0.042722 -1.678386 0
M  V30 23 C -4.041396 -1.492477 -1.551320 0
M  V30 24 O -3.267847 -2.060170 -0.738888 0
M  V30 25 N -4.920700 -2.283643 -2.311966 0
M  V30 26 C -4.797690 -3.673211 -2.035727 0
M  V30 27 C -3.880608 -4.395390 -2.806254 0
M  V30 28 C -3.683899 -5.766574 -2.613802 0
M  V30 29 N -4.371871 -6.426265 -1.682430 0
M  V30 30 C -5.259051 -5.748210 -0.930981 0
M  V30 31 C -5.482559 -4.403762 -1.086841 0
M  V30 32 F -6.366271 -3.689368 -0.349779 0
M  V30 33 C -4.819322 0.644533 -2.548499 0
M  V30 34 C -4.735774 2.014884 -2.624158 0
M  V30 35 C -3.842572 2.757212 -1.843075 0
M  V30 36 C -3.765909 4.212080 -1.958250 0
M  V30 37 N -2.580496 4.620201 -2.699405 0
M  V30 38 C -0.784926 2.126212 -0.262642 0
M  V30 39 C 3.164002 -1.000684 1.995682 0
M  V30 40 H 6.181618 -2.412591 5.354121 0
M  V30 41 H 6.638405 -3.362935 6.879532 0
M  V30 42 H 7.362025 -3.763714 5.239830 0
M  V30 43 H 5.477024 -5.315697 6.068052 0
M  V30 44 H 4.338770 -3.941144 5.660003 0
M  V30 45 H 4.711330 -5.543393 3.806956 0
M  V30 46 H 6.467133 -5.344056 3.918512 0
M  V30 47 H 6.258066 -2.141628 1.417852 0
M  V30 48 H 6.161219 -0.202575 -0.168477 0
M  V30 49 H 4.111669 1.189781 -0.322335 0
M  V30 50 H 2.388029 2.278435 -0.371601 0
M  V30 51 H 1.014263 3.881122 2.069828 0
M  V30 52 H -1.225327 4.819304 2.362166 0
M  V30 53 H -3.110701 4.053312 1.035638 0
M  V30 54 H -2.499066 0.139650 -0.240906 0
M  V30 55 H -5.587863 -1.883184 -3.002442 0
M  V30 56 H -3.269161 -3.950432 -3.592448 0
M  V30 57 H -2.986204 -6.343729 -3.191756 0
M  V30 58 H -5.819960 -6.291993 -0.169781 0
M  V30 59 H -5.524943 0.139061 -3.174717 0
M  V30 60 H -5.382121 2.561832 -3.313277 0
M  V30 61 H -4.643436 4.545028 -2.596912 0
M  V30 62 H -3.910711 4.759212 -1.016477 0
M  V30 63 H -1.922190 3.833047 -2.820449 0
M  V30 64 H -2.073550 5.371619 -2.148480 0
M  V30 65 H -0.537910 1.355228 -0.977777 0
M  V30 66 H 2.324611 -1.257258 2.629676 0
M  V30 END ATOM
M  V30 BEGIN BOND
M  V30 1 1 1 2
M  V30 2 1 2 3
M  V30 3 1 3 4
M  V30 4 1 4 5
M  V30 5 2 5 6
M  V30 6 1 5 7
M  V30 7 2 7 8
M  V30 8 1 8 9
M  V30 9 2 9 10
M  V30 10 1 10 11
M  V30 11 1 11 12
M  V30 12 2 12 13
M  V30 13 1 12 14
M  V30 14 1 14 15
M  V30 15 2 15 16
M  V30 16 1 16 17
M  V30 17 2 17 18
M  V30 18 1 18 19
M  V30 19 1 19 20
M  V30 20 2 20 21
M  V30 21 1 21 22
M  V30 22 1 22 23
M  V30 23 2 23 24
M  V30 24 1 23 25
M  V30 25 1 25 26
M  V30 26 2 26 27
M  V30 27 1 27 28
M  V30 28 2 28 29
M  V30 29 1 29 30
M  V30 30 2 30 31
M  V30 31 1 31 32
M  V30 32 2 22 33
M  V30 33 1 33 34
M  V30 34 2 34 35
M  V30 35 1 35 36
M  V30 36 1 36 37
M  V30 37 2 19 38
M  V30 38 2 11 39
M  V30 39 1 39 7
M  V30 40 1 38 15
M  V30 41 1 35 20
M  V30 42 1 31 26
M  V30 43 1 1 40
M  V30 44 1 1 41
M  V30 45 1 1 42
M  V30 46 1 2 43
M  V30 47 1 2 44
M  V30 48 1 3 45
M  V30 49 1 3 46
M  V30 50 1 8 47
M  V30 51 1 9 48
M  V30 52 1 10 49
M  V30 53 1 14 50
M  V30 54 1 16 51
M  V30 55 1 17 52
M  V30 56 1 18 53
M  V30 57 1 21 54
M  V30 58 1 25 55
M  V30 59 1 27 56
M  V30 60 1 28 57
M  V30 61 1 30 58
M  V30 62 1 33 59
M  V30 63 1 34 60
M  V30 64 1 36 61
M  V30 65 1 36 62
M  V30 66 1 37 63
M  V30 67 1 37 64
M  V30 68 1 38 65
M  V30 69 1 39 66
M  V30 END BOND
M  V30 END CTAB
M  END
>  <Dataset>  (396) 
ChEMBL_Kinases

>  <Ligand_Instance>  (396) 
nan

>  <PDB_ID>  (396) 
nan

>  <Standardized_SMILES>  (396) 
CCCOC(=O)c1cccc(C(=O)Nc2cccc(-c3cc(C(=O)Nc4ccncc4F)ccc3CN)c2)c1

>  <Name>  (396) 
nan

>  <Pocket>  (396) 
nan

>  <ATP_Site>  (396) 
nan

>  <Peripheral>  (396) 
nan

>  <Num_H_Atoms_ProtBoundConf>  (396) 
nan

>  <Num_Resolved_Atoms>  (396) 
nan

>  <Num_Not_Resolved_Atoms>  (396) 
nan

$$$$
CHEMBL3426630
     RDKit          3D

  0  0  0  0  0  0  0  0  0  0999 V3000
M  V30 BEGIN CTAB
M  V30 COUNTS 66 69 0 0 0
M  V30 BEGIN ATOM
M  V30 1 C 6.471285 -4.623558 4.650512 0
M  V30 2 C 5.170026 -4.741385 3.890849 0
M  V30 3 C 5.122842 -6.055076 3.105777 0
M  V30 4 O 5.129385 -3.713472 2.925527 0
M  V30 5 C 4.070121 -2.820706 2.816471 0
M  V30 6 O 3.135770 -2.968068 3.624023 0
M  V30 7 C 4.116874 -1.787207 1.783995 0
M  V30 8 C 5.202602 -1.685849 0.919843 0
M  V30 9 C 5.275618 -0.721682 -0.066580 0
M  V30 10 C 4.220223 0.169086 -0.186100 0
M  V30 11 C 3.126999 0.092321 0.659212 0
M  V30 12 N 1.988410 0.936798 0.639678 0
M  V30 13 C 1.666871 2.147638 1.272051 0
M  V30 14 O 2.540227 2.609242 2.014668 0
M  V30 15 C 0.404015 2.824233 1.079767 0
M  V30 16 C 0.269181 4.025655 1.790582 0
M  V30 17 C -0.915116 4.719657 1.650484 0
M  V30 18 C -1.952293 4.288712 0.854995 0
M  V30 19 C -1.851919 3.113212 0.142804 0
M  V30 20 C -2.720890 2.406223 -0.779627 0
M  V30 21 C -3.032707 1.084101 -0.439894 0
M  V30 22 C -3.853118 0.233403 -1.152584 0
M  V30 23 C -4.101878 -1.123372 -0.698566 0
M  V30 24 O -3.557365 -1.529322 0.358912 0
M  V30 25 N -4.946144 -1.992553 -1.427622 0
M  V30 26 C -5.212948 -3.327181 -1.013363 0
M  V30 27 C -4.288196 -4.225288 -1.547962 0
M  V30 28 C -4.362235 -5.576178 -1.272540 0
M  V30 29 N -5.360205 -6.003959 -0.467328 0
M  V30 30 C -6.261035 -5.172422 0.060437 0
M  V30 31 C -6.215311 -3.813906 -0.195254 0
M  V30 32 F -7.049455 -2.849266 0.261315 0
M  V30 33 C -4.399101 0.764343 -2.297267 0
M  V30 34 C -4.133270 2.057979 -2.689337 0
M  V30 35 C -3.306631 2.850223 -1.932679 0
M  V30 36 C -3.031257 4.207964 -2.400972 0
M  V30 37 N -1.696270 4.234936 -2.987990 0
M  V30 38 C -0.645504 2.412979 0.290472 0
M  V30 39 C 3.080011 -0.889622 1.644773 0
M  V30 40 H 6.453118 -5.321832 5.517267 0
M  V30 41 H 7.308789 -4.914235 4.016025 0
M  V30 42 H 6.562045 -3.565009 4.986583 0
M  V30 43 H 4.273138 -4.720805 4.515746 0
M  V30 44 H 4.896941 -6.917779 3.771532 0
M  V30 45 H 4.360793 -5.994198 2.301717 0
M  V30 46 H 6.131188 -6.241843 2.686672 0
M  V30 47 H 6.042799 -2.387471 1.007284 0
M  V30 48 H 6.122634 -0.650419 -0.732826 0
M  V30 49 H 4.194934 0.955446 -0.930316 0
M  V30 50 H 1.339323 0.444068 -0.010624 0
M  V30 51 H 0.988850 4.492078 2.450895 0
M  V30 52 H -1.135539 5.666953 2.153995 0
M  V30 53 H -2.907124 4.768143 0.709062 0
M  V30 54 H -2.600682 0.648887 0.475316 0
M  V30 55 H -5.431166 -1.726778 -2.310913 0
M  V30 56 H -3.461151 -3.970111 -2.199722 0
M  V30 57 H -3.717254 -6.348840 -1.621430 0
M  V30 58 H -7.076717 -5.455538 0.707365 0
M  V30 59 H -5.053888 0.170989 -2.918163 0
M  V30 60 H -4.574530 2.446916 -3.589479 0
M  V30 61 H -3.794198 4.568749 -3.125038 0
M  V30 62 H -3.029169 4.943958 -1.584990 0
M  V30 63 H -1.161653 5.090032 -2.717077 0
M  V30 64 H -1.140642 3.423483 -2.662155 0
M  V30 65 H -0.387287 1.463963 -0.195905 0
M  V30 66 H 2.255615 -1.001742 2.334934 0
M  V30 END ATOM
M  V30 BEGIN BOND
M  V30 1 1 1 2
M  V30 2 1 2 3
M  V30 3 1 2 4
M  V30 4 1 4 5
M  V30 5 2 5 6
M  V30 6 1 5 7
M  V30 7 2 7 8
M  V30 8 1 8 9
M  V30 9 2 9 10
M  V30 10 1 10 11
M  V30 11 1 11 12
M  V30 12 1 12 13
M  V30 13 2 13 14
M  V30 14 1 13 15
M  V30 15 2 15 16
M  V30 16 1 16 17
M  V30 17 2 17 18
M  V30 18 1 18 19
M  V30 19 1 19 20
M  V30 20 2 20 21
M  V30 21 1 21 22
M  V30 22 1 22 23
M  V30 23 2 23 24
M  V30 24 1 23 25
M  V30 25 1 25 26
M  V30 26 2 26 27
M  V30 27 1 27 28
M  V30 28 2 28 29
M  V30 29 1 29 30
M  V30 30 2 30 31
M  V30 31 1 31 32
M  V30 32 2 22 33
M  V30 33 1 33 34
M  V30 34 2 34 35
M  V30 35 1 35 36
M  V30 36 1 36 37
M  V30 37 2 19 38
M  V30 38 2 11 39
M  V30 39 1 39 7
M  V30 40 1 38 15
M  V30 41 1 35 20
M  V30 42 1 31 26
M  V30 43 1 1 40
M  V30 44 1 1 41
M  V30 45 1 1 42
M  V30 46 1 2 43
M  V30 47 1 3 44
M  V30 48 1 3 45
M  V30 49 1 3 46
M  V30 50 1 8 47
M  V30 51 1 9 48
M  V30 52 1 10 49
M  V30 53 1 12 50
M  V30 54 1 16 51
M  V30 55 1 17 52
M  V30 56 1 18 53
M  V30 57 1 21 54
M  V30 58 1 25 55
M  V30 59 1 27 56
M  V30 60 1 28 57
M  V30 61 1 30 58
M  V30 62 1 33 59
M  V30 63 1 34 60
M  V30 64 1 36 61
M  V30 65 1 36 62
M  V30 66 1 37 63
M  V30 67 1 37 64
M  V30 68 1 38 65
M  V30 69 1 39 66
M  V30 END BOND
M  V30 END CTAB
M  END
>  <Dataset>  (397) 
ChEMBL_Kinases

>  <Ligand_Instance>  (397) 
nan

>  <PDB_ID>  (397) 
nan

>  <Standardized_SMILES>  (397) 
CC(C)OC(=O)c1cccc(NC(=O)c2cccc(-c3cc(C(=O)Nc4ccncc4F)ccc3CN)c2)c1

>  <Name>  (397) 
nan

>  <Pocket>  (397) 
nan

>  <ATP_Site>  (397) 
nan

>  <Peripheral>  (397) 
nan

>  <Num_H_Atoms_ProtBoundConf>  (397) 
nan

>  <Num_Resolved_Atoms>  (397) 
nan

>  <Num_Not_Resolved_Atoms>  (397) 
nan

$$$$
CHEMBL3577861
     RDKit          3D

  0  0  0  0  0  0  0  0  0  0999 V3000
M  V30 BEGIN CTAB
M  V30 COUNTS 45 46 0 0 0
M  V30 BEGIN ATOM
M  V30 1 C -1.469198 -4.398179 -0.075996 0
M  V30 2 C -0.301953 -3.499511 0.159075 0
M  V30 3 C -0.304188 -3.160339 1.643094 0
M  V30 4 C -0.212668 -2.287349 -0.691486 0
M  V30 5 C -1.343267 -1.337337 -0.573416 0 CFG=1
M  V30 6 N -1.089496 -0.180015 -1.469433 0
M  V30 7 C 0.182691 0.298457 -0.991248 0
M  V30 8 N 1.203193 0.087206 -1.845167 0
M  V30 9 C 2.442828 0.504035 -1.456164 0
M  V30 10 C 2.626602 1.114980 -0.233615 0
M  V30 11 C 3.863032 1.538887 0.176941 0
M  V30 12 C 3.965104 2.147358 1.431847 0
M  V30 13 C 2.841021 2.307146 2.219636 0
M  V30 14 O 3.142116 2.872792 3.304140 0
M  V30 15 N 1.615406 1.895063 1.830428 0
M  V30 16 C 0.533507 2.102956 2.735538 0
M  V30 17 C 0.919198 1.694512 4.165564 0
M  V30 18 C -0.692759 1.262268 2.421634 0
M  V30 19 C 1.564736 1.318408 0.621609 0
M  V30 20 N 0.365644 0.894500 0.198696 0
M  V30 21 C -2.647427 -1.880090 -1.080007 0
M  V30 22 O -3.419641 -1.582355 -2.026446 0
M  V30 23 O -3.776821 -2.723678 -1.127449 0
M  V30 24 H -1.112331 -5.439686 0.211606 0
M  V30 25 H -2.299937 -4.174789 0.610044 0
M  V30 26 H -1.743784 -4.504241 -1.134743 0
M  V30 27 H 0.656684 -4.073823 0.008472 0
M  V30 28 H 0.627356 -2.646022 1.950402 0
M  V30 29 H -1.208694 -2.584278 1.913771 0
M  V30 30 H -0.309803 -4.130331 2.179413 0
M  V30 31 H 0.718450 -1.732751 -0.377118 0
M  V30 32 H -0.053708 -2.569087 -1.757205 0
M  V30 33 H -1.494191 -0.974032 0.450276 0
M  V30 34 H -1.626015 0.243455 -2.254393 0
M  V30 35 H 3.310468 0.361089 -2.107118 0
M  V30 36 H 4.720905 1.398717 -0.465513 0
M  V30 37 H 4.974990 2.454586 1.682322 0
M  V30 38 H 0.198390 3.152733 2.833910 0
M  V30 39 H -0.027381 1.443339 4.715138 0
M  V30 40 H 1.355532 2.520582 4.741547 0
M  V30 41 H 1.510205 0.761801 4.156400 0
M  V30 42 H -0.464515 0.189667 2.291690 0
M  V30 43 H -1.351839 1.281159 3.342970 0
M  V30 44 H -1.339265 1.701291 1.637712 0
M  V30 45 H -4.220345 -3.042100 -0.247211 0
M  V30 END ATOM
M  V30 BEGIN BOND
M  V30 1 1 1 2
M  V30 2 1 2 3
M  V30 3 1 2 4
M  V30 4 1 4 5
M  V30 5 1 5 6
M  V30 6 1 6 7
M  V30 7 2 7 8
M  V30 8 1 8 9
M  V30 9 2 9 10
M  V30 10 1 10 11
M  V30 11 2 11 12
M  V30 12 1 12 13
M  V30 13 2 13 14
M  V30 14 1 13 15
M  V30 15 1 15 16
M  V30 16 1 16 17
M  V30 17 1 16 18
M  V30 18 1 15 19
M  V30 19 2 19 20
M  V30 20 1 5 21
M  V30 21 2 21 22
M  V30 22 1 21 23
M  V30 23 1 20 7
M  V30 24 1 19 10
M  V30 25 1 1 24
M  V30 26 1 1 25
M  V30 27 1 1 26
M  V30 28 1 2 27
M  V30 29 1 3 28
M  V30 30 1 3 29
M  V30 31 1 3 30
M  V30 32 1 4 31
M  V30 33 1 4 32
M  V30 34 1 5 33 CFG=1
M  V30 35 1 6 34
M  V30 36 1 9 35
M  V30 37 1 11 36
M  V30 38 1 12 37
M  V30 39 1 16 38
M  V30 40 1 17 39
M  V30 41 1 17 40
M  V30 42 1 17 41
M  V30 43 1 18 42
M  V30 44 1 18 43
M  V30 45 1 18 44
M  V30 46 1 23 45
M  V30 END BOND
M  V30 END CTAB
M  END
>  <Dataset>  (398) 
ChEMBL_Kinases

>  <Ligand_Instance>  (398) 
nan

>  <PDB_ID>  (398) 
nan

>  <Standardized_SMILES>  (398) 
CC(C)C[C@@H](Nc1ncc2ccc(=O)n(C(C)C)c2n1)C(=O)O

>  <Name>  (398) 
nan

>  <Pocket>  (398) 
nan

>  <ATP_Site>  (398) 
nan

>  <Peripheral>  (398) 
nan

>  <Num_H_Atoms_ProtBoundConf>  (398) 
nan

>  <Num_Resolved_Atoms>  (398) 
nan

>  <Num_Not_Resolved_Atoms>  (398) 
nan

$$$$
CHEMBL3577857
     RDKit          3D

  0  0  0  0  0  0  0  0  0  0999 V3000
M  V30 BEGIN CTAB
M  V30 COUNTS 46 49 0 0 0
M  V30 BEGIN ATOM
M  V30 1 O -1.377138 -4.276525 3.572300 0
M  V30 2 C -1.419869 -3.598022 2.360759 0 CFG=1
M  V30 3 C -1.180314 -4.523721 1.192576 0
M  V30 4 C -1.201924 -3.663074 -0.061001 0
M  V30 5 C -2.540890 -3.020355 -0.252128 0 CFG=2
M  V30 6 N -2.512444 -2.152268 -1.410039 0
M  V30 7 C -1.673153 -1.015494 -1.570441 0
M  V30 8 N -1.674869 -0.222468 -2.682941 0
M  V30 9 C -0.858692 0.841660 -2.775139 0
M  V30 10 C 0.009905 1.194052 -1.781747 0
M  V30 11 C 0.834428 2.286051 -1.898443 0
M  V30 12 C 1.665062 2.527269 -0.814300 0
M  V30 13 C 1.689542 1.738577 0.331086 0
M  V30 14 N 2.560993 2.027650 1.418436 0
M  V30 15 C 2.635819 1.236337 2.648651 0
M  V30 16 C 3.844758 1.701428 3.382055 0
M  V30 17 C 4.501072 2.779884 2.548092 0
M  V30 18 C 3.492568 3.130691 1.474496 0
M  V30 19 N 0.851952 0.687429 0.368253 0
M  V30 20 C 0.016154 0.397580 -0.656693 0
M  V30 21 N -0.812472 -0.646583 -0.613762 0
M  V30 22 C -2.953820 -2.210378 0.959743 0
M  V30 23 C -2.817221 -3.032489 2.224775 0
M  V30 24 H -0.756962 -5.043180 3.590287 0
M  V30 25 H -0.702433 -2.779695 2.415581 0
M  V30 26 H -0.168445 -4.966790 1.235287 0
M  V30 27 H -1.991673 -5.269923 1.164264 0
M  V30 28 H -0.999665 -4.279307 -0.955026 0
M  V30 29 H -0.445713 -2.876520 0.080374 0
M  V30 30 H -3.340054 -3.785660 -0.441452 0
M  V30 31 H -3.151130 -2.329060 -2.244272 0
M  V30 32 H -0.931470 1.412153 -3.697886 0
M  V30 33 H 0.805699 2.879965 -2.778528 0
M  V30 34 H 2.327759 3.370252 -0.859389 0
M  V30 35 H 1.705739 1.213065 3.211536 0
M  V30 36 H 2.849405 0.182878 2.302497 0
M  V30 37 H 4.604951 0.909340 3.542012 0
M  V30 38 H 3.588885 2.083649 4.398231 0
M  V30 39 H 5.457771 2.417591 2.097574 0
M  V30 40 H 4.738301 3.626639 3.216966 0
M  V30 41 H 4.060449 3.259678 0.531056 0
M  V30 42 H 3.029543 4.089462 1.752832 0
M  V30 43 H -2.326922 -1.316323 1.091413 0
M  V30 44 H -4.005289 -1.914828 0.867454 0
M  V30 45 H -2.946111 -2.315834 3.083398 0
M  V30 46 H -3.593785 -3.801252 2.319102 0
M  V30 END ATOM
M  V30 BEGIN BOND
M  V30 1 1 1 2
M  V30 2 1 2 3
M  V30 3 1 3 4
M  V30 4 1 4 5
M  V30 5 1 5 6
M  V30 6 1 6 7
M  V30 7 2 7 8
M  V30 8 1 8 9
M  V30 9 2 9 10
M  V30 10 1 10 11
M  V30 11 2 11 12
M  V30 12 1 12 13
M  V30 13 1 13 14
M  V30 14 1 14 15
M  V30 15 1 15 16
M  V30 16 1 16 17
M  V30 17 1 17 18
M  V30 18 2 13 19
M  V30 19 1 19 20
M  V30 20 2 20 21
M  V30 21 1 5 22
M  V30 22 1 22 23
M  V30 23 1 23 2
M  V30 24 1 21 7
M  V30 25 1 20 10
M  V30 26 1 18 14
M  V30 27 1 1 24
M  V30 28 1 2 25 CFG=1
M  V30 29 1 3 26
M  V30 30 1 3 27
M  V30 31 1 4 28
M  V30 32 1 4 29
M  V30 33 1 5 30 CFG=3
M  V30 34 1 6 31
M  V30 35 1 9 32
M  V30 36 1 11 33
M  V30 37 1 12 34
M  V30 38 1 15 35
M  V30 39 1 15 36
M  V30 40 1 16 37
M  V30 41 1 16 38
M  V30 42 1 17 39
M  V30 43 1 17 40
M  V30 44 1 18 41
M  V30 45 1 18 42
M  V30 46 1 22 43
M  V30 47 1 22 44
M  V30 48 1 23 45
M  V30 49 1 23 46
M  V30 END BOND
M  V30 END CTAB
M  END
>  <Dataset>  (399) 
ChEMBL_Kinases

>  <Ligand_Instance>  (399) 
nan

>  <PDB_ID>  (399) 
nan

>  <Standardized_SMILES>  (399) 
O[C@H]1CC[C@H](Nc2ncc3ccc(N4CCCC4)nc3n2)CC1

>  <Name>  (399) 
nan

>  <Pocket>  (399) 
nan

>  <ATP_Site>  (399) 
nan

>  <Peripheral>  (399) 
nan

>  <Num_H_Atoms_ProtBoundConf>  (399) 
nan

>  <Num_Resolved_Atoms>  (399) 
nan

>  <Num_Not_Resolved_Atoms>  (399) 
nan

$$$$
CHEMBL3577123
     RDKit          3D

  0  0  0  0  0  0  0  0  0  0999 V3000
M  V30 BEGIN CTAB
M  V30 COUNTS 57 59 0 0 0
M  V30 BEGIN ATOM
M  V30 1 C 0.690638 -4.970534 6.448670 0
M  V30 2 N 2.071824 -4.747051 6.057772 0
M  V30 3 C 2.112491 -4.172674 4.771013 0
M  V30 4 N 2.088790 -2.824090 4.749337 0
M  V30 5 C 2.124024 -2.157935 3.557588 0
M  V30 6 C 2.184245 -2.918606 2.391012 0
M  V30 7 C 2.223570 -2.326325 1.130362 0
M  V30 8 C 2.283378 -3.098014 -0.020586 0
M  V30 9 C 2.316664 -2.284637 -1.231184 0
M  V30 10 C 1.472843 -1.212077 -1.396499 0
M  V30 11 C 1.428197 -0.390784 -2.492785 0
M  V30 12 N 0.577853 0.718882 -2.700272 0
M  V30 13 C -0.411093 1.250122 -1.861257 0
M  V30 14 O -0.630836 0.720232 -0.752938 0
M  V30 15 N -1.216017 2.373189 -2.161065 0
M  V30 16 C -2.223850 2.878819 -1.258938 0
M  V30 17 C -3.304761 1.884816 -0.934907 0
M  V30 18 C -4.317978 2.517559 0.021824 0
M  V30 19 C -3.618264 2.931620 1.300876 0
M  V30 20 C -5.307485 1.439044 0.370272 0
M  V30 21 C -5.037763 3.680471 -0.617082 0
M  V30 22 C 2.329311 -0.718749 -3.479006 0
M  V30 23 F 2.379607 0.022375 -4.614306 0
M  V30 24 C 3.195640 -1.783508 -3.361074 0
M  V30 25 C 3.206372 -2.584174 -2.239447 0
M  V30 26 C 4.159310 -3.721152 -2.158268 0
M  V30 27 C 2.304790 -4.475733 0.072012 0
M  V30 28 N 2.266272 -5.039166 1.299139 0
M  V30 29 C 2.208410 -4.311275 2.421218 0
M  V30 30 N 2.171456 -4.922863 3.631245 0
M  V30 31 H 0.101487 -5.510114 5.680024 0
M  V30 32 H 0.153774 -4.007967 6.622517 0
M  V30 33 H 0.669561 -5.528313 7.389576 0
M  V30 34 H 2.894445 -4.984382 6.656924 0
M  V30 35 H 2.107649 -1.069127 3.470483 0
M  V30 36 H 2.202641 -1.247359 1.162451 0
M  V30 37 H 0.800684 -1.026648 -0.576665 0
M  V30 38 H 0.651743 1.259873 -3.589124 0
M  V30 39 H -1.051593 2.847647 -3.098416 0
M  V30 40 H -1.722454 3.178846 -0.314297 0
M  V30 41 H -2.660630 3.801551 -1.688587 0
M  V30 42 H -2.913853 0.999312 -0.405978 0
M  V30 43 H -3.858379 1.567000 -1.820332 0
M  V30 44 H -2.656745 2.376525 1.344370 0
M  V30 45 H -3.349755 4.012445 1.312973 0
M  V30 46 H -4.288286 2.723404 2.150143 0
M  V30 47 H -6.333901 1.818081 0.544923 0
M  V30 48 H -5.404851 0.697040 -0.468274 0
M  V30 49 H -4.957134 0.843813 1.239802 0
M  V30 50 H -4.960172 3.543877 -1.711466 0
M  V30 51 H -6.116463 3.654369 -0.284117 0
M  V30 52 H -4.622501 4.646935 -0.293730 0
M  V30 53 H 3.876208 -1.985068 -4.171549 0
M  V30 54 H 4.495539 -3.940384 -1.124927 0
M  V30 55 H 5.090995 -3.345665 -2.675090 0
M  V30 56 H 3.834475 -4.606522 -2.725519 0
M  V30 57 H 2.351893 -4.990700 -0.877750 0
M  V30 END ATOM
M  V30 BEGIN BOND
M  V30 1 1 1 2
M  V30 2 1 2 3
M  V30 3 2 3 4
M  V30 4 1 4 5
M  V30 5 2 5 6
M  V30 6 1 6 7
M  V30 7 2 7 8
M  V30 8 1 8 9
M  V30 9 2 9 10
M  V30 10 1 10 11
M  V30 11 1 11 12
M  V30 12 1 12 13
M  V30 13 2 13 14
M  V30 14 1 13 15
M  V30 15 1 15 16
M  V30 16 1 16 17
M  V30 17 1 17 18
M  V30 18 1 18 19
M  V30 19 1 18 20
M  V30 20 1 18 21
M  V30 21 2 11 22
M  V30 22 1 22 23
M  V30 23 1 22 24
M  V30 24 2 24 25
M  V30 25 1 25 26
M  V30 26 1 8 27
M  V30 27 2 27 28
M  V30 28 1 28 29
M  V30 29 2 29 30
M  V30 30 1 30 3
M  V30 31 1 29 6
M  V30 32 1 25 9
M  V30 33 1 1 31
M  V30 34 1 1 32
M  V30 35 1 1 33
M  V30 36 1 2 34
M  V30 37 1 5 35
M  V30 38 1 7 36
M  V30 39 1 10 37
M  V30 40 1 12 38
M  V30 41 1 15 39
M  V30 42 1 16 40
M  V30 43 1 16 41
M  V30 44 1 17 42
M  V30 45 1 17 43
M  V30 46 1 19 44
M  V30 47 1 19 45
M  V30 48 1 19 46
M  V30 49 1 20 47
M  V30 50 1 20 48
M  V30 51 1 20 49
M  V30 52 1 21 50
M  V30 53 1 21 51
M  V30 54 1 21 52
M  V30 55 1 24 53
M  V30 56 1 26 54
M  V30 57 1 26 55
M  V30 58 1 26 56
M  V30 59 1 27 57
M  V30 END BOND
M  V30 END CTAB
M  END
>  <Dataset>  (400) 
ChEMBL_Kinases

>  <Ligand_Instance>  (400) 
nan

>  <PDB_ID>  (400) 
nan

>  <Standardized_SMILES>  (400) 
CNc1ncc2cc(-c3cc(NC(=O)NCCC(C)(C)C)c(F)cc3C)cnc2n1

>  <Name>  (400) 
nan

>  <Pocket>  (400) 
nan

>  <ATP_Site>  (400) 
nan

>  <Peripheral>  (400) 
nan

>  <Num_H_Atoms_ProtBoundConf>  (400) 
nan

>  <Num_Resolved_Atoms>  (400) 
nan

>  <Num_Not_Resolved_Atoms>  (400) 
nan

$$$$
CHEMBL3577121
     RDKit          3D

  0  0  0  0  0  0  0  0  0  0999 V3000
M  V30 BEGIN CTAB
M  V30 COUNTS 61 63 0 0 0
M  V30 BEGIN ATOM
M  V30 1 C 1.586926 -2.451433 8.544568 0
M  V30 2 N 2.150647 -3.333123 7.546259 0
M  V30 3 C 2.103605 -3.007440 6.159286 0
M  V30 4 C 3.096066 -2.288537 5.511751 0
M  V30 5 C 2.936935 -2.036326 4.167440 0
M  V30 6 N 3.871113 -1.343308 3.493566 0
M  V30 7 C 3.736319 -1.080819 2.162345 0
M  V30 8 C 4.748443 -0.314852 1.372639 0
M  V30 9 C 2.632661 -1.527256 1.491303 0
M  V30 10 C 2.351589 -1.323932 0.071175 0
M  V30 11 C 1.634451 -0.164513 -0.242833 0
M  V30 12 C 1.322686 0.107497 -1.577821 0
M  V30 13 N 0.580744 1.328849 -1.789867 0
M  V30 14 C -0.829077 1.107033 -1.737953 0
M  V30 15 O -1.113190 -0.089262 -1.521490 0
M  V30 16 N -1.774804 2.139698 -1.914474 0
M  V30 17 C -3.201732 1.890639 -1.858710 0
M  V30 18 C -3.561208 0.907473 -2.932075 0
M  V30 19 C -5.046527 0.588726 -2.947184 0
M  V30 20 C -5.239012 -0.413224 -4.083381 0
M  V30 21 C -5.477601 -0.061828 -1.669287 0
M  V30 22 C -5.837938 1.817258 -3.310049 0
M  V30 23 C 1.707608 -0.744090 -2.593508 0
M  V30 24 F 1.367532 -0.411037 -3.861997 0
M  V30 25 C 2.414330 -1.883803 -2.269237 0
M  V30 26 C 2.735201 -2.173992 -0.948128 0
M  V30 27 C 3.495564 -3.394124 -0.567767 0
M  V30 28 C 1.659199 -2.243687 2.170926 0
M  V30 29 C 1.800913 -2.505568 3.514991 0
M  V30 30 C 0.832624 -3.223466 4.211799 0
M  V30 31 N 1.007681 -3.459413 5.527091 0
M  V30 32 H 2.327670 -1.642926 8.769443 0
M  V30 33 H 0.674337 -1.942196 8.145456 0
M  V30 34 H 1.380017 -2.975176 9.485827 0
M  V30 35 H 2.623115 -4.247040 7.729860 0
M  V30 36 H 3.951478 -1.954040 6.077258 0
M  V30 37 H 4.305355 0.661123 1.086253 0
M  V30 38 H 5.666974 -0.099066 1.971715 0
M  V30 39 H 5.007426 -0.922715 0.478665 0
M  V30 40 H 1.320123 0.525110 0.556687 0
M  V30 41 H 0.953594 2.305395 -1.967796 0
M  V30 42 H -1.365708 3.100775 -2.089031 0
M  V30 43 H -3.356458 1.343634 -0.883861 0
M  V30 44 H -3.800915 2.793415 -1.853634 0
M  V30 45 H -3.053968 -0.069512 -2.809648 0
M  V30 46 H -3.311042 1.264594 -3.957969 0
M  V30 47 H -6.289457 -0.758285 -4.116417 0
M  V30 48 H -4.983359 0.094315 -5.055849 0
M  V30 49 H -4.564254 -1.298108 -3.965752 0
M  V30 50 H -4.577700 -0.532201 -1.180674 0
M  V30 51 H -6.178965 -0.915193 -1.851074 0
M  V30 52 H -5.892369 0.683418 -0.952703 0
M  V30 53 H -6.904813 1.589579 -3.356102 0
M  V30 54 H -5.479614 2.110079 -4.334623 0
M  V30 55 H -5.688318 2.672326 -2.646081 0
M  V30 56 H 2.718951 -2.555611 -3.062106 0
M  V30 57 H 2.789487 -4.218890 -0.318348 0
M  V30 58 H 4.071586 -3.185399 0.361440 0
M  V30 59 H 4.231243 -3.687454 -1.333191 0
M  V30 60 H 0.751168 -2.631914 1.701272 0
M  V30 61 H -0.045142 -3.580794 3.687032 0
M  V30 END ATOM
M  V30 BEGIN BOND
M  V30 1 1 1 2
M  V30 2 1 2 3
M  V30 3 2 3 4
M  V30 4 1 4 5
M  V30 5 2 5 6
M  V30 6 1 6 7
M  V30 7 1 7 8
M  V30 8 2 7 9
M  V30 9 1 9 10
M  V30 10 2 10 11
M  V30 11 1 11 12
M  V30 12 1 12 13
M  V30 13 1 13 14
M  V30 14 2 14 15
M  V30 15 1 14 16
M  V30 16 1 16 17
M  V30 17 1 17 18
M  V30 18 1 18 19
M  V30 19 1 19 20
M  V30 20 1 19 21
M  V30 21 1 19 22
M  V30 22 2 12 23
M  V30 23 1 23 24
M  V30 24 1 23 25
M  V30 25 2 25 26
M  V30 26 1 26 27
M  V30 27 1 9 28
M  V30 28 2 28 29
M  V30 29 1 29 30
M  V30 30 2 30 31
M  V30 31 1 31 3
M  V30 32 1 29 5
M  V30 33 1 26 10
M  V30 34 1 1 32
M  V30 35 1 1 33
M  V30 36 1 1 34
M  V30 37 1 2 35
M  V30 38 1 4 36
M  V30 39 1 8 37
M  V30 40 1 8 38
M  V30 41 1 8 39
M  V30 42 1 11 40
M  V30 43 1 13 41
M  V30 44 1 16 42
M  V30 45 1 17 43
M  V30 46 1 17 44
M  V30 47 1 18 45
M  V30 48 1 18 46
M  V30 49 1 20 47
M  V30 50 1 20 48
M  V30 51 1 20 49
M  V30 52 1 21 50
M  V30 53 1 21 51
M  V30 54 1 21 52
M  V30 55 1 22 53
M  V30 56 1 22 54
M  V30 57 1 22 55
M  V30 58 1 25 56
M  V30 59 1 27 57
M  V30 60 1 27 58
M  V30 61 1 27 59
M  V30 62 1 28 60
M  V30 63 1 30 61
M  V30 END BOND
M  V30 END CTAB
M  END
>  <Dataset>  (401) 
ChEMBL_Kinases

>  <Ligand_Instance>  (401) 
nan

>  <PDB_ID>  (401) 
nan

>  <Standardized_SMILES>  (401) 
CNc1cc2nc(C)c(-c3cc(NC(=O)NCCC(C)(C)C)c(F)cc3C)cc2cn1

>  <Name>  (401) 
nan

>  <Pocket>  (401) 
nan

>  <ATP_Site>  (401) 
nan

>  <Peripheral>  (401) 
nan

>  <Num_H_Atoms_ProtBoundConf>  (401) 
nan

>  <Num_Resolved_Atoms>  (401) 
nan

>  <Num_Not_Resolved_Atoms>  (401) 
nan

$$$$
CHEMBL3577120
     RDKit          3D

  0  0  0  0  0  0  0  0  0  0999 V3000
M  V30 BEGIN CTAB
M  V30 COUNTS 58 60 0 0 0
M  V30 BEGIN ATOM
M  V30 1 C 4.431638 -0.788946 8.101534 0
M  V30 2 N 5.441785 -0.944803 7.089079 0
M  V30 3 C 4.869990 -0.936308 5.769959 0
M  V30 4 C 4.769125 0.314532 5.161725 0
M  V30 5 C 4.215996 0.338401 3.881044 0
M  V30 6 N 4.079503 1.517469 3.212507 0
M  V30 7 C 3.551488 1.587325 1.975915 0
M  V30 8 C 3.399230 2.864440 1.241615 0
M  V30 9 C 3.119682 0.448989 1.323873 0
M  V30 10 C 2.531319 0.384606 -0.010912 0
M  V30 11 C 2.983999 1.032410 -1.140573 0
M  V30 12 C 2.330950 0.884885 -2.348410 0
M  V30 13 C 1.199283 0.080144 -2.461770 0
M  V30 14 F 0.637246 0.006629 -3.694165 0
M  V30 15 C 0.747280 -0.568316 -1.327961 0
M  V30 16 N -0.409346 -1.368265 -1.525782 0
M  V30 17 C -1.749454 -0.943471 -1.393647 0
M  V30 18 O -1.882610 0.279718 -1.064679 0
M  V30 19 N -2.937483 -1.744016 -1.591306 0
M  V30 20 C -4.079283 -0.927493 -1.356927 0
M  V30 21 C -5.407765 -1.574659 -1.522447 0
M  V30 22 C -5.727253 -2.092916 -2.889440 0
M  V30 23 C -7.130382 -2.717547 -2.902389 0
M  V30 24 C -4.795076 -3.197971 -3.290373 0
M  V30 25 C -5.661942 -0.962411 -3.909534 0
M  V30 26 C 1.395213 -0.424250 -0.121240 0
M  V30 27 C 3.253310 -0.762185 1.995514 0
M  V30 28 C 3.794425 -0.845736 3.266361 0
M  V30 29 C 3.919834 -2.064889 3.921572 0
M  V30 30 N 4.460590 -2.084058 5.172366 0
M  V30 31 H 4.039049 0.262017 8.057504 0
M  V30 32 H 3.552414 -1.445396 7.940392 0
M  V30 33 H 4.804664 -0.910624 9.126330 0
M  V30 34 H 6.474389 -1.053948 7.245683 0
M  V30 35 H 5.099078 1.212779 5.651415 0
M  V30 36 H 2.524976 2.869039 0.566375 0
M  V30 37 H 3.197148 3.660782 2.015935 0
M  V30 38 H 4.348837 3.174077 0.772452 0
M  V30 39 H 3.859611 1.643283 -1.010237 0
M  V30 40 H 2.793713 1.449815 -3.152411 0
M  V30 41 H -0.274086 -2.365856 -1.794337 0
M  V30 42 H -2.593050 -2.715742 -1.849707 0
M  V30 43 H -3.986548 -0.518068 -0.304549 0
M  V30 44 H -4.010506 -0.040041 -2.033546 0
M  V30 45 H -6.201491 -0.817313 -1.263670 0
M  V30 46 H -5.572999 -2.411479 -0.787741 0
M  V30 47 H -7.881241 -1.924353 -2.798078 0
M  V30 48 H -7.295130 -3.236120 -3.868134 0
M  V30 49 H -7.187649 -3.476190 -2.102022 0
M  V30 50 H -3.884673 -2.834592 -3.799318 0
M  V30 51 H -4.593281 -3.823863 -2.408342 0
M  V30 52 H -5.351917 -3.830691 -4.043375 0
M  V30 53 H -6.361958 -1.150282 -4.761462 0
M  V30 54 H -4.644660 -0.838300 -4.327799 0
M  V30 55 H -5.912058 -0.005407 -3.422643 0
M  V30 56 H 0.925234 -0.995358 0.685911 0
M  V30 57 H 2.937233 -1.718228 1.555120 0
M  V30 58 H 3.588216 -2.989098 3.436007 0
M  V30 END ATOM
M  V30 BEGIN BOND
M  V30 1 1 1 2
M  V30 2 1 2 3
M  V30 3 2 3 4
M  V30 4 1 4 5
M  V30 5 2 5 6
M  V30 6 1 6 7
M  V30 7 1 7 8
M  V30 8 2 7 9
M  V30 9 1 9 10
M  V30 10 2 10 11
M  V30 11 1 11 12
M  V30 12 2 12 13
M  V30 13 1 13 14
M  V30 14 1 13 15
M  V30 15 1 15 16
M  V30 16 1 16 17
M  V30 17 2 17 18
M  V30 18 1 17 19
M  V30 19 1 19 20
M  V30 20 1 20 21
M  V30 21 1 21 22
M  V30 22 1 22 23
M  V30 23 1 22 24
M  V30 24 1 22 25
M  V30 25 2 15 26
M  V30 26 1 9 27
M  V30 27 2 27 28
M  V30 28 1 28 29
M  V30 29 2 29 30
M  V30 30 1 30 3
M  V30 31 1 28 5
M  V30 32 1 26 10
M  V30 33 1 1 31
M  V30 34 1 1 32
M  V30 35 1 1 33
M  V30 36 1 2 34
M  V30 37 1 4 35
M  V30 38 1 8 36
M  V30 39 1 8 37
M  V30 40 1 8 38
M  V30 41 1 11 39
M  V30 42 1 12 40
M  V30 43 1 16 41
M  V30 44 1 19 42
M  V30 45 1 20 43
M  V30 46 1 20 44
M  V30 47 1 21 45
M  V30 48 1 21 46
M  V30 49 1 23 47
M  V30 50 1 23 48
M  V30 51 1 23 49
M  V30 52 1 24 50
M  V30 53 1 24 51
M  V30 54 1 24 52
M  V30 55 1 25 53
M  V30 56 1 25 54
M  V30 57 1 25 55
M  V30 58 1 26 56
M  V30 59 1 27 57
M  V30 60 1 29 58
M  V30 END BOND
M  V30 END CTAB
M  END
>  <Dataset>  (402) 
ChEMBL_Kinases

>  <Ligand_Instance>  (402) 
nan

>  <PDB_ID>  (402) 
nan

>  <Standardized_SMILES>  (402) 
CNc1cc2nc(C)c(-c3ccc(F)c(NC(=O)NCCC(C)(C)C)c3)cc2cn1

>  <Name>  (402) 
nan

>  <Pocket>  (402) 
nan

>  <ATP_Site>  (402) 
nan

>  <Peripheral>  (402) 
nan

>  <Num_H_Atoms_ProtBoundConf>  (402) 
nan

>  <Num_Resolved_Atoms>  (402) 
nan

>  <Num_Not_Resolved_Atoms>  (402) 
nan

$$$$
CHEMBL3577119
     RDKit          3D

  0  0  0  0  0  0  0  0  0  0999 V3000
M  V30 BEGIN CTAB
M  V30 COUNTS 57 59 0 0 0
M  V30 BEGIN ATOM
M  V30 1 C 6.167500 -2.348836 6.973492 0
M  V30 2 N 5.489079 -1.059090 6.836756 0
M  V30 3 C 4.890940 -0.672566 5.603714 0
M  V30 4 N 4.249615 0.519762 5.437011 0
M  V30 5 C 3.693111 0.840351 4.231551 0
M  V30 6 C 3.781160 -0.047791 3.178142 0
M  V30 7 C 3.229865 0.240742 1.940113 0
M  V30 8 C 3.304503 -0.641542 0.854327 0
M  V30 9 C 2.692760 -0.234254 -0.404497 0
M  V30 10 C 3.228026 -0.310011 -1.672109 0
M  V30 11 C 2.527872 0.113050 -2.780989 0
M  V30 12 C 1.263020 0.619383 -2.580326 0
M  V30 13 F 0.642001 1.015248 -3.739889 0
M  V30 14 C 0.696182 0.710768 -1.332328 0
M  V30 15 N -0.616424 1.263010 -1.352738 0
M  V30 16 C -1.598378 0.234441 -1.502040 0
M  V30 17 O -1.316258 -0.989906 -1.600060 0
M  V30 18 N -3.003448 0.535400 -1.551327 0
M  V30 19 C -3.999526 -0.529514 -1.704454 0
M  V30 20 C -5.398847 0.036376 -1.729327 0
M  V30 21 C -6.355074 -1.131494 -1.889769 0
M  V30 22 C -7.788058 -0.685762 -1.927624 0
M  V30 23 C -5.983288 -1.869455 -3.158953 0
M  V30 24 C -6.182733 -2.048503 -0.707237 0
M  V30 25 C 1.415492 0.281164 -0.236362 0
M  V30 26 C 3.968565 -1.824618 1.104157 0
M  V30 27 C 4.072659 -2.785411 0.003979 0
M  V30 28 N 4.501556 -2.098032 2.309041 0
M  V30 29 C 4.431881 -1.253280 3.353621 0
M  V30 30 N 4.964123 -1.524290 4.559486 0
M  V30 31 H 5.618782 -2.887037 7.780552 0
M  V30 32 H 5.940780 -2.949107 6.044469 0
M  V30 33 H 7.242259 -2.237819 7.152217 0
M  V30 34 H 5.460636 -0.436771 7.673277 0
M  V30 35 H 3.190211 1.786099 4.116852 0
M  V30 36 H 2.720066 1.200897 1.825681 0
M  V30 37 H 4.225872 -0.719608 -1.723091 0
M  V30 38 H 3.005246 0.026517 -3.749432 0
M  V30 39 H -0.933028 2.271381 -1.276299 0
M  V30 40 H -3.266376 1.545001 -1.472371 0
M  V30 41 H -3.861932 -1.172338 -0.814013 0
M  V30 42 H -3.742032 -1.050211 -2.649424 0
M  V30 43 H -5.532213 0.830706 -2.461510 0
M  V30 44 H -5.599240 0.477009 -0.731235 0
M  V30 45 H -8.399754 -1.081940 -1.099091 0
M  V30 46 H -8.239301 -1.032432 -2.883748 0
M  V30 47 H -7.820311 0.421040 -1.872604 0
M  V30 48 H -6.839906 -2.526302 -3.420797 0
M  V30 49 H -5.777191 -1.108234 -3.946421 0
M  V30 50 H -5.113510 -2.529055 -2.961132 0
M  V30 51 H -6.035279 -1.492934 0.243545 0
M  V30 52 H -5.346343 -2.763605 -0.846860 0
M  V30 53 H -7.092202 -2.702548 -0.600468 0
M  V30 54 H 0.882804 0.392996 0.714874 0
M  V30 55 H 5.033701 -2.625748 -0.524232 0
M  V30 56 H 3.265142 -2.677154 -0.738861 0
M  V30 57 H 4.107258 -3.827896 0.395850 0
M  V30 END ATOM
M  V30 BEGIN BOND
M  V30 1 1 1 2
M  V30 2 1 2 3
M  V30 3 2 3 4
M  V30 4 1 4 5
M  V30 5 2 5 6
M  V30 6 1 6 7
M  V30 7 2 7 8
M  V30 8 1 8 9
M  V30 9 2 9 10
M  V30 10 1 10 11
M  V30 11 2 11 12
M  V30 12 1 12 13
M  V30 13 1 12 14
M  V30 14 1 14 15
M  V30 15 1 15 16
M  V30 16 2 16 17
M  V30 17 1 16 18
M  V30 18 1 18 19
M  V30 19 1 19 20
M  V30 20 1 20 21
M  V30 21 1 21 22
M  V30 22 1 21 23
M  V30 23 1 21 24
M  V30 24 2 14 25
M  V30 25 1 8 26
M  V30 26 1 26 27
M  V30 27 2 26 28
M  V30 28 1 28 29
M  V30 29 2 29 30
M  V30 30 1 30 3
M  V30 31 1 29 6
M  V30 32 1 25 9
M  V30 33 1 1 31
M  V30 34 1 1 32
M  V30 35 1 1 33
M  V30 36 1 2 34
M  V30 37 1 5 35
M  V30 38 1 7 36
M  V30 39 1 10 37
M  V30 40 1 11 38
M  V30 41 1 15 39
M  V30 42 1 18 40
M  V30 43 1 19 41
M  V30 44 1 19 42
M  V30 45 1 20 43
M  V30 46 1 20 44
M  V30 47 1 22 45
M  V30 48 1 22 46
M  V30 49 1 22 47
M  V30 50 1 23 48
M  V30 51 1 23 49
M  V30 52 1 23 50
M  V30 53 1 24 51
M  V30 54 1 24 52
M  V30 55 1 24 53
M  V30 56 1 25 54
M  V30 57 1 27 55
M  V30 58 1 27 56
M  V30 59 1 27 57
M  V30 END BOND
M  V30 END CTAB
M  END
>  <Dataset>  (403) 
ChEMBL_Kinases

>  <Ligand_Instance>  (403) 
nan

>  <PDB_ID>  (403) 
nan

>  <Standardized_SMILES>  (403) 
CNc1ncc2cc(-c3ccc(F)c(NC(=O)NCCC(C)(C)C)c3)c(C)nc2n1

>  <Name>  (403) 
nan

>  <Pocket>  (403) 
nan

>  <ATP_Site>  (403) 
nan

>  <Peripheral>  (403) 
nan

>  <Num_H_Atoms_ProtBoundConf>  (403) 
nan

>  <Num_Resolved_Atoms>  (403) 
nan

>  <Num_Not_Resolved_Atoms>  (403) 
nan

$$$$
CHEMBL3577118
     RDKit          3D

  0  0  0  0  0  0  0  0  0  0999 V3000
M  V30 BEGIN CTAB
M  V30 COUNTS 61 63 0 0 0
M  V30 BEGIN ATOM
M  V30 1 C 1.591389 -3.404817 8.363475 0
M  V30 2 N 2.564450 -4.024639 7.496070 0
M  V30 3 C 2.540673 -3.550389 6.162614 0
M  V30 4 C 3.284730 -2.473910 5.677374 0
M  V30 5 C 3.139167 -2.145894 4.343868 0
M  V30 6 N 3.851583 -1.109841 3.865075 0
M  V30 7 C 3.784632 -0.706557 2.582315 0
M  V30 8 C 4.512680 0.402663 1.959224 0
M  V30 9 C 2.947392 -1.386803 1.719958 0
M  V30 10 C 2.701845 -1.144488 0.295360 0
M  V30 11 C 1.669288 -0.269538 0.018165 0
M  V30 12 C 1.342133 0.038436 -1.289557 0
M  V30 13 N 0.298092 0.926382 -1.699177 0
M  V30 14 C -1.055927 0.497424 -1.949675 0
M  V30 15 O -1.293396 -0.719865 -1.790748 0
M  V30 16 N -2.038989 1.437065 -2.353771 0
M  V30 17 C -3.353295 0.841233 -2.565061 0
M  V30 18 C -4.389176 1.855705 -2.995175 0
M  V30 19 C -5.705909 1.094686 -3.177721 0
M  V30 20 C -6.807769 2.036671 -3.610895 0
M  V30 21 C -5.466628 0.029736 -4.219271 0
M  V30 22 C -6.127380 0.478563 -1.848689 0
M  V30 23 C 2.090941 -0.565344 -2.307505 0
M  V30 24 C 3.123994 -1.441000 -2.018846 0
M  V30 25 C 3.439313 -1.739079 -0.709015 0
M  V30 26 C 4.539773 -2.673171 -0.350160 0
M  V30 27 C 2.190695 -2.468892 2.179818 0
M  V30 28 C 2.290403 -2.852823 3.515567 0
M  V30 29 C 1.557445 -3.927836 4.032263 0
M  V30 30 N 1.724533 -4.216508 5.329979 0
M  V30 31 H 0.671203 -3.111041 7.824000 0
M  V30 32 H 1.266737 -4.128511 9.166633 0
M  V30 33 H 1.994355 -2.510736 8.881584 0
M  V30 34 H 3.237557 -4.749414 7.769506 0
M  V30 35 H 3.928646 -1.967245 6.384393 0
M  V30 36 H 5.412001 -0.047970 1.451809 0
M  V30 37 H 3.909559 1.010132 1.279380 0
M  V30 38 H 4.943422 1.019890 2.793471 0
M  V30 39 H 1.063832 0.219783 0.796715 0
M  V30 40 H 0.550805 1.938189 -1.817932 0
M  V30 41 H -1.714209 2.432192 -2.452163 0
M  V30 42 H -3.729147 0.292180 -1.681187 0
M  V30 43 H -3.226811 0.084674 -3.381220 0
M  V30 44 H -4.552093 2.583764 -2.174353 0
M  V30 45 H -4.133594 2.357264 -3.926636 0
M  V30 46 H -6.881482 1.966023 -4.716437 0
M  V30 47 H -6.542226 3.057898 -3.270996 0
M  V30 48 H -7.759540 1.699361 -3.154545 0
M  V30 49 H -4.728486 0.349330 -4.982328 0
M  V30 50 H -6.424114 -0.313076 -4.700295 0
M  V30 51 H -5.043163 -0.905033 -3.747899 0
M  V30 52 H -7.238188 0.361570 -1.791375 0
M  V30 53 H -5.852706 1.157639 -0.999443 0
M  V30 54 H -5.700823 -0.533898 -1.739528 0
M  V30 55 H 1.952742 -0.422653 -3.359514 0
M  V30 56 H 3.726553 -1.928636 -2.767504 0
M  V30 57 H 5.526804 -2.185107 -0.472861 0
M  V30 58 H 4.376530 -3.111658 0.651008 0
M  V30 59 H 4.580479 -3.561330 -1.045021 0
M  V30 60 H 1.505871 -3.074189 1.604117 0
M  V30 61 H 0.904986 -4.457176 3.358193 0
M  V30 END ATOM
M  V30 BEGIN BOND
M  V30 1 1 1 2
M  V30 2 1 2 3
M  V30 3 2 3 4
M  V30 4 1 4 5
M  V30 5 2 5 6
M  V30 6 1 6 7
M  V30 7 1 7 8
M  V30 8 2 7 9
M  V30 9 1 9 10
M  V30 10 2 10 11
M  V30 11 1 11 12
M  V30 12 1 12 13
M  V30 13 1 13 14
M  V30 14 2 14 15
M  V30 15 1 14 16
M  V30 16 1 16 17
M  V30 17 1 17 18
M  V30 18 1 18 19
M  V30 19 1 19 20
M  V30 20 1 19 21
M  V30 21 1 19 22
M  V30 22 2 12 23
M  V30 23 1 23 24
M  V30 24 2 24 25
M  V30 25 1 25 26
M  V30 26 1 9 27
M  V30 27 2 27 28
M  V30 28 1 28 29
M  V30 29 2 29 30
M  V30 30 1 30 3
M  V30 31 1 28 5
M  V30 32 1 25 10
M  V30 33 1 1 31
M  V30 34 1 1 32
M  V30 35 1 1 33
M  V30 36 1 2 34
M  V30 37 1 4 35
M  V30 38 1 8 36
M  V30 39 1 8 37
M  V30 40 1 8 38
M  V30 41 1 11 39
M  V30 42 1 13 40
M  V30 43 1 16 41
M  V30 44 1 17 42
M  V30 45 1 17 43
M  V30 46 1 18 44
M  V30 47 1 18 45
M  V30 48 1 20 46
M  V30 49 1 20 47
M  V30 50 1 20 48
M  V30 51 1 21 49
M  V30 52 1 21 50
M  V30 53 1 21 51
M  V30 54 1 22 52
M  V30 55 1 22 53
M  V30 56 1 22 54
M  V30 57 1 23 55
M  V30 58 1 24 56
M  V30 59 1 26 57
M  V30 60 1 26 58
M  V30 61 1 26 59
M  V30 62 1 27 60
M  V30 63 1 29 61
M  V30 END BOND
M  V30 END CTAB
M  END
>  <Dataset>  (404) 
ChEMBL_Kinases

>  <Ligand_Instance>  (404) 
nan

>  <PDB_ID>  (404) 
nan

>  <Standardized_SMILES>  (404) 
CNc1cc2nc(C)c(-c3cc(NC(=O)NCCC(C)(C)C)ccc3C)cc2cn1

>  <Name>  (404) 
nan

>  <Pocket>  (404) 
nan

>  <ATP_Site>  (404) 
nan

>  <Peripheral>  (404) 
nan

>  <Num_H_Atoms_ProtBoundConf>  (404) 
nan

>  <Num_Resolved_Atoms>  (404) 
nan

>  <Num_Not_Resolved_Atoms>  (404) 
nan

$$$$
CHEMBL3577117
     RDKit          3D

  0  0  0  0  0  0  0  0  0  0999 V3000
M  V30 BEGIN CTAB
M  V30 COUNTS 62 64 0 0 0
M  V30 BEGIN ATOM
M  V30 1 C 3.179074 -2.857196 8.682888 0
M  V30 2 N 2.454072 -1.720211 8.131972 0
M  V30 3 C 2.227561 -1.689668 6.721072 0
M  V30 4 C 3.143880 -1.090415 5.853756 0
M  V30 5 C 2.886771 -1.082785 4.497893 0
M  V30 6 N 3.748090 -0.514847 3.640341 0
M  V30 7 C 3.536065 -0.484958 2.307587 0
M  V30 8 C 4.414481 0.110256 1.287046 0
M  V30 9 C 2.405306 -1.052930 1.817361 0
M  V30 10 C 1.940582 -1.154675 0.418283 0
M  V30 11 C 1.151660 -0.081086 0.008175 0
M  V30 12 C 0.653866 -0.053490 -1.275026 0
M  V30 13 N -0.161615 1.067723 -1.680580 0
M  V30 14 C -1.526530 0.779923 -1.399092 0
M  V30 15 O -1.824578 -0.343504 -0.867087 0
M  V30 16 N -2.593357 1.678633 -1.677595 0
M  V30 17 C -3.985234 1.426405 -1.408847 0
M  V30 18 C -4.499146 0.233239 -2.130993 0 CFG=1
M  V30 19 O -5.866293 0.004599 -1.821084 0
M  V30 20 C -4.400194 0.267282 -3.623352 0
M  V30 21 C -4.999065 -1.051730 -4.159737 0
M  V30 22 C -5.243388 1.366830 -4.221664 0
M  V30 23 C -3.014447 0.342735 -4.173756 0
M  V30 24 C 0.949048 -1.099973 -2.138098 0
M  V30 25 F 0.456876 -1.068021 -3.399431 0
M  V30 26 C 1.733347 -2.157457 -1.714908 0
M  V30 27 C 2.242609 -2.205596 -0.433523 0
M  V30 28 C 3.093113 -3.295746 0.114586 0
M  V30 29 C 1.473609 -1.658798 2.667851 0
M  V30 30 C 1.710374 -1.679407 4.039962 0
M  V30 31 C 0.827844 -2.264555 4.948024 0
M  V30 32 N 1.081564 -2.270414 6.270830 0
M  V30 33 H 2.765607 -3.822130 8.298502 0
M  V30 34 H 3.070654 -2.917483 9.781992 0
M  V30 35 H 4.249588 -2.823771 8.434753 0
M  V30 36 H 2.085192 -0.916747 8.710047 0
M  V30 37 H 4.041762 -0.639250 6.241583 0
M  V30 38 H 4.448077 -0.518364 0.365044 0
M  V30 39 H 4.051738 1.111929 0.936780 0
M  V30 40 H 5.439126 0.188493 1.705223 0
M  V30 41 H 0.906264 0.751152 0.666164 0
M  V30 42 H 0.078651 1.969269 -2.107632 0
M  V30 43 H -2.269265 2.594554 -2.112427 0
M  V30 44 H -4.550464 2.355382 -1.628349 0
M  V30 45 H -4.037845 1.182243 -0.311410 0
M  V30 46 H -3.978180 -0.681399 -1.792132 0
M  V30 47 H -5.866480 -0.249865 -0.868629 0
M  V30 48 H -4.222815 -1.830209 -4.136862 0
M  V30 49 H -5.925287 -1.311777 -3.620338 0
M  V30 50 H -5.248349 -0.895697 -5.236576 0
M  V30 51 H -6.218191 1.432503 -3.670701 0
M  V30 52 H -5.520949 1.060589 -5.261762 0
M  V30 53 H -4.725778 2.338127 -4.238468 0
M  V30 54 H -2.398178 -0.521445 -3.804417 0
M  V30 55 H -3.104843 0.126775 -5.282357 0
M  V30 56 H -2.496816 1.292568 -4.072933 0
M  V30 57 H 1.978879 -2.988521 -2.370723 0
M  V30 58 H 4.126551 -2.893628 0.139367 0
M  V30 59 H 3.028356 -4.223383 -0.486146 0
M  V30 60 H 2.825461 -3.533033 1.153864 0
M  V30 61 H 0.545466 -2.138810 2.391064 0
M  V30 62 H -0.075060 -2.720475 4.578333 0
M  V30 END ATOM
M  V30 BEGIN BOND
M  V30 1 1 1 2
M  V30 2 1 2 3
M  V30 3 2 3 4
M  V30 4 1 4 5
M  V30 5 2 5 6
M  V30 6 1 6 7
M  V30 7 1 7 8
M  V30 8 2 7 9
M  V30 9 1 9 10
M  V30 10 2 10 11
M  V30 11 1 11 12
M  V30 12 1 12 13
M  V30 13 1 13 14
M  V30 14 2 14 15
M  V30 15 1 14 16
M  V30 16 1 16 17
M  V30 17 1 17 18
M  V30 18 1 18 19
M  V30 19 1 18 20
M  V30 20 1 20 21
M  V30 21 1 20 22
M  V30 22 1 20 23
M  V30 23 2 12 24
M  V30 24 1 24 25
M  V30 25 1 24 26
M  V30 26 2 26 27
M  V30 27 1 27 28
M  V30 28 1 9 29
M  V30 29 2 29 30
M  V30 30 1 30 31
M  V30 31 2 31 32
M  V30 32 1 32 3
M  V30 33 1 30 5
M  V30 34 1 27 10
M  V30 35 1 1 33
M  V30 36 1 1 34
M  V30 37 1 1 35
M  V30 38 1 2 36
M  V30 39 1 4 37
M  V30 40 1 8 38
M  V30 41 1 8 39
M  V30 42 1 8 40
M  V30 43 1 11 41
M  V30 44 1 13 42
M  V30 45 1 16 43
M  V30 46 1 17 44
M  V30 47 1 17 45
M  V30 48 1 18 46 CFG=1
M  V30 49 1 19 47
M  V30 50 1 21 48
M  V30 51 1 21 49
M  V30 52 1 21 50
M  V30 53 1 22 51
M  V30 54 1 22 52
M  V30 55 1 22 53
M  V30 56 1 23 54
M  V30 57 1 23 55
M  V30 58 1 23 56
M  V30 59 1 26 57
M  V30 60 1 28 58
M  V30 61 1 28 59
M  V30 62 1 28 60
M  V30 63 1 29 61
M  V30 64 1 31 62
M  V30 END BOND
M  V30 END CTAB
M  END
>  <Dataset>  (405) 
ChEMBL_Kinases

>  <Ligand_Instance>  (405) 
nan

>  <PDB_ID>  (405) 
nan

>  <Standardized_SMILES>  (405) 
CNc1cc2nc(C)c(-c3cc(NC(=O)NC[C@@H](O)C(C)(C)C)c(F)cc3C)cc2cn1

>  <Name>  (405) 
nan

>  <Pocket>  (405) 
nan

>  <ATP_Site>  (405) 
nan

>  <Peripheral>  (405) 
nan

>  <Num_H_Atoms_ProtBoundConf>  (405) 
nan

>  <Num_Resolved_Atoms>  (405) 
nan

>  <Num_Not_Resolved_Atoms>  (405) 
nan

$$$$
CHEMBL3577116
     RDKit          3D

  0  0  0  0  0  0  0  0  0  0999 V3000
M  V30 BEGIN CTAB
M  V30 COUNTS 65 67 0 0 0
M  V30 BEGIN ATOM
M  V30 1 C 1.825561 -0.408047 5.920937 0
M  V30 2 C 1.383289 0.232637 4.662241 0
M  V30 3 N 1.008041 -0.657360 3.585227 0
M  V30 4 C 2.018631 -1.025909 2.729841 0
M  V30 5 O 3.211540 -0.694514 2.841079 0
M  V30 6 C 1.631971 -1.827811 1.684330 0
M  V30 7 C 2.537537 -2.133142 0.591491 0
M  V30 8 C 2.318806 -0.990449 -0.258915 0
M  V30 9 C 2.912999 -0.696046 -1.501047 0
M  V30 10 N 2.493831 0.556366 -2.087450 0
M  V30 11 C 1.082166 0.705070 -2.068304 0
M  V30 12 O 0.268780 -0.231917 -1.669448 0
M  V30 13 N 0.258240 1.792102 -2.421185 0
M  V30 14 C -1.017003 2.355576 -2.571639 0
M  V30 15 C -1.900436 1.795273 -3.593848 0
M  V30 16 C -2.350146 0.391231 -3.592022 0
M  V30 17 C -3.072773 -0.067307 -2.340986 0
M  V30 18 C -1.417416 -0.610033 -4.197337 0
M  V30 19 C -3.544535 0.420278 -4.646385 0
M  V30 20 C 3.824823 -1.655990 -1.927609 0
M  V30 21 F 4.405443 -1.415363 -3.095073 0
M  V30 22 C 4.054915 -2.743792 -1.142422 0
M  V30 23 C 3.455878 -2.992681 0.057896 0
M  V30 24 C 3.596006 -4.090695 1.032489 0
M  V30 25 C 0.322060 -2.283509 1.445242 0
M  V30 26 C -0.659081 -1.869758 2.359364 0
M  V30 27 C -1.916885 -2.302392 2.059831 0
M  V30 28 N -2.903535 -1.893419 2.875081 0
M  V30 29 C -2.613628 -1.085509 3.941546 0
M  V30 30 N -3.481836 -0.490848 4.894419 0
M  V30 31 C -4.344143 0.097155 5.835669 0
M  V30 32 C -1.296542 -0.674722 4.200225 0
M  V30 33 C -0.255125 -1.067412 3.389226 0
M  V30 34 H 1.320175 0.121399 6.787542 0
M  V30 35 H 1.615655 -1.466253 6.056453 0
M  V30 36 H 2.924315 -0.175085 6.092133 0
M  V30 37 H 0.623149 1.014952 4.863365 0
M  V30 38 H 2.305625 0.800866 4.267249 0
M  V30 39 H 1.621443 -0.186654 0.049258 0
M  V30 40 H 3.021030 1.335587 -2.496282 0
M  V30 41 H 0.976409 2.542777 -2.727257 0
M  V30 42 H -0.983309 3.487031 -2.579324 0
M  V30 43 H -1.550329 2.222313 -1.523884 0
M  V30 44 H -1.493204 1.975484 -4.638620 0
M  V30 45 H -2.843992 2.467762 -3.622338 0
M  V30 46 H -2.440733 -0.837594 -1.858060 0
M  V30 47 H -4.055149 -0.537707 -2.545565 0
M  V30 48 H -3.272073 0.770062 -1.650235 0
M  V30 49 H -1.367595 -1.591918 -3.688509 0
M  V30 50 H -0.411229 -0.169574 -4.303134 0
M  V30 51 H -1.748322 -0.874721 -5.234478 0
M  V30 52 H -4.186683 1.235534 -4.295406 0
M  V30 53 H -3.988459 -0.564422 -4.681329 0
M  V30 54 H -3.018623 0.739021 -5.550379 0
M  V30 55 H 4.743955 -3.504370 -1.440276 0
M  V30 56 H 4.544501 -4.626249 0.822926 0
M  V30 57 H 3.636844 -3.791995 2.085873 0
M  V30 58 H 2.790975 -4.871990 0.912240 0
M  V30 59 H 0.058437 -2.912067 0.607834 0
M  V30 60 H -2.177415 -2.939910 1.238928 0
M  V30 61 H -4.330482 -0.549793 4.223401 0
M  V30 62 H -5.404689 -0.194070 5.778579 0
M  V30 63 H -4.045085 -0.138445 6.919443 0
M  V30 64 H -4.352275 1.213700 5.696985 0
M  V30 65 H -1.031360 -0.038538 5.045193 0
M  V30 END ATOM
M  V30 BEGIN BOND
M  V30 1 1 1 2
M  V30 2 1 2 3
M  V30 3 1 3 4
M  V30 4 2 4 5
M  V30 5 1 4 6
M  V30 6 1 6 7
M  V30 7 2 7 8
M  V30 8 1 8 9
M  V30 9 1 9 10
M  V30 10 1 10 11
M  V30 11 2 11 12
M  V30 12 1 11 13
M  V30 13 1 13 14
M  V30 14 1 14 15
M  V30 15 1 15 16
M  V30 16 1 16 17
M  V30 17 1 16 18
M  V30 18 1 16 19
M  V30 19 2 9 20
M  V30 20 1 20 21
M  V30 21 1 20 22
M  V30 22 2 22 23
M  V30 23 1 23 24
M  V30 24 2 6 25
M  V30 25 1 25 26
M  V30 26 2 26 27
M  V30 27 1 27 28
M  V30 28 2 28 29
M  V30 29 1 29 30
M  V30 30 1 30 31
M  V30 31 1 29 32
M  V30 32 2 32 33
M  V30 33 1 33 3
M  V30 34 1 23 7
M  V30 35 1 33 26
M  V30 36 1 1 34
M  V30 37 1 1 35
M  V30 38 1 1 36
M  V30 39 1 2 37
M  V30 40 1 2 38
M  V30 41 1 8 39
M  V30 42 1 10 40
M  V30 43 1 13 41
M  V30 44 1 14 42
M  V30 45 1 14 43
M  V30 46 1 15 44
M  V30 47 1 15 45
M  V30 48 1 17 46
M  V30 49 1 17 47
M  V30 50 1 17 48
M  V30 51 1 18 49
M  V30 52 1 18 50
M  V30 53 1 18 51
M  V30 54 1 19 52
M  V30 55 1 19 53
M  V30 56 1 19 54
M  V30 57 1 22 55
M  V30 58 1 24 56
M  V30 59 1 24 57
M  V30 60 1 24 58
M  V30 61 1 25 59
M  V30 62 1 27 60
M  V30 63 1 30 61
M  V30 64 1 31 62
M  V30 65 1 31 63
M  V30 66 1 31 64
M  V30 67 1 32 65
M  V30 END BOND
M  V30 END CTAB
M  END
>  <Dataset>  (406) 
ChEMBL_Kinases

>  <Ligand_Instance>  (406) 
nan

>  <PDB_ID>  (406) 
nan

>  <Standardized_SMILES>  (406) 
CCn1c(=O)c(-c2cc(NC(=O)NCCC(C)(C)C)c(F)cc2C)cc2cnc(NC)cc21

>  <Name>  (406) 
nan

>  <Pocket>  (406) 
nan

>  <ATP_Site>  (406) 
nan

>  <Peripheral>  (406) 
nan

>  <Num_H_Atoms_ProtBoundConf>  (406) 
nan

>  <Num_Resolved_Atoms>  (406) 
nan

>  <Num_Not_Resolved_Atoms>  (406) 
nan

$$$$
CHEMBL3577115
     RDKit          3D

  0  0  0  0  0  0  0  0  0  0999 V3000
M  V30 BEGIN CTAB
M  V30 COUNTS 62 65 0 0 0
M  V30 BEGIN ATOM
M  V30 1 C 4.050502 -4.630623 3.100926 0
M  V30 2 C 2.600675 -4.369161 2.678271 0
M  V30 3 N 2.663688 -3.553015 1.481879 0
M  V30 4 C 2.667090 -2.199201 1.598176 0
M  V30 5 O 2.613044 -1.727099 2.781413 0
M  V30 6 C 2.723696 -1.281289 0.554107 0
M  V30 7 C 2.718282 0.147876 0.865704 0
M  V30 8 C 3.461909 0.776178 1.845108 0
M  V30 9 C 3.334390 2.140928 2.004379 0
M  V30 10 C 2.490710 2.900315 1.220375 0
M  V30 11 F 2.375949 4.220089 1.384015 0
M  V30 12 C 1.742749 2.278531 0.237551 0
M  V30 13 N 0.847668 3.033026 -0.605499 0
M  V30 14 C -0.486016 3.160628 -0.109801 0
M  V30 15 O -0.711976 2.592320 1.011153 0
M  V30 16 N -1.571666 3.844512 -0.725889 0
M  V30 17 C -2.836598 3.846350 -0.046359 0
M  V30 18 C -3.788984 2.852142 -0.265255 0
M  V30 19 C -4.840170 3.217973 0.566692 0
M  V30 20 C -6.100873 2.483328 0.703581 0
M  V30 21 C -7.058822 3.128133 1.689782 0
M  V30 22 C -5.817035 1.091867 1.262654 0
M  V30 23 C -6.830183 2.283181 -0.594583 0
M  V30 24 N -4.496428 4.347020 1.210850 0
M  V30 25 O -3.307231 4.706233 0.836893 0
M  V30 26 C 1.865019 0.920006 0.073716 0
M  V30 27 C 2.781920 -1.808405 -0.722057 0
M  V30 28 C 2.780512 -3.180545 -0.879857 0
M  V30 29 C 2.839269 -3.729848 -2.146004 0
M  V30 30 N 2.838118 -5.075580 -2.280679 0
M  V30 31 C 2.781841 -5.925417 -1.229320 0
M  V30 32 N 2.785166 -7.345938 -1.461952 0
M  V30 33 C 1.579787 -8.141227 -1.652763 0
M  V30 34 C 2.722868 -5.380631 0.039427 0
M  V30 35 C 2.721816 -4.013078 0.219644 0
M  V30 36 H 4.478370 -3.740846 3.584342 0
M  V30 37 H 4.687721 -4.919130 2.254363 0
M  V30 38 H 4.016083 -5.501960 3.812407 0
M  V30 39 H 2.184587 -3.736669 3.500972 0
M  V30 40 H 2.001725 -5.273097 2.593013 0
M  V30 41 H 4.104876 0.128501 2.427382 0
M  V30 42 H 3.937613 2.589480 2.785239 0
M  V30 43 H 1.010387 3.503623 -1.520541 0
M  V30 44 H -1.328907 4.294608 -1.648222 0
M  V30 45 H -3.715706 1.995246 -0.933271 0
M  V30 46 H -6.614975 3.245718 2.698938 0
M  V30 47 H -7.497544 4.068482 1.295228 0
M  V30 48 H -7.916768 2.433949 1.801990 0
M  V30 49 H -6.677880 0.428838 1.013512 0
M  V30 50 H -4.879285 0.757588 0.770344 0
M  V30 51 H -5.686756 1.127301 2.366436 0
M  V30 52 H -7.582616 1.473466 -0.462267 0
M  V30 53 H -7.362981 3.221449 -0.825422 0
M  V30 54 H -6.152638 2.088956 -1.444205 0
M  V30 55 H 1.250097 0.480316 -0.718369 0
M  V30 56 H 2.826248 -1.114528 -1.543462 0
M  V30 57 H 2.885494 -3.076291 -3.014521 0
M  V30 58 H 3.710245 -7.842033 -1.496748 0
M  V30 59 H 0.733164 -7.480346 -1.950158 0
M  V30 60 H 1.713474 -8.875359 -2.465110 0
M  V30 61 H 1.254366 -8.637579 -0.713558 0
M  V30 62 H 2.679738 -6.071504 0.869119 0
M  V30 END ATOM
M  V30 BEGIN BOND
M  V30 1 1 1 2
M  V30 2 1 2 3
M  V30 3 1 3 4
M  V30 4 2 4 5
M  V30 5 1 4 6
M  V30 6 1 6 7
M  V30 7 2 7 8
M  V30 8 1 8 9
M  V30 9 2 9 10
M  V30 10 1 10 11
M  V30 11 1 10 12
M  V30 12 1 12 13
M  V30 13 1 13 14
M  V30 14 2 14 15
M  V30 15 1 14 16
M  V30 16 1 16 17
M  V30 17 2 17 18
M  V30 18 1 18 19
M  V30 19 1 19 20
M  V30 20 1 20 21
M  V30 21 1 20 22
M  V30 22 1 20 23
M  V30 23 2 19 24
M  V30 24 1 24 25
M  V30 25 2 12 26
M  V30 26 2 6 27
M  V30 27 1 27 28
M  V30 28 2 28 29
M  V30 29 1 29 30
M  V30 30 2 30 31
M  V30 31 1 31 32
M  V30 32 1 32 33
M  V30 33 1 31 34
M  V30 34 2 34 35
M  V30 35 1 35 3
M  V30 36 1 26 7
M  V30 37 1 35 28
M  V30 38 1 25 17
M  V30 39 1 1 36
M  V30 40 1 1 37
M  V30 41 1 1 38
M  V30 42 1 2 39
M  V30 43 1 2 40
M  V30 44 1 8 41
M  V30 45 1 9 42
M  V30 46 1 13 43
M  V30 47 1 16 44
M  V30 48 1 18 45
M  V30 49 1 21 46
M  V30 50 1 21 47
M  V30 51 1 21 48
M  V30 52 1 22 49
M  V30 53 1 22 50
M  V30 54 1 22 51
M  V30 55 1 23 52
M  V30 56 1 23 53
M  V30 57 1 23 54
M  V30 58 1 26 55
M  V30 59 1 27 56
M  V30 60 1 29 57
M  V30 61 1 32 58
M  V30 62 1 33 59
M  V30 63 1 33 60
M  V30 64 1 33 61
M  V30 65 1 34 62
M  V30 END BOND
M  V30 END CTAB
M  END
>  <Dataset>  (407) 
ChEMBL_Kinases

>  <Ligand_Instance>  (407) 
nan

>  <PDB_ID>  (407) 
nan

>  <Standardized_SMILES>  (407) 
CCn1c(=O)c(-c2ccc(F)c(NC(=O)Nc3cc(C(C)(C)C)no3)c2)cc2cnc(NC)cc21

>  <Name>  (407) 
nan

>  <Pocket>  (407) 
nan

>  <ATP_Site>  (407) 
nan

>  <Peripheral>  (407) 
nan

>  <Num_H_Atoms_ProtBoundConf>  (407) 
nan

>  <Num_Resolved_Atoms>  (407) 
nan

>  <Num_Not_Resolved_Atoms>  (407) 
nan

$$$$
CHEMBL3577114
     RDKit          3D

  0  0  0  0  0  0  0  0  0  0999 V3000
M  V30 BEGIN CTAB
M  V30 COUNTS 67 71 0 0 0
M  V30 BEGIN ATOM
M  V30 1 C 7.310884 2.139061 2.754507 0
M  V30 2 N 6.894691 1.653418 1.467042 0
M  V30 3 C 5.621222 1.544229 0.891056 0
M  V30 4 C 4.470033 1.921339 1.527952 0
M  V30 5 C 3.230844 1.809202 0.952975 0
M  V30 6 C 3.207891 1.286393 -0.324582 0
M  V30 7 C 4.366649 0.905428 -0.968964 0
M  V30 8 N 5.547596 1.041875 -0.349110 0
M  V30 9 C 2.005319 1.135961 -0.984111 0
M  V30 10 C 0.846760 1.517006 -0.339897 0
M  V30 11 C -0.469132 1.391043 -0.968044 0
M  V30 12 C -0.708738 1.774887 -2.281713 0
M  V30 13 C -1.960500 1.651201 -2.866865 0
M  V30 14 C -2.958676 1.123412 -2.067937 0
M  V30 15 F -4.176212 1.014323 -2.670303 0
M  V30 16 C -2.746056 0.733987 -0.758332 0
M  V30 17 N -3.896994 0.208746 -0.082145 0
M  V30 18 C -3.990416 -1.201304 -0.258662 0
M  V30 19 O -3.079045 -1.695250 -0.948225 0
M  V30 20 N -5.024107 -2.002353 0.293019 0
M  V30 21 C -5.116197 -3.409548 0.115810 0
M  V30 22 C -4.285898 -4.260024 -0.580143 0
M  V30 23 C -4.771039 -5.564083 -0.478693 0
M  V30 24 C -4.146676 -6.776549 -1.099245 0
M  V30 25 C -4.693089 -7.011668 -2.475515 0
M  V30 26 C -2.646072 -6.606085 -1.208836 0
M  V30 27 C -4.376824 -7.997965 -0.233014 0
M  V30 28 N -5.873942 -5.408844 0.280633 0
M  V30 29 O -6.040389 -4.176496 0.600124 0
M  V30 30 C -1.483641 0.867685 -0.194623 0
M  V30 31 C 0.970777 2.018826 0.911234 0
M  V30 32 O -0.090272 2.366156 1.497366 0
M  V30 33 N 2.116875 2.203357 1.639951 0
M  V30 34 C 2.170722 2.742565 2.964131 0 CFG=1
M  V30 35 C 2.557491 1.844287 4.075863 0
M  V30 36 C 3.234897 2.778046 5.033381 0
M  V30 37 O 3.500934 3.973380 4.410440 0
M  V30 38 C 2.840681 4.035926 3.188470 0
M  V30 39 H 6.409213 2.366204 3.344338 0
M  V30 40 H 7.904046 3.082994 2.679652 0
M  V30 41 H 7.915299 1.407401 3.326832 0
M  V30 42 H 7.770687 1.371879 0.990619 0
M  V30 43 H 4.558837 2.313772 2.504874 0
M  V30 44 H 4.283885 0.501203 -1.972571 0
M  V30 45 H 1.979831 0.732645 -1.971530 0
M  V30 46 H 0.135902 2.176732 -2.825270 0
M  V30 47 H -2.126774 1.956027 -3.891926 0
M  V30 48 H -4.637514 0.695168 0.492418 0
M  V30 49 H -5.739384 -1.495798 0.854649 0
M  V30 50 H -3.394496 -3.991532 -1.127025 0
M  V30 51 H -3.895442 -7.180535 -3.197310 0
M  V30 52 H -5.393324 -7.870030 -2.515848 0
M  V30 53 H -5.239587 -6.078342 -2.796943 0
M  V30 54 H -2.285734 -5.814636 -0.492961 0
M  V30 55 H -2.097666 -7.536902 -0.906424 0
M  V30 56 H -2.335173 -6.278682 -2.216278 0
M  V30 57 H -4.022199 -8.866474 -0.815660 0
M  V30 58 H -3.766185 -7.883804 0.680386 0
M  V30 59 H -5.442949 -8.098201 0.018216 0
M  V30 60 H -1.413016 0.539965 0.825491 0
M  V30 61 H 1.078864 2.966082 3.185247 0
M  V30 62 H 1.689663 1.421214 4.669397 0
M  V30 63 H 3.121169 0.935561 3.814563 0
M  V30 64 H 2.744048 2.892765 6.004145 0
M  V30 65 H 4.238575 2.321677 5.263443 0
M  V30 66 H 2.136762 4.910902 3.351366 0
M  V30 67 H 3.473073 4.430960 2.363889 0
M  V30 END ATOM
M  V30 BEGIN BOND
M  V30 1 1 1 2
M  V30 2 1 2 3
M  V30 3 2 3 4
M  V30 4 1 4 5
M  V30 5 2 5 6
M  V30 6 1 6 7
M  V30 7 2 7 8
M  V30 8 1 6 9
M  V30 9 2 9 10
M  V30 10 1 10 11
M  V30 11 2 11 12
M  V30 12 1 12 13
M  V30 13 2 13 14
M  V30 14 1 14 15
M  V30 15 1 14 16
M  V30 16 1 16 17
M  V30 17 1 17 18
M  V30 18 2 18 19
M  V30 19 1 18 20
M  V30 20 1 20 21
M  V30 21 2 21 22
M  V30 22 1 22 23
M  V30 23 1 23 24
M  V30 24 1 24 25
M  V30 25 1 24 26
M  V30 26 1 24 27
M  V30 27 2 23 28
M  V30 28 1 28 29
M  V30 29 2 16 30
M  V30 30 1 10 31
M  V30 31 2 31 32
M  V30 32 1 31 33
M  V30 33 1 33 34
M  V30 34 1 34 35
M  V30 35 1 35 36
M  V30 36 1 36 37
M  V30 37 1 37 38
M  V30 38 1 8 3
M  V30 39 1 30 11
M  V30 40 1 38 34
M  V30 41 1 33 5
M  V30 42 1 29 21
M  V30 43 1 1 39
M  V30 44 1 1 40
M  V30 45 1 1 41
M  V30 46 1 2 42
M  V30 47 1 4 43
M  V30 48 1 7 44
M  V30 49 1 9 45
M  V30 50 1 12 46
M  V30 51 1 13 47
M  V30 52 1 17 48
M  V30 53 1 20 49
M  V30 54 1 22 50
M  V30 55 1 25 51
M  V30 56 1 25 52
M  V30 57 1 25 53
M  V30 58 1 26 54
M  V30 59 1 26 55
M  V30 60 1 26 56
M  V30 61 1 27 57
M  V30 62 1 27 58
M  V30 63 1 27 59
M  V30 64 1 30 60
M  V30 65 1 34 61 CFG=1
M  V30 66 1 35 62
M  V30 67 1 35 63
M  V30 68 1 36 64
M  V30 69 1 36 65
M  V30 70 1 38 66
M  V30 71 1 38 67
M  V30 END BOND
M  V30 END CTAB
M  END
>  <Dataset>  (408) 
ChEMBL_Kinases

>  <Ligand_Instance>  (408) 
nan

>  <PDB_ID>  (408) 
nan

>  <Standardized_SMILES>  (408) 
CNc1cc2c(cn1)cc(-c1ccc(F)c(NC(=O)Nc3cc(C(C)(C)C)no3)c1)c(=O)n2[C@H]1CCOC1

>  <Name>  (408) 
nan

>  <Pocket>  (408) 
nan

>  <ATP_Site>  (408) 
nan

>  <Peripheral>  (408) 
nan

>  <Num_H_Atoms_ProtBoundConf>  (408) 
nan

>  <Num_Resolved_Atoms>  (408) 
nan

>  <Num_Not_Resolved_Atoms>  (408) 
nan

$$$$
CHEMBL357490
     RDKit          3D

  0  0  0  0  0  0  0  0  0  0999 V3000
M  V30 BEGIN CTAB
M  V30 COUNTS 38 43 0 0 0
M  V30 BEGIN ATOM
M  V30 1 O 0.643570 -4.466244 0.393777 0
M  V30 2 C 0.622128 -3.420859 1.060410 0
M  V30 3 N 0.874419 -3.611013 2.441666 0
M  V30 4 C 0.812779 -2.298901 3.101340 0
M  V30 5 C 0.518578 -1.407976 1.968325 0
M  V30 6 C 0.395846 -2.033247 0.748587 0
M  V30 7 C 0.124169 -1.351882 -0.388288 0
M  V30 8 C -0.032411 0.014004 -0.307665 0
M  V30 9 C 0.083187 0.677381 0.896735 0
M  V30 10 N -0.033621 2.006358 1.189108 0
M  V30 11 C 0.161008 2.187162 2.507695 0
M  V30 12 C 0.164536 3.281367 3.352368 0
M  V30 13 C 0.400816 3.178507 4.708214 0
M  V30 14 C 0.638442 1.890874 5.180731 0
M  V30 15 C 0.646128 0.765130 4.380396 0
M  V30 16 C 0.402888 0.935291 3.033243 0
M  V30 17 C 0.360216 -0.028060 2.048010 0
M  V30 18 C -0.324013 0.564009 -1.664854 0
M  V30 19 C -0.302616 -0.681618 -2.476816 0
M  V30 20 C -0.522669 -0.712930 -3.838579 0
M  V30 21 C -0.489183 -1.905955 -4.536867 0
M  V30 22 C -0.225223 -3.078967 -3.818556 0
M  V30 23 C -0.014484 -2.978567 -2.461201 0
M  V30 24 C -0.040507 -1.819068 -1.742903 0
M  V30 25 H 1.081970 -4.422118 3.062176 0
M  V30 26 H 1.821428 -2.095877 3.502612 0
M  V30 27 H 0.097463 -2.293112 3.924257 0
M  V30 28 H -0.240153 2.797317 0.530790 0
M  V30 29 H -0.025528 4.259568 2.935447 0
M  V30 30 H 0.406606 4.027732 5.382320 0
M  V30 31 H 0.828626 1.792989 6.260587 0
M  V30 32 H 0.839625 -0.202693 4.823117 0
M  V30 33 H 0.492846 1.254682 -2.011031 0
M  V30 34 H -1.286246 1.090269 -1.709807 0
M  V30 35 H -0.731452 0.144867 -4.459640 0
M  V30 36 H -0.656411 -1.971870 -5.603601 0
M  V30 37 H -0.195458 -4.020852 -4.349549 0
M  V30 38 H 0.177424 -3.886834 -1.980375 0
M  V30 END ATOM
M  V30 BEGIN BOND
M  V30 1 2 1 2
M  V30 2 1 2 3
M  V30 3 1 3 4
M  V30 4 1 4 5
M  V30 5 2 5 6
M  V30 6 1 6 7
M  V30 7 2 7 8
M  V30 8 1 8 9
M  V30 9 1 9 10
M  V30 10 1 10 11
M  V30 11 2 11 12
M  V30 12 1 12 13
M  V30 13 2 13 14
M  V30 14 1 14 15
M  V30 15 2 15 16
M  V30 16 1 16 17
M  V30 17 1 8 18
M  V30 18 1 18 19
M  V30 19 2 19 20
M  V30 20 1 20 21
M  V30 21 2 21 22
M  V30 22 1 22 23
M  V30 23 2 23 24
M  V30 24 1 6 2
M  V30 25 1 24 7
M  V30 26 1 17 5
M  V30 27 1 24 19
M  V30 28 2 17 9
M  V30 29 1 16 11
M  V30 30 1 3 25
M  V30 31 1 4 26
M  V30 32 1 4 27
M  V30 33 1 10 28
M  V30 34 1 12 29
M  V30 35 1 13 30
M  V30 36 1 14 31
M  V30 37 1 15 32
M  V30 38 1 18 33
M  V30 39 1 18 34
M  V30 40 1 20 35
M  V30 41 1 21 36
M  V30 42 1 22 37
M  V30 43 1 23 38
M  V30 END BOND
M  V30 END CTAB
M  END
>  <Dataset>  (409) 
ChEMBL_Kinases

>  <Ligand_Instance>  (409) 
nan

>  <PDB_ID>  (409) 
nan

>  <Standardized_SMILES>  (409) 
O=C1NCc2c1c1c(c3[nH]c4ccccc4c23)Cc2ccccc2-1

>  <Name>  (409) 
nan

>  <Pocket>  (409) 
nan

>  <ATP_Site>  (409) 
nan

>  <Peripheral>  (409) 
nan

>  <Num_H_Atoms_ProtBoundConf>  (409) 
nan

>  <Num_Resolved_Atoms>  (409) 
nan

>  <Num_Not_Resolved_Atoms>  (409) 
nan

$$$$
CHEMBL357136
     RDKit          3D

  0  0  0  0  0  0  0  0  0  0999 V3000
M  V30 BEGIN CTAB
M  V30 COUNTS 14 14 0 0 0
M  V30 BEGIN ATOM
M  V30 1 O 0.518483 -1.201957 3.019815 0
M  V30 2 C 0.462663 -0.896440 1.771861 0
M  V30 3 C -0.714511 -1.422466 1.095615 0
M  V30 4 Cl -1.997661 -0.185328 1.214595 0
M  V30 5 C 1.542283 -0.110030 1.273579 0
M  V30 6 S 2.823040 0.357460 2.363097 0
M  V30 7 C 3.823324 1.319724 1.066852 0
M  V30 8 C 3.021574 1.162984 -0.103924 0
M  V30 9 Br 3.641137 1.982464 -1.709565 0
M  V30 10 C 1.894162 0.427812 0.101694 0
M  V30 11 Br 0.683059 0.112895 -1.370044 0
M  V30 12 H -0.600818 -1.680162 0.029929 0
M  V30 13 H -1.092121 -2.361136 1.584509 0
M  V30 14 H 4.823242 1.893437 1.169177 0
M  V30 END ATOM
M  V30 BEGIN BOND
M  V30 1 2 1 2
M  V30 2 1 2 3
M  V30 3 1 3 4
M  V30 4 1 2 5
M  V30 5 1 5 6
M  V30 6 1 6 7
M  V30 7 2 7 8
M  V30 8 1 8 9
M  V30 9 1 8 10
M  V30 10 1 10 11
M  V30 11 2 10 5
M  V30 12 1 3 12
M  V30 13 1 3 13
M  V30 14 1 7 14
M  V30 END BOND
M  V30 END CTAB
M  END
>  <Dataset>  (410) 
ChEMBL_Kinases

>  <Ligand_Instance>  (410) 
nan

>  <PDB_ID>  (410) 
nan

>  <Standardized_SMILES>  (410) 
O=C(CCl)c1scc(Br)c1Br

>  <Name>  (410) 
nan

>  <Pocket>  (410) 
nan

>  <ATP_Site>  (410) 
nan

>  <Peripheral>  (410) 
nan

>  <Num_H_Atoms_ProtBoundConf>  (410) 
nan

>  <Num_Resolved_Atoms>  (410) 
nan

>  <Num_Not_Resolved_Atoms>  (410) 
nan

$$$$
CHEMBL357047
     RDKit          3D

  0  0  0  0  0  0  0  0  0  0999 V3000
M  V30 BEGIN CTAB
M  V30 COUNTS 20 21 0 0 0
M  V30 BEGIN ATOM
M  V30 1 O -1.928826 0.764315 1.035960 0
M  V30 2 C -0.675564 0.532365 1.045354 0
M  V30 3 C 0.024345 1.344683 2.035294 0
M  V30 4 C 1.500809 1.473731 1.855651 0
M  V30 5 N 2.233574 0.245124 1.847323 0
M  V30 6 C 2.144464 -0.834278 0.894305 0
M  V30 7 O 3.082602 -1.654928 0.747274 0
M  V30 8 C 0.973455 -1.068586 0.026213 0
M  V30 9 N 0.949918 -1.950803 -1.009966 0
M  V30 10 C -0.271407 -1.912941 -1.587725 0
M  V30 11 C -1.080036 -1.007514 -0.948216 0
M  V30 12 C -0.296193 -0.480102 0.063089 0
M  V30 13 H -0.384176 2.383149 1.922797 0
M  V30 14 H -0.253215 1.048996 3.083819 0
M  V30 15 H 1.666790 2.060707 0.908323 0
M  V30 16 H 1.877870 2.090369 2.689612 0
M  V30 17 H 2.952840 0.009545 2.592537 0
M  V30 18 H 1.763542 -2.542149 -1.282289 0
M  V30 19 H -0.623792 -2.488763 -2.435610 0
M  V30 20 H -2.096907 -0.684039 -1.090311 0
M  V30 END ATOM
M  V30 BEGIN BOND
M  V30 1 2 1 2
M  V30 2 1 2 3
M  V30 3 1 3 4
M  V30 4 1 4 5
M  V30 5 1 5 6
M  V30 6 2 6 7
M  V30 7 1 6 8
M  V30 8 1 8 9
M  V30 9 1 9 10
M  V30 10 2 10 11
M  V30 11 1 11 12
M  V30 12 1 12 2
M  V30 13 2 12 8
M  V30 14 1 3 13
M  V30 15 1 3 14
M  V30 16 1 4 15
M  V30 17 1 4 16
M  V30 18 1 5 17
M  V30 19 1 9 18
M  V30 20 1 10 19
M  V30 21 1 11 20
M  V30 END BOND
M  V30 END CTAB
M  END
>  <Dataset>  (411) 
ChEMBL_Kinases

>  <Ligand_Instance>  (411) 
nan

>  <PDB_ID>  (411) 
nan

>  <Standardized_SMILES>  (411) 
O=C1CCNC(=O)c2[nH]ccc21

>  <Name>  (411) 
ALDISIN

>  <Pocket>  (411) 
nan

>  <ATP_Site>  (411) 
nan

>  <Peripheral>  (411) 
nan

>  <Num_H_Atoms_ProtBoundConf>  (411) 
nan

>  <Num_Resolved_Atoms>  (411) 
nan

>  <Num_Not_Resolved_Atoms>  (411) 
nan

$$$$
CHEMBL356169
     RDKit          3D

  0  0  0  0  0  0  0  0  0  0999 V3000
M  V30 BEGIN CTAB
M  V30 COUNTS 29 31 0 0 0
M  V30 BEGIN ATOM
M  V30 1 C -1.827969 -2.360393 3.332211 0
M  V30 2 O -0.973314 -1.461981 4.016621 0
M  V30 3 C -0.043793 -0.678372 3.381752 0
M  V30 4 C 0.723469 0.152363 4.168564 0
M  V30 5 C 1.674437 0.958901 3.553619 0
M  V30 6 C 1.876035 0.956213 2.185423 0
M  V30 7 N 2.711014 1.624570 1.361698 0
M  V30 8 C 2.489429 1.238382 0.091885 0
M  V30 9 N 1.493746 0.305396 0.104837 0
M  V30 10 C 0.836699 -0.456046 -0.925669 0
M  V30 11 C -0.393428 0.117022 -1.241407 0
M  V30 12 C -1.186245 -0.472530 -2.219049 0
M  V30 13 C -0.721781 -1.611077 -2.844338 0
M  V30 14 C 0.504810 -2.166101 -2.516271 0
M  V30 15 C 1.290052 -1.592475 -1.556280 0
M  V30 16 C 1.100590 0.115598 1.382958 0
M  V30 17 C 0.159863 -0.675876 2.036738 0
M  V30 18 H -2.198137 -3.163737 4.001960 0
M  V30 19 H -2.727391 -1.864227 2.913096 0
M  V30 20 H -1.264550 -2.867151 2.534066 0
M  V30 21 H 0.577394 0.167916 5.256845 0
M  V30 22 H 2.283533 1.614043 4.147434 0
M  V30 23 H 2.937393 1.525859 -0.856779 0
M  V30 24 H -0.827828 0.996466 -0.806287 0
M  V30 25 H -2.148651 -0.070876 -2.503748 0
M  V30 26 H -1.331887 -2.090272 -3.617286 0
M  V30 27 H 0.907761 -3.052225 -2.976672 0
M  V30 28 H 2.261096 -1.899717 -1.189883 0
M  V30 29 H -0.459451 -1.342072 1.432659 0
M  V30 END ATOM
M  V30 BEGIN BOND
M  V30 1 1 1 2
M  V30 2 1 2 3
M  V30 3 2 3 4
M  V30 4 1 4 5
M  V30 5 2 5 6
M  V30 6 1 6 7
M  V30 7 2 7 8
M  V30 8 1 8 9
M  V30 9 1 9 10
M  V30 10 2 10 11
M  V30 11 1 11 12
M  V30 12 2 12 13
M  V30 13 1 13 14
M  V30 14 2 14 15
M  V30 15 1 9 16
M  V30 16 2 16 17
M  V30 17 1 17 3
M  V30 18 1 16 6
M  V30 19 1 15 10
M  V30 20 1 1 18
M  V30 21 1 1 19
M  V30 22 1 1 20
M  V30 23 1 4 21
M  V30 24 1 5 22
M  V30 25 1 8 23
M  V30 26 1 11 24
M  V30 27 1 12 25
M  V30 28 1 13 26
M  V30 29 1 14 27
M  V30 30 1 15 28
M  V30 31 1 17 29
M  V30 END BOND
M  V30 END CTAB
M  END
>  <Dataset>  (412) 
ChEMBL_Kinases

>  <Ligand_Instance>  (412) 
nan

>  <PDB_ID>  (412) 
nan

>  <Standardized_SMILES>  (412) 
COc1ccc2ncn(-c3ccccc3)c2c1

>  <Name>  (412) 
nan

>  <Pocket>  (412) 
nan

>  <ATP_Site>  (412) 
nan

>  <Peripheral>  (412) 
nan

>  <Num_H_Atoms_ProtBoundConf>  (412) 
nan

>  <Num_Resolved_Atoms>  (412) 
nan

>  <Num_Not_Resolved_Atoms>  (412) 
nan

$$$$
CHEMBL346551
     RDKit          3D

  0  0  0  0  0  0  0  0  0  0999 V3000
M  V30 BEGIN CTAB
M  V30 COUNTS 32 34 0 0 0
M  V30 BEGIN ATOM
M  V30 1 O 0.617101 -0.753177 4.543730 0
M  V30 2 C 0.998628 -0.230553 3.469441 0
M  V30 3 N 1.720570 1.000827 3.644257 0
M  V30 4 C 2.099580 1.489322 2.354944 0
M  V30 5 O 2.747446 2.531656 1.984673 0
M  V30 6 C 1.586124 0.521661 1.403818 0
M  V30 7 C 1.610826 0.489232 -0.057667 0
M  V30 8 C 2.845893 0.626693 -0.645900 0
M  V30 9 C 2.963119 0.651572 -2.014293 0
M  V30 10 C 1.767157 0.528447 -2.732830 0
M  V30 11 C 0.512561 0.390054 -2.185342 0
M  V30 12 C 0.438735 0.369115 -0.787694 0
M  V30 13 C 0.965590 -0.453562 2.017503 0
M  V30 14 N 0.304846 -1.661087 1.608101 0
M  V30 15 C -1.049663 -2.003592 1.391850 0
M  V30 16 C -1.992688 -1.992121 2.376399 0
M  V30 17 C -3.321131 -2.330792 2.187012 0
M  V30 18 C -3.736830 -2.706039 0.935041 0
M  V30 19 C -2.835075 -2.740087 -0.104050 0
M  V30 20 C -1.542663 -2.395430 0.146217 0
M  V30 21 H 1.996908 1.567287 4.494646 0
M  V30 22 H 3.760245 0.718418 -0.088729 0
M  V30 23 H 3.898987 0.761526 -2.552865 0
M  V30 24 H 1.791946 0.543918 -3.826162 0
M  V30 25 H -0.388337 0.299525 -2.773933 0
M  V30 26 H -0.515897 0.265938 -0.299156 0
M  V30 27 H 1.036045 -2.403750 1.438366 0
M  V30 28 H -1.716887 -1.699418 3.376247 0
M  V30 29 H -4.013365 -2.292587 3.036285 0
M  V30 30 H -4.794901 -2.955204 0.853030 0
M  V30 31 H -3.171615 -3.033362 -1.081911 0
M  V30 32 H -0.885369 -2.448728 -0.703654 0
M  V30 END ATOM
M  V30 BEGIN BOND
M  V30 1 2 1 2
M  V30 2 1 2 3
M  V30 3 1 3 4
M  V30 4 2 4 5
M  V30 5 1 4 6
M  V30 6 1 6 7
M  V30 7 2 7 8
M  V30 8 1 8 9
M  V30 9 2 9 10
M  V30 10 1 10 11
M  V30 11 2 11 12
M  V30 12 2 6 13
M  V30 13 1 13 14
M  V30 14 1 14 15
M  V30 15 2 15 16
M  V30 16 1 16 17
M  V30 17 2 17 18
M  V30 18 1 18 19
M  V30 19 2 19 20
M  V30 20 1 13 2
M  V30 21 1 20 15
M  V30 22 1 12 7
M  V30 23 1 3 21
M  V30 24 1 8 22
M  V30 25 1 9 23
M  V30 26 1 10 24
M  V30 27 1 11 25
M  V30 28 1 12 26
M  V30 29 1 14 27
M  V30 30 1 16 28
M  V30 31 1 17 29
M  V30 32 1 18 30
M  V30 33 1 19 31
M  V30 34 1 20 32
M  V30 END BOND
M  V30 END CTAB
M  END
>  <Dataset>  (413) 
ChEMBL_Kinases

>  <Ligand_Instance>  (413) 
nan

>  <PDB_ID>  (413) 
nan

>  <Standardized_SMILES>  (413) 
O=C1NC(=O)C(c2ccccc2)=C1Nc1ccccc1

>  <Name>  (413) 
nan

>  <Pocket>  (413) 
nan

>  <ATP_Site>  (413) 
nan

>  <Peripheral>  (413) 
nan

>  <Num_H_Atoms_ProtBoundConf>  (413) 
nan

>  <Num_Resolved_Atoms>  (413) 
nan

>  <Num_Not_Resolved_Atoms>  (413) 
nan

$$$$
CHEMBL347496
     RDKit          3D

  0  0  0  0  0  0  0  0  0  0999 V3000
M  V30 BEGIN CTAB
M  V30 COUNTS 41 43 0 0 0
M  V30 BEGIN ATOM
M  V30 1 C 2.251845 -4.727698 -2.129826 0
M  V30 2 C 2.607435 -4.336455 -0.746967 0
M  V30 3 C 2.902980 -5.290837 0.198472 0
M  V30 4 C 3.240979 -4.989973 1.501594 0
M  V30 5 C 3.282515 -3.655568 1.868485 0
M  V30 6 C 2.984688 -2.703664 0.914177 0
M  V30 7 C 2.644198 -3.002505 -0.397874 0
M  V30 8 C 2.338643 -1.932631 -1.362076 0
M  V30 9 O 2.811726 -1.939370 -2.535821 0
M  V30 10 C 1.457745 -0.922796 -0.788526 0
M  V30 11 C 1.773604 0.399938 -1.006112 0
M  V30 12 C 0.947575 1.356839 -0.467747 0
M  V30 13 C -0.200143 1.094263 0.291495 0
M  V30 14 N -1.014279 2.121598 0.800204 0
M  V30 15 C -1.759738 2.284309 1.980142 0
M  V30 16 C -1.853238 1.424876 3.038896 0
M  V30 17 C -2.610617 1.619714 4.171929 0
M  V30 18 C -3.340439 2.765458 4.268566 0
M  V30 19 Br -4.400460 3.059253 5.832353 0
M  V30 20 C -3.286540 3.672054 3.231803 0
M  V30 21 C -2.512504 3.423698 2.124474 0
M  V30 22 N -2.537534 4.445958 1.106826 0
M  V30 23 C -0.431047 -0.255170 0.452402 0
M  V30 24 C 0.345785 -1.276361 -0.052797 0
M  V30 25 Cl -0.008954 -2.965915 0.192849 0
M  V30 26 H 1.173158 -4.585874 -2.370474 0
M  V30 27 H 2.866432 -4.250431 -2.908453 0
M  V30 28 H 2.430850 -5.833903 -2.250554 0
M  V30 29 H 2.862188 -6.340391 -0.120272 0
M  V30 30 H 3.462895 -5.795154 2.197391 0
M  V30 31 H 3.543992 -3.380263 2.883363 0
M  V30 32 H 3.027660 -1.655249 1.240835 0
M  V30 33 H 2.645764 0.719505 -1.583777 0
M  V30 34 H 1.187898 2.418633 -0.633814 0
M  V30 35 H -1.033820 2.913742 0.098342 0
M  V30 36 H -1.285195 0.510595 3.014698 0
M  V30 37 H -2.630225 0.887365 4.967269 0
M  V30 38 H -3.871319 4.580645 3.319510 0
M  V30 39 H -2.191973 5.434243 1.038501 0
M  V30 40 H -2.995971 4.220785 0.182256 0
M  V30 41 H -1.273721 -0.609315 0.993339 0
M  V30 END ATOM
M  V30 BEGIN BOND
M  V30 1 1 1 2
M  V30 2 2 2 3
M  V30 3 1 3 4
M  V30 4 2 4 5
M  V30 5 1 5 6
M  V30 6 2 6 7
M  V30 7 1 7 8
M  V30 8 2 8 9
M  V30 9 1 8 10
M  V30 10 2 10 11
M  V30 11 1 11 12
M  V30 12 2 12 13
M  V30 13 1 13 14
M  V30 14 1 14 15
M  V30 15 2 15 16
M  V30 16 1 16 17
M  V30 17 2 17 18
M  V30 18 1 18 19
M  V30 19 1 18 20
M  V30 20 2 20 21
M  V30 21 1 21 22
M  V30 22 1 13 23
M  V30 23 2 23 24
M  V30 24 1 24 25
M  V30 25 1 7 2
M  V30 26 1 24 10
M  V30 27 1 21 15
M  V30 28 1 1 26
M  V30 29 1 1 27
M  V30 30 1 1 28
M  V30 31 1 3 29
M  V30 32 1 4 30
M  V30 33 1 5 31
M  V30 34 1 6 32
M  V30 35 1 11 33
M  V30 36 1 12 34
M  V30 37 1 14 35
M  V30 38 1 16 36
M  V30 39 1 17 37
M  V30 40 1 20 38
M  V30 41 1 22 39
M  V30 42 1 22 40
M  V30 43 1 23 41
M  V30 END BOND
M  V30 END CTAB
M  END
>  <Dataset>  (414) 
ChEMBL_Kinases

>  <Ligand_Instance>  (414) 
nan

>  <PDB_ID>  (414) 
nan

>  <Standardized_SMILES>  (414) 
Cc1ccccc1C(=O)c1ccc(Nc2ccc(Br)cc2N)cc1Cl

>  <Name>  (414) 
nan

>  <Pocket>  (414) 
nan

>  <ATP_Site>  (414) 
nan

>  <Peripheral>  (414) 
nan

>  <Num_H_Atoms_ProtBoundConf>  (414) 
nan

>  <Num_Resolved_Atoms>  (414) 
nan

>  <Num_Not_Resolved_Atoms>  (414) 
nan

$$$$
CHEMBL348177
     RDKit          3D

  0  0  0  0  0  0  0  0  0  0999 V3000
M  V30 BEGIN CTAB
M  V30 COUNTS 46 51 0 0 0
M  V30 BEGIN ATOM
M  V30 1 C -1.844455 -1.519815 2.638416 0
M  V30 2 N -0.601337 -1.827918 1.989219 0
M  V30 3 C 0.025044 -2.989950 2.340355 0
M  V30 4 C -0.326712 -3.994015 3.267997 0
M  V30 5 C 0.391811 -5.130304 3.534843 0
M  V30 6 C 1.539424 -5.267386 2.823162 0
M  V30 7 C 1.893026 -4.298792 1.918311 0
M  V30 8 C 1.194031 -3.155170 1.632723 0
M  V30 9 C 1.280947 -2.056574 0.824377 0
M  V30 10 C 2.255125 -1.732241 -0.085358 0
M  V30 11 C 2.104434 -0.557743 -0.785003 0
M  V30 12 C 1.004378 0.225520 -0.545936 0
M  V30 13 C 0.650423 1.417747 -1.113022 0
M  V30 14 C 1.110693 2.299051 -2.033964 0
M  V30 15 C 0.521181 3.477590 -2.416360 0
M  V30 16 C -0.668438 3.843200 -1.825452 0
M  V30 17 C -1.141903 2.955185 -0.890834 0
M  V30 18 C -0.547251 1.750032 -0.494490 0
M  V30 19 N -0.942828 0.821025 0.421397 0
M  V30 20 C -2.164903 1.041820 1.121897 0
M  V30 21 C -1.903576 1.910529 2.341825 0
M  V30 22 C -3.123835 2.150679 3.106933 0
M  V30 23 N -4.096441 2.326522 3.730792 0
M  V30 24 C 0.020906 -0.110900 0.379331 0
M  V30 25 C 0.160427 -1.265700 1.072575 0
M  V30 26 C 3.248162 -0.441901 -1.671682 0
M  V30 27 O 3.608028 0.410055 -2.510398 0
M  V30 28 N 4.126418 -1.560995 -1.523464 0
M  V30 29 C 3.471212 -2.352162 -0.518105 0
M  V30 30 O 4.067947 -3.406945 -0.215284 0
M  V30 31 H -1.883618 -0.627192 3.244208 0
M  V30 32 H -2.652797 -1.699746 1.891650 0
M  V30 33 H -2.123133 -2.309024 3.413182 0
M  V30 34 H -1.243299 -3.966233 3.891542 0
M  V30 35 H 0.098008 -5.881988 4.250644 0
M  V30 36 H 2.157006 -6.146156 2.985902 0
M  V30 37 H 2.805889 -4.502386 1.416383 0
M  V30 38 H 2.020267 2.114187 -2.549713 0
M  V30 39 H 0.954454 4.130011 -3.163387 0
M  V30 40 H -1.148387 4.766009 -2.111752 0
M  V30 41 H -2.082373 3.334585 -0.479407 0
M  V30 42 H -2.892095 0.265835 1.214485 0
M  V30 43 H -2.805763 1.777220 0.475117 0
M  V30 44 H -1.068627 1.540453 2.922737 0
M  V30 45 H -1.593041 2.951278 2.003084 0
M  V30 46 H 5.033868 -1.753766 -2.031577 0
M  V30 END ATOM
M  V30 BEGIN BOND
M  V30 1 1 1 2
M  V30 2 1 2 3
M  V30 3 2 3 4
M  V30 4 1 4 5
M  V30 5 2 5 6
M  V30 6 1 6 7
M  V30 7 2 7 8
M  V30 8 1 8 9
M  V30 9 2 9 10
M  V30 10 1 10 11
M  V30 11 2 11 12
M  V30 12 1 12 13
M  V30 13 2 13 14
M  V30 14 1 14 15
M  V30 15 2 15 16
M  V30 16 1 16 17
M  V30 17 2 17 18
M  V30 18 1 18 19
M  V30 19 1 19 20
M  V30 20 1 20 21
M  V30 21 1 21 22
M  V30 22 3 22 23
M  V30 23 1 19 24
M  V30 24 2 24 25
M  V30 25 1 11 26
M  V30 26 2 26 27
M  V30 27 1 26 28
M  V30 28 1 28 29
M  V30 29 2 29 30
M  V30 30 1 25 2
M  V30 31 1 8 3
M  V30 32 1 25 9
M  V30 33 1 29 10
M  V30 34 1 24 12
M  V30 35 1 18 13
M  V30 36 1 1 31
M  V30 37 1 1 32
M  V30 38 1 1 33
M  V30 39 1 4 34
M  V30 40 1 5 35
M  V30 41 1 6 36
M  V30 42 1 7 37
M  V30 43 1 14 38
M  V30 44 1 15 39
M  V30 45 1 16 40
M  V30 46 1 17 41
M  V30 47 1 20 42
M  V30 48 1 20 43
M  V30 49 1 21 44
M  V30 50 1 21 45
M  V30 51 1 28 46
M  V30 END BOND
M  V30 END CTAB
M  END
>  <Dataset>  (415) 
ChEMBL_Kinases

>  <Ligand_Instance>  (415) 
nan

>  <PDB_ID>  (415) 
nan

>  <Standardized_SMILES>  (415) 
Cn1c2ccccc2c2c3c(c4c5ccccc5n(CCC#N)c4c21)C(=O)NC3=O

>  <Name>  (415) 
nan

>  <Pocket>  (415) 
nan

>  <ATP_Site>  (415) 
nan

>  <Peripheral>  (415) 
nan

>  <Num_H_Atoms_ProtBoundConf>  (415) 
nan

>  <Num_Resolved_Atoms>  (415) 
nan

>  <Num_Not_Resolved_Atoms>  (415) 
nan

$$$$
CHEMBL34971
     RDKit          3D

  0  0  0  0  0  0  0  0  0  0999 V3000
M  V30 BEGIN CTAB
M  V30 COUNTS 71 72 0 0 0
M  V30 BEGIN ATOM
M  V30 1 C 5.387203 -5.687499 2.982732 0
M  V30 2 C 4.689277 -5.627075 1.656894 0
M  V30 3 C 4.347182 -4.190439 1.267664 0
M  V30 4 C 3.452725 -3.623557 2.314481 0
M  V30 5 C 3.022538 -2.207784 2.077309 0
M  V30 6 C 4.126939 -1.224680 1.995975 0
M  V30 7 C 3.647462 0.189690 1.762894 0
M  V30 8 C 2.879204 0.291176 0.464365 0
M  V30 9 C 2.397636 1.704092 0.203357 0
M  V30 10 C 1.631372 1.811544 -1.088934 0
M  V30 11 C 0.438226 0.965595 -1.133865 0
M  V30 12 C 0.595967 -0.310250 -1.626790 0
M  V30 13 C -0.498398 -1.169176 -1.696782 0
M  V30 14 C -1.725701 -0.710169 -1.263943 0
M  V30 15 C -1.916575 0.565654 -0.763704 0
M  V30 16 C -0.792821 1.364887 -0.721832 0
M  V30 17 N -3.008093 1.349983 -0.240680 0
M  V30 18 C -2.510478 2.362779 0.671317 0
M  V30 19 C -4.453265 1.290996 -0.463707 0 CFG=1
M  V30 20 C -4.810845 2.017208 -1.724388 0
M  V30 21 C -6.291640 2.008431 -2.037846 0
M  V30 22 C -4.396200 3.490740 -1.645711 0
M  V30 23 C -5.041112 -0.027523 -0.324163 0
M  V30 24 O -6.289907 0.066822 -0.447111 0
M  V30 25 N -4.669554 -1.379600 -0.095748 0
M  V30 26 C -3.461336 -2.133585 -0.209666 0 CFG=2
M  V30 27 C -2.589443 -2.016436 1.029473 0
M  V30 28 O -3.300518 -2.491105 2.123018 0
M  V30 29 C -2.666842 -1.848766 -1.467509 0
M  V30 30 H 6.250399 -4.999822 2.985687 0
M  V30 31 H 5.827329 -6.723648 3.048127 0
M  V30 32 H 4.698493 -5.559223 3.835296 0
M  V30 33 H 5.330700 -6.071921 0.879472 0
M  V30 34 H 3.702633 -6.162158 1.734172 0
M  V30 35 H 3.919328 -4.243927 0.263825 0
M  V30 36 H 5.316781 -3.645907 1.240256 0
M  V30 37 H 3.962545 -3.720819 3.294515 0
M  V30 38 H 2.539496 -4.251117 2.365895 0
M  V30 39 H 2.369740 -1.918642 2.927883 0
M  V30 40 H 2.382410 -2.170665 1.168737 0
M  V30 41 H 4.702272 -1.178147 2.956938 0
M  V30 42 H 4.896262 -1.462628 1.233212 0
M  V30 43 H 4.473550 0.915190 1.764605 0
M  V30 44 H 2.903684 0.465981 2.562438 0
M  V30 45 H 1.921934 -0.280760 0.652864 0
M  V30 46 H 3.456057 -0.092163 -0.379010 0
M  V30 47 H 1.776184 2.091479 1.015496 0
M  V30 48 H 3.296248 2.349077 0.118098 0
M  V30 49 H 2.293163 1.633194 -1.963866 0
M  V30 50 H 1.288151 2.865516 -1.169730 0
M  V30 51 H 1.577563 -0.671853 -1.971141 0
M  V30 52 H -0.349535 -2.160692 -2.085508 0
M  V30 53 H -0.949397 2.360429 -0.334162 0
M  V30 54 H -3.423278 2.419906 1.362111 0
M  V30 55 H -2.509220 3.384930 0.329357 0
M  V30 56 H -1.789349 2.023794 1.423524 0
M  V30 57 H -4.876113 1.923696 0.374639 0
M  V30 58 H -4.208053 1.611227 -2.575749 0
M  V30 59 H -6.483596 2.894369 -2.711272 0
M  V30 60 H -6.578597 1.066146 -2.538757 0
M  V30 61 H -6.842301 2.233170 -1.112397 0
M  V30 62 H -3.351493 3.650292 -1.921542 0
M  V30 63 H -5.020344 4.028531 -2.388857 0
M  V30 64 H -4.680337 3.919692 -0.659417 0
M  V30 65 H -5.478894 -1.979344 0.240320 0
M  V30 66 H -3.716650 -3.232435 -0.284582 0
M  V30 67 H -1.669921 -2.628749 0.938881 0
M  V30 68 H -2.244611 -0.987182 1.216636 0
M  V30 69 H -3.796342 -3.313585 1.866513 0
M  V30 70 H -2.089496 -2.763118 -1.773122 0
M  V30 71 H -3.383128 -1.579499 -2.257881 0
M  V30 END ATOM
M  V30 BEGIN BOND
M  V30 1 1 1 2
M  V30 2 1 2 3
M  V30 3 1 3 4
M  V30 4 1 4 5
M  V30 5 1 5 6
M  V30 6 1 6 7
M  V30 7 1 7 8
M  V30 8 1 8 9
M  V30 9 1 9 10
M  V30 10 1 10 11
M  V30 11 2 11 12
M  V30 12 1 12 13
M  V30 13 2 13 14
M  V30 14 1 14 15
M  V30 15 2 15 16
M  V30 16 1 15 17
M  V30 17 1 17 18
M  V30 18 1 17 19
M  V30 19 1 19 20
M  V30 20 1 20 21
M  V30 21 1 20 22
M  V30 22 1 19 23
M  V30 23 2 23 24
M  V30 24 1 23 25
M  V30 25 1 25 26
M  V30 26 1 26 27
M  V30 27 1 27 28
M  V30 28 1 26 29
M  V30 29 1 16 11
M  V30 30 1 29 14
M  V30 31 1 1 30
M  V30 32 1 1 31
M  V30 33 1 1 32
M  V30 34 1 2 33
M  V30 35 1 2 34
M  V30 36 1 3 35
M  V30 37 1 3 36
M  V30 38 1 4 37
M  V30 39 1 4 38
M  V30 40 1 5 39
M  V30 41 1 5 40
M  V30 42 1 6 41
M  V30 43 1 6 42
M  V30 44 1 7 43
M  V30 45 1 7 44
M  V30 46 1 8 45
M  V30 47 1 8 46
M  V30 48 1 9 47
M  V30 49 1 9 48
M  V30 50 1 10 49
M  V30 51 1 10 50
M  V30 52 1 12 51
M  V30 53 1 13 52
M  V30 54 1 16 53
M  V30 55 1 18 54
M  V30 56 1 18 55
M  V30 57 1 18 56
M  V30 58 1 19 57 CFG=1
M  V30 59 1 20 58
M  V30 60 1 21 59
M  V30 61 1 21 60
M  V30 62 1 21 61
M  V30 63 1 22 62
M  V30 64 1 22 63
M  V30 65 1 22 64
M  V30 66 1 25 65
M  V30 67 1 26 66 CFG=3
M  V30 68 1 27 67
M  V30 69 1 27 68
M  V30 70 1 28 69
M  V30 71 1 29 70
M  V30 72 1 29 71
M  V30 END BOND
M  V30 END CTAB
M  END
>  <Dataset>  (416) 
ChEMBL_Kinases

>  <Ligand_Instance>  (416) 
nan

>  <PDB_ID>  (416) 
nan

>  <Standardized_SMILES>  (416) 
CCCCCCCCCCc1ccc2c(c1)N(C)[C@@H](C(C)C)C(=O)N[C@H](CO)C2

>  <Name>  (416) 
nan

>  <Pocket>  (416) 
nan

>  <ATP_Site>  (416) 
nan

>  <Peripheral>  (416) 
nan

>  <Num_H_Atoms_ProtBoundConf>  (416) 
nan

>  <Num_Resolved_Atoms>  (416) 
nan

>  <Num_Not_Resolved_Atoms>  (416) 
nan

$$$$
CHEMBL349810
     RDKit          3D

  0  0  0  0  0  0  0  0  0  0999 V3000
M  V30 BEGIN CTAB
M  V30 COUNTS 39 41 0 0 0
M  V30 BEGIN ATOM
M  V30 1 C 1.377259 -5.034141 3.277969 0
M  V30 2 O 0.283228 -4.152572 3.121265 0
M  V30 3 C 0.504329 -2.857777 2.650222 0
M  V30 4 C 1.778233 -2.457684 2.346001 0
M  V30 5 C 2.032097 -1.186318 1.878927 0
M  V30 6 C 0.956895 -0.358896 1.739073 0
M  V30 7 C -0.362711 -0.647158 2.010397 0
M  V30 8 C -1.535548 0.182192 1.832594 0
M  V30 9 C -2.101356 0.923131 0.919428 0
M  V30 10 N -1.658058 1.185748 -0.411227 0
M  V30 11 C -0.327965 1.394727 -0.849703 0
M  V30 12 C 0.297315 2.593396 -0.562806 0
M  V30 13 C 1.585045 2.677538 -1.025303 0
M  V30 14 C 2.215582 1.647515 -1.725735 0
M  V30 15 Cl 3.879836 1.837014 -2.284220 0
M  V30 16 C 1.539596 0.474719 -1.984294 0
M  V30 17 C 2.151786 -0.621668 -2.713198 0
M  V30 18 O 3.354253 -0.568746 -3.116200 0
M  V30 19 O 1.487372 -1.792459 -3.023830 0
M  V30 20 C 0.247097 0.338367 -1.542396 0
M  V30 21 C -3.341464 1.530514 1.388994 0
M  V30 22 O -4.123396 2.291137 0.759011 0
M  V30 23 N -3.526885 1.101841 2.725890 0
M  V30 24 C -2.421394 0.269331 3.013624 0
M  V30 25 O -2.385825 -0.237096 4.187868 0
M  V30 26 C -0.517008 -1.956533 2.477728 0
M  V30 27 H 1.972597 -5.047271 2.344466 0
M  V30 28 H 1.014048 -6.071083 3.455312 0
M  V30 29 H 2.058335 -4.693772 4.092175 0
M  V30 30 H 2.616948 -3.130279 2.465660 0
M  V30 31 H 3.024726 -0.873187 1.637833 0
M  V30 32 H 1.174653 0.639810 1.389893 0
M  V30 33 H -2.336962 1.232215 -1.191379 0
M  V30 34 H -0.217367 3.364704 -0.021293 0
M  V30 35 H 2.128390 3.605354 -0.828233 0
M  V30 36 H 1.895036 -2.724228 -3.000604 0
M  V30 37 H -0.270418 -0.576368 -1.739264 0
M  V30 38 H -4.362601 1.401256 3.310041 0
M  V30 39 H -1.498737 -2.344077 2.741430 0
M  V30 END ATOM
M  V30 BEGIN BOND
M  V30 1 1 1 2
M  V30 2 1 2 3
M  V30 3 2 3 4
M  V30 4 1 4 5
M  V30 5 2 5 6
M  V30 6 1 6 7
M  V30 7 1 7 8
M  V30 8 2 8 9
M  V30 9 1 9 10
M  V30 10 1 10 11
M  V30 11 2 11 12
M  V30 12 1 12 13
M  V30 13 2 13 14
M  V30 14 1 14 15
M  V30 15 1 14 16
M  V30 16 1 16 17
M  V30 17 2 17 18
M  V30 18 1 17 19
M  V30 19 2 16 20
M  V30 20 1 9 21
M  V30 21 2 21 22
M  V30 22 1 21 23
M  V30 23 1 23 24
M  V30 24 2 24 25
M  V30 25 2 7 26
M  V30 26 1 26 3
M  V30 27 1 24 8
M  V30 28 1 20 11
M  V30 29 1 1 27
M  V30 30 1 1 28
M  V30 31 1 1 29
M  V30 32 1 4 30
M  V30 33 1 5 31
M  V30 34 1 6 32
M  V30 35 1 10 33
M  V30 36 1 12 34
M  V30 37 1 13 35
M  V30 38 1 19 36
M  V30 39 1 20 37
M  V30 40 1 23 38
M  V30 41 1 26 39
M  V30 END BOND
M  V30 END CTAB
M  END
>  <Dataset>  (417) 
ChEMBL_Kinases

>  <Ligand_Instance>  (417) 
nan

>  <PDB_ID>  (417) 
nan

>  <Standardized_SMILES>  (417) 
COc1cccc(C2=C(Nc3ccc(Cl)c(C(=O)O)c3)C(=O)NC2=O)c1

>  <Name>  (417) 
nan

>  <Pocket>  (417) 
nan

>  <ATP_Site>  (417) 
nan

>  <Peripheral>  (417) 
nan

>  <Num_H_Atoms_ProtBoundConf>  (417) 
nan

>  <Num_Resolved_Atoms>  (417) 
nan

>  <Num_Not_Resolved_Atoms>  (417) 
nan

$$$$
CHEMBL351103
     RDKit          3D

  0  0  0  0  0  0  0  0  0  0999 V3000
M  V30 BEGIN CTAB
M  V30 COUNTS 74 75 0 0 0
M  V30 BEGIN ATOM
M  V30 1 C 1.830762 -3.903247 7.640099 0
M  V30 2 C 1.556956 -4.538080 6.273820 0
M  V30 3 C 0.274916 -4.049875 5.685245 0
M  V30 4 C -0.025546 -4.665814 4.346879 0
M  V30 5 C 1.047822 -4.349727 3.364360 0
M  V30 6 C 0.792324 -4.952424 1.978650 0
M  V30 7 C -0.482201 -4.417611 1.440159 0
M  V30 8 C -0.841878 -4.929670 0.074523 0
M  V30 9 C 0.145789 -4.626131 -0.987276 0
M  V30 10 C 0.419812 -3.187886 -1.240619 0
M  V30 11 C -0.790744 -2.440203 -1.651035 0
M  V30 12 C -0.526331 -0.964961 -1.914704 0
M  V30 13 C 0.454170 -0.717269 -2.980548 0
M  V30 14 C 0.700431 0.711229 -3.303245 0
M  V30 15 C 1.245704 1.629502 -2.295250 0 CFG=1
M  V30 16 C 1.442538 3.018948 -2.893179 0
M  V30 17 O 2.628276 3.468960 -3.052198 0
M  V30 18 N 0.376802 3.902330 -3.310011 0
M  V30 19 C -1.026572 3.932965 -3.541927 0 CFG=2
M  V30 20 C -1.307057 5.224810 -4.340619 0
M  V30 21 O -2.661191 5.350047 -4.620258 0
M  V30 22 C -1.910869 4.030528 -2.356647 0
M  V30 23 C -1.669524 3.127089 -1.244270 0
M  V30 24 C -2.883351 3.334184 -0.568058 0
M  V30 25 C -3.213202 2.710443 0.618339 0
M  V30 26 C -2.316596 1.841037 1.175154 0
M  V30 27 C -1.128986 1.603690 0.564315 0
M  V30 28 C -0.795363 2.224209 -0.620791 0
M  V30 29 N 0.523788 1.800627 -1.041487 0
M  V30 30 C 1.278534 1.536237 0.183586 0
M  V30 31 H 0.950183 -3.953579 8.292270 0
M  V30 32 H 2.269882 -2.892475 7.522758 0
M  V30 33 H 2.646692 -4.514234 8.125119 0
M  V30 34 H 1.540025 -5.638110 6.346890 0
M  V30 35 H 2.400214 -4.169202 5.627068 0
M  V30 36 H 0.352859 -2.939417 5.553073 0
M  V30 37 H -0.579685 -4.227724 6.399553 0
M  V30 38 H -0.142184 -5.772309 4.425071 0
M  V30 39 H -0.992051 -4.219818 4.009482 0
M  V30 40 H 1.115841 -3.245818 3.287255 0
M  V30 41 H 2.048476 -4.681709 3.722148 0
M  V30 42 H 1.684763 -4.728641 1.372715 0
M  V30 43 H 0.742764 -6.058025 2.040663 0
M  V30 44 H -0.526247 -3.323470 1.554576 0
M  V30 45 H -1.298263 -4.823200 2.112724 0
M  V30 46 H -0.865655 -6.048733 0.172076 0
M  V30 47 H -1.854055 -4.617216 -0.178159 0
M  V30 48 H -0.284464 -5.036882 -1.939469 0
M  V30 49 H 1.088865 -5.202656 -0.829323 0
M  V30 50 H 1.156624 -3.138828 -2.078569 0
M  V30 51 H 0.936793 -2.784551 -0.352639 0
M  V30 52 H -1.160840 -2.886906 -2.597238 0
M  V30 53 H -1.622394 -2.511864 -0.920830 0
M  V30 54 H -1.471416 -0.439480 -2.135173 0
M  V30 55 H -0.125436 -0.539836 -0.972979 0
M  V30 56 H 0.106415 -1.293259 -3.894702 0
M  V30 57 H 1.458977 -1.177502 -2.788155 0
M  V30 58 H -0.230631 1.145934 -3.800808 0
M  V30 59 H 1.441523 0.710124 -4.164589 0
M  V30 60 H 2.271631 1.304135 -2.027246 0
M  V30 61 H 0.880892 4.826472 -3.490778 0
M  V30 62 H -1.425293 3.134821 -4.204490 0
M  V30 63 H -1.034948 6.059066 -3.660775 0
M  V30 64 H -0.672305 5.301445 -5.236699 0
M  V30 65 H -3.076041 6.132343 -4.139577 0
M  V30 66 H -1.975503 5.109398 -2.041441 0
M  V30 67 H -2.959160 3.825864 -2.731721 0
M  V30 68 H -3.688253 4.006463 -0.908414 0
M  V30 69 H -4.142364 2.860400 1.148585 0
M  V30 70 H -2.492713 1.307307 2.104890 0
M  V30 71 H -0.351333 0.960196 0.883594 0
M  V30 72 H 1.528277 0.510391 0.393773 0
M  V30 73 H 1.143337 2.259963 0.986158 0
M  V30 74 H 2.303200 1.891980 -0.178212 0
M  V30 END ATOM
M  V30 BEGIN BOND
M  V30 1 1 1 2
M  V30 2 1 2 3
M  V30 3 1 3 4
M  V30 4 1 4 5
M  V30 5 1 5 6
M  V30 6 1 6 7
M  V30 7 1 7 8
M  V30 8 1 8 9
M  V30 9 1 9 10
M  V30 10 1 10 11
M  V30 11 1 11 12
M  V30 12 1 12 13
M  V30 13 1 13 14
M  V30 14 1 14 15
M  V30 15 1 15 16
M  V30 16 2 16 17
M  V30 17 1 16 18
M  V30 18 1 18 19
M  V30 19 1 19 20
M  V30 20 1 20 21
M  V30 21 1 19 22
M  V30 22 1 22 23
M  V30 23 2 23 24
M  V30 24 1 24 25
M  V30 25 2 25 26
M  V30 26 1 26 27
M  V30 27 2 27 28
M  V30 28 1 28 29
M  V30 29 1 29 30
M  V30 30 1 29 15
M  V30 31 1 28 23
M  V30 32 1 1 31
M  V30 33 1 1 32
M  V30 34 1 1 33
M  V30 35 1 2 34
M  V30 36 1 2 35
M  V30 37 1 3 36
M  V30 38 1 3 37
M  V30 39 1 4 38
M  V30 40 1 4 39
M  V30 41 1 5 40
M  V30 42 1 5 41
M  V30 43 1 6 42
M  V30 44 1 6 43
M  V30 45 1 7 44
M  V30 46 1 7 45
M  V30 47 1 8 46
M  V30 48 1 8 47
M  V30 49 1 9 48
M  V30 50 1 9 49
M  V30 51 1 10 50
M  V30 52 1 10 51
M  V30 53 1 11 52
M  V30 54 1 11 53
M  V30 55 1 12 54
M  V30 56 1 12 55
M  V30 57 1 13 56
M  V30 58 1 13 57
M  V30 59 1 14 58
M  V30 60 1 14 59
M  V30 61 1 15 60 CFG=1
M  V30 62 1 18 61
M  V30 63 1 19 62 CFG=3
M  V30 64 1 20 63
M  V30 65 1 20 64
M  V30 66 1 21 65
M  V30 67 1 22 66
M  V30 68 1 22 67
M  V30 69 1 24 68
M  V30 70 1 25 69
M  V30 71 1 26 70
M  V30 72 1 27 71
M  V30 73 1 30 72
M  V30 74 1 30 73
M  V30 75 1 30 74
M  V30 END BOND
M  V30 END CTAB
M  END
>  <Dataset>  (418) 
ChEMBL_Kinases

>  <Ligand_Instance>  (418) 
nan

>  <PDB_ID>  (418) 
nan

>  <Standardized_SMILES>  (418) 
CCCCCCCCCCCCCC[C@H]1C(=O)N[C@H](CO)Cc2ccccc2N1C

>  <Name>  (418) 
nan

>  <Pocket>  (418) 
nan

>  <ATP_Site>  (418) 
nan

>  <Peripheral>  (418) 
nan

>  <Num_H_Atoms_ProtBoundConf>  (418) 
nan

>  <Num_Resolved_Atoms>  (418) 
nan

>  <Num_Not_Resolved_Atoms>  (418) 
nan

$$$$
CHEMBL352205
     RDKit          3D

  0  0  0  0  0  0  0  0  0  0999 V3000
M  V30 BEGIN CTAB
M  V30 COUNTS 20 20 0 0 0
M  V30 BEGIN ATOM
M  V30 1 N 0.197097 2.587711 0.877351 0
M  V30 2 N -0.771441 1.759579 1.425591 0
M  V30 3 C -0.258205 0.605874 2.082100 0
M  V30 4 C 0.526421 -0.259641 1.160577 0
M  V30 5 C 1.894427 -0.077715 0.995798 0
M  V30 6 C 2.557589 -0.928276 0.115411 0
M  V30 7 C 1.900054 -1.917573 -0.574430 0
M  V30 8 C 0.542289 -2.085350 -0.399982 0
M  V30 9 O -0.119232 -3.087202 -1.099598 0
M  V30 10 C -0.128442 -1.260723 0.460062 0
M  V30 11 H 0.801956 2.173488 0.165511 0
M  V30 12 H -0.088241 3.563770 0.763596 0
M  V30 13 H -1.345261 2.315490 2.069596 0
M  V30 14 H 0.340012 0.794638 2.979892 0
M  V30 15 H -1.150159 0.024706 2.436104 0
M  V30 16 H 2.320078 0.717872 1.574703 0
M  V30 17 H 3.623733 -0.761373 0.008410 0
M  V30 18 H 2.422229 -2.560658 -1.244929 0
M  V30 19 H -0.522919 -2.908721 -2.018091 0
M  V30 20 H -1.181890 -1.367016 0.615763 0
M  V30 END ATOM
M  V30 BEGIN BOND
M  V30 1 1 1 2
M  V30 2 1 2 3
M  V30 3 1 3 4
M  V30 4 2 4 5
M  V30 5 1 5 6
M  V30 6 2 6 7
M  V30 7 1 7 8
M  V30 8 1 8 9
M  V30 9 2 8 10
M  V30 10 1 10 4
M  V30 11 1 1 11
M  V30 12 1 1 12
M  V30 13 1 2 13
M  V30 14 1 3 14
M  V30 15 1 3 15
M  V30 16 1 5 16
M  V30 17 1 6 17
M  V30 18 1 7 18
M  V30 19 1 9 19
M  V30 20 1 10 20
M  V30 END BOND
M  V30 END CTAB
M  END
>  <Dataset>  (419) 
ChEMBL_Kinases

>  <Ligand_Instance>  (419) 
nan

>  <PDB_ID>  (419) 
nan

>  <Standardized_SMILES>  (419) 
NNCc1cccc(O)c1

>  <Name>  (419) 
3-HYDROXYBENZYLHYDRAZINE DIHYDROCHLORIDE

>  <Pocket>  (419) 
nan

>  <ATP_Site>  (419) 
nan

>  <Peripheral>  (419) 
nan

>  <Num_H_Atoms_ProtBoundConf>  (419) 
nan

>  <Num_Resolved_Atoms>  (419) 
nan

>  <Num_Not_Resolved_Atoms>  (419) 
nan

$$$$
CHEMBL352222
     RDKit          3D

  0  0  0  0  0  0  0  0  0  0999 V3000
M  V30 BEGIN CTAB
M  V30 COUNTS 35 37 0 0 0
M  V30 BEGIN ATOM
M  V30 1 O 1.332374 -4.671999 1.115438 0
M  V30 2 C 1.639376 -3.454062 1.240027 0
M  V30 3 N 2.677975 -3.169604 2.185307 0
M  V30 4 C 2.840836 -1.750993 2.145414 0
M  V30 5 O 3.634493 -1.003393 2.795222 0
M  V30 6 C 1.888251 -1.242591 1.172344 0
M  V30 7 C 1.719657 0.148319 0.789357 0
M  V30 8 C 1.722158 1.110063 1.797419 0
M  V30 9 C 1.589189 2.463616 1.549852 0
M  V30 10 C 1.447877 2.812470 0.207966 0
M  V30 11 C 1.446475 1.863640 -0.775232 0
M  V30 12 N 1.296177 2.322829 -2.124768 0 CHG=1 VAL=4
M  V30 13 O 1.298194 1.484587 -3.063882 0
M  V30 14 O 1.146351 3.627767 -2.528644 0 CHG=-1 VAL=1
M  V30 15 C 1.577709 0.532561 -0.518177 0
M  V30 16 C 1.172960 -2.201746 0.627164 0
M  V30 17 N 0.127858 -2.307982 -0.328968 0
M  V30 18 C -1.140545 -1.756877 0.022358 0
M  V30 19 C -1.727309 -0.595269 -0.440146 0
M  V30 20 C -2.948630 -0.127816 -0.021545 0
M  V30 21 Cl -3.492362 1.361615 -0.751698 0
M  V30 22 C -3.648072 -0.859481 0.924881 0
M  V30 23 O -4.883376 -0.308925 1.290310 0
M  V30 24 C -3.107126 -2.032969 1.423874 0
M  V30 25 Cl -4.087340 -2.863668 2.622947 0
M  V30 26 C -1.868114 -2.470481 0.974554 0
M  V30 27 H 3.295795 -3.703695 2.840452 0
M  V30 28 H 1.831649 0.821557 2.845817 0
M  V30 29 H 1.588997 3.202486 2.333073 0
M  V30 30 H 1.338827 3.871841 0.009876 0
M  V30 31 H 1.569350 -0.193394 -1.298475 0
M  V30 32 H 0.166317 -2.756037 -1.278851 0
M  V30 33 H -1.137856 -0.083957 -1.180159 0
M  V30 34 H -4.825792 0.467439 1.957437 0
M  V30 35 H -1.588161 -3.407304 1.468746 0
M  V30 END ATOM
M  V30 BEGIN BOND
M  V30 1 2 1 2
M  V30 2 1 2 3
M  V30 3 1 3 4
M  V30 4 2 4 5
M  V30 5 1 4 6
M  V30 6 1 6 7
M  V30 7 2 7 8
M  V30 8 1 8 9
M  V30 9 2 9 10
M  V30 10 1 10 11
M  V30 11 1 11 12
M  V30 12 2 12 13
M  V30 13 1 12 14
M  V30 14 2 11 15
M  V30 15 2 6 16
M  V30 16 1 16 17
M  V30 17 1 17 18
M  V30 18 2 18 19
M  V30 19 1 19 20
M  V30 20 1 20 21
M  V30 21 2 20 22
M  V30 22 1 22 23
M  V30 23 1 22 24
M  V30 24 1 24 25
M  V30 25 2 24 26
M  V30 26 1 16 2
M  V30 27 1 26 18
M  V30 28 1 15 7
M  V30 29 1 3 27
M  V30 30 1 8 28
M  V30 31 1 9 29
M  V30 32 1 10 30
M  V30 33 1 15 31
M  V30 34 1 17 32
M  V30 35 1 19 33
M  V30 36 1 23 34
M  V30 37 1 26 35
M  V30 END BOND
M  V30 END CTAB
M  END
>  <Dataset>  (420) 
ChEMBL_Kinases

>  <Ligand_Instance>  (420) 
nan

>  <PDB_ID>  (420) 
nan

>  <Standardized_SMILES>  (420) 
O=C1NC(=O)C(c2cccc([N+](=O)[O-])c2)=C1Nc1cc(Cl)c(O)c(Cl)c1

>  <Name>  (420) 
nan

>  <Pocket>  (420) 
nan

>  <ATP_Site>  (420) 
nan

>  <Peripheral>  (420) 
nan

>  <Num_H_Atoms_ProtBoundConf>  (420) 
nan

>  <Num_Resolved_Atoms>  (420) 
nan

>  <Num_Not_Resolved_Atoms>  (420) 
nan

$$$$
CHEMBL356164
     RDKit          3D

  0  0  0  0  0  0  0  0  0  0999 V3000
M  V30 BEGIN CTAB
M  V30 COUNTS 14 14 0 0 0
M  V30 BEGIN ATOM
M  V30 1 N -0.244364 0.025023 2.880765 0
M  V30 2 C 0.377520 -0.902917 1.965439 0
M  V30 3 O 0.155995 -2.130593 1.968816 0
M  V30 4 C 1.311390 -0.340490 0.995926 0
M  V30 5 C 1.954726 -1.138054 0.082580 0
M  V30 6 C 2.762754 -0.288932 -0.681194 0
M  V30 7 Br 3.954563 -0.628663 -2.137591 0
M  V30 8 C 2.575515 0.989208 -0.198694 0
M  V30 9 Br 3.379807 2.618409 -0.796526 0
M  V30 10 N 1.686158 0.930647 0.823417 0
M  V30 11 H -1.193804 0.250281 2.506254 0
M  V30 12 H -1.196728 0.486371 2.855202 0
M  V30 13 H 1.948577 -2.206420 -0.131559 0
M  V30 14 H 1.355746 1.735387 1.374356 0
M  V30 END ATOM
M  V30 BEGIN BOND
M  V30 1 1 1 2
M  V30 2 2 2 3
M  V30 3 1 2 4
M  V30 4 2 4 5
M  V30 5 1 5 6
M  V30 6 1 6 7
M  V30 7 2 6 8
M  V30 8 1 8 9
M  V30 9 1 8 10
M  V30 10 1 10 4
M  V30 11 1 1 11
M  V30 12 1 1 12
M  V30 13 1 5 13
M  V30 14 1 10 14
M  V30 END BOND
M  V30 END CTAB
M  END
>  <Dataset>  (421) 
ChEMBL_Kinases

>  <Ligand_Instance>  (421) 
nan

>  <PDB_ID>  (421) 
nan

>  <Standardized_SMILES>  (421) 
NC(=O)c1cc(Br)c(Br)[nH]1

>  <Name>  (421) 
nan

>  <Pocket>  (421) 
nan

>  <ATP_Site>  (421) 
nan

>  <Peripheral>  (421) 
nan

>  <Num_H_Atoms_ProtBoundConf>  (421) 
nan

>  <Num_Resolved_Atoms>  (421) 
nan

>  <Num_Not_Resolved_Atoms>  (421) 
nan

$$$$
CHEMBL3545076
     RDKit          3D

  0  0  0  0  0  0  0  0  0  0999 V3000
M  V30 BEGIN CTAB
M  V30 COUNTS 51 55 0 0 0
M  V30 BEGIN ATOM
M  V30 1 C -0.081327 -1.721311 1.951143 0
M  V30 2 N 0.604110 -0.601458 1.385226 0
M  V30 3 C 1.557283 0.015141 2.145449 0
M  V30 4 C 2.081628 1.057175 1.406332 0
M  V30 5 C 3.128124 1.990001 1.819577 0
M  V30 6 C 3.698562 1.875945 3.070270 0
M  V30 7 C 4.691590 2.740671 3.496251 0
M  V30 8 C 5.098330 3.734689 2.616917 0
M  V30 9 F 6.081154 4.606688 3.012016 0
M  V30 10 C 4.521461 3.843399 1.363006 0
M  V30 11 C 5.033368 4.955582 0.485612 0
M  V30 12 F 4.834440 6.192435 1.077371 0
M  V30 13 F 6.371926 4.765337 0.195990 0
M  V30 14 F 4.307641 4.929302 -0.690085 0
M  V30 15 C 3.535373 2.975820 0.954653 0
M  V30 16 N 1.441654 1.036780 0.247870 0
M  V30 17 C 0.528949 0.034020 0.198896 0
M  V30 18 C -0.421206 -0.393658 -0.865937 0
M  V30 19 C -0.101074 -1.716736 -1.446566 0
M  V30 20 C -1.223109 -2.585251 -1.867828 0
M  V30 21 N -2.422190 -2.490455 -1.029508 0
M  V30 22 C -2.891107 -3.670353 -0.387995 0
M  V30 23 N -2.432237 -4.849113 -0.905711 0
M  V30 24 C -2.827855 -6.033187 -0.416513 0
M  V30 25 N -3.692312 -6.135909 0.604581 0
M  V30 26 C -4.182562 -5.038658 1.162381 0
M  V30 27 N -5.029264 -4.772559 2.171920 0
M  V30 28 N -5.147272 -3.442792 2.297524 0
M  V30 29 C -4.387464 -2.844848 1.381469 0
M  V30 30 C -3.771028 -3.832981 0.654056 0
M  V30 31 C -2.825447 -1.129547 -1.118002 0
M  V30 32 C -1.861352 -0.148319 -0.531870 0
M  V30 33 H 0.610645 -2.531879 2.292992 0
M  V30 34 H -0.651972 -1.469694 2.893734 0
M  V30 35 H -0.828834 -2.175882 1.272697 0
M  V30 36 H 1.915873 -0.190046 3.151284 0
M  V30 37 H 3.379841 1.094577 3.763403 0
M  V30 38 H 5.149438 2.654781 4.490680 0
M  V30 39 H 3.114190 3.099748 -0.034242 0
M  V30 40 H -0.204647 0.339727 -1.703496 0
M  V30 41 H 0.582617 -2.220726 -0.698009 0
M  V30 42 H 0.581255 -1.670107 -2.350141 0
M  V30 43 H -1.544784 -2.333697 -2.901860 0
M  V30 44 H -0.884762 -3.665509 -1.851191 0
M  V30 45 H -2.461806 -6.972531 -0.829885 0
M  V30 46 H -5.488930 -5.524420 2.730466 0
M  V30 47 H -4.308631 -1.794543 1.288661 0
M  V30 48 H -2.955146 -0.913658 -2.232773 0
M  V30 49 H -3.838651 -0.900862 -0.741662 0
M  V30 50 H -2.204822 0.865128 -0.831876 0
M  V30 51 H -1.931959 -0.162961 0.577382 0
M  V30 END ATOM
M  V30 BEGIN BOND
M  V30 1 1 1 2
M  V30 2 1 2 3
M  V30 3 2 3 4
M  V30 4 1 4 5
M  V30 5 2 5 6
M  V30 6 1 6 7
M  V30 7 2 7 8
M  V30 8 1 8 9
M  V30 9 1 8 10
M  V30 10 1 10 11
M  V30 11 1 11 12
M  V30 12 1 11 13
M  V30 13 1 11 14
M  V30 14 2 10 15
M  V30 15 1 4 16
M  V30 16 2 16 17
M  V30 17 1 17 18
M  V30 18 1 18 19
M  V30 19 1 19 20
M  V30 20 1 20 21
M  V30 21 1 21 22
M  V30 22 2 22 23
M  V30 23 1 23 24
M  V30 24 2 24 25
M  V30 25 1 25 26
M  V30 26 1 26 27
M  V30 27 1 27 28
M  V30 28 2 28 29
M  V30 29 1 29 30
M  V30 30 1 21 31
M  V30 31 1 31 32
M  V30 32 1 17 2
M  V30 33 1 32 18
M  V30 34 1 15 5
M  V30 35 1 30 22
M  V30 36 2 30 26
M  V30 37 1 1 33
M  V30 38 1 1 34
M  V30 39 1 1 35
M  V30 40 1 3 36
M  V30 41 1 6 37
M  V30 42 1 7 38
M  V30 43 1 15 39
M  V30 44 1 18 40
M  V30 45 1 19 41
M  V30 46 1 19 42
M  V30 47 1 20 43
M  V30 48 1 20 44
M  V30 49 1 24 45
M  V30 50 1 27 46
M  V30 51 1 29 47
M  V30 52 1 31 48
M  V30 53 1 31 49
M  V30 54 1 32 50
M  V30 55 1 32 51
M  V30 END BOND
M  V30 END CTAB
M  END
>  <Dataset>  (422) 
ChEMBL_Kinases

>  <Ligand_Instance>  (422) 
nan

>  <PDB_ID>  (422) 
nan

>  <Standardized_SMILES>  (422) 
Cn1cc(-c2ccc(F)c(C(F)(F)F)c2)nc1C1CCN(c2ncnc3[nH]ncc23)CC1

>  <Name>  (422) 
LY-2584702

>  <Pocket>  (422) 
nan

>  <ATP_Site>  (422) 
nan

>  <Peripheral>  (422) 
nan

>  <Num_H_Atoms_ProtBoundConf>  (422) 
nan

>  <Num_Resolved_Atoms>  (422) 
nan

>  <Num_Not_Resolved_Atoms>  (422) 
nan

$$$$
CHEMBL3545154
     RDKit          3D

  0  0  0  0  0  0  0  0  0  0999 V3000
M  V30 BEGIN CTAB
M  V30 COUNTS 54 57 0 0 0
M  V30 BEGIN ATOM
M  V30 1 C 5.106852 -4.081589 1.083399 0
M  V30 2 C 4.792671 -2.829450 1.435006 0
M  V30 3 C 3.864548 -2.672848 2.561693 0
M  V30 4 O 3.295261 -3.578617 3.268642 0
M  V30 5 N 3.478643 -1.353006 3.006394 0
M  V30 6 C 3.891324 -0.043328 2.531629 0
M  V30 7 C 2.791997 0.579560 1.687716 0
M  V30 8 C 1.431341 0.000747 2.094725 0
M  V30 9 O 1.267347 -1.151271 1.354194 0
M  V30 10 C 0.312336 -1.498633 0.457154 0
M  V30 11 C -0.744174 -0.677945 0.150888 0
M  V30 12 C -1.674769 -1.102893 -0.773414 0
M  V30 13 C -2.739945 -0.299766 -1.098768 0
M  V30 14 N -2.974524 0.974779 -0.525642 0
M  V30 15 C -4.020504 1.893352 -0.813630 0
M  V30 16 C -4.922508 2.295772 0.150044 0
M  V30 17 C -5.938043 3.202684 -0.143384 0
M  V30 18 C -6.029698 3.696580 -1.421530 0
M  V30 19 Cl -7.278746 4.841353 -1.850585 0
M  V30 20 C -5.157798 3.342502 -2.459043 0
M  V30 21 Cl -5.304295 3.991992 -4.072891 0
M  V30 22 C -4.181974 2.435273 -2.067843 0
M  V30 23 F -3.288163 2.029246 -3.002587 0
M  V30 24 N -3.598590 -0.774903 -2.003535 0
M  V30 25 C -3.507187 -1.963452 -2.616468 0
M  V30 26 N -2.435006 -2.726892 -2.262021 0
M  V30 27 C -1.518534 -2.336199 -1.362621 0
M  V30 28 C -0.476885 -3.185770 -1.083534 0
M  V30 29 C 0.445839 -2.749297 -0.158482 0
M  V30 30 O 1.531901 -3.549377 0.181831 0
M  V30 31 C 1.660404 -4.806524 -0.444860 0
M  V30 32 C 1.483889 -0.170200 3.590641 0
M  V30 33 C 2.515493 -1.124162 4.081456 0
M  V30 34 H 4.426038 -4.011809 1.915254 0
M  V30 35 H 5.800750 -4.226669 0.236782 0
M  V30 36 H 5.141924 -1.928448 0.999809 0
M  V30 37 H 4.202273 0.637380 3.360112 0
M  V30 38 H 4.788615 -0.128084 1.887499 0
M  V30 39 H 3.010440 0.329420 0.629223 0
M  V30 40 H 2.863936 1.662793 1.850129 0
M  V30 41 H 0.670408 0.759768 1.890574 0
M  V30 42 H -0.846944 0.268483 0.616439 0
M  V30 43 H -2.420954 1.460185 0.208890 0
M  V30 44 H -4.898975 1.949821 1.148763 0
M  V30 45 H -6.668985 3.551810 0.564734 0
M  V30 46 H -4.251832 -2.259737 -3.335260 0
M  V30 47 H -0.414119 -4.141932 -1.580538 0
M  V30 48 H 0.935548 -5.553034 -0.021029 0
M  V30 49 H 1.516791 -4.785734 -1.539033 0
M  V30 50 H 2.681532 -5.254546 -0.291187 0
M  V30 51 H 1.668267 0.826414 4.031908 0
M  V30 52 H 0.509643 -0.497799 4.014214 0
M  V30 53 H 2.059924 -2.105703 4.396447 0
M  V30 54 H 3.038176 -0.683750 4.950396 0
M  V30 END ATOM
M  V30 BEGIN BOND
M  V30 1 2 1 2
M  V30 2 1 2 3
M  V30 3 2 3 4
M  V30 4 1 3 5
M  V30 5 1 5 6
M  V30 6 1 6 7
M  V30 7 1 7 8
M  V30 8 1 8 9
M  V30 9 1 9 10
M  V30 10 2 10 11
M  V30 11 1 11 12
M  V30 12 2 12 13
M  V30 13 1 13 14
M  V30 14 1 14 15
M  V30 15 2 15 16
M  V30 16 1 16 17
M  V30 17 2 17 18
M  V30 18 1 18 19
M  V30 19 1 18 20
M  V30 20 1 20 21
M  V30 21 2 20 22
M  V30 22 1 22 23
M  V30 23 1 13 24
M  V30 24 2 24 25
M  V30 25 1 25 26
M  V30 26 2 26 27
M  V30 27 1 27 28
M  V30 28 2 28 29
M  V30 29 1 29 30
M  V30 30 1 30 31
M  V30 31 1 8 32
M  V30 32 1 32 33
M  V30 33 1 33 5
M  V30 34 1 29 10
M  V30 35 1 27 12
M  V30 36 1 22 15
M  V30 37 1 1 34
M  V30 38 1 1 35
M  V30 39 1 2 36
M  V30 40 1 6 37
M  V30 41 1 6 38
M  V30 42 1 7 39
M  V30 43 1 7 40
M  V30 44 1 8 41
M  V30 45 1 11 42
M  V30 46 1 14 43
M  V30 47 1 16 44
M  V30 48 1 17 45
M  V30 49 1 25 46
M  V30 50 1 28 47
M  V30 51 1 31 48
M  V30 52 1 31 49
M  V30 53 1 31 50
M  V30 54 1 32 51
M  V30 55 1 32 52
M  V30 56 1 33 53
M  V30 57 1 33 54
M  V30 END BOND
M  V30 END CTAB
M  END
>  <Dataset>  (423) 
ChEMBL_Kinases

>  <Ligand_Instance>  (423) 
nan

>  <PDB_ID>  (423) 
nan

>  <Standardized_SMILES>  (423) 
C=CC(=O)N1CCC(Oc2cc3c(Nc4ccc(Cl)c(Cl)c4F)ncnc3cc2OC)CC1

>  <Name>  (423) 
POZIOTINIB

>  <Pocket>  (423) 
nan

>  <ATP_Site>  (423) 
nan

>  <Peripheral>  (423) 
nan

>  <Num_H_Atoms_ProtBoundConf>  (423) 
nan

>  <Num_Resolved_Atoms>  (423) 
nan

>  <Num_Not_Resolved_Atoms>  (423) 
nan

$$$$
CHEMBL3545157
     RDKit          3D

  0  0  0  0  0  0  0  0  0  0999 V3000
M  V30 BEGIN CTAB
M  V30 COUNTS 38 41 0 0 0
M  V30 BEGIN ATOM
M  V30 1 O -1.338144 1.894056 3.252596 0
M  V30 2 C -0.779774 1.306358 2.311862 0
M  V30 3 S 0.662361 1.647885 1.157227 0
M  V30 4 N 0.587671 0.296441 0.302494 0
M  V30 5 C 1.447732 -0.084370 -0.786909 0
M  V30 6 C 2.188174 -1.245603 -0.662794 0
M  V30 7 C 3.027190 -1.674354 -1.652519 0
M  V30 8 C 3.120384 -0.912643 -2.793748 0
M  V30 9 C 2.368876 0.253952 -2.904435 0
M  V30 10 C 2.494258 0.992821 -4.075477 0
M  V30 11 C 1.775935 2.176549 -4.268747 0
M  V30 12 C 0.932865 2.577407 -3.236070 0
M  V30 13 C 0.803334 1.845749 -2.066610 0
M  V30 14 C 1.532093 0.687617 -1.925062 0
M  V30 15 C -0.504238 -0.506213 0.803704 0
M  V30 16 O -0.717728 -1.593903 0.263621 0
M  V30 17 N -1.168505 0.021585 1.805205 0
M  V30 18 C -2.295807 -0.661573 2.419555 0
M  V30 19 C -1.885280 -1.535932 3.550833 0
M  V30 20 C -1.827722 -1.052890 4.842171 0
M  V30 21 C -1.456327 -1.801448 5.945219 0
M  V30 22 C -1.116698 -3.131840 5.745980 0
M  V30 23 C -1.167760 -3.630151 4.469843 0
M  V30 24 C -1.539222 -2.879413 3.370412 0
M  V30 25 H 2.082631 -1.817067 0.258619 0
M  V30 26 H 3.572494 -2.585422 -1.489934 0
M  V30 27 H 3.769610 -1.216075 -3.595688 0
M  V30 28 H 3.149985 0.679500 -4.876701 0
M  V30 29 H 1.890064 2.734795 -5.189047 0
M  V30 30 H 0.372956 3.506176 -3.394524 0
M  V30 31 H 0.155937 2.165957 -1.289398 0
M  V30 32 H -3.020483 0.082028 2.795098 0
M  V30 33 H -2.846403 -1.256653 1.657654 0
M  V30 34 H -2.077573 -0.027800 5.075403 0
M  V30 35 H -1.423643 -1.384590 6.945168 0
M  V30 36 H -0.826857 -3.709047 6.619913 0
M  V30 37 H -0.895136 -4.684927 4.334536 0
M  V30 38 H -1.572530 -3.298093 2.362726 0
M  V30 END ATOM
M  V30 BEGIN BOND
M  V30 1 2 1 2
M  V30 2 1 2 3
M  V30 3 1 3 4
M  V30 4 1 4 5
M  V30 5 2 5 6
M  V30 6 1 6 7
M  V30 7 2 7 8
M  V30 8 1 8 9
M  V30 9 2 9 10
M  V30 10 1 10 11
M  V30 11 2 11 12
M  V30 12 1 12 13
M  V30 13 2 13 14
M  V30 14 1 4 15
M  V30 15 2 15 16
M  V30 16 1 15 17
M  V30 17 1 17 18
M  V30 18 1 18 19
M  V30 19 2 19 20
M  V30 20 1 20 21
M  V30 21 2 21 22
M  V30 22 1 22 23
M  V30 23 2 23 24
M  V30 24 1 17 2
M  V30 25 1 24 19
M  V30 26 1 14 5
M  V30 27 1 14 9
M  V30 28 1 6 25
M  V30 29 1 7 26
M  V30 30 1 8 27
M  V30 31 1 10 28
M  V30 32 1 11 29
M  V30 33 1 12 30
M  V30 34 1 13 31
M  V30 35 1 18 32
M  V30 36 1 18 33
M  V30 37 1 20 34
M  V30 38 1 21 35
M  V30 39 1 22 36
M  V30 40 1 23 37
M  V30 41 1 24 38
M  V30 END BOND
M  V30 END CTAB
M  END
>  <Dataset>  (424) 
ChEMBL_Kinases

>  <Ligand_Instance>  (424) 
nan

>  <PDB_ID>  (424) 
nan

>  <Standardized_SMILES>  (424) 
O=c1sn(-c2cccc3ccccc23)c(=O)n1Cc1ccccc1

>  <Name>  (424) 
TIDEGLUSIB

>  <Pocket>  (424) 
nan

>  <ATP_Site>  (424) 
nan

>  <Peripheral>  (424) 
nan

>  <Num_H_Atoms_ProtBoundConf>  (424) 
nan

>  <Num_Resolved_Atoms>  (424) 
nan

>  <Num_Not_Resolved_Atoms>  (424) 
nan

$$$$
CHEMBL3545311
     RDKit          3D

  0  0  0  0  0  0  0  0  0  0999 V3000
M  V30 BEGIN CTAB
M  V30 COUNTS 79 83 0 0 0
M  V30 BEGIN ATOM
M  V30 1 C 2.247544 -0.831667 5.373830 0
M  V30 2 O 2.061959 -1.773173 4.318861 0
M  V30 3 C 0.875739 -1.711774 3.589610 0
M  V30 4 C -0.076075 -0.748408 3.904526 0
M  V30 5 C -1.252898 -0.682795 3.189684 0
M  V30 6 N -2.285093 0.299621 3.418827 0
M  V30 7 C -3.677221 0.139914 3.132114 0
M  V30 8 C -4.146278 1.036987 2.013890 0
M  V30 9 C -3.383205 2.302950 1.909501 0
M  V30 10 N -2.620425 2.449647 0.701401 0
M  V30 11 C -3.401863 2.393593 -0.494363 0
M  V30 12 C -2.782709 1.587901 -1.611171 0
M  V30 13 N -1.393748 1.833313 -1.786740 0
M  V30 14 C -1.069632 2.508999 -3.021147 0
M  V30 15 C -0.696657 2.318635 -0.637772 0
M  V30 16 C -1.414899 1.723448 0.588951 0
M  V30 17 C -2.546492 2.681066 3.090993 0
M  V30 18 C -2.029088 1.604185 3.959631 0
M  V30 19 C -1.498816 -1.580308 2.147130 0
M  V30 20 C -0.502216 -2.504882 1.899639 0
M  V30 21 C 0.696738 -2.620936 2.578404 0
M  V30 22 N 1.683451 -3.593835 2.240035 0
M  V30 23 C 1.363719 -4.466330 1.148658 0
M  V30 24 N 1.091165 -5.778657 0.991298 0
M  V30 25 C 0.798944 -6.279462 -0.221057 0
M  V30 26 C 0.758440 -5.501853 -1.363571 0
M  V30 27 Cl 0.363072 -6.304899 -2.863461 0
M  V30 28 C 1.041076 -4.154677 -1.185685 0
M  V30 29 N 0.982717 -3.370813 -2.364524 0
M  V30 30 C 1.709897 -2.880352 -3.469931 0
M  V30 31 C 1.138906 -3.340630 -4.665618 0
M  V30 32 C 1.695717 -2.975929 -5.890294 0
M  V30 33 C 2.799150 -2.165022 -5.825108 0
M  V30 34 C 3.378895 -1.698820 -4.656528 0
M  V30 35 C 2.817368 -2.067290 -3.447234 0
M  V30 36 P 3.447084 -1.553644 -1.886596 0
M  V30 37 C 2.245458 -0.728444 -0.831142 0
M  V30 38 C 4.812479 -0.368352 -2.189344 0
M  V30 39 O 4.067299 -2.699877 -1.111858 0
M  V30 40 N 1.322554 -3.723350 0.036418 0
M  V30 41 H 3.151390 -1.094871 5.962826 0
M  V30 42 H 2.227261 0.209672 5.021509 0
M  V30 43 H 1.398747 -0.934721 6.106023 0
M  V30 44 H 0.077852 -0.036934 4.702882 0
M  V30 45 H -4.280939 0.342006 4.043062 0
M  V30 46 H -3.867426 -0.929242 2.885114 0
M  V30 47 H -5.234420 1.219691 2.186355 0
M  V30 48 H -4.116825 0.408862 1.097973 0
M  V30 49 H -4.149336 3.150317 1.835352 0
M  V30 50 H -4.380291 1.910842 -0.243890 0
M  V30 51 H -3.656924 3.427507 -0.827949 0
M  V30 52 H -3.290904 1.917107 -2.563822 0
M  V30 53 H -2.993538 0.513638 -1.518863 0
M  V30 54 H 0.012018 2.580272 -3.137529 0
M  V30 55 H -1.552333 3.486999 -3.109516 0
M  V30 56 H -1.466715 1.900423 -3.877377 0
M  V30 57 H 0.375865 2.062710 -0.647918 0
M  V30 58 H -0.821639 3.432692 -0.596495 0
M  V30 59 H -0.758925 1.792241 1.454968 0
M  V30 60 H -1.543182 0.645286 0.281182 0
M  V30 61 H -3.099596 3.406527 3.761437 0
M  V30 62 H -1.634666 3.219960 2.677488 0
M  V30 63 H -0.946696 1.741965 4.218917 0
M  V30 64 H -2.560307 1.636874 4.946002 0
M  V30 65 H -2.410172 -1.544941 1.580316 0
M  V30 66 H -0.735320 -3.188828 1.077158 0
M  V30 67 H 2.560300 -3.583161 2.822031 0
M  V30 68 H 0.605023 -7.342901 -0.177835 0
M  V30 69 H -0.038182 -3.070130 -2.320644 0
M  V30 70 H 0.263179 -3.982084 -4.749839 0
M  V30 71 H 1.268750 -3.321765 -6.821086 0
M  V30 72 H 3.267251 -1.854143 -6.732459 0
M  V30 73 H 4.253458 -1.057147 -4.648695 0
M  V30 74 H 2.369968 0.363293 -0.941768 0
M  V30 75 H 1.190912 -0.941849 -1.145174 0
M  V30 76 H 2.394620 -0.962148 0.245849 0
M  V30 77 H 5.352601 -0.191257 -1.233419 0
M  V30 78 H 5.499098 -0.699136 -2.968569 0
M  V30 79 H 4.368438 0.616008 -2.450051 0
M  V30 END ATOM
M  V30 BEGIN BOND
M  V30 1 1 1 2
M  V30 2 1 2 3
M  V30 3 2 3 4
M  V30 4 1 4 5
M  V30 5 1 5 6
M  V30 6 1 6 7
M  V30 7 1 7 8
M  V30 8 1 8 9
M  V30 9 1 9 10
M  V30 10 1 10 11
M  V30 11 1 11 12
M  V30 12 1 12 13
M  V30 13 1 13 14
M  V30 14 1 13 15
M  V30 15 1 15 16
M  V30 16 1 9 17
M  V30 17 1 17 18
M  V30 18 2 5 19
M  V30 19 1 19 20
M  V30 20 2 20 21
M  V30 21 1 21 22
M  V30 22 1 22 23
M  V30 23 2 23 24
M  V30 24 1 24 25
M  V30 25 2 25 26
M  V30 26 1 26 27
M  V30 27 1 26 28
M  V30 28 1 28 29
M  V30 29 1 29 30
M  V30 30 2 30 31
M  V30 31 1 31 32
M  V30 32 2 32 33
M  V30 33 1 33 34
M  V30 34 2 34 35
M  V30 35 1 35 36
M  V30 36 1 36 37
M  V30 37 1 36 38
M  V30 38 2 36 39
M  V30 39 2 28 40
M  V30 40 1 21 3
M  V30 41 1 40 23
M  V30 42 1 18 6
M  V30 43 1 35 30
M  V30 44 1 16 10
M  V30 45 1 1 41
M  V30 46 1 1 42
M  V30 47 1 1 43
M  V30 48 1 4 44
M  V30 49 1 7 45
M  V30 50 1 7 46
M  V30 51 1 8 47
M  V30 52 1 8 48
M  V30 53 1 9 49
M  V30 54 1 11 50
M  V30 55 1 11 51
M  V30 56 1 12 52
M  V30 57 1 12 53
M  V30 58 1 14 54
M  V30 59 1 14 55
M  V30 60 1 14 56
M  V30 61 1 15 57
M  V30 62 1 15 58
M  V30 63 1 16 59
M  V30 64 1 16 60
M  V30 65 1 17 61
M  V30 66 1 17 62
M  V30 67 1 18 63
M  V30 68 1 18 64
M  V30 69 1 19 65
M  V30 70 1 20 66
M  V30 71 1 22 67
M  V30 72 1 25 68
M  V30 73 1 29 69
M  V30 74 1 31 70
M  V30 75 1 32 71
M  V30 76 1 33 72
M  V30 77 1 34 73
M  V30 78 1 37 74
M  V30 79 1 37 75
M  V30 80 1 37 76
M  V30 81 1 38 77
M  V30 82 1 38 78
M  V30 83 1 38 79
M  V30 END BOND
M  V30 END CTAB
M  END
>  <Dataset>  (425) 
ChEMBL_Kinases

>  <Ligand_Instance>  (425) 
nan

>  <PDB_ID>  (425) 
nan

>  <Standardized_SMILES>  (425) 
COc1cc(N2CCC(N3CCN(C)CC3)CC2)ccc1Nc1ncc(Cl)c(Nc2ccccc2P(C)(C)=O)n1

>  <Name>  (425) 
BRIGATINIB

>  <Pocket>  (425) 
nan

>  <ATP_Site>  (425) 
nan

>  <Peripheral>  (425) 
nan

>  <Num_H_Atoms_ProtBoundConf>  (425) 
nan

>  <Num_Resolved_Atoms>  (425) 
nan

>  <Num_Not_Resolved_Atoms>  (425) 
nan

$$$$
CHEMBL354634
     RDKit          3D

  0  0  0  0  0  0  0  0  0  0999 V3000
M  V30 BEGIN CTAB
M  V30 COUNTS 48 50 0 0 0
M  V30 BEGIN ATOM
M  V30 1 C 2.871442 -4.614300 -0.337282 0
M  V30 2 O 2.489726 -3.273465 -0.166698 0
M  V30 3 C 2.960687 -2.302414 -1.058640 0
M  V30 4 C 3.806548 -2.544577 -2.143344 0
M  V30 5 C 4.003004 -1.314651 -2.731071 0
M  V30 6 N 3.312976 -0.402336 -2.032715 0
M  V30 7 C 2.652802 -0.934852 -0.996598 0
M  V30 8 C 1.769559 -0.330123 -0.013686 0
M  V30 9 C 1.988436 0.728757 0.737233 0
M  V30 10 C 3.214190 1.484139 0.694353 0
M  V30 11 O 4.231398 1.302721 0.010249 0
M  V30 12 N 3.113084 2.558585 1.614195 0
M  V30 13 C 1.832514 2.475180 2.229127 0
M  V30 14 C 1.266797 3.295151 3.196439 0
M  V30 15 C -0.006726 2.992568 3.636007 0
M  V30 16 C -0.684746 1.895550 3.111740 0
M  V30 17 F -1.909174 1.767481 3.671944 0
M  V30 18 C -0.121810 1.082619 2.151164 0
M  V30 19 C -0.917407 -0.015111 1.689327 0
M  V30 20 C -1.605369 -0.928042 1.298021 0
M  V30 21 C -2.420785 -2.042563 0.807262 0 CFG=1
M  V30 22 O -1.957682 -3.260482 1.335720 0
M  V30 23 C -3.842583 -1.831274 1.258890 0 CFG=1
M  V30 24 N -3.975583 -1.762517 2.683714 0
M  V30 25 C -4.450907 -0.702514 0.495996 0 CFG=1
M  V30 26 C -4.027307 0.666597 0.897457 0
M  V30 27 O -4.276726 -0.815791 -0.903518 0
M  V30 28 C 1.145065 1.387545 1.717960 0
M  V30 29 H 2.785992 -5.159337 0.625221 0
M  V30 30 H 3.941492 -4.722268 -0.652660 0
M  V30 31 H 2.266271 -5.153250 -1.089046 0
M  V30 32 H 4.175626 -3.554812 -2.381658 0
M  V30 33 H 4.631572 -1.232176 -3.606762 0
M  V30 34 H 3.350794 0.564211 -2.361849 0
M  V30 35 H 0.853563 -0.856266 0.052537 0
M  V30 36 H 3.837479 3.294479 1.820679 0
M  V30 37 H 1.829598 4.155568 3.590159 0
M  V30 38 H -0.381064 3.665373 4.379954 0
M  V30 39 H -2.339782 -2.153923 -0.289277 0
M  V30 40 H -0.988816 -3.303186 1.058504 0
M  V30 41 H -4.411039 -2.788558 0.976587 0
M  V30 42 H -3.817955 -0.851007 3.120365 0
M  V30 43 H -3.315479 -2.443129 3.119106 0
M  V30 44 H -5.578650 -0.820261 0.607852 0
M  V30 45 H -4.922834 1.329502 0.793204 0
M  V30 46 H -3.685393 0.790490 1.927106 0
M  V30 47 H -3.265575 1.131547 0.226990 0
M  V30 48 H -4.683199 -1.622089 -1.275533 0
M  V30 END ATOM
M  V30 BEGIN BOND
M  V30 1 1 1 2
M  V30 2 1 2 3
M  V30 3 1 3 4
M  V30 4 2 4 5
M  V30 5 1 5 6
M  V30 6 1 6 7
M  V30 7 1 7 8
M  V30 8 2 8 9
M  V30 9 1 9 10
M  V30 10 2 10 11
M  V30 11 1 10 12
M  V30 12 1 12 13
M  V30 13 2 13 14
M  V30 14 1 14 15
M  V30 15 2 15 16
M  V30 16 1 16 17
M  V30 17 1 16 18
M  V30 18 1 18 19
M  V30 19 3 19 20
M  V30 20 1 20 21
M  V30 21 1 21 22
M  V30 22 1 21 23
M  V30 23 1 23 24
M  V30 24 1 23 25
M  V30 25 1 25 26
M  V30 26 1 25 27
M  V30 27 2 18 28
M  V30 28 2 7 3
M  V30 29 1 28 9
M  V30 30 1 28 13
M  V30 31 1 1 29
M  V30 32 1 1 30
M  V30 33 1 1 31
M  V30 34 1 4 32
M  V30 35 1 5 33
M  V30 36 1 6 34
M  V30 37 1 8 35
M  V30 38 1 12 36
M  V30 39 1 14 37
M  V30 40 1 15 38
M  V30 41 1 21 39 CFG=3
M  V30 42 1 22 40
M  V30 43 1 23 41 CFG=3
M  V30 44 1 24 42
M  V30 45 1 24 43
M  V30 46 1 25 44 CFG=3
M  V30 47 1 26 45
M  V30 48 1 26 46
M  V30 49 1 26 47
M  V30 50 1 27 48
M  V30 END BOND
M  V30 END CTAB
M  END
>  <Dataset>  (426) 
ChEMBL_Kinases

>  <Ligand_Instance>  (426) 
nan

>  <PDB_ID>  (426) 
nan

>  <Standardized_SMILES>  (426) 
COc1cc[nH]c1/C=C1\C(=O)Nc2ccc(F)c(C#C[C@@H](O)[C@@H](N)[C@@H](C)O)c21

>  <Name>  (426) 
nan

>  <Pocket>  (426) 
nan

>  <ATP_Site>  (426) 
nan

>  <Peripheral>  (426) 
nan

>  <Num_H_Atoms_ProtBoundConf>  (426) 
nan

>  <Num_Resolved_Atoms>  (426) 
nan

>  <Num_Not_Resolved_Atoms>  (426) 
nan

$$$$
CHEMBL3546703
     RDKit          3D

  0  0  0  0  0  0  0  0  0  0999 V3000
M  V30 BEGIN CTAB
M  V30 COUNTS 51 54 0 0 0
M  V30 BEGIN ATOM
M  V30 1 C 3.076875 -3.462794 6.805558 0
M  V30 2 N 1.968024 -3.548227 5.873131 0
M  V30 3 C 0.897916 -4.517621 6.021396 0
M  V30 4 C 1.932089 -2.648120 4.776011 0
M  V30 5 C 2.927776 -1.708309 4.593652 0
M  V30 6 C 2.898423 -0.817681 3.513867 0
M  V30 7 C 1.855581 -0.877148 2.611980 0
M  V30 8 C 1.723370 -0.001323 1.453677 0
M  V30 9 C 2.628177 0.983182 1.133753 0
M  V30 10 C 2.516991 1.820042 0.041040 0
M  V30 11 N 3.442236 2.774695 -0.224613 0
M  V30 12 C 3.323744 3.589237 -1.297816 0
M  V30 13 C 2.229630 3.414241 -2.111080 0
M  V30 14 N 1.301933 2.462153 -1.850736 0
M  V30 15 C 1.420084 1.647716 -0.777991 0
M  V30 16 C 0.508564 0.661466 -0.462244 0
M  V30 17 O -0.584222 0.513932 -1.306749 0
M  V30 18 C -1.520246 -0.474777 -1.010919 0
M  V30 19 C -2.664771 -0.577569 -1.956622 0 CFG=1
M  V30 20 C -3.505579 0.652383 -2.079657 0
M  V30 21 C -4.797917 0.263496 -2.808389 0
M  V30 22 C -4.626047 -0.970606 -3.635262 0
M  V30 23 N -3.334348 -1.071934 -4.252819 0
M  V30 24 C -2.238514 -1.012329 -3.341849 0
M  V30 25 N 0.687445 -0.104837 0.610182 0
M  V30 26 C 0.880143 -1.829257 2.827751 0
M  V30 27 N 0.927912 -2.679806 3.877354 0
M  V30 28 H 3.996467 -3.799150 6.288606 0
M  V30 29 H 3.238366 -2.397287 7.073324 0
M  V30 30 H 2.855770 -4.035709 7.724560 0
M  V30 31 H 1.039656 -5.390876 5.360514 0
M  V30 32 H -0.030356 -4.005728 5.648388 0
M  V30 33 H 0.723485 -4.793409 7.075197 0
M  V30 34 H 3.763433 -1.615622 5.263052 0
M  V30 35 H 3.673322 -0.084164 3.369647 0
M  V30 36 H 3.493322 1.139678 1.755416 0
M  V30 37 H 4.063545 4.351734 -1.509280 0
M  V30 38 H 2.069544 4.036588 -2.995967 0
M  V30 39 H -1.071031 -1.477942 -0.914830 0
M  V30 40 H -1.944342 -0.241476 -0.005319 0
M  V30 41 H -3.318987 -1.393852 -1.580224 0
M  V30 42 H -2.975158 1.368455 -2.748566 0
M  V30 43 H -3.736654 1.091277 -1.107914 0
M  V30 44 H -5.616598 0.048811 -2.074067 0
M  V30 45 H -5.167722 1.110019 -3.430457 0
M  V30 46 H -4.877039 -1.903293 -3.079734 0
M  V30 47 H -5.364364 -0.918967 -4.474075 0
M  V30 48 H -3.263925 -0.507668 -5.105305 0
M  V30 49 H -1.700856 -1.993573 -3.273606 0
M  V30 50 H -1.509278 -0.259723 -3.719223 0
M  V30 51 H 0.031832 -1.935035 2.161917 0
M  V30 END ATOM
M  V30 BEGIN BOND
M  V30 1 1 1 2
M  V30 2 1 2 3
M  V30 3 1 2 4
M  V30 4 2 4 5
M  V30 5 1 5 6
M  V30 6 2 6 7
M  V30 7 1 7 8
M  V30 8 2 8 9
M  V30 9 1 9 10
M  V30 10 2 10 11
M  V30 11 1 11 12
M  V30 12 2 12 13
M  V30 13 1 13 14
M  V30 14 2 14 15
M  V30 15 1 15 16
M  V30 16 1 16 17
M  V30 17 1 17 18
M  V30 18 1 18 19
M  V30 19 1 19 20
M  V30 20 1 20 21
M  V30 21 1 21 22
M  V30 22 1 22 23
M  V30 23 1 23 24
M  V30 24 2 16 25
M  V30 25 1 7 26
M  V30 26 2 26 27
M  V30 27 1 27 4
M  V30 28 1 25 8
M  V30 29 1 15 10
M  V30 30 1 24 19
M  V30 31 1 1 28
M  V30 32 1 1 29
M  V30 33 1 1 30
M  V30 34 1 3 31
M  V30 35 1 3 32
M  V30 36 1 3 33
M  V30 37 1 5 34
M  V30 38 1 6 35
M  V30 39 1 9 36
M  V30 40 1 12 37
M  V30 41 1 13 38
M  V30 42 1 18 39
M  V30 43 1 18 40
M  V30 44 1 19 41 CFG=1
M  V30 45 1 20 42
M  V30 46 1 20 43
M  V30 47 1 21 44
M  V30 48 1 21 45
M  V30 49 1 22 46
M  V30 50 1 22 47
M  V30 51 1 23 48
M  V30 52 1 24 49
M  V30 53 1 24 50
M  V30 54 1 26 51
M  V30 END BOND
M  V30 END CTAB
M  END
>  <Dataset>  (427) 
ChEMBL_Kinases

>  <Ligand_Instance>  (427) 
nan

>  <PDB_ID>  (427) 
nan

>  <Standardized_SMILES>  (427) 
CN(C)c1ccc(-c2cc3nccnc3c(OC[C@H]3CCCNC3)n2)cn1

>  <Name>  (427) 
nan

>  <Pocket>  (427) 
nan

>  <ATP_Site>  (427) 
nan

>  <Peripheral>  (427) 
nan

>  <Num_H_Atoms_ProtBoundConf>  (427) 
nan

>  <Num_Resolved_Atoms>  (427) 
nan

>  <Num_Not_Resolved_Atoms>  (427) 
nan

$$$$
CHEMBL355578
     RDKit          3D

  0  0  0  0  0  0  0  0  0  0999 V3000
M  V30 BEGIN CTAB
M  V30 COUNTS 43 45 0 0 0
M  V30 BEGIN ATOM
M  V30 1 O -0.276266 -8.382652 0.518772 0
M  V30 2 C -0.121059 -7.012355 0.403123 0
M  V30 3 C 0.699812 -6.428073 1.549273 0
M  V30 4 C 0.812818 -4.928056 1.332507 0
M  V30 5 N 1.574444 -4.329144 2.381089 0
M  V30 6 C 1.849314 -2.932010 2.447851 0
M  V30 7 C 2.593658 -2.334268 3.469477 0
M  V30 8 N 2.811342 -1.008309 3.464368 0
M  V30 9 C 2.329735 -0.213405 2.491420 0
M  V30 10 C 1.587500 -0.738234 1.453887 0
M  V30 11 C 1.022213 0.036733 0.353608 0
M  V30 12 C 1.178667 1.397429 0.242340 0
M  V30 13 C 0.661427 2.146284 -0.774878 0
M  V30 14 N 0.813833 3.558996 -0.906273 0
M  V30 15 C -0.155532 4.433823 -0.311724 0
M  V30 16 C -0.089606 5.817609 -0.387813 0
M  V30 17 C -1.090957 6.572679 0.230061 0
M  V30 18 C -2.127339 5.992742 0.903178 0
M  V30 19 C -2.225353 4.615671 0.999498 0
M  V30 20 Cl -3.536651 3.819906 1.852709 0
M  V30 21 C -1.224637 3.900249 0.381048 0
M  V30 22 N -0.057307 1.515790 -1.747269 0
M  V30 23 C -0.216232 0.165539 -1.642669 0
M  V30 24 N 0.298584 -0.559658 -0.635538 0
M  V30 25 C 1.369748 -2.100447 1.468454 0
M  V30 26 H -1.069388 -8.650446 1.032286 0
M  V30 27 H -1.134375 -6.565038 0.424740 0
M  V30 28 H 0.350298 -6.710174 -0.550143 0
M  V30 29 H 0.197695 -6.614213 2.518205 0
M  V30 30 H 1.733663 -6.820666 1.503095 0
M  V30 31 H -0.228297 -4.495905 1.340285 0
M  V30 32 H 1.280836 -4.793052 0.336476 0
M  V30 33 H 1.972252 -4.915906 3.166177 0
M  V30 34 H 2.970785 -3.001666 4.243229 0
M  V30 35 H 2.509192 0.847094 2.495827 0
M  V30 36 H 1.727172 1.944790 0.966942 0
M  V30 37 H 1.615265 3.979722 -1.425789 0
M  V30 38 H 0.743970 6.240473 -0.928133 0
M  V30 39 H -0.986888 7.653566 0.137206 0
M  V30 40 H -2.877063 6.599838 1.364752 0
M  V30 41 H -1.317500 2.812216 0.466968 0
M  V30 42 H -0.786246 -0.350345 -2.409687 0
M  V30 43 H 0.791436 -2.546507 0.669851 0
M  V30 END ATOM
M  V30 BEGIN BOND
M  V30 1 1 1 2
M  V30 2 1 2 3
M  V30 3 1 3 4
M  V30 4 1 4 5
M  V30 5 1 5 6
M  V30 6 2 6 7
M  V30 7 1 7 8
M  V30 8 2 8 9
M  V30 9 1 9 10
M  V30 10 1 10 11
M  V30 11 2 11 12
M  V30 12 1 12 13
M  V30 13 1 13 14
M  V30 14 1 14 15
M  V30 15 2 15 16
M  V30 16 1 16 17
M  V30 17 2 17 18
M  V30 18 1 18 19
M  V30 19 1 19 20
M  V30 20 2 19 21
M  V30 21 2 13 22
M  V30 22 1 22 23
M  V30 23 2 23 24
M  V30 24 2 10 25
M  V30 25 1 25 6
M  V30 26 1 24 11
M  V30 27 1 21 15
M  V30 28 1 1 26
M  V30 29 1 2 27
M  V30 30 1 2 28
M  V30 31 1 3 29
M  V30 32 1 3 30
M  V30 33 1 4 31
M  V30 34 1 4 32
M  V30 35 1 5 33
M  V30 36 1 7 34
M  V30 37 1 9 35
M  V30 38 1 12 36
M  V30 39 1 14 37
M  V30 40 1 16 38
M  V30 41 1 17 39
M  V30 42 1 18 40
M  V30 43 1 21 41
M  V30 44 1 23 42
M  V30 45 1 25 43
M  V30 END BOND
M  V30 END CTAB
M  END
>  <Dataset>  (428) 
ChEMBL_Kinases

>  <Ligand_Instance>  (428) 
nan

>  <PDB_ID>  (428) 
nan

>  <Standardized_SMILES>  (428) 
OCCCNc1cncc(-c2cc(Nc3cccc(Cl)c3)ncn2)c1

>  <Name>  (428) 
nan

>  <Pocket>  (428) 
nan

>  <ATP_Site>  (428) 
nan

>  <Peripheral>  (428) 
nan

>  <Num_H_Atoms_ProtBoundConf>  (428) 
nan

>  <Num_Resolved_Atoms>  (428) 
nan

>  <Num_Not_Resolved_Atoms>  (428) 
nan

$$$$
CHEMBL355631
     RDKit          3D

  0  0  0  0  0  0  0  0  0  0999 V3000
M  V30 BEGIN CTAB
M  V30 COUNTS 44 47 0 0 0
M  V30 BEGIN ATOM
M  V30 1 C -0.528686 -4.515157 1.115152 0
M  V30 2 O -0.178257 -3.268607 0.542776 0
M  V30 3 C 0.813105 -3.196500 -0.447395 0
M  V30 4 C 1.540064 -4.222813 -0.978197 0
M  V30 5 C 2.371399 -3.646740 -1.901915 0
M  V30 6 N 2.124838 -2.347338 -1.893687 0
M  V30 7 C 1.172964 -1.970433 -1.024637 0
M  V30 8 C 0.638515 -0.668779 -0.688062 0
M  V30 9 C 0.171110 0.290140 -1.444457 0
M  V30 10 C 0.117244 0.155668 -2.894101 0
M  V30 11 O 0.460810 -0.814911 -3.610611 0
M  V30 12 N -0.419528 1.365860 -3.407752 0
M  V30 13 C -0.689328 2.216710 -2.330942 0
M  V30 14 C -1.215826 3.497864 -2.317058 0
M  V30 15 C -1.391346 4.144130 -1.111043 0
M  V30 16 C -1.037278 3.497046 0.055126 0
M  V30 17 F -1.245090 4.208845 1.180968 0
M  V30 18 C -0.504306 2.202928 0.056653 0
M  V30 19 C -0.187300 1.664387 1.343653 0
M  V30 20 C 0.059638 1.211981 2.431949 0
M  V30 21 C 0.336446 0.666605 3.760719 0 CFG=2
M  V30 22 C 1.802956 0.310396 3.939123 0
M  V30 23 C 1.699172 -0.597721 5.164592 0
M  V30 24 C 0.343169 -1.248581 5.000409 0
M  V30 25 N -0.258323 -0.655211 3.817928 0
M  V30 26 C -0.344530 1.594888 -1.150212 0
M  V30 27 H -0.302545 -5.366748 0.442492 0
M  V30 28 H 0.091344 -4.668203 2.039434 0
M  V30 29 H -1.595569 -4.487204 1.437717 0
M  V30 30 H 1.414435 -5.253852 -0.667081 0
M  V30 31 H 3.065006 -4.240345 -2.478757 0
M  V30 32 H 2.683034 -1.744979 -2.531395 0
M  V30 33 H 0.662419 -0.537386 0.366817 0
M  V30 34 H -0.579117 1.569742 -4.422822 0
M  V30 35 H -1.502499 4.026464 -3.237671 0
M  V30 36 H -1.805701 5.149308 -1.122848 0
M  V30 37 H -0.002155 1.318982 4.568382 0
M  V30 38 H 2.439580 1.190754 4.148085 0
M  V30 39 H 2.157400 -0.274306 3.083529 0
M  V30 40 H 1.675767 0.074926 6.049688 0
M  V30 41 H 2.523149 -1.309238 5.239494 0
M  V30 42 H -0.305224 -1.040848 5.895658 0
M  V30 43 H 0.417540 -2.347875 4.912572 0
M  V30 44 H -1.290613 -0.604664 3.945312 0
M  V30 END ATOM
M  V30 BEGIN BOND
M  V30 1 1 1 2
M  V30 2 1 2 3
M  V30 3 1 3 4
M  V30 4 2 4 5
M  V30 5 1 5 6
M  V30 6 1 6 7
M  V30 7 1 7 8
M  V30 8 2 8 9
M  V30 9 1 9 10
M  V30 10 2 10 11
M  V30 11 1 10 12
M  V30 12 1 12 13
M  V30 13 2 13 14
M  V30 14 1 14 15
M  V30 15 2 15 16
M  V30 16 1 16 17
M  V30 17 1 16 18
M  V30 18 1 18 19
M  V30 19 3 19 20
M  V30 20 1 20 21
M  V30 21 1 21 22
M  V30 22 1 22 23
M  V30 23 1 23 24
M  V30 24 1 24 25
M  V30 25 2 18 26
M  V30 26 2 7 3
M  V30 27 1 26 9
M  V30 28 1 26 13
M  V30 29 1 25 21
M  V30 30 1 1 27
M  V30 31 1 1 28
M  V30 32 1 1 29
M  V30 33 1 4 30
M  V30 34 1 5 31
M  V30 35 1 6 32
M  V30 36 1 8 33
M  V30 37 1 12 34
M  V30 38 1 14 35
M  V30 39 1 15 36
M  V30 40 1 21 37 CFG=1
M  V30 41 1 22 38
M  V30 42 1 22 39
M  V30 43 1 23 40
M  V30 44 1 23 41
M  V30 45 1 24 42
M  V30 46 1 24 43
M  V30 47 1 25 44
M  V30 END BOND
M  V30 END CTAB
M  END
>  <Dataset>  (429) 
ChEMBL_Kinases

>  <Ligand_Instance>  (429) 
nan

>  <PDB_ID>  (429) 
nan

>  <Standardized_SMILES>  (429) 
COc1cc[nH]c1/C=C1\C(=O)Nc2ccc(F)c(C#C[C@@H]3CCCN3)c21

>  <Name>  (429) 
nan

>  <Pocket>  (429) 
nan

>  <ATP_Site>  (429) 
nan

>  <Peripheral>  (429) 
nan

>  <Num_H_Atoms_ProtBoundConf>  (429) 
nan

>  <Num_Resolved_Atoms>  (429) 
nan

>  <Num_Not_Resolved_Atoms>  (429) 
nan

$$$$
CHEMBL352549
     RDKit          3D

  0  0  0  0  0  0  0  0  0  0999 V3000
M  V30 BEGIN CTAB
M  V30 COUNTS 50 52 0 0 0
M  V30 BEGIN ATOM
M  V30 1 N 3.592521 -3.051776 0.075545 0
M  V30 2 C 2.439408 -3.061930 0.117014 0
M  V30 3 C 1.004899 -3.083000 0.151052 0
M  V30 4 C 0.248956 -1.991184 -0.224044 0
M  V30 5 C 0.907880 -0.757267 -0.675975 0
M  V30 6 C 0.342023 -0.205876 -1.813216 0
M  V30 7 C 0.823613 0.958080 -2.391727 0
M  V30 8 C 1.901115 1.554973 -1.785487 0
M  V30 9 C 2.460950 1.001977 -0.653270 0
M  V30 10 N 3.593403 1.641778 -0.027915 0
M  V30 11 C 3.072862 2.553135 0.920385 0
M  V30 12 O 1.804938 2.598865 1.001452 0
M  V30 13 C 3.847711 3.463996 1.833251 0
M  V30 14 C 2.787690 4.215622 2.632489 0
M  V30 15 N 1.919716 4.972792 1.770431 0
M  V30 16 C 1.962257 3.260755 3.395749 0
M  V30 17 O 0.717898 3.076981 3.359628 0
M  V30 18 O 1.543017 2.266269 4.264941 0
M  V30 19 C 1.978771 -0.157189 -0.079933 0
M  V30 20 C -1.125777 -2.089633 -0.163524 0
M  V30 21 C -1.809575 -3.206138 0.247008 0
M  V30 22 C -3.266352 -3.271508 0.297279 0
M  V30 23 C -4.110900 -2.254494 -0.049499 0
M  V30 24 C -5.485442 -2.383899 0.022085 0
M  V30 25 C -6.074212 -3.556173 0.450749 0
M  V30 26 C -5.224903 -4.588365 0.802847 0
M  V30 27 C -3.846048 -4.448547 0.727473 0
M  V30 28 O -3.079026 -5.563859 1.110715 0
M  V30 29 N -1.036579 -4.236854 0.600012 0
M  V30 30 C 0.307179 -4.202645 0.562959 0
M  V30 31 N 1.018553 -5.386079 0.971522 0
M  V30 32 H -0.518347 -0.639083 -2.338386 0
M  V30 33 H 0.428711 1.431943 -3.269709 0
M  V30 34 H 2.344430 2.468436 -2.168434 0
M  V30 35 H 4.653630 1.624816 -0.073869 0
M  V30 36 H 4.479862 2.848326 2.475007 0
M  V30 37 H 4.400233 4.176474 1.192828 0
M  V30 38 H 3.314548 4.880202 3.365310 0
M  V30 39 H 0.909256 4.692248 1.845592 0
M  V30 40 H 1.939725 5.992696 2.014806 0
M  V30 41 H 2.202397 1.562656 4.630417 0
M  V30 42 H 2.378047 -0.630132 0.801943 0
M  V30 43 H -1.660279 -1.202563 -0.469748 0
M  V30 44 H -3.693942 -1.335662 -0.384658 0
M  V30 45 H -6.100921 -1.542192 -0.266467 0
M  V30 46 H -7.148183 -3.577465 0.478237 0
M  V30 47 H -5.733843 -5.490772 1.133864 0
M  V30 48 H -3.109167 -6.334071 0.436738 0
M  V30 49 H 1.530097 -5.344798 1.899844 0
M  V30 50 H 1.068724 -6.291306 0.415952 0
M  V30 END ATOM
M  V30 BEGIN BOND
M  V30 1 3 1 2
M  V30 2 1 2 3
M  V30 3 2 3 4
M  V30 4 1 4 5
M  V30 5 2 5 6
M  V30 6 1 6 7
M  V30 7 2 7 8
M  V30 8 1 8 9
M  V30 9 1 9 10
M  V30 10 1 10 11
M  V30 11 2 11 12
M  V30 12 1 11 13
M  V30 13 1 13 14
M  V30 14 1 14 15
M  V30 15 1 14 16
M  V30 16 2 16 17
M  V30 17 1 16 18
M  V30 18 2 9 19
M  V30 19 1 4 20
M  V30 20 2 20 21
M  V30 21 1 21 22
M  V30 22 2 22 23
M  V30 23 1 23 24
M  V30 24 2 24 25
M  V30 25 1 25 26
M  V30 26 2 26 27
M  V30 27 1 27 28
M  V30 28 1 21 29
M  V30 29 2 29 30
M  V30 30 1 30 31
M  V30 31 1 30 3
M  V30 32 1 19 5
M  V30 33 1 27 22
M  V30 34 1 6 32
M  V30 35 1 7 33
M  V30 36 1 8 34
M  V30 37 1 10 35
M  V30 38 1 13 36
M  V30 39 1 13 37
M  V30 40 1 14 38
M  V30 41 1 15 39
M  V30 42 1 15 40
M  V30 43 1 18 41
M  V30 44 1 19 42
M  V30 45 1 20 43
M  V30 46 1 23 44
M  V30 47 1 24 45
M  V30 48 1 25 46
M  V30 49 1 26 47
M  V30 50 1 28 48
M  V30 51 1 31 49
M  V30 52 1 31 50
M  V30 END BOND
M  V30 END CTAB
M  END
>  <Dataset>  (430) 
ChEMBL_Kinases

>  <Ligand_Instance>  (430) 
nan

>  <PDB_ID>  (430) 
nan

>  <Standardized_SMILES>  (430) 
N#Cc1c(-c2cccc(NC(=O)CC(N)C(=O)O)c2)cc(-c2ccccc2O)nc1N

>  <Name>  (430) 
nan

>  <Pocket>  (430) 
nan

>  <ATP_Site>  (430) 
nan

>  <Peripheral>  (430) 
nan

>  <Num_H_Atoms_ProtBoundConf>  (430) 
nan

>  <Num_Resolved_Atoms>  (430) 
nan

>  <Num_Not_Resolved_Atoms>  (430) 
nan

$$$$
CHEMBL3422099
     RDKit          2D

  0  0  0  0  0  0  0  0  0  0999 V3000
M  V30 BEGIN CTAB
M  V30 COUNTS 71 77 0 0 0
M  V30 BEGIN ATOM
M  V30 1 O -4.309298 3.590649 0.000000 0
M  V30 2 C -2.949853 4.224613 0.000000 0
M  V30 3 N -2.637986 5.691835 0.000000 0
M  V30 4 C -3.752703 6.695531 0.000000 0
M  V30 5 C -4.756399 5.580813 0.000000 0
M  V30 6 C -5.760095 4.466096 0.000000 0
M  V30 7 C -7.084516 3.761889 0.000000 0
M  V30 8 C -7.032167 5.260975 0.000000 0
M  V30 9 C -2.749007 7.810248 0.000000 0
M  V30 10 C -3.212533 9.236833 0.000000 0
M  V30 11 C -2.208837 10.351550 0.000000 0
M  V30 12 C -0.741615 10.039682 0.000000 0
M  V30 13 C -0.278090 8.613097 0.000000 0
M  V30 14 N -1.281786 7.498380 0.000000 0
M  V30 15 C -1.835136 3.220917 0.000000 0
M  V30 16 C -0.408551 3.684443 0.000000 0
M  V30 17 C 0.706166 2.680747 0.000000 0
M  V30 18 C 0.394298 1.213525 0.000000 0
M  V30 19 N 1.275976 0.000000 0.000000 0
M  V30 20 N 0.394298 -1.213525 0.000000 0
M  V30 21 C -1.032286 -0.750000 0.000000 0
M  V30 22 C -2.245812 -1.631678 0.000000 0
M  V30 23 C -3.616130 -1.021573 0.000000 0
M  V30 24 C -4.829656 -1.903251 0.000000 0
M  V30 25 C -4.672863 -3.395034 0.000000 0
M  V30 26 N -5.886388 -4.276712 0.000000 0
M  V30 27 C -7.312973 -3.813186 0.000000 0
M  V30 28 C -8.194651 -5.026712 0.000000 0
M  V30 29 C -7.312973 -6.240237 0.000000 0
M  V30 30 C -5.886388 -5.776712 0.000000 0
M  V30 31 C -4.572337 -5.033396 0.000000 0
M  V30 32 C -4.729130 -3.541613 0.000000 0
M  V30 33 O -4.366247 -2.086170 0.000000 0
M  V30 34 C -6.099448 -2.931508 0.000000 0
M  V30 35 C -3.302545 -4.005139 0.000000 0
M  V30 36 C -2.089019 -3.123461 0.000000 0
M  V30 37 C -1.032286 0.750000 0.000000 0
M  V30 38 C -2.147004 1.753696 0.000000 0
M  V30 39 H -1.211401 6.155360 0.000000 0
M  V30 40 H -4.867420 7.699226 0.000000 0
M  V30 41 H -5.740457 6.712904 0.000000 0
M  V30 42 H -3.917677 4.337212 0.000000 0
M  V30 43 H -4.987572 3.180324 0.000000 0
M  V30 44 H -6.620991 2.335304 0.000000 0
M  V30 45 H -8.569918 3.553129 0.000000 0
M  V30 46 H -8.499388 5.572842 0.000000 0
M  V30 47 H -6.643978 6.709874 0.000000 0
M  V30 48 H -4.679754 9.548700 0.000000 0
M  V30 49 H -2.672362 11.778135 0.000000 0
M  V30 50 H 0.262081 11.154399 0.000000 0
M  V30 51 H 1.189132 8.301230 0.000000 0
M  V30 52 H -0.096684 5.151664 0.000000 0
M  V30 53 H 2.132751 3.144272 0.000000 0
M  V30 54 H 2.775976 0.000000 0.000000 0
M  V30 55 H -3.953596 0.439973 0.000000 0
M  V30 56 H -6.264125 -1.464732 0.000000 0
M  V30 57 H -7.946937 -2.453741 0.000000 0
M  V30 58 H -9.309368 -4.023016 0.000000 0
M  V30 59 H -9.309368 -6.030407 0.000000 0
M  V30 60 H -8.612011 -6.990237 0.000000 0
M  V30 61 H -6.702868 -7.610555 0.000000 0
M  V30 62 H -4.789385 -6.799739 0.000000 0
M  V30 63 H -3.078055 -5.164250 0.000000 0
M  V30 64 H -3.755344 -6.291380 0.000000 0
M  V30 65 H -3.302570 -4.005215 0.000000 0
M  V30 66 H -5.161057 -0.814055 0.000000 0
M  V30 67 H -7.043397 -1.765764 0.000000 0
M  V30 68 H -5.762139 -1.469926 0.000000 0
M  V30 69 H -2.965079 -5.466685 0.000000 0
M  V30 70 H -0.718701 -3.733566 0.000000 0
M  V30 71 H -3.619452 1.467522 0.000000 0
M  V30 END ATOM
M  V30 BEGIN BOND
M  V30 1 2 1 2
M  V30 2 1 2 3
M  V30 3 1 3 4
M  V30 4 1 4 5
M  V30 5 1 5 6
M  V30 6 1 6 7
M  V30 7 1 7 8
M  V30 8 1 4 9
M  V30 9 2 9 10
M  V30 10 1 10 11
M  V30 11 2 11 12
M  V30 12 1 12 13
M  V30 13 2 13 14
M  V30 14 1 2 15
M  V30 15 2 15 16
M  V30 16 1 16 17
M  V30 17 2 17 18
M  V30 18 1 18 19
M  V30 19 1 19 20
M  V30 20 2 20 21
M  V30 21 1 21 22
M  V30 22 2 22 23
M  V30 23 1 23 24
M  V30 24 2 24 25
M  V30 25 1 25 26
M  V30 26 1 26 27
M  V30 27 1 27 28
M  V30 28 1 28 29
M  V30 29 1 29 30
M  V30 30 1 30 31
M  V30 31 1 31 32
M  V30 32 1 32 33
M  V30 33 1 32 34
M  V30 34 1 25 35
M  V30 35 2 35 36
M  V30 36 1 21 37
M  V30 37 2 37 38
M  V30 38 1 8 6
M  V30 39 1 14 9
M  V30 40 1 38 15
M  V30 41 1 37 18
M  V30 42 1 36 22
M  V30 43 1 30 26
M  V30 44 1 34 27
M  V30 45 1 3 39
M  V30 46 1 4 40 CFG=1
M  V30 47 1 5 41
M  V30 48 1 5 42
M  V30 49 1 6 43
M  V30 50 1 7 44
M  V30 51 1 7 45
M  V30 52 1 8 46
M  V30 53 1 8 47
M  V30 54 1 10 48
M  V30 55 1 11 49
M  V30 56 1 12 50
M  V30 57 1 13 51
M  V30 58 1 16 52
M  V30 59 1 17 53
M  V30 60 1 19 54
M  V30 61 1 23 55
M  V30 62 1 24 56
M  V30 63 1 27 57 CFG=3
M  V30 64 1 28 58
M  V30 65 1 28 59
M  V30 66 1 29 60
M  V30 67 1 29 61
M  V30 68 1 30 62 CFG=1
M  V30 69 1 31 63
M  V30 70 1 31 64
M  V30 71 1 32 65
M  V30 72 1 33 66
M  V30 73 1 34 67
M  V30 74 1 34 68
M  V30 75 1 35 69
M  V30 76 1 36 70
M  V30 77 1 38 71
M  V30 END BOND
M  V30 END CTAB
M  END
>  <Dataset>  (431) 
ChEMBL_Kinases

>  <Ligand_Instance>  (431) 
nan

>  <PDB_ID>  (431) 
nan

>  <Standardized_SMILES>  (431) 
O=C(N[C@H](CC1CC1)c1ccccn1)c1ccc2[nH]nc(-c3ccc(N4[C@H]5CC[C@H]4CC(O)C5)cc3)c2c1

>  <Name>  (431) 
nan

>  <Pocket>  (431) 
nan

>  <ATP_Site>  (431) 
nan

>  <Peripheral>  (431) 
nan

>  <Num_H_Atoms_ProtBoundConf>  (431) 
nan

>  <Num_Resolved_Atoms>  (431) 
nan

>  <Num_Not_Resolved_Atoms>  (431) 
nan

$$$$
CHEMBL3422098
     RDKit          2D

  0  0  0  0  0  0  0  0  0  0999 V3000
M  V30 BEGIN CTAB
M  V30 COUNTS 73 78 0 0 0
M  V30 BEGIN ATOM
M  V30 1 C -2.860029 9.928661 0.000000 0
M  V30 2 C -1.745311 8.924965 0.000000 0
M  V30 3 C -0.630594 7.921269 0.000000 0
M  V30 4 C -2.749007 7.810248 0.000000 0
M  V30 5 C -3.752703 6.695531 0.000000 0
M  V30 6 N -2.637986 5.691835 0.000000 0
M  V30 7 C -2.949853 4.224613 0.000000 0
M  V30 8 O -4.221883 3.429666 0.000000 0
M  V30 9 C -1.835136 3.220917 0.000000 0
M  V30 10 C -0.408551 3.684443 0.000000 0
M  V30 11 C 0.706166 2.680747 0.000000 0
M  V30 12 C 0.394298 1.213525 0.000000 0
M  V30 13 N 1.275976 0.000000 0.000000 0
M  V30 14 N 0.394298 -1.213525 0.000000 0
M  V30 15 C -1.032286 -0.750000 0.000000 0
M  V30 16 C -2.245812 -1.631678 0.000000 0
M  V30 17 C -3.616130 -1.021573 0.000000 0
M  V30 18 C -4.829656 -1.903251 0.000000 0
M  V30 19 C -4.672863 -3.395034 0.000000 0
M  V30 20 N -5.886388 -4.276712 0.000000 0
M  V30 21 C -7.312973 -3.813186 0.000000 0
M  V30 22 C -8.194651 -5.026712 0.000000 0
M  V30 23 C -7.312973 -6.240237 0.000000 0
M  V30 24 C -5.886388 -5.776712 0.000000 0
M  V30 25 C -4.572337 -5.033396 0.000000 0
M  V30 26 C -4.729130 -3.541613 0.000000 0
M  V30 27 O -4.366247 -2.086170 0.000000 0
M  V30 28 C -6.099448 -2.931508 0.000000 0
M  V30 29 C -3.302545 -4.005139 0.000000 0
M  V30 30 C -2.089019 -3.123461 0.000000 0
M  V30 31 C -1.032286 0.750000 0.000000 0
M  V30 32 C -2.147004 1.753696 0.000000 0
M  V30 33 C -4.756399 5.580813 0.000000 0
M  V30 34 C -6.223620 5.892681 0.000000 0
M  V30 35 C -7.227316 4.777964 0.000000 0
M  V30 36 C -6.763791 3.351379 0.000000 0
M  V30 37 C -5.296569 3.039511 0.000000 0
M  V30 38 N -4.292874 4.154229 0.000000 0
M  V30 39 H -3.974746 10.932357 0.000000 0
M  V30 40 H -1.856333 11.043378 0.000000 0
M  V30 41 H -3.992119 8.944603 0.000000 0
M  V30 42 H -0.741615 10.039682 0.000000 0
M  V30 43 H 0.484123 6.917573 0.000000 0
M  V30 44 H 0.373102 9.035986 0.000000 0
M  V30 45 H -1.334730 6.596810 0.000000 0
M  V30 46 H -1.634290 6.806552 0.000000 0
M  V30 47 H -3.977758 8.670579 0.000000 0
M  V30 48 H -4.867420 7.699226 0.000000 0
M  V30 49 H -1.141634 5.796389 0.000000 0
M  V30 50 H -0.096684 5.151664 0.000000 0
M  V30 51 H 2.132751 3.144272 0.000000 0
M  V30 52 H 2.775976 0.000000 0.000000 0
M  V30 53 H -3.953596 0.439973 0.000000 0
M  V30 54 H -6.264125 -1.464732 0.000000 0
M  V30 55 H -7.946937 -2.453741 0.000000 0
M  V30 56 H -9.309368 -4.023016 0.000000 0
M  V30 57 H -9.309368 -6.030407 0.000000 0
M  V30 58 H -8.612011 -6.990237 0.000000 0
M  V30 59 H -6.702868 -7.610555 0.000000 0
M  V30 60 H -4.789385 -6.799739 0.000000 0
M  V30 61 H -3.078055 -5.164250 0.000000 0
M  V30 62 H -3.755344 -6.291380 0.000000 0
M  V30 63 H -3.302570 -4.005215 0.000000 0
M  V30 64 H -5.161057 -0.814055 0.000000 0
M  V30 65 H -7.043397 -1.765764 0.000000 0
M  V30 66 H -5.762139 -1.469926 0.000000 0
M  V30 67 H -2.965079 -5.466685 0.000000 0
M  V30 68 H -0.718701 -3.733566 0.000000 0
M  V30 69 H -3.619452 1.467522 0.000000 0
M  V30 70 H -6.687146 7.319266 0.000000 0
M  V30 71 H -8.694538 5.089831 0.000000 0
M  V30 72 H -7.767487 2.236662 0.000000 0
M  V30 73 H -4.833044 1.612927 0.000000 0
M  V30 END ATOM
M  V30 BEGIN BOND
M  V30 1 1 1 2
M  V30 2 1 2 3
M  V30 3 1 2 4
M  V30 4 1 4 5
M  V30 5 1 5 6
M  V30 6 1 6 7
M  V30 7 2 7 8
M  V30 8 1 7 9
M  V30 9 2 9 10
M  V30 10 1 10 11
M  V30 11 2 11 12
M  V30 12 1 12 13
M  V30 13 1 13 14
M  V30 14 2 14 15
M  V30 15 1 15 16
M  V30 16 2 16 17
M  V30 17 1 17 18
M  V30 18 2 18 19
M  V30 19 1 19 20
M  V30 20 1 20 21
M  V30 21 1 21 22
M  V30 22 1 22 23
M  V30 23 1 23 24
M  V30 24 1 24 25
M  V30 25 1 25 26
M  V30 26 1 26 27
M  V30 27 1 26 28
M  V30 28 1 19 29
M  V30 29 2 29 30
M  V30 30 1 15 31
M  V30 31 2 31 32
M  V30 32 1 5 33
M  V30 33 2 33 34
M  V30 34 1 34 35
M  V30 35 2 35 36
M  V30 36 1 36 37
M  V30 37 2 37 38
M  V30 38 1 32 9
M  V30 39 1 38 33
M  V30 40 1 31 12
M  V30 41 1 30 16
M  V30 42 1 24 20
M  V30 43 1 28 21
M  V30 44 1 1 39
M  V30 45 1 1 40
M  V30 46 1 1 41
M  V30 47 1 2 42
M  V30 48 1 3 43
M  V30 49 1 3 44
M  V30 50 1 3 45
M  V30 51 1 4 46
M  V30 52 1 4 47
M  V30 53 1 5 48 CFG=3
M  V30 54 1 6 49
M  V30 55 1 10 50
M  V30 56 1 11 51
M  V30 57 1 13 52
M  V30 58 1 17 53
M  V30 59 1 18 54
M  V30 60 1 21 55 CFG=3
M  V30 61 1 22 56
M  V30 62 1 22 57
M  V30 63 1 23 58
M  V30 64 1 23 59
M  V30 65 1 24 60 CFG=1
M  V30 66 1 25 61
M  V30 67 1 25 62
M  V30 68 1 26 63
M  V30 69 1 27 64
M  V30 70 1 28 65
M  V30 71 1 28 66
M  V30 72 1 29 67
M  V30 73 1 30 68
M  V30 74 1 32 69
M  V30 75 1 34 70
M  V30 76 1 35 71
M  V30 77 1 36 72
M  V30 78 1 37 73
M  V30 END BOND
M  V30 END CTAB
M  END
>  <Dataset>  (432) 
ChEMBL_Kinases

>  <Ligand_Instance>  (432) 
nan

>  <PDB_ID>  (432) 
nan

>  <Standardized_SMILES>  (432) 
CC(C)C[C@@H](NC(=O)c1ccc2[nH]nc(-c3ccc(N4[C@H]5CC[C@H]4CC(O)C5)cc3)c2c1)c1ccccn1

>  <Name>  (432) 
nan

>  <Pocket>  (432) 
nan

>  <ATP_Site>  (432) 
nan

>  <Peripheral>  (432) 
nan

>  <Num_H_Atoms_ProtBoundConf>  (432) 
nan

>  <Num_Resolved_Atoms>  (432) 
nan

>  <Num_Not_Resolved_Atoms>  (432) 
nan

$$$$
CHEMBL3422097
     RDKit          2D

  0  0  0  0  0  0  0  0  0  0999 V3000
M  V30 BEGIN CTAB
M  V30 COUNTS 73 78 0 0 0
M  V30 BEGIN ATOM
M  V30 1 C -2.860029 9.928661 0.000000 0
M  V30 2 C -1.745311 8.924965 0.000000 0
M  V30 3 C -0.630594 7.921269 0.000000 0
M  V30 4 C -2.749007 7.810248 0.000000 0
M  V30 5 C -3.752703 6.695531 0.000000 0
M  V30 6 N -2.637986 5.691835 0.000000 0
M  V30 7 C -2.949853 4.224613 0.000000 0
M  V30 8 O -4.221883 3.429666 0.000000 0
M  V30 9 C -1.835136 3.220917 0.000000 0
M  V30 10 C -0.408551 3.684443 0.000000 0
M  V30 11 C 0.706166 2.680747 0.000000 0
M  V30 12 C 0.394298 1.213525 0.000000 0
M  V30 13 N 1.275976 0.000000 0.000000 0
M  V30 14 N 0.394298 -1.213525 0.000000 0
M  V30 15 C -1.032286 -0.750000 0.000000 0
M  V30 16 C -2.245812 -1.631678 0.000000 0
M  V30 17 C -3.616130 -1.021573 0.000000 0
M  V30 18 C -4.829656 -1.903251 0.000000 0
M  V30 19 C -4.672863 -3.395034 0.000000 0
M  V30 20 N -5.886388 -4.276712 0.000000 0
M  V30 21 C -7.312973 -3.813186 0.000000 0
M  V30 22 C -8.194651 -5.026712 0.000000 0
M  V30 23 C -7.312973 -6.240237 0.000000 0
M  V30 24 C -5.886388 -5.776712 0.000000 0
M  V30 25 C -4.572337 -5.033396 0.000000 0
M  V30 26 C -4.729130 -3.541613 0.000000 0
M  V30 27 O -4.366247 -2.086170 0.000000 0
M  V30 28 C -6.099448 -2.931508 0.000000 0
M  V30 29 C -3.302545 -4.005139 0.000000 0
M  V30 30 C -2.089019 -3.123461 0.000000 0
M  V30 31 C -1.032286 0.750000 0.000000 0
M  V30 32 C -2.147004 1.753696 0.000000 0
M  V30 33 C -4.756399 5.580813 0.000000 0
M  V30 34 C -6.223620 5.892681 0.000000 0
M  V30 35 C -7.227316 4.777964 0.000000 0
M  V30 36 C -6.763791 3.351379 0.000000 0
M  V30 37 C -5.296569 3.039511 0.000000 0
M  V30 38 N -4.292874 4.154229 0.000000 0
M  V30 39 H -3.974746 10.932357 0.000000 0
M  V30 40 H -1.856333 11.043378 0.000000 0
M  V30 41 H -3.992119 8.944603 0.000000 0
M  V30 42 H -0.741615 10.039682 0.000000 0
M  V30 43 H 0.484123 6.917573 0.000000 0
M  V30 44 H 0.373102 9.035986 0.000000 0
M  V30 45 H -1.334730 6.596810 0.000000 0
M  V30 46 H -1.634290 6.806552 0.000000 0
M  V30 47 H -3.977758 8.670579 0.000000 0
M  V30 48 H -4.867420 7.699226 0.000000 0
M  V30 49 H -1.141634 5.796389 0.000000 0
M  V30 50 H -0.096684 5.151664 0.000000 0
M  V30 51 H 2.132751 3.144272 0.000000 0
M  V30 52 H 2.775976 0.000000 0.000000 0
M  V30 53 H -3.953596 0.439973 0.000000 0
M  V30 54 H -6.264125 -1.464732 0.000000 0
M  V30 55 H -7.946937 -2.453741 0.000000 0
M  V30 56 H -9.309368 -4.023016 0.000000 0
M  V30 57 H -9.309368 -6.030407 0.000000 0
M  V30 58 H -8.612011 -6.990237 0.000000 0
M  V30 59 H -6.702868 -7.610555 0.000000 0
M  V30 60 H -4.789385 -6.799739 0.000000 0
M  V30 61 H -3.078055 -5.164250 0.000000 0
M  V30 62 H -3.755344 -6.291380 0.000000 0
M  V30 63 H -3.302570 -4.005215 0.000000 0
M  V30 64 H -5.161057 -0.814055 0.000000 0
M  V30 65 H -7.043397 -1.765764 0.000000 0
M  V30 66 H -5.762139 -1.469926 0.000000 0
M  V30 67 H -2.965079 -5.466685 0.000000 0
M  V30 68 H -0.718701 -3.733566 0.000000 0
M  V30 69 H -3.619452 1.467522 0.000000 0
M  V30 70 H -6.687146 7.319266 0.000000 0
M  V30 71 H -8.694538 5.089831 0.000000 0
M  V30 72 H -7.767487 2.236662 0.000000 0
M  V30 73 H -4.833044 1.612927 0.000000 0
M  V30 END ATOM
M  V30 BEGIN BOND
M  V30 1 1 1 2
M  V30 2 1 2 3
M  V30 3 1 2 4
M  V30 4 1 4 5
M  V30 5 1 5 6
M  V30 6 1 6 7
M  V30 7 2 7 8
M  V30 8 1 7 9
M  V30 9 2 9 10
M  V30 10 1 10 11
M  V30 11 2 11 12
M  V30 12 1 12 13
M  V30 13 1 13 14
M  V30 14 2 14 15
M  V30 15 1 15 16
M  V30 16 2 16 17
M  V30 17 1 17 18
M  V30 18 2 18 19
M  V30 19 1 19 20
M  V30 20 1 20 21
M  V30 21 1 21 22
M  V30 22 1 22 23
M  V30 23 1 23 24
M  V30 24 1 24 25
M  V30 25 1 25 26
M  V30 26 1 26 27
M  V30 27 1 26 28
M  V30 28 1 19 29
M  V30 29 2 29 30
M  V30 30 1 15 31
M  V30 31 2 31 32
M  V30 32 1 5 33
M  V30 33 2 33 34
M  V30 34 1 34 35
M  V30 35 2 35 36
M  V30 36 1 36 37
M  V30 37 2 37 38
M  V30 38 1 32 9
M  V30 39 1 38 33
M  V30 40 1 31 12
M  V30 41 1 30 16
M  V30 42 1 24 20
M  V30 43 1 28 21
M  V30 44 1 1 39
M  V30 45 1 1 40
M  V30 46 1 1 41
M  V30 47 1 2 42
M  V30 48 1 3 43
M  V30 49 1 3 44
M  V30 50 1 3 45
M  V30 51 1 4 46
M  V30 52 1 4 47
M  V30 53 1 5 48 CFG=1
M  V30 54 1 6 49
M  V30 55 1 10 50
M  V30 56 1 11 51
M  V30 57 1 13 52
M  V30 58 1 17 53
M  V30 59 1 18 54
M  V30 60 1 21 55 CFG=3
M  V30 61 1 22 56
M  V30 62 1 22 57
M  V30 63 1 23 58
M  V30 64 1 23 59
M  V30 65 1 24 60 CFG=1
M  V30 66 1 25 61
M  V30 67 1 25 62
M  V30 68 1 26 63
M  V30 69 1 27 64
M  V30 70 1 28 65
M  V30 71 1 28 66
M  V30 72 1 29 67
M  V30 73 1 30 68
M  V30 74 1 32 69
M  V30 75 1 34 70
M  V30 76 1 35 71
M  V30 77 1 36 72
M  V30 78 1 37 73
M  V30 END BOND
M  V30 END CTAB
M  END
>  <Dataset>  (433) 
ChEMBL_Kinases

>  <Ligand_Instance>  (433) 
nan

>  <PDB_ID>  (433) 
nan

>  <Standardized_SMILES>  (433) 
CC(C)C[C@H](NC(=O)c1ccc2[nH]nc(-c3ccc(N4[C@H]5CC[C@H]4CC(O)C5)cc3)c2c1)c1ccccn1

>  <Name>  (433) 
nan

>  <Pocket>  (433) 
nan

>  <ATP_Site>  (433) 
nan

>  <Peripheral>  (433) 
nan

>  <Num_H_Atoms_ProtBoundConf>  (433) 
nan

>  <Num_Resolved_Atoms>  (433) 
nan

>  <Num_Not_Resolved_Atoms>  (433) 
nan

$$$$
CHEMBL3422096
     RDKit          2D

  0  0  0  0  0  0  0  0  0  0999 V3000
M  V30 BEGIN CTAB
M  V30 COUNTS 73 79 0 0 0
M  V30 BEGIN ATOM
M  V30 1 O -3.625862 3.802146 0.000000 0
M  V30 2 C -2.949853 4.224613 0.000000 0
M  V30 3 N -2.637986 5.691835 0.000000 0
M  V30 4 C -3.752703 6.695531 0.000000 0
M  V30 5 C -4.756399 5.580813 0.000000 0
M  V30 6 N -6.223620 5.892681 0.000000 0
M  V30 7 C -7.227316 4.777964 0.000000 0
M  V30 8 C -6.763791 3.351379 0.000000 0
M  V30 9 C -5.296569 3.039511 0.000000 0
M  V30 10 N -4.292874 4.154229 0.000000 0
M  V30 11 C -2.749007 7.810248 0.000000 0
M  V30 12 C -1.535482 8.691926 0.000000 0
M  V30 13 C -1.999007 10.118510 0.000000 0
M  V30 14 C -3.499007 10.118510 0.000000 0
M  V30 15 C -3.962533 8.691926 0.000000 0
M  V30 16 C -1.835136 3.220917 0.000000 0
M  V30 17 C -0.408551 3.684443 0.000000 0
M  V30 18 C 0.706166 2.680747 0.000000 0
M  V30 19 C 0.394298 1.213525 0.000000 0
M  V30 20 N 1.275976 0.000000 0.000000 0
M  V30 21 N 0.394298 -1.213525 0.000000 0
M  V30 22 C -1.032286 -0.750000 0.000000 0
M  V30 23 C -2.245812 -1.631678 0.000000 0
M  V30 24 C -3.616130 -1.021573 0.000000 0
M  V30 25 C -4.829656 -1.903251 0.000000 0
M  V30 26 C -4.672863 -3.395034 0.000000 0
M  V30 27 N -5.886388 -4.276712 0.000000 0
M  V30 28 C -7.312973 -3.813186 0.000000 0
M  V30 29 C -8.194651 -5.026712 0.000000 0
M  V30 30 C -7.312973 -6.240237 0.000000 0
M  V30 31 C -5.886388 -5.776712 0.000000 0
M  V30 32 C -4.572337 -5.033396 0.000000 0
M  V30 33 C -4.729130 -3.541613 0.000000 0
M  V30 34 O -4.366247 -2.086170 0.000000 0
M  V30 35 C -6.099448 -2.931508 0.000000 0
M  V30 36 C -3.302545 -4.005139 0.000000 0
M  V30 37 C -2.089019 -3.123461 0.000000 0
M  V30 38 C -1.032286 0.750000 0.000000 0
M  V30 39 C -2.147004 1.753696 0.000000 0
M  V30 40 H -1.165537 5.978008 0.000000 0
M  V30 41 H -4.981454 7.555862 0.000000 0
M  V30 42 H -8.694538 5.089831 0.000000 0
M  V30 43 H -7.767487 2.236662 0.000000 0
M  V30 44 H -4.833044 1.612927 0.000000 0
M  V30 45 H -1.616916 6.826190 0.000000 0
M  V30 46 H -0.785482 7.392888 0.000000 0
M  V30 47 H -0.165163 9.302031 0.000000 0
M  V30 48 H -0.531786 10.430378 0.000000 0
M  V30 49 H -2.155800 11.610293 0.000000 0
M  V30 50 H -3.342214 11.610293 0.000000 0
M  V30 51 H -4.966229 10.430378 0.000000 0
M  V30 52 H -5.332851 9.302031 0.000000 0
M  V30 53 H -4.865287 7.493997 0.000000 0
M  V30 54 H -0.096684 5.151664 0.000000 0
M  V30 55 H 2.132751 3.144272 0.000000 0
M  V30 56 H 2.775976 0.000000 0.000000 0
M  V30 57 H -3.953596 0.439973 0.000000 0
M  V30 58 H -6.264125 -1.464732 0.000000 0
M  V30 59 H -7.946937 -2.453741 0.000000 0
M  V30 60 H -9.309368 -4.023016 0.000000 0
M  V30 61 H -9.309368 -6.030407 0.000000 0
M  V30 62 H -8.612011 -6.990237 0.000000 0
M  V30 63 H -6.702868 -7.610555 0.000000 0
M  V30 64 H -4.789385 -6.799739 0.000000 0
M  V30 65 H -3.078055 -5.164250 0.000000 0
M  V30 66 H -3.755344 -6.291380 0.000000 0
M  V30 67 H -3.302570 -4.005215 0.000000 0
M  V30 68 H -5.161057 -0.814055 0.000000 0
M  V30 69 H -7.043397 -1.765764 0.000000 0
M  V30 70 H -5.762139 -1.469926 0.000000 0
M  V30 71 H -2.965079 -5.466685 0.000000 0
M  V30 72 H -0.718701 -3.733566 0.000000 0
M  V30 73 H -3.619452 1.467522 0.000000 0
M  V30 END ATOM
M  V30 BEGIN BOND
M  V30 1 2 1 2
M  V30 2 1 2 3
M  V30 3 1 3 4
M  V30 4 1 4 5
M  V30 5 2 5 6
M  V30 6 1 6 7
M  V30 7 2 7 8
M  V30 8 1 8 9
M  V30 9 2 9 10
M  V30 10 1 4 11
M  V30 11 1 11 12
M  V30 12 1 12 13
M  V30 13 1 13 14
M  V30 14 1 14 15
M  V30 15 1 2 16
M  V30 16 2 16 17
M  V30 17 1 17 18
M  V30 18 2 18 19
M  V30 19 1 19 20
M  V30 20 1 20 21
M  V30 21 2 21 22
M  V30 22 1 22 23
M  V30 23 2 23 24
M  V30 24 1 24 25
M  V30 25 2 25 26
M  V30 26 1 26 27
M  V30 27 1 27 28
M  V30 28 1 28 29
M  V30 29 1 29 30
M  V30 30 1 30 31
M  V30 31 1 31 32
M  V30 32 1 32 33
M  V30 33 1 33 34
M  V30 34 1 33 35
M  V30 35 1 26 36
M  V30 36 2 36 37
M  V30 37 1 22 38
M  V30 38 2 38 39
M  V30 39 1 10 5
M  V30 40 1 15 11
M  V30 41 1 39 16
M  V30 42 1 38 19
M  V30 43 1 37 23
M  V30 44 1 31 27
M  V30 45 1 35 28
M  V30 46 1 3 40
M  V30 47 1 4 41 CFG=3
M  V30 48 1 7 42
M  V30 49 1 8 43
M  V30 50 1 9 44
M  V30 51 1 11 45
M  V30 52 1 12 46
M  V30 53 1 12 47
M  V30 54 1 13 48
M  V30 55 1 13 49
M  V30 56 1 14 50
M  V30 57 1 14 51
M  V30 58 1 15 52
M  V30 59 1 15 53
M  V30 60 1 17 54
M  V30 61 1 18 55
M  V30 62 1 20 56
M  V30 63 1 24 57
M  V30 64 1 25 58
M  V30 65 1 28 59 CFG=3
M  V30 66 1 29 60
M  V30 67 1 29 61
M  V30 68 1 30 62
M  V30 69 1 30 63
M  V30 70 1 31 64 CFG=1
M  V30 71 1 32 65
M  V30 72 1 32 66
M  V30 73 1 33 67
M  V30 74 1 34 68
M  V30 75 1 35 69
M  V30 76 1 35 70
M  V30 77 1 36 71
M  V30 78 1 37 72
M  V30 79 1 39 73
M  V30 END BOND
M  V30 END CTAB
M  END
>  <Dataset>  (434) 
ChEMBL_Kinases

>  <Ligand_Instance>  (434) 
nan

>  <PDB_ID>  (434) 
nan

>  <Standardized_SMILES>  (434) 
O=C(N[C@@H](c1ncccn1)C1CCCC1)c1ccc2[nH]nc(-c3ccc(N4[C@H]5CC[C@H]4CC(O)C5)cc3)c2c1

>  <Name>  (434) 
nan

>  <Pocket>  (434) 
nan

>  <ATP_Site>  (434) 
nan

>  <Peripheral>  (434) 
nan

>  <Num_H_Atoms_ProtBoundConf>  (434) 
nan

>  <Num_Resolved_Atoms>  (434) 
nan

>  <Num_Not_Resolved_Atoms>  (434) 
nan

$$$$
CHEMBL3422095
     RDKit          2D

  0  0  0  0  0  0  0  0  0  0999 V3000
M  V30 BEGIN CTAB
M  V30 COUNTS 73 79 0 0 0
M  V30 BEGIN ATOM
M  V30 1 O -3.625862 3.802146 0.000000 0
M  V30 2 C -2.949853 4.224613 0.000000 0
M  V30 3 N -2.637986 5.691835 0.000000 0
M  V30 4 C -3.752703 6.695531 0.000000 0
M  V30 5 C -4.756399 5.580813 0.000000 0
M  V30 6 N -6.223620 5.892681 0.000000 0
M  V30 7 C -7.227316 4.777964 0.000000 0
M  V30 8 C -6.763791 3.351379 0.000000 0
M  V30 9 C -5.296569 3.039511 0.000000 0
M  V30 10 N -4.292874 4.154229 0.000000 0
M  V30 11 C -2.749007 7.810248 0.000000 0
M  V30 12 C -1.535482 8.691926 0.000000 0
M  V30 13 C -1.999007 10.118510 0.000000 0
M  V30 14 C -3.499007 10.118510 0.000000 0
M  V30 15 C -3.962533 8.691926 0.000000 0
M  V30 16 C -1.835136 3.220917 0.000000 0
M  V30 17 C -0.408551 3.684443 0.000000 0
M  V30 18 C 0.706166 2.680747 0.000000 0
M  V30 19 C 0.394298 1.213525 0.000000 0
M  V30 20 N 1.275976 0.000000 0.000000 0
M  V30 21 N 0.394298 -1.213525 0.000000 0
M  V30 22 C -1.032286 -0.750000 0.000000 0
M  V30 23 C -2.245812 -1.631678 0.000000 0
M  V30 24 C -3.616130 -1.021573 0.000000 0
M  V30 25 C -4.829656 -1.903251 0.000000 0
M  V30 26 C -4.672863 -3.395034 0.000000 0
M  V30 27 N -5.886388 -4.276712 0.000000 0
M  V30 28 C -7.312973 -3.813186 0.000000 0
M  V30 29 C -8.194651 -5.026712 0.000000 0
M  V30 30 C -7.312973 -6.240237 0.000000 0
M  V30 31 C -5.886388 -5.776712 0.000000 0
M  V30 32 C -4.572337 -5.033396 0.000000 0
M  V30 33 C -4.729130 -3.541613 0.000000 0
M  V30 34 O -4.366247 -2.086170 0.000000 0
M  V30 35 C -6.099448 -2.931508 0.000000 0
M  V30 36 C -3.302545 -4.005139 0.000000 0
M  V30 37 C -2.089019 -3.123461 0.000000 0
M  V30 38 C -1.032286 0.750000 0.000000 0
M  V30 39 C -2.147004 1.753696 0.000000 0
M  V30 40 H -1.165537 5.978008 0.000000 0
M  V30 41 H -4.981454 7.555862 0.000000 0
M  V30 42 H -8.694538 5.089831 0.000000 0
M  V30 43 H -7.767487 2.236662 0.000000 0
M  V30 44 H -4.833044 1.612927 0.000000 0
M  V30 45 H -1.616916 6.826190 0.000000 0
M  V30 46 H -0.785482 7.392888 0.000000 0
M  V30 47 H -0.165163 9.302031 0.000000 0
M  V30 48 H -0.531786 10.430378 0.000000 0
M  V30 49 H -2.155800 11.610293 0.000000 0
M  V30 50 H -3.342214 11.610293 0.000000 0
M  V30 51 H -4.966229 10.430378 0.000000 0
M  V30 52 H -5.332851 9.302031 0.000000 0
M  V30 53 H -4.865287 7.493997 0.000000 0
M  V30 54 H -0.096684 5.151664 0.000000 0
M  V30 55 H 2.132751 3.144272 0.000000 0
M  V30 56 H 2.775976 0.000000 0.000000 0
M  V30 57 H -3.953596 0.439973 0.000000 0
M  V30 58 H -6.264125 -1.464732 0.000000 0
M  V30 59 H -7.946937 -2.453741 0.000000 0
M  V30 60 H -9.309368 -4.023016 0.000000 0
M  V30 61 H -9.309368 -6.030407 0.000000 0
M  V30 62 H -8.612011 -6.990237 0.000000 0
M  V30 63 H -6.702868 -7.610555 0.000000 0
M  V30 64 H -4.789385 -6.799739 0.000000 0
M  V30 65 H -3.078055 -5.164250 0.000000 0
M  V30 66 H -3.755344 -6.291380 0.000000 0
M  V30 67 H -3.302570 -4.005215 0.000000 0
M  V30 68 H -5.161057 -0.814055 0.000000 0
M  V30 69 H -7.043397 -1.765764 0.000000 0
M  V30 70 H -5.762139 -1.469926 0.000000 0
M  V30 71 H -2.965079 -5.466685 0.000000 0
M  V30 72 H -0.718701 -3.733566 0.000000 0
M  V30 73 H -3.619452 1.467522 0.000000 0
M  V30 END ATOM
M  V30 BEGIN BOND
M  V30 1 2 1 2
M  V30 2 1 2 3
M  V30 3 1 3 4
M  V30 4 1 4 5
M  V30 5 2 5 6
M  V30 6 1 6 7
M  V30 7 2 7 8
M  V30 8 1 8 9
M  V30 9 2 9 10
M  V30 10 1 4 11
M  V30 11 1 11 12
M  V30 12 1 12 13
M  V30 13 1 13 14
M  V30 14 1 14 15
M  V30 15 1 2 16
M  V30 16 2 16 17
M  V30 17 1 17 18
M  V30 18 2 18 19
M  V30 19 1 19 20
M  V30 20 1 20 21
M  V30 21 2 21 22
M  V30 22 1 22 23
M  V30 23 2 23 24
M  V30 24 1 24 25
M  V30 25 2 25 26
M  V30 26 1 26 27
M  V30 27 1 27 28
M  V30 28 1 28 29
M  V30 29 1 29 30
M  V30 30 1 30 31
M  V30 31 1 31 32
M  V30 32 1 32 33
M  V30 33 1 33 34
M  V30 34 1 33 35
M  V30 35 1 26 36
M  V30 36 2 36 37
M  V30 37 1 22 38
M  V30 38 2 38 39
M  V30 39 1 10 5
M  V30 40 1 15 11
M  V30 41 1 39 16
M  V30 42 1 38 19
M  V30 43 1 37 23
M  V30 44 1 31 27
M  V30 45 1 35 28
M  V30 46 1 3 40
M  V30 47 1 4 41 CFG=1
M  V30 48 1 7 42
M  V30 49 1 8 43
M  V30 50 1 9 44
M  V30 51 1 11 45
M  V30 52 1 12 46
M  V30 53 1 12 47
M  V30 54 1 13 48
M  V30 55 1 13 49
M  V30 56 1 14 50
M  V30 57 1 14 51
M  V30 58 1 15 52
M  V30 59 1 15 53
M  V30 60 1 17 54
M  V30 61 1 18 55
M  V30 62 1 20 56
M  V30 63 1 24 57
M  V30 64 1 25 58
M  V30 65 1 28 59 CFG=3
M  V30 66 1 29 60
M  V30 67 1 29 61
M  V30 68 1 30 62
M  V30 69 1 30 63
M  V30 70 1 31 64 CFG=1
M  V30 71 1 32 65
M  V30 72 1 32 66
M  V30 73 1 33 67
M  V30 74 1 34 68
M  V30 75 1 35 69
M  V30 76 1 35 70
M  V30 77 1 36 71
M  V30 78 1 37 72
M  V30 79 1 39 73
M  V30 END BOND
M  V30 END CTAB
M  END
>  <Dataset>  (435) 
ChEMBL_Kinases

>  <Ligand_Instance>  (435) 
nan

>  <PDB_ID>  (435) 
nan

>  <Standardized_SMILES>  (435) 
O=C(N[C@H](c1ncccn1)C1CCCC1)c1ccc2[nH]nc(-c3ccc(N4[C@H]5CC[C@H]4CC(O)C5)cc3)c2c1

>  <Name>  (435) 
nan

>  <Pocket>  (435) 
nan

>  <ATP_Site>  (435) 
nan

>  <Peripheral>  (435) 
nan

>  <Num_H_Atoms_ProtBoundConf>  (435) 
nan

>  <Num_Resolved_Atoms>  (435) 
nan

>  <Num_Not_Resolved_Atoms>  (435) 
nan

$$$$
CHEMBL3422094
     RDKit          2D

  0  0  0  0  0  0  0  0  0  0999 V3000
M  V30 BEGIN CTAB
M  V30 COUNTS 74 80 0 0 0
M  V30 BEGIN ATOM
M  V30 1 O -3.625862 3.802146 0.000000 0
M  V30 2 C -2.949853 4.224613 0.000000 0
M  V30 3 N -2.637986 5.691835 0.000000 0
M  V30 4 C -3.752703 6.695531 0.000000 0
M  V30 5 C -4.756399 5.580813 0.000000 0
M  V30 6 C -6.223620 5.892681 0.000000 0
M  V30 7 C -7.227316 4.777964 0.000000 0
M  V30 8 C -6.763791 3.351379 0.000000 0
M  V30 9 C -5.296569 3.039511 0.000000 0
M  V30 10 N -4.292874 4.154229 0.000000 0
M  V30 11 C -2.749007 7.810248 0.000000 0
M  V30 12 C -1.535482 8.691926 0.000000 0
M  V30 13 C -1.999007 10.118510 0.000000 0
M  V30 14 C -3.499007 10.118510 0.000000 0
M  V30 15 C -3.962533 8.691926 0.000000 0
M  V30 16 C -1.835136 3.220917 0.000000 0
M  V30 17 C -0.408551 3.684443 0.000000 0
M  V30 18 C 0.706166 2.680747 0.000000 0
M  V30 19 C 0.394298 1.213525 0.000000 0
M  V30 20 N 1.275976 0.000000 0.000000 0
M  V30 21 N 0.394298 -1.213525 0.000000 0
M  V30 22 C -1.032286 -0.750000 0.000000 0
M  V30 23 C -2.245812 -1.631678 0.000000 0
M  V30 24 C -3.616130 -1.021573 0.000000 0
M  V30 25 C -4.829656 -1.903251 0.000000 0
M  V30 26 C -4.672863 -3.395034 0.000000 0
M  V30 27 N -5.886388 -4.276712 0.000000 0
M  V30 28 C -7.312973 -3.813186 0.000000 0
M  V30 29 C -8.194651 -5.026712 0.000000 0
M  V30 30 C -7.312973 -6.240237 0.000000 0
M  V30 31 C -5.886388 -5.776712 0.000000 0
M  V30 32 C -4.572337 -5.033396 0.000000 0
M  V30 33 C -4.729130 -3.541613 0.000000 0
M  V30 34 O -4.366247 -2.086170 0.000000 0
M  V30 35 C -6.099448 -2.931508 0.000000 0
M  V30 36 C -3.302545 -4.005139 0.000000 0
M  V30 37 C -2.089019 -3.123461 0.000000 0
M  V30 38 C -1.032286 0.750000 0.000000 0
M  V30 39 C -2.147004 1.753696 0.000000 0
M  V30 40 H -1.165537 5.978008 0.000000 0
M  V30 41 H -4.981454 7.555862 0.000000 0
M  V30 42 H -6.687146 7.319266 0.000000 0
M  V30 43 H -8.694538 5.089831 0.000000 0
M  V30 44 H -7.767487 2.236662 0.000000 0
M  V30 45 H -4.833044 1.612927 0.000000 0
M  V30 46 H -1.616916 6.826190 0.000000 0
M  V30 47 H -0.785482 7.392888 0.000000 0
M  V30 48 H -0.165163 9.302031 0.000000 0
M  V30 49 H -0.531786 10.430378 0.000000 0
M  V30 50 H -2.155800 11.610293 0.000000 0
M  V30 51 H -3.342214 11.610293 0.000000 0
M  V30 52 H -4.966229 10.430378 0.000000 0
M  V30 53 H -5.332851 9.302031 0.000000 0
M  V30 54 H -4.865287 7.493997 0.000000 0
M  V30 55 H -0.096684 5.151664 0.000000 0
M  V30 56 H 2.132751 3.144272 0.000000 0
M  V30 57 H 2.775976 0.000000 0.000000 0
M  V30 58 H -3.953596 0.439973 0.000000 0
M  V30 59 H -6.264125 -1.464732 0.000000 0
M  V30 60 H -7.946937 -2.453741 0.000000 0
M  V30 61 H -9.309368 -4.023016 0.000000 0
M  V30 62 H -9.309368 -6.030407 0.000000 0
M  V30 63 H -8.612011 -6.990237 0.000000 0
M  V30 64 H -6.702868 -7.610555 0.000000 0
M  V30 65 H -4.789385 -6.799739 0.000000 0
M  V30 66 H -3.078055 -5.164250 0.000000 0
M  V30 67 H -3.755344 -6.291380 0.000000 0
M  V30 68 H -3.302570 -4.005215 0.000000 0
M  V30 69 H -5.161057 -0.814055 0.000000 0
M  V30 70 H -7.043397 -1.765764 0.000000 0
M  V30 71 H -5.762139 -1.469926 0.000000 0
M  V30 72 H -2.965079 -5.466685 0.000000 0
M  V30 73 H -0.718701 -3.733566 0.000000 0
M  V30 74 H -3.619452 1.467522 0.000000 0
M  V30 END ATOM
M  V30 BEGIN BOND
M  V30 1 2 1 2
M  V30 2 1 2 3
M  V30 3 1 3 4
M  V30 4 1 4 5
M  V30 5 2 5 6
M  V30 6 1 6 7
M  V30 7 2 7 8
M  V30 8 1 8 9
M  V30 9 2 9 10
M  V30 10 1 4 11
M  V30 11 1 11 12
M  V30 12 1 12 13
M  V30 13 1 13 14
M  V30 14 1 14 15
M  V30 15 1 2 16
M  V30 16 2 16 17
M  V30 17 1 17 18
M  V30 18 2 18 19
M  V30 19 1 19 20
M  V30 20 1 20 21
M  V30 21 2 21 22
M  V30 22 1 22 23
M  V30 23 2 23 24
M  V30 24 1 24 25
M  V30 25 2 25 26
M  V30 26 1 26 27
M  V30 27 1 27 28
M  V30 28 1 28 29
M  V30 29 1 29 30
M  V30 30 1 30 31
M  V30 31 1 31 32
M  V30 32 1 32 33
M  V30 33 1 33 34
M  V30 34 1 33 35
M  V30 35 1 26 36
M  V30 36 2 36 37
M  V30 37 1 22 38
M  V30 38 2 38 39
M  V30 39 1 10 5
M  V30 40 1 15 11
M  V30 41 1 39 16
M  V30 42 1 38 19
M  V30 43 1 37 23
M  V30 44 1 31 27
M  V30 45 1 35 28
M  V30 46 1 3 40
M  V30 47 1 4 41 CFG=3
M  V30 48 1 6 42
M  V30 49 1 7 43
M  V30 50 1 8 44
M  V30 51 1 9 45
M  V30 52 1 11 46
M  V30 53 1 12 47
M  V30 54 1 12 48
M  V30 55 1 13 49
M  V30 56 1 13 50
M  V30 57 1 14 51
M  V30 58 1 14 52
M  V30 59 1 15 53
M  V30 60 1 15 54
M  V30 61 1 17 55
M  V30 62 1 18 56
M  V30 63 1 20 57
M  V30 64 1 24 58
M  V30 65 1 25 59
M  V30 66 1 28 60 CFG=3
M  V30 67 1 29 61
M  V30 68 1 29 62
M  V30 69 1 30 63
M  V30 70 1 30 64
M  V30 71 1 31 65 CFG=1
M  V30 72 1 32 66
M  V30 73 1 32 67
M  V30 74 1 33 68
M  V30 75 1 34 69
M  V30 76 1 35 70
M  V30 77 1 35 71
M  V30 78 1 36 72
M  V30 79 1 37 73
M  V30 80 1 39 74
M  V30 END BOND
M  V30 END CTAB
M  END
>  <Dataset>  (436) 
ChEMBL_Kinases

>  <Ligand_Instance>  (436) 
nan

>  <PDB_ID>  (436) 
nan

>  <Standardized_SMILES>  (436) 
O=C(N[C@@H](c1ccccn1)C1CCCC1)c1ccc2[nH]nc(-c3ccc(N4[C@H]5CC[C@H]4CC(O)C5)cc3)c2c1

>  <Name>  (436) 
nan

>  <Pocket>  (436) 
nan

>  <ATP_Site>  (436) 
nan

>  <Peripheral>  (436) 
nan

>  <Num_H_Atoms_ProtBoundConf>  (436) 
nan

>  <Num_Resolved_Atoms>  (436) 
nan

>  <Num_Not_Resolved_Atoms>  (436) 
nan

$$$$
CHEMBL3422093
     RDKit          2D

  0  0  0  0  0  0  0  0  0  0999 V3000
M  V30 BEGIN CTAB
M  V30 COUNTS 74 80 0 0 0
M  V30 BEGIN ATOM
M  V30 1 O -3.625862 3.802146 0.000000 0
M  V30 2 C -2.949853 4.224613 0.000000 0
M  V30 3 N -2.637986 5.691835 0.000000 0
M  V30 4 C -3.752703 6.695531 0.000000 0
M  V30 5 C -4.756399 5.580813 0.000000 0
M  V30 6 C -6.223620 5.892681 0.000000 0
M  V30 7 C -7.227316 4.777964 0.000000 0
M  V30 8 C -6.763791 3.351379 0.000000 0
M  V30 9 C -5.296569 3.039511 0.000000 0
M  V30 10 N -4.292874 4.154229 0.000000 0
M  V30 11 C -2.749007 7.810248 0.000000 0
M  V30 12 C -1.535482 8.691926 0.000000 0
M  V30 13 C -1.999007 10.118510 0.000000 0
M  V30 14 C -3.499007 10.118510 0.000000 0
M  V30 15 C -3.962533 8.691926 0.000000 0
M  V30 16 C -1.835136 3.220917 0.000000 0
M  V30 17 C -0.408551 3.684443 0.000000 0
M  V30 18 C 0.706166 2.680747 0.000000 0
M  V30 19 C 0.394298 1.213525 0.000000 0
M  V30 20 N 1.275976 0.000000 0.000000 0
M  V30 21 N 0.394298 -1.213525 0.000000 0
M  V30 22 C -1.032286 -0.750000 0.000000 0
M  V30 23 C -2.245812 -1.631678 0.000000 0
M  V30 24 C -3.616130 -1.021573 0.000000 0
M  V30 25 C -4.829656 -1.903251 0.000000 0
M  V30 26 C -4.672863 -3.395034 0.000000 0
M  V30 27 N -5.886388 -4.276712 0.000000 0
M  V30 28 C -7.312973 -3.813186 0.000000 0
M  V30 29 C -8.194651 -5.026712 0.000000 0
M  V30 30 C -7.312973 -6.240237 0.000000 0
M  V30 31 C -5.886388 -5.776712 0.000000 0
M  V30 32 C -4.572337 -5.033396 0.000000 0
M  V30 33 C -4.729130 -3.541613 0.000000 0
M  V30 34 O -4.366247 -2.086170 0.000000 0
M  V30 35 C -6.099448 -2.931508 0.000000 0
M  V30 36 C -3.302545 -4.005139 0.000000 0
M  V30 37 C -2.089019 -3.123461 0.000000 0
M  V30 38 C -1.032286 0.750000 0.000000 0
M  V30 39 C -2.147004 1.753696 0.000000 0
M  V30 40 H -1.165537 5.978008 0.000000 0
M  V30 41 H -4.981454 7.555862 0.000000 0
M  V30 42 H -6.687146 7.319266 0.000000 0
M  V30 43 H -8.694538 5.089831 0.000000 0
M  V30 44 H -7.767487 2.236662 0.000000 0
M  V30 45 H -4.833044 1.612927 0.000000 0
M  V30 46 H -1.616916 6.826190 0.000000 0
M  V30 47 H -0.785482 7.392888 0.000000 0
M  V30 48 H -0.165163 9.302031 0.000000 0
M  V30 49 H -0.531786 10.430378 0.000000 0
M  V30 50 H -2.155800 11.610293 0.000000 0
M  V30 51 H -3.342214 11.610293 0.000000 0
M  V30 52 H -4.966229 10.430378 0.000000 0
M  V30 53 H -5.332851 9.302031 0.000000 0
M  V30 54 H -4.865287 7.493997 0.000000 0
M  V30 55 H -0.096684 5.151664 0.000000 0
M  V30 56 H 2.132751 3.144272 0.000000 0
M  V30 57 H 2.775976 0.000000 0.000000 0
M  V30 58 H -3.953596 0.439973 0.000000 0
M  V30 59 H -6.264125 -1.464732 0.000000 0
M  V30 60 H -7.946937 -2.453741 0.000000 0
M  V30 61 H -9.309368 -4.023016 0.000000 0
M  V30 62 H -9.309368 -6.030407 0.000000 0
M  V30 63 H -8.612011 -6.990237 0.000000 0
M  V30 64 H -6.702868 -7.610555 0.000000 0
M  V30 65 H -4.789385 -6.799739 0.000000 0
M  V30 66 H -3.078055 -5.164250 0.000000 0
M  V30 67 H -3.755344 -6.291380 0.000000 0
M  V30 68 H -3.302570 -4.005215 0.000000 0
M  V30 69 H -5.161057 -0.814055 0.000000 0
M  V30 70 H -7.043397 -1.765764 0.000000 0
M  V30 71 H -5.762139 -1.469926 0.000000 0
M  V30 72 H -2.965079 -5.466685 0.000000 0
M  V30 73 H -0.718701 -3.733566 0.000000 0
M  V30 74 H -3.619452 1.467522 0.000000 0
M  V30 END ATOM
M  V30 BEGIN BOND
M  V30 1 2 1 2
M  V30 2 1 2 3
M  V30 3 1 3 4
M  V30 4 1 4 5
M  V30 5 2 5 6
M  V30 6 1 6 7
M  V30 7 2 7 8
M  V30 8 1 8 9
M  V30 9 2 9 10
M  V30 10 1 4 11
M  V30 11 1 11 12
M  V30 12 1 12 13
M  V30 13 1 13 14
M  V30 14 1 14 15
M  V30 15 1 2 16
M  V30 16 2 16 17
M  V30 17 1 17 18
M  V30 18 2 18 19
M  V30 19 1 19 20
M  V30 20 1 20 21
M  V30 21 2 21 22
M  V30 22 1 22 23
M  V30 23 2 23 24
M  V30 24 1 24 25
M  V30 25 2 25 26
M  V30 26 1 26 27
M  V30 27 1 27 28
M  V30 28 1 28 29
M  V30 29 1 29 30
M  V30 30 1 30 31
M  V30 31 1 31 32
M  V30 32 1 32 33
M  V30 33 1 33 34
M  V30 34 1 33 35
M  V30 35 1 26 36
M  V30 36 2 36 37
M  V30 37 1 22 38
M  V30 38 2 38 39
M  V30 39 1 10 5
M  V30 40 1 15 11
M  V30 41 1 39 16
M  V30 42 1 38 19
M  V30 43 1 37 23
M  V30 44 1 31 27
M  V30 45 1 35 28
M  V30 46 1 3 40
M  V30 47 1 4 41 CFG=1
M  V30 48 1 6 42
M  V30 49 1 7 43
M  V30 50 1 8 44
M  V30 51 1 9 45
M  V30 52 1 11 46
M  V30 53 1 12 47
M  V30 54 1 12 48
M  V30 55 1 13 49
M  V30 56 1 13 50
M  V30 57 1 14 51
M  V30 58 1 14 52
M  V30 59 1 15 53
M  V30 60 1 15 54
M  V30 61 1 17 55
M  V30 62 1 18 56
M  V30 63 1 20 57
M  V30 64 1 24 58
M  V30 65 1 25 59
M  V30 66 1 28 60 CFG=3
M  V30 67 1 29 61
M  V30 68 1 29 62
M  V30 69 1 30 63
M  V30 70 1 30 64
M  V30 71 1 31 65 CFG=1
M  V30 72 1 32 66
M  V30 73 1 32 67
M  V30 74 1 33 68
M  V30 75 1 34 69
M  V30 76 1 35 70
M  V30 77 1 35 71
M  V30 78 1 36 72
M  V30 79 1 37 73
M  V30 80 1 39 74
M  V30 END BOND
M  V30 END CTAB
M  END
>  <Dataset>  (437) 
ChEMBL_Kinases

>  <Ligand_Instance>  (437) 
nan

>  <PDB_ID>  (437) 
nan

>  <Standardized_SMILES>  (437) 
O=C(N[C@H](c1ccccn1)C1CCCC1)c1ccc2[nH]nc(-c3ccc(N4[C@H]5CC[C@H]4CC(O)C5)cc3)c2c1

>  <Name>  (437) 
nan

>  <Pocket>  (437) 
nan

>  <ATP_Site>  (437) 
nan

>  <Peripheral>  (437) 
nan

>  <Num_H_Atoms_ProtBoundConf>  (437) 
nan

>  <Num_Resolved_Atoms>  (437) 
nan

>  <Num_Not_Resolved_Atoms>  (437) 
nan

$$$$
CHEMBL3422091
     RDKit          2D

  0  0  0  0  0  0  0  0  0  0999 V3000
M  V30 BEGIN CTAB
M  V30 COUNTS 68 74 0 0 0
M  V30 BEGIN ATOM
M  V30 1 O -4.309298 3.590649 0.000000 0
M  V30 2 C -2.949853 4.224613 0.000000 0
M  V30 3 N -2.637986 5.691835 0.000000 0
M  V30 4 C -3.752703 6.695531 0.000000 0
M  V30 5 C -2.749007 7.810248 0.000000 0
M  V30 6 C -3.212533 9.236833 0.000000 0
M  V30 7 C -2.208837 10.351550 0.000000 0
M  V30 8 C -0.741615 10.039682 0.000000 0
M  V30 9 C -0.278090 8.613097 0.000000 0
M  V30 10 N -1.281786 7.498380 0.000000 0
M  V30 11 C -4.756399 5.580813 0.000000 0
M  V30 12 C -6.080820 4.876606 0.000000 0
M  V30 13 C -6.028471 6.375692 0.000000 0
M  V30 14 C -1.835136 3.220917 0.000000 0
M  V30 15 C -0.408551 3.684443 0.000000 0
M  V30 16 C 0.706166 2.680747 0.000000 0
M  V30 17 C 0.394298 1.213525 0.000000 0
M  V30 18 N 1.275976 0.000000 0.000000 0
M  V30 19 N 0.394298 -1.213525 0.000000 0
M  V30 20 C -1.032286 -0.750000 0.000000 0
M  V30 21 C -2.245812 -1.631678 0.000000 0
M  V30 22 C -3.616130 -1.021573 0.000000 0
M  V30 23 C -4.829656 -1.903251 0.000000 0
M  V30 24 C -4.672863 -3.395034 0.000000 0
M  V30 25 N -5.886388 -4.276712 0.000000 0
M  V30 26 C -7.312973 -3.813186 0.000000 0
M  V30 27 C -8.194651 -5.026712 0.000000 0
M  V30 28 C -7.312973 -6.240237 0.000000 0
M  V30 29 C -5.886388 -5.776712 0.000000 0
M  V30 30 C -4.572337 -5.033396 0.000000 0
M  V30 31 C -4.729130 -3.541613 0.000000 0
M  V30 32 O -4.366247 -2.086170 0.000000 0
M  V30 33 C -6.099448 -2.931508 0.000000 0
M  V30 34 C -3.302545 -4.005139 0.000000 0
M  V30 35 C -2.089019 -3.123461 0.000000 0
M  V30 36 C -1.032286 0.750000 0.000000 0
M  V30 37 C -2.147004 1.753696 0.000000 0
M  V30 38 H -1.211401 6.155360 0.000000 0
M  V30 39 H -4.736761 7.827621 0.000000 0
M  V30 40 H -4.679754 9.548700 0.000000 0
M  V30 41 H -2.672362 11.778135 0.000000 0
M  V30 42 H 0.262081 11.154399 0.000000 0
M  V30 43 H 1.189132 8.301230 0.000000 0
M  V30 44 H -3.983877 4.295042 0.000000 0
M  V30 45 H -5.617295 3.450021 0.000000 0
M  V30 46 H -7.566222 4.667846 0.000000 0
M  V30 47 H -7.495693 6.687560 0.000000 0
M  V30 48 H -5.640282 7.824591 0.000000 0
M  V30 49 H -0.096684 5.151664 0.000000 0
M  V30 50 H 2.132751 3.144272 0.000000 0
M  V30 51 H 2.775976 0.000000 0.000000 0
M  V30 52 H -3.953596 0.439973 0.000000 0
M  V30 53 H -6.264125 -1.464732 0.000000 0
M  V30 54 H -7.946937 -2.453741 0.000000 0
M  V30 55 H -9.309368 -4.023016 0.000000 0
M  V30 56 H -9.309368 -6.030407 0.000000 0
M  V30 57 H -8.612011 -6.990237 0.000000 0
M  V30 58 H -6.702868 -7.610555 0.000000 0
M  V30 59 H -4.789385 -6.799739 0.000000 0
M  V30 60 H -3.078055 -5.164250 0.000000 0
M  V30 61 H -3.755344 -6.291380 0.000000 0
M  V30 62 H -3.302570 -4.005215 0.000000 0
M  V30 63 H -5.161057 -0.814055 0.000000 0
M  V30 64 H -7.043397 -1.765764 0.000000 0
M  V30 65 H -5.762139 -1.469926 0.000000 0
M  V30 66 H -2.965079 -5.466685 0.000000 0
M  V30 67 H -0.718701 -3.733566 0.000000 0
M  V30 68 H -3.619452 1.467522 0.000000 0
M  V30 END ATOM
M  V30 BEGIN BOND
M  V30 1 2 1 2
M  V30 2 1 2 3
M  V30 3 1 3 4
M  V30 4 1 4 5
M  V30 5 2 5 6
M  V30 6 1 6 7
M  V30 7 2 7 8
M  V30 8 1 8 9
M  V30 9 2 9 10
M  V30 10 1 4 11
M  V30 11 1 11 12
M  V30 12 1 12 13
M  V30 13 1 2 14
M  V30 14 2 14 15
M  V30 15 1 15 16
M  V30 16 2 16 17
M  V30 17 1 17 18
M  V30 18 1 18 19
M  V30 19 2 19 20
M  V30 20 1 20 21
M  V30 21 2 21 22
M  V30 22 1 22 23
M  V30 23 2 23 24
M  V30 24 1 24 25
M  V30 25 1 25 26
M  V30 26 1 26 27
M  V30 27 1 27 28
M  V30 28 1 28 29
M  V30 29 1 29 30
M  V30 30 1 30 31
M  V30 31 1 31 32
M  V30 32 1 31 33
M  V30 33 1 24 34
M  V30 34 2 34 35
M  V30 35 1 20 36
M  V30 36 2 36 37
M  V30 37 1 10 5
M  V30 38 1 13 11
M  V30 39 1 37 14
M  V30 40 1 36 17
M  V30 41 1 35 21
M  V30 42 1 29 25
M  V30 43 1 33 26
M  V30 44 1 3 38
M  V30 45 1 4 39 CFG=3
M  V30 46 1 6 40
M  V30 47 1 7 41
M  V30 48 1 8 42
M  V30 49 1 9 43
M  V30 50 1 11 44
M  V30 51 1 12 45
M  V30 52 1 12 46
M  V30 53 1 13 47
M  V30 54 1 13 48
M  V30 55 1 15 49
M  V30 56 1 16 50
M  V30 57 1 18 51
M  V30 58 1 22 52
M  V30 59 1 23 53
M  V30 60 1 26 54 CFG=3
M  V30 61 1 27 55
M  V30 62 1 27 56
M  V30 63 1 28 57
M  V30 64 1 28 58
M  V30 65 1 29 59 CFG=1
M  V30 66 1 30 60
M  V30 67 1 30 61
M  V30 68 1 31 62
M  V30 69 1 32 63
M  V30 70 1 33 64
M  V30 71 1 33 65
M  V30 72 1 34 66
M  V30 73 1 35 67
M  V30 74 1 37 68
M  V30 END BOND
M  V30 END CTAB
M  END
>  <Dataset>  (438) 
ChEMBL_Kinases

>  <Ligand_Instance>  (438) 
nan

>  <PDB_ID>  (438) 
nan

>  <Standardized_SMILES>  (438) 
O=C(N[C@H](c1ccccn1)C1CC1)c1ccc2[nH]nc(-c3ccc(N4[C@H]5CC[C@H]4CC(O)C5)cc3)c2c1

>  <Name>  (438) 
nan

>  <Pocket>  (438) 
nan

>  <ATP_Site>  (438) 
nan

>  <Peripheral>  (438) 
nan

>  <Num_H_Atoms_ProtBoundConf>  (438) 
nan

>  <Num_Resolved_Atoms>  (438) 
nan

>  <Num_Not_Resolved_Atoms>  (438) 
nan

$$$$
CHEMBL3422090
     RDKit          2D

  0  0  0  0  0  0  0  0  0  0999 V3000
M  V30 BEGIN CTAB
M  V30 COUNTS 69 75 0 0 0
M  V30 BEGIN ATOM
M  V30 1 O -4.309298 3.590649 0.000000 0
M  V30 2 C -2.949853 4.224613 0.000000 0
M  V30 3 N -2.637986 5.691835 0.000000 0
M  V30 4 C -3.752703 6.695531 0.000000 0
M  V30 5 C -2.749007 7.810248 0.000000 0
M  V30 6 C -3.212533 9.236833 0.000000 0
M  V30 7 C -2.208837 10.351550 0.000000 0
M  V30 8 C -0.741615 10.039682 0.000000 0
M  V30 9 C -0.278090 8.613097 0.000000 0
M  V30 10 C -1.281786 7.498380 0.000000 0
M  V30 11 C -4.756399 5.580813 0.000000 0
M  V30 12 C -6.080820 4.876606 0.000000 0
M  V30 13 C -6.028471 6.375692 0.000000 0
M  V30 14 C -1.835136 3.220917 0.000000 0
M  V30 15 C -0.408551 3.684443 0.000000 0
M  V30 16 C 0.706166 2.680747 0.000000 0
M  V30 17 C 0.394298 1.213525 0.000000 0
M  V30 18 N 1.275976 0.000000 0.000000 0
M  V30 19 N 0.394298 -1.213525 0.000000 0
M  V30 20 C -1.032286 -0.750000 0.000000 0
M  V30 21 C -2.245812 -1.631678 0.000000 0
M  V30 22 C -3.616130 -1.021573 0.000000 0
M  V30 23 C -4.829656 -1.903251 0.000000 0
M  V30 24 C -4.672863 -3.395034 0.000000 0
M  V30 25 N -5.886388 -4.276712 0.000000 0
M  V30 26 C -7.312973 -3.813186 0.000000 0
M  V30 27 C -8.194651 -5.026712 0.000000 0
M  V30 28 C -7.312973 -6.240237 0.000000 0
M  V30 29 C -5.886388 -5.776712 0.000000 0
M  V30 30 C -4.572337 -5.033396 0.000000 0
M  V30 31 C -4.729130 -3.541613 0.000000 0
M  V30 32 O -4.366247 -2.086170 0.000000 0
M  V30 33 C -6.099448 -2.931508 0.000000 0
M  V30 34 C -3.302545 -4.005139 0.000000 0
M  V30 35 C -2.089019 -3.123461 0.000000 0
M  V30 36 C -1.032286 0.750000 0.000000 0
M  V30 37 C -2.147004 1.753696 0.000000 0
M  V30 38 H -1.165537 5.978008 0.000000 0
M  V30 39 H -4.736761 7.827621 0.000000 0
M  V30 40 H -4.679754 9.548700 0.000000 0
M  V30 41 H -2.672362 11.778135 0.000000 0
M  V30 42 H 0.262081 11.154399 0.000000 0
M  V30 43 H 1.189132 8.301230 0.000000 0
M  V30 44 H -0.647822 6.138936 0.000000 0
M  V30 45 H -3.983877 4.295042 0.000000 0
M  V30 46 H -5.617295 3.450021 0.000000 0
M  V30 47 H -7.566222 4.667846 0.000000 0
M  V30 48 H -7.495693 6.687560 0.000000 0
M  V30 49 H -5.640282 7.824591 0.000000 0
M  V30 50 H -0.096684 5.151664 0.000000 0
M  V30 51 H 2.132751 3.144272 0.000000 0
M  V30 52 H 2.775976 0.000000 0.000000 0
M  V30 53 H -3.953596 0.439973 0.000000 0
M  V30 54 H -6.264125 -1.464732 0.000000 0
M  V30 55 H -7.946937 -2.453741 0.000000 0
M  V30 56 H -9.309368 -4.023016 0.000000 0
M  V30 57 H -9.309368 -6.030407 0.000000 0
M  V30 58 H -8.612011 -6.990237 0.000000 0
M  V30 59 H -6.702868 -7.610555 0.000000 0
M  V30 60 H -4.789385 -6.799739 0.000000 0
M  V30 61 H -3.078055 -5.164250 0.000000 0
M  V30 62 H -3.755344 -6.291380 0.000000 0
M  V30 63 H -3.302570 -4.005215 0.000000 0
M  V30 64 H -5.161057 -0.814055 0.000000 0
M  V30 65 H -7.043397 -1.765764 0.000000 0
M  V30 66 H -5.762139 -1.469926 0.000000 0
M  V30 67 H -2.965079 -5.466685 0.000000 0
M  V30 68 H -0.718701 -3.733566 0.000000 0
M  V30 69 H -3.619452 1.467522 0.000000 0
M  V30 END ATOM
M  V30 BEGIN BOND
M  V30 1 2 1 2
M  V30 2 1 2 3
M  V30 3 1 3 4
M  V30 4 1 4 5
M  V30 5 2 5 6
M  V30 6 1 6 7
M  V30 7 2 7 8
M  V30 8 1 8 9
M  V30 9 2 9 10
M  V30 10 1 4 11
M  V30 11 1 11 12
M  V30 12 1 12 13
M  V30 13 1 2 14
M  V30 14 2 14 15
M  V30 15 1 15 16
M  V30 16 2 16 17
M  V30 17 1 17 18
M  V30 18 1 18 19
M  V30 19 2 19 20
M  V30 20 1 20 21
M  V30 21 2 21 22
M  V30 22 1 22 23
M  V30 23 2 23 24
M  V30 24 1 24 25
M  V30 25 1 25 26
M  V30 26 1 26 27
M  V30 27 1 27 28
M  V30 28 1 28 29
M  V30 29 1 29 30
M  V30 30 1 30 31
M  V30 31 1 31 32
M  V30 32 1 31 33
M  V30 33 1 24 34
M  V30 34 2 34 35
M  V30 35 1 20 36
M  V30 36 2 36 37
M  V30 37 1 10 5
M  V30 38 1 13 11
M  V30 39 1 37 14
M  V30 40 1 36 17
M  V30 41 1 35 21
M  V30 42 1 29 25
M  V30 43 1 33 26
M  V30 44 1 3 38
M  V30 45 1 4 39 CFG=3
M  V30 46 1 6 40
M  V30 47 1 7 41
M  V30 48 1 8 42
M  V30 49 1 9 43
M  V30 50 1 10 44
M  V30 51 1 11 45
M  V30 52 1 12 46
M  V30 53 1 12 47
M  V30 54 1 13 48
M  V30 55 1 13 49
M  V30 56 1 15 50
M  V30 57 1 16 51
M  V30 58 1 18 52
M  V30 59 1 22 53
M  V30 60 1 23 54
M  V30 61 1 26 55 CFG=3
M  V30 62 1 27 56
M  V30 63 1 27 57
M  V30 64 1 28 58
M  V30 65 1 28 59
M  V30 66 1 29 60 CFG=1
M  V30 67 1 30 61
M  V30 68 1 30 62
M  V30 69 1 31 63
M  V30 70 1 32 64
M  V30 71 1 33 65
M  V30 72 1 33 66
M  V30 73 1 34 67
M  V30 74 1 35 68
M  V30 75 1 37 69
M  V30 END BOND
M  V30 END CTAB
M  END
>  <Dataset>  (439) 
ChEMBL_Kinases

>  <Ligand_Instance>  (439) 
nan

>  <PDB_ID>  (439) 
nan

>  <Standardized_SMILES>  (439) 
O=C(N[C@H](c1ccccc1)C1CC1)c1ccc2[nH]nc(-c3ccc(N4[C@H]5CC[C@H]4CC(O)C5)cc3)c2c1

>  <Name>  (439) 
nan

>  <Pocket>  (439) 
nan

>  <ATP_Site>  (439) 
nan

>  <Peripheral>  (439) 
nan

>  <Num_H_Atoms_ProtBoundConf>  (439) 
nan

>  <Num_Resolved_Atoms>  (439) 
nan

>  <Num_Not_Resolved_Atoms>  (439) 
nan

$$$$
CHEMBL3422089
     RDKit          2D

  0  0  0  0  0  0  0  0  0  0999 V3000
M  V30 BEGIN CTAB
M  V30 COUNTS 71 76 0 0 0
M  V30 BEGIN ATOM
M  V30 1 C -1.634290 6.806552 0.000000 0
M  V30 2 C -2.749007 7.810248 0.000000 0
M  V30 3 C -3.863724 8.813944 0.000000 0
M  V30 4 C -3.752703 6.695531 0.000000 0
M  V30 5 N -2.637986 5.691835 0.000000 0
M  V30 6 C -2.949853 4.224613 0.000000 0
M  V30 7 O -4.221883 3.429666 0.000000 0
M  V30 8 C -1.835136 3.220917 0.000000 0
M  V30 9 C -0.408551 3.684443 0.000000 0
M  V30 10 C 0.706166 2.680747 0.000000 0
M  V30 11 C 0.394298 1.213525 0.000000 0
M  V30 12 N 1.275976 0.000000 0.000000 0
M  V30 13 N 0.394298 -1.213525 0.000000 0
M  V30 14 C -1.032286 -0.750000 0.000000 0
M  V30 15 C -2.245812 -1.631678 0.000000 0
M  V30 16 C -3.616130 -1.021573 0.000000 0
M  V30 17 C -4.829656 -1.903251 0.000000 0
M  V30 18 C -4.672863 -3.395034 0.000000 0
M  V30 19 N -5.886388 -4.276712 0.000000 0
M  V30 20 C -7.312973 -3.813186 0.000000 0
M  V30 21 C -8.194651 -5.026712 0.000000 0
M  V30 22 C -7.312973 -6.240237 0.000000 0
M  V30 23 C -5.886388 -5.776712 0.000000 0
M  V30 24 C -4.572337 -5.033396 0.000000 0
M  V30 25 C -4.729130 -3.541613 0.000000 0
M  V30 26 O -4.366247 -2.086170 0.000000 0
M  V30 27 C -6.099448 -2.931508 0.000000 0
M  V30 28 C -3.302545 -4.005139 0.000000 0
M  V30 29 C -2.089019 -3.123461 0.000000 0
M  V30 30 C -1.032286 0.750000 0.000000 0
M  V30 31 C -2.147004 1.753696 0.000000 0
M  V30 32 C -4.756399 5.580813 0.000000 0
M  V30 33 C -6.223620 5.892681 0.000000 0
M  V30 34 C -7.227316 4.777964 0.000000 0
M  V30 35 C -6.763791 3.351379 0.000000 0
M  V30 36 C -5.296569 3.039511 0.000000 0
M  V30 37 C -4.292874 4.154229 0.000000 0
M  V30 38 Cl -2.944718 3.496599 0.000000 0
M  V30 39 H -0.309831 6.102416 0.000000 0
M  V30 40 H -0.630594 7.921269 0.000000 0
M  V30 41 H -2.338426 5.482093 0.000000 0
M  V30 42 H -1.745311 8.924965 0.000000 0
M  V30 43 H -4.978442 9.817640 0.000000 0
M  V30 44 H -2.860029 9.928661 0.000000 0
M  V30 45 H -4.995815 7.829886 0.000000 0
M  V30 46 H -4.981454 7.555862 0.000000 0
M  V30 47 H -1.140048 5.613210 0.000000 0
M  V30 48 H 0.079839 5.102708 0.000000 0
M  V30 49 H 2.132751 3.144272 0.000000 0
M  V30 50 H 2.775976 0.000000 0.000000 0
M  V30 51 H -3.953596 0.439973 0.000000 0
M  V30 52 H -6.264125 -1.464732 0.000000 0
M  V30 53 H -7.946937 -2.453741 0.000000 0
M  V30 54 H -9.309368 -4.023016 0.000000 0
M  V30 55 H -9.309368 -6.030407 0.000000 0
M  V30 56 H -8.612011 -6.990237 0.000000 0
M  V30 57 H -6.702868 -7.610555 0.000000 0
M  V30 58 H -4.789385 -6.799739 0.000000 0
M  V30 59 H -3.078055 -5.164250 0.000000 0
M  V30 60 H -3.755344 -6.291380 0.000000 0
M  V30 61 H -3.302570 -4.005215 0.000000 0
M  V30 62 H -5.161057 -0.814055 0.000000 0
M  V30 63 H -7.043397 -1.765764 0.000000 0
M  V30 64 H -5.762139 -1.469926 0.000000 0
M  V30 65 H -2.965079 -5.466685 0.000000 0
M  V30 66 H -0.718701 -3.733566 0.000000 0
M  V30 67 H -3.619452 1.467522 0.000000 0
M  V30 68 H -6.687146 7.319266 0.000000 0
M  V30 69 H -8.694538 5.089831 0.000000 0
M  V30 70 H -7.767487 2.236662 0.000000 0
M  V30 71 H -4.833044 1.612927 0.000000 0
M  V30 END ATOM
M  V30 BEGIN BOND
M  V30 1 1 1 2
M  V30 2 1 2 3
M  V30 3 1 2 4
M  V30 4 1 4 5
M  V30 5 1 5 6
M  V30 6 2 6 7
M  V30 7 1 6 8
M  V30 8 2 8 9
M  V30 9 1 9 10
M  V30 10 2 10 11
M  V30 11 1 11 12
M  V30 12 1 12 13
M  V30 13 2 13 14
M  V30 14 1 14 15
M  V30 15 2 15 16
M  V30 16 1 16 17
M  V30 17 2 17 18
M  V30 18 1 18 19
M  V30 19 1 19 20
M  V30 20 1 20 21
M  V30 21 1 21 22
M  V30 22 1 22 23
M  V30 23 1 23 24
M  V30 24 1 24 25
M  V30 25 1 25 26
M  V30 26 1 25 27
M  V30 27 1 18 28
M  V30 28 2 28 29
M  V30 29 1 14 30
M  V30 30 2 30 31
M  V30 31 1 4 32
M  V30 32 2 32 33
M  V30 33 1 33 34
M  V30 34 2 34 35
M  V30 35 1 35 36
M  V30 36 2 36 37
M  V30 37 1 37 38
M  V30 38 1 31 8
M  V30 39 1 37 32
M  V30 40 1 30 11
M  V30 41 1 29 15
M  V30 42 1 23 19
M  V30 43 1 27 20
M  V30 44 1 1 39
M  V30 45 1 1 40
M  V30 46 1 1 41
M  V30 47 1 2 42
M  V30 48 1 3 43
M  V30 49 1 3 44
M  V30 50 1 3 45
M  V30 51 1 4 46 CFG=1
M  V30 52 1 5 47
M  V30 53 1 9 48
M  V30 54 1 10 49
M  V30 55 1 12 50
M  V30 56 1 16 51
M  V30 57 1 17 52
M  V30 58 1 20 53 CFG=3
M  V30 59 1 21 54
M  V30 60 1 21 55
M  V30 61 1 22 56
M  V30 62 1 22 57
M  V30 63 1 23 58 CFG=1
M  V30 64 1 24 59
M  V30 65 1 24 60
M  V30 66 1 25 61
M  V30 67 1 26 62
M  V30 68 1 27 63
M  V30 69 1 27 64
M  V30 70 1 28 65
M  V30 71 1 29 66
M  V30 72 1 31 67
M  V30 73 1 33 68
M  V30 74 1 34 69
M  V30 75 1 35 70
M  V30 76 1 36 71
M  V30 END BOND
M  V30 END CTAB
M  END
>  <Dataset>  (440) 
ChEMBL_Kinases

>  <Ligand_Instance>  (440) 
nan

>  <PDB_ID>  (440) 
nan

>  <Standardized_SMILES>  (440) 
CC(C)[C@H](NC(=O)c1ccc2[nH]nc(-c3ccc(N4[C@H]5CC[C@H]4CC(O)C5)cc3)c2c1)c1ccccc1Cl

>  <Name>  (440) 
nan

>  <Pocket>  (440) 
nan

>  <ATP_Site>  (440) 
nan

>  <Peripheral>  (440) 
nan

>  <Num_H_Atoms_ProtBoundConf>  (440) 
nan

>  <Num_Resolved_Atoms>  (440) 
nan

>  <Num_Not_Resolved_Atoms>  (440) 
nan

$$$$
CHEMBL3422088
     RDKit          3D

  0  0  0  0  0  0  0  0  0  0999 V3000
M  V30 BEGIN CTAB
M  V30 COUNTS 74 80 0 0 0
M  V30 BEGIN ATOM
M  V30 1 O 1.299323 0.501088 1.885256 0
M  V30 2 C 0.379019 0.896485 2.683600 0
M  V30 3 N 0.868811 1.249033 3.964356 0
M  V30 4 C 2.275731 1.195855 4.396663 0 CFG=2
M  V30 5 C 2.396036 -0.015833 5.255350 0
M  V30 6 C 2.844602 -0.284353 6.529130 0
M  V30 7 C 2.845978 -1.569691 7.017381 0
M  V30 8 C 2.405014 -2.628463 6.264403 0
M  V30 9 C 1.951549 -2.343631 4.975485 0
M  V30 10 N 1.956514 -1.081573 4.511066 0
M  V30 11 C 2.593953 2.488550 5.029494 0
M  V30 12 C 2.321297 3.564110 3.947026 0
M  V30 13 C 3.333229 4.638067 4.134942 0
M  V30 14 C 3.988264 4.282659 5.448935 0
M  V30 15 C 4.062269 2.754599 5.287005 0
M  V30 16 C -1.020790 0.966396 2.291721 0
M  V30 17 C -1.982408 1.584498 3.097091 0
M  V30 18 C -3.295498 1.610352 2.675142 0
M  V30 19 C -3.695976 1.045207 1.483880 0
M  V30 20 N -4.852885 0.896676 0.805428 0
M  V30 21 N -4.655890 0.245129 -0.328360 0
M  V30 22 C -3.361242 -0.073182 -0.458042 0
M  V30 23 C -2.795998 -0.805439 -1.581325 0
M  V30 24 C -3.540740 -1.926276 -1.968532 0
M  V30 25 C -3.112566 -2.734166 -3.034537 0
M  V30 26 C -1.972424 -2.486919 -3.742680 0
M  V30 27 N -1.542018 -3.311394 -4.812727 0
M  V30 28 C -2.190257 -4.558569 -5.161609 0
M  V30 29 C -2.851269 -4.337918 -6.522073 0
M  V30 30 C -1.858487 -3.881414 -7.559681 0
M  V30 31 C -0.988238 -2.752059 -7.065045 0
M  V30 32 C -0.420777 -3.007099 -5.683230 0
M  V30 33 C 0.536445 -4.200119 -5.720190 0
M  V30 34 O 0.103183 -5.179907 -4.828476 0
M  V30 35 C -1.130330 -5.638945 -5.252645 0
M  V30 36 C -1.263689 -1.377118 -3.335994 0
M  V30 37 C -1.647305 -0.559867 -2.298786 0
M  V30 38 C -2.739620 0.422042 0.670016 0
M  V30 39 C -1.430300 0.401789 1.100617 0
M  V30 40 H 0.166798 1.584654 4.686094 0
M  V30 41 H 2.880766 1.062982 3.476227 0
M  V30 42 H 3.147968 0.633126 7.002691 0
M  V30 43 H 3.228436 -1.636598 8.030666 0
M  V30 44 H 2.430924 -3.629006 6.705361 0
M  V30 45 H 1.619634 -3.222303 4.434491 0
M  V30 46 H 2.025050 2.756511 5.917660 0
M  V30 47 H 1.288553 3.947984 4.021759 0
M  V30 48 H 2.461660 3.124707 2.923414 0
M  V30 49 H 2.905724 5.659999 4.145483 0
M  V30 50 H 4.144519 4.536554 3.362033 0
M  V30 51 H 4.973173 4.740400 5.594544 0
M  V30 52 H 3.260112 4.542723 6.252368 0
M  V30 53 H 4.673782 2.603070 4.364231 0
M  V30 54 H 4.474411 2.362000 6.197741 0
M  V30 55 H -1.699779 2.034193 4.032991 0
M  V30 56 H -4.094723 2.067158 3.242645 0
M  V30 57 H -5.772292 1.262699 1.153651 0
M  V30 58 H -4.463198 -2.188319 -1.450273 0
M  V30 59 H -3.761452 -3.560363 -3.245852 0
M  V30 60 H -2.987888 -4.866405 -4.470348 0
M  V30 61 H -3.650145 -3.578208 -6.378750 0
M  V30 62 H -3.314207 -5.280555 -6.874397 0
M  V30 63 H -1.248795 -4.737717 -7.920781 0
M  V30 64 H -2.433316 -3.507748 -8.429897 0
M  V30 65 H -0.112139 -2.705068 -7.767662 0
M  V30 66 H -1.477429 -1.785068 -7.079084 0
M  V30 67 H 0.179591 -2.151507 -5.401308 0
M  V30 68 H 0.611781 -4.612851 -6.765988 0
M  V30 69 H 1.567912 -3.923198 -5.427486 0
M  V30 70 H -1.403047 -6.533461 -4.647566 0
M  V30 71 H -1.041272 -5.966966 -6.304454 0
M  V30 72 H -0.360143 -1.071655 -3.796004 0
M  V30 73 H -1.110236 0.317386 -1.957792 0
M  V30 74 H -0.687031 -0.082958 0.465005 0
M  V30 END ATOM
M  V30 BEGIN BOND
M  V30 1 2 1 2
M  V30 2 1 2 3
M  V30 3 1 3 4
M  V30 4 1 4 5
M  V30 5 2 5 6
M  V30 6 1 6 7
M  V30 7 2 7 8
M  V30 8 1 8 9
M  V30 9 2 9 10
M  V30 10 1 4 11
M  V30 11 1 11 12
M  V30 12 1 12 13
M  V30 13 1 13 14
M  V30 14 1 14 15
M  V30 15 1 2 16
M  V30 16 2 16 17
M  V30 17 1 17 18
M  V30 18 2 18 19
M  V30 19 1 19 20
M  V30 20 1 20 21
M  V30 21 2 21 22
M  V30 22 1 22 23
M  V30 23 2 23 24
M  V30 24 1 24 25
M  V30 25 2 25 26
M  V30 26 1 26 27
M  V30 27 1 27 28
M  V30 28 1 28 29
M  V30 29 1 29 30
M  V30 30 1 30 31
M  V30 31 1 31 32
M  V30 32 1 32 33
M  V30 33 1 33 34
M  V30 34 1 34 35
M  V30 35 1 26 36
M  V30 36 2 36 37
M  V30 37 1 22 38
M  V30 38 2 38 39
M  V30 39 1 10 5
M  V30 40 1 15 11
M  V30 41 1 39 16
M  V30 42 1 38 19
M  V30 43 1 37 23
M  V30 44 1 32 27
M  V30 45 1 35 28
M  V30 46 1 3 40
M  V30 47 1 4 41 CFG=3
M  V30 48 1 6 42
M  V30 49 1 7 43
M  V30 50 1 8 44
M  V30 51 1 9 45
M  V30 52 1 11 46
M  V30 53 1 12 47
M  V30 54 1 12 48
M  V30 55 1 13 49
M  V30 56 1 13 50
M  V30 57 1 14 51
M  V30 58 1 14 52
M  V30 59 1 15 53
M  V30 60 1 15 54
M  V30 61 1 17 55
M  V30 62 1 18 56
M  V30 63 1 20 57
M  V30 64 1 24 58
M  V30 65 1 25 59
M  V30 66 1 28 60
M  V30 67 1 29 61
M  V30 68 1 29 62
M  V30 69 1 30 63
M  V30 70 1 30 64
M  V30 71 1 31 65
M  V30 72 1 31 66
M  V30 73 1 32 67
M  V30 74 1 33 68
M  V30 75 1 33 69
M  V30 76 1 35 70
M  V30 77 1 35 71
M  V30 78 1 36 72
M  V30 79 1 37 73
M  V30 80 1 39 74
M  V30 END BOND
M  V30 END CTAB
M  END
>  <Dataset>  (441) 
ChEMBL_Kinases

>  <Ligand_Instance>  (441) 
nan

>  <PDB_ID>  (441) 
nan

>  <Standardized_SMILES>  (441) 
O=C(N[C@H](c1ccccn1)C1CCCC1)c1ccc2[nH]nc(-c3ccc(N4C5CCCC4COC5)cc3)c2c1

>  <Name>  (441) 
nan

>  <Pocket>  (441) 
nan

>  <ATP_Site>  (441) 
nan

>  <Peripheral>  (441) 
nan

>  <Num_H_Atoms_ProtBoundConf>  (441) 
nan

>  <Num_Resolved_Atoms>  (441) 
nan

>  <Num_Not_Resolved_Atoms>  (441) 
nan

$$$$
CHEMBL3422087
     RDKit          3D

  0  0  0  0  0  0  0  0  0  0999 V3000
M  V30 BEGIN CTAB
M  V30 COUNTS 71 77 0 0 0
M  V30 BEGIN ATOM
M  V30 1 O -3.006156 -1.874902 4.798756 0
M  V30 2 C -2.466391 -1.791317 3.666152 0
M  V30 3 N -1.742472 -0.643695 3.314579 0
M  V30 4 C -1.469313 0.570393 4.061807 0 CFG=1
M  V30 5 C -0.044937 0.844656 4.248643 0
M  V30 6 C 0.395541 1.241076 5.515905 0
M  V30 7 C 1.697544 1.523424 5.812758 0
M  V30 8 C 2.667040 1.430131 4.856559 0
M  V30 9 C 2.202613 1.032635 3.599719 0
M  V30 10 N 0.911928 0.760686 3.336362 0
M  V30 11 C -2.241119 1.682458 3.393757 0
M  V30 12 C -1.780197 1.807718 1.981380 0
M  V30 13 C -1.679772 3.283967 1.675271 0
M  V30 14 C -1.540158 3.984482 3.005518 0
M  V30 15 C -2.026371 3.017209 4.060911 0
M  V30 16 C -2.616212 -2.900953 2.755646 0
M  V30 17 C -3.359738 -3.989632 3.196451 0
M  V30 18 C -3.557269 -5.109161 2.380485 0
M  V30 19 C -3.028390 -5.187006 1.109358 0
M  V30 20 N -2.984807 -6.024502 0.069521 0
M  V30 21 N -2.284347 -5.525559 -0.938008 0
M  V30 22 C -1.829441 -4.295932 -0.573415 0
M  V30 23 C -1.020271 -3.508541 -1.500243 0
M  V30 24 C 0.121394 -2.896101 -0.989425 0
M  V30 25 C 0.978280 -2.114831 -1.775172 0
M  V30 26 C 0.625479 -1.982192 -3.102983 0
M  V30 27 N 1.464395 -1.199101 -3.944418 0
M  V30 28 C 2.691842 -0.499347 -3.606983 0
M  V30 29 C 2.617897 0.790316 -4.418617 0
M  V30 30 C 1.384592 0.639594 -5.291054 0
M  V30 31 C 1.317724 -0.892632 -5.356964 0
M  V30 32 C 2.532643 -1.356534 -6.114286 0
M  V30 33 O 3.452658 -2.010433 -5.308837 0
M  V30 34 C 3.854438 -1.284059 -4.200556 0
M  V30 35 C -0.495453 -2.570201 -3.652915 0
M  V30 36 C -1.334053 -3.344676 -2.848398 0
M  V30 37 C -2.289812 -4.072498 0.708771 0
M  V30 38 C -2.081728 -2.957974 1.495316 0
M  V30 39 H -1.273897 -0.517838 2.391617 0
M  V30 40 H -1.974591 0.415759 5.053664 0
M  V30 41 H -0.336682 1.335052 6.330920 0
M  V30 42 H 1.963948 1.823191 6.812070 0
M  V30 43 H 3.705035 1.637327 5.023559 0
M  V30 44 H 2.892902 0.923163 2.750335 0
M  V30 45 H -3.317679 1.417183 3.395846 0
M  V30 46 H -0.781544 1.367890 1.786716 0
M  V30 47 H -2.469164 1.286523 1.265932 0
M  V30 48 H -0.821395 3.535585 1.031776 0
M  V30 49 H -2.594837 3.586077 1.113170 0
M  V30 50 H -0.497623 4.309107 3.169909 0
M  V30 51 H -2.162712 4.901187 2.942637 0
M  V30 52 H -3.009275 3.407133 4.407632 0
M  V30 53 H -1.375214 2.992483 4.942054 0
M  V30 54 H -3.825058 -4.041810 4.179059 0
M  V30 55 H -4.131023 -5.957517 2.711699 0
M  V30 56 H -3.467287 -6.953651 0.104574 0
M  V30 57 H 0.435074 -2.976060 0.051858 0
M  V30 58 H 1.858497 -1.650859 -1.351929 0
M  V30 59 H 2.823104 -0.307010 -2.540284 0
M  V30 60 H 2.561438 1.648510 -3.740625 0
M  V30 61 H 3.460669 0.924859 -5.105473 0
M  V30 62 H 1.485248 1.106146 -6.270379 0
M  V30 63 H 0.539753 1.027518 -4.669760 0
M  V30 64 H 0.373958 -1.231585 -5.796904 0
M  V30 65 H 2.189843 -2.134314 -6.854678 0
M  V30 66 H 2.978767 -0.535726 -6.712640 0
M  V30 67 H 4.702099 -0.607436 -4.430119 0
M  V30 68 H 4.197634 -1.998893 -3.409566 0
M  V30 69 H -0.794557 -2.482491 -4.687949 0
M  V30 70 H -2.224230 -3.833787 -3.203665 0
M  V30 71 H -1.511531 -2.122112 1.157193 0
M  V30 END ATOM
M  V30 BEGIN BOND
M  V30 1 2 1 2
M  V30 2 1 2 3
M  V30 3 1 3 4
M  V30 4 1 4 5
M  V30 5 2 5 6
M  V30 6 1 6 7
M  V30 7 2 7 8
M  V30 8 1 8 9
M  V30 9 2 9 10
M  V30 10 1 4 11
M  V30 11 1 11 12
M  V30 12 1 12 13
M  V30 13 1 13 14
M  V30 14 1 14 15
M  V30 15 1 2 16
M  V30 16 2 16 17
M  V30 17 1 17 18
M  V30 18 2 18 19
M  V30 19 1 19 20
M  V30 20 1 20 21
M  V30 21 2 21 22
M  V30 22 1 22 23
M  V30 23 2 23 24
M  V30 24 1 24 25
M  V30 25 2 25 26
M  V30 26 1 26 27
M  V30 27 1 27 28
M  V30 28 1 28 29
M  V30 29 1 29 30
M  V30 30 1 30 31
M  V30 31 1 31 32
M  V30 32 1 32 33
M  V30 33 1 33 34
M  V30 34 1 26 35
M  V30 35 2 35 36
M  V30 36 1 22 37
M  V30 37 2 37 38
M  V30 38 1 10 5
M  V30 39 1 15 11
M  V30 40 1 38 16
M  V30 41 1 37 19
M  V30 42 1 36 23
M  V30 43 1 31 27
M  V30 44 1 34 28
M  V30 45 1 3 39
M  V30 46 1 4 40 CFG=1
M  V30 47 1 6 41
M  V30 48 1 7 42
M  V30 49 1 8 43
M  V30 50 1 9 44
M  V30 51 1 11 45
M  V30 52 1 12 46
M  V30 53 1 12 47
M  V30 54 1 13 48
M  V30 55 1 13 49
M  V30 56 1 14 50
M  V30 57 1 14 51
M  V30 58 1 15 52
M  V30 59 1 15 53
M  V30 60 1 17 54
M  V30 61 1 18 55
M  V30 62 1 20 56
M  V30 63 1 24 57
M  V30 64 1 25 58
M  V30 65 1 28 59
M  V30 66 1 29 60
M  V30 67 1 29 61
M  V30 68 1 30 62
M  V30 69 1 30 63
M  V30 70 1 31 64
M  V30 71 1 32 65
M  V30 72 1 32 66
M  V30 73 1 34 67
M  V30 74 1 34 68
M  V30 75 1 35 69
M  V30 76 1 36 70
M  V30 77 1 38 71
M  V30 END BOND
M  V30 END CTAB
M  END
>  <Dataset>  (442) 
ChEMBL_Kinases

>  <Ligand_Instance>  (442) 
nan

>  <PDB_ID>  (442) 
nan

>  <Standardized_SMILES>  (442) 
O=C(N[C@@H](c1ccccn1)C1CCCC1)c1ccc2[nH]nc(-c3ccc(N4C5CCC4COC5)cc3)c2c1

>  <Name>  (442) 
nan

>  <Pocket>  (442) 
nan

>  <ATP_Site>  (442) 
nan

>  <Peripheral>  (442) 
nan

>  <Num_H_Atoms_ProtBoundConf>  (442) 
nan

>  <Num_Resolved_Atoms>  (442) 
nan

>  <Num_Not_Resolved_Atoms>  (442) 
nan

$$$$
CHEMBL3422086
     RDKit          3D

  0  0  0  0  0  0  0  0  0  0999 V3000
M  V30 BEGIN CTAB
M  V30 COUNTS 71 77 0 0 0
M  V30 BEGIN ATOM
M  V30 1 O -0.555894 0.692789 1.431100 0
M  V30 2 C -0.964595 -0.133265 2.305806 0
M  V30 3 N -1.340523 0.443850 3.537680 0
M  V30 4 C -1.302810 1.861925 3.887344 0 CFG=2
M  V30 5 C -0.387483 2.132324 4.996997 0
M  V30 6 C -0.244811 1.297490 6.092812 0
M  V30 7 C 0.606471 1.534728 7.161278 0
M  V30 8 C 1.377495 2.679744 7.153135 0
M  V30 9 C 1.220164 3.496411 6.052929 0
M  V30 10 N 0.381317 3.227490 5.037305 0
M  V30 11 C -2.684975 2.325455 4.141390 0
M  V30 12 C -3.350370 1.595303 5.259321 0
M  V30 13 C -4.604272 2.439876 5.439321 0
M  V30 14 C -4.043467 3.856794 5.344425 0
M  V30 15 C -2.842094 3.796705 4.425478 0
M  V30 16 C -1.050527 -1.572564 2.085596 0
M  V30 17 C -1.491310 -2.490056 3.011632 0
M  V30 18 C -1.528804 -3.831168 2.690928 0
M  V30 19 C -1.142863 -4.334645 1.466957 0
M  V30 20 N -1.063733 -5.535609 0.868960 0
M  V30 21 N -0.594103 -5.365960 -0.372860 0
M  V30 22 C -0.368785 -4.040770 -0.575454 0
M  V30 23 C 0.150185 -3.603725 -1.869450 0
M  V30 24 C 1.179063 -2.687227 -1.965414 0
M  V30 25 C 1.733285 -2.216553 -3.140743 0
M  V30 26 C 1.186716 -2.728097 -4.298563 0
M  V30 27 N 1.693572 -2.300997 -5.556865 0
M  V30 28 C 2.756972 -1.354611 -5.838814 0
M  V30 29 C 2.113489 -0.496192 -6.927426 0
M  V30 30 C 1.093977 -1.394477 -7.595913 0
M  V30 31 C 1.264345 -2.713772 -6.879551 0
M  V30 32 C 2.432283 -3.441470 -7.523096 0
M  V30 33 O 3.519272 -2.587609 -7.668764 0
M  V30 34 C 3.944074 -2.067522 -6.447546 0
M  V30 35 C 0.158090 -3.645747 -4.268669 0
M  V30 36 C -0.372191 -4.094709 -3.073818 0
M  V30 37 C -0.711594 -3.367447 0.582969 0
M  V30 38 C -0.644157 -2.016449 0.824050 0
M  V30 39 H -1.694147 -0.120358 4.341453 0
M  V30 40 H -0.920194 2.460437 3.016995 0
M  V30 41 H -0.796031 0.389548 6.174447 0
M  V30 42 H 0.694238 0.869746 7.995461 0
M  V30 43 H 2.069498 2.963044 7.926963 0
M  V30 44 H 1.818252 4.405598 6.024530 0
M  V30 45 H -3.319144 2.120404 3.225591 0
M  V30 46 H -3.563447 0.541003 5.011638 0
M  V30 47 H -2.753752 1.700237 6.194883 0
M  V30 48 H -5.370075 2.231769 4.685149 0
M  V30 49 H -4.992723 2.217327 6.462271 0
M  V30 50 H -3.750883 4.148867 6.381045 0
M  V30 51 H -4.819201 4.579848 5.002397 0
M  V30 52 H -3.080455 4.362203 3.489624 0
M  V30 53 H -1.966602 4.260101 4.890929 0
M  V30 54 H -1.800423 -2.122868 3.980552 0
M  V30 55 H -1.883914 -4.544490 3.444994 0
M  V30 56 H -1.339798 -6.414837 1.351974 0
M  V30 57 H 1.599458 -2.293099 -1.045464 0
M  V30 58 H 2.538949 -1.496920 -3.108953 0
M  V30 59 H 3.012488 -0.776236 -4.954042 0
M  V30 60 H 1.616930 0.339421 -6.370983 0
M  V30 61 H 2.867732 -0.101175 -7.613202 0
M  V30 62 H 1.271116 -1.486813 -8.692142 0
M  V30 63 H 0.100359 -0.939356 -7.461705 0
M  V30 64 H 0.377820 -3.340707 -6.903012 0
M  V30 65 H 2.782701 -4.308620 -6.944163 0
M  V30 66 H 2.130518 -3.758985 -8.539832 0
M  V30 67 H 4.732264 -1.336669 -6.661025 0
M  V30 68 H 4.331026 -2.816405 -5.755087 0
M  V30 69 H -0.308346 -4.079820 -5.133483 0
M  V30 70 H -1.175315 -4.810299 -3.014660 0
M  V30 71 H -0.293033 -1.331566 0.071990 0
M  V30 END ATOM
M  V30 BEGIN BOND
M  V30 1 2 1 2
M  V30 2 1 2 3
M  V30 3 1 3 4
M  V30 4 1 4 5
M  V30 5 2 5 6
M  V30 6 1 6 7
M  V30 7 2 7 8
M  V30 8 1 8 9
M  V30 9 2 9 10
M  V30 10 1 4 11
M  V30 11 1 11 12
M  V30 12 1 12 13
M  V30 13 1 13 14
M  V30 14 1 14 15
M  V30 15 1 2 16
M  V30 16 2 16 17
M  V30 17 1 17 18
M  V30 18 2 18 19
M  V30 19 1 19 20
M  V30 20 1 20 21
M  V30 21 2 21 22
M  V30 22 1 22 23
M  V30 23 2 23 24
M  V30 24 1 24 25
M  V30 25 2 25 26
M  V30 26 1 26 27
M  V30 27 1 27 28
M  V30 28 1 28 29
M  V30 29 1 29 30
M  V30 30 1 30 31
M  V30 31 1 31 32
M  V30 32 1 32 33
M  V30 33 1 33 34
M  V30 34 1 26 35
M  V30 35 2 35 36
M  V30 36 1 22 37
M  V30 37 2 37 38
M  V30 38 1 10 5
M  V30 39 1 15 11
M  V30 40 1 38 16
M  V30 41 1 37 19
M  V30 42 1 36 23
M  V30 43 1 31 27
M  V30 44 1 34 28
M  V30 45 1 3 39
M  V30 46 1 4 40 CFG=3
M  V30 47 1 6 41
M  V30 48 1 7 42
M  V30 49 1 8 43
M  V30 50 1 9 44
M  V30 51 1 11 45
M  V30 52 1 12 46
M  V30 53 1 12 47
M  V30 54 1 13 48
M  V30 55 1 13 49
M  V30 56 1 14 50
M  V30 57 1 14 51
M  V30 58 1 15 52
M  V30 59 1 15 53
M  V30 60 1 17 54
M  V30 61 1 18 55
M  V30 62 1 20 56
M  V30 63 1 24 57
M  V30 64 1 25 58
M  V30 65 1 28 59
M  V30 66 1 29 60
M  V30 67 1 29 61
M  V30 68 1 30 62
M  V30 69 1 30 63
M  V30 70 1 31 64
M  V30 71 1 32 65
M  V30 72 1 32 66
M  V30 73 1 34 67
M  V30 74 1 34 68
M  V30 75 1 35 69
M  V30 76 1 36 70
M  V30 77 1 38 71
M  V30 END BOND
M  V30 END CTAB
M  END
>  <Dataset>  (443) 
ChEMBL_Kinases

>  <Ligand_Instance>  (443) 
nan

>  <PDB_ID>  (443) 
nan

>  <Standardized_SMILES>  (443) 
O=C(N[C@H](c1ccccn1)C1CCCC1)c1ccc2[nH]nc(-c3ccc(N4C5CCC4COC5)cc3)c2c1

>  <Name>  (443) 
nan

>  <Pocket>  (443) 
nan

>  <ATP_Site>  (443) 
nan

>  <Peripheral>  (443) 
nan

>  <Num_H_Atoms_ProtBoundConf>  (443) 
nan

>  <Num_Resolved_Atoms>  (443) 
nan

>  <Num_Not_Resolved_Atoms>  (443) 
nan

$$$$
CHEMBL3422085
     RDKit          3D

  0  0  0  0  0  0  0  0  0  0999 V3000
M  V30 BEGIN CTAB
M  V30 COUNTS 65 71 0 0 0
M  V30 BEGIN ATOM
M  V30 1 O 0.776924 0.353206 2.503333 0
M  V30 2 C 1.336003 1.356491 1.988589 0
M  V30 3 N 2.148191 2.058547 2.911267 0
M  V30 4 C 2.380885 1.750032 4.302667 0 CFG=1
M  V30 5 C 3.822191 1.410205 4.405487 0
M  V30 6 C 4.281663 0.337478 5.120156 0
M  V30 7 C 5.612198 -0.032338 5.252528 0
M  V30 8 C 6.542956 0.752162 4.606659 0
M  V30 9 C 6.094858 1.845396 3.876356 0
M  V30 10 N 4.793924 2.145717 3.790316 0
M  V30 11 C 2.066197 2.832174 5.265378 0
M  V30 12 C 2.233355 2.719380 6.732472 0
M  V30 13 C 3.267925 3.475387 5.943092 0
M  V30 14 C 1.200094 1.796070 0.602350 0
M  V30 15 C 1.816014 2.889481 0.059419 0
M  V30 16 C 1.636570 3.240178 -1.262830 0
M  V30 17 C 0.816860 2.491193 -2.102493 0
M  V30 18 N 0.429369 2.537139 -3.384345 0
M  V30 19 N -0.379188 1.531870 -3.623098 0
M  V30 20 C -0.550624 0.786742 -2.496798 0
M  V30 21 C -1.405505 -0.402895 -2.468935 0
M  V30 22 C -2.300499 -0.639720 -1.441663 0
M  V30 23 C -3.111838 -1.766702 -1.412927 0
M  V30 24 C -3.025963 -2.689559 -2.446926 0
M  V30 25 N -3.821059 -3.871706 -2.495744 0
M  V30 26 C -3.864771 -4.951854 -3.497092 0
M  V30 27 C -3.957495 -6.200735 -2.643216 0
M  V30 28 C -4.189744 -5.689397 -1.215681 0
M  V30 29 C -4.822050 -4.329493 -1.543811 0
M  V30 30 C -6.177776 -4.524825 -2.137173 0
M  V30 31 O -6.172061 -5.225468 -3.317299 0
M  V30 32 C -5.187235 -4.799944 -4.209535 0
M  V30 33 C -2.143452 -2.487760 -3.491250 0
M  V30 34 C -1.363005 -1.354399 -3.470137 0
M  V30 35 C 0.218095 1.395534 -1.502319 0
M  V30 36 C 0.370964 1.012423 -0.189269 0
M  V30 37 H 2.680799 2.914912 2.640854 0
M  V30 38 H 1.831172 0.842196 4.629516 0
M  V30 39 H 3.584516 -0.311646 5.647471 0
M  V30 40 H 5.906091 -0.894526 5.834347 0
M  V30 41 H 7.594491 0.496079 4.685719 0
M  V30 42 H 6.867697 2.427317 3.389253 0
M  V30 43 H 1.354806 3.611493 4.862212 0
M  V30 44 H 2.482877 1.750333 7.162739 0
M  V30 45 H 1.563868 3.368395 7.332986 0
M  V30 46 H 3.322612 4.579298 6.032725 0
M  V30 47 H 4.246892 2.999880 5.936110 0
M  V30 48 H 2.455531 3.482744 0.694651 0
M  V30 49 H 2.128101 4.100042 -1.667891 0
M  V30 50 H 0.774052 3.301420 -4.025354 0
M  V30 51 H -2.391473 0.060076 -0.621198 0
M  V30 52 H -3.811333 -1.952586 -0.610810 0
M  V30 53 H -3.002942 -4.931805 -4.168275 0
M  V30 54 H -4.847258 -6.815385 -2.868214 0
M  V30 55 H -3.073031 -6.850832 -2.715549 0
M  V30 56 H -4.856272 -6.333906 -0.647856 0
M  V30 57 H -3.220718 -5.451458 -0.729886 0
M  V30 58 H -4.891970 -3.699130 -0.649780 0
M  V30 59 H -6.746811 -5.154763 -1.400645 0
M  V30 60 H -6.708029 -3.556284 -2.168638 0
M  V30 61 H -5.310662 -3.731848 -4.490640 0
M  V30 62 H -5.223678 -5.491546 -5.073182 0
M  V30 63 H -1.990675 -3.134445 -4.346455 0
M  V30 64 H -0.643957 -1.131842 -4.263585 0
M  V30 65 H -0.128728 0.150003 0.196640 0
M  V30 END ATOM
M  V30 BEGIN BOND
M  V30 1 2 1 2
M  V30 2 1 2 3
M  V30 3 1 3 4
M  V30 4 1 4 5
M  V30 5 2 5 6
M  V30 6 1 6 7
M  V30 7 2 7 8
M  V30 8 1 8 9
M  V30 9 2 9 10
M  V30 10 1 4 11
M  V30 11 1 11 12
M  V30 12 1 12 13
M  V30 13 1 2 14
M  V30 14 2 14 15
M  V30 15 1 15 16
M  V30 16 2 16 17
M  V30 17 1 17 18
M  V30 18 1 18 19
M  V30 19 2 19 20
M  V30 20 1 20 21
M  V30 21 2 21 22
M  V30 22 1 22 23
M  V30 23 2 23 24
M  V30 24 1 24 25
M  V30 25 1 25 26
M  V30 26 1 26 27
M  V30 27 1 27 28
M  V30 28 1 28 29
M  V30 29 1 29 30
M  V30 30 1 30 31
M  V30 31 1 31 32
M  V30 32 1 24 33
M  V30 33 2 33 34
M  V30 34 1 20 35
M  V30 35 2 35 36
M  V30 36 1 10 5
M  V30 37 1 13 11
M  V30 38 1 36 14
M  V30 39 1 35 17
M  V30 40 1 34 21
M  V30 41 1 29 25
M  V30 42 1 32 26
M  V30 43 1 3 37
M  V30 44 1 4 38 CFG=1
M  V30 45 1 6 39
M  V30 46 1 7 40
M  V30 47 1 8 41
M  V30 48 1 9 42
M  V30 49 1 11 43
M  V30 50 1 12 44
M  V30 51 1 12 45
M  V30 52 1 13 46
M  V30 53 1 13 47
M  V30 54 1 15 48
M  V30 55 1 16 49
M  V30 56 1 18 50
M  V30 57 1 22 51
M  V30 58 1 23 52
M  V30 59 1 26 53
M  V30 60 1 27 54
M  V30 61 1 27 55
M  V30 62 1 28 56
M  V30 63 1 28 57
M  V30 64 1 29 58
M  V30 65 1 30 59
M  V30 66 1 30 60
M  V30 67 1 32 61
M  V30 68 1 32 62
M  V30 69 1 33 63
M  V30 70 1 34 64
M  V30 71 1 36 65
M  V30 END BOND
M  V30 END CTAB
M  END
>  <Dataset>  (444) 
ChEMBL_Kinases

>  <Ligand_Instance>  (444) 
nan

>  <PDB_ID>  (444) 
nan

>  <Standardized_SMILES>  (444) 
O=C(N[C@@H](c1ccccn1)C1CC1)c1ccc2[nH]nc(-c3ccc(N4C5CCC4COC5)cc3)c2c1

>  <Name>  (444) 
nan

>  <Pocket>  (444) 
nan

>  <ATP_Site>  (444) 
nan

>  <Peripheral>  (444) 
nan

>  <Num_H_Atoms_ProtBoundConf>  (444) 
nan

>  <Num_Resolved_Atoms>  (444) 
nan

>  <Num_Not_Resolved_Atoms>  (444) 
nan

$$$$
CHEMBL3422084
     RDKit          3D

  0  0  0  0  0  0  0  0  0  0999 V3000
M  V30 BEGIN CTAB
M  V30 COUNTS 65 71 0 0 0
M  V30 BEGIN ATOM
M  V30 1 O 2.737128 3.976080 1.779772 0
M  V30 2 C 2.137102 2.977247 1.304895 0
M  V30 3 N 1.000122 2.408552 1.940530 0
M  V30 4 C 0.406318 2.891720 3.181591 0 CFG=2
M  V30 5 C 0.417538 1.803315 4.200177 0
M  V30 6 C 0.016518 0.530131 3.853014 0
M  V30 7 C -0.010291 -0.554370 4.719861 0
M  V30 8 C 0.402621 -0.317242 6.033872 0
M  V30 9 C 0.807652 0.971114 6.382792 0
M  V30 10 N 0.801511 1.957223 5.481850 0
M  V30 11 C -0.988595 3.440333 2.980714 0
M  V30 12 C -1.641386 3.962287 4.284437 0
M  V30 13 C -2.183335 2.804261 3.567597 0
M  V30 14 C 2.666138 2.425542 0.062162 0
M  V30 15 C 3.756172 3.016739 -0.542409 0
M  V30 16 C 4.359918 2.599917 -1.712696 0
M  V30 17 C 3.811659 1.482737 -2.328217 0
M  V30 18 N 4.158122 0.830601 -3.455329 0
M  V30 19 N 3.328206 -0.184750 -3.624964 0
M  V30 20 C 2.421229 -0.213305 -2.607510 0
M  V30 21 C 1.320348 -1.177928 -2.392711 0
M  V30 22 C 0.074928 -0.622354 -2.071310 0
M  V30 23 C -1.003421 -1.488643 -1.846189 0
M  V30 24 C -0.818870 -2.851487 -1.944109 0
M  V30 25 N -1.912257 -3.731865 -1.715233 0
M  V30 26 C -3.293746 -3.395022 -1.409809 0
M  V30 27 C -4.013452 -4.276830 -2.418575 0
M  V30 28 C -3.102800 -5.475440 -2.624145 0
M  V30 29 C -1.919238 -5.180905 -1.724793 0
M  V30 30 C -2.146713 -5.708473 -0.326370 0
M  V30 31 O -2.510539 -4.634689 0.497576 0
M  V30 32 C -3.607473 -3.938624 -0.052699 0
M  V30 33 C 0.412633 -3.384808 -2.261443 0
M  V30 34 C 1.494282 -2.543792 -2.488617 0
M  V30 35 C 2.720306 0.860244 -1.757747 0
M  V30 36 C 2.158209 1.322849 -0.585290 0
M  V30 37 H 0.495515 1.588389 1.558633 0
M  V30 38 H 1.037392 3.748367 3.498366 0
M  V30 39 H -0.320305 0.252605 2.855097 0
M  V30 40 H -0.321182 -1.539238 4.447068 0
M  V30 41 H 0.389458 -1.161689 6.737163 0
M  V30 42 H 1.121734 1.124282 7.405609 0
M  V30 43 H -1.153756 4.074671 2.087576 0
M  V30 44 H -2.133758 4.952989 4.218584 0
M  V30 45 H -1.048935 3.865044 5.216084 0
M  V30 46 H -2.124270 1.770182 4.018573 0
M  V30 47 H -3.152523 2.952302 3.048666 0
M  V30 48 H 4.214910 3.889528 -0.096793 0
M  V30 49 H 5.213102 3.109913 -2.134339 0
M  V30 50 H 4.955894 1.084339 -4.096565 0
M  V30 51 H -0.130430 0.432262 -1.984083 0
M  V30 52 H -1.967657 -1.043663 -1.597107 0
M  V30 53 H -3.536108 -2.331237 -1.547366 0
M  V30 54 H -4.938304 -4.684955 -1.951900 0
M  V30 55 H -4.285980 -3.754790 -3.334428 0
M  V30 56 H -3.580300 -6.438260 -2.402474 0
M  V30 57 H -2.680732 -5.478678 -3.671169 0
M  V30 58 H -1.006697 -5.624546 -2.179055 0
M  V30 59 H -1.199183 -6.105562 0.077377 0
M  V30 60 H -2.863975 -6.535002 -0.320583 0
M  V30 61 H -3.919271 -3.190167 0.684324 0
M  V30 62 H -4.432624 -4.703578 -0.077425 0
M  V30 63 H 0.631206 -4.438096 -2.355515 0
M  V30 64 H 2.489270 -2.839755 -2.740739 0
M  V30 65 H 1.309898 0.836165 -0.139463 0
M  V30 END ATOM
M  V30 BEGIN BOND
M  V30 1 2 1 2
M  V30 2 1 2 3
M  V30 3 1 3 4
M  V30 4 1 4 5
M  V30 5 2 5 6
M  V30 6 1 6 7
M  V30 7 2 7 8
M  V30 8 1 8 9
M  V30 9 2 9 10
M  V30 10 1 4 11
M  V30 11 1 11 12
M  V30 12 1 12 13
M  V30 13 1 2 14
M  V30 14 2 14 15
M  V30 15 1 15 16
M  V30 16 2 16 17
M  V30 17 1 17 18
M  V30 18 1 18 19
M  V30 19 2 19 20
M  V30 20 1 20 21
M  V30 21 2 21 22
M  V30 22 1 22 23
M  V30 23 2 23 24
M  V30 24 1 24 25
M  V30 25 1 25 26
M  V30 26 1 26 27
M  V30 27 1 27 28
M  V30 28 1 28 29
M  V30 29 1 29 30
M  V30 30 1 30 31
M  V30 31 1 31 32
M  V30 32 1 24 33
M  V30 33 2 33 34
M  V30 34 1 20 35
M  V30 35 2 35 36
M  V30 36 1 10 5
M  V30 37 1 13 11
M  V30 38 1 36 14
M  V30 39 1 35 17
M  V30 40 1 34 21
M  V30 41 1 29 25
M  V30 42 1 32 26
M  V30 43 1 3 37
M  V30 44 1 4 38 CFG=1
M  V30 45 1 6 39
M  V30 46 1 7 40
M  V30 47 1 8 41
M  V30 48 1 9 42
M  V30 49 1 11 43
M  V30 50 1 12 44
M  V30 51 1 12 45
M  V30 52 1 13 46
M  V30 53 1 13 47
M  V30 54 1 15 48
M  V30 55 1 16 49
M  V30 56 1 18 50
M  V30 57 1 22 51
M  V30 58 1 23 52
M  V30 59 1 26 53
M  V30 60 1 27 54
M  V30 61 1 27 55
M  V30 62 1 28 56
M  V30 63 1 28 57
M  V30 64 1 29 58
M  V30 65 1 30 59
M  V30 66 1 30 60
M  V30 67 1 32 61
M  V30 68 1 32 62
M  V30 69 1 33 63
M  V30 70 1 34 64
M  V30 71 1 36 65
M  V30 END BOND
M  V30 END CTAB
M  END
>  <Dataset>  (445) 
ChEMBL_Kinases

>  <Ligand_Instance>  (445) 
nan

>  <PDB_ID>  (445) 
nan

>  <Standardized_SMILES>  (445) 
O=C(N[C@H](c1ccccn1)C1CC1)c1ccc2[nH]nc(-c3ccc(N4C5CCC4COC5)cc3)c2c1

>  <Name>  (445) 
nan

>  <Pocket>  (445) 
nan

>  <ATP_Site>  (445) 
nan

>  <Peripheral>  (445) 
nan

>  <Num_H_Atoms_ProtBoundConf>  (445) 
nan

>  <Num_Resolved_Atoms>  (445) 
nan

>  <Num_Not_Resolved_Atoms>  (445) 
nan

$$$$
CHEMBL3426622
     RDKit          3D

  0  0  0  0  0  0  0  0  0  0999 V3000
M  V30 BEGIN CTAB
M  V30 COUNTS 60 63 0 0 0
M  V30 BEGIN ATOM
M  V30 1 C 1.352049 -1.067987 5.313337 0
M  V30 2 O 2.224681 -0.549420 4.434712 0
M  V30 3 C 3.517700 -0.735864 4.166982 0
M  V30 4 O 3.812189 -1.559434 5.008203 0
M  V30 5 C 4.015139 0.098198 3.018887 0
M  V30 6 C 5.462621 -0.048236 2.548855 0
M  V30 7 C 5.392315 0.717357 1.436613 0
M  V30 8 C 4.714174 1.490516 0.633564 0
M  V30 9 C 3.603039 1.572091 1.091947 0
M  V30 10 N 2.239502 2.146063 0.973052 0
M  V30 11 C 1.227730 3.161282 1.265125 0
M  V30 12 O 1.712753 4.107726 1.871275 0
M  V30 13 C -0.128632 2.733602 0.772298 0
M  V30 14 C -0.886401 3.005827 1.857967 0
M  V30 15 C -2.129872 2.286444 1.782824 0
M  V30 16 C -2.392485 1.431935 0.700027 0
M  V30 17 C -1.461461 1.234199 -0.378468 0
M  V30 18 C -1.847010 0.231519 -1.274835 0
M  V30 19 C -3.158759 -0.233679 -1.414961 0
M  V30 20 C -3.273944 -1.283792 -2.293975 0
M  V30 21 C -4.507874 -2.170194 -1.737418 0
M  V30 22 O -5.700944 -2.598480 -1.441020 0
M  V30 23 N -3.947452 -3.342911 -1.107376 0
M  V30 24 C -3.391783 -4.548587 -0.460120 0
M  V30 25 C -2.996416 -5.361674 -1.638264 0
M  V30 26 C -2.293614 -6.603036 -1.427587 0
M  V30 27 N -2.047724 -6.948363 -0.122065 0
M  V30 28 C -2.440711 -6.135801 0.829506 0
M  V30 29 C -3.079723 -4.992797 0.691999 0
M  V30 30 F -3.454367 -4.054074 1.647849 0
M  V30 31 C -2.472426 -1.968342 -3.087178 0
M  V30 32 C -1.183976 -1.388617 -2.856166 0
M  V30 33 C -0.818749 -0.426526 -2.052276 0
M  V30 34 C 0.633107 -0.318077 -2.024160 0
M  V30 35 N 1.143570 0.603283 -2.964382 0
M  V30 36 C -0.430773 1.949878 -0.193216 0
M  V30 37 C 3.120407 0.918959 2.264046 0
M  V30 38 H 1.028771 -2.089916 4.953582 0
M  V30 39 H 1.839628 -1.130065 6.330783 0
M  V30 40 H 0.397279 -0.447487 5.419315 0
M  V30 41 H 5.841395 -0.687072 3.304588 0
M  V30 42 H 6.514946 0.543835 1.130160 0
M  V30 43 H 4.931624 2.008510 -0.227277 0
M  V30 44 H 1.934270 1.454346 0.164554 0
M  V30 45 H -0.887602 3.604677 2.742717 0
M  V30 46 H -2.954834 2.436216 2.519628 0
M  V30 47 H -3.340978 0.857729 0.845723 0
M  V30 48 H -3.979319 0.226437 -0.872339 0
M  V30 49 H -2.899826 -2.991969 -0.901187 0
M  V30 50 H -3.190107 -5.140948 -2.678706 0
M  V30 51 H -1.951166 -7.199193 -2.237632 0
M  V30 52 H -2.236534 -6.339206 1.852063 0
M  V30 53 H -2.779841 -2.766466 -3.730492 0
M  V30 54 H -0.486765 -1.891747 -3.570902 0
M  V30 55 H 1.031401 -0.158001 -0.955472 0
M  V30 56 H 1.133575 -1.344020 -2.203136 0
M  V30 57 H 1.725791 1.370077 -2.608210 0
M  V30 58 H 1.755997 0.090748 -3.725352 0
M  V30 59 H 0.322135 1.981902 -0.932685 0
M  V30 60 H 2.080954 0.913663 2.809547 0
M  V30 END ATOM
M  V30 BEGIN BOND
M  V30 1 1 1 2
M  V30 2 1 2 3
M  V30 3 2 3 4
M  V30 4 1 3 5
M  V30 5 2 5 6
M  V30 6 1 6 7
M  V30 7 2 7 8
M  V30 8 1 8 9
M  V30 9 1 9 10
M  V30 10 1 10 11
M  V30 11 2 11 12
M  V30 12 1 11 13
M  V30 13 2 13 14
M  V30 14 1 14 15
M  V30 15 2 15 16
M  V30 16 1 16 17
M  V30 17 1 17 18
M  V30 18 2 18 19
M  V30 19 1 19 20
M  V30 20 1 20 21
M  V30 21 2 21 22
M  V30 22 1 21 23
M  V30 23 1 23 24
M  V30 24 2 24 25
M  V30 25 1 25 26
M  V30 26 2 26 27
M  V30 27 1 27 28
M  V30 28 2 28 29
M  V30 29 1 29 30
M  V30 30 2 20 31
M  V30 31 1 31 32
M  V30 32 2 32 33
M  V30 33 1 33 34
M  V30 34 1 34 35
M  V30 35 2 17 36
M  V30 36 2 9 37
M  V30 37 1 37 5
M  V30 38 1 36 13
M  V30 39 1 33 18
M  V30 40 1 29 24
M  V30 41 1 1 38
M  V30 42 1 1 39
M  V30 43 1 1 40
M  V30 44 1 6 41
M  V30 45 1 7 42
M  V30 46 1 8 43
M  V30 47 1 10 44
M  V30 48 1 14 45
M  V30 49 1 15 46
M  V30 50 1 16 47
M  V30 51 1 19 48
M  V30 52 1 23 49
M  V30 53 1 25 50
M  V30 54 1 26 51
M  V30 55 1 28 52
M  V30 56 1 31 53
M  V30 57 1 32 54
M  V30 58 1 34 55
M  V30 59 1 34 56
M  V30 60 1 35 57
M  V30 61 1 35 58
M  V30 62 1 36 59
M  V30 63 1 37 60
M  V30 END BOND
M  V30 END CTAB
M  END
>  <Dataset>  (446) 
ChEMBL_Kinases

>  <Ligand_Instance>  (446) 
nan

>  <PDB_ID>  (446) 
nan

>  <Standardized_SMILES>  (446) 
COC(=O)c1cccc(NC(=O)c2cccc(-c3cc(C(=O)Nc4ccncc4F)ccc3CN)c2)c1

>  <Name>  (446) 
nan

>  <Pocket>  (446) 
nan

>  <ATP_Site>  (446) 
nan

>  <Peripheral>  (446) 
nan

>  <Num_H_Atoms_ProtBoundConf>  (446) 
nan

>  <Num_Resolved_Atoms>  (446) 
nan

>  <Num_Not_Resolved_Atoms>  (446) 
nan

$$$$
CHEMBL3422062
     RDKit          3D

  0  0  0  0  0  0  0  0  0  0999 V3000
M  V30 BEGIN CTAB
M  V30 COUNTS 68 73 0 0 0
M  V30 BEGIN ATOM
M  V30 1 C 7.963973 -3.003702 1.708376 0
M  V30 2 N 6.921066 -2.344389 0.985640 0
M  V30 3 C 7.235011 -0.957374 0.703576 0
M  V30 4 C 6.110361 -0.328652 -0.076428 0
M  V30 5 C 4.917788 -0.177954 0.830150 0
M  V30 6 O 3.697071 -0.296173 0.154110 0
M  V30 7 C 2.719657 0.661077 0.024974 0
M  V30 8 C 1.648809 0.157520 -0.727068 0
M  V30 9 C 0.530243 0.956696 -0.991444 0
M  V30 10 C 0.445155 2.252875 -0.525653 0
M  V30 11 C -0.690332 3.134930 -0.766170 0
M  V30 12 N -0.645837 4.440439 -1.146221 0
M  V30 13 N -1.873081 4.919192 -1.268337 0
M  V30 14 C -2.751170 3.946681 -0.973475 0
M  V30 15 C -4.144309 3.883582 -0.935889 0
M  V30 16 C -4.821907 2.709187 -0.585243 0
M  V30 17 C -4.078643 1.566669 -0.263494 0
M  V30 18 C -4.827567 0.370726 0.094323 0
M  V30 19 O -6.080969 0.448486 0.095063 0
M  V30 20 N -4.169379 -0.842377 0.431174 0
M  V30 21 C -4.711230 -2.114343 0.807192 0
M  V30 22 C -4.299145 -3.186917 -0.167379 0
M  V30 23 C -5.251896 -4.084443 -0.618814 0
M  V30 24 C -4.926301 -5.082612 -1.509253 0
M  V30 25 C -3.622058 -5.177650 -1.951050 0
M  V30 26 C -2.646707 -4.297005 -1.519507 0
M  V30 27 C -3.002597 -3.302528 -0.623505 0
M  V30 28 C -4.243723 -2.537418 2.181362 0
M  V30 29 C -4.535641 -1.717769 3.377353 0
M  V30 30 C -5.308491 -2.964394 3.205198 0
M  V30 31 C -2.718112 1.666286 -0.311217 0
M  V30 32 C -2.033418 2.812502 -0.653821 0
M  V30 33 C 1.512152 2.725724 0.212335 0
M  V30 34 C 2.624735 1.958650 0.486219 0
M  V30 35 C 5.047846 -1.144310 1.985343 0
M  V30 36 C 5.623580 -2.471988 1.617279 0
M  V30 37 H 8.142600 -3.975172 1.207778 0
M  V30 38 H 7.628949 -3.170626 2.748340 0
M  V30 39 H 8.890745 -2.397052 1.652299 0
M  V30 40 H 7.357891 -0.427734 1.648984 0
M  V30 41 H 8.138965 -0.954092 0.066612 0
M  V30 42 H 6.422997 0.669284 -0.435408 0
M  V30 43 H 5.913726 -1.007934 -0.929754 0
M  V30 44 H 4.961978 0.854234 1.251751 0
M  V30 45 H 1.567300 -0.849563 -1.165260 0
M  V30 46 H -0.313308 0.582729 -1.575183 0
M  V30 47 H -2.103582 5.899623 -1.549982 0
M  V30 48 H -4.720443 4.756528 -1.181724 0
M  V30 49 H -5.921873 2.740633 -0.579170 0
M  V30 50 H -3.130185 -0.927577 0.436691 0
M  V30 51 H -5.807103 -2.053424 0.817347 0
M  V30 52 H -6.292275 -4.015400 -0.271809 0
M  V30 53 H -5.694541 -5.780191 -1.852269 0
M  V30 54 H -3.392628 -5.976378 -2.654886 0
M  V30 55 H -1.655958 -4.432213 -1.905532 0
M  V30 56 H -2.241071 -2.614117 -0.285824 0
M  V30 57 H -3.311854 -3.141539 2.226486 0
M  V30 58 H -5.020400 -0.722376 3.257948 0
M  V30 59 H -3.789743 -1.708712 4.203863 0
M  V30 60 H -6.371245 -2.885047 2.869167 0
M  V30 61 H -5.064470 -3.835953 3.854889 0
M  V30 62 H -2.164616 0.795224 -0.065469 0
M  V30 63 H 1.521522 3.729353 0.611811 0
M  V30 64 H 3.497135 2.244160 1.049824 0
M  V30 65 H 4.068919 -1.325303 2.492127 0
M  V30 66 H 5.687607 -0.712156 2.783767 0
M  V30 67 H 4.994786 -3.088846 0.956638 0
M  V30 68 H 5.768019 -3.030450 2.565017 0
M  V30 END ATOM
M  V30 BEGIN BOND
M  V30 1 1 1 2
M  V30 2 1 2 3
M  V30 3 1 3 4
M  V30 4 1 4 5
M  V30 5 1 5 6
M  V30 6 1 6 7
M  V30 7 2 7 8
M  V30 8 1 8 9
M  V30 9 2 9 10
M  V30 10 1 10 11
M  V30 11 2 11 12
M  V30 12 1 12 13
M  V30 13 1 13 14
M  V30 14 2 14 15
M  V30 15 1 15 16
M  V30 16 2 16 17
M  V30 17 1 17 18
M  V30 18 2 18 19
M  V30 19 1 18 20
M  V30 20 1 20 21
M  V30 21 1 21 22
M  V30 22 2 22 23
M  V30 23 1 23 24
M  V30 24 2 24 25
M  V30 25 1 25 26
M  V30 26 2 26 27
M  V30 27 1 21 28
M  V30 28 1 28 29
M  V30 29 1 29 30
M  V30 30 1 17 31
M  V30 31 2 31 32
M  V30 32 1 10 33
M  V30 33 2 33 34
M  V30 34 1 5 35
M  V30 35 1 35 36
M  V30 36 1 36 2
M  V30 37 1 34 7
M  V30 38 1 32 11
M  V30 39 1 32 14
M  V30 40 1 27 22
M  V30 41 1 30 28
M  V30 42 1 1 37
M  V30 43 1 1 38
M  V30 44 1 1 39
M  V30 45 1 3 40
M  V30 46 1 3 41
M  V30 47 1 4 42
M  V30 48 1 4 43
M  V30 49 1 5 44
M  V30 50 1 8 45
M  V30 51 1 9 46
M  V30 52 1 13 47
M  V30 53 1 15 48
M  V30 54 1 16 49
M  V30 55 1 20 50
M  V30 56 1 21 51
M  V30 57 1 23 52
M  V30 58 1 24 53
M  V30 59 1 25 54
M  V30 60 1 26 55
M  V30 61 1 27 56
M  V30 62 1 28 57
M  V30 63 1 29 58
M  V30 64 1 29 59
M  V30 65 1 30 60
M  V30 66 1 30 61
M  V30 67 1 31 62
M  V30 68 1 33 63
M  V30 69 1 34 64
M  V30 70 1 35 65
M  V30 71 1 35 66
M  V30 72 1 36 67
M  V30 73 1 36 68
M  V30 END BOND
M  V30 END CTAB
M  END
>  <Dataset>  (447) 
ChEMBL_Kinases

>  <Ligand_Instance>  (447) 
nan

>  <PDB_ID>  (447) 
nan

>  <Standardized_SMILES>  (447) 
CN1CCC(Oc2ccc(-c3n[nH]c4ccc(C(=O)NC(c5ccccc5)C5CC5)cc34)cc2)CC1

>  <Name>  (447) 
nan

>  <Pocket>  (447) 
nan

>  <ATP_Site>  (447) 
nan

>  <Peripheral>  (447) 
nan

>  <Num_H_Atoms_ProtBoundConf>  (447) 
nan

>  <Num_Resolved_Atoms>  (447) 
nan

>  <Num_Not_Resolved_Atoms>  (447) 
nan

$$$$
CHEMBL3422063
     RDKit          3D

  0  0  0  0  0  0  0  0  0  0999 V3000
M  V30 BEGIN CTAB
M  V30 COUNTS 67 71 0 0 0
M  V30 BEGIN ATOM
M  V30 1 C 3.021354 -1.648760 2.954573 0
M  V30 2 C 4.498362 -1.602493 2.541889 0
M  V30 3 C 4.515881 -1.019071 1.177108 0 CFG=1
M  V30 4 N 3.931458 0.299657 1.224045 0
M  V30 5 C 2.598679 0.546913 0.820631 0
M  V30 6 O 1.928283 -0.479084 0.409859 0
M  V30 7 C 1.854101 1.816072 0.802533 0
M  V30 8 C 2.465040 3.053165 0.820435 0
M  V30 9 C 1.696470 4.213676 0.819712 0
M  V30 10 C 0.312950 4.114059 0.801733 0
M  V30 11 N -0.667291 5.032633 0.800755 0
M  V30 12 N -1.871281 4.444420 0.784183 0
M  V30 13 C -1.711074 3.109589 0.772683 0
M  V30 14 C -2.617159 1.962367 0.784970 0
M  V30 15 C -3.617480 2.057260 1.731159 0
M  V30 16 C -4.528666 1.006085 1.862319 0
M  V30 17 C -4.452515 -0.134678 1.064822 0
M  V30 18 O -5.413574 -1.049982 1.330078 0
M  V30 19 C -5.576808 -2.336667 0.761370 0
M  V30 20 C -6.105644 -2.345479 -0.613766 0
M  V30 21 C -5.486433 -3.275147 -1.593501 0
M  V30 22 N -5.092644 -4.484068 -0.896390 0
M  V30 23 C -4.740227 -5.565388 -1.777713 0
M  V30 24 C -3.948233 -4.066819 -0.091619 0
M  V30 25 C -4.379284 -3.211233 1.034963 0
M  V30 26 C -3.425068 -0.170617 0.128936 0
M  V30 27 C -2.514094 0.851882 -0.021529 0
M  V30 28 C -0.329141 2.896305 0.783817 0
M  V30 29 C 0.478939 1.777225 0.784706 0
M  V30 30 C 5.688291 -1.181783 0.353176 0
M  V30 31 C 5.798330 -2.108930 -0.700078 0
M  V30 32 C 6.888617 -2.290246 -1.528145 0
M  V30 33 C 7.972019 -1.476906 -1.292985 0
M  V30 34 C 7.935873 -0.544797 -0.279020 0
M  V30 35 C 6.813744 -0.412441 0.517907 0
M  V30 36 Cl 6.931313 0.799588 1.755612 0
M  V30 37 H 3.033753 -2.044231 4.002563 0
M  V30 38 H 2.421360 -2.317543 2.346086 0
M  V30 39 H 2.646280 -0.602050 3.020711 0
M  V30 40 H 4.815077 -2.663125 2.591013 0
M  V30 41 H 4.940005 -0.970625 3.343147 0
M  V30 42 H 3.719552 -1.641666 0.635628 0
M  V30 43 H 4.416911 1.178826 1.549496 0
M  V30 44 H 3.543230 3.084358 0.836412 0
M  V30 45 H 2.152196 5.194850 0.824567 0
M  V30 46 H -0.576606 6.081937 0.812929 0
M  V30 47 H -3.742128 2.926353 2.394774 0
M  V30 48 H -5.302922 1.145150 2.633854 0
M  V30 49 H -6.385238 -2.795671 1.421011 0
M  V30 50 H -6.005256 -1.296149 -1.016001 0
M  V30 51 H -7.222659 -2.523492 -0.640985 0
M  V30 52 H -6.219067 -3.516269 -2.390315 0
M  V30 53 H -4.566522 -2.831438 -2.074170 0
M  V30 54 H -3.879195 -6.177439 -1.421131 0
M  V30 55 H -4.593183 -5.217144 -2.824043 0
M  V30 56 H -5.594773 -6.275403 -1.834856 0
M  V30 57 H -3.479392 -5.007054 0.293851 0
M  V30 58 H -3.226541 -3.637744 -0.792575 0
M  V30 59 H -3.541975 -2.552336 1.346331 0
M  V30 60 H -4.525270 -3.890377 1.924558 0
M  V30 61 H -3.393417 -1.064078 -0.482519 0
M  V30 62 H -1.744368 0.804724 -0.753345 0
M  V30 63 H 0.017032 0.827681 0.777277 0
M  V30 64 H 4.912738 -2.740584 -0.873706 0
M  V30 65 H 6.837280 -3.041515 -2.297881 0
M  V30 66 H 8.853893 -1.578384 -1.916182 0
M  V30 67 H 8.846875 0.063916 -0.160954 0
M  V30 END ATOM
M  V30 BEGIN BOND
M  V30 1 1 1 2
M  V30 2 1 2 3
M  V30 3 1 3 4
M  V30 4 1 4 5
M  V30 5 2 5 6
M  V30 6 1 5 7
M  V30 7 2 7 8
M  V30 8 1 8 9
M  V30 9 2 9 10
M  V30 10 1 10 11
M  V30 11 1 11 12
M  V30 12 2 12 13
M  V30 13 1 13 14
M  V30 14 2 14 15
M  V30 15 1 15 16
M  V30 16 2 16 17
M  V30 17 1 17 18
M  V30 18 1 18 19
M  V30 19 1 19 20
M  V30 20 1 20 21
M  V30 21 1 21 22
M  V30 22 1 22 23
M  V30 23 1 22 24
M  V30 24 1 24 25
M  V30 25 1 17 26
M  V30 26 2 26 27
M  V30 27 1 13 28
M  V30 28 2 28 29
M  V30 29 1 3 30
M  V30 30 2 30 31
M  V30 31 1 31 32
M  V30 32 2 32 33
M  V30 33 1 33 34
M  V30 34 2 34 35
M  V30 35 1 35 36
M  V30 36 1 29 7
M  V30 37 1 35 30
M  V30 38 1 28 10
M  V30 39 1 27 14
M  V30 40 1 25 19
M  V30 41 1 1 37
M  V30 42 1 1 38
M  V30 43 1 1 39
M  V30 44 1 2 40
M  V30 45 1 2 41
M  V30 46 1 3 42 CFG=3
M  V30 47 1 4 43
M  V30 48 1 8 44
M  V30 49 1 9 45
M  V30 50 1 11 46
M  V30 51 1 15 47
M  V30 52 1 16 48
M  V30 53 1 19 49
M  V30 54 1 20 50
M  V30 55 1 20 51
M  V30 56 1 21 52
M  V30 57 1 21 53
M  V30 58 1 23 54
M  V30 59 1 23 55
M  V30 60 1 23 56
M  V30 61 1 24 57
M  V30 62 1 24 58
M  V30 63 1 25 59
M  V30 64 1 25 60
M  V30 65 1 26 61
M  V30 66 1 27 62
M  V30 67 1 29 63
M  V30 68 1 31 64
M  V30 69 1 32 65
M  V30 70 1 33 66
M  V30 71 1 34 67
M  V30 END BOND
M  V30 END CTAB
M  END
>  <Dataset>  (448) 
ChEMBL_Kinases

>  <Ligand_Instance>  (448) 
nan

>  <PDB_ID>  (448) 
nan

>  <Standardized_SMILES>  (448) 
CC[C@@H](NC(=O)c1ccc2[nH]nc(-c3ccc(OC4CCN(C)CC4)cc3)c2c1)c1ccccc1Cl

>  <Name>  (448) 
nan

>  <Pocket>  (448) 
nan

>  <ATP_Site>  (448) 
nan

>  <Peripheral>  (448) 
nan

>  <Num_H_Atoms_ProtBoundConf>  (448) 
nan

>  <Num_Resolved_Atoms>  (448) 
nan

>  <Num_Not_Resolved_Atoms>  (448) 
nan

$$$$
CHEMBL3422064
     RDKit          3D

  0  0  0  0  0  0  0  0  0  0999 V3000
M  V30 BEGIN CTAB
M  V30 COUNTS 62 67 0 0 0
M  V30 BEGIN ATOM
M  V30 1 O 1.918707 0.652215 1.947375 0
M  V30 2 C 1.266599 1.690410 2.245264 0
M  V30 3 N 1.975906 2.649485 3.020743 0
M  V30 4 C 3.368763 2.396145 3.419332 0
M  V30 5 C 3.356536 2.369268 4.903369 0
M  V30 6 C 3.992952 1.432590 5.667204 0
M  V30 7 C 3.957999 1.440269 7.027312 0
M  V30 8 S 2.898901 2.947970 7.396963 0
M  V30 9 C 2.631644 3.386554 5.630802 0
M  V30 10 C 4.308679 3.454415 2.887548 0
M  V30 11 C 5.764579 3.403100 3.165035 0
M  V30 12 C 5.208822 3.225321 1.757603 0
M  V30 13 C -0.116128 1.910833 1.834182 0
M  V30 14 C -0.843036 3.040846 2.151161 0
M  V30 15 C -2.148904 3.225507 1.752141 0
M  V30 16 C -2.756541 2.241619 1.005081 0
M  V30 17 N -3.960516 2.054198 0.449659 0
M  V30 18 N -3.995293 0.887700 -0.175900 0
M  V30 19 C -2.806435 0.252070 -0.058091 0
M  V30 20 C -2.597115 -1.057186 -0.665915 0
M  V30 21 C -3.634980 -1.975880 -0.476527 0
M  V30 22 C -3.523644 -3.239279 -1.016820 0
M  V30 23 C -2.432705 -3.656684 -1.743832 0
M  V30 24 N -2.299358 -4.952382 -2.305464 0
M  V30 25 C -3.235803 -6.046675 -2.156652 0
M  V30 26 C -3.865274 -6.220551 -3.545594 0
M  V30 27 C -2.796067 -6.553883 -4.560267 0
M  V30 28 O -2.839759 -5.730114 -5.682237 0
M  V30 29 C -1.413162 -6.530810 -3.962203 0
M  V30 30 C -1.162131 -5.308726 -3.117654 0
M  V30 31 C -1.422691 -2.739917 -1.919409 0
M  V30 32 C -1.499630 -1.466494 -1.393247 0
M  V30 33 C -2.025984 1.111083 0.689138 0
M  V30 34 C -0.717936 0.902052 1.076138 0
M  V30 35 H 1.543377 3.534560 3.320798 0
M  V30 36 H 3.706875 1.413736 3.021406 0
M  V30 37 H 4.566001 0.623426 5.242882 0
M  V30 38 H 4.331556 0.880435 7.791996 0
M  V30 39 H 2.072170 4.203261 5.168685 0
M  V30 40 H 3.854641 4.487408 2.927133 0
M  V30 41 H 6.192683 2.500887 3.661274 0
M  V30 42 H 6.317312 4.331145 3.369777 0
M  V30 43 H 5.436824 4.064786 1.052896 0
M  V30 44 H 5.426813 2.252721 1.308293 0
M  V30 45 H -0.386222 3.811350 2.728820 0
M  V30 46 H -2.705615 4.105300 2.002614 0
M  V30 47 H -4.752803 2.719633 0.498135 0
M  V30 48 H -4.525463 -1.709611 0.088627 0
M  V30 49 H -4.347805 -3.913846 -0.846046 0
M  V30 50 H -4.019374 -5.824264 -1.436916 0
M  V30 51 H -2.669330 -6.975419 -1.897646 0
M  V30 52 H -4.295644 -5.221816 -3.778426 0
M  V30 53 H -4.700891 -6.942132 -3.523027 0
M  V30 54 H -2.992276 -7.589089 -4.907337 0
M  V30 55 H -1.993199 -5.248045 -5.837347 0
M  V30 56 H -1.190362 -7.445160 -3.377501 0
M  V30 57 H -0.689590 -6.496074 -4.802662 0
M  V30 58 H -0.315870 -5.514834 -2.427022 0
M  V30 59 H -0.821712 -4.438325 -3.753047 0
M  V30 60 H -0.505010 -2.912364 -2.461182 0
M  V30 61 H -0.725301 -0.719537 -1.510891 0
M  V30 62 H -0.169963 0.004562 0.813182 0
M  V30 END ATOM
M  V30 BEGIN BOND
M  V30 1 2 1 2
M  V30 2 1 2 3
M  V30 3 1 3 4
M  V30 4 1 4 5
M  V30 5 1 5 6
M  V30 6 2 6 7
M  V30 7 1 7 8
M  V30 8 1 8 9
M  V30 9 1 4 10
M  V30 10 1 10 11
M  V30 11 1 11 12
M  V30 12 1 2 13
M  V30 13 2 13 14
M  V30 14 1 14 15
M  V30 15 2 15 16
M  V30 16 1 16 17
M  V30 17 1 17 18
M  V30 18 2 18 19
M  V30 19 1 19 20
M  V30 20 2 20 21
M  V30 21 1 21 22
M  V30 22 2 22 23
M  V30 23 1 23 24
M  V30 24 1 24 25
M  V30 25 1 25 26
M  V30 26 1 26 27
M  V30 27 1 27 28
M  V30 28 1 27 29
M  V30 29 1 29 30
M  V30 30 1 23 31
M  V30 31 2 31 32
M  V30 32 1 19 33
M  V30 33 2 33 34
M  V30 34 2 9 5
M  V30 35 1 12 10
M  V30 36 1 34 13
M  V30 37 1 33 16
M  V30 38 1 32 20
M  V30 39 1 30 24
M  V30 40 1 3 35
M  V30 41 1 4 36
M  V30 42 1 6 37
M  V30 43 1 7 38
M  V30 44 1 9 39
M  V30 45 1 10 40
M  V30 46 1 11 41
M  V30 47 1 11 42
M  V30 48 1 12 43
M  V30 49 1 12 44
M  V30 50 1 14 45
M  V30 51 1 15 46
M  V30 52 1 17 47
M  V30 53 1 21 48
M  V30 54 1 22 49
M  V30 55 1 25 50
M  V30 56 1 25 51
M  V30 57 1 26 52
M  V30 58 1 26 53
M  V30 59 1 27 54
M  V30 60 1 28 55
M  V30 61 1 29 56
M  V30 62 1 29 57
M  V30 63 1 30 58
M  V30 64 1 30 59
M  V30 65 1 31 60
M  V30 66 1 32 61
M  V30 67 1 34 62
M  V30 END BOND
M  V30 END CTAB
M  END
>  <Dataset>  (449) 
ChEMBL_Kinases

>  <Ligand_Instance>  (449) 
nan

>  <PDB_ID>  (449) 
nan

>  <Standardized_SMILES>  (449) 
O=C(NC(c1ccsc1)C1CC1)c1ccc2[nH]nc(-c3ccc(N4CCC(O)CC4)cc3)c2c1

>  <Name>  (449) 
nan

>  <Pocket>  (449) 
nan

>  <ATP_Site>  (449) 
nan

>  <Peripheral>  (449) 
nan

>  <Num_H_Atoms_ProtBoundConf>  (449) 
nan

>  <Num_Resolved_Atoms>  (449) 
nan

>  <Num_Not_Resolved_Atoms>  (449) 
nan

$$$$
CHEMBL3422065
     RDKit          3D

  0  0  0  0  0  0  0  0  0  0999 V3000
M  V30 BEGIN CTAB
M  V30 COUNTS 77 82 0 0 0
M  V30 BEGIN ATOM
M  V30 1 O -0.245957 0.333027 5.585431 0
M  V30 2 C -0.310026 -0.169999 4.434619 0
M  V30 3 N 0.241383 0.570167 3.352512 0
M  V30 4 C 0.861606 1.880770 3.597699 0
M  V30 5 C 1.341568 2.382788 2.223494 0
M  V30 6 N 0.193510 2.463046 1.429619 0
M  V30 7 C -0.848882 3.304290 1.826452 0
M  V30 8 C -1.803531 3.583362 0.661994 0
M  V30 9 O -2.215586 2.453142 0.010572 0
M  V30 10 C -1.339051 1.408369 -0.029468 0
M  V30 11 C 0.123218 1.832652 0.177399 0
M  V30 12 C 2.039515 3.690753 2.495681 0
M  V30 13 C 2.488883 4.232939 1.164513 0
M  V30 14 C 3.561807 3.331824 0.639915 0
M  V30 15 C 3.256437 1.877418 0.661424 0
M  V30 16 C 2.384639 1.420726 1.791740 0
M  V30 17 C -0.946677 -1.476314 4.301051 0
M  V30 18 C -1.426977 -2.062214 5.453182 0
M  V30 19 C -2.041203 -3.315564 5.345286 0
M  V30 20 C -2.172085 -3.961856 4.132427 0
M  V30 21 N -2.693403 -5.131439 3.711083 0
M  V30 22 N -2.545504 -5.255404 2.402379 0
M  V30 23 C -1.926592 -4.195655 1.872139 0
M  V30 24 C -1.577850 -3.949718 0.476581 0
M  V30 25 C -1.004061 -4.997484 -0.214703 0
M  V30 26 C -0.652239 -4.829026 -1.536555 0
M  V30 27 C -0.836883 -3.656479 -2.239020 0
M  V30 28 N -0.473766 -3.477769 -3.602591 0
M  V30 29 C -0.709184 -2.246896 -4.331255 0
M  V30 30 C -0.930995 -2.644627 -5.794631 0
M  V30 31 C 0.425401 -3.021177 -6.342135 0
M  V30 32 O 1.120494 -1.819006 -6.555657 0
M  V30 33 C 1.171619 -3.851831 -5.293535 0
M  V30 34 C 0.157256 -4.514715 -4.351158 0
M  V30 35 C -1.413309 -2.645850 -1.498090 0
M  V30 36 C -1.788400 -2.748192 -0.174625 0
M  V30 37 C -1.686233 -3.370611 2.962331 0
M  V30 38 C -1.085885 -2.136004 3.097987 0
M  V30 39 H 0.182342 0.142543 2.402056 0
M  V30 40 H 0.078399 2.587640 3.960224 0
M  V30 41 H 1.700930 1.817410 4.290068 0
M  V30 42 H -1.486226 2.840728 2.627924 0
M  V30 43 H -0.561931 4.302403 2.204217 0
M  V30 44 H -1.393128 4.364140 -0.017498 0
M  V30 45 H -2.711121 4.043040 1.128282 0
M  V30 46 H -1.377999 0.886154 -1.022735 0
M  V30 47 H -1.543229 0.613863 0.714313 0
M  V30 48 H 0.365808 2.470470 -0.700749 0
M  V30 49 H 0.666241 0.864728 0.151931 0
M  V30 50 H 2.984732 3.442216 3.047209 0
M  V30 51 H 1.483621 4.387994 3.121899 0
M  V30 52 H 1.659564 4.395933 0.452245 0
M  V30 53 H 2.942612 5.233121 1.343810 0
M  V30 54 H 4.509456 3.545314 1.204505 0
M  V30 55 H 3.807761 3.636538 -0.418967 0
M  V30 56 H 2.903989 1.572338 -0.347978 0
M  V30 57 H 4.237909 1.342100 0.764349 0
M  V30 58 H 3.064781 1.299362 2.688557 0
M  V30 59 H 2.036165 0.401375 1.591881 0
M  V30 60 H -1.384614 -1.659610 6.452184 0
M  V30 61 H -2.443587 -3.837426 6.214442 0
M  V30 62 H -3.149512 -5.825932 4.373008 0
M  V30 63 H -0.827969 -5.959790 0.282459 0
M  V30 64 H -0.209372 -5.677046 -2.028342 0
M  V30 65 H -1.652507 -1.754200 -3.953689 0
M  V30 66 H 0.109840 -1.520842 -4.220958 0
M  V30 67 H -1.386389 -1.799683 -6.330756 0
M  V30 68 H -1.648573 -3.490158 -5.780798 0
M  V30 69 H 0.370411 -3.559916 -7.289000 0
M  V30 70 H 0.676523 -1.051248 -6.131987 0
M  V30 71 H 1.733361 -3.129664 -4.664355 0
M  V30 72 H 1.834838 -4.570532 -5.775544 0
M  V30 73 H -0.600526 -5.037009 -4.966062 0
M  V30 74 H 0.759510 -5.232577 -3.757949 0
M  V30 75 H -1.613985 -1.673548 -1.925098 0
M  V30 76 H -2.239313 -1.933623 0.376077 0
M  V30 77 H -0.710129 -1.677038 2.202411 0
M  V30 END ATOM
M  V30 BEGIN BOND
M  V30 1 2 1 2
M  V30 2 1 2 3
M  V30 3 1 3 4
M  V30 4 1 4 5
M  V30 5 1 5 6
M  V30 6 1 6 7
M  V30 7 1 7 8
M  V30 8 1 8 9
M  V30 9 1 9 10
M  V30 10 1 10 11
M  V30 11 1 5 12
M  V30 12 1 12 13
M  V30 13 1 13 14
M  V30 14 1 14 15
M  V30 15 1 15 16
M  V30 16 1 2 17
M  V30 17 2 17 18
M  V30 18 1 18 19
M  V30 19 2 19 20
M  V30 20 1 20 21
M  V30 21 1 21 22
M  V30 22 2 22 23
M  V30 23 1 23 24
M  V30 24 2 24 25
M  V30 25 1 25 26
M  V30 26 2 26 27
M  V30 27 1 27 28
M  V30 28 1 28 29
M  V30 29 1 29 30
M  V30 30 1 30 31
M  V30 31 1 31 32
M  V30 32 1 31 33
M  V30 33 1 33 34
M  V30 34 1 27 35
M  V30 35 2 35 36
M  V30 36 1 23 37
M  V30 37 2 37 38
M  V30 38 1 16 5
M  V30 39 1 38 17
M  V30 40 1 11 6
M  V30 41 1 37 20
M  V30 42 1 36 24
M  V30 43 1 34 28
M  V30 44 1 3 39
M  V30 45 1 4 40
M  V30 46 1 4 41
M  V30 47 1 7 42
M  V30 48 1 7 43
M  V30 49 1 8 44
M  V30 50 1 8 45
M  V30 51 1 10 46
M  V30 52 1 10 47
M  V30 53 1 11 48
M  V30 54 1 11 49
M  V30 55 1 12 50
M  V30 56 1 12 51
M  V30 57 1 13 52
M  V30 58 1 13 53
M  V30 59 1 14 54
M  V30 60 1 14 55
M  V30 61 1 15 56
M  V30 62 1 15 57
M  V30 63 1 16 58
M  V30 64 1 16 59
M  V30 65 1 18 60
M  V30 66 1 19 61
M  V30 67 1 21 62
M  V30 68 1 25 63
M  V30 69 1 26 64
M  V30 70 1 29 65
M  V30 71 1 29 66
M  V30 72 1 30 67
M  V30 73 1 30 68
M  V30 74 1 31 69
M  V30 75 1 32 70
M  V30 76 1 33 71
M  V30 77 1 33 72
M  V30 78 1 34 73
M  V30 79 1 34 74
M  V30 80 1 35 75
M  V30 81 1 36 76
M  V30 82 1 38 77
M  V30 END BOND
M  V30 END CTAB
M  END
>  <Dataset>  (450) 
ChEMBL_Kinases

>  <Ligand_Instance>  (450) 
nan

>  <PDB_ID>  (450) 
nan

>  <Standardized_SMILES>  (450) 
O=C(NCC1(N2CCOCC2)CCCCC1)c1ccc2[nH]nc(-c3ccc(N4CCC(O)CC4)cc3)c2c1

>  <Name>  (450) 
nan

>  <Pocket>  (450) 
nan

>  <ATP_Site>  (450) 
nan

>  <Peripheral>  (450) 
nan

>  <Num_H_Atoms_ProtBoundConf>  (450) 
nan

>  <Num_Resolved_Atoms>  (450) 
nan

>  <Num_Not_Resolved_Atoms>  (450) 
nan

$$$$
CHEMBL3422071
     RDKit          3D

  0  0  0  0  0  0  0  0  0  0999 V3000
M  V30 BEGIN CTAB
M  V30 COUNTS 73 78 0 0 0
M  V30 BEGIN ATOM
M  V30 1 C 4.485289 -4.052257 3.048187 0
M  V30 2 N 5.079222 -4.447694 1.804188 0
M  V30 3 C 4.176859 -4.985083 0.851491 0
M  V30 4 C 4.110860 -4.266408 -0.446298 0
M  V30 5 C 4.459636 -2.802859 -0.234314 0
M  V30 6 O 4.266749 -2.037418 -1.383107 0
M  V30 7 C 3.472509 -0.917386 -1.504278 0
M  V30 8 C 3.460809 -0.350409 -2.777800 0
M  V30 9 C 2.701534 0.790093 -3.054574 0
M  V30 10 C 1.947118 1.356965 -2.021153 0
M  V30 11 C 1.204701 2.537774 -2.452352 0
M  V30 12 N 1.657537 3.553953 -3.203818 0
M  V30 13 N 0.673754 4.448606 -3.385613 0
M  V30 14 C -0.437425 4.021709 -2.750161 0
M  V30 15 C -1.722759 4.552620 -2.614837 0
M  V30 16 C -2.662893 3.840637 -1.872142 0
M  V30 17 C -2.371947 2.641496 -1.271532 0
M  V30 18 C -3.435469 1.992265 -0.524778 0
M  V30 19 O -4.554202 2.529449 -0.492112 0
M  V30 20 N -3.158961 0.768165 0.140749 0
M  V30 21 C -3.979769 -0.112178 0.949802 0
M  V30 22 C -4.072778 -1.471604 0.361050 0
M  V30 23 C -5.139610 -2.292779 0.157269 0
M  V30 24 C -4.969430 -3.534712 -0.418186 0
M  V30 25 C -3.710052 -3.967074 -0.798388 0
M  V30 26 C -2.656135 -3.109130 -0.576485 0
M  V30 27 N -2.830214 -1.891697 -0.011221 0
M  V30 28 C -3.425839 -0.262156 2.348022 0
M  V30 29 C -4.338565 -1.189133 3.118432 0
M  V30 30 C -5.512755 -0.297633 3.500843 0
M  V30 31 C -5.050495 1.132469 3.327364 0
M  V30 32 C -3.576053 1.003737 3.156304 0
M  V30 33 C -1.092272 2.164575 -1.436565 0
M  V30 34 C -0.114940 2.816533 -2.157237 0
M  V30 35 C 1.956623 0.798536 -0.760331 0
M  V30 36 C 2.720445 -0.327232 -0.531942 0
M  V30 37 C 5.931952 -2.809791 0.153108 0
M  V30 38 C 6.169700 -3.692192 1.338755 0
M  V30 39 H 3.886334 -4.930912 3.421961 0
M  V30 40 H 3.850178 -3.160042 3.005464 0
M  V30 41 H 5.303810 -3.937664 3.795897 0
M  V30 42 H 4.436038 -6.054151 0.672452 0
M  V30 43 H 3.132707 -5.027150 1.280003 0
M  V30 44 H 4.838789 -4.697372 -1.190368 0
M  V30 45 H 3.123104 -4.325597 -0.925321 0
M  V30 46 H 3.886766 -2.440193 0.642502 0
M  V30 47 H 4.045660 -0.777496 -3.607844 0
M  V30 48 H 2.737596 1.180054 -4.067185 0
M  V30 49 H 0.727424 5.353428 -3.933398 0
M  V30 50 H -1.958634 5.497975 -3.085935 0
M  V30 51 H -3.651659 4.307180 -1.801610 0
M  V30 52 H -2.243058 0.269477 0.151170 0
M  V30 53 H -5.003272 0.308248 0.971447 0
M  V30 54 H -6.063668 -1.844614 0.494333 0
M  V30 55 H -5.849909 -4.124955 -0.547613 0
M  V30 56 H -3.616172 -4.942723 -1.244287 0
M  V30 57 H -1.668391 -3.477796 -0.887873 0
M  V30 58 H -2.395754 -0.628833 2.332458 0
M  V30 59 H -3.763822 -1.498116 4.020034 0
M  V30 60 H -4.724801 -2.032709 2.554527 0
M  V30 61 H -6.391990 -0.486148 2.867925 0
M  V30 62 H -5.697302 -0.461064 4.581491 0
M  V30 63 H -5.232416 1.752622 4.238823 0
M  V30 64 H -5.537277 1.636955 2.463471 0
M  V30 65 H -3.069792 1.874100 2.731530 0
M  V30 66 H -3.125883 0.811736 4.145555 0
M  V30 67 H -0.846119 1.224008 -0.971291 0
M  V30 68 H 1.360078 1.284132 -0.029867 0
M  V30 69 H 2.739858 -0.769933 0.430999 0
M  V30 70 H 6.452192 -3.254329 -0.728421 0
M  V30 71 H 6.343945 -1.807222 0.295665 0
M  V30 72 H 7.016764 -4.406890 1.129568 0
M  V30 73 H 6.536674 -3.052388 2.180526 0
M  V30 END ATOM
M  V30 BEGIN BOND
M  V30 1 1 1 2
M  V30 2 1 2 3
M  V30 3 1 3 4
M  V30 4 1 4 5
M  V30 5 1 5 6
M  V30 6 1 6 7
M  V30 7 2 7 8
M  V30 8 1 8 9
M  V30 9 2 9 10
M  V30 10 1 10 11
M  V30 11 2 11 12
M  V30 12 1 12 13
M  V30 13 1 13 14
M  V30 14 2 14 15
M  V30 15 1 15 16
M  V30 16 2 16 17
M  V30 17 1 17 18
M  V30 18 2 18 19
M  V30 19 1 18 20
M  V30 20 1 20 21
M  V30 21 1 21 22
M  V30 22 2 22 23
M  V30 23 1 23 24
M  V30 24 2 24 25
M  V30 25 1 25 26
M  V30 26 2 26 27
M  V30 27 1 21 28
M  V30 28 1 28 29
M  V30 29 1 29 30
M  V30 30 1 30 31
M  V30 31 1 31 32
M  V30 32 1 17 33
M  V30 33 2 33 34
M  V30 34 1 10 35
M  V30 35 2 35 36
M  V30 36 1 5 37
M  V30 37 1 37 38
M  V30 38 1 38 2
M  V30 39 1 36 7
M  V30 40 1 34 11
M  V30 41 1 34 14
M  V30 42 1 27 22
M  V30 43 1 32 28
M  V30 44 1 1 39
M  V30 45 1 1 40
M  V30 46 1 1 41
M  V30 47 1 3 42
M  V30 48 1 3 43
M  V30 49 1 4 44
M  V30 50 1 4 45
M  V30 51 1 5 46
M  V30 52 1 8 47
M  V30 53 1 9 48
M  V30 54 1 13 49
M  V30 55 1 15 50
M  V30 56 1 16 51
M  V30 57 1 20 52
M  V30 58 1 21 53
M  V30 59 1 23 54
M  V30 60 1 24 55
M  V30 61 1 25 56
M  V30 62 1 26 57
M  V30 63 1 28 58
M  V30 64 1 29 59
M  V30 65 1 29 60
M  V30 66 1 30 61
M  V30 67 1 30 62
M  V30 68 1 31 63
M  V30 69 1 31 64
M  V30 70 1 32 65
M  V30 71 1 32 66
M  V30 72 1 33 67
M  V30 73 1 35 68
M  V30 74 1 36 69
M  V30 75 1 37 70
M  V30 76 1 37 71
M  V30 77 1 38 72
M  V30 78 1 38 73
M  V30 END BOND
M  V30 END CTAB
M  END
>  <Dataset>  (451) 
ChEMBL_Kinases

>  <Ligand_Instance>  (451) 
nan

>  <PDB_ID>  (451) 
nan

>  <Standardized_SMILES>  (451) 
CN1CCC(Oc2ccc(-c3n[nH]c4ccc(C(=O)NC(c5ccccn5)C5CCCC5)cc34)cc2)CC1

>  <Name>  (451) 
nan

>  <Pocket>  (451) 
nan

>  <ATP_Site>  (451) 
nan

>  <Peripheral>  (451) 
nan

>  <Num_H_Atoms_ProtBoundConf>  (451) 
nan

>  <Num_Resolved_Atoms>  (451) 
nan

>  <Num_Not_Resolved_Atoms>  (451) 
nan

$$$$
CHEMBL3422072
     RDKit          3D

  0  0  0  0  0  0  0  0  0  0999 V3000
M  V30 BEGIN CTAB
M  V30 COUNTS 67 72 0 0 0
M  V30 BEGIN ATOM
M  V30 1 O 5.790351 -3.418070 3.177784 0
M  V30 2 C 6.174013 -2.237730 2.974879 0
M  V30 3 N 5.807336 -1.227464 3.903777 0
M  V30 4 C 6.276013 0.113872 3.611157 0
M  V30 5 C 5.279171 1.159560 4.037852 0
M  V30 6 C 3.862528 0.646313 4.050409 0
M  V30 7 O 3.367522 0.531135 2.737526 0
M  V30 8 C 2.333362 1.289753 2.233531 0
M  V30 9 C 2.109661 0.887727 0.907323 0
M  V30 10 C 1.108745 1.489791 0.135058 0
M  V30 11 C 0.315297 2.493167 0.653175 0
M  V30 12 C -0.733123 3.132374 -0.132440 0
M  V30 13 N -0.875286 4.473835 -0.143718 0
M  V30 14 N -1.886890 4.831742 -0.923135 0
M  V30 15 C -2.418387 3.710024 -1.432324 0
M  V30 16 C -3.458891 3.411574 -2.284803 0
M  V30 17 C -3.811930 2.119541 -2.663825 0
M  V30 18 C -3.046678 1.078794 -2.131865 0
M  V30 19 C -3.430253 -0.269929 -2.537681 0
M  V30 20 O -4.377495 -0.408523 -3.351692 0
M  V30 21 N -2.790794 -1.444494 -2.062305 0
M  V30 22 C -3.196523 -2.766608 -2.484112 0
M  V30 23 C -3.727100 -3.578977 -1.368714 0
M  V30 24 C -3.122601 -3.659477 -0.127397 0
M  V30 25 C -3.592367 -4.405808 0.932437 0
M  V30 26 C -4.762869 -5.137373 0.750254 0
M  V30 27 C -5.407724 -5.098520 -0.456000 0
M  V30 28 C -4.897466 -4.338908 -1.479944 0
M  V30 29 C -2.033911 -3.410191 -3.206247 0
M  V30 30 C -2.111666 -4.768917 -3.768322 0
M  V30 31 C -1.226503 -4.484838 -2.599959 0
M  V30 32 C -1.992270 1.318189 -1.273150 0
M  V30 33 C -1.709953 2.602522 -0.951343 0
M  V30 34 C 0.552661 2.872952 1.959333 0
M  V30 35 C 1.532543 2.291226 2.732290 0
M  V30 36 C 3.692121 -0.638077 4.831932 0
M  V30 37 C 5.030057 -1.279349 5.127269 0
M  V30 38 H 5.948322 -3.291052 2.970599 0
M  V30 39 H 7.201085 0.266637 4.205071 0
M  V30 40 H 6.586778 0.223216 2.558335 0
M  V30 41 H 5.306544 2.005626 3.336632 0
M  V30 42 H 5.539744 1.516383 5.050688 0
M  V30 43 H 3.252040 1.412126 4.567768 0
M  V30 44 H 2.621309 0.126966 0.326090 0
M  V30 45 H 0.881521 1.231062 -0.887788 0
M  V30 46 H -2.219059 5.809578 -1.113660 0
M  V30 47 H -4.059426 4.230519 -2.701344 0
M  V30 48 H -4.652573 1.958271 -3.345727 0
M  V30 49 H -2.000343 -1.371064 -1.386380 0
M  V30 50 H -4.031424 -2.713081 -3.239396 0
M  V30 51 H -2.208567 -3.077944 -0.012182 0
M  V30 52 H -3.121370 -4.462587 1.884635 0
M  V30 53 H -5.179962 -5.741548 1.543337 0
M  V30 54 H -6.314458 -5.676293 -0.569213 0
M  V30 55 H -5.386493 -4.285294 -2.454921 0
M  V30 56 H -1.549861 -2.659338 -3.898323 0
M  V30 57 H -1.583862 -5.003821 -4.734956 0
M  V30 58 H -3.035810 -5.354606 -3.657759 0
M  V30 59 H -0.116206 -4.460019 -2.752439 0
M  V30 60 H -1.530993 -4.826726 -1.592201 0
M  V30 61 H -1.406664 0.504619 -0.867555 0
M  V30 62 H -0.021007 3.650178 2.445647 0
M  V30 63 H 1.791667 2.517113 3.752854 0
M  V30 64 H 3.134768 -1.365739 4.175205 0
M  V30 65 H 3.125584 -0.523376 5.770926 0
M  V30 66 H 5.537293 -0.686490 5.911484 0
M  V30 67 H 4.881486 -2.334369 5.442332 0
M  V30 END ATOM
M  V30 BEGIN BOND
M  V30 1 2 1 2
M  V30 2 1 2 3
M  V30 3 1 3 4
M  V30 4 1 4 5
M  V30 5 1 5 6
M  V30 6 1 6 7
M  V30 7 1 7 8
M  V30 8 2 8 9
M  V30 9 1 9 10
M  V30 10 2 10 11
M  V30 11 1 11 12
M  V30 12 2 12 13
M  V30 13 1 13 14
M  V30 14 1 14 15
M  V30 15 2 15 16
M  V30 16 1 16 17
M  V30 17 2 17 18
M  V30 18 1 18 19
M  V30 19 2 19 20
M  V30 20 1 19 21
M  V30 21 1 21 22
M  V30 22 1 22 23
M  V30 23 2 23 24
M  V30 24 1 24 25
M  V30 25 2 25 26
M  V30 26 1 26 27
M  V30 27 2 27 28
M  V30 28 1 22 29
M  V30 29 1 29 30
M  V30 30 1 30 31
M  V30 31 1 18 32
M  V30 32 2 32 33
M  V30 33 1 11 34
M  V30 34 2 34 35
M  V30 35 1 6 36
M  V30 36 1 36 37
M  V30 37 1 37 3
M  V30 38 1 35 8
M  V30 39 1 33 12
M  V30 40 1 33 15
M  V30 41 1 28 23
M  V30 42 1 31 29
M  V30 43 1 2 38
M  V30 44 1 4 39
M  V30 45 1 4 40
M  V30 46 1 5 41
M  V30 47 1 5 42
M  V30 48 1 6 43
M  V30 49 1 9 44
M  V30 50 1 10 45
M  V30 51 1 14 46
M  V30 52 1 16 47
M  V30 53 1 17 48
M  V30 54 1 21 49
M  V30 55 1 22 50
M  V30 56 1 24 51
M  V30 57 1 25 52
M  V30 58 1 26 53
M  V30 59 1 27 54
M  V30 60 1 28 55
M  V30 61 1 29 56
M  V30 62 1 30 57
M  V30 63 1 30 58
M  V30 64 1 31 59
M  V30 65 1 31 60
M  V30 66 1 32 61
M  V30 67 1 34 62
M  V30 68 1 35 63
M  V30 69 1 36 64
M  V30 70 1 36 65
M  V30 71 1 37 66
M  V30 72 1 37 67
M  V30 END BOND
M  V30 END CTAB
M  END
>  <Dataset>  (452) 
ChEMBL_Kinases

>  <Ligand_Instance>  (452) 
nan

>  <PDB_ID>  (452) 
nan

>  <Standardized_SMILES>  (452) 
O=CN1CCC(Oc2ccc(-c3n[nH]c4ccc(C(=O)NC(c5ccccc5)C5CC5)cc34)cc2)CC1

>  <Name>  (452) 
nan

>  <Pocket>  (452) 
nan

>  <ATP_Site>  (452) 
nan

>  <Peripheral>  (452) 
nan

>  <Num_H_Atoms_ProtBoundConf>  (452) 
nan

>  <Num_Resolved_Atoms>  (452) 
nan

>  <Num_Not_Resolved_Atoms>  (452) 
nan

$$$$
CHEMBL3422073
     RDKit          3D

  0  0  0  0  0  0  0  0  0  0999 V3000
M  V30 BEGIN CTAB
M  V30 COUNTS 66 71 0 0 0
M  V30 BEGIN ATOM
M  V30 1 O 8.555211 2.712299 3.428793 0
M  V30 2 C 7.642498 2.081330 4.061757 0
M  V30 3 N 6.728041 1.435716 3.163029 0
M  V30 4 C 6.940960 1.573309 1.738880 0
M  V30 5 C 5.732667 2.072294 0.990928 0
M  V30 6 C 4.495384 1.547303 1.636728 0
M  V30 7 O 3.454408 1.266471 0.756348 0
M  V30 8 C 2.162156 1.628665 1.063516 0
M  V30 9 C 1.352161 1.226391 -0.004048 0
M  V30 10 C -0.029777 1.440679 -0.015114 0
M  V30 11 C -0.614920 2.069200 1.057578 0
M  V30 12 C -2.007421 2.402534 1.311056 0
M  V30 13 N -2.559119 3.557120 1.778961 0
M  V30 14 N -3.882729 3.378313 1.856514 0
M  V30 15 C -4.203272 2.130090 1.448508 0
M  V30 16 C -5.425828 1.458006 1.341950 0
M  V30 17 C -5.433546 0.144565 0.878072 0
M  V30 18 C -4.288622 -0.511672 0.522464 0
M  V30 19 C -4.368085 -1.881460 0.050787 0
M  V30 20 O -5.519074 -2.430356 0.111555 0
M  V30 21 N -3.315749 -2.657761 -0.462583 0
M  V30 22 C -3.306853 -4.012522 -0.947388 0
M  V30 23 C -3.209676 -3.962018 -2.430037 0
M  V30 24 C -3.989687 -4.756188 -3.259873 0
M  V30 25 C -3.910792 -4.719052 -4.636254 0
M  V30 26 C -3.010843 -3.848880 -5.230786 0
M  V30 27 C -2.259251 -3.080451 -4.335841 0
M  V30 28 N -2.313226 -3.093823 -2.989718 0
M  V30 29 C -2.270099 -4.852114 -0.307009 0
M  V30 30 C -2.063498 -6.273429 -0.638577 0
M  V30 31 C -2.619953 -5.872409 0.746102 0
M  V30 32 C -3.113479 0.198432 0.647950 0
M  V30 33 C -3.010112 1.491693 1.094826 0
M  V30 34 C 0.185500 2.470061 2.115628 0
M  V30 35 C 1.544955 2.255348 2.121848 0
M  V30 36 C 4.861741 0.211760 2.327118 0
M  V30 37 C 5.584647 0.640144 3.605843 0
M  V30 38 H 7.483678 1.980471 5.143625 0
M  V30 39 H 7.758844 2.300668 1.540806 0
M  V30 40 H 7.248382 0.608784 1.257696 0
M  V30 41 H 5.835621 1.776445 -0.080206 0
M  V30 42 H 5.724295 3.197019 0.959379 0
M  V30 43 H 4.155265 2.202703 2.452283 0
M  V30 44 H 1.621120 0.716174 -0.937246 0
M  V30 45 H -0.726409 1.172810 -0.779816 0
M  V30 46 H -4.560675 4.101640 2.184857 0
M  V30 47 H -6.336439 1.977888 1.623207 0
M  V30 48 H -6.405402 -0.301123 0.824401 0
M  V30 49 H -2.371182 -2.181965 -0.506220 0
M  V30 50 H -4.315177 -4.456919 -0.743142 0
M  V30 51 H -4.700552 -5.444993 -2.824808 0
M  V30 52 H -4.500748 -5.320540 -5.306848 0
M  V30 53 H -2.830765 -3.702628 -6.291170 0
M  V30 54 H -1.505962 -2.347924 -4.679775 0
M  V30 55 H -1.309252 -4.299383 -0.081314 0
M  V30 56 H -1.040235 -6.698307 -0.614945 0
M  V30 57 H -2.764327 -6.849321 -1.260831 0
M  V30 58 H -1.927295 -6.002350 1.617575 0
M  V30 59 H -3.717905 -5.999566 0.908069 0
M  V30 60 H -2.202089 -0.326038 0.364714 0
M  V30 61 H -0.127465 2.977961 3.030267 0
M  V30 62 H 2.249538 2.525859 2.887247 0
M  V30 63 H 3.915752 -0.318224 2.570160 0
M  V30 64 H 5.530929 -0.387341 1.707911 0
M  V30 65 H 4.938894 1.326651 4.206999 0
M  V30 66 H 5.921629 -0.242341 4.144849 0
M  V30 END ATOM
M  V30 BEGIN BOND
M  V30 1 2 1 2
M  V30 2 1 2 3
M  V30 3 1 3 4
M  V30 4 1 4 5
M  V30 5 1 5 6
M  V30 6 1 6 7
M  V30 7 1 7 8
M  V30 8 2 8 9
M  V30 9 1 9 10
M  V30 10 2 10 11
M  V30 11 1 11 12
M  V30 12 2 12 13
M  V30 13 1 13 14
M  V30 14 1 14 15
M  V30 15 2 15 16
M  V30 16 1 16 17
M  V30 17 2 17 18
M  V30 18 1 18 19
M  V30 19 2 19 20
M  V30 20 1 19 21
M  V30 21 1 21 22
M  V30 22 1 22 23
M  V30 23 2 23 24
M  V30 24 1 24 25
M  V30 25 2 25 26
M  V30 26 1 26 27
M  V30 27 2 27 28
M  V30 28 1 22 29
M  V30 29 1 29 30
M  V30 30 1 30 31
M  V30 31 1 18 32
M  V30 32 2 32 33
M  V30 33 1 11 34
M  V30 34 2 34 35
M  V30 35 1 6 36
M  V30 36 1 36 37
M  V30 37 1 37 3
M  V30 38 1 35 8
M  V30 39 1 33 12
M  V30 40 1 33 15
M  V30 41 1 28 23
M  V30 42 1 31 29
M  V30 43 1 2 38
M  V30 44 1 4 39
M  V30 45 1 4 40
M  V30 46 1 5 41
M  V30 47 1 5 42
M  V30 48 1 6 43
M  V30 49 1 9 44
M  V30 50 1 10 45
M  V30 51 1 14 46
M  V30 52 1 16 47
M  V30 53 1 17 48
M  V30 54 1 21 49
M  V30 55 1 22 50
M  V30 56 1 24 51
M  V30 57 1 25 52
M  V30 58 1 26 53
M  V30 59 1 27 54
M  V30 60 1 29 55
M  V30 61 1 30 56
M  V30 62 1 30 57
M  V30 63 1 31 58
M  V30 64 1 31 59
M  V30 65 1 32 60
M  V30 66 1 34 61
M  V30 67 1 35 62
M  V30 68 1 36 63
M  V30 69 1 36 64
M  V30 70 1 37 65
M  V30 71 1 37 66
M  V30 END BOND
M  V30 END CTAB
M  END
>  <Dataset>  (453) 
ChEMBL_Kinases

>  <Ligand_Instance>  (453) 
nan

>  <PDB_ID>  (453) 
nan

>  <Standardized_SMILES>  (453) 
O=CN1CCC(Oc2ccc(-c3n[nH]c4ccc(C(=O)NC(c5ccccn5)C5CC5)cc34)cc2)CC1

>  <Name>  (453) 
nan

>  <Pocket>  (453) 
nan

>  <ATP_Site>  (453) 
nan

>  <Peripheral>  (453) 
nan

>  <Num_H_Atoms_ProtBoundConf>  (453) 
nan

>  <Num_Resolved_Atoms>  (453) 
nan

>  <Num_Not_Resolved_Atoms>  (453) 
nan

$$$$
CHEMBL3422083
     RDKit          3D

  0  0  0  0  0  0  0  0  0  0999 V3000
M  V30 BEGIN CTAB
M  V30 COUNTS 68 73 0 0 0
M  V30 BEGIN ATOM
M  V30 1 C 2.849015 0.751624 5.359079 0
M  V30 2 C 2.392802 0.965909 3.948764 0
M  V30 3 C 2.420404 2.438230 3.578886 0
M  V30 4 C 3.282129 0.244719 2.980528 0 CFG=2
M  V30 5 N 2.780693 0.495264 1.641740 0
M  V30 6 C 3.483363 1.205418 0.659825 0
M  V30 7 O 4.624069 1.672157 0.913953 0
M  V30 8 C 2.972242 1.453085 -0.684596 0
M  V30 9 C 3.749799 2.166563 -1.573073 0
M  V30 10 C 3.361609 2.460776 -2.880645 0
M  V30 11 C 2.119808 2.012227 -3.321922 0
M  V30 12 N 1.421758 2.097808 -4.479133 0
M  V30 13 N 0.252055 1.460024 -4.315166 0
M  V30 14 C 0.171325 0.957108 -3.068474 0
M  V30 15 C -1.002608 0.212666 -2.623095 0
M  V30 16 C -0.803436 -0.961229 -1.924399 0
M  V30 17 C -1.840277 -1.744842 -1.455726 0
M  V30 18 C -3.149671 -1.369574 -1.676687 0
M  V30 19 N -4.292852 -2.096942 -1.241226 0
M  V30 20 C -5.683413 -1.779778 -1.428942 0
M  V30 21 C -6.267966 -3.136425 -1.835928 0
M  V30 22 C -5.278781 -4.165843 -1.357364 0
M  V30 23 C -4.337954 -3.343300 -0.497098 0
M  V30 24 C -4.922536 -3.048151 0.870136 0
M  V30 25 O -5.435327 -1.774159 0.963199 0
M  V30 26 C -6.278302 -1.445481 -0.080599 0
M  V30 27 C -3.358352 -0.195992 -2.375202 0
M  V30 28 C -2.312593 0.600748 -2.851693 0
M  V30 29 C 1.346492 1.299234 -2.429155 0
M  V30 30 C 1.744350 1.016166 -1.138690 0
M  V30 31 C 3.455931 -1.187011 3.248471 0
M  V30 32 C 2.460641 -2.009855 2.735108 0
M  V30 33 C 2.508947 -3.362723 2.925675 0
M  V30 34 C 3.544201 -3.973615 3.634105 0
M  V30 35 C 4.534639 -3.163956 4.145927 0
M  V30 36 C 4.473754 -1.802181 3.946439 0
M  V30 37 Cl 5.719387 -0.757967 4.576433 0
M  V30 38 H 2.947246 -0.320365 5.601211 0
M  V30 39 H 2.092448 1.183080 6.081102 0
M  V30 40 H 3.788125 1.318206 5.526351 0
M  V30 41 H 1.330013 0.641433 3.794330 0
M  V30 42 H 2.070406 3.076532 4.392555 0
M  V30 43 H 1.766264 2.568967 2.678874 0
M  V30 44 H 3.464435 2.693555 3.278903 0
M  V30 45 H 4.290369 0.727577 3.014071 0
M  V30 46 H 1.849064 0.124344 1.407422 0
M  V30 47 H 4.731110 2.557168 -1.321779 0
M  V30 48 H 3.990213 3.022606 -3.558558 0
M  V30 49 H 1.753197 2.580559 -5.338721 0
M  V30 50 H 0.170439 -1.388230 -1.672217 0
M  V30 51 H -1.710714 -2.667452 -0.906594 0
M  V30 52 H -5.888143 -1.012103 -2.189031 0
M  V30 53 H -6.387352 -3.167031 -2.926769 0
M  V30 54 H -7.220000 -3.329744 -1.275274 0
M  V30 55 H -5.716435 -4.999664 -0.808422 0
M  V30 56 H -4.682835 -4.481724 -2.245930 0
M  V30 57 H -3.336931 -3.800317 -0.424754 0
M  V30 58 H -4.080820 -3.137566 1.604072 0
M  V30 59 H -5.654407 -3.846702 1.094505 0
M  V30 60 H -7.235074 -2.021505 0.083965 0
M  V30 61 H -6.527567 -0.387313 0.004827 0
M  V30 62 H -4.327447 0.228672 -2.626272 0
M  V30 63 H -2.446325 1.512530 -3.394424 0
M  V30 64 H 1.116356 0.456807 -0.465996 0
M  V30 65 H 1.580939 -1.749380 2.163986 0
M  V30 66 H 1.783522 -4.105465 2.568478 0
M  V30 67 H 3.615654 -5.047881 3.805786 0
M  V30 68 H 5.351683 -3.601159 4.699612 0
M  V30 END ATOM
M  V30 BEGIN BOND
M  V30 1 1 1 2
M  V30 2 1 2 3
M  V30 3 1 2 4
M  V30 4 1 4 5
M  V30 5 1 5 6
M  V30 6 2 6 7
M  V30 7 1 6 8
M  V30 8 2 8 9
M  V30 9 1 9 10
M  V30 10 2 10 11
M  V30 11 1 11 12
M  V30 12 1 12 13
M  V30 13 2 13 14
M  V30 14 1 14 15
M  V30 15 2 15 16
M  V30 16 1 16 17
M  V30 17 2 17 18
M  V30 18 1 18 19
M  V30 19 1 19 20
M  V30 20 1 20 21
M  V30 21 1 21 22
M  V30 22 1 22 23
M  V30 23 1 23 24
M  V30 24 1 24 25
M  V30 25 1 25 26
M  V30 26 1 18 27
M  V30 27 2 27 28
M  V30 28 1 14 29
M  V30 29 2 29 30
M  V30 30 1 4 31
M  V30 31 2 31 32
M  V30 32 1 32 33
M  V30 33 2 33 34
M  V30 34 1 34 35
M  V30 35 2 35 36
M  V30 36 1 36 37
M  V30 37 1 30 8
M  V30 38 1 36 31
M  V30 39 1 29 11
M  V30 40 1 28 15
M  V30 41 1 23 19
M  V30 42 1 26 20
M  V30 43 1 1 38
M  V30 44 1 1 39
M  V30 45 1 1 40
M  V30 46 1 2 41
M  V30 47 1 3 42
M  V30 48 1 3 43
M  V30 49 1 3 44
M  V30 50 1 4 45 CFG=3
M  V30 51 1 5 46
M  V30 52 1 9 47
M  V30 53 1 10 48
M  V30 54 1 12 49
M  V30 55 1 16 50
M  V30 56 1 17 51
M  V30 57 1 20 52
M  V30 58 1 21 53
M  V30 59 1 21 54
M  V30 60 1 22 55
M  V30 61 1 22 56
M  V30 62 1 23 57
M  V30 63 1 24 58
M  V30 64 1 24 59
M  V30 65 1 26 60
M  V30 66 1 26 61
M  V30 67 1 27 62
M  V30 68 1 28 63
M  V30 69 1 30 64
M  V30 70 1 32 65
M  V30 71 1 33 66
M  V30 72 1 34 67
M  V30 73 1 35 68
M  V30 END BOND
M  V30 END CTAB
M  END
>  <Dataset>  (454) 
ChEMBL_Kinases

>  <Ligand_Instance>  (454) 
nan

>  <PDB_ID>  (454) 
nan

>  <Standardized_SMILES>  (454) 
CC(C)[C@H](NC(=O)c1ccc2[nH]nc(-c3ccc(N4C5CCC4COC5)cc3)c2c1)c1ccccc1Cl

>  <Name>  (454) 
nan

>  <Pocket>  (454) 
nan

>  <ATP_Site>  (454) 
nan

>  <Peripheral>  (454) 
nan

>  <Num_H_Atoms_ProtBoundConf>  (454) 
nan

>  <Num_Resolved_Atoms>  (454) 
nan

>  <Num_Not_Resolved_Atoms>  (454) 
nan

$$$$
CHEMBL3422075
     RDKit          3D

  0  0  0  0  0  0  0  0  0  0999 V3000
M  V30 BEGIN CTAB
M  V30 COUNTS 72 78 0 0 0
M  V30 BEGIN ATOM
M  V30 1 C 3.298013 2.592804 8.275756 0
M  V30 2 N 2.276534 2.715336 7.255490 0
M  V30 3 C 2.070224 1.456498 6.521785 0 CFG=2
M  V30 4 C 3.357751 1.265079 5.751632 0
M  V30 5 C 3.801302 2.710147 5.506844 0
M  V30 6 C 2.753681 3.555470 6.162118 0 CFG=1
M  V30 7 C 1.632718 3.901910 5.238953 0
M  V30 8 C 1.118399 2.650953 4.551641 0 CFG=1
M  V30 9 O 1.972342 2.192981 3.558507 0
M  V30 10 C 1.651780 1.971599 2.229256 0
M  V30 11 C 0.463051 2.094617 1.536115 0
M  V30 12 C 0.452943 1.794301 0.195206 0
M  V30 13 C 1.555078 1.382821 -0.489532 0
M  V30 14 C 1.512405 1.064507 -1.911870 0
M  V30 15 N 2.418804 1.512413 -2.793851 0
M  V30 16 N 2.172424 1.070535 -4.020781 0
M  V30 17 C 1.060089 0.298740 -3.958926 0
M  V30 18 C 0.371121 -0.411744 -4.942666 0
M  V30 19 C -0.726308 -1.094955 -4.475449 0
M  V30 20 C -1.194747 -1.144990 -3.181354 0
M  V30 21 C -2.347188 -1.910509 -2.731854 0
M  V30 22 O -2.841932 -1.781126 -1.608512 0
M  V30 23 N -2.919286 -2.857883 -3.647879 0
M  V30 24 C -4.065663 -3.730697 -3.412874 0
M  V30 25 C -3.617016 -5.115127 -3.082773 0
M  V30 26 C -4.198917 -5.854959 -2.058024 0
M  V30 27 C -3.741032 -7.138737 -1.773472 0
M  V30 28 C -2.716008 -7.616500 -2.538374 0
M  V30 29 C -2.063714 -6.982525 -3.572890 0
M  V30 30 C -2.587347 -5.696655 -3.792606 0
M  V30 31 C -5.089111 -3.660303 -4.483840 0
M  V30 32 C -4.796370 -3.997861 -5.896656 0
M  V30 33 C -5.755088 -4.848703 -5.052562 0
M  V30 34 C -0.465822 -0.415552 -2.248275 0
M  V30 35 C 0.640719 0.291245 -2.636336 0
M  V30 36 C 2.773152 1.251513 0.189278 0
M  V30 37 C 2.793260 1.552883 1.554472 0
M  V30 38 C 0.868296 1.635792 5.645030 0
M  V30 39 H 4.000315 3.445087 8.138810 0
M  V30 40 H 2.807928 2.775858 9.274230 0
M  V30 41 H 3.799694 1.621653 8.238660 0
M  V30 42 H 1.947298 0.622323 7.247672 0
M  V30 43 H 4.114964 0.716946 6.370370 0
M  V30 44 H 3.215776 0.717895 4.813086 0
M  V30 45 H 3.982889 2.924435 4.449606 0
M  V30 46 H 4.757355 2.893256 6.081529 0
M  V30 47 H 3.212008 4.468300 6.600124 0
M  V30 48 H 1.937565 4.620643 4.467201 0
M  V30 49 H 0.798306 4.356120 5.857150 0
M  V30 50 H 0.111829 2.929950 4.121436 0
M  V30 51 H -0.328545 2.430833 2.182887 0
M  V30 52 H -0.519073 1.914364 -0.282814 0
M  V30 53 H 2.721535 1.269094 -4.907237 0
M  V30 54 H 0.671405 -0.419359 -5.978384 0
M  V30 55 H -1.280991 -1.659248 -5.236366 0
M  V30 56 H -2.595290 -3.060310 -4.614604 0
M  V30 57 H -4.520216 -3.375131 -2.462310 0
M  V30 58 H -4.996015 -5.327229 -1.561416 0
M  V30 59 H -4.220002 -7.669608 -0.976977 0
M  V30 60 H -2.351032 -8.632315 -2.311267 0
M  V30 61 H -1.261661 -7.408046 -4.140317 0
M  V30 62 H -2.148470 -5.092748 -4.590875 0
M  V30 63 H -5.743179 -2.766423 -4.380351 0
M  V30 64 H -5.288853 -3.429017 -6.724944 0
M  V30 65 H -3.834965 -4.427472 -6.214782 0
M  V30 66 H -6.834417 -4.823351 -5.307866 0
M  V30 67 H -5.381528 -5.882468 -4.917816 0
M  V30 68 H -0.785332 -0.420003 -1.223532 0
M  V30 69 H 3.620429 0.925122 -0.386832 0
M  V30 70 H 3.795195 1.406737 1.951531 0
M  V30 71 H 0.043854 2.042784 6.279382 0
M  V30 72 H 0.544956 0.689880 5.154922 0
M  V30 END ATOM
M  V30 BEGIN BOND
M  V30 1 1 1 2
M  V30 2 1 2 3
M  V30 3 1 3 4
M  V30 4 1 4 5
M  V30 5 1 5 6
M  V30 6 1 6 7
M  V30 7 1 7 8
M  V30 8 1 8 9
M  V30 9 1 9 10
M  V30 10 2 10 11
M  V30 11 1 11 12
M  V30 12 2 12 13
M  V30 13 1 13 14
M  V30 14 2 14 15
M  V30 15 1 15 16
M  V30 16 1 16 17
M  V30 17 2 17 18
M  V30 18 1 18 19
M  V30 19 2 19 20
M  V30 20 1 20 21
M  V30 21 2 21 22
M  V30 22 1 21 23
M  V30 23 1 23 24
M  V30 24 1 24 25
M  V30 25 2 25 26
M  V30 26 1 26 27
M  V30 27 2 27 28
M  V30 28 1 28 29
M  V30 29 2 29 30
M  V30 30 1 24 31
M  V30 31 1 31 32
M  V30 32 1 32 33
M  V30 33 1 20 34
M  V30 34 2 34 35
M  V30 35 1 13 36
M  V30 36 2 36 37
M  V30 37 1 8 38
M  V30 38 1 6 2
M  V30 39 1 37 10
M  V30 40 1 38 3
M  V30 41 1 35 14
M  V30 42 1 35 17
M  V30 43 1 30 25
M  V30 44 1 33 31
M  V30 45 1 1 39
M  V30 46 1 1 40
M  V30 47 1 1 41
M  V30 48 1 3 42 CFG=1
M  V30 49 1 4 43
M  V30 50 1 4 44
M  V30 51 1 5 45
M  V30 52 1 5 46
M  V30 53 1 6 47 CFG=1
M  V30 54 1 7 48
M  V30 55 1 7 49
M  V30 56 1 8 50 CFG=3
M  V30 57 1 11 51
M  V30 58 1 12 52
M  V30 59 1 16 53
M  V30 60 1 18 54
M  V30 61 1 19 55
M  V30 62 1 23 56
M  V30 63 1 24 57
M  V30 64 1 26 58
M  V30 65 1 27 59
M  V30 66 1 28 60
M  V30 67 1 29 61
M  V30 68 1 30 62
M  V30 69 1 31 63
M  V30 70 1 32 64
M  V30 71 1 32 65
M  V30 72 1 33 66
M  V30 73 1 33 67
M  V30 74 1 34 68
M  V30 75 1 36 69
M  V30 76 1 37 70
M  V30 77 1 38 71
M  V30 78 1 38 72
M  V30 END BOND
M  V30 END CTAB
M  END
>  <Dataset>  (455) 
ChEMBL_Kinases

>  <Ligand_Instance>  (455) 
nan

>  <PDB_ID>  (455) 
nan

>  <Standardized_SMILES>  (455) 
CN1[C@@H]2CC[C@H]1C[C@@H](Oc1ccc(-c3n[nH]c4ccc(C(=O)NC(c5ccccc5)C5CC5)cc34)cc1)C2

>  <Name>  (455) 
nan

>  <Pocket>  (455) 
nan

>  <ATP_Site>  (455) 
nan

>  <Peripheral>  (455) 
nan

>  <Num_H_Atoms_ProtBoundConf>  (455) 
nan

>  <Num_Resolved_Atoms>  (455) 
nan

>  <Num_Not_Resolved_Atoms>  (455) 
nan

$$$$
CHEMBL3422076
     RDKit          3D

  0  0  0  0  0  0  0  0  0  0999 V3000
M  V30 BEGIN CTAB
M  V30 COUNTS 72 78 0 0 0
M  V30 BEGIN ATOM
M  V30 1 C -2.032123 5.170823 -4.973303 0
M  V30 2 N -1.016212 4.223169 -5.281628 0
M  V30 3 C -0.131297 3.882443 -4.208082 0 CFG=2
M  V30 4 C 0.825677 2.934014 -4.912815 0
M  V30 5 C -0.122806 2.181938 -5.826530 0
M  V30 6 C -1.452771 2.950945 -5.760189 0 CFG=1
M  V30 7 C -2.300300 2.177466 -4.774007 0
M  V30 8 C -1.611935 2.005561 -3.446739 0 CFG=2
M  V30 9 O -2.590209 1.734989 -2.470931 0
M  V30 10 C -2.696961 0.598543 -1.710603 0
M  V30 11 C -3.785919 0.675141 -0.826178 0
M  V30 12 C -4.057631 -0.375863 0.024268 0
M  V30 13 C -3.312438 -1.533938 0.070493 0
M  V30 14 C -3.531162 -2.686903 0.932946 0
M  V30 15 N -4.700051 -3.295247 1.184059 0
M  V30 16 N -4.534647 -4.313834 2.016347 0
M  V30 17 C -3.213527 -4.415180 2.352187 0
M  V30 18 C -2.547488 -5.316655 3.189115 0
M  V30 19 C -1.165905 -5.123165 3.304034 0
M  V30 20 C -0.550078 -4.102151 2.621672 0
M  V30 21 C 0.882360 -4.079591 2.878576 0
M  V30 22 O 1.475303 -4.891992 3.613031 0
M  V30 23 N 1.598827 -3.027123 2.213568 0
M  V30 24 C 3.027465 -2.790700 2.309520 0
M  V30 25 C 3.362935 -1.479797 2.913478 0
M  V30 26 C 2.675234 -0.304328 2.580147 0
M  V30 27 C 3.083822 0.848633 3.211917 0
M  V30 28 C 4.094446 0.970757 4.135111 0
M  V30 29 C 4.789266 -0.201268 4.476106 0
M  V30 30 C 4.384335 -1.349573 3.848504 0
M  V30 31 C 3.725366 -2.920770 0.998069 0
M  V30 32 C 3.348057 -2.059155 -0.129188 0
M  V30 33 C 3.159987 -3.577610 -0.182376 0
M  V30 34 C -1.223884 -3.228370 1.805391 0
M  V30 35 C -2.583860 -3.376163 1.658153 0
M  V30 36 C -2.251673 -1.581345 -0.807257 0
M  V30 37 C -1.942420 -0.553272 -1.676599 0
M  V30 38 C -0.815745 3.215550 -3.040809 0
M  V30 39 H -3.065745 4.815098 -5.156458 0
M  V30 40 H -1.971758 5.428638 -3.897663 0
M  V30 41 H -1.916328 6.121724 -5.534466 0
M  V30 42 H 0.367811 4.792684 -3.819793 0
M  V30 43 H 1.350947 2.273396 -4.207737 0
M  V30 44 H 1.480896 3.550341 -5.551252 0
M  V30 45 H -0.216979 1.154778 -5.421668 0
M  V30 46 H 0.263984 2.123085 -6.864443 0
M  V30 47 H -1.952708 2.962774 -6.726443 0
M  V30 48 H -3.290190 2.663486 -4.671428 0
M  V30 49 H -2.480324 1.177821 -5.218928 0
M  V30 50 H -0.928010 1.135741 -3.486011 0
M  V30 51 H -4.473343 1.512136 -0.733059 0
M  V30 52 H -4.896192 -0.343693 0.721972 0
M  V30 53 H -5.334666 -4.918151 2.336001 0
M  V30 54 H -3.097302 -6.090390 3.694028 0
M  V30 55 H -0.700541 -5.849111 3.963735 0
M  V30 56 H 1.289492 -2.270399 1.576844 0
M  V30 57 H 3.471480 -3.563529 3.011349 0
M  V30 58 H 1.874962 -0.329971 1.864675 0
M  V30 59 H 2.571938 1.798826 2.981819 0
M  V30 60 H 4.369104 1.905677 4.598448 0
M  V30 61 H 5.600716 -0.219175 5.189785 0
M  V30 62 H 4.933804 -2.268469 4.119669 0
M  V30 63 H 4.841848 -3.051279 1.130378 0
M  V30 64 H 4.108280 -1.637304 -0.832659 0
M  V30 65 H 2.413454 -1.453446 -0.165582 0
M  V30 66 H 2.122800 -3.914392 -0.263837 0
M  V30 67 H 3.848338 -4.142344 -0.854357 0
M  V30 68 H -0.681373 -2.447850 1.298774 0
M  V30 69 H -1.549161 -2.398254 -0.928475 0
M  V30 70 H -1.124024 -0.543029 -2.382413 0
M  V30 71 H -0.036247 2.965762 -2.294702 0
M  V30 72 H -1.476061 3.976199 -2.576866 0
M  V30 END ATOM
M  V30 BEGIN BOND
M  V30 1 1 1 2
M  V30 2 1 2 3
M  V30 3 1 3 4
M  V30 4 1 4 5
M  V30 5 1 5 6
M  V30 6 1 6 7
M  V30 7 1 7 8
M  V30 8 1 8 9
M  V30 9 1 9 10
M  V30 10 2 10 11
M  V30 11 1 11 12
M  V30 12 2 12 13
M  V30 13 1 13 14
M  V30 14 2 14 15
M  V30 15 1 15 16
M  V30 16 1 16 17
M  V30 17 2 17 18
M  V30 18 1 18 19
M  V30 19 2 19 20
M  V30 20 1 20 21
M  V30 21 2 21 22
M  V30 22 1 21 23
M  V30 23 1 23 24
M  V30 24 1 24 25
M  V30 25 2 25 26
M  V30 26 1 26 27
M  V30 27 2 27 28
M  V30 28 1 28 29
M  V30 29 2 29 30
M  V30 30 1 24 31
M  V30 31 1 31 32
M  V30 32 1 32 33
M  V30 33 1 20 34
M  V30 34 2 34 35
M  V30 35 1 13 36
M  V30 36 2 36 37
M  V30 37 1 8 38
M  V30 38 1 6 2
M  V30 39 1 37 10
M  V30 40 1 38 3
M  V30 41 1 35 14
M  V30 42 1 35 17
M  V30 43 1 30 25
M  V30 44 1 33 31
M  V30 45 1 1 39
M  V30 46 1 1 40
M  V30 47 1 1 41
M  V30 48 1 3 42 CFG=1
M  V30 49 1 4 43
M  V30 50 1 4 44
M  V30 51 1 5 45
M  V30 52 1 5 46
M  V30 53 1 6 47 CFG=3
M  V30 54 1 7 48
M  V30 55 1 7 49
M  V30 56 1 8 50 CFG=3
M  V30 57 1 11 51
M  V30 58 1 12 52
M  V30 59 1 16 53
M  V30 60 1 18 54
M  V30 61 1 19 55
M  V30 62 1 23 56
M  V30 63 1 24 57
M  V30 64 1 26 58
M  V30 65 1 27 59
M  V30 66 1 28 60
M  V30 67 1 29 61
M  V30 68 1 30 62
M  V30 69 1 31 63
M  V30 70 1 32 64
M  V30 71 1 32 65
M  V30 72 1 33 66
M  V30 73 1 33 67
M  V30 74 1 34 68
M  V30 75 1 36 69
M  V30 76 1 37 70
M  V30 77 1 38 71
M  V30 78 1 38 72
M  V30 END BOND
M  V30 END CTAB
M  END
>  <Dataset>  (456) 
ChEMBL_Kinases

>  <Ligand_Instance>  (456) 
nan

>  <PDB_ID>  (456) 
nan

>  <Standardized_SMILES>  (456) 
CN1[C@@H]2CC[C@H]1C[C@H](Oc1ccc(-c3n[nH]c4ccc(C(=O)NC(c5ccccc5)C5CC5)cc34)cc1)C2

>  <Name>  (456) 
nan

>  <Pocket>  (456) 
nan

>  <ATP_Site>  (456) 
nan

>  <Peripheral>  (456) 
nan

>  <Num_H_Atoms_ProtBoundConf>  (456) 
nan

>  <Num_Resolved_Atoms>  (456) 
nan

>  <Num_Not_Resolved_Atoms>  (456) 
nan

$$$$
CHEMBL3422077
     RDKit          3D

  0  0  0  0  0  0  0  0  0  0999 V3000
M  V30 BEGIN CTAB
M  V30 COUNTS 71 77 0 0 0
M  V30 BEGIN ATOM
M  V30 1 O 6.006484 -2.398620 3.778280 0
M  V30 2 C 5.061028 -2.235131 4.620274 0
M  V30 3 N 4.511806 -1.008821 4.228106 0
M  V30 4 C 4.933057 -0.175657 3.103520 0 CFG=2
M  V30 5 C 4.841203 1.211347 3.695962 0
M  V30 6 C 4.209495 1.063891 5.078885 0
M  V30 7 C 3.436044 -0.255856 4.829377 0 CFG=1
M  V30 8 C 2.267990 0.018234 3.969949 0
M  V30 9 C 2.509850 0.003059 2.484240 0 CFG=1
M  V30 10 O 2.211785 1.268798 1.890383 0
M  V30 11 C 0.960806 1.540150 1.359014 0
M  V30 12 C -0.200064 0.746554 1.375876 0
M  V30 13 C -1.338625 1.228112 0.775172 0
M  V30 14 C -1.415124 2.438702 0.156507 0
M  V30 15 C -2.689074 2.806810 -0.473151 0
M  V30 16 N -3.439823 3.897440 -0.442698 0
M  V30 17 N -4.499877 3.798968 -1.246375 0
M  V30 18 C -4.388774 2.557989 -1.811811 0
M  V30 19 C -5.223515 1.933387 -2.747665 0
M  V30 20 C -4.902018 0.642665 -3.200952 0
M  V30 21 C -3.776117 -0.030190 -2.740659 0
M  V30 22 C -3.557478 -1.367725 -3.239663 0
M  V30 23 O -4.112406 -1.911301 -4.201452 0
M  V30 24 N -2.610190 -2.133006 -2.548186 0
M  V30 25 C -2.057321 -3.483509 -2.639666 0
M  V30 26 C -0.611767 -3.489906 -2.920425 0
M  V30 27 C 0.178062 -4.351829 -2.215851 0
M  V30 28 C 1.524181 -4.317775 -2.528210 0
M  V30 29 S 1.708401 -3.010592 -3.889233 0
M  V30 30 C -0.053859 -2.615860 -3.921316 0
M  V30 31 C -2.480634 -4.311313 -1.464133 0
M  V30 32 C -4.001193 -4.411698 -1.428026 0
M  V30 33 C -3.988210 -3.423958 -0.313364 0
M  V30 34 C -2.508209 -3.674665 -0.112662 0
M  V30 35 C -3.029472 0.658344 -1.837203 0
M  V30 36 C -3.268592 1.912529 -1.346714 0
M  V30 37 C -0.291415 3.350977 0.070235 0
M  V30 38 C 0.737615 2.704218 0.717112 0
M  V30 39 C 3.869062 -0.403119 2.050279 0
M  V30 40 H 5.468689 -3.184764 4.942106 0
M  V30 41 H 5.898514 -0.444888 2.686878 0
M  V30 42 H 5.815669 1.707743 3.831236 0
M  V30 43 H 4.152086 1.865682 3.133622 0
M  V30 44 H 4.985450 0.932179 5.853394 0
M  V30 45 H 3.522756 1.852940 5.349238 0
M  V30 46 H 3.127350 -0.653830 5.805135 0
M  V30 47 H 1.449817 -0.681271 4.287767 0
M  V30 48 H 1.872464 1.034184 4.228827 0
M  V30 49 H 1.766732 -0.715356 2.087868 0
M  V30 50 H -0.128003 -0.192455 1.860934 0
M  V30 51 H -2.204340 0.555047 0.849087 0
M  V30 52 H -5.265635 4.483943 -1.428629 0
M  V30 53 H -6.103523 2.391940 -3.151926 0
M  V30 54 H -5.557654 0.196710 -3.929230 0
M  V30 55 H -2.032829 -1.850338 -1.727851 0
M  V30 56 H -2.543243 -3.924372 -3.543253 0
M  V30 57 H -0.030828 -5.062919 -1.456058 0
M  V30 58 H 2.566537 -4.691889 -2.348314 0
M  V30 59 H -0.766686 -1.901637 -4.489819 0
M  V30 60 H -2.026793 -5.310680 -1.480245 0
M  V30 61 H -4.515713 -4.067769 -2.349134 0
M  V30 62 H -4.411190 -5.388982 -1.131196 0
M  V30 63 H -4.644568 -3.663441 0.569624 0
M  V30 64 H -4.247088 -2.411050 -0.643045 0
M  V30 65 H -1.868809 -2.815957 0.092878 0
M  V30 66 H -2.410675 -4.432620 0.714865 0
M  V30 67 H -2.147720 0.161826 -1.464023 0
M  V30 68 H -0.334212 4.287884 -0.409491 0
M  V30 69 H 1.611465 3.402830 0.655909 0
M  V30 70 H 4.208148 0.120625 1.125628 0
M  V30 71 H 3.907995 -1.500388 1.833065 0
M  V30 END ATOM
M  V30 BEGIN BOND
M  V30 1 2 1 2
M  V30 2 1 2 3
M  V30 3 1 3 4
M  V30 4 1 4 5
M  V30 5 1 5 6
M  V30 6 1 6 7
M  V30 7 1 7 8
M  V30 8 1 8 9
M  V30 9 1 9 10
M  V30 10 1 10 11
M  V30 11 2 11 12
M  V30 12 1 12 13
M  V30 13 2 13 14
M  V30 14 1 14 15
M  V30 15 2 15 16
M  V30 16 1 16 17
M  V30 17 1 17 18
M  V30 18 2 18 19
M  V30 19 1 19 20
M  V30 20 2 20 21
M  V30 21 1 21 22
M  V30 22 2 22 23
M  V30 23 1 22 24
M  V30 24 1 24 25
M  V30 25 1 25 26
M  V30 26 1 26 27
M  V30 27 2 27 28
M  V30 28 1 28 29
M  V30 29 1 29 30
M  V30 30 1 25 31
M  V30 31 1 31 32
M  V30 32 1 32 33
M  V30 33 1 33 34
M  V30 34 1 21 35
M  V30 35 2 35 36
M  V30 36 1 14 37
M  V30 37 2 37 38
M  V30 38 1 9 39
M  V30 39 1 7 3
M  V30 40 1 38 11
M  V30 41 1 39 4
M  V30 42 1 36 15
M  V30 43 1 36 18
M  V30 44 2 30 26
M  V30 45 1 34 31
M  V30 46 1 2 40
M  V30 47 1 4 41 CFG=3
M  V30 48 1 5 42
M  V30 49 1 5 43
M  V30 50 1 6 44
M  V30 51 1 6 45
M  V30 52 1 7 46 CFG=1
M  V30 53 1 8 47
M  V30 54 1 8 48
M  V30 55 1 9 49 CFG=3
M  V30 56 1 12 50
M  V30 57 1 13 51
M  V30 58 1 17 52
M  V30 59 1 19 53
M  V30 60 1 20 54
M  V30 61 1 24 55
M  V30 62 1 25 56
M  V30 63 1 27 57
M  V30 64 1 28 58
M  V30 65 1 30 59
M  V30 66 1 31 60
M  V30 67 1 32 61
M  V30 68 1 32 62
M  V30 69 1 33 63
M  V30 70 1 33 64
M  V30 71 1 34 65
M  V30 72 1 34 66
M  V30 73 1 35 67
M  V30 74 1 37 68
M  V30 75 1 38 69
M  V30 76 1 39 70
M  V30 77 1 39 71
M  V30 END BOND
M  V30 END CTAB
M  END
>  <Dataset>  (457) 
ChEMBL_Kinases

>  <Ligand_Instance>  (457) 
nan

>  <PDB_ID>  (457) 
nan

>  <Standardized_SMILES>  (457) 
O=CN1[C@@H]2CC[C@H]1C[C@@H](Oc1ccc(-c3n[nH]c4ccc(C(=O)NC(c5ccsc5)C5CCC5)cc34)cc1)C2

>  <Name>  (457) 
nan

>  <Pocket>  (457) 
nan

>  <ATP_Site>  (457) 
nan

>  <Peripheral>  (457) 
nan

>  <Num_H_Atoms_ProtBoundConf>  (457) 
nan

>  <Num_Resolved_Atoms>  (457) 
nan

>  <Num_Not_Resolved_Atoms>  (457) 
nan

$$$$
CHEMBL3422078
     RDKit          3D

  0  0  0  0  0  0  0  0  0  0999 V3000
M  V30 BEGIN CTAB
M  V30 COUNTS 75 80 0 0 0
M  V30 BEGIN ATOM
M  V30 1 C 2.435482 -2.414333 1.282934 0
M  V30 2 C 2.769667 -2.456842 -0.169511 0
M  V30 3 C 2.740635 -3.931773 -0.592863 0
M  V30 4 C 4.086724 -1.909961 -0.566952 0
M  V30 5 C 4.362395 -0.484996 -0.271471 0
M  V30 6 N 3.420362 0.448888 -0.912155 0
M  V30 7 C 3.637472 1.423047 -1.923765 0
M  V30 8 O 4.784397 1.593450 -2.415494 0
M  V30 9 C 2.540537 2.219751 -2.389280 0
M  V30 10 C 2.843680 3.185549 -3.351401 0
M  V30 11 C 1.856483 4.022138 -3.886016 0
M  V30 12 C 0.546908 3.899415 -3.459986 0
M  V30 13 N -0.598687 4.531829 -3.769422 0
M  V30 14 N -1.571735 3.995504 -3.044040 0
M  V30 15 C -1.065018 3.010033 -2.257412 0
M  V30 16 C -1.915746 2.257573 -1.365330 0
M  V30 17 C -2.884559 2.711306 -0.502550 0
M  V30 18 C -3.614242 1.830077 0.281335 0
M  V30 19 C -3.408411 0.445203 0.239129 0
M  V30 20 O -4.272047 -0.171208 1.120374 0
M  V30 21 C -4.263363 -1.550014 1.264284 0 CFG=1
M  V30 22 C -3.920281 -1.976662 2.697560 0
M  V30 23 C -3.784442 -3.480942 2.649881 0 CFG=1
M  V30 24 C -4.997198 -4.106581 3.324060 0
M  V30 25 C -6.025704 -4.270498 2.214846 0
M  V30 26 C -5.333731 -3.710937 0.964591 0 CFG=1
M  V30 27 C -5.595225 -2.198526 0.949470 0
M  V30 28 N -3.954682 -4.015636 1.297547 0
M  V30 29 C -3.081454 -4.695562 0.394096 0
M  V30 30 O -3.614702 -4.998525 -0.698930 0
M  V30 31 C -2.434715 -0.001994 -0.628940 0
M  V30 32 C -1.710730 0.873873 -1.406811 0
M  V30 33 C 0.288547 2.934373 -2.509387 0
M  V30 34 C 1.250027 2.109635 -1.979286 0
M  V30 35 C 4.662644 -0.142225 1.119719 0
M  V30 36 C 5.976494 -0.247677 1.602674 0
M  V30 37 C 6.339954 0.068354 2.906592 0
M  V30 38 C 5.371802 0.507255 3.774425 0
M  V30 39 C 4.110679 0.585775 3.232632 0
M  V30 40 N 3.724500 0.289339 1.980752 0
M  V30 41 H 3.302984 -2.456693 1.948019 0
M  V30 42 H 1.830448 -3.333838 1.558587 0
M  V30 43 H 1.722646 -1.579411 1.515270 0
M  V30 44 H 1.984676 -1.965457 -0.794869 0
M  V30 45 H 3.777477 -4.296535 -0.726590 0
M  V30 46 H 2.181362 -4.094045 -1.524702 0
M  V30 47 H 2.289185 -4.573646 0.210454 0
M  V30 48 H 4.185049 -2.046949 -1.668785 0
M  V30 49 H 4.921161 -2.506638 -0.138286 0
M  V30 50 H 5.332132 -0.255949 -0.833576 0
M  V30 51 H 2.512414 0.252540 -0.460060 0
M  V30 52 H 3.850418 3.345343 -3.739452 0
M  V30 53 H 2.085000 4.759904 -4.619887 0
M  V30 54 H -0.632135 5.311488 -4.479384 0
M  V30 55 H -2.999326 3.782044 -0.511658 0
M  V30 56 H -4.328971 2.375642 0.894733 0
M  V30 57 H -3.524676 -2.085906 0.639117 0
M  V30 58 H -4.743729 -1.653051 3.378713 0
M  V30 59 H -2.975316 -1.489497 3.014857 0
M  V30 60 H -2.839825 -3.834353 3.097659 0
M  V30 61 H -5.363517 -3.538556 4.184326 0
M  V30 62 H -4.661819 -5.129025 3.629228 0
M  V30 63 H -6.919433 -3.659763 2.360692 0
M  V30 64 H -6.237686 -5.341105 2.022727 0
M  V30 65 H -5.674067 -4.188774 0.044688 0
M  V30 66 H -6.313817 -1.913238 1.744259 0
M  V30 67 H -5.912308 -1.905766 -0.064532 0
M  V30 68 H -2.053227 -4.922482 0.644661 0
M  V30 69 H -2.339784 -1.071785 -0.601278 0
M  V30 70 H -0.994295 0.306634 -2.022132 0
M  V30 71 H 0.995689 1.372615 -1.237157 0
M  V30 72 H 6.766112 -0.591292 0.943238 0
M  V30 73 H 7.364442 -0.032856 3.219189 0
M  V30 74 H 5.570259 0.770887 4.796608 0
M  V30 75 H 3.295876 0.930919 3.880270 0
M  V30 END ATOM
M  V30 BEGIN BOND
M  V30 1 1 1 2
M  V30 2 1 2 3
M  V30 3 1 2 4
M  V30 4 1 4 5
M  V30 5 1 5 6
M  V30 6 1 6 7
M  V30 7 2 7 8
M  V30 8 1 7 9
M  V30 9 2 9 10
M  V30 10 1 10 11
M  V30 11 2 11 12
M  V30 12 1 12 13
M  V30 13 1 13 14
M  V30 14 2 14 15
M  V30 15 1 15 16
M  V30 16 2 16 17
M  V30 17 1 17 18
M  V30 18 2 18 19
M  V30 19 1 19 20
M  V30 20 1 20 21
M  V30 21 1 21 22
M  V30 22 1 22 23
M  V30 23 1 23 24
M  V30 24 1 24 25
M  V30 25 1 25 26
M  V30 26 1 26 27
M  V30 27 1 26 28
M  V30 28 1 28 29
M  V30 29 2 29 30
M  V30 30 1 19 31
M  V30 31 2 31 32
M  V30 32 1 15 33
M  V30 33 2 33 34
M  V30 34 1 5 35
M  V30 35 2 35 36
M  V30 36 1 36 37
M  V30 37 2 37 38
M  V30 38 1 38 39
M  V30 39 2 39 40
M  V30 40 1 34 9
M  V30 41 1 40 35
M  V30 42 1 33 12
M  V30 43 1 32 16
M  V30 44 1 27 21
M  V30 45 1 28 23
M  V30 46 1 1 41
M  V30 47 1 1 42
M  V30 48 1 1 43
M  V30 49 1 2 44
M  V30 50 1 3 45
M  V30 51 1 3 46
M  V30 52 1 3 47
M  V30 53 1 4 48
M  V30 54 1 4 49
M  V30 55 1 5 50
M  V30 56 1 6 51
M  V30 57 1 10 52
M  V30 58 1 11 53
M  V30 59 1 13 54
M  V30 60 1 17 55
M  V30 61 1 18 56
M  V30 62 1 21 57 CFG=3
M  V30 63 1 22 58
M  V30 64 1 22 59
M  V30 65 1 23 60 CFG=1
M  V30 66 1 24 61
M  V30 67 1 24 62
M  V30 68 1 25 63
M  V30 69 1 25 64
M  V30 70 1 26 65 CFG=3
M  V30 71 1 27 66
M  V30 72 1 27 67
M  V30 73 1 29 68
M  V30 74 1 31 69
M  V30 75 1 32 70
M  V30 76 1 34 71
M  V30 77 1 36 72
M  V30 78 1 37 73
M  V30 79 1 38 74
M  V30 80 1 39 75
M  V30 END BOND
M  V30 END CTAB
M  END
>  <Dataset>  (458) 
ChEMBL_Kinases

>  <Ligand_Instance>  (458) 
nan

>  <PDB_ID>  (458) 
nan

>  <Standardized_SMILES>  (458) 
CC(C)CC(NC(=O)c1ccc2[nH]nc(-c3ccc(O[C@H]4C[C@H]5CC[C@@H](C4)N5C=O)cc3)c2c1)c1ccccn1

>  <Name>  (458) 
nan

>  <Pocket>  (458) 
nan

>  <ATP_Site>  (458) 
nan

>  <Peripheral>  (458) 
nan

>  <Num_H_Atoms_ProtBoundConf>  (458) 
nan

>  <Num_Resolved_Atoms>  (458) 
nan

>  <Num_Not_Resolved_Atoms>  (458) 
nan

$$$$
CHEMBL3422079
     RDKit          3D

  0  0  0  0  0  0  0  0  0  0999 V3000
M  V30 BEGIN CTAB
M  V30 COUNTS 78 84 0 0 0
M  V30 BEGIN ATOM
M  V30 1 O -0.651161 0.280395 0.038912 0
M  V30 2 C -1.455450 0.398981 1.032743 0
M  V30 3 N -2.415591 1.471275 0.884986 0
M  V30 4 C -2.154590 2.091361 -0.388512 0
M  V30 5 C -3.012663 3.239697 -0.760915 0
M  V30 6 N -4.365070 2.935651 -0.850214 0
M  V30 7 C -5.152222 2.677003 0.290695 0
M  V30 8 C -5.754205 1.290757 0.324931 0
M  V30 9 O -6.451867 1.097058 -0.895115 0
M  V30 10 C -5.460693 0.961224 -1.862627 0
M  V30 11 C -4.808714 2.311132 -2.054324 0
M  V30 12 C -2.713495 4.412599 0.155588 0
M  V30 13 C -3.144230 5.725616 -0.450333 0
M  V30 14 C -2.090043 6.078106 -1.500884 0
M  V30 15 C -1.518290 4.809724 -2.049927 0
M  V30 16 C -2.544162 3.701550 -2.150551 0
M  V30 17 C -1.347962 -0.505828 2.174148 0
M  V30 18 C -2.168831 -0.517911 3.279719 0
M  V30 19 C -2.001278 -1.402412 4.321899 0
M  V30 20 C -0.987605 -2.339026 4.317313 0
M  V30 21 N -0.577493 -3.307355 5.155701 0
M  V30 22 N 0.475030 -3.908703 4.619294 0
M  V30 23 C 0.752236 -3.332276 3.430086 0
M  V30 24 C 1.861953 -3.771634 2.591999 0
M  V30 25 C 2.687976 -2.804891 2.059152 0
M  V30 26 C 3.751034 -3.174189 1.255352 0
M  V30 27 C 4.054217 -4.461036 0.939389 0
M  V30 28 N 5.166830 -4.852891 0.110239 0
M  V30 29 C 5.225016 -6.250091 -0.279988 0
M  V30 30 C 6.052522 -6.414848 -1.537084 0
M  V30 31 C 5.361867 -5.831113 -2.745589 0
M  V30 32 C 5.743929 -4.378795 -2.681679 0
M  V30 33 C 6.799030 -4.374072 -1.601776 0
M  V30 34 C 6.182663 -3.924844 -0.305191 0
M  V30 35 O 7.229504 -5.678959 -1.457462 0
M  V30 36 C 3.205814 -5.394725 1.491429 0
M  V30 37 C 2.130796 -5.091582 2.299191 0
M  V30 38 C -0.169694 -2.312826 3.195603 0
M  V30 39 C -0.334190 -1.435854 2.160004 0
M  V30 40 H -2.998459 1.459196 1.753568 0
M  V30 41 H -2.154175 1.308558 -1.187400 0
M  V30 42 H -1.083519 2.459423 -0.396636 0
M  V30 43 H -4.730018 2.898501 1.274665 0
M  V30 44 H -6.063473 3.359546 0.188850 0
M  V30 45 H -6.418435 1.171397 1.192478 0
M  V30 46 H -4.957308 0.528519 0.314942 0
M  V30 47 H -4.763549 0.190736 -1.491755 0
M  V30 48 H -5.859371 0.617391 -2.826687 0
M  V30 49 H -3.945446 2.142515 -2.718377 0
M  V30 50 H -5.523570 2.973800 -2.561495 0
M  V30 51 H -1.599405 4.457303 0.234591 0
M  V30 52 H -3.122449 4.310062 1.157322 0
M  V30 53 H -3.091383 6.493558 0.342218 0
M  V30 54 H -4.135267 5.657035 -0.925491 0
M  V30 55 H -1.312340 6.731963 -1.048691 0
M  V30 56 H -2.624946 6.686055 -2.251835 0
M  V30 57 H -0.584539 4.480958 -1.573480 0
M  V30 58 H -1.245361 5.029324 -3.116321 0
M  V30 59 H -2.050223 2.878370 -2.687622 0
M  V30 60 H -3.403532 4.085275 -2.709772 0
M  V30 61 H -2.969641 0.197177 3.315290 0
M  V30 62 H -2.683115 -1.349198 5.148139 0
M  V30 63 H -1.031460 -3.523414 6.066100 0
M  V30 64 H 2.493807 -1.744309 2.283808 0
M  V30 65 H 4.337468 -2.352640 0.889380 0
M  V30 66 H 5.704079 -6.874292 0.491799 0
M  V30 67 H 4.201208 -6.594523 -0.459698 0
M  V30 68 H 6.269826 -7.495769 -1.685148 0
M  V30 69 H 5.721545 -6.328361 -3.664918 0
M  V30 70 H 4.260179 -5.962728 -2.673177 0
M  V30 71 H 6.127748 -4.070674 -3.677552 0
M  V30 72 H 4.871912 -3.734299 -2.369936 0
M  V30 73 H 7.614488 -3.656159 -1.827037 0
M  V30 74 H 7.001068 -3.943564 0.476148 0
M  V30 75 H 5.758064 -2.897400 -0.389950 0
M  V30 76 H 3.318642 -6.451856 1.335647 0
M  V30 77 H 1.467325 -5.833924 2.730580 0
M  V30 78 H 0.337558 -1.470290 1.313170 0
M  V30 END ATOM
M  V30 BEGIN BOND
M  V30 1 2 1 2
M  V30 2 1 2 3
M  V30 3 1 3 4
M  V30 4 1 4 5
M  V30 5 1 5 6
M  V30 6 1 6 7
M  V30 7 1 7 8
M  V30 8 1 8 9
M  V30 9 1 9 10
M  V30 10 1 10 11
M  V30 11 1 5 12
M  V30 12 1 12 13
M  V30 13 1 13 14
M  V30 14 1 14 15
M  V30 15 1 15 16
M  V30 16 1 2 17
M  V30 17 2 17 18
M  V30 18 1 18 19
M  V30 19 2 19 20
M  V30 20 1 20 21
M  V30 21 1 21 22
M  V30 22 2 22 23
M  V30 23 1 23 24
M  V30 24 2 24 25
M  V30 25 1 25 26
M  V30 26 2 26 27
M  V30 27 1 27 28
M  V30 28 1 28 29
M  V30 29 1 29 30
M  V30 30 1 30 31
M  V30 31 1 31 32
M  V30 32 1 32 33
M  V30 33 1 33 34
M  V30 34 1 33 35
M  V30 35 1 27 36
M  V30 36 2 36 37
M  V30 37 1 23 38
M  V30 38 2 38 39
M  V30 39 1 16 5
M  V30 40 1 39 17
M  V30 41 1 11 6
M  V30 42 1 38 20
M  V30 43 1 37 24
M  V30 44 1 34 28
M  V30 45 1 35 30
M  V30 46 1 3 40
M  V30 47 1 4 41
M  V30 48 1 4 42
M  V30 49 1 7 43
M  V30 50 1 7 44
M  V30 51 1 8 45
M  V30 52 1 8 46
M  V30 53 1 10 47
M  V30 54 1 10 48
M  V30 55 1 11 49
M  V30 56 1 11 50
M  V30 57 1 12 51
M  V30 58 1 12 52
M  V30 59 1 13 53
M  V30 60 1 13 54
M  V30 61 1 14 55
M  V30 62 1 14 56
M  V30 63 1 15 57
M  V30 64 1 15 58
M  V30 65 1 16 59
M  V30 66 1 16 60
M  V30 67 1 18 61
M  V30 68 1 19 62
M  V30 69 1 21 63
M  V30 70 1 25 64
M  V30 71 1 26 65
M  V30 72 1 29 66
M  V30 73 1 29 67
M  V30 74 1 30 68
M  V30 75 1 31 69
M  V30 76 1 31 70
M  V30 77 1 32 71
M  V30 78 1 32 72
M  V30 79 1 33 73
M  V30 80 1 34 74
M  V30 81 1 34 75
M  V30 82 1 36 76
M  V30 83 1 37 77
M  V30 84 1 39 78
M  V30 END BOND
M  V30 END CTAB
M  END
>  <Dataset>  (459) 
ChEMBL_Kinases

>  <Ligand_Instance>  (459) 
nan

>  <PDB_ID>  (459) 
nan

>  <Standardized_SMILES>  (459) 
O=C(NCC1(N2CCOCC2)CCCCC1)c1ccc2[nH]nc(-c3ccc(N4CC5CCC(C4)O5)cc3)c2c1

>  <Name>  (459) 
nan

>  <Pocket>  (459) 
nan

>  <ATP_Site>  (459) 
nan

>  <Peripheral>  (459) 
nan

>  <Num_H_Atoms_ProtBoundConf>  (459) 
nan

>  <Num_Resolved_Atoms>  (459) 
nan

>  <Num_Not_Resolved_Atoms>  (459) 
nan

$$$$
CHEMBL3422080
     RDKit          3D

  0  0  0  0  0  0  0  0  0  0999 V3000
M  V30 BEGIN CTAB
M  V30 COUNTS 78 84 0 0 0
M  V30 BEGIN ATOM
M  V30 1 O 0.934937 0.210324 0.798384 0
M  V30 2 C 0.078327 1.004700 1.333388 0
M  V30 3 N 0.481727 2.374224 1.387052 0
M  V30 4 C 1.768452 2.468472 0.810229 0
M  V30 5 C 2.303356 3.869531 0.779847 0
M  V30 6 N 1.594187 4.839953 0.064915 0
M  V30 7 C 0.322078 5.279897 0.464904 0
M  V30 8 C -0.758311 4.777186 -0.468103 0
M  V30 9 O -0.604603 5.437963 -1.712376 0
M  V30 10 C 0.722598 5.665078 -1.998565 0
M  V30 11 C 1.651424 4.643850 -1.362566 0
M  V30 12 C 3.719192 3.773605 0.183236 0
M  V30 13 C 4.467120 5.052450 0.284552 0
M  V30 14 C 3.767367 6.125714 1.072200 0
M  V30 15 C 3.158497 5.622782 2.352774 0
M  V30 16 C 2.574399 4.239025 2.227062 0
M  V30 17 C -1.207029 0.453219 1.828737 0
M  V30 18 C -2.142651 1.197651 2.555779 0
M  V30 19 C -3.305059 0.557868 2.934828 0
M  V30 20 C -3.567715 -0.758665 2.627258 0
M  V30 21 N -4.572048 -1.607541 2.851884 0
M  V30 22 N -4.325579 -2.798488 2.322971 0
M  V30 23 C -3.107890 -2.769204 1.712558 0
M  V30 24 C -2.487459 -3.888057 1.009072 0
M  V30 25 C -3.393363 -4.523214 0.166272 0
M  V30 26 C -3.027490 -5.622634 -0.608903 0
M  V30 27 C -1.731486 -6.073098 -0.521473 0
M  V30 28 N -1.241418 -7.198019 -1.281104 0
M  V30 29 C 0.055031 -7.881178 -1.265040 0
M  V30 30 C 0.371105 -7.847453 -2.761224 0
M  V30 31 C -0.980861 -7.849702 -3.453617 0
M  V30 32 C -1.980276 -7.930465 -2.290658 0
M  V30 33 C -2.132677 -9.396446 -1.966712 0
M  V30 34 O -0.870546 -9.963285 -1.888638 0
M  V30 35 C -0.151278 -9.334992 -0.876477 0
M  V30 36 C -0.821314 -5.442402 0.319420 0
M  V30 37 C -1.199356 -4.346062 1.087404 0
M  V30 38 C -2.642758 -1.484853 1.910834 0
M  V30 39 C -1.475918 -0.863236 1.524066 0
M  V30 40 H -0.278856 2.924085 1.833580 0
M  V30 41 H 1.867721 1.952353 -0.169289 0
M  V30 42 H 2.476560 1.898299 1.484480 0
M  V30 43 H 0.068243 5.216479 1.531883 0
M  V30 44 H 0.314188 6.408057 0.281798 0
M  V30 45 H -1.779991 4.997060 -0.094988 0
M  V30 46 H -0.720143 3.718438 -0.702631 0
M  V30 47 H 0.866283 5.697912 -3.103334 0
M  V30 48 H 0.988294 6.677891 -1.601635 0
M  V30 49 H 1.295662 3.649811 -1.692943 0
M  V30 50 H 2.631328 4.796514 -1.818411 0
M  V30 51 H 3.670422 3.371204 -0.831781 0
M  V30 52 H 4.280358 3.017205 0.812915 0
M  V30 53 H 4.648091 5.443662 -0.741114 0
M  V30 54 H 5.502748 4.889675 0.697809 0
M  V30 55 H 3.051403 6.689695 0.427845 0
M  V30 56 H 4.538988 6.869717 1.364770 0
M  V30 57 H 2.331738 6.311361 2.621151 0
M  V30 58 H 3.894923 5.679428 3.193658 0
M  V30 59 H 1.715217 4.078053 2.897804 0
M  V30 60 H 3.363261 3.531420 2.570241 0
M  V30 61 H -1.908459 2.226622 2.782621 0
M  V30 62 H -4.053804 1.120300 3.508535 0
M  V30 63 H -5.420400 -1.290306 3.390055 0
M  V30 64 H -4.447375 -4.236362 0.029782 0
M  V30 65 H -3.714045 -6.117736 -1.259253 0
M  V30 66 H 0.807075 -7.382638 -0.654241 0
M  V30 67 H 1.005482 -8.706496 -3.053346 0
M  V30 68 H 0.860258 -6.871896 -2.933696 0
M  V30 69 H -1.165297 -6.875920 -3.982303 0
M  V30 70 H -1.099126 -8.687594 -4.158009 0
M  V30 71 H -2.942053 -7.460983 -2.572317 0
M  V30 72 H -2.676296 -9.851676 -2.815607 0
M  V30 73 H -2.678073 -9.554935 -1.003271 0
M  V30 74 H 0.829241 -9.828762 -0.786870 0
M  V30 75 H -0.701437 -9.460027 0.064400 0
M  V30 76 H 0.207999 -5.762415 0.418639 0
M  V30 77 H -0.575419 -3.785686 1.769168 0
M  V30 78 H -0.762571 -1.456776 0.961651 0
M  V30 END ATOM
M  V30 BEGIN BOND
M  V30 1 2 1 2
M  V30 2 1 2 3
M  V30 3 1 3 4
M  V30 4 1 4 5
M  V30 5 1 5 6
M  V30 6 1 6 7
M  V30 7 1 7 8
M  V30 8 1 8 9
M  V30 9 1 9 10
M  V30 10 1 10 11
M  V30 11 1 5 12
M  V30 12 1 12 13
M  V30 13 1 13 14
M  V30 14 1 14 15
M  V30 15 1 15 16
M  V30 16 1 2 17
M  V30 17 2 17 18
M  V30 18 1 18 19
M  V30 19 2 19 20
M  V30 20 1 20 21
M  V30 21 1 21 22
M  V30 22 2 22 23
M  V30 23 1 23 24
M  V30 24 2 24 25
M  V30 25 1 25 26
M  V30 26 2 26 27
M  V30 27 1 27 28
M  V30 28 1 28 29
M  V30 29 1 29 30
M  V30 30 1 30 31
M  V30 31 1 31 32
M  V30 32 1 32 33
M  V30 33 1 33 34
M  V30 34 1 34 35
M  V30 35 1 27 36
M  V30 36 2 36 37
M  V30 37 1 23 38
M  V30 38 2 38 39
M  V30 39 1 16 5
M  V30 40 1 39 17
M  V30 41 1 11 6
M  V30 42 1 38 20
M  V30 43 1 37 24
M  V30 44 1 32 28
M  V30 45 1 35 29
M  V30 46 1 3 40
M  V30 47 1 4 41
M  V30 48 1 4 42
M  V30 49 1 7 43
M  V30 50 1 7 44
M  V30 51 1 8 45
M  V30 52 1 8 46
M  V30 53 1 10 47
M  V30 54 1 10 48
M  V30 55 1 11 49
M  V30 56 1 11 50
M  V30 57 1 12 51
M  V30 58 1 12 52
M  V30 59 1 13 53
M  V30 60 1 13 54
M  V30 61 1 14 55
M  V30 62 1 14 56
M  V30 63 1 15 57
M  V30 64 1 15 58
M  V30 65 1 16 59
M  V30 66 1 16 60
M  V30 67 1 18 61
M  V30 68 1 19 62
M  V30 69 1 21 63
M  V30 70 1 25 64
M  V30 71 1 26 65
M  V30 72 1 29 66
M  V30 73 1 30 67
M  V30 74 1 30 68
M  V30 75 1 31 69
M  V30 76 1 31 70
M  V30 77 1 32 71
M  V30 78 1 33 72
M  V30 79 1 33 73
M  V30 80 1 35 74
M  V30 81 1 35 75
M  V30 82 1 36 76
M  V30 83 1 37 77
M  V30 84 1 39 78
M  V30 END BOND
M  V30 END CTAB
M  END
>  <Dataset>  (460) 
ChEMBL_Kinases

>  <Ligand_Instance>  (460) 
nan

>  <PDB_ID>  (460) 
nan

>  <Standardized_SMILES>  (460) 
O=C(NCC1(N2CCOCC2)CCCCC1)c1ccc2[nH]nc(-c3ccc(N4C5CCC4COC5)cc3)c2c1

>  <Name>  (460) 
nan

>  <Pocket>  (460) 
nan

>  <ATP_Site>  (460) 
nan

>  <Peripheral>  (460) 
nan

>  <Num_H_Atoms_ProtBoundConf>  (460) 
nan

>  <Num_Resolved_Atoms>  (460) 
nan

>  <Num_Not_Resolved_Atoms>  (460) 
nan

$$$$
CHEMBL3422081
     RDKit          3D

  0  0  0  0  0  0  0  0  0  0999 V3000
M  V30 BEGIN CTAB
M  V30 COUNTS 66 72 0 0 0
M  V30 BEGIN ATOM
M  V30 1 O 0.872213 1.551040 1.584451 0
M  V30 2 C 1.224116 0.884645 2.588297 0
M  V30 3 N 1.981998 1.666470 3.504560 0
M  V30 4 C 2.349434 3.056713 3.380630 0 CFG=2
M  V30 5 C 3.816883 3.235317 3.243862 0
M  V30 6 C 4.688167 2.461320 3.986240 0
M  V30 7 C 6.053845 2.568372 3.913357 0
M  V30 8 C 6.619110 3.494301 3.057378 0
M  V30 9 C 5.782255 4.290485 2.294858 0
M  V30 10 C 4.419120 4.156476 2.393161 0
M  V30 11 F 3.588440 4.933794 1.648440 0
M  V30 12 C 1.817705 3.937549 4.467363 0
M  V30 13 C 0.304075 4.027992 4.647237 0
M  V30 14 C 1.150447 3.332312 5.652130 0
M  V30 15 C 0.944836 -0.515999 2.875052 0
M  V30 16 C 1.341084 -1.167651 4.023207 0
M  V30 17 C 1.050480 -2.497768 4.235596 0
M  V30 18 C 0.344704 -3.224578 3.290501 0
M  V30 19 N -0.079764 -4.497147 3.204233 0
M  V30 20 N -0.708437 -4.615301 2.050889 0
M  V30 21 C -0.700982 -3.447729 1.387188 0
M  V30 22 C -1.344112 -3.364233 0.080409 0
M  V30 23 C -2.588111 -3.924654 -0.131081 0
M  V30 24 C -3.259347 -3.887221 -1.338171 0
M  V30 25 C -2.655407 -3.250365 -2.407844 0
M  V30 26 N -3.214003 -3.128568 -3.714938 0
M  V30 27 C -2.764477 -2.480386 -4.937956 0
M  V30 28 C -2.799056 -3.653089 -5.900226 0
M  V30 29 C -3.959735 -4.496926 -5.368443 0
M  V30 30 C -4.492794 -3.685484 -4.177037 0
M  V30 31 C -5.409953 -2.653792 -4.749559 0
M  V30 32 O -4.858478 -1.382594 -4.600841 0
M  V30 33 C -3.699785 -1.390985 -5.406542 0
M  V30 34 C -1.413256 -2.690704 -2.195808 0
M  V30 35 C -0.730774 -2.720502 -0.995777 0
M  V30 36 C -0.026549 -2.524386 2.162516 0
M  V30 37 C 0.227479 -1.196084 1.881022 0
M  V30 38 H 2.369282 1.310617 4.395317 0
M  V30 39 H 1.882730 3.393939 2.413787 0
M  V30 40 H 4.353450 1.707538 4.686858 0
M  V30 41 H 6.758523 1.981338 4.476639 0
M  V30 42 H 7.686651 3.675676 2.909514 0
M  V30 43 H 6.184860 5.040925 1.600050 0
M  V30 44 H 2.356344 4.894484 4.620893 0
M  V30 45 H -0.133129 5.023500 4.898759 0
M  V30 46 H -0.306240 3.423803 3.946310 0
M  V30 47 H 1.113733 2.240626 5.705205 0
M  V30 48 H 1.244927 3.851101 6.648611 0
M  V30 49 H 1.893296 -0.625378 4.777261 0
M  V30 50 H 1.375786 -2.965916 5.140691 0
M  V30 51 H 0.066667 -5.248297 3.925682 0
M  V30 52 H -3.091951 -4.431491 0.685760 0
M  V30 53 H -4.232124 -4.325318 -1.504398 0
M  V30 54 H -1.731947 -2.067518 -4.836969 0
M  V30 55 H -1.901778 -4.279503 -5.834439 0
M  V30 56 H -2.970586 -3.332662 -6.938380 0
M  V30 57 H -4.745567 -4.631785 -6.128979 0
M  V30 58 H -3.616822 -5.484162 -5.005423 0
M  V30 59 H -4.942283 -4.319477 -3.413250 0
M  V30 60 H -5.591789 -2.770975 -5.852906 0
M  V30 61 H -6.436713 -2.666459 -4.306444 0
M  V30 62 H -3.970334 -1.569360 -6.466892 0
M  V30 63 H -3.184630 -0.407259 -5.349446 0
M  V30 64 H -0.876203 -2.172479 -2.990352 0
M  V30 65 H 0.247417 -2.266884 -0.871647 0
M  V30 66 H -0.116162 -0.753565 0.957070 0
M  V30 END ATOM
M  V30 BEGIN BOND
M  V30 1 2 1 2
M  V30 2 1 2 3
M  V30 3 1 3 4
M  V30 4 1 4 5
M  V30 5 2 5 6
M  V30 6 1 6 7
M  V30 7 2 7 8
M  V30 8 1 8 9
M  V30 9 2 9 10
M  V30 10 1 10 11
M  V30 11 1 4 12
M  V30 12 1 12 13
M  V30 13 1 13 14
M  V30 14 1 2 15
M  V30 15 2 15 16
M  V30 16 1 16 17
M  V30 17 2 17 18
M  V30 18 1 18 19
M  V30 19 1 19 20
M  V30 20 2 20 21
M  V30 21 1 21 22
M  V30 22 2 22 23
M  V30 23 1 23 24
M  V30 24 2 24 25
M  V30 25 1 25 26
M  V30 26 1 26 27
M  V30 27 1 27 28
M  V30 28 1 28 29
M  V30 29 1 29 30
M  V30 30 1 30 31
M  V30 31 1 31 32
M  V30 32 1 32 33
M  V30 33 1 25 34
M  V30 34 2 34 35
M  V30 35 1 21 36
M  V30 36 2 36 37
M  V30 37 1 10 5
M  V30 38 1 14 12
M  V30 39 1 37 15
M  V30 40 1 36 18
M  V30 41 1 35 22
M  V30 42 1 30 26
M  V30 43 1 33 27
M  V30 44 1 3 38
M  V30 45 1 4 39 CFG=3
M  V30 46 1 6 40
M  V30 47 1 7 41
M  V30 48 1 8 42
M  V30 49 1 9 43
M  V30 50 1 12 44
M  V30 51 1 13 45
M  V30 52 1 13 46
M  V30 53 1 14 47
M  V30 54 1 14 48
M  V30 55 1 16 49
M  V30 56 1 17 50
M  V30 57 1 19 51
M  V30 58 1 23 52
M  V30 59 1 24 53
M  V30 60 1 27 54
M  V30 61 1 28 55
M  V30 62 1 28 56
M  V30 63 1 29 57
M  V30 64 1 29 58
M  V30 65 1 30 59
M  V30 66 1 31 60
M  V30 67 1 31 61
M  V30 68 1 33 62
M  V30 69 1 33 63
M  V30 70 1 34 64
M  V30 71 1 35 65
M  V30 72 1 37 66
M  V30 END BOND
M  V30 END CTAB
M  END
>  <Dataset>  (461) 
ChEMBL_Kinases

>  <Ligand_Instance>  (461) 
nan

>  <PDB_ID>  (461) 
nan

>  <Standardized_SMILES>  (461) 
O=C(N[C@H](c1ccccc1F)C1CC1)c1ccc2[nH]nc(-c3ccc(N4C5CCC4COC5)cc3)c2c1

>  <Name>  (461) 
nan

>  <Pocket>  (461) 
nan

>  <ATP_Site>  (461) 
nan

>  <Peripheral>  (461) 
nan

>  <Num_H_Atoms_ProtBoundConf>  (461) 
nan

>  <Num_Resolved_Atoms>  (461) 
nan

>  <Num_Not_Resolved_Atoms>  (461) 
nan

$$$$
CHEMBL3422082
     RDKit          3D

  0  0  0  0  0  0  0  0  0  0999 V3000
M  V30 BEGIN CTAB
M  V30 COUNTS 66 72 0 0 0
M  V30 BEGIN ATOM
M  V30 1 O 2.253964 0.331349 5.281949 0
M  V30 2 C 1.678565 0.016037 4.186744 0
M  V30 3 N 1.497329 1.005919 3.185976 0
M  V30 4 C 1.957374 2.360228 3.397860 0 CFG=1
M  V30 5 C 3.025769 2.719194 2.433329 0
M  V30 6 C 4.066627 3.528836 2.903789 0
M  V30 7 C 5.135932 3.956709 2.148025 0
M  V30 8 C 5.202276 3.568982 0.830120 0
M  V30 9 C 4.193732 2.772676 0.337885 0
M  V30 10 C 3.141906 2.362938 1.115537 0
M  V30 11 F 2.159092 1.584021 0.626579 0
M  V30 12 C 0.845485 3.376099 3.380184 0
M  V30 13 C -0.033449 3.597958 2.227165 0
M  V30 14 C -0.560336 2.844380 3.403652 0
M  V30 15 C 1.253764 -1.371678 4.073552 0
M  V30 16 C 1.499040 -2.220312 5.131971 0
M  V30 17 C 1.114118 -3.566424 5.082593 0
M  V30 18 C 0.476691 -4.094409 3.977015 0
M  V30 19 N -0.004882 -5.304552 3.629943 0
M  V30 20 N -0.530044 -5.236500 2.416284 0
M  V30 21 C -0.413004 -3.984491 1.924170 0
M  V30 22 C -0.867551 -3.510452 0.624523 0
M  V30 23 C -2.140020 -3.921933 0.271148 0
M  V30 24 C -2.730784 -3.565402 -0.927410 0
M  V30 25 C -2.008336 -2.760608 -1.805890 0
M  V30 26 N -2.524618 -2.336769 -3.064996 0
M  V30 27 C -1.935097 -1.508951 -4.105338 0
M  V30 28 C -2.100304 -2.415211 -5.309064 0
M  V30 29 C -3.359302 -3.211827 -4.987063 0
M  V30 30 C -3.830326 -2.646197 -3.639191 0
M  V30 31 C -4.659659 -1.409264 -3.890597 0
M  V30 32 O -3.958734 -0.245193 -3.670556 0
M  V30 33 C -2.758854 -0.269546 -4.362077 0
M  V30 34 C -0.741300 -2.344215 -1.466659 0
M  V30 35 C -0.162197 -2.712268 -0.256650 0
M  V30 36 C 0.224734 -3.239163 2.899673 0
M  V30 37 C 0.622720 -1.922601 2.996039 0
M  V30 38 H 1.021893 0.626874 2.356440 0
M  V30 39 H 2.399171 2.358878 4.427394 0
M  V30 40 H 4.059577 3.860588 3.935286 0
M  V30 41 H 5.908004 4.574305 2.549470 0
M  V30 42 H 5.986613 3.838076 0.138462 0
M  V30 43 H 4.216417 2.448955 -0.698991 0
M  V30 44 H 1.043238 4.254868 4.049082 0
M  V30 45 H -0.460342 4.619392 2.107468 0
M  V30 46 H -0.004547 3.050647 1.284428 0
M  V30 47 H -0.696548 1.737272 3.315806 0
M  V30 48 H -1.277706 3.334701 4.072959 0
M  V30 49 H 1.996120 -1.911549 6.056156 0
M  V30 50 H 1.322211 -4.222506 5.942114 0
M  V30 51 H 0.056131 -6.141247 4.269580 0
M  V30 52 H -2.758382 -4.545053 0.898853 0
M  V30 53 H -3.724537 -3.888663 -1.199917 0
M  V30 54 H -0.875568 -1.252512 -3.917959 0
M  V30 55 H -1.209880 -3.080163 -5.420296 0
M  V30 56 H -2.277877 -1.789670 -6.207638 0
M  V30 57 H -4.125717 -3.158563 -5.757293 0
M  V30 58 H -3.029009 -4.260554 -4.733329 0
M  V30 59 H -4.372600 -3.416107 -3.075906 0
M  V30 60 H -5.115497 -1.436673 -4.915968 0
M  V30 61 H -5.532500 -1.428330 -3.204379 0
M  V30 62 H -2.980351 -0.135878 -5.448168 0
M  V30 63 H -2.167750 0.600807 -4.038762 0
M  V30 64 H -0.112588 -1.723538 -2.080791 0
M  V30 65 H 0.827826 -2.417347 0.065767 0
M  V30 66 H 0.410658 -1.298674 2.147156 0
M  V30 END ATOM
M  V30 BEGIN BOND
M  V30 1 2 1 2
M  V30 2 1 2 3
M  V30 3 1 3 4
M  V30 4 1 4 5
M  V30 5 2 5 6
M  V30 6 1 6 7
M  V30 7 2 7 8
M  V30 8 1 8 9
M  V30 9 2 9 10
M  V30 10 1 10 11
M  V30 11 1 4 12
M  V30 12 1 12 13
M  V30 13 1 13 14
M  V30 14 1 2 15
M  V30 15 2 15 16
M  V30 16 1 16 17
M  V30 17 2 17 18
M  V30 18 1 18 19
M  V30 19 1 19 20
M  V30 20 2 20 21
M  V30 21 1 21 22
M  V30 22 2 22 23
M  V30 23 1 23 24
M  V30 24 2 24 25
M  V30 25 1 25 26
M  V30 26 1 26 27
M  V30 27 1 27 28
M  V30 28 1 28 29
M  V30 29 1 29 30
M  V30 30 1 30 31
M  V30 31 1 31 32
M  V30 32 1 32 33
M  V30 33 1 25 34
M  V30 34 2 34 35
M  V30 35 1 21 36
M  V30 36 2 36 37
M  V30 37 1 10 5
M  V30 38 1 14 12
M  V30 39 1 37 15
M  V30 40 1 36 18
M  V30 41 1 35 22
M  V30 42 1 30 26
M  V30 43 1 33 27
M  V30 44 1 3 38
M  V30 45 1 4 39 CFG=1
M  V30 46 1 6 40
M  V30 47 1 7 41
M  V30 48 1 8 42
M  V30 49 1 9 43
M  V30 50 1 12 44
M  V30 51 1 13 45
M  V30 52 1 13 46
M  V30 53 1 14 47
M  V30 54 1 14 48
M  V30 55 1 16 49
M  V30 56 1 17 50
M  V30 57 1 19 51
M  V30 58 1 23 52
M  V30 59 1 24 53
M  V30 60 1 27 54
M  V30 61 1 28 55
M  V30 62 1 28 56
M  V30 63 1 29 57
M  V30 64 1 29 58
M  V30 65 1 30 59
M  V30 66 1 31 60
M  V30 67 1 31 61
M  V30 68 1 33 62
M  V30 69 1 33 63
M  V30 70 1 34 64
M  V30 71 1 35 65
M  V30 72 1 37 66
M  V30 END BOND
M  V30 END CTAB
M  END
>  <Dataset>  (462) 
ChEMBL_Kinases

>  <Ligand_Instance>  (462) 
nan

>  <PDB_ID>  (462) 
nan

>  <Standardized_SMILES>  (462) 
O=C(N[C@@H](c1ccccc1F)C1CC1)c1ccc2[nH]nc(-c3ccc(N4C5CCC4COC5)cc3)c2c1

>  <Name>  (462) 
nan

>  <Pocket>  (462) 
nan

>  <ATP_Site>  (462) 
nan

>  <Peripheral>  (462) 
nan

>  <Num_H_Atoms_ProtBoundConf>  (462) 
nan

>  <Num_Resolved_Atoms>  (462) 
nan

>  <Num_Not_Resolved_Atoms>  (462) 
nan

$$$$
CHEMBL3422074
     RDKit          3D

  0  0  0  0  0  0  0  0  0  0999 V3000
M  V30 BEGIN CTAB
M  V30 COUNTS 78 83 0 0 0
M  V30 BEGIN ATOM
M  V30 1 C 6.764850 -3.007622 2.031072 0
M  V30 2 N 7.241378 -3.300076 0.686902 0
M  V30 3 C 7.164903 -4.761299 0.554470 0
M  V30 4 C 6.331116 -2.769334 -0.311724 0
M  V30 5 C 6.347800 -1.292891 -0.300921 0
M  V30 6 O 7.133381 -0.781765 0.542489 0
M  V30 7 N 5.543943 -0.510499 -1.169407 0
M  V30 8 C 4.602610 -0.975660 -2.180567 0
M  V30 9 C 3.231812 -0.384406 -2.007287 0
M  V30 10 C 3.104082 0.611323 -0.879445 0
M  V30 11 O 2.836098 -0.011129 0.354884 0
M  V30 12 C 1.709549 0.098750 1.110655 0
M  V30 13 C 0.543465 0.810135 0.908389 0
M  V30 14 C -0.483824 0.771452 1.828052 0
M  V30 15 C -0.426010 0.039883 2.985845 0
M  V30 16 C -1.505830 -0.020996 3.966072 0
M  V30 17 N -1.441634 0.085019 5.306220 0
M  V30 18 N -2.661369 -0.033109 5.824582 0
M  V30 19 C -3.588607 -0.220453 4.874881 0
M  V30 20 C -4.970100 -0.398733 4.892005 0
M  V30 21 C -5.667162 -0.577570 3.691916 0
M  V30 22 C -4.896090 -0.562017 2.552421 0
M  V30 23 C -5.706643 -0.758182 1.364263 0
M  V30 24 O -6.968009 -0.975650 1.341645 0
M  V30 25 N -5.340018 -0.759067 0.014106 0
M  V30 26 C -5.384353 -0.834267 -1.393426 0
M  V30 27 C -5.031745 0.497383 -1.966361 0
M  V30 28 C -5.768138 1.079444 -2.971394 0
M  V30 29 C -5.523309 2.301096 -3.561147 0
M  V30 30 C -4.436166 3.027690 -3.111453 0
M  V30 31 C -3.653903 2.503299 -2.104638 0
M  V30 32 C -3.965372 1.274066 -1.568140 0
M  V30 33 C -4.484429 -1.851373 -2.021281 0
M  V30 34 C -4.586228 -1.885076 -3.531725 0
M  V30 35 C -4.930051 -3.077093 -2.679638 0
M  V30 36 C -3.534619 -0.388909 2.513376 0
M  V30 37 C -2.849486 -0.209876 3.719890 0
M  V30 38 C 0.730624 -0.670897 3.195056 0
M  V30 39 C 1.788278 -0.655895 2.290560 0
M  V30 40 C 4.268360 1.565427 -0.815410 0
M  V30 41 C 5.590647 0.937394 -1.134802 0
M  V30 42 H 7.058815 -3.848860 2.682865 0
M  V30 43 H 7.261326 -2.112180 2.469792 0
M  V30 44 H 5.675785 -2.877231 2.064191 0
M  V30 45 H 7.554422 -5.123126 -0.403406 0
M  V30 46 H 6.073725 -5.032563 0.689815 0
M  V30 47 H 7.726801 -5.235533 1.407828 0
M  V30 48 H 5.349143 -3.215859 -0.143215 0
M  V30 49 H 6.765639 -3.067720 -1.308877 0
M  V30 50 H 4.574612 -2.060835 -2.206237 0
M  V30 51 H 5.035540 -0.640498 -3.164646 0
M  V30 52 H 2.896092 0.068532 -2.975253 0
M  V30 53 H 2.500352 -1.202523 -1.800561 0
M  V30 54 H 2.210474 1.217297 -1.135520 0
M  V30 55 H 0.541413 1.372304 -0.012696 0
M  V30 56 H -1.368005 1.351536 1.603969 0
M  V30 57 H -2.835020 0.018419 6.861156 0
M  V30 58 H -5.512442 -0.396046 5.829591 0
M  V30 59 H -6.728844 -0.711479 3.725005 0
M  V30 60 H -4.277797 -0.591542 0.053145 0
M  V30 61 H -6.429936 -1.076077 -1.764897 0
M  V30 62 H -6.647650 0.560326 -3.378695 0
M  V30 63 H -6.162874 2.697227 -4.359443 0
M  V30 64 H -4.168083 3.990572 -3.511768 0
M  V30 65 H -2.795135 3.085933 -1.757854 0
M  V30 66 H -3.302918 0.936949 -0.785289 0
M  V30 67 H -3.412575 -1.727692 -1.670424 0
M  V30 68 H -5.428435 -1.375246 -4.053354 0
M  V30 69 H -3.683874 -1.953588 -4.134788 0
M  V30 70 H -4.262269 -3.953622 -2.717619 0
M  V30 71 H -6.014843 -3.301554 -2.619455 0
M  V30 72 H -2.997825 -0.392259 1.576270 0
M  V30 73 H 0.788242 -1.256037 4.115512 0
M  V30 74 H 2.640627 -1.265576 2.586485 0
M  V30 75 H 4.117183 2.469963 -1.484162 0
M  V30 76 H 4.316896 1.968123 0.217558 0
M  V30 77 H 6.380589 1.238948 -0.402363 0
M  V30 78 H 5.965901 1.362534 -2.111728 0
M  V30 END ATOM
M  V30 BEGIN BOND
M  V30 1 1 1 2
M  V30 2 1 2 3
M  V30 3 1 2 4
M  V30 4 1 4 5
M  V30 5 2 5 6
M  V30 6 1 5 7
M  V30 7 1 7 8
M  V30 8 1 8 9
M  V30 9 1 9 10
M  V30 10 1 10 11
M  V30 11 1 11 12
M  V30 12 2 12 13
M  V30 13 1 13 14
M  V30 14 2 14 15
M  V30 15 1 15 16
M  V30 16 2 16 17
M  V30 17 1 17 18
M  V30 18 1 18 19
M  V30 19 2 19 20
M  V30 20 1 20 21
M  V30 21 2 21 22
M  V30 22 1 22 23
M  V30 23 2 23 24
M  V30 24 1 23 25
M  V30 25 1 25 26
M  V30 26 1 26 27
M  V30 27 2 27 28
M  V30 28 1 28 29
M  V30 29 2 29 30
M  V30 30 1 30 31
M  V30 31 2 31 32
M  V30 32 1 26 33
M  V30 33 1 33 34
M  V30 34 1 34 35
M  V30 35 1 22 36
M  V30 36 2 36 37
M  V30 37 1 15 38
M  V30 38 2 38 39
M  V30 39 1 10 40
M  V30 40 1 40 41
M  V30 41 1 41 7
M  V30 42 1 39 12
M  V30 43 1 37 16
M  V30 44 1 37 19
M  V30 45 1 32 27
M  V30 46 1 35 33
M  V30 47 1 1 42
M  V30 48 1 1 43
M  V30 49 1 1 44
M  V30 50 1 3 45
M  V30 51 1 3 46
M  V30 52 1 3 47
M  V30 53 1 4 48
M  V30 54 1 4 49
M  V30 55 1 8 50
M  V30 56 1 8 51
M  V30 57 1 9 52
M  V30 58 1 9 53
M  V30 59 1 10 54
M  V30 60 1 13 55
M  V30 61 1 14 56
M  V30 62 1 18 57
M  V30 63 1 20 58
M  V30 64 1 21 59
M  V30 65 1 25 60
M  V30 66 1 26 61
M  V30 67 1 28 62
M  V30 68 1 29 63
M  V30 69 1 30 64
M  V30 70 1 31 65
M  V30 71 1 32 66
M  V30 72 1 33 67
M  V30 73 1 34 68
M  V30 74 1 34 69
M  V30 75 1 35 70
M  V30 76 1 35 71
M  V30 77 1 36 72
M  V30 78 1 38 73
M  V30 79 1 39 74
M  V30 80 1 40 75
M  V30 81 1 40 76
M  V30 82 1 41 77
M  V30 83 1 41 78
M  V30 END BOND
M  V30 END CTAB
M  END
>  <Dataset>  (463) 
ChEMBL_Kinases

>  <Ligand_Instance>  (463) 
nan

>  <PDB_ID>  (463) 
nan

>  <Standardized_SMILES>  (463) 
CN(C)CC(=O)N1CCC(Oc2ccc(-c3n[nH]c4ccc(C(=O)NC(c5ccccc5)C5CC5)cc34)cc2)CC1

>  <Name>  (463) 
nan

>  <Pocket>  (463) 
nan

>  <ATP_Site>  (463) 
nan

>  <Peripheral>  (463) 
nan

>  <Num_H_Atoms_ProtBoundConf>  (463) 
nan

>  <Num_Resolved_Atoms>  (463) 
nan

>  <Num_Not_Resolved_Atoms>  (463) 
nan

$$$$
CHEMBL3426620
     RDKit          3D

  0  0  0  0  0  0  0  0  0  0999 V3000
M  V30 BEGIN CTAB
M  V30 COUNTS 54 57 0 0 0
M  V30 BEGIN ATOM
M  V30 1 N -1.190711 -2.644046 4.896965 0
M  V30 2 C -1.620178 -1.268285 5.083869 0
M  V30 3 C -0.797382 -0.316065 4.340589 0
M  V30 4 C 0.142755 0.438829 5.002545 0
M  V30 5 C 0.932700 1.320595 4.291055 0
M  V30 6 C 0.790542 1.453784 2.923667 0
M  V30 7 C 1.660859 2.397690 2.280386 0
M  V30 8 O 2.491976 3.050324 2.945880 0
M  V30 9 N 1.603433 2.614267 0.888649 0
M  V30 10 C 2.295917 3.444265 -0.028988 0
M  V30 11 C 3.445762 2.875900 -0.587188 0
M  V30 12 C 4.145894 3.674313 -1.495677 0
M  V30 13 N 3.727337 4.908841 -1.802933 0
M  V30 14 C 2.622671 5.457809 -1.268172 0
M  V30 15 C 1.871093 4.715446 -0.349966 0
M  V30 16 F 0.734563 5.109307 0.284812 0
M  V30 17 C -0.157632 0.680624 2.318845 0
M  V30 18 C -0.988954 -0.230252 2.983147 0
M  V30 19 C -1.935986 -0.919804 2.130211 0
M  V30 20 C -3.304309 -1.047616 2.155137 0
M  V30 21 C -4.001433 -1.788208 1.228778 0
M  V30 22 C -3.357664 -2.440867 0.224959 0
M  V30 23 C -1.992541 -2.355280 0.140373 0
M  V30 24 C -1.278525 -3.042251 -0.927130 0
M  V30 25 O -0.024096 -2.982525 -1.016465 0
M  V30 26 N -1.912280 -3.808754 -1.921089 0
M  V30 27 C -0.930245 -4.355087 -2.828180 0
M  V30 28 C -0.324693 -5.578292 -2.646456 0
M  V30 29 C 0.611016 -5.981346 -3.606040 0
M  V30 30 C 0.880494 -5.147833 -4.674461 0
M  V30 31 C 0.264178 -3.919617 -4.845520 0
M  V30 32 C -0.670885 -3.513064 -3.889699 0
M  V30 33 C -1.302154 -1.601116 1.087290 0
M  V30 34 H -0.854640 -3.107175 5.750808 0
M  V30 35 H -0.628196 -2.795530 4.053121 0
M  V30 36 H -2.694632 -1.191841 4.875181 0
M  V30 37 H -1.542496 -1.099299 6.200340 0
M  V30 38 H 0.246758 0.328426 6.069268 0
M  V30 39 H 1.656373 1.883898 4.892669 0
M  V30 40 H 0.958612 2.132600 0.242989 0
M  V30 41 H 3.774621 1.869828 -0.327606 0
M  V30 42 H 5.035262 3.236237 -1.927882 0
M  V30 43 H 2.234384 6.437408 -1.470604 0
M  V30 44 H -0.230052 0.822990 1.239012 0
M  V30 45 H -3.772663 -0.501687 2.958076 0
M  V30 46 H -5.068900 -1.782665 1.395450 0
M  V30 47 H -3.979202 -2.995831 -0.454933 0
M  V30 48 H -2.945617 -3.919794 -1.934057 0
M  V30 49 H -0.616650 -6.137055 -1.775211 0
M  V30 50 H 1.081873 -6.943905 -3.456022 0
M  V30 51 H 1.620017 -5.481029 -5.420488 0
M  V30 52 H 0.534888 -3.331947 -5.709861 0
M  V30 53 H -1.139030 -2.552414 -4.042686 0
M  V30 54 H -0.211273 -1.596354 0.931945 0
M  V30 END ATOM
M  V30 BEGIN BOND
M  V30 1 1 1 2
M  V30 2 1 2 3
M  V30 3 2 3 4
M  V30 4 1 4 5
M  V30 5 2 5 6
M  V30 6 1 6 7
M  V30 7 2 7 8
M  V30 8 1 7 9
M  V30 9 1 9 10
M  V30 10 2 10 11
M  V30 11 1 11 12
M  V30 12 2 12 13
M  V30 13 1 13 14
M  V30 14 2 14 15
M  V30 15 1 15 16
M  V30 16 1 6 17
M  V30 17 2 17 18
M  V30 18 1 18 19
M  V30 19 2 19 20
M  V30 20 1 20 21
M  V30 21 2 21 22
M  V30 22 1 22 23
M  V30 23 1 23 24
M  V30 24 2 24 25
M  V30 25 1 24 26
M  V30 26 1 26 27
M  V30 27 2 27 28
M  V30 28 1 28 29
M  V30 29 2 29 30
M  V30 30 1 30 31
M  V30 31 2 31 32
M  V30 32 2 23 33
M  V30 33 1 18 3
M  V30 34 1 33 19
M  V30 35 1 15 10
M  V30 36 1 32 27
M  V30 37 1 1 34
M  V30 38 1 1 35
M  V30 39 1 2 36
M  V30 40 1 2 37
M  V30 41 1 4 38
M  V30 42 1 5 39
M  V30 43 1 9 40
M  V30 44 1 11 41
M  V30 45 1 12 42
M  V30 46 1 14 43
M  V30 47 1 17 44
M  V30 48 1 20 45
M  V30 49 1 21 46
M  V30 50 1 22 47
M  V30 51 1 26 48
M  V30 52 1 28 49
M  V30 53 1 29 50
M  V30 54 1 30 51
M  V30 55 1 31 52
M  V30 56 1 32 53
M  V30 57 1 33 54
M  V30 END BOND
M  V30 END CTAB
M  END
>  <Dataset>  (464) 
ChEMBL_Kinases

>  <Ligand_Instance>  (464) 
nan

>  <PDB_ID>  (464) 
nan

>  <Standardized_SMILES>  (464) 
NCc1ccc(C(=O)Nc2ccncc2F)cc1-c1cccc(C(=O)Nc2ccccc2)c1

>  <Name>  (464) 
nan

>  <Pocket>  (464) 
nan

>  <ATP_Site>  (464) 
nan

>  <Peripheral>  (464) 
nan

>  <Num_H_Atoms_ProtBoundConf>  (464) 
nan

>  <Num_Resolved_Atoms>  (464) 
nan

>  <Num_Not_Resolved_Atoms>  (464) 
nan

$$$$
CHEMBL3426272
     RDKit          3D

  0  0  0  0  0  0  0  0  0  0999 V3000
M  V30 BEGIN CTAB
M  V30 COUNTS 44 47 0 0 0
M  V30 BEGIN ATOM
M  V30 1 N 4.286890 -2.774694 4.928522 0
M  V30 2 C 3.467247 -3.479036 3.997010 0
M  V30 3 N 3.258395 -4.804281 4.092216 0
M  V30 4 C 2.470261 -5.427755 3.180266 0
M  V30 5 C 1.937092 -4.620258 2.206585 0
M  V30 6 C 2.103067 -3.277720 2.047584 0
M  V30 7 C 1.590398 -2.370748 1.056237 0
M  V30 8 C 1.996678 -1.040237 1.054828 0
M  V30 9 N 1.400436 -0.369926 0.059068 0
M  V30 10 S 1.551876 1.287955 -0.394308 0
M  V30 11 O 2.546424 1.935995 0.534961 0
M  V30 12 O 2.160244 1.323661 -1.760294 0
M  V30 13 C 0.076854 2.178824 -0.301823 0
M  V30 14 C -0.444778 2.756738 -1.440966 0
M  V30 15 C -1.627981 3.456955 -1.327684 0
M  V30 16 C -2.311626 3.607086 -0.138466 0
M  V30 17 C -3.587224 4.375113 -0.071477 0
M  V30 18 F -4.447899 3.995643 -1.092331 0
M  V30 19 F -4.245318 4.018211 1.101997 0
M  V30 20 F -3.401561 5.730865 -0.027612 0
M  V30 21 C -1.791740 3.027106 1.014711 0
M  V30 22 C -0.607993 2.331272 0.881446 0
M  V30 23 N -0.147036 1.777634 2.105682 0 CHG=1 VAL=4
M  V30 24 O 0.876272 1.476171 2.746945 0
M  V30 25 O -0.983644 1.346251 3.112404 0 CHG=-1 VAL=1
M  V30 26 C 0.590515 -1.184945 -0.636516 0
M  V30 27 C -0.249320 -1.064631 -1.720065 0
M  V30 28 C -0.975495 -2.142744 -2.205064 0
M  V30 29 C -0.819563 -3.345042 -1.552595 0
M  V30 30 Br -1.822831 -4.820305 -2.227805 0
M  V30 31 C 0.017995 -3.465663 -0.472043 0
M  V30 32 C 0.729192 -2.395246 -0.003498 0
M  V30 33 N 2.895241 -2.812484 3.010581 0
M  V30 34 H 3.590372 -2.575912 5.697022 0
M  V30 35 H 5.296049 -2.462875 4.988228 0
M  V30 36 H 2.268375 -6.486389 3.207489 0
M  V30 37 H 1.329298 -5.143794 1.501615 0
M  V30 38 H 2.687133 -0.479767 1.699669 0
M  V30 39 H 0.034633 2.678746 -2.396652 0
M  V30 40 H -2.063961 3.924287 -2.209247 0
M  V30 41 H -2.333019 3.149058 1.943025 0
M  V30 42 H -0.340340 -0.102680 -2.200269 0
M  V30 43 H -1.615844 -1.965968 -3.064083 0
M  V30 44 H 0.054125 -4.435289 -0.047706 0
M  V30 END ATOM
M  V30 BEGIN BOND
M  V30 1 1 1 2
M  V30 2 2 2 3
M  V30 3 1 3 4
M  V30 4 2 4 5
M  V30 5 1 5 6
M  V30 6 1 6 7
M  V30 7 2 7 8
M  V30 8 1 8 9
M  V30 9 1 9 10
M  V30 10 2 10 11
M  V30 11 2 10 12
M  V30 12 1 10 13
M  V30 13 2 13 14
M  V30 14 1 14 15
M  V30 15 2 15 16
M  V30 16 1 16 17
M  V30 17 1 17 18
M  V30 18 1 17 19
M  V30 19 1 17 20
M  V30 20 1 16 21
M  V30 21 2 21 22
M  V30 22 1 22 23
M  V30 23 2 23 24
M  V30 24 1 23 25
M  V30 25 1 9 26
M  V30 26 2 26 27
M  V30 27 1 27 28
M  V30 28 2 28 29
M  V30 29 1 29 30
M  V30 30 1 29 31
M  V30 31 2 31 32
M  V30 32 2 6 33
M  V30 33 1 33 2
M  V30 34 1 32 7
M  V30 35 1 22 13
M  V30 36 1 32 26
M  V30 37 1 1 34
M  V30 38 1 1 35
M  V30 39 1 4 36
M  V30 40 1 5 37
M  V30 41 1 8 38
M  V30 42 1 14 39
M  V30 43 1 15 40
M  V30 44 1 21 41
M  V30 45 1 27 42
M  V30 46 1 28 43
M  V30 47 1 31 44
M  V30 END BOND
M  V30 END CTAB
M  END
>  <Dataset>  (465) 
ChEMBL_Kinases

>  <Ligand_Instance>  (465) 
nan

>  <PDB_ID>  (465) 
nan

>  <Standardized_SMILES>  (465) 
Nc1nccc(-c2cn(S(=O)(=O)c3ccc(C(F)(F)F)cc3[N+](=O)[O-])c3ccc(Br)cc23)n1

>  <Name>  (465) 
nan

>  <Pocket>  (465) 
nan

>  <ATP_Site>  (465) 
nan

>  <Peripheral>  (465) 
nan

>  <Num_H_Atoms_ProtBoundConf>  (465) 
nan

>  <Num_Resolved_Atoms>  (465) 
nan

>  <Num_Not_Resolved_Atoms>  (465) 
nan

$$$$
CHEMBL3425880
     RDKit          3D

  0  0  0  0  0  0  0  0  0  0999 V3000
M  V30 BEGIN CTAB
M  V30 COUNTS 28 29 0 0 0
M  V30 BEGIN ATOM
M  V30 1 C 1.179889 -4.601731 1.856221 0
M  V30 2 C 1.774483 -3.293759 2.326294 0
M  V30 3 C 1.196557 -2.106594 1.695085 0
M  V30 4 N 1.740542 -1.620896 0.548842 0
M  V30 5 C 1.218833 -0.546061 -0.024387 0
M  V30 6 S 1.673109 0.338874 -1.501591 0
M  V30 7 C 0.393964 1.593866 -1.408459 0
M  V30 8 C 0.316198 2.621142 -2.434871 0
M  V30 9 C -0.282615 1.253300 -0.269181 0
M  V30 10 C -1.411169 2.171517 0.017884 0
M  V30 11 C 0.136861 0.159713 0.440520 0
M  V30 12 C -0.424834 -0.324155 1.604954 0
M  V30 13 O -1.413249 0.129106 2.237618 0
M  V30 14 N 0.137522 -1.414608 2.148883 0
M  V30 15 N -0.379452 -1.974570 3.345028 0
M  V30 16 H 0.456654 -5.006945 2.568762 0
M  V30 17 H 1.966040 -5.353094 1.568362 0
M  V30 18 H 0.635936 -4.382415 0.896631 0
M  V30 19 H 2.865966 -3.329177 2.042269 0
M  V30 20 H 1.790334 -3.222957 3.446117 0
M  V30 21 H 1.090718 3.391690 -2.224017 0
M  V30 22 H -0.687691 3.045676 -2.420815 0
M  V30 23 H 0.564195 2.212419 -3.443984 0
M  V30 24 H -2.022729 1.899988 0.888413 0
M  V30 25 H -1.021886 3.200447 0.255947 0
M  V30 26 H -2.127976 2.228511 -0.836087 0
M  V30 27 H -0.868699 -2.878788 3.518183 0
M  V30 28 H -0.291895 -1.443487 4.259987 0
M  V30 END ATOM
M  V30 BEGIN BOND
M  V30 1 1 1 2
M  V30 2 1 2 3
M  V30 3 2 3 4
M  V30 4 1 4 5
M  V30 5 1 5 6
M  V30 6 1 6 7
M  V30 7 1 7 8
M  V30 8 2 7 9
M  V30 9 1 9 10
M  V30 10 1 9 11
M  V30 11 1 11 12
M  V30 12 2 12 13
M  V30 13 1 12 14
M  V30 14 1 14 15
M  V30 15 1 14 3
M  V30 16 2 11 5
M  V30 17 1 1 16
M  V30 18 1 1 17
M  V30 19 1 1 18
M  V30 20 1 2 19
M  V30 21 1 2 20
M  V30 22 1 8 21
M  V30 23 1 8 22
M  V30 24 1 8 23
M  V30 25 1 10 24
M  V30 26 1 10 25
M  V30 27 1 10 26
M  V30 28 1 15 27
M  V30 29 1 15 28
M  V30 END BOND
M  V30 END CTAB
M  END
>  <Dataset>  (466) 
ChEMBL_Kinases

>  <Ligand_Instance>  (466) 
nan

>  <PDB_ID>  (466) 
nan

>  <Standardized_SMILES>  (466) 
CCc1nc2sc(C)c(C)c2c(=O)n1N

>  <Name>  (466) 
nan

>  <Pocket>  (466) 
nan

>  <ATP_Site>  (466) 
nan

>  <Peripheral>  (466) 
nan

>  <Num_H_Atoms_ProtBoundConf>  (466) 
nan

>  <Num_Resolved_Atoms>  (466) 
nan

>  <Num_Not_Resolved_Atoms>  (466) 
nan

$$$$
CHEMBL3425878
     RDKit          3D

  0  0  0  0  0  0  0  0  0  0999 V3000
M  V30 BEGIN CTAB
M  V30 COUNTS 47 50 0 0 0
M  V30 BEGIN ATOM
M  V30 1 C -0.285179 -6.326927 4.116108 0
M  V30 2 O -1.444141 -5.781205 3.480727 0
M  V30 3 C -1.258121 -4.624294 2.706956 0
M  V30 4 C 0.003166 -4.048943 2.575416 0
M  V30 5 C 0.201075 -2.899187 1.809342 0
M  V30 6 C -0.888227 -2.325980 1.170073 0
M  V30 7 C -0.710698 -1.124199 0.362939 0
M  V30 8 C 0.278389 -0.261660 0.783469 0
M  V30 9 N 0.500659 0.860993 0.095566 0
M  V30 10 C -0.143302 1.272898 -0.998265 0
M  V30 11 C 0.024306 2.380691 -1.735873 0
M  V30 12 N 0.902564 3.474384 -1.640988 0
M  V30 13 C 1.934734 3.742054 -0.680236 0
M  V30 14 C 1.486348 3.828489 0.743141 0
M  V30 15 C 2.516734 3.134571 1.606166 0
M  V30 16 O 3.745723 3.746231 1.279893 0
M  V30 17 C 4.206951 3.133778 0.123766 0
M  V30 18 C 3.138153 2.819652 -0.877857 0
M  V30 19 S -1.156977 2.314095 -3.048328 0
M  V30 20 N -1.916855 0.681212 -2.555301 0
M  V30 21 C -1.107804 0.411376 -1.391089 0
M  V30 22 C -1.423097 -0.771213 -0.760602 0
M  V30 23 C -2.132460 -2.914125 1.314301 0
M  V30 24 C -2.327059 -4.036976 2.062141 0
M  V30 25 O -3.562425 -4.640433 2.219047 0
M  V30 26 C -4.758105 -4.204031 1.652743 0
M  V30 27 H 0.462373 -6.578887 3.344954 0
M  V30 28 H -0.553265 -7.270754 4.633487 0
M  V30 29 H 0.079982 -5.588354 4.849436 0
M  V30 30 H 0.848528 -4.525967 3.094138 0
M  V30 31 H 1.177297 -2.491064 1.733579 0
M  V30 32 H 0.884729 -0.472232 1.664120 0
M  V30 33 H 0.827052 4.250960 -2.376953 0
M  V30 34 H 2.393787 4.763283 -0.886171 0
M  V30 35 H 0.445501 3.497663 0.931927 0
M  V30 36 H 1.480059 4.892558 1.142546 0
M  V30 37 H 2.653591 2.075605 1.375923 0
M  V30 38 H 2.333573 3.276376 2.687623 0
M  V30 39 H 5.041297 3.752797 -0.269560 0
M  V30 40 H 4.687828 2.174120 0.432212 0
M  V30 41 H 2.894280 1.766745 -0.945356 0
M  V30 42 H 3.558678 3.090045 -1.892284 0
M  V30 43 H -2.171616 -1.502166 -1.013051 0
M  V30 44 H -2.954041 -2.439505 0.802321 0
M  V30 45 H -5.622201 -4.542022 2.292440 0
M  V30 46 H -4.906427 -4.773139 0.690914 0
M  V30 47 H -4.795272 -3.141579 1.416100 0
M  V30 END ATOM
M  V30 BEGIN BOND
M  V30 1 1 1 2
M  V30 2 1 2 3
M  V30 3 2 3 4
M  V30 4 1 4 5
M  V30 5 2 5 6
M  V30 6 1 6 7
M  V30 7 1 7 8
M  V30 8 2 8 9
M  V30 9 1 9 10
M  V30 10 2 10 11
M  V30 11 1 11 12
M  V30 12 1 12 13
M  V30 13 1 13 14
M  V30 14 1 14 15
M  V30 15 1 15 16
M  V30 16 1 16 17
M  V30 17 1 17 18
M  V30 18 1 11 19
M  V30 19 1 19 20
M  V30 20 2 20 21
M  V30 21 1 21 22
M  V30 22 1 6 23
M  V30 23 2 23 24
M  V30 24 1 24 25
M  V30 25 1 25 26
M  V30 26 1 24 3
M  V30 27 2 22 7
M  V30 28 1 21 10
M  V30 29 1 18 13
M  V30 30 1 1 27
M  V30 31 1 1 28
M  V30 32 1 1 29
M  V30 33 1 4 30
M  V30 34 1 5 31
M  V30 35 1 8 32
M  V30 36 1 12 33
M  V30 37 1 13 34
M  V30 38 1 14 35
M  V30 39 1 14 36
M  V30 40 1 15 37
M  V30 41 1 15 38
M  V30 42 1 17 39
M  V30 43 1 17 40
M  V30 44 1 18 41
M  V30 45 1 18 42
M  V30 46 1 22 43
M  V30 47 1 23 44
M  V30 48 1 26 45
M  V30 49 1 26 46
M  V30 50 1 26 47
M  V30 END BOND
M  V30 END CTAB
M  END
>  <Dataset>  (467) 
ChEMBL_Kinases

>  <Ligand_Instance>  (467) 
nan

>  <PDB_ID>  (467) 
nan

>  <Standardized_SMILES>  (467) 
COc1ccc(-c2cnc3c(NC4CCOCC4)snc3c2)cc1OC

>  <Name>  (467) 
nan

>  <Pocket>  (467) 
nan

>  <ATP_Site>  (467) 
nan

>  <Peripheral>  (467) 
nan

>  <Num_H_Atoms_ProtBoundConf>  (467) 
nan

>  <Num_Resolved_Atoms>  (467) 
nan

>  <Num_Not_Resolved_Atoms>  (467) 
nan

$$$$
CHEMBL3425877
     RDKit          3D

  0  0  0  0  0  0  0  0  0  0999 V3000
M  V30 BEGIN CTAB
M  V30 COUNTS 47 50 0 0 0
M  V30 BEGIN ATOM
M  V30 1 C -1.047624 -6.322110 4.459822 0
M  V30 2 O -2.075046 -5.793010 3.658849 0
M  V30 3 C -1.776679 -4.687822 2.865691 0
M  V30 4 C -0.485989 -4.170834 2.910509 0
M  V30 5 C -0.096450 -3.078100 2.159579 0
M  V30 6 C -1.055932 -2.489326 1.334292 0
M  V30 7 C -0.637151 -1.337494 0.540339 0
M  V30 8 C 0.350840 -0.527554 1.115084 0
M  V30 9 N 0.798452 0.559088 0.455513 0
M  V30 10 C 0.356944 0.943874 -0.755962 0
M  V30 11 C 0.732297 1.987909 -1.494364 0
M  V30 12 N 1.717784 3.014940 -1.209244 0
M  V30 13 C 1.534979 4.363668 -0.713141 0
M  V30 14 C 2.837529 4.786374 -0.070301 0
M  V30 15 C 3.288846 3.660608 0.843717 0
M  V30 16 O 2.251253 3.233953 1.660585 0
M  V30 17 C 3.780321 2.555123 -0.069339 0
M  V30 18 C 3.133536 2.683467 -1.432148 0
M  V30 19 S -0.154311 2.005542 -2.974882 0
M  V30 20 N -1.124530 0.458028 -2.561111 0
M  V30 21 C -0.614404 0.160961 -1.338436 0
M  V30 22 C -1.109170 -0.963368 -0.706984 0
M  V30 23 C -2.320363 -2.989986 1.285852 0
M  V30 24 C -2.720423 -4.078898 2.027923 0
M  V30 25 O -3.943431 -4.679690 2.073503 0
M  V30 26 C -5.083118 -4.307938 1.351308 0
M  V30 27 H -0.162897 -6.592774 3.818581 0
M  V30 28 H -1.336617 -7.219209 5.009286 0
M  V30 29 H -0.698616 -5.546789 5.199700 0
M  V30 30 H 0.278992 -4.623146 3.554927 0
M  V30 31 H 0.937963 -2.733916 2.251912 0
M  V30 32 H 0.812116 -0.707366 2.100407 0
M  V30 33 H 1.348591 5.052377 -1.590000 0
M  V30 34 H 0.706242 4.494304 -0.020292 0
M  V30 35 H 3.628847 4.917169 -0.850773 0
M  V30 36 H 2.786821 5.760299 0.443757 0
M  V30 37 H 4.127993 4.007251 1.475553 0
M  V30 38 H 1.721547 4.003856 1.990545 0
M  V30 39 H 4.871136 2.553011 -0.123830 0
M  V30 40 H 3.477516 1.581068 0.357311 0
M  V30 41 H 3.170847 1.660439 -1.874012 0
M  V30 42 H 3.638528 3.342206 -2.129060 0
M  V30 43 H -1.860984 -1.656068 -1.045365 0
M  V30 44 H -3.078580 -2.564015 0.666656 0
M  V30 45 H -5.895462 -3.967461 2.058758 0
M  V30 46 H -5.526009 -5.181290 0.790384 0
M  V30 47 H -4.896047 -3.511623 0.620498 0
M  V30 END ATOM
M  V30 BEGIN BOND
M  V30 1 1 1 2
M  V30 2 1 2 3
M  V30 3 2 3 4
M  V30 4 1 4 5
M  V30 5 2 5 6
M  V30 6 1 6 7
M  V30 7 1 7 8
M  V30 8 2 8 9
M  V30 9 1 9 10
M  V30 10 2 10 11
M  V30 11 1 11 12
M  V30 12 1 12 13
M  V30 13 1 13 14
M  V30 14 1 14 15
M  V30 15 1 15 16
M  V30 16 1 15 17
M  V30 17 1 17 18
M  V30 18 1 11 19
M  V30 19 1 19 20
M  V30 20 2 20 21
M  V30 21 1 21 22
M  V30 22 1 6 23
M  V30 23 2 23 24
M  V30 24 1 24 25
M  V30 25 1 25 26
M  V30 26 1 24 3
M  V30 27 2 22 7
M  V30 28 1 21 10
M  V30 29 1 18 12
M  V30 30 1 1 27
M  V30 31 1 1 28
M  V30 32 1 1 29
M  V30 33 1 4 30
M  V30 34 1 5 31
M  V30 35 1 8 32
M  V30 36 1 13 33
M  V30 37 1 13 34
M  V30 38 1 14 35
M  V30 39 1 14 36
M  V30 40 1 15 37
M  V30 41 1 16 38
M  V30 42 1 17 39
M  V30 43 1 17 40
M  V30 44 1 18 41
M  V30 45 1 18 42
M  V30 46 1 22 43
M  V30 47 1 23 44
M  V30 48 1 26 45
M  V30 49 1 26 46
M  V30 50 1 26 47
M  V30 END BOND
M  V30 END CTAB
M  END
>  <Dataset>  (468) 
ChEMBL_Kinases

>  <Ligand_Instance>  (468) 
nan

>  <PDB_ID>  (468) 
nan

>  <Standardized_SMILES>  (468) 
COc1ccc(-c2cnc3c(N4CCC(O)CC4)snc3c2)cc1OC

>  <Name>  (468) 
nan

>  <Pocket>  (468) 
nan

>  <ATP_Site>  (468) 
nan

>  <Peripheral>  (468) 
nan

>  <Num_H_Atoms_ProtBoundConf>  (468) 
nan

>  <Num_Resolved_Atoms>  (468) 
nan

>  <Num_Not_Resolved_Atoms>  (468) 
nan

$$$$
CHEMBL3425876
     RDKit          3D

  0  0  0  0  0  0  0  0  0  0999 V3000
M  V30 BEGIN CTAB
M  V30 COUNTS 50 53 0 0 0
M  V30 BEGIN ATOM
M  V30 1 C 0.696344 -8.046183 1.099335 0
M  V30 2 O 0.183771 -7.362749 -0.005367 0
M  V30 3 C -0.019692 -6.016433 -0.082439 0
M  V30 4 C 0.295423 -5.200370 1.011709 0
M  V30 5 C 0.095965 -3.839900 0.949758 0
M  V30 6 C -0.413061 -3.207389 -0.162002 0
M  V30 7 C -0.606938 -1.762095 -0.196115 0
M  V30 8 C 0.302672 -1.042060 0.549480 0
M  V30 9 N 0.226029 0.297863 0.587871 0
M  V30 10 C -0.699001 1.024419 -0.065621 0
M  V30 11 C -0.861431 2.375510 -0.093583 0
M  V30 12 N -0.033099 3.311728 0.615004 0
M  V30 13 C 1.217009 3.999438 0.360846 0
M  V30 14 C 2.181217 3.916223 1.494184 0 CFG=1
M  V30 15 C 2.570664 5.329996 1.895729 0
M  V30 16 O 1.790172 3.286735 2.611789 0
M  V30 17 C 0.486066 3.090475 2.895388 0 CFG=1
M  V30 18 C 0.232244 3.562487 4.335858 0
M  V30 19 C -0.498792 3.718132 1.929241 0
M  V30 20 S -2.210691 2.752721 -1.098423 0
M  V30 21 N -2.592094 0.967447 -1.515889 0
M  V30 22 C -1.608954 0.312960 -0.811148 0
M  V30 23 C -1.579452 -1.063826 -0.887776 0
M  V30 24 C -0.728175 -4.008696 -1.250115 0
M  V30 25 C -0.531373 -5.379086 -1.198887 0
M  V30 26 O -0.819827 -6.248687 -2.239768 0
M  V30 27 C -1.352987 -5.794796 -3.465767 0
M  V30 28 H 1.810100 -8.103304 1.105620 0
M  V30 29 H 0.331580 -9.105471 0.999193 0
M  V30 30 H 0.344031 -7.660956 2.080558 0
M  V30 31 H 0.698049 -5.659495 1.906646 0
M  V30 32 H 0.356837 -3.275377 1.820012 0
M  V30 33 H 1.121321 -1.483279 1.140977 0
M  V30 34 H 0.945197 5.050765 0.127984 0
M  V30 35 H 1.628652 3.580344 -0.580917 0
M  V30 36 H 3.117647 3.434487 1.127529 0
M  V30 37 H 3.549073 5.315289 2.415663 0
M  V30 38 H 1.811751 5.654900 2.640880 0
M  V30 39 H 2.630031 6.025948 1.041182 0
M  V30 40 H 0.229624 2.000591 2.914230 0
M  V30 41 H -0.769648 3.148939 4.601004 0
M  V30 42 H 1.008608 3.038038 4.941753 0
M  V30 43 H 0.284178 4.646933 4.427542 0
M  V30 44 H -0.514980 4.834092 2.011756 0
M  V30 45 H -1.508688 3.299415 2.175542 0
M  V30 46 H -2.232765 -1.713970 -1.431644 0
M  V30 47 H -1.130605 -3.585130 -2.154160 0
M  V30 48 H -2.118054 -5.020348 -3.243447 0
M  V30 49 H -1.860159 -6.619371 -4.013143 0
M  V30 50 H -0.552268 -5.418345 -4.148789 0
M  V30 END ATOM
M  V30 BEGIN BOND
M  V30 1 1 1 2
M  V30 2 1 2 3
M  V30 3 2 3 4
M  V30 4 1 4 5
M  V30 5 2 5 6
M  V30 6 1 6 7
M  V30 7 1 7 8
M  V30 8 2 8 9
M  V30 9 1 9 10
M  V30 10 2 10 11
M  V30 11 1 11 12
M  V30 12 1 12 13
M  V30 13 1 13 14
M  V30 14 1 14 15
M  V30 15 1 14 16
M  V30 16 1 16 17
M  V30 17 1 17 18
M  V30 18 1 17 19
M  V30 19 1 11 20
M  V30 20 1 20 21
M  V30 21 2 21 22
M  V30 22 1 22 23
M  V30 23 1 6 24
M  V30 24 2 24 25
M  V30 25 1 25 26
M  V30 26 1 26 27
M  V30 27 1 25 3
M  V30 28 2 23 7
M  V30 29 1 22 10
M  V30 30 1 19 12
M  V30 31 1 1 28
M  V30 32 1 1 29
M  V30 33 1 1 30
M  V30 34 1 4 31
M  V30 35 1 5 32
M  V30 36 1 8 33
M  V30 37 1 13 34
M  V30 38 1 13 35
M  V30 39 1 14 36 CFG=3
M  V30 40 1 15 37
M  V30 41 1 15 38
M  V30 42 1 15 39
M  V30 43 1 17 40 CFG=1
M  V30 44 1 18 41
M  V30 45 1 18 42
M  V30 46 1 18 43
M  V30 47 1 19 44
M  V30 48 1 19 45
M  V30 49 1 23 46
M  V30 50 1 24 47
M  V30 51 1 27 48
M  V30 52 1 27 49
M  V30 53 1 27 50
M  V30 END BOND
M  V30 END CTAB
M  END
>  <Dataset>  (469) 
ChEMBL_Kinases

>  <Ligand_Instance>  (469) 
nan

>  <PDB_ID>  (469) 
nan

>  <Standardized_SMILES>  (469) 
COc1ccc(-c2cnc3c(N4C[C@@H](C)O[C@@H](C)C4)snc3c2)cc1OC

>  <Name>  (469) 
nan

>  <Pocket>  (469) 
nan

>  <ATP_Site>  (469) 
nan

>  <Peripheral>  (469) 
nan

>  <Num_H_Atoms_ProtBoundConf>  (469) 
nan

>  <Num_Resolved_Atoms>  (469) 
nan

>  <Num_Not_Resolved_Atoms>  (469) 
nan

$$$$
CHEMBL3425875
     RDKit          3D

  0  0  0  0  0  0  0  0  0  0999 V3000
M  V30 BEGIN CTAB
M  V30 COUNTS 44 47 0 0 0
M  V30 BEGIN ATOM
M  V30 1 C 0.809569 -7.651995 1.335208 0
M  V30 2 O -0.078949 -6.629549 1.734242 0
M  V30 3 C 0.116419 -5.314986 1.336809 0
M  V30 4 C 1.137532 -4.851517 0.548753 0
M  V30 5 C 1.277402 -3.531684 0.187969 0
M  V30 6 C 0.331027 -2.636945 0.651816 0
M  V30 7 C 0.492076 -1.237070 0.260507 0
M  V30 8 C 0.068702 -0.230362 1.101359 0
M  V30 9 N 0.216961 1.037628 0.741575 0
M  V30 10 C 0.756635 1.464288 -0.399147 0
M  V30 11 C 0.993023 2.759623 -0.943001 0
M  V30 12 N 0.662447 4.016843 -0.306294 0
M  V30 13 C 0.965073 5.239790 -0.977491 0
M  V30 14 C 1.525657 6.206604 0.045978 0
M  V30 15 S 2.339407 5.295327 1.396089 0
M  V30 16 C 1.109038 4.113040 2.059756 0
M  V30 17 C 0.044922 3.983895 0.972351 0
M  V30 18 S 1.747772 2.532939 -2.504793 0
M  V30 19 N 1.805097 0.802623 -2.554919 0
M  V30 20 C 1.177730 0.485767 -1.236413 0
M  V30 21 C 1.058891 -0.853414 -0.934979 0
M  V30 22 C -0.730701 -3.029786 1.453266 0
M  V30 23 C -0.797408 -4.372958 1.768992 0
M  V30 24 O -1.869722 -4.782729 2.581058 0
M  V30 25 C -2.804222 -3.819407 3.023074 0
M  V30 26 H 0.167250 -8.580105 1.287216 0
M  V30 27 H 1.129996 -7.473135 0.310114 0
M  V30 28 H 1.617623 -7.848105 2.067766 0
M  V30 29 H 1.860908 -5.572656 0.201748 0
M  V30 30 H 2.097036 -3.235986 -0.428964 0
M  V30 31 H -0.386071 -0.426060 2.055921 0
M  V30 32 H 0.045187 5.675104 -1.426252 0
M  V30 33 H 1.692522 5.112578 -1.805835 0
M  V30 34 H 0.708366 6.793469 0.515734 0
M  V30 35 H 2.274130 6.884804 -0.399613 0
M  V30 36 H 1.615353 3.135392 2.244878 0
M  V30 37 H 0.682010 4.461814 3.017845 0
M  V30 38 H -0.543076 4.945562 1.059459 0
M  V30 39 H -0.683441 3.197046 1.158031 0
M  V30 40 H 1.370116 -1.677207 -1.550070 0
M  V30 41 H -1.452309 -2.301877 1.797891 0
M  V30 42 H -2.329220 -3.084015 3.726959 0
M  V30 43 H -3.198577 -3.299824 2.140684 0
M  V30 44 H -3.624296 -4.373581 3.562311 0
M  V30 END ATOM
M  V30 BEGIN BOND
M  V30 1 1 1 2
M  V30 2 1 2 3
M  V30 3 2 3 4
M  V30 4 1 4 5
M  V30 5 2 5 6
M  V30 6 1 6 7
M  V30 7 1 7 8
M  V30 8 2 8 9
M  V30 9 1 9 10
M  V30 10 2 10 11
M  V30 11 1 11 12
M  V30 12 1 12 13
M  V30 13 1 13 14
M  V30 14 1 14 15
M  V30 15 1 15 16
M  V30 16 1 16 17
M  V30 17 1 11 18
M  V30 18 1 18 19
M  V30 19 2 19 20
M  V30 20 1 20 21
M  V30 21 1 6 22
M  V30 22 2 22 23
M  V30 23 1 23 24
M  V30 24 1 24 25
M  V30 25 1 23 3
M  V30 26 2 21 7
M  V30 27 1 20 10
M  V30 28 1 17 12
M  V30 29 1 1 26
M  V30 30 1 1 27
M  V30 31 1 1 28
M  V30 32 1 4 29
M  V30 33 1 5 30
M  V30 34 1 8 31
M  V30 35 1 13 32
M  V30 36 1 13 33
M  V30 37 1 14 34
M  V30 38 1 14 35
M  V30 39 1 16 36
M  V30 40 1 16 37
M  V30 41 1 17 38
M  V30 42 1 17 39
M  V30 43 1 21 40
M  V30 44 1 22 41
M  V30 45 1 25 42
M  V30 46 1 25 43
M  V30 47 1 25 44
M  V30 END BOND
M  V30 END CTAB
M  END
>  <Dataset>  (470) 
ChEMBL_Kinases

>  <Ligand_Instance>  (470) 
nan

>  <PDB_ID>  (470) 
nan

>  <Standardized_SMILES>  (470) 
COc1ccc(-c2cnc3c(N4CCSCC4)snc3c2)cc1OC

>  <Name>  (470) 
nan

>  <Pocket>  (470) 
nan

>  <ATP_Site>  (470) 
nan

>  <Peripheral>  (470) 
nan

>  <Num_H_Atoms_ProtBoundConf>  (470) 
nan

>  <Num_Resolved_Atoms>  (470) 
nan

>  <Num_Not_Resolved_Atoms>  (470) 
nan

$$$$
CHEMBL3425874
     RDKit          3D

  0  0  0  0  0  0  0  0  0  0999 V3000
M  V30 BEGIN CTAB
M  V30 COUNTS 46 49 0 0 0
M  V30 BEGIN ATOM
M  V30 1 C -0.390949 -7.841982 1.486503 0
M  V30 2 O -1.354165 -6.821999 1.678735 0
M  V30 3 C -0.972217 -5.522783 1.329070 0
M  V30 4 C 0.286868 -5.263610 0.822158 0
M  V30 5 C 0.698129 -3.991768 0.466144 0
M  V30 6 C -0.224411 -2.963473 0.642157 0
M  V30 7 C 0.218416 -1.615322 0.261262 0
M  V30 8 C -0.308656 -0.557299 0.970867 0
M  V30 9 N 0.095528 0.673854 0.621936 0
M  V30 10 C 0.966430 0.955992 -0.356534 0
M  V30 11 C 1.382417 2.162297 -0.722184 0
M  V30 12 N 1.069022 3.484443 -0.232790 0
M  V30 13 C 1.642699 4.695104 -0.786492 0
M  V30 14 C 2.463617 5.402682 0.286838 0
M  V30 15 C 2.433864 4.622775 1.586530 0
M  V30 16 C 1.002425 4.333430 2.013282 0
M  V30 17 C 0.172804 3.844526 0.846279 0
M  V30 18 S 2.504387 1.989351 -2.034837 0
M  V30 19 N 2.394812 0.130748 -2.085242 0
M  V30 20 C 1.504415 -0.082044 -1.076861 0
M  V30 21 C 1.117521 -1.365209 -0.752817 0
M  V30 22 C -1.482138 -3.161744 1.138795 0
M  V30 23 C -1.834080 -4.454966 1.476270 0
M  V30 24 O -3.081563 -4.761519 1.986381 0
M  V30 25 C -4.099653 -3.829988 2.212742 0
M  V30 26 H -0.124685 -7.790468 0.393373 0
M  V30 27 H 0.528217 -7.586382 2.042666 0
M  V30 28 H -0.805610 -8.833330 1.765077 0
M  V30 29 H 0.997797 -6.065730 0.688138 0
M  V30 30 H 1.697205 -3.849893 0.074177 0
M  V30 31 H -1.019444 -0.725508 1.775326 0
M  V30 32 H 0.822903 5.376901 -1.074557 0
M  V30 33 H 2.292875 4.449130 -1.654898 0
M  V30 34 H 2.120608 6.435982 0.475227 0
M  V30 35 H 3.534364 5.449514 -0.030384 0
M  V30 36 H 3.010484 3.686421 1.520728 0
M  V30 37 H 2.872732 5.272757 2.371294 0
M  V30 38 H 0.541205 5.257206 2.381021 0
M  V30 39 H 1.052682 3.602993 2.837477 0
M  V30 40 H -0.576092 4.599470 0.529294 0
M  V30 41 H -0.355255 2.929269 1.178514 0
M  V30 42 H 1.454600 -2.272748 -1.228867 0
M  V30 43 H -2.160065 -2.342437 1.257931 0
M  V30 44 H -4.008438 -3.373472 3.208702 0
M  V30 45 H -4.075612 -3.012517 1.447646 0
M  V30 46 H -5.117699 -4.315124 2.151826 0
M  V30 END ATOM
M  V30 BEGIN BOND
M  V30 1 1 1 2
M  V30 2 1 2 3
M  V30 3 2 3 4
M  V30 4 1 4 5
M  V30 5 2 5 6
M  V30 6 1 6 7
M  V30 7 1 7 8
M  V30 8 2 8 9
M  V30 9 1 9 10
M  V30 10 2 10 11
M  V30 11 1 11 12
M  V30 12 1 12 13
M  V30 13 1 13 14
M  V30 14 1 14 15
M  V30 15 1 15 16
M  V30 16 1 16 17
M  V30 17 1 11 18
M  V30 18 1 18 19
M  V30 19 2 19 20
M  V30 20 1 20 21
M  V30 21 1 6 22
M  V30 22 2 22 23
M  V30 23 1 23 24
M  V30 24 1 24 25
M  V30 25 1 23 3
M  V30 26 2 21 7
M  V30 27 1 20 10
M  V30 28 1 17 12
M  V30 29 1 1 26
M  V30 30 1 1 27
M  V30 31 1 1 28
M  V30 32 1 4 29
M  V30 33 1 5 30
M  V30 34 1 8 31
M  V30 35 1 13 32
M  V30 36 1 13 33
M  V30 37 1 14 34
M  V30 38 1 14 35
M  V30 39 1 15 36
M  V30 40 1 15 37
M  V30 41 1 16 38
M  V30 42 1 16 39
M  V30 43 1 17 40
M  V30 44 1 17 41
M  V30 45 1 21 42
M  V30 46 1 22 43
M  V30 47 1 25 44
M  V30 48 1 25 45
M  V30 49 1 25 46
M  V30 END BOND
M  V30 END CTAB
M  END
>  <Dataset>  (471) 
ChEMBL_Kinases

>  <Ligand_Instance>  (471) 
nan

>  <PDB_ID>  (471) 
nan

>  <Standardized_SMILES>  (471) 
COc1ccc(-c2cnc3c(N4CCCCC4)snc3c2)cc1OC

>  <Name>  (471) 
nan

>  <Pocket>  (471) 
nan

>  <ATP_Site>  (471) 
nan

>  <Peripheral>  (471) 
nan

>  <Num_H_Atoms_ProtBoundConf>  (471) 
nan

>  <Num_Resolved_Atoms>  (471) 
nan

>  <Num_Not_Resolved_Atoms>  (471) 
nan

$$$$
CHEMBL3425873
     RDKit          3D

  0  0  0  0  0  0  0  0  0  0999 V3000
M  V30 BEGIN CTAB
M  V30 COUNTS 43 46 0 0 0
M  V30 BEGIN ATOM
M  V30 1 C 0.004047 -4.969804 5.575489 0
M  V30 2 O 0.399587 -5.197942 4.241242 0
M  V30 3 C 0.404577 -4.199821 3.280355 0
M  V30 4 C 0.013897 -2.892771 3.592598 0
M  V30 5 C 0.009416 -1.892704 2.668522 0
M  V30 6 C 0.397789 -2.137783 1.363006 0
M  V30 7 C 0.409867 -1.085757 0.351086 0
M  V30 8 C 0.697872 0.185971 0.801652 0
M  V30 9 N 0.716607 1.164746 -0.114129 0
M  V30 10 C 0.485285 1.039523 -1.419080 0
M  V30 11 C 0.490572 1.959150 -2.436246 0
M  V30 12 N 0.768462 3.342496 -2.255496 0
M  V30 13 C 0.994259 4.012130 -1.017934 0
M  V30 14 C -0.289186 4.104663 -0.223276 0
M  V30 15 C -0.160434 4.808602 1.157405 0
M  V30 16 C -0.881606 5.449156 0.047416 0
M  V30 17 S 0.130703 1.184102 -3.908162 0
M  V30 18 N -0.059267 -0.532760 -3.203401 0
M  V30 19 C 0.201746 -0.217564 -1.852047 0
M  V30 20 C 0.154348 -1.302853 -1.003141 0
M  V30 21 C 0.784854 -3.442560 1.061852 0
M  V30 22 C 0.801898 -4.482924 1.977012 0
M  V30 23 O 1.186248 -5.770685 1.673145 0
M  V30 24 C 1.599076 -6.111812 0.370427 0
M  V30 25 H 0.486833 -4.094547 6.041650 0
M  V30 26 H 0.215805 -5.868718 6.185281 0
M  V30 27 H -1.096552 -4.768982 5.593991 0
M  V30 28 H -0.293902 -2.677586 4.605351 0
M  V30 29 H -0.302843 -0.889528 2.961329 0
M  V30 30 H 0.909798 0.465274 1.826153 0
M  V30 31 H 0.810903 3.923542 -3.150930 0
M  V30 32 H 1.326839 5.047681 -1.223924 0
M  V30 33 H 1.811227 3.548944 -0.414149 0
M  V30 34 H -1.024629 3.302683 -0.336740 0
M  V30 35 H 0.883078 5.124121 1.434880 0
M  V30 36 H -0.672684 4.270965 1.969194 0
M  V30 37 H -1.989033 5.526630 0.199549 0
M  V30 38 H -0.444623 6.364393 -0.396484 0
M  V30 39 H -0.051312 -2.345341 -1.185767 0
M  V30 40 H 1.077643 -3.604838 0.058383 0
M  V30 41 H 2.147873 -5.297793 -0.152734 0
M  V30 42 H 0.696186 -6.379417 -0.218606 0
M  V30 43 H 2.223743 -7.039663 0.364067 0
M  V30 END ATOM
M  V30 BEGIN BOND
M  V30 1 1 1 2
M  V30 2 1 2 3
M  V30 3 2 3 4
M  V30 4 1 4 5
M  V30 5 2 5 6
M  V30 6 1 6 7
M  V30 7 1 7 8
M  V30 8 2 8 9
M  V30 9 1 9 10
M  V30 10 2 10 11
M  V30 11 1 11 12
M  V30 12 1 12 13
M  V30 13 1 13 14
M  V30 14 1 14 15
M  V30 15 1 15 16
M  V30 16 1 11 17
M  V30 17 1 17 18
M  V30 18 2 18 19
M  V30 19 1 19 20
M  V30 20 1 6 21
M  V30 21 2 21 22
M  V30 22 1 22 23
M  V30 23 1 23 24
M  V30 24 1 22 3
M  V30 25 2 20 7
M  V30 26 1 19 10
M  V30 27 1 16 14
M  V30 28 1 1 25
M  V30 29 1 1 26
M  V30 30 1 1 27
M  V30 31 1 4 28
M  V30 32 1 5 29
M  V30 33 1 8 30
M  V30 34 1 12 31
M  V30 35 1 13 32
M  V30 36 1 13 33
M  V30 37 1 14 34
M  V30 38 1 15 35
M  V30 39 1 15 36
M  V30 40 1 16 37
M  V30 41 1 16 38
M  V30 42 1 20 39
M  V30 43 1 21 40
M  V30 44 1 24 41
M  V30 45 1 24 42
M  V30 46 1 24 43
M  V30 END BOND
M  V30 END CTAB
M  END
>  <Dataset>  (472) 
ChEMBL_Kinases

>  <Ligand_Instance>  (472) 
nan

>  <PDB_ID>  (472) 
nan

>  <Standardized_SMILES>  (472) 
COc1ccc(-c2cnc3c(NCC4CC4)snc3c2)cc1OC

>  <Name>  (472) 
nan

>  <Pocket>  (472) 
nan

>  <ATP_Site>  (472) 
nan

>  <Peripheral>  (472) 
nan

>  <Num_H_Atoms_ProtBoundConf>  (472) 
nan

>  <Num_Resolved_Atoms>  (472) 
nan

>  <Num_Not_Resolved_Atoms>  (472) 
nan

$$$$
CHEMBL3425872
     RDKit          3D

  0  0  0  0  0  0  0  0  0  0999 V3000
M  V30 BEGIN CTAB
M  V30 COUNTS 43 46 0 0 0
M  V30 BEGIN ATOM
M  V30 1 C -1.897361 -5.573656 4.916590 0
M  V30 2 O -0.797964 -5.587127 4.018065 0
M  V30 3 C -0.524205 -4.515567 3.180147 0
M  V30 4 C -1.324470 -3.393411 3.199568 0
M  V30 5 C -1.087317 -2.308262 2.383629 0
M  V30 6 C 0.008726 -2.381659 1.520837 0
M  V30 7 C 0.239407 -1.210454 0.660812 0
M  V30 8 C -0.121679 0.013650 1.185790 0
M  V30 9 N 0.081567 1.093610 0.411568 0
M  V30 10 C 0.604282 1.070513 -0.821760 0
M  V30 11 C 0.827690 2.112202 -1.633970 0
M  V30 12 N 0.555618 3.516887 -1.370508 0
M  V30 13 C 0.803393 4.632639 -2.260585 0
M  V30 14 C 1.551180 5.567351 -1.299804 0
M  V30 15 C 0.945638 5.289603 0.052187 0
M  V30 16 C -0.014628 4.120835 -0.183565 0
M  V30 17 S 1.509672 1.567319 -3.104067 0
M  V30 18 N 1.506323 -0.241770 -2.605968 0
M  V30 19 C 0.965213 -0.146350 -1.348262 0
M  V30 20 C 0.782410 -1.293160 -0.604287 0
M  V30 21 C 0.814314 -3.512977 1.502396 0
M  V30 22 C 0.558079 -4.590306 2.329458 0
M  V30 23 O 1.321434 -5.721651 2.345621 0
M  V30 24 C 2.451764 -5.984146 1.561560 0
M  V30 25 H -1.745266 -4.889397 5.778072 0
M  V30 26 H -2.168493 -6.596790 5.244978 0
M  V30 27 H -2.814487 -5.205218 4.372431 0
M  V30 28 H -2.167770 -3.340050 3.865210 0
M  V30 29 H -1.758974 -1.448427 2.447083 0
M  V30 30 H -0.560442 0.179078 2.182225 0
M  V30 31 H 1.398972 4.383172 -3.147419 0
M  V30 32 H -0.194254 5.083105 -2.526014 0
M  V30 33 H 1.428383 6.627751 -1.600698 0
M  V30 34 H 2.618158 5.258304 -1.340747 0
M  V30 35 H 0.391234 6.158981 0.453934 0
M  V30 36 H 1.707568 5.021914 0.801309 0
M  V30 37 H 0.089740 3.458426 0.695988 0
M  V30 38 H -1.049986 4.483343 -0.336960 0
M  V30 39 H 1.014238 -2.292929 -0.883170 0
M  V30 40 H 1.651761 -3.540640 0.826805 0
M  V30 41 H 2.161564 -6.232216 0.527716 0
M  V30 42 H 3.029220 -6.856202 1.980915 0
M  V30 43 H 3.184715 -5.155700 1.511678 0
M  V30 END ATOM
M  V30 BEGIN BOND
M  V30 1 1 1 2
M  V30 2 1 2 3
M  V30 3 2 3 4
M  V30 4 1 4 5
M  V30 5 2 5 6
M  V30 6 1 6 7
M  V30 7 1 7 8
M  V30 8 2 8 9
M  V30 9 1 9 10
M  V30 10 2 10 11
M  V30 11 1 11 12
M  V30 12 1 12 13
M  V30 13 1 13 14
M  V30 14 1 14 15
M  V30 15 1 15 16
M  V30 16 1 11 17
M  V30 17 1 17 18
M  V30 18 2 18 19
M  V30 19 1 19 20
M  V30 20 1 6 21
M  V30 21 2 21 22
M  V30 22 1 22 23
M  V30 23 1 23 24
M  V30 24 1 22 3
M  V30 25 2 20 7
M  V30 26 1 19 10
M  V30 27 1 16 12
M  V30 28 1 1 25
M  V30 29 1 1 26
M  V30 30 1 1 27
M  V30 31 1 4 28
M  V30 32 1 5 29
M  V30 33 1 8 30
M  V30 34 1 13 31
M  V30 35 1 13 32
M  V30 36 1 14 33
M  V30 37 1 14 34
M  V30 38 1 15 35
M  V30 39 1 15 36
M  V30 40 1 16 37
M  V30 41 1 16 38
M  V30 42 1 20 39
M  V30 43 1 21 40
M  V30 44 1 24 41
M  V30 45 1 24 42
M  V30 46 1 24 43
M  V30 END BOND
M  V30 END CTAB
M  END
>  <Dataset>  (473) 
ChEMBL_Kinases

>  <Ligand_Instance>  (473) 
nan

>  <PDB_ID>  (473) 
nan

>  <Standardized_SMILES>  (473) 
COc1ccc(-c2cnc3c(N4CCCC4)snc3c2)cc1OC

>  <Name>  (473) 
nan

>  <Pocket>  (473) 
nan

>  <ATP_Site>  (473) 
nan

>  <Peripheral>  (473) 
nan

>  <Num_H_Atoms_ProtBoundConf>  (473) 
nan

>  <Num_Resolved_Atoms>  (473) 
nan

>  <Num_Not_Resolved_Atoms>  (473) 
nan

$$$$
CHEMBL3425871
     RDKit          3D

  0  0  0  0  0  0  0  0  0  0999 V3000
M  V30 BEGIN CTAB
M  V30 COUNTS 47 49 0 0 0
M  V30 BEGIN ATOM
M  V30 1 C -0.588405 -6.849605 3.846200 0
M  V30 2 O -1.531114 -6.217346 3.011681 0
M  V30 3 C -1.273077 -4.970607 2.451877 0
M  V30 4 C -0.072774 -4.341425 2.725463 0
M  V30 5 C 0.256950 -3.109311 2.209539 0
M  V30 6 C -0.701504 -2.514261 1.376957 0
M  V30 7 C -0.365627 -1.188868 0.799497 0
M  V30 8 C 0.401596 -0.305590 1.545682 0
M  V30 9 N 0.731251 0.861394 0.990108 0
M  V30 10 C 0.376428 1.243292 -0.238641 0
M  V30 11 C 0.713807 2.436196 -0.913920 0
M  V30 12 N 1.463550 3.539519 -0.456319 0
M  V30 13 C 1.095275 4.852246 -0.003088 0
M  V30 14 C 1.283867 5.100999 1.453647 0
M  V30 15 O 0.889457 6.407284 1.779914 0
M  V30 16 C 2.894139 3.301589 -0.386396 0
M  V30 17 C 3.358599 2.051258 -1.037412 0
M  V30 18 O 3.073713 1.999878 -2.393373 0
M  V30 19 S -0.000954 2.367783 -2.543771 0
M  V30 20 N -0.763444 0.684422 -2.277639 0
M  V30 21 C -0.380617 0.417494 -1.024420 0
M  V30 22 C -0.734886 -0.793025 -0.469348 0
M  V30 23 C -1.924399 -3.120279 1.079040 0
M  V30 24 C -2.222625 -4.362478 1.618329 0
M  V30 25 O -3.349088 -5.091146 1.439363 0
M  V30 26 C -4.502715 -4.869872 0.720401 0
M  V30 27 H 0.424685 -6.806413 3.408009 0
M  V30 28 H -0.912742 -7.922584 3.924502 0
M  V30 29 H -0.546243 -6.446439 4.870549 0
M  V30 30 H 0.683041 -4.792994 3.368546 0
M  V30 31 H 1.192282 -2.614989 2.418923 0
M  V30 32 H 0.752989 -0.494330 2.549403 0
M  V30 33 H 1.750527 5.561155 -0.583340 0
M  V30 34 H 0.021382 5.026415 -0.266533 0
M  V30 35 H 0.695746 4.413342 2.098491 0
M  V30 36 H 2.345773 4.972622 1.730486 0
M  V30 37 H 1.514724 6.845274 2.406607 0
M  V30 38 H 3.426698 4.165811 -0.810042 0
M  V30 39 H 3.213264 3.220498 0.709467 0
M  V30 40 H 3.020610 1.173493 -0.488980 0
M  V30 41 H 4.486392 2.035561 -0.946876 0
M  V30 42 H 2.944550 1.056303 -2.653448 0
M  V30 43 H -1.333019 -1.585264 -0.939881 0
M  V30 44 H -2.652795 -2.673736 0.446473 0
M  V30 45 H -5.359298 -5.211734 1.374956 0
M  V30 46 H -4.532136 -5.559790 -0.154041 0
M  V30 47 H -4.673748 -3.836013 0.354953 0
M  V30 END ATOM
M  V30 BEGIN BOND
M  V30 1 1 1 2
M  V30 2 1 2 3
M  V30 3 2 3 4
M  V30 4 1 4 5
M  V30 5 2 5 6
M  V30 6 1 6 7
M  V30 7 1 7 8
M  V30 8 2 8 9
M  V30 9 1 9 10
M  V30 10 2 10 11
M  V30 11 1 11 12
M  V30 12 1 12 13
M  V30 13 1 13 14
M  V30 14 1 14 15
M  V30 15 1 12 16
M  V30 16 1 16 17
M  V30 17 1 17 18
M  V30 18 1 11 19
M  V30 19 1 19 20
M  V30 20 2 20 21
M  V30 21 1 21 22
M  V30 22 1 6 23
M  V30 23 2 23 24
M  V30 24 1 24 25
M  V30 25 1 25 26
M  V30 26 1 24 3
M  V30 27 2 22 7
M  V30 28 1 21 10
M  V30 29 1 1 27
M  V30 30 1 1 28
M  V30 31 1 1 29
M  V30 32 1 4 30
M  V30 33 1 5 31
M  V30 34 1 8 32
M  V30 35 1 13 33
M  V30 36 1 13 34
M  V30 37 1 14 35
M  V30 38 1 14 36
M  V30 39 1 15 37
M  V30 40 1 16 38
M  V30 41 1 16 39
M  V30 42 1 17 40
M  V30 43 1 17 41
M  V30 44 1 18 42
M  V30 45 1 22 43
M  V30 46 1 23 44
M  V30 47 1 26 45
M  V30 48 1 26 46
M  V30 49 1 26 47
M  V30 END BOND
M  V30 END CTAB
M  END
>  <Dataset>  (474) 
ChEMBL_Kinases

>  <Ligand_Instance>  (474) 
nan

>  <PDB_ID>  (474) 
nan

>  <Standardized_SMILES>  (474) 
COc1ccc(-c2cnc3c(N(CCO)CCO)snc3c2)cc1OC

>  <Name>  (474) 
nan

>  <Pocket>  (474) 
nan

>  <ATP_Site>  (474) 
nan

>  <Peripheral>  (474) 
nan

>  <Num_H_Atoms_ProtBoundConf>  (474) 
nan

>  <Num_Resolved_Atoms>  (474) 
nan

>  <Num_Not_Resolved_Atoms>  (474) 
nan

$$$$
CHEMBL3425870
     RDKit          3D

  0  0  0  0  0  0  0  0  0  0999 V3000
M  V30 BEGIN CTAB
M  V30 COUNTS 43 45 0 0 0
M  V30 BEGIN ATOM
M  V30 1 C -2.740544 -4.772147 1.883884 0
M  V30 2 O -1.883944 -5.785678 1.494810 0
M  V30 3 C -1.084898 -5.403783 0.437898 0
M  V30 4 C -1.889878 -5.020965 -0.770437 0
M  V30 5 N -0.982370 -4.638531 -1.837138 0
M  V30 6 C -0.120398 -3.489646 -1.958167 0
M  V30 7 S 0.974057 -3.331376 -3.357635 0
M  V30 8 N 1.655198 -1.695324 -2.797328 0
M  V30 9 C 0.962898 -1.502351 -1.639619 0
M  V30 10 C 1.242705 -0.337413 -0.956316 0
M  V30 11 C 0.592543 -0.049406 0.224659 0
M  V30 12 C 0.788256 1.152080 1.064146 0
M  V30 13 C -0.213615 1.713009 1.829648 0
M  V30 14 C 0.092400 2.836796 2.575716 0
M  V30 15 C 1.351952 3.397002 2.570918 0
M  V30 16 O 1.743137 4.516714 3.285729 0
M  V30 17 C 0.836874 5.205299 4.116719 0
M  V30 18 C 2.321410 2.802003 1.790488 0
M  V30 19 O 3.606098 3.321825 1.745636 0
M  V30 20 C 4.647225 2.790489 0.988711 0
M  V30 21 C 2.074560 1.663246 1.012797 0
M  V30 22 C -0.336674 -0.967623 0.682096 0
M  V30 23 N -0.561563 -2.078321 -0.028540 0
M  V30 24 C 0.038289 -2.411528 -1.179357 0
M  V30 25 H -2.208044 -3.838557 2.200337 0
M  V30 26 H -3.505324 -4.516579 1.132407 0
M  V30 27 H -3.317411 -5.176818 2.773543 0
M  V30 28 H -0.488198 -6.319849 0.118011 0
M  V30 29 H -0.303517 -4.683614 0.723822 0
M  V30 30 H -2.464755 -5.903428 -1.091164 0
M  V30 31 H -2.553036 -4.146840 -0.578358 0
M  V30 32 H -0.963790 -5.331617 -2.651366 0
M  V30 33 H 1.930832 0.446329 -1.203286 0
M  V30 34 H -1.193316 1.264230 1.824960 0
M  V30 35 H -0.662737 3.308094 3.189392 0
M  V30 36 H 0.100016 4.538710 4.623935 0
M  V30 37 H 1.382317 5.815748 4.891332 0
M  V30 38 H 0.238918 5.874845 3.459857 0
M  V30 39 H 4.790728 1.701886 1.130174 0
M  V30 40 H 4.535927 2.929777 -0.112923 0
M  V30 41 H 5.578799 3.341741 1.249762 0
M  V30 42 H 2.874591 1.238019 0.419510 0
M  V30 43 H -0.910749 -0.835827 1.609529 0
M  V30 END ATOM
M  V30 BEGIN BOND
M  V30 1 1 1 2
M  V30 2 1 2 3
M  V30 3 1 3 4
M  V30 4 1 4 5
M  V30 5 1 5 6
M  V30 6 1 6 7
M  V30 7 1 7 8
M  V30 8 2 8 9
M  V30 9 1 9 10
M  V30 10 2 10 11
M  V30 11 1 11 12
M  V30 12 2 12 13
M  V30 13 1 13 14
M  V30 14 2 14 15
M  V30 15 1 15 16
M  V30 16 1 16 17
M  V30 17 1 15 18
M  V30 18 1 18 19
M  V30 19 1 19 20
M  V30 20 2 18 21
M  V30 21 1 11 22
M  V30 22 2 22 23
M  V30 23 1 23 24
M  V30 24 2 24 6
M  V30 25 1 24 9
M  V30 26 1 21 12
M  V30 27 1 1 25
M  V30 28 1 1 26
M  V30 29 1 1 27
M  V30 30 1 3 28
M  V30 31 1 3 29
M  V30 32 1 4 30
M  V30 33 1 4 31
M  V30 34 1 5 32
M  V30 35 1 10 33
M  V30 36 1 13 34
M  V30 37 1 14 35
M  V30 38 1 17 36
M  V30 39 1 17 37
M  V30 40 1 17 38
M  V30 41 1 20 39
M  V30 42 1 20 40
M  V30 43 1 20 41
M  V30 44 1 21 42
M  V30 45 1 22 43
M  V30 END BOND
M  V30 END CTAB
M  END
>  <Dataset>  (475) 
ChEMBL_Kinases

>  <Ligand_Instance>  (475) 
nan

>  <PDB_ID>  (475) 
nan

>  <Standardized_SMILES>  (475) 
COCCNc1snc2cc(-c3ccc(OC)c(OC)c3)cnc12

>  <Name>  (475) 
nan

>  <Pocket>  (475) 
nan

>  <ATP_Site>  (475) 
nan

>  <Peripheral>  (475) 
nan

>  <Num_H_Atoms_ProtBoundConf>  (475) 
nan

>  <Num_Resolved_Atoms>  (475) 
nan

>  <Num_Not_Resolved_Atoms>  (475) 
nan

$$$$
CHEMBL3425869
     RDKit          3D

  0  0  0  0  0  0  0  0  0  0999 V3000
M  V30 BEGIN CTAB
M  V30 COUNTS 39 41 0 0 0
M  V30 BEGIN ATOM
M  V30 1 C -0.339512 -6.914852 1.663577 0
M  V30 2 O -0.385834 -5.705054 2.405488 0
M  V30 3 C -0.158856 -4.470802 1.856316 0
M  V30 4 C 0.143115 -4.239917 0.515595 0
M  V30 5 C 0.366083 -2.980518 -0.003651 0
M  V30 6 C 0.285057 -1.897718 0.850761 0
M  V30 7 C 0.525084 -0.567982 0.283240 0
M  V30 8 C -0.171654 0.461575 0.886234 0
M  V30 9 N 0.030265 1.693900 0.384715 0
M  V30 10 C 0.849090 1.969425 -0.641104 0
M  V30 11 C 1.056475 3.185417 -1.145762 0
M  V30 12 N 0.508951 4.476376 -0.775932 0
M  V30 13 C -0.698100 4.660042 -1.564009 0
M  V30 14 C 1.107745 5.354657 0.199139 0
M  V30 15 S 2.192473 3.053687 -2.459106 0
M  V30 16 N 2.381337 1.196898 -2.285511 0
M  V30 17 C 1.557591 0.968962 -1.264124 0
M  V30 18 C 1.375993 -0.316597 -0.775282 0
M  V30 19 C -0.011216 -2.077920 2.186071 0
M  V30 20 C -0.228134 -3.356965 2.668090 0
M  V30 21 O -0.528106 -3.535478 4.022193 0
M  V30 22 C -0.592109 -2.373562 4.829869 0
M  V30 23 H -0.871913 -6.829307 0.686350 0
M  V30 24 H -0.862400 -7.731883 2.200942 0
M  V30 25 H 0.693901 -7.256947 1.472384 0
M  V30 26 H 0.200367 -5.123226 -0.138736 0
M  V30 27 H 0.593582 -2.911261 -1.058647 0
M  V30 28 H -0.860686 0.308646 1.732394 0
M  V30 29 H -1.424785 3.846793 -1.328981 0
M  V30 30 H -0.470222 4.559431 -2.644513 0
M  V30 31 H -1.220192 5.614104 -1.336231 0
M  V30 32 H 0.633218 6.355143 0.045823 0
M  V30 33 H 2.183393 5.511095 0.088752 0
M  V30 34 H 0.776813 5.040386 1.214965 0
M  V30 35 H 1.836058 -1.214952 -1.126604 0
M  V30 36 H -0.066851 -1.222463 2.821115 0
M  V30 37 H -0.632029 -2.700659 5.905805 0
M  V30 38 H -1.482176 -1.738131 4.611760 0
M  V30 39 H 0.295144 -1.731147 4.762729 0
M  V30 END ATOM
M  V30 BEGIN BOND
M  V30 1 1 1 2
M  V30 2 1 2 3
M  V30 3 2 3 4
M  V30 4 1 4 5
M  V30 5 2 5 6
M  V30 6 1 6 7
M  V30 7 1 7 8
M  V30 8 2 8 9
M  V30 9 1 9 10
M  V30 10 2 10 11
M  V30 11 1 11 12
M  V30 12 1 12 13
M  V30 13 1 12 14
M  V30 14 1 11 15
M  V30 15 1 15 16
M  V30 16 2 16 17
M  V30 17 1 17 18
M  V30 18 1 6 19
M  V30 19 2 19 20
M  V30 20 1 20 21
M  V30 21 1 21 22
M  V30 22 1 20 3
M  V30 23 2 18 7
M  V30 24 1 17 10
M  V30 25 1 1 23
M  V30 26 1 1 24
M  V30 27 1 1 25
M  V30 28 1 4 26
M  V30 29 1 5 27
M  V30 30 1 8 28
M  V30 31 1 13 29
M  V30 32 1 13 30
M  V30 33 1 13 31
M  V30 34 1 14 32
M  V30 35 1 14 33
M  V30 36 1 14 34
M  V30 37 1 18 35
M  V30 38 1 19 36
M  V30 39 1 22 37
M  V30 40 1 22 38
M  V30 41 1 22 39
M  V30 END BOND
M  V30 END CTAB
M  END
>  <Dataset>  (476) 
ChEMBL_Kinases

>  <Ligand_Instance>  (476) 
nan

>  <PDB_ID>  (476) 
nan

>  <Standardized_SMILES>  (476) 
COc1ccc(-c2cnc3c(N(C)C)snc3c2)cc1OC

>  <Name>  (476) 
nan

>  <Pocket>  (476) 
nan

>  <ATP_Site>  (476) 
nan

>  <Peripheral>  (476) 
nan

>  <Num_H_Atoms_ProtBoundConf>  (476) 
nan

>  <Num_Resolved_Atoms>  (476) 
nan

>  <Num_Not_Resolved_Atoms>  (476) 
nan

$$$$
CHEMBL3425868
     RDKit          3D

  0  0  0  0  0  0  0  0  0  0999 V3000
M  V30 BEGIN CTAB
M  V30 COUNTS 41 44 0 0 0
M  V30 BEGIN ATOM
M  V30 1 C -1.708609 -6.171514 3.033351 0
M  V30 2 O -0.674430 -5.698946 3.848589 0
M  V30 3 C -0.018386 -4.504127 3.684921 0
M  V30 4 C -0.281686 -3.594700 2.694157 0
M  V30 5 C 0.444864 -2.422982 2.628144 0
M  V30 6 C 0.203964 -1.405413 1.580977 0
M  V30 7 C 1.305060 -0.649828 1.166067 0
M  V30 8 N 1.123961 0.281213 0.219425 0
M  V30 9 C -0.025731 0.576123 -0.389652 0
M  V30 10 C -0.363354 1.461068 -1.335865 0
M  V30 11 N 0.487434 2.392548 -1.990026 0
M  V30 12 C 0.025129 3.316614 -3.008850 0
M  V30 13 C 0.254217 4.703076 -2.392411 0
M  V30 14 O 1.601972 4.906965 -2.170744 0
M  V30 15 C 2.117794 4.005710 -1.273172 0
M  V30 16 C 1.906719 2.571337 -1.759361 0
M  V30 17 S -2.030166 1.347887 -1.698728 0
M  V30 18 N -2.429404 0.011735 -0.527210 0
M  V30 19 C -1.082506 -0.159426 0.018464 0
M  V30 20 C -1.013764 -1.143202 0.984013 0
M  V30 21 C 1.446328 -2.159347 3.565078 0
M  V30 22 C 1.734392 -3.066075 4.581942 0
M  V30 23 C 0.976102 -4.218122 4.596914 0
M  V30 24 O 1.280611 -5.123388 5.631351 0
M  V30 25 H -1.735413 -7.290638 3.154471 0
M  V30 26 H -2.715285 -5.817359 3.356325 0
M  V30 27 H -1.520202 -5.972692 1.959257 0
M  V30 28 H -1.043902 -3.798818 1.983841 0
M  V30 29 H 2.312476 -0.752265 1.549904 0
M  V30 30 H -1.076212 3.205686 -3.176571 0
M  V30 31 H 0.553672 3.186820 -3.961779 0
M  V30 32 H -0.218496 4.636765 -1.369265 0
M  V30 33 H -0.226066 5.507092 -2.945550 0
M  V30 34 H 1.737824 4.170544 -0.257650 0
M  V30 35 H 3.227825 4.159679 -1.246168 0
M  V30 36 H 2.348876 1.870544 -1.055263 0
M  V30 37 H 2.455483 2.528564 -2.742894 0
M  V30 38 H -1.763479 -1.789478 1.393305 0
M  V30 39 H 2.040810 -1.253788 3.551514 0
M  V30 40 H 2.511594 -2.841269 5.293746 0
M  V30 41 H 1.382822 -6.102645 5.380488 0
M  V30 END ATOM
M  V30 BEGIN BOND
M  V30 1 1 1 2
M  V30 2 1 2 3
M  V30 3 2 3 4
M  V30 4 1 4 5
M  V30 5 1 5 6
M  V30 6 1 6 7
M  V30 7 2 7 8
M  V30 8 1 8 9
M  V30 9 2 9 10
M  V30 10 1 10 11
M  V30 11 1 11 12
M  V30 12 1 12 13
M  V30 13 1 13 14
M  V30 14 1 14 15
M  V30 15 1 15 16
M  V30 16 1 10 17
M  V30 17 1 17 18
M  V30 18 2 18 19
M  V30 19 1 19 20
M  V30 20 2 5 21
M  V30 21 1 21 22
M  V30 22 2 22 23
M  V30 23 1 23 24
M  V30 24 1 23 3
M  V30 25 2 20 6
M  V30 26 1 19 9
M  V30 27 1 16 11
M  V30 28 1 1 25
M  V30 29 1 1 26
M  V30 30 1 1 27
M  V30 31 1 4 28
M  V30 32 1 7 29
M  V30 33 1 12 30
M  V30 34 1 12 31
M  V30 35 1 13 32
M  V30 36 1 13 33
M  V30 37 1 15 34
M  V30 38 1 15 35
M  V30 39 1 16 36
M  V30 40 1 16 37
M  V30 41 1 20 38
M  V30 42 1 21 39
M  V30 43 1 22 40
M  V30 44 1 24 41
M  V30 END BOND
M  V30 END CTAB
M  END
>  <Dataset>  (477) 
ChEMBL_Kinases

>  <Ligand_Instance>  (477) 
nan

>  <PDB_ID>  (477) 
nan

>  <Standardized_SMILES>  (477) 
COc1cc(-c2cnc3c(N4CCOCC4)snc3c2)ccc1O

>  <Name>  (477) 
nan

>  <Pocket>  (477) 
nan

>  <ATP_Site>  (477) 
nan

>  <Peripheral>  (477) 
nan

>  <Num_H_Atoms_ProtBoundConf>  (477) 
nan

>  <Num_Resolved_Atoms>  (477) 
nan

>  <Num_Not_Resolved_Atoms>  (477) 
nan

$$$$
CHEMBL3425867
     RDKit          3D

  0  0  0  0  0  0  0  0  0  0999 V3000
M  V30 BEGIN CTAB
M  V30 COUNTS 42 45 0 0 0
M  V30 BEGIN ATOM
M  V30 1 C -0.869530 -6.251786 2.740035 0
M  V30 2 O 0.282800 -5.865262 3.465232 0
M  V30 3 C 0.827374 -4.615317 3.274337 0
M  V30 4 C 0.362799 -3.637478 2.415629 0
M  V30 5 C 0.975543 -2.406956 2.289000 0
M  V30 6 C 0.454401 -1.397157 1.371896 0
M  V30 7 C 1.425925 -0.556679 0.820584 0
M  V30 8 N 1.048303 0.397483 -0.026829 0
M  V30 9 C -0.178348 0.676102 -0.441231 0
M  V30 10 C -0.843961 1.524175 -1.243262 0
M  V30 11 N -0.200239 2.556236 -2.002016 0
M  V30 12 C -0.910688 3.478529 -2.871619 0
M  V30 13 C -0.695005 4.851414 -2.222655 0
M  V30 14 O 0.679835 5.087000 -2.310492 0
M  V30 15 C 1.396371 4.235343 -1.470168 0
M  V30 16 C 1.224613 2.829108 -2.015303 0
M  V30 17 S -2.532230 1.298296 -1.308385 0
M  V30 18 N -2.613828 -0.135187 -0.133098 0
M  V30 19 C -1.124609 -0.137427 0.091361 0
M  V30 20 C -0.848766 -1.174772 0.992404 0
M  V30 21 C 2.094612 -2.151680 3.052957 0
M  V30 22 C 2.614259 -3.082153 3.931635 0
M  V30 23 C 1.951548 -4.289980 4.007110 0
M  V30 24 N 2.540595 -5.218990 4.940380 0
M  V30 25 H -1.779250 -5.802830 3.173527 0
M  V30 26 H -0.822428 -5.952387 1.669263 0
M  V30 27 H -0.954381 -7.371075 2.733709 0
M  V30 28 H -0.523455 -3.893883 1.838320 0
M  V30 29 H 2.495890 -0.591658 1.010080 0
M  V30 30 H -0.388816 3.567505 -3.868776 0
M  V30 31 H -1.978779 3.252182 -2.986252 0
M  V30 32 H -1.012027 4.706502 -1.155909 0
M  V30 33 H -1.244106 5.652598 -2.715917 0
M  V30 34 H 0.928578 4.352610 -0.467692 0
M  V30 35 H 2.452532 4.552936 -1.488682 0
M  V30 36 H 1.839491 2.087147 -1.500296 0
M  V30 37 H 1.560927 2.873026 -3.084218 0
M  V30 38 H -1.453684 -1.914881 1.514853 0
M  V30 39 H 2.590079 -1.187593 2.966039 0
M  V30 40 H 3.491845 -2.844662 4.512620 0
M  V30 41 H 2.636357 -5.196974 5.989332 0
M  V30 42 H 2.964346 -6.093972 4.544213 0
M  V30 END ATOM
M  V30 BEGIN BOND
M  V30 1 1 1 2
M  V30 2 1 2 3
M  V30 3 2 3 4
M  V30 4 1 4 5
M  V30 5 1 5 6
M  V30 6 1 6 7
M  V30 7 2 7 8
M  V30 8 1 8 9
M  V30 9 2 9 10
M  V30 10 1 10 11
M  V30 11 1 11 12
M  V30 12 1 12 13
M  V30 13 1 13 14
M  V30 14 1 14 15
M  V30 15 1 15 16
M  V30 16 1 10 17
M  V30 17 1 17 18
M  V30 18 2 18 19
M  V30 19 1 19 20
M  V30 20 2 5 21
M  V30 21 1 21 22
M  V30 22 2 22 23
M  V30 23 1 23 24
M  V30 24 1 23 3
M  V30 25 2 20 6
M  V30 26 1 19 9
M  V30 27 1 16 11
M  V30 28 1 1 25
M  V30 29 1 1 26
M  V30 30 1 1 27
M  V30 31 1 4 28
M  V30 32 1 7 29
M  V30 33 1 12 30
M  V30 34 1 12 31
M  V30 35 1 13 32
M  V30 36 1 13 33
M  V30 37 1 15 34
M  V30 38 1 15 35
M  V30 39 1 16 36
M  V30 40 1 16 37
M  V30 41 1 20 38
M  V30 42 1 21 39
M  V30 43 1 22 40
M  V30 44 1 24 41
M  V30 45 1 24 42
M  V30 END BOND
M  V30 END CTAB
M  END
>  <Dataset>  (478) 
ChEMBL_Kinases

>  <Ligand_Instance>  (478) 
nan

>  <PDB_ID>  (478) 
nan

>  <Standardized_SMILES>  (478) 
COc1cc(-c2cnc3c(N4CCOCC4)snc3c2)ccc1N

>  <Name>  (478) 
nan

>  <Pocket>  (478) 
nan

>  <ATP_Site>  (478) 
nan

>  <Peripheral>  (478) 
nan

>  <Num_H_Atoms_ProtBoundConf>  (478) 
nan

>  <Num_Resolved_Atoms>  (478) 
nan

>  <Num_Not_Resolved_Atoms>  (478) 
nan

$$$$
CHEMBL3422100
     RDKit          3D

  0  0  0  0  0  0  0  0  0  0999 V3000
M  V30 BEGIN CTAB
M  V30 COUNTS 76 81 0 0 0
M  V30 BEGIN ATOM
M  V30 1 C 7.548077 -3.118110 2.120319 0
M  V30 2 C 6.425168 -2.151053 2.501747 0
M  V30 3 C 5.331612 -2.878873 3.243708 0
M  V30 4 C 5.901397 -1.577957 1.184090 0
M  V30 5 C 4.791292 -0.614705 1.520857 0 CFG=2
M  V30 6 N 4.218556 -0.010343 0.334277 0
M  V30 7 C 2.830389 -0.107190 0.046502 0
M  V30 8 O 2.227044 -0.761055 0.935107 0
M  V30 9 C 2.282442 0.510729 -1.154208 0
M  V30 10 C 3.012259 1.211593 -2.090091 0
M  V30 11 C 2.374316 1.750165 -3.185564 0
M  V30 12 C 1.031954 1.626309 -3.400901 0
M  V30 13 N 0.160872 2.029185 -4.343740 0
M  V30 14 N -1.043895 1.590208 -3.992386 0
M  V30 15 C -0.982980 0.911785 -2.845836 0
M  V30 16 C -2.192283 0.325570 -2.249114 0
M  V30 17 C -2.157467 -0.968546 -1.761682 0
M  V30 18 C -3.322754 -1.472073 -1.210230 0
M  V30 19 C -4.503138 -0.767154 -1.119323 0
M  V30 20 N -5.669280 -1.247921 -0.576529 0
M  V30 21 C -5.853139 -2.586250 -0.004708 0 CFG=1
M  V30 22 C -5.932695 -3.329366 -1.192863 0
M  V30 23 C -7.087116 -2.639203 -1.965237 0
M  V30 24 C -7.804532 -1.567106 -1.189998 0
M  V30 25 C -6.911049 -0.546680 -0.464866 0 CFG=1
M  V30 26 C -7.106286 -0.684813 1.055725 0
M  V30 27 C -5.928238 -1.191498 1.839147 0
M  V30 28 O -6.497191 -1.632114 3.058179 0
M  V30 29 C -5.201540 -2.406758 1.228222 0
M  V30 30 C -4.504924 0.517392 -1.613331 0
M  V30 31 C -3.372214 1.071996 -2.174258 0
M  V30 32 C 0.335693 0.918285 -2.442595 0
M  V30 33 C 0.902141 0.352087 -1.323732 0
M  V30 34 C 5.400981 0.440724 2.405569 0
M  V30 35 C 6.177378 1.395842 1.786834 0
M  V30 36 C 6.761472 2.387373 2.538697 0
M  V30 37 C 6.585257 2.445764 3.906976 0
M  V30 38 C 5.790264 1.457788 4.495396 0
M  V30 39 N 5.244567 0.518603 3.735557 0
M  V30 40 H 8.258424 -3.276513 2.965404 0
M  V30 41 H 8.149191 -2.662142 1.293789 0
M  V30 42 H 7.123011 -4.092128 1.835678 0
M  V30 43 H 6.857291 -1.400503 3.164410 0
M  V30 44 H 5.740482 -3.694549 3.884215 0
M  V30 45 H 4.752588 -2.226643 3.927672 0
M  V30 46 H 4.600167 -3.274218 2.489336 0
M  V30 47 H 5.441687 -2.447671 0.630697 0
M  V30 48 H 6.705286 -1.170935 0.574844 0
M  V30 49 H 4.063331 -1.147614 2.149906 0
M  V30 50 H 4.901343 0.489870 -0.275087 0
M  V30 51 H 4.064892 1.316465 -1.934515 0
M  V30 52 H 2.972503 2.288954 -3.893029 0
M  V30 53 H 0.470380 2.585014 -5.170192 0
M  V30 54 H -1.237212 -1.553957 -1.820198 0
M  V30 55 H -3.229839 -2.469259 -0.853974 0
M  V30 56 H -6.897267 -2.806950 0.396759 0
M  V30 57 H -5.120121 -3.402754 -1.921462 0
M  V30 58 H -6.247923 -4.404765 -1.023096 0
M  V30 59 H -7.874558 -3.389349 -2.191537 0
M  V30 60 H -6.716065 -2.191918 -2.907334 0
M  V30 61 H -8.336773 -0.967014 -1.955245 0
M  V30 62 H -8.594198 -1.969649 -0.527917 0
M  V30 63 H -6.993714 0.446267 -0.825358 0
M  V30 64 H -7.256315 0.355729 1.412530 0
M  V30 65 H -8.055407 -1.204401 1.279561 0
M  V30 66 H -5.233325 -0.373083 2.090086 0
M  V30 67 H -5.942314 -1.392546 3.832130 0
M  V30 68 H -4.130377 -2.160684 1.313735 0
M  V30 69 H -5.315515 -3.312335 1.899252 0
M  V30 70 H -5.315119 1.220400 -1.635924 0
M  V30 71 H -3.294051 2.084445 -2.587248 0
M  V30 72 H 0.307603 -0.194905 -0.599173 0
M  V30 73 H 6.393277 1.460962 0.719805 0
M  V30 74 H 7.386876 3.183081 2.158573 0
M  V30 75 H 6.994007 3.174664 4.592244 0
M  V30 76 H 5.577946 1.398177 5.562404 0
M  V30 END ATOM
M  V30 BEGIN BOND
M  V30 1 1 1 2
M  V30 2 1 2 3
M  V30 3 1 2 4
M  V30 4 1 4 5
M  V30 5 1 5 6
M  V30 6 1 6 7
M  V30 7 2 7 8
M  V30 8 1 7 9
M  V30 9 2 9 10
M  V30 10 1 10 11
M  V30 11 2 11 12
M  V30 12 1 12 13
M  V30 13 1 13 14
M  V30 14 2 14 15
M  V30 15 1 15 16
M  V30 16 2 16 17
M  V30 17 1 17 18
M  V30 18 2 18 19
M  V30 19 1 19 20
M  V30 20 1 20 21
M  V30 21 1 21 22
M  V30 22 1 22 23
M  V30 23 1 23 24
M  V30 24 1 24 25
M  V30 25 1 25 26
M  V30 26 1 26 27
M  V30 27 1 27 28
M  V30 28 1 27 29
M  V30 29 1 19 30
M  V30 30 2 30 31
M  V30 31 1 15 32
M  V30 32 2 32 33
M  V30 33 1 5 34
M  V30 34 2 34 35
M  V30 35 1 35 36
M  V30 36 2 36 37
M  V30 37 1 37 38
M  V30 38 2 38 39
M  V30 39 1 33 9
M  V30 40 1 39 34
M  V30 41 1 32 12
M  V30 42 1 31 16
M  V30 43 1 25 20
M  V30 44 1 29 21
M  V30 45 1 1 40
M  V30 46 1 1 41
M  V30 47 1 1 42
M  V30 48 1 2 43
M  V30 49 1 3 44
M  V30 50 1 3 45
M  V30 51 1 3 46
M  V30 52 1 4 47
M  V30 53 1 4 48
M  V30 54 1 5 49 CFG=1
M  V30 55 1 6 50
M  V30 56 1 10 51
M  V30 57 1 11 52
M  V30 58 1 13 53
M  V30 59 1 17 54
M  V30 60 1 18 55
M  V30 61 1 21 56 CFG=1
M  V30 62 1 22 57
M  V30 63 1 22 58
M  V30 64 1 23 59
M  V30 65 1 23 60
M  V30 66 1 24 61
M  V30 67 1 24 62
M  V30 68 1 25 63 CFG=3
M  V30 69 1 26 64
M  V30 70 1 26 65
M  V30 71 1 27 66
M  V30 72 1 28 67
M  V30 73 1 29 68
M  V30 74 1 29 69
M  V30 75 1 30 70
M  V30 76 1 31 71
M  V30 77 1 33 72
M  V30 78 1 35 73
M  V30 79 1 36 74
M  V30 80 1 37 75
M  V30 81 1 38 76
M  V30 END BOND
M  V30 END CTAB
M  END
>  <Dataset>  (479) 
ChEMBL_Kinases

>  <Ligand_Instance>  (479) 
nan

>  <PDB_ID>  (479) 
nan

>  <Standardized_SMILES>  (479) 
CC(C)C[C@H](NC(=O)c1ccc2[nH]nc(-c3ccc(N4[C@H]5CCC[C@H]4CC(O)C5)cc3)c2c1)c1ccccn1

>  <Name>  (479) 
nan

>  <Pocket>  (479) 
nan

>  <ATP_Site>  (479) 
nan

>  <Peripheral>  (479) 
nan

>  <Num_H_Atoms_ProtBoundConf>  (479) 
nan

>  <Num_Resolved_Atoms>  (479) 
nan

>  <Num_Not_Resolved_Atoms>  (479) 
nan

$$$$
CHEMBL3422101
     RDKit          3D

  0  0  0  0  0  0  0  0  0  0999 V3000
M  V30 BEGIN CTAB
M  V30 COUNTS 74 79 0 0 0
M  V30 BEGIN ATOM
M  V30 1 C 0.491385 -5.723642 0.880592 0
M  V30 2 C -0.515249 -6.346370 -0.035024 0
M  V30 3 C -0.553244 -7.835323 0.337488 0
M  V30 4 C -0.130231 -6.296011 -1.479647 0
M  V30 5 C 0.068739 -4.927167 -2.040711 0 CFG=2
M  V30 6 N -1.093391 -4.095323 -1.966424 0
M  V30 7 C -0.993170 -2.781453 -1.433838 0
M  V30 8 O 0.155979 -2.457238 -1.059420 0
M  V30 9 C -2.164843 -1.901385 -1.345443 0
M  V30 10 C -3.430428 -2.265343 -1.741003 0
M  V30 11 C -4.501101 -1.394458 -1.642189 0
M  V30 12 C -4.314987 -0.107418 -1.130547 0
M  V30 13 N -5.066869 0.980543 -0.888154 0
M  V30 14 N -4.312789 1.935083 -0.382462 0
M  V30 15 C -3.036613 1.507342 -0.274556 0
M  V30 16 C -2.027466 2.416261 0.265059 0
M  V30 17 C -2.307796 3.165920 1.393189 0
M  V30 18 C -1.334203 4.031917 1.903938 0
M  V30 19 C -0.084378 4.143128 1.283083 0
M  V30 20 N 0.772990 5.006727 1.863996 0
M  V30 21 C 0.823071 6.375146 1.494460 0 CFG=1
M  V30 22 C 0.677325 6.941576 2.921934 0
M  V30 23 O 0.236578 6.096254 3.904679 0
M  V30 24 C 0.917561 4.846709 4.023074 0
M  V30 25 C 1.780343 4.826726 2.917736 0 CFG=1
M  V30 26 C 2.717672 4.133715 2.133960 0
M  V30 27 C 3.045195 5.130443 0.997478 0
M  V30 28 O 4.391235 5.520059 1.215857 0
M  V30 29 C 2.277902 6.426253 1.047865 0
M  V30 30 C 0.094705 3.352230 0.163585 0
M  V30 31 C -0.814894 2.479043 -0.395745 0
M  V30 32 C -3.029939 0.211227 -0.747498 0
M  V30 33 C -1.934913 -0.622505 -0.827495 0
M  V30 34 C 0.364072 -5.098005 -3.500705 0
M  V30 35 C 0.289044 -3.924473 -4.247242 0
M  V30 36 C 0.548381 -3.980874 -5.622558 0
M  V30 37 C 0.875615 -5.193835 -6.229073 0
M  V30 38 C 0.934174 -6.330459 -5.428012 0
M  V30 39 N 0.684263 -6.265507 -4.112685 0
M  V30 40 H 0.304958 -6.173329 1.895257 0
M  V30 41 H 0.370262 -4.631078 1.017833 0
M  V30 42 H 1.525200 -6.012343 0.621340 0
M  V30 43 H -1.511722 -5.964692 0.181231 0
M  V30 44 H 0.454270 -8.276980 0.099331 0
M  V30 45 H -0.704566 -7.996980 1.414959 0
M  V30 46 H -1.289120 -8.377915 -0.288659 0
M  V30 47 H -1.001593 -6.741563 -2.044370 0
M  V30 48 H 0.710614 -6.980296 -1.708150 0
M  V30 49 H 0.985928 -4.425300 -1.638507 0
M  V30 50 H -1.996369 -4.484889 -2.312337 0
M  V30 51 H -3.594530 -3.238135 -2.131890 0
M  V30 52 H -5.487387 -1.664476 -1.945492 0
M  V30 53 H -6.094620 0.992099 -1.096836 0
M  V30 54 H -3.296830 3.026769 1.819467 0
M  V30 55 H -1.733800 4.543436 2.793848 0
M  V30 56 H 0.104326 6.741454 0.787979 0
M  V30 57 H -0.145776 7.685779 2.828669 0
M  V30 58 H 1.552892 7.574737 3.195752 0
M  V30 59 H 0.141083 4.071135 4.172791 0
M  V30 60 H 1.434502 4.922576 5.025500 0
M  V30 61 H 2.408991 5.708022 3.185011 0
M  V30 62 H 2.341190 3.211680 1.662287 0
M  V30 63 H 3.643733 3.834031 2.674583 0
M  V30 64 H 3.064317 4.642168 0.013437 0
M  V30 65 H 5.008120 4.871279 0.798042 0
M  V30 66 H 2.213183 6.742974 -0.035136 0
M  V30 67 H 2.824240 7.260533 1.530089 0
M  V30 68 H 1.051692 3.422595 -0.334885 0
M  V30 69 H -0.557688 1.915371 -1.274372 0
M  V30 70 H -0.947823 -0.318497 -0.510543 0
M  V30 71 H 0.044696 -2.935252 -3.877356 0
M  V30 72 H 0.513069 -3.118550 -6.282570 0
M  V30 73 H 1.076556 -5.220884 -7.309588 0
M  V30 74 H 1.185729 -7.276106 -5.879983 0
M  V30 END ATOM
M  V30 BEGIN BOND
M  V30 1 1 1 2
M  V30 2 1 2 3
M  V30 3 1 2 4
M  V30 4 1 4 5
M  V30 5 1 5 6
M  V30 6 1 6 7
M  V30 7 2 7 8
M  V30 8 1 7 9
M  V30 9 2 9 10
M  V30 10 1 10 11
M  V30 11 2 11 12
M  V30 12 1 12 13
M  V30 13 1 13 14
M  V30 14 2 14 15
M  V30 15 1 15 16
M  V30 16 2 16 17
M  V30 17 1 17 18
M  V30 18 2 18 19
M  V30 19 1 19 20
M  V30 20 1 20 21
M  V30 21 1 21 22
M  V30 22 1 22 23
M  V30 23 1 23 24
M  V30 24 1 24 25
M  V30 25 1 25 26
M  V30 26 1 26 27
M  V30 27 1 27 28
M  V30 28 1 27 29
M  V30 29 1 19 30
M  V30 30 2 30 31
M  V30 31 1 15 32
M  V30 32 2 32 33
M  V30 33 1 5 34
M  V30 34 2 34 35
M  V30 35 1 35 36
M  V30 36 2 36 37
M  V30 37 1 37 38
M  V30 38 2 38 39
M  V30 39 1 33 9
M  V30 40 1 39 34
M  V30 41 1 32 12
M  V30 42 1 31 16
M  V30 43 1 25 20
M  V30 44 1 29 21
M  V30 45 1 1 40
M  V30 46 1 1 41
M  V30 47 1 1 42
M  V30 48 1 2 43
M  V30 49 1 3 44
M  V30 50 1 3 45
M  V30 51 1 3 46
M  V30 52 1 4 47
M  V30 53 1 4 48
M  V30 54 1 5 49 CFG=1
M  V30 55 1 6 50
M  V30 56 1 10 51
M  V30 57 1 11 52
M  V30 58 1 13 53
M  V30 59 1 17 54
M  V30 60 1 18 55
M  V30 61 1 21 56 CFG=3
M  V30 62 1 22 57
M  V30 63 1 22 58
M  V30 64 1 24 59
M  V30 65 1 24 60
M  V30 66 1 25 61 CFG=1
M  V30 67 1 26 62
M  V30 68 1 26 63
M  V30 69 1 27 64
M  V30 70 1 28 65
M  V30 71 1 29 66
M  V30 72 1 29 67
M  V30 73 1 30 68
M  V30 74 1 31 69
M  V30 75 1 33 70
M  V30 76 1 35 71
M  V30 77 1 36 72
M  V30 78 1 37 73
M  V30 79 1 38 74
M  V30 END BOND
M  V30 END CTAB
M  END
>  <Dataset>  (480) 
ChEMBL_Kinases

>  <Ligand_Instance>  (480) 
nan

>  <PDB_ID>  (480) 
nan

>  <Standardized_SMILES>  (480) 
CC(C)C[C@H](NC(=O)c1ccc2[nH]nc(-c3ccc(N4[C@H]5COC[C@H]4CC(O)C5)cc3)c2c1)c1ccccn1

>  <Name>  (480) 
nan

>  <Pocket>  (480) 
nan

>  <ATP_Site>  (480) 
nan

>  <Peripheral>  (480) 
nan

>  <Num_H_Atoms_ProtBoundConf>  (480) 
nan

>  <Num_Resolved_Atoms>  (480) 
nan

>  <Num_Not_Resolved_Atoms>  (480) 
nan

$$$$
CHEMBL3422102
     RDKit          3D

  0  0  0  0  0  0  0  0  0  0999 V3000
M  V30 BEGIN CTAB
M  V30 COUNTS 75 81 0 0 0
M  V30 BEGIN ATOM
M  V30 1 O 5.003178 0.924313 2.267966 0
M  V30 2 C 3.892222 0.462253 1.981529 0
M  V30 3 N 3.141326 0.905230 0.861210 0
M  V30 4 C 3.392994 1.896299 -0.160834 0 CFG=1
M  V30 5 C 3.532636 1.355949 -1.513920 0
M  V30 6 C 2.763420 0.383905 -2.072780 0
M  V30 7 C 2.875511 -0.134819 -3.345551 0
M  V30 8 C 3.879269 0.383769 -4.153492 0
M  V30 9 C 4.662612 1.368442 -3.594671 0
M  V30 10 N 4.499016 1.822637 -2.358399 0
M  V30 11 C 2.422599 3.016333 -0.004967 0
M  V30 12 C 0.982887 2.660081 -0.116098 0
M  V30 13 C 0.339440 3.904612 -0.726355 0
M  V30 14 C 1.396821 4.980341 -0.738940 0
M  V30 15 C 2.672777 4.159276 -0.966449 0
M  V30 16 C 3.334312 -0.580296 2.832343 0
M  V30 17 C 4.098626 -0.981468 3.908084 0
M  V30 18 C 3.674108 -1.973544 4.799985 0
M  V30 19 C 2.452296 -2.587740 4.619598 0
M  V30 20 N 1.729469 -3.540774 5.234799 0
M  V30 21 N 0.580147 -3.712288 4.566628 0
M  V30 22 C 0.509713 -2.898902 3.516318 0
M  V30 23 C -0.642013 -2.878623 2.608975 0
M  V30 24 C -1.194391 -4.071861 2.139852 0
M  V30 25 C -2.279200 -4.038786 1.286787 0
M  V30 26 C -2.818257 -2.830533 0.897114 0
M  V30 27 N -3.900260 -2.873534 0.048073 0
M  V30 28 C -4.598644 -4.055239 -0.401656 0 CFG=1
M  V30 29 C -6.009447 -3.572035 -0.015609 0
M  V30 30 O -6.118729 -2.506215 0.825946 0
M  V30 31 C -5.392667 -1.329128 0.477503 0
M  V30 32 C -4.574085 -1.738310 -0.584974 0 CFG=1
M  V30 33 C -3.587176 -1.443880 -1.532940 0
M  V30 34 C -3.421480 -2.769011 -2.315681 0
M  V30 35 O -2.103949 -3.185781 -2.346025 0
M  V30 36 C -4.370169 -3.868414 -1.906060 0
M  V30 37 C -2.247877 -1.685362 1.379180 0
M  V30 38 C -1.152032 -1.664507 2.242464 0
M  V30 39 C 1.689900 -2.183581 3.541750 0
M  V30 40 C 2.116405 -1.203550 2.665982 0
M  V30 41 H 2.203335 0.549790 0.576103 0
M  V30 42 H 4.413205 2.319816 0.110605 0
M  V30 43 H 1.968178 -0.060894 -1.490248 0
M  V30 44 H 2.231772 -0.910011 -3.735081 0
M  V30 45 H 3.991662 -0.001948 -5.153908 0
M  V30 46 H 5.439716 1.754647 -4.251341 0
M  V30 47 H 2.561489 3.465416 1.018819 0
M  V30 48 H 0.724002 1.833382 -0.771667 0
M  V30 49 H 0.516241 2.460944 0.892209 0
M  V30 50 H 0.051619 3.730954 -1.769377 0
M  V30 51 H -0.548940 4.205528 -0.131460 0
M  V30 52 H 1.218923 5.693079 -1.571251 0
M  V30 53 H 1.468707 5.461760 0.256831 0
M  V30 54 H 2.770326 3.830133 -2.000529 0
M  V30 55 H 3.522298 4.754048 -0.570358 0
M  V30 56 H 5.074452 -0.560965 4.138073 0
M  V30 57 H 4.286201 -2.276022 5.638460 0
M  V30 58 H 2.111722 -3.999904 6.089466 0
M  V30 59 H -0.695871 -4.977606 2.506253 0
M  V30 60 H -2.578514 -5.032641 1.021860 0
M  V30 61 H -4.323103 -4.993000 0.001944 0
M  V30 62 H -6.423822 -4.423324 0.570082 0
M  V30 63 H -6.666785 -3.532367 -0.913004 0
M  V30 64 H -4.943765 -1.009990 1.434168 0
M  V30 65 H -6.123865 -0.503837 0.227568 0
M  V30 66 H -5.413123 -1.975046 -1.315022 0
M  V30 67 H -3.872991 -0.615316 -2.216367 0
M  V30 68 H -2.567135 -1.187299 -1.185531 0
M  V30 69 H -3.720028 -2.537588 -3.376324 0
M  V30 70 H -1.788255 -3.453243 -3.241944 0
M  V30 71 H -5.303202 -3.875668 -2.485511 0
M  V30 72 H -3.832187 -4.811547 -2.202540 0
M  V30 73 H -2.617575 -0.704015 1.119576 0
M  V30 74 H -0.734457 -0.718930 2.600243 0
M  V30 75 H 1.524573 -0.894714 1.833368 0
M  V30 END ATOM
M  V30 BEGIN BOND
M  V30 1 2 1 2
M  V30 2 1 2 3
M  V30 3 1 3 4
M  V30 4 1 4 5
M  V30 5 2 5 6
M  V30 6 1 6 7
M  V30 7 2 7 8
M  V30 8 1 8 9
M  V30 9 2 9 10
M  V30 10 1 4 11
M  V30 11 1 11 12
M  V30 12 1 12 13
M  V30 13 1 13 14
M  V30 14 1 14 15
M  V30 15 1 2 16
M  V30 16 2 16 17
M  V30 17 1 17 18
M  V30 18 2 18 19
M  V30 19 1 19 20
M  V30 20 1 20 21
M  V30 21 2 21 22
M  V30 22 1 22 23
M  V30 23 2 23 24
M  V30 24 1 24 25
M  V30 25 2 25 26
M  V30 26 1 26 27
M  V30 27 1 27 28
M  V30 28 1 28 29
M  V30 29 1 29 30
M  V30 30 1 30 31
M  V30 31 1 31 32
M  V30 32 1 32 33
M  V30 33 1 33 34
M  V30 34 1 34 35
M  V30 35 1 34 36
M  V30 36 1 26 37
M  V30 37 2 37 38
M  V30 38 1 22 39
M  V30 39 2 39 40
M  V30 40 1 10 5
M  V30 41 1 15 11
M  V30 42 1 40 16
M  V30 43 1 39 19
M  V30 44 1 38 23
M  V30 45 1 32 27
M  V30 46 1 36 28
M  V30 47 1 3 41
M  V30 48 1 4 42 CFG=1
M  V30 49 1 6 43
M  V30 50 1 7 44
M  V30 51 1 8 45
M  V30 52 1 9 46
M  V30 53 1 11 47
M  V30 54 1 12 48
M  V30 55 1 12 49
M  V30 56 1 13 50
M  V30 57 1 13 51
M  V30 58 1 14 52
M  V30 59 1 14 53
M  V30 60 1 15 54
M  V30 61 1 15 55
M  V30 62 1 17 56
M  V30 63 1 18 57
M  V30 64 1 20 58
M  V30 65 1 24 59
M  V30 66 1 25 60
M  V30 67 1 28 61 CFG=1
M  V30 68 1 29 62
M  V30 69 1 29 63
M  V30 70 1 31 64
M  V30 71 1 31 65
M  V30 72 1 32 66 CFG=3
M  V30 73 1 33 67
M  V30 74 1 33 68
M  V30 75 1 34 69
M  V30 76 1 35 70
M  V30 77 1 36 71
M  V30 78 1 36 72
M  V30 79 1 37 73
M  V30 80 1 38 74
M  V30 81 1 40 75
M  V30 END BOND
M  V30 END CTAB
M  END
>  <Dataset>  (481) 
ChEMBL_Kinases

>  <Ligand_Instance>  (481) 
nan

>  <PDB_ID>  (481) 
nan

>  <Standardized_SMILES>  (481) 
O=C(N[C@@H](c1ccccn1)C1CCCC1)c1ccc2[nH]nc(-c3ccc(N4[C@H]5COC[C@H]4CC(O)C5)cc3)c2c1

>  <Name>  (481) 
nan

>  <Pocket>  (481) 
nan

>  <ATP_Site>  (481) 
nan

>  <Peripheral>  (481) 
nan

>  <Num_H_Atoms_ProtBoundConf>  (481) 
nan

>  <Num_Resolved_Atoms>  (481) 
nan

>  <Num_Not_Resolved_Atoms>  (481) 
nan

$$$$
CHEMBL3422103
     RDKit          3D

  0  0  0  0  0  0  0  0  0  0999 V3000
M  V30 BEGIN CTAB
M  V30 COUNTS 68 72 0 0 0
M  V30 BEGIN ATOM
M  V30 1 C 7.095113 2.073207 2.843382 0
M  V30 2 C 5.642738 1.981371 3.303232 0
M  V30 3 C 5.169246 3.409252 3.483702 0
M  V30 4 O 5.647577 1.361864 4.530945 0
M  V30 5 C 4.879789 1.260755 2.240635 0
M  V30 6 N 3.487024 1.069423 2.537241 0
M  V30 7 C 2.494538 0.429884 1.740000 0
M  V30 8 C 2.858829 -0.083395 0.530975 0
M  V30 9 C 1.934206 -0.725016 -0.305214 0
M  V30 10 N 2.221850 -1.288602 -1.568699 0
M  V30 11 C 1.293593 -1.944249 -2.431334 0
M  V30 12 C 0.142115 -1.101148 -2.895015 0
M  V30 13 C 0.568473 0.044919 -3.777704 0
M  V30 14 C 1.245989 -0.528313 -5.001960 0
M  V30 15 C 2.406052 -1.387794 -4.593474 0
M  V30 16 C 2.016071 -2.494800 -3.640001 0
M  V30 17 N 0.645383 -0.819308 0.135490 0
M  V30 18 N 0.348484 -0.302909 1.317353 0
M  V30 19 C -0.864199 -0.289052 1.935845 0
M  V30 20 C -2.175161 -0.798824 1.548805 0
M  V30 21 C -2.955170 -1.492651 2.456220 0
M  V30 22 C -4.199717 -1.991649 2.130718 0
M  V30 23 C -4.711144 -1.807814 0.862324 0
M  V30 24 C -6.020068 -2.278998 0.371301 0
M  V30 25 O -6.439059 -2.106423 -0.803676 0
M  V30 26 N -6.926644 -2.972739 1.187408 0
M  V30 27 C -8.214805 -3.485089 0.855126 0
M  V30 28 C -8.932099 -4.467295 1.662947 0
M  V30 29 C -9.305052 -3.028152 1.854254 0
M  V30 30 C -3.946935 -1.109396 -0.081276 0
M  V30 31 C -2.706795 -0.627181 0.286955 0
M  V30 32 C -0.751937 0.355074 3.172876 0
M  V30 33 N 0.542468 0.716276 3.267223 0
M  V30 34 C 1.179007 0.323395 2.169114 0
M  V30 35 H 7.573684 3.017559 3.199142 0
M  V30 36 H 7.710119 1.263612 3.328084 0
M  V30 37 H 7.191178 2.070308 1.737396 0
M  V30 38 H 5.819429 3.947136 4.191753 0
M  V30 39 H 4.145489 3.390808 3.909033 0
M  V30 40 H 5.098575 3.912397 2.497002 0
M  V30 41 H 5.824489 0.393089 4.480248 0
M  V30 42 H 5.007754 1.810893 1.297414 0
M  V30 43 H 5.343039 0.255160 2.123726 0
M  V30 44 H 3.176289 1.461703 3.474862 0
M  V30 45 H 3.830109 -0.057216 0.097670 0
M  V30 46 H 3.239965 -1.189780 -1.860665 0
M  V30 47 H 0.825209 -2.829847 -1.914819 0
M  V30 48 H -0.513935 -0.812513 -2.060818 0
M  V30 49 H -0.472573 -1.770436 -3.552269 0
M  V30 50 H 1.216311 0.706104 -3.203073 0
M  V30 51 H -0.343703 0.567000 -4.091511 0
M  V30 52 H 0.498332 -1.162595 -5.512351 0
M  V30 53 H 1.644587 0.268944 -5.642375 0
M  V30 54 H 2.824845 -1.847752 -5.490891 0
M  V30 55 H 3.196365 -0.797720 -4.089310 0
M  V30 56 H 2.984503 -2.914489 -3.267805 0
M  V30 57 H 1.492904 -3.330285 -4.120142 0
M  V30 58 H -2.604894 -1.665974 3.463830 0
M  V30 59 H -4.829461 -2.536683 2.818734 0
M  V30 60 H -6.660288 -3.166383 2.199055 0
M  V30 61 H -8.549833 -3.327957 -0.206687 0
M  V30 62 H -8.453958 -5.015502 2.502537 0
M  V30 63 H -9.712551 -5.091621 1.174531 0
M  V30 64 H -8.992111 -2.603179 2.816227 0
M  V30 65 H -10.239281 -2.624792 1.469850 0
M  V30 66 H -4.245357 -0.899946 -1.118390 0
M  V30 67 H -2.095039 -0.086904 -0.411106 0
M  V30 68 H -1.417177 0.591374 3.970169 0
M  V30 END ATOM
M  V30 BEGIN BOND
M  V30 1 1 1 2
M  V30 2 1 2 3
M  V30 3 1 2 4
M  V30 4 1 2 5
M  V30 5 1 5 6
M  V30 6 1 6 7
M  V30 7 2 7 8
M  V30 8 1 8 9
M  V30 9 1 9 10
M  V30 10 1 10 11
M  V30 11 1 11 12
M  V30 12 1 12 13
M  V30 13 1 13 14
M  V30 14 1 14 15
M  V30 15 1 15 16
M  V30 16 2 9 17
M  V30 17 1 17 18
M  V30 18 1 18 19
M  V30 19 1 19 20
M  V30 20 2 20 21
M  V30 21 1 21 22
M  V30 22 2 22 23
M  V30 23 1 23 24
M  V30 24 2 24 25
M  V30 25 1 24 26
M  V30 26 1 26 27
M  V30 27 1 27 28
M  V30 28 1 28 29
M  V30 29 1 23 30
M  V30 30 2 30 31
M  V30 31 2 19 32
M  V30 32 1 32 33
M  V30 33 2 33 34
M  V30 34 1 34 7
M  V30 35 1 16 11
M  V30 36 1 34 18
M  V30 37 1 31 20
M  V30 38 1 29 27
M  V30 39 1 1 35
M  V30 40 1 1 36
M  V30 41 1 1 37
M  V30 42 1 3 38
M  V30 43 1 3 39
M  V30 44 1 3 40
M  V30 45 1 4 41
M  V30 46 1 5 42
M  V30 47 1 5 43
M  V30 48 1 6 44
M  V30 49 1 8 45
M  V30 50 1 10 46
M  V30 51 1 11 47
M  V30 52 1 12 48
M  V30 53 1 12 49
M  V30 54 1 13 50
M  V30 55 1 13 51
M  V30 56 1 14 52
M  V30 57 1 14 53
M  V30 58 1 15 54
M  V30 59 1 15 55
M  V30 60 1 16 56
M  V30 61 1 16 57
M  V30 62 1 21 58
M  V30 63 1 22 59
M  V30 64 1 26 60
M  V30 65 1 27 61
M  V30 66 1 28 62
M  V30 67 1 28 63
M  V30 68 1 29 64
M  V30 69 1 29 65
M  V30 70 1 30 66
M  V30 71 1 31 67
M  V30 72 1 32 68
M  V30 END BOND
M  V30 END CTAB
M  END
>  <Dataset>  (482) 
ChEMBL_Kinases

>  <Ligand_Instance>  (482) 
nan

>  <PDB_ID>  (482) 
nan

>  <Standardized_SMILES>  (482) 
CC(C)(O)CNc1cc(NC2CCCCC2)nn2c(-c3ccc(C(=O)NC4CC4)cc3)cnc12

>  <Name>  (482) 
nan

>  <Pocket>  (482) 
nan

>  <ATP_Site>  (482) 
nan

>  <Peripheral>  (482) 
nan

>  <Num_H_Atoms_ProtBoundConf>  (482) 
nan

>  <Num_Resolved_Atoms>  (482) 
nan

>  <Num_Not_Resolved_Atoms>  (482) 
nan

$$$$
CHEMBL3422104
     RDKit          3D

  0  0  0  0  0  0  0  0  0  0999 V3000
M  V30 BEGIN CTAB
M  V30 COUNTS 64 69 0 0 0
M  V30 BEGIN ATOM
M  V30 1 C 2.314070 0.112647 5.723484 0
M  V30 2 C 2.369396 1.603329 5.604401 0
M  V30 3 C 3.086365 2.142233 6.829755 0
M  V30 4 C 3.118957 2.053681 4.334738 0
M  V30 5 N 2.428244 1.528435 3.200990 0
M  V30 6 C 1.768596 1.025436 2.106787 0
M  V30 7 N 2.122059 1.016158 0.834245 0
M  V30 8 C 1.504519 0.508997 -0.198824 0
M  V30 9 C 1.883208 0.519785 -1.581077 0
M  V30 10 C 1.171644 -0.261984 -2.447473 0
M  V30 11 C 1.467881 -0.290372 -3.807541 0
M  V30 12 C 2.484095 0.460135 -4.350494 0
M  V30 13 C 3.226079 1.267603 -3.487314 0
M  V30 14 N 4.216305 2.008984 -4.003944 0
M  V30 15 C 4.948469 2.802498 -3.218467 0
M  V30 16 C 4.677261 2.856608 -1.847749 0
M  V30 17 C 3.649611 2.073104 -1.373737 0
M  V30 18 C 2.880187 1.247620 -2.158015 0
M  V30 19 C 0.336822 -0.067700 0.219296 0
M  V30 20 N -0.182380 -0.157198 1.437105 0
M  V30 21 C -1.318221 -0.678259 1.982975 0
M  V30 22 C -2.360760 -1.349479 1.204421 0
M  V30 23 C -1.988961 -2.356873 0.326138 0
M  V30 24 C -2.932075 -3.008437 -0.465709 0
M  V30 25 C -4.276265 -2.671097 -0.401588 0
M  V30 26 C -5.286519 -3.337595 -1.233746 0
M  V30 27 O -6.482963 -2.887689 -1.166361 0
M  V30 28 N -4.969315 -4.424699 -2.074069 0
M  V30 29 C -5.990609 -5.041285 -2.880835 0
M  V30 30 C -5.471891 -5.689194 -4.170856 0
M  V30 31 C -5.991111 -6.532105 -3.079589 0
M  V30 32 C -4.628151 -1.667668 0.477616 0
M  V30 33 C -3.703931 -1.006729 1.274633 0
M  V30 34 C -1.262559 -0.418753 3.332502 0
M  V30 35 N -0.125554 0.240086 3.591963 0
M  V30 36 C 0.547570 0.407737 2.443674 0
M  V30 37 H 1.316413 -0.293698 5.918745 0
M  V30 38 H 3.047290 -0.306159 6.452652 0
M  V30 39 H 2.629812 -0.305820 4.720784 0
M  V30 40 H 1.345266 2.003369 5.600035 0
M  V30 41 H 3.363437 3.213697 6.662479 0
M  V30 42 H 3.988520 1.538988 7.098461 0
M  V30 43 H 2.352367 2.134624 7.660298 0
M  V30 44 H 3.187127 3.179548 4.363442 0
M  V30 45 H 4.148737 1.678319 4.487774 0
M  V30 46 H 3.253832 1.950520 2.675922 0
M  V30 47 H 0.365886 -0.912239 -2.237511 0
M  V30 48 H 0.936305 -0.891399 -4.536808 0
M  V30 49 H 2.723432 0.447537 -5.400649 0
M  V30 50 H 5.737891 3.379857 -3.700525 0
M  V30 51 H 5.302435 3.513346 -1.279156 0
M  V30 52 H 3.512274 2.179369 -0.333802 0
M  V30 53 H -0.315592 -0.529002 -0.506029 0
M  V30 54 H -0.955670 -2.686842 0.220476 0
M  V30 55 H -2.596598 -3.773782 -1.123256 0
M  V30 56 H -4.002218 -4.810857 -2.136826 0
M  V30 57 H -7.010456 -4.615024 -2.908580 0
M  V30 58 H -4.368649 -5.703762 -4.320109 0
M  V30 59 H -6.011247 -5.508967 -5.101499 0
M  V30 60 H -6.955552 -7.072330 -3.184480 0
M  V30 61 H -5.274779 -7.052671 -2.406612 0
M  V30 62 H -5.684352 -1.408574 0.522804 0
M  V30 63 H -3.990208 -0.221169 1.961180 0
M  V30 64 H -2.065314 -0.740217 3.987169 0
M  V30 END ATOM
M  V30 BEGIN BOND
M  V30 1 1 1 2
M  V30 2 1 2 3
M  V30 3 1 2 4
M  V30 4 1 4 5
M  V30 5 1 5 6
M  V30 6 2 6 7
M  V30 7 1 7 8
M  V30 8 1 8 9
M  V30 9 2 9 10
M  V30 10 1 10 11
M  V30 11 2 11 12
M  V30 12 1 12 13
M  V30 13 2 13 14
M  V30 14 1 14 15
M  V30 15 2 15 16
M  V30 16 1 16 17
M  V30 17 2 17 18
M  V30 18 2 8 19
M  V30 19 1 19 20
M  V30 20 1 20 21
M  V30 21 1 21 22
M  V30 22 2 22 23
M  V30 23 1 23 24
M  V30 24 2 24 25
M  V30 25 1 25 26
M  V30 26 2 26 27
M  V30 27 1 26 28
M  V30 28 1 28 29
M  V30 29 1 29 30
M  V30 30 1 30 31
M  V30 31 1 25 32
M  V30 32 2 32 33
M  V30 33 2 21 34
M  V30 34 1 34 35
M  V30 35 2 35 36
M  V30 36 1 36 6
M  V30 37 1 18 9
M  V30 38 1 36 20
M  V30 39 1 18 13
M  V30 40 1 33 22
M  V30 41 1 31 29
M  V30 42 1 1 37
M  V30 43 1 1 38
M  V30 44 1 1 39
M  V30 45 1 2 40
M  V30 46 1 3 41
M  V30 47 1 3 42
M  V30 48 1 3 43
M  V30 49 1 4 44
M  V30 50 1 4 45
M  V30 51 1 5 46
M  V30 52 1 10 47
M  V30 53 1 11 48
M  V30 54 1 12 49
M  V30 55 1 15 50
M  V30 56 1 16 51
M  V30 57 1 17 52
M  V30 58 1 19 53
M  V30 59 1 23 54
M  V30 60 1 24 55
M  V30 61 1 28 56
M  V30 62 1 29 57
M  V30 63 1 30 58
M  V30 64 1 30 59
M  V30 65 1 31 60
M  V30 66 1 31 61
M  V30 67 1 32 62
M  V30 68 1 33 63
M  V30 69 1 34 64
M  V30 END BOND
M  V30 END CTAB
M  END
>  <Dataset>  (483) 
ChEMBL_Kinases

>  <Ligand_Instance>  (483) 
nan

>  <PDB_ID>  (483) 
nan

>  <Standardized_SMILES>  (483) 
CC(C)CNc1nc(-c2cccc3ncccc23)cn2c(-c3ccc(C(=O)NC4CC4)cc3)cnc12

>  <Name>  (483) 
nan

>  <Pocket>  (483) 
nan

>  <ATP_Site>  (483) 
nan

>  <Peripheral>  (483) 
nan

>  <Num_H_Atoms_ProtBoundConf>  (483) 
nan

>  <Num_Resolved_Atoms>  (483) 
nan

>  <Num_Not_Resolved_Atoms>  (483) 
nan

$$$$
CHEMBL3422700
     RDKit          3D

  0  0  0  0  0  0  0  0  0  0999 V3000
M  V30 BEGIN CTAB
M  V30 COUNTS 51 51 0 0 0
M  V30 BEGIN ATOM
M  V30 1 C -1.249902 -2.433188 3.902983 0
M  V30 2 C -0.437602 -3.692859 3.827864 0
M  V30 3 C 0.210050 -3.904327 2.478656 0
M  V30 4 C 1.154942 -2.721651 2.167971 0
M  V30 5 C 1.738920 -3.023954 0.827837 0
M  V30 6 C 2.744255 -2.111084 0.291858 0
M  V30 7 C 2.530256 -0.689421 0.052453 0
M  V30 8 C 2.264593 0.244580 1.166742 0
M  V30 9 C 2.082186 1.653622 0.729644 0
M  V30 10 C 0.960145 2.021258 -0.146374 0 CFG=1
M  V30 11 O 0.819383 1.417614 -1.358719 0
M  V30 12 C -0.362169 2.299621 0.489567 0 CFG=1
M  V30 13 N -1.076316 3.232508 -0.407221 0
M  V30 14 C -1.231050 1.139103 0.815180 0
M  V30 15 C -1.649464 0.302798 -0.315593 0
M  V30 16 C -2.789522 0.808796 -0.963025 0
M  V30 17 C -3.386060 0.202605 -2.041915 0
M  V30 18 C -2.872632 -0.969226 -2.552484 0
M  V30 19 C -1.754905 -1.484591 -1.933590 0
M  V30 20 C -1.165978 -0.868738 -0.853216 0
M  V30 21 H -0.795304 -1.658259 4.556797 0
M  V30 22 H -2.280357 -2.612950 4.305488 0
M  V30 23 H -1.405363 -2.040780 2.881011 0
M  V30 24 H 0.318443 -3.786773 4.645591 0
M  V30 25 H -1.143710 -4.544091 3.961802 0
M  V30 26 H -0.595047 -3.942697 1.725568 0
M  V30 27 H 0.828934 -4.807658 2.538701 0
M  V30 28 H 1.897160 -2.584909 2.937743 0
M  V30 29 H 0.436045 -1.879922 2.015519 0
M  V30 30 H 0.868896 -3.207183 0.146533 0
M  V30 31 H 2.154518 -4.091331 0.938705 0
M  V30 32 H 3.756925 -2.235575 0.828467 0
M  V30 33 H 3.037121 -2.552684 -0.734443 0
M  V30 34 H 1.857239 -0.555418 -0.843799 0
M  V30 35 H 3.531689 -0.312211 -0.396243 0
M  V30 36 H 1.536181 0.001046 1.919827 0
M  V30 37 H 3.254983 0.272991 1.764050 0
M  V30 38 H 1.941227 2.247439 1.691963 0
M  V30 39 H 3.076695 2.075942 0.363711 0
M  V30 40 H 1.285355 3.136089 -0.499144 0
M  V30 41 H 0.598921 1.984361 -2.120798 0
M  V30 42 H -0.179483 2.888711 1.415020 0
M  V30 43 H -1.937066 3.596435 0.015763 0
M  V30 44 H -1.132343 2.889143 -1.372860 0
M  V30 45 H -2.153857 1.500770 1.367258 0
M  V30 46 H -0.731291 0.490028 1.571118 0
M  V30 47 H -3.309204 1.734621 -0.667407 0
M  V30 48 H -4.262036 0.587350 -2.542821 0
M  V30 49 H -3.229968 -1.553474 -3.387027 0
M  V30 50 H -1.203713 -2.393004 -2.184519 0
M  V30 51 H -0.303017 -1.196184 -0.295529 0
M  V30 END ATOM
M  V30 BEGIN BOND
M  V30 1 1 1 2
M  V30 2 1 2 3
M  V30 3 1 3 4
M  V30 4 1 4 5
M  V30 5 1 5 6
M  V30 6 1 6 7
M  V30 7 1 7 8
M  V30 8 1 8 9
M  V30 9 1 9 10
M  V30 10 1 10 11
M  V30 11 1 10 12
M  V30 12 1 12 13
M  V30 13 1 12 14
M  V30 14 1 14 15
M  V30 15 2 15 16
M  V30 16 1 16 17
M  V30 17 2 17 18
M  V30 18 1 18 19
M  V30 19 2 19 20
M  V30 20 1 20 15
M  V30 21 1 1 21
M  V30 22 1 1 22
M  V30 23 1 1 23
M  V30 24 1 2 24
M  V30 25 1 2 25
M  V30 26 1 3 26
M  V30 27 1 3 27
M  V30 28 1 4 28
M  V30 29 1 4 29
M  V30 30 1 5 30
M  V30 31 1 5 31
M  V30 32 1 6 32
M  V30 33 1 6 33
M  V30 34 1 7 34
M  V30 35 1 7 35
M  V30 36 1 8 36
M  V30 37 1 8 37
M  V30 38 1 9 38
M  V30 39 1 9 39
M  V30 40 1 10 40 CFG=3
M  V30 41 1 11 41
M  V30 42 1 12 42 CFG=1
M  V30 43 1 13 43
M  V30 44 1 13 44
M  V30 45 1 14 45
M  V30 46 1 14 46
M  V30 47 1 16 47
M  V30 48 1 17 48
M  V30 49 1 18 49
M  V30 50 1 19 50
M  V30 51 1 20 51
M  V30 END BOND
M  V30 END CTAB
M  END
>  <Dataset>  (484) 
ChEMBL_Kinases

>  <Ligand_Instance>  (484) 
nan

>  <PDB_ID>  (484) 
nan

>  <Standardized_SMILES>  (484) 
CCCCCCCCC[C@@H](O)[C@@H](N)Cc1ccccc1

>  <Name>  (484) 
nan

>  <Pocket>  (484) 
nan

>  <ATP_Site>  (484) 
nan

>  <Peripheral>  (484) 
nan

>  <Num_H_Atoms_ProtBoundConf>  (484) 
nan

>  <Num_Resolved_Atoms>  (484) 
nan

>  <Num_Not_Resolved_Atoms>  (484) 
nan

$$$$
CHEMBL342402
     RDKit          3D

  0  0  0  0  0  0  0  0  0  0999 V3000
M  V30 BEGIN CTAB
M  V30 COUNTS 14 14 0 0 0
M  V30 BEGIN ATOM
M  V30 1 O 0.473303 -0.916174 2.943346 0
M  V30 2 C 0.606725 -0.714337 1.681646 0
M  V30 3 C -0.610940 -1.531201 1.503764 0
M  V30 4 Cl -0.869917 -2.540023 2.968660 0
M  V30 5 C 1.116798 -0.245279 0.341161 0
M  V30 6 C 2.033469 0.454884 1.176102 0
M  V30 7 C 3.048369 1.289165 0.646092 0
M  V30 8 Cl 4.460950 2.396174 0.662975 0
M  V30 9 C 3.136277 1.422521 -0.772737 0
M  V30 10 Cl 3.237705 1.581979 -2.539468 0
M  V30 11 S 1.750718 0.336853 -1.313711 0
M  V30 12 H -0.503747 -2.173939 0.630105 0
M  V30 13 H -1.519667 -0.837084 1.447267 0
M  V30 14 H 2.467811 0.875718 2.131988 0
M  V30 END ATOM
M  V30 BEGIN BOND
M  V30 1 2 1 2
M  V30 2 1 2 3
M  V30 3 1 3 4
M  V30 4 1 2 5
M  V30 5 2 5 6
M  V30 6 1 6 7
M  V30 7 1 7 8
M  V30 8 2 7 9
M  V30 9 1 9 10
M  V30 10 1 9 11
M  V30 11 1 11 5
M  V30 12 1 3 12
M  V30 13 1 3 13
M  V30 14 1 6 14
M  V30 END BOND
M  V30 END CTAB
M  END
>  <Dataset>  (485) 
ChEMBL_Kinases

>  <Ligand_Instance>  (485) 
nan

>  <PDB_ID>  (485) 
nan

>  <Standardized_SMILES>  (485) 
O=C(CCl)c1cc(Cl)c(Cl)s1

>  <Name>  (485) 
nan

>  <Pocket>  (485) 
nan

>  <ATP_Site>  (485) 
nan

>  <Peripheral>  (485) 
nan

>  <Num_H_Atoms_ProtBoundConf>  (485) 
nan

>  <Num_Resolved_Atoms>  (485) 
nan

>  <Num_Not_Resolved_Atoms>  (485) 
nan

$$$$
CHEMBL342430
     RDKit          3D

  0  0  0  0  0  0  0  0  0  0999 V3000
M  V30 BEGIN CTAB
M  V30 COUNTS 78 78 0 0 0
M  V30 BEGIN ATOM
M  V30 1 C 1.123617 -0.632937 3.644638 0
M  V30 2 C 2.233529 -0.859226 4.587004 0
M  V30 3 C 3.341329 0.106799 4.680273 0
M  V30 4 C 4.273191 0.346416 3.594957 0
M  V30 5 C 4.039696 0.903933 2.279923 0
M  V30 6 C 3.173115 0.293316 1.245816 0
M  V30 7 C 3.557586 -1.114151 0.925335 0
M  V30 8 C 2.718966 -1.799547 -0.116777 0
M  V30 9 C 2.763488 -1.077445 -1.380795 0
M  V30 10 C 1.681390 -0.600887 -2.031409 0
M  V30 11 C 0.236852 -0.574788 -1.840166 0
M  V30 12 C -0.306613 0.834551 -1.804262 0
M  V30 13 C 0.349436 1.542825 -0.639251 0
M  V30 14 C -0.048455 2.928444 -0.413373 0
M  V30 15 C -1.412793 3.221989 0.030359 0
M  V30 16 C -1.909619 2.828080 1.333507 0
M  V30 17 C -2.162334 1.535034 1.908277 0
M  V30 18 C -3.300166 0.716651 1.399604 0
M  V30 19 C -3.389682 0.306454 0.033416 0
M  V30 20 C -3.334656 -0.992360 -0.290366 0
M  V30 21 C -3.421421 -1.514948 -1.677588 0
M  V30 22 C -3.489255 -3.005838 -1.465551 0 CFG=1
M  V30 23 C -4.448947 -3.669613 -2.432828 0
M  V30 24 O -4.493546 -5.031376 -2.065232 0
M  V30 25 C -2.104920 -3.589389 -1.591948 0
M  V30 26 O -1.633473 -3.492483 -2.919409 0
M  V30 27 C -0.362965 -4.002176 -3.164609 0
M  V30 28 C 0.306685 -3.995106 -4.486037 0
M  V30 29 O 0.187704 -4.483320 -2.145742 0
M  V30 30 O -3.914315 -3.129393 -0.135297 0
M  V30 31 C -3.169459 -2.172611 0.585476 0
M  V30 32 O -2.477204 -2.067591 1.657861 0
M  V30 33 H 1.277853 -1.245311 2.745367 0
M  V30 34 H 0.158455 -0.973342 4.142753 0
M  V30 35 H 0.978674 0.421031 3.364225 0
M  V30 36 H 2.690231 -1.904456 4.389019 0
M  V30 37 H 1.777971 -1.025045 5.615837 0
M  V30 38 H 2.896154 1.153860 4.980508 0
M  V30 39 H 3.913287 -0.103714 5.668618 0
M  V30 40 H 4.815872 -0.702007 3.425844 0
M  V30 41 H 5.207160 0.941744 4.030281 0
M  V30 42 H 5.053333 1.128203 1.767676 0
M  V30 43 H 3.698535 2.010323 2.439514 0
M  V30 44 H 3.426953 0.848452 0.236477 0
M  V30 45 H 2.130502 0.426884 1.386228 0
M  V30 46 H 3.577994 -1.729109 1.867743 0
M  V30 47 H 4.642849 -1.079264 0.624852 0
M  V30 48 H 1.705833 -1.898287 0.324189 0
M  V30 49 H 3.095288 -2.852202 -0.213651 0
M  V30 50 H 3.745406 -0.923467 -1.810856 0
M  V30 51 H 1.899608 -0.078708 -2.970059 0
M  V30 52 H -0.111252 -1.123919 -0.941362 0
M  V30 53 H -0.215057 -1.149137 -2.697637 0
M  V30 54 H -0.047961 1.372040 -2.766639 0
M  V30 55 H -1.390550 0.788216 -1.710489 0
M  V30 56 H 1.454914 1.499411 -0.877683 0
M  V30 57 H 0.150178 0.846555 0.225400 0
M  V30 58 H 0.050000 3.437685 -1.444648 0
M  V30 59 H 0.734779 3.523241 0.156148 0
M  V30 60 H -2.104700 2.910186 -0.816505 0
M  V30 61 H -1.546793 4.368382 -0.028217 0
M  V30 62 H -1.309571 3.437591 2.144248 0
M  V30 63 H -2.908652 3.439476 1.451992 0
M  V30 64 H -2.448898 1.680197 3.030724 0
M  V30 65 H -1.259250 0.877565 2.056688 0
M  V30 66 H -3.533433 -0.129670 2.109324 0
M  V30 67 H -4.243922 1.378564 1.580464 0
M  V30 68 H -3.516898 1.065262 -0.721578 0
M  V30 69 H -4.392841 -1.170110 -2.142655 0
M  V30 70 H -2.570859 -1.212778 -2.310665 0
M  V30 71 H -5.466460 -3.266221 -2.313505 0
M  V30 72 H -4.068182 -3.596082 -3.461477 0
M  V30 73 H -3.723272 -5.531906 -2.420349 0
M  V30 74 H -1.472972 -3.097345 -0.844370 0
M  V30 75 H -2.208628 -4.676914 -1.329584 0
M  V30 76 H -0.185021 -3.222870 -5.105762 0
M  V30 77 H 1.401442 -3.782494 -4.333731 0
M  V30 78 H 0.169993 -4.990282 -4.986584 0
M  V30 END ATOM
M  V30 BEGIN BOND
M  V30 1 1 1 2
M  V30 2 1 2 3
M  V30 3 1 3 4
M  V30 4 1 4 5
M  V30 5 1 5 6
M  V30 6 1 6 7
M  V30 7 1 7 8
M  V30 8 1 8 9
M  V30 9 2 9 10
M  V30 10 1 10 11
M  V30 11 1 11 12
M  V30 12 1 12 13
M  V30 13 1 13 14
M  V30 14 1 14 15
M  V30 15 1 15 16
M  V30 16 1 16 17
M  V30 17 1 17 18
M  V30 18 1 18 19
M  V30 19 2 19 20
M  V30 20 1 20 21
M  V30 21 1 21 22
M  V30 22 1 22 23 CFG=3
M  V30 23 1 23 24
M  V30 24 1 22 25
M  V30 25 1 25 26
M  V30 26 1 26 27
M  V30 27 1 27 28
M  V30 28 2 27 29
M  V30 29 1 22 30
M  V30 30 1 30 31
M  V30 31 2 31 32
M  V30 32 1 31 20
M  V30 33 1 1 33
M  V30 34 1 1 34
M  V30 35 1 1 35
M  V30 36 1 2 36
M  V30 37 1 2 37
M  V30 38 1 3 38
M  V30 39 1 3 39
M  V30 40 1 4 40
M  V30 41 1 4 41
M  V30 42 1 5 42
M  V30 43 1 5 43
M  V30 44 1 6 44
M  V30 45 1 6 45
M  V30 46 1 7 46
M  V30 47 1 7 47
M  V30 48 1 8 48
M  V30 49 1 8 49
M  V30 50 1 9 50
M  V30 51 1 10 51
M  V30 52 1 11 52
M  V30 53 1 11 53
M  V30 54 1 12 54
M  V30 55 1 12 55
M  V30 56 1 13 56
M  V30 57 1 13 57
M  V30 58 1 14 58
M  V30 59 1 14 59
M  V30 60 1 15 60
M  V30 61 1 15 61
M  V30 62 1 16 62
M  V30 63 1 16 63
M  V30 64 1 17 64
M  V30 65 1 17 65
M  V30 66 1 18 66
M  V30 67 1 18 67
M  V30 68 1 19 68
M  V30 69 1 21 69
M  V30 70 1 21 70
M  V30 71 1 23 71
M  V30 72 1 23 72
M  V30 73 1 24 73
M  V30 74 1 25 74
M  V30 75 1 25 75
M  V30 76 1 28 76
M  V30 77 1 28 77
M  V30 78 1 28 78
M  V30 END BOND
M  V30 END CTAB
M  END
>  <Dataset>  (486) 
ChEMBL_Kinases

>  <Ligand_Instance>  (486) 
nan

>  <PDB_ID>  (486) 
nan

>  <Standardized_SMILES>  (486) 
CCCCCCCC/C=C\CCCCCCCC/C=C1/C[C@@](CO)(COC(C)=O)OC1=O

>  <Name>  (486) 
nan

>  <Pocket>  (486) 
nan

>  <ATP_Site>  (486) 
nan

>  <Peripheral>  (486) 
nan

>  <Num_H_Atoms_ProtBoundConf>  (486) 
nan

>  <Num_Resolved_Atoms>  (486) 
nan

>  <Num_Not_Resolved_Atoms>  (486) 
nan

$$$$
CHEMBL3425866
     RDKit          3D

  0  0  0  0  0  0  0  0  0  0999 V3000
M  V30 BEGIN CTAB
M  V30 COUNTS 46 49 0 0 0
M  V30 BEGIN ATOM
M  V30 1 C 0.524185 -6.003503 1.925425 0
M  V30 2 O -0.342766 -5.327668 2.816070 0
M  V30 3 C -0.581638 -3.962718 2.738218 0
M  V30 4 C -0.038329 -3.084022 1.822498 0
M  V30 5 C -0.373461 -1.745383 1.871720 0
M  V30 6 C 0.244480 -0.883922 0.866485 0
M  V30 7 C 0.480068 0.417015 1.256912 0
M  V30 8 N 1.046911 1.232620 0.352749 0
M  V30 9 C 1.389005 0.854251 -0.886449 0
M  V30 10 C 1.955376 1.663312 -1.795733 0
M  V30 11 N 2.338258 3.040345 -1.746106 0
M  V30 12 C 2.940979 3.750653 -2.849313 0
M  V30 13 C 2.713747 5.239160 -2.702414 0
M  V30 14 O 1.471939 5.545939 -2.204260 0
M  V30 15 C 1.183200 5.008686 -0.971187 0
M  V30 16 C 2.213322 3.969277 -0.643945 0
M  V30 17 S 2.221797 0.748896 -3.256138 0
M  V30 18 N 1.505656 -0.831802 -2.550816 0
M  V30 19 C 1.171103 -0.432666 -1.314339 0
M  V30 20 C 0.590226 -1.289977 -0.404816 0
M  V30 21 C -1.245490 -1.237138 2.815524 0
M  V30 22 C -1.776444 -2.133983 3.720760 0
M  V30 23 C -1.457862 -3.490561 3.696968 0
M  V30 24 O -2.105267 -4.207354 4.697516 0
M  V30 25 C -3.341902 -4.790628 4.513395 0
M  V30 26 C -4.650434 -5.445391 4.418856 0
M  V30 27 O -2.885230 -4.168811 3.497413 0
M  V30 28 H 0.287375 -5.593662 0.900175 0
M  V30 29 H 1.586818 -5.788328 2.083248 0
M  V30 30 H 0.336330 -7.074650 1.872984 0
M  V30 31 H 0.636333 -3.505065 1.100033 0
M  V30 32 H 0.218174 0.771452 2.257746 0
M  V30 33 H 2.438948 3.442807 -3.813372 0
M  V30 34 H 4.034683 3.589043 -2.932563 0
M  V30 35 H 2.757253 5.679328 -3.728779 0
M  V30 36 H 3.501560 5.731083 -2.110697 0
M  V30 37 H 1.223656 5.803779 -0.200099 0
M  V30 38 H 0.172138 4.537512 -0.928395 0
M  V30 39 H 1.944324 3.429819 0.308059 0
M  V30 40 H 3.185425 4.452560 -0.409454 0
M  V30 41 H 0.354401 -2.326944 -0.583786 0
M  V30 42 H -1.494029 -0.176593 2.833496 0
M  V30 43 H -2.461015 -1.674279 4.444898 0
M  V30 44 H -5.340965 -4.803677 3.795727 0
M  V30 45 H -4.523833 -6.425832 3.915445 0
M  V30 46 H -5.160708 -5.549448 5.398244 0
M  V30 END ATOM
M  V30 BEGIN BOND
M  V30 1 1 1 2
M  V30 2 1 2 3
M  V30 3 2 3 4
M  V30 4 1 4 5
M  V30 5 1 5 6
M  V30 6 1 6 7
M  V30 7 2 7 8
M  V30 8 1 8 9
M  V30 9 2 9 10
M  V30 10 1 10 11
M  V30 11 1 11 12
M  V30 12 1 12 13
M  V30 13 1 13 14
M  V30 14 1 14 15
M  V30 15 1 15 16
M  V30 16 1 10 17
M  V30 17 1 17 18
M  V30 18 2 18 19
M  V30 19 1 19 20
M  V30 20 2 5 21
M  V30 21 1 21 22
M  V30 22 2 22 23
M  V30 23 1 23 24
M  V30 24 1 24 25
M  V30 25 1 25 26
M  V30 26 2 25 27
M  V30 27 1 23 3
M  V30 28 2 20 6
M  V30 29 1 19 9
M  V30 30 1 16 11
M  V30 31 1 1 28
M  V30 32 1 1 29
M  V30 33 1 1 30
M  V30 34 1 4 31
M  V30 35 1 7 32
M  V30 36 1 12 33
M  V30 37 1 12 34
M  V30 38 1 13 35
M  V30 39 1 13 36
M  V30 40 1 15 37
M  V30 41 1 15 38
M  V30 42 1 16 39
M  V30 43 1 16 40
M  V30 44 1 20 41
M  V30 45 1 21 42
M  V30 46 1 22 43
M  V30 47 1 26 44
M  V30 48 1 26 45
M  V30 49 1 26 46
M  V30 END BOND
M  V30 END CTAB
M  END
>  <Dataset>  (487) 
ChEMBL_Kinases

>  <Ligand_Instance>  (487) 
nan

>  <PDB_ID>  (487) 
nan

>  <Standardized_SMILES>  (487) 
COc1cc(-c2cnc3c(N4CCOCC4)snc3c2)ccc1OC(C)=O

>  <Name>  (487) 
nan

>  <Pocket>  (487) 
nan

>  <ATP_Site>  (487) 
nan

>  <Peripheral>  (487) 
nan

>  <Num_H_Atoms_ProtBoundConf>  (487) 
nan

>  <Num_Resolved_Atoms>  (487) 
nan

>  <Num_Not_Resolved_Atoms>  (487) 
nan

$$$$
CHEMBL3425842
     RDKit          3D

  0  0  0  0  0  0  0  0  0  0999 V3000
M  V30 BEGIN CTAB
M  V30 COUNTS 29 31 0 0 0
M  V30 BEGIN ATOM
M  V30 1 O -1.417710 -2.939441 4.885090 0
M  V30 2 C -1.034899 -4.132890 4.224865 0
M  V30 3 C -0.519513 -3.799152 2.839849 0
M  V30 4 N 0.629891 -2.919104 2.879150 0
M  V30 5 C 1.283763 -2.429793 1.627863 0
M  V30 6 S 2.489116 -3.284745 0.834035 0
M  V30 7 N 2.695631 -2.004377 -0.522654 0
M  V30 8 C 1.780362 -1.107641 -0.131382 0
M  V30 9 C 1.573277 0.070547 -0.871109 0
M  V30 10 C 0.634328 1.000420 -0.472163 0
M  V30 11 C 0.415884 2.223861 -1.237570 0
M  V30 12 C 0.559528 2.319994 -2.605090 0
M  V30 13 C 0.337183 3.506353 -3.214442 0
M  V30 14 S -0.129449 4.695612 -1.830324 0
M  V30 15 C 0.027583 3.456661 -0.583194 0
M  V30 16 C -0.120339 0.789882 0.662452 0
M  V30 17 N 0.108281 -0.349841 1.341577 0
M  V30 18 C 1.007452 -1.284284 0.997418 0
M  V30 19 H -2.201622 -2.531358 4.428200 0
M  V30 20 H -1.976300 -4.709476 4.098602 0
M  V30 21 H -0.323610 -4.697696 4.841872 0
M  V30 22 H -1.346390 -3.309813 2.292435 0
M  V30 23 H -0.281334 -4.756380 2.309234 0
M  V30 24 H 1.173837 -2.495791 3.655830 0
M  V30 25 H 2.103683 0.339257 -1.770206 0
M  V30 26 H 0.844838 1.481012 -3.219554 0
M  V30 27 H 0.402583 3.772162 -4.299003 0
M  V30 28 H -0.122700 3.539187 0.481762 0
M  V30 29 H -0.870456 1.504433 1.005153 0
M  V30 END ATOM
M  V30 BEGIN BOND
M  V30 1 1 1 2
M  V30 2 1 2 3
M  V30 3 1 3 4
M  V30 4 1 4 5
M  V30 5 1 5 6
M  V30 6 1 6 7
M  V30 7 2 7 8
M  V30 8 1 8 9
M  V30 9 2 9 10
M  V30 10 1 10 11
M  V30 11 1 11 12
M  V30 12 2 12 13
M  V30 13 1 13 14
M  V30 14 1 14 15
M  V30 15 1 10 16
M  V30 16 2 16 17
M  V30 17 1 17 18
M  V30 18 2 18 5
M  V30 19 1 18 8
M  V30 20 2 15 11
M  V30 21 1 1 19
M  V30 22 1 2 20
M  V30 23 1 2 21
M  V30 24 1 3 22
M  V30 25 1 3 23
M  V30 26 1 4 24
M  V30 27 1 9 25
M  V30 28 1 12 26
M  V30 29 1 13 27
M  V30 30 1 15 28
M  V30 31 1 16 29
M  V30 END BOND
M  V30 END CTAB
M  END
>  <Dataset>  (488) 
ChEMBL_Kinases

>  <Ligand_Instance>  (488) 
nan

>  <PDB_ID>  (488) 
nan

>  <Standardized_SMILES>  (488) 
OCCNc1snc2cc(-c3ccsc3)cnc12

>  <Name>  (488) 
nan

>  <Pocket>  (488) 
nan

>  <ATP_Site>  (488) 
nan

>  <Peripheral>  (488) 
nan

>  <Num_H_Atoms_ProtBoundConf>  (488) 
nan

>  <Num_Resolved_Atoms>  (488) 
nan

>  <Num_Not_Resolved_Atoms>  (488) 
nan

$$$$
CHEMBL3425844
     RDKit          3D

  0  0  0  0  0  0  0  0  0  0999 V3000
M  V30 BEGIN CTAB
M  V30 COUNTS 36 39 0 0 0
M  V30 BEGIN ATOM
M  V30 1 C 2.759570 -3.732851 4.757789 0
M  V30 2 C 1.748930 -4.092491 3.880747 0
M  V30 3 C 1.360268 -3.293596 2.826037 0
M  V30 4 C 2.041898 -2.087178 2.681069 0
M  V30 5 C 1.627744 -1.225721 1.564950 0
M  V30 6 C 0.295087 -1.284843 1.223171 0
M  V30 7 N -0.112531 -0.523702 0.225080 0
M  V30 8 C 0.618750 0.319666 -0.518137 0
M  V30 9 C 0.348723 1.157713 -1.546173 0
M  V30 10 N -1.016205 1.218595 -2.038411 0
M  V30 11 C -1.703119 -0.055164 -2.298119 0
M  V30 12 C -3.062887 -0.009390 -1.644131 0
M  V30 13 O -3.295088 1.045908 -0.829237 0
M  V30 14 C -2.908342 2.289756 -1.190135 0
M  V30 15 C -1.881373 2.346533 -2.318013 0
M  V30 16 S 1.763267 1.994562 -2.059542 0
M  V30 17 N 2.860397 1.192108 -0.816767 0
M  V30 18 C 1.941463 0.394502 -0.197768 0
M  V30 19 C 2.445518 -0.381761 0.847769 0
M  V30 20 C 3.058557 -1.680249 3.527542 0
M  V30 21 C 3.391771 -2.531908 4.558360 0
M  V30 22 H 3.051825 -4.381685 5.587324 0
M  V30 23 H 1.240859 -5.055861 4.043004 0
M  V30 24 H 0.566905 -3.569909 2.127458 0
M  V30 25 H -0.480502 -1.890755 1.683315 0
M  V30 26 H -1.765370 -0.096363 -3.416249 0
M  V30 27 H -1.060719 -0.868201 -1.967444 0
M  V30 28 H -3.090308 -0.944993 -1.004334 0
M  V30 29 H -3.820717 -0.177324 -2.436493 0
M  V30 30 H -2.344541 2.710600 -0.302226 0
M  V30 31 H -3.719614 2.997504 -1.397895 0
M  V30 32 H -1.388134 3.322025 -2.297358 0
M  V30 33 H -2.436515 2.176651 -3.268380 0
M  V30 34 H 3.461498 -0.446083 1.235422 0
M  V30 35 H 3.538416 -0.730732 3.346379 0
M  V30 36 H 4.178185 -2.232236 5.226381 0
M  V30 END ATOM
M  V30 BEGIN BOND
M  V30 1 2 1 2
M  V30 2 1 2 3
M  V30 3 2 3 4
M  V30 4 1 4 5
M  V30 5 1 5 6
M  V30 6 2 6 7
M  V30 7 1 7 8
M  V30 8 2 8 9
M  V30 9 1 9 10
M  V30 10 1 10 11
M  V30 11 1 11 12
M  V30 12 1 12 13
M  V30 13 1 13 14
M  V30 14 1 14 15
M  V30 15 1 9 16
M  V30 16 1 16 17
M  V30 17 2 17 18
M  V30 18 1 18 19
M  V30 19 1 4 20
M  V30 20 2 20 21
M  V30 21 1 21 1
M  V30 22 2 19 5
M  V30 23 1 18 8
M  V30 24 1 15 10
M  V30 25 1 1 22
M  V30 26 1 2 23
M  V30 27 1 3 24
M  V30 28 1 6 25
M  V30 29 1 11 26
M  V30 30 1 11 27
M  V30 31 1 12 28
M  V30 32 1 12 29
M  V30 33 1 14 30
M  V30 34 1 14 31
M  V30 35 1 15 32
M  V30 36 1 15 33
M  V30 37 1 19 34
M  V30 38 1 20 35
M  V30 39 1 21 36
M  V30 END BOND
M  V30 END CTAB
M  END
>  <Dataset>  (489) 
ChEMBL_Kinases

>  <Ligand_Instance>  (489) 
nan

>  <PDB_ID>  (489) 
nan

>  <Standardized_SMILES>  (489) 
c1ccc(-c2cnc3c(N4CCOCC4)snc3c2)cc1

>  <Name>  (489) 
nan

>  <Pocket>  (489) 
nan

>  <ATP_Site>  (489) 
nan

>  <Peripheral>  (489) 
nan

>  <Num_H_Atoms_ProtBoundConf>  (489) 
nan

>  <Num_Resolved_Atoms>  (489) 
nan

>  <Num_Not_Resolved_Atoms>  (489) 
nan

$$$$
CHEMBL3425846
     RDKit          3D

  0  0  0  0  0  0  0  0  0  0999 V3000
M  V30 BEGIN CTAB
M  V30 COUNTS 44 47 0 0 0
M  V30 BEGIN ATOM
M  V30 1 C -0.296134 -7.644598 1.473953 0
M  V30 2 O -1.211315 -6.592946 1.192034 0
M  V30 3 C -0.726020 -5.317049 1.011201 0
M  V30 4 C 0.656089 -5.115916 1.114275 0
M  V30 5 C 1.061700 -3.811625 0.920456 0
M  V30 6 C 0.266006 -2.749656 0.649286 0
M  V30 7 C 0.750587 -1.388721 0.451978 0
M  V30 8 C -0.081685 -0.355488 0.830443 0
M  V30 9 N 0.348483 0.906229 0.654824 0
M  V30 10 C 1.549668 1.217202 0.128628 0
M  V30 11 C 2.035859 2.477769 -0.071953 0
M  V30 12 N 1.499826 3.830191 0.182400 0
M  V30 13 C 2.222880 5.030256 -0.132082 0
M  V30 14 C 2.362723 5.803162 1.166294 0
M  V30 15 O 1.787991 5.124724 2.251832 0
M  V30 16 C 0.428564 4.873968 2.015111 0
M  V30 17 C 0.213309 4.030512 0.767310 0
M  V30 18 S 3.636193 2.266081 -0.780516 0
M  V30 19 N 3.608788 0.597031 -0.786759 0
M  V30 20 C 2.391205 0.253976 -0.253197 0
M  V30 21 C 1.977709 -1.058483 -0.085475 0
M  V30 22 C -1.088437 -3.004345 0.558647 0
M  V30 23 C -1.570514 -4.261975 0.736250 0
M  V30 24 O -2.936954 -4.494883 0.640340 0
M  V30 25 C -3.805079 -3.388752 0.353902 0
M  V30 26 H 0.388876 -7.840332 0.643294 0
M  V30 27 H 0.298255 -7.370157 2.361535 0
M  V30 28 H -0.863300 -8.602115 1.634886 0
M  V30 29 H 1.342160 -5.924993 1.328875 0
M  V30 30 H 2.146403 -3.664575 1.003008 0
M  V30 31 H -1.075914 -0.482059 1.267432 0
M  V30 32 H 1.541974 5.658279 -0.779011 0
M  V30 33 H 3.166473 4.880836 -0.668895 0
M  V30 34 H 1.875794 6.800630 1.135135 0
M  V30 35 H 3.431193 5.921427 1.354655 0
M  V30 36 H 0.032344 4.336215 2.888671 0
M  V30 37 H -0.066076 5.849535 1.977003 0
M  V30 38 H -0.364493 4.695421 0.060132 0
M  V30 39 H -0.386187 3.144168 0.958345 0
M  V30 40 H 2.578531 -1.910849 -0.359737 0
M  V30 41 H -1.753625 -2.168103 0.341366 0
M  V30 42 H -3.417028 -2.911995 -0.574818 0
M  V30 43 H -4.827186 -3.712586 0.168259 0
M  V30 44 H -3.731750 -2.596231 1.148270 0
M  V30 END ATOM
M  V30 BEGIN BOND
M  V30 1 1 1 2
M  V30 2 1 2 3
M  V30 3 2 3 4
M  V30 4 1 4 5
M  V30 5 2 5 6
M  V30 6 1 6 7
M  V30 7 1 7 8
M  V30 8 2 8 9
M  V30 9 1 9 10
M  V30 10 2 10 11
M  V30 11 1 11 12
M  V30 12 1 12 13
M  V30 13 1 13 14
M  V30 14 1 14 15
M  V30 15 1 15 16
M  V30 16 1 16 17
M  V30 17 1 11 18
M  V30 18 1 18 19
M  V30 19 2 19 20
M  V30 20 1 20 21
M  V30 21 1 6 22
M  V30 22 2 22 23
M  V30 23 1 23 24
M  V30 24 1 24 25
M  V30 25 1 23 3
M  V30 26 2 21 7
M  V30 27 1 20 10
M  V30 28 1 17 12
M  V30 29 1 1 26
M  V30 30 1 1 27
M  V30 31 1 1 28
M  V30 32 1 4 29
M  V30 33 1 5 30
M  V30 34 1 8 31
M  V30 35 1 13 32
M  V30 36 1 13 33
M  V30 37 1 14 34
M  V30 38 1 14 35
M  V30 39 1 16 36
M  V30 40 1 16 37
M  V30 41 1 17 38
M  V30 42 1 17 39
M  V30 43 1 21 40
M  V30 44 1 22 41
M  V30 45 1 25 42
M  V30 46 1 25 43
M  V30 47 1 25 44
M  V30 END BOND
M  V30 END CTAB
M  END
>  <Dataset>  (490) 
ChEMBL_Kinases

>  <Ligand_Instance>  (490) 
nan

>  <PDB_ID>  (490) 
nan

>  <Standardized_SMILES>  (490) 
COc1ccc(-c2cnc3c(N4CCOCC4)snc3c2)cc1OC

>  <Name>  (490) 
nan

>  <Pocket>  (490) 
nan

>  <ATP_Site>  (490) 
nan

>  <Peripheral>  (490) 
nan

>  <Num_H_Atoms_ProtBoundConf>  (490) 
nan

>  <Num_Resolved_Atoms>  (490) 
nan

>  <Num_Not_Resolved_Atoms>  (490) 
nan

$$$$
CHEMBL3425847
     RDKit          3D

  0  0  0  0  0  0  0  0  0  0999 V3000
M  V30 BEGIN CTAB
M  V30 COUNTS 33 36 0 0 0
M  V30 BEGIN ATOM
M  V30 1 C -2.464252 -4.049395 4.968130 0
M  V30 2 C -1.600229 -3.193533 4.322812 0
M  V30 3 C -1.741134 -3.036658 2.968146 0
M  V30 4 C -0.859815 -2.150143 2.215911 0
M  V30 5 C -1.324510 -1.497145 1.095985 0
M  V30 6 N -0.472135 -0.692759 0.438052 0
M  V30 7 C 0.802879 -0.479284 0.794391 0
M  V30 8 C 1.654171 0.314353 0.148857 0
M  V30 9 N 1.518912 1.125284 -1.015935 0
M  V30 10 C 1.786192 0.562900 -2.304190 0
M  V30 11 C 0.848865 1.036282 -3.377648 0
M  V30 12 O 0.427177 2.336216 -3.256032 0
M  V30 13 C -0.094782 2.572119 -1.975623 0
M  V30 14 C 1.123218 2.526500 -1.057089 0
M  V30 15 S 3.167141 0.255630 0.993056 0
M  V30 16 N 2.593848 -0.922939 2.300777 0
M  V30 17 C 1.313966 -1.104029 1.899512 0
M  V30 18 C 0.456328 -1.952015 2.613944 0
M  V30 19 C -2.744764 -3.748011 2.325118 0
M  V30 20 S -3.576185 -4.728147 3.716691 0
M  V30 21 H -2.564532 -4.341946 5.993793 0
M  V30 22 H -0.870544 -2.709562 4.953062 0
M  V30 23 H -2.360065 -1.653869 0.783771 0
M  V30 24 H 2.818920 0.741161 -2.626057 0
M  V30 25 H 1.663386 -0.553578 -2.265702 0
M  V30 26 H -0.077796 0.395718 -3.431389 0
M  V30 27 H 1.322449 0.945860 -4.385520 0
M  V30 28 H -0.578878 3.546155 -1.891450 0
M  V30 29 H -0.751627 1.719056 -1.639685 0
M  V30 30 H 0.857762 2.927006 -0.079275 0
M  V30 31 H 1.922517 3.071455 -1.579464 0
M  V30 32 H 0.732731 -2.503438 3.500753 0
M  V30 33 H -2.988237 -3.741315 1.287402 0
M  V30 END ATOM
M  V30 BEGIN BOND
M  V30 1 2 1 2
M  V30 2 1 2 3
M  V30 3 1 3 4
M  V30 4 1 4 5
M  V30 5 2 5 6
M  V30 6 1 6 7
M  V30 7 2 7 8
M  V30 8 1 8 9
M  V30 9 1 9 10
M  V30 10 1 10 11
M  V30 11 1 11 12
M  V30 12 1 12 13
M  V30 13 1 13 14
M  V30 14 1 8 15
M  V30 15 1 15 16
M  V30 16 2 16 17
M  V30 17 1 17 18
M  V30 18 2 3 19
M  V30 19 1 19 20
M  V30 20 1 20 1
M  V30 21 2 18 4
M  V30 22 1 17 7
M  V30 23 1 14 9
M  V30 24 1 1 21
M  V30 25 1 2 22
M  V30 26 1 5 23
M  V30 27 1 10 24
M  V30 28 1 10 25
M  V30 29 1 11 26
M  V30 30 1 11 27
M  V30 31 1 13 28
M  V30 32 1 13 29
M  V30 33 1 14 30
M  V30 34 1 14 31
M  V30 35 1 18 32
M  V30 36 1 19 33
M  V30 END BOND
M  V30 END CTAB
M  END
>  <Dataset>  (491) 
ChEMBL_Kinases

>  <Ligand_Instance>  (491) 
nan

>  <PDB_ID>  (491) 
nan

>  <Standardized_SMILES>  (491) 
c1cc(-c2cnc3c(N4CCOCC4)snc3c2)cs1

>  <Name>  (491) 
nan

>  <Pocket>  (491) 
nan

>  <ATP_Site>  (491) 
nan

>  <Peripheral>  (491) 
nan

>  <Num_H_Atoms_ProtBoundConf>  (491) 
nan

>  <Num_Resolved_Atoms>  (491) 
nan

>  <Num_Not_Resolved_Atoms>  (491) 
nan

$$$$
CHEMBL3425859
     RDKit          3D

  0  0  0  0  0  0  0  0  0  0999 V3000
M  V30 BEGIN CTAB
M  V30 COUNTS 33 36 0 0 0
M  V30 BEGIN ATOM
M  V30 1 C -1.913012 -4.048380 4.765613 0
M  V30 2 C -0.907846 -4.176666 5.758373 0
M  V30 3 S 0.447982 -3.136958 5.046015 0
M  V30 4 C -0.421645 -2.692775 3.622458 0
M  V30 5 C 0.104315 -1.816501 2.547398 0
M  V30 6 C -0.695426 -1.550715 1.469899 0
M  V30 7 N -0.165099 -0.750875 0.530043 0
M  V30 8 C 1.058881 -0.209573 0.572716 0
M  V30 9 C 1.589753 0.582021 -0.348547 0
M  V30 10 N 1.012753 1.055669 -1.608614 0
M  V30 11 C 1.059684 0.547012 -2.956208 0
M  V30 12 C -0.325714 0.502496 -3.568133 0
M  V30 13 O -1.236401 0.585864 -2.527901 0
M  V30 14 C -1.223278 1.932595 -2.103909 0
M  V30 15 C 0.201344 2.256164 -1.699207 0
M  V30 16 S 3.184360 1.026359 0.152681 0
M  V30 17 N 3.117399 0.052432 1.747187 0
M  V30 18 C 1.882978 -0.459345 1.642413 0
M  V30 19 C 1.384498 -1.290578 2.659841 0
M  V30 20 C -1.617915 -3.270566 3.677275 0
M  V30 21 H -2.868972 -4.580820 4.930308 0
M  V30 22 H -1.022119 -4.779696 6.690587 0
M  V30 23 H -1.702556 -1.955043 1.365463 0
M  V30 24 H 1.700332 1.195974 -3.607624 0
M  V30 25 H 1.487355 -0.459769 -3.025256 0
M  V30 26 H -0.481823 1.342138 -4.281082 0
M  V30 27 H -0.483235 -0.446521 -4.108178 0
M  V30 28 H -1.937784 1.979234 -1.274030 0
M  V30 29 H -1.584367 2.526632 -2.959732 0
M  V30 30 H 0.144985 2.763915 -0.703147 0
M  V30 31 H 0.594268 3.006190 -2.410055 0
M  V30 32 H 1.910971 -1.570584 3.547328 0
M  V30 33 H -2.353688 -3.141401 2.891133 0
M  V30 END ATOM
M  V30 BEGIN BOND
M  V30 1 2 1 2
M  V30 2 1 2 3
M  V30 3 1 3 4
M  V30 4 1 4 5
M  V30 5 1 5 6
M  V30 6 2 6 7
M  V30 7 1 7 8
M  V30 8 2 8 9
M  V30 9 1 9 10
M  V30 10 1 10 11
M  V30 11 1 11 12
M  V30 12 1 12 13
M  V30 13 1 13 14
M  V30 14 1 14 15
M  V30 15 1 9 16
M  V30 16 1 16 17
M  V30 17 2 17 18
M  V30 18 1 18 19
M  V30 19 2 4 20
M  V30 20 1 20 1
M  V30 21 2 19 5
M  V30 22 1 18 8
M  V30 23 1 15 10
M  V30 24 1 1 21
M  V30 25 1 2 22
M  V30 26 1 6 23
M  V30 27 1 11 24
M  V30 28 1 11 25
M  V30 29 1 12 26
M  V30 30 1 12 27
M  V30 31 1 14 28
M  V30 32 1 14 29
M  V30 33 1 15 30
M  V30 34 1 15 31
M  V30 35 1 19 32
M  V30 36 1 20 33
M  V30 END BOND
M  V30 END CTAB
M  END
>  <Dataset>  (492) 
ChEMBL_Kinases

>  <Ligand_Instance>  (492) 
nan

>  <PDB_ID>  (492) 
nan

>  <Standardized_SMILES>  (492) 
c1csc(-c2cnc3c(N4CCOCC4)snc3c2)c1

>  <Name>  (492) 
nan

>  <Pocket>  (492) 
nan

>  <ATP_Site>  (492) 
nan

>  <Peripheral>  (492) 
nan

>  <Num_H_Atoms_ProtBoundConf>  (492) 
nan

>  <Num_Resolved_Atoms>  (492) 
nan

>  <Num_Not_Resolved_Atoms>  (492) 
nan

$$$$
CHEMBL3425860
     RDKit          3D

  0  0  0  0  0  0  0  0  0  0999 V3000
M  V30 BEGIN CTAB
M  V30 COUNTS 33 36 0 0 0
M  V30 BEGIN ATOM
M  V30 1 C -2.982188 -4.311489 4.376168 0
M  V30 2 C -2.605229 -3.009778 4.073923 0
M  V30 3 C -1.683982 -3.179711 3.064864 0
M  V30 4 C -0.985396 -2.085748 2.398294 0
M  V30 5 C -0.655822 -2.305314 1.076339 0
M  V30 6 N -0.011057 -1.307574 0.445152 0
M  V30 7 C 0.327844 -0.135634 1.000383 0
M  V30 8 C 0.967518 0.869907 0.395777 0
M  V30 9 N 1.452814 0.989600 -0.946298 0
M  V30 10 C 1.378689 0.052421 -2.011811 0
M  V30 11 C 0.931488 0.644369 -3.324418 0
M  V30 12 O 1.465826 1.869829 -3.624962 0
M  V30 13 C 1.288757 2.740744 -2.573007 0
M  V30 14 C 2.134382 2.172150 -1.427338 0
M  V30 15 S 1.162741 2.149828 1.544428 0
M  V30 16 N 0.325386 1.267135 2.929871 0
M  V30 17 C 0.017170 0.120925 2.314606 0
M  V30 18 C -0.650735 -0.888567 3.001224 0
M  V30 19 C -1.550201 -4.529319 2.811372 0
M  V30 20 O -2.354993 -5.211506 3.625842 0
M  V30 21 H -3.689777 -4.674335 5.111376 0
M  V30 22 H -2.989102 -2.132019 4.559608 0
M  V30 23 H -0.886832 -3.229863 0.525781 0
M  V30 24 H 2.406645 -0.348151 -2.170786 0
M  V30 25 H 0.632856 -0.724047 -1.764026 0
M  V30 26 H -0.180338 0.714049 -3.419368 0
M  V30 27 H 1.244733 -0.043353 -4.161933 0
M  V30 28 H 1.660791 3.755731 -2.797338 0
M  V30 29 H 0.253825 2.754415 -2.184399 0
M  V30 30 H 2.268734 2.940758 -0.658625 0
M  V30 31 H 3.123546 1.952948 -1.859377 0
M  V30 32 H -0.971218 -0.865354 4.026144 0
M  V30 33 H -0.905896 -4.995120 2.077643 0
M  V30 END ATOM
M  V30 BEGIN BOND
M  V30 1 2 1 2
M  V30 2 1 2 3
M  V30 3 1 3 4
M  V30 4 1 4 5
M  V30 5 2 5 6
M  V30 6 1 6 7
M  V30 7 2 7 8
M  V30 8 1 8 9
M  V30 9 1 9 10
M  V30 10 1 10 11
M  V30 11 1 11 12
M  V30 12 1 12 13
M  V30 13 1 13 14
M  V30 14 1 8 15
M  V30 15 1 15 16
M  V30 16 2 16 17
M  V30 17 1 17 18
M  V30 18 2 3 19
M  V30 19 1 19 20
M  V30 20 1 20 1
M  V30 21 2 18 4
M  V30 22 1 17 7
M  V30 23 1 14 9
M  V30 24 1 1 21
M  V30 25 1 2 22
M  V30 26 1 5 23
M  V30 27 1 10 24
M  V30 28 1 10 25
M  V30 29 1 11 26
M  V30 30 1 11 27
M  V30 31 1 13 28
M  V30 32 1 13 29
M  V30 33 1 14 30
M  V30 34 1 14 31
M  V30 35 1 18 32
M  V30 36 1 19 33
M  V30 END BOND
M  V30 END CTAB
M  END
>  <Dataset>  (493) 
ChEMBL_Kinases

>  <Ligand_Instance>  (493) 
nan

>  <PDB_ID>  (493) 
nan

>  <Standardized_SMILES>  (493) 
c1cc(-c2cnc3c(N4CCOCC4)snc3c2)co1

>  <Name>  (493) 
nan

>  <Pocket>  (493) 
nan

>  <ATP_Site>  (493) 
nan

>  <Peripheral>  (493) 
nan

>  <Num_H_Atoms_ProtBoundConf>  (493) 
nan

>  <Num_Resolved_Atoms>  (493) 
nan

>  <Num_Not_Resolved_Atoms>  (493) 
nan

$$$$
CHEMBL3425862
     RDKit          3D

  0  0  0  0  0  0  0  0  0  0999 V3000
M  V30 BEGIN CTAB
M  V30 COUNTS 44 47 0 0 0
M  V30 BEGIN ATOM
M  V30 1 C -1.751461 -5.532618 -0.850539 0
M  V30 2 O -2.174340 -4.702849 -1.905100 0
M  V30 3 C -1.972787 -3.339382 -1.984403 0
M  V30 4 C -2.471642 -2.711723 -3.112048 0
M  V30 5 C -2.330333 -1.352194 -3.301176 0
M  V30 6 C -1.671006 -0.583986 -2.339347 0
M  V30 7 O -1.508055 0.778481 -2.489532 0
M  V30 8 C -2.002630 1.474649 -3.631930 0
M  V30 9 C -1.166825 -1.192769 -1.208134 0
M  V30 10 C -0.467845 -0.409817 -0.178439 0
M  V30 11 C 0.701651 -0.976650 0.285163 0
M  V30 12 N 1.363359 -0.285189 1.226438 0
M  V30 13 C 0.945020 0.887785 1.711417 0
M  V30 14 C 1.593025 1.642719 2.685489 0
M  V30 15 N 2.827996 1.381164 3.400797 0
M  V30 16 C 3.340596 2.306899 4.394708 0
M  V30 17 C 3.490315 1.495870 5.674955 0
M  V30 18 O 4.209629 0.333568 5.488059 0
M  V30 19 C 3.645731 -0.516117 4.548392 0
M  V30 20 C 3.670633 0.217490 3.225020 0
M  V30 21 S 0.673430 3.070900 2.980110 0
M  V30 22 N -0.667464 2.663363 1.739125 0
M  V30 23 C -0.207692 1.495436 1.287318 0
M  V30 24 C -0.904028 0.800680 0.318848 0
M  V30 25 C -1.327092 -2.553959 -1.053404 0
M  V30 26 H -2.651874 -6.167382 -0.601372 0
M  V30 27 H -0.915169 -6.208818 -1.144201 0
M  V30 28 H -1.535081 -4.987521 0.090269 0
M  V30 29 H -3.003796 -3.216595 -3.926449 0
M  V30 30 H -2.695206 -0.815924 -4.151504 0
M  V30 31 H -1.627814 1.011203 -4.584925 0
M  V30 32 H -3.113000 1.442297 -3.697851 0
M  V30 33 H -1.671030 2.526109 -3.542118 0
M  V30 34 H 1.074767 -1.923732 -0.080905 0
M  V30 35 H 2.622395 3.122691 4.606737 0
M  V30 36 H 4.323652 2.703483 4.028962 0
M  V30 37 H 4.004590 2.087289 6.436931 0
M  V30 38 H 2.446783 1.328269 6.038246 0
M  V30 39 H 2.591821 -0.762341 4.800409 0
M  V30 40 H 4.310487 -1.425022 4.528798 0
M  V30 41 H 4.728669 0.594055 3.116486 0
M  V30 42 H 3.433250 -0.410432 2.373553 0
M  V30 43 H -1.821194 1.093618 -0.146419 0
M  V30 44 H -0.942550 -3.053816 -0.178849 0
M  V30 END ATOM
M  V30 BEGIN BOND
M  V30 1 1 1 2
M  V30 2 1 2 3
M  V30 3 2 3 4
M  V30 4 1 4 5
M  V30 5 2 5 6
M  V30 6 1 6 7
M  V30 7 1 7 8
M  V30 8 1 6 9
M  V30 9 1 9 10
M  V30 10 1 10 11
M  V30 11 2 11 12
M  V30 12 1 12 13
M  V30 13 2 13 14
M  V30 14 1 14 15
M  V30 15 1 15 16
M  V30 16 1 16 17
M  V30 17 1 17 18
M  V30 18 1 18 19
M  V30 19 1 19 20
M  V30 20 1 14 21
M  V30 21 1 21 22
M  V30 22 2 22 23
M  V30 23 1 23 24
M  V30 24 2 9 25
M  V30 25 1 25 3
M  V30 26 2 24 10
M  V30 27 1 23 13
M  V30 28 1 20 15
M  V30 29 1 1 26
M  V30 30 1 1 27
M  V30 31 1 1 28
M  V30 32 1 4 29
M  V30 33 1 5 30
M  V30 34 1 8 31
M  V30 35 1 8 32
M  V30 36 1 8 33
M  V30 37 1 11 34
M  V30 38 1 16 35
M  V30 39 1 16 36
M  V30 40 1 17 37
M  V30 41 1 17 38
M  V30 42 1 19 39
M  V30 43 1 19 40
M  V30 44 1 20 41
M  V30 45 1 20 42
M  V30 46 1 24 43
M  V30 47 1 25 44
M  V30 END BOND
M  V30 END CTAB
M  END
>  <Dataset>  (494) 
ChEMBL_Kinases

>  <Ligand_Instance>  (494) 
nan

>  <PDB_ID>  (494) 
nan

>  <Standardized_SMILES>  (494) 
COc1ccc(OC)c(-c2cnc3c(N4CCOCC4)snc3c2)c1

>  <Name>  (494) 
nan

>  <Pocket>  (494) 
nan

>  <ATP_Site>  (494) 
nan

>  <Peripheral>  (494) 
nan

>  <Num_H_Atoms_ProtBoundConf>  (494) 
nan

>  <Num_Resolved_Atoms>  (494) 
nan

>  <Num_Not_Resolved_Atoms>  (494) 
nan

$$$$
CHEMBL3425863
     RDKit          3D

  0  0  0  0  0  0  0  0  0  0999 V3000
M  V30 BEGIN CTAB
M  V30 COUNTS 44 47 0 0 0
M  V30 BEGIN ATOM
M  V30 1 C -5.805374 -3.554486 -0.380868 0
M  V30 2 O -4.896956 -2.763378 0.326476 0
M  V30 3 C -3.672172 -2.362877 -0.238070 0
M  V30 4 C -3.385635 -2.775307 -1.523995 0
M  V30 5 C -2.193520 -2.402380 -2.111433 0
M  V30 6 O -1.933745 -2.831113 -3.401807 0
M  V30 7 C -0.791544 -2.554813 -4.150649 0
M  V30 8 C -1.292804 -1.615713 -1.404378 0
M  V30 9 C -1.641899 -1.237520 -0.121277 0
M  V30 10 C -0.673351 -0.402281 0.617601 0
M  V30 11 C 0.663751 -0.609958 0.339674 0
M  V30 12 N 1.549218 0.150280 1.010950 0
M  V30 13 C 1.227800 1.084152 1.919840 0
M  V30 14 C 2.062466 1.871989 2.620283 0
M  V30 15 N 3.537306 1.897097 2.557245 0
M  V30 16 C 4.292849 2.816968 3.388705 0
M  V30 17 C 5.154834 1.925595 4.292398 0
M  V30 18 O 5.000637 0.585873 4.034893 0
M  V30 19 C 5.211340 0.226007 2.723285 0
M  V30 20 C 4.413082 1.085475 1.734741 0
M  V30 21 S 1.199102 2.886701 3.638048 0
M  V30 22 N -0.480266 2.234755 3.117713 0
M  V30 23 C -0.097315 1.311732 2.215955 0
M  V30 24 C -1.040498 0.550865 1.547654 0
M  V30 25 C -2.818156 -1.579209 0.518475 0
M  V30 26 H -6.787771 -3.520238 0.129728 0
M  V30 27 H -5.977032 -3.120016 -1.387137 0
M  V30 28 H -5.459527 -4.596685 -0.509843 0
M  V30 29 H -4.084880 -3.398199 -2.100943 0
M  V30 30 H -0.566067 -3.434468 -4.799260 0
M  V30 31 H -0.899336 -1.677431 -4.818302 0
M  V30 32 H 0.123606 -2.368381 -3.542072 0
M  V30 33 H -0.355095 -1.313876 -1.848688 0
M  V30 34 H 1.048661 -1.331901 -0.370797 0
M  V30 35 H 3.642023 3.482443 3.974618 0
M  V30 36 H 5.005411 3.372272 2.745458 0
M  V30 37 H 4.804795 2.102896 5.330029 0
M  V30 38 H 6.219121 2.200812 4.257660 0
M  V30 39 H 6.296629 0.275609 2.491916 0
M  V30 40 H 4.919253 -0.838626 2.615407 0
M  V30 41 H 3.896672 0.429563 1.026538 0
M  V30 42 H 5.116874 1.772809 1.225586 0
M  V30 43 H -2.103402 0.605381 1.663089 0
M  V30 44 H -3.031200 -1.251234 1.523138 0
M  V30 END ATOM
M  V30 BEGIN BOND
M  V30 1 1 1 2
M  V30 2 1 2 3
M  V30 3 2 3 4
M  V30 4 1 4 5
M  V30 5 1 5 6
M  V30 6 1 6 7
M  V30 7 2 5 8
M  V30 8 1 8 9
M  V30 9 1 9 10
M  V30 10 1 10 11
M  V30 11 2 11 12
M  V30 12 1 12 13
M  V30 13 2 13 14
M  V30 14 1 14 15
M  V30 15 1 15 16
M  V30 16 1 16 17
M  V30 17 1 17 18
M  V30 18 1 18 19
M  V30 19 1 19 20
M  V30 20 1 14 21
M  V30 21 1 21 22
M  V30 22 2 22 23
M  V30 23 1 23 24
M  V30 24 2 9 25
M  V30 25 1 25 3
M  V30 26 2 24 10
M  V30 27 1 23 13
M  V30 28 1 20 15
M  V30 29 1 1 26
M  V30 30 1 1 27
M  V30 31 1 1 28
M  V30 32 1 4 29
M  V30 33 1 7 30
M  V30 34 1 7 31
M  V30 35 1 7 32
M  V30 36 1 8 33
M  V30 37 1 11 34
M  V30 38 1 16 35
M  V30 39 1 16 36
M  V30 40 1 17 37
M  V30 41 1 17 38
M  V30 42 1 19 39
M  V30 43 1 19 40
M  V30 44 1 20 41
M  V30 45 1 20 42
M  V30 46 1 24 43
M  V30 47 1 25 44
M  V30 END BOND
M  V30 END CTAB
M  END
>  <Dataset>  (495) 
ChEMBL_Kinases

>  <Ligand_Instance>  (495) 
nan

>  <PDB_ID>  (495) 
nan

>  <Standardized_SMILES>  (495) 
COc1cc(OC)cc(-c2cnc3c(N4CCOCC4)snc3c2)c1

>  <Name>  (495) 
nan

>  <Pocket>  (495) 
nan

>  <ATP_Site>  (495) 
nan

>  <Peripheral>  (495) 
nan

>  <Num_H_Atoms_ProtBoundConf>  (495) 
nan

>  <Num_Resolved_Atoms>  (495) 
nan

>  <Num_Not_Resolved_Atoms>  (495) 
nan

$$$$
CHEMBL3425841
     RDKit          3D

  0  0  0  0  0  0  0  0  0  0999 V3000
M  V30 BEGIN CTAB
M  V30 COUNTS 40 42 0 0 0
M  V30 BEGIN ATOM
M  V30 1 C 0.380602 -6.277488 4.043038 0
M  V30 2 O -0.209020 -4.990807 4.054218 0
M  V30 3 C 0.077190 -4.077324 3.016536 0
M  V30 4 C 0.911999 -4.382046 1.964053 0
M  V30 5 C 1.123122 -3.408541 1.008476 0
M  V30 6 C 0.554783 -2.151455 1.035684 0
M  V30 7 C 0.754345 -1.106369 0.041523 0
M  V30 8 C 0.700783 0.164279 0.579364 0
M  V30 9 N 0.866907 1.227763 -0.244529 0
M  V30 10 C 1.079527 1.086481 -1.561696 0
M  V30 11 C 1.251452 2.124498 -2.458458 0
M  V30 12 N 1.256735 3.536019 -2.110778 0
M  V30 13 C -0.116196 3.959347 -1.898866 0
M  V30 14 C -0.186596 5.401374 -1.449264 0
M  V30 15 O 0.494320 5.610408 -0.256961 0
M  V30 16 S 1.482871 1.480742 -4.007215 0
M  V30 17 N 1.352091 -0.311689 -3.480218 0
M  V30 18 C 1.137346 -0.164067 -2.124714 0
M  V30 19 C 0.971983 -1.278514 -1.306904 0
M  V30 20 C -0.269406 -1.959727 2.145184 0
M  V30 21 C -0.533156 -2.863641 3.133383 0
M  V30 22 O -1.366160 -2.536992 4.165802 0
M  V30 23 C -1.967985 -1.253912 4.234575 0
M  V30 24 H 1.451733 -6.215335 4.321558 0
M  V30 25 H -0.185973 -6.965906 4.709218 0
M  V30 26 H 0.351613 -6.715946 3.025061 0
M  V30 27 H 1.374499 -5.357383 1.908438 0
M  V30 28 H 1.779557 -3.621315 0.167147 0
M  V30 29 H 0.531801 0.445544 1.633394 0
M  V30 30 H 2.160101 4.077698 -2.048969 0
M  V30 31 H -0.769201 3.841278 -2.774483 0
M  V30 32 H -0.548571 3.296316 -1.095263 0
M  V30 33 H -1.213392 5.731432 -1.305955 0
M  V30 34 H 0.229437 6.003862 -2.294645 0
M  V30 35 H 1.461033 5.695776 -0.462746 0
M  V30 36 H 1.001987 -2.285949 -1.641143 0
M  V30 37 H -0.754425 -0.982123 2.227935 0
M  V30 38 H -2.715840 -1.203602 5.066397 0
M  V30 39 H -1.222012 -0.449245 4.454145 0
M  V30 40 H -2.476406 -0.971888 3.293502 0
M  V30 END ATOM
M  V30 BEGIN BOND
M  V30 1 1 1 2
M  V30 2 1 2 3
M  V30 3 2 3 4
M  V30 4 1 4 5
M  V30 5 2 5 6
M  V30 6 1 6 7
M  V30 7 1 7 8
M  V30 8 2 8 9
M  V30 9 1 9 10
M  V30 10 2 10 11
M  V30 11 1 11 12
M  V30 12 1 12 13
M  V30 13 1 13 14
M  V30 14 1 14 15
M  V30 15 1 11 16
M  V30 16 1 16 17
M  V30 17 2 17 18
M  V30 18 1 18 19
M  V30 19 1 6 20
M  V30 20 2 20 21
M  V30 21 1 21 22
M  V30 22 1 22 23
M  V30 23 1 21 3
M  V30 24 2 19 7
M  V30 25 1 18 10
M  V30 26 1 1 24
M  V30 27 1 1 25
M  V30 28 1 1 26
M  V30 29 1 4 27
M  V30 30 1 5 28
M  V30 31 1 8 29
M  V30 32 1 12 30
M  V30 33 1 13 31
M  V30 34 1 13 32
M  V30 35 1 14 33
M  V30 36 1 14 34
M  V30 37 1 15 35
M  V30 38 1 19 36
M  V30 39 1 20 37
M  V30 40 1 23 38
M  V30 41 1 23 39
M  V30 42 1 23 40
M  V30 END BOND
M  V30 END CTAB
M  END
>  <Dataset>  (496) 
ChEMBL_Kinases

>  <Ligand_Instance>  (496) 
nan

>  <PDB_ID>  (496) 
nan

>  <Standardized_SMILES>  (496) 
COc1ccc(-c2cnc3c(NCCO)snc3c2)cc1OC

>  <Name>  (496) 
nan

>  <Pocket>  (496) 
nan

>  <ATP_Site>  (496) 
nan

>  <Peripheral>  (496) 
nan

>  <Num_H_Atoms_ProtBoundConf>  (496) 
nan

>  <Num_Resolved_Atoms>  (496) 
nan

>  <Num_Not_Resolved_Atoms>  (496) 
nan

$$$$
CHEMBL3398593
     RDKit          3D

  0  0  0  0  0  0  0  0  0  0999 V3000
M  V30 BEGIN CTAB
M  V30 COUNTS 68 72 0 0 0
M  V30 BEGIN ATOM
M  V30 1 O 2.249474 0.637502 3.763027 0
M  V30 2 C 1.689464 1.786534 3.715651 0
M  V30 3 N 2.780557 2.635055 3.291395 0
M  V30 4 C 4.109565 2.160430 3.028895 0
M  V30 5 C 5.075290 2.105343 4.015316 0
M  V30 6 C 6.365920 1.658198 3.814016 0
M  V30 7 C 6.644858 1.251779 2.511624 0
M  V30 8 O 7.944135 0.784953 2.242909 0
M  V30 9 C 5.754341 1.263117 1.441227 0
M  V30 10 Cl 6.209198 0.731479 -0.149478 0
M  V30 11 C 4.509944 1.731071 1.783810 0
M  V30 12 C 0.520031 2.674241 3.869651 0 CFG=2
M  V30 13 C -0.756536 1.986876 4.221902 0
M  V30 14 C -1.789877 2.541226 3.264105 0
M  V30 15 N -1.162735 3.542801 2.481175 0
M  V30 16 C -1.733083 3.898111 1.243672 0
M  V30 17 C -1.699035 2.912669 0.163312 0
M  V30 18 O -2.288593 3.515163 -0.810439 0
M  V30 19 N -1.226713 1.568886 -0.086413 0
M  V30 20 C -0.547718 0.491448 0.549111 0
M  V30 21 C -1.180917 -0.843949 0.492362 0
M  V30 22 N -1.945359 -1.177014 -0.658944 0
M  V30 23 C -2.071324 -2.464120 -1.244031 0
M  V30 24 C -2.948154 -2.750550 -2.290348 0
M  V30 25 C -3.041634 -4.011860 -2.835276 0
M  V30 26 C -2.279273 -5.065601 -2.384605 0
M  V30 27 C -2.420245 -6.379417 -3.002147 0
M  V30 28 C -1.308570 -7.195994 -3.049690 0
M  V30 29 C -1.390949 -8.441818 -3.623000 0
M  V30 30 C -2.590227 -8.916690 -4.169602 0
M  V30 31 C -3.706570 -8.075289 -4.112492 0
M  V30 32 F -4.851082 -8.572906 -4.653956 0
M  V30 33 C -3.619921 -6.805182 -3.527697 0
M  V30 34 C -1.410089 -4.793307 -1.350983 0
M  V30 35 C -1.318406 -3.528678 -0.806714 0
M  V30 36 C -2.602460 -0.000314 -1.184642 0
M  V30 37 C -1.498921 1.042466 -1.407373 0
M  V30 38 C 0.247743 3.386487 2.557045 0
M  V30 39 H 2.979177 3.657714 3.068892 0
M  V30 40 H 4.838215 2.427427 5.028177 0
M  V30 41 H 7.120162 1.611520 4.572766 0
M  V30 42 H 8.026934 -0.197161 2.032088 0
M  V30 43 H 3.750880 1.774214 1.009047 0
M  V30 44 H 0.772427 3.415734 4.674529 0
M  V30 45 H -0.695950 0.896653 4.238341 0
M  V30 46 H -1.085712 2.288619 5.260611 0
M  V30 47 H -2.634985 2.998270 3.809733 0
M  V30 48 H -2.238190 1.710783 2.656415 0
M  V30 49 H -1.263326 4.866105 0.931260 0
M  V30 50 H -2.808417 4.196182 1.443743 0
M  V30 51 H -0.322452 0.699292 1.629634 0
M  V30 52 H 0.485807 0.461244 0.085311 0
M  V30 53 H -1.826959 -1.068611 1.386550 0
M  V30 54 H -0.339777 -1.594915 0.590093 0
M  V30 55 H -3.585421 -2.006185 -2.713854 0
M  V30 56 H -3.740178 -4.209133 -3.656535 0
M  V30 57 H -0.323190 -6.959421 -2.667663 0
M  V30 58 H -0.537602 -9.128367 -3.685795 0
M  V30 59 H -2.649484 -9.884791 -4.613031 0
M  V30 60 H -4.507447 -6.190009 -3.503979 0
M  V30 61 H -0.820364 -5.654061 -1.016647 0
M  V30 62 H -0.604770 -3.480939 -0.023463 0
M  V30 63 H -3.177611 -0.166239 -2.097674 0
M  V30 64 H -3.251108 0.414203 -0.359291 0
M  V30 65 H -0.656398 0.571621 -1.907441 0
M  V30 66 H -1.875176 1.829609 -2.099832 0
M  V30 67 H 0.715404 2.854032 1.705819 0
M  V30 68 H 0.726157 4.402602 2.654590 0
M  V30 END ATOM
M  V30 BEGIN BOND
M  V30 1 2 1 2
M  V30 2 1 2 3
M  V30 3 1 3 4
M  V30 4 2 4 5
M  V30 5 1 5 6
M  V30 6 2 6 7
M  V30 7 1 7 8
M  V30 8 1 7 9
M  V30 9 1 9 10
M  V30 10 2 9 11
M  V30 11 1 2 12
M  V30 12 1 12 13
M  V30 13 1 13 14
M  V30 14 1 14 15
M  V30 15 1 15 16
M  V30 16 1 16 17
M  V30 17 2 17 18
M  V30 18 1 17 19
M  V30 19 1 19 20
M  V30 20 1 20 21
M  V30 21 1 21 22
M  V30 22 1 22 23
M  V30 23 2 23 24
M  V30 24 1 24 25
M  V30 25 2 25 26
M  V30 26 1 26 27
M  V30 27 2 27 28
M  V30 28 1 28 29
M  V30 29 2 29 30
M  V30 30 1 30 31
M  V30 31 1 31 32
M  V30 32 2 31 33
M  V30 33 1 26 34
M  V30 34 2 34 35
M  V30 35 1 22 36
M  V30 36 1 36 37
M  V30 37 1 15 38
M  V30 38 1 11 4
M  V30 39 1 38 12
M  V30 40 1 37 19
M  V30 41 1 35 23
M  V30 42 1 33 27
M  V30 43 1 3 39
M  V30 44 1 5 40
M  V30 45 1 6 41
M  V30 46 1 8 42
M  V30 47 1 11 43
M  V30 48 1 12 44 CFG=1
M  V30 49 1 13 45
M  V30 50 1 13 46
M  V30 51 1 14 47
M  V30 52 1 14 48
M  V30 53 1 16 49
M  V30 54 1 16 50
M  V30 55 1 20 51
M  V30 56 1 20 52
M  V30 57 1 21 53
M  V30 58 1 21 54
M  V30 59 1 24 55
M  V30 60 1 25 56
M  V30 61 1 28 57
M  V30 62 1 29 58
M  V30 63 1 30 59
M  V30 64 1 33 60
M  V30 65 1 34 61
M  V30 66 1 35 62
M  V30 67 1 36 63
M  V30 68 1 36 64
M  V30 69 1 37 65
M  V30 70 1 37 66
M  V30 71 1 38 67
M  V30 72 1 38 68
M  V30 END BOND
M  V30 END CTAB
M  END
>  <Dataset>  (497) 
ChEMBL_Kinases

>  <Ligand_Instance>  (497) 
nan

>  <PDB_ID>  (497) 
nan

>  <Standardized_SMILES>  (497) 
O=C(Nc1ccc(O)c(Cl)c1)[C@@H]1CCN(CC(=O)N2CCN(c3ccc(-c4cccc(F)c4)cc3)CC2)C1

>  <Name>  (497) 
nan

>  <Pocket>  (497) 
nan

>  <ATP_Site>  (497) 
nan

>  <Peripheral>  (497) 
nan

>  <Num_H_Atoms_ProtBoundConf>  (497) 
nan

>  <Num_Resolved_Atoms>  (497) 
nan

>  <Num_Not_Resolved_Atoms>  (497) 
nan

$$$$
CHEMBL3398205
     RDKit          3D

  0  0  0  0  0  0  0  0  0  0999 V3000
M  V30 BEGIN CTAB
M  V30 COUNTS 58 63 0 0 0
M  V30 BEGIN ATOM
M  V30 1 O 0.657439 -1.833580 3.083912 0
M  V30 2 C 1.543074 -0.959452 2.786001 0
M  V30 3 N 2.737210 -0.630282 3.528699 0
M  V30 4 C 3.380331 0.396775 2.785071 0
M  V30 5 O 4.459156 0.828569 3.269459 0
M  V30 6 C 2.590321 0.686345 1.612055 0
M  V30 7 C 2.989297 1.669212 0.618372 0
M  V30 8 N 3.010055 1.534044 -0.716556 0
M  V30 9 N 3.407315 2.643337 -1.296788 0
M  V30 10 C 3.670762 3.577410 -0.364945 0
M  V30 11 C 4.099939 4.889649 -0.369604 0
M  V30 12 C 4.280001 5.625462 0.779677 0
M  V30 13 C 4.007123 4.979585 1.974668 0
M  V30 14 C 3.582041 3.672547 1.939786 0
M  V30 15 N 3.403838 2.948156 0.799232 0
M  V30 16 C 1.513178 -0.090218 1.586693 0
M  V30 17 C 0.424487 -0.168678 0.626085 0
M  V30 18 C -0.068028 -1.394913 0.160656 0
M  V30 19 N -1.082264 -1.215285 -0.729758 0
M  V30 20 C -1.945941 -2.076151 -1.509117 0
M  V30 21 C -3.204224 -2.380273 -0.715840 0
M  V30 22 C -2.894354 -3.113049 0.566347 0
M  V30 23 N -2.272793 -4.378217 0.215947 0
M  V30 24 C -3.191759 -5.288800 -0.421350 0
M  V30 25 C -2.363849 -6.416893 -1.001413 0
M  V30 26 O -1.606127 -7.035135 -0.011284 0
M  V30 27 C -1.869003 -6.561287 1.272625 0
M  V30 28 C -1.702169 -5.055988 1.359127 0
M  V30 29 C -1.212542 0.126930 -0.809048 0
M  V30 30 C -2.061701 0.952669 -1.535202 0
M  V30 31 C -2.053996 2.328262 -1.488911 0
M  V30 32 C -1.139458 2.946418 -0.662328 0
M  V30 33 C -0.288950 2.163825 0.065377 0
M  V30 34 C -0.323187 0.792428 -0.006271 0
M  V30 35 H 2.924037 -1.154048 4.416751 0
M  V30 36 H 4.309159 5.376271 -1.301677 0
M  V30 37 H 4.615497 6.651914 0.803400 0
M  V30 38 H 4.142596 5.546771 2.882960 0
M  V30 39 H 3.394129 3.270250 2.920633 0
M  V30 40 H 0.197112 -2.422065 0.368172 0
M  V30 41 H -2.229218 -1.579673 -2.435991 0
M  V30 42 H -1.344273 -2.989902 -1.723598 0
M  V30 43 H -3.610414 -1.368674 -0.418616 0
M  V30 44 H -4.000850 -2.836049 -1.322825 0
M  V30 45 H -2.084788 -2.526889 1.081125 0
M  V30 46 H -3.769901 -3.191348 1.205887 0
M  V30 47 H -3.784972 -4.828873 -1.218217 0
M  V30 48 H -3.889232 -5.764068 0.314292 0
M  V30 49 H -1.660663 -5.962900 -1.728593 0
M  V30 50 H -2.988212 -7.152992 -1.554012 0
M  V30 51 H -1.106376 -7.008965 1.942797 0
M  V30 52 H -2.857809 -6.881133 1.668313 0
M  V30 53 H -2.129427 -4.736730 2.330730 0
M  V30 54 H -0.613462 -4.854743 1.419933 0
M  V30 55 H -2.806872 0.540511 -2.203943 0
M  V30 56 H -2.720245 2.950153 -2.055118 0
M  V30 57 H -1.116718 4.041384 -0.609668 0
M  V30 58 H 0.400290 2.680525 0.713154 0
M  V30 END ATOM
M  V30 BEGIN BOND
M  V30 1 2 1 2
M  V30 2 1 2 3
M  V30 3 1 3 4
M  V30 4 2 4 5
M  V30 5 1 4 6
M  V30 6 1 6 7
M  V30 7 2 7 8
M  V30 8 1 8 9
M  V30 9 2 9 10
M  V30 10 1 10 11
M  V30 11 2 11 12
M  V30 12 1 12 13
M  V30 13 2 13 14
M  V30 14 1 14 15
M  V30 15 2 6 16
M  V30 16 1 16 17
M  V30 17 2 17 18
M  V30 18 1 18 19
M  V30 19 1 19 20
M  V30 20 1 20 21
M  V30 21 1 21 22
M  V30 22 1 22 23
M  V30 23 1 23 24
M  V30 24 1 24 25
M  V30 25 1 25 26
M  V30 26 1 26 27
M  V30 27 1 27 28
M  V30 28 1 19 29
M  V30 29 2 29 30
M  V30 30 1 30 31
M  V30 31 2 31 32
M  V30 32 1 32 33
M  V30 33 2 33 34
M  V30 34 1 16 2
M  V30 35 1 34 17
M  V30 36 1 15 7
M  V30 37 1 28 23
M  V30 38 1 34 29
M  V30 39 1 15 10
M  V30 40 1 3 35
M  V30 41 1 11 36
M  V30 42 1 12 37
M  V30 43 1 13 38
M  V30 44 1 14 39
M  V30 45 1 18 40
M  V30 46 1 20 41
M  V30 47 1 20 42
M  V30 48 1 21 43
M  V30 49 1 21 44
M  V30 50 1 22 45
M  V30 51 1 22 46
M  V30 52 1 24 47
M  V30 53 1 24 48
M  V30 54 1 25 49
M  V30 55 1 25 50
M  V30 56 1 27 51
M  V30 57 1 27 52
M  V30 58 1 28 53
M  V30 59 1 28 54
M  V30 60 1 30 55
M  V30 61 1 31 56
M  V30 62 1 32 57
M  V30 63 1 33 58
M  V30 END BOND
M  V30 END CTAB
M  END
>  <Dataset>  (498) 
ChEMBL_Kinases

>  <Ligand_Instance>  (498) 
nan

>  <PDB_ID>  (498) 
nan

>  <Standardized_SMILES>  (498) 
O=C1NC(=O)C(c2nnc3ccccn23)=C1c1cn(CCCN2CCOCC2)c2ccccc12

>  <Name>  (498) 
nan

>  <Pocket>  (498) 
nan

>  <ATP_Site>  (498) 
nan

>  <Peripheral>  (498) 
nan

>  <Num_H_Atoms_ProtBoundConf>  (498) 
nan

>  <Num_Resolved_Atoms>  (498) 
nan

>  <Num_Not_Resolved_Atoms>  (498) 
nan

$$$$
CHEMBL3398204
     RDKit          3D

  0  0  0  0  0  0  0  0  0  0999 V3000
M  V30 BEGIN CTAB
M  V30 COUNTS 46 50 0 0 0
M  V30 BEGIN ATOM
M  V30 1 O 0.721780 -1.679668 5.141937 0
M  V30 2 C 1.315427 -0.910900 4.345935 0
M  V30 3 N 2.411553 -0.062862 4.741202 0
M  V30 4 C 2.776782 0.623866 3.558113 0
M  V30 5 O 3.738516 1.446545 3.641461 0
M  V30 6 C 1.911169 0.202230 2.439314 0
M  V30 7 C 2.087877 0.732985 1.089468 0
M  V30 8 N 2.179360 0.013805 -0.054591 0
M  V30 9 N 2.315895 0.817418 -1.087410 0
M  V30 10 C 2.311113 2.083068 -0.590473 0
M  V30 11 C 2.414456 3.328579 -1.218241 0
M  V30 12 C 2.372387 4.506432 -0.467688 0
M  V30 13 C 2.227459 4.441960 0.899265 0
M  V30 14 C 2.131029 3.207951 1.466476 0
M  V30 15 N 2.169855 2.058855 0.764920 0
M  V30 16 C 1.047677 -0.709784 2.920920 0
M  V30 17 C 0.027870 -1.321815 2.074753 0
M  V30 18 C -0.665924 -0.557626 1.146683 0
M  V30 19 N -1.583445 -1.320809 0.463130 0
M  V30 20 C -2.428402 -0.756394 -0.567217 0
M  V30 21 C -1.790492 -0.805755 -1.916021 0
M  V30 22 C -1.495051 -2.164101 -2.453735 0
M  V30 23 O -2.661672 -2.927049 -2.616190 0
M  V30 24 C -1.478484 -2.571110 0.952284 0
M  V30 25 C -2.127935 -3.725930 0.655636 0
M  V30 26 C -1.799565 -4.890963 1.339427 0
M  V30 27 C -0.823751 -4.860077 2.305489 0
M  V30 28 C -0.140861 -3.712051 2.637564 0
M  V30 29 C -0.505255 -2.576741 1.926960 0
M  V30 30 H 2.800015 -0.019400 5.718844 0
M  V30 31 H 2.528693 3.341592 -2.306302 0
M  V30 32 H 2.453481 5.467310 -0.946882 0
M  V30 33 H 2.189714 5.351616 1.524127 0
M  V30 34 H 2.010261 3.197366 2.539199 0
M  V30 35 H -0.523652 0.505813 0.965755 0
M  V30 36 H -3.407433 -1.286176 -0.629264 0
M  V30 37 H -2.591831 0.331168 -0.309503 0
M  V30 38 H -2.528254 -0.333413 -2.624279 0
M  V30 39 H -0.905033 -0.123566 -1.972344 0
M  V30 40 H -1.024063 -2.142074 -3.454025 0
M  V30 41 H -0.820980 -2.757302 -1.811282 0
M  V30 42 H -2.667308 -3.449039 -3.454643 0
M  V30 43 H -2.894355 -3.725266 -0.092143 0
M  V30 44 H -2.358549 -5.774377 1.048399 0
M  V30 45 H -0.658235 -5.812436 2.755613 0
M  V30 46 H 0.626456 -3.728343 3.397260 0
M  V30 END ATOM
M  V30 BEGIN BOND
M  V30 1 2 1 2
M  V30 2 1 2 3
M  V30 3 1 3 4
M  V30 4 2 4 5
M  V30 5 1 4 6
M  V30 6 1 6 7
M  V30 7 2 7 8
M  V30 8 1 8 9
M  V30 9 2 9 10
M  V30 10 1 10 11
M  V30 11 2 11 12
M  V30 12 1 12 13
M  V30 13 2 13 14
M  V30 14 1 14 15
M  V30 15 2 6 16
M  V30 16 1 16 17
M  V30 17 2 17 18
M  V30 18 1 18 19
M  V30 19 1 19 20
M  V30 20 1 20 21
M  V30 21 1 21 22
M  V30 22 1 22 23
M  V30 23 1 19 24
M  V30 24 2 24 25
M  V30 25 1 25 26
M  V30 26 2 26 27
M  V30 27 1 27 28
M  V30 28 2 28 29
M  V30 29 1 16 2
M  V30 30 1 29 17
M  V30 31 1 15 7
M  V30 32 1 29 24
M  V30 33 1 15 10
M  V30 34 1 3 30
M  V30 35 1 11 31
M  V30 36 1 12 32
M  V30 37 1 13 33
M  V30 38 1 14 34
M  V30 39 1 18 35
M  V30 40 1 20 36
M  V30 41 1 20 37
M  V30 42 1 21 38
M  V30 43 1 21 39
M  V30 44 1 22 40
M  V30 45 1 22 41
M  V30 46 1 23 42
M  V30 47 1 25 43
M  V30 48 1 26 44
M  V30 49 1 27 45
M  V30 50 1 28 46
M  V30 END BOND
M  V30 END CTAB
M  END
>  <Dataset>  (499) 
ChEMBL_Kinases

>  <Ligand_Instance>  (499) 
nan

>  <PDB_ID>  (499) 
nan

>  <Standardized_SMILES>  (499) 
O=C1NC(=O)C(c2nnc3ccccn23)=C1c1cn(CCCO)c2ccccc12

>  <Name>  (499) 
nan

>  <Pocket>  (499) 
nan

>  <ATP_Site>  (499) 
nan

>  <Peripheral>  (499) 
nan

>  <Num_H_Atoms_ProtBoundConf>  (499) 
nan

>  <Num_Resolved_Atoms>  (499) 
nan

>  <Num_Not_Resolved_Atoms>  (499) 
nan

$$$$
CHEMBL3398203
     RDKit          3D

  0  0  0  0  0  0  0  0  0  0999 V3000
M  V30 BEGIN CTAB
M  V30 COUNTS 52 57 0 0 0
M  V30 BEGIN ATOM
M  V30 1 O -0.015215 -0.625160 4.406863 0
M  V30 2 C 0.896192 0.054924 3.816046 0
M  V30 3 N 1.713593 0.934722 4.603694 0
M  V30 4 C 2.593609 1.513496 3.658507 0
M  V30 5 O 3.465713 2.348207 4.001409 0
M  V30 6 C 2.319744 0.998705 2.322242 0
M  V30 7 C 2.989199 1.288385 1.067638 0
M  V30 8 N 3.299948 0.322082 0.186133 0
M  V30 9 N 3.891938 0.886314 -0.851046 0
M  V30 10 C 3.991800 2.218698 -0.697450 0
M  V30 11 C 4.494781 3.263333 -1.433456 0
M  V30 12 C 4.439608 4.586726 -0.978514 0
M  V30 13 C 3.843393 4.762001 0.261862 0
M  V30 14 C 3.362897 3.690301 0.946366 0
M  V30 15 N 3.422828 2.426805 0.498690 0
M  V30 16 C 1.323695 0.139673 2.399634 0
M  V30 17 C 0.563985 -0.691500 1.479303 0
M  V30 18 C 0.214482 -2.039110 1.641522 0
M  V30 19 N -0.520178 -2.495697 0.582113 0
M  V30 20 C -0.979092 -3.858086 0.722014 0
M  V30 21 C -2.112488 -4.075607 1.636619 0
M  V30 22 C -3.440903 -3.485761 1.396106 0
M  V30 23 N -4.079669 -3.970349 0.207115 0
M  V30 24 C -4.782955 -5.143144 0.400186 0
M  V30 25 C -5.408535 -5.583162 -0.747340 0
M  V30 26 N -5.090949 -4.666048 -1.679723 0
M  V30 27 C -4.319855 -3.746615 -1.089419 0
M  V30 28 C -0.614342 -1.434522 -0.218106 0
M  V30 29 C -1.266210 -1.454233 -1.418127 0
M  V30 30 C -1.316136 -0.320894 -2.198771 0
M  V30 31 C -0.676552 0.820753 -1.703690 0
M  V30 32 C -0.023971 0.818050 -0.493343 0
M  V30 33 C 0.019770 -0.320263 0.275366 0
M  V30 34 H 1.674126 1.112464 5.631915 0
M  V30 35 H 4.951340 3.075728 -2.399685 0
M  V30 36 H 4.829831 5.428783 -1.534006 0
M  V30 37 H 3.793169 5.781921 0.625865 0
M  V30 38 H 2.916752 3.919951 1.884904 0
M  V30 39 H 0.558074 -2.527654 2.550234 0
M  V30 40 H -0.128987 -4.504768 1.094004 0
M  V30 41 H -1.238264 -4.218780 -0.317978 0
M  V30 42 H -2.252029 -5.196874 1.850623 0
M  V30 43 H -1.777817 -3.701347 2.673243 0
M  V30 44 H -4.127635 -3.592874 2.281513 0
M  V30 45 H -3.344259 -2.356557 1.284103 0
M  V30 46 H -4.953838 -5.799213 1.261234 0
M  V30 47 H -6.029633 -6.426863 -0.999065 0
M  V30 48 H -3.884321 -2.859311 -1.487957 0
M  V30 49 H -1.737141 -2.314837 -1.819691 0
M  V30 50 H -1.824040 -0.292885 -3.162013 0
M  V30 51 H -0.718772 1.709951 -2.317186 0
M  V30 52 H 0.457658 1.703600 -0.116810 0
M  V30 END ATOM
M  V30 BEGIN BOND
M  V30 1 2 1 2
M  V30 2 1 2 3
M  V30 3 1 3 4
M  V30 4 2 4 5
M  V30 5 1 4 6
M  V30 6 1 6 7
M  V30 7 2 7 8
M  V30 8 1 8 9
M  V30 9 2 9 10
M  V30 10 1 10 11
M  V30 11 2 11 12
M  V30 12 1 12 13
M  V30 13 2 13 14
M  V30 14 1 14 15
M  V30 15 2 6 16
M  V30 16 1 16 17
M  V30 17 2 17 18
M  V30 18 1 18 19
M  V30 19 1 19 20
M  V30 20 1 20 21
M  V30 21 1 21 22
M  V30 22 1 22 23
M  V30 23 1 23 24
M  V30 24 2 24 25
M  V30 25 1 25 26
M  V30 26 2 26 27
M  V30 27 1 19 28
M  V30 28 2 28 29
M  V30 29 1 29 30
M  V30 30 2 30 31
M  V30 31 1 31 32
M  V30 32 2 32 33
M  V30 33 1 16 2
M  V30 34 1 33 17
M  V30 35 1 15 7
M  V30 36 1 27 23
M  V30 37 1 33 28
M  V30 38 1 15 10
M  V30 39 1 3 34
M  V30 40 1 11 35
M  V30 41 1 12 36
M  V30 42 1 13 37
M  V30 43 1 14 38
M  V30 44 1 18 39
M  V30 45 1 20 40
M  V30 46 1 20 41
M  V30 47 1 21 42
M  V30 48 1 21 43
M  V30 49 1 22 44
M  V30 50 1 22 45
M  V30 51 1 24 46
M  V30 52 1 25 47
M  V30 53 1 27 48
M  V30 54 1 29 49
M  V30 55 1 30 50
M  V30 56 1 31 51
M  V30 57 1 32 52
M  V30 END BOND
M  V30 END CTAB
M  END
>  <Dataset>  (500) 
ChEMBL_Kinases

>  <Ligand_Instance>  (500) 
nan

>  <PDB_ID>  (500) 
nan

>  <Standardized_SMILES>  (500) 
O=C1NC(=O)C(c2nnc3ccccn23)=C1c1cn(CCCn2ccnc2)c2ccccc12

>  <Name>  (500) 
nan

>  <Pocket>  (500) 
nan

>  <ATP_Site>  (500) 
nan

>  <Peripheral>  (500) 
nan

>  <Num_H_Atoms_ProtBoundConf>  (500) 
nan

>  <Num_Resolved_Atoms>  (500) 
nan

>  <Num_Not_Resolved_Atoms>  (500) 
nan

$$$$
CHEMBL3398202
     RDKit          3D

  0  0  0  0  0  0  0  0  0  0999 V3000
M  V30 BEGIN CTAB
M  V30 COUNTS 45 49 0 0 0
M  V30 BEGIN ATOM
M  V30 1 C -1.069298 -4.962816 2.614742 0
M  V30 2 C 0.174746 -4.079388 2.582470 0
M  V30 3 C 0.515780 -3.709034 3.984348 0
M  V30 4 N -0.134543 -2.952595 1.722645 0
M  V30 5 C -0.495211 -1.705043 2.007970 0
M  V30 6 C -0.691601 -0.948750 0.843088 0
M  V30 7 C -1.102786 0.446435 0.931497 0
M  V30 8 C -0.620170 1.575695 0.384685 0
M  V30 9 C 0.497768 1.874712 -0.510805 0
M  V30 10 N 0.960004 1.422920 -1.687633 0
M  V30 11 N 2.070084 2.025986 -2.058957 0
M  V30 12 C 2.383994 2.918737 -1.112223 0
M  V30 13 C 3.466679 3.751956 -1.095551 0
M  V30 14 C 3.625150 4.591396 -0.022188 0
M  V30 15 C 2.659354 4.514618 0.957923 0
M  V30 16 C 1.597576 3.646050 0.863014 0
M  V30 17 N 1.432986 2.817683 -0.189363 0
M  V30 18 C -1.491908 2.682861 0.830765 0
M  V30 19 O -1.495334 3.943721 0.611682 0
M  V30 20 N -2.523318 2.200177 1.670142 0
M  V30 21 C -2.291642 0.809104 1.740498 0
M  V30 22 O -3.021597 0.002567 2.414563 0
M  V30 23 C -0.414199 -1.868660 -0.144654 0
M  V30 24 C -0.471328 -1.630833 -1.495653 0
M  V30 25 C -0.173538 -2.657141 -2.360622 0
M  V30 26 C 0.177664 -3.910437 -1.886734 0
M  V30 27 C 0.222150 -4.108874 -0.504714 0
M  V30 28 C -0.073976 -3.090498 0.392611 0
M  V30 29 H -1.805815 -4.510898 3.331427 0
M  V30 30 H -0.821636 -5.972670 2.992444 0
M  V30 31 H -1.564450 -4.962089 1.620965 0
M  V30 32 H 1.031566 -4.656504 2.155305 0
M  V30 33 H 1.622189 -3.843367 4.172975 0
M  V30 34 H 0.053767 -4.455591 4.686737 0
M  V30 35 H 0.161747 -2.737457 4.322224 0
M  V30 36 H -0.608725 -1.374650 3.027075 0
M  V30 37 H 4.205265 3.780742 -1.886379 0
M  V30 38 H 4.465542 5.264976 0.030146 0
M  V30 39 H 2.791068 5.189363 1.816390 0
M  V30 40 H 0.931059 3.684082 1.701372 0
M  V30 41 H -3.312948 2.681962 2.166078 0
M  V30 42 H -0.752583 -0.678541 -1.912085 0
M  V30 43 H -0.194510 -2.553932 -3.436738 0
M  V30 44 H 0.424436 -4.765035 -2.491491 0
M  V30 45 H 0.489375 -5.063944 -0.059844 0
M  V30 END ATOM
M  V30 BEGIN BOND
M  V30 1 1 1 2
M  V30 2 1 2 3
M  V30 3 1 2 4
M  V30 4 1 4 5
M  V30 5 2 5 6
M  V30 6 1 6 7
M  V30 7 2 7 8
M  V30 8 1 8 9
M  V30 9 2 9 10
M  V30 10 1 10 11
M  V30 11 2 11 12
M  V30 12 1 12 13
M  V30 13 2 13 14
M  V30 14 1 14 15
M  V30 15 2 15 16
M  V30 16 1 16 17
M  V30 17 1 8 18
M  V30 18 2 18 19
M  V30 19 1 18 20
M  V30 20 1 20 21
M  V30 21 2 21 22
M  V30 22 1 6 23
M  V30 23 2 23 24
M  V30 24 1 24 25
M  V30 25 2 25 26
M  V30 26 1 26 27
M  V30 27 2 27 28
M  V30 28 1 28 4
M  V30 29 1 21 7
M  V30 30 1 28 23
M  V30 31 1 17 9
M  V30 32 1 17 12
M  V30 33 1 1 29
M  V30 34 1 1 30
M  V30 35 1 1 31
M  V30 36 1 2 32
M  V30 37 1 3 33
M  V30 38 1 3 34
M  V30 39 1 3 35
M  V30 40 1 5 36
M  V30 41 1 13 37
M  V30 42 1 14 38
M  V30 43 1 15 39
M  V30 44 1 16 40
M  V30 45 1 20 41
M  V30 46 1 24 42
M  V30 47 1 25 43
M  V30 48 1 26 44
M  V30 49 1 27 45
M  V30 END BOND
M  V30 END CTAB
M  END
>  <Dataset>  (501) 
ChEMBL_Kinases

>  <Ligand_Instance>  (501) 
nan

>  <PDB_ID>  (501) 
nan

>  <Standardized_SMILES>  (501) 
CC(C)n1cc(C2=C(c3nnc4ccccn34)C(=O)NC2=O)c2ccccc21

>  <Name>  (501) 
nan

>  <Pocket>  (501) 
nan

>  <ATP_Site>  (501) 
nan

>  <Peripheral>  (501) 
nan

>  <Num_H_Atoms_ProtBoundConf>  (501) 
nan

>  <Num_Resolved_Atoms>  (501) 
nan

>  <Num_Not_Resolved_Atoms>  (501) 
nan

$$$$
CHEMBL3398201
     RDKit          3D

  0  0  0  0  0  0  0  0  0  0999 V3000
M  V30 BEGIN CTAB
M  V30 COUNTS 48 52 0 0 0
M  V30 BEGIN ATOM
M  V30 1 C 0.019784 -1.740611 4.085406 0
M  V30 2 C 1.275500 -2.546815 4.104582 0
M  V30 3 C 1.484359 -3.494982 2.996348 0
M  V30 4 C 1.573046 -3.001394 1.614055 0
M  V30 5 N 0.473135 -2.299565 1.055193 0
M  V30 6 C 0.195967 -0.990132 0.999624 0
M  V30 7 C -0.957209 -0.650010 0.361236 0
M  V30 8 C -1.656534 0.569743 0.008814 0
M  V30 9 C -1.331715 1.724927 -0.599370 0
M  V30 10 C -0.103227 2.250023 -1.174063 0
M  V30 11 N -0.065723 2.629502 -2.482064 0
M  V30 12 N 1.123233 3.094278 -2.812760 0
M  V30 13 C 1.905316 3.033950 -1.723820 0
M  V30 14 C 3.202271 3.381724 -1.471727 0
M  V30 15 C 3.756257 3.213054 -0.197528 0
M  V30 16 C 2.920954 2.678157 0.785209 0
M  V30 17 C 1.618864 2.339831 0.491000 0
M  V30 18 N 1.139375 2.520917 -0.747194 0
M  V30 19 C -2.533599 2.591439 -0.625837 0
M  V30 20 O -2.650162 3.765147 -1.112487 0
M  V30 21 N -3.632982 1.934371 -0.005985 0
M  V30 22 C -3.087937 0.683302 0.387022 0
M  V30 23 O -3.860067 -0.135444 0.984261 0
M  V30 24 C -1.446987 -1.907698 -0.022153 0
M  V30 25 C -2.538777 -2.394916 -0.701379 0
M  V30 26 C -2.794126 -3.704827 -0.960719 0
M  V30 27 C -1.911262 -4.662871 -0.525457 0
M  V30 28 C -0.793068 -4.246664 0.162069 0
M  V30 29 C -0.574653 -2.887550 0.403472 0
M  V30 30 H -0.452892 -1.675960 5.118753 0
M  V30 31 H -0.722260 -2.200787 3.424850 0
M  V30 32 H 0.198897 -0.658382 3.843040 0
M  V30 33 H 2.117256 -1.845804 4.284509 0
M  V30 34 H 1.238126 -3.148365 5.063929 0
M  V30 35 H 0.695752 -4.306925 3.088576 0
M  V30 36 H 2.435806 -4.084553 3.186420 0
M  V30 37 H 2.480379 -2.330494 1.496564 0
M  V30 38 H 1.872967 -3.893967 0.978149 0
M  V30 39 H 0.881506 -0.310271 1.453410 0
M  V30 40 H 3.855340 3.792923 -2.213854 0
M  V30 41 H 4.786052 3.464394 0.089607 0
M  V30 42 H 3.284183 2.518546 1.803734 0
M  V30 43 H 1.007731 1.955244 1.272312 0
M  V30 44 H -4.592965 2.319563 0.109165 0
M  V30 45 H -3.282236 -1.723300 -1.092815 0
M  V30 46 H -3.653202 -4.057694 -1.492050 0
M  V30 47 H -2.056085 -5.716426 -0.698270 0
M  V30 48 H -0.100361 -5.011840 0.502951 0
M  V30 END ATOM
M  V30 BEGIN BOND
M  V30 1 1 1 2
M  V30 2 1 2 3
M  V30 3 1 3 4
M  V30 4 1 4 5
M  V30 5 1 5 6
M  V30 6 2 6 7
M  V30 7 1 7 8
M  V30 8 2 8 9
M  V30 9 1 9 10
M  V30 10 2 10 11
M  V30 11 1 11 12
M  V30 12 2 12 13
M  V30 13 1 13 14
M  V30 14 2 14 15
M  V30 15 1 15 16
M  V30 16 2 16 17
M  V30 17 1 17 18
M  V30 18 1 9 19
M  V30 19 2 19 20
M  V30 20 1 19 21
M  V30 21 1 21 22
M  V30 22 2 22 23
M  V30 23 1 7 24
M  V30 24 2 24 25
M  V30 25 1 25 26
M  V30 26 2 26 27
M  V30 27 1 27 28
M  V30 28 2 28 29
M  V30 29 1 29 5
M  V30 30 1 22 8
M  V30 31 1 29 24
M  V30 32 1 18 10
M  V30 33 1 18 13
M  V30 34 1 1 30
M  V30 35 1 1 31
M  V30 36 1 1 32
M  V30 37 1 2 33
M  V30 38 1 2 34
M  V30 39 1 3 35
M  V30 40 1 3 36
M  V30 41 1 4 37
M  V30 42 1 4 38
M  V30 43 1 6 39
M  V30 44 1 14 40
M  V30 45 1 15 41
M  V30 46 1 16 42
M  V30 47 1 17 43
M  V30 48 1 21 44
M  V30 49 1 25 45
M  V30 50 1 26 46
M  V30 51 1 27 47
M  V30 52 1 28 48
M  V30 END BOND
M  V30 END CTAB
M  END
>  <Dataset>  (502) 
ChEMBL_Kinases

>  <Ligand_Instance>  (502) 
nan

>  <PDB_ID>  (502) 
nan

>  <Standardized_SMILES>  (502) 
CCCCn1cc(C2=C(c3nnc4ccccn34)C(=O)NC2=O)c2ccccc21

>  <Name>  (502) 
nan

>  <Pocket>  (502) 
nan

>  <ATP_Site>  (502) 
nan

>  <Peripheral>  (502) 
nan

>  <Num_H_Atoms_ProtBoundConf>  (502) 
nan

>  <Num_Resolved_Atoms>  (502) 
nan

>  <Num_Not_Resolved_Atoms>  (502) 
nan

$$$$
CHEMBL3398200
     RDKit          3D

  0  0  0  0  0  0  0  0  0  0999 V3000
M  V30 BEGIN CTAB
M  V30 COUNTS 43 47 0 0 0
M  V30 BEGIN ATOM
M  V30 1 C 0.042881 -2.605731 3.909282 0
M  V30 2 C -0.860308 -3.590509 4.089434 0
M  V30 3 C -1.532853 -3.941752 2.804906 0
M  V30 4 N -1.018657 -3.123530 1.719520 0
M  V30 5 C -1.450357 -1.924285 1.309691 0
M  V30 6 C -0.695888 -1.422796 0.240774 0
M  V30 7 C -0.990018 -0.136484 -0.374324 0
M  V30 8 C -0.237343 0.931064 -0.629043 0
M  V30 9 C 1.174633 1.270956 -0.409432 0
M  V30 10 N 2.352410 0.682708 -0.680233 0
M  V30 11 N 3.358819 1.405386 -0.224253 0
M  V30 12 C 2.868411 2.502947 0.368259 0
M  V30 13 C 3.573921 3.511915 0.981721 0
M  V30 14 C 2.844967 4.555175 1.545984 0
M  V30 15 C 1.474485 4.496017 1.446761 0
M  V30 16 C 0.869709 3.436949 0.808928 0
M  V30 17 N 1.530811 2.414023 0.251544 0
M  V30 18 C -1.103001 1.911467 -1.298720 0
M  V30 19 O -0.884679 3.088364 -1.752990 0
M  V30 20 N -2.404183 1.405172 -1.440601 0
M  V30 21 C -2.371922 0.090752 -0.858765 0
M  V30 22 O -3.372425 -0.657588 -0.810876 0
M  V30 23 C 0.216166 -2.437912 0.059940 0
M  V30 24 C 1.228207 -2.478933 -0.902542 0
M  V30 25 C 2.041002 -3.578769 -0.942372 0
M  V30 26 C 1.831434 -4.611935 -0.028669 0
M  V30 27 C 0.836310 -4.576540 0.918920 0
M  V30 28 C 0.026836 -3.464005 0.946972 0
M  V30 29 H 0.562448 -2.311742 4.820644 0
M  V30 30 H 0.699457 -2.114495 4.616678 0
M  V30 31 H -1.165160 -4.148771 4.986913 0
M  V30 32 H -2.630701 -3.897594 2.848793 0
M  V30 33 H -1.283202 -5.014337 2.601458 0
M  V30 34 H -2.305671 -1.407984 1.775896 0
M  V30 35 H 4.650363 3.540430 1.048868 0
M  V30 36 H 3.279243 5.404044 2.053938 0
M  V30 37 H 0.889561 5.316793 1.890689 0
M  V30 38 H -0.200921 3.486981 0.802580 0
M  V30 39 H -3.275873 1.834643 -1.869661 0
M  V30 40 H 1.366575 -1.688279 -1.593212 0
M  V30 41 H 2.842943 -3.666112 -1.667258 0
M  V30 42 H 2.490814 -5.456971 -0.093486 0
M  V30 43 H 0.705724 -5.408114 1.616134 0
M  V30 END ATOM
M  V30 BEGIN BOND
M  V30 1 2 1 2
M  V30 2 1 2 3
M  V30 3 1 3 4
M  V30 4 1 4 5
M  V30 5 2 5 6
M  V30 6 1 6 7
M  V30 7 2 7 8
M  V30 8 1 8 9
M  V30 9 2 9 10
M  V30 10 1 10 11
M  V30 11 2 11 12
M  V30 12 1 12 13
M  V30 13 2 13 14
M  V30 14 1 14 15
M  V30 15 2 15 16
M  V30 16 1 16 17
M  V30 17 1 8 18
M  V30 18 2 18 19
M  V30 19 1 18 20
M  V30 20 1 20 21
M  V30 21 2 21 22
M  V30 22 1 6 23
M  V30 23 2 23 24
M  V30 24 1 24 25
M  V30 25 2 25 26
M  V30 26 1 26 27
M  V30 27 2 27 28
M  V30 28 1 28 4
M  V30 29 1 21 7
M  V30 30 1 28 23
M  V30 31 1 17 9
M  V30 32 1 17 12
M  V30 33 1 1 29
M  V30 34 1 1 30
M  V30 35 1 2 31
M  V30 36 1 3 32
M  V30 37 1 3 33
M  V30 38 1 5 34
M  V30 39 1 13 35
M  V30 40 1 14 36
M  V30 41 1 15 37
M  V30 42 1 16 38
M  V30 43 1 20 39
M  V30 44 1 24 40
M  V30 45 1 25 41
M  V30 46 1 26 42
M  V30 47 1 27 43
M  V30 END BOND
M  V30 END CTAB
M  END
>  <Dataset>  (503) 
ChEMBL_Kinases

>  <Ligand_Instance>  (503) 
nan

>  <PDB_ID>  (503) 
nan

>  <Standardized_SMILES>  (503) 
C=CCn1cc(C2=C(c3nnc4ccccn34)C(=O)NC2=O)c2ccccc21

>  <Name>  (503) 
nan

>  <Pocket>  (503) 
nan

>  <ATP_Site>  (503) 
nan

>  <Peripheral>  (503) 
nan

>  <Num_H_Atoms_ProtBoundConf>  (503) 
nan

>  <Num_Resolved_Atoms>  (503) 
nan

>  <Num_Not_Resolved_Atoms>  (503) 
nan

$$$$
CHEMBL3398199
     RDKit          3D

  0  0  0  0  0  0  0  0  0  0999 V3000
M  V30 BEGIN CTAB
M  V30 COUNTS 43 47 0 0 0
M  V30 BEGIN ATOM
M  V30 1 C -1.970129 -4.181279 3.069247 0
M  V30 2 O -0.717501 -4.770989 2.771117 0
M  V30 3 C 0.182265 -4.205361 1.858540 0
M  V30 4 C 1.392154 -4.813278 1.602279 0
M  V30 5 C 2.244498 -4.200053 0.685144 0
M  V30 6 C 1.799745 -3.030214 0.110718 0
M  V30 7 C 0.597256 -2.396708 0.345539 0
M  V30 8 C -0.249590 -3.015981 1.261925 0
M  V30 9 C 0.548844 -1.232059 -0.429012 0
M  V30 10 C -0.627683 -0.375270 -0.386563 0
M  V30 11 C -0.729448 0.934298 -0.174303 0
M  V30 12 C 0.379204 1.874430 0.082740 0
M  V30 13 N 1.538463 2.014586 -0.582145 0
M  V30 14 N 2.255600 2.975709 0.011605 0
M  V30 15 C 1.556554 3.451671 1.057500 0
M  V30 16 C 1.917586 4.455380 1.963756 0
M  V30 17 C 1.010631 4.744407 2.955249 0
M  V30 18 C -0.194406 4.089518 3.063724 0
M  V30 19 C -0.456397 3.119907 2.125037 0
M  V30 20 N 0.375829 2.767739 1.113585 0
M  V30 21 C -2.119871 1.369905 -0.247322 0
M  V30 22 O -2.680689 2.486752 -0.117620 0
M  V30 23 N -2.902695 0.191132 -0.530344 0
M  V30 24 C -1.978912 -0.903837 -0.619453 0
M  V30 25 O -2.438255 -2.065358 -0.866192 0
M  V30 26 C 1.752683 -1.228728 -1.105127 0
M  V30 27 N 2.507829 -2.301475 -0.788458 0
M  V30 28 C 3.817515 -2.524974 -1.373456 0
M  V30 29 H -1.834320 -3.177838 3.555149 0
M  V30 30 H -2.542294 -4.809858 3.781873 0
M  V30 31 H -2.516795 -4.007959 2.142879 0
M  V30 32 H 1.647431 -5.733204 2.108868 0
M  V30 33 H 3.198970 -4.660496 0.469660 0
M  V30 34 H -1.191111 -2.578242 1.493348 0
M  V30 35 H 2.877316 4.940677 1.836184 0
M  V30 36 H 1.261921 5.521323 3.676547 0
M  V30 37 H -0.922945 4.304425 3.841594 0
M  V30 38 H -1.392871 2.601977 2.224048 0
M  V30 39 H -3.955860 0.177019 -0.642227 0
M  V30 40 H 1.988407 -0.445091 -1.781485 0
M  V30 41 H 3.812310 -2.391451 -2.497756 0
M  V30 42 H 4.566497 -1.804847 -0.986192 0
M  V30 43 H 4.167233 -3.545684 -1.191410 0
M  V30 END ATOM
M  V30 BEGIN BOND
M  V30 1 1 1 2
M  V30 2 1 2 3
M  V30 3 2 3 4
M  V30 4 1 4 5
M  V30 5 2 5 6
M  V30 6 1 6 7
M  V30 7 2 7 8
M  V30 8 1 7 9
M  V30 9 1 9 10
M  V30 10 2 10 11
M  V30 11 1 11 12
M  V30 12 2 12 13
M  V30 13 1 13 14
M  V30 14 2 14 15
M  V30 15 1 15 16
M  V30 16 2 16 17
M  V30 17 1 17 18
M  V30 18 2 18 19
M  V30 19 1 19 20
M  V30 20 1 11 21
M  V30 21 2 21 22
M  V30 22 1 21 23
M  V30 23 1 23 24
M  V30 24 2 24 25
M  V30 25 2 9 26
M  V30 26 1 26 27
M  V30 27 1 27 28
M  V30 28 1 8 3
M  V30 29 1 24 10
M  V30 30 1 27 6
M  V30 31 1 20 12
M  V30 32 1 20 15
M  V30 33 1 1 29
M  V30 34 1 1 30
M  V30 35 1 1 31
M  V30 36 1 4 32
M  V30 37 1 5 33
M  V30 38 1 8 34
M  V30 39 1 16 35
M  V30 40 1 17 36
M  V30 41 1 18 37
M  V30 42 1 19 38
M  V30 43 1 23 39
M  V30 44 1 26 40
M  V30 45 1 28 41
M  V30 46 1 28 42
M  V30 47 1 28 43
M  V30 END BOND
M  V30 END CTAB
M  END
>  <Dataset>  (504) 
ChEMBL_Kinases

>  <Ligand_Instance>  (504) 
nan

>  <PDB_ID>  (504) 
nan

>  <Standardized_SMILES>  (504) 
COc1ccc2c(c1)c(C1=C(c3nnc4ccccn34)C(=O)NC1=O)cn2C

>  <Name>  (504) 
nan

>  <Pocket>  (504) 
nan

>  <ATP_Site>  (504) 
nan

>  <Peripheral>  (504) 
nan

>  <Num_H_Atoms_ProtBoundConf>  (504) 
nan

>  <Num_Resolved_Atoms>  (504) 
nan

>  <Num_Not_Resolved_Atoms>  (504) 
nan

$$$$
CHEMBL3398198
     RDKit          3D

  0  0  0  0  0  0  0  0  0  0999 V3000
M  V30 BEGIN CTAB
M  V30 COUNTS 39 43 0 0 0
M  V30 BEGIN ATOM
M  V30 1 C 0.413368 -4.821662 3.444388 0
M  V30 2 N 0.338989 -3.690629 2.538729 0
M  V30 3 C 1.352849 -3.145505 1.853617 0
M  V30 4 C 0.916084 -2.063549 1.072457 0
M  V30 5 C 1.766272 -1.264996 0.200918 0
M  V30 6 C 1.883191 0.033053 -0.029739 0
M  V30 7 C 1.164757 1.160349 0.541332 0
M  V30 8 N 0.923745 1.295573 1.864394 0
M  V30 9 N 0.246209 2.414101 2.064470 0
M  V30 10 C 0.018662 3.047028 0.900823 0
M  V30 11 C -0.617549 4.207585 0.511793 0
M  V30 12 C -0.698973 4.607800 -0.797925 0
M  V30 13 C -0.096245 3.767606 -1.733365 0
M  V30 14 C 0.527204 2.618906 -1.296704 0
M  V30 15 N 0.596169 2.246877 -0.007853 0
M  V30 16 C 2.945072 0.243207 -1.025243 0
M  V30 17 O 3.459641 1.247072 -1.590337 0
M  V30 18 N 3.498091 -1.025578 -1.414911 0
M  V30 19 C 2.753800 -1.982177 -0.640307 0
M  V30 20 O 2.973505 -3.239071 -0.723394 0
M  V30 21 C -0.426059 -2.041304 1.370528 0
M  V30 22 C -1.404439 -1.201366 0.907235 0
M  V30 23 C -2.721372 -1.313276 1.302063 0
M  V30 24 C -3.079856 -2.316613 2.207422 0
M  V30 25 Br -4.903235 -2.524350 2.798863 0
M  V30 26 C -2.082090 -3.165832 2.674114 0
M  V30 27 C -0.773362 -3.028084 2.259719 0
M  V30 28 H 0.654996 -5.748239 2.844794 0
M  V30 29 H 1.312120 -4.664554 4.072398 0
M  V30 30 H -0.508362 -4.933242 4.028542 0
M  V30 31 H 2.391526 -3.512715 1.907393 0
M  V30 32 H -1.074163 4.839731 1.246782 0
M  V30 33 H -1.184269 5.507046 -1.158664 0
M  V30 34 H -0.147656 4.065413 -2.775681 0
M  V30 35 H 0.952707 2.031395 -2.094321 0
M  V30 36 H 4.257865 -1.285169 -2.091458 0
M  V30 37 H -1.183478 -0.413960 0.202675 0
M  V30 38 H -3.503626 -0.648628 0.938965 0
M  V30 39 H -2.355122 -3.943048 3.371602 0
M  V30 END ATOM
M  V30 BEGIN BOND
M  V30 1 1 1 2
M  V30 2 1 2 3
M  V30 3 2 3 4
M  V30 4 1 4 5
M  V30 5 2 5 6
M  V30 6 1 6 7
M  V30 7 2 7 8
M  V30 8 1 8 9
M  V30 9 2 9 10
M  V30 10 1 10 11
M  V30 11 2 11 12
M  V30 12 1 12 13
M  V30 13 2 13 14
M  V30 14 1 14 15
M  V30 15 1 6 16
M  V30 16 2 16 17
M  V30 17 1 16 18
M  V30 18 1 18 19
M  V30 19 2 19 20
M  V30 20 1 4 21
M  V30 21 2 21 22
M  V30 22 1 22 23
M  V30 23 2 23 24
M  V30 24 1 24 25
M  V30 25 1 24 26
M  V30 26 2 26 27
M  V30 27 1 27 2
M  V30 28 1 19 5
M  V30 29 1 27 21
M  V30 30 1 15 7
M  V30 31 1 15 10
M  V30 32 1 1 28
M  V30 33 1 1 29
M  V30 34 1 1 30
M  V30 35 1 3 31
M  V30 36 1 11 32
M  V30 37 1 12 33
M  V30 38 1 13 34
M  V30 39 1 14 35
M  V30 40 1 18 36
M  V30 41 1 22 37
M  V30 42 1 23 38
M  V30 43 1 26 39
M  V30 END BOND
M  V30 END CTAB
M  END
>  <Dataset>  (505) 
ChEMBL_Kinases

>  <Ligand_Instance>  (505) 
nan

>  <PDB_ID>  (505) 
nan

>  <Standardized_SMILES>  (505) 
Cn1cc(C2=C(c3nnc4ccccn34)C(=O)NC2=O)c2ccc(Br)cc21

>  <Name>  (505) 
nan

>  <Pocket>  (505) 
nan

>  <ATP_Site>  (505) 
nan

>  <Peripheral>  (505) 
nan

>  <Num_H_Atoms_ProtBoundConf>  (505) 
nan

>  <Num_Resolved_Atoms>  (505) 
nan

>  <Num_Not_Resolved_Atoms>  (505) 
nan

$$$$
CHEMBL3398197
     RDKit          3D

  0  0  0  0  0  0  0  0  0  0999 V3000
M  V30 BEGIN CTAB
M  V30 COUNTS 39 43 0 0 0
M  V30 BEGIN ATOM
M  V30 1 C 0.104537 -1.724500 4.936905 0
M  V30 2 N 0.049555 -1.957181 3.489895 0
M  V30 3 C 1.011555 -1.444181 2.699120 0
M  V30 4 C 0.808954 -1.748160 1.371235 0
M  V30 5 C 1.425783 -1.462657 0.084631 0
M  V30 6 C 1.783578 -0.274054 -0.437604 0
M  V30 7 C 1.594362 1.016069 0.258453 0
M  V30 8 N 1.881468 1.460434 1.494310 0
M  V30 9 N 1.480462 2.700636 1.668914 0
M  V30 10 C 0.911179 3.116964 0.544941 0
M  V30 11 C 0.341347 4.341195 0.272332 0
M  V30 12 C -0.208181 4.558102 -0.969857 0
M  V30 13 C -0.153315 3.514184 -1.883908 0
M  V30 14 C 0.437660 2.327829 -1.517281 0
M  V30 15 N 0.983965 2.086479 -0.310326 0
M  V30 16 C 2.394448 -0.475012 -1.763668 0
M  V30 17 O 2.848487 0.398221 -2.546613 0
M  V30 18 N 2.388759 -1.888604 -2.027736 0
M  V30 19 C 1.795602 -2.503358 -0.897219 0
M  V30 20 O 1.676271 -3.761876 -0.887941 0
M  V30 21 C -0.360990 -2.498223 1.367779 0
M  V30 22 C -1.172453 -3.124379 0.453139 0
M  V30 23 C -2.323920 -3.813302 0.740353 0
M  V30 24 Br -3.354463 -4.635364 -0.631217 0
M  V30 25 C -2.702567 -3.884000 2.059950 0
M  V30 26 C -1.929187 -3.273719 3.027772 0
M  V30 27 C -0.782032 -2.596526 2.674746 0
M  V30 28 H 1.135042 -1.819504 5.279562 0
M  V30 29 H -0.313403 -0.726545 5.186162 0
M  V30 30 H -0.528682 -2.479182 5.431308 0
M  V30 31 H 1.877196 -0.859115 2.968425 0
M  V30 32 H 0.321603 5.122439 1.015524 0
M  V30 33 H -0.645480 5.536544 -1.139844 0
M  V30 34 H -0.587881 3.692708 -2.850397 0
M  V30 35 H 0.423176 1.595671 -2.283140 0
M  V30 36 H 2.762046 -2.301654 -2.899785 0
M  V30 37 H -0.913424 -3.084169 -0.592009 0
M  V30 38 H -3.611810 -4.423036 2.307319 0
M  V30 39 H -2.262281 -3.349979 4.051883 0
M  V30 END ATOM
M  V30 BEGIN BOND
M  V30 1 1 1 2
M  V30 2 1 2 3
M  V30 3 2 3 4
M  V30 4 1 4 5
M  V30 5 2 5 6
M  V30 6 1 6 7
M  V30 7 2 7 8
M  V30 8 1 8 9
M  V30 9 2 9 10
M  V30 10 1 10 11
M  V30 11 2 11 12
M  V30 12 1 12 13
M  V30 13 2 13 14
M  V30 14 1 14 15
M  V30 15 1 6 16
M  V30 16 2 16 17
M  V30 17 1 16 18
M  V30 18 1 18 19
M  V30 19 2 19 20
M  V30 20 1 4 21
M  V30 21 2 21 22
M  V30 22 1 22 23
M  V30 23 1 23 24
M  V30 24 2 23 25
M  V30 25 1 25 26
M  V30 26 2 26 27
M  V30 27 1 27 2
M  V30 28 1 19 5
M  V30 29 1 27 21
M  V30 30 1 15 7
M  V30 31 1 15 10
M  V30 32 1 1 28
M  V30 33 1 1 29
M  V30 34 1 1 30
M  V30 35 1 3 31
M  V30 36 1 11 32
M  V30 37 1 12 33
M  V30 38 1 13 34
M  V30 39 1 14 35
M  V30 40 1 18 36
M  V30 41 1 22 37
M  V30 42 1 25 38
M  V30 43 1 26 39
M  V30 END BOND
M  V30 END CTAB
M  END
>  <Dataset>  (506) 
ChEMBL_Kinases

>  <Ligand_Instance>  (506) 
nan

>  <PDB_ID>  (506) 
nan

>  <Standardized_SMILES>  (506) 
Cn1cc(C2=C(c3nnc4ccccn34)C(=O)NC2=O)c2cc(Br)ccc21

>  <Name>  (506) 
nan

>  <Pocket>  (506) 
nan

>  <ATP_Site>  (506) 
nan

>  <Peripheral>  (506) 
nan

>  <Num_H_Atoms_ProtBoundConf>  (506) 
nan

>  <Num_Resolved_Atoms>  (506) 
nan

>  <Num_Not_Resolved_Atoms>  (506) 
nan

$$$$
CHEMBL3398196
     RDKit          3D

  0  0  0  0  0  0  0  0  0  0999 V3000
M  V30 BEGIN CTAB
M  V30 COUNTS 39 43 0 0 0
M  V30 BEGIN ATOM
M  V30 1 C 0.473941 -4.880126 3.366608 0
M  V30 2 N 0.337891 -3.708502 2.490228 0
M  V30 3 C 1.348406 -3.170308 1.784143 0
M  V30 4 C 0.887712 -2.065449 1.050629 0
M  V30 5 C 1.746981 -1.274297 0.179191 0
M  V30 6 C 1.866276 0.027080 -0.026124 0
M  V30 7 C 1.179110 1.174340 0.549349 0
M  V30 8 N 0.984778 1.368706 1.864287 0
M  V30 9 N 0.314903 2.493522 2.046104 0
M  V30 10 C 0.048435 3.071193 0.860794 0
M  V30 11 C -0.615960 4.225757 0.495818 0
M  V30 12 C -0.749008 4.570341 -0.839256 0
M  V30 13 C -0.183505 3.696101 -1.742345 0
M  V30 14 C 0.481365 2.538270 -1.343946 0
M  V30 15 N 0.592289 2.235516 -0.033802 0
M  V30 16 C 2.905572 0.302103 -1.008950 0
M  V30 17 O 3.421394 1.309125 -1.556779 0
M  V30 18 N 3.453923 -0.965964 -1.427121 0
M  V30 19 C 2.738216 -1.954720 -0.692226 0
M  V30 20 O 2.941115 -3.197947 -0.792706 0
M  V30 21 C -0.447897 -2.010976 1.385052 0
M  V30 22 C -1.409108 -1.148601 0.976643 0
M  V30 23 C -2.699776 -1.287566 1.444706 0
M  V30 24 C -3.066045 -2.281928 2.325547 0
M  V30 25 Cl -4.691631 -2.485124 2.936896 0
M  V30 26 C -2.064552 -3.166254 2.740095 0
M  V30 27 C -0.784148 -3.012994 2.263496 0
M  V30 28 H 0.740607 -5.784839 2.755936 0
M  V30 29 H 1.351440 -4.678411 4.030903 0
M  V30 30 H -0.431788 -5.024224 3.969222 0
M  V30 31 H 2.369414 -3.566401 1.807568 0
M  V30 32 H -1.036545 4.871331 1.227494 0
M  V30 33 H -1.251550 5.449624 -1.182241 0
M  V30 34 H -0.273245 3.940653 -2.782998 0
M  V30 35 H 0.873520 1.927503 -2.142117 0
M  V30 36 H 4.215515 -1.209829 -2.115902 0
M  V30 37 H -1.189091 -0.370034 0.297262 0
M  V30 38 H -3.499200 -0.632485 1.154541 0
M  V30 39 H -2.292790 -3.964988 3.430115 0
M  V30 END ATOM
M  V30 BEGIN BOND
M  V30 1 1 1 2
M  V30 2 1 2 3
M  V30 3 2 3 4
M  V30 4 1 4 5
M  V30 5 2 5 6
M  V30 6 1 6 7
M  V30 7 2 7 8
M  V30 8 1 8 9
M  V30 9 2 9 10
M  V30 10 1 10 11
M  V30 11 2 11 12
M  V30 12 1 12 13
M  V30 13 2 13 14
M  V30 14 1 14 15
M  V30 15 1 6 16
M  V30 16 2 16 17
M  V30 17 1 16 18
M  V30 18 1 18 19
M  V30 19 2 19 20
M  V30 20 1 4 21
M  V30 21 2 21 22
M  V30 22 1 22 23
M  V30 23 2 23 24
M  V30 24 1 24 25
M  V30 25 1 24 26
M  V30 26 2 26 27
M  V30 27 1 27 2
M  V30 28 1 19 5
M  V30 29 1 27 21
M  V30 30 1 15 7
M  V30 31 1 15 10
M  V30 32 1 1 28
M  V30 33 1 1 29
M  V30 34 1 1 30
M  V30 35 1 3 31
M  V30 36 1 11 32
M  V30 37 1 12 33
M  V30 38 1 13 34
M  V30 39 1 14 35
M  V30 40 1 18 36
M  V30 41 1 22 37
M  V30 42 1 23 38
M  V30 43 1 26 39
M  V30 END BOND
M  V30 END CTAB
M  END
>  <Dataset>  (507) 
ChEMBL_Kinases

>  <Ligand_Instance>  (507) 
nan

>  <PDB_ID>  (507) 
nan

>  <Standardized_SMILES>  (507) 
Cn1cc(C2=C(c3nnc4ccccn34)C(=O)NC2=O)c2ccc(Cl)cc21

>  <Name>  (507) 
nan

>  <Pocket>  (507) 
nan

>  <ATP_Site>  (507) 
nan

>  <Peripheral>  (507) 
nan

>  <Num_H_Atoms_ProtBoundConf>  (507) 
nan

>  <Num_Resolved_Atoms>  (507) 
nan

>  <Num_Not_Resolved_Atoms>  (507) 
nan

$$$$
CHEMBL3398195
     RDKit          3D

  0  0  0  0  0  0  0  0  0  0999 V3000
M  V30 BEGIN CTAB
M  V30 COUNTS 39 43 0 0 0
M  V30 BEGIN ATOM
M  V30 1 C 0.135303 -4.899900 3.372324 0
M  V30 2 N 0.176273 -3.744928 2.467914 0
M  V30 3 C 1.181053 -3.316402 1.692731 0
M  V30 4 C 0.812933 -2.180005 0.987322 0
M  V30 5 C 1.638495 -1.440112 0.044902 0
M  V30 6 C 1.868544 -0.153458 -0.168375 0
M  V30 7 C 1.348058 1.026861 0.504994 0
M  V30 8 N 1.277313 1.211497 1.856395 0
M  V30 9 N 0.737150 2.391733 2.117495 0
M  V30 10 C 0.441061 3.005811 0.944255 0
M  V30 11 C -0.138887 4.240510 0.711516 0
M  V30 12 C -0.330550 4.599606 -0.628126 0
M  V30 13 C 0.044031 3.756073 -1.653159 0
M  V30 14 C 0.609914 2.559281 -1.265434 0
M  V30 15 N 0.822109 2.154878 -0.002403 0
M  V30 16 C 2.832159 -0.032933 -1.276497 0
M  V30 17 O 3.373888 0.964990 -1.857569 0
M  V30 18 N 3.198220 -1.340764 -1.755804 0
M  V30 19 C 2.444171 -2.219681 -0.921108 0
M  V30 20 O 2.531943 -3.483564 -1.076486 0
M  V30 21 C -0.485522 -1.964382 1.398468 0
M  V30 22 C -1.413480 -1.024547 1.082638 0
M  V30 23 C -2.686813 -0.975667 1.605880 0
M  V30 24 Cl -3.810434 0.298937 1.120063 0
M  V30 25 C -3.076410 -1.935665 2.517215 0
M  V30 26 C -2.154263 -2.916622 2.865387 0
M  V30 27 C -0.889700 -2.930635 2.318795 0
M  V30 28 H 1.133601 -5.335483 3.491860 0
M  V30 29 H -0.272289 -4.510960 4.333983 0
M  V30 30 H -0.591370 -5.660634 2.995170 0
M  V30 31 H 2.155197 -3.788452 1.618701 0
M  V30 32 H -0.423224 4.881288 1.539983 0
M  V30 33 H -0.782182 5.559798 -0.792493 0
M  V30 34 H -0.104259 4.033741 -2.682868 0
M  V30 35 H 0.879139 1.921895 -2.102126 0
M  V30 36 H 3.857393 -1.610755 -2.528952 0
M  V30 37 H -1.174990 -0.265965 0.383999 0
M  V30 38 H -4.093317 -1.859493 2.906140 0
M  V30 39 H -2.483292 -3.656696 3.579384 0
M  V30 END ATOM
M  V30 BEGIN BOND
M  V30 1 1 1 2
M  V30 2 1 2 3
M  V30 3 2 3 4
M  V30 4 1 4 5
M  V30 5 2 5 6
M  V30 6 1 6 7
M  V30 7 2 7 8
M  V30 8 1 8 9
M  V30 9 2 9 10
M  V30 10 1 10 11
M  V30 11 2 11 12
M  V30 12 1 12 13
M  V30 13 2 13 14
M  V30 14 1 14 15
M  V30 15 1 6 16
M  V30 16 2 16 17
M  V30 17 1 16 18
M  V30 18 1 18 19
M  V30 19 2 19 20
M  V30 20 1 4 21
M  V30 21 2 21 22
M  V30 22 1 22 23
M  V30 23 1 23 24
M  V30 24 2 23 25
M  V30 25 1 25 26
M  V30 26 2 26 27
M  V30 27 1 27 2
M  V30 28 1 19 5
M  V30 29 1 27 21
M  V30 30 1 15 7
M  V30 31 1 15 10
M  V30 32 1 1 28
M  V30 33 1 1 29
M  V30 34 1 1 30
M  V30 35 1 3 31
M  V30 36 1 11 32
M  V30 37 1 12 33
M  V30 38 1 13 34
M  V30 39 1 14 35
M  V30 40 1 18 36
M  V30 41 1 22 37
M  V30 42 1 25 38
M  V30 43 1 26 39
M  V30 END BOND
M  V30 END CTAB
M  END
>  <Dataset>  (508) 
ChEMBL_Kinases

>  <Ligand_Instance>  (508) 
nan

>  <PDB_ID>  (508) 
nan

>  <Standardized_SMILES>  (508) 
Cn1cc(C2=C(c3nnc4ccccn34)C(=O)NC2=O)c2cc(Cl)ccc21

>  <Name>  (508) 
nan

>  <Pocket>  (508) 
nan

>  <ATP_Site>  (508) 
nan

>  <Peripheral>  (508) 
nan

>  <Num_H_Atoms_ProtBoundConf>  (508) 
nan

>  <Num_Resolved_Atoms>  (508) 
nan

>  <Num_Not_Resolved_Atoms>  (508) 
nan

$$$$
CHEMBL3398194
     RDKit          3D

  0  0  0  0  0  0  0  0  0  0999 V3000
M  V30 BEGIN CTAB
M  V30 COUNTS 39 43 0 0 0
M  V30 BEGIN ATOM
M  V30 1 C 0.604590 -4.726295 3.434801 0
M  V30 2 N 0.386709 -3.608735 2.504372 0
M  V30 3 C 1.402937 -3.049677 1.855993 0
M  V30 4 C 0.944425 -2.011394 1.033675 0
M  V30 5 C 1.794043 -1.197503 0.176011 0
M  V30 6 C 1.903560 0.110299 -0.104075 0
M  V30 7 C 1.089827 1.175289 0.461068 0
M  V30 8 N 0.828206 1.137685 1.797791 0
M  V30 9 N 0.076123 2.170480 2.135839 0
M  V30 10 C -0.168974 2.898107 1.042905 0
M  V30 11 C -0.845923 4.038604 0.679448 0
M  V30 12 C -0.923532 4.562496 -0.592183 0
M  V30 13 C -0.246935 3.852659 -1.576376 0
M  V30 14 C 0.441753 2.704916 -1.246125 0
M  V30 15 N 0.458170 2.275425 0.024602 0
M  V30 16 C 2.992044 0.301450 -1.073893 0
M  V30 17 O 3.444411 1.348034 -1.610280 0
M  V30 18 N 3.588296 -0.966604 -1.413328 0
M  V30 19 C 2.832651 -1.886358 -0.628489 0
M  V30 20 O 3.099822 -3.134822 -0.685099 0
M  V30 21 C -0.398245 -2.018430 1.257299 0
M  V30 22 C -1.404484 -1.255481 0.751824 0
M  V30 23 C -2.720464 -1.451346 1.126796 0
M  V30 24 C -3.038780 -2.455761 2.047932 0
M  V30 25 F -4.299805 -2.737419 2.488532 0
M  V30 26 C -2.039751 -3.249178 2.580255 0
M  V30 27 C -0.754138 -2.996869 2.160629 0
M  V30 28 H 1.561937 -4.623398 3.980074 0
M  V30 29 H 0.533315 -5.702699 2.929752 0
M  V30 30 H -0.187982 -4.723346 4.220841 0
M  V30 31 H 2.468787 -3.318968 1.915658 0
M  V30 32 H -1.369565 4.576399 1.479572 0
M  V30 33 H -1.471253 5.465766 -0.821128 0
M  V30 34 H -0.289637 4.239217 -2.585429 0
M  V30 35 H 0.938149 2.197900 -2.059265 0
M  V30 36 H 4.362194 -1.165269 -2.057137 0
M  V30 37 H -1.187561 -0.484838 0.041796 0
M  V30 38 H -3.562633 -0.889999 0.771623 0
M  V30 39 H -2.255323 -4.041138 3.299831 0
M  V30 END ATOM
M  V30 BEGIN BOND
M  V30 1 1 1 2
M  V30 2 1 2 3
M  V30 3 2 3 4
M  V30 4 1 4 5
M  V30 5 2 5 6
M  V30 6 1 6 7
M  V30 7 2 7 8
M  V30 8 1 8 9
M  V30 9 2 9 10
M  V30 10 1 10 11
M  V30 11 2 11 12
M  V30 12 1 12 13
M  V30 13 2 13 14
M  V30 14 1 14 15
M  V30 15 1 6 16
M  V30 16 2 16 17
M  V30 17 1 16 18
M  V30 18 1 18 19
M  V30 19 2 19 20
M  V30 20 1 4 21
M  V30 21 2 21 22
M  V30 22 1 22 23
M  V30 23 2 23 24
M  V30 24 1 24 25
M  V30 25 1 24 26
M  V30 26 2 26 27
M  V30 27 1 27 2
M  V30 28 1 19 5
M  V30 29 1 27 21
M  V30 30 1 15 7
M  V30 31 1 15 10
M  V30 32 1 1 28
M  V30 33 1 1 29
M  V30 34 1 1 30
M  V30 35 1 3 31
M  V30 36 1 11 32
M  V30 37 1 12 33
M  V30 38 1 13 34
M  V30 39 1 14 35
M  V30 40 1 18 36
M  V30 41 1 22 37
M  V30 42 1 23 38
M  V30 43 1 26 39
M  V30 END BOND
M  V30 END CTAB
M  END
>  <Dataset>  (509) 
ChEMBL_Kinases

>  <Ligand_Instance>  (509) 
nan

>  <PDB_ID>  (509) 
nan

>  <Standardized_SMILES>  (509) 
Cn1cc(C2=C(c3nnc4ccccn34)C(=O)NC2=O)c2ccc(F)cc21

>  <Name>  (509) 
nan

>  <Pocket>  (509) 
nan

>  <ATP_Site>  (509) 
nan

>  <Peripheral>  (509) 
nan

>  <Num_H_Atoms_ProtBoundConf>  (509) 
nan

>  <Num_Resolved_Atoms>  (509) 
nan

>  <Num_Not_Resolved_Atoms>  (509) 
nan

$$$$
CHEMBL3398193
     RDKit          3D

  0  0  0  0  0  0  0  0  0  0999 V3000
M  V30 BEGIN CTAB
M  V30 COUNTS 39 43 0 0 0
M  V30 BEGIN ATOM
M  V30 1 C -1.260949 -5.065639 0.875677 0
M  V30 2 N -0.615171 -3.803540 1.227952 0
M  V30 3 C 0.289010 -3.140740 0.470995 0
M  V30 4 C 0.704364 -1.961648 1.109608 0
M  V30 5 C 1.679365 -1.044171 0.560702 0
M  V30 6 C 1.717536 0.256626 0.317820 0
M  V30 7 C 0.725550 1.336850 0.522472 0
M  V30 8 N -0.040098 1.711615 1.556875 0
M  V30 9 N -0.786661 2.722504 1.213965 0
M  V30 10 C -0.551398 3.064807 -0.061723 0
M  V30 11 C -1.139687 4.062532 -0.788850 0
M  V30 12 C -0.753683 4.223803 -2.088762 0
M  V30 13 C 0.204448 3.365617 -2.576351 0
M  V30 14 C 0.741040 2.388645 -1.767493 0
M  V30 15 N 0.395798 2.190080 -0.483140 0
M  V30 16 C 3.050860 0.585628 -0.239746 0
M  V30 17 O 3.585536 1.681396 -0.628152 0
M  V30 18 N 3.845852 -0.587046 -0.333700 0
M  V30 19 C 2.980227 -1.622690 0.172220 0
M  V30 20 O 3.396710 -2.824769 0.224592 0
M  V30 21 C -0.020684 -1.995332 2.279983 0
M  V30 22 C -0.040928 -1.128375 3.323337 0
M  V30 23 C -0.818855 -1.301561 4.447060 0
M  V30 24 F -0.877575 -0.460306 5.522088 0
M  V30 25 C -1.642915 -2.419411 4.552168 0
M  V30 26 C -1.614316 -3.301403 3.480444 0
M  V30 27 C -0.826771 -3.105390 2.367367 0
M  V30 28 H -0.488581 -5.852613 0.787250 0
M  V30 29 H -1.780816 -5.011259 -0.091920 0
M  V30 30 H -1.969620 -5.336182 1.669556 0
M  V30 31 H 0.662218 -3.452282 -0.503174 0
M  V30 32 H -1.887151 4.706450 -0.347692 0
M  V30 33 H -1.158588 4.978872 -2.739997 0
M  V30 34 H 0.510894 3.491778 -3.605365 0
M  V30 35 H 1.471317 1.763165 -2.246499 0
M  V30 36 H 4.829216 -0.715225 -0.681455 0
M  V30 37 H 0.580669 -0.255460 3.316678 0
M  V30 38 H -2.276755 -2.597626 5.424160 0
M  V30 39 H -2.232444 -4.188505 3.507161 0
M  V30 END ATOM
M  V30 BEGIN BOND
M  V30 1 1 1 2
M  V30 2 1 2 3
M  V30 3 2 3 4
M  V30 4 1 4 5
M  V30 5 2 5 6
M  V30 6 1 6 7
M  V30 7 2 7 8
M  V30 8 1 8 9
M  V30 9 2 9 10
M  V30 10 1 10 11
M  V30 11 2 11 12
M  V30 12 1 12 13
M  V30 13 2 13 14
M  V30 14 1 14 15
M  V30 15 1 6 16
M  V30 16 2 16 17
M  V30 17 1 16 18
M  V30 18 1 18 19
M  V30 19 2 19 20
M  V30 20 1 4 21
M  V30 21 2 21 22
M  V30 22 1 22 23
M  V30 23 1 23 24
M  V30 24 2 23 25
M  V30 25 1 25 26
M  V30 26 2 26 27
M  V30 27 1 27 2
M  V30 28 1 19 5
M  V30 29 1 27 21
M  V30 30 1 15 7
M  V30 31 1 15 10
M  V30 32 1 1 28
M  V30 33 1 1 29
M  V30 34 1 1 30
M  V30 35 1 3 31
M  V30 36 1 11 32
M  V30 37 1 12 33
M  V30 38 1 13 34
M  V30 39 1 14 35
M  V30 40 1 18 36
M  V30 41 1 22 37
M  V30 42 1 25 38
M  V30 43 1 26 39
M  V30 END BOND
M  V30 END CTAB
M  END
>  <Dataset>  (510) 
ChEMBL_Kinases

>  <Ligand_Instance>  (510) 
nan

>  <PDB_ID>  (510) 
nan

>  <Standardized_SMILES>  (510) 
Cn1cc(C2=C(c3nnc4ccccn34)C(=O)NC2=O)c2cc(F)ccc21

>  <Name>  (510) 
nan

>  <Pocket>  (510) 
nan

>  <ATP_Site>  (510) 
nan

>  <Peripheral>  (510) 
nan

>  <Num_H_Atoms_ProtBoundConf>  (510) 
nan

>  <Num_Resolved_Atoms>  (510) 
nan

>  <Num_Not_Resolved_Atoms>  (510) 
nan

$$$$
CHEMBL3398192
     RDKit          3D

  0  0  0  0  0  0  0  0  0  0999 V3000
M  V30 BEGIN CTAB
M  V30 COUNTS 42 46 0 0 0
M  V30 BEGIN ATOM
M  V30 1 C 0.505812 -5.488445 0.985545 0
M  V30 2 C -0.353789 -4.345545 0.576933 0
M  V30 3 C -1.481424 -4.642458 -0.199364 0
M  V30 4 C -2.290885 -3.623823 -0.590342 0
M  V30 5 C -1.989477 -2.333843 -0.219211 0
M  V30 6 C -0.891778 -1.989754 0.544664 0
M  V30 7 C -0.383294 -0.775661 1.031261 0
M  V30 8 C -1.080747 0.470908 0.772312 0
M  V30 9 C -0.725288 1.665760 0.265474 0
M  V30 10 C 0.517540 2.223896 -0.241127 0
M  V30 11 N 0.577556 2.706506 -1.520624 0
M  V30 12 N 1.782683 3.184842 -1.779598 0
M  V30 13 C 2.543626 3.041044 -0.708163 0
M  V30 14 C 3.844608 3.336902 -0.339672 0
M  V30 15 C 4.376622 3.065800 0.925106 0
M  V30 16 C 3.497248 2.460384 1.829648 0
M  V30 17 C 2.215371 2.180616 1.431426 0
M  V30 18 N 1.761433 2.461546 0.205474 0
M  V30 19 C -1.917580 2.545412 0.287534 0
M  V30 20 O -2.011433 3.757045 -0.104305 0
M  V30 21 N -3.033394 1.857822 0.828683 0
M  V30 22 C -2.517461 0.579438 1.128164 0
M  V30 23 O -3.311202 -0.283412 1.644753 0
M  V30 24 C 0.737491 -1.199323 1.699121 0
M  V30 25 N 0.951532 -2.521393 1.665224 0
M  V30 26 C 2.059110 -3.213321 2.289020 0
M  V30 27 C -0.065671 -3.024504 0.943547 0
M  V30 28 H 1.402946 -5.597196 0.331993 0
M  V30 29 H 0.778007 -5.458849 2.063540 0
M  V30 30 H -0.069446 -6.433113 0.872608 0
M  V30 31 H -1.676998 -5.673957 -0.466297 0
M  V30 32 H -3.150809 -3.892022 -1.188153 0
M  V30 33 H -2.687342 -1.615002 -0.592097 0
M  V30 34 H 4.504816 3.813346 -1.079848 0
M  V30 35 H 5.392810 3.308447 1.178956 0
M  V30 36 H 3.876402 2.235483 2.823784 0
M  V30 37 H 1.598157 1.739594 2.182609 0
M  V30 38 H -3.992190 2.243793 0.957288 0
M  V30 39 H 1.388911 -0.527222 2.211494 0
M  V30 40 H 2.538632 -3.918299 1.586580 0
M  V30 41 H 2.850107 -2.439526 2.525574 0
M  V30 42 H 1.793678 -3.674465 3.272202 0
M  V30 END ATOM
M  V30 BEGIN BOND
M  V30 1 1 1 2
M  V30 2 2 2 3
M  V30 3 1 3 4
M  V30 4 2 4 5
M  V30 5 1 5 6
M  V30 6 1 6 7
M  V30 7 1 7 8
M  V30 8 2 8 9
M  V30 9 1 9 10
M  V30 10 2 10 11
M  V30 11 1 11 12
M  V30 12 2 12 13
M  V30 13 1 13 14
M  V30 14 2 14 15
M  V30 15 1 15 16
M  V30 16 2 16 17
M  V30 17 1 17 18
M  V30 18 1 9 19
M  V30 19 2 19 20
M  V30 20 1 19 21
M  V30 21 1 21 22
M  V30 22 2 22 23
M  V30 23 2 7 24
M  V30 24 1 24 25
M  V30 25 1 25 26
M  V30 26 1 25 27
M  V30 27 1 27 2
M  V30 28 2 27 6
M  V30 29 1 22 8
M  V30 30 1 18 10
M  V30 31 1 18 13
M  V30 32 1 1 28
M  V30 33 1 1 29
M  V30 34 1 1 30
M  V30 35 1 3 31
M  V30 36 1 4 32
M  V30 37 1 5 33
M  V30 38 1 14 34
M  V30 39 1 15 35
M  V30 40 1 16 36
M  V30 41 1 17 37
M  V30 42 1 21 38
M  V30 43 1 24 39
M  V30 44 1 26 40
M  V30 45 1 26 41
M  V30 46 1 26 42
M  V30 END BOND
M  V30 END CTAB
M  END
>  <Dataset>  (511) 
ChEMBL_Kinases

>  <Ligand_Instance>  (511) 
nan

>  <PDB_ID>  (511) 
nan

>  <Standardized_SMILES>  (511) 
Cc1cccc2c(C3=C(c4nnc5ccccn45)C(=O)NC3=O)cn(C)c12

>  <Name>  (511) 
nan

>  <Pocket>  (511) 
nan

>  <ATP_Site>  (511) 
nan

>  <Peripheral>  (511) 
nan

>  <Num_H_Atoms_ProtBoundConf>  (511) 
nan

>  <Num_Resolved_Atoms>  (511) 
nan

>  <Num_Not_Resolved_Atoms>  (511) 
nan

$$$$
CHEMBL3409586
     RDKit          3D

  0  0  0  0  0  0  0  0  0  0999 V3000
M  V30 BEGIN CTAB
M  V30 COUNTS 53 56 0 0 0
M  V30 BEGIN ATOM
M  V30 1 O -0.650352 -2.369334 1.743753 0
M  V30 2 C -1.139594 -1.858478 0.703659 0
M  V30 3 C -0.545084 -0.809486 0.033469 0
M  V30 4 C -1.111301 -0.274163 -1.105627 0
M  V30 5 C -0.430277 0.836077 -1.767636 0
M  V30 6 C -0.914816 1.438003 -2.909357 0
M  V30 7 C -0.176968 2.476514 -3.436350 0
M  V30 8 N 0.967374 2.882262 -2.857464 0
M  V30 9 C 1.446177 2.285486 -1.726958 0
M  V30 10 N 2.659568 2.720616 -1.120164 0
M  V30 11 C 3.129131 2.046658 0.093545 0
M  V30 12 C 2.150691 2.151674 1.227055 0
M  V30 13 C 2.509277 3.304173 2.141932 0
M  V30 14 O 3.748747 3.129888 2.712856 0
M  V30 15 C 4.611134 2.311912 2.025267 0
M  V30 16 C 4.479770 2.494464 0.512670 0
M  V30 17 N 0.718824 1.272417 -1.219794 0
M  V30 18 C -2.293406 -0.831424 -1.543625 0
M  V30 19 C -2.848444 -1.894513 -0.820922 0
M  V30 20 N -2.291408 -2.412581 0.289785 0
M  V30 21 C -3.030835 -3.494554 0.864934 0 CFG=2
M  V30 22 C -4.203665 -2.897144 1.638898 0
M  V30 23 O -4.985016 -2.179920 0.745395 0
M  V30 24 C -2.234178 -4.364405 1.751830 0
M  V30 25 C -1.564800 -5.421768 1.122966 0
M  V30 26 C -0.773801 -6.342338 1.780397 0
M  V30 27 C -0.622742 -6.226794 3.146764 0
M  V30 28 C -1.271051 -5.195287 3.787383 0
M  V30 29 Cl -1.170174 -4.924333 5.525395 0
M  V30 30 C -2.053463 -4.284702 3.136922 0
M  V30 31 H 0.378233 -0.450687 0.464195 0
M  V30 32 H -1.818088 1.109499 -3.356787 0
M  V30 33 H -0.537515 2.965027 -4.333031 0
M  V30 34 H 3.170689 3.511075 -1.570094 0
M  V30 35 H 3.185893 0.954830 -0.187196 0
M  V30 36 H 2.233463 1.218732 1.832148 0
M  V30 37 H 1.108542 2.225067 0.922171 0
M  V30 38 H 1.710611 3.387776 2.908224 0
M  V30 39 H 2.541885 4.224000 1.508950 0
M  V30 40 H 4.551223 1.261163 2.316155 0
M  V30 41 H 5.651621 2.662395 2.263240 0
M  V30 42 H 4.591190 3.569273 0.291108 0
M  V30 43 H 5.283154 1.889378 0.033934 0
M  V30 44 H -2.757879 -0.436041 -2.427383 0
M  V30 45 H -3.786842 -2.260126 -1.258012 0
M  V30 46 H -3.494380 -4.132272 0.068620 0
M  V30 47 H -3.837611 -2.190222 2.401382 0
M  V30 48 H -4.845790 -3.707538 2.057456 0
M  V30 49 H -5.312667 -1.320620 1.071028 0
M  V30 50 H -1.645445 -5.566430 0.040402 0
M  V30 51 H -0.282190 -7.138002 1.237066 0
M  V30 52 H -0.020365 -6.907948 3.732022 0
M  V30 53 H -2.590985 -3.451233 3.575031 0
M  V30 END ATOM
M  V30 BEGIN BOND
M  V30 1 2 1 2
M  V30 2 1 2 3
M  V30 3 2 3 4
M  V30 4 1 4 5
M  V30 5 2 5 6
M  V30 6 1 6 7
M  V30 7 2 7 8
M  V30 8 1 8 9
M  V30 9 1 9 10
M  V30 10 1 10 11
M  V30 11 1 11 12
M  V30 12 1 12 13
M  V30 13 1 13 14
M  V30 14 1 14 15
M  V30 15 1 15 16
M  V30 16 2 9 17
M  V30 17 1 4 18
M  V30 18 2 18 19
M  V30 19 1 19 20
M  V30 20 1 20 21
M  V30 21 1 21 22
M  V30 22 1 22 23
M  V30 23 1 21 24
M  V30 24 2 24 25
M  V30 25 1 25 26
M  V30 26 2 26 27
M  V30 27 1 27 28
M  V30 28 1 28 29
M  V30 29 2 28 30
M  V30 30 1 20 2
M  V30 31 1 30 24
M  V30 32 1 17 5
M  V30 33 1 16 11
M  V30 34 1 3 31
M  V30 35 1 6 32
M  V30 36 1 7 33
M  V30 37 1 10 34
M  V30 38 1 11 35
M  V30 39 1 12 36
M  V30 40 1 12 37
M  V30 41 1 13 38
M  V30 42 1 13 39
M  V30 43 1 15 40
M  V30 44 1 15 41
M  V30 45 1 16 42
M  V30 46 1 16 43
M  V30 47 1 18 44
M  V30 48 1 19 45
M  V30 49 1 21 46 CFG=3
M  V30 50 1 22 47
M  V30 51 1 22 48
M  V30 52 1 23 49
M  V30 53 1 25 50
M  V30 54 1 26 51
M  V30 55 1 27 52
M  V30 56 1 30 53
M  V30 END BOND
M  V30 END CTAB
M  END
>  <Dataset>  (512) 
ChEMBL_Kinases

>  <Ligand_Instance>  (512) 
nan

>  <PDB_ID>  (512) 
nan

>  <Standardized_SMILES>  (512) 
O=c1cc(-c2ccnc(NC3CCOCC3)n2)ccn1[C@H](CO)c1cccc(Cl)c1

>  <Name>  (512) 
nan

>  <Pocket>  (512) 
nan

>  <ATP_Site>  (512) 
nan

>  <Peripheral>  (512) 
nan

>  <Num_H_Atoms_ProtBoundConf>  (512) 
nan

>  <Num_Resolved_Atoms>  (512) 
nan

>  <Num_Not_Resolved_Atoms>  (512) 
nan

$$$$
CHEMBL3393463
     RDKit          3D

  0  0  0  0  0  0  0  0  0  0999 V3000
M  V30 BEGIN CTAB
M  V30 COUNTS 46 51 0 0 0
M  V30 BEGIN ATOM
M  V30 1 O 2.348700 -0.854312 1.385913 0
M  V30 2 C 1.412887 -1.641800 1.637180 0
M  V30 3 C 0.676329 -1.435866 2.911868 0
M  V30 4 C 0.441856 -2.792378 3.501263 0
M  V30 5 C -0.157087 -3.800723 2.586369 0
M  V30 6 C 0.309797 -3.722084 1.198719 0
M  V30 7 C 1.044213 -2.727215 0.725168 0
M  V30 8 C 1.557787 -2.569013 -0.659935 0
M  V30 9 C 1.179106 -1.263184 -1.247111 0
M  V30 10 C 1.801082 -0.412478 -2.138973 0
M  V30 11 C 0.946018 0.659458 -2.301881 0
M  V30 12 C -0.155868 0.419438 -1.507040 0
M  V30 13 S -1.579198 1.516766 -1.352467 0
M  V30 14 C -1.260839 2.667218 -0.001832 0
M  V30 15 N -0.674947 3.865993 -0.037286 0
M  V30 16 C -0.631007 4.408768 1.202292 0
M  V30 17 C -0.137814 5.606901 1.690951 0
M  V30 18 C -0.241337 5.889733 3.054049 0
M  V30 19 C -0.835455 4.961236 3.877527 0
M  V30 20 C -1.312396 3.784812 3.356271 0
M  V30 21 C -1.238639 3.449383 2.017812 0
M  V30 22 N -1.620328 2.390951 1.279803 0
M  V30 23 O 0.023715 -0.722927 -0.904440 0
M  V30 24 C 1.109829 -3.724452 -1.449939 0
M  V30 25 N 1.392726 -3.909246 -2.748514 0
M  V30 26 N 0.846163 -5.050751 -3.184539 0
M  V30 27 C 0.189186 -5.626742 -2.144160 0
M  V30 28 C 0.347793 -4.807498 -1.058627 0
M  V30 29 N -0.046609 -4.775696 0.307445 0
M  V30 30 H 1.282585 -0.859096 3.635190 0
M  V30 31 H -0.282698 -0.910711 2.775412 0
M  V30 32 H 1.431836 -3.136164 3.912487 0
M  V30 33 H -0.232459 -2.726128 4.400189 0
M  V30 34 H -1.273430 -3.821980 2.625052 0
M  V30 35 H 0.139379 -4.825416 2.955779 0
M  V30 36 H 2.672920 -2.664199 -0.570035 0
M  V30 37 H 2.769005 -0.650332 -2.559104 0
M  V30 38 H 1.165148 1.497284 -2.949587 0
M  V30 39 H 0.323060 6.309976 1.004996 0
M  V30 40 H 0.136986 6.815835 3.448295 0
M  V30 41 H -0.934228 5.145584 4.943420 0
M  V30 42 H -1.780900 3.064172 4.037234 0
M  V30 43 H -2.099894 1.554626 1.706522 0
M  V30 44 H 0.856957 -5.510123 -4.122937 0
M  V30 45 H -0.391686 -6.540596 -2.019388 0
M  V30 46 H -0.629952 -5.573492 0.668490 0
M  V30 END ATOM
M  V30 BEGIN BOND
M  V30 1 2 1 2
M  V30 2 1 2 3
M  V30 3 1 3 4
M  V30 4 1 4 5
M  V30 5 1 5 6
M  V30 6 2 6 7
M  V30 7 1 7 8
M  V30 8 1 8 9
M  V30 9 2 9 10
M  V30 10 1 10 11
M  V30 11 2 11 12
M  V30 12 1 12 13
M  V30 13 1 13 14
M  V30 14 2 14 15
M  V30 15 1 15 16
M  V30 16 2 16 17
M  V30 17 1 17 18
M  V30 18 2 18 19
M  V30 19 1 19 20
M  V30 20 2 20 21
M  V30 21 1 21 22
M  V30 22 1 12 23
M  V30 23 1 8 24
M  V30 24 2 24 25
M  V30 25 1 25 26
M  V30 26 1 26 27
M  V30 27 2 27 28
M  V30 28 1 28 29
M  V30 29 1 7 2
M  V30 30 1 23 9
M  V30 31 1 28 24
M  V30 32 1 29 6
M  V30 33 1 22 14
M  V30 34 1 21 16
M  V30 35 1 3 30
M  V30 36 1 3 31
M  V30 37 1 4 32
M  V30 38 1 4 33
M  V30 39 1 5 34
M  V30 40 1 5 35
M  V30 41 1 8 36
M  V30 42 1 10 37
M  V30 43 1 11 38
M  V30 44 1 17 39
M  V30 45 1 18 40
M  V30 46 1 19 41
M  V30 47 1 20 42
M  V30 48 1 22 43
M  V30 49 1 26 44
M  V30 50 1 27 45
M  V30 51 1 29 46
M  V30 END BOND
M  V30 END CTAB
M  END
>  <Dataset>  (513) 
ChEMBL_Kinases

>  <Ligand_Instance>  (513) 
nan

>  <PDB_ID>  (513) 
nan

>  <Standardized_SMILES>  (513) 
O=C1CCCC2=C1C(c1ccc(Sc3nc4ccccc4[nH]3)o1)c1n[nH]cc1N2

>  <Name>  (513) 
nan

>  <Pocket>  (513) 
nan

>  <ATP_Site>  (513) 
nan

>  <Peripheral>  (513) 
nan

>  <Num_H_Atoms_ProtBoundConf>  (513) 
nan

>  <Num_Resolved_Atoms>  (513) 
nan

>  <Num_Not_Resolved_Atoms>  (513) 
nan

$$$$
CHEMBL3393600
     RDKit          3D

  0  0  0  0  0  0  0  0  0  0999 V3000
M  V30 BEGIN CTAB
M  V30 COUNTS 48 51 0 0 0
M  V30 BEGIN ATOM
M  V30 1 C 2.812349 -7.346585 1.810030 0
M  V30 2 O 2.743860 -6.027187 2.293833 0
M  V30 3 C 1.545960 -5.326446 2.276595 0
M  V30 4 C 0.299337 -5.756496 1.819644 0
M  V30 5 C -0.763057 -4.880549 1.900264 0
M  V30 6 C -0.672799 -3.619496 2.398560 0
M  V30 7 C -1.836760 -2.706463 2.466596 0
M  V30 8 C -1.932779 -1.919502 1.212238 0
M  V30 9 O -0.909966 -2.607745 0.941087 0
M  V30 10 N -2.942747 -0.949865 0.965955 0
M  V30 11 C -2.739511 -0.378904 -0.343839 0
M  V30 12 C -1.963996 0.735636 -0.592134 0
M  V30 13 C -1.861005 1.169963 -1.910251 0
M  V30 14 C -1.091203 2.277463 -2.170554 0
M  V30 15 C -1.015816 2.673325 -3.494533 0
M  V30 16 C -0.186456 3.861442 -3.757488 0
M  V30 17 C 0.051266 4.973179 -2.954423 0
M  V30 18 N 0.877895 5.799162 -3.620856 0
M  V30 19 N 1.188876 5.290130 -4.804236 0
M  V30 20 C 2.065984 5.959204 -5.746278 0
M  V30 21 C 0.548173 4.091584 -4.923025 0
M  V30 22 C -1.657568 2.027883 -4.532712 0
M  V30 23 C -2.408512 0.924937 -4.176926 0
M  V30 24 C -2.543847 0.453989 -2.883437 0
M  V30 25 C -3.313655 -0.656783 -2.616382 0
M  V30 26 N -3.398504 -1.060808 -1.322787 0
M  V30 27 C 0.565000 -3.164972 2.862806 0
M  V30 28 C 1.660689 -4.032144 2.793452 0
M  V30 29 H 2.911166 -7.421763 0.717251 0
M  V30 30 H 1.889127 -7.926351 2.070186 0
M  V30 31 H 3.639230 -7.909613 2.312949 0
M  V30 32 H 0.302024 -6.765003 1.438842 0
M  V30 33 H -1.706106 -5.286572 1.524530 0
M  V30 34 H -2.737102 -3.306953 2.640568 0
M  V30 35 H -1.721530 -1.984445 3.305984 0
M  V30 36 H -3.603190 -0.859194 1.769788 0
M  V30 37 H -1.472490 1.216294 0.265382 0
M  V30 38 H -0.594496 2.775103 -1.360245 0
M  V30 39 H -0.424665 5.014798 -1.982450 0
M  V30 40 H 3.002431 6.261707 -5.249810 0
M  V30 41 H 2.341185 5.203457 -6.524052 0
M  V30 42 H 1.507135 6.803793 -6.192452 0
M  V30 43 H 0.621003 3.451930 -5.791960 0
M  V30 44 H -1.580109 2.361673 -5.561198 0
M  V30 45 H -2.939783 0.368550 -4.934962 0
M  V30 46 H -3.836094 -1.192423 -3.414049 0
M  V30 47 H 0.656313 -2.163445 3.263351 0
M  V30 48 H 2.589791 -3.617434 3.170107 0
M  V30 END ATOM
M  V30 BEGIN BOND
M  V30 1 1 1 2
M  V30 2 1 2 3
M  V30 3 2 3 4
M  V30 4 1 4 5
M  V30 5 2 5 6
M  V30 6 1 6 7
M  V30 7 1 7 8
M  V30 8 2 8 9
M  V30 9 1 8 10
M  V30 10 1 10 11
M  V30 11 2 11 12
M  V30 12 1 12 13
M  V30 13 2 13 14
M  V30 14 1 14 15
M  V30 15 1 15 16
M  V30 16 1 16 17
M  V30 17 2 17 18
M  V30 18 1 18 19
M  V30 19 1 19 20
M  V30 20 1 19 21
M  V30 21 2 15 22
M  V30 22 1 22 23
M  V30 23 2 23 24
M  V30 24 1 24 25
M  V30 25 2 25 26
M  V30 26 1 6 27
M  V30 27 2 27 28
M  V30 28 1 28 3
M  V30 29 1 26 11
M  V30 30 1 24 13
M  V30 31 2 21 16
M  V30 32 1 1 29
M  V30 33 1 1 30
M  V30 34 1 1 31
M  V30 35 1 4 32
M  V30 36 1 5 33
M  V30 37 1 7 34
M  V30 38 1 7 35
M  V30 39 1 10 36
M  V30 40 1 12 37
M  V30 41 1 14 38
M  V30 42 1 17 39
M  V30 43 1 20 40
M  V30 44 1 20 41
M  V30 45 1 20 42
M  V30 46 1 21 43
M  V30 47 1 22 44
M  V30 48 1 23 45
M  V30 49 1 25 46
M  V30 50 1 27 47
M  V30 51 1 28 48
M  V30 END BOND
M  V30 END CTAB
M  END
>  <Dataset>  (514) 
ChEMBL_Kinases

>  <Ligand_Instance>  (514) 
nan

>  <PDB_ID>  (514) 
nan

>  <Standardized_SMILES>  (514) 
COc1ccc(CC(=O)Nc2cc3cc(-c4cnn(C)c4)ccc3cn2)cc1

>  <Name>  (514) 
nan

>  <Pocket>  (514) 
nan

>  <ATP_Site>  (514) 
nan

>  <Peripheral>  (514) 
nan

>  <Num_H_Atoms_ProtBoundConf>  (514) 
nan

>  <Num_Resolved_Atoms>  (514) 
nan

>  <Num_Not_Resolved_Atoms>  (514) 
nan

$$$$
CHEMBL3394757
     RDKit          3D

  0  0  0  0  0  0  0  0  0  0999 V3000
M  V30 BEGIN CTAB
M  V30 COUNTS 59 62 0 0 0
M  V30 BEGIN ATOM
M  V30 1 O -1.826704 -2.747476 3.619870 0
M  V30 2 C -1.882456 -3.267672 2.463800 0
M  V30 3 C -2.943513 -2.786894 1.575717 0
M  V30 4 C -2.733308 -1.343437 1.115854 0
M  V30 5 C -1.429886 -1.314651 0.388173 0
M  V30 6 C -0.257283 -0.837636 0.865422 0
M  V30 7 N 0.801874 -0.908550 0.042060 0
M  V30 8 C 2.197027 -0.569458 0.060088 0
M  V30 9 C 2.631108 0.709788 -0.474227 0
M  V30 10 O 2.167071 0.721837 -1.838360 0
M  V30 11 C 2.438128 2.024649 0.129331 0
M  V30 12 N 1.131890 2.541052 0.319301 0
M  V30 13 C 1.237513 4.038346 0.347253 0
M  V30 14 C -0.091534 4.600495 0.798583 0
M  V30 15 C -1.155631 3.531743 0.990523 0
M  V30 16 C -0.604391 2.557410 2.029929 0
M  V30 17 C 0.826472 2.270292 1.787676 0
M  V30 18 C 0.224492 -1.492040 -1.055756 0
M  V30 19 C 0.699623 -1.881958 -2.289353 0
M  V30 20 C -0.077473 -2.467012 -3.262761 0
M  V30 21 C -1.414425 -2.698866 -3.040938 0
M  V30 22 C -1.961642 -2.333971 -1.818029 0
M  V30 23 C -1.121195 -1.754234 -0.893142 0
M  V30 24 C -0.912790 -4.286453 2.097367 0
M  V30 25 C -0.913283 -4.863141 0.852465 0
M  V30 26 C -0.021692 -5.847059 0.439982 0
M  V30 27 C 0.931949 -6.279873 1.335535 0
M  V30 28 C 0.944710 -5.706287 2.597928 0
M  V30 29 C 0.040419 -4.730230 2.968691 0
M  V30 30 H -3.110126 -3.368220 0.671743 0
M  V30 31 H -3.913232 -2.832266 2.146275 0
M  V30 32 H -2.664964 -0.654011 1.966948 0
M  V30 33 H -3.571569 -1.080996 0.422875 0
M  V30 34 H -0.191539 -0.442779 1.866651 0
M  V30 35 H 2.645088 -0.740462 1.088687 0
M  V30 36 H 2.733200 -1.367747 -0.542331 0
M  V30 37 H 3.762423 0.605870 -0.638349 0
M  V30 38 H 2.809148 0.334731 -2.448525 0
M  V30 39 H 3.005613 2.128238 1.105182 0
M  V30 40 H 3.035739 2.753011 -0.525426 0
M  V30 41 H 1.608566 4.399844 -0.598401 0
M  V30 42 H 1.972165 4.261406 1.141406 0
M  V30 43 H -0.017250 5.171632 1.742677 0
M  V30 44 H -0.426209 5.321047 -0.005405 0
M  V30 45 H -2.076959 4.020671 1.318595 0
M  V30 46 H -1.301598 3.043640 0.006125 0
M  V30 47 H -0.663738 3.141413 3.000420 0
M  V30 48 H -1.271583 1.695729 2.154075 0
M  V30 49 H 1.489009 2.987112 2.365498 0
M  V30 50 H 1.186055 1.290459 1.984909 0
M  V30 51 H 1.721019 -1.787800 -2.619485 0
M  V30 52 H 0.267736 -2.783122 -4.237685 0
M  V30 53 H -2.101057 -3.146770 -3.736602 0
M  V30 54 H -3.005657 -2.493488 -1.585675 0
M  V30 55 H -1.612474 -4.596674 0.080322 0
M  V30 56 H -0.037482 -6.290644 -0.544342 0
M  V30 57 H 1.638324 -7.043022 1.039816 0
M  V30 58 H 1.711865 -6.082324 3.262282 0
M  V30 59 H 0.123282 -4.338128 3.974308 0
M  V30 END ATOM
M  V30 BEGIN BOND
M  V30 1 2 1 2
M  V30 2 1 2 3
M  V30 3 1 3 4
M  V30 4 1 4 5
M  V30 5 2 5 6
M  V30 6 1 6 7
M  V30 7 1 7 8
M  V30 8 1 8 9
M  V30 9 1 9 10
M  V30 10 1 9 11
M  V30 11 1 11 12
M  V30 12 1 12 13
M  V30 13 1 13 14
M  V30 14 1 14 15
M  V30 15 1 15 16
M  V30 16 1 16 17
M  V30 17 1 7 18
M  V30 18 2 18 19
M  V30 19 1 19 20
M  V30 20 2 20 21
M  V30 21 1 21 22
M  V30 22 2 22 23
M  V30 23 1 2 24
M  V30 24 2 24 25
M  V30 25 1 25 26
M  V30 26 2 26 27
M  V30 27 1 27 28
M  V30 28 2 28 29
M  V30 29 1 23 5
M  V30 30 1 29 24
M  V30 31 1 17 12
M  V30 32 1 23 18
M  V30 33 1 3 30
M  V30 34 1 3 31
M  V30 35 1 4 32
M  V30 36 1 4 33
M  V30 37 1 6 34
M  V30 38 1 8 35
M  V30 39 1 8 36
M  V30 40 1 9 37
M  V30 41 1 10 38
M  V30 42 1 11 39
M  V30 43 1 11 40
M  V30 44 1 13 41
M  V30 45 1 13 42
M  V30 46 1 14 43
M  V30 47 1 14 44
M  V30 48 1 15 45
M  V30 49 1 15 46
M  V30 50 1 16 47
M  V30 51 1 16 48
M  V30 52 1 17 49
M  V30 53 1 17 50
M  V30 54 1 19 51
M  V30 55 1 20 52
M  V30 56 1 21 53
M  V30 57 1 22 54
M  V30 58 1 25 55
M  V30 59 1 26 56
M  V30 60 1 27 57
M  V30 61 1 28 58
M  V30 62 1 29 59
M  V30 END BOND
M  V30 END CTAB
M  END
>  <Dataset>  (515) 
ChEMBL_Kinases

>  <Ligand_Instance>  (515) 
nan

>  <PDB_ID>  (515) 
nan

>  <Standardized_SMILES>  (515) 
O=C(CCc1cn(CC(O)CN2CCCCC2)c2ccccc12)c1ccccc1

>  <Name>  (515) 
nan

>  <Pocket>  (515) 
nan

>  <ATP_Site>  (515) 
nan

>  <Peripheral>  (515) 
nan

>  <Num_H_Atoms_ProtBoundConf>  (515) 
nan

>  <Num_Resolved_Atoms>  (515) 
nan

>  <Num_Not_Resolved_Atoms>  (515) 
nan

$$$$
CHEMBL3394758
     RDKit          3D

  0  0  0  0  0  0  0  0  0  0999 V3000
M  V30 BEGIN CTAB
M  V30 COUNTS 43 44 0 0 0
M  V30 BEGIN ATOM
M  V30 1 C -0.131117 -3.203946 3.361051 0
M  V30 2 C -0.435131 -2.883977 1.941475 0
M  V30 3 N 0.719757 -2.551097 1.123535 0
M  V30 4 C 1.567271 -3.660248 0.907905 0
M  V30 5 C 0.939796 -4.733865 0.024793 0
M  V30 6 C 1.260988 -1.383191 1.716192 0
M  V30 7 C 2.443726 -0.741122 1.110746 0
M  V30 8 O 3.592351 -1.501874 1.048067 0
M  V30 9 C 2.166932 -0.045139 -0.213942 0
M  V30 10 N 1.182854 0.995867 -0.075707 0
M  V30 11 C 1.490544 2.256954 0.270714 0
M  V30 12 C 0.385732 3.077727 0.354089 0
M  V30 13 C 0.328834 4.492714 0.699825 0
M  V30 14 O 1.328351 5.198344 0.983771 0
M  V30 15 O -0.926691 5.109056 0.716593 0
M  V30 16 C -0.666765 2.219571 0.026157 0
M  V30 17 C -2.027229 2.438921 -0.072310 0
M  V30 18 C -2.905735 1.431665 -0.423042 0
M  V30 19 C -2.377418 0.171285 -0.678915 0
M  V30 20 C -1.021094 -0.039734 -0.578793 0
M  V30 21 C -0.152623 0.965770 -0.228994 0
M  V30 22 H -0.845712 -3.991066 3.748115 0
M  V30 23 H -0.363858 -2.320893 4.027939 0
M  V30 24 H 0.906096 -3.477487 3.548168 0
M  V30 25 H -1.053438 -1.929735 1.925255 0
M  V30 26 H -1.121148 -3.619671 1.457351 0
M  V30 27 H 1.764152 -4.177898 1.873945 0
M  V30 28 H 2.563201 -3.444110 0.492902 0
M  V30 29 H 1.137021 -4.402356 -1.020451 0
M  V30 30 H 1.501749 -5.682206 0.170210 0
M  V30 31 H -0.114482 -4.858353 0.252290 0
M  V30 32 H 0.437040 -0.646519 1.810582 0
M  V30 33 H 1.462810 -1.667174 2.801709 0
M  V30 34 H 2.712377 0.122063 1.797317 0
M  V30 35 H 4.037166 -1.553109 1.934199 0
M  V30 36 H 1.807398 -0.757722 -0.982090 0
M  V30 37 H 3.093482 0.406261 -0.614829 0
M  V30 38 H 2.494426 2.659733 0.480110 0
M  V30 39 H -1.134349 5.939554 1.273406 0
M  V30 40 H -2.453717 3.416233 0.124049 0
M  V30 41 H -3.965760 1.648347 -0.488525 0
M  V30 42 H -3.030024 -0.644489 -0.957019 0
M  V30 43 H -0.622798 -1.012465 -0.779049 0
M  V30 END ATOM
M  V30 BEGIN BOND
M  V30 1 1 1 2
M  V30 2 1 2 3
M  V30 3 1 3 4
M  V30 4 1 4 5
M  V30 5 1 3 6
M  V30 6 1 6 7
M  V30 7 1 7 8
M  V30 8 1 7 9
M  V30 9 1 9 10
M  V30 10 1 10 11
M  V30 11 2 11 12
M  V30 12 1 12 13
M  V30 13 2 13 14
M  V30 14 1 13 15
M  V30 15 1 12 16
M  V30 16 2 16 17
M  V30 17 1 17 18
M  V30 18 2 18 19
M  V30 19 1 19 20
M  V30 20 2 20 21
M  V30 21 1 21 10
M  V30 22 1 21 16
M  V30 23 1 1 22
M  V30 24 1 1 23
M  V30 25 1 1 24
M  V30 26 1 2 25
M  V30 27 1 2 26
M  V30 28 1 4 27
M  V30 29 1 4 28
M  V30 30 1 5 29
M  V30 31 1 5 30
M  V30 32 1 5 31
M  V30 33 1 6 32
M  V30 34 1 6 33
M  V30 35 1 7 34
M  V30 36 1 8 35
M  V30 37 1 9 36
M  V30 38 1 9 37
M  V30 39 1 11 38
M  V30 40 1 15 39
M  V30 41 1 17 40
M  V30 42 1 18 41
M  V30 43 1 19 42
M  V30 44 1 20 43
M  V30 END BOND
M  V30 END CTAB
M  END
>  <Dataset>  (516) 
ChEMBL_Kinases

>  <Ligand_Instance>  (516) 
nan

>  <PDB_ID>  (516) 
nan

>  <Standardized_SMILES>  (516) 
CCN(CC)CC(O)Cn1cc(C(=O)O)c2ccccc21

>  <Name>  (516) 
nan

>  <Pocket>  (516) 
nan

>  <ATP_Site>  (516) 
nan

>  <Peripheral>  (516) 
nan

>  <Num_H_Atoms_ProtBoundConf>  (516) 
nan

>  <Num_Resolved_Atoms>  (516) 
nan

>  <Num_Not_Resolved_Atoms>  (516) 
nan

$$$$
CHEMBL3394759
     RDKit          3D

  0  0  0  0  0  0  0  0  0  0999 V3000
M  V30 BEGIN CTAB
M  V30 COUNTS 44 46 0 0 0
M  V30 BEGIN ATOM
M  V30 1 O 1.276975 -2.309022 5.270229 0
M  V30 2 C 0.249401 -2.083490 4.574190 0
M  V30 3 O -0.885418 -1.754275 5.300979 0
M  V30 4 C 0.148511 -2.135434 3.123436 0
M  V30 5 C 1.178317 -2.444541 2.270827 0
M  V30 6 N 0.829008 -2.425366 0.954402 0
M  V30 7 C 1.716992 -2.695938 -0.147165 0
M  V30 8 C 2.497130 -1.508438 -0.621915 0
M  V30 9 O 3.285637 -1.021573 0.413713 0
M  V30 10 C 1.737986 -0.469603 -1.347173 0
M  V30 11 N 0.834905 0.332458 -0.600187 0
M  V30 12 C 0.196325 1.279572 -1.482582 0
M  V30 13 C 0.708113 2.690593 -1.321536 0
M  V30 14 C 0.507582 3.216001 0.080212 0
M  V30 15 C 0.408132 2.023491 1.030535 0
M  V30 16 C 1.427292 1.015130 0.518208 0
M  V30 17 C -0.472378 -2.090187 1.002333 0
M  V30 18 C -1.404222 -1.913915 0.010273 0
M  V30 19 C -2.697912 -1.576023 0.285696 0
M  V30 20 C -3.154904 -1.389673 1.571443 0
M  V30 21 C -2.227570 -1.564383 2.577873 0
M  V30 22 C -0.924676 -1.905670 2.288634 0
M  V30 23 H -1.112088 -2.195867 6.200969 0
M  V30 24 H 2.193073 -2.686235 2.612130 0
M  V30 25 H 1.092575 -3.139901 -0.959230 0
M  V30 26 H 2.453745 -3.447743 0.237199 0
M  V30 27 H 3.250671 -1.918363 -1.377487 0
M  V30 28 H 3.658641 -1.711936 0.982314 0
M  V30 29 H 1.101785 -1.014660 -2.109226 0
M  V30 30 H 2.383038 0.189707 -1.984662 0
M  V30 31 H -0.888160 1.283877 -1.337737 0
M  V30 32 H 0.393366 1.012607 -2.543526 0
M  V30 33 H 1.753705 2.824324 -1.662663 0
M  V30 34 H 0.074129 3.317376 -1.985464 0
M  V30 35 H -0.370579 3.882484 0.157837 0
M  V30 36 H 1.398024 3.791816 0.406422 0
M  V30 37 H 0.610406 2.322055 2.068782 0
M  V30 38 H -0.625803 1.617487 0.925797 0
M  V30 39 H 1.680322 0.384686 1.369680 0
M  V30 40 H 2.330444 1.591263 0.226022 0
M  V30 41 H -1.081952 -2.051978 -1.014284 0
M  V30 42 H -3.426654 -1.438925 -0.503782 0
M  V30 43 H -4.175131 -1.121999 1.805298 0
M  V30 44 H -2.530897 -1.430608 3.610771 0
M  V30 END ATOM
M  V30 BEGIN BOND
M  V30 1 2 1 2
M  V30 2 1 2 3
M  V30 3 1 2 4
M  V30 4 2 4 5
M  V30 5 1 5 6
M  V30 6 1 6 7
M  V30 7 1 7 8
M  V30 8 1 8 9
M  V30 9 1 8 10
M  V30 10 1 10 11
M  V30 11 1 11 12
M  V30 12 1 12 13
M  V30 13 1 13 14
M  V30 14 1 14 15
M  V30 15 1 15 16
M  V30 16 1 6 17
M  V30 17 2 17 18
M  V30 18 1 18 19
M  V30 19 2 19 20
M  V30 20 1 20 21
M  V30 21 2 21 22
M  V30 22 1 22 4
M  V30 23 1 16 11
M  V30 24 1 22 17
M  V30 25 1 3 23
M  V30 26 1 5 24
M  V30 27 1 7 25
M  V30 28 1 7 26
M  V30 29 1 8 27
M  V30 30 1 9 28
M  V30 31 1 10 29
M  V30 32 1 10 30
M  V30 33 1 12 31
M  V30 34 1 12 32
M  V30 35 1 13 33
M  V30 36 1 13 34
M  V30 37 1 14 35
M  V30 38 1 14 36
M  V30 39 1 15 37
M  V30 40 1 15 38
M  V30 41 1 16 39
M  V30 42 1 16 40
M  V30 43 1 18 41
M  V30 44 1 19 42
M  V30 45 1 20 43
M  V30 46 1 21 44
M  V30 END BOND
M  V30 END CTAB
M  END
>  <Dataset>  (517) 
ChEMBL_Kinases

>  <Ligand_Instance>  (517) 
nan

>  <PDB_ID>  (517) 
nan

>  <Standardized_SMILES>  (517) 
O=C(O)c1cn(CC(O)CN2CCCCC2)c2ccccc12

>  <Name>  (517) 
nan

>  <Pocket>  (517) 
nan

>  <ATP_Site>  (517) 
nan

>  <Peripheral>  (517) 
nan

>  <Num_H_Atoms_ProtBoundConf>  (517) 
nan

>  <Num_Resolved_Atoms>  (517) 
nan

>  <Num_Not_Resolved_Atoms>  (517) 
nan

$$$$
CHEMBL3394760
     RDKit          3D

  0  0  0  0  0  0  0  0  0  0999 V3000
M  V30 BEGIN CTAB
M  V30 COUNTS 41 43 0 0 0
M  V30 BEGIN ATOM
M  V30 1 O 1.950263 -2.989066 4.666193 0
M  V30 2 C 0.808063 -2.511549 4.449385 0
M  V30 3 O 0.318372 -2.232419 5.741352 0
M  V30 4 C 0.014773 -2.235616 3.255701 0
M  V30 5 C 0.502129 -2.512782 1.994555 0
M  V30 6 N -0.411975 -2.171163 1.070605 0
M  V30 7 C -0.354354 -2.275761 -0.390875 0
M  V30 8 C 0.198392 -1.078857 -1.061183 0
M  V30 9 O 0.217018 -1.261956 -2.453760 0
M  V30 10 C 1.578949 -0.692088 -0.652754 0
M  V30 11 N 1.877835 0.537764 -1.363776 0
M  V30 12 C 1.099312 1.646477 -0.923744 0
M  V30 13 C 1.972748 2.838561 -1.197593 0
M  V30 14 C 3.345090 2.292143 -0.813944 0
M  V30 15 C 3.265068 0.890675 -1.381640 0
M  V30 16 C -1.445729 -1.691696 1.746206 0
M  V30 17 C -2.685367 -1.181892 1.341605 0
M  V30 18 C -3.608387 -0.735101 2.280851 0
M  V30 19 C -3.351220 -0.772267 3.631802 0
M  V30 20 C -2.140750 -1.268652 4.053609 0
M  V30 21 C -1.235494 -1.707939 3.109772 0
M  V30 22 H 0.291711 -2.909473 6.486898 0
M  V30 23 H 1.468279 -2.941018 1.730699 0
M  V30 24 H 0.296648 -3.153394 -0.678978 0
M  V30 25 H -1.349357 -2.498218 -0.828727 0
M  V30 26 H -0.507835 -0.209228 -0.920658 0
M  V30 27 H 1.154256 -1.436929 -2.767378 0
M  V30 28 H 2.294655 -1.474201 -0.995460 0
M  V30 29 H 1.719222 -0.592736 0.436036 0
M  V30 30 H 0.781845 1.570032 0.145890 0
M  V30 31 H 0.187169 1.702600 -1.578942 0
M  V30 32 H 1.708160 3.740156 -0.615032 0
M  V30 33 H 1.901336 3.089462 -2.270643 0
M  V30 34 H 3.411759 2.333287 0.281316 0
M  V30 35 H 4.157685 2.865343 -1.301956 0
M  V30 36 H 3.557820 1.000363 -2.464294 0
M  V30 37 H 3.956356 0.176530 -0.941574 0
M  V30 38 H -2.904470 -1.145129 0.284549 0
M  V30 39 H -4.569182 -0.339826 1.963565 0
M  V30 40 H -4.055217 -0.429875 4.374840 0
M  V30 41 H -1.862739 -1.330614 5.112564 0
M  V30 END ATOM
M  V30 BEGIN BOND
M  V30 1 2 1 2
M  V30 2 1 2 3
M  V30 3 1 2 4
M  V30 4 2 4 5
M  V30 5 1 5 6
M  V30 6 1 6 7
M  V30 7 1 7 8
M  V30 8 1 8 9
M  V30 9 1 8 10
M  V30 10 1 10 11
M  V30 11 1 11 12
M  V30 12 1 12 13
M  V30 13 1 13 14
M  V30 14 1 14 15
M  V30 15 1 6 16
M  V30 16 2 16 17
M  V30 17 1 17 18
M  V30 18 2 18 19
M  V30 19 1 19 20
M  V30 20 2 20 21
M  V30 21 1 21 4
M  V30 22 1 15 11
M  V30 23 1 21 16
M  V30 24 1 3 22
M  V30 25 1 5 23
M  V30 26 1 7 24
M  V30 27 1 7 25
M  V30 28 1 8 26
M  V30 29 1 9 27
M  V30 30 1 10 28
M  V30 31 1 10 29
M  V30 32 1 12 30
M  V30 33 1 12 31
M  V30 34 1 13 32
M  V30 35 1 13 33
M  V30 36 1 14 34
M  V30 37 1 14 35
M  V30 38 1 15 36
M  V30 39 1 15 37
M  V30 40 1 17 38
M  V30 41 1 18 39
M  V30 42 1 19 40
M  V30 43 1 20 41
M  V30 END BOND
M  V30 END CTAB
M  END
>  <Dataset>  (518) 
ChEMBL_Kinases

>  <Ligand_Instance>  (518) 
nan

>  <PDB_ID>  (518) 
nan

>  <Standardized_SMILES>  (518) 
O=C(O)c1cn(CC(O)CN2CCCC2)c2ccccc12

>  <Name>  (518) 
nan

>  <Pocket>  (518) 
nan

>  <ATP_Site>  (518) 
nan

>  <Peripheral>  (518) 
nan

>  <Num_H_Atoms_ProtBoundConf>  (518) 
nan

>  <Num_Resolved_Atoms>  (518) 
nan

>  <Num_Not_Resolved_Atoms>  (518) 
nan

$$$$
CHEMBL3394761
     RDKit          3D

  0  0  0  0  0  0  0  0  0  0999 V3000
M  V30 BEGIN CTAB
M  V30 COUNTS 46 48 0 0 0
M  V30 BEGIN ATOM
M  V30 1 C -3.317222 -3.317640 1.690123 0
M  V30 2 N -2.812383 -1.997626 2.033916 0
M  V30 3 C -1.364713 -2.139326 2.118626 0
M  V30 4 C -0.864701 -2.061558 0.682494 0
M  V30 5 N -0.715759 -0.639882 0.300103 0
M  V30 6 C -0.674375 -0.597933 -1.149887 0
M  V30 7 C -0.351219 0.742060 -1.721560 0
M  V30 8 O -1.194957 1.772208 -1.403226 0
M  V30 9 C 1.115858 1.109795 -1.659638 0
M  V30 10 N 1.658563 1.107147 -0.318910 0
M  V30 11 C 1.638753 2.068906 0.653111 0
M  V30 12 C 2.280113 1.522674 1.740087 0
M  V30 13 C 2.460852 2.260440 3.009139 0
M  V30 14 O 2.100594 3.429150 3.306029 0
M  V30 15 O 3.089789 1.756734 4.136010 0
M  V30 16 C 2.711053 0.233317 1.485919 0
M  V30 17 C 3.394076 -0.693949 2.238898 0
M  V30 18 C 3.705513 -1.939452 1.683962 0
M  V30 19 C 3.313972 -2.201530 0.387424 0
M  V30 20 C 2.639371 -1.238025 -0.304539 0
M  V30 21 C 2.301211 0.013948 0.188053 0
M  V30 22 C -1.912686 -0.021223 0.850514 0
M  V30 23 C -3.059464 -1.025823 0.984151 0
M  V30 24 H -4.096077 -3.269078 0.917918 0
M  V30 25 H -3.650651 -3.820480 2.622137 0
M  V30 26 H -2.507782 -3.976332 1.279409 0
M  V30 27 H -1.113065 -3.147973 2.496534 0
M  V30 28 H -0.875401 -1.340054 2.699254 0
M  V30 29 H -1.555455 -2.518661 -0.027472 0
M  V30 30 H 0.097132 -2.578434 0.659846 0
M  V30 31 H 0.029538 -1.342152 -1.558928 0
M  V30 32 H -1.694066 -0.942638 -1.485164 0
M  V30 33 H -0.518411 0.599595 -2.855994 0
M  V30 34 H -0.821040 2.419668 -0.751623 0
M  V30 35 H 1.185200 2.157591 -2.038472 0
M  V30 36 H 1.705108 0.427783 -2.296870 0
M  V30 37 H 1.195368 3.029443 0.528402 0
M  V30 38 H 2.678245 1.709990 5.067723 0
M  V30 39 H 3.706936 -0.488364 3.266251 0
M  V30 40 H 4.240139 -2.697473 2.236598 0
M  V30 41 H 3.559123 -3.177909 -0.041034 0
M  V30 42 H 2.374551 -1.521396 -1.312368 0
M  V30 43 H -1.681981 0.334703 1.892669 0
M  V30 44 H -2.289188 0.838173 0.309923 0
M  V30 45 H -3.934625 -0.424552 1.335855 0
M  V30 46 H -3.287542 -1.460331 0.012510 0
M  V30 END ATOM
M  V30 BEGIN BOND
M  V30 1 1 1 2
M  V30 2 1 2 3
M  V30 3 1 3 4
M  V30 4 1 4 5
M  V30 5 1 5 6
M  V30 6 1 6 7
M  V30 7 1 7 8
M  V30 8 1 7 9
M  V30 9 1 9 10
M  V30 10 1 10 11
M  V30 11 2 11 12
M  V30 12 1 12 13
M  V30 13 2 13 14
M  V30 14 1 13 15
M  V30 15 1 12 16
M  V30 16 2 16 17
M  V30 17 1 17 18
M  V30 18 2 18 19
M  V30 19 1 19 20
M  V30 20 2 20 21
M  V30 21 1 5 22
M  V30 22 1 22 23
M  V30 23 1 23 2
M  V30 24 1 21 10
M  V30 25 1 21 16
M  V30 26 1 1 24
M  V30 27 1 1 25
M  V30 28 1 1 26
M  V30 29 1 3 27
M  V30 30 1 3 28
M  V30 31 1 4 29
M  V30 32 1 4 30
M  V30 33 1 6 31
M  V30 34 1 6 32
M  V30 35 1 7 33
M  V30 36 1 8 34
M  V30 37 1 9 35
M  V30 38 1 9 36
M  V30 39 1 11 37
M  V30 40 1 15 38
M  V30 41 1 17 39
M  V30 42 1 18 40
M  V30 43 1 19 41
M  V30 44 1 20 42
M  V30 45 1 22 43
M  V30 46 1 22 44
M  V30 47 1 23 45
M  V30 48 1 23 46
M  V30 END BOND
M  V30 END CTAB
M  END
>  <Dataset>  (519) 
ChEMBL_Kinases

>  <Ligand_Instance>  (519) 
nan

>  <PDB_ID>  (519) 
nan

>  <Standardized_SMILES>  (519) 
CN1CCN(CC(O)Cn2cc(C(=O)O)c3ccccc32)CC1

>  <Name>  (519) 
nan

>  <Pocket>  (519) 
nan

>  <ATP_Site>  (519) 
nan

>  <Peripheral>  (519) 
nan

>  <Num_H_Atoms_ProtBoundConf>  (519) 
nan

>  <Num_Resolved_Atoms>  (519) 
nan

>  <Num_Not_Resolved_Atoms>  (519) 
nan

$$$$
CHEMBL3398191
     RDKit          3D

  0  0  0  0  0  0  0  0  0  0999 V3000
M  V30 BEGIN CTAB
M  V30 COUNTS 39 43 0 0 0
M  V30 BEGIN ATOM
M  V30 1 C -1.734170 -3.857048 2.696262 0
M  V30 2 N -0.770426 -2.849938 2.256236 0
M  V30 3 C -0.012638 -2.924532 1.163830 0
M  V30 4 C 0.809969 -1.824902 0.988892 0
M  V30 5 C 1.752052 -1.626017 -0.105719 0
M  V30 6 C 2.036492 -0.597344 -0.869206 0
M  V30 7 C 1.528502 0.766043 -0.939449 0
M  V30 8 N 2.325417 1.838074 -1.083171 0
M  V30 9 N 1.612696 2.967962 -1.121028 0
M  V30 10 C 0.328533 2.639903 -1.002518 0
M  V30 11 C -0.819001 3.394098 -0.983172 0
M  V30 12 C -2.022508 2.745556 -0.845947 0
M  V30 13 C -2.097471 1.354164 -0.727925 0
M  V30 14 C -0.882439 0.670372 -0.758861 0
M  V30 15 N 0.297390 1.299540 -0.893284 0
M  V30 16 C 3.101985 -1.031712 -1.809401 0
M  V30 17 O 3.662393 -0.338745 -2.718179 0
M  V30 18 N 3.447563 -2.390537 -1.567778 0
M  V30 19 C 2.593839 -2.760228 -0.492229 0
M  V30 20 O 2.660884 -3.941193 -0.030709 0
M  V30 21 C 0.489252 -1.051100 2.086371 0
M  V30 22 C 0.987076 0.181114 2.470712 0
M  V30 23 C 0.519086 0.791843 3.632389 0
M  V30 24 C -0.438808 0.152532 4.383775 0
M  V30 25 C -0.932313 -1.084891 3.989446 0
M  V30 26 C -0.472357 -1.686999 2.847612 0
M  V30 27 H -2.052581 -4.495768 1.827636 0
M  V30 28 H -1.265346 -4.570291 3.405142 0
M  V30 29 H -2.655518 -3.392440 3.086889 0
M  V30 30 H -0.036773 -3.774385 0.470181 0
M  V30 31 H -0.733506 4.457060 -1.075980 0
M  V30 32 H -2.939530 3.323129 -0.826979 0
M  V30 33 H -3.049317 0.860243 -0.620128 0
M  V30 34 H -0.967561 -0.383586 -0.675688 0
M  V30 35 H 4.178089 -2.940364 -2.097248 0
M  V30 36 H 1.736722 0.695486 1.904018 0
M  V30 37 H 0.921122 1.753993 3.915671 0
M  V30 38 H -0.837452 0.583261 5.294912 0
M  V30 39 H -1.682384 -1.593156 4.570736 0
M  V30 END ATOM
M  V30 BEGIN BOND
M  V30 1 1 1 2
M  V30 2 1 2 3
M  V30 3 2 3 4
M  V30 4 1 4 5
M  V30 5 2 5 6
M  V30 6 1 6 7
M  V30 7 2 7 8
M  V30 8 1 8 9
M  V30 9 2 9 10
M  V30 10 1 10 11
M  V30 11 2 11 12
M  V30 12 1 12 13
M  V30 13 2 13 14
M  V30 14 1 14 15
M  V30 15 1 6 16
M  V30 16 2 16 17
M  V30 17 1 16 18
M  V30 18 1 18 19
M  V30 19 2 19 20
M  V30 20 1 4 21
M  V30 21 2 21 22
M  V30 22 1 22 23
M  V30 23 2 23 24
M  V30 24 1 24 25
M  V30 25 2 25 26
M  V30 26 1 26 2
M  V30 27 1 19 5
M  V30 28 1 26 21
M  V30 29 1 15 7
M  V30 30 1 15 10
M  V30 31 1 1 27
M  V30 32 1 1 28
M  V30 33 1 1 29
M  V30 34 1 3 30
M  V30 35 1 11 31
M  V30 36 1 12 32
M  V30 37 1 13 33
M  V30 38 1 14 34
M  V30 39 1 18 35
M  V30 40 1 22 36
M  V30 41 1 23 37
M  V30 42 1 24 38
M  V30 43 1 25 39
M  V30 END BOND
M  V30 END CTAB
M  END
>  <Dataset>  (520) 
ChEMBL_Kinases

>  <Ligand_Instance>  (520) 
nan

>  <PDB_ID>  (520) 
nan

>  <Standardized_SMILES>  (520) 
Cn1cc(C2=C(c3nnc4ccccn34)C(=O)NC2=O)c2ccccc21

>  <Name>  (520) 
nan

>  <Pocket>  (520) 
nan

>  <ATP_Site>  (520) 
nan

>  <Peripheral>  (520) 
nan

>  <Num_H_Atoms_ProtBoundConf>  (520) 
nan

>  <Num_Resolved_Atoms>  (520) 
nan

>  <Num_Not_Resolved_Atoms>  (520) 
nan

$$$$
CHEMBL3394763
     RDKit          3D

  0  0  0  0  0  0  0  0  0  0999 V3000
M  V30 BEGIN CTAB
M  V30 COUNTS 47 49 0 0 0
M  V30 BEGIN ATOM
M  V30 1 O -1.874802 -2.064004 3.184436 0
M  V30 2 C -1.267788 -3.147195 3.273751 0
M  V30 3 O -1.221987 -3.744634 4.545489 0
M  V30 4 C -0.633437 -3.753173 2.076845 0
M  V30 5 C -0.869811 -2.874317 0.930230 0
M  V30 6 C -0.032546 -1.981867 0.321815 0
M  V30 7 N -0.606131 -1.323843 -0.727419 0
M  V30 8 C 0.134753 -0.355247 -1.464675 0
M  V30 9 C 0.059616 1.052817 -0.963516 0
M  V30 10 O 0.832503 1.859231 -1.789249 0
M  V30 11 C 0.279690 1.244047 0.479408 0
M  V30 12 N 1.574946 1.009041 1.011117 0
M  V30 13 C 2.535178 1.990276 0.571920 0
M  V30 14 C 3.852813 1.932475 1.305536 0
M  V30 15 C 3.613670 2.115644 2.800194 0
M  V30 16 C 2.737671 0.916259 3.188916 0
M  V30 17 C 1.445458 1.142047 2.461559 0
M  V30 18 C -1.878283 -1.824064 -0.792765 0
M  V30 19 C -2.823520 -1.440209 -1.719494 0
M  V30 20 C -4.067065 -2.064792 -1.633017 0
M  V30 21 C -4.292695 -3.022570 -0.641293 0
M  V30 22 C -3.290112 -3.353981 0.254462 0
M  V30 23 C -2.039320 -2.761055 0.208372 0
M  V30 24 H -1.235638 -3.091696 5.332865 0
M  V30 25 H -1.031803 -4.770179 1.869482 0
M  V30 26 H 0.456421 -3.859704 2.236939 0
M  V30 27 H 0.994909 -1.866607 0.708054 0
M  V30 28 H -0.325583 -0.331204 -2.496257 0
M  V30 29 H 1.170834 -0.671013 -1.588604 0
M  V30 30 H -1.002579 1.400288 -1.165199 0
M  V30 31 H 1.380463 1.306184 -2.394134 0
M  V30 32 H -0.019973 2.313189 0.707327 0
M  V30 33 H -0.524316 0.661441 1.020693 0
M  V30 34 H 2.114566 2.999451 0.754818 0
M  V30 35 H 2.745704 1.919601 -0.521488 0
M  V30 36 H 4.427664 1.005693 1.125223 0
M  V30 37 H 4.451950 2.792201 0.985616 0
M  V30 38 H 3.008147 3.051951 2.910026 0
M  V30 39 H 4.524228 2.192129 3.386438 0
M  V30 40 H 2.498852 0.904498 4.269669 0
M  V30 41 H 3.289012 0.011498 2.865600 0
M  V30 42 H 1.162520 2.207939 2.666350 0
M  V30 43 H 0.598186 0.537487 2.841212 0
M  V30 44 H -2.666066 -0.716019 -2.477452 0
M  V30 45 H -4.895956 -1.870221 -2.280886 0
M  V30 46 H -5.265927 -3.519541 -0.563967 0
M  V30 47 H -3.434330 -4.102522 1.046651 0
M  V30 END ATOM
M  V30 BEGIN BOND
M  V30 1 2 1 2
M  V30 2 1 2 3
M  V30 3 1 2 4
M  V30 4 1 4 5
M  V30 5 2 5 6
M  V30 6 1 6 7
M  V30 7 1 7 8
M  V30 8 1 8 9
M  V30 9 1 9 10
M  V30 10 1 9 11
M  V30 11 1 11 12
M  V30 12 1 12 13
M  V30 13 1 13 14
M  V30 14 1 14 15
M  V30 15 1 15 16
M  V30 16 1 16 17
M  V30 17 1 7 18
M  V30 18 2 18 19
M  V30 19 1 19 20
M  V30 20 2 20 21
M  V30 21 1 21 22
M  V30 22 2 22 23
M  V30 23 1 23 5
M  V30 24 1 17 12
M  V30 25 1 23 18
M  V30 26 1 3 24
M  V30 27 1 4 25
M  V30 28 1 4 26
M  V30 29 1 6 27
M  V30 30 1 8 28
M  V30 31 1 8 29
M  V30 32 1 9 30
M  V30 33 1 10 31
M  V30 34 1 11 32
M  V30 35 1 11 33
M  V30 36 1 13 34
M  V30 37 1 13 35
M  V30 38 1 14 36
M  V30 39 1 14 37
M  V30 40 1 15 38
M  V30 41 1 15 39
M  V30 42 1 16 40
M  V30 43 1 16 41
M  V30 44 1 17 42
M  V30 45 1 17 43
M  V30 46 1 19 44
M  V30 47 1 20 45
M  V30 48 1 21 46
M  V30 49 1 22 47
M  V30 END BOND
M  V30 END CTAB
M  END
>  <Dataset>  (521) 
ChEMBL_Kinases

>  <Ligand_Instance>  (521) 
nan

>  <PDB_ID>  (521) 
nan

>  <Standardized_SMILES>  (521) 
O=C(O)Cc1cn(CC(O)CN2CCCCC2)c2ccccc12

>  <Name>  (521) 
nan

>  <Pocket>  (521) 
nan

>  <ATP_Site>  (521) 
nan

>  <Peripheral>  (521) 
nan

>  <Num_H_Atoms_ProtBoundConf>  (521) 
nan

>  <Num_Resolved_Atoms>  (521) 
nan

>  <Num_Not_Resolved_Atoms>  (521) 
nan

$$$$
CHEMBL3394764
     RDKit          3D

  0  0  0  0  0  0  0  0  0  0999 V3000
M  V30 BEGIN CTAB
M  V30 COUNTS 44 46 0 0 0
M  V30 BEGIN ATOM
M  V30 1 O -0.871641 -4.658476 3.249120 0
M  V30 2 C -2.069386 -4.237925 3.086224 0
M  V30 3 O -2.934445 -4.948869 3.903703 0
M  V30 4 C -2.503630 -3.161947 2.175781 0
M  V30 5 C -1.389330 -2.576600 1.427354 0
M  V30 6 C -0.712783 -1.374964 1.584926 0
M  V30 7 N 0.253518 -1.259098 0.656738 0
M  V30 8 C 1.180718 -0.127969 0.504098 0
M  V30 9 C 0.611715 0.910159 -0.421522 0
M  V30 10 O -0.576303 1.444231 0.014341 0
M  V30 11 C 1.606439 1.917058 -0.925274 0
M  V30 12 N 2.040080 2.914419 -0.042861 0
M  V30 13 C 1.118035 3.891764 0.371501 0
M  V30 14 C 1.546666 4.338781 1.761663 0
M  V30 15 C 2.279105 3.100139 2.253407 0
M  V30 16 C 2.945003 2.596342 0.989684 0
M  V30 17 C 0.223763 -2.380625 -0.120312 0
M  V30 18 C 0.986191 -2.791628 -1.214962 0
M  V30 19 C 0.729619 -4.013411 -1.827245 0
M  V30 20 C -0.282272 -4.835529 -1.359984 0
M  V30 21 C -1.041116 -4.435498 -0.276907 0
M  V30 22 C -0.794800 -3.209477 0.348911 0
M  V30 23 H -2.674182 -5.317122 4.819870 0
M  V30 24 H -3.293907 -3.597283 1.519292 0
M  V30 25 H -3.022979 -2.352084 2.744100 0
M  V30 26 H -0.966488 -0.662843 2.362283 0
M  V30 27 H 2.188317 -0.455065 0.221799 0
M  V30 28 H 1.252600 0.343959 1.522152 0
M  V30 29 H 0.323766 0.323656 -1.367785 0
M  V30 30 H -1.148493 0.790552 0.450841 0
M  V30 31 H 2.443644 1.347780 -1.411389 0
M  V30 32 H 1.098157 2.409823 -1.820848 0
M  V30 33 H 1.276567 4.799726 -0.284220 0
M  V30 34 H 0.063021 3.640284 0.314794 0
M  V30 35 H 0.723638 4.656223 2.401446 0
M  V30 36 H 2.310029 5.150002 1.709700 0
M  V30 37 H 3.052732 3.364191 3.018329 0
M  V30 38 H 1.521193 2.403942 2.663269 0
M  V30 39 H 3.243652 1.526834 1.050091 0
M  V30 40 H 3.863693 3.242397 0.872085 0
M  V30 41 H 1.777346 -2.138548 -1.571465 0
M  V30 42 H 1.305674 -4.352538 -2.676039 0
M  V30 43 H -0.446779 -5.788997 -1.872869 0
M  V30 44 H -1.838463 -5.106586 0.073768 0
M  V30 END ATOM
M  V30 BEGIN BOND
M  V30 1 2 1 2
M  V30 2 1 2 3
M  V30 3 1 2 4
M  V30 4 1 4 5
M  V30 5 2 5 6
M  V30 6 1 6 7
M  V30 7 1 7 8
M  V30 8 1 8 9
M  V30 9 1 9 10
M  V30 10 1 9 11
M  V30 11 1 11 12
M  V30 12 1 12 13
M  V30 13 1 13 14
M  V30 14 1 14 15
M  V30 15 1 15 16
M  V30 16 1 7 17
M  V30 17 2 17 18
M  V30 18 1 18 19
M  V30 19 2 19 20
M  V30 20 1 20 21
M  V30 21 2 21 22
M  V30 22 1 22 5
M  V30 23 1 16 12
M  V30 24 1 22 17
M  V30 25 1 3 23
M  V30 26 1 4 24
M  V30 27 1 4 25
M  V30 28 1 6 26
M  V30 29 1 8 27
M  V30 30 1 8 28
M  V30 31 1 9 29
M  V30 32 1 10 30
M  V30 33 1 11 31
M  V30 34 1 11 32
M  V30 35 1 13 33
M  V30 36 1 13 34
M  V30 37 1 14 35
M  V30 38 1 14 36
M  V30 39 1 15 37
M  V30 40 1 15 38
M  V30 41 1 16 39
M  V30 42 1 16 40
M  V30 43 1 18 41
M  V30 44 1 19 42
M  V30 45 1 20 43
M  V30 46 1 21 44
M  V30 END BOND
M  V30 END CTAB
M  END
>  <Dataset>  (522) 
ChEMBL_Kinases

>  <Ligand_Instance>  (522) 
nan

>  <PDB_ID>  (522) 
nan

>  <Standardized_SMILES>  (522) 
O=C(O)Cc1cn(CC(O)CN2CCCC2)c2ccccc12

>  <Name>  (522) 
nan

>  <Pocket>  (522) 
nan

>  <ATP_Site>  (522) 
nan

>  <Peripheral>  (522) 
nan

>  <Num_H_Atoms_ProtBoundConf>  (522) 
nan

>  <Num_Resolved_Atoms>  (522) 
nan

>  <Num_Not_Resolved_Atoms>  (522) 
nan

$$$$
CHEMBL3394765
     RDKit          3D

  0  0  0  0  0  0  0  0  0  0999 V3000
M  V30 BEGIN CTAB
M  V30 COUNTS 49 51 0 0 0
M  V30 BEGIN ATOM
M  V30 1 C -2.839766 -3.952865 0.672551 0
M  V30 2 N -1.693779 -4.559822 0.049141 0
M  V30 3 C -0.598461 -4.833217 0.919098 0
M  V30 4 C 0.652717 -4.071666 0.451750 0
M  V30 5 N 0.228106 -2.733688 0.169534 0
M  V30 6 C 1.260595 -1.758907 0.079192 0
M  V30 7 C 1.979738 -1.408027 1.333029 0
M  V30 8 O 2.657178 -2.464914 1.940804 0
M  V30 9 C 1.133986 -0.685404 2.354208 0
M  V30 10 N 0.632069 0.558961 1.823290 0
M  V30 11 C 1.399820 1.666581 1.903263 0
M  V30 12 C 0.792270 2.766145 1.339132 0
M  V30 13 C 1.068016 4.203650 1.104270 0
M  V30 14 C 2.386125 4.557085 1.633938 0
M  V30 15 O 3.311257 3.921915 2.222387 0
M  V30 16 O 3.315603 5.549731 1.826191 0
M  V30 17 C -0.441115 2.293980 0.879825 0
M  V30 18 C -1.545684 2.810570 0.237734 0
M  V30 19 C -2.651120 2.051980 -0.081029 0
M  V30 20 C -2.680617 0.711970 0.245547 0
M  V30 21 C -1.584703 0.179474 0.887301 0
M  V30 22 C -0.490016 0.953284 1.196808 0
M  V30 23 C -0.538584 -2.743270 -1.081587 0
M  V30 24 C -1.332689 -4.011149 -1.218333 0
M  V30 25 H -2.873965 -4.334764 1.723080 0
M  V30 26 H -3.735174 -4.314845 0.093101 0
M  V30 27 H -2.863854 -2.855500 0.633039 0
M  V30 28 H -0.318048 -5.903158 0.980294 0
M  V30 29 H -0.797164 -4.411110 1.943575 0
M  V30 30 H 1.359810 -4.152436 1.269764 0
M  V30 31 H 1.094438 -4.574033 -0.435937 0
M  V30 32 H 2.018366 -2.065218 -0.698786 0
M  V30 33 H 0.802919 -0.821105 -0.325774 0
M  V30 34 H 2.821185 -0.702620 1.022491 0
M  V30 35 H 3.420082 -2.694277 1.327082 0
M  V30 36 H 0.288027 -1.353332 2.632404 0
M  V30 37 H 1.715751 -0.496182 3.290332 0
M  V30 38 H 2.377146 1.807331 2.327108 0
M  V30 39 H 0.248487 4.838065 1.499912 0
M  V30 40 H 1.050200 4.393479 -0.004305 0
M  V30 41 H 3.849325 6.048691 1.138432 0
M  V30 42 H -1.547053 3.857917 -0.028493 0
M  V30 43 H -3.496041 2.501485 -0.586551 0
M  V30 44 H -3.551472 0.122716 -0.007266 0
M  V30 45 H -1.616475 -0.869808 1.139717 0
M  V30 46 H 0.180010 -2.682363 -1.945197 0
M  V30 47 H -1.206826 -1.866695 -1.092814 0
M  V30 48 H -0.752546 -4.768348 -1.769388 0
M  V30 49 H -2.295173 -3.813738 -1.768263 0
M  V30 END ATOM
M  V30 BEGIN BOND
M  V30 1 1 1 2
M  V30 2 1 2 3
M  V30 3 1 3 4
M  V30 4 1 4 5
M  V30 5 1 5 6
M  V30 6 1 6 7
M  V30 7 1 7 8
M  V30 8 1 7 9
M  V30 9 1 9 10
M  V30 10 1 10 11
M  V30 11 2 11 12
M  V30 12 1 12 13
M  V30 13 1 13 14
M  V30 14 2 14 15
M  V30 15 1 14 16
M  V30 16 1 12 17
M  V30 17 2 17 18
M  V30 18 1 18 19
M  V30 19 2 19 20
M  V30 20 1 20 21
M  V30 21 2 21 22
M  V30 22 1 5 23
M  V30 23 1 23 24
M  V30 24 1 24 2
M  V30 25 1 22 10
M  V30 26 1 22 17
M  V30 27 1 1 25
M  V30 28 1 1 26
M  V30 29 1 1 27
M  V30 30 1 3 28
M  V30 31 1 3 29
M  V30 32 1 4 30
M  V30 33 1 4 31
M  V30 34 1 6 32
M  V30 35 1 6 33
M  V30 36 1 7 34
M  V30 37 1 8 35
M  V30 38 1 9 36
M  V30 39 1 9 37
M  V30 40 1 11 38
M  V30 41 1 13 39
M  V30 42 1 13 40
M  V30 43 1 16 41
M  V30 44 1 18 42
M  V30 45 1 19 43
M  V30 46 1 20 44
M  V30 47 1 21 45
M  V30 48 1 23 46
M  V30 49 1 23 47
M  V30 50 1 24 48
M  V30 51 1 24 49
M  V30 END BOND
M  V30 END CTAB
M  END
>  <Dataset>  (523) 
ChEMBL_Kinases

>  <Ligand_Instance>  (523) 
nan

>  <PDB_ID>  (523) 
nan

>  <Standardized_SMILES>  (523) 
CN1CCN(CC(O)Cn2cc(CC(=O)O)c3ccccc32)CC1

>  <Name>  (523) 
nan

>  <Pocket>  (523) 
nan

>  <ATP_Site>  (523) 
nan

>  <Peripheral>  (523) 
nan

>  <Num_H_Atoms_ProtBoundConf>  (523) 
nan

>  <Num_Resolved_Atoms>  (523) 
nan

>  <Num_Not_Resolved_Atoms>  (523) 
nan

$$$$
CHEMBL3394766
     RDKit          3D

  0  0  0  0  0  0  0  0  0  0999 V3000
M  V30 BEGIN CTAB
M  V30 COUNTS 45 47 0 0 0
M  V30 BEGIN ATOM
M  V30 1 O -0.468131 -1.490063 3.371620 0
M  V30 2 C -0.052801 -2.678472 3.448406 0
M  V30 3 O 0.145619 -3.358536 4.628455 0
M  V30 4 C 0.242327 -3.394309 2.189706 0
M  V30 5 C -0.019529 -2.537466 1.002157 0
M  V30 6 C 0.863965 -1.888996 0.193001 0
M  V30 7 N 0.252690 -1.202976 -0.790180 0
M  V30 8 C 0.682480 -0.384556 -1.873069 0
M  V30 9 C 0.810997 1.087393 -1.566898 0
M  V30 10 O 1.243964 1.710807 -2.772224 0
M  V30 11 C 1.936222 1.378077 -0.597301 0
M  V30 12 N 1.726595 0.856341 0.723635 0
M  V30 13 C 2.862420 1.128215 1.597068 0
M  V30 14 C 2.510274 0.444091 2.904294 0
M  V30 15 O 1.559997 1.222163 3.528433 0
M  V30 16 C 0.704328 1.888686 2.716894 0
M  V30 17 C 0.512202 1.363983 1.329687 0
M  V30 18 C -1.089646 -1.401070 -0.631538 0
M  V30 19 C -2.255592 -0.995015 -1.279531 0
M  V30 20 C -3.496632 -1.398258 -0.833063 0
M  V30 21 C -3.644021 -2.217348 0.268634 0
M  V30 22 C -2.509817 -2.634783 0.929429 0
M  V30 23 C -1.260885 -2.229017 0.480138 0
M  V30 24 H 0.039872 -2.846179 5.518443 0
M  V30 25 H -0.353603 -4.319180 2.144619 0
M  V30 26 H 1.329405 -3.638985 2.162158 0
M  V30 27 H 1.936953 -1.890249 0.280357 0
M  V30 28 H 1.721216 -0.725809 -2.145382 0
M  V30 29 H 0.097453 -0.522474 -2.797207 0
M  V30 30 H -0.103158 1.546154 -1.174413 0
M  V30 31 H 0.954768 1.169588 -3.536227 0
M  V30 32 H 2.124941 2.464961 -0.555717 0
M  V30 33 H 2.905550 0.936815 -0.956739 0
M  V30 34 H 2.944267 2.212768 1.746794 0
M  V30 35 H 3.749969 0.681679 1.106403 0
M  V30 36 H 2.085042 -0.547821 2.659542 0
M  V30 37 H 3.421628 0.386508 3.513272 0
M  V30 38 H 0.953173 2.978368 2.699329 0
M  V30 39 H -0.310840 1.854439 3.212244 0
M  V30 40 H 0.190751 2.228307 0.713079 0
M  V30 41 H -0.289719 0.608378 1.273885 0
M  V30 42 H -2.150192 -0.359130 -2.137002 0
M  V30 43 H -4.391785 -1.074486 -1.347688 0
M  V30 44 H -4.636615 -2.508931 0.583140 0
M  V30 45 H -2.647267 -3.276617 1.789501 0
M  V30 END ATOM
M  V30 BEGIN BOND
M  V30 1 2 1 2
M  V30 2 1 2 3
M  V30 3 1 2 4
M  V30 4 1 4 5
M  V30 5 2 5 6
M  V30 6 1 6 7
M  V30 7 1 7 8
M  V30 8 1 8 9
M  V30 9 1 9 10
M  V30 10 1 9 11
M  V30 11 1 11 12
M  V30 12 1 12 13
M  V30 13 1 13 14
M  V30 14 1 14 15
M  V30 15 1 15 16
M  V30 16 1 16 17
M  V30 17 1 7 18
M  V30 18 2 18 19
M  V30 19 1 19 20
M  V30 20 2 20 21
M  V30 21 1 21 22
M  V30 22 2 22 23
M  V30 23 1 23 5
M  V30 24 1 17 12
M  V30 25 1 23 18
M  V30 26 1 3 24
M  V30 27 1 4 25
M  V30 28 1 4 26
M  V30 29 1 6 27
M  V30 30 1 8 28
M  V30 31 1 8 29
M  V30 32 1 9 30
M  V30 33 1 10 31
M  V30 34 1 11 32
M  V30 35 1 11 33
M  V30 36 1 13 34
M  V30 37 1 13 35
M  V30 38 1 14 36
M  V30 39 1 14 37
M  V30 40 1 16 38
M  V30 41 1 16 39
M  V30 42 1 17 40
M  V30 43 1 17 41
M  V30 44 1 19 42
M  V30 45 1 20 43
M  V30 46 1 21 44
M  V30 47 1 22 45
M  V30 END BOND
M  V30 END CTAB
M  END
>  <Dataset>  (524) 
ChEMBL_Kinases

>  <Ligand_Instance>  (524) 
nan

>  <PDB_ID>  (524) 
nan

>  <Standardized_SMILES>  (524) 
O=C(O)Cc1cn(CC(O)CN2CCOCC2)c2ccccc12

>  <Name>  (524) 
nan

>  <Pocket>  (524) 
nan

>  <ATP_Site>  (524) 
nan

>  <Peripheral>  (524) 
nan

>  <Num_H_Atoms_ProtBoundConf>  (524) 
nan

>  <Num_Resolved_Atoms>  (524) 
nan

>  <Num_Not_Resolved_Atoms>  (524) 
nan

$$$$
CHEMBL3394767
     RDKit          3D

  0  0  0  0  0  0  0  0  0  0999 V3000
M  V30 BEGIN CTAB
M  V30 COUNTS 50 52 0 0 0
M  V30 BEGIN ATOM
M  V30 1 O 3.411267 -1.949046 0.957073 0
M  V30 2 C 3.060881 -3.047330 1.451308 0
M  V30 3 O 3.398802 -3.234824 2.806109 0
M  V30 4 C 2.339943 -4.239286 0.896546 0
M  V30 5 C 1.956712 -4.044902 -0.552201 0
M  V30 6 C 1.069926 -2.893576 -0.792553 0
M  V30 7 C 1.210464 -1.627624 -1.319875 0
M  V30 8 N 0.031227 -0.913909 -1.324576 0
M  V30 9 C 0.203883 0.419125 -1.788446 0
M  V30 10 C 0.902555 1.412339 -0.996744 0
M  V30 11 O 0.926863 2.633496 -1.761552 0
M  V30 12 C 0.690530 1.786603 0.392023 0
M  V30 13 N -0.451014 2.553363 0.763073 0
M  V30 14 C -0.321087 3.164950 2.083113 0
M  V30 15 C -0.041086 2.223841 3.186452 0
M  V30 16 C -0.948683 1.041592 3.250438 0
M  V30 17 C -1.559336 0.666333 1.929245 0
M  V30 18 C -1.641268 1.724556 0.905915 0
M  V30 19 C -0.814047 -1.798396 -0.785890 0
M  V30 20 C -2.146288 -1.497113 -0.620630 0
M  V30 21 C -3.010259 -2.423802 -0.079608 0
M  V30 22 C -2.482129 -3.643874 0.278976 0
M  V30 23 C -1.145354 -3.924446 0.101974 0
M  V30 24 C -0.255709 -3.008336 -0.442053 0
M  V30 25 H 3.663466 -2.424349 3.367773 0
M  V30 26 H 1.500810 -4.549033 1.534493 0
M  V30 27 H 3.052874 -5.088504 0.898539 0
M  V30 28 H 1.580704 -5.011021 -0.929995 0
M  V30 29 H 2.896834 -3.832618 -1.116792 0
M  V30 30 H 2.251724 -1.435299 -1.638098 0
M  V30 31 H 0.750207 0.356495 -2.792568 0
M  V30 32 H -0.805397 0.835353 -2.158175 0
M  V30 33 H 2.027038 1.126108 -1.057421 0
M  V30 34 H 1.629108 3.233997 -1.355117 0
M  V30 35 H 1.604638 2.374681 0.727069 0
M  V30 36 H 0.713996 0.907922 1.087881 0
M  V30 37 H -1.315417 3.676346 2.263383 0
M  V30 38 H 0.427037 3.982728 2.050998 0
M  V30 39 H -0.012002 2.793638 4.141210 0
M  V30 40 H 1.007671 1.844513 3.039420 0
M  V30 41 H -0.403324 0.165061 3.715120 0
M  V30 42 H -1.775167 1.276908 3.945014 0
M  V30 43 H -0.920184 -0.171834 1.539274 0
M  V30 44 H -2.572881 0.212247 2.056631 0
M  V30 45 H -1.881220 1.386307 -0.106713 0
M  V30 46 H -2.471346 2.436969 1.169277 0
M  V30 47 H -2.621530 -0.573181 -0.899820 0
M  V30 48 H -4.062288 -2.238754 0.072416 0
M  V30 49 H -3.088467 -4.426872 0.709986 0
M  V30 50 H -0.662155 -4.878977 0.367364 0
M  V30 END ATOM
M  V30 BEGIN BOND
M  V30 1 2 1 2
M  V30 2 1 2 3
M  V30 3 1 2 4
M  V30 4 1 4 5
M  V30 5 1 5 6
M  V30 6 2 6 7
M  V30 7 1 7 8
M  V30 8 1 8 9
M  V30 9 1 9 10
M  V30 10 1 10 11
M  V30 11 1 10 12
M  V30 12 1 12 13
M  V30 13 1 13 14
M  V30 14 1 14 15
M  V30 15 1 15 16
M  V30 16 1 16 17
M  V30 17 1 17 18
M  V30 18 1 8 19
M  V30 19 2 19 20
M  V30 20 1 20 21
M  V30 21 2 21 22
M  V30 22 1 22 23
M  V30 23 2 23 24
M  V30 24 1 24 6
M  V30 25 1 18 13
M  V30 26 1 24 19
M  V30 27 1 3 25
M  V30 28 1 4 26
M  V30 29 1 4 27
M  V30 30 1 5 28
M  V30 31 1 5 29
M  V30 32 1 7 30
M  V30 33 1 9 31
M  V30 34 1 9 32
M  V30 35 1 10 33
M  V30 36 1 11 34
M  V30 37 1 12 35
M  V30 38 1 12 36
M  V30 39 1 14 37
M  V30 40 1 14 38
M  V30 41 1 15 39
M  V30 42 1 15 40
M  V30 43 1 16 41
M  V30 44 1 16 42
M  V30 45 1 17 43
M  V30 46 1 17 44
M  V30 47 1 18 45
M  V30 48 1 18 46
M  V30 49 1 20 47
M  V30 50 1 21 48
M  V30 51 1 22 49
M  V30 52 1 23 50
M  V30 END BOND
M  V30 END CTAB
M  END
>  <Dataset>  (525) 
ChEMBL_Kinases

>  <Ligand_Instance>  (525) 
nan

>  <PDB_ID>  (525) 
nan

>  <Standardized_SMILES>  (525) 
O=C(O)CCc1cn(CC(O)CN2CCCCC2)c2ccccc12

>  <Name>  (525) 
nan

>  <Pocket>  (525) 
nan

>  <ATP_Site>  (525) 
nan

>  <Peripheral>  (525) 
nan

>  <Num_H_Atoms_ProtBoundConf>  (525) 
nan

>  <Num_Resolved_Atoms>  (525) 
nan

>  <Num_Not_Resolved_Atoms>  (525) 
nan

$$$$
CHEMBL3394768
     RDKit          3D

  0  0  0  0  0  0  0  0  0  0999 V3000
M  V30 BEGIN CTAB
M  V30 COUNTS 47 49 0 0 0
M  V30 BEGIN ATOM
M  V30 1 O 0.320017 -7.173952 1.098514 0
M  V30 2 C 0.860828 -6.122320 1.532366 0
M  V30 3 O 1.783868 -6.387121 2.519250 0
M  V30 4 C 0.312456 -4.921141 0.820937 0
M  V30 5 C 0.948293 -3.654346 1.333350 0
M  V30 6 C 0.410183 -2.459757 0.634076 0
M  V30 7 C 0.992545 -1.689755 -0.349359 0
M  V30 8 N 0.174969 -0.668526 -0.740929 0
M  V30 9 C 0.543943 0.282105 -1.733884 0
M  V30 10 C 1.319694 1.469140 -1.291727 0
M  V30 11 O 1.540252 2.235011 -2.472251 0
M  V30 12 C 0.683332 2.361475 -0.296080 0
M  V30 13 N 0.381226 1.857508 0.959417 0
M  V30 14 C 1.406069 1.497840 1.852642 0
M  V30 15 C 1.388391 2.631630 2.858584 0
M  V30 16 C 0.177613 3.490266 2.502430 0
M  V30 17 C -0.658281 2.468124 1.715330 0
M  V30 18 C -0.916082 -0.837177 0.027050 0
M  V30 19 C -2.079397 -0.102495 0.064899 0
M  V30 20 C -3.132966 -0.393065 0.905285 0
M  V30 21 C -3.044039 -1.483181 1.774242 0
M  V30 22 C -1.875510 -2.218551 1.733588 0
M  V30 23 C -0.830646 -1.913585 0.885537 0
M  V30 24 H 1.559262 -7.027178 3.279267 0
M  V30 25 H -0.788754 -4.924693 0.912045 0
M  V30 26 H 0.588722 -5.091176 -0.257457 0
M  V30 27 H 2.036416 -3.775286 1.252597 0
M  V30 28 H 0.702876 -3.626480 2.432009 0
M  V30 29 H 1.990694 -1.907817 -0.738415 0
M  V30 30 H 1.179850 -0.243154 -2.497066 0
M  V30 31 H -0.352368 0.661841 -2.288428 0
M  V30 32 H 2.359853 1.214972 -0.961669 0
M  V30 33 H 0.667428 2.346643 -2.943716 0
M  V30 34 H 1.280475 3.288773 -0.186210 0
M  V30 35 H -0.286687 2.711510 -0.755682 0
M  V30 36 H 1.121646 0.564950 2.382706 0
M  V30 37 H 2.407345 1.382664 1.397262 0
M  V30 38 H 2.314096 3.245526 2.806732 0
M  V30 39 H 1.193528 2.263888 3.887221 0
M  V30 40 H 0.482007 4.323436 1.858736 0
M  V30 41 H -0.413299 3.763385 3.380250 0
M  V30 42 H -0.992438 1.725109 2.473618 0
M  V30 43 H -1.440180 2.919297 1.116648 0
M  V30 44 H -2.190027 0.749112 -0.591606 0
M  V30 45 H -4.064856 0.145529 0.977913 0
M  V30 46 H -3.773420 -1.840246 2.488226 0
M  V30 47 H -1.698840 -3.083001 2.363348 0
M  V30 END ATOM
M  V30 BEGIN BOND
M  V30 1 2 1 2
M  V30 2 1 2 3
M  V30 3 1 2 4
M  V30 4 1 4 5
M  V30 5 1 5 6
M  V30 6 2 6 7
M  V30 7 1 7 8
M  V30 8 1 8 9
M  V30 9 1 9 10
M  V30 10 1 10 11
M  V30 11 1 10 12
M  V30 12 1 12 13
M  V30 13 1 13 14
M  V30 14 1 14 15
M  V30 15 1 15 16
M  V30 16 1 16 17
M  V30 17 1 8 18
M  V30 18 2 18 19
M  V30 19 1 19 20
M  V30 20 2 20 21
M  V30 21 1 21 22
M  V30 22 2 22 23
M  V30 23 1 23 6
M  V30 24 1 17 13
M  V30 25 1 23 18
M  V30 26 1 3 24
M  V30 27 1 4 25
M  V30 28 1 4 26
M  V30 29 1 5 27
M  V30 30 1 5 28
M  V30 31 1 7 29
M  V30 32 1 9 30
M  V30 33 1 9 31
M  V30 34 1 10 32
M  V30 35 1 11 33
M  V30 36 1 12 34
M  V30 37 1 12 35
M  V30 38 1 14 36
M  V30 39 1 14 37
M  V30 40 1 15 38
M  V30 41 1 15 39
M  V30 42 1 16 40
M  V30 43 1 16 41
M  V30 44 1 17 42
M  V30 45 1 17 43
M  V30 46 1 19 44
M  V30 47 1 20 45
M  V30 48 1 21 46
M  V30 49 1 22 47
M  V30 END BOND
M  V30 END CTAB
M  END
>  <Dataset>  (526) 
ChEMBL_Kinases

>  <Ligand_Instance>  (526) 
nan

>  <PDB_ID>  (526) 
nan

>  <Standardized_SMILES>  (526) 
O=C(O)CCc1cn(CC(O)CN2CCCC2)c2ccccc12

>  <Name>  (526) 
nan

>  <Pocket>  (526) 
nan

>  <ATP_Site>  (526) 
nan

>  <Peripheral>  (526) 
nan

>  <Num_H_Atoms_ProtBoundConf>  (526) 
nan

>  <Num_Resolved_Atoms>  (526) 
nan

>  <Num_Not_Resolved_Atoms>  (526) 
nan

$$$$
CHEMBL3397300
     RDKit          3D

  0  0  0  0  0  0  0  0  0  0999 V3000
M  V30 BEGIN CTAB
M  V30 COUNTS 70 73 0 0 0
M  V30 BEGIN ATOM
M  V30 1 C 3.429207 -0.883709 4.985655 0
M  V30 2 O 2.377991 -1.603635 4.368130 0
M  V30 3 C 2.175615 -1.550166 2.990252 0
M  V30 4 C 3.025005 -0.772872 2.230720 0
M  V30 5 C 2.862260 -0.693414 0.870512 0
M  V30 6 N 3.600405 0.074897 -0.084944 0
M  V30 7 C 3.478763 1.545579 -0.047985 0
M  V30 8 C 2.519603 1.819347 -1.222768 0
M  V30 9 C 3.039504 1.173527 -2.488349 0
M  V30 10 N 2.050241 0.289757 -3.010131 0
M  V30 11 C 0.848921 0.975674 -3.370296 0
M  V30 12 C 2.447170 -0.594118 -4.048701 0
M  V30 13 C 4.408442 0.583204 -2.307481 0
M  V30 14 C 4.510332 -0.356639 -1.156263 0
M  V30 15 C 1.825205 -1.409529 0.256566 0
M  V30 16 C 1.021236 -2.161458 1.086063 0
M  V30 17 C 1.131667 -2.281522 2.455545 0
M  V30 18 N 0.261376 -3.059286 3.266706 0
M  V30 19 C -0.806258 -3.658061 2.529528 0
M  V30 20 N -1.150643 -4.911701 2.196715 0
M  V30 21 C -2.220842 -5.192096 1.461557 0
M  V30 22 C -3.058155 -4.221381 0.984531 0
M  V30 23 Cl -4.488602 -4.438736 0.018168 0
M  V30 24 C -2.722246 -2.905694 1.315806 0
M  V30 25 N -3.449551 -1.713378 0.921146 0
M  V30 26 C -4.155609 -0.836861 1.789985 0
M  V30 27 C -4.148215 -1.184799 3.120646 0
M  V30 28 C -4.830006 -0.261518 3.927777 0
M  V30 29 C -5.434479 0.861816 3.417506 0
M  V30 30 C -5.383259 1.109333 2.083146 0
M  V30 31 C -4.729532 0.256620 1.184868 0
M  V30 32 P -4.676795 0.611357 -0.559076 0
M  V30 33 C -3.050934 1.237601 -1.057046 0
M  V30 34 C -5.222559 -0.795056 -1.545766 0
M  V30 35 O -5.658387 1.736794 -0.815423 0
M  V30 36 N -1.619141 -2.669404 2.069880 0
M  V30 37 H 3.580697 -1.370658 5.973605 0
M  V30 38 H 3.202459 0.191860 5.085723 0
M  V30 39 H 4.331969 -1.064613 4.397682 0
M  V30 40 H 3.851881 -0.189395 2.612473 0
M  V30 41 H 2.976873 1.875041 0.869395 0
M  V30 42 H 4.419469 2.051459 -0.296485 0
M  V30 43 H 1.556916 1.324339 -0.901635 0
M  V30 44 H 2.295865 2.892141 -1.316885 0
M  V30 45 H 3.140730 2.012849 -3.221935 0
M  V30 46 H 0.914851 1.175705 -4.477143 0
M  V30 47 H -0.063606 0.358057 -3.254294 0
M  V30 48 H 0.752385 1.956352 -2.867629 0
M  V30 49 H 1.639885 -1.387886 -4.100684 0
M  V30 50 H 3.379316 -1.154490 -3.893748 0
M  V30 51 H 2.389735 -0.104821 -5.046758 0
M  V30 52 H 4.753003 0.185836 -3.264917 0
M  V30 53 H 5.075999 1.477256 -2.114867 0
M  V30 54 H 4.433836 -1.423159 -1.386567 0
M  V30 55 H 5.525938 -0.212764 -0.687016 0
M  V30 56 H 1.625712 -1.405163 -0.806543 0
M  V30 57 H 0.208164 -2.726019 0.592491 0
M  V30 58 H 0.438676 -3.147787 4.285604 0
M  V30 59 H -2.465910 -6.207106 1.215415 0
M  V30 60 H -3.301968 -1.705680 -0.103095 0
M  V30 61 H -3.656913 -2.082206 3.481963 0
M  V30 62 H -4.868432 -0.458840 4.990652 0
M  V30 63 H -5.957808 1.566776 4.044940 0
M  V30 64 H -5.858854 1.992333 1.671729 0
M  V30 65 H -2.291614 0.784603 -0.370648 0
M  V30 66 H -3.011472 2.331836 -0.863330 0
M  V30 67 H -2.820058 1.073470 -2.112669 0
M  V30 68 H -5.592519 -1.638008 -0.897105 0
M  V30 69 H -6.098627 -0.545135 -2.204091 0
M  V30 70 H -4.432539 -1.180978 -2.232298 0
M  V30 END ATOM
M  V30 BEGIN BOND
M  V30 1 1 1 2
M  V30 2 1 2 3
M  V30 3 2 3 4
M  V30 4 1 4 5
M  V30 5 1 5 6
M  V30 6 1 6 7
M  V30 7 1 7 8
M  V30 8 1 8 9
M  V30 9 1 9 10
M  V30 10 1 10 11
M  V30 11 1 10 12
M  V30 12 1 9 13
M  V30 13 1 13 14
M  V30 14 2 5 15
M  V30 15 1 15 16
M  V30 16 2 16 17
M  V30 17 1 17 18
M  V30 18 1 18 19
M  V30 19 2 19 20
M  V30 20 1 20 21
M  V30 21 2 21 22
M  V30 22 1 22 23
M  V30 23 1 22 24
M  V30 24 1 24 25
M  V30 25 1 25 26
M  V30 26 2 26 27
M  V30 27 1 27 28
M  V30 28 2 28 29
M  V30 29 1 29 30
M  V30 30 2 30 31
M  V30 31 1 31 32
M  V30 32 1 32 33
M  V30 33 1 32 34
M  V30 34 2 32 35
M  V30 35 2 24 36
M  V30 36 1 17 3
M  V30 37 1 36 19
M  V30 38 1 14 6
M  V30 39 1 31 26
M  V30 40 1 1 37
M  V30 41 1 1 38
M  V30 42 1 1 39
M  V30 43 1 4 40
M  V30 44 1 7 41
M  V30 45 1 7 42
M  V30 46 1 8 43
M  V30 47 1 8 44
M  V30 48 1 9 45
M  V30 49 1 11 46
M  V30 50 1 11 47
M  V30 51 1 11 48
M  V30 52 1 12 49
M  V30 53 1 12 50
M  V30 54 1 12 51
M  V30 55 1 13 52
M  V30 56 1 13 53
M  V30 57 1 14 54
M  V30 58 1 14 55
M  V30 59 1 15 56
M  V30 60 1 16 57
M  V30 61 1 18 58
M  V30 62 1 21 59
M  V30 63 1 25 60
M  V30 64 1 27 61
M  V30 65 1 28 62
M  V30 66 1 29 63
M  V30 67 1 30 64
M  V30 68 1 33 65
M  V30 69 1 33 66
M  V30 70 1 33 67
M  V30 71 1 34 68
M  V30 72 1 34 69
M  V30 73 1 34 70
M  V30 END BOND
M  V30 END CTAB
M  END
>  <Dataset>  (527) 
ChEMBL_Kinases

>  <Ligand_Instance>  (527) 
nan

>  <PDB_ID>  (527) 
nan

>  <Standardized_SMILES>  (527) 
COc1cc(N2CCC(N(C)C)CC2)ccc1Nc1ncc(Cl)c(Nc2ccccc2P(C)(C)=O)n1

>  <Name>  (527) 
nan

>  <Pocket>  (527) 
nan

>  <ATP_Site>  (527) 
nan

>  <Peripheral>  (527) 
nan

>  <Num_H_Atoms_ProtBoundConf>  (527) 
nan

>  <Num_Resolved_Atoms>  (527) 
nan

>  <Num_Not_Resolved_Atoms>  (527) 
nan

$$$$
CHEMBL3398190
     RDKit          3D

  0  0  0  0  0  0  0  0  0  0999 V3000
M  V30 BEGIN CTAB
M  V30 COUNTS 36 40 0 0 0
M  V30 BEGIN ATOM
M  V30 1 O -1.091674 -3.836577 3.207296 0
M  V30 2 C -0.121282 -3.159132 2.719116 0
M  V30 3 N 1.171782 -3.107476 3.357165 0
M  V30 4 C 1.966435 -2.254739 2.505553 0
M  V30 5 O 3.148668 -2.079252 2.890656 0
M  V30 6 C 1.130804 -1.826242 1.394018 0
M  V30 7 C 1.665375 -0.982343 0.332703 0
M  V30 8 N 1.568195 -1.140511 -1.000790 0
M  V30 9 N 2.176082 -0.141460 -1.637559 0
M  V30 10 C 2.679044 0.685986 -0.711023 0
M  V30 11 C 3.383615 1.861083 -0.840724 0
M  V30 12 C 3.780367 2.531024 0.294912 0
M  V30 13 C 3.480666 2.040296 1.546254 0
M  V30 14 C 2.768149 0.851438 1.594902 0
M  V30 15 N 2.371167 0.179462 0.498583 0
M  V30 16 C -0.086784 -2.334092 1.488958 0
M  V30 17 C -1.223155 -2.139300 0.600945 0
M  V30 18 C -2.054500 -3.147944 0.097390 0
M  V30 19 N -3.013309 -2.616778 -0.682631 0
M  V30 20 C -2.869881 -1.278279 -0.731598 0
M  V30 21 C -3.556802 -0.249660 -1.357199 0
M  V30 22 C -3.177262 1.076789 -1.216487 0
M  V30 23 C -2.072300 1.376266 -0.421518 0
M  V30 24 C -1.427223 0.317450 0.174857 0
M  V30 25 C -1.773867 -1.000908 0.056668 0
M  V30 26 H 1.398350 -3.619139 4.260479 0
M  V30 27 H 3.637027 2.280564 -1.789397 0
M  V30 28 H 4.332891 3.452963 0.248871 0
M  V30 29 H 3.779808 2.551202 2.476983 0
M  V30 30 H 2.546374 0.512386 2.602334 0
M  V30 31 H -2.012827 -4.216235 0.251667 0
M  V30 32 H -3.785696 -3.105636 -1.207319 0
M  V30 33 H -4.408884 -0.514283 -1.967345 0
M  V30 34 H -3.710081 1.886050 -1.703136 0
M  V30 35 H -1.789097 2.394935 -0.318915 0
M  V30 36 H -0.596506 0.625221 0.780316 0
M  V30 END ATOM
M  V30 BEGIN BOND
M  V30 1 2 1 2
M  V30 2 1 2 3
M  V30 3 1 3 4
M  V30 4 2 4 5
M  V30 5 1 4 6
M  V30 6 1 6 7
M  V30 7 2 7 8
M  V30 8 1 8 9
M  V30 9 2 9 10
M  V30 10 1 10 11
M  V30 11 2 11 12
M  V30 12 1 12 13
M  V30 13 2 13 14
M  V30 14 1 14 15
M  V30 15 2 6 16
M  V30 16 1 16 17
M  V30 17 2 17 18
M  V30 18 1 18 19
M  V30 19 1 19 20
M  V30 20 2 20 21
M  V30 21 1 21 22
M  V30 22 2 22 23
M  V30 23 1 23 24
M  V30 24 2 24 25
M  V30 25 1 16 2
M  V30 26 1 25 17
M  V30 27 1 15 7
M  V30 28 1 25 20
M  V30 29 1 15 10
M  V30 30 1 3 26
M  V30 31 1 11 27
M  V30 32 1 12 28
M  V30 33 1 13 29
M  V30 34 1 14 30
M  V30 35 1 18 31
M  V30 36 1 19 32
M  V30 37 1 21 33
M  V30 38 1 22 34
M  V30 39 1 23 35
M  V30 40 1 24 36
M  V30 END BOND
M  V30 END CTAB
M  END
>  <Dataset>  (528) 
ChEMBL_Kinases

>  <Ligand_Instance>  (528) 
nan

>  <PDB_ID>  (528) 
nan

>  <Standardized_SMILES>  (528) 
O=C1NC(=O)C(c2nnc3ccccn23)=C1c1c[nH]c2ccccc12

>  <Name>  (528) 
nan

>  <Pocket>  (528) 
nan

>  <ATP_Site>  (528) 
nan

>  <Peripheral>  (528) 
nan

>  <Num_H_Atoms_ProtBoundConf>  (528) 
nan

>  <Num_Resolved_Atoms>  (528) 
nan

>  <Num_Not_Resolved_Atoms>  (528) 
nan

$$$$
CHEMBL3394762
     RDKit          3D

  0  0  0  0  0  0  0  0  0  0999 V3000
M  V30 BEGIN CTAB
M  V30 COUNTS 46 47 0 0 0
M  V30 BEGIN ATOM
M  V30 1 C -1.322443 -4.545949 1.958241 0
M  V30 2 C -0.002707 -4.108320 1.348521 0
M  V30 3 N -0.141131 -2.855291 0.662404 0
M  V30 4 C -0.968208 -3.000362 -0.521981 0
M  V30 5 C -0.349136 -3.815850 -1.608849 0
M  V30 6 C 1.095388 -2.200137 0.385769 0
M  V30 7 C 1.858385 -1.675176 1.536220 0
M  V30 8 O 3.032742 -1.081751 1.018165 0
M  V30 9 C 1.147197 -0.730031 2.455501 0
M  V30 10 N 0.666282 0.474333 1.814563 0
M  V30 11 C 1.482568 1.527606 1.632060 0
M  V30 12 C 0.881960 2.581605 0.977558 0
M  V30 13 C 1.182131 3.944100 0.490936 0
M  V30 14 C 2.588369 4.291135 0.672577 0
M  V30 15 O 3.520459 3.583600 1.177823 0
M  V30 16 O 3.522439 5.279270 0.479363 0
M  V30 17 C -0.422349 2.131900 0.739815 0
M  V30 18 C -1.579846 2.605251 0.157466 0
M  V30 19 C -2.769308 1.914810 0.067685 0
M  V30 20 C -2.808943 0.630636 0.609488 0
M  V30 21 C -1.667135 0.137146 1.194564 0
M  V30 22 C -0.497120 0.860966 1.262759 0
M  V30 23 H -1.826700 -5.287037 1.327397 0
M  V30 24 H -1.094954 -5.019490 2.955548 0
M  V30 25 H -1.950556 -3.668697 2.172796 0
M  V30 26 H 0.375407 -4.926414 0.701647 0
M  V30 27 H 0.741927 -3.974812 2.162823 0
M  V30 28 H -1.896531 -3.547812 -0.188562 0
M  V30 29 H -1.182723 -1.993602 -0.912664 0
M  V30 30 H -0.736499 -4.875896 -1.591859 0
M  V30 31 H -0.734568 -3.405171 -2.588021 0
M  V30 32 H 0.735896 -3.773611 -1.680203 0
M  V30 33 H 1.750863 -2.981016 -0.108010 0
M  V30 34 H 0.960249 -1.433764 -0.422900 0
M  V30 35 H 2.248815 -2.502201 2.200340 0
M  V30 36 H 3.605058 -0.746612 1.782156 0
M  V30 37 H 0.270184 -1.286249 2.861642 0
M  V30 38 H 1.759864 -0.434726 3.321788 0
M  V30 39 H 2.506678 1.654616 1.921489 0
M  V30 40 H 0.486956 4.689763 0.935724 0
M  V30 41 H 0.980674 3.949437 -0.616098 0
M  V30 42 H 4.107681 5.402868 -0.345737 0
M  V30 43 H -1.559907 3.595503 -0.262940 0
M  V30 44 H -3.627677 2.365313 -0.407134 0
M  V30 45 H -3.724169 0.055572 0.557119 0
M  V30 46 H -1.757267 -0.851925 1.600913 0
M  V30 END ATOM
M  V30 BEGIN BOND
M  V30 1 1 1 2
M  V30 2 1 2 3
M  V30 3 1 3 4
M  V30 4 1 4 5
M  V30 5 1 3 6
M  V30 6 1 6 7
M  V30 7 1 7 8
M  V30 8 1 7 9
M  V30 9 1 9 10
M  V30 10 1 10 11
M  V30 11 2 11 12
M  V30 12 1 12 13
M  V30 13 1 13 14
M  V30 14 2 14 15
M  V30 15 1 14 16
M  V30 16 1 12 17
M  V30 17 2 17 18
M  V30 18 1 18 19
M  V30 19 2 19 20
M  V30 20 1 20 21
M  V30 21 2 21 22
M  V30 22 1 22 10
M  V30 23 1 22 17
M  V30 24 1 1 23
M  V30 25 1 1 24
M  V30 26 1 1 25
M  V30 27 1 2 26
M  V30 28 1 2 27
M  V30 29 1 4 28
M  V30 30 1 4 29
M  V30 31 1 5 30
M  V30 32 1 5 31
M  V30 33 1 5 32
M  V30 34 1 6 33
M  V30 35 1 6 34
M  V30 36 1 7 35
M  V30 37 1 8 36
M  V30 38 1 9 37
M  V30 39 1 9 38
M  V30 40 1 11 39
M  V30 41 1 13 40
M  V30 42 1 13 41
M  V30 43 1 16 42
M  V30 44 1 18 43
M  V30 45 1 19 44
M  V30 46 1 20 45
M  V30 47 1 21 46
M  V30 END BOND
M  V30 END CTAB
M  END
>  <Dataset>  (529) 
ChEMBL_Kinases

>  <Ligand_Instance>  (529) 
nan

>  <PDB_ID>  (529) 
nan

>  <Standardized_SMILES>  (529) 
CCN(CC)CC(O)Cn1cc(CC(=O)O)c2ccccc21

>  <Name>  (529) 
nan

>  <Pocket>  (529) 
nan

>  <ATP_Site>  (529) 
nan

>  <Peripheral>  (529) 
nan

>  <Num_H_Atoms_ProtBoundConf>  (529) 
nan

>  <Num_Resolved_Atoms>  (529) 
nan

>  <Num_Not_Resolved_Atoms>  (529) 
nan

$$$$
CHEMBL3401125
     RDKit          3D

  0  0  0  0  0  0  0  0  0  0999 V3000
M  V30 BEGIN CTAB
M  V30 COUNTS 42 44 0 0 0
M  V30 BEGIN ATOM
M  V30 1 C 0.550993 -3.401323 -0.108167 0
M  V30 2 C 1.808683 -3.405394 0.716043 0 CFG=2
M  V30 3 O 1.730563 -4.371533 1.742920 0
M  V30 4 C 0.669212 -4.131411 2.564580 0
M  V30 5 C 0.389260 -2.711954 2.945711 0
M  V30 6 N 0.769779 -1.696785 1.994031 0
M  V30 7 C 0.080219 -0.495813 1.643370 0
M  V30 8 N 0.344928 0.133351 0.486424 0
M  V30 9 C -0.221232 1.273387 0.076695 0
M  V30 10 C 0.088031 1.923061 -1.183013 0
M  V30 11 C -0.489395 3.147478 -1.538467 0
M  V30 12 C -0.219657 3.790327 -2.723625 0
M  V30 13 N 0.624265 3.288517 -3.636994 0
M  V30 14 C 1.218814 2.109242 -3.361814 0
M  V30 15 C 0.932376 1.491369 -2.174893 0
M  V30 16 F 1.555152 0.324546 -1.985712 0
M  V30 17 C -1.157660 1.878919 0.884347 0
M  V30 18 C -1.416849 1.219339 2.069306 0
M  V30 19 O -2.287711 1.783556 2.820820 0
M  V30 20 N -0.824564 0.051283 2.470052 0
M  V30 21 C -1.254770 -0.408259 3.756546 0
M  V30 22 C 2.035520 -2.104906 1.472918 0 CFG=2
M  V30 23 C 2.780419 -1.153197 0.604995 0
M  V30 24 H -0.234495 -2.728451 0.245145 0
M  V30 25 H 0.082714 -4.432610 -0.041158 0
M  V30 26 H 0.781389 -3.270205 -1.194361 0
M  V30 27 H 2.673135 -3.627933 0.090251 0
M  V30 28 H 0.877917 -4.711945 3.516281 0
M  V30 29 H -0.224737 -4.639649 2.129564 0
M  V30 30 H 0.973869 -2.520408 3.875802 0
M  V30 31 H -0.726067 -2.700413 3.117681 0
M  V30 32 H -1.185575 3.683138 -0.920094 0
M  V30 33 H -0.674538 4.743621 -2.984721 0
M  V30 34 H 1.903869 1.695640 -4.090597 0
M  V30 35 H -1.706181 2.793116 0.705013 0
M  V30 36 H -1.648624 0.484262 4.368418 0
M  V30 37 H -0.499586 -0.813325 4.419424 0
M  V30 38 H -2.168016 -1.054708 3.735648 0
M  V30 39 H 2.705573 -2.369630 2.346617 0
M  V30 40 H 2.609479 -0.109718 0.826650 0
M  V30 41 H 2.727387 -1.442258 -0.472737 0
M  V30 42 H 3.891002 -1.304868 0.822813 0
M  V30 END ATOM
M  V30 BEGIN BOND
M  V30 1 1 1 2
M  V30 2 1 2 3
M  V30 3 1 3 4
M  V30 4 1 4 5
M  V30 5 1 5 6
M  V30 6 1 6 7
M  V30 7 2 7 8
M  V30 8 1 8 9
M  V30 9 1 9 10
M  V30 10 2 10 11
M  V30 11 1 11 12
M  V30 12 2 12 13
M  V30 13 1 13 14
M  V30 14 2 14 15
M  V30 15 1 15 16
M  V30 16 2 9 17
M  V30 17 1 17 18
M  V30 18 2 18 19
M  V30 19 1 18 20
M  V30 20 1 20 21
M  V30 21 1 6 22
M  V30 22 1 22 23
M  V30 23 1 22 2
M  V30 24 1 20 7
M  V30 25 1 15 10
M  V30 26 1 1 24
M  V30 27 1 1 25
M  V30 28 1 1 26
M  V30 29 1 2 27 CFG=3
M  V30 30 1 4 28
M  V30 31 1 4 29
M  V30 32 1 5 30
M  V30 33 1 5 31
M  V30 34 1 11 32
M  V30 35 1 12 33
M  V30 36 1 14 34
M  V30 37 1 17 35
M  V30 38 1 21 36
M  V30 39 1 21 37
M  V30 40 1 21 38
M  V30 41 1 22 39 CFG=1
M  V30 42 1 23 40
M  V30 43 1 23 41
M  V30 44 1 23 42
M  V30 END BOND
M  V30 END CTAB
M  END
>  <Dataset>  (530) 
ChEMBL_Kinases

>  <Ligand_Instance>  (530) 
nan

>  <PDB_ID>  (530) 
nan

>  <Standardized_SMILES>  (530) 
C[C@@H]1OCCN(c2nc(-c3ccncc3F)cc(=O)n2C)[C@@H]1C

>  <Name>  (530) 
nan

>  <Pocket>  (530) 
nan

>  <ATP_Site>  (530) 
nan

>  <Peripheral>  (530) 
nan

>  <Num_H_Atoms_ProtBoundConf>  (530) 
nan

>  <Num_Resolved_Atoms>  (530) 
nan

>  <Num_Not_Resolved_Atoms>  (530) 
nan

$$$$
CHEMBL3401124
     RDKit          3D

  0  0  0  0  0  0  0  0  0  0999 V3000
M  V30 BEGIN CTAB
M  V30 COUNTS 42 44 0 0 0
M  V30 BEGIN ATOM
M  V30 1 C -0.663799 -3.943147 -0.294798 0
M  V30 2 C 0.647250 -3.372362 0.235400 0 CFG=2
M  V30 3 C 0.851308 -4.104551 1.579124 0
M  V30 4 O -0.352660 -4.101597 2.289933 0
M  V30 5 C -0.908633 -2.829776 2.328364 0 CFG=1
M  V30 6 C -1.305768 -2.448131 3.748972 0
M  V30 7 C 0.094854 -1.827727 1.887647 0
M  V30 8 N 0.593144 -1.974796 0.537077 0
M  V30 9 C 0.907928 -0.768415 -0.148592 0
M  V30 10 N 0.713097 0.349956 0.540949 0
M  V30 11 C 0.950868 1.589655 0.073697 0
M  V30 12 C 0.742302 2.810236 0.832833 0
M  V30 13 C 0.979374 4.053199 0.296966 0
M  V30 14 C 0.791317 5.213142 0.998166 0
M  V30 15 N 0.360146 5.215063 2.263864 0
M  V30 16 C 0.109534 4.031506 2.847184 0
M  V30 17 C 0.301297 2.873864 2.135569 0
M  V30 18 F 0.028731 1.745257 2.799221 0
M  V30 19 C 1.429045 1.691881 -1.209872 0
M  V30 20 C 1.642906 0.554431 -1.953638 0
M  V30 21 O 2.086251 0.586229 -3.152514 0
M  V30 22 N 1.375296 -0.649211 -1.399926 0
M  V30 23 C 1.603579 -1.828577 -2.179098 0
M  V30 24 H -0.427222 -4.569361 -1.210399 0
M  V30 25 H -1.176722 -4.610449 0.396634 0
M  V30 26 H -1.301133 -3.104395 -0.565652 0
M  V30 27 H 1.507209 -3.698792 -0.376890 0
M  V30 28 H 1.713108 -3.734872 2.134344 0
M  V30 29 H 1.079725 -5.154154 1.303871 0
M  V30 30 H -1.816538 -2.751859 1.726934 0
M  V30 31 H -2.389716 -2.573101 3.912597 0
M  V30 32 H -1.088762 -1.378243 3.954225 0
M  V30 33 H -0.733452 -3.063595 4.495136 0
M  V30 34 H 0.974214 -1.905127 2.593383 0
M  V30 35 H -0.271397 -0.783679 2.067738 0
M  V30 36 H 1.324421 4.205057 -0.697881 0
M  V30 37 H 0.975188 6.194555 0.584839 0
M  V30 38 H -0.241173 4.034761 3.876790 0
M  V30 39 H 1.676025 2.589509 -1.750561 0
M  V30 40 H 1.775785 -1.517019 -3.264163 0
M  V30 41 H 2.571849 -2.341165 -1.942522 0
M  V30 42 H 0.736113 -2.496748 -2.263238 0
M  V30 END ATOM
M  V30 BEGIN BOND
M  V30 1 1 1 2
M  V30 2 1 2 3
M  V30 3 1 3 4
M  V30 4 1 4 5
M  V30 5 1 5 6
M  V30 6 1 5 7
M  V30 7 1 7 8
M  V30 8 1 8 9
M  V30 9 2 9 10
M  V30 10 1 10 11
M  V30 11 1 11 12
M  V30 12 2 12 13
M  V30 13 1 13 14
M  V30 14 2 14 15
M  V30 15 1 15 16
M  V30 16 2 16 17
M  V30 17 1 17 18
M  V30 18 2 11 19
M  V30 19 1 19 20
M  V30 20 2 20 21
M  V30 21 1 20 22
M  V30 22 1 22 23
M  V30 23 1 8 2
M  V30 24 1 22 9
M  V30 25 1 17 12
M  V30 26 1 1 24
M  V30 27 1 1 25
M  V30 28 1 1 26
M  V30 29 1 2 27 CFG=3
M  V30 30 1 3 28
M  V30 31 1 3 29
M  V30 32 1 5 30 CFG=3
M  V30 33 1 6 31
M  V30 34 1 6 32
M  V30 35 1 6 33
M  V30 36 1 7 34
M  V30 37 1 7 35
M  V30 38 1 13 36
M  V30 39 1 14 37
M  V30 40 1 16 38
M  V30 41 1 19 39
M  V30 42 1 23 40
M  V30 43 1 23 41
M  V30 44 1 23 42
M  V30 END BOND
M  V30 END CTAB
M  END
>  <Dataset>  (531) 
ChEMBL_Kinases

>  <Ligand_Instance>  (531) 
nan

>  <PDB_ID>  (531) 
nan

>  <Standardized_SMILES>  (531) 
C[C@@H]1CO[C@@H](C)CN1c1nc(-c2ccncc2F)cc(=O)n1C

>  <Name>  (531) 
nan

>  <Pocket>  (531) 
nan

>  <ATP_Site>  (531) 
nan

>  <Peripheral>  (531) 
nan

>  <Num_H_Atoms_ProtBoundConf>  (531) 
nan

>  <Num_Resolved_Atoms>  (531) 
nan

>  <Num_Not_Resolved_Atoms>  (531) 
nan

$$$$
CHEMBL3401123
     RDKit          3D

  0  0  0  0  0  0  0  0  0  0999 V3000
M  V30 BEGIN CTAB
M  V30 COUNTS 42 44 0 0 0
M  V30 BEGIN ATOM
M  V30 1 C 1.662568 -4.220995 2.675097 0
M  V30 2 C 1.875892 -2.873691 2.034088 0 CFG=2
M  V30 3 C 0.704452 -1.967308 2.311715 0
M  V30 4 N 0.048748 -1.626840 1.047632 0
M  V30 5 C -0.362808 -0.266719 0.887404 0
M  V30 6 N 0.541477 0.588761 0.329981 0
M  V30 7 C 0.276995 1.887940 0.126432 0
M  V30 8 C 1.325570 2.685450 -0.473930 0
M  V30 9 C 2.511879 2.060100 -0.791802 0
M  V30 10 C 3.561570 2.773403 -1.372666 0
M  V30 11 N 3.477118 4.080264 -1.648622 0
M  V30 12 C 2.336630 4.729370 -1.354361 0
M  V30 13 C 1.304192 4.021426 -0.781538 0
M  V30 14 F 0.182175 4.720899 -0.506438 0
M  V30 15 C -0.976911 2.279129 0.526153 0
M  V30 16 C -1.897828 1.427000 1.089312 0
M  V30 17 O -3.028934 1.871886 1.428120 0
M  V30 18 N -1.587816 0.131503 1.274114 0
M  V30 19 C -2.531310 -0.802008 1.865397 0
M  V30 20 C -0.101078 -2.706630 0.119434 0 CFG=2
M  V30 21 C -1.080224 -3.721310 0.672856 0
M  V30 22 C 1.224765 -3.425200 -0.127130 0
M  V30 23 O 2.219903 -2.953455 0.698859 0
M  V30 24 H 0.899622 -4.103845 3.493531 0
M  V30 25 H 2.583862 -4.587440 3.173116 0
M  V30 26 H 1.279563 -4.981804 1.983886 0
M  V30 27 H 2.758874 -2.408644 2.544265 0
M  V30 28 H 0.967786 -1.068292 2.898494 0
M  V30 29 H -0.048971 -2.513641 2.921745 0
M  V30 30 H 2.701759 1.000483 -0.615718 0
M  V30 31 H 4.480989 2.262761 -1.612881 0
M  V30 32 H 2.236398 5.785257 -1.564765 0
M  V30 33 H -1.254811 3.290329 0.396007 0
M  V30 34 H -2.128574 -1.275848 2.779906 0
M  V30 35 H -2.927322 -1.524157 1.120459 0
M  V30 36 H -3.423367 -0.223677 2.199112 0
M  V30 37 H -0.496903 -2.405305 -0.865692 0
M  V30 38 H -1.369946 -3.510768 1.729073 0
M  V30 39 H -2.054755 -3.707230 0.116357 0
M  V30 40 H -0.699260 -4.759635 0.576176 0
M  V30 41 H 1.586248 -3.223175 -1.176160 0
M  V30 42 H 1.086678 -4.530889 -0.095304 0
M  V30 END ATOM
M  V30 BEGIN BOND
M  V30 1 1 1 2
M  V30 2 1 2 3
M  V30 3 1 3 4
M  V30 4 1 4 5
M  V30 5 2 5 6
M  V30 6 1 6 7
M  V30 7 1 7 8
M  V30 8 2 8 9
M  V30 9 1 9 10
M  V30 10 2 10 11
M  V30 11 1 11 12
M  V30 12 2 12 13
M  V30 13 1 13 14
M  V30 14 2 7 15
M  V30 15 1 15 16
M  V30 16 2 16 17
M  V30 17 1 16 18
M  V30 18 1 18 19
M  V30 19 1 4 20
M  V30 20 1 20 21
M  V30 21 1 20 22
M  V30 22 1 22 23
M  V30 23 1 23 2
M  V30 24 1 18 5
M  V30 25 1 13 8
M  V30 26 1 1 24
M  V30 27 1 1 25
M  V30 28 1 1 26
M  V30 29 1 2 27 CFG=1
M  V30 30 1 3 28
M  V30 31 1 3 29
M  V30 32 1 9 30
M  V30 33 1 10 31
M  V30 34 1 12 32
M  V30 35 1 15 33
M  V30 36 1 19 34
M  V30 37 1 19 35
M  V30 38 1 19 36
M  V30 39 1 20 37 CFG=3
M  V30 40 1 21 38
M  V30 41 1 21 39
M  V30 42 1 21 40
M  V30 43 1 22 41
M  V30 44 1 22 42
M  V30 END BOND
M  V30 END CTAB
M  END
>  <Dataset>  (532) 
ChEMBL_Kinases

>  <Ligand_Instance>  (532) 
nan

>  <PDB_ID>  (532) 
nan

>  <Standardized_SMILES>  (532) 
C[C@@H]1CN(c2nc(-c3ccncc3F)cc(=O)n2C)[C@H](C)CO1

>  <Name>  (532) 
nan

>  <Pocket>  (532) 
nan

>  <ATP_Site>  (532) 
nan

>  <Peripheral>  (532) 
nan

>  <Num_H_Atoms_ProtBoundConf>  (532) 
nan

>  <Num_Resolved_Atoms>  (532) 
nan

>  <Num_Not_Resolved_Atoms>  (532) 
nan

$$$$
CHEMBL3401122
     RDKit          3D

  0  0  0  0  0  0  0  0  0  0999 V3000
M  V30 BEGIN CTAB
M  V30 COUNTS 42 44 0 0 0
M  V30 BEGIN ATOM
M  V30 1 C -0.296946 -5.238944 1.532929 0
M  V30 2 C 0.580597 -4.067512 1.188920 0
M  V30 3 C -0.140055 -2.741726 1.248524 0 CFG=1
M  V30 4 C -0.710988 -2.421936 2.602102 0
M  V30 5 O 0.071569 -1.558878 3.332018 0
M  V30 6 C 1.439398 -1.810305 3.231582 0
M  V30 7 C 1.974999 -1.685584 1.831581 0
M  V30 8 N 0.808952 -1.660852 0.930380 0
M  V30 9 C 0.832041 -0.611077 -0.058775 0
M  V30 10 N 0.399073 0.567112 0.418116 0
M  V30 11 C 0.317698 1.706174 -0.284294 0
M  V30 12 C -0.156029 2.973114 0.261121 0
M  V30 13 C -0.220477 4.125627 -0.490866 0
M  V30 14 C -0.690103 5.249831 0.155016 0
M  V30 15 N -1.075573 5.263317 1.451113 0
M  V30 16 C -0.997515 4.112343 2.156060 0
M  V30 17 C -0.540169 2.920386 1.608836 0
M  V30 18 F -0.475536 1.787250 2.347870 0
M  V30 19 C 0.732412 1.558175 -1.589312 0
M  V30 20 C 1.186310 0.379437 -2.139662 0
M  V30 21 O 1.563286 0.250167 -3.333471 0
M  V30 22 N 1.227733 -0.710567 -1.339985 0
M  V30 23 C 1.677179 -2.028851 -1.771241 0
M  V30 24 H 0.315079 -6.168727 1.380242 0
M  V30 25 H -0.581059 -5.270644 2.600595 0
M  V30 26 H -1.166213 -5.219500 0.834724 0
M  V30 27 H 0.863714 -4.221088 0.104910 0
M  V30 28 H 1.547470 -4.084658 1.721115 0
M  V30 29 H -0.975739 -2.783672 0.506953 0
M  V30 30 H -0.968395 -3.354844 3.177591 0
M  V30 31 H -1.695243 -1.919955 2.466299 0
M  V30 32 H 1.921537 -1.054842 3.912711 0
M  V30 33 H 1.688715 -2.784665 3.714191 0
M  V30 34 H 2.717965 -2.438176 1.548329 0
M  V30 35 H 2.530717 -0.705385 1.792686 0
M  V30 36 H 0.081214 4.146275 -1.525650 0
M  V30 37 H -0.729507 6.145265 -0.469729 0
M  V30 38 H -1.318349 4.178433 3.187156 0
M  V30 39 H 0.724318 2.388143 -2.278009 0
M  V30 40 H 1.947507 -1.877885 -2.859009 0
M  V30 41 H 2.591827 -2.351657 -1.284500 0
M  V30 42 H 0.861479 -2.771668 -1.787454 0
M  V30 END ATOM
M  V30 BEGIN BOND
M  V30 1 1 1 2
M  V30 2 1 2 3
M  V30 3 1 3 4
M  V30 4 1 4 5
M  V30 5 1 5 6
M  V30 6 1 6 7
M  V30 7 1 7 8
M  V30 8 1 8 9
M  V30 9 2 9 10
M  V30 10 1 10 11
M  V30 11 1 11 12
M  V30 12 2 12 13
M  V30 13 1 13 14
M  V30 14 2 14 15
M  V30 15 1 15 16
M  V30 16 2 16 17
M  V30 17 1 17 18
M  V30 18 2 11 19
M  V30 19 1 19 20
M  V30 20 2 20 21
M  V30 21 1 20 22
M  V30 22 1 22 23
M  V30 23 1 8 3
M  V30 24 1 22 9
M  V30 25 1 17 12
M  V30 26 1 1 24
M  V30 27 1 1 25
M  V30 28 1 1 26
M  V30 29 1 2 27
M  V30 30 1 2 28
M  V30 31 1 3 29 CFG=3
M  V30 32 1 4 30
M  V30 33 1 4 31
M  V30 34 1 6 32
M  V30 35 1 6 33
M  V30 36 1 7 34
M  V30 37 1 7 35
M  V30 38 1 13 36
M  V30 39 1 14 37
M  V30 40 1 16 38
M  V30 41 1 19 39
M  V30 42 1 23 40
M  V30 43 1 23 41
M  V30 44 1 23 42
M  V30 END BOND
M  V30 END CTAB
M  END
>  <Dataset>  (533) 
ChEMBL_Kinases

>  <Ligand_Instance>  (533) 
nan

>  <PDB_ID>  (533) 
nan

>  <Standardized_SMILES>  (533) 
CC[C@H]1COCCN1c1nc(-c2ccncc2F)cc(=O)n1C

>  <Name>  (533) 
nan

>  <Pocket>  (533) 
nan

>  <ATP_Site>  (533) 
nan

>  <Peripheral>  (533) 
nan

>  <Num_H_Atoms_ProtBoundConf>  (533) 
nan

>  <Num_Resolved_Atoms>  (533) 
nan

>  <Num_Not_Resolved_Atoms>  (533) 
nan

$$$$
CHEMBL3401121
     RDKit          3D

  0  0  0  0  0  0  0  0  0  0999 V3000
M  V30 BEGIN CTAB
M  V30 COUNTS 39 41 0 0 0
M  V30 BEGIN ATOM
M  V30 1 C -1.233518 -2.511873 0.132663 0
M  V30 2 C -0.685192 -2.094275 1.463365 0 CFG=1
M  V30 3 C -0.968785 -3.208717 2.439122 0
M  V30 4 O -0.617178 -4.437661 1.877275 0
M  V30 5 C 0.645280 -4.341907 1.347189 0
M  V30 6 C 1.405666 -3.095965 1.825827 0
M  V30 7 N 0.769864 -1.870534 1.438107 0
M  V30 8 C 1.209459 -0.566775 1.081161 0
M  V30 9 N 0.271284 0.277358 0.626417 0
M  V30 10 C 0.499545 1.541350 0.254034 0
M  V30 11 C -0.663023 2.272865 -0.213597 0
M  V30 12 C -1.888111 1.640554 -0.289553 0
M  V30 13 C -3.029376 2.296865 -0.727159 0
M  V30 14 N -3.012970 3.587663 -1.103391 0
M  V30 15 C -1.851442 4.245048 -1.048053 0
M  V30 16 C -0.729840 3.579086 -0.612152 0
M  V30 17 F 0.409254 4.300253 -0.576621 0
M  V30 18 C 1.777743 1.975870 0.352431 0
M  V30 19 C 2.781505 1.158360 0.811163 0
M  V30 20 O 3.930136 1.604413 0.881522 0
M  V30 21 N 2.466713 -0.103110 1.166931 0
M  V30 22 C 3.512099 -0.942526 1.657699 0
M  V30 23 H -0.450022 -2.492035 -0.649506 0
M  V30 24 H -2.085609 -1.842996 -0.099868 0
M  V30 25 H -1.656395 -3.534089 0.150693 0
M  V30 26 H -1.196567 -1.180003 1.853679 0
M  V30 27 H -0.592984 -3.058153 3.447301 0
M  V30 28 H -2.096504 -3.249822 2.508099 0
M  V30 29 H 0.713492 -4.359262 0.250619 0
M  V30 30 H 1.289619 -5.192425 1.727375 0
M  V30 31 H 1.441125 -3.140013 2.947251 0
M  V30 32 H 2.431334 -3.246755 1.430707 0
M  V30 33 H -2.050726 0.604044 -0.017676 0
M  V30 34 H -3.983249 1.796274 -0.784402 0
M  V30 35 H -1.825035 5.280504 -1.345694 0
M  V30 36 H 2.019785 2.965812 0.071212 0
M  V30 37 H 3.986670 -1.596798 0.898066 0
M  V30 38 H 3.269891 -1.444878 2.615452 0
M  V30 39 H 4.373026 -0.256554 1.958426 0
M  V30 END ATOM
M  V30 BEGIN BOND
M  V30 1 1 1 2
M  V30 2 1 2 3
M  V30 3 1 3 4
M  V30 4 1 4 5
M  V30 5 1 5 6
M  V30 6 1 6 7
M  V30 7 1 7 8
M  V30 8 2 8 9
M  V30 9 1 9 10
M  V30 10 1 10 11
M  V30 11 2 11 12
M  V30 12 1 12 13
M  V30 13 2 13 14
M  V30 14 1 14 15
M  V30 15 2 15 16
M  V30 16 1 16 17
M  V30 17 2 10 18
M  V30 18 1 18 19
M  V30 19 2 19 20
M  V30 20 1 19 21
M  V30 21 1 21 22
M  V30 22 1 7 2
M  V30 23 1 21 8
M  V30 24 1 16 11
M  V30 25 1 1 23
M  V30 26 1 1 24
M  V30 27 1 1 25
M  V30 28 1 2 26 CFG=1
M  V30 29 1 3 27
M  V30 30 1 3 28
M  V30 31 1 5 29
M  V30 32 1 5 30
M  V30 33 1 6 31
M  V30 34 1 6 32
M  V30 35 1 12 33
M  V30 36 1 13 34
M  V30 37 1 15 35
M  V30 38 1 18 36
M  V30 39 1 22 37
M  V30 40 1 22 38
M  V30 41 1 22 39
M  V30 END BOND
M  V30 END CTAB
M  END
>  <Dataset>  (534) 
ChEMBL_Kinases

>  <Ligand_Instance>  (534) 
nan

>  <PDB_ID>  (534) 
nan

>  <Standardized_SMILES>  (534) 
C[C@H]1COCCN1c1nc(-c2ccncc2F)cc(=O)n1C

>  <Name>  (534) 
nan

>  <Pocket>  (534) 
nan

>  <ATP_Site>  (534) 
nan

>  <Peripheral>  (534) 
nan

>  <Num_H_Atoms_ProtBoundConf>  (534) 
nan

>  <Num_Resolved_Atoms>  (534) 
nan

>  <Num_Not_Resolved_Atoms>  (534) 
nan

$$$$
CHEMBL3401120
     RDKit          3D

  0  0  0  0  0  0  0  0  0  0999 V3000
M  V30 BEGIN CTAB
M  V30 COUNTS 45 47 0 0 0
M  V30 BEGIN ATOM
M  V30 1 C 0.630357 -4.866098 -0.224304 0
M  V30 2 C 0.195722 -3.795549 0.792352 0
M  V30 3 C -1.169456 -4.153605 1.240545 0
M  V30 4 C 0.424215 -2.450348 0.224056 0 CFG=2
M  V30 5 C 1.963051 -2.397377 -0.030483 0
M  V30 6 O 2.485109 -2.831736 1.199736 0
M  V30 7 C 2.180151 -1.876062 2.150524 0
M  V30 8 C 0.691130 -1.677623 2.318506 0
M  V30 9 N 0.063962 -1.318972 1.044423 0
M  V30 10 C -0.676748 -0.100670 0.797373 0
M  V30 11 N 0.223180 0.916897 0.775859 0
M  V30 12 C -0.115752 2.197851 0.561826 0
M  V30 13 C 0.823714 3.313498 0.529352 0
M  V30 14 C 0.478849 4.624409 0.320886 0
M  V30 15 C 1.499081 5.567212 0.314521 0
M  V30 16 N 2.789537 5.253601 0.500732 0
M  V30 17 C 3.113772 3.965971 0.704019 0
M  V30 18 C 2.140756 2.967177 0.723263 0
M  V30 19 F 2.636482 1.724698 0.940228 0
M  V30 20 C -1.453158 2.455149 0.358049 0
M  V30 21 C -2.372182 1.427967 0.378943 0
M  V30 22 O -3.626110 1.517326 0.208889 0
M  V30 23 N -1.979311 0.161102 0.597125 0
M  V30 24 C -2.792302 -1.011173 0.640453 0
M  V30 25 H 0.045172 -5.780268 -0.082453 0
M  V30 26 H 0.447326 -4.417067 -1.234504 0
M  V30 27 H 1.710923 -5.053213 -0.085128 0
M  V30 28 H 0.880842 -4.008299 1.674472 0
M  V30 29 H -1.151020 -5.071588 1.909478 0
M  V30 30 H -1.719652 -3.411688 1.809847 0
M  V30 31 H -1.865889 -4.458164 0.402809 0
M  V30 32 H -0.018640 -2.388506 -0.793554 0
M  V30 33 H 2.285694 -1.402555 -0.330997 0
M  V30 34 H 2.158141 -3.201504 -0.762766 0
M  V30 35 H 2.681455 -0.945362 1.826490 0
M  V30 36 H 2.544278 -2.184235 3.172295 0
M  V30 37 H 0.236452 -2.519471 2.825931 0
M  V30 38 H 0.600606 -0.816500 3.041164 0
M  V30 39 H -0.536952 4.890727 0.174863 0
M  V30 40 H 1.171408 6.604772 0.145137 0
M  V30 41 H 4.191795 3.807883 0.845085 0
M  V30 42 H -1.901929 3.408800 0.174073 0
M  V30 43 H -2.974968 -1.402132 1.655304 0
M  V30 44 H -3.823436 -0.828941 0.226183 0
M  V30 45 H -2.286825 -1.809339 0.059547 0
M  V30 END ATOM
M  V30 BEGIN BOND
M  V30 1 1 1 2
M  V30 2 1 2 3
M  V30 3 1 2 4
M  V30 4 1 4 5
M  V30 5 1 5 6
M  V30 6 1 6 7
M  V30 7 1 7 8
M  V30 8 1 8 9
M  V30 9 1 9 10
M  V30 10 2 10 11
M  V30 11 1 11 12
M  V30 12 1 12 13
M  V30 13 2 13 14
M  V30 14 1 14 15
M  V30 15 2 15 16
M  V30 16 1 16 17
M  V30 17 2 17 18
M  V30 18 1 18 19
M  V30 19 2 12 20
M  V30 20 1 20 21
M  V30 21 2 21 22
M  V30 22 1 21 23
M  V30 23 1 23 24
M  V30 24 1 9 4
M  V30 25 1 23 10
M  V30 26 1 18 13
M  V30 27 1 1 25
M  V30 28 1 1 26
M  V30 29 1 1 27
M  V30 30 1 2 28
M  V30 31 1 3 29
M  V30 32 1 3 30
M  V30 33 1 3 31
M  V30 34 1 4 32 CFG=3
M  V30 35 1 5 33
M  V30 36 1 5 34
M  V30 37 1 7 35
M  V30 38 1 7 36
M  V30 39 1 8 37
M  V30 40 1 8 38
M  V30 41 1 14 39
M  V30 42 1 15 40
M  V30 43 1 17 41
M  V30 44 1 20 42
M  V30 45 1 24 43
M  V30 46 1 24 44
M  V30 47 1 24 45
M  V30 END BOND
M  V30 END CTAB
M  END
>  <Dataset>  (535) 
ChEMBL_Kinases

>  <Ligand_Instance>  (535) 
nan

>  <PDB_ID>  (535) 
nan

>  <Standardized_SMILES>  (535) 
CC(C)[C@@H]1COCCN1c1nc(-c2ccncc2F)cc(=O)n1C

>  <Name>  (535) 
nan

>  <Pocket>  (535) 
nan

>  <ATP_Site>  (535) 
nan

>  <Peripheral>  (535) 
nan

>  <Num_H_Atoms_ProtBoundConf>  (535) 
nan

>  <Num_Resolved_Atoms>  (535) 
nan

>  <Num_Not_Resolved_Atoms>  (535) 
nan

$$$$
CHEMBL3401119
     RDKit          3D

  0  0  0  0  0  0  0  0  0  0999 V3000
M  V30 BEGIN CTAB
M  V30 COUNTS 42 44 0 0 0
M  V30 BEGIN ATOM
M  V30 1 C -1.553036 -2.429026 0.633798 0
M  V30 2 C -0.493194 -3.474546 0.707504 0
M  V30 3 C 0.666081 -3.146192 1.606412 0 CFG=2
M  V30 4 C 0.296426 -2.919912 3.030385 0
M  V30 5 O 0.913416 -1.788293 3.547951 0
M  V30 6 C 2.266223 -1.715714 3.332858 0
M  V30 7 C 2.666433 -1.849179 1.870302 0
M  V30 8 N 1.386466 -1.958368 1.147338 0
M  V30 9 C 1.136776 -0.911183 0.184367 0
M  V30 10 N 0.505190 0.187869 0.635049 0
M  V30 11 C 0.205552 1.250943 -0.160405 0
M  V30 12 C -0.469374 2.430759 0.312106 0
M  V30 13 C -0.780604 3.515264 -0.477866 0
M  V30 14 C -1.425735 4.623585 0.010120 0
M  V30 15 N -1.754407 4.624594 1.309686 0
M  V30 16 C -1.470125 3.588328 2.116481 0
M  V30 17 C -0.820695 2.454133 1.659870 0
M  V30 18 F -0.528547 1.396108 2.476848 0
M  V30 19 C 0.617440 1.080391 -1.471856 0
M  V30 20 C 1.264222 -0.035258 -1.951774 0
M  V30 21 O 1.624015 -0.158978 -3.144776 0
M  V30 22 N 1.525057 -1.046062 -1.100347 0
M  V30 23 C 2.204064 -2.246375 -1.550731 0
M  V30 24 H -2.504701 -2.951051 0.323369 0
M  V30 25 H -1.789393 -1.915723 1.566523 0
M  V30 26 H -1.359330 -1.722381 -0.208288 0
M  V30 27 H -0.114213 -3.652327 -0.313772 0
M  V30 28 H -0.959524 -4.426421 1.032171 0
M  V30 29 H 1.359719 -4.015282 1.554737 0
M  V30 30 H -0.801363 -2.728761 3.147133 0
M  V30 31 H 0.516375 -3.830074 3.610553 0
M  V30 32 H 2.806428 -2.461800 3.973977 0
M  V30 33 H 2.569032 -0.676121 3.629251 0
M  V30 34 H 3.229026 -2.785098 1.692682 0
M  V30 35 H 3.288382 -1.027343 1.522277 0
M  V30 36 H -0.516921 3.509767 -1.512416 0
M  V30 37 H -1.668411 5.474186 -0.614067 0
M  V30 38 H -1.767332 3.654268 3.170606 0
M  V30 39 H 0.440026 1.845369 -2.195595 0
M  V30 40 H 2.896192 -1.932752 -2.383872 0
M  V30 41 H 2.786579 -2.659200 -0.702341 0
M  V30 42 H 1.472680 -2.964689 -1.984535 0
M  V30 END ATOM
M  V30 BEGIN BOND
M  V30 1 1 1 2
M  V30 2 1 2 3
M  V30 3 1 3 4
M  V30 4 1 4 5
M  V30 5 1 5 6
M  V30 6 1 6 7
M  V30 7 1 7 8
M  V30 8 1 8 9
M  V30 9 2 9 10
M  V30 10 1 10 11
M  V30 11 1 11 12
M  V30 12 2 12 13
M  V30 13 1 13 14
M  V30 14 2 14 15
M  V30 15 1 15 16
M  V30 16 2 16 17
M  V30 17 1 17 18
M  V30 18 2 11 19
M  V30 19 1 19 20
M  V30 20 2 20 21
M  V30 21 1 20 22
M  V30 22 1 22 23
M  V30 23 1 8 3
M  V30 24 1 22 9
M  V30 25 1 17 12
M  V30 26 1 1 24
M  V30 27 1 1 25
M  V30 28 1 1 26
M  V30 29 1 2 27
M  V30 30 1 2 28
M  V30 31 1 3 29 CFG=1
M  V30 32 1 4 30
M  V30 33 1 4 31
M  V30 34 1 6 32
M  V30 35 1 6 33
M  V30 36 1 7 34
M  V30 37 1 7 35
M  V30 38 1 13 36
M  V30 39 1 14 37
M  V30 40 1 16 38
M  V30 41 1 19 39
M  V30 42 1 23 40
M  V30 43 1 23 41
M  V30 44 1 23 42
M  V30 END BOND
M  V30 END CTAB
M  END
>  <Dataset>  (536) 
ChEMBL_Kinases

>  <Ligand_Instance>  (536) 
nan

>  <PDB_ID>  (536) 
nan

>  <Standardized_SMILES>  (536) 
CC[C@@H]1COCCN1c1nc(-c2ccncc2F)cc(=O)n1C

>  <Name>  (536) 
nan

>  <Pocket>  (536) 
nan

>  <ATP_Site>  (536) 
nan

>  <Peripheral>  (536) 
nan

>  <Num_H_Atoms_ProtBoundConf>  (536) 
nan

>  <Num_Resolved_Atoms>  (536) 
nan

>  <Num_Not_Resolved_Atoms>  (536) 
nan

$$$$
CHEMBL3401117
     RDKit          3D

  0  0  0  0  0  0  0  0  0  0999 V3000
M  V30 BEGIN CTAB
M  V30 COUNTS 46 49 0 0 0
M  V30 BEGIN ATOM
M  V30 1 C 0.983292 -3.939303 1.896493 0
M  V30 2 N -0.107447 -2.978113 1.996888 0
M  V30 3 C -0.139025 -1.910487 1.179936 0
M  V30 4 N 0.892705 -1.712321 0.211570 0
M  V30 5 C 0.694602 -2.301108 -1.113355 0
M  V30 6 C 0.759940 -1.265955 -2.212497 0
M  V30 7 O 1.030735 -0.027323 -1.620945 0
M  V30 8 C 2.313723 -0.159754 -1.065641 0
M  V30 9 C 2.894666 1.205664 -0.768705 0
M  V30 10 C 4.265245 1.234315 -0.170284 0
M  V30 11 C 3.670463 2.018688 0.999467 0
M  V30 12 C 2.272783 1.943551 0.373294 0
M  V30 13 C 2.196583 -1.041960 0.140157 0
M  V30 14 N -1.129047 -0.986721 1.230644 0
M  V30 15 C -2.160370 -1.069598 2.107561 0
M  V30 16 C -3.140283 -0.004309 2.038526 0
M  V30 17 C -2.967804 1.000334 1.109717 0
M  V30 18 C -3.881659 2.045103 1.004755 0
M  V30 19 N -4.967582 2.131703 1.791601 0
M  V30 20 C -5.174968 1.172900 2.711703 0
M  V30 21 C -4.266778 0.142682 2.809629 0
M  V30 22 F -4.529423 -0.781901 3.746327 0
M  V30 23 C -2.105450 -2.152901 2.918499 0
M  V30 24 C -1.112624 -3.096905 2.881546 0
M  V30 25 O -1.134388 -4.067078 3.663647 0
M  V30 26 H 0.693441 -4.694958 1.114320 0
M  V30 27 H 1.891695 -3.382709 1.587167 0
M  V30 28 H 1.156161 -4.489127 2.835417 0
M  V30 29 H -0.274595 -2.831714 -1.191084 0
M  V30 30 H 1.468041 -3.092213 -1.288679 0
M  V30 31 H -0.163393 -1.190772 -2.809838 0
M  V30 32 H 1.635110 -1.489038 -2.872229 0
M  V30 33 H 2.930370 -0.609658 -1.875297 0
M  V30 34 H 2.861066 1.801715 -1.711875 0
M  V30 35 H 4.996950 1.875270 -0.709132 0
M  V30 36 H 4.708657 0.273817 0.134120 0
M  V30 37 H 4.015900 3.077015 1.053445 0
M  V30 38 H 3.755472 1.479426 1.948314 0
M  V30 39 H 1.876748 2.954645 0.081756 0
M  V30 40 H 1.571359 1.394488 1.004900 0
M  V30 41 H 2.964722 -1.858166 0.001601 0
M  V30 42 H 2.412203 -0.463427 1.056295 0
M  V30 43 H -2.121424 1.034597 0.416106 0
M  V30 44 H -3.719643 2.817746 0.267248 0
M  V30 45 H -6.042821 1.224935 3.354088 0
M  V30 46 H -2.885607 -2.277545 3.630726 0
M  V30 END ATOM
M  V30 BEGIN BOND
M  V30 1 1 1 2
M  V30 2 1 2 3
M  V30 3 1 3 4
M  V30 4 1 4 5
M  V30 5 1 5 6
M  V30 6 1 6 7
M  V30 7 1 7 8
M  V30 8 1 8 9
M  V30 9 1 9 10
M  V30 10 1 10 11
M  V30 11 1 11 12
M  V30 12 1 8 13
M  V30 13 2 3 14
M  V30 14 1 14 15
M  V30 15 1 15 16
M  V30 16 2 16 17
M  V30 17 1 17 18
M  V30 18 2 18 19
M  V30 19 1 19 20
M  V30 20 2 20 21
M  V30 21 1 21 22
M  V30 22 2 15 23
M  V30 23 1 23 24
M  V30 24 2 24 25
M  V30 25 1 24 2
M  V30 26 1 13 4
M  V30 27 1 21 16
M  V30 28 1 12 9
M  V30 29 1 1 26
M  V30 30 1 1 27
M  V30 31 1 1 28
M  V30 32 1 5 29
M  V30 33 1 5 30
M  V30 34 1 6 31
M  V30 35 1 6 32
M  V30 36 1 8 33
M  V30 37 1 9 34
M  V30 38 1 10 35
M  V30 39 1 10 36
M  V30 40 1 11 37
M  V30 41 1 11 38
M  V30 42 1 12 39
M  V30 43 1 12 40
M  V30 44 1 13 41
M  V30 45 1 13 42
M  V30 46 1 17 43
M  V30 47 1 18 44
M  V30 48 1 20 45
M  V30 49 1 23 46
M  V30 END BOND
M  V30 END CTAB
M  END
>  <Dataset>  (537) 
ChEMBL_Kinases

>  <Ligand_Instance>  (537) 
nan

>  <PDB_ID>  (537) 
nan

>  <Standardized_SMILES>  (537) 
Cn1c(N2CCOC(C3CCC3)C2)nc(-c2ccncc2F)cc1=O

>  <Name>  (537) 
nan

>  <Pocket>  (537) 
nan

>  <ATP_Site>  (537) 
nan

>  <Peripheral>  (537) 
nan

>  <Num_H_Atoms_ProtBoundConf>  (537) 
nan

>  <Num_Resolved_Atoms>  (537) 
nan

>  <Num_Not_Resolved_Atoms>  (537) 
nan

$$$$
CHEMBL3401116
     RDKit          3D

  0  0  0  0  0  0  0  0  0  0999 V3000
M  V30 BEGIN CTAB
M  V30 COUNTS 48 50 0 0 0
M  V30 BEGIN ATOM
M  V30 1 C -0.333902 -4.515436 3.602128 0
M  V30 2 C 0.100578 -3.294171 4.319424 0
M  V30 3 C -0.294248 -2.031291 3.664899 0
M  V30 4 C 0.265393 -1.753953 2.344494 0
M  V30 5 C 0.004890 -2.609017 1.175274 0
M  V30 6 C 0.781759 -1.939134 0.012372 0
M  V30 7 N -0.247464 -1.504053 -0.926372 0
M  V30 8 C -0.433719 -0.104476 -1.027543 0
M  V30 9 N 0.430676 0.673045 -0.351258 0
M  V30 10 C 0.416610 2.008660 -0.317504 0
M  V30 11 C 1.357470 2.834422 0.417501 0
M  V30 12 C 1.285589 4.207957 0.410803 0
M  V30 13 C 2.169314 5.008502 1.102769 0
M  V30 14 N 3.165256 4.478182 1.833184 0
M  V30 15 C 3.303331 3.134368 1.890495 0
M  V30 16 C 2.400512 2.369249 1.185367 0
M  V30 17 F 2.601800 1.037207 1.290105 0
M  V30 18 C -0.572702 2.632060 -1.041355 0
M  V30 19 C -1.466568 1.892742 -1.738167 0
M  V30 20 O -2.409474 2.411711 -2.430528 0
M  V30 21 N -1.389653 0.533930 -1.725002 0
M  V30 22 C -2.351837 -0.231191 -2.450808 0
M  V30 23 C -0.800612 -2.655739 -1.512880 0
M  V30 24 C -1.558461 -3.350583 -0.366406 0
M  V30 25 O -1.341633 -2.703620 0.831140 0
M  V30 26 H -1.151621 -4.407454 2.887627 0
M  V30 27 H 0.517333 -5.044424 3.114727 0
M  V30 28 H -0.778755 -5.216846 4.393147 0
M  V30 29 H -0.240551 -3.324233 5.410994 0
M  V30 30 H 1.235746 -3.334633 4.463889 0
M  V30 31 H 0.098794 -1.198552 4.351316 0
M  V30 32 H -1.416979 -1.865494 3.713849 0
M  V30 33 H 0.093290 -0.656124 2.129636 0
M  V30 34 H 1.407522 -1.762391 2.475214 0
M  V30 35 H 0.391817 -3.619846 1.327761 0
M  V30 36 H 1.406785 -1.131691 0.366790 0
M  V30 37 H 1.454321 -2.709830 -0.442919 0
M  V30 38 H 0.549102 4.757731 -0.123540 0
M  V30 39 H 2.117978 6.088134 1.101743 0
M  V30 40 H 4.099337 2.719867 2.474461 0
M  V30 41 H -0.745328 3.693848 -1.136260 0
M  V30 42 H -1.934567 -0.575907 -3.414713 0
M  V30 43 H -2.901986 -0.965484 -1.858005 0
M  V30 44 H -3.182357 0.472032 -2.793786 0
M  V30 45 H -1.376171 -2.604538 -2.417283 0
M  V30 46 H 0.038481 -3.386806 -1.762648 0
M  V30 47 H -1.378434 -4.429928 -0.348896 0
M  V30 48 H -2.642639 -3.194017 -0.610513 0
M  V30 END ATOM
M  V30 BEGIN BOND
M  V30 1 1 1 2
M  V30 2 1 2 3
M  V30 3 1 3 4
M  V30 4 1 4 5
M  V30 5 1 5 6
M  V30 6 1 6 7
M  V30 7 1 7 8
M  V30 8 2 8 9
M  V30 9 1 9 10
M  V30 10 1 10 11
M  V30 11 2 11 12
M  V30 12 1 12 13
M  V30 13 2 13 14
M  V30 14 1 14 15
M  V30 15 2 15 16
M  V30 16 1 16 17
M  V30 17 2 10 18
M  V30 18 1 18 19
M  V30 19 2 19 20
M  V30 20 1 19 21
M  V30 21 1 21 22
M  V30 22 1 7 23
M  V30 23 1 23 24
M  V30 24 1 24 25
M  V30 25 1 25 5
M  V30 26 1 21 8
M  V30 27 1 16 11
M  V30 28 1 1 26
M  V30 29 1 1 27
M  V30 30 1 1 28
M  V30 31 1 2 29
M  V30 32 1 2 30
M  V30 33 1 3 31
M  V30 34 1 3 32
M  V30 35 1 4 33
M  V30 36 1 4 34
M  V30 37 1 5 35
M  V30 38 1 6 36
M  V30 39 1 6 37
M  V30 40 1 12 38
M  V30 41 1 13 39
M  V30 42 1 15 40
M  V30 43 1 18 41
M  V30 44 1 22 42
M  V30 45 1 22 43
M  V30 46 1 22 44
M  V30 47 1 23 45
M  V30 48 1 23 46
M  V30 49 1 24 47
M  V30 50 1 24 48
M  V30 END BOND
M  V30 END CTAB
M  END
>  <Dataset>  (538) 
ChEMBL_Kinases

>  <Ligand_Instance>  (538) 
nan

>  <PDB_ID>  (538) 
nan

>  <Standardized_SMILES>  (538) 
CCCCC1CN(c2nc(-c3ccncc3F)cc(=O)n2C)CCO1

>  <Name>  (538) 
nan

>  <Pocket>  (538) 
nan

>  <ATP_Site>  (538) 
nan

>  <Peripheral>  (538) 
nan

>  <Num_H_Atoms_ProtBoundConf>  (538) 
nan

>  <Num_Resolved_Atoms>  (538) 
nan

>  <Num_Not_Resolved_Atoms>  (538) 
nan

$$$$
CHEMBL3401115
     RDKit          3D

  0  0  0  0  0  0  0  0  0  0999 V3000
M  V30 BEGIN CTAB
M  V30 COUNTS 45 47 0 0 0
M  V30 BEGIN ATOM
M  V30 1 C -0.787220 -5.319993 0.094478 0
M  V30 2 C -0.209408 -4.118661 0.797675 0
M  V30 3 C -0.859614 -3.967285 2.143919 0
M  V30 4 C -0.423505 -2.912584 -0.104051 0
M  V30 5 C 0.107098 -1.659596 0.484468 0
M  V30 6 N -0.866192 -0.616321 0.733185 0
M  V30 7 C -0.132531 0.472255 1.336378 0
M  V30 8 N 0.809053 1.075378 0.559381 0
M  V30 9 C 1.557467 2.103483 1.026672 0
M  V30 10 C 2.525168 2.656951 0.106657 0
M  V30 11 C 2.591961 2.140719 -1.169333 0
M  V30 12 C 3.506345 2.632193 -2.088191 0
M  V30 13 N 4.372987 3.626230 -1.802310 0
M  V30 14 C 4.335789 4.154992 -0.563745 0
M  V30 15 C 3.429902 3.664651 0.338566 0
M  V30 16 F 3.450628 4.234998 1.555734 0
M  V30 17 C 1.275107 2.460492 2.319430 0
M  V30 18 C 0.322968 1.849567 3.100783 0
M  V30 19 O 0.159647 2.267793 4.268283 0
M  V30 20 N -0.396187 0.834600 2.599951 0
M  V30 21 C -1.383310 0.230227 3.436498 0
M  V30 22 C -2.252431 -0.833467 0.376232 0
M  V30 23 C -2.206250 -1.667499 -0.912319 0
M  V30 24 O -1.729798 -2.911093 -0.503048 0
M  V30 25 H -1.487688 -5.888885 0.763608 0
M  V30 26 H -1.384762 -5.065219 -0.812433 0
M  V30 27 H 0.049517 -5.975931 -0.268574 0
M  V30 28 H 0.905424 -4.201202 0.906977 0
M  V30 29 H -0.291533 -4.614341 2.852375 0
M  V30 30 H -0.883361 -2.936166 2.503175 0
M  V30 31 H -1.898056 -4.377067 2.135805 0
M  V30 32 H 0.179898 -3.157977 -1.030149 0
M  V30 33 H 0.909172 -1.230515 -0.183973 0
M  V30 34 H 0.656949 -1.916180 1.426660 0
M  V30 35 H 1.952191 1.340957 -1.526586 0
M  V30 36 H 3.578287 2.244609 -3.096952 0
M  V30 37 H 5.023113 4.954631 -0.312193 0
M  V30 38 H 1.838581 3.268031 2.731537 0
M  V30 39 H -2.348586 0.794858 3.459145 0
M  V30 40 H -1.064409 0.184237 4.515456 0
M  V30 41 H -1.623542 -0.772752 3.101521 0
M  V30 42 H -2.846981 0.066579 0.241833 0
M  V30 43 H -2.766546 -1.496418 1.122917 0
M  V30 44 H -3.255382 -1.808659 -1.252395 0
M  V30 45 H -1.611130 -1.183624 -1.692902 0
M  V30 END ATOM
M  V30 BEGIN BOND
M  V30 1 1 1 2
M  V30 2 1 2 3
M  V30 3 1 2 4
M  V30 4 1 4 5
M  V30 5 1 5 6
M  V30 6 1 6 7
M  V30 7 2 7 8
M  V30 8 1 8 9
M  V30 9 1 9 10
M  V30 10 2 10 11
M  V30 11 1 11 12
M  V30 12 2 12 13
M  V30 13 1 13 14
M  V30 14 2 14 15
M  V30 15 1 15 16
M  V30 16 2 9 17
M  V30 17 1 17 18
M  V30 18 2 18 19
M  V30 19 1 18 20
M  V30 20 1 20 21
M  V30 21 1 6 22
M  V30 22 1 22 23
M  V30 23 1 23 24
M  V30 24 1 24 4
M  V30 25 1 20 7
M  V30 26 1 15 10
M  V30 27 1 1 25
M  V30 28 1 1 26
M  V30 29 1 1 27
M  V30 30 1 2 28
M  V30 31 1 3 29
M  V30 32 1 3 30
M  V30 33 1 3 31
M  V30 34 1 4 32
M  V30 35 1 5 33
M  V30 36 1 5 34
M  V30 37 1 11 35
M  V30 38 1 12 36
M  V30 39 1 14 37
M  V30 40 1 17 38
M  V30 41 1 21 39
M  V30 42 1 21 40
M  V30 43 1 21 41
M  V30 44 1 22 42
M  V30 45 1 22 43
M  V30 46 1 23 44
M  V30 47 1 23 45
M  V30 END BOND
M  V30 END CTAB
M  END
>  <Dataset>  (539) 
ChEMBL_Kinases

>  <Ligand_Instance>  (539) 
nan

>  <PDB_ID>  (539) 
nan

>  <Standardized_SMILES>  (539) 
CC(C)C1CN(c2nc(-c3ccncc3F)cc(=O)n2C)CCO1

>  <Name>  (539) 
nan

>  <Pocket>  (539) 
nan

>  <ATP_Site>  (539) 
nan

>  <Peripheral>  (539) 
nan

>  <Num_H_Atoms_ProtBoundConf>  (539) 
nan

>  <Num_Resolved_Atoms>  (539) 
nan

>  <Num_Not_Resolved_Atoms>  (539) 
nan

$$$$
CHEMBL3401114
     RDKit          3D

  0  0  0  0  0  0  0  0  0  0999 V3000
M  V30 BEGIN CTAB
M  V30 COUNTS 36 38 0 0 0
M  V30 BEGIN ATOM
M  V30 1 C 0.251635 -3.998113 0.645988 0
M  V30 2 N 0.835965 -2.706169 0.412018 0
M  V30 3 C 0.118271 -1.573053 0.492915 0
M  V30 4 N -1.289298 -1.615987 0.819880 0
M  V30 5 C -1.568462 -1.663330 2.245980 0
M  V30 6 C -2.218892 -0.309392 2.551221 0
M  V30 7 O -3.427936 -0.295797 1.887426 0
M  V30 8 C -3.337886 -0.387188 0.518651 0
M  V30 9 C -2.550287 -1.615913 0.047974 0
M  V30 10 N 0.646458 -0.347173 0.277221 0
M  V30 11 C 1.934643 -0.132945 -0.038372 0
M  V30 12 C 2.348055 1.242524 -0.249585 0
M  V30 13 C 1.369760 2.233002 -0.129843 0
M  V30 14 C 1.735496 3.569183 -0.331326 0
M  V30 15 N 2.989581 3.944528 -0.635184 0
M  V30 16 C 3.943323 3.004176 -0.753794 0
M  V30 17 C 3.623626 1.681283 -0.564406 0
M  V30 18 F 4.613717 0.777759 -0.692534 0
M  V30 19 C 2.674804 -1.284949 -0.122473 0
M  V30 20 C 2.130503 -2.530415 0.098505 0
M  V30 21 O 2.893898 -3.514605 -0.002424 0
M  V30 22 H 1.058981 -4.775073 0.588932 0
M  V30 23 H -0.180813 -4.134039 1.656224 0
M  V30 24 H -0.485693 -4.313736 -0.123942 0
M  V30 25 H -0.680002 -1.834968 2.872832 0
M  V30 26 H -2.373351 -2.423587 2.443666 0
M  V30 27 H -1.567985 0.527726 2.194018 0
M  V30 28 H -2.399658 -0.215809 3.630710 0
M  V30 29 H -2.933866 0.546272 0.125883 0
M  V30 30 H -4.399336 -0.469790 0.147400 0
M  V30 31 H -2.360872 -1.469873 -1.019633 0
M  V30 32 H -3.150179 -2.501340 0.293942 0
M  V30 33 H 0.317890 2.045847 0.113011 0
M  V30 34 H 0.970110 4.328230 -0.237268 0
M  V30 35 H 4.981065 3.280153 -1.001859 0
M  V30 36 H 3.700401 -1.194311 -0.366772 0
M  V30 END ATOM
M  V30 BEGIN BOND
M  V30 1 1 1 2
M  V30 2 1 2 3
M  V30 3 1 3 4
M  V30 4 1 4 5
M  V30 5 1 5 6
M  V30 6 1 6 7
M  V30 7 1 7 8
M  V30 8 1 8 9
M  V30 9 2 3 10
M  V30 10 1 10 11
M  V30 11 1 11 12
M  V30 12 2 12 13
M  V30 13 1 13 14
M  V30 14 2 14 15
M  V30 15 1 15 16
M  V30 16 2 16 17
M  V30 17 1 17 18
M  V30 18 2 11 19
M  V30 19 1 19 20
M  V30 20 2 20 21
M  V30 21 1 20 2
M  V30 22 1 9 4
M  V30 23 1 17 12
M  V30 24 1 1 22
M  V30 25 1 1 23
M  V30 26 1 1 24
M  V30 27 1 5 25
M  V30 28 1 5 26
M  V30 29 1 6 27
M  V30 30 1 6 28
M  V30 31 1 8 29
M  V30 32 1 8 30
M  V30 33 1 9 31
M  V30 34 1 9 32
M  V30 35 1 13 33
M  V30 36 1 14 34
M  V30 37 1 16 35
M  V30 38 1 19 36
M  V30 END BOND
M  V30 END CTAB
M  END
>  <Dataset>  (540) 
ChEMBL_Kinases

>  <Ligand_Instance>  (540) 
nan

>  <PDB_ID>  (540) 
nan

>  <Standardized_SMILES>  (540) 
Cn1c(N2CCOCC2)nc(-c2ccncc2F)cc1=O

>  <Name>  (540) 
nan

>  <Pocket>  (540) 
nan

>  <ATP_Site>  (540) 
nan

>  <Peripheral>  (540) 
nan

>  <Num_H_Atoms_ProtBoundConf>  (540) 
nan

>  <Num_Resolved_Atoms>  (540) 
nan

>  <Num_Not_Resolved_Atoms>  (540) 
nan

$$$$
CHEMBL3400828
     RDKit          3D

  0  0  0  0  0  0  0  0  0  0999 V3000
M  V30 BEGIN CTAB
M  V30 COUNTS 47 51 0 0 0
M  V30 BEGIN ATOM
M  V30 1 C 4.853907 -5.021686 5.198048 0
M  V30 2 O 4.034895 -5.051584 4.044420 0
M  V30 3 C 3.637228 -3.862799 3.457251 0
M  V30 4 C 3.961338 -2.577192 3.885180 0
M  V30 5 C 3.533510 -1.429462 3.256421 0
M  V30 6 C 2.735008 -1.498164 2.132552 0
M  V30 7 N 2.228662 -0.532581 1.397194 0
M  V30 8 C 1.541813 -0.644621 0.431643 0
M  V30 9 N 0.970050 0.430180 -0.398593 0
M  V30 10 C 1.349537 1.161753 -1.523857 0
M  V30 11 O 2.451939 0.772992 -1.975734 0
M  V30 12 C 0.288112 2.159335 -1.787149 0
M  V30 13 O 0.675353 2.904572 -2.924688 0
M  V30 14 C -0.680773 2.020285 -0.860103 0
M  V30 15 C -1.700221 3.017693 -1.140276 0
M  V30 16 O -1.657974 3.830203 -2.126200 0
M  V30 17 C -2.888341 3.203777 -0.322086 0
M  V30 18 C -3.247359 2.559501 0.833833 0
M  V30 19 C -4.453387 3.000159 1.332539 0
M  V30 20 C -4.798488 3.954954 0.399871 0
M  V30 21 O -3.883659 4.040171 -0.523202 0
M  V30 22 C -0.367274 0.900011 0.029588 0
M  V30 23 C -1.323213 -0.240174 -0.127447 0
M  V30 24 C -1.194688 -0.677820 -1.456136 0
M  V30 25 C -1.944045 -1.756130 -1.946569 0
M  V30 26 C -2.829871 -2.408697 -1.114505 0
M  V30 27 Cl -3.828413 -3.761993 -1.579257 0
M  V30 28 C -2.945944 -1.969795 0.185381 0
M  V30 29 C -2.215050 -0.914078 0.673455 0
M  V30 30 S 1.369289 -2.481315 0.229748 0
M  V30 31 C 2.444001 -2.816165 1.752007 0
M  V30 32 C 2.843294 -4.015103 2.341699 0
M  V30 33 H 5.825151 -4.514646 4.924046 0
M  V30 34 H 4.424149 -4.415400 6.026278 0
M  V30 35 H 5.068052 -6.040278 5.549246 0
M  V30 36 H 4.598578 -2.528476 4.782209 0
M  V30 37 H 3.859331 -0.497933 3.694709 0
M  V30 38 H 1.384432 3.602696 -2.873289 0
M  V30 39 H -2.712351 1.804742 1.360657 0
M  V30 40 H -5.034161 2.728228 2.200934 0
M  V30 41 H -5.686363 4.600884 0.350108 0
M  V30 42 H -0.319991 1.231764 1.066936 0
M  V30 43 H -0.558713 -0.306893 -2.274977 0
M  V30 44 H -1.912179 -2.157755 -2.941208 0
M  V30 45 H -3.599534 -2.374437 0.973857 0
M  V30 46 H -2.188987 -0.465847 1.652516 0
M  V30 47 H 2.483435 -4.907149 1.854548 0
M  V30 END ATOM
M  V30 BEGIN BOND
M  V30 1 1 1 2
M  V30 2 1 2 3
M  V30 3 2 3 4
M  V30 4 1 4 5
M  V30 5 2 5 6
M  V30 6 1 6 7
M  V30 7 2 7 8
M  V30 8 1 8 9
M  V30 9 1 9 10
M  V30 10 2 10 11
M  V30 11 1 10 12
M  V30 12 1 12 13
M  V30 13 2 12 14
M  V30 14 1 14 15
M  V30 15 2 15 16
M  V30 16 1 15 17
M  V30 17 2 17 18
M  V30 18 1 18 19
M  V30 19 2 19 20
M  V30 20 1 20 21
M  V30 21 1 14 22
M  V30 22 1 22 23
M  V30 23 2 23 24
M  V30 24 1 24 25
M  V30 25 2 25 26
M  V30 26 1 26 27
M  V30 27 1 26 28
M  V30 28 2 28 29
M  V30 29 1 8 30
M  V30 30 1 30 31
M  V30 31 2 31 32
M  V30 32 1 32 3
M  V30 33 1 31 6
M  V30 34 1 22 9
M  V30 35 1 29 23
M  V30 36 1 21 17
M  V30 37 1 1 33
M  V30 38 1 1 34
M  V30 39 1 1 35
M  V30 40 1 4 36
M  V30 41 1 5 37
M  V30 42 1 13 38
M  V30 43 1 18 39
M  V30 44 1 19 40
M  V30 45 1 20 41
M  V30 46 1 22 42
M  V30 47 1 24 43
M  V30 48 1 25 44
M  V30 49 1 28 45
M  V30 50 1 29 46
M  V30 51 1 32 47
M  V30 END BOND
M  V30 END CTAB
M  END
>  <Dataset>  (541) 
ChEMBL_Kinases

>  <Ligand_Instance>  (541) 
nan

>  <PDB_ID>  (541) 
nan

>  <Standardized_SMILES>  (541) 
COc1ccc2nc(N3C(=O)C(O)=C(C(=O)c4ccco4)C3c3ccc(Cl)cc3)sc2c1

>  <Name>  (541) 
nan

>  <Pocket>  (541) 
nan

>  <ATP_Site>  (541) 
nan

>  <Peripheral>  (541) 
nan

>  <Num_H_Atoms_ProtBoundConf>  (541) 
nan

>  <Num_Resolved_Atoms>  (541) 
nan

>  <Num_Not_Resolved_Atoms>  (541) 
nan

$$$$
CHEMBL3400291
     RDKit          3D

  0  0  0  0  0  0  0  0  0  0999 V3000
M  V30 BEGIN CTAB
M  V30 COUNTS 130 137 0 0 0
M  V30 BEGIN ATOM
M  V30 1 C 7.287464 -0.572810 1.046588 0
M  V30 2 C 5.989293 -0.591827 1.724576 0
M  V30 3 C 5.563926 0.657376 2.156973 0
M  V30 4 C 6.184231 1.982351 2.068054 0
M  V30 5 C 6.138749 2.694136 0.781885 0
M  V30 6 C 7.169507 2.621688 -0.112071 0
M  V30 7 C 7.324155 3.262429 -1.328366 0
M  V30 8 C 6.267717 4.092100 -1.666612 0
M  V30 9 C 5.185584 4.236313 -0.836844 0
M  V30 10 N 4.120900 5.097413 -1.212950 0
M  V30 11 C 4.681220 6.287989 -0.525980 0
M  V30 12 S 2.631542 5.404442 -1.996324 0
M  V30 13 O 2.733362 5.061984 -3.488239 0
M  V30 14 O 2.304578 6.864258 -1.967420 0
M  V30 15 C 1.276769 4.433710 -1.395166 0
M  V30 16 C 0.019907 4.894896 -2.150206 0
M  V30 17 C -1.107377 4.026359 -1.708822 0
M  V30 18 N -2.378638 4.297097 -2.201511 0
M  V30 19 C -2.705854 4.184310 -3.571172 0
M  V30 20 C -4.218409 4.208517 -3.784537 0
M  V30 21 C -4.790504 3.024598 -3.012442 0
M  V30 22 C -4.254937 1.769349 -3.605975 0
M  V30 23 C -4.690076 0.559469 -2.807599 0
M  V30 24 C -4.120162 -0.631850 -3.524321 0
M  V30 25 O -4.880093 -1.397781 -4.160771 0
M  V30 26 N -2.789305 -1.099545 -3.616578 0
M  V30 27 C -2.582487 -2.394105 -4.268450 0
M  V30 28 C -2.106033 -3.317251 -3.134091 0
M  V30 29 N -1.893128 -2.505950 -1.948653 0
M  V30 30 C -2.535169 -2.477432 -0.689021 0
M  V30 31 N -2.416937 -1.355551 0.048641 0
M  V30 32 C -3.045247 -1.328458 1.260398 0
M  V30 33 N -3.055322 -0.203193 2.125078 0
M  V30 34 C -2.895622 -0.319791 3.561477 0
M  V30 35 C -1.650243 0.465079 3.964197 0
M  V30 36 O -1.308081 1.420070 3.056867 0
M  V30 37 C -2.440775 2.099344 2.575838 0
M  V30 38 C -3.263311 1.179486 1.717831 0
M  V30 39 N -3.746817 -2.410789 1.662634 0
M  V30 40 C -3.864051 -3.506370 0.946696 0
M  V30 41 N -4.571000 -4.712291 1.213691 0
M  V30 42 C -4.760665 -5.221009 2.436777 0
M  V30 43 C -4.267977 -4.623270 3.706628 0
M  V30 44 F -2.873035 -4.677603 3.696057 0
M  V30 45 F -4.716031 -3.351527 3.926407 0
M  V30 46 N -5.476481 -6.366250 2.272898 0
M  V30 47 C -5.733838 -6.578018 0.963280 0
M  V30 48 C -6.372857 -7.501011 0.160817 0
M  V30 49 C -6.458730 -7.422593 -1.197183 0
M  V30 50 C -5.863923 -6.337726 -1.842059 0
M  V30 51 C -5.227492 -5.418596 -1.068811 0
M  V30 52 C -5.149073 -5.515717 0.313706 0
M  V30 53 N -3.240321 -3.516090 -0.242281 0
M  V30 54 C -0.813046 -1.555992 -2.254848 0
M  V30 55 C -1.467401 -0.593629 -3.235934 0
M  V30 56 C 5.091238 3.546967 0.400965 0
M  V30 57 C 4.329410 0.559990 2.815581 0
M  V30 58 O 3.762623 1.603187 3.289633 0
M  V30 59 O 3.600914 -0.510226 3.044366 0
M  V30 60 C 3.998912 -1.698886 2.638966 0
M  V30 61 C 3.250772 -2.826993 2.875924 0
M  V30 62 C 3.760424 -4.037040 2.407296 0
M  V30 63 O 2.948768 -5.125548 2.690406 0
M  V30 64 C 1.732386 -5.410156 2.164403 0
M  V30 65 O 1.984380 -4.321814 1.559161 0
M  V30 66 N 0.439436 -5.732975 1.619081 0
M  V30 67 C -0.198702 -4.860655 0.645318 0
M  V30 68 C -0.282647 -6.913616 1.992020 0
M  V30 69 C 4.967603 -4.099839 1.733359 0
M  V30 70 C 5.675009 -2.925483 1.526687 0
M  V30 71 C 5.204223 -1.708311 1.975636 0
M  V30 72 H 7.146349 -0.402327 -0.018527 0
M  V30 73 H 7.803385 -1.558619 1.174372 0
M  V30 74 H 7.986337 0.158714 1.531101 0
M  V30 75 H 7.266446 1.933640 2.401482 0
M  V30 76 H 5.724616 2.621144 2.888567 0
M  V30 77 H 8.048287 1.996688 0.074816 0
M  V30 78 H 8.174719 3.157768 -1.983671 0
M  V30 79 H 6.267727 4.660013 -2.574646 0
M  V30 80 H 5.651474 6.592435 -0.904863 0
M  V30 81 H 4.669031 6.165652 0.581360 0
M  V30 82 H 3.993385 7.144046 -0.709757 0
M  V30 83 H 1.457539 3.382774 -1.709728 0
M  V30 84 H 1.166551 4.489947 -0.308014 0
M  V30 85 H 0.277703 4.789948 -3.221346 0
M  V30 86 H -0.136050 5.963225 -1.952260 0
M  V30 87 H -0.769572 2.963782 -1.852672 0
M  V30 88 H -1.142373 4.135202 -0.580253 0
M  V30 89 H -2.803591 5.108443 -1.738543 0
M  V30 90 H -2.299435 5.095187 -4.150315 0
M  V30 91 H -2.254125 3.337095 -4.064681 0
M  V30 92 H -4.689948 5.138743 -3.423069 0
M  V30 93 H -4.435216 4.112880 -4.860959 0
M  V30 94 H -4.531018 3.086928 -1.943150 0
M  V30 95 H -5.917495 3.055905 -3.037928 0
M  V30 96 H -3.161060 1.823306 -3.650907 0
M  V30 97 H -4.605170 1.686663 -4.655679 0
M  V30 98 H -4.309476 0.594485 -1.779966 0
M  V30 99 H -5.788803 0.519842 -2.830053 0
M  V30 100 H -3.565887 -2.733906 -4.640086 0
M  V30 101 H -1.841679 -2.262776 -5.050869 0
M  V30 102 H -2.855660 -4.092259 -2.994690 0
M  V30 103 H -1.157142 -3.753923 -3.438981 0
M  V30 104 H -2.748590 -1.389190 3.863536 0
M  V30 105 H -3.812622 0.114277 4.032302 0
M  V30 106 H -1.857383 0.923560 4.969565 0
M  V30 107 H -0.816205 -0.242021 4.137680 0
M  V30 108 H -3.019623 2.492440 3.443732 0
M  V30 109 H -2.066385 3.007386 2.041306 0
M  V30 110 H -3.093931 1.312005 0.643081 0
M  V30 111 H -4.341838 1.372611 1.973303 0
M  V30 112 H -4.573835 -5.242260 4.595733 0
M  V30 113 H -6.833281 -8.330408 0.647454 0
M  V30 114 H -6.977686 -8.185146 -1.781661 0
M  V30 115 H -5.955953 -6.309606 -2.906036 0
M  V30 116 H -4.794558 -4.608699 -1.651025 0
M  V30 117 H 0.027754 -2.113207 -2.699959 0
M  V30 118 H -0.490946 -0.991695 -1.364145 0
M  V30 119 H -0.816720 -0.500241 -4.120821 0
M  V30 120 H -1.585115 0.363489 -2.744572 0
M  V30 121 H 4.256826 3.643020 1.056812 0
M  V30 122 H 2.318708 -2.724404 3.409453 0
M  V30 123 H -0.992598 -4.309814 1.191454 0
M  V30 124 H -0.578176 -5.432915 -0.227028 0
M  V30 125 H 0.518827 -4.105216 0.267543 0
M  V30 126 H 0.215872 -7.550424 2.749777 0
M  V30 127 H -0.432625 -7.623280 1.119510 0
M  V30 128 H -1.326273 -6.695930 2.328905 0
M  V30 129 H 5.309899 -5.067862 1.400385 0
M  V30 130 H 6.590667 -3.077398 0.995299 0
M  V30 END ATOM
M  V30 BEGIN BOND
M  V30 1 1 1 2
M  V30 2 2 2 3
M  V30 3 1 3 4
M  V30 4 1 4 5
M  V30 5 2 5 6
M  V30 6 1 6 7
M  V30 7 2 7 8
M  V30 8 1 8 9
M  V30 9 1 9 10
M  V30 10 1 10 11
M  V30 11 1 10 12
M  V30 12 2 12 13
M  V30 13 2 12 14
M  V30 14 1 12 15
M  V30 15 1 15 16
M  V30 16 1 16 17
M  V30 17 1 17 18
M  V30 18 1 18 19
M  V30 19 1 19 20
M  V30 20 1 20 21
M  V30 21 1 21 22
M  V30 22 1 22 23
M  V30 23 1 23 24
M  V30 24 2 24 25
M  V30 25 1 24 26
M  V30 26 1 26 27
M  V30 27 1 27 28
M  V30 28 1 28 29
M  V30 29 1 29 30
M  V30 30 2 30 31
M  V30 31 1 31 32
M  V30 32 1 32 33
M  V30 33 1 33 34
M  V30 34 1 34 35
M  V30 35 1 35 36
M  V30 36 1 36 37
M  V30 37 1 37 38
M  V30 38 2 32 39
M  V30 39 1 39 40
M  V30 40 1 40 41
M  V30 41 1 41 42
M  V30 42 1 42 43
M  V30 43 1 43 44
M  V30 44 1 43 45
M  V30 45 2 42 46
M  V30 46 1 46 47
M  V30 47 2 47 48
M  V30 48 1 48 49
M  V30 49 2 49 50
M  V30 50 1 50 51
M  V30 51 2 51 52
M  V30 52 2 40 53
M  V30 53 1 29 54
M  V30 54 1 54 55
M  V30 55 2 9 56
M  V30 56 1 3 57
M  V30 57 2 57 58
M  V30 58 1 57 59
M  V30 59 1 59 60
M  V30 60 2 60 61
M  V30 61 1 61 62
M  V30 62 1 62 63
M  V30 63 1 63 64
M  V30 64 2 64 65
M  V30 65 1 64 66
M  V30 66 1 66 67
M  V30 67 1 66 68
M  V30 68 2 62 69
M  V30 69 1 69 70
M  V30 70 2 70 71
M  V30 71 1 71 2
M  V30 72 1 56 5
M  V30 73 1 71 60
M  V30 74 1 55 26
M  V30 75 1 53 30
M  V30 76 1 38 33
M  V30 77 1 52 41
M  V30 78 1 52 47
M  V30 79 1 1 72
M  V30 80 1 1 73
M  V30 81 1 1 74
M  V30 82 1 4 75
M  V30 83 1 4 76
M  V30 84 1 6 77
M  V30 85 1 7 78
M  V30 86 1 8 79
M  V30 87 1 11 80
M  V30 88 1 11 81
M  V30 89 1 11 82
M  V30 90 1 15 83
M  V30 91 1 15 84
M  V30 92 1 16 85
M  V30 93 1 16 86
M  V30 94 1 17 87
M  V30 95 1 17 88
M  V30 96 1 18 89
M  V30 97 1 19 90
M  V30 98 1 19 91
M  V30 99 1 20 92
M  V30 100 1 20 93
M  V30 101 1 21 94
M  V30 102 1 21 95
M  V30 103 1 22 96
M  V30 104 1 22 97
M  V30 105 1 23 98
M  V30 106 1 23 99
M  V30 107 1 27 100
M  V30 108 1 27 101
M  V30 109 1 28 102
M  V30 110 1 28 103
M  V30 111 1 34 104
M  V30 112 1 34 105
M  V30 113 1 35 106
M  V30 114 1 35 107
M  V30 115 1 37 108
M  V30 116 1 37 109
M  V30 117 1 38 110
M  V30 118 1 38 111
M  V30 119 1 43 112
M  V30 120 1 48 113
M  V30 121 1 49 114
M  V30 122 1 50 115
M  V30 123 1 51 116
M  V30 124 1 54 117
M  V30 125 1 54 118
M  V30 126 1 55 119
M  V30 127 1 55 120
M  V30 128 1 56 121
M  V30 129 1 61 122
M  V30 130 1 67 123
M  V30 131 1 67 124
M  V30 132 1 67 125
M  V30 133 1 68 126
M  V30 134 1 68 127
M  V30 135 1 68 128
M  V30 136 1 69 129
M  V30 137 1 70 130
M  V30 END BOND
M  V30 END CTAB
M  END
>  <Dataset>  (542) 
ChEMBL_Kinases

>  <Ligand_Instance>  (542) 
nan

>  <PDB_ID>  (542) 
nan

>  <Standardized_SMILES>  (542) 
Cc1c(Cc2cccc(N(C)S(=O)(=O)CCCNCCCCCC(=O)N3CCN(c4nc(N5CCOCC5)nc(-n5c(C(F)F)nc6ccccc65)n4)CC3)c2)c(=O)oc2cc(OC(=O)N(C)C)ccc12

>  <Name>  (542) 
nan

>  <Pocket>  (542) 
nan

>  <ATP_Site>  (542) 
nan

>  <Peripheral>  (542) 
nan

>  <Num_H_Atoms_ProtBoundConf>  (542) 
nan

>  <Num_Resolved_Atoms>  (542) 
nan

>  <Num_Not_Resolved_Atoms>  (542) 
nan

$$$$
CHEMBL3400287
     RDKit          3D

  0  0  0  0  0  0  0  0  0  0999 V3000
M  V30 BEGIN CTAB
M  V30 COUNTS 56 59 0 0 0
M  V30 BEGIN ATOM
M  V30 1 C -1.924399 0.471531 1.140928 0
M  V30 2 C -1.707221 -0.942233 1.457921 0
M  V30 3 C -1.188699 -1.241400 2.697700 0
M  V30 4 C -0.782676 -0.303621 3.765955 0
M  V30 5 C 0.523067 0.333650 3.549917 0
M  V30 6 C 1.607463 -0.381562 4.081249 0
M  V30 7 C 2.911667 0.053832 3.980329 0
M  V30 8 C 3.209506 1.237571 3.338081 0
M  V30 9 C 2.147928 1.955759 2.807661 0
M  V30 10 N 2.360688 3.180499 2.125023 0
M  V30 11 C 2.601405 3.201001 0.683682 0
M  V30 12 C 1.473978 4.016985 0.087798 0
M  V30 13 C 1.461206 5.330643 0.839301 0
M  V30 14 S 2.480488 4.916676 2.265023 0
M  V30 15 O 1.846884 5.461581 3.474564 0
M  V30 16 O 3.886735 5.332358 2.049365 0
M  V30 17 C 0.873814 1.502843 2.922188 0
M  V30 18 C -1.015693 -2.606884 2.950847 0
M  V30 19 O -0.553069 -3.035521 4.038438 0
M  V30 20 O -1.311740 -3.584599 2.094796 0
M  V30 21 C -1.805470 -3.300354 0.911748 0
M  V30 22 C -2.101573 -4.331460 0.045373 0
M  V30 23 C -2.614534 -4.020664 -1.183503 0
M  V30 24 O -2.977437 -4.926752 -2.201332 0
M  V30 25 C -2.093204 -5.257056 -3.216229 0
M  V30 26 O -1.435998 -4.429942 -2.495395 0
M  V30 27 N -1.246746 -5.645125 -4.286608 0
M  V30 28 C 0.068536 -5.034927 -4.290277 0
M  V30 29 C -1.844077 -6.579510 -5.187163 0
M  V30 30 C -2.837883 -2.699832 -1.564435 0
M  V30 31 C -2.526413 -1.680101 -0.662010 0
M  V30 32 C -2.007088 -1.963174 0.586119 0
M  V30 33 H -2.070282 1.104031 2.046587 0
M  V30 34 H -2.906441 0.590830 0.589650 0
M  V30 35 H -1.162124 0.932957 0.497642 0
M  V30 36 H -0.790695 -0.830249 4.748542 0
M  V30 37 H -1.539195 0.523563 3.912152 0
M  V30 38 H 1.517385 -1.317976 4.605844 0
M  V30 39 H 3.751948 -0.474574 4.377529 0
M  V30 40 H 4.185024 1.681485 3.195304 0
M  V30 41 H 3.564673 3.715887 0.459407 0
M  V30 42 H 2.578792 2.222654 0.210711 0
M  V30 43 H 0.516288 3.484562 0.123812 0
M  V30 44 H 1.728661 4.223473 -0.961196 0
M  V30 45 H 0.412533 5.500351 1.152345 0
M  V30 46 H 1.894820 6.154539 0.264832 0
M  V30 47 H 0.057850 2.048714 2.521584 0
M  V30 48 H -1.963664 -5.362148 0.253146 0
M  V30 49 H 0.776679 -5.562284 -3.619672 0
M  V30 50 H 0.448552 -4.886141 -5.322061 0
M  V30 51 H -0.003910 -3.988152 -3.870687 0
M  V30 52 H -1.712755 -7.600989 -4.771695 0
M  V30 53 H -2.903198 -6.352988 -5.419560 0
M  V30 54 H -1.287169 -6.582331 -6.169925 0
M  V30 55 H -3.248277 -2.394429 -2.540078 0
M  V30 56 H -2.701438 -0.666860 -0.968425 0
M  V30 END ATOM
M  V30 BEGIN BOND
M  V30 1 1 1 2
M  V30 2 2 2 3
M  V30 3 1 3 4
M  V30 4 1 4 5
M  V30 5 2 5 6
M  V30 6 1 6 7
M  V30 7 2 7 8
M  V30 8 1 8 9
M  V30 9 1 9 10
M  V30 10 1 10 11
M  V30 11 1 11 12
M  V30 12 1 12 13
M  V30 13 1 13 14
M  V30 14 2 14 15
M  V30 15 2 14 16
M  V30 16 2 9 17
M  V30 17 1 3 18
M  V30 18 2 18 19
M  V30 19 1 18 20
M  V30 20 1 20 21
M  V30 21 2 21 22
M  V30 22 1 22 23
M  V30 23 1 23 24
M  V30 24 1 24 25
M  V30 25 2 25 26
M  V30 26 1 25 27
M  V30 27 1 27 28
M  V30 28 1 27 29
M  V30 29 2 23 30
M  V30 30 1 30 31
M  V30 31 2 31 32
M  V30 32 1 32 2
M  V30 33 1 17 5
M  V30 34 1 32 21
M  V30 35 1 14 10
M  V30 36 1 1 33
M  V30 37 1 1 34
M  V30 38 1 1 35
M  V30 39 1 4 36
M  V30 40 1 4 37
M  V30 41 1 6 38
M  V30 42 1 7 39
M  V30 43 1 8 40
M  V30 44 1 11 41
M  V30 45 1 11 42
M  V30 46 1 12 43
M  V30 47 1 12 44
M  V30 48 1 13 45
M  V30 49 1 13 46
M  V30 50 1 17 47
M  V30 51 1 22 48
M  V30 52 1 28 49
M  V30 53 1 28 50
M  V30 54 1 28 51
M  V30 55 1 29 52
M  V30 56 1 29 53
M  V30 57 1 29 54
M  V30 58 1 30 55
M  V30 59 1 31 56
M  V30 END BOND
M  V30 END CTAB
M  END
>  <Dataset>  (543) 
ChEMBL_Kinases

>  <Ligand_Instance>  (543) 
nan

>  <PDB_ID>  (543) 
nan

>  <Standardized_SMILES>  (543) 
Cc1c(Cc2cccc(N3CCCS3(=O)=O)c2)c(=O)oc2cc(OC(=O)N(C)C)ccc12

>  <Name>  (543) 
nan

>  <Pocket>  (543) 
nan

>  <ATP_Site>  (543) 
nan

>  <Peripheral>  (543) 
nan

>  <Num_H_Atoms_ProtBoundConf>  (543) 
nan

>  <Num_Resolved_Atoms>  (543) 
nan

>  <Num_Not_Resolved_Atoms>  (543) 
nan

$$$$
CHEMBL3400286
     RDKit          3D

  0  0  0  0  0  0  0  0  0  0999 V3000
M  V30 BEGIN CTAB
M  V30 COUNTS 61 63 0 0 0
M  V30 BEGIN ATOM
M  V30 1 C 2.738737 -1.674432 2.374163 0
M  V30 2 C 1.422755 -1.924805 1.786506 0
M  V30 3 C 0.391183 -1.092730 2.159891 0
M  V30 4 C 0.432743 0.071249 3.080982 0
M  V30 5 C 1.020248 1.288700 2.436382 0
M  V30 6 C 2.325776 1.726800 2.493774 0
M  V30 7 C 2.720444 2.869825 1.834601 0
M  V30 8 C 1.789804 3.599565 1.096705 0
M  V30 9 C 0.454090 3.181788 1.018095 0
M  V30 10 N -0.251716 4.107242 0.221087 0
M  V30 11 C -0.156708 3.601662 -1.157756 0
M  V30 12 S -1.105232 5.567110 0.504658 0
M  V30 13 O -1.526360 6.187131 -0.825411 0
M  V30 14 O -0.147886 6.579873 1.133549 0
M  V30 15 C -2.492734 5.462632 1.546326 0
M  V30 16 C -3.612077 4.592731 1.117415 0
M  V30 17 C -3.331661 3.144773 0.941419 0
M  V30 18 Cl -4.819804 2.280863 0.412909 0
M  V30 19 C 0.141376 2.042887 1.695869 0
M  V30 20 C -0.834493 -1.411428 1.557787 0
M  V30 21 O -1.913718 -0.762433 1.771871 0
M  V30 22 O -1.073338 -2.394175 0.703255 0
M  V30 23 C -0.094182 -3.209805 0.327150 0
M  V30 24 C -0.283940 -4.238951 -0.551676 0
M  V30 25 C 0.749662 -5.062233 -0.919420 0
M  V30 26 O 0.379902 -6.054399 -1.819629 0
M  V30 27 C -0.094606 -7.292245 -1.409342 0
M  V30 28 O -0.049978 -7.148405 -0.157196 0
M  V30 29 N -0.465104 -8.285111 -2.356621 0
M  V30 30 C -0.384169 -8.108492 -3.793564 0
M  V30 31 C -0.953885 -9.548296 -1.834030 0
M  V30 32 C 2.000613 -4.830095 -0.379409 0
M  V30 33 C 2.158671 -3.782958 0.504944 0
M  V30 34 C 1.141119 -2.938704 0.894401 0
M  V30 35 H 3.440137 -1.161015 1.717827 0
M  V30 36 H 3.198655 -2.680452 2.615322 0
M  V30 37 H 2.648856 -1.208012 3.395712 0
M  V30 38 H -0.604413 0.328377 3.369977 0
M  V30 39 H 1.044952 -0.137033 3.984984 0
M  V30 40 H 2.996896 1.120434 3.082913 0
M  V30 41 H 3.765821 3.119236 1.948426 0
M  V30 42 H 2.268308 4.464361 0.646478 0
M  V30 43 H 0.906565 3.718603 -1.448349 0
M  V30 44 H -0.435566 2.549857 -1.252967 0
M  V30 45 H -0.761312 4.252485 -1.849042 0
M  V30 46 H -2.924780 6.508485 1.625740 0
M  V30 47 H -2.232105 5.211964 2.606923 0
M  V30 48 H -4.394931 4.660738 1.933898 0
M  V30 49 H -4.145834 5.038508 0.234652 0
M  V30 50 H -2.564802 2.867613 0.226235 0
M  V30 51 H -3.071046 2.669220 1.931205 0
M  V30 52 H -0.898287 1.789804 1.578918 0
M  V30 53 H -1.306877 -4.339691 -0.922157 0
M  V30 54 H 0.132588 -8.959958 -4.276949 0
M  V30 55 H 0.303279 -7.226978 -3.956922 0
M  V30 56 H -1.365605 -7.964740 -4.268955 0
M  V30 57 H -1.301248 -10.218503 -2.667694 0
M  V30 58 H -0.131338 -10.047310 -1.283863 0
M  V30 59 H -1.804293 -9.382976 -1.116662 0
M  V30 60 H 2.769844 -5.506768 -0.704377 0
M  V30 61 H 3.163192 -3.671995 0.874477 0
M  V30 END ATOM
M  V30 BEGIN BOND
M  V30 1 1 1 2
M  V30 2 2 2 3
M  V30 3 1 3 4
M  V30 4 1 4 5
M  V30 5 2 5 6
M  V30 6 1 6 7
M  V30 7 2 7 8
M  V30 8 1 8 9
M  V30 9 1 9 10
M  V30 10 1 10 11
M  V30 11 1 10 12
M  V30 12 2 12 13
M  V30 13 2 12 14
M  V30 14 1 12 15
M  V30 15 1 15 16
M  V30 16 1 16 17
M  V30 17 1 17 18
M  V30 18 2 9 19
M  V30 19 1 3 20
M  V30 20 2 20 21
M  V30 21 1 20 22
M  V30 22 1 22 23
M  V30 23 2 23 24
M  V30 24 1 24 25
M  V30 25 1 25 26
M  V30 26 1 26 27
M  V30 27 2 27 28
M  V30 28 1 27 29
M  V30 29 1 29 30
M  V30 30 1 29 31
M  V30 31 2 25 32
M  V30 32 1 32 33
M  V30 33 2 33 34
M  V30 34 1 34 2
M  V30 35 1 19 5
M  V30 36 1 34 23
M  V30 37 1 1 35
M  V30 38 1 1 36
M  V30 39 1 1 37
M  V30 40 1 4 38
M  V30 41 1 4 39
M  V30 42 1 6 40
M  V30 43 1 7 41
M  V30 44 1 8 42
M  V30 45 1 11 43
M  V30 46 1 11 44
M  V30 47 1 11 45
M  V30 48 1 15 46
M  V30 49 1 15 47
M  V30 50 1 16 48
M  V30 51 1 16 49
M  V30 52 1 17 50
M  V30 53 1 17 51
M  V30 54 1 19 52
M  V30 55 1 24 53
M  V30 56 1 30 54
M  V30 57 1 30 55
M  V30 58 1 30 56
M  V30 59 1 31 57
M  V30 60 1 31 58
M  V30 61 1 31 59
M  V30 62 1 32 60
M  V30 63 1 33 61
M  V30 END BOND
M  V30 END CTAB
M  END
>  <Dataset>  (544) 
ChEMBL_Kinases

>  <Ligand_Instance>  (544) 
nan

>  <PDB_ID>  (544) 
nan

>  <Standardized_SMILES>  (544) 
Cc1c(Cc2cccc(N(C)S(=O)(=O)CCCCl)c2)c(=O)oc2cc(OC(=O)N(C)C)ccc12

>  <Name>  (544) 
nan

>  <Pocket>  (544) 
nan

>  <ATP_Site>  (544) 
nan

>  <Peripheral>  (544) 
nan

>  <Num_H_Atoms_ProtBoundConf>  (544) 
nan

>  <Num_Resolved_Atoms>  (544) 
nan

>  <Num_Not_Resolved_Atoms>  (544) 
nan

$$$$
CHEMBL3398594
     RDKit          3D

  0  0  0  0  0  0  0  0  0  0999 V3000
M  V30 BEGIN CTAB
M  V30 COUNTS 68 72 0 0 0
M  V30 BEGIN ATOM
M  V30 1 O 1.171234 0.178497 3.415636 0
M  V30 2 C 1.638814 1.314124 3.766448 0
M  V30 3 N 3.003404 1.631689 3.564645 0
M  V30 4 C 3.583909 0.463901 2.946018 0
M  V30 5 C 4.109373 -0.513354 3.783535 0
M  V30 6 C 4.671934 -1.646345 3.200411 0
M  V30 7 C 4.674381 -1.730757 1.841460 0
M  V30 8 O 5.239673 -2.870072 1.242443 0
M  V30 9 C 4.153944 -0.763589 0.998938 0
M  V30 10 Cl 4.167034 -0.891105 -0.755985 0
M  V30 11 C 3.584244 0.382368 1.564593 0
M  V30 12 C 0.560251 2.169396 4.378426 0 CFG=2
M  V30 13 C -0.731442 1.378364 4.371225 0
M  V30 14 C -1.463428 1.802853 3.134773 0
M  V30 15 N -0.777585 2.927193 2.549680 0
M  V30 16 C -0.206177 2.630896 1.246712 0
M  V30 17 C -1.291437 2.419017 0.270091 0
M  V30 18 O -2.413623 2.558965 0.867230 0
M  V30 19 N -1.595766 2.120917 -1.072583 0
M  V30 20 C -3.019571 2.062100 -1.352892 0
M  V30 21 C -3.236342 1.071189 -2.478900 0
M  V30 22 N -2.020889 0.276856 -2.640164 0
M  V30 23 C -1.876340 -1.110614 -2.363666 0
M  V30 24 C -0.708025 -1.825372 -2.519193 0
M  V30 25 C -0.662538 -3.172427 -2.222929 0
M  V30 26 C -1.754363 -3.878939 -1.762516 0
M  V30 27 C -1.546643 -5.295693 -1.491111 0
M  V30 28 C -0.387352 -5.600792 -0.787239 0
M  V30 29 C -0.064100 -6.911024 -0.458855 0
M  V30 30 C -0.933687 -7.907743 -0.854738 0
M  V30 31 C -2.088490 -7.587728 -1.557586 0
M  V30 32 C -2.424815 -6.282363 -1.892924 0
M  V30 33 F -3.536955 -5.952445 -2.572953 0
M  V30 34 C -2.946052 -3.164141 -1.600580 0
M  V30 35 C -2.965510 -1.818496 -1.903739 0
M  V30 36 C -0.927832 1.097378 -3.129544 0
M  V30 37 C -0.466345 1.922031 -1.960417 0
M  V30 38 C 0.193998 3.332086 3.502048 0
M  V30 39 H 3.255736 2.596227 3.897003 0
M  V30 40 H 4.060012 -0.355229 4.845358 0
M  V30 41 H 5.084431 -2.414910 3.847304 0
M  V30 42 H 5.545024 -2.900158 0.279847 0
M  V30 43 H 3.153160 1.191937 1.012701 0
M  V30 44 H 0.840955 2.494251 5.401813 0
M  V30 45 H -0.550859 0.290142 4.421347 0
M  V30 46 H -1.364618 1.641105 5.248908 0
M  V30 47 H -2.516272 2.130238 3.374412 0
M  V30 48 H -1.602724 0.972213 2.409472 0
M  V30 49 H 0.528387 1.798653 1.292177 0
M  V30 50 H 0.416912 3.529856 0.992751 0
M  V30 51 H -3.448597 3.027304 -1.649291 0
M  V30 52 H -3.547735 1.671773 -0.443669 0
M  V30 53 H -3.378567 1.684485 -3.414188 0
M  V30 54 H -4.147290 0.487727 -2.364656 0
M  V30 55 H 0.160255 -1.332534 -2.868564 0
M  V30 56 H 0.298727 -3.675965 -2.370912 0
M  V30 57 H 0.307784 -4.807118 -0.470709 0
M  V30 58 H 0.856215 -7.071116 0.091818 0
M  V30 59 H -0.681556 -8.936565 -0.597485 0
M  V30 60 H -2.748414 -8.374609 -1.854595 0
M  V30 61 H -3.764015 -3.753103 -1.242001 0
M  V30 62 H -3.949070 -1.413572 -1.726931 0
M  V30 63 H -0.109245 0.523313 -3.601375 0
M  V30 64 H -1.308793 1.808709 -3.906396 0
M  V30 65 H -0.010581 2.895097 -2.240556 0
M  V30 66 H 0.314633 1.376581 -1.357782 0
M  V30 67 H 1.079697 3.836630 3.072183 0
M  V30 68 H -0.297704 4.080955 4.190984 0
M  V30 END ATOM
M  V30 BEGIN BOND
M  V30 1 2 1 2
M  V30 2 1 2 3
M  V30 3 1 3 4
M  V30 4 2 4 5
M  V30 5 1 5 6
M  V30 6 2 6 7
M  V30 7 1 7 8
M  V30 8 1 7 9
M  V30 9 1 9 10
M  V30 10 2 9 11
M  V30 11 1 2 12
M  V30 12 1 12 13
M  V30 13 1 13 14
M  V30 14 1 14 15
M  V30 15 1 15 16
M  V30 16 1 16 17
M  V30 17 2 17 18
M  V30 18 1 17 19
M  V30 19 1 19 20
M  V30 20 1 20 21
M  V30 21 1 21 22
M  V30 22 1 22 23
M  V30 23 2 23 24
M  V30 24 1 24 25
M  V30 25 2 25 26
M  V30 26 1 26 27
M  V30 27 2 27 28
M  V30 28 1 28 29
M  V30 29 2 29 30
M  V30 30 1 30 31
M  V30 31 2 31 32
M  V30 32 1 32 33
M  V30 33 1 26 34
M  V30 34 2 34 35
M  V30 35 1 22 36
M  V30 36 1 36 37
M  V30 37 1 15 38
M  V30 38 1 11 4
M  V30 39 1 38 12
M  V30 40 1 37 19
M  V30 41 1 35 23
M  V30 42 1 32 27
M  V30 43 1 3 39
M  V30 44 1 5 40
M  V30 45 1 6 41
M  V30 46 1 8 42
M  V30 47 1 11 43
M  V30 48 1 12 44 CFG=1
M  V30 49 1 13 45
M  V30 50 1 13 46
M  V30 51 1 14 47
M  V30 52 1 14 48
M  V30 53 1 16 49
M  V30 54 1 16 50
M  V30 55 1 20 51
M  V30 56 1 20 52
M  V30 57 1 21 53
M  V30 58 1 21 54
M  V30 59 1 24 55
M  V30 60 1 25 56
M  V30 61 1 28 57
M  V30 62 1 29 58
M  V30 63 1 30 59
M  V30 64 1 31 60
M  V30 65 1 34 61
M  V30 66 1 35 62
M  V30 67 1 36 63
M  V30 68 1 36 64
M  V30 69 1 37 65
M  V30 70 1 37 66
M  V30 71 1 38 67
M  V30 72 1 38 68
M  V30 END BOND
M  V30 END CTAB
M  END
>  <Dataset>  (545) 
ChEMBL_Kinases

>  <Ligand_Instance>  (545) 
nan

>  <PDB_ID>  (545) 
nan

>  <Standardized_SMILES>  (545) 
O=C(Nc1ccc(O)c(Cl)c1)[C@@H]1CCN(CC(=O)N2CCN(c3ccc(-c4ccccc4F)cc3)CC2)C1

>  <Name>  (545) 
nan

>  <Pocket>  (545) 
nan

>  <ATP_Site>  (545) 
nan

>  <Peripheral>  (545) 
nan

>  <Num_H_Atoms_ProtBoundConf>  (545) 
nan

>  <Num_Resolved_Atoms>  (545) 
nan

>  <Num_Not_Resolved_Atoms>  (545) 
nan

$$$$
CHEMBL3398595
     RDKit          3D

  0  0  0  0  0  0  0  0  0  0999 V3000
M  V30 BEGIN CTAB
M  V30 COUNTS 72 76 0 0 0
M  V30 BEGIN ATOM
M  V30 1 C 8.264155 -4.998197 2.053703 0
M  V30 2 O 7.307237 -4.844829 1.004206 0
M  V30 3 C 6.512917 -3.711214 0.930749 0
M  V30 4 C 6.518326 -2.637303 1.790775 0
M  V30 5 C 5.670000 -1.566580 1.599290 0
M  V30 6 C 4.778488 -1.496669 0.559821 0
M  V30 7 C 3.858313 -0.388761 0.307979 0
M  V30 8 C 3.517529 -0.102315 -1.019259 0
M  V30 9 C 2.640741 0.954914 -1.243685 0
M  V30 10 C 2.107574 1.713562 -0.231736 0
M  V30 11 N 1.224448 2.783004 -0.525914 0
M  V30 12 C 0.856520 3.255883 -1.828099 0
M  V30 13 C -0.624344 3.208973 -2.029762 0
M  V30 14 N -1.204211 2.471612 -0.906439 0
M  V30 15 C -1.935055 1.226411 -0.982190 0
M  V30 16 O -2.336283 0.782899 0.128270 0
M  V30 17 C -2.050128 0.743921 -2.372118 0
M  V30 18 N -2.751378 -0.466113 -2.561282 0
M  V30 19 C -2.143231 -1.660465 -2.049516 0
M  V30 20 C -3.234144 -2.700673 -2.001203 0
M  V30 21 C -4.496730 -1.924946 -1.985281 0 CFG=1
M  V30 22 C -5.324870 -2.163291 -0.777133 0
M  V30 23 O -6.509596 -2.624061 -0.753701 0
M  V30 24 N -4.754046 -1.852048 0.484427 0
M  V30 25 C -5.248689 -1.951887 1.813780 0
M  V30 26 C -5.007598 -3.135835 2.477548 0
M  V30 27 C -5.441899 -3.355414 3.778965 0
M  V30 28 C -6.138497 -2.312011 4.384239 0
M  V30 29 O -6.625745 -2.406299 5.682167 0
M  V30 30 C -6.385819 -1.125669 3.733380 0
M  V30 31 Cl -7.273225 0.188612 4.522758 0
M  V30 32 C -5.940685 -0.949041 2.451408 0
M  V30 33 C -4.124280 -0.501927 -2.181116 0
M  V30 34 C -0.950320 3.167200 0.340135 0
M  V30 35 C 0.518493 3.602463 0.430830 0
M  V30 36 C 2.466122 1.401144 1.055789 0
M  V30 37 C 3.336949 0.356945 1.340550 0
M  V30 38 C 4.789562 -2.596981 -0.300908 0
M  V30 39 C 5.626686 -3.700514 -0.149210 0
M  V30 40 H 7.918371 -4.584677 3.010504 0
M  V30 41 H 8.580477 -6.039254 2.170983 0
M  V30 42 H 9.191814 -4.414185 1.776467 0
M  V30 43 H 7.214918 -2.684550 2.610900 0
M  V30 44 H 5.693166 -0.733274 2.289626 0
M  V30 45 H 3.942494 -0.703614 -1.799008 0
M  V30 46 H 2.442307 1.091822 -2.287798 0
M  V30 47 H 1.322699 2.703841 -2.673631 0
M  V30 48 H 1.177795 4.332324 -1.979087 0
M  V30 49 H -1.042546 4.222394 -1.980709 0
M  V30 50 H -0.923755 2.764864 -2.997809 0
M  V30 51 H -1.060104 0.702524 -2.889020 0
M  V30 52 H -2.619857 1.554200 -2.919512 0
M  V30 53 H -1.364402 -1.996159 -2.762413 0
M  V30 54 H -1.690366 -1.520441 -1.045792 0
M  V30 55 H -3.083426 -3.292576 -1.069886 0
M  V30 56 H -3.126182 -3.356084 -2.902613 0
M  V30 57 H -5.113524 -2.297015 -2.847781 0
M  V30 58 H -3.808645 -1.475688 0.626334 0
M  V30 59 H -4.472155 -3.969185 2.047171 0
M  V30 60 H -5.263856 -4.283899 4.324889 0
M  V30 61 H -6.621690 -3.282040 6.181864 0
M  V30 62 H -6.087330 -0.064074 1.870953 0
M  V30 63 H -4.715948 -0.098580 -3.046800 0
M  V30 64 H -4.357323 0.147571 -1.307943 0
M  V30 65 H -1.177389 2.557942 1.222062 0
M  V30 66 H -1.547964 4.108053 0.404529 0
M  V30 67 H 0.615121 4.704287 0.203987 0
M  V30 68 H 0.914071 3.451676 1.442382 0
M  V30 69 H 2.111821 1.924821 1.925242 0
M  V30 70 H 3.654849 0.064235 2.315631 0
M  V30 71 H 4.112213 -2.631358 -1.158809 0
M  V30 72 H 5.573327 -4.506531 -0.856502 0
M  V30 END ATOM
M  V30 BEGIN BOND
M  V30 1 1 1 2
M  V30 2 1 2 3
M  V30 3 2 3 4
M  V30 4 1 4 5
M  V30 5 2 5 6
M  V30 6 1 6 7
M  V30 7 2 7 8
M  V30 8 1 8 9
M  V30 9 2 9 10
M  V30 10 1 10 11
M  V30 11 1 11 12
M  V30 12 1 12 13
M  V30 13 1 13 14
M  V30 14 1 14 15
M  V30 15 2 15 16
M  V30 16 1 15 17
M  V30 17 1 17 18
M  V30 18 1 18 19
M  V30 19 1 19 20
M  V30 20 1 20 21
M  V30 21 1 21 22
M  V30 22 2 22 23
M  V30 23 1 22 24
M  V30 24 1 24 25
M  V30 25 2 25 26
M  V30 26 1 26 27
M  V30 27 2 27 28
M  V30 28 1 28 29
M  V30 29 1 28 30
M  V30 30 1 30 31
M  V30 31 2 30 32
M  V30 32 1 21 33
M  V30 33 1 14 34
M  V30 34 1 34 35
M  V30 35 1 10 36
M  V30 36 2 36 37
M  V30 37 1 6 38
M  V30 38 2 38 39
M  V30 39 1 39 3
M  V30 40 1 37 7
M  V30 41 1 35 11
M  V30 42 1 33 18
M  V30 43 1 32 25
M  V30 44 1 1 40
M  V30 45 1 1 41
M  V30 46 1 1 42
M  V30 47 1 4 43
M  V30 48 1 5 44
M  V30 49 1 8 45
M  V30 50 1 9 46
M  V30 51 1 12 47
M  V30 52 1 12 48
M  V30 53 1 13 49
M  V30 54 1 13 50
M  V30 55 1 17 51
M  V30 56 1 17 52
M  V30 57 1 19 53
M  V30 58 1 19 54
M  V30 59 1 20 55
M  V30 60 1 20 56
M  V30 61 1 21 57 CFG=3
M  V30 62 1 24 58
M  V30 63 1 26 59
M  V30 64 1 27 60
M  V30 65 1 29 61
M  V30 66 1 32 62
M  V30 67 1 33 63
M  V30 68 1 33 64
M  V30 69 1 34 65
M  V30 70 1 34 66
M  V30 71 1 35 67
M  V30 72 1 35 68
M  V30 73 1 36 69
M  V30 74 1 37 70
M  V30 75 1 38 71
M  V30 76 1 39 72
M  V30 END BOND
M  V30 END CTAB
M  END
>  <Dataset>  (546) 
ChEMBL_Kinases

>  <Ligand_Instance>  (546) 
nan

>  <PDB_ID>  (546) 
nan

>  <Standardized_SMILES>  (546) 
COc1ccc(-c2ccc(N3CCN(C(=O)CN4CC[C@@H](C(=O)Nc5ccc(O)c(Cl)c5)C4)CC3)cc2)cc1

>  <Name>  (546) 
nan

>  <Pocket>  (546) 
nan

>  <ATP_Site>  (546) 
nan

>  <Peripheral>  (546) 
nan

>  <Num_H_Atoms_ProtBoundConf>  (546) 
nan

>  <Num_Resolved_Atoms>  (546) 
nan

>  <Num_Not_Resolved_Atoms>  (546) 
nan

$$$$
CHEMBL3398596
     RDKit          3D

  0  0  0  0  0  0  0  0  0  0999 V3000
M  V30 BEGIN CTAB
M  V30 COUNTS 65 69 0 0 0
M  V30 BEGIN ATOM
M  V30 1 O 3.341991 2.510268 1.100823 0
M  V30 2 C 2.197454 2.167050 1.558220 0
M  V30 3 N 2.166584 0.795472 1.911079 0
M  V30 4 C 3.446618 0.180499 1.649211 0
M  V30 5 C 4.324687 0.229704 2.708362 0
M  V30 6 C 5.604661 -0.323627 2.608374 0
M  V30 7 C 5.949897 -0.924415 1.393664 0
M  V30 8 O 7.232458 -1.481566 1.286127 0
M  V30 9 C 5.071829 -0.975059 0.330676 0
M  V30 10 Cl 5.515077 -1.729521 -1.185518 0
M  V30 11 C 3.794807 -0.415268 0.450854 0
M  V30 12 C 1.087492 3.111703 1.682541 0 CFG=2
M  V30 13 C 0.566901 3.298207 3.081793 0
M  V30 14 C -0.898164 3.610213 2.906393 0
M  V30 15 N -1.275636 3.276800 1.565968 0
M  V30 16 C -2.404847 2.373244 1.470991 0
M  V30 17 C -2.682579 2.113856 0.014238 0
M  V30 18 O -2.236406 2.441716 -1.114141 0
M  V30 19 N -3.777943 1.231989 -0.201586 0
M  V30 20 C -4.066319 0.963099 -1.618213 0
M  V30 21 C -4.441774 -0.516031 -1.679016 0
M  V30 22 N -3.764303 -1.287277 -0.658539 0
M  V30 23 C -2.774996 -2.288575 -0.852775 0
M  V30 24 C -2.233930 -2.557225 -2.090869 0
M  V30 25 C -1.261885 -3.536537 -2.330721 0
M  V30 26 C -0.864142 -4.240650 -1.216310 0
M  V30 27 C 0.126372 -5.273743 -1.315294 0
M  V30 28 C 0.778697 -6.163853 -0.537527 0
M  V30 29 C 1.706937 -7.026697 -1.053089 0
M  V30 30 C 1.965331 -6.959093 -2.433087 0
M  V30 31 S 0.864413 -5.638510 -3.015577 0
M  V30 32 C -1.374658 -4.008787 0.038200 0
M  V30 33 C -2.346874 -3.018696 0.235161 0
M  V30 34 C -4.206132 -0.923437 0.681314 0
M  V30 35 C -4.674515 0.538559 0.737720 0
M  V30 36 C -0.130470 2.784599 0.863325 0
M  V30 37 H 1.254916 0.412469 2.302809 0
M  V30 38 H 4.133337 0.675398 3.678205 0
M  V30 39 H 6.343362 -0.318728 3.403358 0
M  V30 40 H 7.862810 -1.133138 0.567574 0
M  V30 41 H 3.054176 -0.417828 -0.339443 0
M  V30 42 H 1.443050 4.099277 1.319311 0
M  V30 43 H 1.056982 4.148673 3.607244 0
M  V30 44 H 0.733912 2.398448 3.720519 0
M  V30 45 H -1.161228 4.642100 3.205059 0
M  V30 46 H -1.464531 2.916390 3.587012 0
M  V30 47 H -3.322893 2.855629 1.852083 0
M  V30 48 H -2.253960 1.422391 2.002412 0
M  V30 49 H -4.931134 1.599911 -1.920162 0
M  V30 50 H -3.214737 1.155328 -2.273757 0
M  V30 51 H -4.216934 -0.943024 -2.668612 0
M  V30 52 H -5.537133 -0.609631 -1.478044 0
M  V30 53 H -2.535944 -2.011276 -2.975229 0
M  V30 54 H -0.874771 -3.702194 -3.321951 0
M  V30 55 H 0.452664 -6.070178 0.484304 0
M  V30 56 H 2.208611 -7.730811 -0.376281 0
M  V30 57 H 2.706513 -7.635111 -2.897461 0
M  V30 58 H -1.033292 -4.587252 0.892019 0
M  V30 59 H -2.697950 -2.901577 1.252806 0
M  V30 60 H -4.995264 -1.625379 0.970886 0
M  V30 61 H -3.337320 -0.999497 1.393676 0
M  V30 62 H -5.695544 0.556034 0.316071 0
M  V30 63 H -4.602965 0.936997 1.749958 0
M  V30 64 H -0.118643 3.235449 -0.149947 0
M  V30 65 H -0.263788 1.684915 0.727600 0
M  V30 END ATOM
M  V30 BEGIN BOND
M  V30 1 2 1 2
M  V30 2 1 2 3
M  V30 3 1 3 4
M  V30 4 2 4 5
M  V30 5 1 5 6
M  V30 6 2 6 7
M  V30 7 1 7 8
M  V30 8 1 7 9
M  V30 9 1 9 10
M  V30 10 2 9 11
M  V30 11 1 2 12
M  V30 12 1 12 13
M  V30 13 1 13 14
M  V30 14 1 14 15
M  V30 15 1 15 16
M  V30 16 1 16 17
M  V30 17 2 17 18
M  V30 18 1 17 19
M  V30 19 1 19 20
M  V30 20 1 20 21
M  V30 21 1 21 22
M  V30 22 1 22 23
M  V30 23 2 23 24
M  V30 24 1 24 25
M  V30 25 2 25 26
M  V30 26 1 26 27
M  V30 27 2 27 28
M  V30 28 1 28 29
M  V30 29 2 29 30
M  V30 30 1 30 31
M  V30 31 1 26 32
M  V30 32 2 32 33
M  V30 33 1 22 34
M  V30 34 1 34 35
M  V30 35 1 15 36
M  V30 36 1 11 4
M  V30 37 1 36 12
M  V30 38 1 35 19
M  V30 39 1 33 23
M  V30 40 1 31 27
M  V30 41 1 3 37
M  V30 42 1 5 38
M  V30 43 1 6 39
M  V30 44 1 8 40
M  V30 45 1 11 41
M  V30 46 1 12 42 CFG=3
M  V30 47 1 13 43
M  V30 48 1 13 44
M  V30 49 1 14 45
M  V30 50 1 14 46
M  V30 51 1 16 47
M  V30 52 1 16 48
M  V30 53 1 20 49
M  V30 54 1 20 50
M  V30 55 1 21 51
M  V30 56 1 21 52
M  V30 57 1 24 53
M  V30 58 1 25 54
M  V30 59 1 28 55
M  V30 60 1 29 56
M  V30 61 1 30 57
M  V30 62 1 32 58
M  V30 63 1 33 59
M  V30 64 1 34 60
M  V30 65 1 34 61
M  V30 66 1 35 62
M  V30 67 1 35 63
M  V30 68 1 36 64
M  V30 69 1 36 65
M  V30 END BOND
M  V30 END CTAB
M  END
>  <Dataset>  (547) 
ChEMBL_Kinases

>  <Ligand_Instance>  (547) 
nan

>  <PDB_ID>  (547) 
nan

>  <Standardized_SMILES>  (547) 
O=C(Nc1ccc(O)c(Cl)c1)[C@@H]1CCN(CC(=O)N2CCN(c3ccc(-c4cccs4)cc3)CC2)C1

>  <Name>  (547) 
nan

>  <Pocket>  (547) 
nan

>  <ATP_Site>  (547) 
nan

>  <Peripheral>  (547) 
nan

>  <Num_H_Atoms_ProtBoundConf>  (547) 
nan

>  <Num_Resolved_Atoms>  (547) 
nan

>  <Num_Not_Resolved_Atoms>  (547) 
nan

$$$$
CHEMBL3398597
     RDKit          3D

  0  0  0  0  0  0  0  0  0  0999 V3000
M  V30 BEGIN CTAB
M  V30 COUNTS 64 68 0 0 0
M  V30 BEGIN ATOM
M  V30 1 O 4.271613 1.195263 1.715704 0
M  V30 2 C 3.076080 1.112851 2.090488 0
M  V30 3 N 2.686366 -0.096080 2.705757 0
M  V30 4 C 3.852910 -0.950387 2.725737 0
M  V30 5 C 4.843551 -1.091797 3.673648 0
M  V30 6 C 5.855174 -1.996281 3.422028 0
M  V30 7 C 5.889545 -2.743768 2.263826 0
M  V30 8 O 6.939980 -3.637053 2.076679 0
M  V30 9 C 4.888390 -2.608047 1.294379 0
M  V30 10 Cl 5.005789 -3.590980 -0.140584 0
M  V30 11 C 3.877717 -1.694985 1.560447 0
M  V30 12 C 2.184406 2.269668 1.863046 0 CFG=2
M  V30 13 C 1.598376 2.728326 3.166681 0
M  V30 14 C 0.228545 3.224205 2.813593 0
M  V30 15 N -0.042447 2.812802 1.488774 0
M  V30 16 C -1.379714 2.391496 1.198311 0
M  V30 17 C -1.779752 1.133733 1.859955 0
M  V30 18 O -1.196838 0.337961 2.645035 0
M  V30 19 N -3.114993 0.815136 1.485678 0
M  V30 20 C -4.060842 1.484068 0.614772 0
M  V30 21 C -4.089979 0.744679 -0.699742 0
M  V30 22 N -3.924837 -0.661627 -0.433519 0
M  V30 23 C -3.263722 -1.563531 -1.310991 0
M  V30 24 C -2.968725 -2.880053 -1.039701 0
M  V30 25 C -2.327291 -3.744101 -1.899678 0
M  V30 26 C -1.945607 -3.261855 -3.134681 0
M  V30 27 C -1.253155 -4.112668 -4.116396 0
M  V30 28 C -0.935745 -5.448944 -3.878285 0
M  V30 29 N -0.305083 -5.957681 -4.964571 0
M  V30 30 C -0.249450 -4.944121 -5.829565 0
M  V30 31 O -0.805376 -3.862370 -5.332274 0
M  V30 32 C -2.220774 -1.949037 -3.450149 0
M  V30 33 C -2.874156 -1.102605 -2.548542 0
M  V30 34 C -4.509725 -1.089377 0.851158 0
M  V30 35 C -3.801822 -0.370518 1.984811 0
M  V30 36 C 0.978133 1.939249 1.003779 0
M  V30 37 H 1.716322 -0.204390 3.030119 0
M  V30 38 H 4.676823 -0.444794 4.516949 0
M  V30 39 H 6.597220 -2.053519 4.212217 0
M  V30 40 H 7.297050 -3.741680 1.115558 0
M  V30 41 H 3.164956 -1.683061 0.733827 0
M  V30 42 H 2.708534 3.118930 1.391893 0
M  V30 43 H 2.262936 3.551347 3.564893 0
M  V30 44 H 1.573253 1.874219 3.880665 0
M  V30 45 H -0.485448 2.783969 3.557143 0
M  V30 46 H 0.260867 4.341745 2.925230 0
M  V30 47 H -1.484760 2.361353 0.101689 0
M  V30 48 H -2.066144 3.226654 1.521403 0
M  V30 49 H -3.598196 2.497092 0.403313 0
M  V30 50 H -5.061180 1.635289 1.065794 0
M  V30 51 H -5.103344 0.836682 -1.186309 0
M  V30 52 H -3.374844 1.162479 -1.433546 0
M  V30 53 H -3.246310 -3.291724 -0.091621 0
M  V30 54 H -2.128645 -4.767180 -1.620745 0
M  V30 55 H -1.113306 -6.093218 -3.001928 0
M  V30 56 H 0.120188 -4.725973 -6.840937 0
M  V30 57 H -1.902818 -1.619124 -4.430093 0
M  V30 58 H -3.016433 -0.128600 -2.935893 0
M  V30 59 H -5.558812 -0.734324 0.814343 0
M  V30 60 H -4.526632 -2.178874 0.974889 0
M  V30 61 H -3.022739 -1.059064 2.364388 0
M  V30 62 H -4.501704 -0.167536 2.803372 0
M  V30 63 H 1.183510 2.213360 -0.050865 0
M  V30 64 H 0.713581 0.872995 1.022360 0
M  V30 END ATOM
M  V30 BEGIN BOND
M  V30 1 2 1 2
M  V30 2 1 2 3
M  V30 3 1 3 4
M  V30 4 2 4 5
M  V30 5 1 5 6
M  V30 6 2 6 7
M  V30 7 1 7 8
M  V30 8 1 7 9
M  V30 9 1 9 10
M  V30 10 2 9 11
M  V30 11 1 2 12
M  V30 12 1 12 13
M  V30 13 1 13 14
M  V30 14 1 14 15
M  V30 15 1 15 16
M  V30 16 1 16 17
M  V30 17 2 17 18
M  V30 18 1 17 19
M  V30 19 1 19 20
M  V30 20 1 20 21
M  V30 21 1 21 22
M  V30 22 1 22 23
M  V30 23 2 23 24
M  V30 24 1 24 25
M  V30 25 2 25 26
M  V30 26 1 26 27
M  V30 27 2 27 28
M  V30 28 1 28 29
M  V30 29 2 29 30
M  V30 30 1 30 31
M  V30 31 1 26 32
M  V30 32 2 32 33
M  V30 33 1 22 34
M  V30 34 1 34 35
M  V30 35 1 15 36
M  V30 36 1 11 4
M  V30 37 1 36 12
M  V30 38 1 35 19
M  V30 39 1 33 23
M  V30 40 1 31 27
M  V30 41 1 3 37
M  V30 42 1 5 38
M  V30 43 1 6 39
M  V30 44 1 8 40
M  V30 45 1 11 41
M  V30 46 1 12 42 CFG=3
M  V30 47 1 13 43
M  V30 48 1 13 44
M  V30 49 1 14 45
M  V30 50 1 14 46
M  V30 51 1 16 47
M  V30 52 1 16 48
M  V30 53 1 20 49
M  V30 54 1 20 50
M  V30 55 1 21 51
M  V30 56 1 21 52
M  V30 57 1 24 53
M  V30 58 1 25 54
M  V30 59 1 28 55
M  V30 60 1 30 56
M  V30 61 1 32 57
M  V30 62 1 33 58
M  V30 63 1 34 59
M  V30 64 1 34 60
M  V30 65 1 35 61
M  V30 66 1 35 62
M  V30 67 1 36 63
M  V30 68 1 36 64
M  V30 END BOND
M  V30 END CTAB
M  END
>  <Dataset>  (548) 
ChEMBL_Kinases

>  <Ligand_Instance>  (548) 
nan

>  <PDB_ID>  (548) 
nan

>  <Standardized_SMILES>  (548) 
O=C(Nc1ccc(O)c(Cl)c1)[C@@H]1CCN(CC(=O)N2CCN(c3ccc(-c4cnco4)cc3)CC2)C1

>  <Name>  (548) 
nan

>  <Pocket>  (548) 
nan

>  <ATP_Site>  (548) 
nan

>  <Peripheral>  (548) 
nan

>  <Num_H_Atoms_ProtBoundConf>  (548) 
nan

>  <Num_Resolved_Atoms>  (548) 
nan

>  <Num_Not_Resolved_Atoms>  (548) 
nan

$$$$
CHEMBL3398598
     RDKit          3D

  0  0  0  0  0  0  0  0  0  0999 V3000
M  V30 BEGIN CTAB
M  V30 COUNTS 66 70 0 0 0
M  V30 BEGIN ATOM
M  V30 1 O 0.932650 -0.077713 2.672289 0
M  V30 2 C 1.014179 1.026799 3.294591 0
M  V30 3 N 2.241606 1.701216 3.268821 0
M  V30 4 C 3.136445 0.887198 2.482471 0
M  V30 5 C 3.813536 -0.025535 3.293045 0
M  V30 6 C 4.732639 -0.922309 2.763463 0
M  V30 7 C 4.921478 -0.840498 1.386709 0
M  V30 8 O 5.834636 -1.724241 0.823242 0
M  V30 9 C 4.264917 0.048929 0.579093 0
M  V30 10 Cl 4.520853 0.128613 -1.152355 0
M  V30 11 C 3.365502 0.920333 1.127928 0
M  V30 12 C -0.272453 1.395617 3.955256 0 CFG=2
M  V30 13 C -1.321541 0.355815 3.697358 0
M  V30 14 C -2.504953 1.185210 3.321902 0
M  V30 15 N -2.072817 2.411885 2.752792 0
M  V30 16 C -1.680071 2.365253 1.366218 0
M  V30 17 C -2.769089 2.106258 0.416896 0
M  V30 18 O -4.009349 1.898883 0.455245 0
M  V30 19 N -2.257222 2.088408 -0.912943 0
M  V30 20 C -3.087462 1.845805 -2.077643 0
M  V30 21 C -2.593350 0.687356 -2.905334 0
M  V30 22 N -1.403539 0.071665 -2.406237 0
M  V30 23 C -1.164367 -1.286749 -2.065449 0
M  V30 24 C 0.038607 -1.775777 -1.601652 0
M  V30 25 C 0.182389 -3.112363 -1.294066 0
M  V30 26 C -0.838615 -4.028104 -1.425108 0
M  V30 27 C -0.624410 -5.430044 -1.083679 0
M  V30 28 N -1.624685 -6.328854 -1.212510 0
M  V30 29 C -1.413739 -7.639613 -0.890126 0
M  V30 30 C -0.165800 -8.036787 -0.430076 0
M  V30 31 C 0.851962 -7.100685 -0.302892 0
M  V30 32 N 0.579654 -5.825194 -0.637428 0
M  V30 33 C -2.041269 -3.538990 -1.888660 0
M  V30 34 C -2.186791 -2.200626 -2.197245 0
M  V30 35 C -0.473199 1.155341 -2.320427 0
M  V30 36 C -0.917534 2.288276 -1.428461 0
M  V30 37 C -0.838823 2.695898 3.494480 0
M  V30 38 H 2.221973 2.608248 3.809093 0
M  V30 39 H 3.695507 -0.124376 4.379407 0
M  V30 40 H 5.270305 -1.640327 3.375872 0
M  V30 41 H 5.750894 -2.711055 1.032061 0
M  V30 42 H 2.785617 1.662735 0.618447 0
M  V30 43 H -0.076721 1.377574 5.062385 0
M  V30 44 H -0.964310 -0.303602 2.883422 0
M  V30 45 H -1.491877 -0.306757 4.565477 0
M  V30 46 H -3.011640 1.456164 4.294167 0
M  V30 47 H -3.281680 0.635403 2.767562 0
M  V30 48 H -0.833700 1.627403 1.245988 0
M  V30 49 H -1.236027 3.353939 1.123034 0
M  V30 50 H -3.097970 2.788232 -2.665241 0
M  V30 51 H -4.145715 1.712721 -1.729860 0
M  V30 52 H -3.429021 -0.035881 -2.952519 0
M  V30 53 H -2.469939 1.030816 -3.976178 0
M  V30 54 H 0.874373 -1.141319 -1.471407 0
M  V30 55 H 1.147883 -3.462722 -0.930159 0
M  V30 56 H -2.167685 -8.411866 -0.969232 0
M  V30 57 H 0.082898 -9.037908 -0.157354 0
M  V30 58 H 1.864844 -7.267348 0.040628 0
M  V30 59 H -2.826888 -4.282513 -1.982132 0
M  V30 60 H -3.185906 -1.988681 -2.544313 0
M  V30 61 H -0.262012 1.496547 -3.378348 0
M  V30 62 H 0.510968 0.750948 -1.985553 0
M  V30 63 H -0.926590 3.203592 -2.066537 0
M  V30 64 H -0.187048 2.499751 -0.626559 0
M  V30 65 H -0.117144 3.265885 2.842965 0
M  V30 66 H -1.106580 3.299419 4.392615 0
M  V30 END ATOM
M  V30 BEGIN BOND
M  V30 1 2 1 2
M  V30 2 1 2 3
M  V30 3 1 3 4
M  V30 4 2 4 5
M  V30 5 1 5 6
M  V30 6 2 6 7
M  V30 7 1 7 8
M  V30 8 1 7 9
M  V30 9 1 9 10
M  V30 10 2 9 11
M  V30 11 1 2 12
M  V30 12 1 12 13
M  V30 13 1 13 14
M  V30 14 1 14 15
M  V30 15 1 15 16
M  V30 16 1 16 17
M  V30 17 2 17 18
M  V30 18 1 17 19
M  V30 19 1 19 20
M  V30 20 1 20 21
M  V30 21 1 21 22
M  V30 22 1 22 23
M  V30 23 2 23 24
M  V30 24 1 24 25
M  V30 25 2 25 26
M  V30 26 1 26 27
M  V30 27 2 27 28
M  V30 28 1 28 29
M  V30 29 2 29 30
M  V30 30 1 30 31
M  V30 31 2 31 32
M  V30 32 1 26 33
M  V30 33 2 33 34
M  V30 34 1 22 35
M  V30 35 1 35 36
M  V30 36 1 15 37
M  V30 37 1 11 4
M  V30 38 1 37 12
M  V30 39 1 36 19
M  V30 40 1 34 23
M  V30 41 1 32 27
M  V30 42 1 3 38
M  V30 43 1 5 39
M  V30 44 1 6 40
M  V30 45 1 8 41
M  V30 46 1 11 42
M  V30 47 1 12 43 CFG=1
M  V30 48 1 13 44
M  V30 49 1 13 45
M  V30 50 1 14 46
M  V30 51 1 14 47
M  V30 52 1 16 48
M  V30 53 1 16 49
M  V30 54 1 20 50
M  V30 55 1 20 51
M  V30 56 1 21 52
M  V30 57 1 21 53
M  V30 58 1 24 54
M  V30 59 1 25 55
M  V30 60 1 29 56
M  V30 61 1 30 57
M  V30 62 1 31 58
M  V30 63 1 33 59
M  V30 64 1 34 60
M  V30 65 1 35 61
M  V30 66 1 35 62
M  V30 67 1 36 63
M  V30 68 1 36 64
M  V30 69 1 37 65
M  V30 70 1 37 66
M  V30 END BOND
M  V30 END CTAB
M  END
>  <Dataset>  (549) 
ChEMBL_Kinases

>  <Ligand_Instance>  (549) 
nan

>  <PDB_ID>  (549) 
nan

>  <Standardized_SMILES>  (549) 
O=C(Nc1ccc(O)c(Cl)c1)[C@@H]1CCN(CC(=O)N2CCN(c3ccc(-c4ncccn4)cc3)CC2)C1

>  <Name>  (549) 
nan

>  <Pocket>  (549) 
nan

>  <ATP_Site>  (549) 
nan

>  <Peripheral>  (549) 
nan

>  <Num_H_Atoms_ProtBoundConf>  (549) 
nan

>  <Num_Resolved_Atoms>  (549) 
nan

>  <Num_Not_Resolved_Atoms>  (549) 
nan

$$$$
CHEMBL3398599
     RDKit          3D

  0  0  0  0  0  0  0  0  0  0999 V3000
M  V30 BEGIN CTAB
M  V30 COUNTS 72 76 0 0 0
M  V30 BEGIN ATOM
M  V30 1 C 5.031262 -8.105977 2.637502 0
M  V30 2 C 4.312671 -7.153719 3.581763 0
M  V30 3 C 3.774896 -5.986013 2.863537 0
M  V30 4 C 2.499469 -5.918431 2.319109 0
M  V30 5 N 2.065010 -4.813492 1.656075 0
M  V30 6 C 2.888549 -3.737059 1.512391 0
M  V30 7 C 2.516688 -2.515257 0.806280 0
M  V30 8 C 1.293869 -2.325987 0.195991 0
M  V30 9 C 0.931462 -1.177529 -0.488194 0
M  V30 10 C 1.827548 -0.136707 -0.586105 0
M  V30 11 N 1.483927 1.045655 -1.294979 0
M  V30 12 C 0.221757 1.339550 -1.904210 0
M  V30 13 C -0.198557 2.743175 -1.585909 0
M  V30 14 N 0.489226 3.302197 -0.423762 0
M  V30 15 C 0.188794 3.807609 0.906118 0
M  V30 16 O 1.203105 4.148822 1.608670 0
M  V30 17 C -0.961048 4.079061 1.765480 0
M  V30 18 N -2.247132 3.814317 1.303618 0
M  V30 19 C -2.814742 4.553076 0.253452 0
M  V30 20 C -3.853027 3.651400 -0.410724 0
M  V30 21 C -3.909663 2.387272 0.451246 0 CFG=1
M  V30 22 C -4.096969 1.223686 -0.390251 0
M  V30 23 O -4.147208 1.429692 -1.628577 0
M  V30 24 N -4.227211 -0.102434 0.062932 0
M  V30 25 C -4.412293 -1.311195 -0.648999 0
M  V30 26 C -4.527297 -2.495179 0.047721 0
M  V30 27 C -4.702782 -3.699262 -0.581385 0
M  V30 28 C -4.773249 -3.786568 -1.952426 0
M  V30 29 O -4.953952 -5.046606 -2.544641 0
M  V30 30 C -4.664044 -2.628983 -2.702630 0
M  V30 31 Cl -4.746762 -2.692195 -4.431715 0
M  V30 32 C -4.489598 -1.452373 -2.008636 0
M  V30 33 C -2.597838 2.448201 1.208841 0
M  V30 34 C 1.909253 3.375900 -0.800616 0
M  V30 35 C 2.343722 2.173566 -1.559387 0
M  V30 36 C 3.043880 -0.310697 0.013951 0
M  V30 37 C 3.396533 -1.449622 0.691228 0
M  V30 38 N 4.122308 -3.806456 2.042838 0
M  V30 39 C 4.576867 -4.888663 2.703927 0
M  V30 40 H 4.272173 -8.770492 2.193713 0
M  V30 41 H 5.529028 -7.544177 1.811283 0
M  V30 42 H 5.793617 -8.724777 3.156797 0
M  V30 43 H 3.516737 -7.771851 4.074474 0
M  V30 44 H 5.037281 -6.822265 4.340115 0
M  V30 45 H 1.870765 -6.791606 2.445508 0
M  V30 46 H 0.598215 -3.155970 0.278964 0
M  V30 47 H -0.057959 -1.180057 -0.911489 0
M  V30 48 H -0.592774 0.622683 -1.622715 0
M  V30 49 H 0.298551 1.294264 -3.031585 0
M  V30 50 H 0.012365 3.436296 -2.440255 0
M  V30 51 H -1.314292 2.816825 -1.457299 0
M  V30 52 H -0.831766 3.483893 2.734245 0
M  V30 53 H -0.882138 5.149649 2.154371 0
M  V30 54 H -3.315616 5.462121 0.670191 0
M  V30 55 H -2.128835 4.890199 -0.552629 0
M  V30 56 H -4.835869 4.170093 -0.374361 0
M  V30 57 H -3.619908 3.399938 -1.448030 0
M  V30 58 H -4.769083 2.494321 1.163875 0
M  V30 59 H -4.171985 -0.149840 1.112541 0
M  V30 60 H -4.479528 -2.495947 1.136414 0
M  V30 61 H -4.789750 -4.604024 -0.008726 0
M  V30 62 H -4.099870 -5.609764 -2.599654 0
M  V30 63 H -4.410221 -0.580637 -2.637063 0
M  V30 64 H -1.826525 1.762600 0.852571 0
M  V30 65 H -2.841194 2.089266 2.254959 0
M  V30 66 H 2.560891 3.617145 0.045284 0
M  V30 67 H 1.968126 4.245909 -1.514564 0
M  V30 68 H 3.389245 1.943054 -1.228219 0
M  V30 69 H 2.420349 2.358178 -2.662186 0
M  V30 70 H 3.822334 0.434684 0.003418 0
M  V30 71 H 4.366494 -1.583928 1.169235 0
M  V30 72 H 5.595987 -4.786690 3.071924 0
M  V30 END ATOM
M  V30 BEGIN BOND
M  V30 1 1 1 2
M  V30 2 1 2 3
M  V30 3 2 3 4
M  V30 4 1 4 5
M  V30 5 2 5 6
M  V30 6 1 6 7
M  V30 7 2 7 8
M  V30 8 1 8 9
M  V30 9 2 9 10
M  V30 10 1 10 11
M  V30 11 1 11 12
M  V30 12 1 12 13
M  V30 13 1 13 14
M  V30 14 1 14 15
M  V30 15 2 15 16
M  V30 16 1 15 17
M  V30 17 1 17 18
M  V30 18 1 18 19
M  V30 19 1 19 20
M  V30 20 1 20 21
M  V30 21 1 21 22
M  V30 22 2 22 23
M  V30 23 1 22 24
M  V30 24 1 24 25
M  V30 25 2 25 26
M  V30 26 1 26 27
M  V30 27 2 27 28
M  V30 28 1 28 29
M  V30 29 1 28 30
M  V30 30 1 30 31
M  V30 31 2 30 32
M  V30 32 1 21 33
M  V30 33 1 14 34
M  V30 34 1 34 35
M  V30 35 1 10 36
M  V30 36 2 36 37
M  V30 37 1 6 38
M  V30 38 2 38 39
M  V30 39 1 39 3
M  V30 40 1 37 7
M  V30 41 1 35 11
M  V30 42 1 33 18
M  V30 43 1 32 25
M  V30 44 1 1 40
M  V30 45 1 1 41
M  V30 46 1 1 42
M  V30 47 1 2 43
M  V30 48 1 2 44
M  V30 49 1 4 45
M  V30 50 1 8 46
M  V30 51 1 9 47
M  V30 52 1 12 48
M  V30 53 1 12 49
M  V30 54 1 13 50
M  V30 55 1 13 51
M  V30 56 1 17 52
M  V30 57 1 17 53
M  V30 58 1 19 54
M  V30 59 1 19 55
M  V30 60 1 20 56
M  V30 61 1 20 57
M  V30 62 1 21 58 CFG=1
M  V30 63 1 24 59
M  V30 64 1 26 60
M  V30 65 1 27 61
M  V30 66 1 29 62
M  V30 67 1 32 63
M  V30 68 1 33 64
M  V30 69 1 33 65
M  V30 70 1 34 66
M  V30 71 1 34 67
M  V30 72 1 35 68
M  V30 73 1 35 69
M  V30 74 1 36 70
M  V30 75 1 37 71
M  V30 76 1 39 72
M  V30 END BOND
M  V30 END CTAB
M  END
>  <Dataset>  (550) 
ChEMBL_Kinases

>  <Ligand_Instance>  (550) 
nan

>  <PDB_ID>  (550) 
nan

>  <Standardized_SMILES>  (550) 
CCc1cnc(-c2ccc(N3CCN(C(=O)CN4CC[C@@H](C(=O)Nc5ccc(O)c(Cl)c5)C4)CC3)cc2)nc1

>  <Name>  (550) 
nan

>  <Pocket>  (550) 
nan

>  <ATP_Site>  (550) 
nan

>  <Peripheral>  (550) 
nan

>  <Num_H_Atoms_ProtBoundConf>  (550) 
nan

>  <Num_Resolved_Atoms>  (550) 
nan

>  <Num_Not_Resolved_Atoms>  (550) 
nan

$$$$
CHEMBL3398600
     RDKit          3D

  0  0  0  0  0  0  0  0  0  0999 V3000
M  V30 BEGIN CTAB
M  V30 COUNTS 66 70 0 0 0
M  V30 BEGIN ATOM
M  V30 1 O 1.173000 0.684420 4.387848 0
M  V30 2 C 1.366889 1.553404 3.499010 0
M  V30 3 N 2.399097 1.093515 2.672063 0
M  V30 4 C 3.184566 -0.092490 2.684466 0
M  V30 5 C 4.379999 -0.254050 3.354090 0
M  V30 6 C 5.047533 -1.475296 3.276892 0
M  V30 7 C 4.573059 -2.549177 2.557196 0
M  V30 8 O 5.232363 -3.765839 2.476754 0
M  V30 9 C 3.379895 -2.419421 1.876271 0
M  V30 10 Cl 2.648801 -3.695781 0.918004 0
M  V30 11 C 2.727713 -1.185558 1.968053 0
M  V30 12 C 0.927105 2.888765 2.975688 0 CFG=2
M  V30 13 C -0.198957 3.432010 3.819280 0
M  V30 14 C -1.256829 3.901252 2.878099 0
M  V30 15 N -0.996281 3.305913 1.622796 0
M  V30 16 C -2.016929 2.546229 1.011073 0
M  V30 17 C -2.386667 1.281577 1.657957 0
M  V30 18 O -1.807429 0.893932 2.726822 0
M  V30 19 N -3.435392 0.550917 0.982437 0
M  V30 20 C -4.120688 0.961952 -0.244739 0
M  V30 21 C -4.317236 -0.208713 -1.167671 0
M  V30 22 N -3.570761 -1.357988 -0.677273 0
M  V30 23 C -2.476031 -1.988044 -1.297507 0
M  V30 24 C -1.773039 -3.035052 -0.777149 0
M  V30 25 C -0.710419 -3.626315 -1.412130 0
M  V30 26 C -0.275980 -3.192413 -2.641038 0
M  V30 27 C 0.849931 -3.853203 -3.266028 0
M  V30 28 N 1.479542 -4.878710 -2.667768 0
M  V30 29 C 2.520971 -5.511586 -3.214602 0
M  V30 30 C 2.987487 -5.113927 -4.443614 0
M  V30 31 F 4.041462 -5.812917 -4.913288 0
M  V30 32 C 2.350621 -4.058072 -5.075315 0
M  V30 33 N 1.304072 -3.462189 -4.467734 0
M  V30 34 C -0.974123 -2.125524 -3.197027 0
M  V30 35 C -2.040000 -1.555642 -2.526193 0
M  V30 36 C -4.152435 -1.762470 0.591735 0
M  V30 37 C -3.799588 -0.700298 1.630787 0
M  V30 38 C 0.320636 2.784855 1.615052 0
M  V30 39 H 2.879884 1.494784 1.813691 0
M  V30 40 H 4.749846 0.578315 3.912938 0
M  V30 41 H 5.986405 -1.580899 3.810839 0
M  V30 42 H 5.342459 -4.141240 1.541731 0
M  V30 43 H 1.780757 -1.088776 1.426729 0
M  V30 44 H 1.819335 3.566347 2.996381 0
M  V30 45 H -0.570910 2.622391 4.465021 0
M  V30 46 H 0.149747 4.228747 4.516094 0
M  V30 47 H -2.286668 3.759363 3.258197 0
M  V30 48 H -1.085830 5.011320 2.749379 0
M  V30 49 H -1.730441 2.408405 -0.066569 0
M  V30 50 H -2.938836 3.180376 0.981912 0
M  V30 51 H -3.519535 1.741338 -0.779398 0
M  V30 52 H -5.103749 1.388043 -0.003400 0
M  V30 53 H -4.090286 0.050492 -2.219500 0
M  V30 54 H -5.415494 -0.475324 -1.187295 0
M  V30 55 H -2.041058 -3.443589 0.185525 0
M  V30 56 H -0.188655 -4.454395 -0.952932 0
M  V30 57 H 2.936504 -6.330761 -2.613450 0
M  V30 58 H 2.752475 -3.780474 -6.040734 0
M  V30 59 H -0.606100 -1.808899 -4.165198 0
M  V30 60 H -2.461948 -0.755007 -3.085940 0
M  V30 61 H -5.281525 -1.797695 0.547164 0
M  V30 62 H -3.758434 -2.724607 0.937824 0
M  V30 63 H -4.687743 -0.468157 2.255435 0
M  V30 64 H -3.005915 -1.093131 2.269088 0
M  V30 65 H 0.952171 3.401828 0.921436 0
M  V30 66 H 0.394367 1.738838 1.248975 0
M  V30 END ATOM
M  V30 BEGIN BOND
M  V30 1 2 1 2
M  V30 2 1 2 3
M  V30 3 1 3 4
M  V30 4 2 4 5
M  V30 5 1 5 6
M  V30 6 2 6 7
M  V30 7 1 7 8
M  V30 8 1 7 9
M  V30 9 1 9 10
M  V30 10 2 9 11
M  V30 11 1 2 12
M  V30 12 1 12 13
M  V30 13 1 13 14
M  V30 14 1 14 15
M  V30 15 1 15 16
M  V30 16 1 16 17
M  V30 17 2 17 18
M  V30 18 1 17 19
M  V30 19 1 19 20
M  V30 20 1 20 21
M  V30 21 1 21 22
M  V30 22 1 22 23
M  V30 23 2 23 24
M  V30 24 1 24 25
M  V30 25 2 25 26
M  V30 26 1 26 27
M  V30 27 2 27 28
M  V30 28 1 28 29
M  V30 29 2 29 30
M  V30 30 1 30 31
M  V30 31 1 30 32
M  V30 32 2 32 33
M  V30 33 1 26 34
M  V30 34 2 34 35
M  V30 35 1 22 36
M  V30 36 1 36 37
M  V30 37 1 15 38
M  V30 38 1 11 4
M  V30 39 1 38 12
M  V30 40 1 37 19
M  V30 41 1 35 23
M  V30 42 1 33 27
M  V30 43 1 3 39
M  V30 44 1 5 40
M  V30 45 1 6 41
M  V30 46 1 8 42
M  V30 47 1 11 43
M  V30 48 1 12 44 CFG=3
M  V30 49 1 13 45
M  V30 50 1 13 46
M  V30 51 1 14 47
M  V30 52 1 14 48
M  V30 53 1 16 49
M  V30 54 1 16 50
M  V30 55 1 20 51
M  V30 56 1 20 52
M  V30 57 1 21 53
M  V30 58 1 21 54
M  V30 59 1 24 55
M  V30 60 1 25 56
M  V30 61 1 29 57
M  V30 62 1 32 58
M  V30 63 1 34 59
M  V30 64 1 35 60
M  V30 65 1 36 61
M  V30 66 1 36 62
M  V30 67 1 37 63
M  V30 68 1 37 64
M  V30 69 1 38 65
M  V30 70 1 38 66
M  V30 END BOND
M  V30 END CTAB
M  END
>  <Dataset>  (551) 
ChEMBL_Kinases

>  <Ligand_Instance>  (551) 
nan

>  <PDB_ID>  (551) 
nan

>  <Standardized_SMILES>  (551) 
O=C(Nc1ccc(O)c(Cl)c1)[C@@H]1CCN(CC(=O)N2CCN(c3ccc(-c4ncc(F)cn4)cc3)CC2)C1

>  <Name>  (551) 
nan

>  <Pocket>  (551) 
nan

>  <ATP_Site>  (551) 
nan

>  <Peripheral>  (551) 
nan

>  <Num_H_Atoms_ProtBoundConf>  (551) 
nan

>  <Num_Resolved_Atoms>  (551) 
nan

>  <Num_Not_Resolved_Atoms>  (551) 
nan

$$$$
CHEMBL3398601
     RDKit          3D

  0  0  0  0  0  0  0  0  0  0999 V3000
M  V30 BEGIN CTAB
M  V30 COUNTS 66 70 0 0 0
M  V30 BEGIN ATOM
M  V30 1 O 1.393895 -0.157988 3.242685 0
M  V30 2 C 1.714514 1.040271 3.554813 0
M  V30 3 N 3.052471 1.455393 3.310938 0
M  V30 4 C 3.775695 0.355386 2.733170 0
M  V30 5 C 4.424166 -0.515965 3.570119 0
M  V30 6 C 5.132538 -1.588358 3.069794 0
M  V30 7 C 5.166431 -1.754912 1.694642 0
M  V30 8 O 5.816651 -2.758757 1.009203 0
M  V30 9 C 4.503963 -0.864203 0.845738 0
M  V30 10 Cl 4.499118 -1.006400 -0.900111 0
M  V30 11 C 3.797022 0.207828 1.366264 0
M  V30 12 C 0.615050 1.847400 4.142418 0 CFG=2
M  V30 13 C -0.611750 0.931611 4.174280 0
M  V30 14 C -1.387167 1.351014 2.975599 0
M  V30 15 N -0.894732 2.569199 2.447526 0
M  V30 16 C -0.433707 2.522619 1.078134 0
M  V30 17 C -1.514751 2.315383 0.122808 0
M  V30 18 O -2.459774 2.262693 0.964587 0
M  V30 19 N -2.153302 2.141172 -1.115241 0
M  V30 20 C -3.591055 1.960432 -1.111109 0
M  V30 21 C -3.892932 0.586927 -1.663657 0
M  V30 22 N -2.761380 -0.034957 -2.289919 0
M  V30 23 C -2.300577 -1.358042 -2.058295 0
M  V30 24 C -2.966530 -2.219511 -1.217996 0
M  V30 25 C -2.518567 -3.503970 -0.985495 0
M  V30 26 C -1.364920 -3.989588 -1.594893 0
M  V30 27 C -0.894753 -5.349668 -1.343829 0
M  V30 28 C -0.204303 -6.107652 -2.291612 0
M  V30 29 N 0.168823 -7.346013 -1.919050 0
M  V30 30 C -0.105766 -7.851864 -0.680341 0
M  V30 31 N -0.780057 -7.120175 0.254298 0
M  V30 32 C -1.171376 -5.862463 -0.092521 0
M  V30 33 C -0.703142 -3.117912 -2.437063 0
M  V30 34 C -1.159561 -1.833857 -2.663077 0
M  V30 35 C -2.219650 0.942551 -3.169058 0
M  V30 36 C -1.574050 2.109373 -2.466801 0
M  V30 37 C 0.171366 2.993515 3.290801 0
M  V30 38 H 3.249538 2.441571 3.586920 0
M  V30 39 H 4.428364 -0.429276 4.667236 0
M  V30 40 H 5.683976 -2.342187 3.620897 0
M  V30 41 H 6.123927 -3.630265 1.404591 0
M  V30 42 H 3.276880 0.909667 0.725756 0
M  V30 43 H 0.928921 2.134220 5.166250 0
M  V30 44 H -0.297019 -0.126905 4.180109 0
M  V30 45 H -1.128680 1.119671 5.139838 0
M  V30 46 H -2.436647 1.560571 3.343063 0
M  V30 47 H -1.524230 0.543196 2.227735 0
M  V30 48 H 0.341612 1.731882 1.006435 0
M  V30 49 H 0.052627 3.525959 0.897694 0
M  V30 50 H -3.975672 2.702544 -1.858588 0
M  V30 51 H -4.032434 2.131676 -0.127710 0
M  V30 52 H -4.272627 -0.002263 -0.803761 0
M  V30 53 H -4.687231 0.670943 -2.432132 0
M  V30 54 H -3.857433 -1.966848 -0.695772 0
M  V30 55 H -3.042200 -4.190229 -0.321361 0
M  V30 56 H -0.006296 -5.680266 -3.251013 0
M  V30 57 H 0.237548 -8.866056 -0.471326 0
M  V30 58 H -1.700402 -5.339531 0.697383 0
M  V30 59 H 0.190395 -3.520498 -2.897480 0
M  V30 60 H -0.550587 -1.266676 -3.337002 0
M  V30 61 H -2.994768 1.268167 -3.923942 0
M  V30 62 H -1.428114 0.478676 -3.788782 0
M  V30 63 H -1.901376 3.028932 -2.994052 0
M  V30 64 H -0.483329 2.022571 -2.446933 0
M  V30 65 H -0.210724 3.779162 4.005636 0
M  V30 66 H 1.004860 3.486778 2.749802 0
M  V30 END ATOM
M  V30 BEGIN BOND
M  V30 1 2 1 2
M  V30 2 1 2 3
M  V30 3 1 3 4
M  V30 4 2 4 5
M  V30 5 1 5 6
M  V30 6 2 6 7
M  V30 7 1 7 8
M  V30 8 1 7 9
M  V30 9 1 9 10
M  V30 10 2 9 11
M  V30 11 1 2 12
M  V30 12 1 12 13
M  V30 13 1 13 14
M  V30 14 1 14 15
M  V30 15 1 15 16
M  V30 16 1 16 17
M  V30 17 2 17 18
M  V30 18 1 17 19
M  V30 19 1 19 20
M  V30 20 1 20 21
M  V30 21 1 21 22
M  V30 22 1 22 23
M  V30 23 2 23 24
M  V30 24 1 24 25
M  V30 25 2 25 26
M  V30 26 1 26 27
M  V30 27 2 27 28
M  V30 28 1 28 29
M  V30 29 2 29 30
M  V30 30 1 30 31
M  V30 31 2 31 32
M  V30 32 1 26 33
M  V30 33 2 33 34
M  V30 34 1 22 35
M  V30 35 1 35 36
M  V30 36 1 15 37
M  V30 37 1 11 4
M  V30 38 1 37 12
M  V30 39 1 36 19
M  V30 40 1 34 23
M  V30 41 1 32 27
M  V30 42 1 3 38
M  V30 43 1 5 39
M  V30 44 1 6 40
M  V30 45 1 8 41
M  V30 46 1 11 42
M  V30 47 1 12 43 CFG=1
M  V30 48 1 13 44
M  V30 49 1 13 45
M  V30 50 1 14 46
M  V30 51 1 14 47
M  V30 52 1 16 48
M  V30 53 1 16 49
M  V30 54 1 20 50
M  V30 55 1 20 51
M  V30 56 1 21 52
M  V30 57 1 21 53
M  V30 58 1 24 54
M  V30 59 1 25 55
M  V30 60 1 28 56
M  V30 61 1 30 57
M  V30 62 1 32 58
M  V30 63 1 33 59
M  V30 64 1 34 60
M  V30 65 1 35 61
M  V30 66 1 35 62
M  V30 67 1 36 63
M  V30 68 1 36 64
M  V30 69 1 37 65
M  V30 70 1 37 66
M  V30 END BOND
M  V30 END CTAB
M  END
>  <Dataset>  (552) 
ChEMBL_Kinases

>  <Ligand_Instance>  (552) 
nan

>  <PDB_ID>  (552) 
nan

>  <Standardized_SMILES>  (552) 
O=C(Nc1ccc(O)c(Cl)c1)[C@@H]1CCN(CC(=O)N2CCN(c3ccc(-c4cncnc4)cc3)CC2)C1

>  <Name>  (552) 
nan

>  <Pocket>  (552) 
nan

>  <ATP_Site>  (552) 
nan

>  <Peripheral>  (552) 
nan

>  <Num_H_Atoms_ProtBoundConf>  (552) 
nan

>  <Num_Resolved_Atoms>  (552) 
nan

>  <Num_Not_Resolved_Atoms>  (552) 
nan

$$$$
CHEMBL3400285
     RDKit          3D

  0  0  0  0  0  0  0  0  0  0999 V3000
M  V30 BEGIN CTAB
M  V30 COUNTS 58 60 0 0 0
M  V30 BEGIN ATOM
M  V30 1 C -1.161783 1.344292 1.353848 0
M  V30 2 C -1.615991 0.063556 1.906894 0
M  V30 3 C -1.279543 -0.566987 3.113538 0
M  V30 4 C -0.259692 0.102669 3.918929 0
M  V30 5 C 1.129478 -0.205009 3.614996 0
M  V30 6 C 1.972575 -0.615205 4.662343 0
M  V30 7 C 3.284165 -0.962867 4.567716 0
M  V30 8 C 3.907154 -0.930773 3.343047 0
M  V30 9 C 3.151923 -0.533942 2.231430 0
M  V30 10 N 3.737526 -0.510737 0.957534 0
M  V30 11 S 5.189196 0.162521 0.373303 0
M  V30 12 O 6.321949 -0.371910 1.230108 0
M  V30 13 O 5.466667 -0.293202 -1.013640 0
M  V30 14 C 5.209869 1.930719 0.560260 0
M  V30 15 C 4.075105 2.579348 -0.198534 0
M  V30 16 C 4.110798 2.309867 -1.676095 0
M  V30 17 Cl 2.698831 3.155594 -2.387965 0
M  V30 18 C 1.841251 -0.206864 2.451685 0
M  V30 19 C -1.876657 -1.767520 3.431549 0
M  V30 20 O -1.542860 -2.297079 4.532304 0
M  V30 21 O -2.749209 -2.337843 2.635717 0
M  V30 22 C -3.096267 -1.790695 1.499049 0
M  V30 23 C -4.014761 -2.467987 0.741370 0
M  V30 24 C -4.416750 -1.929083 -0.476730 0
M  V30 25 O -5.342179 -2.464180 -1.403400 0
M  V30 26 C -4.868004 -3.145946 -2.527665 0
M  V30 27 O -3.791205 -2.816416 -1.943345 0
M  V30 28 N -4.320329 -3.827509 -3.649550 0
M  V30 29 C -2.868688 -3.927370 -3.776233 0
M  V30 30 C -5.185731 -4.401318 -4.629041 0
M  V30 31 C -3.896852 -0.725756 -0.915767 0
M  V30 32 C -2.973813 -0.070482 -0.126969 0
M  V30 33 C -2.549344 -0.588904 1.103140 0
M  V30 34 H -0.329876 1.767193 1.958614 0
M  V30 35 H -1.952405 2.135284 1.382584 0
M  V30 36 H -0.757662 1.248353 0.325494 0
M  V30 37 H -0.451449 -0.161396 5.000707 0
M  V30 38 H -0.364613 1.228256 3.895672 0
M  V30 39 H 1.580211 -0.680090 5.692563 0
M  V30 40 H 3.881009 -1.270585 5.415124 0
M  V30 41 H 4.932791 -1.193318 3.237793 0
M  V30 42 H 3.114526 -1.025532 0.274569 0
M  V30 43 H 5.040423 2.137663 1.635146 0
M  V30 44 H 6.177565 2.379502 0.289331 0
M  V30 45 H 4.148359 3.679939 -0.057076 0
M  V30 46 H 3.091186 2.268438 0.160801 0
M  V30 47 H 4.999261 2.665817 -2.198963 0
M  V30 48 H 3.903141 1.230505 -1.836308 0
M  V30 49 H 1.305946 0.083172 1.564870 0
M  V30 50 H -4.495012 -3.410325 0.967874 0
M  V30 51 H -2.331547 -3.215045 -3.118479 0
M  V30 52 H -2.529198 -4.941939 -3.448056 0
M  V30 53 H -2.513753 -3.725107 -4.810234 0
M  V30 54 H -4.821600 -4.181463 -5.657879 0
M  V30 55 H -6.233063 -4.069665 -4.460655 0
M  V30 56 H -5.194898 -5.504818 -4.492136 0
M  V30 57 H -4.169019 -0.242437 -1.864406 0
M  V30 58 H -2.572542 0.866764 -0.473506 0
M  V30 END ATOM
M  V30 BEGIN BOND
M  V30 1 1 1 2
M  V30 2 2 2 3
M  V30 3 1 3 4
M  V30 4 1 4 5
M  V30 5 2 5 6
M  V30 6 1 6 7
M  V30 7 2 7 8
M  V30 8 1 8 9
M  V30 9 1 9 10
M  V30 10 1 10 11
M  V30 11 2 11 12
M  V30 12 2 11 13
M  V30 13 1 11 14
M  V30 14 1 14 15
M  V30 15 1 15 16
M  V30 16 1 16 17
M  V30 17 2 9 18
M  V30 18 1 3 19
M  V30 19 2 19 20
M  V30 20 1 19 21
M  V30 21 1 21 22
M  V30 22 2 22 23
M  V30 23 1 23 24
M  V30 24 1 24 25
M  V30 25 1 25 26
M  V30 26 2 26 27
M  V30 27 1 26 28
M  V30 28 1 28 29
M  V30 29 1 28 30
M  V30 30 2 24 31
M  V30 31 1 31 32
M  V30 32 2 32 33
M  V30 33 1 33 2
M  V30 34 1 18 5
M  V30 35 1 33 22
M  V30 36 1 1 34
M  V30 37 1 1 35
M  V30 38 1 1 36
M  V30 39 1 4 37
M  V30 40 1 4 38
M  V30 41 1 6 39
M  V30 42 1 7 40
M  V30 43 1 8 41
M  V30 44 1 10 42
M  V30 45 1 14 43
M  V30 46 1 14 44
M  V30 47 1 15 45
M  V30 48 1 15 46
M  V30 49 1 16 47
M  V30 50 1 16 48
M  V30 51 1 18 49
M  V30 52 1 23 50
M  V30 53 1 29 51
M  V30 54 1 29 52
M  V30 55 1 29 53
M  V30 56 1 30 54
M  V30 57 1 30 55
M  V30 58 1 30 56
M  V30 59 1 31 57
M  V30 60 1 32 58
M  V30 END BOND
M  V30 END CTAB
M  END
>  <Dataset>  (553) 
ChEMBL_Kinases

>  <Ligand_Instance>  (553) 
nan

>  <PDB_ID>  (553) 
nan

>  <Standardized_SMILES>  (553) 
Cc1c(Cc2cccc(NS(=O)(=O)CCCCl)c2)c(=O)oc2cc(OC(=O)N(C)C)ccc12

>  <Name>  (553) 
nan

>  <Pocket>  (553) 
nan

>  <ATP_Site>  (553) 
nan

>  <Peripheral>  (553) 
nan

>  <Num_H_Atoms_ProtBoundConf>  (553) 
nan

>  <Num_Resolved_Atoms>  (553) 
nan

>  <Num_Not_Resolved_Atoms>  (553) 
nan

$$$$
CHEMBL3398603
     RDKit          3D

  0  0  0  0  0  0  0  0  0  0999 V3000
M  V30 BEGIN CTAB
M  V30 COUNTS 66 70 0 0 0
M  V30 BEGIN ATOM
M  V30 1 O 2.110987 0.151386 3.456185 0
M  V30 2 C 2.485881 1.355190 3.355463 0
M  V30 3 N 3.873119 1.594504 3.355302 0
M  V30 4 C 4.515664 0.316651 3.479116 0
M  V30 5 C 4.837635 -0.228082 4.724843 0
M  V30 6 C 5.459162 -1.477349 4.794606 0
M  V30 7 C 5.715030 -2.094822 3.603444 0
M  V30 8 O 6.336242 -3.339699 3.716346 0
M  V30 9 C 5.421313 -1.608513 2.348505 0
M  V30 10 Cl 5.787820 -2.474191 0.890029 0
M  V30 11 C 4.813620 -0.385020 2.303483 0
M  V30 12 C 1.390903 2.376236 3.248477 0 CFG=2
M  V30 13 C 0.041424 1.697287 3.263924 0
M  V30 14 C -0.418914 1.835251 1.858587 0
M  V30 15 N 0.378115 2.710605 1.108652 0
M  V30 16 C 0.885036 2.278033 -0.145654 0
M  V30 17 C -0.086878 2.081404 -1.220261 0
M  V30 18 O -0.906189 2.438974 -0.334160 0
M  V30 19 N -1.301464 2.015667 -1.946660 0
M  V30 20 C -2.687976 2.275914 -1.627600 0
M  V30 21 C -3.580849 1.108922 -1.973830 0
M  V30 22 N -2.911066 -0.002456 -2.566770 0
M  V30 23 C -2.926739 -1.351432 -2.122526 0
M  V30 24 C -3.558806 -1.685729 -0.945251 0
M  V30 25 C -3.573630 -3.014997 -0.512501 0
M  V30 26 C -2.966830 -4.020458 -1.236111 0
M  V30 27 C -3.025148 -5.383392 -0.713500 0
M  V30 28 C -2.465797 -6.481482 -1.328948 0
M  V30 29 N -2.540028 -7.722782 -0.814624 0
M  V30 30 C -3.190384 -7.935199 0.365912 0
M  V30 31 C -3.764050 -6.831548 1.004361 0
M  V30 32 N -3.659588 -5.621697 0.447462 0
M  V30 33 C -2.334542 -3.681464 -2.415494 0
M  V30 34 C -2.319723 -2.352209 -2.848430 0
M  V30 35 C -2.229672 0.565467 -3.690948 0
M  V30 36 C -1.198300 1.599124 -3.329160 0
M  V30 37 C 1.427786 3.156490 1.981326 0
M  V30 38 H 4.140161 2.611909 3.268697 0
M  V30 39 H 4.597337 0.332100 5.612988 0
M  V30 40 H 5.711144 -1.904627 5.753212 0
M  V30 41 H 6.966027 -3.686603 3.023385 0
M  V30 42 H 4.557610 0.052135 1.357424 0
M  V30 43 H 1.438671 2.977345 4.180374 0
M  V30 44 H 0.202261 0.649189 3.589078 0
M  V30 45 H -0.642570 2.128773 4.030749 0
M  V30 46 H -1.447641 2.314404 1.927368 0
M  V30 47 H -0.642338 0.860417 1.367343 0
M  V30 48 H 1.522147 1.378368 0.018016 0
M  V30 49 H 1.595409 3.075486 -0.487846 0
M  V30 50 H -2.995309 3.126767 -2.300290 0
M  V30 51 H -2.797162 2.636125 -0.605430 0
M  V30 52 H -4.143404 0.862689 -1.041929 0
M  V30 53 H -4.401491 1.417458 -2.689994 0
M  V30 54 H -4.060341 -1.000718 -0.301474 0
M  V30 55 H -4.079080 -3.274511 0.426689 0
M  V30 56 H -1.948515 -6.348275 -2.256756 0
M  V30 57 H -3.255163 -8.926240 0.788051 0
M  V30 58 H -4.290575 -6.994421 1.957891 0
M  V30 59 H -1.860021 -4.453658 -2.985956 0
M  V30 60 H -1.802955 -2.195776 -3.777026 0
M  V30 61 H -2.968401 0.950278 -4.440699 0
M  V30 62 H -1.694950 -0.245226 -4.223154 0
M  V30 63 H -1.429793 2.516952 -3.931754 0
M  V30 64 H -0.181606 1.305771 -3.631858 0
M  V30 65 H 2.421995 3.167688 1.493254 0
M  V30 66 H 1.212168 4.227320 2.263289 0
M  V30 END ATOM
M  V30 BEGIN BOND
M  V30 1 2 1 2
M  V30 2 1 2 3
M  V30 3 1 3 4
M  V30 4 2 4 5
M  V30 5 1 5 6
M  V30 6 2 6 7
M  V30 7 1 7 8
M  V30 8 1 7 9
M  V30 9 1 9 10
M  V30 10 2 9 11
M  V30 11 1 2 12
M  V30 12 1 12 13
M  V30 13 1 13 14
M  V30 14 1 14 15
M  V30 15 1 15 16
M  V30 16 1 16 17
M  V30 17 2 17 18
M  V30 18 1 17 19
M  V30 19 1 19 20
M  V30 20 1 20 21
M  V30 21 1 21 22
M  V30 22 1 22 23
M  V30 23 2 23 24
M  V30 24 1 24 25
M  V30 25 2 25 26
M  V30 26 1 26 27
M  V30 27 2 27 28
M  V30 28 1 28 29
M  V30 29 2 29 30
M  V30 30 1 30 31
M  V30 31 2 31 32
M  V30 32 1 26 33
M  V30 33 2 33 34
M  V30 34 1 22 35
M  V30 35 1 35 36
M  V30 36 1 15 37
M  V30 37 1 11 4
M  V30 38 1 37 12
M  V30 39 1 36 19
M  V30 40 1 34 23
M  V30 41 1 32 27
M  V30 42 1 3 38
M  V30 43 1 5 39
M  V30 44 1 6 40
M  V30 45 1 8 41
M  V30 46 1 11 42
M  V30 47 1 12 43 CFG=1
M  V30 48 1 13 44
M  V30 49 1 13 45
M  V30 50 1 14 46
M  V30 51 1 14 47
M  V30 52 1 16 48
M  V30 53 1 16 49
M  V30 54 1 20 50
M  V30 55 1 20 51
M  V30 56 1 21 52
M  V30 57 1 21 53
M  V30 58 1 24 54
M  V30 59 1 25 55
M  V30 60 1 28 56
M  V30 61 1 30 57
M  V30 62 1 31 58
M  V30 63 1 33 59
M  V30 64 1 34 60
M  V30 65 1 35 61
M  V30 66 1 35 62
M  V30 67 1 36 63
M  V30 68 1 36 64
M  V30 69 1 37 65
M  V30 70 1 37 66
M  V30 END BOND
M  V30 END CTAB
M  END
>  <Dataset>  (554) 
ChEMBL_Kinases

>  <Ligand_Instance>  (554) 
nan

>  <PDB_ID>  (554) 
nan

>  <Standardized_SMILES>  (554) 
O=C(Nc1ccc(O)c(Cl)c1)[C@@H]1CCN(CC(=O)N2CCN(c3ccc(-c4cnccn4)cc3)CC2)C1

>  <Name>  (554) 
nan

>  <Pocket>  (554) 
nan

>  <ATP_Site>  (554) 
nan

>  <Peripheral>  (554) 
nan

>  <Num_H_Atoms_ProtBoundConf>  (554) 
nan

>  <Num_Resolved_Atoms>  (554) 
nan

>  <Num_Not_Resolved_Atoms>  (554) 
nan

$$$$
CHEMBL3398604
     RDKit          3D

  0  0  0  0  0  0  0  0  0  0999 V3000
M  V30 BEGIN CTAB
M  V30 COUNTS 64 68 0 0 0
M  V30 BEGIN ATOM
M  V30 1 O 3.601847 4.035073 0.651424 0
M  V30 2 C 2.478044 3.495282 0.925045 0
M  V30 3 N 2.661566 2.201395 1.448550 0
M  V30 4 C 3.799444 1.398291 1.726045 0
M  V30 5 C 4.486779 1.374250 2.930097 0
M  V30 6 C 5.584765 0.553701 3.098187 0
M  V30 7 C 6.010499 -0.257012 2.058482 0
M  V30 8 O 7.130850 -1.082389 2.255643 0
M  V30 9 C 5.343078 -0.258310 0.834876 0
M  V30 10 Cl 5.896207 -1.294182 -0.479561 0
M  V30 11 C 4.235823 0.575994 0.680317 0
M  V30 12 C 1.008150 3.816184 0.859993 0 CFG=2
M  V30 13 C 0.435247 3.760648 2.242923 0
M  V30 14 C -0.905884 3.089952 2.026021 0
M  V30 15 N -0.576653 2.080492 1.039504 0
M  V30 16 C -1.746576 1.495066 0.409205 0
M  V30 17 C -2.527871 0.677260 1.364249 0
M  V30 18 O -2.191723 0.524266 2.587728 0
M  V30 19 N -3.709482 0.026170 0.913001 0
M  V30 20 C -4.169136 0.138859 -0.453003 0
M  V30 21 C -4.725920 -1.192996 -0.886001 0
M  V30 22 N -4.067291 -2.213578 -0.103846 0
M  V30 23 C -3.041426 -3.095861 -0.535579 0
M  V30 24 C -2.494334 -4.112670 0.217609 0
M  V30 25 C -1.493585 -4.926429 -0.265067 0
M  V30 26 C -1.009597 -4.735256 -1.538041 0
M  V30 27 C 0.074175 -5.619953 -2.048934 0
M  V30 28 N 0.687339 -6.570023 -1.534764 0
M  V30 29 C 1.628198 -7.220859 -2.184760 0
M  V30 30 C 1.934071 -6.811036 -3.503744 0
M  V30 31 S 0.757296 -5.430055 -3.701555 0
M  V30 32 C -1.531693 -3.733230 -2.313358 0
M  V30 33 C -2.549137 -2.913753 -1.809037 0
M  V30 34 C -4.621085 -2.210648 1.266751 0
M  V30 35 C -4.514783 -0.798073 1.827652 0
M  V30 36 C 0.271400 2.750315 0.072115 0
M  V30 37 H 1.944321 1.508706 1.766381 0
M  V30 38 H 4.128464 2.015596 3.715015 0
M  V30 39 H 6.121942 0.535845 4.042103 0
M  V30 40 H 8.063880 -0.741235 2.076684 0
M  V30 41 H 3.760254 0.534795 -0.284197 0
M  V30 42 H 0.881770 4.831511 0.461707 0
M  V30 43 H 0.297408 4.787203 2.635902 0
M  V30 44 H 1.106536 3.166031 2.896235 0
M  V30 45 H -1.587183 3.862832 1.607810 0
M  V30 46 H -1.263195 2.667464 2.969648 0
M  V30 47 H -1.508304 0.997714 -0.537941 0
M  V30 48 H -2.400509 2.365757 0.127508 0
M  V30 49 H -3.326788 0.364954 -1.172636 0
M  V30 50 H -4.906425 0.961389 -0.577882 0
M  V30 51 H -5.823593 -1.173735 -0.659531 0
M  V30 52 H -4.615894 -1.359944 -1.978031 0
M  V30 53 H -2.859538 -4.279223 1.212760 0
M  V30 54 H -1.086575 -5.708628 0.340068 0
M  V30 55 H 2.045817 -8.026677 -1.552016 0
M  V30 56 H 2.798542 -7.492456 -3.950963 0
M  V30 57 H -1.116471 -3.627854 -3.301816 0
M  V30 58 H -2.853715 -2.183173 -2.517943 0
M  V30 59 H -5.697205 -2.467679 1.203865 0
M  V30 60 H -4.122412 -2.898343 1.938269 0
M  V30 61 H -3.974709 -0.823566 2.788702 0
M  V30 62 H -5.481475 -0.308058 1.956875 0
M  V30 63 H 0.915165 2.089079 -0.506252 0
M  V30 64 H -0.378243 3.299427 -0.644774 0
M  V30 END ATOM
M  V30 BEGIN BOND
M  V30 1 2 1 2
M  V30 2 1 2 3
M  V30 3 1 3 4
M  V30 4 2 4 5
M  V30 5 1 5 6
M  V30 6 2 6 7
M  V30 7 1 7 8
M  V30 8 1 7 9
M  V30 9 1 9 10
M  V30 10 2 9 11
M  V30 11 1 2 12
M  V30 12 1 12 13
M  V30 13 1 13 14
M  V30 14 1 14 15
M  V30 15 1 15 16
M  V30 16 1 16 17
M  V30 17 2 17 18
M  V30 18 1 17 19
M  V30 19 1 19 20
M  V30 20 1 20 21
M  V30 21 1 21 22
M  V30 22 1 22 23
M  V30 23 2 23 24
M  V30 24 1 24 25
M  V30 25 2 25 26
M  V30 26 1 26 27
M  V30 27 2 27 28
M  V30 28 1 28 29
M  V30 29 2 29 30
M  V30 30 1 30 31
M  V30 31 1 26 32
M  V30 32 2 32 33
M  V30 33 1 22 34
M  V30 34 1 34 35
M  V30 35 1 15 36
M  V30 36 1 11 4
M  V30 37 1 36 12
M  V30 38 1 35 19
M  V30 39 1 33 23
M  V30 40 1 31 27
M  V30 41 1 3 37
M  V30 42 1 5 38
M  V30 43 1 6 39
M  V30 44 1 8 40
M  V30 45 1 11 41
M  V30 46 1 12 42 CFG=3
M  V30 47 1 13 43
M  V30 48 1 13 44
M  V30 49 1 14 45
M  V30 50 1 14 46
M  V30 51 1 16 47
M  V30 52 1 16 48
M  V30 53 1 20 49
M  V30 54 1 20 50
M  V30 55 1 21 51
M  V30 56 1 21 52
M  V30 57 1 24 53
M  V30 58 1 25 54
M  V30 59 1 29 55
M  V30 60 1 30 56
M  V30 61 1 32 57
M  V30 62 1 33 58
M  V30 63 1 34 59
M  V30 64 1 34 60
M  V30 65 1 35 61
M  V30 66 1 35 62
M  V30 67 1 36 63
M  V30 68 1 36 64
M  V30 END BOND
M  V30 END CTAB
M  END
>  <Dataset>  (555) 
ChEMBL_Kinases

>  <Ligand_Instance>  (555) 
nan

>  <PDB_ID>  (555) 
nan

>  <Standardized_SMILES>  (555) 
O=C(Nc1ccc(O)c(Cl)c1)[C@@H]1CCN(CC(=O)N2CCN(c3ccc(-c4nccs4)cc3)CC2)C1

>  <Name>  (555) 
nan

>  <Pocket>  (555) 
nan

>  <ATP_Site>  (555) 
nan

>  <Peripheral>  (555) 
nan

>  <Num_H_Atoms_ProtBoundConf>  (555) 
nan

>  <Num_Resolved_Atoms>  (555) 
nan

>  <Num_Not_Resolved_Atoms>  (555) 
nan

$$$$
CHEMBL3398605
     RDKit          3D

  0  0  0  0  0  0  0  0  0  0999 V3000
M  V30 BEGIN CTAB
M  V30 COUNTS 69 73 0 0 0
M  V30 BEGIN ATOM
M  V30 1 O -3.616360 2.497509 -0.891664 0
M  V30 2 C -2.727854 1.696580 -0.473738 0
M  V30 3 N -1.388525 2.160621 -0.368481 0
M  V30 4 C -0.736900 3.395378 -0.633532 0
M  V30 5 C -0.203564 3.663040 -1.880880 0
M  V30 6 C 0.439390 4.839375 -2.201265 0
M  V30 7 C 0.562303 5.817458 -1.219239 0
M  V30 8 O 1.197802 7.006091 -1.500487 0
M  V30 9 C 0.044306 5.594191 0.042743 0
M  V30 10 C 0.202442 6.670229 1.053923 0
M  V30 11 F 1.530282 6.947232 1.279720 0
M  V30 12 F -0.442762 6.267686 2.208166 0
M  V30 13 F -0.413842 7.816462 0.547493 0
M  V30 14 C -0.586616 4.393715 0.293553 0
M  V30 15 C -2.816379 0.278883 -0.045147 0 CFG=2
M  V30 16 C -4.239535 -0.140154 -0.183354 0
M  V30 17 C -4.586624 -0.930114 1.061920 0
M  V30 18 N -3.479663 -0.772724 1.898357 0
M  V30 19 C -3.242663 -1.630348 2.973969 0
M  V30 20 C -2.874243 -3.021795 2.692519 0
M  V30 21 O -2.737660 -3.548982 3.859197 0
M  V30 22 N -2.651788 -3.852628 1.529656 0
M  V30 23 C -2.680904 -3.678693 0.085903 0
M  V30 24 C -1.545711 -4.435262 -0.571264 0
M  V30 25 N -0.451813 -4.672178 0.346327 0
M  V30 26 C 0.850773 -4.116704 0.253477 0
M  V30 27 C 1.193091 -3.245242 -0.756169 0
M  V30 28 C 2.465887 -2.706734 -0.841125 0
M  V30 29 C 3.438043 -3.024569 0.083807 0
M  V30 30 C 4.760167 -2.427226 -0.052505 0
M  V30 31 N 5.039902 -1.585530 -1.065251 0
M  V30 32 C 6.244445 -1.006133 -1.234734 0
M  V30 33 C 7.263951 -1.270729 -0.338657 0
M  V30 34 C 6.979073 -2.130280 0.695984 0
M  V30 35 N 5.764697 -2.678668 0.817221 0
M  V30 36 C 3.071048 -3.898446 1.084147 0
M  V30 37 C 1.804612 -4.442494 1.180194 0
M  V30 38 C -0.871815 -5.560229 1.383354 0
M  V30 39 C -2.307719 -5.252536 1.817944 0
M  V30 40 C -2.497109 0.091235 1.411114 0
M  V30 41 H -0.531024 1.635457 -0.043738 0
M  V30 42 H -0.257836 2.952720 -2.702369 0
M  V30 43 H 0.856886 5.046341 -3.181878 0
M  V30 44 H 2.223288 7.045876 -1.495527 0
M  V30 45 H -0.995489 4.221975 1.298049 0
M  V30 46 H -2.100061 -0.294620 -0.649950 0
M  V30 47 H -4.931291 0.738606 -0.305050 0
M  V30 48 H -4.365725 -0.731512 -1.104797 0
M  V30 49 H -5.470684 -0.423661 1.547884 0
M  V30 50 H -4.905358 -1.967812 0.855921 0
M  V30 51 H -4.147593 -1.584967 3.646051 0
M  V30 52 H -2.446600 -1.138263 3.619762 0
M  V30 53 H -2.612490 -2.594924 -0.172134 0
M  V30 54 H -3.664829 -4.034693 -0.281641 0
M  V30 55 H -1.287586 -3.886897 -1.474969 0
M  V30 56 H -1.936176 -5.429887 -0.915067 0
M  V30 57 H 0.501499 -2.936919 -1.526198 0
M  V30 58 H 2.726362 -2.024363 -1.635054 0
M  V30 59 H 6.368121 -0.336582 -2.091405 0
M  V30 60 H 8.195807 -0.750926 -0.567198 0
M  V30 61 H 7.807351 -2.311344 1.377472 0
M  V30 62 H 3.854160 -4.144966 1.815343 0
M  V30 63 H 1.664659 -5.097927 1.997417 0
M  V30 64 H -0.901420 -6.609005 0.976782 0
M  V30 65 H -0.278103 -5.588219 2.288984 0
M  V30 66 H -2.443017 -5.501217 2.891710 0
M  V30 67 H -3.045382 -5.884066 1.283220 0
M  V30 68 H -1.475229 -0.360214 1.548314 0
M  V30 69 H -2.545569 1.078942 1.961190 0
M  V30 END ATOM
M  V30 BEGIN BOND
M  V30 1 2 1 2
M  V30 2 1 2 3
M  V30 3 1 3 4
M  V30 4 2 4 5
M  V30 5 1 5 6
M  V30 6 2 6 7
M  V30 7 1 7 8
M  V30 8 1 7 9
M  V30 9 1 9 10
M  V30 10 1 10 11
M  V30 11 1 10 12
M  V30 12 1 10 13
M  V30 13 2 9 14
M  V30 14 1 2 15
M  V30 15 1 15 16
M  V30 16 1 16 17
M  V30 17 1 17 18
M  V30 18 1 18 19
M  V30 19 1 19 20
M  V30 20 2 20 21
M  V30 21 1 20 22
M  V30 22 1 22 23
M  V30 23 1 23 24
M  V30 24 1 24 25
M  V30 25 1 25 26
M  V30 26 2 26 27
M  V30 27 1 27 28
M  V30 28 2 28 29
M  V30 29 1 29 30
M  V30 30 2 30 31
M  V30 31 1 31 32
M  V30 32 2 32 33
M  V30 33 1 33 34
M  V30 34 2 34 35
M  V30 35 1 29 36
M  V30 36 2 36 37
M  V30 37 1 25 38
M  V30 38 1 38 39
M  V30 39 1 18 40
M  V30 40 1 14 4
M  V30 41 1 40 15
M  V30 42 1 39 22
M  V30 43 1 37 26
M  V30 44 1 35 30
M  V30 45 1 3 41
M  V30 46 1 5 42
M  V30 47 1 6 43
M  V30 48 1 8 44
M  V30 49 1 14 45
M  V30 50 1 15 46 CFG=3
M  V30 51 1 16 47
M  V30 52 1 16 48
M  V30 53 1 17 49
M  V30 54 1 17 50
M  V30 55 1 19 51
M  V30 56 1 19 52
M  V30 57 1 23 53
M  V30 58 1 23 54
M  V30 59 1 24 55
M  V30 60 1 24 56
M  V30 61 1 27 57
M  V30 62 1 28 58
M  V30 63 1 32 59
M  V30 64 1 33 60
M  V30 65 1 34 61
M  V30 66 1 36 62
M  V30 67 1 37 63
M  V30 68 1 38 64
M  V30 69 1 38 65
M  V30 70 1 39 66
M  V30 71 1 39 67
M  V30 72 1 40 68
M  V30 73 1 40 69
M  V30 END BOND
M  V30 END CTAB
M  END
>  <Dataset>  (556) 
ChEMBL_Kinases

>  <Ligand_Instance>  (556) 
nan

>  <PDB_ID>  (556) 
nan

>  <Standardized_SMILES>  (556) 
O=C(Nc1ccc(O)c(C(F)(F)F)c1)[C@@H]1CCN(CC(=O)N2CCN(c3ccc(-c4ncccn4)cc3)CC2)C1

>  <Name>  (556) 
nan

>  <Pocket>  (556) 
nan

>  <ATP_Site>  (556) 
nan

>  <Peripheral>  (556) 
nan

>  <Num_H_Atoms_ProtBoundConf>  (556) 
nan

>  <Num_Resolved_Atoms>  (556) 
nan

>  <Num_Not_Resolved_Atoms>  (556) 
nan

$$$$
CHEMBL3398606
     RDKit          3D

  0  0  0  0  0  0  0  0  0  0999 V3000
M  V30 BEGIN CTAB
M  V30 COUNTS 73 78 0 0 0
M  V30 BEGIN ATOM
M  V30 1 O 1.903231 0.380562 -1.422754 0
M  V30 2 C 1.548914 -0.357826 -2.405465 0
M  V30 3 N 2.126071 -0.079727 -3.663894 0
M  V30 4 C 3.014767 1.041924 -3.462284 0
M  V30 5 C 4.297182 0.685969 -3.100597 0
M  V30 6 C 5.205791 1.708549 -2.889936 0
M  V30 7 C 4.832382 3.025586 -3.038740 0
M  V30 8 O 5.666540 4.118227 -2.852322 0
M  V30 9 C 3.555137 3.387774 -3.400105 0
M  V30 10 C 2.901690 4.701285 -3.617569 0
M  V30 11 C 2.051508 5.301539 -2.490176 0
M  V30 12 C 3.417850 5.837408 -2.721483 0
M  V30 13 C 2.628436 2.376875 -3.615914 0
M  V30 14 C 0.563776 -1.402992 -2.023278 0 CFG=2
M  V30 15 C 0.308078 -1.289822 -0.550642 0
M  V30 16 C 0.212486 -2.698179 -0.072721 0
M  V30 17 N 0.326956 -3.552200 -1.246638 0
M  V30 18 C -1.031113 -3.778810 -1.766927 0
M  V30 19 C -1.799618 -4.637608 -0.855087 0
M  V30 20 O -2.936361 -4.705063 -1.415407 0
M  V30 21 N -1.685189 -5.379672 0.388822 0
M  V30 22 C -0.671109 -5.686897 1.405400 0
M  V30 23 C -1.071855 -5.183510 2.753027 0
M  V30 24 N -2.331016 -4.473124 2.713753 0
M  V30 25 C -2.556891 -3.144205 3.123225 0
M  V30 26 C -3.785122 -2.557289 3.235366 0
M  V30 27 C -3.988492 -1.256338 3.631878 0
M  V30 28 C -2.917382 -0.449471 3.948202 0
M  V30 29 C -3.109144 0.925654 4.369357 0
M  V30 30 N -2.005599 1.663050 4.665160 0
M  V30 31 C -2.148754 2.938624 5.060130 0
M  V30 32 C -3.389143 3.527157 5.175287 0
M  V30 33 C -4.501252 2.740612 4.863767 0
M  V30 34 N -4.319276 1.467941 4.471768 0
M  V30 35 C -1.654005 -1.001227 3.848817 0
M  V30 36 C -1.501735 -2.319369 3.443809 0
M  V30 37 C -3.361273 -5.346947 2.168749 0
M  V30 38 C -2.875850 -6.052765 0.893150 0
M  V30 39 C 1.056828 -2.787424 -2.220725 0
M  V30 40 H 1.800037 -0.715374 -4.420573 0
M  V30 41 H 4.611047 -0.342025 -2.978157 0
M  V30 42 H 6.237051 1.548652 -2.603959 0
M  V30 43 H 5.987160 4.629188 -3.670962 0
M  V30 44 H 2.625869 4.987117 -4.657583 0
M  V30 45 H 1.925575 4.719381 -1.553282 0
M  V30 46 H 1.146663 5.884003 -2.829671 0
M  V30 47 H 4.200915 5.663365 -1.987976 0
M  V30 48 H 3.489247 6.838115 -3.198236 0
M  V30 49 H 1.588121 2.443197 -3.901272 0
M  V30 50 H -0.417932 -1.241212 -2.531129 0
M  V30 51 H 1.184775 -0.775751 -0.064723 0
M  V30 52 H -0.611114 -0.697398 -0.329044 0
M  V30 53 H 0.972981 -2.981167 0.688656 0
M  V30 54 H -0.770778 -2.851396 0.431329 0
M  V30 55 H -1.538573 -2.781738 -1.815376 0
M  V30 56 H -0.963977 -4.259613 -2.770627 0
M  V30 57 H 0.288546 -5.291796 1.052350 0
M  V30 58 H -0.548215 -6.798927 1.434764 0
M  V30 59 H -0.259251 -4.601305 3.239462 0
M  V30 60 H -1.272263 -6.077029 3.417961 0
M  V30 61 H -4.676438 -3.092246 3.018159 0
M  V30 62 H -4.980885 -0.822118 3.710678 0
M  V30 63 H -1.261810 3.489625 5.286156 0
M  V30 64 H -3.476898 4.569454 5.498451 0
M  V30 65 H -5.481856 3.180635 4.949214 0
M  V30 66 H -0.833619 -0.345821 4.102323 0
M  V30 67 H -0.470776 -2.607120 3.411855 0
M  V30 68 H -4.190049 -4.653897 1.857731 0
M  V30 69 H -3.696550 -6.118001 2.874128 0
M  V30 70 H -2.667354 -7.120817 1.052337 0
M  V30 71 H -3.676615 -5.942208 0.106046 0
M  V30 72 H 0.864820 -3.199991 -3.231106 0
M  V30 73 H 2.135436 -2.829682 -1.951802 0
M  V30 END ATOM
M  V30 BEGIN BOND
M  V30 1 2 1 2
M  V30 2 1 2 3
M  V30 3 1 3 4
M  V30 4 2 4 5
M  V30 5 1 5 6
M  V30 6 2 6 7
M  V30 7 1 7 8
M  V30 8 1 7 9
M  V30 9 1 9 10
M  V30 10 1 10 11
M  V30 11 1 11 12
M  V30 12 2 9 13
M  V30 13 1 2 14
M  V30 14 1 14 15
M  V30 15 1 15 16
M  V30 16 1 16 17
M  V30 17 1 17 18
M  V30 18 1 18 19
M  V30 19 2 19 20
M  V30 20 1 19 21
M  V30 21 1 21 22
M  V30 22 1 22 23
M  V30 23 1 23 24
M  V30 24 1 24 25
M  V30 25 2 25 26
M  V30 26 1 26 27
M  V30 27 2 27 28
M  V30 28 1 28 29
M  V30 29 2 29 30
M  V30 30 1 30 31
M  V30 31 2 31 32
M  V30 32 1 32 33
M  V30 33 2 33 34
M  V30 34 1 28 35
M  V30 35 2 35 36
M  V30 36 1 24 37
M  V30 37 1 37 38
M  V30 38 1 17 39
M  V30 39 1 13 4
M  V30 40 1 39 14
M  V30 41 1 12 10
M  V30 42 1 38 21
M  V30 43 1 36 25
M  V30 44 1 34 29
M  V30 45 1 3 40
M  V30 46 1 5 41
M  V30 47 1 6 42
M  V30 48 1 8 43
M  V30 49 1 10 44
M  V30 50 1 11 45
M  V30 51 1 11 46
M  V30 52 1 12 47
M  V30 53 1 12 48
M  V30 54 1 13 49
M  V30 55 1 14 50 CFG=3
M  V30 56 1 15 51
M  V30 57 1 15 52
M  V30 58 1 16 53
M  V30 59 1 16 54
M  V30 60 1 18 55
M  V30 61 1 18 56
M  V30 62 1 22 57
M  V30 63 1 22 58
M  V30 64 1 23 59
M  V30 65 1 23 60
M  V30 66 1 26 61
M  V30 67 1 27 62
M  V30 68 1 31 63
M  V30 69 1 32 64
M  V30 70 1 33 65
M  V30 71 1 35 66
M  V30 72 1 36 67
M  V30 73 1 37 68
M  V30 74 1 37 69
M  V30 75 1 38 70
M  V30 76 1 38 71
M  V30 77 1 39 72
M  V30 78 1 39 73
M  V30 END BOND
M  V30 END CTAB
M  END
>  <Dataset>  (557) 
ChEMBL_Kinases

>  <Ligand_Instance>  (557) 
nan

>  <PDB_ID>  (557) 
nan

>  <Standardized_SMILES>  (557) 
O=C(Nc1ccc(O)c(C2CC2)c1)[C@@H]1CCN(CC(=O)N2CCN(c3ccc(-c4ncccn4)cc3)CC2)C1

>  <Name>  (557) 
nan

>  <Pocket>  (557) 
nan

>  <ATP_Site>  (557) 
nan

>  <Peripheral>  (557) 
nan

>  <Num_H_Atoms_ProtBoundConf>  (557) 
nan

>  <Num_Resolved_Atoms>  (557) 
nan

>  <Num_Not_Resolved_Atoms>  (557) 
nan

$$$$
CHEMBL3398607
     RDKit          3D

  0  0  0  0  0  0  0  0  0  0999 V3000
M  V30 BEGIN CTAB
M  V30 COUNTS 75 79 0 0 0
M  V30 BEGIN ATOM
M  V30 1 C 1.924431 -3.052062 3.224200 0
M  V30 2 C 2.201891 -1.578045 3.129824 0
M  V30 3 C 1.008694 -0.763235 2.718361 0
M  V30 4 C 3.390086 -1.350993 2.267598 0
M  V30 5 C 3.308328 -1.198078 0.911796 0
M  V30 6 C 4.370545 -0.981141 0.045954 0
M  V30 7 N 4.136993 -0.843772 -1.356487 0
M  V30 8 C 3.844837 0.247914 -2.212967 0
M  V30 9 O 3.760953 1.385859 -1.652653 0
M  V30 10 C 3.714748 -0.289973 -3.590348 0 CFG=2
M  V30 11 C 3.345196 0.903639 -4.461106 0
M  V30 12 C 1.808841 0.960396 -4.416060 0
M  V30 13 N 1.468673 -0.059697 -3.487904 0
M  V30 14 C 0.124312 -0.524200 -3.491296 0
M  V30 15 C -0.751064 0.560547 -2.985749 0
M  V30 16 O -0.247920 1.683471 -2.638520 0
M  V30 17 N -2.146371 0.296351 -2.906899 0
M  V30 18 C -2.744394 -0.958482 -3.295010 0
M  V30 19 C -3.637682 -1.511647 -2.208016 0
M  V30 20 N -3.941736 -0.450448 -1.227291 0
M  V30 21 C -3.907428 -0.589038 0.184726 0
M  V30 22 C -3.618101 -1.798920 0.772600 0
M  V30 23 C -3.576640 -1.940527 2.150798 0
M  V30 24 C -3.835177 -0.828689 2.928294 0
M  V30 25 C -3.792818 -0.969981 4.379503 0
M  V30 26 N -3.506803 -2.156097 4.970746 0
M  V30 27 C -3.460483 -2.316587 6.302803 0
M  V30 28 C -3.711170 -1.241924 7.147716 0
M  V30 29 C -4.004221 -0.026150 6.534249 0
M  V30 30 N -4.037095 0.077520 5.192044 0
M  V30 31 C -4.122660 0.372686 2.314666 0
M  V30 32 C -4.168850 0.535044 0.933000 0
M  V30 33 C -4.277672 0.757002 -1.949239 0
M  V30 34 C -2.982219 1.361830 -2.396833 0
M  V30 35 C 2.446750 -1.112341 -3.671710 0
M  V30 36 C 5.630967 -0.917154 0.638308 0
M  V30 37 C 5.787361 -1.063358 2.002697 0
M  V30 38 C 4.671335 -1.276310 2.787783 0
M  V30 39 O 4.810951 -1.427461 4.179851 0
M  V30 40 H 1.317288 -3.240852 4.150709 0
M  V30 41 H 2.860568 -3.601307 3.332449 0
M  V30 42 H 1.317999 -3.394612 2.356414 0
M  V30 43 H 2.494830 -1.264905 4.173733 0
M  V30 44 H 0.167111 -1.101643 3.373235 0
M  V30 45 H 1.212711 0.290918 3.058086 0
M  V30 46 H 0.759940 -0.840755 1.661520 0
M  V30 47 H 2.342512 -1.246241 0.450303 0
M  V30 48 H 4.261812 -1.882841 -1.540918 0
M  V30 49 H 4.612001 -0.801367 -3.941766 0
M  V30 50 H 3.681788 0.753073 -5.488626 0
M  V30 51 H 3.779311 1.838864 -4.015760 0
M  V30 52 H 1.412419 0.827166 -5.443126 0
M  V30 53 H 1.539181 1.982543 -4.085854 0
M  V30 54 H -0.164174 -0.694281 -4.562474 0
M  V30 55 H -0.001483 -1.464425 -2.918918 0
M  V30 56 H -3.303291 -0.811059 -4.236953 0
M  V30 57 H -1.931571 -1.676119 -3.498717 0
M  V30 58 H -3.198236 -2.399744 -1.753861 0
M  V30 59 H -4.608604 -1.794136 -2.657593 0
M  V30 60 H -3.410377 -2.694120 0.228423 0
M  V30 61 H -3.348727 -2.887902 2.629577 0
M  V30 62 H -3.227540 -3.280998 6.755462 0
M  V30 63 H -3.693144 -1.291513 8.212603 0
M  V30 64 H -4.211986 0.862066 7.136590 0
M  V30 65 H -4.317763 1.213706 2.979240 0
M  V30 66 H -4.400261 1.510231 0.593482 0
M  V30 67 H -4.865977 0.549613 -2.873888 0
M  V30 68 H -4.903913 1.449145 -1.355738 0
M  V30 69 H -2.410303 1.809345 -1.530319 0
M  V30 70 H -3.111742 2.178914 -3.132534 0
M  V30 71 H 2.393771 -1.870135 -2.871745 0
M  V30 72 H 2.328841 -1.514394 -4.681506 0
M  V30 73 H 6.483375 -0.749562 -0.000306 0
M  V30 74 H 6.771271 -1.014005 2.463820 0
M  V30 75 H 5.243089 -0.745735 4.766376 0
M  V30 END ATOM
M  V30 BEGIN BOND
M  V30 1 1 1 2
M  V30 2 1 2 3
M  V30 3 1 2 4
M  V30 4 2 4 5
M  V30 5 1 5 6
M  V30 6 1 6 7
M  V30 7 1 7 8
M  V30 8 2 8 9
M  V30 9 1 8 10
M  V30 10 1 10 11
M  V30 11 1 11 12
M  V30 12 1 12 13
M  V30 13 1 13 14
M  V30 14 1 14 15
M  V30 15 2 15 16
M  V30 16 1 15 17
M  V30 17 1 17 18
M  V30 18 1 18 19
M  V30 19 1 19 20
M  V30 20 1 20 21
M  V30 21 2 21 22
M  V30 22 1 22 23
M  V30 23 2 23 24
M  V30 24 1 24 25
M  V30 25 2 25 26
M  V30 26 1 26 27
M  V30 27 2 27 28
M  V30 28 1 28 29
M  V30 29 2 29 30
M  V30 30 1 24 31
M  V30 31 2 31 32
M  V30 32 1 20 33
M  V30 33 1 33 34
M  V30 34 1 13 35
M  V30 35 2 6 36
M  V30 36 1 36 37
M  V30 37 2 37 38
M  V30 38 1 38 39
M  V30 39 1 38 4
M  V30 40 1 35 10
M  V30 41 1 34 17
M  V30 42 1 32 21
M  V30 43 1 30 25
M  V30 44 1 1 40
M  V30 45 1 1 41
M  V30 46 1 1 42
M  V30 47 1 2 43
M  V30 48 1 3 44
M  V30 49 1 3 45
M  V30 50 1 3 46
M  V30 51 1 5 47
M  V30 52 1 7 48
M  V30 53 1 10 49 CFG=3
M  V30 54 1 11 50
M  V30 55 1 11 51
M  V30 56 1 12 52
M  V30 57 1 12 53
M  V30 58 1 14 54
M  V30 59 1 14 55
M  V30 60 1 18 56
M  V30 61 1 18 57
M  V30 62 1 19 58
M  V30 63 1 19 59
M  V30 64 1 22 60
M  V30 65 1 23 61
M  V30 66 1 27 62
M  V30 67 1 28 63
M  V30 68 1 29 64
M  V30 69 1 31 65
M  V30 70 1 32 66
M  V30 71 1 33 67
M  V30 72 1 33 68
M  V30 73 1 34 69
M  V30 74 1 34 70
M  V30 75 1 35 71
M  V30 76 1 35 72
M  V30 77 1 36 73
M  V30 78 1 37 74
M  V30 79 1 39 75
M  V30 END BOND
M  V30 END CTAB
M  END
>  <Dataset>  (558) 
ChEMBL_Kinases

>  <Ligand_Instance>  (558) 
nan

>  <PDB_ID>  (558) 
nan

>  <Standardized_SMILES>  (558) 
CC(C)c1cc(NC(=O)[C@@H]2CCN(CC(=O)N3CCN(c4ccc(-c5ncccn5)cc4)CC3)C2)ccc1O

>  <Name>  (558) 
nan

>  <Pocket>  (558) 
nan

>  <ATP_Site>  (558) 
nan

>  <Peripheral>  (558) 
nan

>  <Num_H_Atoms_ProtBoundConf>  (558) 
nan

>  <Num_Resolved_Atoms>  (558) 
nan

>  <Num_Not_Resolved_Atoms>  (558) 
nan

$$$$
CHEMBL3398608
     RDKit          3D

  0  0  0  0  0  0  0  0  0  0999 V3000
M  V30 BEGIN CTAB
M  V30 COUNTS 66 70 0 0 0
M  V30 BEGIN ATOM
M  V30 1 O 0.120883 -0.092130 3.306575 0
M  V30 2 C 0.750591 0.998076 3.239708 0
M  V30 3 N 2.057519 0.826787 2.686373 0
M  V30 4 C 2.534999 -0.470725 2.274125 0
M  V30 5 C 3.166109 -1.092740 3.332640 0
M  V30 6 C 3.715257 -2.361782 3.184881 0
M  V30 7 C 3.611236 -2.980197 1.951870 0
M  V30 8 O 4.148198 -4.257516 1.753378 0
M  V30 9 C 2.978787 -2.346244 0.906845 0
M  V30 10 F 2.848424 -2.904045 -0.320853 0
M  V30 11 C 2.430857 -1.086070 1.045156 0
M  V30 12 C 0.390222 2.360329 3.616732 0 CFG=2
M  V30 13 C -1.027355 2.407618 4.204706 0
M  V30 14 C -1.534016 3.790971 3.790063 0
M  V30 15 N -1.035835 3.876787 2.431886 0
M  V30 16 C -1.818653 3.100309 1.521042 0
M  V30 17 C -1.351449 3.169831 0.107775 0
M  V30 18 O -0.353496 3.836431 -0.331792 0
M  V30 19 N -2.110678 2.408831 -0.825084 0
M  V30 20 C -3.290696 1.573373 -0.553423 0
M  V30 21 C -3.319595 0.374053 -1.468644 0
M  V30 22 N -2.033256 -0.034221 -1.911550 0
M  V30 23 C -1.511524 -1.353683 -1.827025 0
M  V30 24 C -2.188454 -2.420062 -1.270872 0
M  V30 25 C -1.700925 -3.708235 -1.179281 0
M  V30 26 C -0.437062 -3.937560 -1.686056 0
M  V30 27 C 0.130247 -5.280865 -1.615836 0
M  V30 28 N 1.359217 -5.512556 -2.105619 0
M  V30 29 C 1.921662 -6.741662 -2.060132 0
M  V30 30 C 1.207501 -7.796294 -1.489938 0
M  V30 31 C -0.056542 -7.549875 -0.988126 0
M  V30 32 N -0.565532 -6.289010 -1.065001 0
M  V30 33 C 0.302070 -2.920407 -2.258110 0
M  V30 34 C -0.256344 -1.658243 -2.312106 0
M  V30 35 C -1.218798 0.998090 -2.485728 0
M  V30 36 C -1.751536 2.390246 -2.252407 0
M  V30 37 C 0.313358 3.378373 2.555586 0
M  V30 38 H 2.763867 1.596194 2.533681 0
M  V30 39 H 3.310621 -0.713250 4.341257 0
M  V30 40 H 4.231368 -2.923393 3.972247 0
M  V30 41 H 3.551950 -4.918023 1.259371 0
M  V30 42 H 1.918206 -0.487127 0.321915 0
M  V30 43 H 1.047575 2.701584 4.468889 0
M  V30 44 H -1.656793 1.606507 3.819966 0
M  V30 45 H -1.035531 2.382273 5.299087 0
M  V30 46 H -1.041113 4.562715 4.401694 0
M  V30 47 H -2.637019 3.826590 3.842823 0
M  V30 48 H -2.879380 3.421500 1.618332 0
M  V30 49 H -1.831356 2.015362 1.769685 0
M  V30 50 H -4.165520 2.229441 -0.739143 0
M  V30 51 H -3.265387 1.313536 0.503859 0
M  V30 52 H -3.963118 -0.410464 -1.036165 0
M  V30 53 H -3.882239 0.718317 -2.385613 0
M  V30 54 H -3.174481 -2.271238 -0.868213 0
M  V30 55 H -2.293705 -4.500211 -0.726240 0
M  V30 56 H 2.900323 -6.980786 -2.436988 0
M  V30 57 H 1.574177 -8.796178 -1.412561 0
M  V30 58 H -0.705870 -8.283091 -0.524099 0
M  V30 59 H 1.287749 -3.150674 -2.641148 0
M  V30 60 H 0.382773 -0.922846 -2.773172 0
M  V30 61 H -1.169292 0.825415 -3.579404 0
M  V30 62 H -0.158062 0.919918 -2.105563 0
M  V30 63 H -2.683918 2.492149 -2.854449 0
M  V30 64 H -0.968304 3.110180 -2.504844 0
M  V30 65 H 0.923535 4.277077 2.867269 0
M  V30 66 H 0.750334 3.088242 1.583005 0
M  V30 END ATOM
M  V30 BEGIN BOND
M  V30 1 2 1 2
M  V30 2 1 2 3
M  V30 3 1 3 4
M  V30 4 2 4 5
M  V30 5 1 5 6
M  V30 6 2 6 7
M  V30 7 1 7 8
M  V30 8 1 7 9
M  V30 9 1 9 10
M  V30 10 2 9 11
M  V30 11 1 2 12
M  V30 12 1 12 13
M  V30 13 1 13 14
M  V30 14 1 14 15
M  V30 15 1 15 16
M  V30 16 1 16 17
M  V30 17 2 17 18
M  V30 18 1 17 19
M  V30 19 1 19 20
M  V30 20 1 20 21
M  V30 21 1 21 22
M  V30 22 1 22 23
M  V30 23 2 23 24
M  V30 24 1 24 25
M  V30 25 2 25 26
M  V30 26 1 26 27
M  V30 27 2 27 28
M  V30 28 1 28 29
M  V30 29 2 29 30
M  V30 30 1 30 31
M  V30 31 2 31 32
M  V30 32 1 26 33
M  V30 33 2 33 34
M  V30 34 1 22 35
M  V30 35 1 35 36
M  V30 36 1 15 37
M  V30 37 1 11 4
M  V30 38 1 37 12
M  V30 39 1 36 19
M  V30 40 1 34 23
M  V30 41 1 32 27
M  V30 42 1 3 38
M  V30 43 1 5 39
M  V30 44 1 6 40
M  V30 45 1 8 41
M  V30 46 1 11 42
M  V30 47 1 12 43 CFG=1
M  V30 48 1 13 44
M  V30 49 1 13 45
M  V30 50 1 14 46
M  V30 51 1 14 47
M  V30 52 1 16 48
M  V30 53 1 16 49
M  V30 54 1 20 50
M  V30 55 1 20 51
M  V30 56 1 21 52
M  V30 57 1 21 53
M  V30 58 1 24 54
M  V30 59 1 25 55
M  V30 60 1 29 56
M  V30 61 1 30 57
M  V30 62 1 31 58
M  V30 63 1 33 59
M  V30 64 1 34 60
M  V30 65 1 35 61
M  V30 66 1 35 62
M  V30 67 1 36 63
M  V30 68 1 36 64
M  V30 69 1 37 65
M  V30 70 1 37 66
M  V30 END BOND
M  V30 END CTAB
M  END
>  <Dataset>  (559) 
ChEMBL_Kinases

>  <Ligand_Instance>  (559) 
nan

>  <PDB_ID>  (559) 
nan

>  <Standardized_SMILES>  (559) 
O=C(Nc1ccc(O)c(F)c1)[C@@H]1CCN(CC(=O)N2CCN(c3ccc(-c4ncccn4)cc3)CC2)C1

>  <Name>  (559) 
nan

>  <Pocket>  (559) 
nan

>  <ATP_Site>  (559) 
nan

>  <Peripheral>  (559) 
nan

>  <Num_H_Atoms_ProtBoundConf>  (559) 
nan

>  <Num_Resolved_Atoms>  (559) 
nan

>  <Num_Not_Resolved_Atoms>  (559) 
nan

$$$$
CHEMBL3398609
     RDKit          3D

  0  0  0  0  0  0  0  0  0  0999 V3000
M  V30 BEGIN CTAB
M  V30 COUNTS 63 66 0 0 0
M  V30 BEGIN ATOM
M  V30 1 C 1.908129 0.572918 8.244800 0
M  V30 2 C 2.209437 1.760934 7.406354 0
M  V30 3 O 2.313012 2.864580 8.037971 0
M  V30 4 C 2.360843 1.587721 5.966162 0
M  V30 5 C 2.231507 0.348324 5.376310 0
M  V30 6 C 2.375822 0.203986 4.014122 0
M  V30 7 C 2.651499 1.256659 3.169022 0
M  V30 8 N 2.807261 1.146943 1.760555 0
M  V30 9 C 3.011669 2.248733 0.844195 0
M  V30 10 C 2.225606 2.060746 -0.439363 0
M  V30 11 N 1.139336 1.148299 -0.240327 0
M  V30 12 C -0.251889 1.342589 -0.327373 0
M  V30 13 O 0.257303 2.460230 -0.593196 0
M  V30 14 C -1.697254 1.570005 -0.424230 0
M  V30 15 N -2.452349 0.353169 -0.144650 0
M  V30 16 C -3.847013 0.636017 -0.252577 0
M  V30 17 C -4.435423 -0.346133 -1.261738 0
M  V30 18 C -3.442329 -1.474573 -1.211495 0 CFG=1
M  V30 19 C -3.457506 -2.305341 -2.425162 0
M  V30 20 O -4.141806 -2.238265 -3.473061 0
M  V30 21 N -2.506341 -3.350442 -2.330404 0
M  V30 22 C -2.235230 -4.348136 -3.304847 0
M  V30 23 C -2.992372 -5.501398 -3.184977 0
M  V30 24 C -2.819325 -6.550767 -4.077164 0
M  V30 25 C -1.878804 -6.385827 -5.061160 0
M  V30 26 O -1.652550 -7.388154 -5.984182 0
M  V30 27 C -1.115729 -5.241450 -5.193994 0
M  V30 28 C -1.292747 -4.203188 -4.304506 0
M  V30 29 C -2.135318 -0.697109 -1.066897 0
M  V30 30 C 1.581535 -0.197366 0.116752 0
M  V30 31 C 2.787544 -0.071243 1.016541 0
M  V30 32 C 2.774816 2.480977 3.790329 0
M  V30 33 C 2.639724 2.677305 5.146530 0
M  V30 34 H 2.572662 -0.283214 7.934035 0
M  V30 35 H 2.163639 0.733189 9.312073 0
M  V30 36 H 0.872264 0.205025 8.100589 0
M  V30 37 H 2.015521 -0.515037 5.984391 0
M  V30 38 H 2.263033 -0.782958 3.613293 0
M  V30 39 H 4.090368 2.402177 0.661576 0
M  V30 40 H 2.621679 3.174764 1.307521 0
M  V30 41 H 2.952608 1.537797 -1.135041 0
M  V30 42 H 1.979421 3.010889 -0.937552 0
M  V30 43 H -1.980136 2.350000 0.335736 0
M  V30 44 H -2.016016 1.959003 -1.411557 0
M  V30 45 H -4.064192 1.701392 -0.548799 0
M  V30 46 H -4.386515 0.431122 0.713166 0
M  V30 47 H -4.400484 0.055201 -2.302858 0
M  V30 48 H -5.452627 -0.649534 -0.998345 0
M  V30 49 H -3.556898 -2.114612 -0.326461 0
M  V30 50 H -1.840253 -3.574087 -1.534993 0
M  V30 51 H -3.748456 -5.676391 -2.422387 0
M  V30 52 H -3.402190 -7.471048 -4.005796 0
M  V30 53 H -1.957713 -8.334776 -5.821343 0
M  V30 54 H -0.361879 -5.084277 -5.966273 0
M  V30 55 H -0.734703 -3.258015 -4.330595 0
M  V30 56 H -1.835796 -0.245314 -2.037346 0
M  V30 57 H -1.350698 -1.349766 -0.632384 0
M  V30 58 H 1.873040 -0.797320 -0.772046 0
M  V30 59 H 0.785197 -0.743692 0.658884 0
M  V30 60 H 2.894533 -0.924917 1.709731 0
M  V30 61 H 3.705245 -0.140737 0.358899 0
M  V30 62 H 2.989691 3.402876 3.276783 0
M  V30 63 H 2.733130 3.628946 5.649053 0
M  V30 END ATOM
M  V30 BEGIN BOND
M  V30 1 1 1 2
M  V30 2 2 2 3
M  V30 3 1 2 4
M  V30 4 2 4 5
M  V30 5 1 5 6
M  V30 6 2 6 7
M  V30 7 1 7 8
M  V30 8 1 8 9
M  V30 9 1 9 10
M  V30 10 1 10 11
M  V30 11 1 11 12
M  V30 12 2 12 13
M  V30 13 1 12 14
M  V30 14 1 14 15
M  V30 15 1 15 16
M  V30 16 1 16 17
M  V30 17 1 17 18
M  V30 18 1 18 19
M  V30 19 2 19 20
M  V30 20 1 19 21
M  V30 21 1 21 22
M  V30 22 2 22 23
M  V30 23 1 23 24
M  V30 24 2 24 25
M  V30 25 1 25 26
M  V30 26 1 25 27
M  V30 27 2 27 28
M  V30 28 1 18 29
M  V30 29 1 11 30
M  V30 30 1 30 31
M  V30 31 1 7 32
M  V30 32 2 32 33
M  V30 33 1 33 4
M  V30 34 1 31 8
M  V30 35 1 29 15
M  V30 36 1 28 22
M  V30 37 1 1 34
M  V30 38 1 1 35
M  V30 39 1 1 36
M  V30 40 1 5 37
M  V30 41 1 6 38
M  V30 42 1 9 39
M  V30 43 1 9 40
M  V30 44 1 10 41
M  V30 45 1 10 42
M  V30 46 1 14 43
M  V30 47 1 14 44
M  V30 48 1 16 45
M  V30 49 1 16 46
M  V30 50 1 17 47
M  V30 51 1 17 48
M  V30 52 1 18 49 CFG=1
M  V30 53 1 21 50
M  V30 54 1 23 51
M  V30 55 1 24 52
M  V30 56 1 26 53
M  V30 57 1 27 54
M  V30 58 1 28 55
M  V30 59 1 29 56
M  V30 60 1 29 57
M  V30 61 1 30 58
M  V30 62 1 30 59
M  V30 63 1 31 60
M  V30 64 1 31 61
M  V30 65 1 32 62
M  V30 66 1 33 63
M  V30 END BOND
M  V30 END CTAB
M  END
>  <Dataset>  (560) 
ChEMBL_Kinases

>  <Ligand_Instance>  (560) 
nan

>  <PDB_ID>  (560) 
nan

>  <Standardized_SMILES>  (560) 
CC(=O)c1ccc(N2CCN(C(=O)CN3CC[C@@H](C(=O)Nc4ccc(O)cc4)C3)CC2)cc1

>  <Name>  (560) 
nan

>  <Pocket>  (560) 
nan

>  <ATP_Site>  (560) 
nan

>  <Peripheral>  (560) 
nan

>  <Num_H_Atoms_ProtBoundConf>  (560) 
nan

>  <Num_Resolved_Atoms>  (560) 
nan

>  <Num_Not_Resolved_Atoms>  (560) 
nan

$$$$
CHEMBL3400173
     RDKit          3D

  0  0  0  0  0  0  0  0  0  0999 V3000
M  V30 BEGIN CTAB
M  V30 COUNTS 53 57 0 0 0
M  V30 BEGIN ATOM
M  V30 1 C 6.153556 -3.930660 5.537678 0
M  V30 2 C 5.130439 -3.218463 4.706685 0
M  V30 3 O 5.708342 -2.493038 3.638655 0
M  V30 4 C 4.900775 -1.778609 2.775148 0
M  V30 5 C 5.355428 -1.035904 1.700453 0
M  V30 6 C 4.587272 -0.315808 0.823822 0
M  V30 7 C 3.218037 -0.303723 0.994627 0
M  V30 8 N 2.338929 0.326529 0.255460 0
M  V30 9 C 1.175921 0.347898 0.385214 0
M  V30 10 N 0.067625 0.940293 -0.271251 0
M  V30 11 C 0.169600 1.752737 -1.393687 0
M  V30 12 O 1.233923 2.069438 -1.973911 0
M  V30 13 C -1.215525 2.100245 -1.674844 0
M  V30 14 O -1.555303 2.913061 -2.736149 0
M  V30 15 C -2.068836 1.564416 -0.825219 0
M  V30 16 C -3.498114 1.576581 -0.642653 0
M  V30 17 O -3.981340 0.909950 0.334427 0
M  V30 18 C -4.559792 2.226252 -1.381346 0
M  V30 19 C -4.869467 3.055572 -2.470256 0
M  V30 20 C -6.153783 3.372681 -2.724051 0
M  V30 21 C -7.236634 2.865746 -1.881038 0
M  V30 22 S -6.232240 1.834511 -0.613396 0
M  V30 23 C -1.273846 0.766863 0.149127 0
M  V30 24 C -1.687513 -0.671571 0.171627 0
M  V30 25 C -1.304239 -1.326350 -0.989213 0
M  V30 26 C -1.585687 -2.669738 -1.177926 0
M  V30 27 C -2.254497 -3.362463 -0.199781 0
M  V30 28 C -2.569498 -4.806860 -0.377549 0
M  V30 29 C -2.635229 -2.702632 0.958812 0
M  V30 30 C -2.359456 -1.367215 1.154771 0
M  V30 31 S 0.980726 -0.754076 1.914293 0
M  V30 32 C 2.755431 -1.038154 2.059137 0
M  V30 33 C 3.534903 -1.779764 2.963551 0
M  V30 34 H 6.428476 -3.409558 6.464470 0
M  V30 35 H 7.074784 -4.058175 4.916511 0
M  V30 36 H 5.729487 -4.915108 5.840952 0
M  V30 37 H 4.542811 -2.555297 5.407581 0
M  V30 38 H 4.345443 -3.939143 4.334915 0
M  V30 39 H 6.455762 -1.068260 1.594046 0
M  V30 40 H 5.151331 0.204339 0.037578 0
M  V30 41 H -1.499765 3.932670 -2.691726 0
M  V30 42 H -4.059589 3.402254 -3.056467 0
M  V30 43 H -6.468520 3.999194 -3.535587 0
M  V30 44 H -8.235570 3.017566 -1.948999 0
M  V30 45 H -1.381995 1.185461 1.185040 0
M  V30 46 H -0.775628 -0.889450 -1.825615 0
M  V30 47 H -1.311970 -3.229474 -2.059477 0
M  V30 48 H -3.068719 -5.181637 0.546887 0
M  V30 49 H -1.637098 -5.380003 -0.574906 0
M  V30 50 H -3.221696 -4.930168 -1.273789 0
M  V30 51 H -3.164471 -3.203213 1.760023 0
M  V30 52 H -2.605962 -0.762849 2.010452 0
M  V30 53 H 3.019046 -2.300876 3.744499 0
M  V30 END ATOM
M  V30 BEGIN BOND
M  V30 1 1 1 2
M  V30 2 1 2 3
M  V30 3 1 3 4
M  V30 4 2 4 5
M  V30 5 1 5 6
M  V30 6 2 6 7
M  V30 7 1 7 8
M  V30 8 2 8 9
M  V30 9 1 9 10
M  V30 10 1 10 11
M  V30 11 2 11 12
M  V30 12 1 11 13
M  V30 13 1 13 14
M  V30 14 2 13 15
M  V30 15 1 15 16
M  V30 16 2 16 17
M  V30 17 1 16 18
M  V30 18 2 18 19
M  V30 19 1 19 20
M  V30 20 2 20 21
M  V30 21 1 21 22
M  V30 22 1 15 23
M  V30 23 1 23 24
M  V30 24 2 24 25
M  V30 25 1 25 26
M  V30 26 2 26 27
M  V30 27 1 27 28
M  V30 28 1 27 29
M  V30 29 2 29 30
M  V30 30 1 9 31
M  V30 31 1 31 32
M  V30 32 2 32 33
M  V30 33 1 33 4
M  V30 34 1 32 7
M  V30 35 1 23 10
M  V30 36 1 30 24
M  V30 37 1 22 18
M  V30 38 1 1 34
M  V30 39 1 1 35
M  V30 40 1 1 36
M  V30 41 1 2 37
M  V30 42 1 2 38
M  V30 43 1 5 39
M  V30 44 1 6 40
M  V30 45 1 14 41
M  V30 46 1 19 42
M  V30 47 1 20 43
M  V30 48 1 21 44
M  V30 49 1 23 45
M  V30 50 1 25 46
M  V30 51 1 26 47
M  V30 52 1 28 48
M  V30 53 1 28 49
M  V30 54 1 28 50
M  V30 55 1 29 51
M  V30 56 1 30 52
M  V30 57 1 33 53
M  V30 END BOND
M  V30 END CTAB
M  END
>  <Dataset>  (561) 
ChEMBL_Kinases

>  <Ligand_Instance>  (561) 
nan

>  <PDB_ID>  (561) 
nan

>  <Standardized_SMILES>  (561) 
CCOc1ccc2nc(N3C(=O)C(O)=C(C(=O)c4cccs4)C3c3ccc(C)cc3)sc2c1

>  <Name>  (561) 
nan

>  <Pocket>  (561) 
nan

>  <ATP_Site>  (561) 
nan

>  <Peripheral>  (561) 
nan

>  <Num_H_Atoms_ProtBoundConf>  (561) 
nan

>  <Num_Resolved_Atoms>  (561) 
nan

>  <Num_Not_Resolved_Atoms>  (561) 
nan

$$$$
CHEMBL3398602
     RDKit          3D

  0  0  0  0  0  0  0  0  0  0999 V3000
M  V30 BEGIN CTAB
M  V30 COUNTS 70 74 0 0 0
M  V30 BEGIN ATOM
M  V30 1 C 5.748820 -4.976446 4.409093 0
M  V30 2 O 4.675330 -5.082524 3.480877 0
M  V30 3 C 4.285323 -3.904162 2.845064 0
M  V30 4 N 4.869194 -2.694473 3.067385 0
M  V30 5 C 4.440645 -1.598206 2.417860 0
M  V30 6 C 3.421057 -1.636883 1.521077 0
M  V30 7 C 2.948617 -0.456347 0.808646 0
M  V30 8 C 3.006642 0.772666 1.404101 0
M  V30 9 C 2.572189 1.920420 0.776720 0
M  V30 10 C 2.051384 1.895649 -0.494355 0
M  V30 11 N 1.584655 3.021899 -1.209826 0
M  V30 12 C 0.985481 3.054843 -2.531460 0
M  V30 13 C -0.459187 3.478412 -2.310611 0
M  V30 14 N -0.718023 3.753021 -0.887526 0
M  V30 15 C -1.586616 3.212682 0.128365 0
M  V30 16 O -1.482788 3.812539 1.262924 0
M  V30 17 C -2.593451 2.201160 0.399428 0
M  V30 18 N -2.909387 1.334783 -0.687659 0
M  V30 19 C -1.910167 0.393207 -1.069034 0
M  V30 20 C -2.675111 -0.435933 -2.111025 0
M  V30 21 C -3.984129 -0.658113 -1.353147 0 CFG=1
M  V30 22 C -3.799966 -1.890061 -0.567525 0
M  V30 23 O -2.650729 -2.430343 -0.731429 0
M  V30 24 N -4.684955 -2.550478 0.321500 0
M  V30 25 C -4.008383 -3.713353 0.822679 0
M  V30 26 C -3.219190 -3.732308 1.959730 0
M  V30 27 C -2.617419 -4.925887 2.337983 0
M  V30 28 C -2.821754 -6.054634 1.573491 0
M  V30 29 O -2.217809 -7.257276 1.951662 0
M  V30 30 C -3.612296 -6.059372 0.424011 0
M  V30 31 Cl -3.864074 -7.500521 -0.539932 0
M  V30 32 C -4.215948 -4.854671 0.047699 0
M  V30 33 C -4.134985 0.600332 -0.561160 0
M  V30 34 C 0.192740 4.841189 -0.548372 0
M  V30 35 C 1.624385 4.387598 -0.725591 0
M  V30 36 C 1.989743 0.660917 -1.101472 0
M  V30 37 C 2.427948 -0.494977 -0.467574 0
M  V30 38 C 2.844793 -2.888857 1.315761 0
M  V30 39 N 3.270564 -3.982437 1.962206 0
M  V30 40 H 6.544392 -4.325752 3.991993 0
M  V30 41 H 5.412090 -4.530907 5.373219 0
M  V30 42 H 6.163245 -5.993725 4.590188 0
M  V30 43 H 4.943249 -0.647523 2.631850 0
M  V30 44 H 3.404859 0.876227 2.406042 0
M  V30 45 H 2.641886 2.863950 1.296034 0
M  V30 46 H 1.053059 2.100316 -3.080857 0
M  V30 47 H 1.517435 3.789982 -3.183826 0
M  V30 48 H -1.190899 2.755254 -2.728703 0
M  V30 49 H -0.600119 4.441443 -2.843493 0
M  V30 50 H -2.345107 1.554436 1.274925 0
M  V30 51 H -3.566985 2.704170 0.681642 0
M  V30 52 H -0.977397 0.785754 -1.455676 0
M  V30 53 H -1.745037 -0.340800 -0.223794 0
M  V30 54 H -2.154506 -1.360904 -2.355605 0
M  V30 55 H -2.881036 0.243374 -2.945139 0
M  V30 56 H -4.801524 -0.809506 -2.083391 0
M  V30 57 H -5.601833 -2.064016 0.413464 0
M  V30 58 H -3.107052 -2.806239 2.506507 0
M  V30 59 H -1.991930 -4.947030 3.236200 0
M  V30 60 H -1.398644 -7.583372 1.425692 0
M  V30 61 H -4.821887 -4.864114 -0.835146 0
M  V30 62 H -4.459618 0.455788 0.484879 0
M  V30 63 H -4.937086 1.207537 -1.041542 0
M  V30 64 H -0.028630 5.749170 -1.150462 0
M  V30 65 H 0.065540 5.038211 0.534934 0
M  V30 66 H 2.220116 4.503398 0.201175 0
M  V30 67 H 2.106257 5.070948 -1.468832 0
M  V30 68 H 1.619870 0.443912 -2.079349 0
M  V30 69 H 2.396149 -1.494322 -0.916831 0
M  V30 70 H 2.029770 -3.013038 0.621837 0
M  V30 END ATOM
M  V30 BEGIN BOND
M  V30 1 1 1 2
M  V30 2 1 2 3
M  V30 3 2 3 4
M  V30 4 1 4 5
M  V30 5 2 5 6
M  V30 6 1 6 7
M  V30 7 2 7 8
M  V30 8 1 8 9
M  V30 9 2 9 10
M  V30 10 1 10 11
M  V30 11 1 11 12
M  V30 12 1 12 13
M  V30 13 1 13 14
M  V30 14 1 14 15
M  V30 15 2 15 16
M  V30 16 1 15 17
M  V30 17 1 17 18
M  V30 18 1 18 19
M  V30 19 1 19 20
M  V30 20 1 20 21
M  V30 21 1 21 22
M  V30 22 2 22 23
M  V30 23 1 22 24
M  V30 24 1 24 25
M  V30 25 2 25 26
M  V30 26 1 26 27
M  V30 27 2 27 28
M  V30 28 1 28 29
M  V30 29 1 28 30
M  V30 30 1 30 31
M  V30 31 2 30 32
M  V30 32 1 21 33
M  V30 33 1 14 34
M  V30 34 1 34 35
M  V30 35 1 10 36
M  V30 36 2 36 37
M  V30 37 1 6 38
M  V30 38 2 38 39
M  V30 39 1 39 3
M  V30 40 1 37 7
M  V30 41 1 35 11
M  V30 42 1 33 18
M  V30 43 1 32 25
M  V30 44 1 1 40
M  V30 45 1 1 41
M  V30 46 1 1 42
M  V30 47 1 5 43
M  V30 48 1 8 44
M  V30 49 1 9 45
M  V30 50 1 12 46
M  V30 51 1 12 47
M  V30 52 1 13 48
M  V30 53 1 13 49
M  V30 54 1 17 50
M  V30 55 1 17 51
M  V30 56 1 19 52
M  V30 57 1 19 53
M  V30 58 1 20 54
M  V30 59 1 20 55
M  V30 60 1 21 56 CFG=3
M  V30 61 1 24 57
M  V30 62 1 26 58
M  V30 63 1 27 59
M  V30 64 1 29 60
M  V30 65 1 32 61
M  V30 66 1 33 62
M  V30 67 1 33 63
M  V30 68 1 34 64
M  V30 69 1 34 65
M  V30 70 1 35 66
M  V30 71 1 35 67
M  V30 72 1 36 68
M  V30 73 1 37 69
M  V30 74 1 38 70
M  V30 END BOND
M  V30 END CTAB
M  END
>  <Dataset>  (562) 
ChEMBL_Kinases

>  <Ligand_Instance>  (562) 
nan

>  <PDB_ID>  (562) 
nan

>  <Standardized_SMILES>  (562) 
COc1ncc(-c2ccc(N3CCN(C(=O)CN4CC[C@@H](C(=O)Nc5ccc(O)c(Cl)c5)C4)CC3)cc2)cn1

>  <Name>  (562) 
nan

>  <Pocket>  (562) 
nan

>  <ATP_Site>  (562) 
nan

>  <Peripheral>  (562) 
nan

>  <Num_H_Atoms_ProtBoundConf>  (562) 
nan

>  <Num_Resolved_Atoms>  (562) 
nan

>  <Num_Not_Resolved_Atoms>  (562) 
nan

$$$$
CHEMBL3393305
     RDKit          3D

  0  0  0  0  0  0  0  0  0  0999 V3000
M  V30 BEGIN CTAB
M  V30 COUNTS 55 57 0 0 0
M  V30 BEGIN ATOM
M  V30 1 C 0.656146 -3.897490 2.543336 0
M  V30 2 C 0.871499 -3.043688 1.306614 0
M  V30 3 C -0.171177 -3.241351 0.267567 0
M  V30 4 C -1.546720 -2.937375 0.659060 0
M  V30 5 C -1.990227 -1.620485 0.763549 0
M  V30 6 C -1.344552 -0.329743 0.554979 0
M  V30 7 O -1.337669 0.415715 1.563554 0
M  V30 8 N -0.749398 0.125557 -0.651513 0
M  V30 9 C -0.122013 1.327911 -0.923148 0
M  V30 10 C 0.068809 2.371549 -0.085196 0
M  V30 11 C 0.710706 3.558110 -0.415096 0
M  V30 12 S 0.903814 4.843628 0.742713 0
M  V30 13 O -0.282673 4.728173 1.690916 0
M  V30 14 O 0.782429 6.138294 0.039556 0
M  V30 15 N 2.309929 4.778727 1.665592 0
M  V30 16 C 3.546863 4.857545 0.974098 0
M  V30 17 C 2.289052 3.952722 2.821442 0
M  V30 18 C 1.204741 3.721411 -1.686857 0
M  V30 19 C 1.024719 2.673971 -2.563361 0
M  V30 20 C 0.381352 1.511172 -2.195437 0
M  V30 21 C 0.235039 0.424621 -3.223987 0
M  V30 22 C -3.333845 -1.693093 1.151701 0
M  V30 23 N -3.659208 -2.997174 1.268641 0
M  V30 24 N -2.594243 -3.752174 0.975432 0
M  V30 25 C -2.492052 -5.176118 0.971317 0
M  V30 26 C -2.426025 -5.902747 2.168575 0
M  V30 27 C -2.328487 -7.282257 2.123001 0
M  V30 28 C -2.295882 -7.943811 0.902164 0
M  V30 29 N -2.359955 -7.233705 -0.240363 0
M  V30 30 C -2.456691 -5.874317 -0.241742 0
M  V30 31 H 1.615515 -4.041165 3.095063 0
M  V30 32 H -0.012833 -3.379232 3.262055 0
M  V30 33 H 0.294217 -4.896878 2.304991 0
M  V30 34 H 1.829452 -3.410878 0.863791 0
M  V30 35 H 1.044250 -1.985748 1.567540 0
M  V30 36 H 0.118840 -2.698171 -0.640508 0
M  V30 37 H -0.144161 -4.337817 -0.000952 0
M  V30 38 H -0.852014 -0.627636 -1.380010 0
M  V30 39 H -0.285709 2.325517 0.923503 0
M  V30 40 H 4.018323 5.838455 1.229476 0
M  V30 41 H 4.241265 4.084142 1.325540 0
M  V30 42 H 3.442927 4.885888 -0.139823 0
M  V30 43 H 1.297349 3.720804 3.208019 0
M  V30 44 H 2.831526 4.514388 3.632300 0
M  V30 45 H 2.896630 3.022655 2.641510 0
M  V30 46 H 1.698738 4.631102 -1.945030 0
M  V30 47 H 1.394274 2.749834 -3.576007 0
M  V30 48 H 0.872323 -0.449912 -2.996132 0
M  V30 49 H 0.527779 0.791270 -4.208272 0
M  V30 50 H -0.852701 0.157551 -3.289604 0
M  V30 51 H -4.061757 -0.897587 1.347122 0
M  V30 52 H -2.453560 -5.355915 3.121429 0
M  V30 53 H -2.280705 -7.797118 3.080600 0
M  V30 54 H -2.219078 -9.022414 0.887809 0
M  V30 55 H -2.510088 -5.265649 -1.134273 0
M  V30 END ATOM
M  V30 BEGIN BOND
M  V30 1 1 1 2
M  V30 2 1 2 3
M  V30 3 1 3 4
M  V30 4 2 4 5
M  V30 5 1 5 6
M  V30 6 2 6 7
M  V30 7 1 6 8
M  V30 8 1 8 9
M  V30 9 2 9 10
M  V30 10 1 10 11
M  V30 11 1 11 12
M  V30 12 2 12 13
M  V30 13 2 12 14
M  V30 14 1 12 15
M  V30 15 1 15 16
M  V30 16 1 15 17
M  V30 17 2 11 18
M  V30 18 1 18 19
M  V30 19 2 19 20
M  V30 20 1 20 21
M  V30 21 1 5 22
M  V30 22 2 22 23
M  V30 23 1 23 24
M  V30 24 1 24 25
M  V30 25 2 25 26
M  V30 26 1 26 27
M  V30 27 2 27 28
M  V30 28 1 28 29
M  V30 29 2 29 30
M  V30 30 1 24 4
M  V30 31 1 30 25
M  V30 32 1 20 9
M  V30 33 1 1 31
M  V30 34 1 1 32
M  V30 35 1 1 33
M  V30 36 1 2 34
M  V30 37 1 2 35
M  V30 38 1 3 36
M  V30 39 1 3 37
M  V30 40 1 8 38
M  V30 41 1 10 39
M  V30 42 1 16 40
M  V30 43 1 16 41
M  V30 44 1 16 42
M  V30 45 1 17 43
M  V30 46 1 17 44
M  V30 47 1 17 45
M  V30 48 1 18 46
M  V30 49 1 19 47
M  V30 50 1 21 48
M  V30 51 1 21 49
M  V30 52 1 21 50
M  V30 53 1 22 51
M  V30 54 1 26 52
M  V30 55 1 27 53
M  V30 56 1 28 54
M  V30 57 1 30 55
M  V30 END BOND
M  V30 END CTAB
M  END
>  <Dataset>  (563) 
ChEMBL_Kinases

>  <Ligand_Instance>  (563) 
nan

>  <PDB_ID>  (563) 
nan

>  <Standardized_SMILES>  (563) 
CCCc1c(C(=O)Nc2cc(S(=O)(=O)N(C)C)ccc2C)cnn1-c1cccnc1

>  <Name>  (563) 
nan

>  <Pocket>  (563) 
nan

>  <ATP_Site>  (563) 
nan

>  <Peripheral>  (563) 
nan

>  <Num_H_Atoms_ProtBoundConf>  (563) 
nan

>  <Num_Resolved_Atoms>  (563) 
nan

>  <Num_Not_Resolved_Atoms>  (563) 
nan

$$$$
CHEMBL3393304
     RDKit          3D

  0  0  0  0  0  0  0  0  0  0999 V3000
M  V30 BEGIN CTAB
M  V30 COUNTS 56 58 0 0 0
M  V30 BEGIN ATOM
M  V30 1 C -0.613316 -2.897589 3.513624 0
M  V30 2 C 0.364555 -3.076125 2.369302 0
M  V30 3 C -0.429051 -3.115012 1.098266 0
M  V30 4 C 0.356357 -3.303045 -0.109435 0
M  V30 5 C 1.084686 -2.341545 -0.746369 0
M  V30 6 C 1.283299 -0.895542 -0.499723 0
M  V30 7 O 2.258831 -0.290189 -0.007635 0
M  V30 8 N 0.180702 -0.058680 -0.893766 0
M  V30 9 C 0.018491 1.351730 -0.819442 0
M  V30 10 C 0.906610 2.248250 -0.323107 0
M  V30 11 C 0.694260 3.605988 -0.297481 0
M  V30 12 S 1.777325 4.826521 0.324161 0
M  V30 13 O 1.578380 6.103934 -0.472696 0
M  V30 14 O 3.229867 4.424497 0.182470 0
M  V30 15 N 1.429582 5.242094 1.964988 0
M  V30 16 C 1.581826 4.101983 2.847064 0
M  V30 17 C 0.015935 5.641682 1.996551 0
M  V30 18 C -0.489263 4.083167 -0.806003 0
M  V30 19 C -1.414128 3.226776 -1.316205 0
M  V30 20 C -1.172226 1.871108 -1.327730 0
M  V30 21 C -2.239755 0.980855 -1.910575 0
M  V30 22 C 1.692054 -2.961197 -1.843886 0
M  V30 23 N 1.314221 -4.264504 -1.836685 0
M  V30 24 N 0.511406 -4.479483 -0.796860 0
M  V30 25 C -0.163386 -5.668774 -0.336763 0
M  V30 26 C 0.297018 -6.726460 0.422872 0
M  V30 27 C -0.598462 -7.705595 0.711979 0
M  V30 28 C -1.918212 -7.780707 0.342823 0
M  V30 29 Cl -2.899909 -9.138451 0.835400 0
M  V30 30 C -2.360231 -6.700750 -0.424775 0
M  V30 31 C -1.494591 -5.661721 -0.757809 0
M  V30 32 H -1.667697 -2.787210 3.175024 0
M  V30 33 H -0.640156 -3.787351 4.199365 0
M  V30 34 H -0.405407 -1.989122 4.105585 0
M  V30 35 H 0.866318 -4.063908 2.561943 0
M  V30 36 H 1.130352 -2.315123 2.448072 0
M  V30 37 H -1.161279 -3.942170 1.186260 0
M  V30 38 H -1.063905 -2.196167 0.973984 0
M  V30 39 H -0.622557 -0.607018 -1.298788 0
M  V30 40 H 1.832351 1.923004 0.074764 0
M  V30 41 H 1.658710 4.422355 3.912817 0
M  V30 42 H 2.536387 3.605226 2.541979 0
M  V30 43 H 0.723076 3.390123 2.774341 0
M  V30 44 H -0.142636 6.349577 1.135637 0
M  V30 45 H -0.258333 6.137842 2.944772 0
M  V30 46 H -0.590411 4.737581 1.813617 0
M  V30 47 H -0.760079 5.151637 -0.834404 0
M  V30 48 H -2.347432 3.596775 -1.716111 0
M  V30 49 H -2.495761 0.165261 -1.193269 0
M  V30 50 H -3.097508 1.596319 -2.173229 0
M  V30 51 H -1.776895 0.534016 -2.835688 0
M  V30 52 H 2.354199 -2.636619 -2.647409 0
M  V30 53 H 1.333482 -6.611882 0.679220 0
M  V30 54 H -0.200287 -8.520181 1.313385 0
M  V30 55 H -3.395173 -6.717948 -0.741170 0
M  V30 56 H -1.968728 -4.884096 -1.360408 0
M  V30 END ATOM
M  V30 BEGIN BOND
M  V30 1 1 1 2
M  V30 2 1 2 3
M  V30 3 1 3 4
M  V30 4 2 4 5
M  V30 5 1 5 6
M  V30 6 2 6 7
M  V30 7 1 6 8
M  V30 8 1 8 9
M  V30 9 2 9 10
M  V30 10 1 10 11
M  V30 11 1 11 12
M  V30 12 2 12 13
M  V30 13 2 12 14
M  V30 14 1 12 15
M  V30 15 1 15 16
M  V30 16 1 15 17
M  V30 17 2 11 18
M  V30 18 1 18 19
M  V30 19 2 19 20
M  V30 20 1 20 21
M  V30 21 1 5 22
M  V30 22 2 22 23
M  V30 23 1 23 24
M  V30 24 1 24 25
M  V30 25 2 25 26
M  V30 26 1 26 27
M  V30 27 2 27 28
M  V30 28 1 28 29
M  V30 29 1 28 30
M  V30 30 2 30 31
M  V30 31 1 24 4
M  V30 32 1 31 25
M  V30 33 1 20 9
M  V30 34 1 1 32
M  V30 35 1 1 33
M  V30 36 1 1 34
M  V30 37 1 2 35
M  V30 38 1 2 36
M  V30 39 1 3 37
M  V30 40 1 3 38
M  V30 41 1 8 39
M  V30 42 1 10 40
M  V30 43 1 16 41
M  V30 44 1 16 42
M  V30 45 1 16 43
M  V30 46 1 17 44
M  V30 47 1 17 45
M  V30 48 1 17 46
M  V30 49 1 18 47
M  V30 50 1 19 48
M  V30 51 1 21 49
M  V30 52 1 21 50
M  V30 53 1 21 51
M  V30 54 1 22 52
M  V30 55 1 26 53
M  V30 56 1 27 54
M  V30 57 1 30 55
M  V30 58 1 31 56
M  V30 END BOND
M  V30 END CTAB
M  END
>  <Dataset>  (564) 
ChEMBL_Kinases

>  <Ligand_Instance>  (564) 
nan

>  <PDB_ID>  (564) 
nan

>  <Standardized_SMILES>  (564) 
CCCc1c(C(=O)Nc2cc(S(=O)(=O)N(C)C)ccc2C)cnn1-c1ccc(Cl)cc1

>  <Name>  (564) 
nan

>  <Pocket>  (564) 
nan

>  <ATP_Site>  (564) 
nan

>  <Peripheral>  (564) 
nan

>  <Num_H_Atoms_ProtBoundConf>  (564) 
nan

>  <Num_Resolved_Atoms>  (564) 
nan

>  <Num_Not_Resolved_Atoms>  (564) 
nan

$$$$
CHEMBL3393303
     RDKit          3D

  0  0  0  0  0  0  0  0  0  0999 V3000
M  V30 BEGIN CTAB
M  V30 COUNTS 48 50 0 0 0
M  V30 BEGIN ATOM
M  V30 1 C -1.580520 -3.011095 2.665761 0
M  V30 2 C -0.255604 -2.741704 2.003314 0
M  V30 3 C -0.388476 -2.504676 0.524324 0
M  V30 4 C -1.232158 -1.367319 0.158844 0
M  V30 5 C -0.713806 -0.099080 0.309230 0
M  V30 6 C 0.527299 0.521846 0.760385 0
M  V30 7 O 0.678749 0.831172 1.988322 0
M  V30 8 N 1.622332 0.817256 -0.108281 0
M  V30 9 C 2.681424 1.424266 0.659960 0
M  V30 10 C 2.511582 2.813625 0.666691 0
M  V30 11 C 3.436260 3.597316 1.359541 0
M  V30 12 C 3.405111 5.051671 1.465235 0
M  V30 13 O 4.249984 5.737454 2.096336 0
M  V30 14 O 2.342385 5.682658 0.801785 0
M  V30 15 C 4.483573 2.969527 2.011703 0
M  V30 16 C 4.630793 1.593812 1.990923 0
M  V30 17 C 3.729677 0.832490 1.315989 0
M  V30 18 C 3.745601 -0.643350 1.197823 0
M  V30 19 C -1.705281 0.798481 -0.104007 0
M  V30 20 N -2.772791 0.080942 -0.485256 0
M  V30 21 N -2.476290 -1.193318 -0.323715 0
M  V30 22 C -3.290105 -2.325923 -0.592834 0
M  V30 23 C -3.188745 -3.003210 -1.788365 0
M  V30 24 C -3.999555 -4.113973 -2.029292 0
M  V30 25 C -4.874251 -4.469970 -1.024385 0
M  V30 26 C -4.992637 -3.797109 0.194252 0
M  V30 27 C -4.175690 -2.692795 0.415042 0
M  V30 28 H -1.350089 -3.366615 3.709632 0
M  V30 29 H -2.057212 -3.872049 2.152986 0
M  V30 30 H -2.249689 -2.127365 2.691225 0
M  V30 31 H 0.362605 -2.010930 2.528775 0
M  V30 32 H 0.313655 -3.714127 2.088224 0
M  V30 33 H -0.887002 -3.419563 0.116874 0
M  V30 34 H 0.622801 -2.512164 0.071580 0
M  V30 35 H 1.514340 0.566518 -1.130911 0
M  V30 36 H 1.733610 3.384991 0.190914 0
M  V30 37 H 2.056161 6.631380 1.053120 0
M  V30 38 H 5.231761 3.549688 2.566660 0
M  V30 39 H 5.431544 1.070562 2.485551 0
M  V30 40 H 3.389751 -0.988189 0.207737 0
M  V30 41 H 4.795979 -1.003320 1.303234 0
M  V30 42 H 3.055873 -1.085895 1.957607 0
M  V30 43 H -1.777128 1.883751 -0.172715 0
M  V30 44 H -2.471171 -2.663235 -2.540694 0
M  V30 45 H -3.924748 -4.643036 -2.955240 0
M  V30 46 H -5.496786 -5.341799 -1.236449 0
M  V30 47 H -5.714066 -4.147495 0.936634 0
M  V30 48 H -4.235024 -2.147314 1.340660 0
M  V30 END ATOM
M  V30 BEGIN BOND
M  V30 1 1 1 2
M  V30 2 1 2 3
M  V30 3 1 3 4
M  V30 4 2 4 5
M  V30 5 1 5 6
M  V30 6 2 6 7
M  V30 7 1 6 8
M  V30 8 1 8 9
M  V30 9 2 9 10
M  V30 10 1 10 11
M  V30 11 1 11 12
M  V30 12 2 12 13
M  V30 13 1 12 14
M  V30 14 2 11 15
M  V30 15 1 15 16
M  V30 16 2 16 17
M  V30 17 1 17 18
M  V30 18 1 5 19
M  V30 19 2 19 20
M  V30 20 1 20 21
M  V30 21 1 21 22
M  V30 22 2 22 23
M  V30 23 1 23 24
M  V30 24 2 24 25
M  V30 25 1 25 26
M  V30 26 2 26 27
M  V30 27 1 21 4
M  V30 28 1 27 22
M  V30 29 1 17 9
M  V30 30 1 1 28
M  V30 31 1 1 29
M  V30 32 1 1 30
M  V30 33 1 2 31
M  V30 34 1 2 32
M  V30 35 1 3 33
M  V30 36 1 3 34
M  V30 37 1 8 35
M  V30 38 1 10 36
M  V30 39 1 14 37
M  V30 40 1 15 38
M  V30 41 1 16 39
M  V30 42 1 18 40
M  V30 43 1 18 41
M  V30 44 1 18 42
M  V30 45 1 19 43
M  V30 46 1 23 44
M  V30 47 1 24 45
M  V30 48 1 25 46
M  V30 49 1 26 47
M  V30 50 1 27 48
M  V30 END BOND
M  V30 END CTAB
M  END
>  <Dataset>  (565) 
ChEMBL_Kinases

>  <Ligand_Instance>  (565) 
nan

>  <PDB_ID>  (565) 
nan

>  <Standardized_SMILES>  (565) 
CCCc1c(C(=O)Nc2cc(C(=O)O)ccc2C)cnn1-c1ccccc1

>  <Name>  (565) 
nan

>  <Pocket>  (565) 
nan

>  <ATP_Site>  (565) 
nan

>  <Peripheral>  (565) 
nan

>  <Num_H_Atoms_ProtBoundConf>  (565) 
nan

>  <Num_Resolved_Atoms>  (565) 
nan

>  <Num_Not_Resolved_Atoms>  (565) 
nan

$$$$
CHEMBL3393302
     RDKit          3D

  0  0  0  0  0  0  0  0  0  0999 V3000
M  V30 BEGIN CTAB
M  V30 COUNTS 51 53 0 0 0
M  V30 BEGIN ATOM
M  V30 1 C -3.479099 -0.382998 1.771754 0
M  V30 2 C -2.433058 -1.008708 0.877517 0
M  V30 3 C -1.600058 -1.985817 1.699575 0
M  V30 4 C -0.553549 -2.662357 0.958574 0
M  V30 5 C 0.643342 -2.092404 0.575432 0
M  V30 6 C 1.183038 -0.753934 0.775279 0
M  V30 7 O 1.333903 -0.381062 1.953289 0
M  V30 8 N 1.536305 0.122347 -0.281109 0
M  V30 9 C 2.064527 1.429969 -0.220415 0
M  V30 10 C 2.357870 2.160301 0.903754 0
M  V30 11 C 2.875984 3.436605 0.902005 0
M  V30 12 S 3.212856 4.278336 2.393692 0
M  V30 13 C 1.739340 5.188464 2.833676 0
M  V30 14 O 3.430359 3.235236 3.446882 0
M  V30 15 O 4.383799 5.202370 2.282531 0
M  V30 16 C 3.127853 4.048195 -0.290365 0
M  V30 17 C 2.849202 3.353583 -1.434600 0
M  V30 18 C 2.331037 2.077974 -1.402961 0
M  V30 19 C 2.053162 1.384280 -2.713320 0
M  V30 20 C 1.356295 -3.066967 -0.106500 0
M  V30 21 N 0.569856 -4.167981 -0.105650 0
M  V30 22 N -0.576740 -3.922852 0.534571 0
M  V30 23 C -1.545011 -4.924654 0.657676 0
M  V30 24 C -2.873695 -4.788396 0.292930 0
M  V30 25 C -3.844470 -5.757961 0.403019 0
M  V30 26 C -3.481712 -6.998681 0.926566 0
M  V30 27 C -2.153166 -7.180786 1.307375 0
M  V30 28 C -1.217295 -6.173050 1.175449 0
M  V30 29 H -3.325237 -0.716347 2.836359 0
M  V30 30 H -3.440457 0.722036 1.805175 0
M  V30 31 H -4.511400 -0.660553 1.474515 0
M  V30 32 H -2.846095 -1.459245 -0.045940 0
M  V30 33 H -1.804658 -0.151707 0.523326 0
M  V30 34 H -2.199721 -2.581878 2.387758 0
M  V30 35 H -1.087431 -1.282515 2.430964 0
M  V30 36 H 1.357623 -0.318412 -1.209802 0
M  V30 37 H 2.176761 1.722150 1.871048 0
M  V30 38 H 1.438091 5.851659 1.974622 0
M  V30 39 H 2.004054 5.789596 3.726327 0
M  V30 40 H 0.931503 4.470450 3.001575 0
M  V30 41 H 3.536401 5.052433 -0.382654 0
M  V30 42 H 3.031483 3.795716 -2.404952 0
M  V30 43 H 0.947890 1.231698 -2.704472 0
M  V30 44 H 2.362466 2.020916 -3.551717 0
M  V30 45 H 2.510635 0.379380 -2.740061 0
M  V30 46 H 2.329355 -2.991239 -0.551676 0
M  V30 47 H -3.170600 -3.835662 -0.113447 0
M  V30 48 H -4.862395 -5.530175 0.080777 0
M  V30 49 H -4.268542 -7.715562 0.992098 0
M  V30 50 H -1.950951 -8.165730 1.702331 0
M  V30 51 H -0.201950 -6.422771 1.505879 0
M  V30 END ATOM
M  V30 BEGIN BOND
M  V30 1 1 1 2
M  V30 2 1 2 3
M  V30 3 1 3 4
M  V30 4 2 4 5
M  V30 5 1 5 6
M  V30 6 2 6 7
M  V30 7 1 6 8
M  V30 8 1 8 9
M  V30 9 2 9 10
M  V30 10 1 10 11
M  V30 11 1 11 12
M  V30 12 1 12 13
M  V30 13 2 12 14
M  V30 14 2 12 15
M  V30 15 2 11 16
M  V30 16 1 16 17
M  V30 17 2 17 18
M  V30 18 1 18 19
M  V30 19 1 5 20
M  V30 20 2 20 21
M  V30 21 1 21 22
M  V30 22 1 22 23
M  V30 23 2 23 24
M  V30 24 1 24 25
M  V30 25 2 25 26
M  V30 26 1 26 27
M  V30 27 2 27 28
M  V30 28 1 22 4
M  V30 29 1 28 23
M  V30 30 1 18 9
M  V30 31 1 1 29
M  V30 32 1 1 30
M  V30 33 1 1 31
M  V30 34 1 2 32
M  V30 35 1 2 33
M  V30 36 1 3 34
M  V30 37 1 3 35
M  V30 38 1 8 36
M  V30 39 1 10 37
M  V30 40 1 13 38
M  V30 41 1 13 39
M  V30 42 1 13 40
M  V30 43 1 16 41
M  V30 44 1 17 42
M  V30 45 1 19 43
M  V30 46 1 19 44
M  V30 47 1 19 45
M  V30 48 1 20 46
M  V30 49 1 24 47
M  V30 50 1 25 48
M  V30 51 1 26 49
M  V30 52 1 27 50
M  V30 53 1 28 51
M  V30 END BOND
M  V30 END CTAB
M  END
>  <Dataset>  (566) 
ChEMBL_Kinases

>  <Ligand_Instance>  (566) 
nan

>  <PDB_ID>  (566) 
nan

>  <Standardized_SMILES>  (566) 
CCCc1c(C(=O)Nc2cc(S(C)(=O)=O)ccc2C)cnn1-c1ccccc1

>  <Name>  (566) 
nan

>  <Pocket>  (566) 
nan

>  <ATP_Site>  (566) 
nan

>  <Peripheral>  (566) 
nan

>  <Num_H_Atoms_ProtBoundConf>  (566) 
nan

>  <Num_Resolved_Atoms>  (566) 
nan

>  <Num_Not_Resolved_Atoms>  (566) 
nan

$$$$
CHEMBL3393301
     RDKit          3D

  0  0  0  0  0  0  0  0  0  0999 V3000
M  V30 BEGIN CTAB
M  V30 COUNTS 51 53 0 0 0
M  V30 BEGIN ATOM
M  V30 1 C -1.667119 -0.970544 3.281782 0
M  V30 2 C -0.190980 -0.992830 2.967757 0
M  V30 3 C 0.256847 -2.237156 2.257170 0
M  V30 4 C -0.377385 -2.487104 0.969227 0
M  V30 5 C -0.170877 -1.886317 -0.242711 0
M  V30 6 C 0.745857 -0.812674 -0.574768 0
M  V30 7 O 1.933399 -1.081656 -0.274280 0
M  V30 8 N 0.231416 0.369586 -1.174998 0
M  V30 9 C 1.133004 1.417967 -1.500907 0
M  V30 10 C 1.351953 2.375528 -0.537526 0
M  V30 11 C 2.198602 3.449375 -0.702187 0
M  V30 12 C 2.395117 4.461632 0.359932 0
M  V30 13 O 3.174571 5.423105 0.193499 0
M  V30 14 O 1.683092 4.289088 1.521999 0
M  V30 15 C 1.723993 5.133603 2.646354 0
M  V30 16 C 2.871037 3.572150 -1.912474 0
M  V30 17 C 2.665884 2.623005 -2.892687 0
M  V30 18 C 1.810548 1.554495 -2.703162 0
M  V30 19 C 1.545821 0.497682 -3.727936 0
M  V30 20 C -0.997757 -2.448240 -1.220484 0
M  V30 21 N -1.696402 -3.391231 -0.566904 0
M  V30 22 N -1.322224 -3.400040 0.708013 0
M  V30 23 C -1.989857 -4.363456 1.505313 0
M  V30 24 C -3.259607 -4.354023 2.020537 0
M  V30 25 C -3.753253 -5.393830 2.775936 0
M  V30 26 C -2.956209 -6.493705 3.033993 0
M  V30 27 C -1.677641 -6.524342 2.526598 0
M  V30 28 C -1.184169 -5.472487 1.765286 0
M  V30 29 H -2.131670 -1.963691 3.174331 0
M  V30 30 H -1.853687 -0.684425 4.357260 0
M  V30 31 H -2.179810 -0.216488 2.637608 0
M  V30 32 H 0.346099 -0.919351 3.934631 0
M  V30 33 H 0.126448 -0.092888 2.381870 0
M  V30 34 H 0.034050 -3.089964 2.956541 0
M  V30 35 H 1.363843 -2.230175 2.179326 0
M  V30 36 H -0.805166 0.425171 -1.355065 0
M  V30 37 H 0.853131 2.324846 0.420252 0
M  V30 38 H 2.522474 5.883991 2.610113 0
M  V30 39 H 1.925080 4.464283 3.528224 0
M  V30 40 H 0.745525 5.612702 2.880071 0
M  V30 41 H 3.548491 4.411865 -2.073450 0
M  V30 42 H 3.178671 2.683241 -3.861866 0
M  V30 43 H 0.476912 0.205686 -3.761883 0
M  V30 44 H 1.779538 0.895870 -4.735558 0
M  V30 45 H 2.127849 -0.394127 -3.509411 0
M  V30 46 H -1.072475 -2.190855 -2.284179 0
M  V30 47 H -3.812746 -3.459643 1.771635 0
M  V30 48 H -4.759701 -5.312569 3.145694 0
M  V30 49 H -3.363940 -7.311662 3.636156 0
M  V30 50 H -1.110286 -7.424429 2.772448 0
M  V30 51 H -0.168585 -5.601678 1.417542 0
M  V30 END ATOM
M  V30 BEGIN BOND
M  V30 1 1 1 2
M  V30 2 1 2 3
M  V30 3 1 3 4
M  V30 4 2 4 5
M  V30 5 1 5 6
M  V30 6 2 6 7
M  V30 7 1 6 8
M  V30 8 1 8 9
M  V30 9 2 9 10
M  V30 10 1 10 11
M  V30 11 1 11 12
M  V30 12 2 12 13
M  V30 13 1 12 14
M  V30 14 1 14 15
M  V30 15 2 11 16
M  V30 16 1 16 17
M  V30 17 2 17 18
M  V30 18 1 18 19
M  V30 19 1 5 20
M  V30 20 2 20 21
M  V30 21 1 21 22
M  V30 22 1 22 23
M  V30 23 2 23 24
M  V30 24 1 24 25
M  V30 25 2 25 26
M  V30 26 1 26 27
M  V30 27 2 27 28
M  V30 28 1 22 4
M  V30 29 1 28 23
M  V30 30 1 18 9
M  V30 31 1 1 29
M  V30 32 1 1 30
M  V30 33 1 1 31
M  V30 34 1 2 32
M  V30 35 1 2 33
M  V30 36 1 3 34
M  V30 37 1 3 35
M  V30 38 1 8 36
M  V30 39 1 10 37
M  V30 40 1 15 38
M  V30 41 1 15 39
M  V30 42 1 15 40
M  V30 43 1 16 41
M  V30 44 1 17 42
M  V30 45 1 19 43
M  V30 46 1 19 44
M  V30 47 1 19 45
M  V30 48 1 20 46
M  V30 49 1 24 47
M  V30 50 1 25 48
M  V30 51 1 26 49
M  V30 52 1 27 50
M  V30 53 1 28 51
M  V30 END BOND
M  V30 END CTAB
M  END
>  <Dataset>  (567) 
ChEMBL_Kinases

>  <Ligand_Instance>  (567) 
nan

>  <PDB_ID>  (567) 
nan

>  <Standardized_SMILES>  (567) 
CCCc1c(C(=O)Nc2cc(C(=O)OC)ccc2C)cnn1-c1ccccc1

>  <Name>  (567) 
nan

>  <Pocket>  (567) 
nan

>  <ATP_Site>  (567) 
nan

>  <Peripheral>  (567) 
nan

>  <Num_H_Atoms_ProtBoundConf>  (567) 
nan

>  <Num_Resolved_Atoms>  (567) 
nan

>  <Num_Not_Resolved_Atoms>  (567) 
nan

$$$$
CHEMBL3393298
     RDKit          3D

  0  0  0  0  0  0  0  0  0  0999 V3000
M  V30 BEGIN CTAB
M  V30 COUNTS 46 48 0 0 0
M  V30 BEGIN ATOM
M  V30 1 C 0.192584 -3.404997 3.178258 0
M  V30 2 C 0.234853 -3.119480 1.693119 0
M  V30 3 C -0.523445 -1.833169 1.448300 0
M  V30 4 C -0.553350 -1.444090 0.041312 0
M  V30 5 C 0.401729 -0.886841 -0.754409 0
M  V30 6 C 1.772243 -0.531839 -0.324533 0
M  V30 7 O 2.842045 -1.183624 -0.305334 0
M  V30 8 N 1.787623 0.827184 0.141181 0
M  V30 9 C 2.711763 1.766822 0.667959 0
M  V30 10 C 3.429164 2.616698 -0.182329 0
M  V30 11 C 4.331530 3.532068 0.325938 0
M  V30 12 C 5.072745 4.408214 -0.534589 0
M  V30 13 N 5.677688 5.121590 -1.235553 0
M  V30 14 C 4.461768 3.539357 1.684858 0
M  V30 15 C 3.812414 2.755110 2.610208 0
M  V30 16 C 2.912559 1.848655 2.036215 0
M  V30 17 C 2.135173 0.933436 2.912694 0
M  V30 18 C -0.023576 -0.666727 -2.049046 0
M  V30 19 N -1.300181 -1.113627 -2.035092 0
M  V30 20 N -1.590232 -1.562952 -0.806718 0
M  V30 21 C -2.902644 -2.081286 -0.579931 0
M  V30 22 C -3.773638 -1.099164 -0.116637 0
M  V30 23 C -5.098918 -1.464255 0.145661 0
M  V30 24 C -5.523859 -2.773113 -0.053963 0
M  V30 25 C -4.614530 -3.713145 -0.517346 0
M  V30 26 C -3.304587 -3.384147 -0.784092 0
M  V30 27 H -0.430070 -4.319369 3.388184 0
M  V30 28 H 1.232545 -3.567398 3.588993 0
M  V30 29 H -0.178359 -2.522560 3.738833 0
M  V30 30 H 1.275158 -3.109604 1.365092 0
M  V30 31 H -0.327878 -3.932062 1.156558 0
M  V30 32 H -0.106597 -1.032940 2.119183 0
M  V30 33 H -1.562018 -2.004958 1.802043 0
M  V30 34 H 0.963835 1.501782 0.186233 0
M  V30 35 H 3.259006 2.536563 -1.229816 0
M  V30 36 H 5.180009 4.269721 2.078262 0
M  V30 37 H 3.957216 2.807628 3.665499 0
M  V30 38 H 2.328073 1.170464 3.973113 0
M  V30 39 H 2.410966 -0.111155 2.712760 0
M  V30 40 H 1.038064 1.064451 2.723446 0
M  V30 41 H 0.560525 -0.232603 -2.861838 0
M  V30 42 H -3.504421 -0.059147 0.059799 0
M  V30 43 H -5.798889 -0.700605 0.511648 0
M  V30 44 H -6.552906 -3.078399 0.144316 0
M  V30 45 H -4.860490 -4.745237 -0.698273 0
M  V30 46 H -2.562400 -4.067720 -1.142262 0
M  V30 END ATOM
M  V30 BEGIN BOND
M  V30 1 1 1 2
M  V30 2 1 2 3
M  V30 3 1 3 4
M  V30 4 2 4 5
M  V30 5 1 5 6
M  V30 6 2 6 7
M  V30 7 1 6 8
M  V30 8 1 8 9
M  V30 9 2 9 10
M  V30 10 1 10 11
M  V30 11 1 11 12
M  V30 12 3 12 13
M  V30 13 2 11 14
M  V30 14 1 14 15
M  V30 15 2 15 16
M  V30 16 1 16 17
M  V30 17 1 5 18
M  V30 18 2 18 19
M  V30 19 1 19 20
M  V30 20 1 20 21
M  V30 21 2 21 22
M  V30 22 1 22 23
M  V30 23 2 23 24
M  V30 24 1 24 25
M  V30 25 2 25 26
M  V30 26 1 20 4
M  V30 27 1 26 21
M  V30 28 1 16 9
M  V30 29 1 1 27
M  V30 30 1 1 28
M  V30 31 1 1 29
M  V30 32 1 2 30
M  V30 33 1 2 31
M  V30 34 1 3 32
M  V30 35 1 3 33
M  V30 36 1 8 34
M  V30 37 1 10 35
M  V30 38 1 14 36
M  V30 39 1 15 37
M  V30 40 1 17 38
M  V30 41 1 17 39
M  V30 42 1 17 40
M  V30 43 1 18 41
M  V30 44 1 22 42
M  V30 45 1 23 43
M  V30 46 1 24 44
M  V30 47 1 25 45
M  V30 48 1 26 46
M  V30 END BOND
M  V30 END CTAB
M  END
>  <Dataset>  (568) 
ChEMBL_Kinases

>  <Ligand_Instance>  (568) 
nan

>  <PDB_ID>  (568) 
nan

>  <Standardized_SMILES>  (568) 
CCCc1c(C(=O)Nc2cc(C#N)ccc2C)cnn1-c1ccccc1

>  <Name>  (568) 
nan

>  <Pocket>  (568) 
nan

>  <ATP_Site>  (568) 
nan

>  <Peripheral>  (568) 
nan

>  <Num_H_Atoms_ProtBoundConf>  (568) 
nan

>  <Num_Resolved_Atoms>  (568) 
nan

>  <Num_Not_Resolved_Atoms>  (568) 
nan

$$$$
CHEMBL3393297
     RDKit          3D

  0  0  0  0  0  0  0  0  0  0999 V3000
M  V30 BEGIN CTAB
M  V30 COUNTS 45 47 0 0 0
M  V30 BEGIN ATOM
M  V30 1 C 0.683628 -3.036188 3.084296 0
M  V30 2 C 0.208378 -1.791980 2.327801 0
M  V30 3 C -0.401931 -2.284262 1.055678 0
M  V30 4 C -0.931712 -1.250011 0.164953 0
M  V30 5 C -0.146729 -0.440984 -0.629784 0
M  V30 6 C 1.297722 -0.355410 -0.830140 0
M  V30 7 O 1.888051 -1.349962 -1.321001 0
M  V30 8 N 1.893885 0.893064 -0.431238 0
M  V30 9 C 3.137933 1.560132 -0.369124 0
M  V30 10 C 3.517343 2.344484 -1.464819 0
M  V30 11 C 4.722849 3.031291 -1.490854 0
M  V30 12 F 5.132064 3.798831 -2.520818 0
M  V30 13 C 5.481543 2.863066 -0.357226 0
M  V30 14 C 5.199351 2.118817 0.765209 0
M  V30 15 C 3.979164 1.461508 0.719158 0
M  V30 16 C 3.491285 0.599741 1.839691 0
M  V30 17 C -0.987297 0.425574 -1.340485 0
M  V30 18 N -2.219757 0.111106 -0.953886 0
M  V30 19 N -2.215204 -0.887207 -0.054745 0
M  V30 20 C -3.367353 -1.455628 0.554534 0
M  V30 21 C -3.535593 -1.262874 1.917947 0
M  V30 22 C -4.582252 -1.732625 2.679564 0
M  V30 23 C -5.539110 -2.461684 1.989675 0
M  V30 24 C -5.440007 -2.698664 0.616858 0
M  V30 25 C -4.346662 -2.187987 -0.085776 0
M  V30 26 H -0.074529 -3.855565 3.048771 0
M  V30 27 H 1.608910 -3.467735 2.637123 0
M  V30 28 H 0.888774 -2.829985 4.152584 0
M  V30 29 H -0.472269 -1.258769 2.995418 0
M  V30 30 H 1.142189 -1.207511 2.127807 0
M  V30 31 H 0.386102 -2.917369 0.560580 0
M  V30 32 H -1.199584 -3.017628 1.320259 0
M  V30 33 H 1.314800 1.662230 -0.031669 0
M  V30 34 H 2.855146 2.421194 -2.318553 0
M  V30 35 H 6.447690 3.388577 -0.330643 0
M  V30 36 H 5.834727 2.028017 1.618436 0
M  V30 37 H 4.087656 0.810156 2.749903 0
M  V30 38 H 2.433405 0.834150 2.085767 0
M  V30 39 H 3.634102 -0.473392 1.593454 0
M  V30 40 H -0.751856 1.191316 -2.050261 0
M  V30 41 H -2.782089 -0.685727 2.477809 0
M  V30 42 H -4.637645 -1.536660 3.737884 0
M  V30 43 H -6.392264 -2.857831 2.547129 0
M  V30 44 H -6.194488 -3.273397 0.070965 0
M  V30 45 H -4.219532 -2.339219 -1.138088 0
M  V30 END ATOM
M  V30 BEGIN BOND
M  V30 1 1 1 2
M  V30 2 1 2 3
M  V30 3 1 3 4
M  V30 4 2 4 5
M  V30 5 1 5 6
M  V30 6 2 6 7
M  V30 7 1 6 8
M  V30 8 1 8 9
M  V30 9 2 9 10
M  V30 10 1 10 11
M  V30 11 1 11 12
M  V30 12 2 11 13
M  V30 13 1 13 14
M  V30 14 2 14 15
M  V30 15 1 15 16
M  V30 16 1 5 17
M  V30 17 2 17 18
M  V30 18 1 18 19
M  V30 19 1 19 20
M  V30 20 2 20 21
M  V30 21 1 21 22
M  V30 22 2 22 23
M  V30 23 1 23 24
M  V30 24 2 24 25
M  V30 25 1 19 4
M  V30 26 1 25 20
M  V30 27 1 15 9
M  V30 28 1 1 26
M  V30 29 1 1 27
M  V30 30 1 1 28
M  V30 31 1 2 29
M  V30 32 1 2 30
M  V30 33 1 3 31
M  V30 34 1 3 32
M  V30 35 1 8 33
M  V30 36 1 10 34
M  V30 37 1 13 35
M  V30 38 1 14 36
M  V30 39 1 16 37
M  V30 40 1 16 38
M  V30 41 1 16 39
M  V30 42 1 17 40
M  V30 43 1 21 41
M  V30 44 1 22 42
M  V30 45 1 23 43
M  V30 46 1 24 44
M  V30 47 1 25 45
M  V30 END BOND
M  V30 END CTAB
M  END
>  <Dataset>  (569) 
ChEMBL_Kinases

>  <Ligand_Instance>  (569) 
nan

>  <PDB_ID>  (569) 
nan

>  <Standardized_SMILES>  (569) 
CCCc1c(C(=O)Nc2cc(F)ccc2C)cnn1-c1ccccc1

>  <Name>  (569) 
nan

>  <Pocket>  (569) 
nan

>  <ATP_Site>  (569) 
nan

>  <Peripheral>  (569) 
nan

>  <Num_H_Atoms_ProtBoundConf>  (569) 
nan

>  <Num_Resolved_Atoms>  (569) 
nan

>  <Num_Not_Resolved_Atoms>  (569) 
nan

$$$$
CHEMBL3393296
     RDKit          3D

  0  0  0  0  0  0  0  0  0  0999 V3000
M  V30 BEGIN CTAB
M  V30 COUNTS 56 58 0 0 0
M  V30 BEGIN ATOM
M  V30 1 C 2.549723 -2.863347 1.162044 0
M  V30 2 C 1.084180 -2.876800 1.504402 0
M  V30 3 C 0.173177 -2.812267 0.296760 0
M  V30 4 C -1.230272 -2.865378 0.864211 0
M  V30 5 C -1.908232 -1.767981 1.427039 0
M  V30 6 C -1.248933 -0.432672 1.400601 0
M  V30 7 O -0.656117 0.206417 2.299444 0
M  V30 8 N -1.333291 0.194021 0.093560 0
M  V30 9 C -0.848230 1.455832 -0.385792 0
M  V30 10 C -0.063053 2.246716 0.406835 0
M  V30 11 C 0.345544 3.447001 -0.181839 0
M  V30 12 S 1.342907 4.631151 0.632603 0
M  V30 13 O 0.658642 5.945167 0.817355 0
M  V30 14 O 2.549631 4.838331 -0.285965 0
M  V30 15 N 1.960714 4.078133 2.117663 0
M  V30 16 C 2.806559 2.942277 2.057511 0
M  V30 17 C 1.071965 4.180069 3.220037 0
M  V30 18 C -0.005378 3.838940 -1.482877 0
M  V30 19 C -0.791345 2.967878 -2.180433 0
M  V30 20 C -1.229104 1.772350 -1.665253 0
M  V30 21 C -2.096230 0.891979 -2.518464 0
M  V30 22 C -3.124217 -2.256530 1.851115 0
M  V30 23 N -3.181187 -3.570637 1.561742 0
M  V30 24 N -2.064822 -3.955187 0.972285 0
M  V30 25 C -1.464138 -5.148903 0.420509 0
M  V30 26 C -0.679388 -6.107856 0.996882 0
M  V30 27 C -0.211258 -7.135674 0.207659 0
M  V30 28 C -0.513085 -7.217643 -1.132474 0
M  V30 29 C -1.319433 -6.234173 -1.723713 0
M  V30 30 C -1.796119 -5.196458 -0.943412 0
M  V30 31 H 2.731802 -2.313998 0.220006 0
M  V30 32 H 2.977055 -3.892003 1.133809 0
M  V30 33 H 3.095189 -2.328092 1.964510 0
M  V30 34 H 0.830624 -2.109811 2.253142 0
M  V30 35 H 0.899529 -3.887479 1.985135 0
M  V30 36 H 0.271247 -1.803513 -0.166733 0
M  V30 37 H 0.340790 -3.588536 -0.436249 0
M  V30 38 H -1.856150 -0.428523 -0.603604 0
M  V30 39 H 0.253926 2.040484 1.383024 0
M  V30 40 H 3.869039 3.271716 2.215937 0
M  V30 41 H 2.593012 2.183452 2.840851 0
M  V30 42 H 2.827043 2.488323 1.020476 0
M  V30 43 H 0.901132 3.242244 3.741113 0
M  V30 44 H 0.097219 4.656396 2.902376 0
M  V30 45 H 1.537841 4.899572 3.951323 0
M  V30 46 H 0.298319 4.758092 -1.957157 0
M  V30 47 H -1.097613 3.215257 -3.189905 0
M  V30 48 H -1.517618 -0.055345 -2.610190 0
M  V30 49 H -2.297799 1.394393 -3.462003 0
M  V30 50 H -2.999471 0.607290 -1.931340 0
M  V30 51 H -3.807359 -1.591487 2.314429 0
M  V30 52 H -0.525350 -5.914286 2.045320 0
M  V30 53 H 0.410348 -7.856127 0.747781 0
M  V30 54 H -0.115315 -8.053377 -1.718884 0
M  V30 55 H -1.488058 -6.400801 -2.781591 0
M  V30 56 H -2.385089 -4.534464 -1.548765 0
M  V30 END ATOM
M  V30 BEGIN BOND
M  V30 1 1 1 2
M  V30 2 1 2 3
M  V30 3 1 3 4
M  V30 4 2 4 5
M  V30 5 1 5 6
M  V30 6 2 6 7
M  V30 7 1 6 8
M  V30 8 1 8 9
M  V30 9 2 9 10
M  V30 10 1 10 11
M  V30 11 1 11 12
M  V30 12 2 12 13
M  V30 13 2 12 14
M  V30 14 1 12 15
M  V30 15 1 15 16
M  V30 16 1 15 17
M  V30 17 2 11 18
M  V30 18 1 18 19
M  V30 19 2 19 20
M  V30 20 1 20 21
M  V30 21 1 5 22
M  V30 22 2 22 23
M  V30 23 1 23 24
M  V30 24 1 24 25
M  V30 25 2 25 26
M  V30 26 1 26 27
M  V30 27 2 27 28
M  V30 28 1 28 29
M  V30 29 2 29 30
M  V30 30 1 24 4
M  V30 31 1 30 25
M  V30 32 1 20 9
M  V30 33 1 1 31
M  V30 34 1 1 32
M  V30 35 1 1 33
M  V30 36 1 2 34
M  V30 37 1 2 35
M  V30 38 1 3 36
M  V30 39 1 3 37
M  V30 40 1 8 38
M  V30 41 1 10 39
M  V30 42 1 16 40
M  V30 43 1 16 41
M  V30 44 1 16 42
M  V30 45 1 17 43
M  V30 46 1 17 44
M  V30 47 1 17 45
M  V30 48 1 18 46
M  V30 49 1 19 47
M  V30 50 1 21 48
M  V30 51 1 21 49
M  V30 52 1 21 50
M  V30 53 1 22 51
M  V30 54 1 26 52
M  V30 55 1 27 53
M  V30 56 1 28 54
M  V30 57 1 29 55
M  V30 58 1 30 56
M  V30 END BOND
M  V30 END CTAB
M  END
>  <Dataset>  (570) 
ChEMBL_Kinases

>  <Ligand_Instance>  (570) 
nan

>  <PDB_ID>  (570) 
nan

>  <Standardized_SMILES>  (570) 
CCCc1c(C(=O)Nc2cc(S(=O)(=O)N(C)C)ccc2C)cnn1-c1ccccc1

>  <Name>  (570) 
nan

>  <Pocket>  (570) 
nan

>  <ATP_Site>  (570) 
nan

>  <Peripheral>  (570) 
nan

>  <Num_H_Atoms_ProtBoundConf>  (570) 
nan

>  <Num_Resolved_Atoms>  (570) 
nan

>  <Num_Not_Resolved_Atoms>  (570) 
nan

$$$$
CHEMBL3393295
     RDKit          3D

  0  0  0  0  0  0  0  0  0  0999 V3000
M  V30 BEGIN CTAB
M  V30 COUNTS 40 42 0 0 0
M  V30 BEGIN ATOM
M  V30 1 N 1.888280 -4.547380 3.083260 0
M  V30 2 C 2.787148 -4.429033 2.364941 0
M  V30 3 C 3.909820 -4.286106 1.498796 0
M  V30 4 C 4.873122 -5.273987 1.527696 0
M  V30 5 C 5.950462 -5.145461 0.702298 0
M  V30 6 C 6.135099 -4.082554 -0.163782 0
M  V30 7 C 5.128317 -3.133329 -0.136332 0
M  V30 8 C 3.990977 -3.175707 0.670723 0
M  V30 9 O 3.135381 -2.264670 0.621437 0
M  V30 10 C 2.274856 -1.347943 0.571556 0
M  V30 11 C 1.220441 -1.475594 -0.304463 0
M  V30 12 C 0.190792 -0.543576 -0.471738 0
M  V30 13 C 0.275770 0.585118 0.326780 0
M  V30 14 C -0.723284 1.650679 0.275623 0
M  V30 15 O -0.620353 2.688417 1.017676 0
M  V30 16 N -1.876014 1.684270 -0.550331 0
M  V30 17 C -2.889330 2.698236 -0.640646 0
M  V30 18 C -3.858969 2.670735 0.502958 0
M  V30 19 C -4.982786 1.857715 0.433367 0
M  V30 20 C -5.928422 1.790435 1.459490 0
M  V30 21 C -5.667588 2.589947 2.549595 0
M  V30 22 N -4.582538 3.376556 2.619281 0
M  V30 23 C -3.651453 3.451325 1.623841 0
M  V30 24 C 1.314855 0.760392 1.222489 0
M  V30 25 C 2.291059 -0.199583 1.331729 0
M  V30 26 H 4.810082 -6.145634 2.177631 0
M  V30 27 H 6.708577 -5.913485 0.719194 0
M  V30 28 H 6.980605 -3.975917 -0.815718 0
M  V30 29 H 5.264397 -2.291747 -0.816254 0
M  V30 30 H 1.097168 -2.347478 -0.963773 0
M  V30 31 H -0.615465 -0.678094 -1.165302 0
M  V30 32 H -1.957602 0.818579 -1.167506 0
M  V30 33 H -3.505489 2.491551 -1.539330 0
M  V30 34 H -2.464709 3.717645 -0.767096 0
M  V30 35 H -5.199669 1.216301 -0.433376 0
M  V30 36 H -6.789394 1.143216 1.362717 0
M  V30 37 H -6.387313 2.549687 3.347914 0
M  V30 38 H -2.820415 4.101123 1.751314 0
M  V30 39 H 1.366548 1.657171 1.844109 0
M  V30 40 H 3.130515 -0.090263 2.035059 0
M  V30 END ATOM
M  V30 BEGIN BOND
M  V30 1 3 1 2
M  V30 2 1 2 3
M  V30 3 2 3 4
M  V30 4 1 4 5
M  V30 5 2 5 6
M  V30 6 1 6 7
M  V30 7 2 7 8
M  V30 8 1 8 9
M  V30 9 1 9 10
M  V30 10 2 10 11
M  V30 11 1 11 12
M  V30 12 2 12 13
M  V30 13 1 13 14
M  V30 14 2 14 15
M  V30 15 1 14 16
M  V30 16 1 16 17
M  V30 17 1 17 18
M  V30 18 2 18 19
M  V30 19 1 19 20
M  V30 20 2 20 21
M  V30 21 1 21 22
M  V30 22 2 22 23
M  V30 23 1 13 24
M  V30 24 2 24 25
M  V30 25 1 8 3
M  V30 26 1 25 10
M  V30 27 1 23 18
M  V30 28 1 4 26
M  V30 29 1 5 27
M  V30 30 1 6 28
M  V30 31 1 7 29
M  V30 32 1 11 30
M  V30 33 1 12 31
M  V30 34 1 16 32
M  V30 35 1 17 33
M  V30 36 1 17 34
M  V30 37 1 19 35
M  V30 38 1 20 36
M  V30 39 1 21 37
M  V30 40 1 23 38
M  V30 41 1 24 39
M  V30 42 1 25 40
M  V30 END BOND
M  V30 END CTAB
M  END
>  <Dataset>  (571) 
ChEMBL_Kinases

>  <Ligand_Instance>  (571) 
nan

>  <PDB_ID>  (571) 
nan

>  <Standardized_SMILES>  (571) 
N#Cc1ccccc1Oc1ccc(C(=O)NCc2cccnc2)cc1

>  <Name>  (571) 
nan

>  <Pocket>  (571) 
nan

>  <ATP_Site>  (571) 
nan

>  <Peripheral>  (571) 
nan

>  <Num_H_Atoms_ProtBoundConf>  (571) 
nan

>  <Num_Resolved_Atoms>  (571) 
nan

>  <Num_Not_Resolved_Atoms>  (571) 
nan

$$$$
CHEMBL3393294
     RDKit          3D

  0  0  0  0  0  0  0  0  0  0999 V3000
M  V30 BEGIN CTAB
M  V30 COUNTS 41 43 0 0 0
M  V30 BEGIN ATOM
M  V30 1 N -0.876627 -4.792767 -0.760951 0
M  V30 2 C 0.259629 -4.992884 -0.614577 0
M  V30 3 C 1.654311 -5.263399 -0.428960 0
M  V30 4 C 2.139692 -6.380049 0.221420 0
M  V30 5 C 3.501067 -6.556241 0.350695 0
M  V30 6 C 4.384170 -5.628882 -0.163059 0
M  V30 7 C 3.865886 -4.506484 -0.817520 0
M  V30 8 C 2.487862 -4.305826 -0.960997 0
M  V30 9 O 2.247597 -3.148089 -1.629969 0
M  V30 10 C 1.567296 -2.038803 -1.240996 0
M  V30 11 C 0.258132 -1.640402 -1.403421 0
M  V30 12 C -0.200534 -0.443120 -0.904007 0
M  V30 13 C 0.599618 0.430901 -0.217254 0
M  V30 14 C 0.155290 1.706317 0.327607 0
M  V30 15 O 0.970990 2.454705 0.953443 0
M  V30 16 N -1.163653 2.219201 0.222426 0
M  V30 17 C -1.663945 3.461310 0.735131 0
M  V30 18 C -1.908601 3.442603 2.197150 0
M  V30 19 C -1.020335 3.793772 3.185627 0
M  V30 20 C -1.287549 3.759451 4.534681 0
M  V30 21 C -2.552598 3.335317 4.879793 0
M  V30 22 C -3.514946 2.961867 3.966804 0
M  V30 23 C -3.172616 3.022299 2.619216 0
M  V30 24 C 1.913269 0.055735 -0.041723 0
M  V30 25 C 2.401884 -1.156750 -0.540436 0
M  V30 26 H 1.345719 -7.026346 0.575783 0
M  V30 27 H 3.789393 -7.459038 0.874743 0
M  V30 28 H 5.441704 -5.809983 -0.037426 0
M  V30 29 H 4.671058 -3.849050 -1.177908 0
M  V30 30 H -0.323369 -2.353817 -1.949869 0
M  V30 31 H -1.232120 -0.204485 -1.070810 0
M  V30 32 H -1.820373 1.571409 -0.305405 0
M  V30 33 H -2.628503 3.686107 0.219506 0
M  V30 34 H -0.955282 4.306829 0.509752 0
M  V30 35 H -0.043068 4.121829 2.867616 0
M  V30 36 H -0.551495 4.045939 5.248711 0
M  V30 37 H -2.830285 3.284237 5.937937 0
M  V30 38 H -4.478554 2.642124 4.318098 0
M  V30 39 H -3.914268 2.733852 1.891461 0
M  V30 40 H 2.567124 0.741913 0.504370 0
M  V30 41 H 3.469864 -1.317353 -0.321601 0
M  V30 END ATOM
M  V30 BEGIN BOND
M  V30 1 3 1 2
M  V30 2 1 2 3
M  V30 3 2 3 4
M  V30 4 1 4 5
M  V30 5 2 5 6
M  V30 6 1 6 7
M  V30 7 2 7 8
M  V30 8 1 8 9
M  V30 9 1 9 10
M  V30 10 2 10 11
M  V30 11 1 11 12
M  V30 12 2 12 13
M  V30 13 1 13 14
M  V30 14 2 14 15
M  V30 15 1 14 16
M  V30 16 1 16 17
M  V30 17 1 17 18
M  V30 18 2 18 19
M  V30 19 1 19 20
M  V30 20 2 20 21
M  V30 21 1 21 22
M  V30 22 2 22 23
M  V30 23 1 13 24
M  V30 24 2 24 25
M  V30 25 1 8 3
M  V30 26 1 25 10
M  V30 27 1 23 18
M  V30 28 1 4 26
M  V30 29 1 5 27
M  V30 30 1 6 28
M  V30 31 1 7 29
M  V30 32 1 11 30
M  V30 33 1 12 31
M  V30 34 1 16 32
M  V30 35 1 17 33
M  V30 36 1 17 34
M  V30 37 1 19 35
M  V30 38 1 20 36
M  V30 39 1 21 37
M  V30 40 1 22 38
M  V30 41 1 23 39
M  V30 42 1 24 40
M  V30 43 1 25 41
M  V30 END BOND
M  V30 END CTAB
M  END
>  <Dataset>  (572) 
ChEMBL_Kinases

>  <Ligand_Instance>  (572) 
nan

>  <PDB_ID>  (572) 
nan

>  <Standardized_SMILES>  (572) 
N#Cc1ccccc1Oc1ccc(C(=O)NCc2ccccc2)cc1

>  <Name>  (572) 
nan

>  <Pocket>  (572) 
nan

>  <ATP_Site>  (572) 
nan

>  <Peripheral>  (572) 
nan

>  <Num_H_Atoms_ProtBoundConf>  (572) 
nan

>  <Num_Resolved_Atoms>  (572) 
nan

>  <Num_Not_Resolved_Atoms>  (572) 
nan

$$$$
CHEMBL3393293
     RDKit          3D

  0  0  0  0  0  0  0  0  0  0999 V3000
M  V30 BEGIN CTAB
M  V30 COUNTS 39 41 0 0 0
M  V30 BEGIN ATOM
M  V30 1 O -0.998489 -3.299030 1.962575 0
M  V30 2 C -1.101451 -2.426768 1.033634 0
M  V30 3 N -1.321348 -2.971599 -0.257795 0
M  V30 4 C -1.437944 -4.355987 -0.633362 0
M  V30 5 C -0.098078 -5.027098 -0.672633 0
M  V30 6 C 0.527508 -5.696712 0.354811 0
M  V30 7 C 1.769377 -6.243843 0.111395 0
M  V30 8 N 2.427056 -6.177771 -1.056643 0
M  V30 9 C 1.849258 -5.529337 -2.093443 0
M  V30 10 C 0.593030 -4.965945 -1.875756 0
M  V30 11 C -0.996514 -1.000685 1.313534 0
M  V30 12 C -1.089793 0.032415 0.405351 0
M  V30 13 C -0.970878 1.356898 0.803914 0
M  V30 14 C -0.751228 1.715989 2.140680 0
M  V30 15 O -0.670849 3.063453 2.283120 0
M  V30 16 C 0.393747 3.898843 2.154675 0
M  V30 17 C 0.133973 4.831826 1.140181 0
M  V30 18 C 1.045548 5.822910 0.776476 0
M  V30 19 C 2.253559 5.896227 1.435369 0
M  V30 20 C 2.531576 4.991019 2.435310 0
M  V30 21 C 1.615244 4.021311 2.776505 0
M  V30 22 Cl 1.852918 2.820879 4.025343 0
M  V30 23 C -0.659704 0.675905 3.040946 0
M  V30 24 C -0.779746 -0.634041 2.629701 0
M  V30 25 H -1.404317 -2.231655 -1.015624 0
M  V30 26 H -1.880821 -4.418230 -1.649600 0
M  V30 27 H -2.033915 -4.939115 0.104384 0
M  V30 28 H -0.001209 -5.746038 1.274699 0
M  V30 29 H 2.193823 -6.754584 0.973182 0
M  V30 30 H 2.342034 -5.452612 -3.047982 0
M  V30 31 H 0.178728 -4.463172 -2.729966 0
M  V30 32 H -1.258913 -0.255051 -0.620575 0
M  V30 33 H -1.067907 2.053072 -0.031123 0
M  V30 34 H -0.771438 4.916675 0.517677 0
M  V30 35 H 0.902939 6.554526 0.018293 0
M  V30 36 H 2.999790 6.647979 1.192599 0
M  V30 37 H 3.450174 4.971600 3.005318 0
M  V30 38 H -0.496531 1.010737 4.050654 0
M  V30 39 H -0.682245 -1.333797 3.470288 0
M  V30 END ATOM
M  V30 BEGIN BOND
M  V30 1 2 1 2
M  V30 2 1 2 3
M  V30 3 1 3 4
M  V30 4 1 4 5
M  V30 5 2 5 6
M  V30 6 1 6 7
M  V30 7 2 7 8
M  V30 8 1 8 9
M  V30 9 2 9 10
M  V30 10 1 2 11
M  V30 11 2 11 12
M  V30 12 1 12 13
M  V30 13 2 13 14
M  V30 14 1 14 15
M  V30 15 1 15 16
M  V30 16 2 16 17
M  V30 17 1 17 18
M  V30 18 2 18 19
M  V30 19 1 19 20
M  V30 20 2 20 21
M  V30 21 1 21 22
M  V30 22 1 14 23
M  V30 23 2 23 24
M  V30 24 1 10 5
M  V30 25 1 24 11
M  V30 26 1 21 16
M  V30 27 1 3 25
M  V30 28 1 4 26
M  V30 29 1 4 27
M  V30 30 1 6 28
M  V30 31 1 7 29
M  V30 32 1 9 30
M  V30 33 1 10 31
M  V30 34 1 12 32
M  V30 35 1 13 33
M  V30 36 1 17 34
M  V30 37 1 18 35
M  V30 38 1 19 36
M  V30 39 1 20 37
M  V30 40 1 23 38
M  V30 41 1 24 39
M  V30 END BOND
M  V30 END CTAB
M  END
>  <Dataset>  (573) 
ChEMBL_Kinases

>  <Ligand_Instance>  (573) 
nan

>  <PDB_ID>  (573) 
nan

>  <Standardized_SMILES>  (573) 
O=C(NCc1ccncc1)c1ccc(Oc2ccccc2Cl)cc1

>  <Name>  (573) 
nan

>  <Pocket>  (573) 
nan

>  <ATP_Site>  (573) 
nan

>  <Peripheral>  (573) 
nan

>  <Num_H_Atoms_ProtBoundConf>  (573) 
nan

>  <Num_Resolved_Atoms>  (573) 
nan

>  <Num_Not_Resolved_Atoms>  (573) 
nan

$$$$
CHEMBL3393292
     RDKit          3D

  0  0  0  0  0  0  0  0  0  0999 V3000
M  V30 BEGIN CTAB
M  V30 COUNTS 42 44 0 0 0
M  V30 BEGIN ATOM
M  V30 1 C 2.118291 -6.428858 -0.250542 0
M  V30 2 C 3.136711 -5.369045 -0.101058 0
M  V30 3 C 4.487450 -5.718612 -0.056289 0
M  V30 4 C 5.413301 -4.709918 0.083080 0
M  V30 5 C 5.002137 -3.385192 0.175550 0
M  V30 6 C 3.644454 -3.073793 0.127023 0
M  V30 7 C 2.690478 -4.088938 -0.014459 0
M  V30 8 O 1.318066 -3.773721 -0.063424 0
M  V30 9 C 0.932396 -2.442060 0.030765 0
M  V30 10 C 0.698021 -1.966774 1.305923 0
M  V30 11 C 0.309753 -0.666441 1.551183 0
M  V30 12 C 0.134453 0.237760 0.505062 0
M  V30 13 C -0.268418 1.634261 0.624943 0
M  V30 14 O -0.409815 2.368996 -0.386201 0
M  V30 15 N -0.526957 2.260381 1.870661 0
M  V30 16 C -0.930703 3.635081 2.090248 0
M  V30 17 C -2.366364 3.860799 1.783375 0
M  V30 18 C -3.285825 3.664295 2.813122 0
M  V30 19 C -4.648815 3.841386 2.666930 0
M  V30 20 N -5.069602 4.220453 1.463509 0
M  V30 21 C -4.265528 4.436134 0.406864 0
M  V30 22 C -2.912226 4.250857 0.585855 0
M  V30 23 C 0.372710 -0.249410 -0.778838 0
M  V30 24 C 0.760864 -1.552830 -1.009039 0
M  V30 25 H 1.673140 -6.595363 0.756160 0
M  V30 26 H 1.292615 -6.137643 -0.929330 0
M  V30 27 H 2.598389 -7.395120 -0.540412 0
M  V30 28 H 4.842255 -6.745895 -0.125833 0
M  V30 29 H 6.498877 -4.886518 0.127913 0
M  V30 30 H 5.748776 -2.599082 0.286146 0
M  V30 31 H 3.301010 -2.045489 0.197561 0
M  V30 32 H 0.797125 -2.567736 2.216913 0
M  V30 33 H 0.124835 -0.286204 2.542259 0
M  V30 34 H -0.413246 1.659499 2.727030 0
M  V30 35 H -0.776376 3.924130 3.154649 0
M  V30 36 H -0.333193 4.316001 1.412259 0
M  V30 37 H -2.914369 3.354413 3.785702 0
M  V30 38 H -5.331053 3.683106 3.475180 0
M  V30 39 H -4.587710 4.741199 -0.567691 0
M  V30 40 H -2.216904 4.410690 -0.225347 0
M  V30 41 H 0.271689 0.354568 -1.688006 0
M  V30 42 H 0.954203 -1.961913 -1.997683 0
M  V30 END ATOM
M  V30 BEGIN BOND
M  V30 1 1 1 2
M  V30 2 2 2 3
M  V30 3 1 3 4
M  V30 4 2 4 5
M  V30 5 1 5 6
M  V30 6 2 6 7
M  V30 7 1 7 8
M  V30 8 1 8 9
M  V30 9 2 9 10
M  V30 10 1 10 11
M  V30 11 2 11 12
M  V30 12 1 12 13
M  V30 13 2 13 14
M  V30 14 1 13 15
M  V30 15 1 15 16
M  V30 16 1 16 17
M  V30 17 2 17 18
M  V30 18 1 18 19
M  V30 19 2 19 20
M  V30 20 1 20 21
M  V30 21 2 21 22
M  V30 22 1 12 23
M  V30 23 2 23 24
M  V30 24 1 7 2
M  V30 25 1 24 9
M  V30 26 1 22 17
M  V30 27 1 1 25
M  V30 28 1 1 26
M  V30 29 1 1 27
M  V30 30 1 3 28
M  V30 31 1 4 29
M  V30 32 1 5 30
M  V30 33 1 6 31
M  V30 34 1 10 32
M  V30 35 1 11 33
M  V30 36 1 15 34
M  V30 37 1 16 35
M  V30 38 1 16 36
M  V30 39 1 18 37
M  V30 40 1 19 38
M  V30 41 1 21 39
M  V30 42 1 22 40
M  V30 43 1 23 41
M  V30 44 1 24 42
M  V30 END BOND
M  V30 END CTAB
M  END
>  <Dataset>  (574) 
ChEMBL_Kinases

>  <Ligand_Instance>  (574) 
nan

>  <PDB_ID>  (574) 
nan

>  <Standardized_SMILES>  (574) 
Cc1ccccc1Oc1ccc(C(=O)NCc2ccncc2)cc1

>  <Name>  (574) 
nan

>  <Pocket>  (574) 
nan

>  <ATP_Site>  (574) 
nan

>  <Peripheral>  (574) 
nan

>  <Num_H_Atoms_ProtBoundConf>  (574) 
nan

>  <Num_Resolved_Atoms>  (574) 
nan

>  <Num_Not_Resolved_Atoms>  (574) 
nan

$$$$
CHEMBL3393291
     RDKit          3D

  0  0  0  0  0  0  0  0  0  0999 V3000
M  V30 BEGIN CTAB
M  V30 COUNTS 39 41 0 0 0
M  V30 BEGIN ATOM
M  V30 1 O -0.517363 -3.245331 2.102675 0
M  V30 2 C -0.929223 -2.417148 1.232018 0
M  V30 3 N -1.342490 -2.959867 -0.003846 0
M  V30 4 C -1.360509 -4.344535 -0.419717 0
M  V30 5 C 0.006538 -4.809387 -0.757260 0
M  V30 6 C 0.921884 -5.397137 0.088713 0
M  V30 7 C 2.162230 -5.772294 -0.392303 0
M  V30 8 N 2.497218 -5.573992 -1.680574 0
M  V30 9 C 1.668294 -5.009033 -2.573543 0
M  V30 10 C 0.435849 -4.641824 -2.073189 0
M  V30 11 C -0.957096 -1.004868 1.530623 0
M  V30 12 C -1.376579 0.001383 0.684128 0
M  V30 13 C -1.382946 1.338009 1.018468 0
M  V30 14 C -0.946033 1.710070 2.273363 0
M  V30 15 O -0.953273 3.060534 2.608621 0
M  V30 16 C 0.211557 3.777870 2.313989 0
M  V30 17 C 0.149730 4.328433 1.029152 0
M  V30 18 C 1.201481 5.089012 0.513555 0
M  V30 19 C 2.299925 5.272164 1.325511 0
M  V30 20 F 3.366278 6.006868 0.883408 0
M  V30 21 C 2.366061 4.732170 2.591761 0
M  V30 22 C 1.326796 3.979873 3.102670 0
M  V30 23 C -0.510661 0.760047 3.176930 0
M  V30 24 C -0.531205 -0.559562 2.775770 0
M  V30 25 H -1.677692 -2.266678 -0.705568 0
M  V30 26 H -2.075395 -4.506367 -1.235272 0
M  V30 27 H -1.720376 -4.980937 0.442849 0
M  V30 28 H 0.606958 -5.533687 1.100925 0
M  V30 29 H 2.821256 -6.226894 0.338622 0
M  V30 30 H 1.917627 -4.841975 -3.607010 0
M  V30 31 H -0.245954 -4.178581 -2.802971 0
M  V30 32 H -1.717546 -0.279369 -0.293072 0
M  V30 33 H -1.724455 2.051814 0.301718 0
M  V30 34 H -0.681581 4.225646 0.335011 0
M  V30 35 H 1.173876 5.522106 -0.473681 0
M  V30 36 H 3.203161 4.846149 3.266372 0
M  V30 37 H 1.250239 3.503351 4.070347 0
M  V30 38 H -0.162366 1.020265 4.167522 0
M  V30 39 H -0.187251 -1.317099 3.489401 0
M  V30 END ATOM
M  V30 BEGIN BOND
M  V30 1 2 1 2
M  V30 2 1 2 3
M  V30 3 1 3 4
M  V30 4 1 4 5
M  V30 5 2 5 6
M  V30 6 1 6 7
M  V30 7 2 7 8
M  V30 8 1 8 9
M  V30 9 2 9 10
M  V30 10 1 2 11
M  V30 11 2 11 12
M  V30 12 1 12 13
M  V30 13 2 13 14
M  V30 14 1 14 15
M  V30 15 1 15 16
M  V30 16 2 16 17
M  V30 17 1 17 18
M  V30 18 2 18 19
M  V30 19 1 19 20
M  V30 20 1 19 21
M  V30 21 2 21 22
M  V30 22 1 14 23
M  V30 23 2 23 24
M  V30 24 1 10 5
M  V30 25 1 24 11
M  V30 26 1 22 16
M  V30 27 1 3 25
M  V30 28 1 4 26
M  V30 29 1 4 27
M  V30 30 1 6 28
M  V30 31 1 7 29
M  V30 32 1 9 30
M  V30 33 1 10 31
M  V30 34 1 12 32
M  V30 35 1 13 33
M  V30 36 1 17 34
M  V30 37 1 18 35
M  V30 38 1 21 36
M  V30 39 1 22 37
M  V30 40 1 23 38
M  V30 41 1 24 39
M  V30 END BOND
M  V30 END CTAB
M  END
>  <Dataset>  (575) 
ChEMBL_Kinases

>  <Ligand_Instance>  (575) 
nan

>  <PDB_ID>  (575) 
nan

>  <Standardized_SMILES>  (575) 
O=C(NCc1ccncc1)c1ccc(Oc2ccc(F)cc2)cc1

>  <Name>  (575) 
nan

>  <Pocket>  (575) 
nan

>  <ATP_Site>  (575) 
nan

>  <Peripheral>  (575) 
nan

>  <Num_H_Atoms_ProtBoundConf>  (575) 
nan

>  <Num_Resolved_Atoms>  (575) 
nan

>  <Num_Not_Resolved_Atoms>  (575) 
nan

$$$$
CHEMBL3393290
     RDKit          3D

  0  0  0  0  0  0  0  0  0  0999 V3000
M  V30 BEGIN CTAB
M  V30 COUNTS 39 41 0 0 0
M  V30 BEGIN ATOM
M  V30 1 O -0.486393 -3.317244 1.942777 0
M  V30 2 C -0.894250 -2.453136 1.108786 0
M  V30 3 N -1.294491 -2.931610 -0.152333 0
M  V30 4 C -1.303062 -4.298999 -0.632523 0
M  V30 5 C 0.035311 -4.809369 -0.992028 0
M  V30 6 C 0.880231 -5.463475 -0.121097 0
M  V30 7 C 2.117993 -5.892103 -0.590301 0
M  V30 8 N 2.535868 -5.697196 -1.867784 0
M  V30 9 C 1.715994 -5.052422 -2.746172 0
M  V30 10 C 0.480031 -4.622179 -2.285099 0
M  V30 11 C -0.926588 -1.064099 1.483153 0
M  V30 12 C -1.346797 -0.021826 0.683651 0
M  V30 13 C -1.367220 1.299710 1.067837 0
M  V30 14 C -0.937631 1.619732 2.346184 0
M  V30 15 O -0.956437 2.951994 2.738331 0
M  V30 16 C 0.158702 3.750653 2.519797 0
M  V30 17 C 0.097781 4.379546 1.272954 0
M  V30 18 C 1.090861 5.226117 0.825503 0
M  V30 19 C 2.190408 5.456258 1.653841 0
M  V30 20 Cl 3.500334 6.515853 1.169787 0
M  V30 21 C 2.252585 4.836460 2.885003 0
M  V30 22 C 1.256963 3.990746 3.328015 0
M  V30 23 C -0.501571 0.633749 3.207032 0
M  V30 24 C -0.512150 -0.666626 2.745801 0
M  V30 25 H -1.634732 -2.211269 -0.848546 0
M  V30 26 H -2.037405 -4.435011 -1.451513 0
M  V30 27 H -1.665780 -4.952891 0.195491 0
M  V30 28 H 0.560294 -5.625780 0.896087 0
M  V30 29 H 2.721750 -6.402749 0.173369 0
M  V30 30 H 2.045293 -4.893518 -3.770171 0
M  V30 31 H -0.128712 -4.116622 -3.023616 0
M  V30 32 H -1.684520 -0.250938 -0.314404 0
M  V30 33 H -1.712654 2.070169 0.382272 0
M  V30 34 H -0.703948 4.273937 0.551777 0
M  V30 35 H 1.091619 5.731067 -0.118809 0
M  V30 36 H 3.077810 4.962774 3.593561 0
M  V30 37 H 1.200611 3.455510 4.264816 0
M  V30 38 H -0.161178 0.844278 4.204653 0
M  V30 39 H -0.167955 -1.460297 3.420030 0
M  V30 END ATOM
M  V30 BEGIN BOND
M  V30 1 2 1 2
M  V30 2 1 2 3
M  V30 3 1 3 4
M  V30 4 1 4 5
M  V30 5 2 5 6
M  V30 6 1 6 7
M  V30 7 2 7 8
M  V30 8 1 8 9
M  V30 9 2 9 10
M  V30 10 1 2 11
M  V30 11 2 11 12
M  V30 12 1 12 13
M  V30 13 2 13 14
M  V30 14 1 14 15
M  V30 15 1 15 16
M  V30 16 2 16 17
M  V30 17 1 17 18
M  V30 18 2 18 19
M  V30 19 1 19 20
M  V30 20 1 19 21
M  V30 21 2 21 22
M  V30 22 1 14 23
M  V30 23 2 23 24
M  V30 24 1 10 5
M  V30 25 1 24 11
M  V30 26 1 22 16
M  V30 27 1 3 25
M  V30 28 1 4 26
M  V30 29 1 4 27
M  V30 30 1 6 28
M  V30 31 1 7 29
M  V30 32 1 9 30
M  V30 33 1 10 31
M  V30 34 1 12 32
M  V30 35 1 13 33
M  V30 36 1 17 34
M  V30 37 1 18 35
M  V30 38 1 21 36
M  V30 39 1 22 37
M  V30 40 1 23 38
M  V30 41 1 24 39
M  V30 END BOND
M  V30 END CTAB
M  END
>  <Dataset>  (576) 
ChEMBL_Kinases

>  <Ligand_Instance>  (576) 
nan

>  <PDB_ID>  (576) 
nan

>  <Standardized_SMILES>  (576) 
O=C(NCc1ccncc1)c1ccc(Oc2ccc(Cl)cc2)cc1

>  <Name>  (576) 
nan

>  <Pocket>  (576) 
nan

>  <ATP_Site>  (576) 
nan

>  <Peripheral>  (576) 
nan

>  <Num_H_Atoms_ProtBoundConf>  (576) 
nan

>  <Num_Resolved_Atoms>  (576) 
nan

>  <Num_Not_Resolved_Atoms>  (576) 
nan

$$$$
CHEMBL3393063
     RDKit          3D

  0  0  0  0  0  0  0  0  0  0999 V3000
M  V30 BEGIN CTAB
M  V30 COUNTS 39 41 0 0 0
M  V30 BEGIN ATOM
M  V30 1 N 1.578075 -3.763358 4.804872 0
M  V30 2 C 2.244738 -3.630866 3.837724 0
M  V30 3 C 3.035292 -3.485547 2.663289 0
M  V30 4 C 3.875362 -4.599299 2.446351 0
M  V30 5 C 4.693697 -4.536500 1.304720 0
M  V30 6 C 4.656478 -3.456226 0.476951 0
M  V30 7 C 3.851216 -2.383892 0.679372 0
M  V30 8 C 3.022562 -2.393935 1.791865 0
M  V30 9 O 2.145128 -1.502401 2.243157 0
M  V30 10 C 1.718552 -0.271458 1.872082 0
M  V30 11 C 2.098482 0.859573 1.207112 0
M  V30 12 C 1.298359 1.953294 1.032395 0
M  V30 13 C 0.065265 1.936994 1.537598 0
M  V30 14 C -1.072122 2.865206 1.436668 0
M  V30 15 O -1.686300 3.778766 2.005190 0
M  V30 16 N -1.855039 2.737131 0.215374 0
M  V30 17 C -2.650368 2.636154 -0.978406 0
M  V30 18 C -3.502586 1.387089 -0.957845 0
M  V30 19 C -2.593539 0.449692 -1.501119 0
M  V30 20 C -2.934854 -0.908496 -1.674120 0
M  V30 21 N -4.159827 -1.365565 -1.322225 0
M  V30 22 C -4.996157 -0.422329 -0.801737 0
M  V30 23 N -4.705473 0.901292 -0.614345 0
M  V30 24 C -0.486297 0.847135 2.253606 0
M  V30 25 C 0.369570 -0.278844 2.417606 0
M  V30 26 H 3.952807 -5.480212 3.055404 0
M  V30 27 H 5.343621 -5.376884 1.098942 0
M  V30 28 H 5.293579 -3.425308 -0.388249 0
M  V30 29 H 3.734795 -1.469932 0.095635 0
M  V30 30 H 3.092061 0.766073 0.848779 0
M  V30 31 H 1.567976 2.845950 0.517626 0
M  V30 32 H -1.303761 1.953274 -0.313770 0
M  V30 33 H -3.420921 3.516639 -0.915133 0
M  V30 34 H -2.194737 2.816437 -1.923805 0
M  V30 35 H -1.564054 0.515870 -1.860281 0
M  V30 36 H -2.300061 -1.700380 -2.073007 0
M  V30 37 H -6.029006 -0.616380 -0.470864 0
M  V30 38 H -1.502218 0.765110 2.706588 0
M  V30 39 H -0.093327 -1.104670 2.992113 0
M  V30 END ATOM
M  V30 BEGIN BOND
M  V30 1 3 1 2
M  V30 2 1 2 3
M  V30 3 2 3 4
M  V30 4 1 4 5
M  V30 5 2 5 6
M  V30 6 1 6 7
M  V30 7 2 7 8
M  V30 8 1 8 9
M  V30 9 1 9 10
M  V30 10 2 10 11
M  V30 11 1 11 12
M  V30 12 2 12 13
M  V30 13 1 13 14
M  V30 14 2 14 15
M  V30 15 1 14 16
M  V30 16 1 16 17
M  V30 17 1 17 18
M  V30 18 2 18 19
M  V30 19 1 19 20
M  V30 20 2 20 21
M  V30 21 1 21 22
M  V30 22 2 22 23
M  V30 23 1 13 24
M  V30 24 2 24 25
M  V30 25 1 8 3
M  V30 26 1 25 10
M  V30 27 1 23 18
M  V30 28 1 4 26
M  V30 29 1 5 27
M  V30 30 1 6 28
M  V30 31 1 7 29
M  V30 32 1 11 30
M  V30 33 1 12 31
M  V30 34 1 16 32
M  V30 35 1 17 33
M  V30 36 1 17 34
M  V30 37 1 19 35
M  V30 38 1 20 36
M  V30 39 1 22 37
M  V30 40 1 24 38
M  V30 41 1 25 39
M  V30 END BOND
M  V30 END CTAB
M  END
>  <Dataset>  (577) 
ChEMBL_Kinases

>  <Ligand_Instance>  (577) 
nan

>  <PDB_ID>  (577) 
nan

>  <Standardized_SMILES>  (577) 
N#Cc1ccccc1Oc1ccc(C(=O)NCc2ccncn2)cc1

>  <Name>  (577) 
nan

>  <Pocket>  (577) 
nan

>  <ATP_Site>  (577) 
nan

>  <Peripheral>  (577) 
nan

>  <Num_H_Atoms_ProtBoundConf>  (577) 
nan

>  <Num_Resolved_Atoms>  (577) 
nan

>  <Num_Not_Resolved_Atoms>  (577) 
nan

$$$$
CHEMBL3393461
     RDKit          3D

  0  0  0  0  0  0  0  0  0  0999 V3000
M  V30 BEGIN CTAB
M  V30 COUNTS 45 50 0 0 0
M  V30 BEGIN ATOM
M  V30 1 O -2.277041 -0.645130 -0.675450 0
M  V30 2 C -2.468093 -1.907067 -0.653792 0
M  V30 3 C -3.739716 -2.293786 -1.321200 0
M  V30 4 N -4.075788 -3.621504 -0.909337 0
M  V30 5 C -2.985994 -4.552717 -1.002209 0
M  V30 6 C -1.806425 -4.132120 -0.223009 0
M  V30 7 C -1.527019 -2.849701 -0.035408 0
M  V30 8 C -0.425233 -2.197591 0.693091 0
M  V30 9 C 0.313006 -1.220972 -0.108675 0
M  V30 10 C 0.518027 -1.431709 -1.451189 0
M  V30 11 C 1.244962 -0.333264 -1.922867 0
M  V30 12 C 1.431930 0.479035 -0.813214 0
M  V30 13 S 2.336011 2.009112 -1.018869 0
M  V30 14 C 2.465055 2.904533 0.524713 0
M  V30 15 N 1.457106 3.770014 0.755207 0
M  V30 16 C 1.652234 4.389983 1.941728 0
M  V30 17 C 1.017831 5.346493 2.730533 0
M  V30 18 C 1.547084 5.744607 3.942327 0
M  V30 19 C 2.732804 5.175771 4.373571 0
M  V30 20 C 3.411031 4.219541 3.634012 0
M  V30 21 C 2.832202 3.860609 2.428256 0
M  V30 22 N 3.322925 2.955572 1.559900 0
M  V30 23 O 0.872105 -0.078588 0.219923 0
M  V30 24 C 0.457771 -3.212290 1.272923 0
M  V30 25 C 1.609280 -3.171317 2.032594 0
M  V30 26 N 2.050329 -4.431221 2.320285 0
M  V30 27 N 1.189385 -5.289433 1.750175 0
M  V30 28 C 0.246720 -4.568995 1.130220 0
M  V30 29 N -0.877161 -5.038913 0.387649 0
M  V30 30 H -4.545444 -1.625072 -0.946280 0
M  V30 31 H -3.637759 -2.181962 -2.419311 0
M  V30 32 H -4.884363 -3.998635 -1.425479 0
M  V30 33 H -3.326951 -5.519795 -0.569715 0
M  V30 34 H -2.730659 -4.664125 -2.077576 0
M  V30 35 H -0.906701 -1.645180 1.549353 0
M  V30 36 H 0.211074 -2.257278 -2.092559 0
M  V30 37 H 1.558037 -0.219789 -2.961555 0
M  V30 38 H 0.093786 5.735369 2.309374 0
M  V30 39 H 0.969636 6.483100 4.453732 0
M  V30 40 H 3.073532 5.541562 5.324868 0
M  V30 41 H 4.319289 3.803535 3.995171 0
M  V30 42 H 4.154739 2.327929 1.505068 0
M  V30 43 H 2.130682 -2.265706 2.378856 0
M  V30 44 H 2.874922 -4.706554 2.863500 0
M  V30 45 H -1.050318 -6.059358 0.270809 0
M  V30 END ATOM
M  V30 BEGIN BOND
M  V30 1 2 1 2
M  V30 2 1 2 3
M  V30 3 1 3 4
M  V30 4 1 4 5
M  V30 5 1 5 6
M  V30 6 2 6 7
M  V30 7 1 7 8
M  V30 8 1 8 9
M  V30 9 2 9 10
M  V30 10 1 10 11
M  V30 11 2 11 12
M  V30 12 1 12 13
M  V30 13 1 13 14
M  V30 14 2 14 15
M  V30 15 1 15 16
M  V30 16 2 16 17
M  V30 17 1 17 18
M  V30 18 2 18 19
M  V30 19 1 19 20
M  V30 20 2 20 21
M  V30 21 1 21 22
M  V30 22 1 12 23
M  V30 23 1 8 24
M  V30 24 2 24 25
M  V30 25 1 25 26
M  V30 26 1 26 27
M  V30 27 2 27 28
M  V30 28 1 28 29
M  V30 29 1 7 2
M  V30 30 1 23 9
M  V30 31 1 28 24
M  V30 32 1 29 6
M  V30 33 1 22 14
M  V30 34 1 21 16
M  V30 35 1 3 30
M  V30 36 1 3 31
M  V30 37 1 4 32
M  V30 38 1 5 33
M  V30 39 1 5 34
M  V30 40 1 8 35
M  V30 41 1 10 36
M  V30 42 1 11 37
M  V30 43 1 17 38
M  V30 44 1 18 39
M  V30 45 1 19 40
M  V30 46 1 20 41
M  V30 47 1 22 42
M  V30 48 1 25 43
M  V30 49 1 26 44
M  V30 50 1 29 45
M  V30 END BOND
M  V30 END CTAB
M  END
>  <Dataset>  (578) 
ChEMBL_Kinases

>  <Ligand_Instance>  (578) 
nan

>  <PDB_ID>  (578) 
nan

>  <Standardized_SMILES>  (578) 
O=C1CNCC2=C1C(c1ccc(Sc3nc4ccccc4[nH]3)o1)c1c[nH]nc1N2

>  <Name>  (578) 
nan

>  <Pocket>  (578) 
nan

>  <ATP_Site>  (578) 
nan

>  <Peripheral>  (578) 
nan

>  <Num_H_Atoms_ProtBoundConf>  (578) 
nan

>  <Num_Resolved_Atoms>  (578) 
nan

>  <Num_Not_Resolved_Atoms>  (578) 
nan

$$$$
CHEMBL3359890
     RDKit          3D

  0  0  0  0  0  0  0  0  0  0999 V3000
M  V30 BEGIN CTAB
M  V30 COUNTS 57 60 0 0 0
M  V30 BEGIN ATOM
M  V30 1 C 4.189569 -3.951904 4.070929 0
M  V30 2 N 4.839005 -4.733477 3.054345 0
M  V30 3 C 5.943015 -4.129352 2.406743 0
M  V30 4 C 5.693656 -3.802971 0.949480 0
M  V30 5 N 4.276656 -3.670022 0.769054 0
M  V30 6 C 3.578417 -2.460744 0.479406 0
M  V30 7 C 2.206222 -2.357218 0.431171 0
M  V30 8 C 1.533463 -1.187716 0.147292 0
M  V30 9 C 2.246642 -0.031190 -0.109383 0
M  V30 10 C 1.521845 1.200216 -0.403310 0
M  V30 11 C 2.162937 2.370221 -0.666749 0
M  V30 12 N 1.457060 3.486022 -0.933501 0
M  V30 13 C 0.095975 3.432343 -0.937255 0
M  V30 14 C -0.538336 2.236513 -0.667777 0
M  V30 15 C -2.013454 2.191836 -0.671555 0
M  V30 16 C -2.857281 3.250666 -0.924875 0
M  V30 17 C -4.218476 3.093292 -0.898272 0
M  V30 18 C -4.819785 1.890381 -0.622174 0
M  V30 19 C -6.271149 1.845557 -0.622037 0
M  V30 20 O -6.910695 2.890156 -0.896435 0
M  V30 21 N -7.074418 0.711565 -0.335479 0
M  V30 22 S -8.817080 0.808421 -0.374474 0
M  V30 23 C -9.443381 0.409238 -1.976977 0
M  V30 24 O -9.323837 -0.186044 0.627364 0
M  V30 25 O -9.244040 2.214708 -0.000539 0
M  V30 26 C -4.014808 0.801925 -0.362182 0
M  V30 27 C -2.629514 0.973452 -0.391859 0
M  V30 28 N 0.178110 1.128812 -0.402799 0
M  V30 29 C 3.617130 -0.132675 -0.061852 0
M  V30 30 C 4.314119 -1.311653 0.224833 0
M  V30 31 C 3.611344 -4.955695 0.920680 0
M  V30 32 C 3.961248 -5.516181 2.263236 0
M  V30 33 H 3.135215 -3.680567 3.797933 0
M  V30 34 H 4.066805 -4.621287 4.966104 0
M  V30 35 H 4.722641 -3.062087 4.396768 0
M  V30 36 H 6.809394 -4.822976 2.445199 0
M  V30 37 H 6.281162 -3.199015 2.949188 0
M  V30 38 H 6.039727 -4.685965 0.340657 0
M  V30 39 H 6.306778 -2.969358 0.614146 0
M  V30 40 H 1.585950 -3.220872 0.623937 0
M  V30 41 H 0.438119 -1.186094 0.126974 0
M  V30 42 H 3.222017 2.473787 -0.679041 0
M  V30 43 H -0.403815 4.363111 -1.159017 0
M  V30 44 H -2.409815 4.194373 -1.141165 0
M  V30 45 H -4.793876 3.976110 -1.107266 0
M  V30 46 H -6.566216 -0.180769 -0.101064 0
M  V30 47 H -8.609883 0.159562 -2.675786 0
M  V30 48 H -9.979470 1.273488 -2.427560 0
M  V30 49 H -10.131910 -0.445379 -1.898721 0
M  V30 50 H -4.469568 -0.152022 -0.143197 0
M  V30 51 H -2.077229 0.048389 -0.173601 0
M  V30 52 H 4.197617 0.758626 -0.260096 0
M  V30 53 H 5.383756 -1.242971 0.227728 0
M  V30 54 H 4.114933 -5.636509 0.169746 0
M  V30 55 H 2.561300 -4.967535 0.654898 0
M  V30 56 H 3.011194 -5.639110 2.854845 0
M  V30 57 H 4.377028 -6.557162 2.204434 0
M  V30 END ATOM
M  V30 BEGIN BOND
M  V30 1 1 1 2
M  V30 2 1 2 3
M  V30 3 1 3 4
M  V30 4 1 4 5
M  V30 5 1 5 6
M  V30 6 2 6 7
M  V30 7 1 7 8
M  V30 8 2 8 9
M  V30 9 1 9 10
M  V30 10 2 10 11
M  V30 11 1 11 12
M  V30 12 2 12 13
M  V30 13 1 13 14
M  V30 14 1 14 15
M  V30 15 2 15 16
M  V30 16 1 16 17
M  V30 17 2 17 18
M  V30 18 1 18 19
M  V30 19 2 19 20
M  V30 20 1 19 21
M  V30 21 1 21 22
M  V30 22 1 22 23
M  V30 23 2 22 24
M  V30 24 2 22 25
M  V30 25 1 18 26
M  V30 26 2 26 27
M  V30 27 2 14 28
M  V30 28 1 9 29
M  V30 29 2 29 30
M  V30 30 1 5 31
M  V30 31 1 31 32
M  V30 32 1 32 2
M  V30 33 1 30 6
M  V30 34 1 28 10
M  V30 35 1 27 15
M  V30 36 1 1 33
M  V30 37 1 1 34
M  V30 38 1 1 35
M  V30 39 1 3 36
M  V30 40 1 3 37
M  V30 41 1 4 38
M  V30 42 1 4 39
M  V30 43 1 7 40
M  V30 44 1 8 41
M  V30 45 1 11 42
M  V30 46 1 13 43
M  V30 47 1 16 44
M  V30 48 1 17 45
M  V30 49 1 21 46
M  V30 50 1 23 47
M  V30 51 1 23 48
M  V30 52 1 23 49
M  V30 53 1 26 50
M  V30 54 1 27 51
M  V30 55 1 29 52
M  V30 56 1 30 53
M  V30 57 1 31 54
M  V30 58 1 31 55
M  V30 59 1 32 56
M  V30 60 1 32 57
M  V30 END BOND
M  V30 END CTAB
M  END
>  <Dataset>  (579) 
ChEMBL_Kinases

>  <Ligand_Instance>  (579) 
nan

>  <PDB_ID>  (579) 
nan

>  <Standardized_SMILES>  (579) 
CN1CCN(c2ccc(-c3cncc(-c4ccc(C(=O)NS(C)(=O)=O)cc4)n3)cc2)CC1

>  <Name>  (579) 
nan

>  <Pocket>  (579) 
nan

>  <ATP_Site>  (579) 
nan

>  <Peripheral>  (579) 
nan

>  <Num_H_Atoms_ProtBoundConf>  (579) 
nan

>  <Num_Resolved_Atoms>  (579) 
nan

>  <Num_Not_Resolved_Atoms>  (579) 
nan

$$$$
CHEMBL3359891
     RDKit          3D

  0  0  0  0  0  0  0  0  0  0999 V3000
M  V30 BEGIN CTAB
M  V30 COUNTS 51 55 0 0 0
M  V30 BEGIN ATOM
M  V30 1 C 0.885258 -5.312616 -3.052592 0
M  V30 2 N 1.980259 -5.894060 -2.307708 0
M  V30 3 C 3.158394 -5.062595 -2.311746 0
M  V30 4 C 3.491452 -4.634809 -0.887936 0
M  V30 5 N 2.272193 -4.087371 -0.326055 0
M  V30 6 C 2.012191 -2.719929 -0.044702 0
M  V30 7 C 2.925220 -1.750718 -0.306525 0
M  V30 8 C 2.691725 -0.406421 -0.038875 0
M  V30 9 C 1.479233 -0.056969 0.515138 0
M  V30 10 C 1.103737 1.313382 0.845789 0
M  V30 11 C 1.934235 2.392210 0.632823 0
M  V30 12 N 1.605285 3.669094 0.932280 0
M  V30 13 C 0.393975 3.926944 1.474003 0
M  V30 14 C -0.455025 2.875795 1.698144 0
M  V30 15 C -1.781652 3.047497 2.276940 0
M  V30 16 C -2.586642 1.945429 2.475742 0
M  V30 17 C -3.868159 1.995344 3.019604 0
M  V30 18 C -4.356033 3.238815 3.380971 0
M  V30 19 C -5.529756 3.692188 3.930358 0
M  V30 20 O -6.489372 2.956832 4.240185 0
M  V30 21 N -5.482177 5.027458 4.078572 0
M  V30 22 N -4.305142 5.437467 3.636562 0
M  V30 23 C -3.586075 4.376766 3.201417 0
M  V30 24 C -2.325847 4.254895 2.657439 0
M  V30 25 N -0.092350 1.618474 1.387048 0
M  V30 26 C 0.559808 -1.053483 0.776222 0
M  V30 27 C 0.793819 -2.406080 0.507339 0
M  V30 28 C 1.303685 -5.136995 -0.072777 0
M  V30 29 C 1.590254 -6.309142 -0.983153 0
M  V30 30 H 0.983132 -4.192976 -3.141728 0
M  V30 31 H 0.804038 -5.776295 -4.039208 0
M  V30 32 H -0.074198 -5.465213 -2.494050 0
M  V30 33 H 4.044815 -5.660932 -2.640330 0
M  V30 34 H 3.106704 -4.181889 -2.957849 0
M  V30 35 H 4.327521 -3.922923 -0.936748 0
M  V30 36 H 3.800000 -5.586289 -0.364486 0
M  V30 37 H 3.889298 -1.947434 -0.737119 0
M  V30 38 H 3.422034 0.354181 -0.249962 0
M  V30 39 H 2.903115 2.262500 0.209229 0
M  V30 40 H 0.124385 4.923624 1.713206 0
M  V30 41 H -2.261302 0.942018 2.212816 0
M  V30 42 H -4.468564 1.107023 3.159794 0
M  V30 43 H -6.236570 5.633422 4.471414 0
M  V30 44 H -3.960829 6.435152 3.617847 0
M  V30 45 H -1.731164 5.147374 2.520560 0
M  V30 46 H -0.409484 -0.773577 1.219099 0
M  V30 47 H -0.002714 -3.089402 0.756512 0
M  V30 48 H 0.264093 -4.850370 -0.224799 0
M  V30 49 H 1.394444 -5.528254 0.973457 0
M  V30 50 H 2.351965 -7.000542 -0.599334 0
M  V30 51 H 0.654491 -6.893303 -1.078167 0
M  V30 END ATOM
M  V30 BEGIN BOND
M  V30 1 1 1 2
M  V30 2 1 2 3
M  V30 3 1 3 4
M  V30 4 1 4 5
M  V30 5 1 5 6
M  V30 6 2 6 7
M  V30 7 1 7 8
M  V30 8 2 8 9
M  V30 9 1 9 10
M  V30 10 2 10 11
M  V30 11 1 11 12
M  V30 12 2 12 13
M  V30 13 1 13 14
M  V30 14 1 14 15
M  V30 15 2 15 16
M  V30 16 1 16 17
M  V30 17 2 17 18
M  V30 18 1 18 19
M  V30 19 2 19 20
M  V30 20 1 19 21
M  V30 21 1 21 22
M  V30 22 1 22 23
M  V30 23 2 23 24
M  V30 24 2 14 25
M  V30 25 1 9 26
M  V30 26 2 26 27
M  V30 27 1 5 28
M  V30 28 1 28 29
M  V30 29 1 29 2
M  V30 30 1 27 6
M  V30 31 1 25 10
M  V30 32 1 24 15
M  V30 33 1 23 18
M  V30 34 1 1 30
M  V30 35 1 1 31
M  V30 36 1 1 32
M  V30 37 1 3 33
M  V30 38 1 3 34
M  V30 39 1 4 35
M  V30 40 1 4 36
M  V30 41 1 7 37
M  V30 42 1 8 38
M  V30 43 1 11 39
M  V30 44 1 13 40
M  V30 45 1 16 41
M  V30 46 1 17 42
M  V30 47 1 21 43
M  V30 48 1 22 44
M  V30 49 1 24 45
M  V30 50 1 26 46
M  V30 51 1 27 47
M  V30 52 1 28 48
M  V30 53 1 28 49
M  V30 54 1 29 50
M  V30 55 1 29 51
M  V30 END BOND
M  V30 END CTAB
M  END
>  <Dataset>  (580) 
ChEMBL_Kinases

>  <Ligand_Instance>  (580) 
nan

>  <PDB_ID>  (580) 
nan

>  <Standardized_SMILES>  (580) 
CN1CCN(c2ccc(-c3cncc(-c4ccc5c(=O)[nH][nH]c5c4)n3)cc2)CC1

>  <Name>  (580) 
nan

>  <Pocket>  (580) 
nan

>  <ATP_Site>  (580) 
nan

>  <Peripheral>  (580) 
nan

>  <Num_H_Atoms_ProtBoundConf>  (580) 
nan

>  <Num_Resolved_Atoms>  (580) 
nan

>  <Num_Not_Resolved_Atoms>  (580) 
nan

$$$$
CHEMBL3359892
     RDKit          3D

  0  0  0  0  0  0  0  0  0  0999 V3000
M  V30 BEGIN CTAB
M  V30 COUNTS 52 55 0 0 0
M  V30 BEGIN ATOM
M  V30 1 C 3.478910 -6.976657 1.559816 0
M  V30 2 N 2.886603 -5.845469 0.888203 0
M  V30 3 C 3.785026 -5.466140 -0.199676 0
M  V30 4 C 3.023556 -4.700268 -1.260878 0
M  V30 5 N 1.834465 -4.048797 -0.749863 0
M  V30 6 C 1.516067 -2.676862 -0.545654 0
M  V30 7 C 0.297349 -2.248503 -0.059810 0
M  V30 8 C 0.120543 -0.888094 0.091697 0
M  V30 9 C 1.054814 0.084591 -0.199516 0
M  V30 10 C 0.703958 1.483145 0.020230 0
M  V30 11 C 1.576788 2.515365 -0.243907 0
M  V30 12 N 1.153393 3.769877 -0.005774 0
M  V30 13 C -0.066122 4.045488 0.470952 0
M  V30 14 N -0.537998 5.377767 0.732548 0
M  V30 15 C -0.951611 3.005252 0.739405 0
M  V30 16 C -2.309121 3.189005 1.262662 0
M  V30 17 C -3.191571 4.154266 0.767340 0
M  V30 18 C -4.456954 4.259781 1.319991 0
M  V30 19 C -4.848353 3.411467 2.361090 0
M  V30 20 C -6.188377 3.489421 2.979705 0
M  V30 21 O -6.555420 2.742787 3.908135 0
M  V30 22 O -7.056958 4.467561 2.463898 0
M  V30 23 C -3.960305 2.464725 2.835160 0
M  V30 24 C -2.691893 2.349164 2.290859 0
M  V30 25 N -0.524266 1.745700 0.499463 0
M  V30 26 C 2.261515 -0.373654 -0.682697 0
M  V30 27 C 2.484328 -1.741448 -0.852012 0
M  V30 28 C 0.957572 -5.158044 -0.460605 0
M  V30 29 C 1.675032 -6.317384 0.197730 0
M  V30 30 H 3.579228 -6.695647 2.645500 0
M  V30 31 H 2.834053 -7.888291 1.522951 0
M  V30 32 H 4.497850 -7.216041 1.206130 0
M  V30 33 H 4.562774 -4.833001 0.271549 0
M  V30 34 H 4.275354 -6.347880 -0.647461 0
M  V30 35 H 3.724767 -3.913259 -1.607713 0
M  V30 36 H 2.833387 -5.324384 -2.162707 0
M  V30 37 H -0.475534 -2.962070 0.186374 0
M  V30 38 H -0.871949 -0.618900 0.482377 0
M  V30 39 H 2.551095 2.338378 -0.621864 0
M  V30 40 H -0.739181 5.899204 -0.151067 0
M  V30 41 H -0.659103 5.761064 1.691775 0
M  V30 42 H -2.868037 4.790344 -0.028954 0
M  V30 43 H -5.154480 4.988104 0.962629 0
M  V30 44 H -8.018917 4.519972 2.813752 0
M  V30 45 H -4.298238 1.819374 3.648008 0
M  V30 46 H -2.088214 1.576965 2.740387 0
M  V30 47 H 3.009836 0.382471 -0.917303 0
M  V30 48 H 3.474959 -1.940808 -1.237421 0
M  V30 49 H 0.607725 -5.546420 -1.462122 0
M  V30 50 H 0.059884 -4.911527 0.106527 0
M  V30 51 H 1.026724 -6.808344 0.942004 0
M  V30 52 H 2.029386 -7.079884 -0.528155 0
M  V30 END ATOM
M  V30 BEGIN BOND
M  V30 1 1 1 2
M  V30 2 1 2 3
M  V30 3 1 3 4
M  V30 4 1 4 5
M  V30 5 1 5 6
M  V30 6 2 6 7
M  V30 7 1 7 8
M  V30 8 2 8 9
M  V30 9 1 9 10
M  V30 10 2 10 11
M  V30 11 1 11 12
M  V30 12 2 12 13
M  V30 13 1 13 14
M  V30 14 1 13 15
M  V30 15 1 15 16
M  V30 16 2 16 17
M  V30 17 1 17 18
M  V30 18 2 18 19
M  V30 19 1 19 20
M  V30 20 2 20 21
M  V30 21 1 20 22
M  V30 22 1 19 23
M  V30 23 2 23 24
M  V30 24 2 15 25
M  V30 25 1 9 26
M  V30 26 2 26 27
M  V30 27 1 5 28
M  V30 28 1 28 29
M  V30 29 1 29 2
M  V30 30 1 27 6
M  V30 31 1 25 10
M  V30 32 1 24 16
M  V30 33 1 1 30
M  V30 34 1 1 31
M  V30 35 1 1 32
M  V30 36 1 3 33
M  V30 37 1 3 34
M  V30 38 1 4 35
M  V30 39 1 4 36
M  V30 40 1 7 37
M  V30 41 1 8 38
M  V30 42 1 11 39
M  V30 43 1 14 40
M  V30 44 1 14 41
M  V30 45 1 17 42
M  V30 46 1 18 43
M  V30 47 1 22 44
M  V30 48 1 23 45
M  V30 49 1 24 46
M  V30 50 1 26 47
M  V30 51 1 27 48
M  V30 52 1 28 49
M  V30 53 1 28 50
M  V30 54 1 29 51
M  V30 55 1 29 52
M  V30 END BOND
M  V30 END CTAB
M  END
>  <Dataset>  (581) 
ChEMBL_Kinases

>  <Ligand_Instance>  (581) 
nan

>  <PDB_ID>  (581) 
nan

>  <Standardized_SMILES>  (581) 
CN1CCN(c2ccc(-c3cnc(N)c(-c4ccc(C(=O)O)cc4)n3)cc2)CC1

>  <Name>  (581) 
nan

>  <Pocket>  (581) 
nan

>  <ATP_Site>  (581) 
nan

>  <Peripheral>  (581) 
nan

>  <Num_H_Atoms_ProtBoundConf>  (581) 
nan

>  <Num_Resolved_Atoms>  (581) 
nan

>  <Num_Not_Resolved_Atoms>  (581) 
nan

$$$$
CHEMBL3359893
     RDKit          3D

  0  0  0  0  0  0  0  0  0  0999 V3000
M  V30 BEGIN CTAB
M  V30 COUNTS 50 54 0 0 0
M  V30 BEGIN ATOM
M  V30 1 C -0.708908 -5.886650 -0.826524 0
M  V30 2 N -0.195839 -6.520137 0.367226 0
M  V30 3 C 1.044673 -5.932397 0.817572 0
M  V30 4 C 0.850178 -5.129944 2.087405 0
M  V30 5 N -0.384712 -4.392836 2.029914 0
M  V30 6 C -0.515657 -2.987155 1.889537 0
M  V30 7 C 0.563801 -2.154689 1.710070 0
M  V30 8 C 0.470404 -0.785424 1.573740 0
M  V30 9 C -0.785820 -0.186647 1.617323 0
M  V30 10 C -0.948499 1.260037 1.477004 0
M  V30 11 C -1.939972 2.022406 2.067170 0
M  V30 12 N -1.981190 3.352967 1.859127 0
M  V30 13 C -1.048630 3.950015 1.068742 0
M  V30 14 N -0.896685 5.257479 0.723015 0
M  V30 15 C 0.162156 5.368247 -0.073020 0
M  V30 16 C 0.779727 6.430563 -0.715995 0
M  V30 17 N 1.881350 6.277494 -1.496195 0
M  V30 18 C 2.417337 5.052858 -1.669702 0
M  V30 19 C 3.604434 4.802430 -2.496012 0
M  V30 20 O 4.126960 3.663407 -2.674952 0
M  V30 21 O 4.298626 5.785846 -3.182221 0
M  V30 22 C 1.873486 3.932006 -1.070260 0
M  V30 23 C 0.738462 4.124737 -0.272695 0
M  V30 24 C -0.033284 3.234454 0.452583 0
M  V30 25 C 0.010566 1.871447 0.664552 0
M  V30 26 C -1.878929 -1.009321 1.797003 0
M  V30 27 C -1.753582 -2.387852 1.931717 0
M  V30 28 C -1.458273 -5.323041 2.134839 0
M  V30 29 C -1.179425 -6.612121 1.414676 0
M  V30 30 H -1.362363 -5.017770 -0.575634 0
M  V30 31 H 0.154106 -5.558102 -1.449216 0
M  V30 32 H -1.237721 -6.659817 -1.414836 0
M  V30 33 H 1.750336 -6.752037 1.063075 0
M  V30 34 H 1.475546 -5.346666 -0.011752 0
M  V30 35 H 1.715221 -4.450902 2.202324 0
M  V30 36 H 0.895502 -5.818226 2.974760 0
M  V30 37 H 1.565514 -2.516092 1.661867 0
M  V30 38 H 1.326556 -0.139551 1.432537 0
M  V30 39 H -2.651063 1.467992 2.687291 0
M  V30 40 H -1.481233 6.076698 1.004744 0
M  V30 41 H 0.360152 7.409749 -0.583533 0
M  V30 42 H 4.751734 5.608327 -4.074855 0
M  V30 43 H 2.271633 2.926085 -1.182096 0
M  V30 44 H 0.822561 1.373254 0.159291 0
M  V30 45 H -2.856983 -0.534564 1.830625 0
M  V30 46 H -2.683884 -2.917251 2.067421 0
M  V30 47 H -2.450620 -4.907273 1.886680 0
M  V30 48 H -1.541168 -5.588209 3.230777 0
M  V30 49 H -0.904514 -7.432703 2.111477 0
M  V30 50 H -2.130546 -6.942560 0.942678 0
M  V30 END ATOM
M  V30 BEGIN BOND
M  V30 1 1 1 2
M  V30 2 1 2 3
M  V30 3 1 3 4
M  V30 4 1 4 5
M  V30 5 1 5 6
M  V30 6 2 6 7
M  V30 7 1 7 8
M  V30 8 2 8 9
M  V30 9 1 9 10
M  V30 10 2 10 11
M  V30 11 1 11 12
M  V30 12 2 12 13
M  V30 13 1 13 14
M  V30 14 1 14 15
M  V30 15 2 15 16
M  V30 16 1 16 17
M  V30 17 2 17 18
M  V30 18 1 18 19
M  V30 19 2 19 20
M  V30 20 1 19 21
M  V30 21 1 18 22
M  V30 22 2 22 23
M  V30 23 1 23 24
M  V30 24 2 24 25
M  V30 25 1 9 26
M  V30 26 2 26 27
M  V30 27 1 5 28
M  V30 28 1 28 29
M  V30 29 1 29 2
M  V30 30 1 27 6
M  V30 31 1 25 10
M  V30 32 1 24 13
M  V30 33 1 23 15
M  V30 34 1 1 30
M  V30 35 1 1 31
M  V30 36 1 1 32
M  V30 37 1 3 33
M  V30 38 1 3 34
M  V30 39 1 4 35
M  V30 40 1 4 36
M  V30 41 1 7 37
M  V30 42 1 8 38
M  V30 43 1 11 39
M  V30 44 1 14 40
M  V30 45 1 16 41
M  V30 46 1 21 42
M  V30 47 1 22 43
M  V30 48 1 25 44
M  V30 49 1 26 45
M  V30 50 1 27 46
M  V30 51 1 28 47
M  V30 52 1 28 48
M  V30 53 1 29 49
M  V30 54 1 29 50
M  V30 END BOND
M  V30 END CTAB
M  END
>  <Dataset>  (582) 
ChEMBL_Kinases

>  <Ligand_Instance>  (582) 
nan

>  <PDB_ID>  (582) 
nan

>  <Standardized_SMILES>  (582) 
CN1CCN(c2ccc(-c3cnc4[nH]c5cnc(C(=O)O)cc5c4c3)cc2)CC1

>  <Name>  (582) 
nan

>  <Pocket>  (582) 
nan

>  <ATP_Site>  (582) 
nan

>  <Peripheral>  (582) 
nan

>  <Num_H_Atoms_ProtBoundConf>  (582) 
nan

>  <Num_Resolved_Atoms>  (582) 
nan

>  <Num_Not_Resolved_Atoms>  (582) 
nan

$$$$
CHEMBL3359894
     RDKit          3D

  0  0  0  0  0  0  0  0  0  0999 V3000
M  V30 BEGIN CTAB
M  V30 COUNTS 51 55 0 0 0
M  V30 BEGIN ATOM
M  V30 1 C 1.970095 -5.615844 -0.554155 0
M  V30 2 N 2.573334 -6.234163 0.610856 0
M  V30 3 C 3.697550 -5.446855 1.080374 0
M  V30 4 C 3.255924 -4.718069 2.347748 0
M  V30 5 N 1.941065 -4.138808 2.160881 0
M  V30 6 C 1.607783 -2.771067 1.970617 0
M  V30 7 C 2.589700 -1.808822 1.878865 0
M  V30 8 C 2.252130 -0.473895 1.695349 0
M  V30 9 C 0.901264 -0.124937 1.605737 0
M  V30 10 C 0.555674 1.282269 1.412537 0
M  V30 11 C 1.326329 2.325330 1.930016 0
M  V30 12 N 0.977519 3.604846 1.731110 0
M  V30 13 C -0.103363 4.003576 1.042888 0
M  V30 14 N -0.696471 5.155693 0.683544 0
M  V30 15 C -1.812521 4.906064 -0.040781 0
M  V30 16 C -2.773288 5.689732 -0.644657 0
M  V30 17 N -3.816321 5.164904 -1.327513 0
M  V30 18 C -3.972656 3.826930 -1.455064 0
M  V30 19 C -5.061528 3.171627 -2.170993 0
M  V30 20 N -6.099113 3.893950 -2.826358 0
M  V30 21 O -5.173275 1.912850 -2.267963 0
M  V30 22 C -3.040550 3.008080 -0.870400 0
M  V30 23 C -1.973380 3.534985 -0.171745 0
M  V30 24 C -0.890479 2.984923 0.515280 0
M  V30 25 C -0.570932 1.646614 0.694161 0
M  V30 26 C -0.072382 -1.104189 1.700025 0
M  V30 27 C 0.275668 -2.430092 1.882647 0
M  V30 28 C 0.968690 -5.213148 2.195004 0
M  V30 29 C 1.613794 -6.490408 1.651973 0
M  V30 30 H 1.532479 -4.651475 -0.242390 0
M  V30 31 H 2.747775 -5.395498 -1.308068 0
M  V30 32 H 1.196338 -6.316569 -0.942033 0
M  V30 33 H 4.546896 -6.107232 1.393947 0
M  V30 34 H 4.045107 -4.773155 0.292019 0
M  V30 35 H 4.016109 -3.925720 2.500895 0
M  V30 36 H 3.304901 -5.458748 3.171178 0
M  V30 37 H 3.635441 -2.018984 1.940252 0
M  V30 38 H 3.030030 0.284824 1.622988 0
M  V30 39 H 2.208718 2.049113 2.492525 0
M  V30 40 H -0.327626 6.097639 0.939886 0
M  V30 41 H -2.691340 6.766450 -0.570374 0
M  V30 42 H -6.838760 4.617850 -2.682032 0
M  V30 43 H -6.350019 3.773856 -3.847712 0
M  V30 44 H -3.115300 1.926542 -0.940347 0
M  V30 45 H -1.204500 0.863040 0.270499 0
M  V30 46 H -1.097420 -0.763029 1.622339 0
M  V30 47 H -0.565753 -3.096483 1.942271 0
M  V30 48 H 0.037564 -5.005167 1.661130 0
M  V30 49 H 0.794044 -5.408798 3.289388 0
M  V30 50 H 2.092345 -7.039338 2.466659 0
M  V30 51 H 0.800415 -7.087898 1.191655 0
M  V30 END ATOM
M  V30 BEGIN BOND
M  V30 1 1 1 2
M  V30 2 1 2 3
M  V30 3 1 3 4
M  V30 4 1 4 5
M  V30 5 1 5 6
M  V30 6 2 6 7
M  V30 7 1 7 8
M  V30 8 2 8 9
M  V30 9 1 9 10
M  V30 10 2 10 11
M  V30 11 1 11 12
M  V30 12 2 12 13
M  V30 13 1 13 14
M  V30 14 1 14 15
M  V30 15 2 15 16
M  V30 16 1 16 17
M  V30 17 2 17 18
M  V30 18 1 18 19
M  V30 19 1 19 20
M  V30 20 2 19 21
M  V30 21 1 18 22
M  V30 22 2 22 23
M  V30 23 1 23 24
M  V30 24 2 24 25
M  V30 25 1 9 26
M  V30 26 2 26 27
M  V30 27 1 5 28
M  V30 28 1 28 29
M  V30 29 1 29 2
M  V30 30 1 27 6
M  V30 31 1 25 10
M  V30 32 1 24 13
M  V30 33 1 23 15
M  V30 34 1 1 30
M  V30 35 1 1 31
M  V30 36 1 1 32
M  V30 37 1 3 33
M  V30 38 1 3 34
M  V30 39 1 4 35
M  V30 40 1 4 36
M  V30 41 1 7 37
M  V30 42 1 8 38
M  V30 43 1 11 39
M  V30 44 1 14 40
M  V30 45 1 16 41
M  V30 46 1 20 42
M  V30 47 1 20 43
M  V30 48 1 22 44
M  V30 49 1 25 45
M  V30 50 1 26 46
M  V30 51 1 27 47
M  V30 52 1 28 48
M  V30 53 1 28 49
M  V30 54 1 29 50
M  V30 55 1 29 51
M  V30 END BOND
M  V30 END CTAB
M  END
>  <Dataset>  (583) 
ChEMBL_Kinases

>  <Ligand_Instance>  (583) 
nan

>  <PDB_ID>  (583) 
nan

>  <Standardized_SMILES>  (583) 
CN1CCN(c2ccc(-c3cnc4[nH]c5cnc(C(N)=O)cc5c4c3)cc2)CC1

>  <Name>  (583) 
nan

>  <Pocket>  (583) 
nan

>  <ATP_Site>  (583) 
nan

>  <Peripheral>  (583) 
nan

>  <Num_H_Atoms_ProtBoundConf>  (583) 
nan

>  <Num_Resolved_Atoms>  (583) 
nan

>  <Num_Not_Resolved_Atoms>  (583) 
nan

$$$$
CHEMBL3359895
     RDKit          3D

  0  0  0  0  0  0  0  0  0  0999 V3000
M  V30 BEGIN CTAB
M  V30 COUNTS 48 52 0 0 0
M  V30 BEGIN ATOM
M  V30 1 C -3.603015 -4.469884 1.530789 0
M  V30 2 N -2.651496 -5.480673 1.207397 0
M  V30 3 C -1.473707 -5.516559 2.021622 0
M  V30 4 C -0.221633 -5.143903 1.265199 0
M  V30 5 N -0.473193 -4.260463 0.149527 0
M  V30 6 C -0.085084 -2.905197 0.002384 0
M  V30 7 C 0.567240 -2.229364 1.006829 0
M  V30 8 C 0.941479 -0.909769 0.847962 0
M  V30 9 C 0.685033 -0.205478 -0.311956 0
M  V30 10 C 1.067426 1.194071 -0.511209 0
M  V30 11 C 1.393929 1.680071 -1.767627 0
M  V30 12 N 1.734008 2.978737 -1.856386 0
M  V30 13 C 1.768579 3.805830 -0.796044 0
M  V30 14 N 2.065923 5.116804 -0.601518 0
M  V30 15 C 1.933480 5.438590 0.707249 0
M  V30 16 C 2.117209 6.625706 1.408154 0
M  V30 17 N 1.900651 6.623106 2.732789 0
M  V30 18 C 1.516602 5.535135 3.414376 0
M  V30 19 C 1.287124 5.539158 4.829950 0
M  V30 20 N 1.083681 5.534059 5.977966 0
M  V30 21 C 1.319346 4.326005 2.762989 0
M  V30 22 C 1.538838 4.304518 1.382532 0
M  V30 23 C 1.437646 3.294601 0.448509 0
M  V30 24 C 1.076579 1.977762 0.638402 0
M  V30 25 C 0.029119 -0.903492 -1.307473 0
M  V30 26 C -0.350089 -2.222511 -1.160695 0
M  V30 27 C -1.210334 -5.078335 -0.769590 0
M  V30 28 C -2.431996 -5.732975 -0.176057 0
M  V30 29 H -3.649610 -4.411260 2.637981 0
M  V30 30 H -3.332468 -3.449243 1.193291 0
M  V30 31 H -4.596489 -4.771528 1.169427 0
M  V30 32 H -1.630645 -4.892316 2.923736 0
M  V30 33 H -1.341381 -6.560847 2.366861 0
M  V30 34 H 0.364658 -6.053475 0.970847 0
M  V30 35 H 0.427929 -4.627556 1.997766 0
M  V30 36 H 0.824550 -2.662557 1.957584 0
M  V30 37 H 1.459073 -0.368501 1.640368 0
M  V30 38 H 1.364705 1.012312 -2.615429 0
M  V30 39 H 2.348815 5.748402 -1.364277 0
M  V30 40 H 2.422675 7.476859 0.842449 0
M  V30 41 H 1.006786 3.409596 3.270135 0
M  V30 42 H 0.816631 1.568560 1.604535 0
M  V30 43 H -0.168873 -0.343390 -2.216506 0
M  V30 44 H -0.847400 -2.631847 -2.011203 0
M  V30 45 H -0.498736 -5.874514 -1.145417 0
M  V30 46 H -1.466781 -4.509347 -1.678929 0
M  V30 47 H -2.402052 -6.811553 -0.402927 0
M  V30 48 H -3.320709 -5.330555 -0.721635 0
M  V30 END ATOM
M  V30 BEGIN BOND
M  V30 1 1 1 2
M  V30 2 1 2 3
M  V30 3 1 3 4
M  V30 4 1 4 5
M  V30 5 1 5 6
M  V30 6 2 6 7
M  V30 7 1 7 8
M  V30 8 2 8 9
M  V30 9 1 9 10
M  V30 10 2 10 11
M  V30 11 1 11 12
M  V30 12 2 12 13
M  V30 13 1 13 14
M  V30 14 1 14 15
M  V30 15 2 15 16
M  V30 16 1 16 17
M  V30 17 2 17 18
M  V30 18 1 18 19
M  V30 19 3 19 20
M  V30 20 1 18 21
M  V30 21 2 21 22
M  V30 22 1 22 23
M  V30 23 2 23 24
M  V30 24 1 9 25
M  V30 25 2 25 26
M  V30 26 1 5 27
M  V30 27 1 27 28
M  V30 28 1 28 2
M  V30 29 1 26 6
M  V30 30 1 24 10
M  V30 31 1 23 13
M  V30 32 1 22 15
M  V30 33 1 1 29
M  V30 34 1 1 30
M  V30 35 1 1 31
M  V30 36 1 3 32
M  V30 37 1 3 33
M  V30 38 1 4 34
M  V30 39 1 4 35
M  V30 40 1 7 36
M  V30 41 1 8 37
M  V30 42 1 11 38
M  V30 43 1 14 39
M  V30 44 1 16 40
M  V30 45 1 21 41
M  V30 46 1 24 42
M  V30 47 1 25 43
M  V30 48 1 26 44
M  V30 49 1 27 45
M  V30 50 1 27 46
M  V30 51 1 28 47
M  V30 52 1 28 48
M  V30 END BOND
M  V30 END CTAB
M  END
>  <Dataset>  (584) 
ChEMBL_Kinases

>  <Ligand_Instance>  (584) 
nan

>  <PDB_ID>  (584) 
nan

>  <Standardized_SMILES>  (584) 
CN1CCN(c2ccc(-c3cnc4[nH]c5cnc(C#N)cc5c4c3)cc2)CC1

>  <Name>  (584) 
nan

>  <Pocket>  (584) 
nan

>  <ATP_Site>  (584) 
nan

>  <Peripheral>  (584) 
nan

>  <Num_H_Atoms_ProtBoundConf>  (584) 
nan

>  <Num_Resolved_Atoms>  (584) 
nan

>  <Num_Not_Resolved_Atoms>  (584) 
nan

$$$$
CHEMBL3359896
     RDKit          3D

  0  0  0  0  0  0  0  0  0  0999 V3000
M  V30 BEGIN CTAB
M  V30 COUNTS 48 52 0 0 0
M  V30 BEGIN ATOM
M  V30 1 C -2.068698 -5.328403 2.464110 0
M  V30 2 N -1.944169 -6.105227 1.242808 0
M  V30 3 C -0.557278 -6.227071 0.944876 0
M  V30 4 C -0.129950 -5.473628 -0.285799 0
M  V30 5 N -0.769150 -4.183456 -0.358606 0
M  V30 6 C -0.165717 -2.910072 -0.203840 0
M  V30 7 C 1.150664 -2.751568 0.157853 0
M  V30 8 C 1.739464 -1.512482 0.303009 0
M  V30 9 C 1.017259 -0.356708 0.087061 0
M  V30 10 C 1.644333 0.952711 0.242088 0
M  V30 11 C 2.980652 1.161446 -0.031962 0
M  V30 12 N 3.535101 2.395645 0.121867 0
M  V30 13 C 2.751697 3.419047 0.549596 0
M  V30 14 N 3.030544 4.726498 0.786869 0
M  V30 15 C 1.929297 5.379875 1.205042 0
M  V30 16 C 1.581333 6.659283 1.587139 0
M  V30 17 C 0.302465 7.001417 1.975668 0
M  V30 18 C -0.693946 6.024490 1.988637 0
M  V30 19 C -2.042527 6.342362 2.388049 0
M  V30 20 N -3.135813 6.589583 2.701398 0
M  V30 21 N -0.344383 4.778047 1.613790 0
M  V30 22 C 0.903998 4.433311 1.232079 0
M  V30 23 C 1.410356 3.215452 0.826021 0
M  V30 24 C 0.810571 1.966057 0.679596 0
M  V30 25 C -0.314066 -0.511710 -0.278774 0
M  V30 26 C -0.886280 -1.759535 -0.419299 0
M  V30 27 C -2.140984 -4.470214 -0.615374 0
M  V30 28 C -2.768670 -5.513887 0.247722 0
M  V30 29 H -1.419359 -5.717040 3.278153 0
M  V30 30 H -1.769284 -4.290667 2.207340 0
M  V30 31 H -3.135827 -5.285247 2.771836 0
M  V30 32 H 0.100895 -5.936205 1.804527 0
M  V30 33 H -0.328732 -7.304634 0.765204 0
M  V30 34 H 0.961000 -5.306947 -0.181427 0
M  V30 35 H -0.268034 -6.048774 -1.226058 0
M  V30 36 H 1.807794 -3.571151 0.352696 0
M  V30 37 H 2.778360 -1.392209 0.588303 0
M  V30 38 H 3.596461 0.322179 -0.376807 0
M  V30 39 H 3.967024 5.194758 0.669466 0
M  V30 40 H 2.373323 7.418154 1.572733 0
M  V30 41 H 0.055444 8.012369 2.270905 0
M  V30 42 H -0.239353 1.875742 0.912338 0
M  V30 43 H -0.849427 0.408402 -0.439821 0
M  V30 44 H -1.913171 -1.722939 -0.705460 0
M  V30 45 H -2.230312 -4.695786 -1.700787 0
M  V30 46 H -2.731438 -3.538226 -0.473195 0
M  V30 47 H -3.087481 -6.357888 -0.432929 0
M  V30 48 H -3.749963 -5.172368 0.686083 0
M  V30 END ATOM
M  V30 BEGIN BOND
M  V30 1 1 1 2
M  V30 2 1 2 3
M  V30 3 1 3 4
M  V30 4 1 4 5
M  V30 5 1 5 6
M  V30 6 2 6 7
M  V30 7 1 7 8
M  V30 8 2 8 9
M  V30 9 1 9 10
M  V30 10 2 10 11
M  V30 11 1 11 12
M  V30 12 2 12 13
M  V30 13 1 13 14
M  V30 14 1 14 15
M  V30 15 2 15 16
M  V30 16 1 16 17
M  V30 17 2 17 18
M  V30 18 1 18 19
M  V30 19 3 19 20
M  V30 20 1 18 21
M  V30 21 2 21 22
M  V30 22 1 22 23
M  V30 23 2 23 24
M  V30 24 1 9 25
M  V30 25 2 25 26
M  V30 26 1 5 27
M  V30 27 1 27 28
M  V30 28 1 28 2
M  V30 29 1 26 6
M  V30 30 1 24 10
M  V30 31 1 23 13
M  V30 32 1 22 15
M  V30 33 1 1 29
M  V30 34 1 1 30
M  V30 35 1 1 31
M  V30 36 1 3 32
M  V30 37 1 3 33
M  V30 38 1 4 34
M  V30 39 1 4 35
M  V30 40 1 7 36
M  V30 41 1 8 37
M  V30 42 1 11 38
M  V30 43 1 14 39
M  V30 44 1 16 40
M  V30 45 1 17 41
M  V30 46 1 24 42
M  V30 47 1 25 43
M  V30 48 1 26 44
M  V30 49 1 27 45
M  V30 50 1 27 46
M  V30 51 1 28 47
M  V30 52 1 28 48
M  V30 END BOND
M  V30 END CTAB
M  END
>  <Dataset>  (585) 
ChEMBL_Kinases

>  <Ligand_Instance>  (585) 
nan

>  <PDB_ID>  (585) 
nan

>  <Standardized_SMILES>  (585) 
CN1CCN(c2ccc(-c3cnc4[nH]c5ccc(C#N)nc5c4c3)cc2)CC1

>  <Name>  (585) 
nan

>  <Pocket>  (585) 
nan

>  <ATP_Site>  (585) 
nan

>  <Peripheral>  (585) 
nan

>  <Num_H_Atoms_ProtBoundConf>  (585) 
nan

>  <Num_Resolved_Atoms>  (585) 
nan

>  <Num_Not_Resolved_Atoms>  (585) 
nan

$$$$
CHEMBL3392049
     RDKit          3D

  0  0  0  0  0  0  0  0  0  0999 V3000
M  V30 BEGIN CTAB
M  V30 COUNTS 13 13 0 0 0
M  V30 BEGIN ATOM
M  V30 1 O -0.218620 -1.971361 1.847580 0
M  V30 2 N 0.574585 -1.133398 1.094502 0
M  V30 3 C 0.520639 -1.246289 -0.230610 0
M  V30 4 C 1.324856 -0.394996 -0.951475 0
M  V30 5 C 2.158360 0.541114 -0.373753 0
M  V30 6 C 2.204356 0.648049 1.018987 0
M  V30 7 C 1.374072 -0.234525 1.672448 0
M  V30 8 S 1.382771 -0.158405 3.312691 0
M  V30 9 H -1.119442 -1.649354 2.120496 0
M  V30 10 H -0.118737 -1.966185 -0.718330 0
M  V30 11 H 1.345287 -0.416959 -2.043073 0
M  V30 12 H 2.782800 1.200144 -0.981824 0
M  V30 13 H 2.831739 1.355871 1.532509 0
M  V30 END ATOM
M  V30 BEGIN BOND
M  V30 1 1 1 2
M  V30 2 1 2 3
M  V30 3 2 3 4
M  V30 4 1 4 5
M  V30 5 2 5 6
M  V30 6 1 6 7
M  V30 7 2 7 8
M  V30 8 1 7 2
M  V30 9 1 1 9
M  V30 10 1 3 10
M  V30 11 1 4 11
M  V30 12 1 5 12
M  V30 13 1 6 13
M  V30 END BOND
M  V30 END CTAB
M  END
>  <Dataset>  (586) 
ChEMBL_Kinases

>  <Ligand_Instance>  (586) 
nan

>  <PDB_ID>  (586) 
nan

>  <Standardized_SMILES>  (586) 
On1ccccc1=S

>  <Name>  (586) 
PYRITHIONE ZINC

>  <Pocket>  (586) 
nan

>  <ATP_Site>  (586) 
nan

>  <Peripheral>  (586) 
nan

>  <Num_H_Atoms_ProtBoundConf>  (586) 
nan

>  <Num_Resolved_Atoms>  (586) 
nan

>  <Num_Not_Resolved_Atoms>  (586) 
nan

$$$$
CHEMBL3361254
     RDKit          3D

  0  0  0  0  0  0  0  0  0  0999 V3000
M  V30 BEGIN CTAB
M  V30 COUNTS 57 61 0 0 0
M  V30 BEGIN ATOM
M  V30 1 N -1.161555 -0.899069 3.726843 0
M  V30 2 C -0.105714 0.031943 3.928967 0
M  V30 3 O -0.216357 0.411412 5.143173 0
M  V30 4 C 0.693552 0.179352 2.638975 0
M  V30 5 C 1.755101 1.145403 2.922953 0 CFG=1
M  V30 6 C 2.657041 0.684841 4.086757 0
M  V30 7 C 3.539361 1.961469 4.108765 0
M  V30 8 C 3.834295 1.995347 2.657990 0
M  V30 9 S 5.074327 2.438319 1.481502 0
M  V30 10 C 4.136121 1.894610 0.012301 0
M  V30 11 N 4.576714 1.978736 -1.218308 0
M  V30 12 C 3.785036 1.540814 -2.203818 0
M  V30 13 N 2.618681 1.064773 -1.764834 0
M  V30 14 C 2.196612 0.990526 -0.513065 0
M  V30 15 O 0.948906 0.445873 -0.418790 0
M  V30 16 C 0.178208 0.039535 -1.536519 0 CFG=1
M  V30 17 C 0.118289 -1.463144 -1.536487 0
M  V30 18 C -0.770992 -1.856181 -0.409340 0
M  V30 19 C -2.206440 -1.440666 -0.613809 0 CFG=2
M  V30 20 N -3.027308 -2.554642 -0.926767 0
M  V30 21 C -3.099326 -3.558864 0.082852 0
M  V30 22 C -3.023451 -4.972450 -0.384610 0
M  V30 23 O -3.916468 -5.115878 -1.446306 0
M  V30 24 C -3.371213 -4.429054 -2.506676 0
M  V30 25 C -3.179984 -2.948644 -2.259151 0
M  V30 26 C -2.357344 -0.269590 -1.530704 0
M  V30 27 C -1.167713 0.621555 -1.631983 0
M  V30 28 C 2.948729 1.418446 0.542510 0
M  V30 29 C 2.741524 1.447941 1.891490 0
M  V30 30 H -2.072171 -1.408478 3.704879 0
M  V30 31 H -2.076362 -1.409181 3.705630 0
M  V30 32 H -0.066357 0.605162 1.951348 0
M  V30 33 H 1.081772 -0.797247 2.408610 0
M  V30 34 H 1.267170 2.082824 3.322792 0
M  V30 35 H 3.297844 -0.145071 3.793972 0
M  V30 36 H 2.112088 0.544312 5.016154 0
M  V30 37 H 2.988836 2.829142 4.466742 0
M  V30 38 H 4.441072 1.706265 4.681777 0
M  V30 39 H 4.133283 1.605500 -3.200110 0
M  V30 40 H 0.742843 0.307207 -2.486807 0
M  V30 41 H -0.177029 -1.882152 -2.516461 0
M  V30 42 H 1.117389 -1.923142 -1.334621 0
M  V30 43 H -0.764962 -2.949193 -0.209723 0
M  V30 44 H -0.360571 -1.405198 0.512991 0
M  V30 45 H -2.569228 -1.100435 0.382437 0
M  V30 46 H -2.409415 -3.334746 0.920831 0
M  V30 47 H -4.124648 -3.449350 0.548449 0
M  V30 48 H -3.338437 -5.615173 0.472660 0
M  V30 49 H -2.050478 -5.334050 -0.705559 0
M  V30 50 H -4.085348 -4.588191 -3.367526 0
M  V30 51 H -2.420279 -4.901323 -2.882139 0
M  V30 52 H -2.403098 -2.633469 -2.986056 0
M  V30 53 H -4.116660 -2.450999 -2.651677 0
M  V30 54 H -2.591778 -0.666622 -2.540055 0
M  V30 55 H -3.232219 0.369291 -1.277078 0
M  V30 56 H -1.219822 1.407797 -0.811852 0
M  V30 57 H -1.240050 1.240054 -2.552427 0
M  V30 END ATOM
M  V30 BEGIN BOND
M  V30 1 1 1 2
M  V30 2 2 2 3
M  V30 3 1 2 4
M  V30 4 1 4 5
M  V30 5 1 5 6
M  V30 6 1 6 7
M  V30 7 1 7 8
M  V30 8 1 8 9
M  V30 9 1 9 10
M  V30 10 2 10 11
M  V30 11 1 11 12
M  V30 12 2 12 13
M  V30 13 1 13 14
M  V30 14 1 14 15
M  V30 15 1 15 16
M  V30 16 1 16 17
M  V30 17 1 17 18
M  V30 18 1 18 19
M  V30 19 1 19 20
M  V30 20 1 20 21
M  V30 21 1 21 22
M  V30 22 1 22 23
M  V30 23 1 23 24
M  V30 24 1 24 25
M  V30 25 1 19 26
M  V30 26 1 26 27
M  V30 27 2 14 28
M  V30 28 1 28 29
M  V30 29 1 29 5
M  V30 30 2 29 8
M  V30 31 1 28 10
M  V30 32 1 27 16
M  V30 33 1 25 20
M  V30 34 1 1 30
M  V30 35 1 1 31
M  V30 36 1 4 32
M  V30 37 1 4 33
M  V30 38 1 5 34 CFG=1
M  V30 39 1 6 35
M  V30 40 1 6 36
M  V30 41 1 7 37
M  V30 42 1 7 38
M  V30 43 1 12 39
M  V30 44 1 16 40 CFG=3
M  V30 45 1 17 41
M  V30 46 1 17 42
M  V30 47 1 18 43
M  V30 48 1 18 44
M  V30 49 1 19 45 CFG=1
M  V30 50 1 21 46
M  V30 51 1 21 47
M  V30 52 1 22 48
M  V30 53 1 22 49
M  V30 54 1 24 50
M  V30 55 1 24 51
M  V30 56 1 25 52
M  V30 57 1 25 53
M  V30 58 1 26 54
M  V30 59 1 26 55
M  V30 60 1 27 56
M  V30 61 1 27 57
M  V30 END BOND
M  V30 END CTAB
M  END
>  <Dataset>  (587) 
ChEMBL_Kinases

>  <Ligand_Instance>  (587) 
nan

>  <PDB_ID>  (587) 
nan

>  <Standardized_SMILES>  (587) 
NC(=O)C[C@H]1CCc2sc3ncnc(O[C@H]4CC[C@H](N5CCOCC5)CC4)c3c21

>  <Name>  (587) 
nan

>  <Pocket>  (587) 
nan

>  <ATP_Site>  (587) 
nan

>  <Peripheral>  (587) 
nan

>  <Num_H_Atoms_ProtBoundConf>  (587) 
nan

>  <Num_Resolved_Atoms>  (587) 
nan

>  <Num_Not_Resolved_Atoms>  (587) 
nan

$$$$
CHEMBL3361346
     RDKit          3D

  0  0  0  0  0  0  0  0  0  0999 V3000
M  V30 BEGIN CTAB
M  V30 COUNTS 47 50 0 0 0
M  V30 BEGIN ATOM
M  V30 1 C 5.385241 -4.306084 7.463804 0
M  V30 2 O 5.387065 -2.887387 7.344990 0
M  V30 3 C 4.696050 -2.253477 6.320993 0
M  V30 4 C 3.979965 -2.960200 5.378394 0
M  V30 5 C 3.337097 -2.218339 4.411576 0
M  V30 6 C 3.372876 -0.817385 4.339361 0
M  V30 7 C 2.606695 -0.182101 3.221278 0
M  V30 8 O 2.818992 1.094215 3.298275 0
M  V30 9 N 1.719687 -0.681828 2.125801 0
M  V30 10 C 1.280246 0.483372 1.350064 0
M  V30 11 O 1.464991 1.691829 1.395867 0
M  V30 12 N 0.487062 -0.343839 0.435017 0
M  V30 13 C -0.342605 -0.043388 -0.708607 0
M  V30 14 C -1.705104 0.214856 -0.500107 0
M  V30 15 C -2.513932 0.507521 -1.589746 0
M  V30 16 C -1.911353 0.521344 -2.808514 0
M  V30 17 C -0.589892 0.279848 -3.076521 0
M  V30 18 C 0.195854 -0.008738 -1.979162 0
M  V30 19 N -0.353434 0.412444 -4.468343 0
M  V30 20 C -1.564705 0.752150 -5.139644 0
M  V30 21 O -1.710589 0.944652 -6.373956 0
M  V30 22 C -2.556152 0.817711 -4.072171 0
M  V30 23 C -3.825487 1.034727 -4.328151 0
M  V30 24 C -4.904557 1.025387 -3.436064 0
M  V30 25 C -5.843794 1.859227 -2.900111 0
M  V30 26 C -6.831875 1.374052 -2.098586 0
M  V30 27 C -6.832570 -0.041463 -1.851259 0
M  V30 28 S -5.337224 -0.678146 -2.825211 0
M  V30 29 C 4.082794 -0.124706 5.274756 0
M  V30 30 C 4.717611 -0.884342 6.231502 0
M  V30 31 H 6.163778 -4.622148 8.182549 0
M  V30 32 H 5.655177 -4.753858 6.464077 0
M  V30 33 H 4.399379 -4.685690 7.792344 0
M  V30 34 H 3.967595 -4.032580 5.454941 0
M  V30 35 H 2.798727 -2.882088 3.713943 0
M  V30 36 H 2.006577 -1.405739 2.626098 0
M  V30 37 H 0.308066 -1.391787 0.363549 0
M  V30 38 H -2.033000 0.162146 0.552213 0
M  V30 39 H -3.498011 0.697964 -1.252209 0
M  V30 40 H 1.241161 -0.209283 -2.117270 0
M  V30 41 H 0.612361 0.265087 -4.882873 0
M  V30 42 H -4.193748 1.257876 -5.321859 0
M  V30 43 H -5.719434 2.894172 -3.170814 0
M  V30 44 H -7.587656 1.999733 -1.659387 0
M  V30 45 H -7.604462 -0.522985 -1.207619 0
M  V30 46 H 4.105708 0.949400 5.213574 0
M  V30 47 H 5.258915 -0.246403 6.934812 0
M  V30 END ATOM
M  V30 BEGIN BOND
M  V30 1 1 1 2
M  V30 2 1 2 3
M  V30 3 2 3 4
M  V30 4 1 4 5
M  V30 5 2 5 6
M  V30 6 1 6 7
M  V30 7 2 7 8
M  V30 8 1 7 9
M  V30 9 1 9 10
M  V30 10 2 10 11
M  V30 11 1 10 12
M  V30 12 1 12 13
M  V30 13 2 13 14
M  V30 14 1 14 15
M  V30 15 2 15 16
M  V30 16 1 16 17
M  V30 17 2 17 18
M  V30 18 1 17 19
M  V30 19 1 19 20
M  V30 20 2 20 21
M  V30 21 1 20 22
M  V30 22 2 22 23
M  V30 23 1 23 24
M  V30 24 2 24 25
M  V30 25 1 25 26
M  V30 26 2 26 27
M  V30 27 1 27 28
M  V30 28 1 6 29
M  V30 29 2 29 30
M  V30 30 1 30 3
M  V30 31 1 18 13
M  V30 32 1 28 24
M  V30 33 1 22 16
M  V30 34 1 1 31
M  V30 35 1 1 32
M  V30 36 1 1 33
M  V30 37 1 4 34
M  V30 38 1 5 35
M  V30 39 1 9 36
M  V30 40 1 12 37
M  V30 41 1 14 38
M  V30 42 1 15 39
M  V30 43 1 18 40
M  V30 44 1 19 41
M  V30 45 1 23 42
M  V30 46 1 25 43
M  V30 47 1 26 44
M  V30 48 1 27 45
M  V30 49 1 29 46
M  V30 50 1 30 47
M  V30 END BOND
M  V30 END CTAB
M  END
>  <Dataset>  (588) 
ChEMBL_Kinases

>  <Ligand_Instance>  (588) 
nan

>  <PDB_ID>  (588) 
nan

>  <Standardized_SMILES>  (588) 
COc1ccc(C(=O)NC(=O)Nc2ccc3c(c2)NC(=O)/C3=C/c2cccs2)cc1

>  <Name>  (588) 
nan

>  <Pocket>  (588) 
nan

>  <ATP_Site>  (588) 
nan

>  <Peripheral>  (588) 
nan

>  <Num_H_Atoms_ProtBoundConf>  (588) 
nan

>  <Num_Resolved_Atoms>  (588) 
nan

>  <Num_Not_Resolved_Atoms>  (588) 
nan

$$$$
CHEMBL336179
     RDKit          3D

  0  0  0  0  0  0  0  0  0  0999 V3000
M  V30 BEGIN CTAB
M  V30 COUNTS 70 75 0 0 0
M  V30 BEGIN ATOM
M  V30 1 O -0.663634 3.389829 4.418323 0
M  V30 2 C -0.126096 2.243371 4.243469 0
M  V30 3 N 0.361576 1.560884 5.420652 0
M  V30 4 C 0.871899 0.355176 4.805187 0
M  V30 5 O 1.396284 -0.500467 5.599591 0
M  V30 6 C 0.683814 0.346432 3.336730 0
M  V30 7 C 0.093528 1.463458 3.001935 0
M  V30 8 C -0.341197 2.101576 1.769003 0
M  V30 9 C -1.480335 2.029089 1.000804 0
M  V30 10 N -1.369655 2.860708 -0.024362 0
M  V30 11 C -0.174337 3.529270 -0.013660 0
M  V30 12 C 0.466452 4.478602 -0.789500 0
M  V30 13 C 1.715364 4.982052 -0.506887 0
M  V30 14 C 2.371957 4.519175 0.611236 0
M  V30 15 C 1.725467 3.563500 1.390674 0
M  V30 16 C 0.466279 3.048674 1.115015 0
M  V30 17 C -2.351675 3.119525 -1.021467 0
M  V30 18 C -3.453604 2.179071 -1.209975 0
M  V30 19 O -3.084230 0.898273 -1.670981 0
M  V30 20 C -4.278825 0.203884 -1.873335 0
M  V30 21 C -4.130191 -1.118640 -2.465207 0
M  V30 22 O -3.382263 -2.088797 -1.770156 0
M  V30 23 C -3.447087 -3.186039 -2.630141 0
M  V30 24 C -2.867507 -4.451424 -2.246726 0
M  V30 25 O -1.501473 -4.518980 -1.963435 0
M  V30 26 C -1.160127 -5.866370 -1.770966 0
M  V30 27 C 0.260819 -6.084677 -1.437956 0
M  V30 28 O 0.741877 -5.545675 -0.325131 0
M  V30 29 C 0.801121 -4.223334 -0.049960 0
M  V30 30 C 1.426109 -4.157641 1.355832 0
M  V30 31 N 1.617448 -2.809617 1.779277 0
M  V30 32 C 0.663723 -2.054190 2.335900 0
M  V30 33 C 1.206986 -0.838694 2.683624 0
M  V30 34 C 2.552249 -0.912277 2.296618 0
M  V30 35 C 3.615492 -0.020099 2.385256 0
M  V30 36 C 4.897178 -0.320974 1.932407 0
M  V30 37 C 5.130955 -1.557422 1.369124 0
M  V30 38 C 4.091402 -2.455234 1.272408 0
M  V30 39 C 2.820976 -2.161101 1.720181 0
M  V30 40 H 0.344753 1.858512 6.410195 0
M  V30 41 H -2.369889 1.431133 1.123080 0
M  V30 42 H -0.034358 4.849295 -1.665818 0
M  V30 43 H 2.144807 5.717784 -1.159280 0
M  V30 44 H 3.353221 4.901955 0.850831 0
M  V30 45 H 2.312446 3.259875 2.242719 0
M  V30 46 H -2.794164 4.150627 -0.812755 0
M  V30 47 H -1.878276 3.299611 -2.045457 0
M  V30 48 H -4.194473 2.553365 -1.975443 0
M  V30 49 H -4.071566 1.978816 -0.309708 0
M  V30 50 H -4.888790 0.866426 -2.542440 0
M  V30 51 H -4.829847 0.223447 -0.898619 0
M  V30 52 H -5.138806 -1.625421 -2.599192 0
M  V30 53 H -3.698079 -1.004749 -3.511456 0
M  V30 54 H -4.560616 -3.321125 -2.819952 0
M  V30 55 H -3.047973 -2.853578 -3.647678 0
M  V30 56 H -3.361875 -4.817077 -1.307561 0
M  V30 57 H -3.096928 -5.218358 -3.038129 0
M  V30 58 H -1.382603 -6.427948 -2.727840 0
M  V30 59 H -1.858169 -6.262836 -0.996152 0
M  V30 60 H 0.422274 -7.219523 -1.360507 0
M  V30 61 H 0.934965 -5.811366 -2.325149 0
M  V30 62 H -0.162696 -3.691021 -0.019309 0
M  V30 63 H 1.524456 -3.676675 -0.708033 0
M  V30 64 H 0.762885 -4.728653 2.057495 0
M  V30 65 H 2.386153 -4.718383 1.237886 0
M  V30 66 H -0.346615 -2.405959 2.460257 0
M  V30 67 H 3.539932 0.957040 2.801958 0
M  V30 68 H 5.721546 0.368061 2.000217 0
M  V30 69 H 6.114680 -1.841880 0.999554 0
M  V30 70 H 4.268657 -3.426615 0.831389 0
M  V30 END ATOM
M  V30 BEGIN BOND
M  V30 1 2 1 2
M  V30 2 1 2 3
M  V30 3 1 3 4
M  V30 4 2 4 5
M  V30 5 1 4 6
M  V30 6 2 6 7
M  V30 7 1 7 8
M  V30 8 2 8 9
M  V30 9 1 9 10
M  V30 10 1 10 11
M  V30 11 2 11 12
M  V30 12 1 12 13
M  V30 13 2 13 14
M  V30 14 1 14 15
M  V30 15 2 15 16
M  V30 16 1 10 17
M  V30 17 1 17 18
M  V30 18 1 18 19
M  V30 19 1 19 20
M  V30 20 1 20 21
M  V30 21 1 21 22
M  V30 22 1 22 23
M  V30 23 1 23 24
M  V30 24 1 24 25
M  V30 25 1 25 26
M  V30 26 1 26 27
M  V30 27 1 27 28
M  V30 28 1 28 29
M  V30 29 1 29 30
M  V30 30 1 30 31
M  V30 31 1 31 32
M  V30 32 2 32 33
M  V30 33 1 33 34
M  V30 34 2 34 35
M  V30 35 1 35 36
M  V30 36 2 36 37
M  V30 37 1 37 38
M  V30 38 2 38 39
M  V30 39 1 7 2
M  V30 40 1 16 8
M  V30 41 1 39 31
M  V30 42 1 33 6
M  V30 43 1 39 34
M  V30 44 1 16 11
M  V30 45 1 3 40
M  V30 46 1 9 41
M  V30 47 1 12 42
M  V30 48 1 13 43
M  V30 49 1 14 44
M  V30 50 1 15 45
M  V30 51 1 17 46
M  V30 52 1 17 47
M  V30 53 1 18 48
M  V30 54 1 18 49
M  V30 55 1 20 50
M  V30 56 1 20 51
M  V30 57 1 21 52
M  V30 58 1 21 53
M  V30 59 1 23 54
M  V30 60 1 23 55
M  V30 61 1 24 56
M  V30 62 1 24 57
M  V30 63 1 26 58
M  V30 64 1 26 59
M  V30 65 1 27 60
M  V30 66 1 27 61
M  V30 67 1 29 62
M  V30 68 1 29 63
M  V30 69 1 30 64
M  V30 70 1 30 65
M  V30 71 1 32 66
M  V30 72 1 35 67
M  V30 73 1 36 68
M  V30 74 1 37 69
M  V30 75 1 38 70
M  V30 END BOND
M  V30 END CTAB
M  END
>  <Dataset>  (589) 
ChEMBL_Kinases

>  <Ligand_Instance>  (589) 
nan

>  <PDB_ID>  (589) 
nan

>  <Standardized_SMILES>  (589) 
O=C1NC(=O)C2=C1c1cn(c3ccccc13)CCOCCOCCOCCOCCn1cc2c2ccccc21

>  <Name>  (589) 
nan

>  <Pocket>  (589) 
nan

>  <ATP_Site>  (589) 
nan

>  <Peripheral>  (589) 
nan

>  <Num_H_Atoms_ProtBoundConf>  (589) 
nan

>  <Num_Resolved_Atoms>  (589) 
nan

>  <Num_Not_Resolved_Atoms>  (589) 
nan

$$$$
CHEMBL336594
     RDKit          3D

  0  0  0  0  0  0  0  0  0  0999 V3000
M  V30 BEGIN CTAB
M  V30 COUNTS 56 59 0 0 0
M  V30 BEGIN ATOM
M  V30 1 C 4.800106 -6.259813 4.015211 0
M  V30 2 C 4.762715 -4.832142 3.592776 0
M  V30 3 O 4.960027 -3.864455 4.368444 0
M  V30 4 N 4.491600 -4.514268 2.245139 0
M  V30 5 C 4.396161 -3.267546 1.576592 0
M  V30 6 C 3.204767 -2.586937 1.472804 0
M  V30 7 C 3.180130 -1.388023 0.814427 0
M  V30 8 C 4.250646 -0.783583 0.234199 0
M  V30 9 N 4.262968 0.452968 -0.453345 0
M  V30 10 C 3.169553 1.321942 -0.680775 0
M  V30 11 N 3.345343 2.465990 -1.356212 0
M  V30 12 C 2.404807 3.358883 -1.632336 0
M  V30 13 C 1.134522 3.122140 -1.205143 0
M  V30 14 C 0.883476 1.971030 -0.508223 0
M  V30 15 C -0.459621 1.679757 -0.033488 0
M  V30 16 C -1.533066 2.511682 -0.244956 0
M  V30 17 C -2.814839 2.262245 0.192456 0
M  V30 18 C -3.076548 1.108753 0.893824 0
M  V30 19 S -4.682631 0.749245 1.467999 0
M  V30 20 O -5.400821 2.031601 1.781841 0
M  V30 21 O -4.565719 -0.079063 2.717250 0
M  V30 22 N -5.597800 -0.137539 0.331054 0
M  V30 23 C -5.837130 0.494404 -0.911434 0
M  V30 24 C -5.036431 -0.051848 -2.062566 0
M  V30 25 N -5.166019 -1.473721 -2.135608 0
M  V30 26 C -4.680672 -2.050400 -0.920665 0
M  V30 27 C -5.339424 -1.531122 0.318836 0
M  V30 28 C -2.042865 0.228951 1.141139 0
M  V30 29 C -0.785666 0.543625 0.673241 0
M  V30 30 N 1.911659 1.141288 -0.287553 0
M  V30 31 C 5.427621 -1.501495 0.361961 0
M  V30 32 C 5.519347 -2.706239 1.008188 0
M  V30 33 H 4.083005 -6.833851 3.375978 0
M  V30 34 H 5.824066 -6.671630 3.968073 0
M  V30 35 H 4.407677 -6.346595 5.061698 0
M  V30 36 H 4.309734 -5.223265 1.498976 0
M  V30 37 H 2.334332 -3.036531 1.921371 0
M  V30 38 H 2.228464 -0.919347 0.772949 0
M  V30 39 H 5.185467 0.763095 -0.839226 0
M  V30 40 H 2.730589 4.234464 -2.193870 0
M  V30 41 H 0.404661 3.875245 -1.452786 0
M  V30 42 H -1.429857 3.437255 -0.782820 0
M  V30 43 H -3.636109 2.924740 0.016260 0
M  V30 44 H -6.915492 0.452937 -1.155194 0
M  V30 45 H -5.561251 1.569680 -0.806976 0
M  V30 46 H -5.441454 0.376528 -3.000718 0
M  V30 47 H -3.965756 0.214312 -1.982387 0
M  V30 48 H -6.066962 -1.829398 -2.467181 0
M  V30 49 H -4.892126 -3.148575 -0.964825 0
M  V30 50 H -3.577241 -1.959446 -0.916946 0
M  V30 51 H -4.697999 -1.795692 1.186785 0
M  V30 52 H -6.308321 -2.056278 0.469997 0
M  V30 53 H -2.268699 -0.667321 1.691338 0
M  V30 54 H -0.035350 -0.191360 0.906277 0
M  V30 55 H 6.377883 -1.142409 -0.054763 0
M  V30 56 H 6.448044 -3.248729 1.095757 0
M  V30 END ATOM
M  V30 BEGIN BOND
M  V30 1 1 1 2
M  V30 2 2 2 3
M  V30 3 1 2 4
M  V30 4 1 4 5
M  V30 5 2 5 6
M  V30 6 1 6 7
M  V30 7 2 7 8
M  V30 8 1 8 9
M  V30 9 1 9 10
M  V30 10 2 10 11
M  V30 11 1 11 12
M  V30 12 2 12 13
M  V30 13 1 13 14
M  V30 14 1 14 15
M  V30 15 2 15 16
M  V30 16 1 16 17
M  V30 17 2 17 18
M  V30 18 1 18 19
M  V30 19 2 19 20
M  V30 20 2 19 21
M  V30 21 1 19 22
M  V30 22 1 22 23
M  V30 23 1 23 24
M  V30 24 1 24 25
M  V30 25 1 25 26
M  V30 26 1 26 27
M  V30 27 1 18 28
M  V30 28 2 28 29
M  V30 29 2 14 30
M  V30 30 1 8 31
M  V30 31 2 31 32
M  V30 32 1 32 5
M  V30 33 1 30 10
M  V30 34 1 29 15
M  V30 35 1 27 22
M  V30 36 1 1 33
M  V30 37 1 1 34
M  V30 38 1 1 35
M  V30 39 1 4 36
M  V30 40 1 6 37
M  V30 41 1 7 38
M  V30 42 1 9 39
M  V30 43 1 12 40
M  V30 44 1 13 41
M  V30 45 1 16 42
M  V30 46 1 17 43
M  V30 47 1 23 44
M  V30 48 1 23 45
M  V30 49 1 24 46
M  V30 50 1 24 47
M  V30 51 1 25 48
M  V30 52 1 26 49
M  V30 53 1 26 50
M  V30 54 1 27 51
M  V30 55 1 27 52
M  V30 56 1 28 53
M  V30 57 1 29 54
M  V30 58 1 31 55
M  V30 59 1 32 56
M  V30 END BOND
M  V30 END CTAB
M  END
>  <Dataset>  (590) 
ChEMBL_Kinases

>  <Ligand_Instance>  (590) 
nan

>  <PDB_ID>  (590) 
nan

>  <Standardized_SMILES>  (590) 
CC(=O)Nc1ccc(Nc2nccc(-c3ccc(S(=O)(=O)N4CCNCC4)cc3)n2)cc1

>  <Name>  (590) 
nan

>  <Pocket>  (590) 
nan

>  <ATP_Site>  (590) 
nan

>  <Peripheral>  (590) 
nan

>  <Num_H_Atoms_ProtBoundConf>  (590) 
nan

>  <Num_Resolved_Atoms>  (590) 
nan

>  <Num_Not_Resolved_Atoms>  (590) 
nan

$$$$
CHEMBL337236
     RDKit          3D

  0  0  0  0  0  0  0  0  0  0999 V3000
M  V30 BEGIN CTAB
M  V30 COUNTS 67 72 0 0 0
M  V30 BEGIN ATOM
M  V30 1 N 5.028653 -3.115264 7.472591 0
M  V30 2 C 4.483143 -2.218195 6.512976 0
M  V30 3 O 3.303499 -1.775366 6.705159 0
M  V30 4 C 5.252130 -1.814704 5.339286 0
M  V30 5 C 6.526525 -2.164411 4.925195 0
M  V30 6 N 6.814236 -1.534035 3.768573 0
M  V30 7 C 5.759964 -0.767150 3.395297 0
M  V30 8 C 5.591959 0.045735 2.298951 0
M  V30 9 C 4.403594 0.726873 2.151333 0
M  V30 10 C 3.400224 0.596492 3.085197 0
M  V30 11 C 2.136320 1.307932 2.936838 0
M  V30 12 C 1.758616 1.493020 1.616636 0
M  V30 13 C 0.559494 2.161577 1.340950 0
M  V30 14 C -0.279177 2.653489 2.332262 0
M  V30 15 N -1.499999 3.326769 2.031085 0
M  V30 16 C -1.727358 3.425296 0.628790 0
M  V30 17 N -1.391213 4.474994 -0.183002 0
M  V30 18 C -1.670219 4.397224 -1.518245 0
M  V30 19 C -2.280124 3.299459 -2.086860 0
M  V30 20 C -2.609400 2.254789 -1.248663 0
M  V30 21 C -3.253177 1.030416 -1.714706 0
M  V30 22 C -3.533584 0.050263 -0.770344 0
M  V30 23 C -4.136263 -1.138352 -1.156227 0
M  V30 24 C -4.480622 -1.404188 -2.465830 0
M  V30 25 S -5.239153 -2.934970 -2.860946 0
M  V30 26 O -6.088535 -2.809677 -4.095090 0
M  V30 27 O -6.041307 -3.423473 -1.704404 0
M  V30 28 N -3.973365 -4.102139 -3.164290 0
M  V30 29 C -3.197001 -3.636198 -4.295014 0
M  V30 30 C -1.826177 -4.272961 -4.356987 0
M  V30 31 N -1.694275 -5.430583 -3.498105 0
M  V30 32 C -2.055456 -5.182009 -2.131235 0
M  V30 33 C -3.092916 -4.098073 -2.003090 0
M  V30 34 C -4.193071 -0.416378 -3.387917 0
M  V30 35 C -3.594141 0.773030 -3.023952 0
M  V30 36 N -2.326837 2.351891 0.057979 0
M  V30 37 C 0.157186 2.435090 3.622191 0
M  V30 38 C 1.328400 1.783257 3.948792 0
M  V30 39 C 3.614486 -0.241229 4.185298 0
M  V30 40 C 4.800541 -0.945255 4.368741 0
M  V30 41 H 4.994016 -3.017707 8.514068 0
M  V30 42 H 5.522851 -3.971875 7.126827 0
M  V30 43 H 7.174222 -2.853824 5.482228 0
M  V30 44 H 7.706167 -1.611648 3.230533 0
M  V30 45 H 6.368300 0.159964 1.556002 0
M  V30 46 H 4.305085 1.356923 1.278834 0
M  V30 47 H 2.352000 1.141139 0.758447 0
M  V30 48 H 0.302227 2.283918 0.283068 0
M  V30 49 H -2.060096 3.654623 2.847861 0
M  V30 50 H -1.391218 5.240065 -2.119562 0
M  V30 51 H -2.499078 3.240840 -3.142268 0
M  V30 52 H -3.299544 0.172703 0.274449 0
M  V30 53 H -4.358487 -1.915126 -0.412494 0
M  V30 54 H -3.006907 -2.532394 -4.153389 0
M  V30 55 H -3.748694 -3.734236 -5.241863 0
M  V30 56 H -1.680714 -4.632367 -5.402533 0
M  V30 57 H -0.998389 -3.554483 -4.161465 0
M  V30 58 H -0.681562 -5.684372 -3.513274 0
M  V30 59 H -1.184174 -4.869424 -1.486687 0
M  V30 60 H -2.507577 -6.113839 -1.725357 0
M  V30 61 H -2.564298 -3.125404 -2.010381 0
M  V30 62 H -3.658363 -4.265493 -1.064057 0
M  V30 63 H -4.467977 -0.637216 -4.414352 0
M  V30 64 H -3.383233 1.525029 -3.771504 0
M  V30 65 H -0.449429 2.794399 4.465889 0
M  V30 66 H 1.678961 1.607038 4.952324 0
M  V30 67 H 2.811073 -0.320435 4.894223 0
M  V30 END ATOM
M  V30 BEGIN BOND
M  V30 1 1 1 2
M  V30 2 2 2 3
M  V30 3 1 2 4
M  V30 4 2 4 5
M  V30 5 1 5 6
M  V30 6 1 6 7
M  V30 7 2 7 8
M  V30 8 1 8 9
M  V30 9 2 9 10
M  V30 10 1 10 11
M  V30 11 2 11 12
M  V30 12 1 12 13
M  V30 13 2 13 14
M  V30 14 1 14 15
M  V30 15 1 15 16
M  V30 16 2 16 17
M  V30 17 1 17 18
M  V30 18 2 18 19
M  V30 19 1 19 20
M  V30 20 1 20 21
M  V30 21 2 21 22
M  V30 22 1 22 23
M  V30 23 2 23 24
M  V30 24 1 24 25
M  V30 25 2 25 26
M  V30 26 2 25 27
M  V30 27 1 25 28
M  V30 28 1 28 29
M  V30 29 1 29 30
M  V30 30 1 30 31
M  V30 31 1 31 32
M  V30 32 1 32 33
M  V30 33 1 24 34
M  V30 34 2 34 35
M  V30 35 2 20 36
M  V30 36 1 14 37
M  V30 37 2 37 38
M  V30 38 1 10 39
M  V30 39 2 39 40
M  V30 40 1 40 4
M  V30 41 1 40 7
M  V30 42 1 38 11
M  V30 43 1 36 16
M  V30 44 1 35 21
M  V30 45 1 33 28
M  V30 46 1 1 41
M  V30 47 1 1 42
M  V30 48 1 5 43
M  V30 49 1 6 44
M  V30 50 1 8 45
M  V30 51 1 9 46
M  V30 52 1 12 47
M  V30 53 1 13 48
M  V30 54 1 15 49
M  V30 55 1 18 50
M  V30 56 1 19 51
M  V30 57 1 22 52
M  V30 58 1 23 53
M  V30 59 1 29 54
M  V30 60 1 29 55
M  V30 61 1 30 56
M  V30 62 1 30 57
M  V30 63 1 31 58
M  V30 64 1 32 59
M  V30 65 1 32 60
M  V30 66 1 33 61
M  V30 67 1 33 62
M  V30 68 1 34 63
M  V30 69 1 35 64
M  V30 70 1 37 65
M  V30 71 1 38 66
M  V30 72 1 39 67
M  V30 END BOND
M  V30 END CTAB
M  END
>  <Dataset>  (591) 
ChEMBL_Kinases

>  <Ligand_Instance>  (591) 
nan

>  <PDB_ID>  (591) 
nan

>  <Standardized_SMILES>  (591) 
NC(=O)c1c[nH]c2ccc(-c3ccc(Nc4nccc(-c5ccc(S(=O)(=O)N6CCNCC6)cc5)n4)cc3)cc12

>  <Name>  (591) 
nan

>  <Pocket>  (591) 
nan

>  <ATP_Site>  (591) 
nan

>  <Peripheral>  (591) 
nan

>  <Num_H_Atoms_ProtBoundConf>  (591) 
nan

>  <Num_Resolved_Atoms>  (591) 
nan

>  <Num_Not_Resolved_Atoms>  (591) 
nan

$$$$
CHEMBL337300
     RDKit          3D

  0  0  0  0  0  0  0  0  0  0999 V3000
M  V30 BEGIN CTAB
M  V30 COUNTS 32 35 0 0 0
M  V30 BEGIN ATOM
M  V30 1 O -0.953977 1.219560 2.793647 0
M  V30 2 N -1.481243 0.650240 1.834547 0
M  V30 3 C -1.123447 -0.659429 1.531339 0
M  V30 4 C -0.032480 -1.033980 0.814827 0
M  V30 5 C 1.094014 -0.442687 0.145531 0
M  V30 6 C 2.238048 -1.116549 -0.226148 0
M  V30 7 O 2.609464 -2.463380 -0.040983 0
M  V30 8 N 3.108566 -0.319214 -0.863621 0
M  V30 9 C 2.593250 0.913996 -0.949336 0
M  V30 10 C 3.061770 2.081755 -1.508659 0
M  V30 11 C 2.296257 3.227283 -1.468618 0
M  V30 12 C 1.061736 3.163423 -0.857679 0
M  V30 13 I -0.121501 4.915733 -0.792275 0
M  V30 14 C 0.643688 1.972946 -0.315536 0
M  V30 15 C 1.368292 0.809962 -0.328796 0
M  V30 16 N -0.132680 -2.386111 0.851564 0
M  V30 17 C -1.200188 -2.829040 1.533944 0
M  V30 18 C -1.744838 -4.058051 1.859293 0
M  V30 19 C -2.896785 -4.154240 2.602718 0
M  V30 20 C -3.574006 -3.051264 3.065377 0
M  V30 21 C -3.027004 -1.830937 2.738266 0
M  V30 22 C -1.872167 -1.718366 1.993300 0
M  V30 23 H 3.442697 -2.657900 0.504490 0
M  V30 24 H 4.049038 -0.547625 -1.255426 0
M  V30 25 H 4.037663 2.117472 -1.987837 0
M  V30 26 H 2.657128 4.148326 -1.905166 0
M  V30 27 H -0.327314 2.018606 0.112737 0
M  V30 28 H 0.471199 -3.142409 0.439971 0
M  V30 29 H -1.259787 -4.941340 1.525386 0
M  V30 30 H -3.303051 -5.129348 2.844126 0
M  V30 31 H -4.475035 -3.179056 3.645743 0
M  V30 32 H -3.509423 -0.922675 3.070646 0
M  V30 END ATOM
M  V30 BEGIN BOND
M  V30 1 2 1 2
M  V30 2 1 2 3
M  V30 3 2 3 4
M  V30 4 1 4 5
M  V30 5 2 5 6
M  V30 6 1 6 7
M  V30 7 1 6 8
M  V30 8 1 8 9
M  V30 9 2 9 10
M  V30 10 1 10 11
M  V30 11 2 11 12
M  V30 12 1 12 13
M  V30 13 1 12 14
M  V30 14 2 14 15
M  V30 15 1 4 16
M  V30 16 1 16 17
M  V30 17 2 17 18
M  V30 18 1 18 19
M  V30 19 2 19 20
M  V30 20 1 20 21
M  V30 21 2 21 22
M  V30 22 1 22 3
M  V30 23 1 15 5
M  V30 24 1 22 17
M  V30 25 1 15 9
M  V30 26 1 7 23
M  V30 27 1 8 24
M  V30 28 1 10 25
M  V30 29 1 11 26
M  V30 30 1 14 27
M  V30 31 1 16 28
M  V30 32 1 18 29
M  V30 33 1 19 30
M  V30 34 1 20 31
M  V30 35 1 21 32
M  V30 END BOND
M  V30 END CTAB
M  END
>  <Dataset>  (592) 
ChEMBL_Kinases

>  <Ligand_Instance>  (592) 
nan

>  <PDB_ID>  (592) 
nan

>  <Standardized_SMILES>  (592) 
O=Nc1c(-c2c(O)[nH]c3ccc(I)cc23)[nH]c2ccccc12

>  <Name>  (592) 
nan

>  <Pocket>  (592) 
nan

>  <ATP_Site>  (592) 
nan

>  <Peripheral>  (592) 
nan

>  <Num_H_Atoms_ProtBoundConf>  (592) 
nan

>  <Num_Resolved_Atoms>  (592) 
nan

>  <Num_Not_Resolved_Atoms>  (592) 
nan

$$$$
CHEMBL338479
     RDKit          3D

  0  0  0  0  0  0  0  0  0  0999 V3000
M  V30 BEGIN CTAB
M  V30 COUNTS 30 31 0 0 0
M  V30 BEGIN ATOM
M  V30 1 C 1.900539 -3.203116 3.618818 0
M  V30 2 C 2.871012 -2.062784 3.308055 0
M  V30 3 O 2.056920 -0.986574 2.815780 0
M  V30 4 C 1.273450 -1.114459 1.692680 0
M  V30 5 O 1.387647 -2.266541 1.202797 0
M  V30 6 C 0.443694 0.001616 1.202031 0
M  V30 7 C 0.413924 1.200961 1.831152 0
M  V30 8 N 1.118759 1.581510 2.988104 0
M  V30 9 S -0.761660 2.142090 0.780552 0
M  V30 10 C -1.043418 0.808786 -0.340768 0
M  V30 11 C -0.303756 -0.224325 0.074094 0
M  V30 12 C -0.487488 -1.391122 -0.830689 0
M  V30 13 C -0.817733 -0.856603 -2.197654 0
M  V30 14 C -2.162467 -0.184896 -2.206350 0
M  V30 15 C -2.003005 1.117869 -1.457436 0
M  V30 16 H 1.982418 -3.543172 4.669561 0
M  V30 17 H 2.178613 -4.109620 3.008718 0
M  V30 18 H 0.847915 -2.930346 3.437809 0
M  V30 19 H 3.619080 -2.391338 2.569429 0
M  V30 20 H 3.351176 -1.801632 4.248311 0
M  V30 21 H 2.114242 1.930115 3.032450 0
M  V30 22 H 0.715656 1.558048 3.960909 0
M  V30 23 H 0.445780 -1.981770 -0.948597 0
M  V30 24 H -1.243607 -2.109201 -0.458951 0
M  V30 25 H -0.070923 -0.060851 -2.430253 0
M  V30 26 H -0.683658 -1.617194 -2.982773 0
M  V30 27 H -2.831206 -0.813899 -1.558958 0
M  V30 28 H -2.583080 -0.073392 -3.219055 0
M  V30 29 H -2.982510 1.483106 -1.079326 0
M  V30 30 H -1.543440 1.881591 -2.147535 0
M  V30 END ATOM
M  V30 BEGIN BOND
M  V30 1 1 1 2
M  V30 2 1 2 3
M  V30 3 1 3 4
M  V30 4 2 4 5
M  V30 5 1 4 6
M  V30 6 2 6 7
M  V30 7 1 7 8
M  V30 8 1 7 9
M  V30 9 1 9 10
M  V30 10 2 10 11
M  V30 11 1 11 12
M  V30 12 1 12 13
M  V30 13 1 13 14
M  V30 14 1 14 15
M  V30 15 1 11 6
M  V30 16 1 15 10
M  V30 17 1 1 16
M  V30 18 1 1 17
M  V30 19 1 1 18
M  V30 20 1 2 19
M  V30 21 1 2 20
M  V30 22 1 8 21
M  V30 23 1 8 22
M  V30 24 1 12 23
M  V30 25 1 12 24
M  V30 26 1 13 25
M  V30 27 1 13 26
M  V30 28 1 14 27
M  V30 29 1 14 28
M  V30 30 1 15 29
M  V30 31 1 15 30
M  V30 END BOND
M  V30 END CTAB
M  END
>  <Dataset>  (593) 
ChEMBL_Kinases

>  <Ligand_Instance>  (593) 
nan

>  <PDB_ID>  (593) 
nan

>  <Standardized_SMILES>  (593) 
CCOC(=O)c1c(N)sc2c1CCCC2

>  <Name>  (593) 
nan

>  <Pocket>  (593) 
nan

>  <ATP_Site>  (593) 
nan

>  <Peripheral>  (593) 
nan

>  <Num_H_Atoms_ProtBoundConf>  (593) 
nan

>  <Num_Resolved_Atoms>  (593) 
nan

>  <Num_Not_Resolved_Atoms>  (593) 
nan

$$$$
CHEMBL338848
     RDKit          3D

  0  0  0  0  0  0  0  0  0  0999 V3000
M  V30 BEGIN CTAB
M  V30 COUNTS 53 56 0 0 0
M  V30 BEGIN ATOM
M  V30 1 C 2.103050 -6.822457 -0.620487 0
M  V30 2 O 3.436969 -6.534062 -0.238500 0
M  V30 3 C 3.778003 -5.214716 0.032649 0
M  V30 4 C 2.827639 -4.220343 -0.072335 0
M  V30 5 C 3.235635 -2.934653 0.211272 0
M  V30 6 C 4.498210 -2.538912 0.589872 0
M  V30 7 N 4.897056 -1.211798 0.877132 0
M  V30 8 C 4.125506 -0.027215 0.847321 0
M  V30 9 N 4.700475 1.147305 1.157299 0
M  V30 10 C 4.065120 2.326296 1.161409 0
M  V30 11 C 2.730028 2.344123 0.825824 0
M  V30 12 C 2.098602 1.181373 0.503196 0
M  V30 13 C 0.688273 1.188193 0.146940 0
M  V30 14 C -0.064889 2.333314 0.116591 0
M  V30 15 C -1.398607 2.357323 -0.217940 0
M  V30 16 C -2.058986 1.187537 -0.549169 0
M  V30 17 S -3.752717 1.214007 -0.974489 0
M  V30 18 O -4.011181 0.068227 -1.915823 0
M  V30 19 O -4.062945 2.469627 -1.728552 0
M  V30 20 N -4.690029 1.006534 0.414194 0
M  V30 21 C -4.537977 2.018584 1.409222 0
M  V30 22 C -5.352443 1.834462 2.632297 0
M  V30 23 N -6.033277 0.560477 2.709922 0
M  V30 24 C -5.099619 -0.483736 2.328765 0
M  V30 25 C -4.864700 -0.325324 0.855081 0
M  V30 26 C -1.342843 0.009247 -0.532848 0
M  V30 27 C -0.008058 0.048382 -0.189196 0
M  V30 28 N 2.827921 0.074080 0.532914 0
M  V30 29 C 5.404347 -3.574211 0.677828 0
M  V30 30 C 5.061962 -4.879741 0.408258 0
M  V30 31 H 1.777970 -6.177423 -1.475842 0
M  V30 32 H 2.044648 -7.858559 -0.988695 0
M  V30 33 H 1.397511 -6.611586 0.205041 0
M  V30 34 H 1.818922 -4.455188 -0.363469 0
M  V30 35 H 2.460222 -2.192076 0.116030 0
M  V30 36 H 5.917738 -1.096152 1.152369 0
M  V30 37 H 4.650989 3.198944 1.431911 0
M  V30 38 H 2.277345 3.323769 0.848285 0
M  V30 39 H 0.333153 3.287416 0.351130 0
M  V30 40 H -1.993592 3.259386 -0.242271 0
M  V30 41 H -3.465164 2.141437 1.662519 0
M  V30 42 H -4.851134 2.994009 0.934292 0
M  V30 43 H -4.680172 1.855689 3.540018 0
M  V30 44 H -6.076143 2.653652 2.796868 0
M  V30 45 H -6.797841 0.571741 1.978858 0
M  V30 46 H -4.132607 -0.416485 2.845871 0
M  V30 47 H -5.618713 -1.440592 2.528892 0
M  V30 48 H -5.634251 -0.889012 0.250148 0
M  V30 49 H -3.914205 -0.891888 0.629666 0
M  V30 50 H -1.852654 -0.913157 -0.791279 0
M  V30 51 H 0.474596 -0.908342 -0.200954 0
M  V30 52 H 6.434721 -3.390027 0.967448 0
M  V30 53 H 5.814203 -5.661458 0.492124 0
M  V30 END ATOM
M  V30 BEGIN BOND
M  V30 1 1 1 2
M  V30 2 1 2 3
M  V30 3 2 3 4
M  V30 4 1 4 5
M  V30 5 2 5 6
M  V30 6 1 6 7
M  V30 7 1 7 8
M  V30 8 2 8 9
M  V30 9 1 9 10
M  V30 10 2 10 11
M  V30 11 1 11 12
M  V30 12 1 12 13
M  V30 13 2 13 14
M  V30 14 1 14 15
M  V30 15 2 15 16
M  V30 16 1 16 17
M  V30 17 2 17 18
M  V30 18 2 17 19
M  V30 19 1 17 20
M  V30 20 1 20 21
M  V30 21 1 21 22
M  V30 22 1 22 23
M  V30 23 1 23 24
M  V30 24 1 24 25
M  V30 25 1 16 26
M  V30 26 2 26 27
M  V30 27 2 12 28
M  V30 28 1 6 29
M  V30 29 2 29 30
M  V30 30 1 30 3
M  V30 31 1 28 8
M  V30 32 1 27 13
M  V30 33 1 25 20
M  V30 34 1 1 31
M  V30 35 1 1 32
M  V30 36 1 1 33
M  V30 37 1 4 34
M  V30 38 1 5 35
M  V30 39 1 7 36
M  V30 40 1 10 37
M  V30 41 1 11 38
M  V30 42 1 14 39
M  V30 43 1 15 40
M  V30 44 1 21 41
M  V30 45 1 21 42
M  V30 46 1 22 43
M  V30 47 1 22 44
M  V30 48 1 23 45
M  V30 49 1 24 46
M  V30 50 1 24 47
M  V30 51 1 25 48
M  V30 52 1 25 49
M  V30 53 1 26 50
M  V30 54 1 27 51
M  V30 55 1 29 52
M  V30 56 1 30 53
M  V30 END BOND
M  V30 END CTAB
M  END
>  <Dataset>  (594) 
ChEMBL_Kinases

>  <Ligand_Instance>  (594) 
nan

>  <PDB_ID>  (594) 
nan

>  <Standardized_SMILES>  (594) 
COc1ccc(Nc2nccc(-c3ccc(S(=O)(=O)N4CCNCC4)cc3)n2)cc1

>  <Name>  (594) 
nan

>  <Pocket>  (594) 
nan

>  <ATP_Site>  (594) 
nan

>  <Peripheral>  (594) 
nan

>  <Num_H_Atoms_ProtBoundConf>  (594) 
nan

>  <Num_Resolved_Atoms>  (594) 
nan

>  <Num_Not_Resolved_Atoms>  (594) 
nan

$$$$
CHEMBL3360318
     RDKit          3D

  0  0  0  0  0  0  0  0  0  0999 V3000
M  V30 BEGIN CTAB
M  V30 COUNTS 39 42 0 0 0
M  V30 BEGIN ATOM
M  V30 1 C 1.308024 -4.222805 4.267016 0
M  V30 2 O 2.071517 -3.061210 4.590273 0
M  V30 3 C 2.197494 -2.046748 3.651109 0
M  V30 4 C 2.928760 -0.902315 3.922221 0
M  V30 5 C 3.077512 0.127167 3.016345 0
M  V30 6 C 2.468535 0.010441 1.781742 0
M  V30 7 C 2.503699 0.990463 0.678830 0
M  V30 8 C 3.622824 1.658375 0.227094 0
M  V30 9 C 3.517395 2.552620 -0.816909 0
M  V30 10 C 2.309654 2.807523 -1.437003 0
M  V30 11 C 1.200813 2.133748 -0.975794 0
M  V30 12 N -0.092702 2.161744 -1.361767 0
M  V30 13 C -0.789834 1.308716 -0.584305 0
M  V30 14 N -2.119224 0.826578 -0.400982 0
M  V30 15 C -2.644582 -0.318152 -1.072312 0
M  V30 16 O -1.903722 -0.945856 -1.873230 0
M  V30 17 C -4.058919 -0.685923 -0.764073 0
M  V30 18 C -4.368261 -2.210562 -0.774441 0
M  V30 19 C -4.898008 -1.322461 -1.834677 0
M  V30 20 N 0.095308 0.767217 0.272769 0
M  V30 21 N 1.322967 1.251587 0.059073 0
M  V30 22 C 1.741167 -1.128844 1.513236 0
M  V30 23 C 1.579183 -2.170292 2.403656 0
M  V30 24 H 0.286738 -3.887480 4.043946 0
M  V30 25 H 1.309966 -4.915070 5.128524 0
M  V30 26 H 1.715631 -4.721818 3.347181 0
M  V30 27 H 3.425901 -0.766172 4.880821 0
M  V30 28 H 3.626712 1.031966 3.165332 0
M  V30 29 H 4.550797 1.432270 0.737893 0
M  V30 30 H 4.399188 3.074658 -1.168031 0
M  V30 31 H 2.180324 3.492721 -2.250234 0
M  V30 32 H -2.721518 1.376647 0.281127 0
M  V30 33 H -4.633683 -0.070622 -0.042677 0
M  V30 34 H -4.958582 -2.536565 0.099777 0
M  V30 35 H -3.497274 -2.857334 -1.030638 0
M  V30 36 H -4.413532 -1.405601 -2.829961 0
M  V30 37 H -5.992050 -1.099989 -1.869928 0
M  V30 38 H 1.230378 -1.304883 0.571973 0
M  V30 39 H 1.008367 -3.064540 2.193137 0
M  V30 END ATOM
M  V30 BEGIN BOND
M  V30 1 1 1 2
M  V30 2 1 2 3
M  V30 3 2 3 4
M  V30 4 1 4 5
M  V30 5 2 5 6
M  V30 6 1 6 7
M  V30 7 2 7 8
M  V30 8 1 8 9
M  V30 9 2 9 10
M  V30 10 1 10 11
M  V30 11 2 11 12
M  V30 12 1 12 13
M  V30 13 1 13 14
M  V30 14 1 14 15
M  V30 15 2 15 16
M  V30 16 1 15 17
M  V30 17 1 17 18
M  V30 18 1 18 19
M  V30 19 2 13 20
M  V30 20 1 20 21
M  V30 21 1 6 22
M  V30 22 2 22 23
M  V30 23 1 23 3
M  V30 24 1 21 7
M  V30 25 1 21 11
M  V30 26 1 19 17
M  V30 27 1 1 24
M  V30 28 1 1 25
M  V30 29 1 1 26
M  V30 30 1 4 27
M  V30 31 1 5 28
M  V30 32 1 8 29
M  V30 33 1 9 30
M  V30 34 1 10 31
M  V30 35 1 14 32
M  V30 36 1 17 33
M  V30 37 1 18 34
M  V30 38 1 18 35
M  V30 39 1 19 36
M  V30 40 1 19 37
M  V30 41 1 22 38
M  V30 42 1 23 39
M  V30 END BOND
M  V30 END CTAB
M  END
>  <Dataset>  (595) 
ChEMBL_Kinases

>  <Ligand_Instance>  (595) 
nan

>  <PDB_ID>  (595) 
nan

>  <Standardized_SMILES>  (595) 
COc1ccc(-c2cccc3nc(NC(=O)C4CC4)nn23)cc1

>  <Name>  (595) 
nan

>  <Pocket>  (595) 
nan

>  <ATP_Site>  (595) 
nan

>  <Peripheral>  (595) 
nan

>  <Num_H_Atoms_ProtBoundConf>  (595) 
nan

>  <Num_Resolved_Atoms>  (595) 
nan

>  <Num_Not_Resolved_Atoms>  (595) 
nan

$$$$
CHEMBL3393460
     RDKit          3D

  0  0  0  0  0  0  0  0  0  0999 V3000
M  V30 BEGIN CTAB
M  V30 COUNTS 45 49 0 0 0
M  V30 BEGIN ATOM
M  V30 1 O 0.104024 -1.099867 -1.939876 0
M  V30 2 C -0.673870 -1.608039 -1.122336 0
M  V30 3 C -2.141606 -1.719923 -1.437570 0
M  V30 4 N -2.825193 -1.227004 -0.252319 0
M  V30 5 C -2.536720 -2.020904 0.912418 0
M  V30 6 C -1.105022 -2.298929 1.113770 0
M  V30 7 C -0.196901 -2.113222 0.167986 0
M  V30 8 C 1.266783 -2.370488 0.293867 0
M  V30 9 C 2.044643 -1.115471 0.015350 0
M  V30 10 C 3.304960 -1.177647 -0.546569 0
M  V30 11 C 3.963879 0.011801 -0.775824 0
M  V30 12 C 3.431725 1.267225 -0.473650 0
M  V30 13 C 2.157125 1.328823 0.094570 0
M  V30 14 O 1.562074 2.524969 0.421492 0
M  V30 15 C 0.302021 2.643903 0.986305 0
M  V30 16 C -0.662619 2.748005 -0.009834 0
M  V30 17 C -2.016515 2.878344 0.317923 0
M  V30 18 C -2.385502 2.902531 1.647793 0
M  V30 19 Cl -4.080442 3.065078 2.126623 0
M  V30 20 C -1.423927 2.798967 2.618342 0
M  V30 21 Cl -1.809634 2.821219 4.340271 0
M  V30 22 C -0.087659 2.670173 2.311345 0
M  V30 23 C 1.510125 0.123450 0.317699 0
M  V30 24 C 1.558922 -2.874594 1.661353 0
M  V30 25 C 2.831478 -3.219178 2.129248 0
M  V30 26 N 2.664926 -3.629095 3.417100 0
M  V30 27 N 1.371173 -3.548143 3.740082 0
M  V30 28 C 0.665462 -3.090466 2.690203 0
M  V30 29 N -0.690708 -2.788162 2.384027 0
M  V30 30 H -2.414561 -1.091049 -2.291165 0
M  V30 31 H -2.383806 -2.801278 -1.581997 0
M  V30 32 H -2.485434 -0.252693 -0.098540 0
M  V30 33 H -3.136105 -2.964594 0.912467 0
M  V30 34 H -2.880726 -1.433062 1.804669 0
M  V30 35 H 1.515858 -3.138850 -0.475973 0
M  V30 36 H 3.738770 -2.132319 -0.789268 0
M  V30 37 H 4.951969 -0.012185 -1.215060 0
M  V30 38 H 3.991785 2.179601 -0.673718 0
M  V30 39 H -0.509871 2.742738 -1.079651 0
M  V30 40 H -2.810920 2.963285 -0.416030 0
M  V30 41 H 0.753287 2.581214 2.983378 0
M  V30 42 H 0.532362 0.166830 0.753381 0
M  V30 43 H 3.795074 -3.181334 1.597718 0
M  V30 44 H 3.471162 -3.947098 4.009116 0
M  V30 45 H -1.403012 -2.935568 3.131031 0
M  V30 END ATOM
M  V30 BEGIN BOND
M  V30 1 2 1 2
M  V30 2 1 2 3
M  V30 3 1 3 4
M  V30 4 1 4 5
M  V30 5 1 5 6
M  V30 6 2 6 7
M  V30 7 1 7 8
M  V30 8 1 8 9
M  V30 9 2 9 10
M  V30 10 1 10 11
M  V30 11 2 11 12
M  V30 12 1 12 13
M  V30 13 1 13 14
M  V30 14 1 14 15
M  V30 15 2 15 16
M  V30 16 1 16 17
M  V30 17 2 17 18
M  V30 18 1 18 19
M  V30 19 1 18 20
M  V30 20 1 20 21
M  V30 21 2 20 22
M  V30 22 2 13 23
M  V30 23 1 8 24
M  V30 24 2 24 25
M  V30 25 1 25 26
M  V30 26 1 26 27
M  V30 27 2 27 28
M  V30 28 1 28 29
M  V30 29 1 7 2
M  V30 30 1 23 9
M  V30 31 1 28 24
M  V30 32 1 29 6
M  V30 33 1 22 15
M  V30 34 1 3 30
M  V30 35 1 3 31
M  V30 36 1 4 32
M  V30 37 1 5 33
M  V30 38 1 5 34
M  V30 39 1 8 35
M  V30 40 1 10 36
M  V30 41 1 11 37
M  V30 42 1 12 38
M  V30 43 1 16 39
M  V30 44 1 17 40
M  V30 45 1 22 41
M  V30 46 1 23 42
M  V30 47 1 25 43
M  V30 48 1 26 44
M  V30 49 1 29 45
M  V30 END BOND
M  V30 END CTAB
M  END
>  <Dataset>  (596) 
ChEMBL_Kinases

>  <Ligand_Instance>  (596) 
nan

>  <PDB_ID>  (596) 
nan

>  <Standardized_SMILES>  (596) 
O=C1CNCC2=C1C(c1cccc(Oc3ccc(Cl)c(Cl)c3)c1)c1c[nH]nc1N2

>  <Name>  (596) 
nan

>  <Pocket>  (596) 
nan

>  <ATP_Site>  (596) 
nan

>  <Peripheral>  (596) 
nan

>  <Num_H_Atoms_ProtBoundConf>  (596) 
nan

>  <Num_Resolved_Atoms>  (596) 
nan

>  <Num_Not_Resolved_Atoms>  (596) 
nan

$$$$
CHEMBL3393459
     RDKit          3D

  0  0  0  0  0  0  0  0  0  0999 V3000
M  V30 BEGIN CTAB
M  V30 COUNTS 49 53 0 0 0
M  V30 BEGIN ATOM
M  V30 1 C -0.830626 -5.703657 3.601570 0
M  V30 2 O -1.155961 -5.421994 2.256007 0
M  V30 3 C -0.306224 -4.648634 1.475474 0
M  V30 4 C -0.668385 -4.400834 0.164767 0
M  V30 5 C 0.159033 -3.629123 -0.648386 0
M  V30 6 C 1.354872 -3.099424 -0.156841 0
M  V30 7 O 2.022204 -2.374249 -1.105140 0
M  V30 8 C 1.894994 -1.031149 -1.361216 0
M  V30 9 C 2.671439 -0.487163 -2.376023 0
M  V30 10 C 2.550369 0.869242 -2.642773 0
M  V30 11 C 1.667183 1.624241 -1.893552 0
M  V30 12 C 0.888709 1.075469 -0.875100 0
M  V30 13 C -0.033881 1.927381 -0.111102 0
M  V30 14 C -0.175860 1.579648 1.310850 0
M  V30 15 C -1.304370 1.362006 1.970916 0
M  V30 16 C -1.254695 1.017370 3.422289 0
M  V30 17 N -0.111129 0.104405 3.567631 0
M  V30 18 C 1.083198 0.951691 3.441895 0
M  V30 19 C 1.111417 1.475659 2.030369 0
M  V30 20 O 2.214369 1.795434 1.537910 0
M  V30 21 N -2.536921 1.465184 1.267202 0
M  V30 22 C -2.616734 1.791814 -0.115485 0
M  V30 23 N -3.585161 1.960498 -1.034507 0
M  V30 24 N -3.014098 2.267980 -2.193254 0
M  V30 25 C -1.657988 2.301793 -2.034790 0
M  V30 26 C -1.387727 1.998750 -0.708608 0
M  V30 27 C 1.009816 -0.284395 -0.607370 0
M  V30 28 C 1.687943 -3.360872 1.144080 0
M  V30 29 C 0.878282 -4.122868 1.959269 0
M  V30 30 H 0.241490 -5.964147 3.748446 0
M  V30 31 H -1.047575 -4.872362 4.290403 0
M  V30 32 H -1.402020 -6.629136 3.869010 0
M  V30 33 H -1.601934 -4.821019 -0.199991 0
M  V30 34 H -0.220478 -3.499070 -1.652977 0
M  V30 35 H 3.350594 -1.069407 -2.951666 0
M  V30 36 H 3.137351 1.335572 -3.426204 0
M  V30 37 H 1.579016 2.699987 -2.113752 0
M  V30 38 H 0.336401 2.992544 -0.119528 0
M  V30 39 H -2.188622 0.539131 3.763388 0
M  V30 40 H -0.999473 1.958228 3.955948 0
M  V30 41 H -0.128260 -0.319601 4.512055 0
M  V30 42 H 1.998863 0.369003 3.680850 0
M  V30 43 H 0.911809 1.814982 4.118298 0
M  V30 44 H -3.435296 1.292657 1.789606 0
M  V30 45 H -3.646424 2.428381 -3.003354 0
M  V30 46 H -1.054705 2.542984 -2.909383 0
M  V30 47 H 0.402942 -0.688674 0.179629 0
M  V30 48 H 2.627485 -2.917340 1.452409 0
M  V30 49 H 1.177666 -4.304369 2.976329 0
M  V30 END ATOM
M  V30 BEGIN BOND
M  V30 1 1 1 2
M  V30 2 1 2 3
M  V30 3 2 3 4
M  V30 4 1 4 5
M  V30 5 2 5 6
M  V30 6 1 6 7
M  V30 7 1 7 8
M  V30 8 2 8 9
M  V30 9 1 9 10
M  V30 10 2 10 11
M  V30 11 1 11 12
M  V30 12 1 12 13
M  V30 13 1 13 14
M  V30 14 2 14 15
M  V30 15 1 15 16
M  V30 16 1 16 17
M  V30 17 1 17 18
M  V30 18 1 18 19
M  V30 19 2 19 20
M  V30 20 1 15 21
M  V30 21 1 21 22
M  V30 22 2 22 23
M  V30 23 1 23 24
M  V30 24 1 24 25
M  V30 25 2 25 26
M  V30 26 2 12 27
M  V30 27 1 6 28
M  V30 28 2 28 29
M  V30 29 1 29 3
M  V30 30 1 27 8
M  V30 31 1 26 13
M  V30 32 1 19 14
M  V30 33 1 26 22
M  V30 34 1 1 30
M  V30 35 1 1 31
M  V30 36 1 1 32
M  V30 37 1 4 33
M  V30 38 1 5 34
M  V30 39 1 9 35
M  V30 40 1 10 36
M  V30 41 1 11 37
M  V30 42 1 13 38
M  V30 43 1 16 39
M  V30 44 1 16 40
M  V30 45 1 17 41
M  V30 46 1 18 42
M  V30 47 1 18 43
M  V30 48 1 21 44
M  V30 49 1 24 45
M  V30 50 1 25 46
M  V30 51 1 27 47
M  V30 52 1 28 48
M  V30 53 1 29 49
M  V30 END BOND
M  V30 END CTAB
M  END
>  <Dataset>  (597) 
ChEMBL_Kinases

>  <Ligand_Instance>  (597) 
nan

>  <PDB_ID>  (597) 
nan

>  <Standardized_SMILES>  (597) 
COc1ccc(Oc2cccc(C3C4=C(CNCC4=O)Nc4n[nH]cc43)c2)cc1

>  <Name>  (597) 
nan

>  <Pocket>  (597) 
nan

>  <ATP_Site>  (597) 
nan

>  <Peripheral>  (597) 
nan

>  <Num_H_Atoms_ProtBoundConf>  (597) 
nan

>  <Num_Resolved_Atoms>  (597) 
nan

>  <Num_Not_Resolved_Atoms>  (597) 
nan

$$$$
CHEMBL3393458
     RDKit          3D

  0  0  0  0  0  0  0  0  0  0999 V3000
M  V30 BEGIN CTAB
M  V30 COUNTS 45 49 0 0 0
M  V30 BEGIN ATOM
M  V30 1 O 1.799769 -1.663400 2.916457 0
M  V30 2 C 0.617905 -1.974621 2.686136 0
M  V30 3 C -0.294464 -2.064867 3.879584 0
M  V30 4 N -1.567009 -1.492256 3.419635 0
M  V30 5 C -2.135772 -2.288063 2.352402 0
M  V30 6 C -1.184499 -2.384475 1.215104 0
M  V30 7 C 0.125865 -2.241162 1.338184 0
M  V30 8 C 1.130084 -2.320304 0.276061 0
M  V30 9 C 2.002125 -1.108899 0.226812 0
M  V30 10 C 3.355600 -1.214981 -0.110276 0
M  V30 11 C 4.204431 -0.133583 -0.171045 0
M  V30 12 C 3.700569 1.125257 0.114450 0
M  V30 13 C 2.375127 1.276451 0.450764 0
M  V30 14 O 1.870804 2.556669 0.739173 0
M  V30 15 C 0.522881 2.673639 1.076370 0
M  V30 16 C 0.017206 2.597599 2.353096 0
M  V30 17 C -1.349513 2.734933 2.515298 0
M  V30 18 C -2.186183 2.940649 1.447841 0
M  V30 19 Cl -3.912569 3.110482 1.687458 0
M  V30 20 C -1.677149 3.016604 0.168297 0
M  V30 21 C -0.305634 2.882232 -0.027509 0
M  V30 22 C 1.558721 0.166086 0.499991 0
M  V30 23 C 0.488988 -2.594991 -1.035905 0
M  V30 24 C 1.004874 -2.753994 -2.305675 0
M  V30 25 N 0.025907 -2.992186 -3.199987 0
M  V30 26 N -1.130954 -2.990071 -2.521463 0
M  V30 27 C -0.869455 -2.752126 -1.215889 0
M  V30 28 N -1.722876 -2.646958 -0.081353 0
M  V30 29 H 0.068994 -1.476240 4.717609 0
M  V30 30 H -0.532944 -3.125908 4.109630 0
M  V30 31 H -1.328259 -0.550264 3.037633 0
M  V30 32 H -3.014348 -1.702695 1.978652 0
M  V30 33 H -2.518922 -3.251028 2.684814 0
M  V30 34 H 1.771780 -3.209130 0.508935 0
M  V30 35 H 3.709743 -2.219429 -0.326645 0
M  V30 36 H 5.253936 -0.247907 -0.436629 0
M  V30 37 H 4.316488 2.023084 0.085199 0
M  V30 38 H 0.748694 2.433416 3.136065 0
M  V30 39 H -1.701601 2.668907 3.529767 0
M  V30 40 H -2.364726 3.181277 -0.666851 0
M  V30 41 H 0.031392 2.950452 -1.046679 0
M  V30 42 H 0.530872 0.313020 0.764698 0
M  V30 43 H 2.060650 -2.702601 -2.598622 0
M  V30 44 H 0.088330 -3.154768 -4.230792 0
M  V30 45 H -2.756027 -2.766853 -0.220647 0
M  V30 END ATOM
M  V30 BEGIN BOND
M  V30 1 2 1 2
M  V30 2 1 2 3
M  V30 3 1 3 4
M  V30 4 1 4 5
M  V30 5 1 5 6
M  V30 6 2 6 7
M  V30 7 1 7 8
M  V30 8 1 8 9
M  V30 9 2 9 10
M  V30 10 1 10 11
M  V30 11 2 11 12
M  V30 12 1 12 13
M  V30 13 1 13 14
M  V30 14 1 14 15
M  V30 15 2 15 16
M  V30 16 1 16 17
M  V30 17 2 17 18
M  V30 18 1 18 19
M  V30 19 1 18 20
M  V30 20 2 20 21
M  V30 21 2 13 22
M  V30 22 1 8 23
M  V30 23 2 23 24
M  V30 24 1 24 25
M  V30 25 1 25 26
M  V30 26 2 26 27
M  V30 27 1 27 28
M  V30 28 1 7 2
M  V30 29 1 22 9
M  V30 30 1 27 23
M  V30 31 1 28 6
M  V30 32 1 21 15
M  V30 33 1 3 29
M  V30 34 1 3 30
M  V30 35 1 4 31
M  V30 36 1 5 32
M  V30 37 1 5 33
M  V30 38 1 8 34
M  V30 39 1 10 35
M  V30 40 1 11 36
M  V30 41 1 12 37
M  V30 42 1 16 38
M  V30 43 1 17 39
M  V30 44 1 20 40
M  V30 45 1 21 41
M  V30 46 1 22 42
M  V30 47 1 24 43
M  V30 48 1 25 44
M  V30 49 1 28 45
M  V30 END BOND
M  V30 END CTAB
M  END
>  <Dataset>  (598) 
ChEMBL_Kinases

>  <Ligand_Instance>  (598) 
nan

>  <PDB_ID>  (598) 
nan

>  <Standardized_SMILES>  (598) 
O=C1CNCC2=C1C(c1cccc(Oc3ccc(Cl)cc3)c1)c1c[nH]nc1N2

>  <Name>  (598) 
nan

>  <Pocket>  (598) 
nan

>  <ATP_Site>  (598) 
nan

>  <Peripheral>  (598) 
nan

>  <Num_H_Atoms_ProtBoundConf>  (598) 
nan

>  <Num_Resolved_Atoms>  (598) 
nan

>  <Num_Not_Resolved_Atoms>  (598) 
nan

$$$$
CHEMBL3393457
     RDKit          3D

  0  0  0  0  0  0  0  0  0  0999 V3000
M  V30 BEGIN CTAB
M  V30 COUNTS 45 49 0 0 0
M  V30 BEGIN ATOM
M  V30 1 O 1.140237 -1.872671 1.874093 0
M  V30 2 C 0.981182 -2.818644 1.053459 0
M  V30 3 C 1.686097 -4.094235 1.387915 0
M  V30 4 N 1.152373 -5.214280 0.647597 0
M  V30 5 C 0.982477 -4.946609 -0.759442 0
M  V30 6 C 0.176359 -3.723259 -1.008183 0
M  V30 7 C 0.157397 -2.700971 -0.166649 0
M  V30 8 C -0.579445 -1.439445 -0.271748 0
M  V30 9 C 0.258034 -0.246902 -0.094260 0
M  V30 10 C 1.547939 -0.158829 -0.590324 0
M  V30 11 C 2.345619 0.961518 -0.428090 0
M  V30 12 C 1.854439 2.055064 0.256733 0
M  V30 13 C 0.575514 2.034242 0.777835 0
M  V30 14 O -0.074356 3.033993 1.487184 0
M  V30 15 C 0.035476 3.072461 2.889642 0
M  V30 16 C -0.595757 4.050785 3.632715 0
M  V30 17 C -0.447878 4.031822 5.001669 0
M  V30 18 C 0.299915 3.083494 5.667502 0
M  V30 19 C 0.927488 2.109302 4.917432 0
M  V30 20 C 0.782680 2.123999 3.548476 0
M  V30 21 C -0.184171 0.884092 0.586736 0
M  V30 22 C -1.390444 -1.378583 -1.519946 0
M  V30 23 C -2.209591 -0.354689 -1.959792 0
M  V30 24 N -2.708633 -0.806280 -3.144958 0
M  V30 25 N -2.228900 -2.024938 -3.415332 0
M  V30 26 C -1.408952 -2.419479 -2.437420 0
M  V30 27 N -0.626397 -3.579637 -2.172504 0
M  V30 28 H 2.770959 -3.977961 1.280275 0
M  V30 29 H 1.469177 -4.267112 2.467656 0
M  V30 30 H 1.863960 -5.979047 0.706884 0
M  V30 31 H 1.994480 -4.758675 -1.185683 0
M  V30 32 H 0.511124 -5.848260 -1.195508 0
M  V30 33 H -1.319188 -1.433577 0.580604 0
M  V30 34 H 1.973158 -1.003489 -1.138283 0
M  V30 35 H 3.353835 1.041539 -0.810907 0
M  V30 36 H 2.371829 2.987483 0.452485 0
M  V30 37 H -1.193142 4.815984 3.156568 0
M  V30 38 H -0.927857 4.783062 5.620476 0
M  V30 39 H 0.383905 3.113165 6.741829 0
M  V30 40 H 1.517652 1.360989 5.443686 0
M  V30 41 H 1.292281 1.340712 2.996534 0
M  V30 42 H -1.211916 0.789581 0.971282 0
M  V30 43 H -2.430009 0.601413 -1.497644 0
M  V30 44 H -3.371512 -0.252985 -3.735678 0
M  V30 45 H -0.668602 -4.347149 -2.894773 0
M  V30 END ATOM
M  V30 BEGIN BOND
M  V30 1 2 1 2
M  V30 2 1 2 3
M  V30 3 1 3 4
M  V30 4 1 4 5
M  V30 5 1 5 6
M  V30 6 2 6 7
M  V30 7 1 7 8
M  V30 8 1 8 9
M  V30 9 2 9 10
M  V30 10 1 10 11
M  V30 11 2 11 12
M  V30 12 1 12 13
M  V30 13 1 13 14
M  V30 14 1 14 15
M  V30 15 2 15 16
M  V30 16 1 16 17
M  V30 17 2 17 18
M  V30 18 1 18 19
M  V30 19 2 19 20
M  V30 20 2 13 21
M  V30 21 1 8 22
M  V30 22 2 22 23
M  V30 23 1 23 24
M  V30 24 1 24 25
M  V30 25 2 25 26
M  V30 26 1 26 27
M  V30 27 1 7 2
M  V30 28 1 21 9
M  V30 29 1 26 22
M  V30 30 1 27 6
M  V30 31 1 20 15
M  V30 32 1 3 28
M  V30 33 1 3 29
M  V30 34 1 4 30
M  V30 35 1 5 31
M  V30 36 1 5 32
M  V30 37 1 8 33
M  V30 38 1 10 34
M  V30 39 1 11 35
M  V30 40 1 12 36
M  V30 41 1 16 37
M  V30 42 1 17 38
M  V30 43 1 18 39
M  V30 44 1 19 40
M  V30 45 1 20 41
M  V30 46 1 21 42
M  V30 47 1 23 43
M  V30 48 1 24 44
M  V30 49 1 27 45
M  V30 END BOND
M  V30 END CTAB
M  END
>  <Dataset>  (599) 
ChEMBL_Kinases

>  <Ligand_Instance>  (599) 
nan

>  <PDB_ID>  (599) 
nan

>  <Standardized_SMILES>  (599) 
O=C1CNCC2=C1C(c1cccc(Oc3ccccc3)c1)c1c[nH]nc1N2

>  <Name>  (599) 
nan

>  <Pocket>  (599) 
nan

>  <ATP_Site>  (599) 
nan

>  <Peripheral>  (599) 
nan

>  <Num_H_Atoms_ProtBoundConf>  (599) 
nan

>  <Num_Resolved_Atoms>  (599) 
nan

>  <Num_Not_Resolved_Atoms>  (599) 
nan

$$$$
CHEMBL3393456
     RDKit          3D

  0  0  0  0  0  0  0  0  0  0999 V3000
M  V30 BEGIN CTAB
M  V30 COUNTS 45 49 0 0 0
M  V30 BEGIN ATOM
M  V30 1 O -1.566378 -0.486294 1.258338 0
M  V30 2 C -1.570369 -1.694282 1.659708 0
M  V30 3 C -2.956866 -2.175429 1.999457 0
M  V30 4 N -2.951989 -3.459334 2.610820 0
M  V30 5 C -1.979611 -4.379365 2.125879 0
M  V30 6 C -0.619445 -3.851297 2.019680 0
M  V30 7 C -0.394726 -2.565573 1.796133 0
M  V30 8 C 0.880314 -1.815179 1.652682 0
M  V30 9 C 0.906847 -0.949749 0.463686 0
M  V30 10 C 0.295993 -1.477427 -0.668734 0
M  V30 11 C 0.275644 -0.730198 -1.830420 0
M  V30 12 C 0.840707 0.528269 -1.914990 0
M  V30 13 C 1.446120 1.039621 -0.775574 0
M  V30 14 O 2.026036 2.296302 -0.811118 0
M  V30 15 C 1.188280 3.362540 -0.476892 0
M  V30 16 C 0.495781 3.940299 -1.544834 0
M  V30 17 C -0.367567 5.002808 -1.361115 0
M  V30 18 Cl -1.194017 5.660335 -2.777250 0
M  V30 19 C -0.565756 5.524895 -0.087292 0
M  V30 20 C 0.122415 4.948848 0.965575 0
M  V30 21 Cl -0.108376 5.584887 2.573244 0
M  V30 22 C 0.991822 3.879944 0.785264 0
M  V30 23 C 1.472628 0.307785 0.382727 0
M  V30 24 C 2.010424 -2.722667 1.795833 0
M  V30 25 C 3.375158 -2.528309 1.746934 0
M  V30 26 N 4.023713 -3.707193 1.942204 0
M  V30 27 N 3.101419 -4.640341 2.113067 0
M  V30 28 C 1.863597 -4.091338 2.032754 0
M  V30 29 N 0.557319 -4.648455 2.143341 0
M  V30 30 H -3.344940 -1.436784 2.760562 0
M  V30 31 H -3.617056 -2.052971 1.130136 0
M  V30 32 H -3.038947 -3.441430 3.653095 0
M  V30 33 H -1.994577 -5.261727 2.829010 0
M  V30 34 H -2.335788 -4.756683 1.135904 0
M  V30 35 H 0.910631 -1.115910 2.536036 0
M  V30 36 H -0.188823 -2.448976 -0.755190 0
M  V30 37 H -0.188114 -1.088789 -2.751908 0
M  V30 38 H 0.815840 1.107999 -2.844645 0
M  V30 39 H 0.629302 3.552425 -2.563023 0
M  V30 40 H -1.241091 6.354391 0.049218 0
M  V30 41 H 1.538033 3.413996 1.582252 0
M  V30 42 H 1.926578 0.646153 1.303296 0
M  V30 43 H 3.844380 -1.568790 1.576684 0
M  V30 44 H 5.068319 -3.761796 1.939727 0
M  V30 45 H 0.445969 -5.668213 2.319886 0
M  V30 END ATOM
M  V30 BEGIN BOND
M  V30 1 2 1 2
M  V30 2 1 2 3
M  V30 3 1 3 4
M  V30 4 1 4 5
M  V30 5 1 5 6
M  V30 6 2 6 7
M  V30 7 1 7 8
M  V30 8 1 8 9
M  V30 9 2 9 10
M  V30 10 1 10 11
M  V30 11 2 11 12
M  V30 12 1 12 13
M  V30 13 1 13 14
M  V30 14 1 14 15
M  V30 15 2 15 16
M  V30 16 1 16 17
M  V30 17 1 17 18
M  V30 18 2 17 19
M  V30 19 1 19 20
M  V30 20 1 20 21
M  V30 21 2 20 22
M  V30 22 2 13 23
M  V30 23 1 8 24
M  V30 24 2 24 25
M  V30 25 1 25 26
M  V30 26 1 26 27
M  V30 27 2 27 28
M  V30 28 1 28 29
M  V30 29 1 7 2
M  V30 30 1 23 9
M  V30 31 1 28 24
M  V30 32 1 29 6
M  V30 33 1 22 15
M  V30 34 1 3 30
M  V30 35 1 3 31
M  V30 36 1 4 32
M  V30 37 1 5 33
M  V30 38 1 5 34
M  V30 39 1 8 35
M  V30 40 1 10 36
M  V30 41 1 11 37
M  V30 42 1 12 38
M  V30 43 1 16 39
M  V30 44 1 19 40
M  V30 45 1 22 41
M  V30 46 1 23 42
M  V30 47 1 25 43
M  V30 48 1 26 44
M  V30 49 1 29 45
M  V30 END BOND
M  V30 END CTAB
M  END
>  <Dataset>  (600) 
ChEMBL_Kinases

>  <Ligand_Instance>  (600) 
nan

>  <PDB_ID>  (600) 
nan

>  <Standardized_SMILES>  (600) 
O=C1CNCC2=C1C(c1cccc(Oc3cc(Cl)cc(Cl)c3)c1)c1c[nH]nc1N2

>  <Name>  (600) 
nan

>  <Pocket>  (600) 
nan

>  <ATP_Site>  (600) 
nan

>  <Peripheral>  (600) 
nan

>  <Num_H_Atoms_ProtBoundConf>  (600) 
nan

>  <Num_Resolved_Atoms>  (600) 
nan

>  <Num_Not_Resolved_Atoms>  (600) 
nan

$$$$
CHEMBL3393455
     RDKit          3D

  0  0  0  0  0  0  0  0  0  0999 V3000
M  V30 BEGIN CTAB
M  V30 COUNTS 34 37 0 0 0
M  V30 BEGIN ATOM
M  V30 1 O 1.654398 -0.061794 2.476466 0
M  V30 2 C 0.925953 -1.093582 2.312487 0
M  V30 3 C 1.299091 -2.267715 3.140110 0
M  V30 4 N 0.962588 -3.528552 2.591744 0
M  V30 5 C -0.164536 -3.627789 1.755963 0
M  V30 6 C -0.684467 -2.391353 1.163996 0
M  V30 7 C -0.220562 -1.177346 1.381782 0
M  V30 8 C -0.664964 0.121544 0.838449 0
M  V30 9 C 0.446478 0.872748 0.207862 0
M  V30 10 C 1.593431 0.219752 -0.260240 0
M  V30 11 C 2.640780 0.885783 -0.860341 0
M  V30 12 C 2.591590 2.253891 -1.023501 0
M  V30 13 C 1.468346 2.955345 -0.573466 0
M  V30 14 C 0.451879 2.237086 0.018923 0
M  V30 15 F -0.617677 2.916015 0.454128 0
M  V30 16 C -1.820487 -0.075176 -0.056335 0
M  V30 17 C -2.649745 0.718256 -0.821131 0
M  V30 18 N -3.576726 0.024557 -1.475899 0
M  V30 19 N -3.384692 -1.245246 -1.161070 0
M  V30 20 C -2.345886 -1.346032 -0.315979 0
M  V30 21 N -1.793792 -2.511786 0.281734 0
M  V30 22 H 2.416861 -2.269421 3.294847 0
M  V30 23 H 0.818900 -2.140344 4.152184 0
M  V30 24 H 1.689059 -4.244780 2.536103 0
M  V30 25 H -1.026180 -4.147226 2.267289 0
M  V30 26 H 0.098520 -4.346833 0.923921 0
M  V30 27 H -0.968638 0.732887 1.742066 0
M  V30 28 H 1.676256 -0.861994 -0.152863 0
M  V30 29 H 3.528119 0.378758 -1.222704 0
M  V30 30 H 3.389940 2.814377 -1.488138 0
M  V30 31 H 1.418136 4.032015 -0.696312 0
M  V30 32 H -2.610502 1.790076 -0.925311 0
M  V30 33 H -4.342543 0.286623 -2.122465 0
M  V30 34 H -2.200533 -3.446231 0.073944 0
M  V30 END ATOM
M  V30 BEGIN BOND
M  V30 1 2 1 2
M  V30 2 1 2 3
M  V30 3 1 3 4
M  V30 4 1 4 5
M  V30 5 1 5 6
M  V30 6 2 6 7
M  V30 7 1 7 8
M  V30 8 1 8 9
M  V30 9 2 9 10
M  V30 10 1 10 11
M  V30 11 2 11 12
M  V30 12 1 12 13
M  V30 13 2 13 14
M  V30 14 1 14 15
M  V30 15 1 8 16
M  V30 16 2 16 17
M  V30 17 1 17 18
M  V30 18 1 18 19
M  V30 19 2 19 20
M  V30 20 1 20 21
M  V30 21 1 7 2
M  V30 22 1 14 9
M  V30 23 1 20 16
M  V30 24 1 21 6
M  V30 25 1 3 22
M  V30 26 1 3 23
M  V30 27 1 4 24
M  V30 28 1 5 25
M  V30 29 1 5 26
M  V30 30 1 8 27
M  V30 31 1 10 28
M  V30 32 1 11 29
M  V30 33 1 12 30
M  V30 34 1 13 31
M  V30 35 1 17 32
M  V30 36 1 18 33
M  V30 37 1 21 34
M  V30 END BOND
M  V30 END CTAB
M  END
>  <Dataset>  (601) 
ChEMBL_Kinases

>  <Ligand_Instance>  (601) 
nan

>  <PDB_ID>  (601) 
nan

>  <Standardized_SMILES>  (601) 
O=C1CNCC2=C1C(c1ccccc1F)c1c[nH]nc1N2

>  <Name>  (601) 
nan

>  <Pocket>  (601) 
nan

>  <ATP_Site>  (601) 
nan

>  <Peripheral>  (601) 
nan

>  <Num_H_Atoms_ProtBoundConf>  (601) 
nan

>  <Num_Resolved_Atoms>  (601) 
nan

>  <Num_Not_Resolved_Atoms>  (601) 
nan

$$$$
CHEMBL3393454
     RDKit          3D

  0  0  0  0  0  0  0  0  0  0999 V3000
M  V30 BEGIN CTAB
M  V30 COUNTS 42 46 0 0 0
M  V30 BEGIN ATOM
M  V30 1 N -2.118570 -4.954342 0.082818 0
M  V30 2 C -1.081815 -4.421489 0.201684 0
M  V30 3 C 0.193814 -3.779410 0.363793 0
M  V30 4 C 1.183078 -4.264500 1.193483 0
M  V30 5 C 2.374219 -3.573798 1.279543 0
M  V30 6 C 2.549478 -2.417138 0.537126 0
M  V30 7 C 1.549090 -1.914826 -0.309776 0
M  V30 8 C 2.018461 -0.722967 -0.988036 0
M  V30 9 C 3.038582 -0.874235 -1.939060 0
M  V30 10 N 3.306821 0.341709 -2.499365 0
M  V30 11 C 2.514089 1.286073 -1.962944 0
M  V30 12 N 2.333828 2.608971 -2.088558 0
M  V30 13 C 1.418250 3.229503 -1.325723 0
M  V30 14 N 0.659380 2.574258 -0.424899 0
M  V30 15 C 0.807419 1.224213 -0.263018 0
M  V30 16 N -0.107104 0.718170 0.733110 0
M  V30 17 C -1.370802 -0.007093 0.880289 0
M  V30 18 C -1.201967 -0.728677 2.171770 0
M  V30 19 C -2.501634 -0.854199 2.938500 0
M  V30 20 O -2.834890 0.457628 3.233616 0
M  V30 21 C -1.677124 1.181549 3.443516 0
M  V30 22 C -0.516923 0.353518 3.013023 0
M  V30 23 C 0.412317 1.044616 2.062532 0
M  V30 24 C 1.746494 0.611778 -1.052097 0
M  V30 25 C 0.376287 -2.629427 -0.370758 0
M  V30 26 H 0.977996 -5.171634 1.743152 0
M  V30 27 H 3.106084 -4.000132 1.941271 0
M  V30 28 H 3.531616 -1.989195 0.709394 0
M  V30 29 H 3.580822 -1.755567 -2.246611 0
M  V30 30 H 4.026289 0.536660 -3.245736 0
M  V30 31 H 1.371919 4.297871 -1.525223 0
M  V30 32 H -2.145367 0.795369 1.071404 0
M  V30 33 H -1.636094 -0.609040 0.013622 0
M  V30 34 H -0.620095 -1.642043 2.128853 0
M  V30 35 H -3.235936 -1.320907 2.240212 0
M  V30 36 H -2.371587 -1.515743 3.794671 0
M  V30 37 H -1.721161 2.112642 2.834444 0
M  V30 38 H -1.563647 1.513877 4.501756 0
M  V30 39 H -0.008089 -0.171780 3.838325 0
M  V30 40 H 1.470574 0.679095 2.189969 0
M  V30 41 H 0.340384 2.132316 2.184147 0
M  V30 42 H -0.309592 -2.174218 -1.052504 0
M  V30 END ATOM
M  V30 BEGIN BOND
M  V30 1 3 1 2
M  V30 2 1 2 3
M  V30 3 2 3 4
M  V30 4 1 4 5
M  V30 5 2 5 6
M  V30 6 1 6 7
M  V30 7 1 7 8
M  V30 8 2 8 9
M  V30 9 1 9 10
M  V30 10 1 10 11
M  V30 11 2 11 12
M  V30 12 1 12 13
M  V30 13 2 13 14
M  V30 14 1 14 15
M  V30 15 1 15 16
M  V30 16 1 16 17
M  V30 17 1 17 18
M  V30 18 1 18 19
M  V30 19 1 19 20
M  V30 20 1 20 21
M  V30 21 1 21 22
M  V30 22 1 22 23
M  V30 23 2 15 24
M  V30 24 2 7 25
M  V30 25 1 25 3
M  V30 26 1 24 8
M  V30 27 1 24 11
M  V30 28 1 23 16
M  V30 29 1 22 18
M  V30 30 1 4 26
M  V30 31 1 5 27
M  V30 32 1 6 28
M  V30 33 1 9 29
M  V30 34 1 10 30
M  V30 35 1 13 31
M  V30 36 1 17 32
M  V30 37 1 17 33
M  V30 38 1 18 34
M  V30 39 1 19 35
M  V30 40 1 19 36
M  V30 41 1 21 37
M  V30 42 1 21 38
M  V30 43 1 22 39
M  V30 44 1 23 40
M  V30 45 1 23 41
M  V30 46 1 25 42
M  V30 END BOND
M  V30 END CTAB
M  END
>  <Dataset>  (602) 
ChEMBL_Kinases

>  <Ligand_Instance>  (602) 
nan

>  <PDB_ID>  (602) 
nan

>  <Standardized_SMILES>  (602) 
N#Cc1cccc(-c2c[nH]c3ncnc(N4CC5COCC5C4)c23)c1

>  <Name>  (602) 
nan

>  <Pocket>  (602) 
nan

>  <ATP_Site>  (602) 
nan

>  <Peripheral>  (602) 
nan

>  <Num_H_Atoms_ProtBoundConf>  (602) 
nan

>  <Num_Resolved_Atoms>  (602) 
nan

>  <Num_Not_Resolved_Atoms>  (602) 
nan

$$$$
CHEMBL3393452
     RDKit          3D

  0  0  0  0  0  0  0  0  0  0999 V3000
M  V30 BEGIN CTAB
M  V30 COUNTS 39 43 0 0 0
M  V30 BEGIN ATOM
M  V30 1 N -0.750403 -4.396181 3.038523 0
M  V30 2 C -0.136214 -3.918357 2.179376 0
M  V30 3 C 0.605325 -3.319667 1.112578 0
M  V30 4 C 0.855073 -4.017670 -0.045078 0
M  V30 5 C 1.572956 -3.405646 -1.040845 0
M  V30 6 C 2.014273 -2.114784 -0.838517 0
M  V30 7 C 1.772749 -1.384433 0.330116 0
M  V30 8 C 2.369811 -0.061321 0.299818 0
M  V30 9 C 3.736208 0.111480 0.038524 0
M  V30 10 N 4.005775 1.442009 0.115371 0
M  V30 11 C 2.918162 2.157976 0.407300 0
M  V30 12 N 2.598350 3.444003 0.600385 0
M  V30 13 C 1.304438 3.766209 0.894629 0
M  V30 14 N 0.332160 2.844432 0.999001 0
M  V30 15 C 0.614167 1.520740 0.809550 0
M  V30 16 N -0.557529 0.724625 0.925315 0
M  V30 17 C -1.452901 -0.096333 0.128582 0
M  V30 18 C -2.265714 -0.328809 1.344248 0
M  V30 19 C -3.707876 0.036852 1.316133 0
M  V30 20 O -3.980373 -1.335331 1.395160 0
M  V30 21 C -2.655797 -1.690909 1.747761 0
M  V30 22 C -1.334561 0.482175 2.136579 0
M  V30 23 C 1.921577 1.219042 0.516367 0
M  V30 24 C 1.045459 -2.029882 1.316253 0
M  V30 25 H 0.487984 -5.027387 -0.156394 0
M  V30 26 H 1.759226 -3.964401 -1.938201 0
M  V30 27 H 2.577256 -1.722886 -1.697756 0
M  V30 28 H 4.456629 -0.659565 -0.184634 0
M  V30 29 H 4.960119 1.879551 -0.035336 0
M  V30 30 H 1.166612 4.837029 1.029918 0
M  V30 31 H -1.944932 0.544742 -0.660601 0
M  V30 32 H -0.981205 -0.933060 -0.381333 0
M  V30 33 H -4.070915 0.525132 2.253283 0
M  V30 34 H -4.046524 0.553447 0.415298 0
M  V30 35 H -2.328054 -2.442899 0.984645 0
M  V30 36 H -2.538977 -1.972744 2.798374 0
M  V30 37 H -0.812689 0.039501 2.981493 0
M  V30 38 H -1.826301 1.457565 2.427112 0
M  V30 39 H 0.903618 -1.405050 2.183117 0
M  V30 END ATOM
M  V30 BEGIN BOND
M  V30 1 3 1 2
M  V30 2 1 2 3
M  V30 3 2 3 4
M  V30 4 1 4 5
M  V30 5 2 5 6
M  V30 6 1 6 7
M  V30 7 1 7 8
M  V30 8 2 8 9
M  V30 9 1 9 10
M  V30 10 1 10 11
M  V30 11 2 11 12
M  V30 12 1 12 13
M  V30 13 2 13 14
M  V30 14 1 14 15
M  V30 15 1 15 16
M  V30 16 1 16 17
M  V30 17 1 17 18
M  V30 18 1 18 19
M  V30 19 1 19 20
M  V30 20 1 20 21
M  V30 21 1 18 22
M  V30 22 2 15 23
M  V30 23 2 7 24
M  V30 24 1 24 3
M  V30 25 1 23 8
M  V30 26 1 23 11
M  V30 27 1 22 16
M  V30 28 1 21 18
M  V30 29 1 4 25
M  V30 30 1 5 26
M  V30 31 1 6 27
M  V30 32 1 9 28
M  V30 33 1 10 29
M  V30 34 1 13 30
M  V30 35 1 17 31
M  V30 36 1 17 32
M  V30 37 1 19 33
M  V30 38 1 19 34
M  V30 39 1 21 35
M  V30 40 1 21 36
M  V30 41 1 22 37
M  V30 42 1 22 38
M  V30 43 1 24 39
M  V30 END BOND
M  V30 END CTAB
M  END
>  <Dataset>  (603) 
ChEMBL_Kinases

>  <Ligand_Instance>  (603) 
nan

>  <PDB_ID>  (603) 
nan

>  <Standardized_SMILES>  (603) 
N#Cc1cccc(-c2c[nH]c3ncnc(N4CC5(COC5)C4)c23)c1

>  <Name>  (603) 
nan

>  <Pocket>  (603) 
nan

>  <ATP_Site>  (603) 
nan

>  <Peripheral>  (603) 
nan

>  <Num_H_Atoms_ProtBoundConf>  (603) 
nan

>  <Num_Resolved_Atoms>  (603) 
nan

>  <Num_Not_Resolved_Atoms>  (603) 
nan

$$$$
CHEMBL3393451
     RDKit          3D

  0  0  0  0  0  0  0  0  0  0999 V3000
M  V30 BEGIN CTAB
M  V30 COUNTS 41 44 0 0 0
M  V30 BEGIN ATOM
M  V30 1 N 0.415247 -4.361700 3.740152 0
M  V30 2 C 0.560968 -3.971952 2.656924 0
M  V30 3 C 0.748079 -3.477716 1.322320 0
M  V30 4 C 0.445307 -4.206568 0.192391 0
M  V30 5 C 0.652282 -3.664703 -1.059382 0
M  V30 6 C 1.164831 -2.387411 -1.149512 0
M  V30 7 C 1.488146 -1.606934 -0.030101 0
M  V30 8 C 2.040095 -0.311844 -0.360414 0
M  V30 9 C 3.191290 -0.245874 -1.157506 0
M  V30 10 N 3.544492 1.053880 -1.290745 0
M  V30 11 C 2.691297 1.865131 -0.626011 0
M  V30 12 N 2.520794 3.177914 -0.392127 0
M  V30 13 C 1.478620 3.620782 0.371329 0
M  V30 14 N 0.583138 2.744307 0.915927 0
M  V30 15 C 0.729005 1.402573 0.696267 0
M  V30 16 N -0.344815 0.711676 1.320911 0
M  V30 17 C -1.239425 0.170453 0.298792 0
M  V30 18 C -1.932699 -1.091220 0.674653 0
M  V30 19 C -2.103842 -1.166537 2.169581 0
M  V30 20 O -2.613943 0.087115 2.553394 0
M  V30 21 C -1.683358 0.689676 3.380871 0
M  V30 22 C -0.304969 0.735221 2.764733 0
M  V30 23 C 1.785101 0.994096 -0.071260 0
M  V30 24 C 1.258591 -2.204890 1.191224 0
M  V30 25 H 0.049675 -5.193628 0.325621 0
M  V30 26 H 0.411446 -4.245093 -1.938782 0
M  V30 27 H 1.300315 -2.028181 -2.180813 0
M  V30 28 H 3.749715 -1.043659 -1.616418 0
M  V30 29 H 4.366679 1.448526 -1.829219 0
M  V30 30 H 1.409173 4.692346 0.514542 0
M  V30 31 H -1.998636 0.993678 0.063013 0
M  V30 32 H -0.739330 0.023883 -0.679483 0
M  V30 33 H -1.454275 -1.987658 0.228961 0
M  V30 34 H -2.993860 -1.003711 0.275633 0
M  V30 35 H -1.109172 -1.356215 2.613914 0
M  V30 36 H -2.811254 -1.981787 2.461171 0
M  V30 37 H -1.696210 0.187475 4.358540 0
M  V30 38 H -2.006385 1.738947 3.540723 0
M  V30 39 H 0.287602 -0.029931 3.245119 0
M  V30 40 H 0.185579 1.713130 3.047178 0
M  V30 41 H 1.527541 -1.579651 2.012971 0
M  V30 END ATOM
M  V30 BEGIN BOND
M  V30 1 3 1 2
M  V30 2 1 2 3
M  V30 3 2 3 4
M  V30 4 1 4 5
M  V30 5 2 5 6
M  V30 6 1 6 7
M  V30 7 1 7 8
M  V30 8 2 8 9
M  V30 9 1 9 10
M  V30 10 1 10 11
M  V30 11 2 11 12
M  V30 12 1 12 13
M  V30 13 2 13 14
M  V30 14 1 14 15
M  V30 15 1 15 16
M  V30 16 1 16 17
M  V30 17 1 17 18
M  V30 18 1 18 19
M  V30 19 1 19 20
M  V30 20 1 20 21
M  V30 21 1 21 22
M  V30 22 2 15 23
M  V30 23 2 7 24
M  V30 24 1 24 3
M  V30 25 1 23 8
M  V30 26 1 23 11
M  V30 27 1 22 16
M  V30 28 1 4 25
M  V30 29 1 5 26
M  V30 30 1 6 27
M  V30 31 1 9 28
M  V30 32 1 10 29
M  V30 33 1 13 30
M  V30 34 1 17 31
M  V30 35 1 17 32
M  V30 36 1 18 33
M  V30 37 1 18 34
M  V30 38 1 19 35
M  V30 39 1 19 36
M  V30 40 1 21 37
M  V30 41 1 21 38
M  V30 42 1 22 39
M  V30 43 1 22 40
M  V30 44 1 24 41
M  V30 END BOND
M  V30 END CTAB
M  END
>  <Dataset>  (604) 
ChEMBL_Kinases

>  <Ligand_Instance>  (604) 
nan

>  <PDB_ID>  (604) 
nan

>  <Standardized_SMILES>  (604) 
N#Cc1cccc(-c2c[nH]c3ncnc(N4CCCOCC4)c23)c1

>  <Name>  (604) 
nan

>  <Pocket>  (604) 
nan

>  <ATP_Site>  (604) 
nan

>  <Peripheral>  (604) 
nan

>  <Num_H_Atoms_ProtBoundConf>  (604) 
nan

>  <Num_Resolved_Atoms>  (604) 
nan

>  <Num_Not_Resolved_Atoms>  (604) 
nan

$$$$
CHEMBL3393443
     RDKit          3D

  0  0  0  0  0  0  0  0  0  0999 V3000
M  V30 BEGIN CTAB
M  V30 COUNTS 41 44 0 0 0
M  V30 BEGIN ATOM
M  V30 1 C -1.064331 -4.258792 1.702970 0
M  V30 2 C 0.072441 -3.343666 2.127976 0 CFG=2
M  V30 3 C -0.179473 -1.918401 1.692250 0
M  V30 4 N 0.845698 -1.557148 0.727131 0
M  V30 5 C 0.956030 -1.164225 -0.646118 0
M  V30 6 N 1.408084 -2.241867 -1.340133 0
M  V30 7 C 1.554213 -2.047487 -2.684557 0
M  V30 8 N 1.294529 -0.910159 -3.352014 0
M  V30 9 C 0.849296 0.142848 -2.644825 0
M  V30 10 N 0.507500 1.415713 -2.912661 0
M  V30 11 C 0.142860 2.038882 -1.752589 0
M  V30 12 C 0.249112 1.136272 -0.678728 0
M  V30 13 C -0.126896 1.582534 0.649114 0
M  V30 14 C 0.713733 2.631192 1.071782 0
M  V30 15 C 0.575455 3.275140 2.282686 0
M  V30 16 C -0.429032 2.885924 3.132234 0
M  V30 17 C -1.272789 1.864014 2.755191 0
M  V30 18 C -2.357214 1.368190 3.553472 0
M  V30 19 N -3.230589 0.984218 4.209698 0
M  V30 20 C -1.094508 1.252673 1.536780 0
M  V30 21 C 0.688018 -0.007731 -1.297938 0
M  V30 22 C 2.134882 -1.631279 1.435478 0
M  V30 23 C 2.276234 -3.000608 2.106326 0
M  V30 24 O 1.251842 -3.815643 1.568227 0
M  V30 25 H -1.523375 -4.806441 2.537626 0
M  V30 26 H -1.860043 -3.673216 1.201651 0
M  V30 27 H -0.710886 -5.043292 0.974033 0
M  V30 28 H 0.145178 -3.380857 3.243746 0
M  V30 29 H -0.100610 -1.252073 2.573049 0
M  V30 30 H -1.197456 -1.860922 1.244806 0
M  V30 31 H 1.911875 -2.838756 -3.363207 0
M  V30 32 H 0.523066 1.846949 -3.863083 0
M  V30 33 H -0.165302 3.064822 -1.749829 0
M  V30 34 H 1.557666 3.047812 0.498492 0
M  V30 35 H 1.199357 4.074961 2.630270 0
M  V30 36 H -0.659745 3.294797 4.109319 0
M  V30 37 H -1.707235 0.450492 1.142061 0
M  V30 38 H 2.962102 -1.429864 0.757243 0
M  V30 39 H 2.057442 -0.893488 2.266612 0
M  V30 40 H 2.084128 -2.948035 3.194188 0
M  V30 41 H 3.271580 -3.429535 1.916348 0
M  V30 END ATOM
M  V30 BEGIN BOND
M  V30 1 1 1 2
M  V30 2 1 2 3
M  V30 3 1 3 4
M  V30 4 1 4 5
M  V30 5 2 5 6
M  V30 6 1 6 7
M  V30 7 2 7 8
M  V30 8 1 8 9
M  V30 9 1 9 10
M  V30 10 1 10 11
M  V30 11 2 11 12
M  V30 12 1 12 13
M  V30 13 2 13 14
M  V30 14 1 14 15
M  V30 15 2 15 16
M  V30 16 1 16 17
M  V30 17 1 17 18
M  V30 18 3 18 19
M  V30 19 2 17 20
M  V30 20 1 12 21
M  V30 21 1 4 22
M  V30 22 1 22 23
M  V30 23 1 23 24
M  V30 24 1 24 2
M  V30 25 1 21 5
M  V30 26 2 21 9
M  V30 27 1 20 13
M  V30 28 1 1 25
M  V30 29 1 1 26
M  V30 30 1 1 27
M  V30 31 1 2 28 CFG=1
M  V30 32 1 3 29
M  V30 33 1 3 30
M  V30 34 1 7 31
M  V30 35 1 10 32
M  V30 36 1 11 33
M  V30 37 1 14 34
M  V30 38 1 15 35
M  V30 39 1 16 36
M  V30 40 1 20 37
M  V30 41 1 22 38
M  V30 42 1 22 39
M  V30 43 1 23 40
M  V30 44 1 23 41
M  V30 END BOND
M  V30 END CTAB
M  END
>  <Dataset>  (605) 
ChEMBL_Kinases

>  <Ligand_Instance>  (605) 
nan

>  <PDB_ID>  (605) 
nan

>  <Standardized_SMILES>  (605) 
C[C@@H]1CN(c2ncnc3[nH]cc(-c4cccc(C#N)c4)c23)CCO1

>  <Name>  (605) 
nan

>  <Pocket>  (605) 
nan

>  <ATP_Site>  (605) 
nan

>  <Peripheral>  (605) 
nan

>  <Num_H_Atoms_ProtBoundConf>  (605) 
nan

>  <Num_Resolved_Atoms>  (605) 
nan

>  <Num_Not_Resolved_Atoms>  (605) 
nan

$$$$
CHEMBL3393442
     RDKit          3D

  0  0  0  0  0  0  0  0  0  0999 V3000
M  V30 BEGIN CTAB
M  V30 COUNTS 35 38 0 0 0
M  V30 BEGIN ATOM
M  V30 1 C -1.553860 -1.618312 4.206650 0
M  V30 2 C -1.589243 -2.751084 3.438847 0
M  V30 3 N -0.905977 -2.805813 2.292152 0
M  V30 4 C -0.148063 -1.827438 1.776489 0
M  V30 5 C 0.496150 -2.220049 0.555187 0
M  V30 6 C 0.882944 -3.539486 0.271872 0
M  V30 7 N 1.405148 -3.636706 -0.958374 0
M  V30 8 C 1.390280 -2.427553 -1.535704 0
M  V30 9 N 1.777282 -2.051383 -2.760774 0
M  V30 10 C 1.628840 -0.780988 -3.139745 0
M  V30 11 N 1.079022 0.093725 -2.244392 0
M  V30 12 C 0.695480 -0.296020 -1.016416 0
M  V30 13 N 0.166134 0.777621 -0.277153 0
M  V30 14 C 1.339787 1.562896 0.155931 0
M  V30 15 C 0.787567 2.732131 0.947696 0
M  V30 16 O -0.441770 3.125105 0.404440 0
M  V30 17 C -1.393819 2.195943 0.821814 0
M  V30 18 C -1.276176 0.986403 -0.059822 0
M  V30 19 C 0.837190 -1.588650 -0.603739 0
M  V30 20 C -0.146692 -0.735201 2.573725 0
M  V30 21 N -0.806052 -0.608584 3.732809 0
M  V30 22 H -2.056866 -1.451092 5.141071 0
M  V30 23 H -2.194417 -3.567556 3.824147 0
M  V30 24 H 0.784884 -4.390701 0.943378 0
M  V30 25 H 1.759826 -4.522355 -1.376660 0
M  V30 26 H 1.951014 -0.506998 -4.136422 0
M  V30 27 H 1.784413 1.963337 -0.789763 0
M  V30 28 H 2.051403 0.987739 0.741978 0
M  V30 29 H 1.493979 3.603048 0.921385 0
M  V30 30 H 0.606058 2.447846 1.990483 0
M  V30 31 H -2.416516 2.625696 0.822319 0
M  V30 32 H -1.123099 1.897008 1.852815 0
M  V30 33 H -1.670455 1.293844 -1.060913 0
M  V30 34 H -1.759032 0.082902 0.308321 0
M  V30 35 H 0.458796 0.079270 2.265658 0
M  V30 END ATOM
M  V30 BEGIN BOND
M  V30 1 2 1 2
M  V30 2 1 2 3
M  V30 3 2 3 4
M  V30 4 1 4 5
M  V30 5 2 5 6
M  V30 6 1 6 7
M  V30 7 1 7 8
M  V30 8 2 8 9
M  V30 9 1 9 10
M  V30 10 2 10 11
M  V30 11 1 11 12
M  V30 12 1 12 13
M  V30 13 1 13 14
M  V30 14 1 14 15
M  V30 15 1 15 16
M  V30 16 1 16 17
M  V30 17 1 17 18
M  V30 18 2 12 19
M  V30 19 1 4 20
M  V30 20 2 20 21
M  V30 21 1 21 1
M  V30 22 1 19 5
M  V30 23 1 19 8
M  V30 24 1 18 13
M  V30 25 1 1 22
M  V30 26 1 2 23
M  V30 27 1 6 24
M  V30 28 1 7 25
M  V30 29 1 10 26
M  V30 30 1 14 27
M  V30 31 1 14 28
M  V30 32 1 15 29
M  V30 33 1 15 30
M  V30 34 1 17 31
M  V30 35 1 17 32
M  V30 36 1 18 33
M  V30 37 1 18 34
M  V30 38 1 20 35
M  V30 END BOND
M  V30 END CTAB
M  END
>  <Dataset>  (606) 
ChEMBL_Kinases

>  <Ligand_Instance>  (606) 
nan

>  <PDB_ID>  (606) 
nan

>  <Standardized_SMILES>  (606) 
c1cnc(-c2c[nH]c3ncnc(N4CCOCC4)c23)cn1

>  <Name>  (606) 
nan

>  <Pocket>  (606) 
nan

>  <ATP_Site>  (606) 
nan

>  <Peripheral>  (606) 
nan

>  <Num_H_Atoms_ProtBoundConf>  (606) 
nan

>  <Num_Resolved_Atoms>  (606) 
nan

>  <Num_Not_Resolved_Atoms>  (606) 
nan

$$$$
CHEMBL3393441
     RDKit          3D

  0  0  0  0  0  0  0  0  0  0999 V3000
M  V30 BEGIN CTAB
M  V30 COUNTS 39 42 0 0 0
M  V30 BEGIN ATOM
M  V30 1 C 0.483725 -4.097082 2.259245 0
M  V30 2 C 1.219765 -3.318422 1.226366 0
M  V30 3 C 1.816017 -3.821840 0.088969 0
M  V30 4 N 2.453599 -3.003128 -0.766983 0
M  V30 5 C 2.502359 -1.671085 -0.495328 0
M  V30 6 C 1.918313 -1.094092 0.640880 0
M  V30 7 C 2.125202 0.321708 0.722825 0
M  V30 8 C 3.407425 0.881539 0.689083 0
M  V30 9 N 3.280328 2.228134 0.828715 0
M  V30 10 C 1.993568 2.601228 0.952764 0
M  V30 11 N 1.324158 3.757013 1.109743 0
M  V30 12 C -0.035750 3.670445 1.191476 0
M  V30 13 N -0.738519 2.501161 1.123450 0
M  V30 14 C -0.060205 1.327456 0.963854 0
M  V30 15 N -0.959671 0.238009 0.877125 0
M  V30 16 C -1.066375 -0.500594 -0.397517 0
M  V30 17 C -2.420153 -0.128868 -0.980271 0
M  V30 18 O -3.307436 0.256752 0.021042 0
M  V30 19 C -3.194967 -0.539931 1.151958 0
M  V30 20 C -1.875733 -0.337031 1.844971 0
M  V30 21 C 1.306301 1.411724 0.883403 0
M  V30 22 C 1.260466 -1.970397 1.516188 0
M  V30 23 H -0.545292 -3.631989 2.290094 0
M  V30 24 H 0.915748 -3.932242 3.274421 0
M  V30 25 H 0.466103 -5.173529 2.041741 0
M  V30 26 H 1.732198 -4.889879 -0.052684 0
M  V30 27 H 3.055511 -1.154099 -1.289228 0
M  V30 28 H 4.347152 0.355135 0.573435 0
M  V30 29 H 4.101992 2.890114 0.837088 0
M  V30 30 H -0.547568 4.635405 1.320407 0
M  V30 31 H -0.947850 -1.575317 -0.281913 0
M  V30 32 H -0.297239 -0.128611 -1.097664 0
M  V30 33 H -2.829799 -1.046871 -1.448437 0
M  V30 34 H -2.304579 0.626434 -1.763738 0
M  V30 35 H -3.194647 -1.598482 0.753295 0
M  V30 36 H -4.076229 -0.494330 1.801626 0
M  V30 37 H -1.511643 -1.246974 2.336079 0
M  V30 38 H -2.067755 0.430475 2.652475 0
M  V30 39 H 0.858442 -1.418742 2.347161 0
M  V30 END ATOM
M  V30 BEGIN BOND
M  V30 1 1 1 2
M  V30 2 2 2 3
M  V30 3 1 3 4
M  V30 4 2 4 5
M  V30 5 1 5 6
M  V30 6 1 6 7
M  V30 7 2 7 8
M  V30 8 1 8 9
M  V30 9 1 9 10
M  V30 10 2 10 11
M  V30 11 1 11 12
M  V30 12 2 12 13
M  V30 13 1 13 14
M  V30 14 1 14 15
M  V30 15 1 15 16
M  V30 16 1 16 17
M  V30 17 1 17 18
M  V30 18 1 18 19
M  V30 19 1 19 20
M  V30 20 2 14 21
M  V30 21 2 6 22
M  V30 22 1 22 2
M  V30 23 1 21 7
M  V30 24 1 21 10
M  V30 25 1 20 15
M  V30 26 1 1 23
M  V30 27 1 1 24
M  V30 28 1 1 25
M  V30 29 1 3 26
M  V30 30 1 5 27
M  V30 31 1 8 28
M  V30 32 1 9 29
M  V30 33 1 12 30
M  V30 34 1 16 31
M  V30 35 1 16 32
M  V30 36 1 17 33
M  V30 37 1 17 34
M  V30 38 1 19 35
M  V30 39 1 19 36
M  V30 40 1 20 37
M  V30 41 1 20 38
M  V30 42 1 22 39
M  V30 END BOND
M  V30 END CTAB
M  END
>  <Dataset>  (607) 
ChEMBL_Kinases

>  <Ligand_Instance>  (607) 
nan

>  <PDB_ID>  (607) 
nan

>  <Standardized_SMILES>  (607) 
Cc1cncc(-c2c[nH]c3ncnc(N4CCOCC4)c23)c1

>  <Name>  (607) 
nan

>  <Pocket>  (607) 
nan

>  <ATP_Site>  (607) 
nan

>  <Peripheral>  (607) 
nan

>  <Num_H_Atoms_ProtBoundConf>  (607) 
nan

>  <Num_Resolved_Atoms>  (607) 
nan

>  <Num_Not_Resolved_Atoms>  (607) 
nan

$$$$
CHEMBL3393440
     RDKit          3D

  0  0  0  0  0  0  0  0  0  0999 V3000
M  V30 BEGIN CTAB
M  V30 COUNTS 37 40 0 0 0
M  V30 BEGIN ATOM
M  V30 1 C -1.643394 -4.359652 3.464682 0
M  V30 2 N -0.958763 -3.232591 2.778836 0
M  V30 3 C -1.101016 -1.924164 3.189331 0
M  V30 4 C -0.281645 -1.332508 2.268500 0
M  V30 5 C 0.337362 -2.091504 1.357394 0
M  V30 6 C 1.281513 -2.049786 0.272626 0
M  V30 7 C 2.031962 -3.181970 -0.113999 0
M  V30 8 N 2.845113 -2.892320 -1.142724 0
M  V30 9 C 2.689189 -1.606535 -1.486930 0
M  V30 10 N 3.210280 -0.786257 -2.411470 0
M  V30 11 C 2.839353 0.498392 -2.528934 0
M  V30 12 N 1.894515 0.979274 -1.673600 0
M  V30 13 C 1.349163 0.163920 -0.723638 0
M  V30 14 N 0.353013 0.912777 -0.065330 0
M  V30 15 C -1.099164 0.734617 -0.259363 0
M  V30 16 C -1.568553 2.119504 -0.699360 0
M  V30 17 O -1.373166 3.054919 0.289194 0
M  V30 18 C -0.505742 2.704367 1.291126 0
M  V30 19 C 0.742281 1.996267 0.858890 0
M  V30 20 C 1.739020 -1.142095 -0.610045 0
M  V30 21 N -0.152940 -3.302896 1.753577 0
M  V30 22 H -1.530625 -5.274327 2.891981 0
M  V30 23 H -1.127462 -4.433707 4.477478 0
M  V30 24 H -2.681035 -4.085125 3.676555 0
M  V30 25 H -1.667513 -1.471862 3.969347 0
M  V30 26 H -0.117094 -0.273456 2.294552 0
M  V30 27 H 2.050622 -4.195040 0.270170 0
M  V30 28 H 3.520242 -3.508181 -1.641788 0
M  V30 29 H 3.387728 0.967052 -3.332700 0
M  V30 30 H -1.617604 0.550643 0.691325 0
M  V30 31 H -1.344491 -0.039937 -0.979347 0
M  V30 32 H -0.889199 2.401442 -1.525642 0
M  V30 33 H -2.597813 2.111174 -1.088840 0
M  V30 34 H -0.995830 2.150734 2.133792 0
M  V30 35 H -0.178349 3.679720 1.767187 0
M  V30 36 H 1.462990 2.675349 0.342829 0
M  V30 37 H 1.294703 1.527336 1.687309 0
M  V30 END ATOM
M  V30 BEGIN BOND
M  V30 1 1 1 2
M  V30 2 1 2 3
M  V30 3 2 3 4
M  V30 4 1 4 5
M  V30 5 1 5 6
M  V30 6 2 6 7
M  V30 7 1 7 8
M  V30 8 1 8 9
M  V30 9 2 9 10
M  V30 10 1 10 11
M  V30 11 2 11 12
M  V30 12 1 12 13
M  V30 13 1 13 14
M  V30 14 1 14 15
M  V30 15 1 15 16
M  V30 16 1 16 17
M  V30 17 1 17 18
M  V30 18 1 18 19
M  V30 19 2 13 20
M  V30 20 2 5 21
M  V30 21 1 21 2
M  V30 22 1 20 6
M  V30 23 1 20 9
M  V30 24 1 19 14
M  V30 25 1 1 22
M  V30 26 1 1 23
M  V30 27 1 1 24
M  V30 28 1 3 25
M  V30 29 1 4 26
M  V30 30 1 7 27
M  V30 31 1 8 28
M  V30 32 1 11 29
M  V30 33 1 15 30
M  V30 34 1 15 31
M  V30 35 1 16 32
M  V30 36 1 16 33
M  V30 37 1 18 34
M  V30 38 1 18 35
M  V30 39 1 19 36
M  V30 40 1 19 37
M  V30 END BOND
M  V30 END CTAB
M  END
>  <Dataset>  (608) 
ChEMBL_Kinases

>  <Ligand_Instance>  (608) 
nan

>  <PDB_ID>  (608) 
nan

>  <Standardized_SMILES>  (608) 
Cn1ccc(-c2c[nH]c3ncnc(N4CCOCC4)c23)n1

>  <Name>  (608) 
nan

>  <Pocket>  (608) 
nan

>  <ATP_Site>  (608) 
nan

>  <Peripheral>  (608) 
nan

>  <Num_H_Atoms_ProtBoundConf>  (608) 
nan

>  <Num_Resolved_Atoms>  (608) 
nan

>  <Num_Not_Resolved_Atoms>  (608) 
nan

$$$$
CHEMBL3393439
     RDKit          3D

  0  0  0  0  0  0  0  0  0  0999 V3000
M  V30 BEGIN CTAB
M  V30 COUNTS 37 40 0 0 0
M  V30 BEGIN ATOM
M  V30 1 C -1.560917 -1.651463 4.318701 0
M  V30 2 N -1.447204 -1.881719 2.890767 0
M  V30 3 C -0.213166 -1.892227 2.361386 0
M  V30 4 C -0.284895 -2.125836 0.981043 0
M  V30 5 C 0.642198 -2.240032 -0.124117 0
M  V30 6 C 0.803028 -3.546649 -0.611168 0
M  V30 7 N 1.731246 -3.535894 -1.585102 0
M  V30 8 C 2.204278 -2.297407 -1.783257 0
M  V30 9 N 3.078174 -1.629778 -2.551863 0
M  V30 10 C 3.265120 -0.305689 -2.441759 0
M  V30 11 N 2.578262 0.425266 -1.546702 0
M  V30 12 C 1.663198 -0.169683 -0.716845 0
M  V30 13 N 1.048357 0.812083 0.133540 0
M  V30 14 C 0.960846 1.131724 1.531699 0
M  V30 15 C -0.454775 1.431184 1.905263 0
M  V30 16 O -0.899628 2.531767 1.121100 0
M  V30 17 C -1.055397 1.940731 -0.165972 0
M  V30 18 C 0.324614 1.801310 -0.693605 0
M  V30 19 C 1.525547 -1.521014 -0.882241 0
M  V30 20 C -1.640091 -2.250801 0.742751 0
M  V30 21 N -2.320316 -2.097899 1.920019 0
M  V30 22 H -1.092731 -2.503695 4.881685 0
M  V30 23 H -0.944956 -0.763765 4.646793 0
M  V30 24 H -2.587834 -1.448677 4.621488 0
M  V30 25 H 0.773185 -1.762569 2.793245 0
M  V30 26 H 0.364622 -4.485710 -0.378597 0
M  V30 27 H 2.124077 -4.317153 -2.187296 0
M  V30 28 H 3.997347 0.139504 -3.111576 0
M  V30 29 H 1.480494 0.424619 2.200548 0
M  V30 30 H 1.513428 2.117593 1.674400 0
M  V30 31 H -1.191228 0.642951 1.662487 0
M  V30 32 H -0.588616 1.666188 2.976317 0
M  V30 33 H -1.722095 2.546340 -0.803003 0
M  V30 34 H -1.469312 0.906012 -0.027573 0
M  V30 35 H 0.860306 2.765757 -0.425282 0
M  V30 36 H 0.397101 1.621978 -1.763144 0
M  V30 37 H -2.264619 -2.433771 -0.121157 0
M  V30 END ATOM
M  V30 BEGIN BOND
M  V30 1 1 1 2
M  V30 2 1 2 3
M  V30 3 2 3 4
M  V30 4 1 4 5
M  V30 5 2 5 6
M  V30 6 1 6 7
M  V30 7 1 7 8
M  V30 8 2 8 9
M  V30 9 1 9 10
M  V30 10 2 10 11
M  V30 11 1 11 12
M  V30 12 1 12 13
M  V30 13 1 13 14
M  V30 14 1 14 15
M  V30 15 1 15 16
M  V30 16 1 16 17
M  V30 17 1 17 18
M  V30 18 2 12 19
M  V30 19 1 4 20
M  V30 20 2 20 21
M  V30 21 1 21 2
M  V30 22 1 19 5
M  V30 23 1 19 8
M  V30 24 1 18 13
M  V30 25 1 1 22
M  V30 26 1 1 23
M  V30 27 1 1 24
M  V30 28 1 3 25
M  V30 29 1 6 26
M  V30 30 1 7 27
M  V30 31 1 10 28
M  V30 32 1 14 29
M  V30 33 1 14 30
M  V30 34 1 15 31
M  V30 35 1 15 32
M  V30 36 1 17 33
M  V30 37 1 17 34
M  V30 38 1 18 35
M  V30 39 1 18 36
M  V30 40 1 20 37
M  V30 END BOND
M  V30 END CTAB
M  END
>  <Dataset>  (609) 
ChEMBL_Kinases

>  <Ligand_Instance>  (609) 
nan

>  <PDB_ID>  (609) 
nan

>  <Standardized_SMILES>  (609) 
Cn1cc(-c2c[nH]c3ncnc(N4CCOCC4)c23)cn1

>  <Name>  (609) 
nan

>  <Pocket>  (609) 
nan

>  <ATP_Site>  (609) 
nan

>  <Peripheral>  (609) 
nan

>  <Num_H_Atoms_ProtBoundConf>  (609) 
nan

>  <Num_Resolved_Atoms>  (609) 
nan

>  <Num_Not_Resolved_Atoms>  (609) 
nan

$$$$
CHEMBL3393361
     RDKit          3D

  0  0  0  0  0  0  0  0  0  0999 V3000
M  V30 BEGIN CTAB
M  V30 COUNTS 37 40 0 0 0
M  V30 BEGIN ATOM
M  V30 1 N 0.692425 -6.243103 0.304782 0
M  V30 2 C 0.745490 -5.202939 0.808535 0
M  V30 3 C 0.814540 -3.916432 1.411493 0
M  V30 4 C 0.260537 -3.769635 2.666522 0
M  V30 5 N 0.292576 -2.580870 3.291483 0
M  V30 6 C 0.858155 -1.519597 2.715812 0
M  V30 7 C 1.438692 -1.559338 1.465586 0
M  V30 8 C 2.085668 -0.576027 0.621427 0
M  V30 9 C 3.460754 -0.731955 0.397222 0
M  V30 10 N 3.914635 0.301057 -0.367804 0
M  V30 11 C 2.902563 1.135351 -0.662701 0
M  V30 12 N 2.673601 2.265680 -1.348459 0
M  V30 13 C 1.459145 2.827062 -1.441630 0
M  V30 14 N 0.387073 2.262396 -0.832425 0
M  V30 15 C 0.545212 1.108847 -0.114241 0
M  V30 16 N -0.714007 0.726208 0.426046 0
M  V30 17 C -1.464928 0.640351 1.659953 0
M  V30 18 C -2.205944 -0.701256 1.616808 0
M  V30 19 O -3.303800 -0.565463 0.760782 0
M  V30 20 C -3.008341 0.308102 -0.284370 0
M  V30 21 C -1.558288 0.238627 -0.682955 0
M  V30 22 C 1.807938 0.582686 -0.053654 0
M  V30 23 C 1.401103 -2.807235 0.818711 0
M  V30 24 H -0.228602 -4.546995 3.246188 0
M  V30 25 H 0.959067 -0.513467 3.119970 0
M  V30 26 H 4.147677 -1.496985 0.722961 0
M  V30 27 H 4.890973 0.472385 -0.705784 0
M  V30 28 H 1.376018 3.753455 -2.027120 0
M  V30 29 H -2.280008 1.424471 1.623231 0
M  V30 30 H -0.910473 0.774243 2.574977 0
M  V30 31 H -2.446511 -1.092440 2.603769 0
M  V30 32 H -1.536693 -1.424079 1.107774 0
M  V30 33 H -3.584876 -0.061047 -1.166889 0
M  V30 34 H -3.361518 1.318562 -0.095010 0
M  V30 35 H -1.459312 0.990071 -1.519851 0
M  V30 36 H -1.254294 -0.734319 -1.054755 0
M  V30 37 H 1.801398 -3.042797 -0.163413 0
M  V30 END ATOM
M  V30 BEGIN BOND
M  V30 1 3 1 2
M  V30 2 1 2 3
M  V30 3 2 3 4
M  V30 4 1 4 5
M  V30 5 2 5 6
M  V30 6 1 6 7
M  V30 7 1 7 8
M  V30 8 2 8 9
M  V30 9 1 9 10
M  V30 10 1 10 11
M  V30 11 2 11 12
M  V30 12 1 12 13
M  V30 13 2 13 14
M  V30 14 1 14 15
M  V30 15 1 15 16
M  V30 16 1 16 17
M  V30 17 1 17 18
M  V30 18 1 18 19
M  V30 19 1 19 20
M  V30 20 1 20 21
M  V30 21 2 15 22
M  V30 22 2 7 23
M  V30 23 1 23 3
M  V30 24 1 22 8
M  V30 25 1 22 11
M  V30 26 1 21 16
M  V30 27 1 4 24
M  V30 28 1 6 25
M  V30 29 1 9 26
M  V30 30 1 10 27
M  V30 31 1 13 28
M  V30 32 1 17 29
M  V30 33 1 17 30
M  V30 34 1 18 31
M  V30 35 1 18 32
M  V30 36 1 20 33
M  V30 37 1 20 34
M  V30 38 1 21 35
M  V30 39 1 21 36
M  V30 40 1 23 37
M  V30 END BOND
M  V30 END CTAB
M  END
>  <Dataset>  (610) 
ChEMBL_Kinases

>  <Ligand_Instance>  (610) 
nan

>  <PDB_ID>  (610) 
nan

>  <Standardized_SMILES>  (610) 
N#Cc1cncc(-c2c[nH]c3ncnc(N4CCOCC4)c23)c1

>  <Name>  (610) 
nan

>  <Pocket>  (610) 
nan

>  <ATP_Site>  (610) 
nan

>  <Peripheral>  (610) 
nan

>  <Num_H_Atoms_ProtBoundConf>  (610) 
nan

>  <Num_Resolved_Atoms>  (610) 
nan

>  <Num_Not_Resolved_Atoms>  (610) 
nan

$$$$
CHEMBL3393306
     RDKit          3D

  0  0  0  0  0  0  0  0  0  0999 V3000
M  V30 BEGIN CTAB
M  V30 COUNTS 59 61 0 0 0
M  V30 BEGIN ATOM
M  V30 1 C -0.207998 -2.985512 4.035100 0
M  V30 2 C 0.801038 -2.148286 3.266895 0
M  V30 3 C 1.131488 -2.787041 1.931787 0
M  V30 4 C -0.008885 -2.936017 1.035245 0
M  V30 5 C -0.543686 -1.920395 0.280884 0
M  V30 6 C -0.138811 -0.516705 0.144438 0
M  V30 7 O 0.857961 -0.073249 0.710546 0
M  V30 8 N -0.917396 0.352560 -0.662287 0
M  V30 9 C -0.729984 1.728342 -0.938220 0
M  V30 10 C 0.264917 2.526487 -0.452878 0
M  V30 11 C 0.393166 3.857287 -0.749161 0
M  V30 12 S 1.683900 4.877938 -0.120770 0
M  V30 13 O 1.852576 6.094045 -0.969178 0
M  V30 14 O 2.948344 4.093879 -0.129719 0
M  V30 15 N 1.266297 5.432665 1.471431 0
M  V30 16 C 1.136750 4.232262 2.326637 0
M  V30 17 C -0.031876 6.096419 1.454003 0
M  V30 18 C -0.515095 4.486860 -1.588982 0
M  V30 19 C -1.506307 3.691248 -2.073366 0
M  V30 20 C -1.641813 2.351682 -1.779451 0
M  V30 21 C -2.779888 1.579829 -2.385268 0
M  V30 22 C -1.611543 -2.530356 -0.385158 0
M  V30 23 N -1.656532 -3.816318 -0.012025 0
M  V30 24 N -0.672447 -4.086471 0.866098 0
M  V30 25 C -0.543931 -5.411862 1.367868 0
M  V30 26 C 0.304039 -6.278041 0.511257 0
M  V30 27 C -0.347069 -6.890972 -0.539156 0
M  V30 28 C 0.288017 -7.737657 -1.449204 0
M  V30 29 C 1.637190 -7.953141 -1.260907 0
M  V30 30 C 2.291508 -7.342843 -0.212878 0
M  V30 31 C 1.673667 -6.504778 0.690964 0
M  V30 32 H -1.026663 -3.271603 3.350173 0
M  V30 33 H 0.277127 -3.924248 4.414915 0
M  V30 34 H -0.570545 -2.437330 4.909371 0
M  V30 35 H 0.351362 -1.137153 3.172444 0
M  V30 36 H 1.689362 -2.020165 3.911012 0
M  V30 37 H 1.863622 -2.090468 1.432072 0
M  V30 38 H 1.599710 -3.754333 2.176229 0
M  V30 39 H -1.748984 -0.109793 -1.107816 0
M  V30 40 H 1.004207 2.130675 0.196015 0
M  V30 41 H 2.105721 3.678072 2.155909 0
M  V30 42 H 0.267848 3.613111 2.035571 0
M  V30 43 H 1.057309 4.597720 3.360559 0
M  V30 44 H -0.775742 5.544438 2.090281 0
M  V30 45 H -0.402163 6.256707 0.434756 0
M  V30 46 H 0.100686 7.087786 1.928879 0
M  V30 47 H -0.455120 5.528021 -1.850593 0
M  V30 48 H -2.240013 4.134375 -2.732785 0
M  V30 49 H -2.386983 0.699642 -2.943788 0
M  V30 50 H -3.396313 1.169945 -1.539416 0
M  V30 51 H -3.342822 2.261223 -3.024155 0
M  V30 52 H -2.301805 -2.076344 -1.085109 0
M  V30 53 H -0.121264 -5.409035 2.395560 0
M  V30 54 H -1.541112 -5.880711 1.443044 0
M  V30 55 H -1.411408 -6.746567 -0.722721 0
M  V30 56 H -0.222263 -8.219746 -2.278122 0
M  V30 57 H 2.126849 -8.599595 -1.954110 0
M  V30 58 H 3.358686 -7.518985 -0.070393 0
M  V30 59 H 2.131982 -6.002436 1.527223 0
M  V30 END ATOM
M  V30 BEGIN BOND
M  V30 1 1 1 2
M  V30 2 1 2 3
M  V30 3 1 3 4
M  V30 4 2 4 5
M  V30 5 1 5 6
M  V30 6 2 6 7
M  V30 7 1 6 8
M  V30 8 1 8 9
M  V30 9 2 9 10
M  V30 10 1 10 11
M  V30 11 1 11 12
M  V30 12 2 12 13
M  V30 13 2 12 14
M  V30 14 1 12 15
M  V30 15 1 15 16
M  V30 16 1 15 17
M  V30 17 2 11 18
M  V30 18 1 18 19
M  V30 19 2 19 20
M  V30 20 1 20 21
M  V30 21 1 5 22
M  V30 22 2 22 23
M  V30 23 1 23 24
M  V30 24 1 24 25
M  V30 25 1 25 26
M  V30 26 2 26 27
M  V30 27 1 27 28
M  V30 28 2 28 29
M  V30 29 1 29 30
M  V30 30 2 30 31
M  V30 31 1 24 4
M  V30 32 1 31 26
M  V30 33 1 20 9
M  V30 34 1 1 32
M  V30 35 1 1 33
M  V30 36 1 1 34
M  V30 37 1 2 35
M  V30 38 1 2 36
M  V30 39 1 3 37
M  V30 40 1 3 38
M  V30 41 1 8 39
M  V30 42 1 10 40
M  V30 43 1 16 41
M  V30 44 1 16 42
M  V30 45 1 16 43
M  V30 46 1 17 44
M  V30 47 1 17 45
M  V30 48 1 17 46
M  V30 49 1 18 47
M  V30 50 1 19 48
M  V30 51 1 21 49
M  V30 52 1 21 50
M  V30 53 1 21 51
M  V30 54 1 22 52
M  V30 55 1 25 53
M  V30 56 1 25 54
M  V30 57 1 27 55
M  V30 58 1 28 56
M  V30 59 1 29 57
M  V30 60 1 30 58
M  V30 61 1 31 59
M  V30 END BOND
M  V30 END CTAB
M  END
>  <Dataset>  (611) 
ChEMBL_Kinases

>  <Ligand_Instance>  (611) 
nan

>  <PDB_ID>  (611) 
nan

>  <Standardized_SMILES>  (611) 
CCCc1c(C(=O)Nc2cc(S(=O)(=O)N(C)C)ccc2C)cnn1Cc1ccccc1

>  <Name>  (611) 
nan

>  <Pocket>  (611) 
nan

>  <ATP_Site>  (611) 
nan

>  <Peripheral>  (611) 
nan

>  <Num_H_Atoms_ProtBoundConf>  (611) 
nan

>  <Num_Resolved_Atoms>  (611) 
nan

>  <Num_Not_Resolved_Atoms>  (611) 
nan

$$$$
CHEMBL3393307
     RDKit          3D

  0  0  0  0  0  0  0  0  0  0999 V3000
M  V30 BEGIN CTAB
M  V30 COUNTS 58 59 0 0 0
M  V30 BEGIN ATOM
M  V30 1 C -3.225214 -1.638066 2.756984 0
M  V30 2 C -1.858966 -2.245086 2.446043 0
M  V30 3 C -1.722679 -2.506767 0.965640 0
M  V30 4 C -0.413359 -3.086880 0.592693 0
M  V30 5 C 0.839000 -2.471973 0.440888 0
M  V30 6 C 0.866880 -1.023920 0.582605 0
M  V30 7 O 0.538283 -0.142952 1.385908 0
M  V30 8 N 1.445747 -0.341853 -0.544691 0
M  V30 9 C 1.422259 1.091672 -0.378788 0
M  V30 10 C 2.216573 2.045555 0.160550 0
M  V30 11 C 1.811490 3.344203 0.100475 0
M  V30 12 S 2.862919 4.527943 0.825706 0
M  V30 13 O 2.707455 5.821644 0.077961 0
M  V30 14 O 4.276993 4.046409 0.704611 0
M  V30 15 N 2.461821 4.758348 2.510856 0
M  V30 16 C 2.670239 3.465273 3.154435 0
M  V30 17 C 1.005328 4.976984 2.539509 0
M  V30 18 C 0.637356 3.752296 -0.478730 0
M  V30 19 C -0.208267 2.795233 -1.046044 0
M  V30 20 C 0.207831 1.461227 -0.983599 0
M  V30 21 C -0.844318 0.602269 -1.643874 0
M  V30 22 C 1.773118 -3.408698 0.140842 0
M  V30 23 N 1.161815 -4.591727 0.093878 0
M  V30 24 N -0.119490 -4.408884 0.355843 0
M  V30 25 C -1.026218 -5.511235 0.320127 0
M  V30 26 C -1.550044 -5.883013 -1.025547 0
M  V30 27 C -2.292463 -4.753021 -1.689282 0
M  V30 28 C -0.492873 -6.347921 -2.006229 0
M  V30 29 H -3.445743 -1.591080 3.819108 0
M  V30 30 H -3.271580 -0.654647 2.240090 0
M  V30 31 H -4.034818 -2.265150 2.278859 0
M  V30 32 H -1.112128 -1.616208 2.899459 0
M  V30 33 H -1.909897 -3.275869 2.915796 0
M  V30 34 H -1.763568 -1.504276 0.459947 0
M  V30 35 H -2.551018 -3.100761 0.569709 0
M  V30 36 H 1.838916 -0.855337 -1.394481 0
M  V30 37 H 3.084359 1.589923 0.569208 0
M  V30 38 H 3.554531 2.964528 2.697426 0
M  V30 39 H 2.745573 3.582091 4.236948 0
M  V30 40 H 1.807742 2.807604 2.903427 0
M  V30 41 H 0.693560 5.865882 1.990780 0
M  V30 42 H 0.570613 4.112430 1.969644 0
M  V30 43 H 0.602792 4.923965 3.551795 0
M  V30 44 H 0.382864 4.803876 -0.490249 0
M  V30 45 H -1.101600 3.198931 -1.473815 0
M  V30 46 H -0.459843 -0.458683 -1.704702 0
M  V30 47 H -1.795635 0.631246 -1.098233 0
M  V30 48 H -1.002427 0.963098 -2.669146 0
M  V30 49 H 2.816789 -3.160840 -0.020927 0
M  V30 50 H -1.916412 -5.255472 0.941438 0
M  V30 51 H -0.502839 -6.412788 0.732868 0
M  V30 52 H -2.240049 -6.776555 -0.918984 0
M  V30 53 H -3.281626 -4.667068 -1.207871 0
M  V30 54 H -2.426904 -4.967283 -2.784139 0
M  V30 55 H -1.768783 -3.795166 -1.582084 0
M  V30 56 H -1.087710 -6.816043 -2.848857 0
M  V30 57 H 0.023672 -5.500644 -2.465045 0
M  V30 58 H 0.144560 -7.134614 -1.589476 0
M  V30 END ATOM
M  V30 BEGIN BOND
M  V30 1 1 1 2
M  V30 2 1 2 3
M  V30 3 1 3 4
M  V30 4 2 4 5
M  V30 5 1 5 6
M  V30 6 2 6 7
M  V30 7 1 6 8
M  V30 8 1 8 9
M  V30 9 2 9 10
M  V30 10 1 10 11
M  V30 11 1 11 12
M  V30 12 2 12 13
M  V30 13 2 12 14
M  V30 14 1 12 15
M  V30 15 1 15 16
M  V30 16 1 15 17
M  V30 17 2 11 18
M  V30 18 1 18 19
M  V30 19 2 19 20
M  V30 20 1 20 21
M  V30 21 1 5 22
M  V30 22 2 22 23
M  V30 23 1 23 24
M  V30 24 1 24 25
M  V30 25 1 25 26
M  V30 26 1 26 27
M  V30 27 1 26 28
M  V30 28 1 24 4
M  V30 29 1 20 9
M  V30 30 1 1 29
M  V30 31 1 1 30
M  V30 32 1 1 31
M  V30 33 1 2 32
M  V30 34 1 2 33
M  V30 35 1 3 34
M  V30 36 1 3 35
M  V30 37 1 8 36
M  V30 38 1 10 37
M  V30 39 1 16 38
M  V30 40 1 16 39
M  V30 41 1 16 40
M  V30 42 1 17 41
M  V30 43 1 17 42
M  V30 44 1 17 43
M  V30 45 1 18 44
M  V30 46 1 19 45
M  V30 47 1 21 46
M  V30 48 1 21 47
M  V30 49 1 21 48
M  V30 50 1 22 49
M  V30 51 1 25 50
M  V30 52 1 25 51
M  V30 53 1 26 52
M  V30 54 1 27 53
M  V30 55 1 27 54
M  V30 56 1 27 55
M  V30 57 1 28 56
M  V30 58 1 28 57
M  V30 59 1 28 58
M  V30 END BOND
M  V30 END CTAB
M  END
>  <Dataset>  (612) 
ChEMBL_Kinases

>  <Ligand_Instance>  (612) 
nan

>  <PDB_ID>  (612) 
nan

>  <Standardized_SMILES>  (612) 
CCCc1c(C(=O)Nc2cc(S(=O)(=O)N(C)C)ccc2C)cnn1CC(C)C

>  <Name>  (612) 
nan

>  <Pocket>  (612) 
nan

>  <ATP_Site>  (612) 
nan

>  <Peripheral>  (612) 
nan

>  <Num_H_Atoms_ProtBoundConf>  (612) 
nan

>  <Num_Resolved_Atoms>  (612) 
nan

>  <Num_Not_Resolved_Atoms>  (612) 
nan

$$$$
CHEMBL3393341
     RDKit          3D

  0  0  0  0  0  0  0  0  0  0999 V3000
M  V30 BEGIN CTAB
M  V30 COUNTS 43 46 0 0 0
M  V30 BEGIN ATOM
M  V30 1 C -0.284495 -2.746473 2.753813 0
M  V30 2 C 0.835091 -3.154067 1.830669 0 CFG=1
M  V30 3 C 0.326764 -4.119585 0.782398 0
M  V30 4 C 0.224701 -3.458516 -0.575501 0
M  V30 5 C -0.105620 -1.995313 -0.268922 0
M  V30 6 N 1.134093 -1.365884 0.121747 0
M  V30 7 C 2.062963 -0.342969 -0.203572 0
M  V30 8 N 3.193134 -0.898013 -0.735699 0
M  V30 9 C 4.213833 -0.099744 -1.137957 0
M  V30 10 N 4.124398 1.232855 -1.017503 0
M  V30 11 C 3.045630 1.825351 -0.504925 0
M  V30 12 N 2.639021 3.077322 -0.230233 0
M  V30 13 C 1.397334 3.036536 0.326335 0
M  V30 14 C 0.964308 1.708925 0.423529 0
M  V30 15 C -0.353697 1.448455 0.955700 0
M  V30 16 C -0.479906 1.900031 2.281910 0
M  V30 17 C -1.644788 1.808133 3.027973 0
M  V30 18 C -2.742419 1.248610 2.454856 0
M  V30 19 C -2.671762 0.793302 1.165232 0
M  V30 20 C -3.777834 0.189165 0.478806 0
M  V30 21 N -4.675651 -0.305264 -0.068044 0
M  V30 22 C -1.507772 0.896873 0.450779 0
M  V30 23 C 2.012074 1.016160 -0.098563 0
M  V30 24 C 1.631729 -2.020923 1.315384 0
M  V30 25 H -0.408752 -1.644430 2.790893 0
M  V30 26 H -1.242169 -3.224882 2.445082 0
M  V30 27 H -0.093558 -3.123625 3.778545 0
M  V30 28 H 1.544280 -3.782698 2.452806 0
M  V30 29 H -0.690664 -4.460977 1.059337 0
M  V30 30 H 0.948699 -5.023362 0.667590 0
M  V30 31 H -0.623548 -3.891224 -1.115526 0
M  V30 32 H 1.171961 -3.480787 -1.138285 0
M  V30 33 H -0.498971 -1.565364 -1.233234 0
M  V30 34 H -0.901884 -1.921591 0.468029 0
M  V30 35 H 5.142047 -0.454215 -1.569384 0
M  V30 36 H 3.227103 3.914986 -0.434101 0
M  V30 37 H 0.897500 3.948761 0.618978 0
M  V30 38 H 0.336021 2.370696 2.855678 0
M  V30 39 H -1.737016 2.150786 4.031393 0
M  V30 40 H -3.684264 1.133497 2.948546 0
M  V30 41 H -1.334163 0.578192 -0.582439 0
M  V30 42 H 1.658653 -1.237335 2.126930 0
M  V30 43 H 2.702561 -2.340776 1.189742 0
M  V30 END ATOM
M  V30 BEGIN BOND
M  V30 1 1 1 2
M  V30 2 1 2 3
M  V30 3 1 3 4
M  V30 4 1 4 5
M  V30 5 1 5 6
M  V30 6 1 6 7
M  V30 7 2 7 8
M  V30 8 1 8 9
M  V30 9 2 9 10
M  V30 10 1 10 11
M  V30 11 1 11 12
M  V30 12 1 12 13
M  V30 13 2 13 14
M  V30 14 1 14 15
M  V30 15 2 15 16
M  V30 16 1 16 17
M  V30 17 2 17 18
M  V30 18 1 18 19
M  V30 19 1 19 20
M  V30 20 3 20 21
M  V30 21 2 19 22
M  V30 22 1 14 23
M  V30 23 1 6 24
M  V30 24 1 24 2
M  V30 25 1 23 7
M  V30 26 2 23 11
M  V30 27 1 22 15
M  V30 28 1 1 25
M  V30 29 1 1 26
M  V30 30 1 1 27
M  V30 31 1 2 28 CFG=1
M  V30 32 1 3 29
M  V30 33 1 3 30
M  V30 34 1 4 31
M  V30 35 1 4 32
M  V30 36 1 5 33
M  V30 37 1 5 34
M  V30 38 1 9 35
M  V30 39 1 12 36
M  V30 40 1 13 37
M  V30 41 1 16 38
M  V30 42 1 17 39
M  V30 43 1 18 40
M  V30 44 1 22 41
M  V30 45 1 24 42
M  V30 46 1 24 43
M  V30 END BOND
M  V30 END CTAB
M  END
>  <Dataset>  (613) 
ChEMBL_Kinases

>  <Ligand_Instance>  (613) 
nan

>  <PDB_ID>  (613) 
nan

>  <Standardized_SMILES>  (613) 
C[C@H]1CCCN(c2ncnc3[nH]cc(-c4cccc(C#N)c4)c23)C1

>  <Name>  (613) 
nan

>  <Pocket>  (613) 
nan

>  <ATP_Site>  (613) 
nan

>  <Peripheral>  (613) 
nan

>  <Num_H_Atoms_ProtBoundConf>  (613) 
nan

>  <Num_Resolved_Atoms>  (613) 
nan

>  <Num_Not_Resolved_Atoms>  (613) 
nan

$$$$
CHEMBL3393342
     RDKit          3D

  0  0  0  0  0  0  0  0  0  0999 V3000
M  V30 BEGIN CTAB
M  V30 COUNTS 43 46 0 0 0
M  V30 BEGIN ATOM
M  V30 1 C 1.651467 -4.264082 1.834410 0
M  V30 2 C 0.518517 -3.252317 2.062508 0 CFG=2
M  V30 3 C -0.666963 -3.801472 1.366869 0
M  V30 4 C -0.701160 -3.257799 -0.027735 0
M  V30 5 C -0.714680 -1.752342 0.141167 0
M  V30 6 N 0.668794 -1.367378 0.425222 0
M  V30 7 C 1.690257 -0.612510 -0.210133 0
M  V30 8 N 2.603467 -1.468166 -0.762721 0
M  V30 9 C 3.671018 -0.958445 -1.445520 0
M  V30 10 N 3.858115 0.366958 -1.594694 0
M  V30 11 C 2.980130 1.236901 -1.063508 0
M  V30 12 N 2.836534 2.570857 -0.978485 0
M  V30 13 C 1.717966 2.876260 -0.267290 0
M  V30 14 C 1.084753 1.691834 0.140619 0
M  V30 15 C -0.155529 1.779515 0.885128 0
M  V30 16 C 0.055635 2.414983 2.121918 0
M  V30 17 C -0.949290 2.666307 3.032549 0
M  V30 18 C -2.234830 2.278761 2.726113 0
M  V30 19 C -2.475571 1.658061 1.530532 0
M  V30 20 C -3.772203 1.213646 1.110146 0
M  V30 21 N -4.842039 0.845993 0.784661 0
M  V30 22 C -1.462228 1.421837 0.647339 0
M  V30 23 C 1.905195 0.732038 -0.377078 0
M  V30 24 C 1.013025 -1.923280 1.696789 0
M  V30 25 H 1.366953 -5.260526 2.227384 0
M  V30 26 H 1.783845 -4.306144 0.728752 0
M  V30 27 H 2.612783 -3.896783 2.243943 0
M  V30 28 H 0.307487 -3.332534 3.169804 0
M  V30 29 H -1.591555 -3.569893 1.917557 0
M  V30 30 H -0.646502 -4.928692 1.306430 0
M  V30 31 H -1.630643 -3.571500 -0.535416 0
M  V30 32 H 0.219046 -3.559908 -0.557116 0
M  V30 33 H -1.060254 -1.327461 -0.823391 0
M  V30 34 H -1.394868 -1.528725 0.984820 0
M  V30 35 H 4.431647 -1.575551 -1.908621 0
M  V30 36 H 3.505848 3.261717 -1.408279 0
M  V30 37 H 1.424880 3.898599 -0.084591 0
M  V30 38 H 1.024625 2.778490 2.501000 0
M  V30 39 H -0.818280 3.148274 3.981924 0
M  V30 40 H -3.082027 2.426469 3.361235 0
M  V30 41 H -1.524486 0.949153 -0.339703 0
M  V30 42 H 0.634810 -1.203547 2.487725 0
M  V30 43 H 2.131277 -1.876981 1.856533 0
M  V30 END ATOM
M  V30 BEGIN BOND
M  V30 1 1 1 2
M  V30 2 1 2 3
M  V30 3 1 3 4
M  V30 4 1 4 5
M  V30 5 1 5 6
M  V30 6 1 6 7
M  V30 7 2 7 8
M  V30 8 1 8 9
M  V30 9 2 9 10
M  V30 10 1 10 11
M  V30 11 1 11 12
M  V30 12 1 12 13
M  V30 13 2 13 14
M  V30 14 1 14 15
M  V30 15 2 15 16
M  V30 16 1 16 17
M  V30 17 2 17 18
M  V30 18 1 18 19
M  V30 19 1 19 20
M  V30 20 3 20 21
M  V30 21 2 19 22
M  V30 22 1 14 23
M  V30 23 1 6 24
M  V30 24 1 24 2
M  V30 25 1 23 7
M  V30 26 2 23 11
M  V30 27 1 22 15
M  V30 28 1 1 25
M  V30 29 1 1 26
M  V30 30 1 1 27
M  V30 31 1 2 28 CFG=1
M  V30 32 1 3 29
M  V30 33 1 3 30
M  V30 34 1 4 31
M  V30 35 1 4 32
M  V30 36 1 5 33
M  V30 37 1 5 34
M  V30 38 1 9 35
M  V30 39 1 12 36
M  V30 40 1 13 37
M  V30 41 1 16 38
M  V30 42 1 17 39
M  V30 43 1 18 40
M  V30 44 1 22 41
M  V30 45 1 24 42
M  V30 46 1 24 43
M  V30 END BOND
M  V30 END CTAB
M  END
>  <Dataset>  (614) 
ChEMBL_Kinases

>  <Ligand_Instance>  (614) 
nan

>  <PDB_ID>  (614) 
nan

>  <Standardized_SMILES>  (614) 
C[C@@H]1CCCN(c2ncnc3[nH]cc(-c4cccc(C#N)c4)c23)C1

>  <Name>  (614) 
nan

>  <Pocket>  (614) 
nan

>  <ATP_Site>  (614) 
nan

>  <Peripheral>  (614) 
nan

>  <Num_H_Atoms_ProtBoundConf>  (614) 
nan

>  <Num_Resolved_Atoms>  (614) 
nan

>  <Num_Not_Resolved_Atoms>  (614) 
nan

$$$$
CHEMBL3393343
     RDKit          3D

  0  0  0  0  0  0  0  0  0  0999 V3000
M  V30 BEGIN CTAB
M  V30 COUNTS 40 43 0 0 0
M  V30 BEGIN ATOM
M  V30 1 N 0.388057 -4.585932 3.073423 0
M  V30 2 C 0.619550 -4.028784 2.085508 0
M  V30 3 C 0.895077 -3.321971 0.869237 0
M  V30 4 C 0.815545 -3.995531 -0.319699 0
M  V30 5 C 1.085140 -3.316808 -1.488266 0
M  V30 6 C 1.421761 -1.990977 -1.395132 0
M  V30 7 C 1.515662 -1.261046 -0.202202 0
M  V30 8 C 1.920786 0.114363 -0.365258 0
M  V30 9 C 3.090687 0.404501 -1.062260 0
M  V30 10 N 3.293270 1.739028 -1.059684 0
M  V30 11 C 2.298082 2.365010 -0.383546 0
M  V30 12 N 1.971635 3.622957 -0.056857 0
M  V30 13 C 0.859947 3.832223 0.653699 0
M  V30 14 N 0.037379 2.846545 1.066175 0
M  V30 15 C 0.333086 1.548324 0.754015 0
M  V30 16 N -0.662977 0.670562 1.231838 0
M  V30 17 C -1.555600 0.032459 0.286837 0
M  V30 18 C -2.156147 -1.167825 0.895453 0
M  V30 19 C -2.144163 -1.337530 2.350443 0
M  V30 20 C -1.682213 -0.246272 3.222770 0
M  V30 21 C -0.581723 0.607185 2.676962 0
M  V30 22 C 1.480861 1.344661 0.023692 0
M  V30 23 C 1.235639 -1.988182 0.934397 0
M  V30 24 H 0.545749 -5.038422 -0.328575 0
M  V30 25 H 1.024145 -3.841862 -2.429191 0
M  V30 26 H 1.620701 -1.523659 -2.365156 0
M  V30 27 H 3.782012 -0.256508 -1.554067 0
M  V30 28 H 4.087083 2.271588 -1.500038 0
M  V30 29 H 0.665822 4.877651 0.877991 0
M  V30 30 H -2.396099 0.769609 0.047871 0
M  V30 31 H -1.062781 -0.174458 -0.676673 0
M  V30 32 H -3.202350 -1.268100 0.455884 0
M  V30 33 H -1.636344 -2.054816 0.416819 0
M  V30 34 H -3.210293 -1.564125 2.669248 0
M  V30 35 H -1.619738 -2.297768 2.644183 0
M  V30 36 H -1.278197 -0.681693 4.171192 0
M  V30 37 H -2.538826 0.387357 3.571427 0
M  V30 38 H -0.791920 1.672193 3.008558 0
M  V30 39 H 0.419693 0.402078 3.066726 0
M  V30 40 H 1.315480 -1.414468 1.838081 0
M  V30 END ATOM
M  V30 BEGIN BOND
M  V30 1 3 1 2
M  V30 2 1 2 3
M  V30 3 2 3 4
M  V30 4 1 4 5
M  V30 5 2 5 6
M  V30 6 1 6 7
M  V30 7 1 7 8
M  V30 8 2 8 9
M  V30 9 1 9 10
M  V30 10 1 10 11
M  V30 11 2 11 12
M  V30 12 1 12 13
M  V30 13 2 13 14
M  V30 14 1 14 15
M  V30 15 1 15 16
M  V30 16 1 16 17
M  V30 17 1 17 18
M  V30 18 1 18 19
M  V30 19 1 19 20
M  V30 20 1 20 21
M  V30 21 2 15 22
M  V30 22 2 7 23
M  V30 23 1 23 3
M  V30 24 1 22 8
M  V30 25 1 22 11
M  V30 26 1 21 16
M  V30 27 1 4 24
M  V30 28 1 5 25
M  V30 29 1 6 26
M  V30 30 1 9 27
M  V30 31 1 10 28
M  V30 32 1 13 29
M  V30 33 1 17 30
M  V30 34 1 17 31
M  V30 35 1 18 32
M  V30 36 1 18 33
M  V30 37 1 19 34
M  V30 38 1 19 35
M  V30 39 1 20 36
M  V30 40 1 20 37
M  V30 41 1 21 38
M  V30 42 1 21 39
M  V30 43 1 23 40
M  V30 END BOND
M  V30 END CTAB
M  END
>  <Dataset>  (615) 
ChEMBL_Kinases

>  <Ligand_Instance>  (615) 
nan

>  <PDB_ID>  (615) 
nan

>  <Standardized_SMILES>  (615) 
N#Cc1cccc(-c2c[nH]c3ncnc(N4CCCCC4)c23)c1

>  <Name>  (615) 
nan

>  <Pocket>  (615) 
nan

>  <ATP_Site>  (615) 
nan

>  <Peripheral>  (615) 
nan

>  <Num_H_Atoms_ProtBoundConf>  (615) 
nan

>  <Num_Resolved_Atoms>  (615) 
nan

>  <Num_Not_Resolved_Atoms>  (615) 
nan

$$$$
CHEMBL3393344
     RDKit          3D

  0  0  0  0  0  0  0  0  0  0999 V3000
M  V30 BEGIN CTAB
M  V30 COUNTS 37 40 0 0 0
M  V30 BEGIN ATOM
M  V30 1 N -0.267077 -3.577054 4.763020 0
M  V30 2 C 0.322764 -3.369863 3.783294 0
M  V30 3 C 1.050731 -3.133688 2.577439 0
M  V30 4 C 1.607537 -4.133094 1.843482 0
M  V30 5 C 2.291179 -3.827316 0.697723 0
M  V30 6 C 2.395267 -2.503980 0.319251 0
M  V30 7 C 1.838461 -1.433374 1.041498 0
M  V30 8 C 2.126667 -0.156901 0.440596 0
M  V30 9 C 3.451608 0.237711 0.262538 0
M  V30 10 N 3.473757 1.484060 -0.285271 0
M  V30 11 C 2.227913 1.940920 -0.482545 0
M  V30 12 N 1.628458 3.023839 -0.969690 0
M  V30 13 C 0.295280 3.146826 -1.033834 0
M  V30 14 N -0.488636 2.145986 -0.592864 0
M  V30 15 C 0.069968 1.009360 -0.081201 0
M  V30 16 N -0.958596 0.116048 0.316692 0
M  V30 17 C -1.734027 -0.616331 1.298631 0
M  V30 18 C -3.176627 -0.159483 1.098191 0
M  V30 19 C -3.180109 -0.008744 -0.416870 0
M  V30 20 C -1.788336 -0.493391 -0.735039 0
M  V30 21 C 1.426832 0.920714 -0.031638 0
M  V30 22 C 1.173329 -1.843801 2.174814 0
M  V30 23 H 1.491512 -5.139477 2.190257 0
M  V30 24 H 2.714166 -4.641744 0.149183 0
M  V30 25 H 2.961329 -2.383862 -0.608183 0
M  V30 26 H 4.360057 -0.297962 0.494747 0
M  V30 27 H 4.337757 2.049012 -0.535988 0
M  V30 28 H -0.065724 4.083379 -1.454107 0
M  V30 29 H -1.606355 -1.696331 1.238275 0
M  V30 30 H -1.486258 -0.253263 2.339655 0
M  V30 31 H -3.869983 -0.977970 1.331738 0
M  V30 32 H -3.383501 0.780230 1.621432 0
M  V30 33 H -3.967037 -0.589816 -0.893690 0
M  V30 34 H -3.219071 1.073180 -0.636884 0
M  V30 35 H -1.516252 -0.172636 -1.748713 0
M  V30 36 H -1.708322 -1.601432 -0.725521 0
M  V30 37 H 0.768986 -0.956177 2.692551 0
M  V30 END ATOM
M  V30 BEGIN BOND
M  V30 1 3 1 2
M  V30 2 1 2 3
M  V30 3 2 3 4
M  V30 4 1 4 5
M  V30 5 2 5 6
M  V30 6 1 6 7
M  V30 7 1 7 8
M  V30 8 2 8 9
M  V30 9 1 9 10
M  V30 10 1 10 11
M  V30 11 2 11 12
M  V30 12 1 12 13
M  V30 13 2 13 14
M  V30 14 1 14 15
M  V30 15 1 15 16
M  V30 16 1 16 17
M  V30 17 1 17 18
M  V30 18 1 18 19
M  V30 19 1 19 20
M  V30 20 2 15 21
M  V30 21 2 7 22
M  V30 22 1 22 3
M  V30 23 1 21 8
M  V30 24 1 21 11
M  V30 25 1 20 16
M  V30 26 1 4 23
M  V30 27 1 5 24
M  V30 28 1 6 25
M  V30 29 1 9 26
M  V30 30 1 10 27
M  V30 31 1 13 28
M  V30 32 1 17 29
M  V30 33 1 17 30
M  V30 34 1 18 31
M  V30 35 1 18 32
M  V30 36 1 19 33
M  V30 37 1 19 34
M  V30 38 1 20 35
M  V30 39 1 20 36
M  V30 40 1 22 37
M  V30 END BOND
M  V30 END CTAB
M  END
>  <Dataset>  (616) 
ChEMBL_Kinases

>  <Ligand_Instance>  (616) 
nan

>  <PDB_ID>  (616) 
nan

>  <Standardized_SMILES>  (616) 
N#Cc1cccc(-c2c[nH]c3ncnc(N4CCCC4)c23)c1

>  <Name>  (616) 
nan

>  <Pocket>  (616) 
nan

>  <ATP_Site>  (616) 
nan

>  <Peripheral>  (616) 
nan

>  <Num_H_Atoms_ProtBoundConf>  (616) 
nan

>  <Num_Resolved_Atoms>  (616) 
nan

>  <Num_Not_Resolved_Atoms>  (616) 
nan

$$$$
CHEMBL3393345
     RDKit          3D

  0  0  0  0  0  0  0  0  0  0999 V3000
M  V30 BEGIN CTAB
M  V30 COUNTS 34 37 0 0 0
M  V30 BEGIN ATOM
M  V30 1 N 1.120164 -1.508274 5.438050 0
M  V30 2 C 1.174330 -1.760935 4.301156 0
M  V30 3 C 1.226618 -2.092128 2.905361 0
M  V30 4 C 1.313975 -3.378466 2.423918 0
M  V30 5 C 1.357850 -3.580378 1.063159 0
M  V30 6 C 1.313073 -2.492517 0.218195 0
M  V30 7 C 1.223715 -1.167527 0.673546 0
M  V30 8 C 1.229600 -0.230700 -0.431916 0
M  V30 9 C 2.351249 -0.170306 -1.272665 0
M  V30 10 N 2.146837 0.805217 -2.205938 0
M  V30 11 C 0.950055 1.387088 -2.022260 0
M  V30 12 N 0.206563 2.339766 -2.584225 0
M  V30 13 C -1.014549 2.675132 -2.139185 0
M  V30 14 N -1.520773 2.025575 -1.077063 0
M  V30 15 C -0.815178 1.036808 -0.447924 0
M  V30 16 N -1.578315 0.514703 0.663827 0
M  V30 17 C -1.917715 0.322639 2.087511 0
M  V30 18 C -2.317644 -1.078798 1.727354 0
M  V30 19 C -2.733825 -0.389416 0.436933 0
M  V30 20 C 0.415539 0.738829 -0.939818 0
M  V30 21 C 1.183657 -1.022971 2.040827 0
M  V30 22 H 1.342234 -4.157125 3.181446 0
M  V30 23 H 1.426532 -4.606608 0.731776 0
M  V30 24 H 1.355974 -2.798684 -0.836666 0
M  V30 25 H 3.250982 -0.765477 -1.238296 0
M  V30 26 H 2.794572 1.102780 -2.979715 0
M  V30 27 H -1.525094 3.463668 -2.674632 0
M  V30 28 H -2.864241 0.894330 2.327959 0
M  V30 29 H -1.129622 0.418670 2.808476 0
M  V30 30 H -1.540598 -1.811131 1.519191 0
M  V30 31 H -3.185674 -1.480014 2.295490 0
M  V30 32 H -3.671692 0.179161 0.633705 0
M  V30 33 H -2.695967 -1.006304 -0.453742 0
M  V30 34 H 1.125763 0.049907 2.284409 0
M  V30 END ATOM
M  V30 BEGIN BOND
M  V30 1 3 1 2
M  V30 2 1 2 3
M  V30 3 2 3 4
M  V30 4 1 4 5
M  V30 5 2 5 6
M  V30 6 1 6 7
M  V30 7 1 7 8
M  V30 8 2 8 9
M  V30 9 1 9 10
M  V30 10 1 10 11
M  V30 11 2 11 12
M  V30 12 1 12 13
M  V30 13 2 13 14
M  V30 14 1 14 15
M  V30 15 1 15 16
M  V30 16 1 16 17
M  V30 17 1 17 18
M  V30 18 1 18 19
M  V30 19 2 15 20
M  V30 20 2 7 21
M  V30 21 1 21 3
M  V30 22 1 20 8
M  V30 23 1 20 11
M  V30 24 1 19 16
M  V30 25 1 4 22
M  V30 26 1 5 23
M  V30 27 1 6 24
M  V30 28 1 9 25
M  V30 29 1 10 26
M  V30 30 1 13 27
M  V30 31 1 17 28
M  V30 32 1 17 29
M  V30 33 1 18 30
M  V30 34 1 18 31
M  V30 35 1 19 32
M  V30 36 1 19 33
M  V30 37 1 21 34
M  V30 END BOND
M  V30 END CTAB
M  END
>  <Dataset>  (617) 
ChEMBL_Kinases

>  <Ligand_Instance>  (617) 
nan

>  <PDB_ID>  (617) 
nan

>  <Standardized_SMILES>  (617) 
N#Cc1cccc(-c2c[nH]c3ncnc(N4CCC4)c23)c1

>  <Name>  (617) 
nan

>  <Pocket>  (617) 
nan

>  <ATP_Site>  (617) 
nan

>  <Peripheral>  (617) 
nan

>  <Num_H_Atoms_ProtBoundConf>  (617) 
nan

>  <Num_Resolved_Atoms>  (617) 
nan

>  <Num_Not_Resolved_Atoms>  (617) 
nan

$$$$
CHEMBL3393346
     RDKit          3D

  0  0  0  0  0  0  0  0  0  0999 V3000
M  V30 BEGIN CTAB
M  V30 COUNTS 33 35 0 0 0
M  V30 BEGIN ATOM
M  V30 1 C 0.061345 -0.989384 2.601440 0
M  V30 2 N -0.045536 -2.089013 1.623920 0
M  V30 3 C -1.322480 -2.815706 1.740117 0
M  V30 4 C 1.076106 -2.255929 0.765377 0
M  V30 5 N 1.768518 -3.411584 0.980278 0
M  V30 6 C 2.862268 -3.624439 0.230731 0
M  V30 7 N 3.280510 -2.758827 -0.695464 0
M  V30 8 C 2.648264 -1.606777 -0.957946 0
M  V30 9 N 2.737077 -0.532922 -1.756663 0
M  V30 10 C 1.722155 0.335723 -1.517746 0
M  V30 11 C 0.923148 -0.206719 -0.500496 0
M  V30 12 C -0.258196 0.546907 -0.104194 0
M  V30 13 C -0.038523 1.880995 0.269628 0
M  V30 14 C -1.005954 2.778287 0.657096 0
M  V30 15 C -2.299053 2.299996 0.671214 0
M  V30 16 C -2.583827 0.998635 0.315049 0
M  V30 17 C -3.934294 0.490726 0.327226 0
M  V30 18 N -5.023218 0.093662 0.324285 0
M  V30 19 C -1.584152 0.131057 -0.067532 0
M  V30 20 C 1.528722 -1.401602 -0.183002 0
M  V30 21 H 0.230155 -1.519098 3.584224 0
M  V30 22 H -0.885298 -0.445585 2.686076 0
M  V30 23 H 0.910897 -0.332777 2.398726 0
M  V30 24 H -1.478951 -3.466988 0.849516 0
M  V30 25 H -2.132711 -2.087150 1.896320 0
M  V30 26 H -1.245199 -3.427218 2.663738 0
M  V30 27 H 3.444171 -4.526989 0.364943 0
M  V30 28 H 3.521013 -0.439616 -2.458146 0
M  V30 29 H 1.658961 1.243081 -2.079826 0
M  V30 30 H 0.984521 2.282762 0.265477 0
M  V30 31 H -0.759195 3.787067 0.929962 0
M  V30 32 H -3.097683 2.973560 0.970969 0
M  V30 33 H -1.722580 -0.886206 -0.360189 0
M  V30 END ATOM
M  V30 BEGIN BOND
M  V30 1 1 1 2
M  V30 2 1 2 3
M  V30 3 1 2 4
M  V30 4 2 4 5
M  V30 5 1 5 6
M  V30 6 2 6 7
M  V30 7 1 7 8
M  V30 8 1 8 9
M  V30 9 1 9 10
M  V30 10 2 10 11
M  V30 11 1 11 12
M  V30 12 2 12 13
M  V30 13 1 13 14
M  V30 14 2 14 15
M  V30 15 1 15 16
M  V30 16 1 16 17
M  V30 17 3 17 18
M  V30 18 2 16 19
M  V30 19 1 11 20
M  V30 20 1 20 4
M  V30 21 2 20 8
M  V30 22 1 19 12
M  V30 23 1 1 21
M  V30 24 1 1 22
M  V30 25 1 1 23
M  V30 26 1 3 24
M  V30 27 1 3 25
M  V30 28 1 3 26
M  V30 29 1 6 27
M  V30 30 1 9 28
M  V30 31 1 10 29
M  V30 32 1 13 30
M  V30 33 1 14 31
M  V30 34 1 15 32
M  V30 35 1 19 33
M  V30 END BOND
M  V30 END CTAB
M  END
>  <Dataset>  (618) 
ChEMBL_Kinases

>  <Ligand_Instance>  (618) 
nan

>  <PDB_ID>  (618) 
nan

>  <Standardized_SMILES>  (618) 
CN(C)c1ncnc2[nH]cc(-c3cccc(C#N)c3)c12

>  <Name>  (618) 
nan

>  <Pocket>  (618) 
nan

>  <ATP_Site>  (618) 
nan

>  <Peripheral>  (618) 
nan

>  <Num_H_Atoms_ProtBoundConf>  (618) 
nan

>  <Num_Resolved_Atoms>  (618) 
nan

>  <Num_Not_Resolved_Atoms>  (618) 
nan

$$$$
CHEMBL3393360
     RDKit          3D

  0  0  0  0  0  0  0  0  0  0999 V3000
M  V30 BEGIN CTAB
M  V30 COUNTS 37 40 0 0 0
M  V30 BEGIN ATOM
M  V30 1 N -0.284535 -5.765390 3.854160 0
M  V30 2 C 0.166995 -4.742677 3.557555 0
M  V30 3 C 0.723088 -3.480596 3.165782 0
M  V30 4 C 0.906575 -3.117828 1.842020 0
M  V30 5 C 1.448005 -1.890889 1.417030 0
M  V30 6 C 1.554459 -1.804071 -0.022520 0
M  V30 7 C 2.371833 -2.731739 -0.676451 0
M  V30 8 N 2.368110 -2.460083 -2.015252 0
M  V30 9 C 1.586164 -1.399002 -2.268183 0
M  V30 10 N 1.159761 -0.667502 -3.302586 0
M  V30 11 C 0.317485 0.371866 -3.188833 0
M  V30 12 N -0.155768 0.737877 -1.963896 0
M  V30 13 C 0.254660 0.018354 -0.877344 0
M  V30 14 N -0.365264 0.606489 0.258064 0
M  V30 15 C -0.156976 1.409859 1.452676 0
M  V30 16 C -0.995120 2.677194 1.448572 0
M  V30 17 O -2.336258 2.420931 1.273019 0
M  V30 18 C -2.522019 1.648933 0.115373 0
M  V30 19 C -1.802588 0.343184 0.331069 0
M  V30 20 C 1.111145 -1.030023 -1.035110 0
M  V30 21 C 1.786655 -1.065582 2.464234 0
M  V30 22 C 1.618164 -1.393378 3.788527 0
M  V30 23 N 1.091654 -2.590252 4.105370 0
M  V30 24 H 0.578435 -3.904036 1.149389 0
M  V30 25 H 2.948983 -3.556812 -0.285257 0
M  V30 26 H 2.881460 -2.971132 -2.780142 0
M  V30 27 H 0.072618 0.857981 -4.135508 0
M  V30 28 H 0.899569 1.773161 1.552048 0
M  V30 29 H -0.371795 0.829500 2.370883 0
M  V30 30 H -0.592668 3.436068 0.754523 0
M  V30 31 H -0.874432 3.102691 2.480553 0
M  V30 32 H -2.085051 2.133054 -0.766170 0
M  V30 33 H -3.616403 1.502655 0.039357 0
M  V30 34 H -2.099402 -0.165668 1.276965 0
M  V30 35 H -2.138694 -0.333368 -0.475040 0
M  V30 36 H 2.210214 -0.131106 2.059001 0
M  V30 37 H 1.938592 -0.625089 4.479091 0
M  V30 END ATOM
M  V30 BEGIN BOND
M  V30 1 3 1 2
M  V30 2 1 2 3
M  V30 3 2 3 4
M  V30 4 1 4 5
M  V30 5 1 5 6
M  V30 6 2 6 7
M  V30 7 1 7 8
M  V30 8 1 8 9
M  V30 9 2 9 10
M  V30 10 1 10 11
M  V30 11 2 11 12
M  V30 12 1 12 13
M  V30 13 1 13 14
M  V30 14 1 14 15
M  V30 15 1 15 16
M  V30 16 1 16 17
M  V30 17 1 17 18
M  V30 18 1 18 19
M  V30 19 2 13 20
M  V30 20 2 5 21
M  V30 21 1 21 22
M  V30 22 2 22 23
M  V30 23 1 23 3
M  V30 24 1 20 6
M  V30 25 1 20 9
M  V30 26 1 19 14
M  V30 27 1 4 24
M  V30 28 1 7 25
M  V30 29 1 8 26
M  V30 30 1 11 27
M  V30 31 1 15 28
M  V30 32 1 15 29
M  V30 33 1 16 30
M  V30 34 1 16 31
M  V30 35 1 18 32
M  V30 36 1 18 33
M  V30 37 1 19 34
M  V30 38 1 19 35
M  V30 39 1 21 36
M  V30 40 1 22 37
M  V30 END BOND
M  V30 END CTAB
M  END
>  <Dataset>  (619) 
ChEMBL_Kinases

>  <Ligand_Instance>  (619) 
nan

>  <PDB_ID>  (619) 
nan

>  <Standardized_SMILES>  (619) 
N#Cc1cc(-c2c[nH]c3ncnc(N4CCOCC4)c23)ccn1

>  <Name>  (619) 
nan

>  <Pocket>  (619) 
nan

>  <ATP_Site>  (619) 
nan

>  <Peripheral>  (619) 
nan

>  <Num_H_Atoms_ProtBoundConf>  (619) 
nan

>  <Num_Resolved_Atoms>  (619) 
nan

>  <Num_Not_Resolved_Atoms>  (619) 
nan

$$$$
CHEMBL3393349
     RDKit          3D

  0  0  0  0  0  0  0  0  0  0999 V3000
M  V30 BEGIN CTAB
M  V30 COUNTS 42 45 0 0 0
M  V30 BEGIN ATOM
M  V30 1 C 0.746404 -4.751324 0.822732 0
M  V30 2 N 1.504344 -3.714073 1.484676 0
M  V30 3 C 0.542011 -2.699483 1.917952 0
M  V30 4 C 0.049786 -2.015169 0.662877 0
M  V30 5 N 1.196707 -1.285819 0.109164 0
M  V30 6 C 1.229074 -0.284303 -0.902920 0
M  V30 7 N 1.865321 -0.802272 -1.992777 0
M  V30 8 C 1.992241 -0.044350 -3.100846 0
M  V30 9 N 1.508850 1.220130 -3.173475 0
M  V30 10 C 0.878785 1.751946 -2.112066 0
M  V30 11 N 0.280447 2.919026 -1.793147 0
M  V30 12 C -0.200287 2.881290 -0.522617 0
M  V30 13 C 0.103103 1.621415 0.011304 0
M  V30 14 C -0.253661 1.286129 1.381340 0
M  V30 15 C 0.499533 0.820154 2.425038 0
M  V30 16 C -0.080145 0.562053 3.649271 0
M  V30 17 C -1.421820 0.747290 3.910847 0
M  V30 18 C -2.191866 1.216613 2.868062 0
M  V30 19 C -3.588531 1.412662 3.130334 0
M  V30 20 N -4.722138 1.565875 3.327222 0
M  V30 21 C -1.619730 1.476834 1.641299 0
M  V30 22 C 0.753152 0.982985 -0.994188 0
M  V30 23 C 2.511700 -1.619882 0.626001 0
M  V30 24 C 2.554000 -3.152614 0.701272 0
M  V30 25 H 1.039884 -5.743609 1.268815 0
M  V30 26 H -0.348684 -4.620570 0.905104 0
M  V30 27 H 0.986159 -4.827609 -0.255675 0
M  V30 28 H 1.095913 -1.993188 2.559938 0
M  V30 29 H -0.306493 -3.175297 2.458634 0
M  V30 30 H -0.173642 -2.829779 -0.080838 0
M  V30 31 H -0.850349 -1.424902 0.773826 0
M  V30 32 H 2.472683 -0.341147 -4.021415 0
M  V30 33 H 0.220276 3.723231 -2.475274 0
M  V30 34 H -0.725273 3.689813 -0.019413 0
M  V30 35 H 1.526489 0.704140 2.159315 0
M  V30 36 H 0.633736 0.196614 4.387130 0
M  V30 37 H -1.750693 0.507338 4.912698 0
M  V30 38 H -2.337541 1.844090 0.900098 0
M  V30 39 H 2.722018 -1.263323 1.628659 0
M  V30 40 H 3.342384 -1.337262 -0.056511 0
M  V30 41 H 3.521497 -3.400842 1.225483 0
M  V30 42 H 2.659247 -3.595358 -0.316214 0
M  V30 END ATOM
M  V30 BEGIN BOND
M  V30 1 1 1 2
M  V30 2 1 2 3
M  V30 3 1 3 4
M  V30 4 1 4 5
M  V30 5 1 5 6
M  V30 6 2 6 7
M  V30 7 1 7 8
M  V30 8 2 8 9
M  V30 9 1 9 10
M  V30 10 1 10 11
M  V30 11 1 11 12
M  V30 12 2 12 13
M  V30 13 1 13 14
M  V30 14 2 14 15
M  V30 15 1 15 16
M  V30 16 2 16 17
M  V30 17 1 17 18
M  V30 18 1 18 19
M  V30 19 3 19 20
M  V30 20 2 18 21
M  V30 21 1 13 22
M  V30 22 1 5 23
M  V30 23 1 23 24
M  V30 24 1 24 2
M  V30 25 1 22 6
M  V30 26 2 22 10
M  V30 27 1 21 14
M  V30 28 1 1 25
M  V30 29 1 1 26
M  V30 30 1 1 27
M  V30 31 1 3 28
M  V30 32 1 3 29
M  V30 33 1 4 30
M  V30 34 1 4 31
M  V30 35 1 8 32
M  V30 36 1 11 33
M  V30 37 1 12 34
M  V30 38 1 15 35
M  V30 39 1 16 36
M  V30 40 1 17 37
M  V30 41 1 21 38
M  V30 42 1 23 39
M  V30 43 1 23 40
M  V30 44 1 24 41
M  V30 45 1 24 42
M  V30 END BOND
M  V30 END CTAB
M  END
>  <Dataset>  (620) 
ChEMBL_Kinases

>  <Ligand_Instance>  (620) 
nan

>  <PDB_ID>  (620) 
nan

>  <Standardized_SMILES>  (620) 
CN1CCN(c2ncnc3[nH]cc(-c4cccc(C#N)c4)c23)CC1

>  <Name>  (620) 
nan

>  <Pocket>  (620) 
nan

>  <ATP_Site>  (620) 
nan

>  <Peripheral>  (620) 
nan

>  <Num_H_Atoms_ProtBoundConf>  (620) 
nan

>  <Num_Resolved_Atoms>  (620) 
nan

>  <Num_Not_Resolved_Atoms>  (620) 
nan

$$$$
CHEMBL3393350
     RDKit          3D

  0  0  0  0  0  0  0  0  0  0999 V3000
M  V30 BEGIN CTAB
M  V30 COUNTS 44 47 0 0 0
M  V30 BEGIN ATOM
M  V30 1 C -1.901384 -2.508122 2.887259 0
M  V30 2 O -1.522734 -1.922780 1.670407 0
M  V30 3 C -2.206216 -0.716543 1.476071 0
M  V30 4 C -3.098667 -0.705339 0.281204 0
M  V30 5 C -2.457619 -0.001629 -0.890967 0
M  V30 6 C -0.957055 -0.264089 -0.769467 0
M  V30 7 N -0.486385 0.609670 0.273813 0
M  V30 8 C 0.454367 1.634535 0.532963 0
M  V30 9 N -0.161117 2.839907 0.603894 0
M  V30 10 C 0.537831 3.991869 0.829033 0
M  V30 11 N 1.869570 3.918777 0.983573 0
M  V30 12 C 2.543702 2.757703 0.925927 0
M  V30 13 N 3.818013 2.349014 1.051211 0
M  V30 14 C 3.869780 0.993269 0.904032 0
M  V30 15 C 2.583570 0.495270 0.673134 0
M  V30 16 C 2.419923 -0.921608 0.450005 0
M  V30 17 C 2.814755 -1.669814 1.565986 0
M  V30 18 C 2.796447 -3.048587 1.624399 0
M  V30 19 C 2.365711 -3.758206 0.525667 0
M  V30 20 C 1.967918 -3.063235 -0.594973 0
M  V30 21 C 1.499686 -3.684369 -1.801368 0
M  V30 22 N 1.129908 -4.205392 -2.775706 0
M  V30 23 C 2.001867 -1.689303 -0.611589 0
M  V30 24 C 1.813499 1.615446 0.697291 0
M  V30 25 C -1.193776 0.395659 1.512068 0
M  V30 26 H -2.976787 -2.735747 2.948841 0
M  V30 27 H -1.264673 -3.395416 3.061087 0
M  V30 28 H -1.611415 -1.775224 3.687354 0
M  V30 29 H -2.881490 -0.549450 2.366680 0
M  V30 30 H -3.263575 -1.765664 -0.038506 0
M  V30 31 H -4.107964 -0.293898 0.484326 0
M  V30 32 H -2.761225 -0.429091 -1.849864 0
M  V30 33 H -2.585028 1.094413 -0.824097 0
M  V30 34 H -0.856894 -1.318492 -0.455523 0
M  V30 35 H -0.455849 -0.072700 -1.742224 0
M  V30 36 H 0.048852 4.960911 0.886297 0
M  V30 37 H 4.594700 3.018179 1.231981 0
M  V30 38 H 4.806351 0.483376 0.972950 0
M  V30 39 H 3.177903 -1.246541 2.505894 0
M  V30 40 H 3.092549 -3.638321 2.463688 0
M  V30 41 H 2.285595 -4.828849 0.394948 0
M  V30 42 H 1.718423 -1.029379 -1.448206 0
M  V30 43 H -0.434036 0.074536 2.285334 0
M  V30 44 H -1.629143 1.334433 1.922758 0
M  V30 END ATOM
M  V30 BEGIN BOND
M  V30 1 1 1 2
M  V30 2 1 2 3
M  V30 3 1 3 4
M  V30 4 1 4 5
M  V30 5 1 5 6
M  V30 6 1 6 7
M  V30 7 1 7 8
M  V30 8 2 8 9
M  V30 9 1 9 10
M  V30 10 2 10 11
M  V30 11 1 11 12
M  V30 12 1 12 13
M  V30 13 1 13 14
M  V30 14 2 14 15
M  V30 15 1 15 16
M  V30 16 2 16 17
M  V30 17 1 17 18
M  V30 18 2 18 19
M  V30 19 1 19 20
M  V30 20 1 20 21
M  V30 21 3 21 22
M  V30 22 2 20 23
M  V30 23 1 15 24
M  V30 24 1 7 25
M  V30 25 1 25 3
M  V30 26 1 24 8
M  V30 27 2 24 12
M  V30 28 1 23 16
M  V30 29 1 1 26
M  V30 30 1 1 27
M  V30 31 1 1 28
M  V30 32 1 3 29
M  V30 33 1 4 30
M  V30 34 1 4 31
M  V30 35 1 5 32
M  V30 36 1 5 33
M  V30 37 1 6 34
M  V30 38 1 6 35
M  V30 39 1 10 36
M  V30 40 1 13 37
M  V30 41 1 14 38
M  V30 42 1 17 39
M  V30 43 1 18 40
M  V30 44 1 19 41
M  V30 45 1 23 42
M  V30 46 1 25 43
M  V30 47 1 25 44
M  V30 END BOND
M  V30 END CTAB
M  END
>  <Dataset>  (621) 
ChEMBL_Kinases

>  <Ligand_Instance>  (621) 
nan

>  <PDB_ID>  (621) 
nan

>  <Standardized_SMILES>  (621) 
COC1CCCN(c2ncnc3[nH]cc(-c4cccc(C#N)c4)c23)C1

>  <Name>  (621) 
nan

>  <Pocket>  (621) 
nan

>  <ATP_Site>  (621) 
nan

>  <Peripheral>  (621) 
nan

>  <Num_H_Atoms_ProtBoundConf>  (621) 
nan

>  <Num_Resolved_Atoms>  (621) 
nan

>  <Num_Not_Resolved_Atoms>  (621) 
nan

$$$$
CHEMBL3393351
     RDKit          3D

  0  0  0  0  0  0  0  0  0  0999 V3000
M  V30 BEGIN CTAB
M  V30 COUNTS 44 47 0 0 0
M  V30 BEGIN ATOM
M  V30 1 C 0.492483 -5.461876 1.143138 0
M  V30 2 O 0.827824 -4.160150 0.809009 0
M  V30 3 C 0.196015 -3.202535 1.547308 0
M  V30 4 C -0.720773 -2.373717 0.667226 0
M  V30 5 C 0.075014 -1.469341 -0.250310 0
M  V30 6 N 1.334968 -1.082548 0.352270 0
M  V30 7 C 2.076876 -0.064493 -0.289827 0
M  V30 8 N 3.174975 -0.579627 -0.895561 0
M  V30 9 C 4.008605 0.225161 -1.606956 0
M  V30 10 N 3.758447 1.544085 -1.721564 0
M  V30 11 C 2.695906 2.110870 -1.148881 0
M  V30 12 N 2.143868 3.331855 -1.044339 0
M  V30 13 C 1.024805 3.282850 -0.302554 0
M  V30 14 C 0.806867 1.963515 0.117167 0
M  V30 15 C -0.317660 1.626826 0.969207 0
M  V30 16 C -0.392538 0.980009 2.183965 0
M  V30 17 C -1.605123 0.763606 2.801839 0
M  V30 18 C -2.800059 1.174538 2.252043 0
M  V30 19 C -2.758583 1.823902 1.039267 0
M  V30 20 C -4.006109 2.246523 0.477574 0
M  V30 21 N -5.015608 2.573094 0.010588 0
M  V30 22 C -1.544237 2.036808 0.427222 0
M  V30 23 C 1.861537 1.285866 -0.432075 0
M  V30 24 C 2.070982 -1.523436 1.516263 0
M  V30 25 C 1.125222 -2.341281 2.356742 0
M  V30 26 H 0.716775 -5.746171 2.185713 0
M  V30 27 H 0.827368 -6.204788 0.423180 0
M  V30 28 H -0.636193 -5.488368 1.087388 0
M  V30 29 H -0.469122 -3.713913 2.276170 0
M  V30 30 H -1.448116 -2.978692 0.125951 0
M  V30 31 H -1.293122 -1.710207 1.346175 0
M  V30 32 H 0.396708 -2.126689 -1.127468 0
M  V30 33 H -0.488674 -0.639290 -0.676471 0
M  V30 34 H 4.904610 -0.094697 -2.122460 0
M  V30 35 H 2.548732 4.188870 -1.488889 0
M  V30 36 H 0.410630 4.143837 -0.082055 0
M  V30 37 H 0.587816 0.703969 2.542112 0
M  V30 38 H -1.505244 0.236200 3.763064 0
M  V30 39 H -3.694055 0.956903 2.815394 0
M  V30 40 H -1.642264 2.564485 -0.534765 0
M  V30 41 H 2.873725 -2.223427 1.186291 0
M  V30 42 H 2.476696 -0.688985 2.116963 0
M  V30 43 H 1.749635 -2.926661 3.059272 0
M  V30 44 H 0.568277 -1.633701 3.003260 0
M  V30 END ATOM
M  V30 BEGIN BOND
M  V30 1 1 1 2
M  V30 2 1 2 3
M  V30 3 1 3 4
M  V30 4 1 4 5
M  V30 5 1 5 6
M  V30 6 1 6 7
M  V30 7 2 7 8
M  V30 8 1 8 9
M  V30 9 2 9 10
M  V30 10 1 10 11
M  V30 11 1 11 12
M  V30 12 1 12 13
M  V30 13 2 13 14
M  V30 14 1 14 15
M  V30 15 2 15 16
M  V30 16 1 16 17
M  V30 17 2 17 18
M  V30 18 1 18 19
M  V30 19 1 19 20
M  V30 20 3 20 21
M  V30 21 2 19 22
M  V30 22 1 14 23
M  V30 23 1 6 24
M  V30 24 1 24 25
M  V30 25 1 25 3
M  V30 26 1 23 7
M  V30 27 2 23 11
M  V30 28 1 22 15
M  V30 29 1 1 26
M  V30 30 1 1 27
M  V30 31 1 1 28
M  V30 32 1 3 29
M  V30 33 1 4 30
M  V30 34 1 4 31
M  V30 35 1 5 32
M  V30 36 1 5 33
M  V30 37 1 9 34
M  V30 38 1 12 35
M  V30 39 1 13 36
M  V30 40 1 16 37
M  V30 41 1 17 38
M  V30 42 1 18 39
M  V30 43 1 22 40
M  V30 44 1 24 41
M  V30 45 1 24 42
M  V30 46 1 25 43
M  V30 47 1 25 44
M  V30 END BOND
M  V30 END CTAB
M  END
>  <Dataset>  (622) 
ChEMBL_Kinases

>  <Ligand_Instance>  (622) 
nan

>  <PDB_ID>  (622) 
nan

>  <Standardized_SMILES>  (622) 
COC1CCN(c2ncnc3[nH]cc(-c4cccc(C#N)c4)c23)CC1

>  <Name>  (622) 
nan

>  <Pocket>  (622) 
nan

>  <ATP_Site>  (622) 
nan

>  <Peripheral>  (622) 
nan

>  <Num_H_Atoms_ProtBoundConf>  (622) 
nan

>  <Num_Resolved_Atoms>  (622) 
nan

>  <Num_Not_Resolved_Atoms>  (622) 
nan

$$$$
CHEMBL3393352
     RDKit          3D

  0  0  0  0  0  0  0  0  0  0999 V3000
M  V30 BEGIN CTAB
M  V30 COUNTS 47 50 0 0 0
M  V30 BEGIN ATOM
M  V30 1 C -0.711270 -5.063898 1.375892 0
M  V30 2 O 0.019180 -3.900205 1.120463 0
M  V30 3 C 0.633234 -3.956765 -0.104256 0
M  V30 4 C 1.446464 -2.734112 -0.459873 0
M  V30 5 C 2.530786 -2.512533 0.533262 0
M  V30 6 C 2.122962 -1.750908 1.767769 0
M  V30 7 C 0.983512 -0.790441 1.496266 0
M  V30 8 N 0.984042 -0.390042 0.079591 0
M  V30 9 C 1.369667 0.932522 -0.265432 0
M  V30 10 N 2.575326 0.908731 -0.907657 0
M  V30 11 C 3.127771 2.101015 -1.279331 0
M  V30 12 N 2.527295 3.302893 -1.036094 0
M  V30 13 C 1.342595 3.353550 -0.407708 0
M  V30 14 N 0.447519 4.269724 0.010337 0
M  V30 15 C -0.616668 3.697691 0.612219 0
M  V30 16 C -0.418527 2.312364 0.593950 0
M  V30 17 C -1.418888 1.402983 1.133175 0
M  V30 18 C -2.072241 0.311760 0.544090 0
M  V30 19 C -2.977205 -0.393846 1.268950 0
M  V30 20 C -3.305417 -0.108622 2.566063 0
M  V30 21 C -2.682043 0.958166 3.176656 0
M  V30 22 C -3.019319 1.264649 4.534868 0
M  V30 23 N -3.287891 1.508021 5.619962 0
M  V30 24 C -1.757854 1.691930 2.461791 0
M  V30 25 C 0.790426 2.154585 -0.036551 0
M  V30 26 C 0.573057 -1.528317 -0.720896 0
M  V30 27 H -0.075456 -5.971712 1.374319 0
M  V30 28 H -1.180257 -4.974236 2.385487 0
M  V30 29 H -1.540787 -5.083383 0.656534 0
M  V30 30 H 1.236107 -4.879682 -0.186879 0
M  V30 31 H -0.135784 -4.040016 -0.916451 0
M  V30 32 H 1.948912 -2.993330 -1.429638 0
M  V30 33 H 3.423930 -2.084697 0.031053 0
M  V30 34 H 2.857789 -3.536080 0.876384 0
M  V30 35 H 3.016114 -1.188190 2.115954 0
M  V30 36 H 1.844706 -2.445270 2.587407 0
M  V30 37 H 1.132669 0.073924 2.175869 0
M  V30 38 H 0.007050 -1.216859 1.716184 0
M  V30 39 H 4.079359 2.157867 -1.791037 0
M  V30 40 H 0.599473 5.302717 -0.135658 0
M  V30 41 H -1.453615 4.235043 1.023513 0
M  V30 42 H -1.743929 0.177202 -0.474048 0
M  V30 43 H -3.402631 -1.208808 0.686079 0
M  V30 44 H -4.034426 -0.737831 3.033808 0
M  V30 45 H -1.315460 2.522101 3.034831 0
M  V30 46 H 0.590264 -1.241770 -1.791939 0
M  V30 47 H -0.470452 -1.852156 -0.527682 0
M  V30 END ATOM
M  V30 BEGIN BOND
M  V30 1 1 1 2
M  V30 2 1 2 3
M  V30 3 1 3 4
M  V30 4 1 4 5
M  V30 5 1 5 6
M  V30 6 1 6 7
M  V30 7 1 7 8
M  V30 8 1 8 9
M  V30 9 2 9 10
M  V30 10 1 10 11
M  V30 11 2 11 12
M  V30 12 1 12 13
M  V30 13 1 13 14
M  V30 14 1 14 15
M  V30 15 2 15 16
M  V30 16 1 16 17
M  V30 17 2 17 18
M  V30 18 1 18 19
M  V30 19 2 19 20
M  V30 20 1 20 21
M  V30 21 1 21 22
M  V30 22 3 22 23
M  V30 23 2 21 24
M  V30 24 1 16 25
M  V30 25 1 8 26
M  V30 26 1 26 4
M  V30 27 1 25 9
M  V30 28 2 25 13
M  V30 29 1 24 17
M  V30 30 1 1 27
M  V30 31 1 1 28
M  V30 32 1 1 29
M  V30 33 1 3 30
M  V30 34 1 3 31
M  V30 35 1 4 32
M  V30 36 1 5 33
M  V30 37 1 5 34
M  V30 38 1 6 35
M  V30 39 1 6 36
M  V30 40 1 7 37
M  V30 41 1 7 38
M  V30 42 1 11 39
M  V30 43 1 14 40
M  V30 44 1 15 41
M  V30 45 1 18 42
M  V30 46 1 19 43
M  V30 47 1 20 44
M  V30 48 1 24 45
M  V30 49 1 26 46
M  V30 50 1 26 47
M  V30 END BOND
M  V30 END CTAB
M  END
>  <Dataset>  (623) 
ChEMBL_Kinases

>  <Ligand_Instance>  (623) 
nan

>  <PDB_ID>  (623) 
nan

>  <Standardized_SMILES>  (623) 
COCC1CCCN(c2ncnc3[nH]cc(-c4cccc(C#N)c4)c23)C1

>  <Name>  (623) 
nan

>  <Pocket>  (623) 
nan

>  <ATP_Site>  (623) 
nan

>  <Peripheral>  (623) 
nan

>  <Num_H_Atoms_ProtBoundConf>  (623) 
nan

>  <Num_Resolved_Atoms>  (623) 
nan

>  <Num_Not_Resolved_Atoms>  (623) 
nan

$$$$
CHEMBL3393356
     RDKit          3D

  0  0  0  0  0  0  0  0  0  0999 V3000
M  V30 BEGIN CTAB
M  V30 COUNTS 38 41 0 0 0
M  V30 BEGIN ATOM
M  V30 1 N 0.880651 -4.639309 3.552157 0
M  V30 2 C 0.804136 -4.086026 2.537987 0
M  V30 3 C 0.714423 -3.379161 1.293486 0
M  V30 4 C 0.057819 -4.036721 0.275535 0
M  V30 5 C -0.062589 -3.410680 -0.946575 0
M  V30 6 C 0.464775 -2.153662 -1.139849 0
M  V30 7 C 1.128201 -1.462525 -0.149321 0
M  V30 8 C 1.783693 -0.177661 -0.104083 0
M  V30 9 C 3.095335 -0.200731 -0.538040 0
M  V30 10 N 3.602091 1.065447 -0.453164 0
M  V30 11 C 2.648229 1.911265 0.027000 0
M  V30 12 N 2.512516 3.211222 0.342802 0
M  V30 13 C 1.327928 3.677828 0.836474 0
M  V30 14 N 0.238358 2.876318 1.034082 0
M  V30 15 C 0.336606 1.547460 0.723827 0
M  V30 16 N -0.855930 0.804507 0.938121 0
M  V30 17 C -1.750391 0.298759 -0.107366 0
M  V30 18 C -2.516590 -0.853367 0.456618 0
M  V30 19 O -3.024177 -0.488047 1.704931 0
M  V30 20 C -2.053238 -0.355093 2.659564 0
M  V30 21 C -0.996523 0.657536 2.368846 0
M  V30 22 C 1.547091 1.121288 0.230540 0
M  V30 23 C 1.249664 -2.100907 1.093483 0
M  V30 24 F 1.860721 -1.610825 2.209954 0
M  V30 25 H -0.373953 -5.021263 0.371870 0
M  V30 26 H -0.547773 -3.816859 -1.809302 0
M  V30 27 H 0.440588 -1.543546 -2.056456 0
M  V30 28 H 3.806055 -0.940745 -0.917269 0
M  V30 29 H 4.548005 1.471489 -0.682639 0
M  V30 30 H 1.324006 4.736286 1.058361 0
M  V30 31 H -2.518504 1.134436 -0.219592 0
M  V30 32 H -1.253153 0.094018 -1.046831 0
M  V30 33 H -3.407990 -0.992319 -0.194968 0
M  V30 34 H -1.964712 -1.790363 0.477613 0
M  V30 35 H -2.590622 -0.029346 3.598609 0
M  V30 36 H -1.612347 -1.346236 2.960576 0
M  V30 37 H -1.300167 1.633006 2.799149 0
M  V30 38 H -0.067515 0.373393 2.896049 0
M  V30 END ATOM
M  V30 BEGIN BOND
M  V30 1 3 1 2
M  V30 2 1 2 3
M  V30 3 2 3 4
M  V30 4 1 4 5
M  V30 5 2 5 6
M  V30 6 1 6 7
M  V30 7 1 7 8
M  V30 8 2 8 9
M  V30 9 1 9 10
M  V30 10 1 10 11
M  V30 11 2 11 12
M  V30 12 1 12 13
M  V30 13 2 13 14
M  V30 14 1 14 15
M  V30 15 1 15 16
M  V30 16 1 16 17
M  V30 17 1 17 18
M  V30 18 1 18 19
M  V30 19 1 19 20
M  V30 20 1 20 21
M  V30 21 2 15 22
M  V30 22 2 7 23
M  V30 23 1 23 24
M  V30 24 1 23 3
M  V30 25 1 22 8
M  V30 26 1 22 11
M  V30 27 1 21 16
M  V30 28 1 4 25
M  V30 29 1 5 26
M  V30 30 1 6 27
M  V30 31 1 9 28
M  V30 32 1 10 29
M  V30 33 1 13 30
M  V30 34 1 17 31
M  V30 35 1 17 32
M  V30 36 1 18 33
M  V30 37 1 18 34
M  V30 38 1 20 35
M  V30 39 1 20 36
M  V30 40 1 21 37
M  V30 41 1 21 38
M  V30 END BOND
M  V30 END CTAB
M  END
>  <Dataset>  (624) 
ChEMBL_Kinases

>  <Ligand_Instance>  (624) 
nan

>  <PDB_ID>  (624) 
nan

>  <Standardized_SMILES>  (624) 
N#Cc1cccc(-c2c[nH]c3ncnc(N4CCOCC4)c23)c1F

>  <Name>  (624) 
nan

>  <Pocket>  (624) 
nan

>  <ATP_Site>  (624) 
nan

>  <Peripheral>  (624) 
nan

>  <Num_H_Atoms_ProtBoundConf>  (624) 
nan

>  <Num_Resolved_Atoms>  (624) 
nan

>  <Num_Not_Resolved_Atoms>  (624) 
nan

$$$$
CHEMBL3393357
     RDKit          3D

  0  0  0  0  0  0  0  0  0  0999 V3000
M  V30 BEGIN CTAB
M  V30 COUNTS 38 41 0 0 0
M  V30 BEGIN ATOM
M  V30 1 N -2.060807 -5.598856 2.486750 0
M  V30 2 C -1.516242 -4.581505 2.571623 0
M  V30 3 C -0.836401 -3.321231 2.652275 0
M  V30 4 C 0.106697 -2.895667 1.751069 0
M  V30 5 C 0.768834 -1.658821 1.836695 0
M  V30 6 C 1.736358 -1.501025 0.769591 0
M  V30 7 C 2.811471 -2.401473 0.690558 0
M  V30 8 N 3.621608 -2.069497 -0.338181 0
M  V30 9 C 3.135619 -0.980770 -0.957799 0
M  V30 10 N 3.438611 -0.194396 -2.002028 0
M  V30 11 C 2.691028 0.854205 -2.378392 0
M  V30 12 N 1.576086 1.153316 -1.690001 0
M  V30 13 C 1.194002 0.404645 -0.611443 0
M  V30 14 N 0.001253 0.932594 -0.049186 0
M  V30 15 C -0.541624 1.668860 1.071374 0
M  V30 16 C -1.332368 2.846866 0.490823 0
M  V30 17 O -2.435096 2.412890 -0.210076 0
M  V30 18 C -2.407715 1.053640 -0.483616 0
M  V30 19 C -1.078383 0.589384 -0.959269 0
M  V30 20 C 1.997663 -0.654343 -0.273496 0
M  V30 21 C 0.394136 -0.889107 2.914428 0
M  V30 22 C -0.545187 -1.278125 3.838514 0
M  V30 23 C -1.164621 -2.500448 3.707999 0
M  V30 24 F -2.075769 -2.798119 4.665282 0
M  V30 25 H 0.275430 -3.638782 0.962394 0
M  V30 26 H 3.031768 -3.251703 1.312829 0
M  V30 27 H 4.497314 -2.547895 -0.646182 0
M  V30 28 H 3.034398 1.423833 -3.244260 0
M  V30 29 H -1.239563 1.127807 1.698456 0
M  V30 30 H 0.294273 2.148394 1.642880 0
M  V30 31 H -1.692478 3.431637 1.364591 0
M  V30 32 H -0.670224 3.512018 -0.091542 0
M  V30 33 H -3.173734 0.775960 -1.243714 0
M  V30 34 H -2.682534 0.511033 0.441368 0
M  V30 35 H -0.824963 1.094646 -1.939708 0
M  V30 36 H -1.102663 -0.496164 -1.185990 0
M  V30 37 H 0.963853 0.049062 2.902955 0
M  V30 38 H -0.715310 -0.554001 4.614611 0
M  V30 END ATOM
M  V30 BEGIN BOND
M  V30 1 3 1 2
M  V30 2 1 2 3
M  V30 3 2 3 4
M  V30 4 1 4 5
M  V30 5 1 5 6
M  V30 6 2 6 7
M  V30 7 1 7 8
M  V30 8 1 8 9
M  V30 9 2 9 10
M  V30 10 1 10 11
M  V30 11 2 11 12
M  V30 12 1 12 13
M  V30 13 1 13 14
M  V30 14 1 14 15
M  V30 15 1 15 16
M  V30 16 1 16 17
M  V30 17 1 17 18
M  V30 18 1 18 19
M  V30 19 2 13 20
M  V30 20 2 5 21
M  V30 21 1 21 22
M  V30 22 2 22 23
M  V30 23 1 23 24
M  V30 24 1 23 3
M  V30 25 1 20 6
M  V30 26 1 20 9
M  V30 27 1 19 14
M  V30 28 1 4 25
M  V30 29 1 7 26
M  V30 30 1 8 27
M  V30 31 1 11 28
M  V30 32 1 15 29
M  V30 33 1 15 30
M  V30 34 1 16 31
M  V30 35 1 16 32
M  V30 36 1 18 33
M  V30 37 1 18 34
M  V30 38 1 19 35
M  V30 39 1 19 36
M  V30 40 1 21 37
M  V30 41 1 22 38
M  V30 END BOND
M  V30 END CTAB
M  END
>  <Dataset>  (625) 
ChEMBL_Kinases

>  <Ligand_Instance>  (625) 
nan

>  <PDB_ID>  (625) 
nan

>  <Standardized_SMILES>  (625) 
N#Cc1cc(-c2c[nH]c3ncnc(N4CCOCC4)c23)ccc1F

>  <Name>  (625) 
nan

>  <Pocket>  (625) 
nan

>  <ATP_Site>  (625) 
nan

>  <Peripheral>  (625) 
nan

>  <Num_H_Atoms_ProtBoundConf>  (625) 
nan

>  <Num_Resolved_Atoms>  (625) 
nan

>  <Num_Not_Resolved_Atoms>  (625) 
nan

$$$$
CHEMBL3393358
     RDKit          3D

  0  0  0  0  0  0  0  0  0  0999 V3000
M  V30 BEGIN CTAB
M  V30 COUNTS 38 41 0 0 0
M  V30 BEGIN ATOM
M  V30 1 N -0.277321 -3.148221 4.864665 0
M  V30 2 C 0.174986 -3.079278 3.787010 0
M  V30 3 C 0.720742 -3.008744 2.455945 0
M  V30 4 C 0.867435 -4.123117 1.655585 0
M  V30 5 C 1.396948 -4.002398 0.384582 0
M  V30 6 F 1.524244 -5.111046 -0.365143 0
M  V30 7 C 1.763918 -2.740940 -0.036456 0
M  V30 8 C 1.628414 -1.598793 0.746743 0
M  V30 9 C 2.112684 -0.398720 0.085062 0
M  V30 10 C 3.402828 -0.309728 -0.435632 0
M  V30 11 N 3.566790 0.932130 -0.944205 0
M  V30 12 C 2.448199 1.683989 -0.791482 0
M  V30 13 N 2.040229 2.931824 -1.083932 0
M  V30 14 C 0.771274 3.299509 -0.736116 0
M  V30 15 N -0.097793 2.452985 -0.105619 0
M  V30 16 C 0.288602 1.177782 0.204388 0
M  V30 17 N -0.770379 0.483333 0.802800 0
M  V30 18 C -1.427135 -0.613975 0.068238 0
M  V30 19 C -2.908676 -0.288492 -0.096393 0
M  V30 20 O -3.494381 -0.032381 1.144436 0
M  V30 21 C -2.883885 0.968808 1.857194 0
M  V30 22 C -1.437663 0.615702 2.084637 0
M  V30 23 C 1.568564 0.840269 -0.156219 0
M  V30 24 C 1.091131 -1.753091 2.024268 0
M  V30 25 H 0.550786 -5.068201 2.074758 0
M  V30 26 H 2.171960 -2.744643 -1.053661 0
M  V30 27 H 4.151689 -1.098825 -0.435604 0
M  V30 28 H 4.417617 1.349102 -1.415948 0
M  V30 29 H 0.491753 4.320372 -0.995194 0
M  V30 30 H -1.400956 -1.518559 0.692303 0
M  V30 31 H -1.008339 -0.782468 -0.917579 0
M  V30 32 H -3.398688 -1.196308 -0.503818 0
M  V30 33 H -3.009384 0.556580 -0.803197 0
M  V30 34 H -3.364544 1.007939 2.847710 0
M  V30 35 H -2.898057 1.950061 1.349240 0
M  V30 36 H -1.386403 -0.369627 2.585775 0
M  V30 37 H -0.939689 1.410636 2.687588 0
M  V30 38 H 1.027218 -0.814598 2.555451 0
M  V30 END ATOM
M  V30 BEGIN BOND
M  V30 1 3 1 2
M  V30 2 1 2 3
M  V30 3 2 3 4
M  V30 4 1 4 5
M  V30 5 1 5 6
M  V30 6 2 5 7
M  V30 7 1 7 8
M  V30 8 1 8 9
M  V30 9 2 9 10
M  V30 10 1 10 11
M  V30 11 1 11 12
M  V30 12 2 12 13
M  V30 13 1 13 14
M  V30 14 2 14 15
M  V30 15 1 15 16
M  V30 16 1 16 17
M  V30 17 1 17 18
M  V30 18 1 18 19
M  V30 19 1 19 20
M  V30 20 1 20 21
M  V30 21 1 21 22
M  V30 22 2 16 23
M  V30 23 2 8 24
M  V30 24 1 24 3
M  V30 25 1 23 9
M  V30 26 1 23 12
M  V30 27 1 22 17
M  V30 28 1 4 25
M  V30 29 1 7 26
M  V30 30 1 10 27
M  V30 31 1 11 28
M  V30 32 1 14 29
M  V30 33 1 18 30
M  V30 34 1 18 31
M  V30 35 1 19 32
M  V30 36 1 19 33
M  V30 37 1 21 34
M  V30 38 1 21 35
M  V30 39 1 22 36
M  V30 40 1 22 37
M  V30 41 1 24 38
M  V30 END BOND
M  V30 END CTAB
M  END
>  <Dataset>  (626) 
ChEMBL_Kinases

>  <Ligand_Instance>  (626) 
nan

>  <PDB_ID>  (626) 
nan

>  <Standardized_SMILES>  (626) 
N#Cc1cc(F)cc(-c2c[nH]c3ncnc(N4CCOCC4)c23)c1

>  <Name>  (626) 
nan

>  <Pocket>  (626) 
nan

>  <ATP_Site>  (626) 
nan

>  <Peripheral>  (626) 
nan

>  <Num_H_Atoms_ProtBoundConf>  (626) 
nan

>  <Num_Resolved_Atoms>  (626) 
nan

>  <Num_Not_Resolved_Atoms>  (626) 
nan

$$$$
CHEMBL3393359
     RDKit          3D

  0  0  0  0  0  0  0  0  0  0999 V3000
M  V30 BEGIN CTAB
M  V30 COUNTS 37 40 0 0 0
M  V30 BEGIN ATOM
M  V30 1 N -1.307705 -4.700843 1.489691 0
M  V30 2 C -0.459262 -4.133687 0.950972 0
M  V30 3 C 0.603126 -3.453291 0.281670 0
M  V30 4 C 1.419924 -4.179159 -0.550827 0
M  V30 5 C 2.434928 -3.487987 -1.174995 0
M  V30 6 C 2.516480 -2.139925 -0.892221 0
M  V30 7 C 1.723335 -1.380039 -0.069541 0
M  V30 8 C 2.057134 0.023893 -0.000823 0
M  V30 9 C 3.255153 0.599287 -0.449775 0
M  V30 10 N 3.220634 1.911770 -0.212348 0
M  V30 11 C 2.076922 2.295472 0.372455 0
M  V30 12 N 1.536227 3.446210 0.815321 0
M  V30 13 C 0.313596 3.482761 1.376660 0
M  V30 14 N -0.408163 2.328724 1.504659 0
M  V30 15 C 0.147173 1.165795 1.052456 0
M  V30 16 N -0.828543 0.158159 1.211656 0
M  V30 17 C -1.643070 -0.157190 0.021212 0
M  V30 18 C -2.949892 -0.786942 0.477067 0
M  V30 19 O -3.190255 -0.450695 1.820762 0
M  V30 20 C -2.265913 -1.121683 2.612693 0
M  V30 21 C -0.941278 -0.409004 2.513119 0
M  V30 22 C 1.389015 1.114112 0.484187 0
M  V30 23 N 0.798801 -2.170304 0.457389 0
M  V30 24 H 1.240334 -5.224553 -0.678272 0
M  V30 25 H 3.079386 -4.041332 -1.827188 0
M  V30 26 H 3.348493 -1.705296 -1.444538 0
M  V30 27 H 4.082731 0.083384 -0.912773 0
M  V30 28 H 4.008023 2.553572 -0.461605 0
M  V30 29 H 0.012413 4.473961 1.684857 0
M  V30 30 H -1.915366 0.868055 -0.369424 0
M  V30 31 H -1.168073 -0.766117 -0.721007 0
M  V30 32 H -2.971335 -1.879339 0.302139 0
M  V30 33 H -3.763352 -0.330464 -0.114861 0
M  V30 34 H -2.140492 -2.119873 2.127237 0
M  V30 35 H -2.611053 -1.223423 3.663306 0
M  V30 36 H -0.092720 -1.035236 2.845150 0
M  V30 37 H -1.009711 0.434803 3.258512 0
M  V30 END ATOM
M  V30 BEGIN BOND
M  V30 1 3 1 2
M  V30 2 1 2 3
M  V30 3 2 3 4
M  V30 4 1 4 5
M  V30 5 2 5 6
M  V30 6 1 6 7
M  V30 7 1 7 8
M  V30 8 2 8 9
M  V30 9 1 9 10
M  V30 10 1 10 11
M  V30 11 2 11 12
M  V30 12 1 12 13
M  V30 13 2 13 14
M  V30 14 1 14 15
M  V30 15 1 15 16
M  V30 16 1 16 17
M  V30 17 1 17 18
M  V30 18 1 18 19
M  V30 19 1 19 20
M  V30 20 1 20 21
M  V30 21 2 15 22
M  V30 22 2 7 23
M  V30 23 1 23 3
M  V30 24 1 22 8
M  V30 25 1 22 11
M  V30 26 1 21 16
M  V30 27 1 4 24
M  V30 28 1 5 25
M  V30 29 1 6 26
M  V30 30 1 9 27
M  V30 31 1 10 28
M  V30 32 1 13 29
M  V30 33 1 17 30
M  V30 34 1 17 31
M  V30 35 1 18 32
M  V30 36 1 18 33
M  V30 37 1 20 34
M  V30 38 1 20 35
M  V30 39 1 21 36
M  V30 40 1 21 37
M  V30 END BOND
M  V30 END CTAB
M  END
>  <Dataset>  (627) 
ChEMBL_Kinases

>  <Ligand_Instance>  (627) 
nan

>  <PDB_ID>  (627) 
nan

>  <Standardized_SMILES>  (627) 
N#Cc1cccc(-c2c[nH]c3ncnc(N4CCOCC4)c23)n1

>  <Name>  (627) 
nan

>  <Pocket>  (627) 
nan

>  <ATP_Site>  (627) 
nan

>  <Peripheral>  (627) 
nan

>  <Num_H_Atoms_ProtBoundConf>  (627) 
nan

>  <Num_Resolved_Atoms>  (627) 
nan

>  <Num_Not_Resolved_Atoms>  (627) 
nan

$$$$
CHEMBL3393347
     RDKit          3D

  0  0  0  0  0  0  0  0  0  0999 V3000
M  V30 BEGIN CTAB
M  V30 COUNTS 39 41 0 0 0
M  V30 BEGIN ATOM
M  V30 1 C 0.603695 -3.777649 0.765828 0
M  V30 2 C 0.703530 -2.279108 0.963627 0
M  V30 3 N -0.382828 -1.569135 0.267626 0
M  V30 4 C -1.670773 -1.825199 0.880097 0
M  V30 5 C -2.805311 -1.118528 0.202327 0
M  V30 6 C 0.018846 -0.797207 -0.854301 0
M  V30 7 N -0.446857 -1.328149 -2.024166 0
M  V30 8 C -0.107648 -0.716856 -3.197025 0
M  V30 9 N 0.664400 0.385769 -3.262546 0
M  V30 10 C 1.131097 0.925709 -2.143382 0
M  V30 11 N 1.904355 1.981076 -1.769340 0
M  V30 12 C 2.049037 2.040781 -0.419792 0
M  V30 13 C 1.344822 0.983232 0.127274 0
M  V30 14 C 1.269107 0.800443 1.566769 0
M  V30 15 C 2.371366 0.684462 2.387982 0
M  V30 16 C 2.217062 0.544523 3.762975 0
M  V30 17 C 0.959465 0.516079 4.361794 0
M  V30 18 C -0.178975 0.628445 3.583802 0
M  V30 19 C -1.510149 0.610078 4.099688 0
M  V30 20 N -2.586549 0.587420 4.510418 0
M  V30 21 C 0.040817 0.764375 2.233855 0
M  V30 22 C 0.802871 0.328483 -0.950782 0
M  V30 23 H 1.421309 -4.145134 0.097091 0
M  V30 24 H 0.819434 -4.263850 1.750291 0
M  V30 25 H -0.340127 -4.094796 0.318539 0
M  V30 26 H 1.700605 -1.966097 0.631210 0
M  V30 27 H 0.629616 -2.027472 2.052193 0
M  V30 28 H -1.705677 -1.554765 1.962861 0
M  V30 29 H -1.912656 -2.920998 0.872041 0
M  V30 30 H -3.441995 -1.825716 -0.360049 0
M  V30 31 H -2.402713 -0.326441 -0.458691 0
M  V30 32 H -3.499560 -0.642442 0.951028 0
M  V30 33 H -0.471914 -1.127437 -4.134817 0
M  V30 34 H 2.324094 2.647519 -2.446264 0
M  V30 35 H 2.628954 2.807198 0.088537 0
M  V30 36 H 3.350018 0.706576 1.932835 0
M  V30 37 H 3.109658 0.456884 4.381304 0
M  V30 38 H 0.828707 0.407465 5.428473 0
M  V30 39 H -0.842169 0.859658 1.586805 0
M  V30 END ATOM
M  V30 BEGIN BOND
M  V30 1 1 1 2
M  V30 2 1 2 3
M  V30 3 1 3 4
M  V30 4 1 4 5
M  V30 5 1 3 6
M  V30 6 2 6 7
M  V30 7 1 7 8
M  V30 8 2 8 9
M  V30 9 1 9 10
M  V30 10 1 10 11
M  V30 11 1 11 12
M  V30 12 2 12 13
M  V30 13 1 13 14
M  V30 14 2 14 15
M  V30 15 1 15 16
M  V30 16 2 16 17
M  V30 17 1 17 18
M  V30 18 1 18 19
M  V30 19 3 19 20
M  V30 20 2 18 21
M  V30 21 1 13 22
M  V30 22 1 22 6
M  V30 23 2 22 10
M  V30 24 1 21 14
M  V30 25 1 1 23
M  V30 26 1 1 24
M  V30 27 1 1 25
M  V30 28 1 2 26
M  V30 29 1 2 27
M  V30 30 1 4 28
M  V30 31 1 4 29
M  V30 32 1 5 30
M  V30 33 1 5 31
M  V30 34 1 5 32
M  V30 35 1 8 33
M  V30 36 1 11 34
M  V30 37 1 12 35
M  V30 38 1 15 36
M  V30 39 1 16 37
M  V30 40 1 17 38
M  V30 41 1 21 39
M  V30 END BOND
M  V30 END CTAB
M  END
>  <Dataset>  (628) 
ChEMBL_Kinases

>  <Ligand_Instance>  (628) 
nan

>  <PDB_ID>  (628) 
nan

>  <Standardized_SMILES>  (628) 
CCN(CC)c1ncnc2[nH]cc(-c3cccc(C#N)c3)c12

>  <Name>  (628) 
nan

>  <Pocket>  (628) 
nan

>  <ATP_Site>  (628) 
nan

>  <Peripheral>  (628) 
nan

>  <Num_H_Atoms_ProtBoundConf>  (628) 
nan

>  <Num_Resolved_Atoms>  (628) 
nan

>  <Num_Not_Resolved_Atoms>  (628) 
nan

$$$$
CHEMBL3408948
     RDKit          3D

  0  0  0  0  0  0  0  0  0  0999 V3000
M  V30 BEGIN CTAB
M  V30 COUNTS 77 83 0 0 0
M  V30 BEGIN ATOM
M  V30 1 C 3.822690 -2.617169 4.450743 0
M  V30 2 O 3.984546 -1.584597 3.479646 0
M  V30 3 C 4.327471 -0.325474 3.948139 0
M  V30 4 C 4.506832 -0.076619 5.289425 0
M  V30 5 C 4.841431 1.157729 5.744125 0
M  V30 6 C 5.009743 2.206532 4.833506 0
M  V30 7 C 4.834045 1.977581 3.476400 0
M  V30 8 C 4.488911 0.694109 3.035299 0
M  V30 9 C 5.053399 3.217281 2.753197 0 CFG=1
M  V30 10 C 5.793552 3.378251 1.504827 0
M  V30 11 C 4.300220 3.703527 1.612004 0 CFG=1
M  V30 12 C 3.446785 2.885717 0.754567 0
M  V30 13 C 2.099106 2.856637 1.058218 0
M  V30 14 C 1.221487 2.110611 0.291555 0
M  V30 15 C 1.760246 1.406506 -0.779547 0
M  V30 16 C 1.137355 0.594033 -1.702591 0
M  V30 17 C -0.293990 0.271808 -1.728743 0
M  V30 18 C -0.748857 -0.497337 -2.703457 0
M  V30 19 C -2.149531 -0.877156 -2.817987 0
M  V30 20 C -3.118476 -0.517454 -1.907555 0
M  V30 21 C -4.426782 -0.911902 -2.087098 0
M  V30 22 C -4.867996 -1.684572 -3.172375 0
M  V30 23 C -6.294278 -2.020308 -3.196051 0
M  V30 24 N -6.657444 -3.262252 -2.607433 0
M  V30 25 C -6.270749 -3.492138 -1.264849 0
M  V30 26 C -4.965797 -4.270492 -1.152778 0 CFG=1
M  V30 27 C -4.669216 -4.524749 0.294130 0
M  V30 28 O -5.214594 -5.514597 -1.747283 0
M  V30 29 C -5.303689 -5.274277 -3.109482 0 CFG=1
M  V30 30 C -5.391033 -6.601212 -3.858720 0
M  V30 31 C -6.427302 -4.357503 -3.474616 0
M  V30 32 C -3.871037 -2.024503 -4.061018 0
M  V30 33 C -2.559996 -1.637507 -3.893638 0
M  V30 34 N 2.086061 0.142585 -2.548799 0
M  V30 35 N 3.273957 0.621822 -2.214262 0
M  V30 36 C 3.094797 1.397071 -1.133034 0
M  V30 37 C 3.924833 2.160990 -0.329440 0
M  V30 38 C 5.395228 4.187768 3.823555 0
M  V30 39 O 5.674176 5.394909 3.598225 0
M  V30 40 N 5.357280 3.559489 5.089208 0
M  V30 41 C 5.634711 4.268886 6.321479 0
M  V30 42 H 3.527758 -3.578672 4.003300 0
M  V30 43 H 4.764081 -2.654860 5.036047 0
M  V30 44 H 3.040528 -2.225513 5.153869 0
M  V30 45 H 4.379820 -0.886067 6.023308 0
M  V30 46 H 4.986364 1.372179 6.812477 0
M  V30 47 H 4.347390 0.485114 2.008149 0
M  V30 48 H 6.125126 2.445662 1.024865 0
M  V30 49 H 6.500209 4.217475 1.344860 0
M  V30 50 H 4.023582 4.774069 1.648258 0
M  V30 51 H 1.685556 3.409854 1.897459 0
M  V30 52 H 0.177451 2.057895 0.487169 0
M  V30 53 H -0.941247 0.664990 -0.959812 0
M  V30 54 H -0.038553 -0.847817 -3.433974 0
M  V30 55 H -2.861743 0.074820 -1.048562 0
M  V30 56 H -5.136922 -0.593303 -1.332459 0
M  V30 57 H -6.875286 -1.220288 -2.688840 0
M  V30 58 H -6.596021 -2.087545 -4.284034 0
M  V30 59 H -7.039260 -4.172533 -0.792827 0
M  V30 60 H -6.231601 -2.607003 -0.628805 0
M  V30 61 H -4.112999 -3.755896 -1.597412 0
M  V30 62 H -5.171732 -5.448201 0.602008 0
M  V30 63 H -4.989940 -3.696218 0.957556 0
M  V30 64 H -3.580513 -4.692225 0.461215 0
M  V30 65 H -4.341194 -4.823420 -3.434296 0
M  V30 66 H -6.097506 -7.254446 -3.306799 0
M  V30 67 H -5.769388 -6.396960 -4.880442 0
M  V30 68 H -4.390216 -7.070339 -3.990076 0
M  V30 69 H -6.167562 -3.940089 -4.493463 0
M  V30 70 H -7.347817 -4.972411 -3.584464 0
M  V30 71 H -4.212792 -2.620140 -4.901859 0
M  V30 72 H -1.846640 -1.949078 -4.640021 0
M  V30 73 H 4.188241 0.455729 -2.670296 0
M  V30 74 H 4.966455 2.164591 -0.597114 0
M  V30 75 H 5.509034 3.547707 7.178320 0
M  V30 76 H 4.907512 5.091942 6.500038 0
M  V30 77 H 6.643473 4.695984 6.364840 0
M  V30 END ATOM
M  V30 BEGIN BOND
M  V30 1 1 1 2
M  V30 2 1 2 3
M  V30 3 2 3 4
M  V30 4 1 4 5
M  V30 5 2 5 6
M  V30 6 1 6 7
M  V30 7 2 7 8
M  V30 8 1 7 9
M  V30 9 1 9 10 CFG=3
M  V30 10 1 10 11
M  V30 11 1 11 12
M  V30 12 2 12 13
M  V30 13 1 13 14
M  V30 14 2 14 15
M  V30 15 1 15 16
M  V30 16 1 16 17
M  V30 17 2 17 18
M  V30 18 1 18 19
M  V30 19 2 19 20
M  V30 20 1 20 21
M  V30 21 2 21 22
M  V30 22 1 22 23
M  V30 23 1 23 24
M  V30 24 1 24 25
M  V30 25 1 25 26
M  V30 26 1 26 27
M  V30 27 1 26 28
M  V30 28 1 28 29
M  V30 29 1 29 30
M  V30 30 1 29 31
M  V30 31 1 22 32
M  V30 32 2 32 33
M  V30 33 2 16 34
M  V30 34 1 34 35
M  V30 35 1 35 36
M  V30 36 2 36 37
M  V30 37 1 9 38
M  V30 38 2 38 39
M  V30 39 1 38 40
M  V30 40 1 40 41
M  V30 41 1 8 3
M  V30 42 1 11 9
M  V30 43 1 37 12
M  V30 44 1 40 6
M  V30 45 1 36 15
M  V30 46 1 33 19
M  V30 47 1 31 24
M  V30 48 1 1 42
M  V30 49 1 1 43
M  V30 50 1 1 44
M  V30 51 1 4 45
M  V30 52 1 5 46
M  V30 53 1 8 47
M  V30 54 1 10 48
M  V30 55 1 10 49
M  V30 56 1 11 50 CFG=1
M  V30 57 1 13 51
M  V30 58 1 14 52
M  V30 59 1 17 53
M  V30 60 1 18 54
M  V30 61 1 20 55
M  V30 62 1 21 56
M  V30 63 1 23 57
M  V30 64 1 23 58
M  V30 65 1 25 59
M  V30 66 1 25 60
M  V30 67 1 26 61 CFG=3
M  V30 68 1 27 62
M  V30 69 1 27 63
M  V30 70 1 27 64
M  V30 71 1 29 65 CFG=3
M  V30 72 1 30 66
M  V30 73 1 30 67
M  V30 74 1 30 68
M  V30 75 1 31 69
M  V30 76 1 31 70
M  V30 77 1 32 71
M  V30 78 1 33 72
M  V30 79 1 35 73
M  V30 80 1 37 74
M  V30 81 1 41 75
M  V30 82 1 41 76
M  V30 83 1 41 77
M  V30 END BOND
M  V30 END CTAB
M  END
>  <Dataset>  (629) 
ChEMBL_Kinases

>  <Ligand_Instance>  (629) 
nan

>  <PDB_ID>  (629) 
nan

>  <Standardized_SMILES>  (629) 
COc1ccc2c(c1)[C@]1(C[C@H]1c1ccc3c(/C=C/c4ccc(CN5C[C@@H](C)O[C@@H](C)C5)cc4)n[nH]c3c1)C(=O)N2C

>  <Name>  (629) 
nan

>  <Pocket>  (629) 
nan

>  <ATP_Site>  (629) 
nan

>  <Peripheral>  (629) 
nan

>  <Num_H_Atoms_ProtBoundConf>  (629) 
nan

>  <Num_Resolved_Atoms>  (629) 
nan

>  <Num_Not_Resolved_Atoms>  (629) 
nan

$$$$
CHEMBL3408946
     RDKit          3D

  0  0  0  0  0  0  0  0  0  0999 V3000
M  V30 BEGIN CTAB
M  V30 COUNTS 70 76 0 0 0
M  V30 BEGIN ATOM
M  V30 1 C 4.806494 2.448317 5.694080 0
M  V30 2 C 5.574106 2.264469 4.401975 0 CFG=2
M  V30 3 C 4.974236 3.122266 3.297623 0
M  V30 4 N 5.660522 2.940942 2.089903 0
M  V30 5 C 5.123754 3.510058 0.906001 0
M  V30 6 C 3.766153 2.959175 0.669131 0
M  V30 7 C 3.665173 1.804672 -0.065772 0
M  V30 8 C 2.450806 1.249946 -0.335075 0
M  V30 9 C 1.317764 1.857462 0.137517 0
M  V30 10 C -0.066111 1.621402 0.073250 0
M  V30 11 C -1.327678 1.519078 0.087137 0
M  V30 12 C -2.520560 0.842227 -0.275442 0
M  V30 13 N -3.697537 1.318421 0.185760 0
M  V30 14 N -4.678773 0.584281 -0.263933 0
M  V30 15 C -4.212567 -0.401829 -1.035371 0
M  V30 16 C -4.735024 -1.439810 -1.763258 0
M  V30 17 C -3.995776 -2.331648 -2.501151 0
M  V30 18 C -4.441703 -3.481320 -3.314555 0 CFG=2
M  V30 19 C -5.931569 -3.466732 -3.702543 0
M  V30 20 C -5.332791 -4.550476 -2.914380 0 CFG=1
M  V30 21 C -5.122045 -5.857227 -3.655491 0
M  V30 22 O -4.812564 -5.892103 -4.868640 0
M  V30 23 N -5.329659 -6.940452 -2.762866 0
M  V30 24 C -5.692006 -6.364051 -1.517840 0
M  V30 25 C -5.992114 -7.117048 -0.403296 0
M  V30 26 C -6.356948 -6.487944 0.762542 0
M  V30 27 C -6.415752 -5.103346 0.796213 0
M  V30 28 C -6.094693 -4.439709 -0.378957 0
M  V30 29 C -5.722138 -4.963292 -1.584416 0
M  V30 30 C -2.606828 -2.105418 -2.463044 0
M  V30 31 C -2.035636 -1.078621 -1.748175 0
M  V30 32 C -2.848676 -0.238887 -1.042334 0
M  V30 33 C 1.434365 3.043078 0.891262 0
M  V30 34 C 2.671788 3.640026 1.185976 0
M  V30 35 C 6.488650 1.807208 1.976993 0
M  V30 36 C 6.056452 0.646160 2.802346 0 CFG=2
M  V30 37 C 5.189932 -0.350328 2.059439 0
M  V30 38 O 5.455545 0.949328 4.000891 0
M  V30 39 H 3.755309 2.692982 5.456181 0
M  V30 40 H 5.292315 3.241546 6.331944 0
M  V30 41 H 4.845492 1.511387 6.311843 0
M  V30 42 H 6.603371 2.602808 4.565599 0
M  V30 43 H 5.085567 4.195191 3.637742 0
M  V30 44 H 3.873842 2.941432 3.229326 0
M  V30 45 H 5.743462 3.212282 0.005235 0
M  V30 46 H 5.103341 4.626913 0.920098 0
M  V30 47 H 4.489519 1.244035 -0.484321 0
M  V30 48 H 2.237424 0.358513 -0.888617 0
M  V30 49 H -0.021153 0.675506 -0.529084 0
M  V30 50 H -1.337016 2.457898 0.691653 0
M  V30 51 H -5.679750 0.739918 -0.055246 0
M  V30 52 H -5.790306 -1.598165 -1.789566 0
M  V30 53 H -3.737125 -3.741355 -4.177855 0
M  V30 54 H -6.623492 -2.803266 -3.192556 0
M  V30 55 H -6.171511 -3.598857 -4.791066 0
M  V30 56 H -5.210421 -7.921887 -3.078648 0
M  V30 57 H -5.967488 -8.192469 -0.358563 0
M  V30 58 H -6.593597 -7.052538 1.648594 0
M  V30 59 H -6.703042 -4.606174 1.711336 0
M  V30 60 H -6.172846 -3.371356 -0.253830 0
M  V30 61 H -1.937275 -2.767722 -3.021755 0
M  V30 62 H -0.975692 -0.948313 -1.752351 0
M  V30 63 H 0.659421 3.685349 1.357188 0
M  V30 64 H 2.866406 4.539827 1.750354 0
M  V30 65 H 7.512138 2.097695 2.314295 0
M  V30 66 H 6.602960 1.442923 0.922862 0
M  V30 67 H 6.997710 0.065493 3.055412 0
M  V30 68 H 5.241308 -1.351744 2.580509 0
M  V30 69 H 4.119813 -0.078956 2.082639 0
M  V30 70 H 5.506496 -0.451489 0.997657 0
M  V30 END ATOM
M  V30 BEGIN BOND
M  V30 1 1 1 2
M  V30 2 1 2 3
M  V30 3 1 3 4
M  V30 4 1 4 5
M  V30 5 1 5 6
M  V30 6 2 6 7
M  V30 7 1 7 8
M  V30 8 2 8 9
M  V30 9 1 9 10
M  V30 10 2 10 11
M  V30 11 1 11 12
M  V30 12 2 12 13
M  V30 13 1 13 14
M  V30 14 1 14 15
M  V30 15 2 15 16
M  V30 16 1 16 17
M  V30 17 1 17 18
M  V30 18 1 18 19
M  V30 19 1 20 19 CFG=3
M  V30 20 1 20 21
M  V30 21 2 21 22
M  V30 22 1 21 23
M  V30 23 1 23 24
M  V30 24 2 24 25
M  V30 25 1 25 26
M  V30 26 2 26 27
M  V30 27 1 27 28
M  V30 28 2 28 29
M  V30 29 2 17 30
M  V30 30 1 30 31
M  V30 31 2 31 32
M  V30 32 1 9 33
M  V30 33 2 33 34
M  V30 34 1 4 35
M  V30 35 1 35 36
M  V30 36 1 36 37
M  V30 37 1 36 38
M  V30 38 1 38 2
M  V30 39 1 34 6
M  V30 40 1 32 12
M  V30 41 1 32 15
M  V30 42 1 20 18
M  V30 43 1 29 24
M  V30 44 1 29 20
M  V30 45 1 1 39
M  V30 46 1 1 40
M  V30 47 1 1 41
M  V30 48 1 2 42 CFG=1
M  V30 49 1 3 43
M  V30 50 1 3 44
M  V30 51 1 5 45
M  V30 52 1 5 46
M  V30 53 1 7 47
M  V30 54 1 8 48
M  V30 55 1 10 49
M  V30 56 1 11 50
M  V30 57 1 14 51
M  V30 58 1 16 52
M  V30 59 1 18 53 CFG=3
M  V30 60 1 19 54
M  V30 61 1 19 55
M  V30 62 1 23 56
M  V30 63 1 25 57
M  V30 64 1 26 58
M  V30 65 1 27 59
M  V30 66 1 28 60
M  V30 67 1 30 61
M  V30 68 1 31 62
M  V30 69 1 33 63
M  V30 70 1 34 64
M  V30 71 1 35 65
M  V30 72 1 35 66
M  V30 73 1 36 67 CFG=1
M  V30 74 1 37 68
M  V30 75 1 37 69
M  V30 76 1 37 70
M  V30 END BOND
M  V30 END CTAB
M  END
>  <Dataset>  (630) 
ChEMBL_Kinases

>  <Ligand_Instance>  (630) 
nan

>  <PDB_ID>  (630) 
nan

>  <Standardized_SMILES>  (630) 
C[C@@H]1CN(Cc2ccc(/C=C/c3n[nH]c4cc([C@@H]5C[C@@]56C(=O)Nc5ccccc56)ccc34)cc2)C[C@H](C)O1

>  <Name>  (630) 
nan

>  <Pocket>  (630) 
nan

>  <ATP_Site>  (630) 
nan

>  <Peripheral>  (630) 
nan

>  <Num_H_Atoms_ProtBoundConf>  (630) 
nan

>  <Num_Resolved_Atoms>  (630) 
nan

>  <Num_Not_Resolved_Atoms>  (630) 
nan

$$$$
CHEMBL3408945
     RDKit          3D

  0  0  0  0  0  0  0  0  0  0999 V3000
M  V30 BEGIN CTAB
M  V30 COUNTS 71 77 0 0 0
M  V30 BEGIN ATOM
M  V30 1 C 4.974542 -0.989327 3.302360 0
M  V30 2 O 4.430980 -0.121783 2.367687 0
M  V30 3 C 4.686117 1.229928 2.267141 0
M  V30 4 C 5.540527 1.907257 3.110434 0
M  V30 5 C 5.747893 3.259905 2.950562 0
M  V30 6 C 5.079701 3.934796 1.921754 0
M  V30 7 C 4.194218 3.331799 1.018231 0
M  V30 8 C 4.062014 1.960027 1.275715 0
M  V30 9 C 3.675334 4.314587 0.091109 0 CFG=1
M  V30 10 C 3.457773 4.118431 -1.353577 0
M  V30 11 C 2.321588 4.502660 -0.391555 0 CFG=1
M  V30 12 C 1.187849 3.604027 -0.394774 0
M  V30 13 C 1.120669 2.307908 -0.807233 0
M  V30 14 C -0.002246 1.514255 -0.764105 0
M  V30 15 C -1.160899 2.026067 -0.277642 0
M  V30 16 C -2.382707 1.425839 -0.142439 0
M  V30 17 C -2.955163 0.135978 -0.416371 0
M  V30 18 C -2.594935 -0.999807 -0.900538 0
M  V30 19 C -3.320396 -2.243544 -1.115626 0
M  V30 20 C -2.657679 -3.318573 -1.664439 0
M  V30 21 C -3.335411 -4.500716 -1.871798 0
M  V30 22 C -4.672183 -4.656678 -1.547861 0
M  V30 23 C -5.297863 -5.947293 -1.806207 0
M  V30 24 N -5.263176 -6.918185 -0.788626 0
M  V30 25 C -5.874955 -8.173473 -1.044873 0
M  V30 26 C -5.232683 -9.359425 -0.409182 0
M  V30 27 O -3.850410 -9.115735 -0.333674 0
M  V30 28 C -3.726698 -8.146845 0.680524 0
M  V30 29 C -4.313540 -6.824055 0.239222 0
M  V30 30 C -5.357727 -3.593105 -0.996504 0
M  V30 31 C -4.651163 -2.424727 -0.801879 0
M  V30 32 N -3.158991 2.412114 0.397661 0
M  V30 33 N -2.448756 3.494261 0.562520 0
M  V30 34 C -1.181998 3.324258 0.159248 0
M  V30 35 C -0.038988 4.077878 0.097472 0
M  V30 36 C 4.401305 5.562730 0.552131 0
M  V30 37 O 4.242837 6.666345 -0.029026 0
M  V30 38 N 5.239068 5.325003 1.669945 0
M  V30 39 C 6.040591 6.323908 2.343203 0
M  V30 40 H 5.681531 -0.578110 4.022154 0
M  V30 41 H 4.161816 -1.459999 3.896949 0
M  V30 42 H 5.508354 -1.801881 2.758097 0
M  V30 43 H 6.047806 1.398206 3.890616 0
M  V30 44 H 6.424574 3.740240 3.635806 0
M  V30 45 H 3.413862 1.399133 0.645032 0
M  V30 46 H 3.526034 3.114363 -1.760072 0
M  V30 47 H 3.867208 4.915508 -2.005915 0
M  V30 48 H 2.013999 5.594447 -0.446898 0
M  V30 49 H 2.023337 1.873535 -1.205702 0
M  V30 50 H 0.058372 0.506594 -1.115023 0
M  V30 51 H -4.015927 -0.023294 -0.171103 0
M  V30 52 H -1.555144 -0.981302 -1.187697 0
M  V30 53 H -1.595113 -3.246967 -1.939557 0
M  V30 54 H -2.793723 -5.335371 -2.305575 0
M  V30 55 H -4.833151 -6.378253 -2.731615 0
M  V30 56 H -6.362131 -5.757660 -2.116577 0
M  V30 57 H -6.918540 -8.116582 -0.618470 0
M  V30 58 H -5.976294 -8.349879 -2.125369 0
M  V30 59 H -5.576715 -9.533560 0.630590 0
M  V30 60 H -5.418222 -10.248216 -1.047882 0
M  V30 61 H -4.221273 -8.571351 1.566030 0
M  V30 62 H -2.644650 -8.058071 0.882294 0
M  V30 63 H -4.666680 -6.334466 1.184264 0
M  V30 64 H -3.460572 -6.193204 -0.087022 0
M  V30 65 H -6.404535 -3.677667 -0.730165 0
M  V30 66 H -5.225778 -1.619282 -0.368938 0
M  V30 67 H -2.841895 4.372793 0.961771 0
M  V30 68 H -0.162575 5.095773 0.469407 0
M  V30 69 H 6.443893 5.903775 3.288480 0
M  V30 70 H 6.851252 6.637886 1.632744 0
M  V30 71 H 5.363714 7.156740 2.619951 0
M  V30 END ATOM
M  V30 BEGIN BOND
M  V30 1 1 1 2
M  V30 2 1 2 3
M  V30 3 2 3 4
M  V30 4 1 4 5
M  V30 5 2 5 6
M  V30 6 1 6 7
M  V30 7 2 7 8
M  V30 8 1 7 9
M  V30 9 1 9 10 CFG=3
M  V30 10 1 10 11
M  V30 11 1 11 12
M  V30 12 2 12 13
M  V30 13 1 13 14
M  V30 14 2 14 15
M  V30 15 1 15 16
M  V30 16 1 16 17
M  V30 17 2 17 18
M  V30 18 1 18 19
M  V30 19 2 19 20
M  V30 20 1 20 21
M  V30 21 2 21 22
M  V30 22 1 22 23
M  V30 23 1 23 24
M  V30 24 1 24 25
M  V30 25 1 25 26
M  V30 26 1 26 27
M  V30 27 1 27 28
M  V30 28 1 28 29
M  V30 29 1 22 30
M  V30 30 2 30 31
M  V30 31 2 16 32
M  V30 32 1 32 33
M  V30 33 1 33 34
M  V30 34 2 34 35
M  V30 35 1 9 36
M  V30 36 2 36 37
M  V30 37 1 36 38
M  V30 38 1 38 39
M  V30 39 1 8 3
M  V30 40 1 11 9
M  V30 41 1 35 12
M  V30 42 1 38 6
M  V30 43 1 34 15
M  V30 44 1 31 19
M  V30 45 1 29 24
M  V30 46 1 1 40
M  V30 47 1 1 41
M  V30 48 1 1 42
M  V30 49 1 4 43
M  V30 50 1 5 44
M  V30 51 1 8 45
M  V30 52 1 10 46
M  V30 53 1 10 47
M  V30 54 1 11 48 CFG=3
M  V30 55 1 13 49
M  V30 56 1 14 50
M  V30 57 1 17 51
M  V30 58 1 18 52
M  V30 59 1 20 53
M  V30 60 1 21 54
M  V30 61 1 23 55
M  V30 62 1 23 56
M  V30 63 1 25 57
M  V30 64 1 25 58
M  V30 65 1 26 59
M  V30 66 1 26 60
M  V30 67 1 28 61
M  V30 68 1 28 62
M  V30 69 1 29 63
M  V30 70 1 29 64
M  V30 71 1 30 65
M  V30 72 1 31 66
M  V30 73 1 33 67
M  V30 74 1 35 68
M  V30 75 1 39 69
M  V30 76 1 39 70
M  V30 77 1 39 71
M  V30 END BOND
M  V30 END CTAB
M  END
>  <Dataset>  (631) 
ChEMBL_Kinases

>  <Ligand_Instance>  (631) 
nan

>  <PDB_ID>  (631) 
nan

>  <Standardized_SMILES>  (631) 
COc1ccc2c(c1)[C@]1(C[C@H]1c1ccc3c(/C=C/c4ccc(CN5CCOCC5)cc4)n[nH]c3c1)C(=O)N2C

>  <Name>  (631) 
nan

>  <Pocket>  (631) 
nan

>  <ATP_Site>  (631) 
nan

>  <Peripheral>  (631) 
nan

>  <Num_H_Atoms_ProtBoundConf>  (631) 
nan

>  <Num_Resolved_Atoms>  (631) 
nan

>  <Num_Not_Resolved_Atoms>  (631) 
nan

$$$$
CHEMBL3408944
     RDKit          3D

  0  0  0  0  0  0  0  0  0  0999 V3000
M  V30 BEGIN CTAB
M  V30 COUNTS 70 76 0 0 0
M  V30 BEGIN ATOM
M  V30 1 C 6.492702 -0.564679 2.476546 0
M  V30 2 O 5.803575 0.319762 1.652334 0
M  V30 3 C 5.780091 1.680073 1.773122 0
M  V30 4 C 6.467027 2.340466 2.768231 0
M  V30 5 C 6.417391 3.714434 2.854701 0
M  V30 6 C 5.668738 4.409656 1.928095 0
M  V30 7 C 4.935267 3.834574 0.882534 0
M  V30 8 C 5.062461 2.465542 0.899169 0
M  V30 9 C 4.267533 4.871297 0.113577 0 CFG=1
M  V30 10 C 4.169640 4.815424 -1.362123 0
M  V30 11 C 2.919791 4.876260 -0.423101 0 CFG=1
M  V30 12 C 2.027989 3.743728 -0.644443 0
M  V30 13 C 1.732793 2.618116 0.089323 0
M  V30 14 C 0.856523 1.656310 -0.338098 0
M  V30 15 C 0.228988 1.777748 -1.530249 0
M  V30 16 C -0.669810 0.928089 -2.116086 0
M  V30 17 C -1.294384 -0.328952 -1.798428 0
M  V30 18 C -1.282143 -1.193328 -0.846464 0
M  V30 19 C -1.994181 -2.450043 -0.674205 0
M  V30 20 C -1.786315 -3.189317 0.463955 0
M  V30 21 C -2.442050 -4.384021 0.665058 0
M  V30 22 C -3.328656 -4.878901 -0.267358 0
M  V30 23 C -3.963082 -6.173823 0.078212 0
M  V30 24 N -5.182461 -5.896418 0.808434 0
M  V30 25 C -5.896203 -7.072185 1.209491 0
M  V30 26 C -6.621507 -6.692162 2.509379 0
M  V30 27 C -7.079291 -5.250467 2.316885 0
M  V30 28 C -7.375904 -4.993101 0.838635 0
M  V30 29 C -6.092988 -5.067591 0.035985 0
M  V30 30 C -3.560396 -4.162013 -1.421089 0
M  V30 31 C -2.884692 -2.970947 -1.585126 0
M  V30 32 N -0.968148 1.548778 -3.296791 0
M  V30 33 N -0.291246 2.671047 -3.382841 0
M  V30 34 C 0.482623 2.883197 -2.311021 0
M  V30 35 C 1.365661 3.850065 -1.878375 0
M  V30 36 C 4.753316 6.127543 0.793347 0
M  V30 37 O 4.425156 7.270233 0.368645 0
M  V30 38 N 5.576774 5.827150 1.903628 0
M  V30 39 H 6.795876 -1.430755 1.817818 0
M  V30 40 H 5.857052 -1.029350 3.261503 0
M  V30 41 H 7.397599 -0.195103 2.953717 0
M  V30 42 H 7.037052 1.754241 3.467544 0
M  V30 43 H 6.978193 4.148965 3.655416 0
M  V30 44 H 4.527093 1.907333 0.113807 0
M  V30 45 H 4.428913 5.728237 -1.910768 0
M  V30 46 H 4.421973 3.859483 -1.818411 0
M  V30 47 H 2.396223 5.888560 -0.547757 0
M  V30 48 H 2.242050 2.581522 1.015875 0
M  V30 49 H 0.697933 0.821625 0.306864 0
M  V30 50 H -2.007745 -0.754008 -2.524837 0
M  V30 51 H -0.614280 -0.896480 -0.058147 0
M  V30 52 H -1.098146 -2.837644 1.222843 0
M  V30 53 H -2.228004 -4.919612 1.593971 0
M  V30 54 H -3.326263 -6.822435 0.676368 0
M  V30 55 H -4.248450 -6.728013 -0.823687 0
M  V30 56 H -6.695537 -7.325938 0.483388 0
M  V30 57 H -5.253049 -7.953308 1.360826 0
M  V30 58 H -7.451609 -7.372427 2.728211 0
M  V30 59 H -5.846474 -6.728067 3.330002 0
M  V30 60 H -8.020244 -5.049836 2.869191 0
M  V30 61 H -6.278227 -4.533764 2.591377 0
M  V30 62 H -7.769509 -3.959701 0.769848 0
M  V30 63 H -8.167163 -5.654525 0.460208 0
M  V30 64 H -5.657661 -4.052406 -0.059273 0
M  V30 65 H -6.285053 -5.552005 -0.959602 0
M  V30 66 H -4.252491 -4.565185 -2.131295 0
M  V30 67 H -3.095632 -2.448964 -2.494422 0
M  V30 68 H -0.368755 3.304920 -4.205633 0
M  V30 69 H 1.461332 4.654882 -2.596855 0
M  V30 70 H 5.984188 6.563893 2.516926 0
M  V30 END ATOM
M  V30 BEGIN BOND
M  V30 1 1 1 2
M  V30 2 1 2 3
M  V30 3 2 3 4
M  V30 4 1 4 5
M  V30 5 2 5 6
M  V30 6 1 6 7
M  V30 7 2 7 8
M  V30 8 1 7 9
M  V30 9 1 9 10 CFG=3
M  V30 10 1 10 11
M  V30 11 1 11 12
M  V30 12 2 12 13
M  V30 13 1 13 14
M  V30 14 2 14 15
M  V30 15 1 15 16
M  V30 16 1 16 17
M  V30 17 2 17 18
M  V30 18 1 18 19
M  V30 19 2 19 20
M  V30 20 1 20 21
M  V30 21 2 21 22
M  V30 22 1 22 23
M  V30 23 1 23 24
M  V30 24 1 24 25
M  V30 25 1 25 26
M  V30 26 1 26 27
M  V30 27 1 27 28
M  V30 28 1 28 29
M  V30 29 1 22 30
M  V30 30 2 30 31
M  V30 31 2 16 32
M  V30 32 1 32 33
M  V30 33 1 33 34
M  V30 34 2 34 35
M  V30 35 1 9 36
M  V30 36 2 36 37
M  V30 37 1 36 38
M  V30 38 1 8 3
M  V30 39 1 11 9
M  V30 40 1 35 12
M  V30 41 1 38 6
M  V30 42 1 34 15
M  V30 43 1 31 19
M  V30 44 1 29 24
M  V30 45 1 1 39
M  V30 46 1 1 40
M  V30 47 1 1 41
M  V30 48 1 4 42
M  V30 49 1 5 43
M  V30 50 1 8 44
M  V30 51 1 10 45
M  V30 52 1 10 46
M  V30 53 1 11 47 CFG=3
M  V30 54 1 13 48
M  V30 55 1 14 49
M  V30 56 1 17 50
M  V30 57 1 18 51
M  V30 58 1 20 52
M  V30 59 1 21 53
M  V30 60 1 23 54
M  V30 61 1 23 55
M  V30 62 1 25 56
M  V30 63 1 25 57
M  V30 64 1 26 58
M  V30 65 1 26 59
M  V30 66 1 27 60
M  V30 67 1 27 61
M  V30 68 1 28 62
M  V30 69 1 28 63
M  V30 70 1 29 64
M  V30 71 1 29 65
M  V30 72 1 30 66
M  V30 73 1 31 67
M  V30 74 1 33 68
M  V30 75 1 35 69
M  V30 76 1 38 70
M  V30 END BOND
M  V30 END CTAB
M  END
>  <Dataset>  (632) 
ChEMBL_Kinases

>  <Ligand_Instance>  (632) 
nan

>  <PDB_ID>  (632) 
nan

>  <Standardized_SMILES>  (632) 
COc1ccc2c(c1)[C@]1(C[C@H]1c1ccc3c(/C=C/c4ccc(CN5CCCCC5)cc4)n[nH]c3c1)C(=O)N2

>  <Name>  (632) 
nan

>  <Pocket>  (632) 
nan

>  <ATP_Site>  (632) 
nan

>  <Peripheral>  (632) 
nan

>  <Num_H_Atoms_ProtBoundConf>  (632) 
nan

>  <Num_Resolved_Atoms>  (632) 
nan

>  <Num_Not_Resolved_Atoms>  (632) 
nan

$$$$
CHEMBL3408943
     RDKit          3D

  0  0  0  0  0  0  0  0  0  0999 V3000
M  V30 BEGIN CTAB
M  V30 COUNTS 63 69 0 0 0
M  V30 BEGIN ATOM
M  V30 1 O 6.174630 5.431273 1.366006 0
M  V30 2 C 5.527524 4.826581 2.278548 0
M  V30 3 N 5.617324 5.168561 3.653504 0
M  V30 4 C 4.758624 4.225634 4.283213 0
M  V30 5 C 4.555530 4.189614 5.660251 0
M  V30 6 C 3.714353 3.228115 6.172936 0
M  V30 7 C 3.094775 2.329702 5.337544 0
M  V30 8 C 3.358505 2.445360 3.991055 0
M  V30 9 C 4.171998 3.352921 3.346571 0
M  V30 10 C 4.596935 3.685319 2.009015 0 CFG=2
M  V30 11 C 5.179739 2.720582 1.027443 0
M  V30 12 C 3.933036 3.553622 0.734134 0 CFG=1
M  V30 13 C 2.719845 2.821444 0.434530 0
M  V30 14 C 2.385708 1.508420 0.682543 0
M  V30 15 C 1.186606 0.928737 0.351994 0
M  V30 16 C 0.218701 1.668494 -0.271364 0
M  V30 17 C -1.035434 1.285882 -0.675692 0
M  V30 18 C -1.813189 0.077189 -0.646571 0
M  V30 19 C -1.680331 -1.146848 -0.274705 0
M  V30 20 C -2.605380 -2.267199 -0.321251 0
M  V30 21 C -2.212416 -3.479419 0.200166 0
M  V30 22 C -3.058248 -4.566552 0.149049 0
M  V30 23 C -4.323476 -4.504877 -0.416745 0
M  V30 24 C -5.165123 -5.704151 -0.429315 0
M  V30 25 N -5.028876 -6.577811 -1.533334 0
M  V30 26 C -5.284798 -6.082415 -2.828030 0
M  V30 27 C -4.251079 -6.649243 -3.772026 0
M  V30 28 C -3.211180 -7.279539 -2.875280 0 CFG=1
M  V30 29 F -2.140378 -6.427401 -2.748926 0
M  V30 30 C -3.917816 -7.458277 -1.552062 0
M  V30 31 C -4.724664 -3.293632 -0.941200 0
M  V30 32 C -3.864564 -2.219447 -0.880388 0
M  V30 33 N -1.537457 2.426895 -1.218391 0
M  V30 34 N -0.652206 3.391373 -1.137354 0
M  V30 35 C 0.480968 2.988167 -0.551351 0
M  V30 36 C 1.694331 3.531389 -0.204489 0
M  V30 37 H 6.197358 5.941784 4.040041 0
M  V30 38 H 5.015812 4.868565 6.361278 0
M  V30 39 H 3.551031 3.193473 7.237310 0
M  V30 40 H 2.443109 1.589825 5.778059 0
M  V30 41 H 2.826409 1.692094 3.429446 0
M  V30 42 H 6.108073 2.975850 0.458073 0
M  V30 43 H 5.093268 1.631796 1.169700 0
M  V30 44 H 4.131067 4.444242 0.042967 0
M  V30 45 H 3.182978 0.937562 1.185576 0
M  V30 46 H 1.044172 -0.101936 0.598132 0
M  V30 47 H -2.841842 0.130043 -1.039779 0
M  V30 48 H -0.699578 -1.326791 0.130431 0
M  V30 49 H -1.214773 -3.574000 0.658685 0
M  V30 50 H -2.652932 -5.483087 0.590880 0
M  V30 51 H -6.238468 -5.349050 -0.428090 0
M  V30 52 H -5.031427 -6.279815 0.513797 0
M  V30 53 H -5.343680 -4.999488 -2.863411 0
M  V30 54 H -6.268726 -6.510649 -3.180694 0
M  V30 55 H -3.785070 -5.791952 -4.314515 0
M  V30 56 H -4.659984 -7.337334 -4.523985 0
M  V30 57 H -2.878674 -8.227231 -3.336867 0
M  V30 58 H -3.247110 -7.413400 -0.682746 0
M  V30 59 H -4.306004 -8.519783 -1.553774 0
M  V30 60 H -5.710590 -3.179650 -1.393743 0
M  V30 61 H -4.228116 -1.304422 -1.303291 0
M  V30 62 H -0.829765 4.353904 -1.494198 0
M  V30 63 H 1.825478 4.578423 -0.459015 0
M  V30 END ATOM
M  V30 BEGIN BOND
M  V30 1 2 1 2
M  V30 2 1 2 3
M  V30 3 1 3 4
M  V30 4 2 4 5
M  V30 5 1 5 6
M  V30 6 2 6 7
M  V30 7 1 7 8
M  V30 8 2 8 9
M  V30 9 1 9 10
M  V30 10 1 10 11 CFG=3
M  V30 11 1 11 12
M  V30 12 1 12 13
M  V30 13 2 13 14
M  V30 14 1 14 15
M  V30 15 2 15 16
M  V30 16 1 16 17
M  V30 17 1 17 18
M  V30 18 2 18 19
M  V30 19 1 19 20
M  V30 20 2 20 21
M  V30 21 1 21 22
M  V30 22 2 22 23
M  V30 23 1 23 24
M  V30 24 1 24 25
M  V30 25 1 25 26
M  V30 26 1 26 27
M  V30 27 1 27 28
M  V30 28 1 28 29
M  V30 29 1 28 30
M  V30 30 1 23 31
M  V30 31 2 31 32
M  V30 32 2 17 33
M  V30 33 1 33 34
M  V30 34 1 34 35
M  V30 35 2 35 36
M  V30 36 1 10 2
M  V30 37 1 36 13
M  V30 38 1 9 4
M  V30 39 1 12 10
M  V30 40 1 35 16
M  V30 41 1 32 20
M  V30 42 1 30 25
M  V30 43 1 3 37
M  V30 44 1 5 38
M  V30 45 1 6 39
M  V30 46 1 7 40
M  V30 47 1 8 41
M  V30 48 1 11 42
M  V30 49 1 11 43
M  V30 50 1 12 44 CFG=3
M  V30 51 1 14 45
M  V30 52 1 15 46
M  V30 53 1 18 47
M  V30 54 1 19 48
M  V30 55 1 21 49
M  V30 56 1 22 50
M  V30 57 1 24 51
M  V30 58 1 24 52
M  V30 59 1 26 53
M  V30 60 1 26 54
M  V30 61 1 27 55
M  V30 62 1 27 56
M  V30 63 1 28 57 CFG=3
M  V30 64 1 30 58
M  V30 65 1 30 59
M  V30 66 1 31 60
M  V30 67 1 32 61
M  V30 68 1 34 62
M  V30 69 1 36 63
M  V30 END BOND
M  V30 END CTAB
M  END
>  <Dataset>  (633) 
ChEMBL_Kinases

>  <Ligand_Instance>  (633) 
nan

>  <PDB_ID>  (633) 
nan

>  <Standardized_SMILES>  (633) 
O=C1Nc2ccccc2[C@]12C[C@H]2c1ccc2c(/C=C/c3ccc(CN4CC[C@@H](F)C4)cc3)n[nH]c2c1

>  <Name>  (633) 
nan

>  <Pocket>  (633) 
nan

>  <ATP_Site>  (633) 
nan

>  <Peripheral>  (633) 
nan

>  <Num_H_Atoms_ProtBoundConf>  (633) 
nan

>  <Num_Resolved_Atoms>  (633) 
nan

>  <Num_Not_Resolved_Atoms>  (633) 
nan

$$$$
CHEMBL3408942
     RDKit          3D

  0  0  0  0  0  0  0  0  0  0999 V3000
M  V30 BEGIN CTAB
M  V30 COUNTS 62 67 0 0 0
M  V30 BEGIN ATOM
M  V30 1 C 8.069652 2.633446 4.915017 0
M  V30 2 N 6.695628 2.447973 4.494235 0
M  V30 3 C 6.017987 1.681051 5.516821 0
M  V30 4 C 6.665970 1.796079 3.214990 0
M  V30 5 C 5.292568 1.569391 2.712095 0
M  V30 6 C 4.657418 0.374541 3.047515 0
M  V30 7 C 3.379629 0.096717 2.614437 0
M  V30 8 C 2.695400 1.000796 1.833909 0
M  V30 9 C 1.348481 0.656236 1.403569 0
M  V30 10 C 0.498465 1.316241 0.676312 0
M  V30 11 C -0.832356 1.151693 0.159649 0
M  V30 12 N -1.405416 2.125439 -0.603500 0
M  V30 13 N -2.611473 1.755338 -0.957975 0
M  V30 14 C -2.938133 0.546481 -0.480467 0
M  V30 15 C -4.034756 -0.294856 -0.542008 0
M  V30 16 C -4.036862 -1.541060 0.101324 0
M  V30 17 C -5.285800 -2.279937 -0.057347 0 CFG=2
M  V30 18 C -5.524133 -3.665489 0.332344 0
M  V30 19 C -5.218930 -3.436802 -1.056614 0 CFG=1
M  V30 20 C -6.206019 -3.249535 -2.152146 0
M  V30 21 O -7.429775 -3.021163 -1.883663 0
M  V30 22 N -5.566965 -3.366139 -3.414569 0
M  V30 23 C -6.251888 -3.153378 -4.667939 0
M  V30 24 C -4.218285 -3.711497 -3.124108 0
M  V30 25 C -3.278834 -3.968046 -4.098092 0
M  V30 26 C -2.010320 -4.355261 -3.726648 0
M  V30 27 C -1.709940 -4.477609 -2.388777 0
M  V30 28 C -2.705985 -4.201707 -1.484489 0
M  V30 29 C -3.999265 -3.807944 -1.744489 0
M  V30 30 C -2.896473 -1.837773 0.771643 0
M  V30 31 C -1.792691 -1.022195 0.849640 0
M  V30 32 C -1.807599 0.191736 0.214832 0
M  V30 33 C 3.352397 2.170587 1.521455 0
M  V30 34 C 4.628409 2.491490 1.931273 0
M  V30 35 H 8.615012 3.317763 4.224438 0
M  V30 36 H 8.637739 1.668719 4.933969 0
M  V30 37 H 8.155146 3.070949 5.916139 0
M  V30 38 H 6.152215 2.232717 6.467566 0
M  V30 39 H 6.462630 0.662287 5.664601 0
M  V30 40 H 4.950479 1.503287 5.268614 0
M  V30 41 H 7.186582 2.458838 2.494734 0
M  V30 42 H 7.156272 0.808222 3.307966 0
M  V30 43 H 5.168877 -0.375424 3.669506 0
M  V30 44 H 2.932632 -0.845928 2.903530 0
M  V30 45 H 0.944711 -0.277186 1.705825 0
M  V30 46 H 1.028227 2.252939 0.429731 0
M  V30 47 H -3.218829 2.362820 -1.547173 0
M  V30 48 H -4.848685 0.118236 -1.124153 0
M  V30 49 H -6.199956 -1.609552 -0.175073 0
M  V30 50 H -4.810997 -4.259369 0.932846 0
M  V30 51 H -6.582627 -3.938577 0.605816 0
M  V30 52 H -7.007435 -3.942799 -4.830060 0
M  V30 53 H -6.831276 -2.188055 -4.660265 0
M  V30 54 H -5.519413 -3.063583 -5.473819 0
M  V30 55 H -3.447550 -3.892027 -5.159693 0
M  V30 56 H -1.253951 -4.562511 -4.468629 0
M  V30 57 H -0.721245 -4.779833 -2.118203 0
M  V30 58 H -2.391865 -4.337992 -0.460170 0
M  V30 59 H -2.921793 -2.803007 1.267178 0
M  V30 60 H -0.940502 -1.351753 1.406078 0
M  V30 61 H 2.863281 2.911044 0.914489 0
M  V30 62 H 5.101031 3.422693 1.659688 0
M  V30 END ATOM
M  V30 BEGIN BOND
M  V30 1 1 1 2
M  V30 2 1 2 3
M  V30 3 1 2 4
M  V30 4 1 4 5
M  V30 5 2 5 6
M  V30 6 1 6 7
M  V30 7 2 7 8
M  V30 8 1 8 9
M  V30 9 2 9 10
M  V30 10 1 10 11
M  V30 11 2 11 12
M  V30 12 1 12 13
M  V30 13 1 13 14
M  V30 14 2 14 15
M  V30 15 1 15 16
M  V30 16 1 16 17
M  V30 17 1 17 18
M  V30 18 1 19 18 CFG=1
M  V30 19 1 19 20
M  V30 20 2 20 21
M  V30 21 1 20 22
M  V30 22 1 22 23
M  V30 23 1 22 24
M  V30 24 2 24 25
M  V30 25 1 25 26
M  V30 26 2 26 27
M  V30 27 1 27 28
M  V30 28 2 28 29
M  V30 29 2 16 30
M  V30 30 1 30 31
M  V30 31 2 31 32
M  V30 32 1 8 33
M  V30 33 2 33 34
M  V30 34 1 34 5
M  V30 35 1 32 11
M  V30 36 1 32 14
M  V30 37 1 19 17
M  V30 38 1 29 24
M  V30 39 1 29 19
M  V30 40 1 1 35
M  V30 41 1 1 36
M  V30 42 1 1 37
M  V30 43 1 3 38
M  V30 44 1 3 39
M  V30 45 1 3 40
M  V30 46 1 4 41
M  V30 47 1 4 42
M  V30 48 1 6 43
M  V30 49 1 7 44
M  V30 50 1 9 45
M  V30 51 1 10 46
M  V30 52 1 13 47
M  V30 53 1 15 48
M  V30 54 1 17 49 CFG=3
M  V30 55 1 18 50
M  V30 56 1 18 51
M  V30 57 1 23 52
M  V30 58 1 23 53
M  V30 59 1 23 54
M  V30 60 1 25 55
M  V30 61 1 26 56
M  V30 62 1 27 57
M  V30 63 1 28 58
M  V30 64 1 30 59
M  V30 65 1 31 60
M  V30 66 1 33 61
M  V30 67 1 34 62
M  V30 END BOND
M  V30 END CTAB
M  END
>  <Dataset>  (634) 
ChEMBL_Kinases

>  <Ligand_Instance>  (634) 
nan

>  <PDB_ID>  (634) 
nan

>  <Standardized_SMILES>  (634) 
CN(C)Cc1ccc(/C=C/c2n[nH]c3cc([C@@H]4C[C@@]45C(=O)N(C)c4ccccc45)ccc23)cc1

>  <Name>  (634) 
nan

>  <Pocket>  (634) 
nan

>  <ATP_Site>  (634) 
nan

>  <Peripheral>  (634) 
nan

>  <Num_H_Atoms_ProtBoundConf>  (634) 
nan

>  <Num_Resolved_Atoms>  (634) 
nan

>  <Num_Not_Resolved_Atoms>  (634) 
nan

$$$$
CHEMBL3408941
     RDKit          3D

  0  0  0  0  0  0  0  0  0  0999 V3000
M  V30 BEGIN CTAB
M  V30 COUNTS 62 68 0 0 0
M  V30 BEGIN ATOM
M  V30 1 O 5.740418 5.592144 2.768541 0
M  V30 2 C 5.930649 4.499999 2.191582 0
M  V30 3 N 7.124323 3.729453 2.231820 0
M  V30 4 C 6.880235 2.607086 1.399782 0
M  V30 5 C 7.815084 1.616420 1.144383 0
M  V30 6 C 7.464629 0.594851 0.291193 0
M  V30 7 C 6.222375 0.521434 -0.316499 0
M  V30 8 C 5.374340 1.572843 0.019899 0
M  V30 9 C 5.591368 2.649574 0.851926 0
M  V30 10 C 4.891143 3.827000 1.345444 0 CFG=2
M  V30 11 C 4.062190 4.651874 0.406908 0
M  V30 12 C 3.494387 3.978263 1.705919 0 CFG=1
M  V30 13 C 2.382644 3.057048 1.456032 0
M  V30 14 C 2.266797 1.684606 1.482077 0
M  V30 15 C 1.089281 1.037349 1.183479 0
M  V30 16 C -0.035375 1.751910 0.842270 0
M  V30 17 C -1.303137 1.317134 0.512107 0
M  V30 18 C -1.822449 -0.059527 0.423815 0
M  V30 19 C -3.078330 -0.264328 0.104978 0
M  V30 20 C -3.664668 -1.594327 -0.001431 0
M  V30 21 C -3.008775 -2.778982 0.241727 0
M  V30 22 C -3.552031 -4.040996 0.136445 0
M  V30 23 C -4.894987 -4.130454 -0.253123 0
M  V30 24 N -5.429800 -5.444436 -0.345682 0
M  V30 25 C -5.612550 -6.148933 -1.607881 0
M  V30 26 C -5.455146 -7.615063 -1.321288 0
M  V30 27 N -4.441467 -7.765443 -0.294887 0
M  V30 28 C -4.910371 -7.334159 1.006369 0
M  V30 29 C -5.830623 -6.124349 0.886535 0
M  V30 30 C -5.600915 -2.972244 -0.509755 0
M  V30 31 C -4.988538 -1.731848 -0.383313 0
M  V30 32 N -1.996343 2.439236 0.274585 0
M  V30 33 N -1.219992 3.522720 0.442356 0
M  V30 34 C 0.015094 3.127593 0.798254 0
M  V30 35 C 1.209571 3.748602 1.102614 0
M  V30 36 H 7.966629 3.997451 2.784507 0
M  V30 37 H 8.803337 1.587188 1.567729 0
M  V30 38 H 8.173489 -0.190615 0.074428 0
M  V30 39 H 5.886427 -0.249529 -0.992482 0
M  V30 40 H 4.389340 1.528876 -0.456383 0
M  V30 41 H 3.839807 4.146894 -0.540620 0
M  V30 42 H 4.183063 5.741333 0.442755 0
M  V30 43 H 3.208205 4.767254 2.472406 0
M  V30 44 H 3.189740 1.209932 1.770612 0
M  V30 45 H 1.109065 -0.043293 1.233936 0
M  V30 46 H -1.147987 -0.879727 0.626831 0
M  V30 47 H -3.690501 0.602014 -0.073293 0
M  V30 48 H -1.971294 -2.724835 0.543640 0
M  V30 49 H -2.987087 -4.942918 0.339701 0
M  V30 50 H -6.603962 -5.870499 -2.011488 0
M  V30 51 H -4.877893 -5.787608 -2.374512 0
M  V30 52 H -5.291927 -8.256793 -2.184915 0
M  V30 53 H -6.413953 -7.935344 -0.829715 0
M  V30 54 H -3.644196 -7.134134 -0.547652 0
M  V30 55 H -4.025944 -7.148027 1.641998 0
M  V30 56 H -5.461806 -8.200642 1.454430 0
M  V30 57 H -5.653196 -5.494311 1.765996 0
M  V30 58 H -6.863445 -6.514868 0.815236 0
M  V30 59 H -6.634792 -3.058622 -0.807764 0
M  V30 60 H -5.616620 -0.875558 -0.603784 0
M  V30 61 H -1.501915 4.537163 0.322084 0
M  V30 62 H 1.127203 4.844927 1.032844 0
M  V30 END ATOM
M  V30 BEGIN BOND
M  V30 1 2 1 2
M  V30 2 1 2 3
M  V30 3 1 3 4
M  V30 4 2 4 5
M  V30 5 1 5 6
M  V30 6 2 6 7
M  V30 7 1 7 8
M  V30 8 2 8 9
M  V30 9 1 9 10
M  V30 10 1 10 11 CFG=3
M  V30 11 1 11 12
M  V30 12 1 12 13
M  V30 13 2 13 14
M  V30 14 1 14 15
M  V30 15 2 15 16
M  V30 16 1 16 17
M  V30 17 1 17 18
M  V30 18 2 18 19
M  V30 19 1 19 20
M  V30 20 2 20 21
M  V30 21 1 21 22
M  V30 22 2 22 23
M  V30 23 1 23 24
M  V30 24 1 24 25
M  V30 25 1 25 26
M  V30 26 1 26 27
M  V30 27 1 27 28
M  V30 28 1 28 29
M  V30 29 1 23 30
M  V30 30 2 30 31
M  V30 31 2 17 32
M  V30 32 1 32 33
M  V30 33 1 33 34
M  V30 34 2 34 35
M  V30 35 1 10 2
M  V30 36 1 35 13
M  V30 37 1 9 4
M  V30 38 1 12 10
M  V30 39 1 34 16
M  V30 40 1 31 20
M  V30 41 1 29 24
M  V30 42 1 3 36
M  V30 43 1 5 37
M  V30 44 1 6 38
M  V30 45 1 7 39
M  V30 46 1 8 40
M  V30 47 1 11 41
M  V30 48 1 11 42
M  V30 49 1 12 43 CFG=1
M  V30 50 1 14 44
M  V30 51 1 15 45
M  V30 52 1 18 46
M  V30 53 1 19 47
M  V30 54 1 21 48
M  V30 55 1 22 49
M  V30 56 1 25 50
M  V30 57 1 25 51
M  V30 58 1 26 52
M  V30 59 1 26 53
M  V30 60 1 27 54
M  V30 61 1 28 55
M  V30 62 1 28 56
M  V30 63 1 29 57
M  V30 64 1 29 58
M  V30 65 1 30 59
M  V30 66 1 31 60
M  V30 67 1 33 61
M  V30 68 1 35 62
M  V30 END BOND
M  V30 END CTAB
M  END
>  <Dataset>  (635) 
ChEMBL_Kinases

>  <Ligand_Instance>  (635) 
nan

>  <PDB_ID>  (635) 
nan

>  <Standardized_SMILES>  (635) 
O=C1Nc2ccccc2[C@]12C[C@H]2c1ccc2c(/C=C/c3ccc(N4CCNCC4)cc3)n[nH]c2c1

>  <Name>  (635) 
nan

>  <Pocket>  (635) 
nan

>  <ATP_Site>  (635) 
nan

>  <Peripheral>  (635) 
nan

>  <Num_H_Atoms_ProtBoundConf>  (635) 
nan

>  <Num_Resolved_Atoms>  (635) 
nan

>  <Num_Not_Resolved_Atoms>  (635) 
nan

$$$$
CHEMBL3408940
     RDKit          3D

  0  0  0  0  0  0  0  0  0  0999 V3000
M  V30 BEGIN CTAB
M  V30 COUNTS 67 73 0 0 0
M  V30 BEGIN ATOM
M  V30 1 C 5.183688 2.529960 6.108706 0
M  V30 2 N 6.447460 1.845624 6.110945 0
M  V30 3 C 6.288022 0.456002 5.726696 0
M  V30 4 C 6.271623 0.304229 4.238028 0
M  V30 5 N 6.028257 1.564463 3.533482 0
M  V30 6 C 4.882667 1.792224 2.725849 0
M  V30 7 C 4.580385 2.914979 1.986110 0
M  V30 8 C 3.432784 3.039457 1.232015 0
M  V30 9 C 2.517160 1.976309 1.207298 0
M  V30 10 C 1.289101 2.050160 0.422268 0
M  V30 11 C 0.353738 1.137881 0.328396 0
M  V30 12 C -0.850107 1.279121 -0.477434 0
M  V30 13 N -1.258962 2.283225 -1.270055 0
M  V30 14 N -2.447437 1.997619 -1.825813 0
M  V30 15 C -2.856984 0.789509 -1.411638 0
M  V30 16 C -3.937579 -0.026904 -1.609276 0
M  V30 17 C -4.123656 -1.285369 -1.029534 0
M  V30 18 C -5.377161 -1.960500 -1.377370 0 CFG=2
M  V30 19 C -5.772427 -3.077400 -0.410514 0
M  V30 20 C -5.548915 -3.322588 -1.853924 0 CFG=1
M  V30 21 C -6.736183 -3.561114 -2.740335 0
M  V30 22 O -7.831823 -2.957111 -2.562077 0
M  V30 23 N -6.451835 -4.515050 -3.749466 0
M  V30 24 C -7.402020 -4.927004 -4.749198 0
M  V30 25 C -5.110180 -4.883337 -3.489797 0
M  V30 26 C -4.441140 -5.833101 -4.272731 0
M  V30 27 C -3.140400 -6.169774 -3.976675 0
M  V30 28 C -2.533851 -5.550852 -2.904582 0
M  V30 29 C -3.254658 -4.626900 -2.180775 0
M  V30 30 C -4.551203 -4.224030 -2.395409 0
M  V30 31 C -3.089523 -1.663911 -0.203140 0
M  V30 32 C -1.979636 -0.885407 0.032460 0
M  V30 33 C -1.860636 0.347121 -0.573727 0
M  V30 34 C 2.849727 0.866002 1.959574 0
M  V30 35 N 3.982552 0.794723 2.678460 0
M  V30 36 C 7.110164 2.464207 3.808144 0
M  V30 37 C 7.444826 2.492032 5.284436 0
M  V30 38 H 4.435779 1.868266 5.619505 0
M  V30 39 H 4.861019 2.667932 7.161014 0
M  V30 40 H 5.190383 3.483218 5.550738 0
M  V30 41 H 5.282689 0.107636 6.100319 0
M  V30 42 H 7.082143 -0.134100 6.190938 0
M  V30 43 H 5.477098 -0.433080 3.917959 0
M  V30 44 H 7.218109 -0.097494 3.843553 0
M  V30 45 H 5.310254 3.709254 2.033352 0
M  V30 46 H 3.246570 3.937802 0.675261 0
M  V30 47 H 1.123741 2.961124 -0.152267 0
M  V30 48 H 0.514823 0.239003 0.893031 0
M  V30 49 H -3.011329 2.580326 -2.480933 0
M  V30 50 H -4.675564 0.396295 -2.282398 0
M  V30 51 H -6.234590 -1.247360 -1.633258 0
M  V30 52 H -5.046373 -3.506394 0.276596 0
M  V30 53 H -6.804016 -3.053566 0.007970 0
M  V30 54 H -7.272976 -4.466892 -5.731098 0
M  V30 55 H -7.315288 -6.041379 -4.870781 0
M  V30 56 H -8.450298 -4.795656 -4.355472 0
M  V30 57 H -4.863585 -6.348717 -5.121292 0
M  V30 58 H -2.603426 -6.897452 -4.564028 0
M  V30 59 H -1.513655 -5.829451 -2.689361 0
M  V30 60 H -2.687092 -4.220185 -1.378837 0
M  V30 61 H -3.224279 -2.625837 0.256802 0
M  V30 62 H -1.224826 -1.277716 0.699581 0
M  V30 63 H 2.196786 0.003304 1.995232 0
M  V30 64 H 6.915489 3.494980 3.454032 0
M  V30 65 H 7.991355 2.090031 3.241260 0
M  V30 66 H 7.584737 3.526943 5.659774 0
M  V30 67 H 8.401250 1.954455 5.468186 0
M  V30 END ATOM
M  V30 BEGIN BOND
M  V30 1 1 1 2
M  V30 2 1 2 3
M  V30 3 1 3 4
M  V30 4 1 4 5
M  V30 5 1 5 6
M  V30 6 2 6 7
M  V30 7 1 7 8
M  V30 8 2 8 9
M  V30 9 1 9 10
M  V30 10 2 10 11
M  V30 11 1 11 12
M  V30 12 2 12 13
M  V30 13 1 13 14
M  V30 14 1 14 15
M  V30 15 2 15 16
M  V30 16 1 16 17
M  V30 17 1 17 18
M  V30 18 1 18 19
M  V30 19 1 20 19 CFG=1
M  V30 20 1 20 21
M  V30 21 2 21 22
M  V30 22 1 21 23
M  V30 23 1 23 24
M  V30 24 1 23 25
M  V30 25 2 25 26
M  V30 26 1 26 27
M  V30 27 2 27 28
M  V30 28 1 28 29
M  V30 29 2 29 30
M  V30 30 2 17 31
M  V30 31 1 31 32
M  V30 32 2 32 33
M  V30 33 1 9 34
M  V30 34 2 34 35
M  V30 35 1 5 36
M  V30 36 1 36 37
M  V30 37 1 37 2
M  V30 38 1 35 6
M  V30 39 1 33 12
M  V30 40 1 33 15
M  V30 41 1 20 18
M  V30 42 1 30 25
M  V30 43 1 30 20
M  V30 44 1 1 38
M  V30 45 1 1 39
M  V30 46 1 1 40
M  V30 47 1 3 41
M  V30 48 1 3 42
M  V30 49 1 4 43
M  V30 50 1 4 44
M  V30 51 1 7 45
M  V30 52 1 8 46
M  V30 53 1 10 47
M  V30 54 1 11 48
M  V30 55 1 14 49
M  V30 56 1 16 50
M  V30 57 1 18 51 CFG=3
M  V30 58 1 19 52
M  V30 59 1 19 53
M  V30 60 1 24 54
M  V30 61 1 24 55
M  V30 62 1 24 56
M  V30 63 1 26 57
M  V30 64 1 27 58
M  V30 65 1 28 59
M  V30 66 1 29 60
M  V30 67 1 31 61
M  V30 68 1 32 62
M  V30 69 1 34 63
M  V30 70 1 36 64
M  V30 71 1 36 65
M  V30 72 1 37 66
M  V30 73 1 37 67
M  V30 END BOND
M  V30 END CTAB
M  END
>  <Dataset>  (636) 
ChEMBL_Kinases

>  <Ligand_Instance>  (636) 
nan

>  <PDB_ID>  (636) 
nan

>  <Standardized_SMILES>  (636) 
CN1CCN(c2ccc(/C=C/c3n[nH]c4cc([C@@H]5C[C@@]56C(=O)N(C)c5ccccc56)ccc34)cn2)CC1

>  <Name>  (636) 
nan

>  <Pocket>  (636) 
nan

>  <ATP_Site>  (636) 
nan

>  <Peripheral>  (636) 
nan

>  <Num_H_Atoms_ProtBoundConf>  (636) 
nan

>  <Num_Resolved_Atoms>  (636) 
nan

>  <Num_Not_Resolved_Atoms>  (636) 
nan

$$$$
CHEMBL3408798
     RDKit          3D

  0  0  0  0  0  0  0  0  0  0999 V3000
M  V30 BEGIN CTAB
M  V30 COUNTS 30 33 0 0 0
M  V30 BEGIN ATOM
M  V30 1 N 4.808959 -4.461343 1.229075 0
M  V30 2 C 3.727016 -3.810387 1.853095 0
M  V30 3 N 3.429430 -4.028084 3.163941 0
M  V30 4 C 2.364472 -3.323619 3.596007 0
M  V30 5 N 1.622687 -2.475415 2.870768 0
M  V30 6 C 1.900792 -2.236898 1.544980 0
M  V30 7 C 2.935587 -2.914457 1.105088 0
M  V30 8 S 3.059014 -2.432050 -0.566394 0
M  V30 9 C 1.700610 -1.345758 -0.555223 0
M  V30 10 N 1.191833 -0.585666 -1.567499 0
M  V30 11 C 0.123671 0.205897 -1.379691 0
M  V30 12 C -0.386353 0.171225 -0.103268 0
M  V30 13 C -1.565896 1.027408 0.153047 0
M  V30 14 C -1.801995 1.596626 1.404949 0
M  V30 15 C -2.926889 2.394513 1.596040 0
M  V30 16 C -3.771833 2.591404 0.526072 0
M  V30 17 Cl -5.212896 3.593566 0.710989 0
M  V30 18 C -3.598532 2.060348 -0.734283 0
M  V30 19 Cl -4.710910 2.348876 -2.054983 0
M  V30 20 C -2.460272 1.266671 -0.886566 0
M  V30 21 C 0.123626 -0.592739 0.917557 0
M  V30 22 C 1.243925 -1.417922 0.705950 0
M  V30 23 H 5.810656 -4.552640 1.532570 0
M  V30 24 H 4.609351 -4.932122 0.325085 0
M  V30 25 H 2.101809 -3.481586 4.655464 0
M  V30 26 H -0.233021 0.782561 -2.215556 0
M  V30 27 H -1.091226 1.390826 2.184270 0
M  V30 28 H -3.100322 2.829535 2.565739 0
M  V30 29 H -2.302123 0.833179 -1.882749 0
M  V30 30 H -0.388295 -0.519091 1.888430 0
M  V30 END ATOM
M  V30 BEGIN BOND
M  V30 1 1 1 2
M  V30 2 2 2 3
M  V30 3 1 3 4
M  V30 4 2 4 5
M  V30 5 1 5 6
M  V30 6 2 6 7
M  V30 7 1 7 8
M  V30 8 1 8 9
M  V30 9 2 9 10
M  V30 10 1 10 11
M  V30 11 2 11 12
M  V30 12 1 12 13
M  V30 13 2 13 14
M  V30 14 1 14 15
M  V30 15 2 15 16
M  V30 16 1 16 17
M  V30 17 1 16 18
M  V30 18 1 18 19
M  V30 19 2 18 20
M  V30 20 1 12 21
M  V30 21 2 21 22
M  V30 22 1 7 2
M  V30 23 1 22 9
M  V30 24 1 22 6
M  V30 25 1 20 13
M  V30 26 1 1 23
M  V30 27 1 1 24
M  V30 28 1 4 25
M  V30 29 1 11 26
M  V30 30 1 14 27
M  V30 31 1 15 28
M  V30 32 1 20 29
M  V30 33 1 21 30
M  V30 END BOND
M  V30 END CTAB
M  END
>  <Dataset>  (637) 
ChEMBL_Kinases

>  <Ligand_Instance>  (637) 
nan

>  <PDB_ID>  (637) 
nan

>  <Standardized_SMILES>  (637) 
Nc1ncnc2c1sc1ncc(-c3ccc(Cl)c(Cl)c3)cc12

>  <Name>  (637) 
nan

>  <Pocket>  (637) 
nan

>  <ATP_Site>  (637) 
nan

>  <Peripheral>  (637) 
nan

>  <Num_H_Atoms_ProtBoundConf>  (637) 
nan

>  <Num_Resolved_Atoms>  (637) 
nan

>  <Num_Not_Resolved_Atoms>  (637) 
nan

$$$$
CHEMBL3408795
     RDKit          3D

  0  0  0  0  0  0  0  0  0  0999 V3000
M  V30 BEGIN CTAB
M  V30 COUNTS 34 37 0 0 0
M  V30 BEGIN ATOM
M  V30 1 C -1.505869 -5.930267 3.459937 0
M  V30 2 O -0.358857 -5.843214 2.609703 0
M  V30 3 C -0.007722 -4.608159 2.078877 0
M  V30 4 C 1.109283 -4.491196 1.244495 0
M  V30 5 C 1.501918 -3.273544 0.687209 0
M  V30 6 C 0.735413 -2.164688 0.992941 0
M  V30 7 C 1.103881 -0.850414 0.433640 0
M  V30 8 C 2.447371 -0.634181 0.234267 0
M  V30 9 N 2.724728 0.579130 -0.275256 0
M  V30 10 C 1.740193 1.459017 -0.545019 0
M  V30 11 S 1.860984 3.203652 -1.251800 0
M  V30 12 C 0.139430 3.464475 -1.211486 0
M  V30 13 C -0.599074 4.575367 -1.592163 0
M  V30 14 N 0.091263 5.697275 -2.094692 0
M  V30 15 N -1.942167 4.591169 -1.485106 0
M  V30 16 C -2.476029 3.458066 -0.987754 0
M  V30 17 N -1.752694 2.400230 -0.626631 0
M  V30 18 C -0.416160 2.325161 -0.709672 0
M  V30 19 C 0.379160 1.279671 -0.359022 0
M  V30 20 C 0.091603 0.036881 0.162871 0
M  V30 21 C -0.361902 -2.269560 1.810380 0
M  V30 22 C -0.736815 -3.472698 2.351603 0
M  V30 23 H -2.410327 -5.647088 2.857468 0
M  V30 24 H -1.624973 -6.988867 3.786346 0
M  V30 25 H -1.408503 -5.311624 4.352391 0
M  V30 26 H 1.711506 -5.374770 1.007305 0
M  V30 27 H 2.357751 -3.244715 0.061419 0
M  V30 28 H 3.263814 -1.280014 0.424052 0
M  V30 29 H 0.699767 6.505128 -2.200978 0
M  V30 30 H 0.719173 6.046228 -1.312226 0
M  V30 31 H -3.553840 3.398629 -0.873045 0
M  V30 32 H -0.927032 -0.259928 0.366830 0
M  V30 33 H -0.975184 -1.394893 2.058421 0
M  V30 34 H -1.621695 -3.523744 3.002938 0
M  V30 END ATOM
M  V30 BEGIN BOND
M  V30 1 1 1 2
M  V30 2 1 2 3
M  V30 3 2 3 4
M  V30 4 1 4 5
M  V30 5 2 5 6
M  V30 6 1 6 7
M  V30 7 2 7 8
M  V30 8 1 8 9
M  V30 9 2 9 10
M  V30 10 1 10 11
M  V30 11 1 11 12
M  V30 12 2 12 13
M  V30 13 1 13 14
M  V30 14 1 13 15
M  V30 15 2 15 16
M  V30 16 1 16 17
M  V30 17 2 17 18
M  V30 18 1 18 19
M  V30 19 2 19 20
M  V30 20 1 6 21
M  V30 21 2 21 22
M  V30 22 1 22 3
M  V30 23 1 20 7
M  V30 24 1 19 10
M  V30 25 1 18 12
M  V30 26 1 1 23
M  V30 27 1 1 24
M  V30 28 1 1 25
M  V30 29 1 4 26
M  V30 30 1 5 27
M  V30 31 1 8 28
M  V30 32 1 14 29
M  V30 33 1 14 30
M  V30 34 1 16 31
M  V30 35 1 20 32
M  V30 36 1 21 33
M  V30 37 1 22 34
M  V30 END BOND
M  V30 END CTAB
M  END
>  <Dataset>  (638) 
ChEMBL_Kinases

>  <Ligand_Instance>  (638) 
nan

>  <PDB_ID>  (638) 
nan

>  <Standardized_SMILES>  (638) 
COc1ccc(-c2cnc3sc4c(N)ncnc4c3c2)cc1

>  <Name>  (638) 
nan

>  <Pocket>  (638) 
nan

>  <ATP_Site>  (638) 
nan

>  <Peripheral>  (638) 
nan

>  <Num_H_Atoms_ProtBoundConf>  (638) 
nan

>  <Num_Resolved_Atoms>  (638) 
nan

>  <Num_Not_Resolved_Atoms>  (638) 
nan

$$$$
CHEMBL3408794
     RDKit          3D

  0  0  0  0  0  0  0  0  0  0999 V3000
M  V30 BEGIN CTAB
M  V30 COUNTS 33 36 0 0 0
M  V30 BEGIN ATOM
M  V30 1 C -2.552872 -5.030658 3.582799 0
M  V30 2 C -1.995896 -4.029327 2.634191 0
M  V30 3 C -1.508423 -4.539052 1.425385 0
M  V30 4 C -0.987044 -3.605072 0.533737 0
M  V30 5 C -0.962073 -2.246316 0.847558 0
M  V30 6 C -0.399290 -1.278436 -0.127792 0
M  V30 7 C -0.569316 -1.615763 -1.448563 0
M  V30 8 N -0.050796 -0.725689 -2.308372 0
M  V30 9 C 0.576599 0.394111 -1.846510 0
M  V30 10 S 1.362565 1.752709 -2.774794 0
M  V30 11 C 1.866350 2.683066 -1.298729 0
M  V30 12 C 2.555120 3.899376 -1.219249 0
M  V30 13 N 2.910615 4.488936 -2.463783 0
M  V30 14 N 2.804681 4.375105 0.011465 0
M  V30 15 C 2.363538 3.627307 1.037563 0
M  V30 16 N 1.715366 2.481255 0.916413 0
M  V30 17 C 1.415649 1.918434 -0.266741 0
M  V30 18 C 0.754983 0.747411 -0.491710 0
M  V30 19 C 0.221740 -0.168473 0.384894 0
M  V30 20 C -1.451342 -1.773687 2.050141 0
M  V30 21 C -1.971128 -2.689442 2.943159 0
M  V30 22 H -2.194180 -6.054942 3.357210 0
M  V30 23 H -2.328060 -4.799143 4.641046 0
M  V30 24 H -3.664559 -5.004796 3.497692 0
M  V30 25 H -1.519053 -5.587903 1.164539 0
M  V30 26 H -0.599559 -3.967331 -0.416091 0
M  V30 27 H -1.059480 -2.490934 -1.820328 0
M  V30 28 H 2.263104 4.757973 -3.252900 0
M  V30 29 H 3.932811 4.669203 -2.592593 0
M  V30 30 H 2.542029 3.971769 2.072006 0
M  V30 31 H 0.275042 -0.043615 1.457474 0
M  V30 32 H -1.449949 -0.748554 2.325437 0
M  V30 33 H -2.356193 -2.349595 3.880553 0
M  V30 END ATOM
M  V30 BEGIN BOND
M  V30 1 1 1 2
M  V30 2 2 2 3
M  V30 3 1 3 4
M  V30 4 2 4 5
M  V30 5 1 5 6
M  V30 6 2 6 7
M  V30 7 1 7 8
M  V30 8 2 8 9
M  V30 9 1 9 10
M  V30 10 1 10 11
M  V30 11 2 11 12
M  V30 12 1 12 13
M  V30 13 1 12 14
M  V30 14 2 14 15
M  V30 15 1 15 16
M  V30 16 2 16 17
M  V30 17 1 17 18
M  V30 18 2 18 19
M  V30 19 1 5 20
M  V30 20 2 20 21
M  V30 21 1 21 2
M  V30 22 1 19 6
M  V30 23 1 18 9
M  V30 24 1 17 11
M  V30 25 1 1 22
M  V30 26 1 1 23
M  V30 27 1 1 24
M  V30 28 1 3 25
M  V30 29 1 4 26
M  V30 30 1 7 27
M  V30 31 1 13 28
M  V30 32 1 13 29
M  V30 33 1 15 30
M  V30 34 1 19 31
M  V30 35 1 20 32
M  V30 36 1 21 33
M  V30 END BOND
M  V30 END CTAB
M  END
>  <Dataset>  (639) 
ChEMBL_Kinases

>  <Ligand_Instance>  (639) 
nan

>  <PDB_ID>  (639) 
nan

>  <Standardized_SMILES>  (639) 
Cc1ccc(-c2cnc3sc4c(N)ncnc4c3c2)cc1

>  <Name>  (639) 
nan

>  <Pocket>  (639) 
nan

>  <ATP_Site>  (639) 
nan

>  <Peripheral>  (639) 
nan

>  <Num_H_Atoms_ProtBoundConf>  (639) 
nan

>  <Num_Resolved_Atoms>  (639) 
nan

>  <Num_Not_Resolved_Atoms>  (639) 
nan

$$$$
CHEMBL340874
     RDKit          3D

  0  0  0  0  0  0  0  0  0  0999 V3000
M  V30 BEGIN CTAB
M  V30 COUNTS 28 30 0 0 0
M  V30 BEGIN ATOM
M  V30 1 O -2.055312 -3.886557 0.656868 0
M  V30 2 C -0.929447 -3.382691 0.940931 0
M  V30 3 N 0.229366 -3.959135 1.564166 0
M  V30 4 C 1.222093 -2.947027 1.640689 0
M  V30 5 C 2.519055 -3.042988 2.147399 0
M  V30 6 C 3.323285 -1.906679 2.086870 0
M  V30 7 C 2.861205 -0.705330 1.540222 0
M  V30 8 C 1.562793 -0.687117 1.058309 0
M  V30 9 C 0.754706 -1.768417 1.101969 0
M  V30 10 C -0.599927 -1.997007 0.650157 0
M  V30 11 C -1.365478 -1.127289 0.041282 0
M  V30 12 C -1.045645 0.260783 -0.238118 0
M  V30 13 C -0.769245 1.019844 -1.331485 0
M  V30 14 Cl -0.675580 -0.001302 -2.748064 0
M  V30 15 C -0.596763 2.381481 -1.258700 0
M  V30 16 C -0.702229 3.040086 -0.036242 0
M  V30 17 C -0.983762 2.291173 1.098534 0
M  V30 18 C -1.159850 0.899255 1.019879 0
M  V30 19 Cl -1.502770 0.243034 2.600949 0
M  V30 20 H 0.255896 -4.952341 1.877428 0
M  V30 21 H 2.871270 -3.973129 2.567062 0
M  V30 22 H 4.339471 -2.003790 2.490812 0
M  V30 23 H 3.603206 0.094437 1.558830 0
M  V30 24 H 1.381084 0.282763 0.658842 0
M  V30 25 H -2.352675 -1.317626 -0.347129 0
M  V30 26 H -0.383032 2.851420 -2.192153 0
M  V30 27 H -0.557227 4.125696 -0.025051 0
M  V30 28 H -1.038884 2.915466 1.978353 0
M  V30 END ATOM
M  V30 BEGIN BOND
M  V30 1 2 1 2
M  V30 2 1 2 3
M  V30 3 1 3 4
M  V30 4 2 4 5
M  V30 5 1 5 6
M  V30 6 2 6 7
M  V30 7 1 7 8
M  V30 8 2 8 9
M  V30 9 1 9 10
M  V30 10 2 10 11
M  V30 11 1 11 12
M  V30 12 2 12 13
M  V30 13 1 13 14
M  V30 14 1 13 15
M  V30 15 2 15 16
M  V30 16 1 16 17
M  V30 17 2 17 18
M  V30 18 1 18 19
M  V30 19 1 10 2
M  V30 20 1 18 12
M  V30 21 1 9 4
M  V30 22 1 3 20
M  V30 23 1 5 21
M  V30 24 1 6 22
M  V30 25 1 7 23
M  V30 26 1 8 24
M  V30 27 1 11 25
M  V30 28 1 15 26
M  V30 29 1 16 27
M  V30 30 1 17 28
M  V30 END BOND
M  V30 END CTAB
M  END
>  <Dataset>  (640) 
ChEMBL_Kinases

>  <Ligand_Instance>  (640) 
nan

>  <PDB_ID>  (640) 
nan

>  <Standardized_SMILES>  (640) 
O=C1Nc2ccccc2/C1=C\c1c(Cl)cccc1Cl

>  <Name>  (640) 
nan

>  <Pocket>  (640) 
nan

>  <ATP_Site>  (640) 
nan

>  <Peripheral>  (640) 
nan

>  <Num_H_Atoms_ProtBoundConf>  (640) 
nan

>  <Num_Resolved_Atoms>  (640) 
nan

>  <Num_Not_Resolved_Atoms>  (640) 
nan

$$$$
CHEMBL3408396
     RDKit          3D

  0  0  0  0  0  0  0  0  0  0999 V3000
M  V30 BEGIN CTAB
M  V30 COUNTS 80 87 0 0 0
M  V30 BEGIN ATOM
M  V30 1 N 4.468111 -2.198252 -3.948862 0
M  V30 2 C 3.787446 -1.359274 -3.536680 0
M  V30 3 C 2.928272 -0.327637 -3.005505 0
M  V30 4 C 3.298183 0.991004 -3.292988 0
M  V30 5 C 4.472545 1.338819 -4.076338 0
M  V30 6 C 4.945332 0.817807 -5.261344 0
M  V30 7 C 6.099564 1.314767 -5.823487 0
M  V30 8 C 6.788389 2.337952 -5.201560 0
M  V30 9 C 6.350146 2.887425 -4.015660 0
M  V30 10 C 5.174923 2.370785 -3.457373 0
M  V30 11 C 2.454370 1.976798 -2.769951 0
M  V30 12 C 1.334849 1.685703 -2.022648 0
M  V30 13 C 0.486198 2.745190 -1.495165 0
M  V30 14 C -0.637820 2.487092 -0.742182 0
M  V30 15 C -1.476316 3.452773 -0.218011 0
M  V30 16 C -1.183727 4.780926 -0.454835 0
M  V30 17 C -0.069759 5.102702 -1.203144 0
M  V30 18 C 0.720380 4.086227 -1.693703 0
M  V30 19 N 1.017742 0.411951 -1.771490 0
M  V30 20 C 1.783403 -0.590025 -2.242676 0
M  V30 21 N 1.575730 -1.982125 -2.056909 0
M  V30 22 C 0.428239 -2.391971 -1.738609 0
M  V30 23 S -1.057194 -1.340184 -1.480736 0
M  V30 24 C -1.501432 -2.322905 -0.011739 0
M  V30 25 C -1.948064 -1.788990 1.073857 0
M  V30 26 S -2.311730 -0.125861 1.610437 0
M  V30 27 C -2.803688 -0.698537 3.260809 0
M  V30 28 C -3.271370 0.240751 4.278526 0
M  V30 29 O -3.572151 -0.327301 5.361677 0
M  V30 30 N -3.368935 1.624410 4.057534 0
M  V30 31 C -3.831962 2.486458 5.089875 0
M  V30 32 C -5.139052 2.856104 5.328178 0
M  V30 33 C -5.444534 3.708192 6.378570 0
M  V30 34 C -4.426372 4.163300 7.158160 0
M  V30 35 C -3.106416 3.832309 6.972352 0
M  V30 36 C -2.820270 2.974845 5.911509 0
M  V30 37 N -2.671235 -1.950700 3.334270 0
M  V30 38 N -2.208497 -2.609688 2.197505 0
M  V30 39 C -2.096955 -4.006446 2.557463 0
M  V30 40 C -3.194007 -4.853781 2.782912 0
M  V30 41 C -3.047892 -6.152490 3.174945 0
M  V30 42 C -1.784003 -6.662069 3.359582 0
M  V30 43 C -0.647970 -5.904026 3.161909 0
M  V30 44 C -0.839277 -4.603245 2.767874 0
M  V30 45 C -1.235261 -3.658237 -0.502746 0
M  V30 46 O -1.923931 -4.617242 -0.083979 0
M  V30 47 N -0.155105 -3.682985 -1.462092 0
M  V30 48 C 0.365755 -4.859702 -2.120298 0
M  V30 49 C 1.378782 -4.835809 -3.038301 0
M  V30 50 C 1.876576 -5.955767 -3.660630 0
M  V30 51 C 1.367519 -7.184955 -3.383752 0
M  V30 52 C 0.344704 -7.275730 -2.466991 0
M  V30 53 C -0.120321 -6.124743 -1.869783 0
M  V30 54 H 4.313725 0.026674 -5.638329 0
M  V30 55 H 6.413066 0.858245 -6.755197 0
M  V30 56 H 7.687769 2.716540 -5.650589 0
M  V30 57 H 6.928504 3.680177 -3.580137 0
M  V30 58 H 4.919274 2.877496 -2.520307 0
M  V30 59 H 2.760790 2.975908 -3.005283 0
M  V30 60 H -0.935072 1.481742 -0.512475 0
M  V30 61 H -2.351612 3.217333 0.369770 0
M  V30 62 H -1.802928 5.570654 -0.069762 0
M  V30 63 H 0.138120 6.150342 -1.374755 0
M  V30 64 H 1.565407 4.420116 -2.264120 0
M  V30 65 H -3.093885 2.012203 3.116027 0
M  V30 66 H -5.872297 2.438280 4.650082 0
M  V30 67 H -6.491975 3.974718 6.530108 0
M  V30 68 H -4.754968 4.832815 7.967097 0
M  V30 69 H -2.366379 4.241556 7.641160 0
M  V30 70 H -1.746498 2.750970 5.820049 0
M  V30 71 H -4.173991 -4.395046 2.620707 0
M  V30 72 H -3.964445 -6.736707 3.325496 0
M  V30 73 H -1.671196 -7.706601 3.675007 0
M  V30 74 H 0.353420 -6.283472 3.300986 0
M  V30 75 H 0.057779 -3.998215 2.609460 0
M  V30 76 H 1.829473 -3.916265 -3.313706 0
M  V30 77 H 2.673852 -5.880256 -4.374570 0
M  V30 78 H 1.759231 -8.057106 -3.872044 0
M  V30 79 H -0.044486 -8.258863 -2.261569 0
M  V30 80 H -0.911169 -6.305398 -1.177067 0
M  V30 END ATOM
M  V30 BEGIN BOND
M  V30 1 3 1 2
M  V30 2 1 2 3
M  V30 3 2 3 4
M  V30 4 1 4 5
M  V30 5 2 5 6
M  V30 6 1 6 7
M  V30 7 2 7 8
M  V30 8 1 8 9
M  V30 9 2 9 10
M  V30 10 1 4 11
M  V30 11 2 11 12
M  V30 12 1 12 13
M  V30 13 2 13 14
M  V30 14 1 14 15
M  V30 15 2 15 16
M  V30 16 1 16 17
M  V30 17 2 17 18
M  V30 18 1 12 19
M  V30 19 2 19 20
M  V30 20 1 20 21
M  V30 21 2 21 22
M  V30 22 1 22 23
M  V30 23 1 23 24
M  V30 24 2 24 25
M  V30 25 1 25 26
M  V30 26 1 26 27
M  V30 27 1 27 28
M  V30 28 2 28 29
M  V30 29 1 28 30
M  V30 30 1 30 31
M  V30 31 2 31 32
M  V30 32 1 32 33
M  V30 33 2 33 34
M  V30 34 1 34 35
M  V30 35 2 35 36
M  V30 36 2 27 37
M  V30 37 1 37 38
M  V30 38 1 38 39
M  V30 39 2 39 40
M  V30 40 1 40 41
M  V30 41 2 41 42
M  V30 42 1 42 43
M  V30 43 2 43 44
M  V30 44 1 24 45
M  V30 45 2 45 46
M  V30 46 1 45 47
M  V30 47 1 47 48
M  V30 48 2 48 49
M  V30 49 1 49 50
M  V30 50 2 50 51
M  V30 51 1 51 52
M  V30 52 2 52 53
M  V30 53 1 20 3
M  V30 54 1 47 22
M  V30 55 1 53 48
M  V30 56 1 10 5
M  V30 57 1 18 13
M  V30 58 1 38 25
M  V30 59 1 44 39
M  V30 60 1 36 31
M  V30 61 1 6 54
M  V30 62 1 7 55
M  V30 63 1 8 56
M  V30 64 1 9 57
M  V30 65 1 10 58
M  V30 66 1 11 59
M  V30 67 1 14 60
M  V30 68 1 15 61
M  V30 69 1 16 62
M  V30 70 1 17 63
M  V30 71 1 18 64
M  V30 72 1 30 65
M  V30 73 1 32 66
M  V30 74 1 33 67
M  V30 75 1 34 68
M  V30 76 1 35 69
M  V30 77 1 36 70
M  V30 78 1 40 71
M  V30 79 1 41 72
M  V30 80 1 42 73
M  V30 81 1 43 74
M  V30 82 1 44 75
M  V30 83 1 49 76
M  V30 84 1 50 77
M  V30 85 1 51 78
M  V30 86 1 52 79
M  V30 87 1 53 80
M  V30 END BOND
M  V30 END CTAB
M  END
>  <Dataset>  (641) 
ChEMBL_Kinases

>  <Ligand_Instance>  (641) 
nan

>  <PDB_ID>  (641) 
nan

>  <Standardized_SMILES>  (641) 
N#Cc1c(-c2ccccc2)cc(-c2ccccc2)nc1/N=C1\S/C(=C2\SC(C(=O)Nc3ccccc3)=NN2c2ccccc2)C(=O)N1c1ccccc1

>  <Name>  (641) 
nan

>  <Pocket>  (641) 
nan

>  <ATP_Site>  (641) 
nan

>  <Peripheral>  (641) 
nan

>  <Num_H_Atoms_ProtBoundConf>  (641) 
nan

>  <Num_Resolved_Atoms>  (641) 
nan

>  <Num_Not_Resolved_Atoms>  (641) 
nan

$$$$
CHEMBL3408395
     RDKit          3D

  0  0  0  0  0  0  0  0  0  0999 V3000
M  V30 BEGIN CTAB
M  V30 COUNTS 75 81 0 0 0
M  V30 BEGIN ATOM
M  V30 1 C 3.359676 -2.753886 7.173579 0
M  V30 2 C 4.158569 -1.580907 6.674197 0
M  V30 3 O 4.253816 -1.548223 5.272378 0
M  V30 4 C 3.220940 -1.450838 4.376922 0
M  V30 5 O 2.660994 -1.434935 5.488299 0
M  V30 6 C 3.607170 -1.448730 3.018550 0
M  V30 7 N 4.309073 -1.472939 1.973287 0
M  V30 8 N 3.631735 -1.420198 0.795496 0
M  V30 9 C 4.577661 -1.397465 -0.268135 0
M  V30 10 C 5.605500 -2.330336 -0.492268 0
M  V30 11 C 6.524387 -2.196335 -1.516219 0
M  V30 12 C 6.462533 -1.125362 -2.366996 0
M  V30 13 C 5.482321 -0.154831 -2.222805 0
M  V30 14 C 4.600382 -0.338728 -1.192872 0
M  V30 15 C 2.223513 -1.360504 0.832668 0
M  V30 16 C 1.473568 -1.624485 -0.175436 0
M  V30 17 S -0.331574 -1.518257 -0.066965 0
M  V30 18 C -0.466946 -1.120100 -1.842669 0
M  V30 19 N -1.444969 -0.383885 -2.140241 0
M  V30 20 C -2.339771 0.072607 -1.132010 0
M  V30 21 N -3.190189 -0.840785 -0.571965 0
M  V30 22 C -4.065391 -0.524738 0.373837 0
M  V30 23 C -4.933864 -1.563493 0.911454 0
M  V30 24 C -4.780279 -2.833499 0.386490 0
M  V30 25 C -5.578754 -3.881857 0.847723 0
M  V30 26 C -6.526352 -3.665443 1.827432 0
M  V30 27 C -6.654619 -2.386984 2.331186 0
M  V30 28 C -5.880307 -1.318667 1.899445 0
M  V30 29 C -4.091599 0.793418 0.786398 0
M  V30 30 C -3.251982 1.762406 0.252791 0
M  V30 31 C -3.359108 3.128929 0.754793 0
M  V30 32 C -3.391055 4.230965 -0.085196 0
M  V30 33 C -3.496299 5.527426 0.385443 0
M  V30 34 C -3.574872 5.765048 1.747564 0
M  V30 35 C -3.544675 4.680150 2.595140 0
M  V30 36 C -3.438838 3.380585 2.121998 0
M  V30 37 C -2.364045 1.385622 -0.722376 0
M  V30 38 C -1.465011 2.369258 -1.305896 0
M  V30 39 N -0.741270 3.141488 -1.754565 0
M  V30 40 N 0.662937 -1.812997 -2.425316 0
M  V30 41 C 0.564296 -2.110211 -3.811301 0
M  V30 42 C -0.503149 -1.837162 -4.626935 0
M  V30 43 C -0.588352 -2.124146 -5.963718 0
M  V30 44 C 0.470182 -2.745216 -6.597547 0
M  V30 45 C 1.577380 -3.048997 -5.836526 0
M  V30 46 C 1.588786 -2.729336 -4.498905 0
M  V30 47 C 1.722138 -2.093699 -1.522819 0
M  V30 48 O 2.768296 -2.691918 -1.852956 0
M  V30 49 S 1.898084 -0.988674 2.544567 0
M  V30 50 H 2.386094 -2.418838 7.576883 0
M  V30 51 H 3.279025 -3.502216 6.354640 0
M  V30 52 H 3.904079 -3.192076 8.037598 0
M  V30 53 H 3.803552 -0.615684 7.107694 0
M  V30 54 H 5.197023 -1.689385 7.050234 0
M  V30 55 H 5.616822 -3.164090 0.207047 0
M  V30 56 H 7.273026 -2.954488 -1.615586 0
M  V30 57 H 7.165127 -0.985621 -3.179107 0
M  V30 58 H 5.352256 0.725884 -2.845713 0
M  V30 59 H 3.803040 0.403348 -1.037845 0
M  V30 60 H -4.069428 -3.134723 -0.385837 0
M  V30 61 H -5.509932 -4.896614 0.477071 0
M  V30 62 H -7.150140 -4.485186 2.184627 0
M  V30 63 H -7.414839 -2.227727 3.112419 0
M  V30 64 H -6.002140 -0.347549 2.302169 0
M  V30 65 H -4.783458 1.091854 1.546233 0
M  V30 66 H -3.328886 4.046728 -1.148680 0
M  V30 67 H -3.519174 6.337466 -0.306835 0
M  V30 68 H -3.656179 6.796167 2.049272 0
M  V30 69 H -3.610829 4.942414 3.639420 0
M  V30 70 H -3.419903 2.571090 2.825693 0
M  V30 71 H -1.360664 -1.361517 -4.216075 0
M  V30 72 H -1.470340 -1.873552 -6.536832 0
M  V30 73 H 0.388261 -2.965789 -7.645979 0
M  V30 74 H 2.364174 -3.528116 -6.381354 0
M  V30 75 H 2.518881 -3.032027 -4.049309 0
M  V30 END ATOM
M  V30 BEGIN BOND
M  V30 1 1 1 2
M  V30 2 1 2 3
M  V30 3 1 3 4
M  V30 4 2 4 5
M  V30 5 1 4 6
M  V30 6 2 6 7
M  V30 7 1 7 8
M  V30 8 1 8 9
M  V30 9 2 9 10
M  V30 10 1 10 11
M  V30 11 2 11 12
M  V30 12 1 12 13
M  V30 13 2 13 14
M  V30 14 1 8 15
M  V30 15 2 15 16
M  V30 16 1 16 17
M  V30 17 1 17 18
M  V30 18 2 18 19
M  V30 19 1 19 20
M  V30 20 2 20 21
M  V30 21 1 21 22
M  V30 22 1 22 23
M  V30 23 2 23 24
M  V30 24 1 24 25
M  V30 25 2 25 26
M  V30 26 1 26 27
M  V30 27 2 27 28
M  V30 28 2 22 29
M  V30 29 1 29 30
M  V30 30 1 30 31
M  V30 31 2 31 32
M  V30 32 1 32 33
M  V30 33 2 33 34
M  V30 34 1 34 35
M  V30 35 2 35 36
M  V30 36 2 30 37
M  V30 37 1 37 38
M  V30 38 3 38 39
M  V30 39 1 18 40
M  V30 40 1 40 41
M  V30 41 2 41 42
M  V30 42 1 42 43
M  V30 43 2 43 44
M  V30 44 1 44 45
M  V30 45 2 45 46
M  V30 46 1 40 47
M  V30 47 2 47 48
M  V30 48 1 15 49
M  V30 49 1 49 6
M  V30 50 1 14 9
M  V30 51 1 47 16
M  V30 52 1 37 20
M  V30 53 1 46 41
M  V30 54 1 28 23
M  V30 55 1 36 31
M  V30 56 1 1 50
M  V30 57 1 1 51
M  V30 58 1 1 52
M  V30 59 1 2 53
M  V30 60 1 2 54
M  V30 61 1 10 55
M  V30 62 1 11 56
M  V30 63 1 12 57
M  V30 64 1 13 58
M  V30 65 1 14 59
M  V30 66 1 24 60
M  V30 67 1 25 61
M  V30 68 1 26 62
M  V30 69 1 27 63
M  V30 70 1 28 64
M  V30 71 1 29 65
M  V30 72 1 32 66
M  V30 73 1 33 67
M  V30 74 1 34 68
M  V30 75 1 35 69
M  V30 76 1 36 70
M  V30 77 1 42 71
M  V30 78 1 43 72
M  V30 79 1 44 73
M  V30 80 1 45 74
M  V30 81 1 46 75
M  V30 END BOND
M  V30 END CTAB
M  END
>  <Dataset>  (642) 
ChEMBL_Kinases

>  <Ligand_Instance>  (642) 
nan

>  <PDB_ID>  (642) 
nan

>  <Standardized_SMILES>  (642) 
CCOC(=O)C1=NN(c2ccccc2)/C(=C2/S/C(=N\c3nc(-c4ccccc4)cc(-c4ccccc4)c3C#N)N(c3ccccc3)C2=O)S1

>  <Name>  (642) 
nan

>  <Pocket>  (642) 
nan

>  <ATP_Site>  (642) 
nan

>  <Peripheral>  (642) 
nan

>  <Num_H_Atoms_ProtBoundConf>  (642) 
nan

>  <Num_Resolved_Atoms>  (642) 
nan

>  <Num_Not_Resolved_Atoms>  (642) 
nan

$$$$
CHEMBL3408394
     RDKit          3D

  0  0  0  0  0  0  0  0  0  0999 V3000
M  V30 BEGIN CTAB
M  V30 COUNTS 71 77 0 0 0
M  V30 BEGIN ATOM
M  V30 1 C 6.742418 2.258939 2.889519 0
M  V30 2 C 5.286623 2.438051 2.642488 0
M  V30 3 O 4.791173 3.273443 3.405361 0
M  V30 4 C 4.580560 1.684830 1.603056 0
M  V30 5 N 4.972885 0.809215 0.771582 0
M  V30 6 N 4.001813 0.305294 -0.092569 0
M  V30 7 C 4.631130 -0.702790 -0.909295 0
M  V30 8 C 4.219129 -2.025614 -0.778531 0
M  V30 9 C 4.878722 -2.926969 -1.585908 0
M  V30 10 C 5.881822 -2.670459 -2.492064 0
M  V30 11 C 6.278375 -1.330875 -2.604513 0
M  V30 12 C 5.652315 -0.386127 -1.820606 0
M  V30 13 C 2.689733 0.821288 0.031662 0
M  V30 14 C 1.778006 0.524812 -0.811762 0
M  V30 15 S 0.076709 1.158749 -0.672820 0
M  V30 16 C -0.556604 -0.510018 -1.121336 0
M  V30 17 N -1.471952 -1.333608 -0.746808 0
M  V30 18 C -2.357660 -1.042318 0.321289 0
M  V30 19 N -3.697607 -1.111688 0.051635 0
M  V30 20 C -4.635941 -0.859648 0.995734 0
M  V30 21 C -6.056615 -0.979193 0.597480 0
M  V30 22 C -6.296499 -1.342522 -0.715288 0
M  V30 23 C -7.629604 -1.461429 -1.103704 0
M  V30 24 C -8.690071 -1.237562 -0.247132 0
M  V30 25 C -8.413028 -0.876068 1.061550 0
M  V30 26 C -7.080463 -0.745331 1.486467 0
M  V30 27 C -4.231100 -0.521482 2.268525 0
M  V30 28 C -2.892618 -0.432385 2.605842 0
M  V30 29 C -2.483291 -0.068331 3.954137 0
M  V30 30 C -3.218629 1.013242 4.444157 0
M  V30 31 C -2.940016 1.482134 5.729270 0
M  V30 32 C -1.951947 0.877136 6.488132 0
M  V30 33 C -1.231615 -0.190296 5.994673 0
M  V30 34 C -1.508482 -0.660436 4.713313 0
M  V30 35 C -1.986450 -0.701255 1.602297 0
M  V30 36 C -0.578843 -0.641649 1.909165 0
M  V30 37 N 0.571820 -0.574476 2.156484 0
M  V30 38 N 0.373850 -0.828996 -2.180240 0
M  V30 39 C -0.006906 -1.715756 -3.264035 0
M  V30 40 C 0.906553 -2.319404 -4.094247 0
M  V30 41 C 0.599001 -3.158138 -5.141859 0
M  V30 42 C -0.738211 -3.409382 -5.372893 0
M  V30 43 C -1.742671 -2.837845 -4.580631 0
M  V30 44 C -1.283815 -2.022382 -3.572517 0
M  V30 45 C 1.660944 -0.253103 -2.008098 0
M  V30 46 O 2.650065 -0.361124 -2.781388 0
M  V30 47 S 2.780748 1.905962 1.451749 0
M  V30 48 H 7.332794 3.182021 2.675926 0
M  V30 49 H 7.155203 1.456851 2.217120 0
M  V30 50 H 6.931161 1.943084 3.943473 0
M  V30 51 H 3.441009 -2.326762 -0.098124 0
M  V30 52 H 4.557706 -3.967169 -1.485992 0
M  V30 53 H 6.322194 -3.469375 -3.074334 0
M  V30 54 H 7.050854 -1.084722 -3.293835 0
M  V30 55 H 5.964365 0.659899 -1.911162 0
M  V30 56 H -5.500495 -1.536921 -1.452547 0
M  V30 57 H -7.827201 -1.750119 -2.147477 0
M  V30 58 H -9.704454 -1.356670 -0.640042 0
M  V30 59 H -9.251778 -0.711270 1.701534 0
M  V30 60 H -6.893594 -0.464253 2.510977 0
M  V30 61 H -4.954810 -0.316928 3.027349 0
M  V30 62 H -3.998253 1.547463 3.935186 0
M  V30 63 H -3.399168 2.291655 6.256131 0
M  V30 64 H -1.671225 1.165178 7.478074 0
M  V30 65 H -0.452172 -0.721947 6.501878 0
M  V30 66 H -0.992844 -1.487775 4.268067 0
M  V30 67 H 1.961302 -2.172266 -3.968949 0
M  V30 68 H 1.314314 -3.634661 -5.791796 0
M  V30 69 H -1.160564 -4.078702 -6.137028 0
M  V30 70 H -2.804765 -3.022409 -4.745168 0
M  V30 71 H -2.106059 -1.588068 -2.976985 0
M  V30 END ATOM
M  V30 BEGIN BOND
M  V30 1 1 1 2
M  V30 2 2 2 3
M  V30 3 1 2 4
M  V30 4 2 4 5
M  V30 5 1 5 6
M  V30 6 1 6 7
M  V30 7 2 7 8
M  V30 8 1 8 9
M  V30 9 2 9 10
M  V30 10 1 10 11
M  V30 11 2 11 12
M  V30 12 1 6 13
M  V30 13 2 13 14
M  V30 14 1 14 15
M  V30 15 1 15 16
M  V30 16 2 16 17
M  V30 17 1 17 18
M  V30 18 2 18 19
M  V30 19 1 19 20
M  V30 20 1 20 21
M  V30 21 2 21 22
M  V30 22 1 22 23
M  V30 23 2 23 24
M  V30 24 1 24 25
M  V30 25 2 25 26
M  V30 26 2 20 27
M  V30 27 1 27 28
M  V30 28 1 28 29
M  V30 29 2 29 30
M  V30 30 1 30 31
M  V30 31 2 31 32
M  V30 32 1 32 33
M  V30 33 2 33 34
M  V30 34 2 28 35
M  V30 35 1 35 36
M  V30 36 3 36 37
M  V30 37 1 16 38
M  V30 38 1 38 39
M  V30 39 2 39 40
M  V30 40 1 40 41
M  V30 41 2 41 42
M  V30 42 1 42 43
M  V30 43 2 43 44
M  V30 44 1 38 45
M  V30 45 2 45 46
M  V30 46 1 13 47
M  V30 47 1 47 4
M  V30 48 1 12 7
M  V30 49 1 45 14
M  V30 50 1 35 18
M  V30 51 1 44 39
M  V30 52 1 26 21
M  V30 53 1 34 29
M  V30 54 1 1 48
M  V30 55 1 1 49
M  V30 56 1 1 50
M  V30 57 1 8 51
M  V30 58 1 9 52
M  V30 59 1 10 53
M  V30 60 1 11 54
M  V30 61 1 12 55
M  V30 62 1 22 56
M  V30 63 1 23 57
M  V30 64 1 24 58
M  V30 65 1 25 59
M  V30 66 1 26 60
M  V30 67 1 27 61
M  V30 68 1 30 62
M  V30 69 1 31 63
M  V30 70 1 32 64
M  V30 71 1 33 65
M  V30 72 1 34 66
M  V30 73 1 40 67
M  V30 74 1 41 68
M  V30 75 1 42 69
M  V30 76 1 43 70
M  V30 77 1 44 71
M  V30 END BOND
M  V30 END CTAB
M  END
>  <Dataset>  (643) 
ChEMBL_Kinases

>  <Ligand_Instance>  (643) 
nan

>  <PDB_ID>  (643) 
nan

>  <Standardized_SMILES>  (643) 
CC(=O)C1=NN(c2ccccc2)/C(=C2/S/C(=N\c3nc(-c4ccccc4)cc(-c4ccccc4)c3C#N)N(c3ccccc3)C2=O)S1

>  <Name>  (643) 
nan

>  <Pocket>  (643) 
nan

>  <ATP_Site>  (643) 
nan

>  <Peripheral>  (643) 
nan

>  <Num_H_Atoms_ProtBoundConf>  (643) 
nan

>  <Num_Resolved_Atoms>  (643) 
nan

>  <Num_Not_Resolved_Atoms>  (643) 
nan

$$$$
CHEMBL3401126
     RDKit          3D

  0  0  0  0  0  0  0  0  0  0999 V3000
M  V30 BEGIN CTAB
M  V30 COUNTS 42 44 0 0 0
M  V30 BEGIN ATOM
M  V30 1 C 0.075832 -3.793020 -0.448679 0
M  V30 2 C 1.362728 -3.560363 0.349889 0 CFG=2
M  V30 3 O 1.303046 -4.391757 1.423900 0
M  V30 4 C 0.529191 -3.844814 2.438694 0
M  V30 5 C 1.244130 -2.536202 2.825378 0
M  V30 6 N 0.972199 -1.607395 1.860338 0
M  V30 7 C 0.281833 -0.380226 1.736846 0
M  V30 8 N 0.327392 0.311469 0.581287 0
M  V30 9 C -0.269919 1.466276 0.316422 0
M  V30 10 C -0.166813 2.155238 -0.961569 0
M  V30 11 C -0.813620 3.346274 -1.201358 0
M  V30 12 C -0.687148 3.969113 -2.430455 0
M  V30 13 N 0.048010 3.474478 -3.438718 0
M  V30 14 C 0.710044 2.304131 -3.265704 0
M  V30 15 C 0.564348 1.712712 -2.037104 0
M  V30 16 F 1.254378 0.537554 -1.915319 0
M  V30 17 C -1.020909 2.032520 1.318070 0
M  V30 18 C -1.103193 1.368278 2.522369 0
M  V30 19 O -1.792571 1.862495 3.480737 0
M  V30 20 N -0.464227 0.175942 2.740755 0
M  V30 21 C -0.582217 -0.481597 3.996620 0
M  V30 22 C 1.600681 -2.113400 0.615912 0 CFG=1
M  V30 23 C 3.083275 -1.818192 0.687833 0
M  V30 24 H -0.781721 -3.243746 -0.018161 0
M  V30 25 H -0.114274 -4.886628 -0.398588 0
M  V30 26 H 0.286050 -3.536394 -1.511557 0
M  V30 27 H 2.181153 -3.903537 -0.317711 0
M  V30 28 H 0.415152 -4.524991 3.281499 0
M  V30 29 H -0.446519 -3.553129 2.002525 0
M  V30 30 H 2.347255 -2.819124 2.830840 0
M  V30 31 H 1.036436 -2.438594 3.882961 0
M  V30 32 H -1.422497 3.838218 -0.488627 0
M  V30 33 H -1.192703 4.912392 -2.637238 0
M  V30 34 H 1.300846 1.896819 -4.062172 0
M  V30 35 H -1.569896 2.958846 1.275362 0
M  V30 36 H -1.400481 0.080848 4.568047 0
M  V30 37 H 0.235725 -0.400179 4.705329 0
M  V30 38 H -1.091033 -1.477993 3.933747 0
M  V30 39 H 1.211035 -1.578821 -0.284306 0
M  V30 40 H 3.423112 -1.207451 -0.178023 0
M  V30 41 H 3.361095 -1.320315 1.642225 0
M  V30 42 H 3.629687 -2.778280 0.609414 0
M  V30 END ATOM
M  V30 BEGIN BOND
M  V30 1 1 1 2
M  V30 2 1 2 3
M  V30 3 1 3 4
M  V30 4 1 4 5
M  V30 5 1 5 6
M  V30 6 1 6 7
M  V30 7 2 7 8
M  V30 8 1 8 9
M  V30 9 1 9 10
M  V30 10 2 10 11
M  V30 11 1 11 12
M  V30 12 2 12 13
M  V30 13 1 13 14
M  V30 14 2 14 15
M  V30 15 1 15 16
M  V30 16 2 9 17
M  V30 17 1 17 18
M  V30 18 2 18 19
M  V30 19 1 18 20
M  V30 20 1 20 21
M  V30 21 1 6 22
M  V30 22 1 22 23
M  V30 23 1 22 2
M  V30 24 1 20 7
M  V30 25 1 15 10
M  V30 26 1 1 24
M  V30 27 1 1 25
M  V30 28 1 1 26
M  V30 29 1 2 27 CFG=3
M  V30 30 1 4 28
M  V30 31 1 4 29
M  V30 32 1 5 30
M  V30 33 1 5 31
M  V30 34 1 11 32
M  V30 35 1 12 33
M  V30 36 1 14 34
M  V30 37 1 17 35
M  V30 38 1 21 36
M  V30 39 1 21 37
M  V30 40 1 21 38
M  V30 41 1 22 39 CFG=3
M  V30 42 1 23 40
M  V30 43 1 23 41
M  V30 44 1 23 42
M  V30 END BOND
M  V30 END CTAB
M  END
>  <Dataset>  (644) 
ChEMBL_Kinases

>  <Ligand_Instance>  (644) 
nan

>  <PDB_ID>  (644) 
nan

>  <Standardized_SMILES>  (644) 
C[C@@H]1OCCN(c2nc(-c3ccncc3F)cc(=O)n2C)[C@H]1C

>  <Name>  (644) 
nan

>  <Pocket>  (644) 
nan

>  <ATP_Site>  (644) 
nan

>  <Peripheral>  (644) 
nan

>  <Num_H_Atoms_ProtBoundConf>  (644) 
nan

>  <Num_Resolved_Atoms>  (644) 
nan

>  <Num_Not_Resolved_Atoms>  (644) 
nan

$$$$
CHEMBL340803
     RDKit          3D

  0  0  0  0  0  0  0  0  0  0999 V3000
M  V30 BEGIN CTAB
M  V30 COUNTS 28 29 0 0 0
M  V30 BEGIN ATOM
M  V30 1 C -1.220313 -3.342365 4.146040 0
M  V30 2 C 0.136504 -2.942955 3.552738 0
M  V30 3 O -0.036362 -2.055409 2.507432 0
M  V30 4 C 0.918654 -1.498832 1.755991 0
M  V30 5 O 1.509081 -2.229394 2.575042 0
M  V30 6 C 1.964873 -0.920131 0.969851 0
M  V30 7 C 3.392615 -1.168556 1.137066 0
M  V30 8 N 4.518044 -1.377578 1.284675 0
M  V30 9 C 1.662394 -0.080483 -0.005638 0
M  V30 10 C 2.577177 0.606147 -0.908773 0
M  V30 11 O 3.817233 0.435022 -0.816853 0
M  V30 12 N 1.878661 1.433545 -1.833712 0
M  V30 13 C 0.509017 1.280542 -1.526718 0
M  V30 14 C -0.590253 1.865092 -2.125245 0
M  V30 15 C -1.884923 1.594939 -1.685131 0
M  V30 16 C -2.034658 0.708478 -0.612696 0
M  V30 17 C -0.912901 0.161900 -0.061568 0
M  V30 18 C 0.372499 0.409647 -0.474079 0
M  V30 19 H -1.127267 -3.459558 5.244236 0
M  V30 20 H -1.935490 -2.559167 3.844674 0
M  V30 21 H -1.580352 -4.284453 3.683721 0
M  V30 22 H 0.746953 -2.530169 4.404078 0
M  V30 23 H 0.594392 -3.901723 3.229021 0
M  V30 24 H 2.323595 2.020311 -2.574942 0
M  V30 25 H -0.502202 2.543418 -2.943473 0
M  V30 26 H -2.759645 2.040725 -2.138277 0
M  V30 27 H -3.032051 0.501373 -0.274847 0
M  V30 28 H -1.099673 -0.503352 0.749996 0
M  V30 END ATOM
M  V30 BEGIN BOND
M  V30 1 1 1 2
M  V30 2 1 2 3
M  V30 3 1 3 4
M  V30 4 2 4 5
M  V30 5 1 4 6
M  V30 6 1 6 7
M  V30 7 3 7 8
M  V30 8 2 6 9
M  V30 9 1 9 10
M  V30 10 2 10 11
M  V30 11 1 10 12
M  V30 12 1 12 13
M  V30 13 2 13 14
M  V30 14 1 14 15
M  V30 15 2 15 16
M  V30 16 1 16 17
M  V30 17 2 17 18
M  V30 18 1 18 9
M  V30 19 1 18 13
M  V30 20 1 1 19
M  V30 21 1 1 20
M  V30 22 1 1 21
M  V30 23 1 2 22
M  V30 24 1 2 23
M  V30 25 1 12 24
M  V30 26 1 14 25
M  V30 27 1 15 26
M  V30 28 1 16 27
M  V30 29 1 17 28
M  V30 END BOND
M  V30 END CTAB
M  END
>  <Dataset>  (645) 
ChEMBL_Kinases

>  <Ligand_Instance>  (645) 
nan

>  <PDB_ID>  (645) 
nan

>  <Standardized_SMILES>  (645) 
CCOC(=O)/C(C#N)=C1/C(=O)Nc2ccccc21

>  <Name>  (645) 
nan

>  <Pocket>  (645) 
nan

>  <ATP_Site>  (645) 
nan

>  <Peripheral>  (645) 
nan

>  <Num_H_Atoms_ProtBoundConf>  (645) 
nan

>  <Num_Resolved_Atoms>  (645) 
nan

>  <Num_Not_Resolved_Atoms>  (645) 
nan

$$$$
CHEMBL340813
     RDKit          3D

  0  0  0  0  0  0  0  0  0  0999 V3000
M  V30 BEGIN CTAB
M  V30 COUNTS 46 49 0 0 0
M  V30 BEGIN ATOM
M  V30 1 O -0.903533 -7.698953 3.658625 0
M  V30 2 C -0.666496 -6.478676 3.043846 0
M  V30 3 C 0.555269 -5.873688 3.232733 0
M  V30 4 C 0.857335 -4.665952 2.654425 0
M  V30 5 C -0.049298 -3.975688 1.841371 0
M  V30 6 N 0.268544 -2.728391 1.247001 0
M  V30 7 C -0.511989 -1.891664 0.402065 0
M  V30 8 N 0.027777 -0.762755 -0.021464 0
M  V30 9 C -0.625972 0.084050 -0.815462 0
M  V30 10 O -0.284590 1.254288 -1.354189 0
M  V30 11 C 0.767224 2.111036 -1.383044 0
M  V30 12 C 1.224926 2.730108 -0.083662 0
M  V30 13 C 2.385171 3.639529 -0.453611 0
M  V30 14 C 2.961147 4.339409 0.745275 0
M  V30 15 C 2.318682 3.812663 2.005710 0
M  V30 16 C 2.524716 2.316323 2.017977 0
M  V30 17 C 1.609774 1.730169 0.957482 0
M  V30 18 C -1.934562 -0.244429 -1.210332 0
M  V30 19 N -2.931025 0.293849 -1.976416 0
M  V30 20 C -3.995436 -0.523558 -1.972819 0
M  V30 21 N -3.774120 -1.605740 -1.234433 0
M  V30 22 C -2.525146 -1.434421 -0.773606 0
M  V30 23 N -1.758576 -2.195042 0.020280 0
M  V30 24 C -1.251827 -4.628847 1.689537 0
M  V30 25 C -1.590089 -5.839022 2.253112 0
M  V30 26 H -1.823315 -7.889405 4.081123 0
M  V30 27 H 1.316709 -6.332287 3.844022 0
M  V30 28 H 1.849494 -4.225294 2.837700 0
M  V30 29 H 1.243108 -2.406380 1.494329 0
M  V30 30 H 1.665107 1.518015 -1.769870 0
M  V30 31 H 0.683029 2.916295 -2.161749 0
M  V30 32 H 0.394804 3.382667 0.253461 0
M  V30 33 H 3.103955 3.053173 -1.040110 0
M  V30 34 H 1.963585 4.418076 -1.123290 0
M  V30 35 H 2.880812 5.440550 0.666201 0
M  V30 36 H 4.045255 4.078053 0.802816 0
M  V30 37 H 2.800715 4.231327 2.913378 0
M  V30 38 H 1.228758 4.006992 1.991238 0
M  V30 39 H 2.264507 1.955567 3.032858 0
M  V30 40 H 3.587047 2.050892 1.820086 0
M  V30 41 H 0.698205 1.433537 1.508687 0
M  V30 42 H 2.151995 0.859241 0.553193 0
M  V30 43 H -4.921744 -0.321932 -2.508609 0
M  V30 44 H -4.360165 -2.438000 -1.006836 0
M  V30 45 H -2.037556 -4.217828 1.095529 0
M  V30 46 H -2.543919 -6.324324 2.113343 0
M  V30 END ATOM
M  V30 BEGIN BOND
M  V30 1 1 1 2
M  V30 2 2 2 3
M  V30 3 1 3 4
M  V30 4 2 4 5
M  V30 5 1 5 6
M  V30 6 1 6 7
M  V30 7 2 7 8
M  V30 8 1 8 9
M  V30 9 1 9 10
M  V30 10 1 10 11
M  V30 11 1 11 12
M  V30 12 1 12 13
M  V30 13 1 13 14
M  V30 14 1 14 15
M  V30 15 1 15 16
M  V30 16 1 16 17
M  V30 17 2 9 18
M  V30 18 1 18 19
M  V30 19 2 19 20
M  V30 20 1 20 21
M  V30 21 1 21 22
M  V30 22 2 22 23
M  V30 23 1 5 24
M  V30 24 2 24 25
M  V30 25 1 25 2
M  V30 26 1 23 7
M  V30 27 1 17 12
M  V30 28 1 22 18
M  V30 29 1 1 26
M  V30 30 1 3 27
M  V30 31 1 4 28
M  V30 32 1 6 29
M  V30 33 1 11 30
M  V30 34 1 11 31
M  V30 35 1 12 32
M  V30 36 1 13 33
M  V30 37 1 13 34
M  V30 38 1 14 35
M  V30 39 1 14 36
M  V30 40 1 15 37
M  V30 41 1 15 38
M  V30 42 1 16 39
M  V30 43 1 16 40
M  V30 44 1 17 41
M  V30 45 1 17 42
M  V30 46 1 20 43
M  V30 47 1 21 44
M  V30 48 1 24 45
M  V30 49 1 25 46
M  V30 END BOND
M  V30 END CTAB
M  END
>  <Dataset>  (646) 
ChEMBL_Kinases

>  <Ligand_Instance>  (646) 
nan

>  <PDB_ID>  (646) 
nan

>  <Standardized_SMILES>  (646) 
Oc1ccc(Nc2nc(OCC3CCCCC3)c3nc[nH]c3n2)cc1

>  <Name>  (646) 
nan

>  <Pocket>  (646) 
nan

>  <ATP_Site>  (646) 
nan

>  <Peripheral>  (646) 
nan

>  <Num_H_Atoms_ProtBoundConf>  (646) 
nan

>  <Num_Resolved_Atoms>  (646) 
nan

>  <Num_Not_Resolved_Atoms>  (646) 
nan

$$$$
CHEMBL3408216
     RDKit          3D

  0  0  0  0  0  0  0  0  0  0999 V3000
M  V30 BEGIN CTAB
M  V30 COUNTS 50 54 0 0 0
M  V30 BEGIN ATOM
M  V30 1 C 2.496519 -4.963714 -2.811910 0
M  V30 2 N 2.437355 -4.225339 -1.565395 0
M  V30 3 N 2.444893 -4.752078 -0.347670 0
M  V30 4 C 2.377916 -3.794682 0.596514 0
M  V30 5 C 2.326618 -2.609839 -0.107746 0
M  V30 6 C 2.249621 -1.331916 0.400824 0
M  V30 7 C 2.205778 -0.250684 -0.453572 0
M  V30 8 C 2.112218 1.183476 -0.249146 0
M  V30 9 C 2.979028 2.067136 -0.884950 0
M  V30 10 N 2.889209 3.389965 -0.687948 0
M  V30 11 C 1.962221 3.938578 0.130449 0
M  V30 12 C 1.089366 3.077233 0.773260 0
M  V30 13 Cl -0.070677 3.903328 1.810293 0
M  V30 14 C 1.156646 1.709352 0.590672 0
M  V30 15 N 0.183195 0.978795 1.324325 0
M  V30 16 C 0.025457 0.351281 2.630014 0
M  V30 17 C -1.366711 0.650981 3.136533 0
M  V30 18 C -2.362390 -0.151957 2.321078 0
M  V30 19 C -2.692625 -1.440091 3.040214 0
M  V30 20 C -4.065356 -1.755296 2.469793 0
M  V30 21 N -4.722970 -0.444654 2.377217 0
M  V30 22 C -3.661810 0.509993 2.194865 0
M  V30 23 O -3.963526 1.715834 1.964699 0
M  V30 24 C -1.811298 -0.432895 0.940073 0
M  V30 25 C -1.031976 0.798760 0.533226 0
M  V30 26 C 2.242952 -0.503328 -1.833913 0
M  V30 27 C 2.321474 -1.815335 -2.318056 0
M  V30 28 C 2.364273 -2.887303 -1.458200 0
M  V30 29 H 1.544169 -5.551290 -2.967210 0
M  V30 30 H 3.294333 -5.734243 -2.819646 0
M  V30 31 H 2.563419 -4.272037 -3.659845 0
M  V30 32 H 2.367570 -3.936176 1.660340 0
M  V30 33 H 2.222054 -1.011621 1.414026 0
M  V30 34 H 3.716288 1.600727 -1.538798 0
M  V30 35 H 1.952547 5.019227 0.238761 0
M  V30 36 H 0.175604 -0.730675 2.628900 0
M  V30 37 H 0.750440 0.869743 3.290218 0
M  V30 38 H -1.633415 1.708220 3.122273 0
M  V30 39 H -1.433286 0.279955 4.180775 0
M  V30 40 H -2.757300 -1.264649 4.140139 0
M  V30 41 H -1.927414 -2.170369 2.745548 0
M  V30 42 H -4.630419 -2.475239 3.070957 0
M  V30 43 H -3.924427 -2.169413 1.447389 0
M  V30 44 H -5.778488 -0.395361 2.450555 0
M  V30 45 H -2.638204 -0.538132 0.214427 0
M  V30 46 H -1.148357 -1.305479 0.966959 0
M  V30 47 H -1.670526 1.711605 0.639633 0
M  V30 48 H -0.830972 0.677248 -0.549977 0
M  V30 49 H 2.219254 0.205561 -2.655244 0
M  V30 50 H 2.353255 -2.074642 -3.366456 0
M  V30 END ATOM
M  V30 BEGIN BOND
M  V30 1 1 1 2
M  V30 2 1 2 3
M  V30 3 2 3 4
M  V30 4 1 4 5
M  V30 5 2 5 6
M  V30 6 1 6 7
M  V30 7 1 7 8
M  V30 8 2 8 9
M  V30 9 1 9 10
M  V30 10 2 10 11
M  V30 11 1 11 12
M  V30 12 1 12 13
M  V30 13 2 12 14
M  V30 14 1 14 15
M  V30 15 1 15 16
M  V30 16 1 16 17
M  V30 17 1 17 18
M  V30 18 1 18 19
M  V30 19 1 19 20
M  V30 20 1 20 21
M  V30 21 1 21 22
M  V30 22 2 22 23
M  V30 23 1 18 24
M  V30 24 1 24 25
M  V30 25 2 7 26
M  V30 26 1 26 27
M  V30 27 2 27 28
M  V30 28 1 28 2
M  V30 29 1 28 5
M  V30 30 1 14 8
M  V30 31 1 25 15
M  V30 32 1 22 18
M  V30 33 1 1 29
M  V30 34 1 1 30
M  V30 35 1 1 31
M  V30 36 1 4 32
M  V30 37 1 6 33
M  V30 38 1 9 34
M  V30 39 1 11 35
M  V30 40 1 16 36
M  V30 41 1 16 37
M  V30 42 1 17 38
M  V30 43 1 17 39
M  V30 44 1 19 40
M  V30 45 1 19 41
M  V30 46 1 20 42
M  V30 47 1 20 43
M  V30 48 1 21 44
M  V30 49 1 24 45
M  V30 50 1 24 46
M  V30 51 1 25 47
M  V30 52 1 25 48
M  V30 53 1 26 49
M  V30 54 1 27 50
M  V30 END BOND
M  V30 END CTAB
M  END
>  <Dataset>  (647) 
ChEMBL_Kinases

>  <Ligand_Instance>  (647) 
nan

>  <PDB_ID>  (647) 
nan

>  <Standardized_SMILES>  (647) 
Cn1ncc2cc(-c3cncc(Cl)c3N3CCC4(CCNC4=O)CC3)ccc21

>  <Name>  (647) 
nan

>  <Pocket>  (647) 
nan

>  <ATP_Site>  (647) 
nan

>  <Peripheral>  (647) 
nan

>  <Num_H_Atoms_ProtBoundConf>  (647) 
nan

>  <Num_Resolved_Atoms>  (647) 
nan

>  <Num_Not_Resolved_Atoms>  (647) 
nan

$$$$
CHEMBL3408381
     RDKit          3D

  0  0  0  0  0  0  0  0  0  0999 V3000
M  V30 BEGIN CTAB
M  V30 COUNTS 48 51 0 0 0
M  V30 BEGIN ATOM
M  V30 1 N 0.966655 -2.393025 -2.700969 0
M  V30 2 C 0.941237 -1.710491 -1.772051 0
M  V30 3 C 0.928533 -0.869981 -0.620470 0
M  V30 4 C 1.726863 0.239180 -0.508910 0
M  V30 5 C 2.605503 0.660945 -1.584205 0
M  V30 6 C 1.968581 0.653635 -2.809009 0
M  V30 7 C 2.697541 1.062546 -3.938142 0
M  V30 8 C 3.997994 1.461474 -3.851098 0
M  V30 9 C 4.566738 1.443939 -2.599536 0
M  V30 10 C 3.916259 1.055226 -1.452002 0
M  V30 11 C 1.704629 1.027005 0.622061 0
M  V30 12 C 0.850097 0.650147 1.623256 0
M  V30 13 C 0.728013 1.369851 2.907941 0
M  V30 14 C 1.459857 2.500263 3.184105 0
M  V30 15 C 1.383296 3.190929 4.377780 0
M  V30 16 C 0.507765 2.680013 5.315182 0
M  V30 17 C -0.256225 1.550137 5.100200 0
M  V30 18 C -0.143086 0.896372 3.891126 0
M  V30 19 N 0.085722 -0.437217 1.480045 0
M  V30 20 C 0.069850 -1.247234 0.384795 0
M  V30 21 N -0.844295 -2.381721 0.438031 0
M  V30 22 C -1.768559 -1.743988 -0.440478 0
M  V30 23 S -2.040286 -0.480111 -1.461142 0
M  V30 24 N -3.065069 -2.314958 -0.438847 0
M  V30 25 C -3.377774 -3.414457 0.428201 0
M  V30 26 C -3.581984 -4.772912 0.415390 0
M  V30 27 C -3.861456 -5.397033 1.602637 0
M  V30 28 C -3.955439 -4.770050 2.819810 0
M  V30 29 C -3.755230 -3.384626 2.889595 0
M  V30 30 C -3.469276 -2.749014 1.673499 0
M  V30 31 H 0.949007 0.375946 -3.083157 0
M  V30 32 H 2.283638 1.092011 -4.945369 0
M  V30 33 H 4.581428 1.781406 -4.724818 0
M  V30 34 H 5.616890 1.760898 -2.482322 0
M  V30 35 H 4.317714 1.021738 -0.451773 0
M  V30 36 H 2.322205 1.903361 0.736804 0
M  V30 37 H 2.159998 2.922376 2.457420 0
M  V30 38 H 1.958720 4.081825 4.604891 0
M  V30 39 H 0.349558 3.116010 6.289547 0
M  V30 40 H -0.953439 1.143526 5.841005 0
M  V30 41 H -0.743175 0.008179 3.706448 0
M  V30 42 H -0.195639 -2.892456 1.097661 0
M  V30 43 H -4.041510 -2.285750 -0.860208 0
M  V30 44 H -3.467617 -5.065110 -0.612412 0
M  V30 45 H -4.007870 -6.475850 1.437277 0
M  V30 46 H -4.185905 -5.382604 3.677463 0
M  V30 47 H -3.840028 -2.958766 3.875917 0
M  V30 48 H -3.346403 -1.688795 1.953556 0
M  V30 END ATOM
M  V30 BEGIN BOND
M  V30 1 3 1 2
M  V30 2 1 2 3
M  V30 3 2 3 4
M  V30 4 1 4 5
M  V30 5 2 5 6
M  V30 6 1 6 7
M  V30 7 2 7 8
M  V30 8 1 8 9
M  V30 9 2 9 10
M  V30 10 1 4 11
M  V30 11 2 11 12
M  V30 12 1 12 13
M  V30 13 2 13 14
M  V30 14 1 14 15
M  V30 15 2 15 16
M  V30 16 1 16 17
M  V30 17 2 17 18
M  V30 18 1 12 19
M  V30 19 2 19 20
M  V30 20 1 20 21
M  V30 21 1 21 22
M  V30 22 2 22 23
M  V30 23 1 22 24
M  V30 24 1 24 25
M  V30 25 2 25 26
M  V30 26 1 26 27
M  V30 27 2 27 28
M  V30 28 1 28 29
M  V30 29 2 29 30
M  V30 30 1 20 3
M  V30 31 1 30 25
M  V30 32 1 10 5
M  V30 33 1 18 13
M  V30 34 1 6 31
M  V30 35 1 7 32
M  V30 36 1 8 33
M  V30 37 1 9 34
M  V30 38 1 10 35
M  V30 39 1 11 36
M  V30 40 1 14 37
M  V30 41 1 15 38
M  V30 42 1 16 39
M  V30 43 1 17 40
M  V30 44 1 18 41
M  V30 45 1 21 42
M  V30 46 1 24 43
M  V30 47 1 26 44
M  V30 48 1 27 45
M  V30 49 1 28 46
M  V30 50 1 29 47
M  V30 51 1 30 48
M  V30 END BOND
M  V30 END CTAB
M  END
>  <Dataset>  (648) 
ChEMBL_Kinases

>  <Ligand_Instance>  (648) 
nan

>  <PDB_ID>  (648) 
nan

>  <Standardized_SMILES>  (648) 
N#Cc1c(-c2ccccc2)cc(-c2ccccc2)nc1NC(=S)Nc1ccccc1

>  <Name>  (648) 
nan

>  <Pocket>  (648) 
nan

>  <ATP_Site>  (648) 
nan

>  <Peripheral>  (648) 
nan

>  <Num_H_Atoms_ProtBoundConf>  (648) 
nan

>  <Num_Resolved_Atoms>  (648) 
nan

>  <Num_Not_Resolved_Atoms>  (648) 
nan

$$$$
CHEMBL3408382
     RDKit          3D

  0  0  0  0  0  0  0  0  0  0999 V3000
M  V30 BEGIN CTAB
M  V30 COUNTS 59 64 0 0 0
M  V30 BEGIN ATOM
M  V30 1 N 2.579185 -2.289264 2.366838 0
M  V30 2 C 1.473986 -2.015369 2.282493 0
M  V30 3 C 0.099981 -1.667702 2.201308 0
M  V30 4 C -0.912561 -2.512322 2.584035 0
M  V30 5 C -0.603684 -3.840490 3.104748 0
M  V30 6 C 0.316335 -4.718754 2.553294 0
M  V30 7 C 0.535015 -5.960213 3.127728 0
M  V30 8 C -0.142126 -6.358573 4.247352 0
M  V30 9 C -1.048277 -5.499156 4.794328 0
M  V30 10 C -1.287129 -4.244926 4.236417 0
M  V30 11 C -2.218665 -2.069951 2.461922 0
M  V30 12 C -2.540099 -0.823628 1.974618 0
M  V30 13 C -3.900441 -0.316973 1.829026 0
M  V30 14 C -4.046809 0.957860 1.322844 0
M  V30 15 C -5.320457 1.512056 1.154492 0
M  V30 16 C -6.411632 0.762387 1.502447 0
M  V30 17 C -6.282330 -0.512388 2.009334 0
M  V30 18 C -5.021522 -1.042030 2.168365 0
M  V30 19 N -1.523870 -0.028928 1.611800 0
M  V30 20 C -0.222400 -0.416387 1.712035 0
M  V30 21 N 0.771858 0.544065 1.283499 0
M  V30 22 C 1.214587 0.477465 0.033774 0
M  V30 23 S 0.642530 -0.764705 -1.196955 0
M  V30 24 C 1.805545 -0.014947 -2.498618 0
M  V30 25 C 1.894009 -0.548685 -3.863085 0
M  V30 26 C 2.764785 0.056375 -4.743884 0
M  V30 27 C 2.808564 -0.484663 -6.012176 0
M  V30 28 C 2.019144 -1.565194 -6.353159 0
M  V30 29 C 1.155964 -2.158949 -5.467137 0
M  V30 30 C 1.103088 -1.631331 -4.204859 0
M  V30 31 N 2.245063 0.794717 -1.863052 0
M  V30 32 N 2.069557 1.160262 -0.641167 0
M  V30 33 C 2.731036 2.246539 0.032031 0
M  V30 34 C 2.596835 3.586559 -0.219656 0
M  V30 35 C 3.312552 4.497940 0.528216 0
M  V30 36 C 4.170746 4.108749 1.534288 0
M  V30 37 C 4.314042 2.754787 1.797360 0
M  V30 38 C 3.598696 1.857297 1.048888 0
M  V30 39 H 0.836220 -4.372584 1.666116 0
M  V30 40 H 1.282937 -6.543103 2.589855 0
M  V30 41 H 0.114114 -7.346643 4.601665 0
M  V30 42 H -1.571481 -5.853473 5.691216 0
M  V30 43 H -2.024643 -3.597935 4.717461 0
M  V30 44 H -3.002214 -2.723511 2.758082 0
M  V30 45 H -3.207735 1.575808 1.038600 0
M  V30 46 H -5.395806 2.527938 0.749372 0
M  V30 47 H -7.408925 1.165867 1.382872 0
M  V30 48 H -7.181636 -1.058187 2.267148 0
M  V30 49 H -4.912475 -2.041937 2.565626 0
M  V30 50 H 3.333279 0.894760 -4.369269 0
M  V30 51 H 3.492326 -0.009137 -6.702920 0
M  V30 52 H 2.077182 -1.967570 -7.360075 0
M  V30 53 H 0.560886 -2.996286 -5.773038 0
M  V30 54 H 0.417605 -2.093890 -3.482040 0
M  V30 55 H 1.919731 3.834026 -1.009035 0
M  V30 56 H 3.133329 5.528717 0.248061 0
M  V30 57 H 4.694952 4.886085 2.073941 0
M  V30 58 H 4.995794 2.517706 2.591269 0
M  V30 59 H 3.774328 0.826882 1.324908 0
M  V30 END ATOM
M  V30 BEGIN BOND
M  V30 1 3 1 2
M  V30 2 1 2 3
M  V30 3 2 3 4
M  V30 4 1 4 5
M  V30 5 2 5 6
M  V30 6 1 6 7
M  V30 7 2 7 8
M  V30 8 1 8 9
M  V30 9 2 9 10
M  V30 10 1 4 11
M  V30 11 2 11 12
M  V30 12 1 12 13
M  V30 13 2 13 14
M  V30 14 1 14 15
M  V30 15 2 15 16
M  V30 16 1 16 17
M  V30 17 2 17 18
M  V30 18 1 12 19
M  V30 19 2 19 20
M  V30 20 1 20 21
M  V30 21 2 21 22
M  V30 22 1 22 23
M  V30 23 1 23 24
M  V30 24 1 24 25
M  V30 25 2 25 26
M  V30 26 1 26 27
M  V30 27 2 27 28
M  V30 28 1 28 29
M  V30 29 2 29 30
M  V30 30 2 24 31
M  V30 31 1 31 32
M  V30 32 1 32 33
M  V30 33 2 33 34
M  V30 34 1 34 35
M  V30 35 2 35 36
M  V30 36 1 36 37
M  V30 37 2 37 38
M  V30 38 1 20 3
M  V30 39 1 32 22
M  V30 40 1 38 33
M  V30 41 1 10 5
M  V30 42 1 18 13
M  V30 43 1 30 25
M  V30 44 1 6 39
M  V30 45 1 7 40
M  V30 46 1 8 41
M  V30 47 1 9 42
M  V30 48 1 10 43
M  V30 49 1 11 44
M  V30 50 1 14 45
M  V30 51 1 15 46
M  V30 52 1 16 47
M  V30 53 1 17 48
M  V30 54 1 18 49
M  V30 55 1 26 50
M  V30 56 1 27 51
M  V30 57 1 28 52
M  V30 58 1 29 53
M  V30 59 1 30 54
M  V30 60 1 34 55
M  V30 61 1 35 56
M  V30 62 1 36 57
M  V30 63 1 37 58
M  V30 64 1 38 59
M  V30 END BOND
M  V30 END CTAB
M  END
>  <Dataset>  (649) 
ChEMBL_Kinases

>  <Ligand_Instance>  (649) 
nan

>  <PDB_ID>  (649) 
nan

>  <Standardized_SMILES>  (649) 
N#Cc1c(-c2ccccc2)cc(-c2ccccc2)nc1/N=c1\sc(-c2ccccc2)nn1-c1ccccc1

>  <Name>  (649) 
nan

>  <Pocket>  (649) 
nan

>  <ATP_Site>  (649) 
nan

>  <Peripheral>  (649) 
nan

>  <Num_H_Atoms_ProtBoundConf>  (649) 
nan

>  <Num_Resolved_Atoms>  (649) 
nan

>  <Num_Not_Resolved_Atoms>  (649) 
nan

$$$$
CHEMBL3408383
     RDKit          3D

  0  0  0  0  0  0  0  0  0  0999 V3000
M  V30 BEGIN CTAB
M  V30 COUNTS 54 58 0 0 0
M  V30 BEGIN ATOM
M  V30 1 C 3.549976 -2.228050 5.680906 0
M  V30 2 C 2.299884 -2.321937 4.903871 0
M  V30 3 O 1.284169 -2.987269 5.232601 0
M  V30 4 C 2.390456 -1.528977 3.678808 0
M  V30 5 N 3.108236 -0.828865 3.071764 0
M  V30 6 N 2.881005 -0.240008 1.942933 0
M  V30 7 C 3.803591 0.608797 1.245924 0
M  V30 8 C 4.720507 0.092907 0.334103 0
M  V30 9 C 5.590046 0.945578 -0.314339 0
M  V30 10 C 5.577413 2.317220 -0.081862 0
M  V30 11 C 4.668912 2.798435 0.816767 0
M  V30 12 C 3.777355 1.955297 1.486643 0
M  V30 13 C 1.712871 -0.403614 1.340466 0
M  V30 14 N 1.146624 -0.016741 0.288655 0
M  V30 15 C -0.198561 -0.408777 -0.073245 0
M  V30 16 N -1.241237 0.330649 0.397835 0
M  V30 17 C -2.511726 0.012890 0.093863 0
M  V30 18 C -3.569830 0.853288 0.636746 0
M  V30 19 C -3.206080 1.919614 1.426377 0
M  V30 20 C -4.146759 2.774337 1.986517 0
M  V30 21 C -5.486851 2.513781 1.719650 0
M  V30 22 C -5.884343 1.462309 0.938722 0
M  V30 23 C -4.913350 0.650958 0.411618 0
M  V30 24 C -2.727766 -1.085710 -0.710329 0
M  V30 25 C -1.698112 -1.856792 -1.204983 0
M  V30 26 C -1.955749 -3.013607 -2.053557 0
M  V30 27 C -1.386920 -4.269328 -1.975680 0
M  V30 28 C -1.750050 -5.254905 -2.867736 0
M  V30 29 C -2.702778 -4.951678 -3.846529 0
M  V30 30 C -3.280211 -3.709701 -3.941016 0
M  V30 31 C -2.898032 -2.724507 -3.026713 0
M  V30 32 C -0.411899 -1.517789 -0.884778 0
M  V30 33 C 0.730449 -2.246612 -1.342334 0
M  V30 34 N 1.639907 -2.831483 -1.727344 0
M  V30 35 S 0.845647 -1.555133 2.572058 0
M  V30 36 H 4.469842 -2.241162 5.057256 0
M  V30 37 H 3.534238 -1.286892 6.301611 0
M  V30 38 H 3.648551 -3.050772 6.427103 0
M  V30 39 H 4.731083 -0.975476 0.152358 0
M  V30 40 H 6.294255 0.509062 -1.021133 0
M  V30 41 H 6.276127 2.986249 -0.605511 0
M  V30 42 H 4.612578 3.864624 1.039512 0
M  V30 43 H 3.039732 2.329375 2.213568 0
M  V30 44 H -2.167177 2.179980 1.675313 0
M  V30 45 H -3.870715 3.604818 2.601077 0
M  V30 46 H -6.217769 3.197654 2.169110 0
M  V30 47 H -6.944807 1.310481 0.766697 0
M  V30 48 H -5.221266 -0.177063 -0.203043 0
M  V30 49 H -3.743957 -1.354329 -0.963880 0
M  V30 50 H -0.666044 -4.365123 -1.172096 0
M  V30 51 H -1.271404 -6.215156 -2.756772 0
M  V30 52 H -2.943668 -5.779150 -4.520149 0
M  V30 53 H -4.016911 -3.539726 -4.728274 0
M  V30 54 H -3.408524 -1.775423 -3.180428 0
M  V30 END ATOM
M  V30 BEGIN BOND
M  V30 1 1 1 2
M  V30 2 2 2 3
M  V30 3 1 2 4
M  V30 4 2 4 5
M  V30 5 1 5 6
M  V30 6 1 6 7
M  V30 7 2 7 8
M  V30 8 1 8 9
M  V30 9 2 9 10
M  V30 10 1 10 11
M  V30 11 2 11 12
M  V30 12 1 6 13
M  V30 13 2 13 14
M  V30 14 1 14 15
M  V30 15 2 15 16
M  V30 16 1 16 17
M  V30 17 1 17 18
M  V30 18 2 18 19
M  V30 19 1 19 20
M  V30 20 2 20 21
M  V30 21 1 21 22
M  V30 22 2 22 23
M  V30 23 2 17 24
M  V30 24 1 24 25
M  V30 25 1 25 26
M  V30 26 2 26 27
M  V30 27 1 27 28
M  V30 28 2 28 29
M  V30 29 1 29 30
M  V30 30 2 30 31
M  V30 31 2 25 32
M  V30 32 1 32 33
M  V30 33 3 33 34
M  V30 34 1 13 35
M  V30 35 1 35 4
M  V30 36 1 12 7
M  V30 37 1 32 15
M  V30 38 1 23 18
M  V30 39 1 31 26
M  V30 40 1 1 36
M  V30 41 1 1 37
M  V30 42 1 1 38
M  V30 43 1 8 39
M  V30 44 1 9 40
M  V30 45 1 10 41
M  V30 46 1 11 42
M  V30 47 1 12 43
M  V30 48 1 19 44
M  V30 49 1 20 45
M  V30 50 1 21 46
M  V30 51 1 22 47
M  V30 52 1 23 48
M  V30 53 1 24 49
M  V30 54 1 27 50
M  V30 55 1 28 51
M  V30 56 1 29 52
M  V30 57 1 30 53
M  V30 58 1 31 54
M  V30 END BOND
M  V30 END CTAB
M  END
>  <Dataset>  (650) 
ChEMBL_Kinases

>  <Ligand_Instance>  (650) 
nan

>  <PDB_ID>  (650) 
nan

>  <Standardized_SMILES>  (650) 
CC(=O)c1nn(-c2ccccc2)/c(=N/c2nc(-c3ccccc3)cc(-c3ccccc3)c2C#N)s1

>  <Name>  (650) 
nan

>  <Pocket>  (650) 
nan

>  <ATP_Site>  (650) 
nan

>  <Peripheral>  (650) 
nan

>  <Num_H_Atoms_ProtBoundConf>  (650) 
nan

>  <Num_Resolved_Atoms>  (650) 
nan

>  <Num_Not_Resolved_Atoms>  (650) 
nan

$$$$
CHEMBL3408393
     RDKit          3D

  0  0  0  0  0  0  0  0  0  0999 V3000
M  V30 BEGIN CTAB
M  V30 COUNTS 76 83 0 0 0
M  V30 BEGIN ATOM
M  V30 1 N 0.660587 -2.485044 -4.331645 0
M  V30 2 C 1.280900 -2.527114 -3.353055 0
M  V30 3 C 2.051981 -2.558571 -2.152197 0
M  V30 4 C 2.716226 -3.662975 -1.691382 0
M  V30 5 C 2.633855 -4.890634 -2.474709 0
M  V30 6 C 2.393632 -6.025200 -1.708757 0
M  V30 7 C 2.281611 -7.280603 -2.257992 0
M  V30 8 C 2.413587 -7.419538 -3.629978 0
M  V30 9 C 2.652484 -6.300595 -4.403281 0
M  V30 10 C 2.762345 -5.048122 -3.838143 0
M  V30 11 C 3.422246 -3.548299 -0.515655 0
M  V30 12 C 3.499890 -2.387702 0.224711 0
M  V30 13 C 4.255121 -2.290199 1.469125 0
M  V30 14 C 4.964115 -3.309682 2.045854 0
M  V30 15 C 5.660095 -3.125559 3.242831 0
M  V30 16 C 5.655300 -1.895054 3.890371 0
M  V30 17 C 4.937323 -0.865770 3.304642 0
M  V30 18 C 4.261565 -1.077020 2.125166 0
M  V30 19 N 2.829685 -1.358642 -0.285652 0
M  V30 20 C 2.123538 -1.392024 -1.418288 0
M  V30 21 N 1.495175 -0.156863 -1.752734 0
M  V30 22 C 0.219657 -0.137898 -1.658282 0
M  V30 23 S -1.157888 -1.255391 -1.202643 0
M  V30 24 C -2.017965 0.074135 -0.311202 0
M  V30 25 C -2.655573 -0.038296 0.812227 0
M  V30 26 S -2.981309 -1.406296 1.916310 0
M  V30 27 C -3.882031 -0.329101 3.071049 0
M  V30 28 C -4.468576 -0.901904 4.277376 0
M  V30 29 C -4.392641 -2.231546 4.624957 0
M  V30 30 C -4.994648 -2.631656 5.795995 0
M  V30 31 C -5.665304 -1.740559 6.620797 0
M  V30 32 C -5.734789 -0.409130 6.261539 0
M  V30 33 C -5.139423 0.017285 5.092406 0
M  V30 34 N -3.860438 0.843160 2.613233 0
M  V30 35 N -3.232400 1.092651 1.432578 0
M  V30 36 C -3.336927 2.516425 1.207468 0
M  V30 37 C -4.520002 3.192252 0.864303 0
M  V30 38 C -4.509912 4.563719 0.731790 0
M  V30 39 C -3.365859 5.308940 0.926132 0
M  V30 40 C -2.177796 4.696344 1.264300 0
M  V30 41 C -2.220112 3.344161 1.387351 0
M  V30 42 C -1.808494 1.174031 -1.230552 0
M  V30 43 O -2.605664 2.127120 -1.381377 0
M  V30 44 N -0.567731 1.040683 -1.962526 0
M  V30 45 C -0.135586 2.031476 -2.936811 0
M  V30 46 C -0.387811 2.086996 -4.273136 0
M  V30 47 C 0.137950 3.137663 -4.994007 0
M  V30 48 C 0.902090 4.111966 -4.379910 0
M  V30 49 C 1.155026 4.053659 -3.031844 0
M  V30 50 C 0.620543 2.987029 -2.303573 0
M  V30 51 H 2.276933 -6.010365 -0.630251 0
M  V30 52 H 2.094436 -8.183529 -1.684634 0
M  V30 53 H 2.333241 -8.394598 -4.117716 0
M  V30 54 H 2.766374 -6.347226 -5.495357 0
M  V30 55 H 2.947250 -4.125158 -4.365934 0
M  V30 56 H 3.933146 -4.442067 -0.184886 0
M  V30 57 H 4.975269 -4.264365 1.555159 0
M  V30 58 H 6.215542 -3.911983 3.701203 0
M  V30 59 H 6.182369 -1.713827 4.819144 0
M  V30 60 H 4.902335 0.124768 3.776886 0
M  V30 61 H 3.721712 -0.248042 1.714079 0
M  V30 62 H -3.861609 -2.908712 3.961591 0
M  V30 63 H -4.881297 -3.704332 5.987555 0
M  V30 64 H -6.107219 -2.148800 7.521465 0
M  V30 65 H -6.278329 0.202667 6.969620 0
M  V30 66 H -5.248339 1.072851 4.899491 0
M  V30 67 H -5.389143 2.563239 0.722907 0
M  V30 68 H -5.440196 5.054212 0.465910 0
M  V30 69 H -3.369714 6.397682 0.818156 0
M  V30 70 H -1.267626 5.242065 1.423577 0
M  V30 71 H -1.290591 2.835368 1.654825 0
M  V30 72 H -0.996336 1.266095 -4.626516 0
M  V30 73 H -0.093393 3.134554 -6.057644 0
M  V30 74 H 1.285503 4.915561 -5.017786 0
M  V30 75 H 1.761858 4.846805 -2.602340 0
M  V30 76 H 0.892783 3.054601 -1.244228 0
M  V30 END ATOM
M  V30 BEGIN BOND
M  V30 1 3 1 2
M  V30 2 1 2 3
M  V30 3 2 3 4
M  V30 4 1 4 5
M  V30 5 2 5 6
M  V30 6 1 6 7
M  V30 7 2 7 8
M  V30 8 1 8 9
M  V30 9 2 9 10
M  V30 10 1 4 11
M  V30 11 2 11 12
M  V30 12 1 12 13
M  V30 13 2 13 14
M  V30 14 1 14 15
M  V30 15 2 15 16
M  V30 16 1 16 17
M  V30 17 2 17 18
M  V30 18 1 12 19
M  V30 19 2 19 20
M  V30 20 1 20 21
M  V30 21 2 21 22
M  V30 22 1 22 23
M  V30 23 1 23 24
M  V30 24 2 24 25
M  V30 25 1 25 26
M  V30 26 1 26 27
M  V30 27 1 27 28
M  V30 28 2 28 29
M  V30 29 1 29 30
M  V30 30 2 30 31
M  V30 31 1 31 32
M  V30 32 2 32 33
M  V30 33 2 27 34
M  V30 34 1 34 35
M  V30 35 1 35 36
M  V30 36 2 36 37
M  V30 37 1 37 38
M  V30 38 2 38 39
M  V30 39 1 39 40
M  V30 40 2 40 41
M  V30 41 1 24 42
M  V30 42 2 42 43
M  V30 43 1 42 44
M  V30 44 1 44 45
M  V30 45 2 45 46
M  V30 46 1 46 47
M  V30 47 2 47 48
M  V30 48 1 48 49
M  V30 49 2 49 50
M  V30 50 1 20 3
M  V30 51 1 44 22
M  V30 52 1 50 45
M  V30 53 1 10 5
M  V30 54 1 18 13
M  V30 55 1 35 25
M  V30 56 1 41 36
M  V30 57 1 33 28
M  V30 58 1 6 51
M  V30 59 1 7 52
M  V30 60 1 8 53
M  V30 61 1 9 54
M  V30 62 1 10 55
M  V30 63 1 11 56
M  V30 64 1 14 57
M  V30 65 1 15 58
M  V30 66 1 16 59
M  V30 67 1 17 60
M  V30 68 1 18 61
M  V30 69 1 29 62
M  V30 70 1 30 63
M  V30 71 1 31 64
M  V30 72 1 32 65
M  V30 73 1 33 66
M  V30 74 1 37 67
M  V30 75 1 38 68
M  V30 76 1 39 69
M  V30 77 1 40 70
M  V30 78 1 41 71
M  V30 79 1 46 72
M  V30 80 1 47 73
M  V30 81 1 48 74
M  V30 82 1 49 75
M  V30 83 1 50 76
M  V30 END BOND
M  V30 END CTAB
M  END
>  <Dataset>  (651) 
ChEMBL_Kinases

>  <Ligand_Instance>  (651) 
nan

>  <PDB_ID>  (651) 
nan

>  <Standardized_SMILES>  (651) 
N#Cc1c(-c2ccccc2)cc(-c2ccccc2)nc1/N=C1\S/C(=C2\SC(c3ccccc3)=NN2c2ccccc2)C(=O)N1c1ccccc1

>  <Name>  (651) 
nan

>  <Pocket>  (651) 
nan

>  <ATP_Site>  (651) 
nan

>  <Peripheral>  (651) 
nan

>  <Num_H_Atoms_ProtBoundConf>  (651) 
nan

>  <Num_Resolved_Atoms>  (651) 
nan

>  <Num_Not_Resolved_Atoms>  (651) 
nan

$$$$
CHEMBL3408385
     RDKit          3D

  0  0  0  0  0  0  0  0  0  0999 V3000
M  V30 BEGIN CTAB
M  V30 COUNTS 58 62 0 0 0
M  V30 BEGIN ATOM
M  V30 1 C 5.257309 -1.502493 6.179091 0
M  V30 2 O 5.445186 -1.394240 4.779056 0
M  V30 3 C 4.507373 -0.708924 4.020858 0
M  V30 4 C 3.362615 -0.095843 4.507712 0
M  V30 5 C 2.506067 0.560109 3.625468 0
M  V30 6 C 2.824221 0.580746 2.282809 0
M  V30 7 N 1.896714 1.271819 1.448886 0
M  V30 8 N 1.929485 2.545828 1.239081 0
M  V30 9 C 0.999163 3.047234 0.437966 0
M  V30 10 C 0.650925 4.381363 -0.073168 0
M  V30 11 C 1.573799 5.397289 0.442659 0
M  V30 12 O -0.319935 4.508205 -0.836139 0
M  V30 13 S -0.063149 1.566489 -0.098439 0
M  V30 14 C 0.959135 0.422452 0.891155 0
M  V30 15 N 0.687881 -0.834884 0.916218 0
M  V30 16 C -0.432694 -1.342130 0.156032 0
M  V30 17 N -1.574218 -1.731164 0.775480 0
M  V30 18 C -2.625208 -2.202883 0.106500 0
M  V30 19 C -3.811901 -2.597669 0.855860 0
M  V30 20 C -3.771490 -2.456316 2.226620 0
M  V30 21 C -4.856055 -2.806105 3.031813 0
M  V30 22 C -5.966969 -3.299508 2.381622 0
M  V30 23 C -6.064761 -3.462858 1.015358 0
M  V30 24 C -4.955523 -3.097372 0.276332 0
M  V30 25 C -2.516487 -2.285946 -1.263591 0
M  V30 26 C -1.373414 -1.902586 -1.951565 0
M  V30 27 C -1.275181 -1.997374 -3.404068 0
M  V30 28 C -2.348855 -1.553058 -4.150874 0
M  V30 29 C -2.318971 -1.615755 -5.542669 0
M  V30 30 C -1.201796 -2.129040 -6.196023 0
M  V30 31 C -0.127859 -2.573886 -5.460813 0
M  V30 32 C -0.194649 -2.495575 -4.085104 0
M  V30 33 C -0.309237 -1.419635 -1.216193 0
M  V30 34 C 0.919944 -0.994980 -1.821092 0
M  V30 35 N 1.908591 -0.645393 -2.327130 0
M  V30 36 C 3.962465 -0.028451 1.796219 0
M  V30 37 C 4.824018 -0.686429 2.672198 0
M  V30 38 H 5.870686 -2.306548 6.622880 0
M  V30 39 H 5.392663 -0.522018 6.692503 0
M  V30 40 H 4.183431 -1.791810 6.348576 0
M  V30 41 H 3.203863 -0.169841 5.580285 0
M  V30 42 H 1.661049 0.993018 4.109036 0
M  V30 43 H 1.183330 6.438039 0.252151 0
M  V30 44 H 1.637839 5.309040 1.545979 0
M  V30 45 H 2.605042 5.281965 0.042400 0
M  V30 46 H -2.908408 -2.069452 2.770269 0
M  V30 47 H -4.847383 -2.703147 4.118750 0
M  V30 48 H -6.867021 -3.600331 2.934732 0
M  V30 49 H -6.952627 -3.852466 0.547375 0
M  V30 50 H -4.996797 -3.211691 -0.795656 0
M  V30 51 H -3.331417 -2.656217 -1.831477 0
M  V30 52 H -3.262485 -1.136935 -3.718817 0
M  V30 53 H -3.118988 -1.288531 -6.207142 0
M  V30 54 H -1.098458 -2.212733 -7.272901 0
M  V30 55 H 0.766076 -2.983373 -5.949093 0
M  V30 56 H 0.652992 -2.847141 -3.516543 0
M  V30 57 H 4.165791 0.015746 0.742144 0
M  V30 58 H 5.698891 -1.144466 2.233689 0
M  V30 END ATOM
M  V30 BEGIN BOND
M  V30 1 1 1 2
M  V30 2 1 2 3
M  V30 3 2 3 4
M  V30 4 1 4 5
M  V30 5 2 5 6
M  V30 6 1 6 7
M  V30 7 1 7 8
M  V30 8 2 8 9
M  V30 9 1 9 10
M  V30 10 1 10 11
M  V30 11 2 10 12
M  V30 12 1 9 13
M  V30 13 1 13 14
M  V30 14 2 14 15
M  V30 15 1 15 16
M  V30 16 2 16 17
M  V30 17 1 17 18
M  V30 18 1 18 19
M  V30 19 2 19 20
M  V30 20 1 20 21
M  V30 21 2 21 22
M  V30 22 1 22 23
M  V30 23 2 23 24
M  V30 24 2 18 25
M  V30 25 1 25 26
M  V30 26 1 26 27
M  V30 27 2 27 28
M  V30 28 1 28 29
M  V30 29 2 29 30
M  V30 30 1 30 31
M  V30 31 2 31 32
M  V30 32 2 26 33
M  V30 33 1 33 34
M  V30 34 3 34 35
M  V30 35 1 6 36
M  V30 36 2 36 37
M  V30 37 1 37 3
M  V30 38 1 14 7
M  V30 39 1 33 16
M  V30 40 1 24 19
M  V30 41 1 32 27
M  V30 42 1 1 38
M  V30 43 1 1 39
M  V30 44 1 1 40
M  V30 45 1 4 41
M  V30 46 1 5 42
M  V30 47 1 11 43
M  V30 48 1 11 44
M  V30 49 1 11 45
M  V30 50 1 20 46
M  V30 51 1 21 47
M  V30 52 1 22 48
M  V30 53 1 23 49
M  V30 54 1 24 50
M  V30 55 1 25 51
M  V30 56 1 28 52
M  V30 57 1 29 53
M  V30 58 1 30 54
M  V30 59 1 31 55
M  V30 60 1 32 56
M  V30 61 1 36 57
M  V30 62 1 37 58
M  V30 END BOND
M  V30 END CTAB
M  END
>  <Dataset>  (652) 
ChEMBL_Kinases

>  <Ligand_Instance>  (652) 
nan

>  <PDB_ID>  (652) 
nan

>  <Standardized_SMILES>  (652) 
COc1ccc(-n2nc(C(C)=O)s/c2=N\c2nc(-c3ccccc3)cc(-c3ccccc3)c2C#N)cc1

>  <Name>  (652) 
nan

>  <Pocket>  (652) 
nan

>  <ATP_Site>  (652) 
nan

>  <Peripheral>  (652) 
nan

>  <Num_H_Atoms_ProtBoundConf>  (652) 
nan

>  <Num_Resolved_Atoms>  (652) 
nan

>  <Num_Not_Resolved_Atoms>  (652) 
nan

$$$$
CHEMBL3408386
     RDKit          3D

  0  0  0  0  0  0  0  0  0  0999 V3000
M  V30 BEGIN CTAB
M  V30 COUNTS 54 58 0 0 0
M  V30 BEGIN ATOM
M  V30 1 C 2.294021 -1.438372 5.993008 0
M  V30 2 C 3.178604 -0.823152 4.952732 0
M  V30 3 O 4.352212 -0.537094 5.424206 0
M  V30 4 C 2.109701 -0.871893 3.768141 0
M  V30 5 N 2.883311 -0.423634 3.030095 0
M  V30 6 N 3.030346 -0.058479 1.806782 0
M  V30 7 C 4.006980 0.508445 0.836326 0
M  V30 8 C 5.105451 -0.289377 0.645907 0
M  V30 9 C 5.994860 0.238794 -0.230143 0
M  V30 10 C 5.907281 1.419834 -0.901477 0
M  V30 11 Cl 7.052138 2.097119 -2.031383 0
M  V30 12 C 4.764789 2.111692 -0.618597 0
M  V30 13 C 3.703129 1.763684 0.250998 0
M  V30 14 C 1.928925 -0.247989 1.132709 0
M  V30 15 N 1.367345 -0.116783 -0.025329 0
M  V30 16 C 0.020537 -0.512023 -0.259428 0
M  V30 17 N -0.849859 -0.367167 0.760237 0
M  V30 18 C -2.134086 -0.707501 0.735823 0
M  V30 19 C -3.097864 -0.518668 1.808250 0
M  V30 20 C -4.418765 -0.896620 1.796755 0
M  V30 21 C -5.253076 -0.629744 2.865718 0
M  V30 22 C -4.691140 0.013546 3.899057 0
M  V30 23 C -3.391832 0.474192 4.096661 0
M  V30 24 C -2.665608 0.131945 2.933568 0
M  V30 25 C -2.570384 -1.254053 -0.461005 0
M  V30 26 C -1.747594 -1.440556 -1.569776 0
M  V30 27 C -2.292375 -2.015602 -2.819345 0
M  V30 28 C -1.676040 -2.958613 -3.642913 0
M  V30 29 C -2.450631 -3.354123 -4.750335 0
M  V30 30 C -3.731466 -2.816569 -4.967837 0
M  V30 31 C -4.308608 -1.892107 -4.148692 0
M  V30 32 C -3.528651 -1.524296 -3.074731 0
M  V30 33 C -0.426586 -1.053212 -1.441809 0
M  V30 34 C 0.484422 -1.189328 -2.546775 0
M  V30 35 N 1.225491 -1.315038 -3.443828 0
M  V30 36 S 0.879309 -0.927968 2.404470 0
M  V30 37 H 1.981499 -2.462471 5.637217 0
M  V30 38 H 2.877238 -1.525019 6.930540 0
M  V30 39 H 1.391817 -0.839164 6.092302 0
M  V30 40 H 5.270621 -1.232327 1.131543 0
M  V30 41 H 6.906202 -0.348490 -0.445417 0
M  V30 42 H 4.544734 3.092035 -1.087032 0
M  V30 43 H 2.810151 2.282044 0.484862 0
M  V30 44 H -4.803604 -1.413720 0.933954 0
M  V30 45 H -6.286102 -0.923244 2.854342 0
M  V30 46 H -5.373913 0.219027 4.743920 0
M  V30 47 H -2.976635 0.981806 4.929298 0
M  V30 48 H -1.625509 0.471874 3.003960 0
M  V30 49 H -3.580924 -1.588435 -0.623546 0
M  V30 50 H -0.717326 -3.275154 -3.346308 0
M  V30 51 H -1.967297 -4.085421 -5.380731 0
M  V30 52 H -4.275111 -3.180451 -5.858147 0
M  V30 53 H -5.293540 -1.501331 -4.347448 0
M  V30 54 H -4.045626 -0.774303 -2.452651 0
M  V30 END ATOM
M  V30 BEGIN BOND
M  V30 1 1 1 2
M  V30 2 2 2 3
M  V30 3 1 2 4
M  V30 4 2 4 5
M  V30 5 1 5 6
M  V30 6 1 6 7
M  V30 7 2 7 8
M  V30 8 1 8 9
M  V30 9 2 9 10
M  V30 10 1 10 11
M  V30 11 1 10 12
M  V30 12 2 12 13
M  V30 13 1 6 14
M  V30 14 2 14 15
M  V30 15 1 15 16
M  V30 16 2 16 17
M  V30 17 1 17 18
M  V30 18 1 18 19
M  V30 19 2 19 20
M  V30 20 1 20 21
M  V30 21 2 21 22
M  V30 22 1 22 23
M  V30 23 2 23 24
M  V30 24 2 18 25
M  V30 25 1 25 26
M  V30 26 1 26 27
M  V30 27 2 27 28
M  V30 28 1 28 29
M  V30 29 2 29 30
M  V30 30 1 30 31
M  V30 31 2 31 32
M  V30 32 2 26 33
M  V30 33 1 33 34
M  V30 34 3 34 35
M  V30 35 1 14 36
M  V30 36 1 36 4
M  V30 37 1 13 7
M  V30 38 1 33 16
M  V30 39 1 24 19
M  V30 40 1 32 27
M  V30 41 1 1 37
M  V30 42 1 1 38
M  V30 43 1 1 39
M  V30 44 1 8 40
M  V30 45 1 9 41
M  V30 46 1 12 42
M  V30 47 1 13 43
M  V30 48 1 20 44
M  V30 49 1 21 45
M  V30 50 1 22 46
M  V30 51 1 23 47
M  V30 52 1 24 48
M  V30 53 1 25 49
M  V30 54 1 28 50
M  V30 55 1 29 51
M  V30 56 1 30 52
M  V30 57 1 31 53
M  V30 58 1 32 54
M  V30 END BOND
M  V30 END CTAB
M  END
>  <Dataset>  (653) 
ChEMBL_Kinases

>  <Ligand_Instance>  (653) 
nan

>  <PDB_ID>  (653) 
nan

>  <Standardized_SMILES>  (653) 
CC(=O)c1nn(-c2ccc(Cl)cc2)/c(=N/c2nc(-c3ccccc3)cc(-c3ccccc3)c2C#N)s1

>  <Name>  (653) 
nan

>  <Pocket>  (653) 
nan

>  <ATP_Site>  (653) 
nan

>  <Peripheral>  (653) 
nan

>  <Num_H_Atoms_ProtBoundConf>  (653) 
nan

>  <Num_Resolved_Atoms>  (653) 
nan

>  <Num_Not_Resolved_Atoms>  (653) 
nan

$$$$
CHEMBL3408387
     RDKit          3D

  0  0  0  0  0  0  0  0  0  0999 V3000
M  V30 BEGIN CTAB
M  V30 COUNTS 58 62 0 0 0
M  V30 BEGIN ATOM
M  V30 1 C 2.881285 -2.070790 6.687527 0
M  V30 2 C 3.602757 -2.223909 5.356016 0
M  V30 3 O 2.811001 -1.547701 4.393625 0
M  V30 4 C 2.511741 -0.210325 4.460297 0
M  V30 5 O 2.918572 0.535244 5.389706 0
M  V30 6 C 1.677380 0.374485 3.395272 0
M  V30 7 N 1.267322 1.456614 3.188052 0
M  V30 8 N 0.530144 1.855871 2.200348 0
M  V30 9 C 0.037354 3.190377 1.964879 0
M  V30 10 C 0.926567 4.180360 1.534877 0
M  V30 11 C 0.503007 5.471629 1.296193 0
M  V30 12 C -0.809546 5.772682 1.487527 0
M  V30 13 C -1.735667 4.829202 1.913341 0
M  V30 14 C -1.278731 3.567323 2.137839 0
M  V30 15 C 0.173578 0.964839 1.291240 0
M  V30 16 N -0.519357 0.969003 0.215126 0
M  V30 17 C -0.712630 -0.233157 -0.563800 0
M  V30 18 N -1.453223 -1.236546 -0.049457 0
M  V30 19 C -1.678261 -2.383801 -0.711234 0
M  V30 20 C -2.482686 -3.399835 -0.080824 0
M  V30 21 C -2.993686 -3.161506 1.177889 0
M  V30 22 C -3.774904 -4.023379 1.911383 0
M  V30 23 C -4.067897 -5.239211 1.319658 0
M  V30 24 C -3.567775 -5.513645 0.047746 0
M  V30 25 C -2.785050 -4.610589 -0.648781 0
M  V30 26 C -1.123461 -2.519844 -1.958654 0
M  V30 27 C -0.346544 -1.516321 -2.545889 0
M  V30 28 C 0.236931 -1.675419 -3.873303 0
M  V30 29 C 0.849531 -2.908926 -4.119735 0
M  V30 30 C 1.415864 -3.106663 -5.361535 0
M  V30 31 C 1.406768 -2.162276 -6.354065 0
M  V30 32 C 0.801942 -0.948879 -6.105969 0
M  V30 33 C 0.221066 -0.715732 -4.864909 0
M  V30 34 C -0.161268 -0.372304 -1.807321 0
M  V30 35 C 0.611886 0.711663 -2.308877 0
M  V30 36 N 1.244749 1.594189 -2.711176 0
M  V30 37 S 0.984590 -0.596660 1.931346 0
M  V30 38 H 3.070406 -1.115628 7.186389 0
M  V30 39 H 3.173216 -2.900482 7.365994 0
M  V30 40 H 1.791723 -2.168672 6.529648 0
M  V30 41 H 4.631777 -1.827874 5.402743 0
M  V30 42 H 3.562465 -3.295590 5.090675 0
M  V30 43 H 1.981529 3.942735 1.380000 0
M  V30 44 H 1.178153 6.249172 0.963193 0
M  V30 45 H -1.134110 6.803863 1.294133 0
M  V30 46 H -2.763700 5.084245 2.058358 0
M  V30 47 H -1.978840 2.789329 2.476032 0
M  V30 48 H -2.787184 -2.208017 1.688727 0
M  V30 49 H -4.146731 -3.790113 2.885406 0
M  V30 50 H -4.665914 -5.984549 1.798033 0
M  V30 51 H -3.783392 -6.462961 -0.440704 0
M  V30 52 H -2.411241 -4.846006 -1.628862 0
M  V30 53 H -1.271383 -3.408126 -2.523960 0
M  V30 54 H 0.919752 -3.739569 -3.406555 0
M  V30 55 H 1.921783 -4.036778 -5.660352 0
M  V30 56 H 1.852690 -2.315810 -7.334159 0
M  V30 57 H 0.740385 -0.128663 -6.830176 0
M  V30 58 H -0.260127 0.225580 -4.641652 0
M  V30 END ATOM
M  V30 BEGIN BOND
M  V30 1 1 1 2
M  V30 2 1 2 3
M  V30 3 1 3 4
M  V30 4 2 4 5
M  V30 5 1 4 6
M  V30 6 2 6 7
M  V30 7 1 7 8
M  V30 8 1 8 9
M  V30 9 2 9 10
M  V30 10 1 10 11
M  V30 11 2 11 12
M  V30 12 1 12 13
M  V30 13 2 13 14
M  V30 14 1 8 15
M  V30 15 2 15 16
M  V30 16 1 16 17
M  V30 17 2 17 18
M  V30 18 1 18 19
M  V30 19 1 19 20
M  V30 20 2 20 21
M  V30 21 1 21 22
M  V30 22 2 22 23
M  V30 23 1 23 24
M  V30 24 2 24 25
M  V30 25 2 19 26
M  V30 26 1 26 27
M  V30 27 1 27 28
M  V30 28 2 28 29
M  V30 29 1 29 30
M  V30 30 2 30 31
M  V30 31 1 31 32
M  V30 32 2 32 33
M  V30 33 2 27 34
M  V30 34 1 34 35
M  V30 35 3 35 36
M  V30 36 1 15 37
M  V30 37 1 37 6
M  V30 38 1 14 9
M  V30 39 1 34 17
M  V30 40 1 25 20
M  V30 41 1 33 28
M  V30 42 1 1 38
M  V30 43 1 1 39
M  V30 44 1 1 40
M  V30 45 1 2 41
M  V30 46 1 2 42
M  V30 47 1 10 43
M  V30 48 1 11 44
M  V30 49 1 12 45
M  V30 50 1 13 46
M  V30 51 1 14 47
M  V30 52 1 21 48
M  V30 53 1 22 49
M  V30 54 1 23 50
M  V30 55 1 24 51
M  V30 56 1 25 52
M  V30 57 1 26 53
M  V30 58 1 29 54
M  V30 59 1 30 55
M  V30 60 1 31 56
M  V30 61 1 32 57
M  V30 62 1 33 58
M  V30 END BOND
M  V30 END CTAB
M  END
>  <Dataset>  (654) 
ChEMBL_Kinases

>  <Ligand_Instance>  (654) 
nan

>  <PDB_ID>  (654) 
nan

>  <Standardized_SMILES>  (654) 
CCOC(=O)c1nn(-c2ccccc2)/c(=N/c2nc(-c3ccccc3)cc(-c3ccccc3)c2C#N)s1

>  <Name>  (654) 
nan

>  <Pocket>  (654) 
nan

>  <ATP_Site>  (654) 
nan

>  <Peripheral>  (654) 
nan

>  <Num_H_Atoms_ProtBoundConf>  (654) 
nan

>  <Num_Resolved_Atoms>  (654) 
nan

>  <Num_Not_Resolved_Atoms>  (654) 
nan

$$$$
CHEMBL3408388
     RDKit          3D

  0  0  0  0  0  0  0  0  0  0999 V3000
M  V30 BEGIN CTAB
M  V30 COUNTS 61 65 0 0 0
M  V30 BEGIN ATOM
M  V30 1 C 3.495355 1.591502 6.051297 0
M  V30 2 C 3.918518 2.273160 4.757254 0
M  V30 3 O 3.160043 1.736547 3.683053 0
M  V30 4 C 3.358754 2.196658 2.380933 0
M  V30 5 O 4.217353 3.094453 2.158003 0
M  V30 6 C 2.567957 1.630001 1.296433 0
M  V30 7 N 2.585124 1.883866 0.118683 0
M  V30 8 N 1.836803 1.323063 -0.788330 0
M  V30 9 C 1.749096 1.519715 -2.198738 0
M  V30 10 C 2.734489 0.815336 -2.871537 0
M  V30 11 C 2.801644 0.890248 -4.262759 0
M  V30 12 C 1.901271 1.655836 -4.983165 0
M  V30 13 C 1.934975 1.765343 -6.468643 0
M  V30 14 C 0.932111 2.345052 -4.282973 0
M  V30 15 C 0.844346 2.287550 -2.907180 0
M  V30 16 C 0.925630 0.332862 -0.364262 0
M  V30 17 N 0.081931 -0.406740 -0.855670 0
M  V30 18 C -0.716095 -1.349963 -0.105367 0
M  V30 19 N -2.029929 -1.061311 -0.164959 0
M  V30 20 C -2.964000 -1.811753 0.464707 0
M  V30 21 C -4.380239 -1.508742 0.405976 0
M  V30 22 C -5.367103 -2.241656 1.029186 0
M  V30 23 C -6.658481 -1.809151 0.865445 0
M  V30 24 C -7.075786 -0.722758 0.146454 0
M  V30 25 C -6.087572 0.012841 -0.478745 0
M  V30 26 C -4.761177 -0.388825 -0.340565 0
M  V30 27 C -2.468908 -2.888854 1.168130 0
M  V30 28 C -1.111553 -3.209551 1.245486 0
M  V30 29 C -0.624392 -4.358441 2.000519 0
M  V30 30 C 0.448105 -4.422712 2.867395 0
M  V30 31 C 0.761032 -5.606080 3.496744 0
M  V30 32 C -0.024945 -6.716035 3.235370 0
M  V30 33 C -1.109449 -6.700514 2.374755 0
M  V30 34 C -1.392341 -5.482277 1.757861 0
M  V30 35 C -0.209252 -2.405062 0.581282 0
M  V30 36 C 1.187639 -2.628481 0.585212 0
M  V30 37 N 2.328395 -2.810251 0.582359 0
M  V30 38 S 1.247195 0.275597 1.508902 0
M  V30 39 H 4.069784 0.645103 6.209718 0
M  V30 40 H 2.416686 1.435779 6.025314 0
M  V30 41 H 3.799706 2.252572 6.901759 0
M  V30 42 H 3.770881 3.385729 4.849264 0
M  V30 43 H 4.996359 2.057338 4.622396 0
M  V30 44 H 3.495636 0.182669 -2.419993 0
M  V30 45 H 3.572397 0.342689 -4.826493 0
M  V30 46 H 0.973773 1.349542 -6.886980 0
M  V30 47 H 2.805060 1.260937 -6.894565 0
M  V30 48 H 1.915609 2.835978 -6.746854 0
M  V30 49 H 0.201866 2.959162 -4.791811 0
M  V30 50 H 0.123672 2.790293 -2.279128 0
M  V30 51 H -5.089319 -3.099578 1.602664 0
M  V30 52 H -7.445380 -2.395149 1.363509 0
M  V30 53 H -8.105198 -0.428995 0.051910 0
M  V30 54 H -6.313523 0.882402 -1.065983 0
M  V30 55 H -4.008991 0.226997 -0.855736 0
M  V30 56 H -3.105131 -3.548189 1.701216 0
M  V30 57 H 0.976256 -3.481253 2.979847 0
M  V30 58 H 1.605203 -5.611906 4.164631 0
M  V30 59 H 0.215726 -7.653173 3.728068 0
M  V30 60 H -1.673042 -7.603268 2.221732 0
M  V30 61 H -2.262391 -5.546764 1.092399 0
M  V30 END ATOM
M  V30 BEGIN BOND
M  V30 1 1 1 2
M  V30 2 1 2 3
M  V30 3 1 3 4
M  V30 4 2 4 5
M  V30 5 1 4 6
M  V30 6 2 6 7
M  V30 7 1 7 8
M  V30 8 1 8 9
M  V30 9 2 9 10
M  V30 10 1 10 11
M  V30 11 2 11 12
M  V30 12 1 12 13
M  V30 13 1 12 14
M  V30 14 2 14 15
M  V30 15 1 8 16
M  V30 16 2 16 17
M  V30 17 1 17 18
M  V30 18 2 18 19
M  V30 19 1 19 20
M  V30 20 1 20 21
M  V30 21 2 21 22
M  V30 22 1 22 23
M  V30 23 2 23 24
M  V30 24 1 24 25
M  V30 25 2 25 26
M  V30 26 2 20 27
M  V30 27 1 27 28
M  V30 28 1 28 29
M  V30 29 2 29 30
M  V30 30 1 30 31
M  V30 31 2 31 32
M  V30 32 1 32 33
M  V30 33 2 33 34
M  V30 34 2 28 35
M  V30 35 1 35 36
M  V30 36 3 36 37
M  V30 37 1 16 38
M  V30 38 1 38 6
M  V30 39 1 15 9
M  V30 40 1 35 18
M  V30 41 1 26 21
M  V30 42 1 34 29
M  V30 43 1 1 39
M  V30 44 1 1 40
M  V30 45 1 1 41
M  V30 46 1 2 42
M  V30 47 1 2 43
M  V30 48 1 10 44
M  V30 49 1 11 45
M  V30 50 1 13 46
M  V30 51 1 13 47
M  V30 52 1 13 48
M  V30 53 1 14 49
M  V30 54 1 15 50
M  V30 55 1 22 51
M  V30 56 1 23 52
M  V30 57 1 24 53
M  V30 58 1 25 54
M  V30 59 1 26 55
M  V30 60 1 27 56
M  V30 61 1 30 57
M  V30 62 1 31 58
M  V30 63 1 32 59
M  V30 64 1 33 60
M  V30 65 1 34 61
M  V30 END BOND
M  V30 END CTAB
M  END
>  <Dataset>  (655) 
ChEMBL_Kinases

>  <Ligand_Instance>  (655) 
nan

>  <PDB_ID>  (655) 
nan

>  <Standardized_SMILES>  (655) 
CCOC(=O)c1nn(-c2ccc(C)cc2)/c(=N/c2nc(-c3ccccc3)cc(-c3ccccc3)c2C#N)s1

>  <Name>  (655) 
nan

>  <Pocket>  (655) 
nan

>  <ATP_Site>  (655) 
nan

>  <Peripheral>  (655) 
nan

>  <Num_H_Atoms_ProtBoundConf>  (655) 
nan

>  <Num_Resolved_Atoms>  (655) 
nan

>  <Num_Not_Resolved_Atoms>  (655) 
nan

$$$$
CHEMBL3408389
     RDKit          3D

  0  0  0  0  0  0  0  0  0  0999 V3000
M  V30 BEGIN CTAB
M  V30 COUNTS 58 62 0 0 0
M  V30 BEGIN ATOM
M  V30 1 C 1.856614 -2.374981 7.274794 0
M  V30 2 C 2.942759 -1.422338 6.821369 0
M  V30 3 O 2.385480 -0.666761 5.735770 0
M  V30 4 C 1.944312 -1.304135 4.595166 0
M  V30 5 O 1.986556 -2.527892 4.411991 0
M  V30 6 C 1.416853 -0.335762 3.625260 0
M  V30 7 N 1.230169 0.792393 3.460739 0
M  V30 8 N 0.714004 1.392676 2.432521 0
M  V30 9 C 0.493021 2.800323 2.254228 0
M  V30 10 C 1.355515 3.675440 1.620096 0
M  V30 11 C 1.009198 5.009771 1.522714 0
M  V30 12 C -0.191501 5.440612 2.061142 0
M  V30 13 Cl -0.593080 7.137476 1.916975 0
M  V30 14 C -1.074488 4.585800 2.701758 0
M  V30 15 C -0.710329 3.247449 2.790642 0
M  V30 16 C 0.323587 0.632107 1.378344 0
M  V30 17 N -0.192535 0.826744 0.257874 0
M  V30 18 C -0.488930 -0.251359 -0.656379 0
M  V30 19 N -1.271854 -1.265278 -0.246495 0
M  V30 20 C -1.585700 -2.302250 -1.053478 0
M  V30 21 C -2.421962 -3.386237 -0.617259 0
M  V30 22 C -2.776121 -4.464772 -1.386749 0
M  V30 23 C -3.593987 -5.455495 -0.853237 0
M  V30 24 C -4.074651 -5.402827 0.438331 0
M  V30 25 C -3.730536 -4.318539 1.241975 0
M  V30 26 C -2.918423 -3.366259 0.663735 0
M  V30 27 C -1.040115 -2.231245 -2.318124 0
M  V30 28 C -0.227117 -1.198479 -2.774714 0
M  V30 29 C 0.313778 -1.194144 -4.130309 0
M  V30 30 C 0.862411 -2.382496 -4.621444 0
M  V30 31 C 1.388283 -2.441862 -5.892270 0
M  V30 32 C 1.379402 -1.328998 -6.694720 0
M  V30 33 C 0.851415 -0.151784 -6.246949 0
M  V30 34 C 0.325997 -0.099870 -4.971736 0
M  V30 35 C 0.066691 -0.160742 -1.916097 0
M  V30 36 C 0.889331 0.941621 -2.289778 0
M  V30 37 N 1.550365 1.833088 -2.571157 0
M  V30 38 S 0.776684 -1.101979 2.006179 0
M  V30 39 H 2.252981 -3.393978 7.421530 0
M  V30 40 H 0.970062 -2.375051 6.603219 0
M  V30 41 H 1.474787 -1.990653 8.256108 0
M  V30 42 H 3.806709 -1.992016 6.404858 0
M  V30 43 H 3.281190 -0.748722 7.613082 0
M  V30 44 H 2.265672 3.202445 1.242520 0
M  V30 45 H 1.711716 5.648814 1.021603 0
M  V30 46 H -2.009343 4.933330 3.118456 0
M  V30 47 H -1.427203 2.603618 3.300263 0
M  V30 48 H -2.412073 -4.527535 -2.400194 0
M  V30 49 H -3.831159 -6.281695 -1.528635 0
M  V30 50 H -4.713255 -6.193909 0.827947 0
M  V30 51 H -4.097873 -4.270629 2.240832 0
M  V30 52 H -2.684964 -2.540331 1.348064 0
M  V30 53 H -1.223100 -2.997770 -3.038058 0
M  V30 54 H 0.889467 -3.284280 -4.020857 0
M  V30 55 H 1.831656 -3.316353 -6.352796 0
M  V30 56 H 1.769267 -1.280265 -7.705591 0
M  V30 57 H 0.814309 0.766840 -6.834897 0
M  V30 58 H -0.095331 0.821269 -4.600898 0
M  V30 END ATOM
M  V30 BEGIN BOND
M  V30 1 1 1 2
M  V30 2 1 2 3
M  V30 3 1 3 4
M  V30 4 2 4 5
M  V30 5 1 4 6
M  V30 6 2 6 7
M  V30 7 1 7 8
M  V30 8 1 8 9
M  V30 9 2 9 10
M  V30 10 1 10 11
M  V30 11 2 11 12
M  V30 12 1 12 13
M  V30 13 1 12 14
M  V30 14 2 14 15
M  V30 15 1 8 16
M  V30 16 2 16 17
M  V30 17 1 17 18
M  V30 18 2 18 19
M  V30 19 1 19 20
M  V30 20 1 20 21
M  V30 21 2 21 22
M  V30 22 1 22 23
M  V30 23 2 23 24
M  V30 24 1 24 25
M  V30 25 2 25 26
M  V30 26 2 20 27
M  V30 27 1 27 28
M  V30 28 1 28 29
M  V30 29 2 29 30
M  V30 30 1 30 31
M  V30 31 2 31 32
M  V30 32 1 32 33
M  V30 33 2 33 34
M  V30 34 2 28 35
M  V30 35 1 35 36
M  V30 36 3 36 37
M  V30 37 1 16 38
M  V30 38 1 38 6
M  V30 39 1 15 9
M  V30 40 1 35 18
M  V30 41 1 26 21
M  V30 42 1 34 29
M  V30 43 1 1 39
M  V30 44 1 1 40
M  V30 45 1 1 41
M  V30 46 1 2 42
M  V30 47 1 2 43
M  V30 48 1 10 44
M  V30 49 1 11 45
M  V30 50 1 14 46
M  V30 51 1 15 47
M  V30 52 1 22 48
M  V30 53 1 23 49
M  V30 54 1 24 50
M  V30 55 1 25 51
M  V30 56 1 26 52
M  V30 57 1 27 53
M  V30 58 1 30 54
M  V30 59 1 31 55
M  V30 60 1 32 56
M  V30 61 1 33 57
M  V30 62 1 34 58
M  V30 END BOND
M  V30 END CTAB
M  END
>  <Dataset>  (656) 
ChEMBL_Kinases

>  <Ligand_Instance>  (656) 
nan

>  <PDB_ID>  (656) 
nan

>  <Standardized_SMILES>  (656) 
CCOC(=O)c1nn(-c2ccc(Cl)cc2)/c(=N/c2nc(-c3ccccc3)cc(-c3ccccc3)c2C#N)s1

>  <Name>  (656) 
nan

>  <Pocket>  (656) 
nan

>  <ATP_Site>  (656) 
nan

>  <Peripheral>  (656) 
nan

>  <Num_H_Atoms_ProtBoundConf>  (656) 
nan

>  <Num_Resolved_Atoms>  (656) 
nan

>  <Num_Not_Resolved_Atoms>  (656) 
nan

$$$$
CHEMBL3408390
     RDKit          3D

  0  0  0  0  0  0  0  0  0  0999 V3000
M  V30 BEGIN CTAB
M  V30 COUNTS 63 68 0 0 0
M  V30 BEGIN ATOM
M  V30 1 N 3.328525 0.163570 2.953261 0
M  V30 2 C 2.516702 0.615355 2.262839 0
M  V30 3 C 1.515713 1.161049 1.390449 0
M  V30 4 C 1.797814 1.967526 0.303799 0
M  V30 5 C 3.192332 2.286331 0.021844 0
M  V30 6 C 4.190802 2.677165 0.891553 0
M  V30 7 C 5.454724 2.931427 0.407271 0
M  V30 8 C 5.715238 2.794541 -0.940354 0
M  V30 9 C 4.756341 2.411816 -1.824238 0
M  V30 10 C 3.476899 2.153265 -1.341705 0
M  V30 11 C 0.751031 2.442620 -0.475890 0
M  V30 12 C -0.568544 2.141630 -0.210034 0
M  V30 13 C -1.626154 2.666668 -1.060249 0
M  V30 14 C -1.472060 3.477467 -2.167611 0
M  V30 15 C -2.565198 3.909018 -2.892168 0
M  V30 16 C -3.852510 3.553468 -2.546861 0
M  V30 17 C -4.064090 2.744966 -1.449299 0
M  V30 18 C -2.948348 2.335876 -0.753307 0
M  V30 19 N -0.859716 1.347651 0.858233 0
M  V30 20 C 0.173535 0.903287 1.593721 0
M  V30 21 N -0.266825 0.075784 2.691396 0
M  V30 22 C -0.618824 -1.129960 2.374154 0
M  V30 23 S -0.598874 -1.828340 0.709246 0
M  V30 24 C -1.257368 -3.505947 1.384433 0
M  V30 25 C -1.543725 -4.721280 0.611875 0
M  V30 26 O -1.970792 -5.762352 1.152766 0
M  V30 27 N -1.287831 -4.589388 -0.791785 0
M  V30 28 C -1.366689 -5.370770 -1.984909 0
M  V30 29 C -0.239348 -6.110939 -2.350110 0
M  V30 30 C -0.310990 -6.877876 -3.517527 0
M  V30 31 C -1.491500 -6.851444 -4.230171 0
M  V30 32 C -2.601827 -6.122298 -3.870266 0
M  V30 33 C -2.545006 -5.374160 -2.739779 0
M  V30 34 N -1.326611 -3.218830 2.472820 0
M  V30 35 N -1.058050 -2.122367 3.102348 0
M  V30 36 C -1.210999 -1.934225 4.527354 0
M  V30 37 C -2.435478 -1.739930 5.140665 0
M  V30 38 C -2.451425 -1.571506 6.513532 0
M  V30 39 C -1.305588 -1.589397 7.288296 0
M  V30 40 C -0.075643 -1.787011 6.652081 0
M  V30 41 C -0.040897 -1.957492 5.277421 0
M  V30 42 H 3.838850 2.740428 1.910154 0
M  V30 43 H 6.185067 3.233670 1.151306 0
M  V30 44 H 6.735191 3.013022 -1.243487 0
M  V30 45 H 5.039578 2.327322 -2.865327 0
M  V30 46 H 2.768634 1.852286 -2.115148 0
M  V30 47 H 1.070225 3.054097 -1.287686 0
M  V30 48 H -0.470587 3.745174 -2.423907 0
M  V30 49 H -2.402758 4.541049 -3.750501 0
M  V30 50 H -4.715542 3.893520 -3.117985 0
M  V30 51 H -5.044910 2.436340 -1.133850 0
M  V30 52 H -3.119916 1.695669 0.115329 0
M  V30 53 H -0.928485 -3.703223 -1.224561 0
M  V30 54 H 0.648892 -6.056955 -1.705847 0
M  V30 55 H 0.560550 -7.446130 -3.794061 0
M  V30 56 H -1.483800 -7.465919 -5.124074 0
M  V30 57 H -3.510127 -6.128630 -4.457599 0
M  V30 58 H -3.346685 -4.759126 -2.350353 0
M  V30 59 H -3.326193 -1.727392 4.527131 0
M  V30 60 H -3.414576 -1.416982 7.009880 0
M  V30 61 H -1.399112 -1.449258 8.366031 0
M  V30 62 H 0.822598 -1.800580 7.263186 0
M  V30 63 H 0.928900 -2.105919 4.836567 0
M  V30 END ATOM
M  V30 BEGIN BOND
M  V30 1 3 1 2
M  V30 2 1 2 3
M  V30 3 2 3 4
M  V30 4 1 4 5
M  V30 5 2 5 6
M  V30 6 1 6 7
M  V30 7 2 7 8
M  V30 8 1 8 9
M  V30 9 2 9 10
M  V30 10 1 4 11
M  V30 11 2 11 12
M  V30 12 1 12 13
M  V30 13 2 13 14
M  V30 14 1 14 15
M  V30 15 2 15 16
M  V30 16 1 16 17
M  V30 17 2 17 18
M  V30 18 1 12 19
M  V30 19 2 19 20
M  V30 20 1 20 21
M  V30 21 2 21 22
M  V30 22 1 22 23
M  V30 23 1 23 24
M  V30 24 1 24 25
M  V30 25 2 25 26
M  V30 26 1 25 27
M  V30 27 1 27 28
M  V30 28 2 28 29
M  V30 29 1 29 30
M  V30 30 2 30 31
M  V30 31 1 31 32
M  V30 32 2 32 33
M  V30 33 2 24 34
M  V30 34 1 34 35
M  V30 35 1 35 36
M  V30 36 2 36 37
M  V30 37 1 37 38
M  V30 38 2 38 39
M  V30 39 1 39 40
M  V30 40 2 40 41
M  V30 41 1 20 3
M  V30 42 1 35 22
M  V30 43 1 41 36
M  V30 44 1 10 5
M  V30 45 1 18 13
M  V30 46 1 33 28
M  V30 47 1 6 42
M  V30 48 1 7 43
M  V30 49 1 8 44
M  V30 50 1 9 45
M  V30 51 1 10 46
M  V30 52 1 11 47
M  V30 53 1 14 48
M  V30 54 1 15 49
M  V30 55 1 16 50
M  V30 56 1 17 51
M  V30 57 1 18 52
M  V30 58 1 27 53
M  V30 59 1 29 54
M  V30 60 1 30 55
M  V30 61 1 31 56
M  V30 62 1 32 57
M  V30 63 1 33 58
M  V30 64 1 37 59
M  V30 65 1 38 60
M  V30 66 1 39 61
M  V30 67 1 40 62
M  V30 68 1 41 63
M  V30 END BOND
M  V30 END CTAB
M  END
>  <Dataset>  (657) 
ChEMBL_Kinases

>  <Ligand_Instance>  (657) 
nan

>  <PDB_ID>  (657) 
nan

>  <Standardized_SMILES>  (657) 
N#Cc1c(-c2ccccc2)cc(-c2ccccc2)nc1/N=c1\sc(C(=O)Nc2ccccc2)nn1-c1ccccc1

>  <Name>  (657) 
nan

>  <Pocket>  (657) 
nan

>  <ATP_Site>  (657) 
nan

>  <Peripheral>  (657) 
nan

>  <Num_H_Atoms_ProtBoundConf>  (657) 
nan

>  <Num_Resolved_Atoms>  (657) 
nan

>  <Num_Not_Resolved_Atoms>  (657) 
nan

$$$$
CHEMBL3408391
     RDKit          3D

  0  0  0  0  0  0  0  0  0  0999 V3000
M  V30 BEGIN CTAB
M  V30 COUNTS 51 55 0 0 0
M  V30 BEGIN ATOM
M  V30 1 N 0.415630 -3.828867 2.060264 0
M  V30 2 C 0.616770 -2.721348 1.804424 0
M  V30 3 C 0.856924 -1.341574 1.502409 0
M  V30 4 C 2.077271 -0.748276 1.750951 0
M  V30 5 C 3.179532 -1.523165 2.339649 0
M  V30 6 C 3.871132 -0.891249 3.368208 0
M  V30 7 C 4.944450 -1.456391 4.053107 0
M  V30 8 C 5.301253 -2.730717 3.640264 0
M  V30 9 C 4.639542 -3.376470 2.631906 0
M  V30 10 C 3.582285 -2.792884 1.973106 0
M  V30 11 C 2.238101 0.585500 1.434829 0
M  V30 12 C 1.260772 1.386023 0.881331 0
M  V30 13 C 1.469058 2.792883 0.560930 0
M  V30 14 C 2.635602 3.484569 0.763931 0
M  V30 15 C 2.746687 4.818207 0.430885 0
M  V30 16 C 1.669449 5.485562 -0.119615 0
M  V30 17 C 0.476486 4.812962 -0.336873 0
M  V30 18 C 0.409783 3.483766 0.009987 0
M  V30 19 N 0.091807 0.758727 0.659640 0
M  V30 20 C -0.102532 -0.539507 0.954539 0
M  V30 21 N -1.382412 -1.103495 0.677706 0
M  V30 22 C -1.503776 -2.021501 -0.182306 0
M  V30 23 S -0.089907 -2.665196 -1.098149 0
M  V30 24 C -0.975238 -4.036193 -1.898118 0
M  V30 25 C -2.268706 -4.002319 -1.160927 0
M  V30 26 O -2.907449 -5.108700 -1.074629 0
M  V30 27 N -2.636102 -2.745513 -0.643214 0
M  V30 28 C -3.972471 -2.267506 -0.589281 0
M  V30 29 C -5.053886 -2.999588 -1.032470 0
M  V30 30 C -6.367354 -2.580093 -1.003625 0
M  V30 31 C -6.643865 -1.329225 -0.493764 0
M  V30 32 C -5.611393 -0.542993 -0.032866 0
M  V30 33 C -4.327945 -1.031654 -0.095190 0
M  V30 34 H 3.600639 0.120559 3.708148 0
M  V30 35 H 5.446433 -0.925308 4.842357 0
M  V30 36 H 6.138685 -3.233886 4.137953 0
M  V30 37 H 4.926535 -4.378024 2.313691 0
M  V30 38 H 3.010344 -3.241312 1.166237 0
M  V30 39 H 3.214062 0.996983 1.651092 0
M  V30 40 H 3.466929 2.965796 1.189822 0
M  V30 41 H 3.661379 5.353885 0.591912 0
M  V30 42 H 1.751560 6.550580 -0.387822 0
M  V30 43 H -0.361870 5.361927 -0.773519 0
M  V30 44 H -0.549741 2.994793 -0.179209 0
M  V30 45 H -1.097073 -3.896239 -2.989900 0
M  V30 46 H -0.386000 -4.964467 -1.668228 0
M  V30 47 H -4.916108 -3.986673 -1.444579 0
M  V30 48 H -7.187808 -3.162096 -1.351375 0
M  V30 49 H -7.663609 -0.982804 -0.462373 0
M  V30 50 H -5.867080 0.429226 0.358660 0
M  V30 51 H -3.579073 -0.353421 0.284750 0
M  V30 END ATOM
M  V30 BEGIN BOND
M  V30 1 3 1 2
M  V30 2 1 2 3
M  V30 3 2 3 4
M  V30 4 1 4 5
M  V30 5 2 5 6
M  V30 6 1 6 7
M  V30 7 2 7 8
M  V30 8 1 8 9
M  V30 9 2 9 10
M  V30 10 1 4 11
M  V30 11 2 11 12
M  V30 12 1 12 13
M  V30 13 2 13 14
M  V30 14 1 14 15
M  V30 15 2 15 16
M  V30 16 1 16 17
M  V30 17 2 17 18
M  V30 18 1 12 19
M  V30 19 2 19 20
M  V30 20 1 20 21
M  V30 21 2 21 22
M  V30 22 1 22 23
M  V30 23 1 23 24
M  V30 24 1 24 25
M  V30 25 2 25 26
M  V30 26 1 25 27
M  V30 27 1 27 28
M  V30 28 2 28 29
M  V30 29 1 29 30
M  V30 30 2 30 31
M  V30 31 1 31 32
M  V30 32 2 32 33
M  V30 33 1 20 3
M  V30 34 1 27 22
M  V30 35 1 33 28
M  V30 36 1 10 5
M  V30 37 1 18 13
M  V30 38 1 6 34
M  V30 39 1 7 35
M  V30 40 1 8 36
M  V30 41 1 9 37
M  V30 42 1 10 38
M  V30 43 1 11 39
M  V30 44 1 14 40
M  V30 45 1 15 41
M  V30 46 1 16 42
M  V30 47 1 17 43
M  V30 48 1 18 44
M  V30 49 1 24 45
M  V30 50 1 24 46
M  V30 51 1 29 47
M  V30 52 1 30 48
M  V30 53 1 31 49
M  V30 54 1 32 50
M  V30 55 1 33 51
M  V30 END BOND
M  V30 END CTAB
M  END
>  <Dataset>  (658) 
ChEMBL_Kinases

>  <Ligand_Instance>  (658) 
nan

>  <PDB_ID>  (658) 
nan

>  <Standardized_SMILES>  (658) 
N#Cc1c(-c2ccccc2)cc(-c2ccccc2)nc1/N=C1\SCC(=O)N1c1ccccc1

>  <Name>  (658) 
nan

>  <Pocket>  (658) 
nan

>  <ATP_Site>  (658) 
nan

>  <Peripheral>  (658) 
nan

>  <Num_H_Atoms_ProtBoundConf>  (658) 
nan

>  <Num_Resolved_Atoms>  (658) 
nan

>  <Num_Not_Resolved_Atoms>  (658) 
nan

$$$$
CHEMBL3408392
     RDKit          3D

  0  0  0  0  0  0  0  0  0  0999 V3000
M  V30 BEGIN CTAB
M  V30 COUNTS 60 65 0 0 0
M  V30 BEGIN ATOM
M  V30 1 N 2.585910 -1.961211 2.799274 0
M  V30 2 C 1.963420 -1.052393 2.489462 0
M  V30 3 C 1.173680 0.086914 2.074635 0
M  V30 4 C 1.421540 1.313811 2.690323 0
M  V30 5 C 2.435408 1.475965 3.726720 0
M  V30 6 C 2.634960 0.640869 4.805213 0
M  V30 7 C 3.614676 0.849959 5.750836 0
M  V30 8 C 4.427810 1.957841 5.592727 0
M  V30 9 C 4.302388 2.846664 4.547678 0
M  V30 10 C 3.289661 2.566615 3.634627 0
M  V30 11 C 0.633775 2.385318 2.253661 0
M  V30 12 C -0.332832 2.308852 1.292583 0
M  V30 13 C -1.112952 3.460861 0.887398 0
M  V30 14 C -0.959504 4.720060 1.421457 0
M  V30 15 C -1.684239 5.829390 1.056693 0
M  V30 16 C -2.650051 5.710262 0.082103 0
M  V30 17 C -2.866963 4.463441 -0.509726 0
M  V30 18 C -2.086344 3.392685 -0.078838 0
M  V30 19 N -0.527035 1.100952 0.734766 0
M  V30 20 C 0.177192 0.038765 1.093103 0
M  V30 21 N 0.045180 -1.272930 0.563575 0
M  V30 22 C -0.580077 -1.528279 -0.470524 0
M  V30 23 S -1.456830 -0.237271 -1.512183 0
M  V30 24 C -2.048491 -1.436296 -2.728384 0
M  V30 25 C -1.539171 -2.688594 -2.247909 0
M  V30 26 C -1.845011 -3.886841 -3.018059 0
M  V30 27 C -0.928774 -4.857364 -3.332082 0
M  V30 28 C -1.227526 -5.985504 -4.059046 0
M  V30 29 C -2.535547 -6.122110 -4.484747 0
M  V30 30 C -3.523293 -5.180515 -4.206370 0
M  V30 31 C -3.138014 -4.080880 -3.472768 0
M  V30 32 N -0.824420 -2.750805 -1.153402 0
M  V30 33 C -0.252292 -3.890544 -0.548620 0
M  V30 34 C 1.126981 -3.892992 -0.388387 0
M  V30 35 C 1.654111 -5.020987 0.205822 0
M  V30 36 C 0.871908 -6.075049 0.614136 0
M  V30 37 C -0.492155 -6.040202 0.440391 0
M  V30 38 C -1.066152 -4.934670 -0.148619 0
M  V30 39 H 1.975416 -0.210862 4.888406 0
M  V30 40 H 3.714812 0.163801 6.561772 0
M  V30 41 H 5.199755 2.107016 6.353414 0
M  V30 42 H 4.943777 3.704923 4.438947 0
M  V30 43 H 3.186349 3.257667 2.815118 0
M  V30 44 H 0.869477 3.307472 2.763970 0
M  V30 45 H -0.225370 4.905291 2.191446 0
M  V30 46 H -1.525613 6.808575 1.510231 0
M  V30 47 H -3.250453 6.530047 -0.250389 0
M  V30 48 H -3.619758 4.362640 -1.271751 0
M  V30 49 H -2.316075 2.469180 -0.583778 0
M  V30 50 H -2.617716 -1.246315 -3.565521 0
M  V30 51 H 0.076133 -4.705667 -2.978049 0
M  V30 52 H -0.443619 -6.688176 -4.254411 0
M  V30 53 H -2.814263 -6.990373 -5.057405 0
M  V30 54 H -4.536096 -5.320054 -4.555239 0
M  V30 55 H -3.931587 -3.356058 -3.267320 0
M  V30 56 H 1.749694 -3.065815 -0.707635 0
M  V30 57 H 2.737325 -5.030335 0.335226 0
M  V30 58 H 1.368269 -6.904205 1.063428 0
M  V30 59 H -1.137960 -6.852025 0.750005 0
M  V30 60 H -2.126751 -4.845475 -0.313115 0
M  V30 END ATOM
M  V30 BEGIN BOND
M  V30 1 3 1 2
M  V30 2 1 2 3
M  V30 3 2 3 4
M  V30 4 1 4 5
M  V30 5 2 5 6
M  V30 6 1 6 7
M  V30 7 2 7 8
M  V30 8 1 8 9
M  V30 9 2 9 10
M  V30 10 1 4 11
M  V30 11 2 11 12
M  V30 12 1 12 13
M  V30 13 2 13 14
M  V30 14 1 14 15
M  V30 15 2 15 16
M  V30 16 1 16 17
M  V30 17 2 17 18
M  V30 18 1 12 19
M  V30 19 2 19 20
M  V30 20 1 20 21
M  V30 21 2 21 22
M  V30 22 1 22 23
M  V30 23 1 23 24
M  V30 24 2 24 25
M  V30 25 1 25 26
M  V30 26 2 26 27
M  V30 27 1 27 28
M  V30 28 2 28 29
M  V30 29 1 29 30
M  V30 30 2 30 31
M  V30 31 1 25 32
M  V30 32 1 32 33
M  V30 33 2 33 34
M  V30 34 1 34 35
M  V30 35 2 35 36
M  V30 36 1 36 37
M  V30 37 2 37 38
M  V30 38 1 20 3
M  V30 39 1 32 22
M  V30 40 1 38 33
M  V30 41 1 10 5
M  V30 42 1 18 13
M  V30 43 1 31 26
M  V30 44 1 6 39
M  V30 45 1 7 40
M  V30 46 1 8 41
M  V30 47 1 9 42
M  V30 48 1 10 43
M  V30 49 1 11 44
M  V30 50 1 14 45
M  V30 51 1 15 46
M  V30 52 1 16 47
M  V30 53 1 17 48
M  V30 54 1 18 49
M  V30 55 1 24 50
M  V30 56 1 27 51
M  V30 57 1 28 52
M  V30 58 1 29 53
M  V30 59 1 30 54
M  V30 60 1 31 55
M  V30 61 1 34 56
M  V30 62 1 35 57
M  V30 63 1 36 58
M  V30 64 1 37 59
M  V30 65 1 38 60
M  V30 END BOND
M  V30 END CTAB
M  END
>  <Dataset>  (659) 
ChEMBL_Kinases

>  <Ligand_Instance>  (659) 
nan

>  <PDB_ID>  (659) 
nan

>  <Standardized_SMILES>  (659) 
N#Cc1c(-c2ccccc2)cc(-c2ccccc2)nc1/N=c1\scc(-c2ccccc2)n1-c1ccccc1

>  <Name>  (659) 
nan

>  <Pocket>  (659) 
nan

>  <ATP_Site>  (659) 
nan

>  <Peripheral>  (659) 
nan

>  <Num_H_Atoms_ProtBoundConf>  (659) 
nan

>  <Num_Resolved_Atoms>  (659) 
nan

>  <Num_Not_Resolved_Atoms>  (659) 
nan

$$$$
CHEMBL3408384
     RDKit          3D

  0  0  0  0  0  0  0  0  0  0999 V3000
M  V30 BEGIN CTAB
M  V30 COUNTS 57 61 0 0 0
M  V30 BEGIN ATOM
M  V30 1 C 2.675192 -1.360488 5.998541 0
M  V30 2 C 2.969782 -0.451652 4.838899 0
M  V30 3 O 4.026225 0.177743 5.310521 0
M  V30 4 C 1.879319 -0.739531 3.716053 0
M  V30 5 N 2.388032 0.027524 3.044839 0
M  V30 6 N 2.340763 0.597843 1.901918 0
M  V30 7 C 2.874938 1.525318 0.890967 0
M  V30 8 C 3.652726 0.932081 -0.122840 0
M  V30 9 C 4.233947 1.672197 -1.169196 0
M  V30 10 C 3.951224 3.004488 -1.076592 0
M  V30 11 C 4.561372 3.778685 -2.212808 0
M  V30 12 C 3.208509 3.641639 -0.121807 0
M  V30 13 C 2.656334 2.898923 0.885117 0
M  V30 14 C 1.262329 0.099093 1.209937 0
M  V30 15 N 0.555709 0.133426 0.116752 0
M  V30 16 C -0.587074 -0.689879 -0.085538 0
M  V30 17 N -1.695429 -0.559410 0.655228 0
M  V30 18 C -2.781433 -1.323285 0.462112 0
M  V30 19 C -3.902772 -1.100700 1.333161 0
M  V30 20 C -3.989343 -0.234941 2.311123 0
M  V30 21 C -4.758164 0.277252 3.300691 0
M  V30 22 C -5.978370 -0.477688 3.188494 0
M  V30 23 C -6.081799 -1.426041 2.228768 0
M  V30 24 C -5.147130 -1.828087 1.264377 0
M  V30 25 C -2.776503 -2.270390 -0.514752 0
M  V30 26 C -1.613986 -2.373907 -1.253439 0
M  V30 27 C -1.588355 -3.411394 -2.281522 0
M  V30 28 C -2.661569 -3.464837 -3.139856 0
M  V30 29 C -2.668338 -4.443047 -4.108911 0
M  V30 30 C -1.641933 -5.377793 -4.258408 0
M  V30 31 C -0.654962 -5.192803 -3.334677 0
M  V30 32 C -0.467455 -4.297656 -2.313001 0
M  V30 33 C -0.433410 -1.611316 -1.113199 0
M  V30 34 C 0.716178 -1.793303 -1.931073 0
M  V30 35 N 1.624772 -1.951433 -2.589528 0
M  V30 36 S 0.597632 -1.077217 2.395096 0
M  V30 37 H 2.324534 -0.706662 6.820094 0
M  V30 38 H 3.604924 -1.867493 6.297192 0
M  V30 39 H 1.882059 -2.098600 5.720178 0
M  V30 40 H 3.811200 -0.158007 -0.096098 0
M  V30 41 H 4.823604 1.194217 -1.931490 0
M  V30 42 H 4.031332 3.571974 -3.165026 0
M  V30 43 H 5.598802 3.445410 -2.388280 0
M  V30 44 H 4.572978 4.852435 -1.985173 0
M  V30 45 H 3.036236 4.692387 -0.110739 0
M  V30 46 H 2.057486 3.212812 1.706078 0
M  V30 47 H -3.021347 0.372519 2.389514 0
M  V30 48 H -4.645028 1.016875 4.034913 0
M  V30 49 H -6.824961 -0.297939 3.865827 0
M  V30 50 H -7.033877 -2.016562 2.140620 0
M  V30 51 H -5.254019 -2.581111 0.516001 0
M  V30 52 H -3.641148 -2.867305 -0.657860 0
M  V30 53 H -3.468855 -2.752218 -3.047883 0
M  V30 54 H -3.483340 -4.533499 -4.816982 0
M  V30 55 H -1.594605 -6.163340 -4.993104 0
M  V30 56 H 0.182790 -5.904714 -3.401185 0
M  V30 57 H 0.356294 -4.234341 -1.630951 0
M  V30 END ATOM
M  V30 BEGIN BOND
M  V30 1 1 1 2
M  V30 2 2 2 3
M  V30 3 1 2 4
M  V30 4 2 4 5
M  V30 5 1 5 6
M  V30 6 1 6 7
M  V30 7 2 7 8
M  V30 8 1 8 9
M  V30 9 2 9 10
M  V30 10 1 10 11
M  V30 11 1 10 12
M  V30 12 2 12 13
M  V30 13 1 6 14
M  V30 14 2 14 15
M  V30 15 1 15 16
M  V30 16 2 16 17
M  V30 17 1 17 18
M  V30 18 1 18 19
M  V30 19 2 19 20
M  V30 20 1 20 21
M  V30 21 2 21 22
M  V30 22 1 22 23
M  V30 23 2 23 24
M  V30 24 2 18 25
M  V30 25 1 25 26
M  V30 26 1 26 27
M  V30 27 2 27 28
M  V30 28 1 28 29
M  V30 29 2 29 30
M  V30 30 1 30 31
M  V30 31 2 31 32
M  V30 32 2 26 33
M  V30 33 1 33 34
M  V30 34 3 34 35
M  V30 35 1 14 36
M  V30 36 1 36 4
M  V30 37 1 13 7
M  V30 38 1 33 16
M  V30 39 1 24 19
M  V30 40 1 32 27
M  V30 41 1 1 37
M  V30 42 1 1 38
M  V30 43 1 1 39
M  V30 44 1 8 40
M  V30 45 1 9 41
M  V30 46 1 11 42
M  V30 47 1 11 43
M  V30 48 1 11 44
M  V30 49 1 12 45
M  V30 50 1 13 46
M  V30 51 1 20 47
M  V30 52 1 21 48
M  V30 53 1 22 49
M  V30 54 1 23 50
M  V30 55 1 24 51
M  V30 56 1 25 52
M  V30 57 1 28 53
M  V30 58 1 29 54
M  V30 59 1 30 55
M  V30 60 1 31 56
M  V30 61 1 32 57
M  V30 END BOND
M  V30 END CTAB
M  END
>  <Dataset>  (660) 
ChEMBL_Kinases

>  <Ligand_Instance>  (660) 
nan

>  <PDB_ID>  (660) 
nan

>  <Standardized_SMILES>  (660) 
CC(=O)c1nn(-c2ccc(C)cc2)/c(=N/c2nc(-c3ccccc3)cc(-c3ccccc3)c2C#N)s1

>  <Name>  (660) 
nan

>  <Pocket>  (660) 
nan

>  <ATP_Site>  (660) 
nan

>  <Peripheral>  (660) 
nan

>  <Num_H_Atoms_ProtBoundConf>  (660) 
nan

>  <Num_Resolved_Atoms>  (660) 
nan

>  <Num_Not_Resolved_Atoms>  (660) 
nan

$$$$
CHEMBL3409585
     RDKit          3D

  0  0  0  0  0  0  0  0  0  0999 V3000
M  V30 BEGIN CTAB
M  V30 COUNTS 53 56 0 0 0
M  V30 BEGIN ATOM
M  V30 1 O -2.768036 -3.717860 1.625921 0
M  V30 2 C -2.307585 -2.726991 1.005175 0
M  V30 3 C -1.268441 -2.021747 1.574077 0
M  V30 4 C -0.704806 -0.923154 0.961342 0
M  V30 5 C 0.393419 -0.153869 1.531495 0
M  V30 6 C 0.968940 -0.448785 2.728224 0
M  V30 7 C 2.006753 0.299007 3.239888 0
M  V30 8 N 2.450128 1.346156 2.522318 0
M  V30 9 C 1.911791 1.661749 1.351825 0
M  V30 10 N 2.362752 2.762604 0.575481 0
M  V30 11 C 3.435758 3.607114 1.016344 0
M  V30 12 C 3.164602 4.314632 2.326235 0
M  V30 13 C 4.448254 5.074746 2.655312 0
M  V30 14 O 5.364761 5.054093 1.620124 0
M  V30 15 C 5.833566 3.799603 1.293865 0
M  V30 16 C 4.696613 2.769361 1.260213 0
M  V30 17 N 0.891263 0.900872 0.881495 0
M  V30 18 C -1.233118 -0.558254 -0.258673 0
M  V30 19 C -2.285011 -1.308315 -0.788081 0
M  V30 20 N -2.829417 -2.380269 -0.182303 0
M  V30 21 C -3.911562 -3.074104 -0.828587 0
M  V30 22 C -4.127049 -2.638855 -2.245056 0
M  V30 23 O -3.085418 -2.804110 -3.105287 0
M  V30 24 C -3.907844 -4.539706 -0.625997 0
M  V30 25 C -4.618712 -5.266939 0.309618 0
M  V30 26 C -4.537020 -6.629088 0.409382 0
M  V30 27 F -5.291078 -7.241876 1.379157 0
M  V30 28 C -3.717080 -7.359290 -0.444900 0
M  V30 29 C -3.010588 -6.639657 -1.374432 0
M  V30 30 Cl -1.991030 -7.640131 -2.423354 0
M  V30 31 C -3.082870 -5.273022 -1.485832 0
M  V30 32 H -0.891520 -2.350618 2.532382 0
M  V30 33 H 0.640334 -1.270854 3.319380 0
M  V30 34 H 2.452139 0.049188 4.193763 0
M  V30 35 H 1.920027 2.984990 -0.342351 0
M  V30 36 H 3.677153 4.406964 0.288060 0
M  V30 37 H 3.062811 3.556956 3.127013 0
M  V30 38 H 2.281098 4.981940 2.259897 0
M  V30 39 H 4.888291 4.782672 3.616726 0
M  V30 40 H 4.142621 6.151809 2.760104 0
M  V30 41 H 6.203143 3.849126 0.243329 0
M  V30 42 H 6.683427 3.447312 1.916827 0
M  V30 43 H 4.851659 2.013139 0.485587 0
M  V30 44 H 4.619113 2.365308 2.291173 0
M  V30 45 H -0.802185 0.293348 -0.742089 0
M  V30 46 H -2.607936 -0.919617 -1.747767 0
M  V30 47 H -4.843469 -2.716483 -0.293079 0
M  V30 48 H -4.464870 -1.582436 -2.248267 0
M  V30 49 H -5.001549 -3.200064 -2.685519 0
M  V30 50 H -3.056216 -2.114204 -3.803535 0
M  V30 51 H -5.257636 -4.661758 0.967910 0
M  V30 52 H -3.695357 -8.432431 -0.316354 0
M  V30 53 H -2.466947 -4.892181 -2.260577 0
M  V30 END ATOM
M  V30 BEGIN BOND
M  V30 1 2 1 2
M  V30 2 1 2 3
M  V30 3 2 3 4
M  V30 4 1 4 5
M  V30 5 2 5 6
M  V30 6 1 6 7
M  V30 7 2 7 8
M  V30 8 1 8 9
M  V30 9 1 9 10
M  V30 10 1 10 11
M  V30 11 1 11 12
M  V30 12 1 12 13
M  V30 13 1 13 14
M  V30 14 1 14 15
M  V30 15 1 15 16
M  V30 16 2 9 17
M  V30 17 1 4 18
M  V30 18 2 18 19
M  V30 19 1 19 20
M  V30 20 1 20 21
M  V30 21 1 21 22
M  V30 22 1 22 23
M  V30 23 1 21 24
M  V30 24 2 24 25
M  V30 25 1 25 26
M  V30 26 1 26 27
M  V30 27 2 26 28
M  V30 28 1 28 29
M  V30 29 1 29 30
M  V30 30 2 29 31
M  V30 31 1 20 2
M  V30 32 1 31 24
M  V30 33 1 17 5
M  V30 34 1 16 11
M  V30 35 1 3 32
M  V30 36 1 6 33
M  V30 37 1 7 34
M  V30 38 1 10 35
M  V30 39 1 11 36
M  V30 40 1 12 37
M  V30 41 1 12 38
M  V30 42 1 13 39
M  V30 43 1 13 40
M  V30 44 1 15 41
M  V30 45 1 15 42
M  V30 46 1 16 43
M  V30 47 1 16 44
M  V30 48 1 18 45
M  V30 49 1 19 46
M  V30 50 1 21 47
M  V30 51 1 22 48
M  V30 52 1 22 49
M  V30 53 1 23 50
M  V30 54 1 25 51
M  V30 55 1 28 52
M  V30 56 1 31 53
M  V30 END BOND
M  V30 END CTAB
M  END
>  <Dataset>  (661) 
ChEMBL_Kinases

>  <Ligand_Instance>  (661) 
nan

>  <PDB_ID>  (661) 
nan

>  <Standardized_SMILES>  (661) 
O=c1cc(-c2ccnc(NC3CCOCC3)n2)ccn1C(CO)c1cc(F)cc(Cl)c1

>  <Name>  (661) 
nan

>  <Pocket>  (661) 
nan

>  <ATP_Site>  (661) 
nan

>  <Peripheral>  (661) 
nan

>  <Num_H_Atoms_ProtBoundConf>  (661) 
nan

>  <Num_Resolved_Atoms>  (661) 
nan

>  <Num_Not_Resolved_Atoms>  (661) 
nan

$$$$
CHEMBL3409584
     RDKit          3D

  0  0  0  0  0  0  0  0  0  0999 V3000
M  V30 BEGIN CTAB
M  V30 COUNTS 53 56 0 0 0
M  V30 BEGIN ATOM
M  V30 1 O -1.724690 -4.457091 0.420638 0
M  V30 2 C -1.620090 -3.205259 0.341658 0
M  V30 3 C -0.381842 -2.706191 0.658638 0
M  V30 4 C -0.218066 -1.330670 0.585892 0
M  V30 5 C 1.038193 -0.658023 0.892598 0
M  V30 6 C 2.171315 -1.312675 1.280466 0
M  V30 7 C 3.362370 -0.646137 1.568591 0
M  V30 8 N 3.355849 0.692722 1.448494 0
M  V30 9 C 2.270715 1.360622 1.073465 0
M  V30 10 N 2.272066 2.777778 0.948206 0
M  V30 11 C 3.458980 3.547056 1.226846 0
M  V30 12 C 3.217728 5.037018 1.020649 0
M  V30 13 C 4.209383 5.769347 1.902792 0
M  V30 14 O 5.433678 5.103323 2.007808 0
M  V30 15 C 5.311272 3.933398 2.760074 0
M  V30 16 C 3.871117 3.413888 2.691325 0
M  V30 17 N 1.140911 0.673158 0.805093 0
M  V30 18 C -1.307598 -0.575594 0.202315 0
M  V30 19 C -2.540247 -1.168440 -0.104851 0
M  V30 20 N -2.700529 -2.499381 -0.034935 0
M  V30 21 C -3.984268 -3.060710 -0.360687 0
M  V30 22 C -4.628107 -2.433063 -1.553987 0
M  V30 23 O -3.959015 -2.503442 -2.734254 0
M  V30 24 C -4.003554 -4.544837 -0.347177 0
M  V30 25 C -4.319805 -5.329247 0.771079 0
M  V30 26 C -4.319036 -6.695101 0.714961 0
M  V30 27 Cl -4.726201 -7.626311 2.157980 0
M  V30 28 C -4.003533 -7.375415 -0.458107 0
M  V30 29 C -3.685318 -6.643064 -1.585988 0
M  V30 30 Cl -3.281570 -7.459388 -3.085243 0
M  V30 31 C -3.695067 -5.266405 -1.496690 0
M  V30 32 H 0.445185 -3.332287 0.954640 0
M  V30 33 H 2.185037 -2.376872 1.378243 0
M  V30 34 H 4.260057 -1.164029 1.876344 0
M  V30 35 H 1.410039 3.284497 0.650969 0
M  V30 36 H 4.304925 3.273874 0.561648 0
M  V30 37 H 2.203441 5.254695 1.415779 0
M  V30 38 H 3.290696 5.329723 -0.046580 0
M  V30 39 H 3.801479 6.048682 2.890383 0
M  V30 40 H 4.419786 6.731713 1.372301 0
M  V30 41 H 5.928296 3.147293 2.275202 0
M  V30 42 H 5.670179 4.042780 3.794807 0
M  V30 43 H 3.807787 2.393671 3.065407 0
M  V30 44 H 3.257015 4.129412 3.309656 0
M  V30 45 H -1.172864 0.506617 0.147002 0
M  V30 46 H -3.302732 -0.456132 -0.389346 0
M  V30 47 H -4.654224 -2.763157 0.502801 0
M  V30 48 H -4.863845 -1.377131 -1.318575 0
M  V30 49 H -5.637700 -2.907796 -1.729668 0
M  V30 50 H -3.778164 -1.616643 -3.124144 0
M  V30 51 H -4.560580 -4.764017 1.669089 0
M  V30 52 H -4.002728 -8.455843 -0.502817 0
M  V30 53 H -3.440058 -4.754896 -2.403188 0
M  V30 END ATOM
M  V30 BEGIN BOND
M  V30 1 2 1 2
M  V30 2 1 2 3
M  V30 3 2 3 4
M  V30 4 1 4 5
M  V30 5 2 5 6
M  V30 6 1 6 7
M  V30 7 2 7 8
M  V30 8 1 8 9
M  V30 9 1 9 10
M  V30 10 1 10 11
M  V30 11 1 11 12
M  V30 12 1 12 13
M  V30 13 1 13 14
M  V30 14 1 14 15
M  V30 15 1 15 16
M  V30 16 2 9 17
M  V30 17 1 4 18
M  V30 18 2 18 19
M  V30 19 1 19 20
M  V30 20 1 20 21
M  V30 21 1 21 22
M  V30 22 1 22 23
M  V30 23 1 21 24
M  V30 24 2 24 25
M  V30 25 1 25 26
M  V30 26 1 26 27
M  V30 27 2 26 28
M  V30 28 1 28 29
M  V30 29 1 29 30
M  V30 30 2 29 31
M  V30 31 1 20 2
M  V30 32 1 31 24
M  V30 33 1 17 5
M  V30 34 1 16 11
M  V30 35 1 3 32
M  V30 36 1 6 33
M  V30 37 1 7 34
M  V30 38 1 10 35
M  V30 39 1 11 36
M  V30 40 1 12 37
M  V30 41 1 12 38
M  V30 42 1 13 39
M  V30 43 1 13 40
M  V30 44 1 15 41
M  V30 45 1 15 42
M  V30 46 1 16 43
M  V30 47 1 16 44
M  V30 48 1 18 45
M  V30 49 1 19 46
M  V30 50 1 21 47
M  V30 51 1 22 48
M  V30 52 1 22 49
M  V30 53 1 23 50
M  V30 54 1 25 51
M  V30 55 1 28 52
M  V30 56 1 31 53
M  V30 END BOND
M  V30 END CTAB
M  END
>  <Dataset>  (662) 
ChEMBL_Kinases

>  <Ligand_Instance>  (662) 
nan

>  <PDB_ID>  (662) 
nan

>  <Standardized_SMILES>  (662) 
O=c1cc(-c2ccnc(NC3CCOCC3)n2)ccn1C(CO)c1cc(Cl)cc(Cl)c1

>  <Name>  (662) 
nan

>  <Pocket>  (662) 
nan

>  <ATP_Site>  (662) 
nan

>  <Peripheral>  (662) 
nan

>  <Num_H_Atoms_ProtBoundConf>  (662) 
nan

>  <Num_Resolved_Atoms>  (662) 
nan

>  <Num_Not_Resolved_Atoms>  (662) 
nan

$$$$
CHEMBL3409583
     RDKit          3D

  0  0  0  0  0  0  0  0  0  0999 V3000
M  V30 BEGIN CTAB
M  V30 COUNTS 53 56 0 0 0
M  V30 BEGIN ATOM
M  V30 1 O -2.716653 -3.763879 1.634704 0
M  V30 2 C -2.286501 -2.749857 1.030380 0
M  V30 3 C -1.211936 -2.080348 1.574257 0
M  V30 4 C -0.665769 -0.958346 0.989296 0
M  V30 5 C 0.468764 -0.219516 1.528122 0
M  V30 6 C 1.106154 -0.574845 2.679647 0
M  V30 7 C 2.167700 0.159580 3.136231 0
M  V30 8 N 2.582005 1.235348 2.444949 0
M  V30 9 C 1.975431 1.595278 1.325101 0
M  V30 10 N 2.379541 2.723755 0.563740 0
M  V30 11 C 3.488254 3.530154 0.997891 0
M  V30 12 C 3.282950 4.152696 2.366276 0
M  V30 13 C 4.484697 5.072598 2.583055 0
M  V30 14 O 5.398430 5.018101 1.547303 0
M  V30 15 C 5.888127 3.754227 1.283465 0
M  V30 16 C 4.769610 2.723517 1.106670 0
M  V30 17 N 0.935293 0.855930 0.899472 0
M  V30 18 C -1.261372 -0.540082 -0.182011 0
M  V30 19 C -2.338872 -1.246581 -0.688649 0
M  V30 20 N -2.864853 -2.341368 -0.109557 0
M  V30 21 C -3.987327 -3.001479 -0.722379 0
M  V30 22 C -4.279546 -2.492811 -2.105565 0
M  V30 23 O -3.275171 -2.627195 -3.018810 0
M  V30 24 C -3.974003 -4.474701 -0.601952 0
M  V30 25 C -4.647491 -5.240271 0.350118 0
M  V30 26 C -4.562614 -6.611741 0.371309 0
M  V30 27 F -5.244396 -7.292552 1.326136 0
M  V30 28 C -3.804763 -7.297705 -0.551298 0
M  V30 29 C -3.127689 -6.547112 -1.506713 0
M  V30 30 F -2.402980 -7.298282 -2.379884 0
M  V30 31 C -3.210553 -5.174865 -1.530554 0
M  V30 32 H -0.781498 -2.449430 2.494389 0
M  V30 33 H 0.802860 -1.420693 3.249978 0
M  V30 34 H 2.711088 -0.077925 4.045812 0
M  V30 35 H 1.882883 2.983892 -0.315472 0
M  V30 36 H 3.655300 4.402870 0.302523 0
M  V30 37 H 3.366269 3.367704 3.145255 0
M  V30 38 H 2.323671 4.692535 2.457869 0
M  V30 39 H 4.924920 4.955874 3.592351 0
M  V30 40 H 4.069045 6.115035 2.566592 0
M  V30 41 H 6.394742 3.794465 0.296775 0
M  V30 42 H 6.646610 3.408489 2.015683 0
M  V30 43 H 4.935679 2.077123 0.222884 0
M  V30 44 H 4.745030 2.141665 2.053433 0
M  V30 45 H -0.844151 0.339074 -0.653158 0
M  V30 46 H -2.713247 -0.814471 -1.612185 0
M  V30 47 H -4.882465 -2.668792 -0.114498 0
M  V30 48 H -4.602914 -1.435310 -2.034423 0
M  V30 49 H -5.173299 -3.023652 -2.537067 0
M  V30 50 H -3.301089 -1.886302 -3.692010 0
M  V30 51 H -5.244764 -4.663688 1.071274 0
M  V30 52 H -3.761075 -8.377529 -0.504437 0
M  V30 53 H -2.631998 -4.762566 -2.324719 0
M  V30 END ATOM
M  V30 BEGIN BOND
M  V30 1 2 1 2
M  V30 2 1 2 3
M  V30 3 2 3 4
M  V30 4 1 4 5
M  V30 5 2 5 6
M  V30 6 1 6 7
M  V30 7 2 7 8
M  V30 8 1 8 9
M  V30 9 1 9 10
M  V30 10 1 10 11
M  V30 11 1 11 12
M  V30 12 1 12 13
M  V30 13 1 13 14
M  V30 14 1 14 15
M  V30 15 1 15 16
M  V30 16 2 9 17
M  V30 17 1 4 18
M  V30 18 2 18 19
M  V30 19 1 19 20
M  V30 20 1 20 21
M  V30 21 1 21 22
M  V30 22 1 22 23
M  V30 23 1 21 24
M  V30 24 2 24 25
M  V30 25 1 25 26
M  V30 26 1 26 27
M  V30 27 2 26 28
M  V30 28 1 28 29
M  V30 29 1 29 30
M  V30 30 2 29 31
M  V30 31 1 20 2
M  V30 32 1 31 24
M  V30 33 1 17 5
M  V30 34 1 16 11
M  V30 35 1 3 32
M  V30 36 1 6 33
M  V30 37 1 7 34
M  V30 38 1 10 35
M  V30 39 1 11 36
M  V30 40 1 12 37
M  V30 41 1 12 38
M  V30 42 1 13 39
M  V30 43 1 13 40
M  V30 44 1 15 41
M  V30 45 1 15 42
M  V30 46 1 16 43
M  V30 47 1 16 44
M  V30 48 1 18 45
M  V30 49 1 19 46
M  V30 50 1 21 47
M  V30 51 1 22 48
M  V30 52 1 22 49
M  V30 53 1 23 50
M  V30 54 1 25 51
M  V30 55 1 28 52
M  V30 56 1 31 53
M  V30 END BOND
M  V30 END CTAB
M  END
>  <Dataset>  (663) 
ChEMBL_Kinases

>  <Ligand_Instance>  (663) 
nan

>  <PDB_ID>  (663) 
nan

>  <Standardized_SMILES>  (663) 
O=c1cc(-c2ccnc(NC3CCOCC3)n2)ccn1C(CO)c1cc(F)cc(F)c1

>  <Name>  (663) 
nan

>  <Pocket>  (663) 
nan

>  <ATP_Site>  (663) 
nan

>  <Peripheral>  (663) 
nan

>  <Num_H_Atoms_ProtBoundConf>  (663) 
nan

>  <Num_Resolved_Atoms>  (663) 
nan

>  <Num_Not_Resolved_Atoms>  (663) 
nan

$$$$
CHEMBL3409582
     RDKit          3D

  0  0  0  0  0  0  0  0  0  0999 V3000
M  V30 BEGIN CTAB
M  V30 COUNTS 53 56 0 0 0
M  V30 BEGIN ATOM
M  V30 1 O -2.881758 -3.598447 1.667261 0
M  V30 2 C -2.405433 -2.646856 1.018883 0
M  V30 3 C -1.353960 -1.984338 1.607291 0
M  V30 4 C -0.736450 -0.914493 0.996676 0
M  V30 5 C 0.378819 -0.164789 1.554797 0
M  V30 6 C 0.949026 -0.444446 2.771422 0
M  V30 7 C 2.004573 0.298013 3.253397 0
M  V30 8 N 2.482049 1.313824 2.516230 0
M  V30 9 C 1.946491 1.600979 1.339138 0
M  V30 10 N 2.435227 2.666142 0.548880 0
M  V30 11 C 3.532798 3.485420 0.984435 0
M  V30 12 C 3.293124 4.214872 2.269469 0
M  V30 13 C 4.507014 5.123743 2.474272 0
M  V30 14 O 5.480821 4.931826 1.523938 0
M  V30 15 C 5.918979 3.639201 1.369650 0
M  V30 16 C 4.777548 2.630647 1.209619 0
M  V30 17 N 0.917570 0.859675 0.894022 0
M  V30 18 C -1.239209 -0.554447 -0.235342 0
M  V30 19 C -2.293879 -1.256804 -0.772421 0
M  V30 20 N -2.899354 -2.301768 -0.179332 0
M  V30 21 C -4.001871 -2.992312 -0.803002 0
M  V30 22 C -4.195242 -2.541576 -2.223867 0
M  V30 23 O -3.130552 -2.736298 -3.058186 0
M  V30 24 C -3.954541 -4.462298 -0.637016 0
M  V30 25 C -4.682126 -5.181649 0.319202 0
M  V30 26 C -4.602921 -6.549452 0.437564 0
M  V30 27 C -3.794530 -7.282176 -0.389350 0
M  V30 28 F -3.791547 -8.620506 -0.186972 0
M  V30 29 C -3.060188 -6.628891 -1.343422 0
M  V30 30 Cl -2.029920 -7.577047 -2.395188 0
M  V30 31 C -3.151993 -5.256288 -1.447782 0
M  V30 32 H -0.977515 -2.284646 2.572929 0
M  V30 33 H 0.578577 -1.254471 3.374177 0
M  V30 34 H 2.464923 0.082136 4.221754 0
M  V30 35 H 1.991360 2.878031 -0.390632 0
M  V30 36 H 3.781395 4.262621 0.205047 0
M  V30 37 H 3.271867 3.478559 3.094084 0
M  V30 38 H 2.345764 4.780900 2.316134 0
M  V30 39 H 4.864456 5.070956 3.526938 0
M  V30 40 H 4.130357 6.162864 2.337974 0
M  V30 41 H 6.497232 3.598977 0.422444 0
M  V30 42 H 6.614057 3.309398 2.168956 0
M  V30 43 H 4.966570 1.933303 0.372897 0
M  V30 44 H 4.689922 2.133828 2.194307 0
M  V30 45 H -0.768888 0.288798 -0.740258 0
M  V30 46 H -2.602394 -0.885738 -1.740115 0
M  V30 47 H -4.925083 -2.624155 -0.259250 0
M  V30 48 H -4.484560 -1.471576 -2.204327 0
M  V30 49 H -5.090673 -3.048179 -2.692120 0
M  V30 50 H -3.090441 -2.056310 -3.777218 0
M  V30 51 H -5.332254 -4.608881 0.983142 0
M  V30 52 H -5.217526 -6.995425 1.220551 0
M  V30 53 H -2.539644 -4.834431 -2.224075 0
M  V30 END ATOM
M  V30 BEGIN BOND
M  V30 1 2 1 2
M  V30 2 1 2 3
M  V30 3 2 3 4
M  V30 4 1 4 5
M  V30 5 2 5 6
M  V30 6 1 6 7
M  V30 7 2 7 8
M  V30 8 1 8 9
M  V30 9 1 9 10
M  V30 10 1 10 11
M  V30 11 1 11 12
M  V30 12 1 12 13
M  V30 13 1 13 14
M  V30 14 1 14 15
M  V30 15 1 15 16
M  V30 16 2 9 17
M  V30 17 1 4 18
M  V30 18 2 18 19
M  V30 19 1 19 20
M  V30 20 1 20 21
M  V30 21 1 21 22
M  V30 22 1 22 23
M  V30 23 1 21 24
M  V30 24 2 24 25
M  V30 25 1 25 26
M  V30 26 2 26 27
M  V30 27 1 27 28
M  V30 28 1 27 29
M  V30 29 1 29 30
M  V30 30 2 29 31
M  V30 31 1 20 2
M  V30 32 1 31 24
M  V30 33 1 17 5
M  V30 34 1 16 11
M  V30 35 1 3 32
M  V30 36 1 6 33
M  V30 37 1 7 34
M  V30 38 1 10 35
M  V30 39 1 11 36
M  V30 40 1 12 37
M  V30 41 1 12 38
M  V30 42 1 13 39
M  V30 43 1 13 40
M  V30 44 1 15 41
M  V30 45 1 15 42
M  V30 46 1 16 43
M  V30 47 1 16 44
M  V30 48 1 18 45
M  V30 49 1 19 46
M  V30 50 1 21 47
M  V30 51 1 22 48
M  V30 52 1 22 49
M  V30 53 1 23 50
M  V30 54 1 25 51
M  V30 55 1 26 52
M  V30 56 1 31 53
M  V30 END BOND
M  V30 END CTAB
M  END
>  <Dataset>  (664) 
ChEMBL_Kinases

>  <Ligand_Instance>  (664) 
nan

>  <PDB_ID>  (664) 
nan

>  <Standardized_SMILES>  (664) 
O=c1cc(-c2ccnc(NC3CCOCC3)n2)ccn1C(CO)c1ccc(F)c(Cl)c1

>  <Name>  (664) 
nan

>  <Pocket>  (664) 
nan

>  <ATP_Site>  (664) 
nan

>  <Peripheral>  (664) 
nan

>  <Num_H_Atoms_ProtBoundConf>  (664) 
nan

>  <Num_Resolved_Atoms>  (664) 
nan

>  <Num_Not_Resolved_Atoms>  (664) 
nan

$$$$
CHEMBL3409581
     RDKit          3D

  0  0  0  0  0  0  0  0  0  0999 V3000
M  V30 BEGIN CTAB
M  V30 COUNTS 53 56 0 0 0
M  V30 BEGIN ATOM
M  V30 1 O -1.582894 -3.952707 0.035470 0
M  V30 2 C -1.081018 -2.817233 0.219994 0
M  V30 3 C 0.274716 -2.631442 0.188084 0
M  V30 4 C 0.855197 -1.399799 0.386529 0
M  V30 5 C 2.284184 -1.159527 0.360763 0
M  V30 6 C 3.168250 -2.189488 0.126101 0
M  V30 7 C 4.517449 -1.907627 0.110972 0
M  V30 8 N 5.014095 -0.676223 0.314064 0
M  V30 9 C 4.141023 0.320121 0.542003 0
M  V30 10 N 4.616153 1.638072 0.763068 0
M  V30 11 C 3.766235 2.759715 1.011740 0
M  V30 12 C 2.795543 3.071565 -0.102158 0
M  V30 13 C 1.776172 4.048856 0.448273 0
M  V30 14 O 2.170975 4.683642 1.600139 0
M  V30 15 C 2.353495 3.841797 2.673712 0
M  V30 16 C 2.915125 2.490914 2.260661 0
M  V30 17 N 2.829097 0.042607 0.556076 0
M  V30 18 C -0.034687 -0.371197 0.619290 0
M  V30 19 C -1.397345 -0.592910 0.644949 0
M  V30 20 N -1.936198 -1.808944 0.447319 0
M  V30 21 C -3.380476 -1.895588 0.501990 0
M  V30 22 C -3.980663 -1.002045 -0.555299 0
M  V30 23 O -3.605076 -1.320291 -1.847842 0
M  V30 24 C -3.905189 -3.264346 0.518712 0
M  V30 25 C -4.075770 -3.902930 1.752677 0
M  V30 26 C -4.566092 -5.188959 1.845553 0
M  V30 27 C -4.909582 -5.903169 0.737316 0
M  V30 28 Cl -5.539839 -7.536620 0.736390 0
M  V30 29 C -4.754944 -5.303552 -0.511530 0
M  V30 30 F -5.083218 -5.970670 -1.667798 0
M  V30 31 C -4.269974 -4.036500 -0.572566 0
M  V30 32 H 0.874266 -3.485953 0.001562 0
M  V30 33 H 2.879794 -3.199744 -0.046528 0
M  V30 34 H 5.232342 -2.705980 -0.072463 0
M  V30 35 H 5.657195 1.816921 0.745870 0
M  V30 36 H 4.352858 3.703689 1.163195 0
M  V30 37 H 2.289872 2.141894 -0.394587 0
M  V30 38 H 3.304095 3.469558 -1.003229 0
M  V30 39 H 0.789818 3.562748 0.508844 0
M  V30 40 H 1.664966 4.861131 -0.326392 0
M  V30 41 H 3.140763 4.314594 3.322265 0
M  V30 42 H 1.464428 3.709565 3.321255 0
M  V30 43 H 3.518108 2.041353 3.074280 0
M  V30 44 H 2.051986 1.883182 1.937943 0
M  V30 45 H 0.376208 0.622182 0.781754 0
M  V30 46 H -1.999993 0.308017 0.840792 0
M  V30 47 H -3.661007 -1.401474 1.478741 0
M  V30 48 H -3.629130 0.030035 -0.349190 0
M  V30 49 H -5.086433 -0.950089 -0.476145 0
M  V30 50 H -4.317820 -1.102942 -2.503008 0
M  V30 51 H -3.826961 -3.406096 2.684296 0
M  V30 52 H -4.715116 -5.722441 2.770891 0
M  V30 53 H -4.148919 -3.569655 -1.537198 0
M  V30 END ATOM
M  V30 BEGIN BOND
M  V30 1 2 1 2
M  V30 2 1 2 3
M  V30 3 2 3 4
M  V30 4 1 4 5
M  V30 5 2 5 6
M  V30 6 1 6 7
M  V30 7 2 7 8
M  V30 8 1 8 9
M  V30 9 1 9 10
M  V30 10 1 10 11
M  V30 11 1 11 12
M  V30 12 1 12 13
M  V30 13 1 13 14
M  V30 14 1 14 15
M  V30 15 1 15 16
M  V30 16 2 9 17
M  V30 17 1 4 18
M  V30 18 2 18 19
M  V30 19 1 19 20
M  V30 20 1 20 21
M  V30 21 1 21 22
M  V30 22 1 22 23
M  V30 23 1 21 24
M  V30 24 2 24 25
M  V30 25 1 25 26
M  V30 26 2 26 27
M  V30 27 1 27 28
M  V30 28 1 27 29
M  V30 29 1 29 30
M  V30 30 2 29 31
M  V30 31 1 20 2
M  V30 32 1 31 24
M  V30 33 1 17 5
M  V30 34 1 16 11
M  V30 35 1 3 32
M  V30 36 1 6 33
M  V30 37 1 7 34
M  V30 38 1 10 35
M  V30 39 1 11 36
M  V30 40 1 12 37
M  V30 41 1 12 38
M  V30 42 1 13 39
M  V30 43 1 13 40
M  V30 44 1 15 41
M  V30 45 1 15 42
M  V30 46 1 16 43
M  V30 47 1 16 44
M  V30 48 1 18 45
M  V30 49 1 19 46
M  V30 50 1 21 47
M  V30 51 1 22 48
M  V30 52 1 22 49
M  V30 53 1 23 50
M  V30 54 1 25 51
M  V30 55 1 26 52
M  V30 56 1 31 53
M  V30 END BOND
M  V30 END CTAB
M  END
>  <Dataset>  (665) 
ChEMBL_Kinases

>  <Ligand_Instance>  (665) 
nan

>  <PDB_ID>  (665) 
nan

>  <Standardized_SMILES>  (665) 
O=c1cc(-c2ccnc(NC3CCOCC3)n2)ccn1C(CO)c1ccc(Cl)c(F)c1

>  <Name>  (665) 
nan

>  <Pocket>  (665) 
nan

>  <ATP_Site>  (665) 
nan

>  <Peripheral>  (665) 
nan

>  <Num_H_Atoms_ProtBoundConf>  (665) 
nan

>  <Num_Resolved_Atoms>  (665) 
nan

>  <Num_Not_Resolved_Atoms>  (665) 
nan

$$$$
CHEMBL3409580
     RDKit          3D

  0  0  0  0  0  0  0  0  0  0999 V3000
M  V30 BEGIN CTAB
M  V30 COUNTS 53 56 0 0 0
M  V30 BEGIN ATOM
M  V30 1 O -1.532612 -3.976156 -0.042348 0
M  V30 2 C -1.069996 -2.837219 0.173851 0
M  V30 3 C 0.286849 -2.639209 0.144756 0
M  V30 4 C 0.846972 -1.402317 0.376600 0
M  V30 5 C 2.264735 -1.126092 0.360987 0
M  V30 6 C 3.177098 -2.125382 0.101171 0
M  V30 7 C 4.520687 -1.832587 0.092266 0
M  V30 8 N 4.992299 -0.597389 0.329031 0
M  V30 9 C 4.099762 0.373161 0.581769 0
M  V30 10 N 4.546977 1.693732 0.839001 0
M  V30 11 C 3.690009 2.802865 1.117903 0
M  V30 12 C 2.717664 3.135673 0.008266 0
M  V30 13 C 1.721042 4.129775 0.581608 0
M  V30 14 O 2.151638 4.729197 1.748608 0
M  V30 15 C 2.320486 3.861318 2.805769 0
M  V30 16 C 2.828972 2.495626 2.351193 0
M  V30 17 N 2.791215 0.081084 0.588931 0
M  V30 18 C -0.060498 -0.387754 0.638118 0
M  V30 19 C -1.422413 -0.634840 0.657141 0
M  V30 20 N -1.933277 -1.855008 0.426290 0
M  V30 21 C -3.376680 -1.976856 0.476363 0
M  V30 22 C -4.001413 -1.036588 -0.519863 0
M  V30 23 O -3.642910 -1.242382 -1.824457 0
M  V30 24 C -3.857228 -3.367237 0.386772 0
M  V30 25 C -3.991254 -4.080317 1.583603 0
M  V30 26 C -4.430224 -5.390545 1.666287 0
M  V30 27 C -4.757380 -6.035110 0.485608 0
M  V30 28 F -5.199436 -7.329265 0.473168 0
M  V30 29 C -4.632662 -5.348360 -0.715108 0
M  V30 30 F -4.953184 -5.979334 -1.873316 0
M  V30 31 C -4.194792 -4.050937 -0.761676 0
M  V30 32 H 0.909213 -3.472285 -0.063626 0
M  V30 33 H 2.908621 -3.146465 -0.100921 0
M  V30 34 H 5.257491 -2.606630 -0.110703 0
M  V30 35 H 5.592496 1.892086 0.827730 0
M  V30 36 H 4.257386 3.739805 1.307775 0
M  V30 37 H 2.185247 2.203416 -0.263378 0
M  V30 38 H 3.229026 3.540833 -0.887432 0
M  V30 39 H 0.733386 3.656205 0.663664 0
M  V30 40 H 1.615830 4.943551 -0.171239 0
M  V30 41 H 3.138057 4.273173 3.439071 0
M  V30 42 H 1.437268 3.765928 3.464449 0
M  V30 43 H 3.389307 1.975184 3.140200 0
M  V30 44 H 1.928421 1.945534 2.014053 0
M  V30 45 H 0.347751 0.595648 0.823687 0
M  V30 46 H -2.026358 0.259320 0.877744 0
M  V30 47 H -3.658842 -1.554471 1.485646 0
M  V30 48 H -3.723546 -0.005740 -0.218657 0
M  V30 49 H -5.112370 -1.068155 -0.426191 0
M  V30 50 H -4.365671 -0.981535 -2.451984 0
M  V30 51 H -3.743689 -3.604996 2.522981 0
M  V30 52 H -4.514225 -5.890179 2.613178 0
M  V30 53 H -4.099178 -3.525757 -1.676732 0
M  V30 END ATOM
M  V30 BEGIN BOND
M  V30 1 2 1 2
M  V30 2 1 2 3
M  V30 3 2 3 4
M  V30 4 1 4 5
M  V30 5 2 5 6
M  V30 6 1 6 7
M  V30 7 2 7 8
M  V30 8 1 8 9
M  V30 9 1 9 10
M  V30 10 1 10 11
M  V30 11 1 11 12
M  V30 12 1 12 13
M  V30 13 1 13 14
M  V30 14 1 14 15
M  V30 15 1 15 16
M  V30 16 2 9 17
M  V30 17 1 4 18
M  V30 18 2 18 19
M  V30 19 1 19 20
M  V30 20 1 20 21
M  V30 21 1 21 22
M  V30 22 1 22 23
M  V30 23 1 21 24
M  V30 24 2 24 25
M  V30 25 1 25 26
M  V30 26 2 26 27
M  V30 27 1 27 28
M  V30 28 1 27 29
M  V30 29 1 29 30
M  V30 30 2 29 31
M  V30 31 1 20 2
M  V30 32 1 31 24
M  V30 33 1 17 5
M  V30 34 1 16 11
M  V30 35 1 3 32
M  V30 36 1 6 33
M  V30 37 1 7 34
M  V30 38 1 10 35
M  V30 39 1 11 36
M  V30 40 1 12 37
M  V30 41 1 12 38
M  V30 42 1 13 39
M  V30 43 1 13 40
M  V30 44 1 15 41
M  V30 45 1 15 42
M  V30 46 1 16 43
M  V30 47 1 16 44
M  V30 48 1 18 45
M  V30 49 1 19 46
M  V30 50 1 21 47
M  V30 51 1 22 48
M  V30 52 1 22 49
M  V30 53 1 23 50
M  V30 54 1 25 51
M  V30 55 1 26 52
M  V30 56 1 31 53
M  V30 END BOND
M  V30 END CTAB
M  END
>  <Dataset>  (666) 
ChEMBL_Kinases

>  <Ligand_Instance>  (666) 
nan

>  <PDB_ID>  (666) 
nan

>  <Standardized_SMILES>  (666) 
O=c1cc(-c2ccnc(NC3CCOCC3)n2)ccn1C(CO)c1ccc(F)c(F)c1

>  <Name>  (666) 
nan

>  <Pocket>  (666) 
nan

>  <ATP_Site>  (666) 
nan

>  <Peripheral>  (666) 
nan

>  <Num_H_Atoms_ProtBoundConf>  (666) 
nan

>  <Num_Resolved_Atoms>  (666) 
nan

>  <Num_Not_Resolved_Atoms>  (666) 
nan

$$$$
CHEMBL3409579
     RDKit          3D

  0  0  0  0  0  0  0  0  0  0999 V3000
M  V30 BEGIN CTAB
M  V30 COUNTS 54 57 0 0 0
M  V30 BEGIN ATOM
M  V30 1 N 7.158112 -4.234824 -0.755431 0
M  V30 2 C 6.478434 -3.366834 -1.128655 0
M  V30 3 C 5.631218 -2.306816 -1.593266 0
M  V30 4 C 5.209623 -2.393311 -2.911911 0
M  V30 5 C 4.391782 -1.404090 -3.421117 0
M  V30 6 C 4.033872 -0.370674 -2.580607 0
M  V30 7 C 4.425340 -0.238261 -1.263776 0
M  V30 8 C 4.029296 0.874537 -0.385894 0
M  V30 9 C 5.152991 1.427676 0.428359 0
M  V30 10 O 6.124013 1.891656 -0.490443 0
M  V30 11 N 2.810438 0.630519 0.360207 0
M  V30 12 C 1.650734 0.537907 -0.327648 0
M  V30 13 C 0.431424 0.306932 0.286934 0
M  V30 14 C 0.387411 0.163881 1.658407 0
M  V30 15 C -0.914331 -0.078702 2.273037 0
M  V30 16 C -1.117411 -0.241806 3.626281 0
M  V30 17 C -2.403050 -0.465614 4.076487 0
M  V30 18 N -3.465015 -0.530373 3.242656 0
M  V30 19 C -3.246856 -0.368381 1.921435 0
M  V30 20 N -4.360795 -0.433577 1.017813 0
M  V30 21 C -5.669210 -0.665699 1.515664 0
M  V30 22 C -5.882153 -1.951942 2.259357 0
M  V30 23 C -5.853535 -3.157940 1.345127 0
M  V30 24 O -6.756245 -3.033260 0.287267 0
M  V30 25 C -6.307764 -1.974438 -0.501093 0
M  V30 26 C -6.616305 -0.707816 0.307876 0
M  V30 27 N -1.987942 -0.148828 1.477056 0
M  V30 28 C 1.562152 0.255614 2.376152 0
M  V30 29 C 2.738200 0.487426 1.692796 0
M  V30 30 O 3.779712 0.566307 2.353728 0
M  V30 31 C 5.240764 -1.248661 -0.798848 0
M  V30 32 H 5.500911 -3.213443 -3.558775 0
M  V30 33 H 4.053675 -1.453233 -4.442906 0
M  V30 34 H 3.398094 0.378417 -3.013132 0
M  V30 35 H 3.746550 1.709530 -1.095990 0
M  V30 36 H 4.776249 2.246095 1.050384 0
M  V30 37 H 5.705501 0.688135 1.041258 0
M  V30 38 H 6.009934 1.450780 -1.370241 0
M  V30 39 H 1.645614 0.644239 -1.398402 0
M  V30 40 H -0.464023 0.243770 -0.327913 0
M  V30 41 H -0.274771 -0.190349 4.287344 0
M  V30 42 H -2.590241 -0.598202 5.145969 0
M  V30 43 H -4.142202 -0.299930 -0.016165 0
M  V30 44 H -6.006393 0.182264 2.128034 0
M  V30 45 H -5.215399 -2.134507 3.099422 0
M  V30 46 H -6.909897 -1.905139 2.682491 0
M  V30 47 H -4.853265 -3.367638 0.949158 0
M  V30 48 H -6.180636 -4.024931 1.975890 0
M  V30 49 H -6.794742 -1.896794 -1.477681 0
M  V30 50 H -5.192107 -2.121083 -0.558094 0
M  V30 51 H -7.651387 -0.766278 0.652724 0
M  V30 52 H -6.476314 0.185722 -0.344625 0
M  V30 53 H 1.546159 0.146798 3.444187 0
M  V30 54 H 5.604746 -1.248288 0.207813 0
M  V30 END ATOM
M  V30 BEGIN BOND
M  V30 1 3 1 2
M  V30 2 1 2 3
M  V30 3 2 3 4
M  V30 4 1 4 5
M  V30 5 2 5 6
M  V30 6 1 6 7
M  V30 7 1 7 8
M  V30 8 1 8 9
M  V30 9 1 9 10
M  V30 10 1 8 11
M  V30 11 1 11 12
M  V30 12 2 12 13
M  V30 13 1 13 14
M  V30 14 1 14 15
M  V30 15 2 15 16
M  V30 16 1 16 17
M  V30 17 2 17 18
M  V30 18 1 18 19
M  V30 19 1 19 20
M  V30 20 1 20 21
M  V30 21 1 21 22
M  V30 22 1 22 23
M  V30 23 1 23 24
M  V30 24 1 24 25
M  V30 25 1 25 26
M  V30 26 2 19 27
M  V30 27 2 14 28
M  V30 28 1 28 29
M  V30 29 2 29 30
M  V30 30 2 7 31
M  V30 31 1 31 3
M  V30 32 1 29 11
M  V30 33 1 27 15
M  V30 34 1 26 21
M  V30 35 1 4 32
M  V30 36 1 5 33
M  V30 37 1 6 34
M  V30 38 1 8 35
M  V30 39 1 9 36
M  V30 40 1 9 37
M  V30 41 1 10 38
M  V30 42 1 12 39
M  V30 43 1 13 40
M  V30 44 1 16 41
M  V30 45 1 17 42
M  V30 46 1 20 43
M  V30 47 1 21 44
M  V30 48 1 22 45
M  V30 49 1 22 46
M  V30 50 1 23 47
M  V30 51 1 23 48
M  V30 52 1 25 49
M  V30 53 1 25 50
M  V30 54 1 26 51
M  V30 55 1 26 52
M  V30 56 1 28 53
M  V30 57 1 31 54
M  V30 END BOND
M  V30 END CTAB
M  END
>  <Dataset>  (667) 
ChEMBL_Kinases

>  <Ligand_Instance>  (667) 
nan

>  <PDB_ID>  (667) 
nan

>  <Standardized_SMILES>  (667) 
N#Cc1cccc(C(CO)n2ccc(-c3ccnc(NC4CCOCC4)n3)cc2=O)c1

>  <Name>  (667) 
nan

>  <Pocket>  (667) 
nan

>  <ATP_Site>  (667) 
nan

>  <Peripheral>  (667) 
nan

>  <Num_H_Atoms_ProtBoundConf>  (667) 
nan

>  <Num_Resolved_Atoms>  (667) 
nan

>  <Num_Not_Resolved_Atoms>  (667) 
nan

$$$$
CHEMBL3409578
     RDKit          3D

  0  0  0  0  0  0  0  0  0  0999 V3000
M  V30 BEGIN CTAB
M  V30 COUNTS 57 60 0 0 0
M  V30 BEGIN ATOM
M  V30 1 C 2.990021 -1.048890 5.822048 0
M  V30 2 O 3.381509 -2.171543 5.068031 0
M  V30 3 C 3.509691 -2.117028 3.703701 0
M  V30 4 C 3.905899 -3.311899 3.095840 0
M  V30 5 C 4.058780 -3.348499 1.738033 0
M  V30 6 C 3.822059 -2.215076 0.989813 0
M  V30 7 C 3.426850 -1.001310 1.536341 0
M  V30 8 C 3.172432 0.197412 0.730849 0
M  V30 9 C 3.837209 1.363737 1.385563 0
M  V30 10 O 5.217195 1.050071 1.432399 0
M  V30 11 N 1.791706 0.460640 0.440928 0
M  V30 12 C 1.231127 1.673151 0.681630 0
M  V30 13 C -0.089338 2.010544 0.432161 0
M  V30 14 C -0.919644 1.049481 -0.104955 0
M  V30 15 C -2.329464 1.260605 -0.419951 0
M  V30 16 C -2.973203 2.461698 -0.205886 0
M  V30 17 C -4.296693 2.645151 -0.506042 0
M  V30 18 N -4.981952 1.614051 -1.026144 0
M  V30 19 C -4.376361 0.414235 -1.250186 0
M  V30 20 N -5.096846 -0.695924 -1.803918 0
M  V30 21 C -4.473220 -1.964456 -2.047937 0
M  V30 22 C -3.899043 -2.611592 -0.804879 0
M  V30 23 C -2.833550 -3.588412 -1.257558 0
M  V30 24 O -3.234794 -4.177277 -2.440336 0
M  V30 25 C -3.082713 -3.333720 -3.546783 0
M  V30 26 C -3.359196 -1.921131 -3.072859 0
M  V30 27 N -3.099394 0.287132 -0.944431 0
M  V30 28 C -0.384606 -0.195924 -0.363181 0
M  V30 29 C 0.943624 -0.436133 -0.080141 0
M  V30 30 O 1.348013 -1.594603 -0.345654 0
M  V30 31 C 3.288590 -1.023795 2.912923 0
M  V30 32 H 3.796908 -0.306869 5.911657 0
M  V30 33 H 2.657110 -1.347260 6.848613 0
M  V30 34 H 2.143979 -0.583254 5.254298 0
M  V30 35 H 4.095462 -4.209796 3.668175 0
M  V30 36 H 4.370178 -4.286310 1.257271 0
M  V30 37 H 3.965623 -2.320783 -0.061061 0
M  V30 38 H 3.695950 0.051301 -0.252833 0
M  V30 39 H 3.505978 1.560792 2.423304 0
M  V30 40 H 3.785685 2.260650 0.730364 0
M  V30 41 H 5.616757 1.229286 0.545036 0
M  V30 42 H 1.804464 2.486920 1.102190 0
M  V30 43 H -0.490255 2.979180 0.637177 0
M  V30 44 H -2.452700 3.291691 0.204093 0
M  V30 45 H -4.777025 3.596015 -0.328615 0
M  V30 46 H -6.123412 -0.521799 -2.023285 0
M  V30 47 H -5.263737 -2.647130 -2.470676 0
M  V30 48 H -4.714826 -3.167078 -0.299335 0
M  V30 49 H -3.522180 -1.883668 -0.060074 0
M  V30 50 H -2.663717 -4.384595 -0.503569 0
M  V30 51 H -1.861942 -3.103161 -1.451955 0
M  V30 52 H -2.038962 -3.358794 -3.910760 0
M  V30 53 H -3.792672 -3.592127 -4.357845 0
M  V30 54 H -2.412146 -1.544564 -2.644828 0
M  V30 55 H -3.727933 -1.330111 -3.936604 0
M  V30 56 H -1.019402 -0.961139 -0.783298 0
M  V30 57 H 2.990138 -0.151845 3.444231 0
M  V30 END ATOM
M  V30 BEGIN BOND
M  V30 1 1 1 2
M  V30 2 1 2 3
M  V30 3 2 3 4
M  V30 4 1 4 5
M  V30 5 2 5 6
M  V30 6 1 6 7
M  V30 7 1 7 8
M  V30 8 1 8 9
M  V30 9 1 9 10
M  V30 10 1 8 11
M  V30 11 1 11 12
M  V30 12 2 12 13
M  V30 13 1 13 14
M  V30 14 1 14 15
M  V30 15 2 15 16
M  V30 16 1 16 17
M  V30 17 2 17 18
M  V30 18 1 18 19
M  V30 19 1 19 20
M  V30 20 1 20 21
M  V30 21 1 21 22
M  V30 22 1 22 23
M  V30 23 1 23 24
M  V30 24 1 24 25
M  V30 25 1 25 26
M  V30 26 2 19 27
M  V30 27 2 14 28
M  V30 28 1 28 29
M  V30 29 2 29 30
M  V30 30 2 7 31
M  V30 31 1 31 3
M  V30 32 1 29 11
M  V30 33 1 27 15
M  V30 34 1 26 21
M  V30 35 1 1 32
M  V30 36 1 1 33
M  V30 37 1 1 34
M  V30 38 1 4 35
M  V30 39 1 5 36
M  V30 40 1 6 37
M  V30 41 1 8 38
M  V30 42 1 9 39
M  V30 43 1 9 40
M  V30 44 1 10 41
M  V30 45 1 12 42
M  V30 46 1 13 43
M  V30 47 1 16 44
M  V30 48 1 17 45
M  V30 49 1 20 46
M  V30 50 1 21 47
M  V30 51 1 22 48
M  V30 52 1 22 49
M  V30 53 1 23 50
M  V30 54 1 23 51
M  V30 55 1 25 52
M  V30 56 1 25 53
M  V30 57 1 26 54
M  V30 58 1 26 55
M  V30 59 1 28 56
M  V30 60 1 31 57
M  V30 END BOND
M  V30 END CTAB
M  END
>  <Dataset>  (668) 
ChEMBL_Kinases

>  <Ligand_Instance>  (668) 
nan

>  <PDB_ID>  (668) 
nan

>  <Standardized_SMILES>  (668) 
COc1cccc(C(CO)n2ccc(-c3ccnc(NC4CCOCC4)n3)cc2=O)c1

>  <Name>  (668) 
nan

>  <Pocket>  (668) 
nan

>  <ATP_Site>  (668) 
nan

>  <Peripheral>  (668) 
nan

>  <Num_H_Atoms_ProtBoundConf>  (668) 
nan

>  <Num_Resolved_Atoms>  (668) 
nan

>  <Num_Not_Resolved_Atoms>  (668) 
nan

$$$$
CHEMBL3409577
     RDKit          3D

  0  0  0  0  0  0  0  0  0  0999 V3000
M  V30 BEGIN CTAB
M  V30 COUNTS 56 59 0 0 0
M  V30 BEGIN ATOM
M  V30 1 O -2.900471 -1.490767 0.604693 0
M  V30 2 C -1.761749 -1.964634 0.683524 0
M  V30 3 C -0.766879 -1.180695 1.227663 0
M  V30 4 C 0.506512 -1.703000 1.319114 0
M  V30 5 C 1.562535 -0.874617 1.896095 0
M  V30 6 C 2.869192 -1.282504 2.041946 0
M  V30 7 C 3.729731 -0.366665 2.608764 0
M  V30 8 N 3.335780 0.855296 3.001505 0
M  V30 9 C 2.065000 1.250079 2.858848 0
M  V30 10 N 1.614830 2.538263 3.265472 0
M  V30 11 C 2.437231 3.542207 3.855192 0
M  V30 12 C 3.517004 3.916291 2.863999 0
M  V30 13 C 2.785327 4.217686 1.557024 0
M  V30 14 O 1.935119 5.281964 1.724666 0
M  V30 15 C 1.891237 5.824897 2.984969 0
M  V30 16 C 1.623369 4.800797 4.083533 0
M  V30 17 N 1.252589 0.361887 2.314429 0
M  V30 18 C 0.699842 -2.986360 0.855461 0
M  V30 19 C -0.336335 -3.725784 0.319255 0
M  V30 20 N -1.601398 -3.217086 0.224389 0
M  V30 21 C -2.562514 -4.094583 -0.347482 0
M  V30 22 C -3.996219 -3.742442 -0.161171 0
M  V30 23 O -4.728821 -4.766877 -0.814369 0
M  V30 24 C -2.350377 -4.299047 -1.813854 0
M  V30 25 C -1.622148 -5.351035 -2.332744 0
M  V30 26 C -1.410969 -5.560765 -3.674285 0
M  V30 27 C -1.951011 -4.677678 -4.577796 0
M  V30 28 C -2.693695 -3.598841 -4.124415 0
M  V30 29 C -3.272140 -2.652138 -5.108554 0
M  V30 30 F -2.568108 -1.486332 -5.167439 0
M  V30 31 F -3.262490 -3.237567 -6.358057 0
M  V30 32 F -4.610631 -2.447547 -4.800527 0
M  V30 33 C -2.864827 -3.450584 -2.764590 0
M  V30 34 H -0.983146 -0.186272 1.571197 0
M  V30 35 H 3.154027 -2.271934 1.715810 0
M  V30 36 H 4.769153 -0.699946 2.721171 0
M  V30 37 H 0.582631 2.743522 3.107132 0
M  V30 38 H 2.892019 3.190647 4.823927 0
M  V30 39 H 4.149423 3.045753 2.694544 0
M  V30 40 H 4.078004 4.812466 3.202164 0
M  V30 41 H 2.161002 3.330255 1.313149 0
M  V30 42 H 3.488538 4.326353 0.705389 0
M  V30 43 H 2.788268 6.417999 3.171890 0
M  V30 44 H 1.016591 6.518398 3.027337 0
M  V30 45 H 1.852277 5.304612 5.044033 0
M  V30 46 H 0.536471 4.575154 4.085866 0
M  V30 47 H 1.680459 -3.418017 0.914169 0
M  V30 48 H -0.093198 -4.724164 -0.018904 0
M  V30 49 H -2.414694 -5.105043 0.110563 0
M  V30 50 H -4.321122 -2.804345 -0.657036 0
M  V30 51 H -4.360553 -3.720416 0.869906 0
M  V30 52 H -5.698159 -4.623144 -0.696625 0
M  V30 53 H -1.177225 -6.075245 -1.666123 0
M  V30 54 H -0.824552 -6.411677 -4.043761 0
M  V30 55 H -1.770824 -4.863408 -5.636237 0
M  V30 56 H -3.446405 -2.599235 -2.481975 0
M  V30 END ATOM
M  V30 BEGIN BOND
M  V30 1 2 1 2
M  V30 2 1 2 3
M  V30 3 2 3 4
M  V30 4 1 4 5
M  V30 5 2 5 6
M  V30 6 1 6 7
M  V30 7 2 7 8
M  V30 8 1 8 9
M  V30 9 1 9 10
M  V30 10 1 10 11
M  V30 11 1 11 12
M  V30 12 1 12 13
M  V30 13 1 13 14
M  V30 14 1 14 15
M  V30 15 1 15 16
M  V30 16 2 9 17
M  V30 17 1 4 18
M  V30 18 2 18 19
M  V30 19 1 19 20
M  V30 20 1 20 21
M  V30 21 1 21 22
M  V30 22 1 22 23
M  V30 23 1 21 24
M  V30 24 2 24 25
M  V30 25 1 25 26
M  V30 26 2 26 27
M  V30 27 1 27 28
M  V30 28 1 28 29
M  V30 29 1 29 30
M  V30 30 1 29 31
M  V30 31 1 29 32
M  V30 32 2 28 33
M  V30 33 1 20 2
M  V30 34 1 33 24
M  V30 35 1 17 5
M  V30 36 1 16 11
M  V30 37 1 3 34
M  V30 38 1 6 35
M  V30 39 1 7 36
M  V30 40 1 10 37
M  V30 41 1 11 38
M  V30 42 1 12 39
M  V30 43 1 12 40
M  V30 44 1 13 41
M  V30 45 1 13 42
M  V30 46 1 15 43
M  V30 47 1 15 44
M  V30 48 1 16 45
M  V30 49 1 16 46
M  V30 50 1 18 47
M  V30 51 1 19 48
M  V30 52 1 21 49
M  V30 53 1 22 50
M  V30 54 1 22 51
M  V30 55 1 23 52
M  V30 56 1 25 53
M  V30 57 1 26 54
M  V30 58 1 27 55
M  V30 59 1 33 56
M  V30 END BOND
M  V30 END CTAB
M  END
>  <Dataset>  (669) 
ChEMBL_Kinases

>  <Ligand_Instance>  (669) 
nan

>  <PDB_ID>  (669) 
nan

>  <Standardized_SMILES>  (669) 
O=c1cc(-c2ccnc(NC3CCOCC3)n2)ccn1C(CO)c1cccc(C(F)(F)F)c1

>  <Name>  (669) 
nan

>  <Pocket>  (669) 
nan

>  <ATP_Site>  (669) 
nan

>  <Peripheral>  (669) 
nan

>  <Num_H_Atoms_ProtBoundConf>  (669) 
nan

>  <Num_Resolved_Atoms>  (669) 
nan

>  <Num_Not_Resolved_Atoms>  (669) 
nan

$$$$
CHEMBL3409576
     RDKit          3D

  0  0  0  0  0  0  0  0  0  0999 V3000
M  V30 BEGIN CTAB
M  V30 COUNTS 56 59 0 0 0
M  V30 BEGIN ATOM
M  V30 1 C 5.657713 -4.294883 -0.649499 0
M  V30 2 C 5.202939 -3.711274 0.636773 0
M  V30 3 C 5.100069 -4.529543 1.738841 0
M  V30 4 C 4.677685 -3.983548 2.930330 0
M  V30 5 C 4.369887 -2.645280 2.995980 0
M  V30 6 C 4.443930 -1.758259 1.948628 0
M  V30 7 C 4.158743 -0.335052 1.849030 0
M  V30 8 C 4.418770 0.404435 3.130965 0
M  V30 9 O 3.668082 -0.017388 4.209562 0
M  V30 10 N 2.793456 -0.048913 1.451067 0
M  V30 11 C 2.582583 1.252088 1.095173 0
M  V30 12 C 1.361942 1.745200 0.683780 0
M  V30 13 C 0.276241 0.896510 0.619420 0
M  V30 14 C -1.068817 1.277467 0.204023 0
M  V30 15 C -1.385775 2.563118 -0.174306 0
M  V30 16 C -2.657103 2.931637 -0.569073 0
M  V30 17 N -3.607211 1.978977 -0.576139 0
M  V30 18 C -3.318374 0.718594 -0.210553 0
M  V30 19 N -4.329596 -0.279433 -0.222032 0
M  V30 20 C -5.688849 0.025970 -0.625472 0
M  V30 21 C -5.815397 0.527134 -2.025099 0
M  V30 22 C -6.085901 -0.600806 -3.011216 0
M  V30 23 O -7.253882 -1.234206 -2.597032 0
M  V30 24 C -6.891956 -2.006772 -1.470734 0
M  V30 25 C -6.645351 -1.080913 -0.305633 0
M  V30 26 N -2.074326 0.384048 0.169630 0
M  V30 27 C 0.503464 -0.415754 0.981895 0
M  V30 28 C 1.737133 -0.878324 1.389291 0
M  V30 29 O 1.993769 -2.061195 1.728549 0
M  V30 30 C 4.880659 -2.388037 0.772190 0
M  V30 31 H 6.303690 -3.580053 -1.206954 0
M  V30 32 H 6.216095 -5.236799 -0.481211 0
M  V30 33 H 4.772108 -4.499312 -1.290540 0
M  V30 34 H 5.322971 -5.575933 1.757151 0
M  V30 35 H 4.577540 -4.574414 3.827625 0
M  V30 36 H 4.041067 -2.236895 3.932862 0
M  V30 37 H 4.798019 0.109849 1.034876 0
M  V30 38 H 4.113555 1.467274 2.931559 0
M  V30 39 H 5.522142 0.371510 3.367797 0
M  V30 40 H 2.971116 0.610752 4.493263 0
M  V30 41 H 3.379555 2.012537 1.109901 0
M  V30 42 H 1.211872 2.765195 0.408478 0
M  V30 43 H -0.652729 3.338291 -0.178243 0
M  V30 44 H -2.901205 3.948404 -0.866689 0
M  V30 45 H -4.119162 -1.261380 0.060660 0
M  V30 46 H -5.987154 0.888802 0.041431 0
M  V30 47 H -6.744292 1.164663 -2.064556 0
M  V30 48 H -4.962146 1.129439 -2.332488 0
M  V30 49 H -6.145143 -0.178654 -4.019042 0
M  V30 50 H -5.256321 -1.337171 -2.892515 0
M  V30 51 H -5.969854 -2.548383 -1.753758 0
M  V30 52 H -7.721242 -2.687417 -1.204659 0
M  V30 53 H -6.224343 -1.667828 0.538281 0
M  V30 54 H -7.641701 -0.662113 -0.015158 0
M  V30 55 H -0.275407 -1.189563 0.974386 0
M  V30 56 H 4.989950 -1.812259 -0.147951 0
M  V30 END ATOM
M  V30 BEGIN BOND
M  V30 1 1 1 2
M  V30 2 2 2 3
M  V30 3 1 3 4
M  V30 4 2 4 5
M  V30 5 1 5 6
M  V30 6 1 6 7
M  V30 7 1 7 8
M  V30 8 1 8 9
M  V30 9 1 7 10
M  V30 10 1 10 11
M  V30 11 2 11 12
M  V30 12 1 12 13
M  V30 13 1 13 14
M  V30 14 2 14 15
M  V30 15 1 15 16
M  V30 16 2 16 17
M  V30 17 1 17 18
M  V30 18 1 18 19
M  V30 19 1 19 20
M  V30 20 1 20 21
M  V30 21 1 21 22
M  V30 22 1 22 23
M  V30 23 1 23 24
M  V30 24 1 24 25
M  V30 25 2 18 26
M  V30 26 2 13 27
M  V30 27 1 27 28
M  V30 28 2 28 29
M  V30 29 2 6 30
M  V30 30 1 30 2
M  V30 31 1 28 10
M  V30 32 1 26 14
M  V30 33 1 25 20
M  V30 34 1 1 31
M  V30 35 1 1 32
M  V30 36 1 1 33
M  V30 37 1 3 34
M  V30 38 1 4 35
M  V30 39 1 5 36
M  V30 40 1 7 37
M  V30 41 1 8 38
M  V30 42 1 8 39
M  V30 43 1 9 40
M  V30 44 1 11 41
M  V30 45 1 12 42
M  V30 46 1 15 43
M  V30 47 1 16 44
M  V30 48 1 19 45
M  V30 49 1 20 46
M  V30 50 1 21 47
M  V30 51 1 21 48
M  V30 52 1 22 49
M  V30 53 1 22 50
M  V30 54 1 24 51
M  V30 55 1 24 52
M  V30 56 1 25 53
M  V30 57 1 25 54
M  V30 58 1 27 55
M  V30 59 1 30 56
M  V30 END BOND
M  V30 END CTAB
M  END
>  <Dataset>  (670) 
ChEMBL_Kinases

>  <Ligand_Instance>  (670) 
nan

>  <PDB_ID>  (670) 
nan

>  <Standardized_SMILES>  (670) 
Cc1cccc(C(CO)n2ccc(-c3ccnc(NC4CCOCC4)n3)cc2=O)c1

>  <Name>  (670) 
nan

>  <Pocket>  (670) 
nan

>  <ATP_Site>  (670) 
nan

>  <Peripheral>  (670) 
nan

>  <Num_H_Atoms_ProtBoundConf>  (670) 
nan

>  <Num_Resolved_Atoms>  (670) 
nan

>  <Num_Not_Resolved_Atoms>  (670) 
nan

$$$$
CHEMBL3409575
     RDKit          3D

  0  0  0  0  0  0  0  0  0  0999 V3000
M  V30 BEGIN CTAB
M  V30 COUNTS 53 56 0 0 0
M  V30 BEGIN ATOM
M  V30 1 O -1.088126 -1.601669 2.395977 0
M  V30 2 C -1.274336 -1.404147 1.149403 0
M  V30 3 C -0.369763 -0.539790 0.521943 0
M  V30 4 C -0.544626 -0.305372 -0.828104 0
M  V30 5 C 0.403965 0.598535 -1.477548 0
M  V30 6 C 0.365074 0.930944 -2.805460 0
M  V30 7 C 1.278569 1.781284 -3.357745 0
M  V30 8 N 2.228174 2.291644 -2.562222 0
M  V30 9 C 2.308672 1.992025 -1.237732 0
M  V30 10 N 3.320481 2.536712 -0.393455 0
M  V30 11 C 3.325255 2.153025 1.026934 0
M  V30 12 C 2.072691 2.526974 1.741643 0
M  V30 13 C 2.212965 3.711478 2.648094 0
M  V30 14 O 3.387762 3.778278 3.354153 0
M  V30 15 C 4.226929 2.699729 3.211672 0
M  V30 16 C 4.567371 2.589803 1.720227 0
M  V30 17 N 1.371572 1.136947 -0.734274 0
M  V30 18 C -1.583093 -0.923188 -1.480122 0
M  V30 19 C -2.439642 -1.765050 -0.800210 0
M  V30 20 N -2.311516 -2.025977 0.515797 0
M  V30 21 C -3.184683 -2.900869 1.270224 0
M  V30 22 C -4.632560 -2.721417 0.927208 0
M  V30 23 O -5.120566 -1.469067 1.150396 0
M  V30 24 C -2.741172 -4.311953 1.128229 0
M  V30 25 C -3.208035 -5.135921 0.122930 0
M  V30 26 C -2.788857 -6.451734 -0.002281 0
M  V30 27 C -1.874103 -6.986555 0.892792 0
M  V30 28 C -1.381570 -6.179770 1.922079 0
M  V30 29 F -0.488248 -6.706155 2.793996 0
M  V30 30 C -1.831801 -4.880681 1.999479 0
M  V30 31 H 0.412207 -0.095823 1.090853 0
M  V30 32 H -0.394554 0.518601 -3.427004 0
M  V30 33 H 1.262170 2.054140 -4.404092 0
M  V30 34 H 4.005051 3.183476 -0.842336 0
M  V30 35 H 3.372348 1.028747 0.990752 0
M  V30 36 H 1.720409 1.687191 2.375753 0
M  V30 37 H 1.241988 2.751345 1.045679 0
M  V30 38 H 1.390030 3.676717 3.406562 0
M  V30 39 H 1.998486 4.644452 2.067253 0
M  V30 40 H 3.786339 1.762824 3.581273 0
M  V30 41 H 5.162667 2.954264 3.773315 0
M  V30 42 H 4.848663 3.588087 1.344954 0
M  V30 43 H 5.408677 1.864503 1.656435 0
M  V30 44 H -1.724946 -0.743573 -2.536790 0
M  V30 45 H -3.251879 -2.240934 -1.337133 0
M  V30 46 H -3.072920 -2.652088 2.348372 0
M  V30 47 H -5.261964 -3.470657 1.445818 0
M  V30 48 H -4.762862 -2.954480 -0.166943 0
M  V30 49 H -4.762475 -0.762551 0.588795 0
M  V30 50 H -3.919115 -4.767319 -0.596215 0
M  V30 51 H -3.140743 -7.122869 -0.785014 0
M  V30 52 H -1.521931 -8.014589 0.826257 0
M  V30 53 H -1.416366 -4.321511 2.807032 0
M  V30 END ATOM
M  V30 BEGIN BOND
M  V30 1 2 1 2
M  V30 2 1 2 3
M  V30 3 2 3 4
M  V30 4 1 4 5
M  V30 5 2 5 6
M  V30 6 1 6 7
M  V30 7 2 7 8
M  V30 8 1 8 9
M  V30 9 1 9 10
M  V30 10 1 10 11
M  V30 11 1 11 12
M  V30 12 1 12 13
M  V30 13 1 13 14
M  V30 14 1 14 15
M  V30 15 1 15 16
M  V30 16 2 9 17
M  V30 17 1 4 18
M  V30 18 2 18 19
M  V30 19 1 19 20
M  V30 20 1 20 21
M  V30 21 1 21 22
M  V30 22 1 22 23
M  V30 23 1 21 24
M  V30 24 2 24 25
M  V30 25 1 25 26
M  V30 26 2 26 27
M  V30 27 1 27 28
M  V30 28 1 28 29
M  V30 29 2 28 30
M  V30 30 1 20 2
M  V30 31 1 30 24
M  V30 32 1 17 5
M  V30 33 1 16 11
M  V30 34 1 3 31
M  V30 35 1 6 32
M  V30 36 1 7 33
M  V30 37 1 10 34
M  V30 38 1 11 35
M  V30 39 1 12 36
M  V30 40 1 12 37
M  V30 41 1 13 38
M  V30 42 1 13 39
M  V30 43 1 15 40
M  V30 44 1 15 41
M  V30 45 1 16 42
M  V30 46 1 16 43
M  V30 47 1 18 44
M  V30 48 1 19 45
M  V30 49 1 21 46
M  V30 50 1 22 47
M  V30 51 1 22 48
M  V30 52 1 23 49
M  V30 53 1 25 50
M  V30 54 1 26 51
M  V30 55 1 27 52
M  V30 56 1 30 53
M  V30 END BOND
M  V30 END CTAB
M  END
>  <Dataset>  (671) 
ChEMBL_Kinases

>  <Ligand_Instance>  (671) 
nan

>  <PDB_ID>  (671) 
nan

>  <Standardized_SMILES>  (671) 
O=c1cc(-c2ccnc(NC3CCOCC3)n2)ccn1C(CO)c1cccc(F)c1

>  <Name>  (671) 
nan

>  <Pocket>  (671) 
nan

>  <ATP_Site>  (671) 
nan

>  <Peripheral>  (671) 
nan

>  <Num_H_Atoms_ProtBoundConf>  (671) 
nan

>  <Num_Resolved_Atoms>  (671) 
nan

>  <Num_Not_Resolved_Atoms>  (671) 
nan

$$$$
CHEMBL3409574
     RDKit          3D

  0  0  0  0  0  0  0  0  0  0999 V3000
M  V30 BEGIN CTAB
M  V30 COUNTS 53 56 0 0 0
M  V30 BEGIN ATOM
M  V30 1 O -1.166077 -1.461767 2.410325 0
M  V30 2 C -1.335023 -1.321060 1.152037 0
M  V30 3 C -0.393846 -0.529621 0.522486 0
M  V30 4 C -0.514047 -0.333310 -0.839331 0
M  V30 5 C 0.475850 0.501771 -1.514397 0
M  V30 6 C 0.466482 0.769855 -2.846648 0
M  V30 7 C 1.446096 1.571430 -3.394375 0
M  V30 8 N 2.405072 2.082128 -2.601626 0
M  V30 9 C 2.424784 1.821238 -1.269042 0
M  V30 10 N 3.438053 2.359538 -0.425251 0
M  V30 11 C 3.393486 2.035395 0.995152 0
M  V30 12 C 2.126980 2.495946 1.650082 0
M  V30 13 C 2.297344 3.657425 2.570556 0
M  V30 14 O 3.444976 3.666936 3.318912 0
M  V30 15 C 4.217614 2.537308 3.197737 0
M  V30 16 C 4.628451 2.448617 1.721382 0
M  V30 17 N 1.447662 1.034520 -0.784829 0
M  V30 18 C -1.574168 -0.947631 -1.474236 0
M  V30 19 C -2.493016 -1.732448 -0.800647 0
M  V30 20 N -2.376425 -1.924753 0.529439 0
M  V30 21 C -3.300563 -2.733141 1.299657 0
M  V30 22 C -4.728424 -2.535559 0.855231 0
M  V30 23 O -5.141816 -1.225859 0.988376 0
M  V30 24 C -2.867088 -4.143198 1.190354 0
M  V30 25 C -3.302154 -5.007747 0.202304 0
M  V30 26 C -2.889338 -6.320522 0.112731 0
M  V30 27 C -1.999957 -6.837839 1.032489 0
M  V30 28 C -1.532877 -6.019373 2.040443 0
M  V30 29 Cl -0.405464 -6.660890 3.213101 0
M  V30 30 C -1.978164 -4.714882 2.083340 0
M  V30 31 H 0.414184 -0.074581 1.070290 0
M  V30 32 H -0.301601 0.358876 -3.472281 0
M  V30 33 H 1.488634 1.820140 -4.455635 0
M  V30 34 H 4.168679 2.963209 -0.862158 0
M  V30 35 H 3.386975 0.905831 1.010184 0
M  V30 36 H 1.639075 1.671933 2.210906 0
M  V30 37 H 1.443240 2.802137 0.814328 0
M  V30 38 H 1.446064 3.636600 3.304958 0
M  V30 39 H 2.146693 4.646803 2.046195 0
M  V30 40 H 3.664391 1.589343 3.397983 0
M  V30 41 H 5.070646 2.579103 3.869495 0
M  V30 42 H 4.962739 3.472110 1.447562 0
M  V30 43 H 5.456761 1.719428 1.672472 0
M  V30 44 H -1.688855 -0.808358 -2.540653 0
M  V30 45 H -3.311723 -2.197436 -1.336723 0
M  V30 46 H -3.240230 -2.400121 2.357123 0
M  V30 47 H -5.409580 -3.176253 1.450781 0
M  V30 48 H -4.873501 -2.836641 -0.190845 0
M  V30 49 H -4.603584 -0.582138 0.488349 0
M  V30 50 H -3.997298 -4.647596 -0.537911 0
M  V30 51 H -3.239113 -6.990266 -0.669380 0
M  V30 52 H -1.683377 -7.860876 0.955951 0
M  V30 53 H -1.567556 -4.137738 2.900861 0
M  V30 END ATOM
M  V30 BEGIN BOND
M  V30 1 2 1 2
M  V30 2 1 2 3
M  V30 3 2 3 4
M  V30 4 1 4 5
M  V30 5 2 5 6
M  V30 6 1 6 7
M  V30 7 2 7 8
M  V30 8 1 8 9
M  V30 9 1 9 10
M  V30 10 1 10 11
M  V30 11 1 11 12
M  V30 12 1 12 13
M  V30 13 1 13 14
M  V30 14 1 14 15
M  V30 15 1 15 16
M  V30 16 2 9 17
M  V30 17 1 4 18
M  V30 18 2 18 19
M  V30 19 1 19 20
M  V30 20 1 20 21
M  V30 21 1 21 22
M  V30 22 1 22 23
M  V30 23 1 21 24
M  V30 24 2 24 25
M  V30 25 1 25 26
M  V30 26 2 26 27
M  V30 27 1 27 28
M  V30 28 1 28 29
M  V30 29 2 28 30
M  V30 30 1 20 2
M  V30 31 1 30 24
M  V30 32 1 17 5
M  V30 33 1 16 11
M  V30 34 1 3 31
M  V30 35 1 6 32
M  V30 36 1 7 33
M  V30 37 1 10 34
M  V30 38 1 11 35
M  V30 39 1 12 36
M  V30 40 1 12 37
M  V30 41 1 13 38
M  V30 42 1 13 39
M  V30 43 1 15 40
M  V30 44 1 15 41
M  V30 45 1 16 42
M  V30 46 1 16 43
M  V30 47 1 18 44
M  V30 48 1 19 45
M  V30 49 1 21 46
M  V30 50 1 22 47
M  V30 51 1 22 48
M  V30 52 1 23 49
M  V30 53 1 25 50
M  V30 54 1 26 51
M  V30 55 1 27 52
M  V30 56 1 30 53
M  V30 END BOND
M  V30 END CTAB
M  END
>  <Dataset>  (672) 
ChEMBL_Kinases

>  <Ligand_Instance>  (672) 
nan

>  <PDB_ID>  (672) 
nan

>  <Standardized_SMILES>  (672) 
O=c1cc(-c2ccnc(NC3CCOCC3)n2)ccn1C(CO)c1cccc(Cl)c1

>  <Name>  (672) 
nan

>  <Pocket>  (672) 
nan

>  <ATP_Site>  (672) 
nan

>  <Peripheral>  (672) 
nan

>  <Num_H_Atoms_ProtBoundConf>  (672) 
nan

>  <Num_Resolved_Atoms>  (672) 
nan

>  <Num_Not_Resolved_Atoms>  (672) 
nan

$$$$
CHEMBL3409573
     RDKit          3D

  0  0  0  0  0  0  0  0  0  0999 V3000
M  V30 BEGIN CTAB
M  V30 COUNTS 53 56 0 0 0
M  V30 BEGIN ATOM
M  V30 1 O -0.979326 -2.316264 1.531901 0
M  V30 2 C -1.381678 -1.557940 0.614124 0
M  V30 3 C -0.588753 -0.488064 0.252404 0
M  V30 4 C -1.014352 0.355085 -0.753347 0
M  V30 5 C -0.147401 1.475090 -1.106600 0
M  V30 6 C -0.414834 2.396103 -2.070909 0
M  V30 7 C 0.421738 3.444262 -2.384925 0
M  V30 8 N 1.560760 3.529368 -1.674869 0
M  V30 9 C 1.870971 2.639781 -0.707785 0
M  V30 10 N 3.090844 2.779014 0.011335 0
M  V30 11 C 3.422340 1.815867 1.058052 0
M  V30 12 C 2.425624 1.772503 2.169274 0
M  V30 13 C 2.822840 2.597645 3.367799 0
M  V30 14 O 4.176262 2.594877 3.634007 0
M  V30 15 C 4.865517 1.587605 2.991638 0
M  V30 16 C 4.846495 1.928109 1.496193 0
M  V30 17 N 1.011267 1.638095 -0.449067 0
M  V30 18 C -2.205732 0.091475 -1.347475 0
M  V30 19 C -2.958164 -1.012165 -0.929343 0
M  V30 20 N -2.564174 -1.852647 0.052462 0
M  V30 21 C -3.431921 -2.939535 0.375495 0
M  V30 22 C -4.420483 -3.273680 -0.699755 0
M  V30 23 O -3.885390 -3.637161 -1.907753 0
M  V30 24 C -2.752162 -4.140358 0.919219 0
M  V30 25 C -2.600846 -4.396949 2.287598 0
M  V30 26 C -1.963951 -5.521884 2.768993 0
M  V30 27 C -1.441574 -6.455315 1.897749 0
M  V30 28 Cl -0.636258 -7.877861 2.507779 0
M  V30 29 C -1.568317 -6.242211 0.527197 0
M  V30 30 C -2.212513 -5.103989 0.086856 0
M  V30 31 H 0.357797 -0.349651 0.784899 0
M  V30 32 H -1.335878 2.312555 -2.632172 0
M  V30 33 H 0.140033 4.146910 -3.173973 0
M  V30 34 H 3.736724 3.549319 -0.200399 0
M  V30 35 H 3.341636 0.814247 0.541228 0
M  V30 36 H 2.202682 0.718928 2.496433 0
M  V30 37 H 1.449725 2.189028 1.823663 0
M  V30 38 H 2.303291 2.178202 4.256209 0
M  V30 39 H 2.427114 3.642413 3.251573 0
M  V30 40 H 4.357293 0.613177 3.098380 0
M  V30 41 H 5.907816 1.586571 3.341251 0
M  V30 42 H 5.319708 2.907074 1.302840 0
M  V30 43 H 5.516116 1.168328 1.021265 0
M  V30 44 H -2.544779 0.748644 -2.136660 0
M  V30 45 H -3.885323 -1.123407 -1.471187 0
M  V30 46 H -4.072911 -2.566750 1.232527 0
M  V30 47 H -5.193154 -2.491832 -0.725551 0
M  V30 48 H -4.964451 -4.190061 -0.320267 0
M  V30 49 H -4.527509 -3.345513 -2.631978 0
M  V30 50 H -3.010330 -3.664843 2.981152 0
M  V30 51 H -1.872361 -5.675331 3.826179 0
M  V30 52 H -1.152695 -6.984644 -0.144875 0
M  V30 53 H -2.261307 -5.026203 -0.971181 0
M  V30 END ATOM
M  V30 BEGIN BOND
M  V30 1 2 1 2
M  V30 2 1 2 3
M  V30 3 2 3 4
M  V30 4 1 4 5
M  V30 5 2 5 6
M  V30 6 1 6 7
M  V30 7 2 7 8
M  V30 8 1 8 9
M  V30 9 1 9 10
M  V30 10 1 10 11
M  V30 11 1 11 12
M  V30 12 1 12 13
M  V30 13 1 13 14
M  V30 14 1 14 15
M  V30 15 1 15 16
M  V30 16 2 9 17
M  V30 17 1 4 18
M  V30 18 2 18 19
M  V30 19 1 19 20
M  V30 20 1 20 21
M  V30 21 1 21 22
M  V30 22 1 22 23
M  V30 23 1 21 24
M  V30 24 2 24 25
M  V30 25 1 25 26
M  V30 26 2 26 27
M  V30 27 1 27 28
M  V30 28 1 27 29
M  V30 29 2 29 30
M  V30 30 1 20 2
M  V30 31 1 30 24
M  V30 32 1 17 5
M  V30 33 1 16 11
M  V30 34 1 3 31
M  V30 35 1 6 32
M  V30 36 1 7 33
M  V30 37 1 10 34
M  V30 38 1 11 35
M  V30 39 1 12 36
M  V30 40 1 12 37
M  V30 41 1 13 38
M  V30 42 1 13 39
M  V30 43 1 15 40
M  V30 44 1 15 41
M  V30 45 1 16 42
M  V30 46 1 16 43
M  V30 47 1 18 44
M  V30 48 1 19 45
M  V30 49 1 21 46
M  V30 50 1 22 47
M  V30 51 1 22 48
M  V30 52 1 23 49
M  V30 53 1 25 50
M  V30 54 1 26 51
M  V30 55 1 29 52
M  V30 56 1 30 53
M  V30 END BOND
M  V30 END CTAB
M  END
>  <Dataset>  (673) 
ChEMBL_Kinases

>  <Ligand_Instance>  (673) 
nan

>  <PDB_ID>  (673) 
nan

>  <Standardized_SMILES>  (673) 
O=c1cc(-c2ccnc(NC3CCOCC3)n2)ccn1C(CO)c1ccc(Cl)cc1

>  <Name>  (673) 
nan

>  <Pocket>  (673) 
nan

>  <ATP_Site>  (673) 
nan

>  <Peripheral>  (673) 
nan

>  <Num_H_Atoms_ProtBoundConf>  (673) 
nan

>  <Num_Resolved_Atoms>  (673) 
nan

>  <Num_Not_Resolved_Atoms>  (673) 
nan

$$$$
CHEMBL3409572
     RDKit          3D

  0  0  0  0  0  0  0  0  0  0999 V3000
M  V30 BEGIN CTAB
M  V30 COUNTS 53 56 0 0 0
M  V30 BEGIN ATOM
M  V30 1 O -1.140397 -1.693151 2.256013 0
M  V30 2 C -1.361710 -1.350905 1.066031 0
M  V30 3 C -0.469759 -0.526694 0.420731 0
M  V30 4 C -0.660361 -0.118962 -0.883240 0
M  V30 5 C 0.334599 0.755599 -1.493180 0
M  V30 6 C 0.242351 1.221232 -2.787410 0
M  V30 7 C 1.274972 2.046872 -3.218325 0
M  V30 8 N 2.333026 2.396046 -2.432296 0
M  V30 9 C 2.387862 1.916882 -1.162996 0
M  V30 10 N 3.468009 2.248255 -0.299300 0
M  V30 11 C 3.480988 1.710505 1.049552 0
M  V30 12 C 2.299425 2.112894 1.875755 0
M  V30 13 C 2.570628 3.205729 2.857740 0
M  V30 14 O 3.795583 3.169018 3.472440 0
M  V30 15 C 4.452708 1.963096 3.246290 0
M  V30 16 C 4.787258 1.972932 1.748610 0
M  V30 17 N 1.395601 1.125015 -0.752648 0
M  V30 18 C -1.785019 -0.566338 -1.531300 0
M  V30 19 C -2.655515 -1.387996 -0.858847 0
M  V30 20 N -2.475219 -1.787892 0.409784 0
M  V30 21 C -3.364160 -2.652537 1.159369 0
M  V30 22 C -4.787758 -2.574065 0.655055 0
M  V30 23 O -5.283909 -1.299096 0.753133 0
M  V30 24 C -2.820465 -4.023745 1.075935 0
M  V30 25 C -2.563367 -4.581638 -0.160033 0
M  V30 26 C -2.054062 -5.866176 -0.206748 0
M  V30 27 C -1.805498 -6.581461 0.953889 0
M  V30 28 C -2.061584 -6.027390 2.206016 0
M  V30 29 C -2.571341 -4.739899 2.228632 0
M  V30 30 Cl -2.875681 -4.090781 3.823625 0
M  V30 31 H 0.402883 -0.201910 0.978710 0
M  V30 32 H -0.580756 0.949251 -3.398174 0
M  V30 33 H 1.243899 2.435172 -4.226056 0
M  V30 34 H 4.237938 2.868658 -0.633198 0
M  V30 35 H 3.411935 0.587367 0.950019 0
M  V30 36 H 1.822390 1.253900 2.412084 0
M  V30 37 H 1.515418 2.506740 1.180451 0
M  V30 38 H 1.796219 3.141478 3.673013 0
M  V30 39 H 2.400447 4.194586 2.383950 0
M  V30 40 H 3.780062 1.101288 3.453332 0
M  V30 41 H 5.367915 1.940897 3.863825 0
M  V30 42 H 5.170329 2.990201 1.537534 0
M  V30 43 H 5.538187 1.177164 1.574036 0
M  V30 44 H -1.969296 -0.271485 -2.546706 0
M  V30 45 H -3.535063 -1.736249 -1.369700 0
M  V30 46 H -3.369921 -2.300592 2.203246 0
M  V30 47 H -4.850509 -2.932286 -0.379926 0
M  V30 48 H -5.416016 -3.235498 1.305208 0
M  V30 49 H -5.587763 -0.949691 -0.111184 0
M  V30 50 H -2.754976 -4.028384 -1.078136 0
M  V30 51 H -1.860892 -6.281530 -1.185687 0
M  V30 52 H -1.404100 -7.593218 0.911533 0
M  V30 53 H -1.859473 -6.605186 3.097150 0
M  V30 END ATOM
M  V30 BEGIN BOND
M  V30 1 2 1 2
M  V30 2 1 2 3
M  V30 3 2 3 4
M  V30 4 1 4 5
M  V30 5 2 5 6
M  V30 6 1 6 7
M  V30 7 2 7 8
M  V30 8 1 8 9
M  V30 9 1 9 10
M  V30 10 1 10 11
M  V30 11 1 11 12
M  V30 12 1 12 13
M  V30 13 1 13 14
M  V30 14 1 14 15
M  V30 15 1 15 16
M  V30 16 2 9 17
M  V30 17 1 4 18
M  V30 18 2 18 19
M  V30 19 1 19 20
M  V30 20 1 20 21
M  V30 21 1 21 22
M  V30 22 1 22 23
M  V30 23 1 21 24
M  V30 24 2 24 25
M  V30 25 1 25 26
M  V30 26 2 26 27
M  V30 27 1 27 28
M  V30 28 2 28 29
M  V30 29 1 29 30
M  V30 30 1 20 2
M  V30 31 1 29 24
M  V30 32 1 17 5
M  V30 33 1 16 11
M  V30 34 1 3 31
M  V30 35 1 6 32
M  V30 36 1 7 33
M  V30 37 1 10 34
M  V30 38 1 11 35
M  V30 39 1 12 36
M  V30 40 1 12 37
M  V30 41 1 13 38
M  V30 42 1 13 39
M  V30 43 1 15 40
M  V30 44 1 15 41
M  V30 45 1 16 42
M  V30 46 1 16 43
M  V30 47 1 18 44
M  V30 48 1 19 45
M  V30 49 1 21 46
M  V30 50 1 22 47
M  V30 51 1 22 48
M  V30 52 1 23 49
M  V30 53 1 25 50
M  V30 54 1 26 51
M  V30 55 1 27 52
M  V30 56 1 28 53
M  V30 END BOND
M  V30 END CTAB
M  END
>  <Dataset>  (674) 
ChEMBL_Kinases

>  <Ligand_Instance>  (674) 
nan

>  <PDB_ID>  (674) 
nan

>  <Standardized_SMILES>  (674) 
O=c1cc(-c2ccnc(NC3CCOCC3)n2)ccn1C(CO)c1ccccc1Cl

>  <Name>  (674) 
nan

>  <Pocket>  (674) 
nan

>  <ATP_Site>  (674) 
nan

>  <Peripheral>  (674) 
nan

>  <Num_H_Atoms_ProtBoundConf>  (674) 
nan

>  <Num_Resolved_Atoms>  (674) 
nan

>  <Num_Not_Resolved_Atoms>  (674) 
nan

$$$$
CHEMBL3409571
     RDKit          3D

  0  0  0  0  0  0  0  0  0  0999 V3000
M  V30 BEGIN CTAB
M  V30 COUNTS 53 56 0 0 0
M  V30 BEGIN ATOM
M  V30 1 O -1.643921 -4.282228 2.999398 0
M  V30 2 C -1.505269 -3.308208 2.230419 0
M  V30 3 C -0.432263 -2.456442 2.389282 0
M  V30 4 C -0.224839 -1.367339 1.575221 0
M  V30 5 C 0.881521 -0.424416 1.680636 0
M  V30 6 C 1.837472 -0.581190 2.660472 0
M  V30 7 C 2.845875 0.329360 2.710534 0
M  V30 8 N 2.893704 1.335769 1.832403 0
M  V30 9 C 1.972352 1.503073 0.873202 0
M  V30 10 N 2.008428 2.561393 -0.062075 0
M  V30 11 C 3.026371 3.578716 -0.091057 0
M  V30 12 C 2.972460 4.333500 1.218215 0
M  V30 13 C 4.002402 5.444131 1.236936 0
M  V30 14 O 5.166466 5.066208 0.580811 0
M  V30 15 C 5.321026 3.693530 0.720575 0
M  V30 16 C 4.420158 2.951006 -0.240499 0
M  V30 17 N 0.976783 0.601792 0.825886 0
M  V30 18 C -1.179725 -1.190128 0.579206 0
M  V30 19 C -2.257454 -2.053022 0.426388 0
M  V30 20 N -2.414037 -3.106867 1.252668 0
M  V30 21 C -3.561989 -3.964390 1.034104 0
M  V30 22 C -4.803007 -3.200206 1.394897 0
M  V30 23 O -5.002024 -2.046944 0.670227 0
M  V30 24 C -3.609042 -4.539676 -0.324728 0
M  V30 25 C -4.196116 -4.034965 -1.456693 0
M  V30 26 C -4.173489 -4.665505 -2.673813 0
M  V30 27 C -3.544304 -5.869921 -2.829599 0
M  V30 28 C -2.937542 -6.436570 -1.752710 0
M  V30 29 C -2.982470 -5.771276 -0.546402 0
M  V30 30 H 0.271802 -2.640099 3.172033 0
M  V30 31 H 1.837866 -1.364493 3.376820 0
M  V30 32 H 3.664094 0.338015 3.418641 0
M  V30 33 H 1.263850 2.635110 -0.788397 0
M  V30 34 H 2.877881 4.319182 -0.883441 0
M  V30 35 H 3.036477 3.680013 2.084506 0
M  V30 36 H 1.955484 4.821780 1.243314 0
M  V30 37 H 3.583123 6.315216 0.699158 0
M  V30 38 H 4.283601 5.729534 2.270069 0
M  V30 39 H 6.383812 3.398973 0.617453 0
M  V30 40 H 5.030237 3.416520 1.750500 0
M  V30 41 H 4.392805 1.882674 -0.016510 0
M  V30 42 H 4.774334 3.109166 -1.297751 0
M  V30 43 H -1.043706 -0.340565 -0.078328 0
M  V30 44 H -2.921094 -1.805142 -0.379721 0
M  V30 45 H -3.432999 -4.815652 1.750281 0
M  V30 46 H -5.664129 -3.887062 1.228640 0
M  V30 47 H -4.771301 -2.922365 2.474884 0
M  V30 48 H -5.935270 -1.769654 0.763696 0
M  V30 49 H -4.696114 -3.088901 -1.358267 0
M  V30 50 H -4.675195 -4.169909 -3.508592 0
M  V30 51 H -3.569860 -6.303335 -3.818447 0
M  V30 52 H -2.433405 -7.385492 -1.844593 0
M  V30 53 H -2.483752 -6.266682 0.277752 0
M  V30 END ATOM
M  V30 BEGIN BOND
M  V30 1 2 1 2
M  V30 2 1 2 3
M  V30 3 2 3 4
M  V30 4 1 4 5
M  V30 5 2 5 6
M  V30 6 1 6 7
M  V30 7 2 7 8
M  V30 8 1 8 9
M  V30 9 1 9 10
M  V30 10 1 10 11
M  V30 11 1 11 12
M  V30 12 1 12 13
M  V30 13 1 13 14
M  V30 14 1 14 15
M  V30 15 1 15 16
M  V30 16 2 9 17
M  V30 17 1 4 18
M  V30 18 2 18 19
M  V30 19 1 19 20
M  V30 20 1 20 21
M  V30 21 1 21 22
M  V30 22 1 22 23
M  V30 23 1 21 24
M  V30 24 2 24 25
M  V30 25 1 25 26
M  V30 26 2 26 27
M  V30 27 1 27 28
M  V30 28 2 28 29
M  V30 29 1 20 2
M  V30 30 1 29 24
M  V30 31 1 17 5
M  V30 32 1 16 11
M  V30 33 1 3 30
M  V30 34 1 6 31
M  V30 35 1 7 32
M  V30 36 1 10 33
M  V30 37 1 11 34
M  V30 38 1 12 35
M  V30 39 1 12 36
M  V30 40 1 13 37
M  V30 41 1 13 38
M  V30 42 1 15 39
M  V30 43 1 15 40
M  V30 44 1 16 41
M  V30 45 1 16 42
M  V30 46 1 18 43
M  V30 47 1 19 44
M  V30 48 1 21 45
M  V30 49 1 22 46
M  V30 50 1 22 47
M  V30 51 1 23 48
M  V30 52 1 25 49
M  V30 53 1 26 50
M  V30 54 1 27 51
M  V30 55 1 28 52
M  V30 56 1 29 53
M  V30 END BOND
M  V30 END CTAB
M  END
>  <Dataset>  (675) 
ChEMBL_Kinases

>  <Ligand_Instance>  (675) 
nan

>  <PDB_ID>  (675) 
nan

>  <Standardized_SMILES>  (675) 
O=c1cc(-c2ccnc(NC3CCOCC3)n2)ccn1C(CO)c1ccccc1

>  <Name>  (675) 
nan

>  <Pocket>  (675) 
nan

>  <ATP_Site>  (675) 
nan

>  <Peripheral>  (675) 
nan

>  <Num_H_Atoms_ProtBoundConf>  (675) 
nan

>  <Num_Resolved_Atoms>  (675) 
nan

>  <Num_Not_Resolved_Atoms>  (675) 
nan

$$$$
CHEMBL3408949
     RDKit          3D

  0  0  0  0  0  0  0  0  0  0999 V3000
M  V30 BEGIN CTAB
M  V30 COUNTS 64 70 0 0 0
M  V30 BEGIN ATOM
M  V30 1 O 5.764118 3.771205 3.895756 0
M  V30 2 C 5.873814 2.866347 3.000362 0
M  V30 3 N 6.987748 1.996287 2.858450 0
M  V30 4 C 6.659190 1.220806 1.711876 0
M  V30 5 C 7.506355 0.245782 1.190816 0
M  V30 6 C 7.098413 -0.419746 0.056225 0
M  V30 7 C 5.899999 -0.154657 -0.567198 0
M  V30 8 C 5.148898 0.826603 0.038438 0
M  V30 9 C 5.426934 1.569081 1.165843 0
M  V30 10 C 4.829967 2.606922 1.977285 0 CFG=2
M  V30 11 C 4.391359 3.822059 1.159105 0
M  V30 12 C 3.482636 3.065799 2.106123 0 CFG=1
M  V30 13 C 2.248466 2.476792 1.612610 0
M  V30 14 C 1.891340 1.198331 1.248514 0
M  V30 15 C 0.659482 0.816156 0.772968 0
M  V30 16 C -0.313375 1.782147 0.643626 0
M  V30 17 C -1.617232 1.701778 0.203528 0
M  V30 18 C -2.318619 0.511692 -0.256921 0
M  V30 19 C -3.572820 0.562847 -0.653970 0
M  V30 20 C -4.358814 -0.571538 -1.131040 0
M  V30 21 C -5.677925 -0.406176 -1.525243 0
M  V30 22 C -6.431111 -1.469350 -1.977980 0
M  V30 23 C -5.895493 -2.737869 -2.054122 0
M  V30 24 C -4.581624 -2.946274 -1.670098 0
M  V30 25 C -3.997166 -4.309151 -1.752923 0
M  V30 26 N -4.223864 -5.003074 -0.528064 0
M  V30 27 C -3.673803 -6.342450 -0.519615 0
M  V30 28 C -3.225930 -6.745891 0.872372 0
M  V30 29 O -4.208082 -6.334075 1.771123 0
M  V30 30 C -4.073315 -4.961118 1.942696 0
M  V30 31 C -3.907917 -4.256545 0.644064 0
M  V30 32 C -3.863756 -1.840458 -1.220396 0
M  V30 33 N -2.103757 2.949772 0.287888 0
M  V30 34 N -1.178416 3.778263 0.750123 0
M  V30 35 C -0.050503 3.092315 0.983793 0
M  V30 36 C 1.205680 3.409410 1.454450 0
M  V30 37 H 7.815821 1.987453 3.487713 0
M  V30 38 H 8.462395 -0.031304 1.608150 0
M  V30 39 H 7.735997 -1.182616 -0.371208 0
M  V30 40 H 5.563443 -0.665423 -1.457448 0
M  V30 41 H 4.193319 1.031728 -0.472595 0
M  V30 42 H 4.842907 4.786201 1.452984 0
M  V30 43 H 4.267224 3.715247 0.081840 0
M  V30 44 H 3.288983 3.734768 3.017583 0
M  V30 45 H 2.683895 0.486922 1.380993 0
M  V30 46 H 0.525209 -0.223940 0.527132 0
M  V30 47 H -1.813772 -0.444460 -0.280124 0
M  V30 48 H -4.037762 1.535010 -0.614746 0
M  V30 49 H -6.066556 0.617032 -1.449913 0
M  V30 50 H -7.451048 -1.239020 -2.262679 0
M  V30 51 H -6.498092 -3.561729 -2.410760 0
M  V30 52 H -4.361267 -4.872834 -2.623575 0
M  V30 53 H -2.891860 -4.150164 -1.835027 0
M  V30 54 H -4.418961 -7.036272 -0.932670 0
M  V30 55 H -2.777609 -6.340505 -1.166302 0
M  V30 56 H -3.051490 -7.845600 0.882506 0
M  V30 57 H -2.292229 -6.209174 1.144019 0
M  V30 58 H -3.177546 -4.833499 2.613718 0
M  V30 59 H -4.966966 -4.530729 2.463659 0
M  V30 60 H -2.815643 -3.984668 0.558016 0
M  V30 61 H -4.509180 -3.312640 0.633443 0
M  V30 62 H -2.849953 -2.062699 -0.936100 0
M  V30 63 H -1.302807 4.816241 0.911405 0
M  V30 64 H 1.313136 4.459276 1.693235 0
M  V30 END ATOM
M  V30 BEGIN BOND
M  V30 1 2 1 2
M  V30 2 1 2 3
M  V30 3 1 3 4
M  V30 4 2 4 5
M  V30 5 1 5 6
M  V30 6 2 6 7
M  V30 7 1 7 8
M  V30 8 2 8 9
M  V30 9 1 9 10
M  V30 10 1 10 11 CFG=3
M  V30 11 1 11 12
M  V30 12 1 12 13
M  V30 13 2 13 14
M  V30 14 1 14 15
M  V30 15 2 15 16
M  V30 16 1 16 17
M  V30 17 1 17 18
M  V30 18 2 18 19
M  V30 19 1 19 20
M  V30 20 2 20 21
M  V30 21 1 21 22
M  V30 22 2 22 23
M  V30 23 1 23 24
M  V30 24 1 24 25
M  V30 25 1 25 26
M  V30 26 1 26 27
M  V30 27 1 27 28
M  V30 28 1 28 29
M  V30 29 1 29 30
M  V30 30 1 30 31
M  V30 31 2 24 32
M  V30 32 2 17 33
M  V30 33 1 33 34
M  V30 34 1 34 35
M  V30 35 2 35 36
M  V30 36 1 10 2
M  V30 37 1 36 13
M  V30 38 1 9 4
M  V30 39 1 12 10
M  V30 40 1 35 16
M  V30 41 1 32 20
M  V30 42 1 31 26
M  V30 43 1 3 37
M  V30 44 1 5 38
M  V30 45 1 6 39
M  V30 46 1 7 40
M  V30 47 1 8 41
M  V30 48 1 11 42
M  V30 49 1 11 43
M  V30 50 1 12 44 CFG=1
M  V30 51 1 14 45
M  V30 52 1 15 46
M  V30 53 1 18 47
M  V30 54 1 19 48
M  V30 55 1 21 49
M  V30 56 1 22 50
M  V30 57 1 23 51
M  V30 58 1 25 52
M  V30 59 1 25 53
M  V30 60 1 27 54
M  V30 61 1 27 55
M  V30 62 1 28 56
M  V30 63 1 28 57
M  V30 64 1 30 58
M  V30 65 1 30 59
M  V30 66 1 31 60
M  V30 67 1 31 61
M  V30 68 1 32 62
M  V30 69 1 34 63
M  V30 70 1 36 64
M  V30 END BOND
M  V30 END CTAB
M  END
>  <Dataset>  (676) 
ChEMBL_Kinases

>  <Ligand_Instance>  (676) 
nan

>  <PDB_ID>  (676) 
nan

>  <Standardized_SMILES>  (676) 
O=C1Nc2ccccc2[C@]12C[C@H]2c1ccc2c(/C=C/c3cccc(CN4CCOCC4)c3)n[nH]c2c1

>  <Name>  (676) 
nan

>  <Pocket>  (676) 
nan

>  <ATP_Site>  (676) 
nan

>  <Peripheral>  (676) 
nan

>  <Num_H_Atoms_ProtBoundConf>  (676) 
nan

>  <Num_Resolved_Atoms>  (676) 
nan

>  <Num_Not_Resolved_Atoms>  (676) 
nan

$$$$
CHEMBL3408950
     RDKit          3D

  0  0  0  0  0  0  0  0  0  0999 V3000
M  V30 BEGIN CTAB
M  V30 COUNTS 70 76 0 0 0
M  V30 BEGIN ATOM
M  V30 1 C 6.856095 2.755760 6.318113 0
M  V30 2 C 6.727344 2.352123 4.867754 0 CFG=2
M  V30 3 C 5.610975 3.138492 4.244557 0
M  V30 4 N 4.924630 2.371988 3.219954 0
M  V30 5 C 4.198163 3.276686 2.392349 0
M  V30 6 C 3.459744 2.636630 1.305339 0
M  V30 7 C 4.173615 2.506849 0.125635 0
M  V30 8 C 3.580858 1.915707 -0.978315 0
M  V30 9 C 2.279764 1.474244 -0.849295 0
M  V30 10 C 1.543118 1.588147 0.308223 0
M  V30 11 C 0.167359 1.119250 0.438147 0
M  V30 12 C -0.512304 0.542194 -0.530366 0
M  V30 13 C -1.889479 0.101299 -0.314984 0
M  V30 14 N -2.623051 0.204044 0.808327 0
M  V30 15 N -3.836718 -0.314769 0.610894 0
M  V30 16 C -3.915385 -0.764768 -0.644966 0
M  V30 17 C -4.881137 -1.382619 -1.413932 0
M  V30 18 C -4.753840 -1.774152 -2.723051 0
M  V30 19 C -5.727284 -2.432975 -3.565223 0 CFG=2
M  V30 20 C -7.193293 -2.271422 -3.126333 0
M  V30 21 C -6.567103 -3.582403 -3.315419 0 CFG=1
M  V30 22 C -6.950590 -4.413563 -4.525595 0
M  V30 23 O -7.188765 -3.867644 -5.643822 0
M  V30 24 N -7.005025 -5.806432 -4.257086 0
M  V30 25 C -6.677670 -5.901370 -2.875882 0
M  V30 26 C -6.624957 -7.108083 -2.193630 0
M  V30 27 C -6.308417 -7.095162 -0.853412 0
M  V30 28 C -6.056059 -5.887624 -0.239089 0
M  V30 29 C -6.128128 -4.729592 -0.985859 0
M  V30 30 C -6.435910 -4.636075 -2.330714 0
M  V30 31 C -3.478396 -1.468074 -3.230136 0
M  V30 32 C -2.450802 -0.854105 -2.542150 0
M  V30 33 C -2.700319 -0.513650 -1.247998 0
M  V30 34 C 2.165108 2.181647 1.386715 0
M  V30 35 C 5.896733 1.570884 2.538358 0
M  V30 36 C 6.415560 0.513635 3.519596 0 CFG=2
M  V30 37 C 5.637550 -0.757328 3.371273 0
M  V30 38 O 6.402128 1.006965 4.816131 0
M  V30 39 H 5.977058 2.382218 6.863693 0
M  V30 40 H 6.961283 3.862906 6.388813 0
M  V30 41 H 7.813955 2.341333 6.686181 0
M  V30 42 H 7.718480 2.569480 4.411637 0
M  V30 43 H 6.072637 4.066438 3.815803 0
M  V30 44 H 4.942022 3.494390 5.037551 0
M  V30 45 H 4.887419 4.087181 2.030347 0
M  V30 46 H 3.461614 3.806179 3.029735 0
M  V30 47 H 5.204839 2.849681 0.002111 0
M  V30 48 H 4.139567 1.813775 -1.902867 0
M  V30 49 H 1.858120 1.025620 -1.718747 0
M  V30 50 H -0.350404 1.237290 1.367875 0
M  V30 51 H -0.053062 0.394634 -1.483455 0
M  V30 52 H -4.637387 -0.393641 1.267169 0
M  V30 53 H -5.822707 -1.564334 -0.934803 0
M  V30 54 H -5.543110 -2.243561 -4.669661 0
M  V30 55 H -7.897718 -1.870552 -3.891745 0
M  V30 56 H -7.431594 -1.951399 -2.116460 0
M  V30 57 H -7.243092 -6.506614 -4.989810 0
M  V30 58 H -6.812645 -8.064049 -2.629147 0
M  V30 59 H -6.259154 -8.005323 -0.298696 0
M  V30 60 H -5.811349 -5.917129 0.813067 0
M  V30 61 H -5.913573 -3.859015 -0.393839 0
M  V30 62 H -3.277797 -1.743006 -4.274247 0
M  V30 63 H -1.514489 -0.675348 -3.051488 0
M  V30 64 H 1.684725 2.326549 2.352806 0
M  V30 65 H 6.764827 2.133466 2.138685 0
M  V30 66 H 5.485720 0.995474 1.690929 0
M  V30 67 H 7.472425 0.304233 3.254774 0
M  V30 68 H 6.203922 -1.592834 3.794794 0
M  V30 69 H 4.640785 -0.718038 3.854042 0
M  V30 70 H 5.426342 -0.915063 2.289351 0
M  V30 END ATOM
M  V30 BEGIN BOND
M  V30 1 1 1 2
M  V30 2 1 2 3
M  V30 3 1 3 4
M  V30 4 1 4 5
M  V30 5 1 5 6
M  V30 6 2 6 7
M  V30 7 1 7 8
M  V30 8 2 8 9
M  V30 9 1 9 10
M  V30 10 1 10 11
M  V30 11 2 11 12
M  V30 12 1 12 13
M  V30 13 2 13 14
M  V30 14 1 14 15
M  V30 15 1 15 16
M  V30 16 2 16 17
M  V30 17 1 17 18
M  V30 18 1 18 19
M  V30 19 1 19 20
M  V30 20 1 21 20 CFG=1
M  V30 21 1 21 22
M  V30 22 2 22 23
M  V30 23 1 22 24
M  V30 24 1 24 25
M  V30 25 2 25 26
M  V30 26 1 26 27
M  V30 27 2 27 28
M  V30 28 1 28 29
M  V30 29 2 29 30
M  V30 30 2 18 31
M  V30 31 1 31 32
M  V30 32 2 32 33
M  V30 33 2 10 34
M  V30 34 1 4 35
M  V30 35 1 35 36
M  V30 36 1 36 37
M  V30 37 1 36 38
M  V30 38 1 38 2
M  V30 39 1 34 6
M  V30 40 1 33 13
M  V30 41 1 33 16
M  V30 42 1 21 19
M  V30 43 1 30 25
M  V30 44 1 30 21
M  V30 45 1 1 39
M  V30 46 1 1 40
M  V30 47 1 1 41
M  V30 48 1 2 42 CFG=3
M  V30 49 1 3 43
M  V30 50 1 3 44
M  V30 51 1 5 45
M  V30 52 1 5 46
M  V30 53 1 7 47
M  V30 54 1 8 48
M  V30 55 1 9 49
M  V30 56 1 11 50
M  V30 57 1 12 51
M  V30 58 1 15 52
M  V30 59 1 17 53
M  V30 60 1 19 54 CFG=3
M  V30 61 1 20 55
M  V30 62 1 20 56
M  V30 63 1 24 57
M  V30 64 1 26 58
M  V30 65 1 27 59
M  V30 66 1 28 60
M  V30 67 1 29 61
M  V30 68 1 31 62
M  V30 69 1 32 63
M  V30 70 1 34 64
M  V30 71 1 35 65
M  V30 72 1 35 66
M  V30 73 1 36 67 CFG=3
M  V30 74 1 37 68
M  V30 75 1 37 69
M  V30 76 1 37 70
M  V30 END BOND
M  V30 END CTAB
M  END
>  <Dataset>  (677) 
ChEMBL_Kinases

>  <Ligand_Instance>  (677) 
nan

>  <PDB_ID>  (677) 
nan

>  <Standardized_SMILES>  (677) 
C[C@@H]1CN(Cc2cccc(/C=C/c3n[nH]c4cc([C@@H]5C[C@@]56C(=O)Nc5ccccc56)ccc34)c2)C[C@H](C)O1

>  <Name>  (677) 
nan

>  <Pocket>  (677) 
nan

>  <ATP_Site>  (677) 
nan

>  <Peripheral>  (677) 
nan

>  <Num_H_Atoms_ProtBoundConf>  (677) 
nan

>  <Num_Resolved_Atoms>  (677) 
nan

>  <Num_Not_Resolved_Atoms>  (677) 
nan

$$$$
CHEMBL3408951
     RDKit          3D

  0  0  0  0  0  0  0  0  0  0999 V3000
M  V30 BEGIN CTAB
M  V30 COUNTS 74 80 0 0 0
M  V30 BEGIN ATOM
M  V30 1 C 6.229854 -4.080262 1.396048 0
M  V30 2 O 5.673157 -3.176167 0.482188 0
M  V30 3 C 6.379449 -2.113257 -0.053085 0
M  V30 4 C 7.690474 -1.815444 0.239544 0
M  V30 5 C 8.348294 -0.743411 -0.322361 0
M  V30 6 C 7.638611 0.049162 -1.213727 0
M  V30 7 C 6.305047 -0.153179 -1.588935 0
M  V30 8 C 5.776479 -1.261848 -0.947670 0
M  V30 9 C 5.857654 0.845730 -2.539912 0 CFG=1
M  V30 10 C 5.116845 0.528371 -3.767747 0
M  V30 11 C 4.630512 1.553338 -2.677744 0 CFG=1
M  V30 12 C 3.265536 1.231859 -2.266753 0
M  V30 13 C 2.812293 0.645613 -1.106889 0
M  V30 14 C 1.495959 0.359025 -0.846863 0
M  V30 15 C 0.600803 0.692354 -1.828909 0
M  V30 16 C -0.761777 0.525259 -1.859606 0
M  V30 17 C -1.698556 -0.036533 -0.907946 0
M  V30 18 C -2.995731 -0.171910 -1.022236 0
M  V30 19 C -3.872011 -0.750175 -0.011707 0
M  V30 20 C -3.412618 -1.198167 1.207661 0
M  V30 21 C -4.318692 -1.752167 2.117436 0
M  V30 22 C -5.655647 -1.846720 1.792118 0
M  V30 23 C -6.708768 -2.422949 2.682729 0 CFG=2
M  V30 24 C -6.830149 -3.866938 2.365110 0
M  V30 25 N -7.890150 -1.641343 2.653920 0
M  V30 26 C -7.675168 -0.243386 2.961992 0
M  V30 27 C -7.743078 0.067366 4.416347 0
M  V30 28 O -8.842065 -0.462438 5.059816 0
M  V30 29 C -8.739508 -1.850792 4.929510 0
M  V30 30 C -8.972061 -2.128678 3.439679 0
M  V30 31 C -6.136673 -1.400657 0.569091 0
M  V30 32 C -5.214810 -0.859139 -0.305204 0
M  V30 33 N -1.243075 0.993289 -3.026313 0
M  V30 34 N -0.203558 1.447943 -3.721420 0
M  V30 35 C 0.934516 1.284539 -3.032261 0
M  V30 36 C 2.272029 1.536723 -3.211455 0
M  V30 37 C 7.119921 1.661966 -2.687174 0
M  V30 38 O 7.210171 2.675849 -3.455673 0
M  V30 39 N 8.184926 1.182168 -1.883584 0
M  V30 40 C 9.508411 1.767382 -1.819519 0
M  V30 41 H 7.069556 -4.594827 0.901119 0
M  V30 42 H 6.528518 -3.572096 2.326217 0
M  V30 43 H 5.440611 -4.859194 1.612948 0
M  V30 44 H 8.213818 -2.453902 0.937877 0
M  V30 45 H 9.376896 -0.565222 -0.050628 0
M  V30 46 H 4.727294 -1.498693 -1.186844 0
M  V30 47 H 4.618259 -0.434634 -3.821422 0
M  V30 48 H 5.370295 0.960279 -4.749000 0
M  V30 49 H 4.678136 2.616180 -3.104069 0
M  V30 50 H 3.549448 0.419284 -0.383811 0
M  V30 51 H 1.184963 -0.096792 0.063620 0
M  V30 52 H -1.216066 -0.379700 0.016830 0
M  V30 53 H -3.379623 0.194533 -1.962513 0
M  V30 54 H -2.376067 -1.134841 1.482742 0
M  V30 55 H -4.028223 -2.120739 3.088001 0
M  V30 56 H -6.331825 -2.367930 3.751536 0
M  V30 57 H -6.556264 -4.006489 1.279493 0
M  V30 58 H -7.821681 -4.303442 2.526046 0
M  V30 59 H -6.104379 -4.513506 2.895853 0
M  V30 60 H -6.697347 0.143671 2.599814 0
M  V30 61 H -8.483877 0.326392 2.445267 0
M  V30 62 H -7.766241 1.159284 4.545664 0
M  V30 63 H -6.773352 -0.276956 4.871795 0
M  V30 64 H -9.499430 -2.381399 5.536201 0
M  V30 65 H -7.712816 -2.116586 5.253900 0
M  V30 66 H -9.312736 -3.140065 3.256307 0
M  V30 67 H -9.859494 -1.472610 3.187003 0
M  V30 68 H -7.170890 -1.447614 0.258823 0
M  V30 69 H -5.571232 -0.505716 -1.266110 0
M  V30 70 H -0.182592 1.883157 -4.671349 0
M  V30 71 H 2.523323 2.007539 -4.172389 0
M  V30 72 H 9.826130 2.024247 -2.856439 0
M  V30 73 H 10.255482 0.999320 -1.480090 0
M  V30 74 H 9.580773 2.621485 -1.149423 0
M  V30 END ATOM
M  V30 BEGIN BOND
M  V30 1 1 1 2
M  V30 2 1 2 3
M  V30 3 2 3 4
M  V30 4 1 4 5
M  V30 5 2 5 6
M  V30 6 1 6 7
M  V30 7 2 7 8
M  V30 8 1 7 9
M  V30 9 1 9 10 CFG=3
M  V30 10 1 10 11
M  V30 11 1 11 12
M  V30 12 2 12 13
M  V30 13 1 13 14
M  V30 14 2 14 15
M  V30 15 1 15 16
M  V30 16 1 16 17
M  V30 17 2 17 18
M  V30 18 1 18 19
M  V30 19 2 19 20
M  V30 20 1 20 21
M  V30 21 2 21 22
M  V30 22 1 22 23
M  V30 23 1 23 24
M  V30 24 1 23 25
M  V30 25 1 25 26
M  V30 26 1 26 27
M  V30 27 1 27 28
M  V30 28 1 28 29
M  V30 29 1 29 30
M  V30 30 1 22 31
M  V30 31 2 31 32
M  V30 32 2 16 33
M  V30 33 1 33 34
M  V30 34 1 34 35
M  V30 35 2 35 36
M  V30 36 1 9 37
M  V30 37 2 37 38
M  V30 38 1 37 39
M  V30 39 1 39 40
M  V30 40 1 8 3
M  V30 41 1 11 9
M  V30 42 1 36 12
M  V30 43 1 39 6
M  V30 44 1 35 15
M  V30 45 1 32 19
M  V30 46 1 30 25
M  V30 47 1 1 41
M  V30 48 1 1 42
M  V30 49 1 1 43
M  V30 50 1 4 44
M  V30 51 1 5 45
M  V30 52 1 8 46
M  V30 53 1 10 47
M  V30 54 1 10 48
M  V30 55 1 11 49 CFG=3
M  V30 56 1 13 50
M  V30 57 1 14 51
M  V30 58 1 17 52
M  V30 59 1 18 53
M  V30 60 1 20 54
M  V30 61 1 21 55
M  V30 62 1 23 56 CFG=1
M  V30 63 1 24 57
M  V30 64 1 24 58
M  V30 65 1 24 59
M  V30 66 1 26 60
M  V30 67 1 26 61
M  V30 68 1 27 62
M  V30 69 1 27 63
M  V30 70 1 29 64
M  V30 71 1 29 65
M  V30 72 1 30 66
M  V30 73 1 30 67
M  V30 74 1 31 68
M  V30 75 1 32 69
M  V30 76 1 34 70
M  V30 77 1 36 71
M  V30 78 1 40 72
M  V30 79 1 40 73
M  V30 80 1 40 74
M  V30 END BOND
M  V30 END CTAB
M  END
>  <Dataset>  (678) 
ChEMBL_Kinases

>  <Ligand_Instance>  (678) 
nan

>  <PDB_ID>  (678) 
nan

>  <Standardized_SMILES>  (678) 
COc1ccc2c(c1)[C@]1(C[C@H]1c1ccc3c(/C=C/c4ccc([C@H](C)N5CCOCC5)cc4)n[nH]c3c1)C(=O)N2C

>  <Name>  (678) 
nan

>  <Pocket>  (678) 
nan

>  <ATP_Site>  (678) 
nan

>  <Peripheral>  (678) 
nan

>  <Num_H_Atoms_ProtBoundConf>  (678) 
nan

>  <Num_Resolved_Atoms>  (678) 
nan

>  <Num_Not_Resolved_Atoms>  (678) 
nan

$$$$
CHEMBL3408952
     RDKit          3D

  0  0  0  0  0  0  0  0  0  0999 V3000
M  V30 BEGIN CTAB
M  V30 COUNTS 68 75 0 0 0
M  V30 BEGIN ATOM
M  V30 1 O 4.179327 4.088869 6.644603 0
M  V30 2 C 4.746182 3.124575 6.026541 0
M  V30 3 N 5.420651 2.008231 6.582416 0
M  V30 4 C 5.889035 1.272944 5.459016 0
M  V30 5 C 6.631650 0.099622 5.599021 0
M  V30 6 C 7.068902 -0.539018 4.459298 0
M  V30 7 C 6.773858 -0.021736 3.215320 0
M  V30 8 C 6.034617 1.141064 3.183885 0
M  V30 9 C 5.539448 1.872829 4.241014 0
M  V30 10 C 4.765662 3.055841 4.524552 0 CFG=2
M  V30 11 C 4.933284 4.271108 3.716206 0
M  V30 12 C 3.620670 3.594908 3.769167 0 CFG=1
M  V30 13 C 2.963145 2.969662 2.638052 0
M  V30 14 C 1.650041 2.535880 2.854243 0
M  V30 15 C 0.880968 1.930435 1.854073 0
M  V30 16 C 1.403170 1.738612 0.599721 0
M  V30 17 C 0.922986 1.190114 -0.570807 0
M  V30 18 C -0.406075 0.624498 -0.756045 0
M  V30 19 C -0.740599 0.130171 -1.931840 0
M  V30 20 C -2.043022 -0.456160 -2.216023 0
M  V30 21 C -3.062706 -0.560629 -1.299457 0
M  V30 22 C -4.295776 -1.114367 -1.563567 0
M  V30 23 C -4.555391 -1.608967 -2.833162 0
M  V30 24 C -5.885563 -2.202550 -3.105655 0
M  V30 25 N -5.947302 -3.610993 -2.843709 0
M  V30 26 C -5.025699 -4.390584 -3.627358 0
M  V30 27 C -5.226387 -5.842295 -3.240716 0
M  V30 28 C -4.159907 -6.294307 -2.247426 0
M  V30 29 C -4.929565 -6.298221 -0.938233 0
M  V30 30 C -6.125710 -5.432516 -1.317994 0
M  V30 31 C -5.753010 -3.969394 -1.458317 0
M  V30 32 O -6.452155 -6.016951 -2.556847 0
M  V30 33 C -3.556604 -1.524565 -3.788609 0
M  V30 34 C -2.327223 -0.954659 -3.468064 0
M  V30 35 N 1.908304 1.288323 -1.462521 0
M  V30 36 N 2.987431 1.864743 -0.935866 0
M  V30 37 C 2.692800 2.151390 0.343952 0
M  V30 38 C 3.414578 2.742946 1.356929 0
M  V30 39 H 5.498656 1.853506 7.607921 0
M  V30 40 H 6.897461 -0.357572 6.518002 0
M  V30 41 H 7.644323 -1.446557 4.522378 0
M  V30 42 H 7.120498 -0.528951 2.350279 0
M  V30 43 H 5.847964 1.489932 2.178800 0
M  V30 44 H 5.541791 4.226769 2.773799 0
M  V30 45 H 5.113967 5.223526 4.276214 0
M  V30 46 H 2.866491 4.092945 4.467170 0
M  V30 47 H 1.143508 2.640823 3.810392 0
M  V30 48 H -0.128562 1.608129 2.055914 0
M  V30 49 H -1.111385 0.610031 0.062319 0
M  V30 50 H -0.006537 0.168319 -2.709676 0
M  V30 51 H -2.929372 -0.201486 -0.309745 0
M  V30 52 H -5.073744 -1.175967 -0.806233 0
M  V30 53 H -6.238986 -2.048521 -4.144024 0
M  V30 54 H -6.638726 -1.716738 -2.447712 0
M  V30 55 H -5.192226 -4.252657 -4.707323 0
M  V30 56 H -3.962205 -4.144990 -3.432229 0
M  V30 57 H -5.229367 -6.464013 -4.165929 0
M  V30 58 H -3.338938 -5.555748 -2.173808 0
M  V30 59 H -3.822288 -7.314376 -2.450675 0
M  V30 60 H -5.364528 -7.316352 -0.766651 0
M  V30 61 H -4.362155 -5.922158 -0.087623 0
M  V30 62 H -6.940694 -5.594443 -0.580759 0
M  V30 63 H -6.338031 -3.331751 -0.768839 0
M  V30 64 H -4.681631 -3.874998 -1.144468 0
M  V30 65 H -3.785649 -1.918627 -4.773150 0
M  V30 66 H -1.594169 -0.925376 -4.274258 0
M  V30 67 H 3.887914 2.055584 -1.426535 0
M  V30 68 H 4.425382 3.081998 1.175423 0
M  V30 END ATOM
M  V30 BEGIN BOND
M  V30 1 2 1 2
M  V30 2 1 2 3
M  V30 3 1 3 4
M  V30 4 2 4 5
M  V30 5 1 5 6
M  V30 6 2 6 7
M  V30 7 1 7 8
M  V30 8 2 8 9
M  V30 9 1 9 10
M  V30 10 1 10 11 CFG=3
M  V30 11 1 11 12
M  V30 12 1 12 13
M  V30 13 2 13 14
M  V30 14 1 14 15
M  V30 15 2 15 16
M  V30 16 1 16 17
M  V30 17 1 17 18
M  V30 18 2 18 19
M  V30 19 1 19 20
M  V30 20 2 20 21
M  V30 21 1 21 22
M  V30 22 2 22 23
M  V30 23 1 23 24
M  V30 24 1 24 25
M  V30 25 1 25 26
M  V30 26 1 26 27
M  V30 27 1 27 28
M  V30 28 1 28 29
M  V30 29 1 29 30
M  V30 30 1 30 31
M  V30 31 1 30 32
M  V30 32 1 23 33
M  V30 33 2 33 34
M  V30 34 2 17 35
M  V30 35 1 35 36
M  V30 36 1 36 37
M  V30 37 2 37 38
M  V30 38 1 10 2
M  V30 39 1 38 13
M  V30 40 1 9 4
M  V30 41 1 12 10
M  V30 42 1 37 16
M  V30 43 1 34 20
M  V30 44 1 31 25
M  V30 45 1 32 27
M  V30 46 1 3 39
M  V30 47 1 5 40
M  V30 48 1 6 41
M  V30 49 1 7 42
M  V30 50 1 8 43
M  V30 51 1 11 44
M  V30 52 1 11 45
M  V30 53 1 12 46 CFG=1
M  V30 54 1 14 47
M  V30 55 1 15 48
M  V30 56 1 18 49
M  V30 57 1 19 50
M  V30 58 1 21 51
M  V30 59 1 22 52
M  V30 60 1 24 53
M  V30 61 1 24 54
M  V30 62 1 26 55
M  V30 63 1 26 56
M  V30 64 1 27 57
M  V30 65 1 28 58
M  V30 66 1 28 59
M  V30 67 1 29 60
M  V30 68 1 29 61
M  V30 69 1 30 62
M  V30 70 1 31 63
M  V30 71 1 31 64
M  V30 72 1 33 65
M  V30 73 1 34 66
M  V30 74 1 36 67
M  V30 75 1 38 68
M  V30 END BOND
M  V30 END CTAB
M  END
>  <Dataset>  (679) 
ChEMBL_Kinases

>  <Ligand_Instance>  (679) 
nan

>  <PDB_ID>  (679) 
nan

>  <Standardized_SMILES>  (679) 
O=C1Nc2ccccc2[C@]12C[C@H]2c1ccc2c(/C=C/c3ccc(CN4CC5CCC(C4)O5)cc3)n[nH]c2c1

>  <Name>  (679) 
nan

>  <Pocket>  (679) 
nan

>  <ATP_Site>  (679) 
nan

>  <Peripheral>  (679) 
nan

>  <Num_H_Atoms_ProtBoundConf>  (679) 
nan

>  <Num_Resolved_Atoms>  (679) 
nan

>  <Num_Not_Resolved_Atoms>  (679) 
nan

$$$$
CHEMBL3408953
     RDKit          3D

  0  0  0  0  0  0  0  0  0  0999 V3000
M  V30 BEGIN CTAB
M  V30 COUNTS 67 73 0 0 0
M  V30 BEGIN ATOM
M  V30 1 O 4.259839 5.426592 5.775811 0
M  V30 2 C 4.230899 4.171264 5.711911 0
M  V30 3 N 4.314943 3.260635 6.799699 0
M  V30 4 C 4.271290 1.966138 6.175919 0
M  V30 5 C 4.353551 0.770992 6.887687 0
M  V30 6 C 4.326870 -0.388887 6.145207 0
M  V30 7 C 4.225684 -0.419046 4.772045 0
M  V30 8 C 4.150166 0.815446 4.171582 0
M  V30 9 C 4.165313 2.068633 4.794583 0
M  V30 10 C 4.097425 3.474899 4.408207 0 CFG=2
M  V30 11 C 4.861376 3.877376 3.202638 0
M  V30 12 C 3.376265 4.055214 3.294648 0 CFG=1
M  V30 13 C 2.448383 3.325468 2.422828 0
M  V30 14 C 1.596979 2.269179 2.658714 0
M  V30 15 C 0.804495 1.692916 1.705968 0
M  V30 16 C 0.865264 2.209478 0.422210 0
M  V30 17 C 0.148274 1.778469 -0.696232 0
M  V30 18 C -0.820596 0.692329 -0.767706 0
M  V30 19 C -1.446422 0.374357 -1.883171 0
M  V30 20 C -2.418780 -0.706732 -1.980994 0
M  V30 21 C -2.798277 -1.528651 -0.942066 0
M  V30 22 C -3.732536 -2.537882 -1.103060 0
M  V30 23 C -4.337413 -2.765909 -2.346261 0
M  V30 24 C -5.312853 -3.885267 -2.309280 0
M  V30 25 N -4.708857 -5.134196 -2.587823 0
M  V30 26 C -4.091775 -5.320301 -3.841994 0
M  V30 27 C -2.610022 -5.141258 -3.764789 0
M  V30 28 C -1.921704 -6.449716 -3.417811 0
M  V30 29 O -2.240992 -6.936291 -2.175860 0
M  V30 30 C -2.784427 -6.009061 -1.303229 0
M  V30 31 C -4.270924 -5.919067 -1.494789 0
M  V30 32 C -3.966810 -1.950860 -3.394076 0
M  V30 33 C -3.031968 -0.957048 -3.190062 0
M  V30 34 N 0.576672 2.610088 -1.674702 0
M  V30 35 N 1.461049 3.456733 -1.198790 0
M  V30 36 C 1.694805 3.268023 0.110995 0
M  V30 37 C 2.477199 3.815921 1.109952 0
M  V30 38 H 4.388009 3.547642 7.783845 0
M  V30 39 H 4.433706 0.712335 7.956359 0
M  V30 40 H 4.388893 -1.349136 6.663703 0
M  V30 41 H 4.202522 -1.310729 4.177341 0
M  V30 42 H 4.069965 0.820534 3.087998 0
M  V30 43 H 5.539726 4.738601 3.333609 0
M  V30 44 H 5.234364 3.097136 2.520217 0
M  V30 45 H 3.125383 5.168246 3.307053 0
M  V30 46 H 1.606014 1.944232 3.680392 0
M  V30 47 H 0.174791 0.871994 1.992986 0
M  V30 48 H -1.016406 0.142520 0.140191 0
M  V30 49 H -1.200535 0.961168 -2.730061 0
M  V30 50 H -2.347324 -1.373114 0.024558 0
M  V30 51 H -3.955855 -3.130557 -0.200903 0
M  V30 52 H -6.044504 -3.652647 -3.137097 0
M  V30 53 H -5.880511 -3.899447 -1.354794 0
M  V30 54 H -4.302324 -6.299227 -4.324077 0
M  V30 55 H -4.486369 -4.551844 -4.545223 0
M  V30 56 H -2.272392 -4.923518 -4.821443 0
M  V30 57 H -2.274328 -4.287415 -3.180738 0
M  V30 58 H -2.253404 -7.162270 -4.226402 0
M  V30 59 H -0.831079 -6.358992 -3.516925 0
M  V30 60 H -2.281374 -5.040076 -1.294223 0
M  V30 61 H -2.597999 -6.436622 -0.273196 0
M  V30 62 H -4.702762 -6.946840 -1.456804 0
M  V30 63 H -4.680510 -5.428458 -0.562600 0
M  V30 64 H -4.467775 -2.180197 -4.310200 0
M  V30 65 H -2.798088 -0.360267 -4.074174 0
M  V30 66 H 1.950357 4.212112 -1.760334 0
M  V30 67 H 3.078186 4.644642 0.707807 0
M  V30 END ATOM
M  V30 BEGIN BOND
M  V30 1 2 1 2
M  V30 2 1 2 3
M  V30 3 1 3 4
M  V30 4 2 4 5
M  V30 5 1 5 6
M  V30 6 2 6 7
M  V30 7 1 7 8
M  V30 8 2 8 9
M  V30 9 1 9 10
M  V30 10 1 10 11 CFG=3
M  V30 11 1 11 12
M  V30 12 1 12 13
M  V30 13 2 13 14
M  V30 14 1 14 15
M  V30 15 2 15 16
M  V30 16 1 16 17
M  V30 17 1 17 18
M  V30 18 2 18 19
M  V30 19 1 19 20
M  V30 20 2 20 21
M  V30 21 1 21 22
M  V30 22 2 22 23
M  V30 23 1 23 24
M  V30 24 1 24 25
M  V30 25 1 25 26
M  V30 26 1 26 27
M  V30 27 1 27 28
M  V30 28 1 28 29
M  V30 29 1 29 30
M  V30 30 1 30 31
M  V30 31 1 23 32
M  V30 32 2 32 33
M  V30 33 2 17 34
M  V30 34 1 34 35
M  V30 35 1 35 36
M  V30 36 2 36 37
M  V30 37 1 10 2
M  V30 38 1 37 13
M  V30 39 1 9 4
M  V30 40 1 12 10
M  V30 41 1 36 16
M  V30 42 1 33 20
M  V30 43 1 31 25
M  V30 44 1 3 38
M  V30 45 1 5 39
M  V30 46 1 6 40
M  V30 47 1 7 41
M  V30 48 1 8 42
M  V30 49 1 11 43
M  V30 50 1 11 44
M  V30 51 1 12 45 CFG=1
M  V30 52 1 14 46
M  V30 53 1 15 47
M  V30 54 1 18 48
M  V30 55 1 19 49
M  V30 56 1 21 50
M  V30 57 1 22 51
M  V30 58 1 24 52
M  V30 59 1 24 53
M  V30 60 1 26 54
M  V30 61 1 26 55
M  V30 62 1 27 56
M  V30 63 1 27 57
M  V30 64 1 28 58
M  V30 65 1 28 59
M  V30 66 1 30 60
M  V30 67 1 30 61
M  V30 68 1 31 62
M  V30 69 1 31 63
M  V30 70 1 32 64
M  V30 71 1 33 65
M  V30 72 1 35 66
M  V30 73 1 37 67
M  V30 END BOND
M  V30 END CTAB
M  END
>  <Dataset>  (680) 
ChEMBL_Kinases

>  <Ligand_Instance>  (680) 
nan

>  <PDB_ID>  (680) 
nan

>  <Standardized_SMILES>  (680) 
O=C1Nc2ccccc2[C@]12C[C@H]2c1ccc2c(/C=C/c3ccc(CN4CCCOCC4)cc3)n[nH]c2c1

>  <Name>  (680) 
nan

>  <Pocket>  (680) 
nan

>  <ATP_Site>  (680) 
nan

>  <Peripheral>  (680) 
nan

>  <Num_H_Atoms_ProtBoundConf>  (680) 
nan

>  <Num_Resolved_Atoms>  (680) 
nan

>  <Num_Not_Resolved_Atoms>  (680) 
nan

$$$$
CHEMBL3408954
     RDKit          3D

  0  0  0  0  0  0  0  0  0  0999 V3000
M  V30 BEGIN CTAB
M  V30 COUNTS 74 80 0 0 0
M  V30 BEGIN ATOM
M  V30 1 C -2.499339 1.737465 5.396843 0
M  V30 2 C -1.282864 2.644018 5.436049 0 CFG=2
M  V30 3 C -0.064645 1.965847 4.826530 0
M  V30 4 N 0.957689 2.968368 4.709330 0
M  V30 5 C 2.135760 2.519777 4.046148 0
M  V30 6 C 1.863195 2.078246 2.664534 0
M  V30 7 C 1.545244 0.740706 2.525935 0
M  V30 8 C 1.275234 0.170769 1.320258 0
M  V30 9 C 1.305974 0.903315 0.162148 0
M  V30 10 C 1.099448 0.573172 -1.257606 0
M  V30 11 C 1.037965 1.057294 -2.538948 0
M  V30 12 C 0.794827 0.110664 -3.515498 0
M  V30 13 N 0.377218 0.747809 -4.649050 0
M  V30 14 N 0.157202 -0.133428 -5.619022 0
M  V30 15 C 0.448479 -1.314705 -5.056953 0
M  V30 16 C 0.438249 -2.599787 -5.560138 0
M  V30 17 C 0.807565 -3.693183 -4.813108 0
M  V30 18 C 0.823998 -5.108578 -5.266945 0 CFG=2
M  V30 19 C 0.373252 -5.546493 -6.587053 0
M  V30 20 C -0.389728 -5.938148 -5.401756 0 CFG=1
M  V30 21 C -0.333337 -7.323716 -4.831801 0
M  V30 22 O 0.735431 -7.993637 -4.919966 0
M  V30 23 N -1.576275 -7.681615 -4.230632 0
M  V30 24 C -2.398074 -6.529540 -4.467600 0
M  V30 25 C -3.722041 -6.482721 -4.054537 0
M  V30 26 C -4.504866 -5.379894 -4.311206 0
M  V30 27 C -3.916261 -4.310968 -5.007178 0
M  V30 28 C -2.591161 -4.453470 -5.379613 0
M  V30 29 C -1.758013 -5.519703 -5.150867 0
M  V30 30 C 1.212813 -3.492617 -3.479496 0
M  V30 31 C 1.239780 -2.231455 -2.926232 0
M  V30 32 C 0.853058 -1.215152 -3.747817 0
M  V30 33 C 1.628760 2.270366 0.311619 0
M  V30 34 C 1.902127 2.846968 1.530613 0
M  V30 35 C 1.294856 3.459642 6.008755 0
M  V30 36 C 0.363049 3.159700 7.109298 0 CFG=2
M  V30 37 C 0.663592 1.909429 7.901533 0
M  V30 38 N -1.027764 3.169487 6.755642 0
M  V30 39 C -1.632190 4.478265 6.936978 0
M  V30 40 H -3.399530 2.363761 5.425197 0
M  V30 41 H -2.483648 1.208908 4.409364 0
M  V30 42 H -2.473250 0.981326 6.202989 0
M  V30 43 H -1.508760 3.514192 4.774317 0
M  V30 44 H 0.244170 1.056513 5.349450 0
M  V30 45 H -0.392039 1.693827 3.783595 0
M  V30 46 H 2.544788 1.673275 4.674943 0
M  V30 47 H 2.957647 3.282265 4.082061 0
M  V30 48 H 1.457461 -0.017628 3.284924 0
M  V30 49 H 1.023388 -0.860131 1.110912 0
M  V30 50 H 0.857377 -0.513651 -1.121653 0
M  V30 51 H 1.236867 1.926015 -1.858114 0
M  V30 52 H -0.163650 -0.057774 -6.626964 0
M  V30 53 H 0.131833 -2.786429 -6.577289 0
M  V30 54 H 1.674830 -5.716733 -4.811109 0
M  V30 55 H -0.105198 -4.824215 -7.287583 0
M  V30 56 H 0.952568 -6.323875 -7.145225 0
M  V30 57 H -1.745167 -8.591078 -3.758380 0
M  V30 58 H -4.242624 -7.280721 -3.508991 0
M  V30 59 H -5.514771 -5.312523 -4.006797 0
M  V30 60 H -4.498515 -3.424379 -5.220841 0
M  V30 61 H -2.216742 -3.586616 -5.917985 0
M  V30 62 H 1.515319 -4.339591 -2.869662 0
M  V30 63 H 1.588217 -2.169906 -1.928186 0
M  V30 64 H 1.735928 3.112071 -0.404839 0
M  V30 65 H 2.164356 3.870832 1.784722 0
M  V30 66 H 2.312259 3.048054 6.285748 0
M  V30 67 H 1.504022 4.564550 5.902713 0
M  V30 68 H 0.477110 4.014158 7.858762 0
M  V30 69 H 0.642470 2.084354 8.999246 0
M  V30 70 H 1.655072 1.463033 7.667174 0
M  V30 71 H -0.070405 1.094727 7.721697 0
M  V30 72 H -0.903668 5.072340 7.531330 0
M  V30 73 H -2.553206 4.421282 7.547396 0
M  V30 74 H -1.806500 4.982065 5.969353 0
M  V30 END ATOM
M  V30 BEGIN BOND
M  V30 1 1 1 2
M  V30 2 1 2 3
M  V30 3 1 3 4
M  V30 4 1 4 5
M  V30 5 1 5 6
M  V30 6 2 6 7
M  V30 7 1 7 8
M  V30 8 2 8 9
M  V30 9 1 9 10
M  V30 10 2 10 11
M  V30 11 1 11 12
M  V30 12 2 12 13
M  V30 13 1 13 14
M  V30 14 1 14 15
M  V30 15 2 15 16
M  V30 16 1 16 17
M  V30 17 1 17 18
M  V30 18 1 18 19
M  V30 19 1 20 19 CFG=3
M  V30 20 1 20 21
M  V30 21 2 21 22
M  V30 22 1 21 23
M  V30 23 1 23 24
M  V30 24 2 24 25
M  V30 25 1 25 26
M  V30 26 2 26 27
M  V30 27 1 27 28
M  V30 28 2 28 29
M  V30 29 2 17 30
M  V30 30 1 30 31
M  V30 31 2 31 32
M  V30 32 1 9 33
M  V30 33 2 33 34
M  V30 34 1 4 35
M  V30 35 1 35 36
M  V30 36 1 36 37
M  V30 37 1 36 38
M  V30 38 1 38 39
M  V30 39 1 38 2
M  V30 40 1 34 6
M  V30 41 1 32 12
M  V30 42 1 32 15
M  V30 43 1 20 18
M  V30 44 1 29 24
M  V30 45 1 29 20
M  V30 46 1 1 40
M  V30 47 1 1 41
M  V30 48 1 1 42
M  V30 49 1 2 43 CFG=3
M  V30 50 1 3 44
M  V30 51 1 3 45
M  V30 52 1 5 46
M  V30 53 1 5 47
M  V30 54 1 7 48
M  V30 55 1 8 49
M  V30 56 1 10 50
M  V30 57 1 11 51
M  V30 58 1 14 52
M  V30 59 1 16 53
M  V30 60 1 18 54 CFG=1
M  V30 61 1 19 55
M  V30 62 1 19 56
M  V30 63 1 23 57
M  V30 64 1 25 58
M  V30 65 1 26 59
M  V30 66 1 27 60
M  V30 67 1 28 61
M  V30 68 1 30 62
M  V30 69 1 31 63
M  V30 70 1 33 64
M  V30 71 1 34 65
M  V30 72 1 35 66
M  V30 73 1 35 67
M  V30 74 1 36 68 CFG=1
M  V30 75 1 37 69
M  V30 76 1 37 70
M  V30 77 1 37 71
M  V30 78 1 39 72
M  V30 79 1 39 73
M  V30 80 1 39 74
M  V30 END BOND
M  V30 END CTAB
M  END
>  <Dataset>  (681) 
ChEMBL_Kinases

>  <Ligand_Instance>  (681) 
nan

>  <PDB_ID>  (681) 
nan

>  <Standardized_SMILES>  (681) 
C[C@@H]1CN(Cc2ccc(/C=C/c3n[nH]c4cc([C@@H]5C[C@@]56C(=O)Nc5ccccc56)ccc34)cc2)C[C@H](C)N1C

>  <Name>  (681) 
nan

>  <Pocket>  (681) 
nan

>  <ATP_Site>  (681) 
nan

>  <Peripheral>  (681) 
nan

>  <Num_H_Atoms_ProtBoundConf>  (681) 
nan

>  <Num_Resolved_Atoms>  (681) 
nan

>  <Num_Not_Resolved_Atoms>  (681) 
nan

$$$$
CHEMBL3408955
     RDKit          3D

  0  0  0  0  0  0  0  0  0  0999 V3000
M  V30 BEGIN CTAB
M  V30 COUNTS 78 84 0 0 0
M  V30 BEGIN ATOM
M  V30 1 C 1.313900 -1.065189 6.019530 0
M  V30 2 O 2.290083 -0.736284 6.951102 0
M  V30 3 C 3.502564 -0.137367 6.741517 0
M  V30 4 C 4.280410 0.063857 7.859102 0
M  V30 5 C 5.510678 0.658954 7.731308 0
M  V30 6 C 5.942501 1.046473 6.464604 0
M  V30 7 C 5.221161 0.882740 5.267072 0
M  V30 8 C 4.012595 0.278555 5.528912 0
M  V30 9 C 5.965242 1.390386 4.145591 0 CFG=1
M  V30 10 C 6.313511 0.671292 2.905034 0
M  V30 11 C 5.554467 2.026070 2.932649 0 CFG=1
M  V30 12 C 4.331321 1.953959 2.171660 0
M  V30 13 C 3.509620 0.859565 2.004135 0
M  V30 14 C 2.349813 0.837318 1.265470 0
M  V30 15 C 1.950048 1.985314 0.630156 0
M  V30 16 C 0.854152 2.207987 -0.165981 0
M  V30 17 C -0.277766 1.435693 -0.599514 0
M  V30 18 C -0.811002 0.284917 -0.390988 0
M  V30 19 C -2.004778 -0.319888 -0.961159 0
M  V30 20 C -2.403798 -1.551708 -0.501636 0
M  V30 21 C -3.516918 -2.166740 -1.033901 0
M  V30 22 C -4.303534 -1.600898 -2.054127 0
M  V30 23 C -5.478344 -2.343430 -2.553469 0
M  V30 24 N -5.368756 -3.227170 -3.585848 0
M  V30 25 C -4.482418 -4.308935 -3.642212 0 CFG=2
M  V30 26 C -4.392601 -5.178053 -2.443037 0
M  V30 27 C -3.158168 -3.832409 -4.190187 0
M  V30 28 N -3.357439 -3.326622 -5.507478 0
M  V30 29 C -2.101840 -2.770546 -5.983480 0
M  V30 30 C -4.393582 -2.320355 -5.633808 0
M  V30 31 C -5.648025 -2.736606 -4.883528 0 CFG=2
M  V30 32 C -6.623107 -1.595723 -4.903813 0
M  V30 33 C -3.837808 -0.368593 -2.457763 0
M  V30 34 C -2.736298 0.284103 -1.958664 0
M  V30 35 N 0.983845 3.501910 -0.521013 0
M  V30 36 N 2.064069 4.023638 0.012380 0
M  V30 37 C 2.712568 3.120261 0.745786 0
M  V30 38 C 3.859605 3.075022 1.498851 0
M  V30 39 C 7.205655 1.902420 4.838308 0
M  V30 40 O 8.167501 2.474750 4.224133 0
M  V30 41 N 7.198162 1.685181 6.239214 0
M  V30 42 H 0.997315 -2.143933 6.160347 0
M  V30 43 H 1.600842 -1.003339 4.964251 0
M  V30 44 H 0.430126 -0.402683 6.178741 0
M  V30 45 H 3.949754 -0.227448 8.831764 0
M  V30 46 H 6.096806 0.802831 8.633809 0
M  V30 47 H 3.311376 0.069448 4.747736 0
M  V30 48 H 5.779487 -0.242305 2.681139 0
M  V30 49 H 7.331782 0.708916 2.457658 0
M  V30 50 H 6.187125 2.936015 2.646337 0
M  V30 51 H 3.786146 -0.069602 2.476556 0
M  V30 52 H 1.774556 -0.057364 1.183463 0
M  V30 53 H -0.935747 1.913665 -1.342843 0
M  V30 54 H -0.242708 -0.271923 0.336633 0
M  V30 55 H -1.819052 -2.022309 0.286844 0
M  V30 56 H -3.730282 -3.127924 -0.585043 0
M  V30 57 H -5.865241 -2.898732 -1.637872 0
M  V30 58 H -6.284278 -1.598355 -2.744688 0
M  V30 59 H -4.874722 -4.987308 -4.471514 0
M  V30 60 H -5.253284 -4.929650 -1.769466 0
M  V30 61 H -4.500489 -6.251144 -2.688804 0
M  V30 62 H -3.423929 -5.101774 -1.908554 0
M  V30 63 H -2.631528 -3.102517 -3.584894 0
M  V30 64 H -2.488768 -4.722462 -4.262779 0
M  V30 65 H -1.592163 -2.173982 -5.173198 0
M  V30 66 H -2.249219 -2.057742 -6.824889 0
M  V30 67 H -1.368781 -3.579923 -6.230373 0
M  V30 68 H -4.029116 -1.314250 -5.359053 0
M  V30 69 H -4.668821 -2.283145 -6.704731 0
M  V30 70 H -6.153295 -3.541775 -5.525130 0
M  V30 71 H -7.003896 -1.397273 -5.940781 0
M  V30 72 H -7.542747 -1.796450 -4.313189 0
M  V30 73 H -6.104598 -0.672498 -4.600386 0
M  V30 74 H -4.394105 0.123773 -3.236545 0
M  V30 75 H -2.484791 1.239598 -2.365564 0
M  V30 76 H 2.347064 5.010757 -0.135951 0
M  V30 77 H 4.418514 4.000645 1.554852 0
M  V30 78 H 7.968232 1.957849 6.883124 0
M  V30 END ATOM
M  V30 BEGIN BOND
M  V30 1 1 1 2
M  V30 2 1 2 3
M  V30 3 2 3 4
M  V30 4 1 4 5
M  V30 5 2 5 6
M  V30 6 1 6 7
M  V30 7 2 7 8
M  V30 8 1 7 9
M  V30 9 1 9 10 CFG=3
M  V30 10 1 10 11
M  V30 11 1 11 12
M  V30 12 2 12 13
M  V30 13 1 13 14
M  V30 14 2 14 15
M  V30 15 1 15 16
M  V30 16 1 16 17
M  V30 17 2 17 18
M  V30 18 1 18 19
M  V30 19 2 19 20
M  V30 20 1 20 21
M  V30 21 2 21 22
M  V30 22 1 22 23
M  V30 23 1 23 24
M  V30 24 1 24 25
M  V30 25 1 25 26
M  V30 26 1 25 27
M  V30 27 1 27 28
M  V30 28 1 28 29
M  V30 29 1 28 30
M  V30 30 1 30 31
M  V30 31 1 31 32
M  V30 32 1 22 33
M  V30 33 2 33 34
M  V30 34 2 16 35
M  V30 35 1 35 36
M  V30 36 1 36 37
M  V30 37 2 37 38
M  V30 38 1 9 39
M  V30 39 2 39 40
M  V30 40 1 39 41
M  V30 41 1 8 3
M  V30 42 1 11 9
M  V30 43 1 38 12
M  V30 44 1 41 6
M  V30 45 1 37 15
M  V30 46 1 34 19
M  V30 47 1 31 24
M  V30 48 1 1 42
M  V30 49 1 1 43
M  V30 50 1 1 44
M  V30 51 1 4 45
M  V30 52 1 5 46
M  V30 53 1 8 47
M  V30 54 1 10 48
M  V30 55 1 10 49
M  V30 56 1 11 50 CFG=3
M  V30 57 1 13 51
M  V30 58 1 14 52
M  V30 59 1 17 53
M  V30 60 1 18 54
M  V30 61 1 20 55
M  V30 62 1 21 56
M  V30 63 1 23 57
M  V30 64 1 23 58
M  V30 65 1 25 59 CFG=3
M  V30 66 1 26 60
M  V30 67 1 26 61
M  V30 68 1 26 62
M  V30 69 1 27 63
M  V30 70 1 27 64
M  V30 71 1 29 65
M  V30 72 1 29 66
M  V30 73 1 29 67
M  V30 74 1 30 68
M  V30 75 1 30 69
M  V30 76 1 31 70 CFG=3
M  V30 77 1 32 71
M  V30 78 1 32 72
M  V30 79 1 32 73
M  V30 80 1 33 74
M  V30 81 1 34 75
M  V30 82 1 36 76
M  V30 83 1 38 77
M  V30 84 1 41 78
M  V30 END BOND
M  V30 END CTAB
M  END
>  <Dataset>  (682) 
ChEMBL_Kinases

>  <Ligand_Instance>  (682) 
nan

>  <PDB_ID>  (682) 
nan

>  <Standardized_SMILES>  (682) 
COc1ccc2c(c1)[C@]1(C[C@H]1c1ccc3c(/C=C/c4ccc(CN5[C@H](C)CN(C)C[C@@H]5C)cc4)n[nH]c3c1)C(=O)N2

>  <Name>  (682) 
nan

>  <Pocket>  (682) 
nan

>  <ATP_Site>  (682) 
nan

>  <Peripheral>  (682) 
nan

>  <Num_H_Atoms_ProtBoundConf>  (682) 
nan

>  <Num_Resolved_Atoms>  (682) 
nan

>  <Num_Not_Resolved_Atoms>  (682) 
nan

$$$$
CHEMBL3408956
     RDKit          3D

  0  0  0  0  0  0  0  0  0  0999 V3000
M  V30 BEGIN CTAB
M  V30 COUNTS 67 73 0 0 0
M  V30 BEGIN ATOM
M  V30 1 C 7.071002 2.617898 6.664309 0
M  V30 2 N 6.752910 2.358597 5.295483 0
M  V30 3 C 7.284506 3.338297 4.383425 0
M  V30 4 C 6.794425 3.153783 2.972131 0
M  V30 5 C 6.184359 1.777010 2.764673 0
M  V30 6 O 4.972670 1.742996 3.445562 0
M  V30 7 C 3.733256 1.413463 2.917531 0
M  V30 8 C 3.460136 1.040786 1.604413 0
M  V30 9 C 2.166217 0.741839 1.231450 0
M  V30 10 C 1.097448 0.788431 2.095339 0
M  V30 11 C -0.276847 0.475199 1.740162 0
M  V30 12 C -0.632606 0.102876 0.528079 0
M  V30 13 C -2.042896 -0.188718 0.281930 0
M  V30 14 N -3.044503 -0.107942 1.199443 0
M  V30 15 N -4.199016 -0.439093 0.673661 0
M  V30 16 C -4.029010 -0.758239 -0.622871 0
M  V30 17 C -4.850270 -1.172945 -1.653591 0
M  V30 18 C -4.406103 -1.444895 -2.930026 0
M  V30 19 C -5.223267 -1.892451 -4.045751 0 CFG=2
M  V30 20 C -6.746303 -1.915915 -3.932820 0
M  V30 21 C -5.990953 -3.146861 -4.124551 0 CFG=1
M  V30 22 C -6.184351 -3.806057 -5.455021 0
M  V30 23 O -6.356255 -3.152381 -6.527987 0
M  V30 24 N -6.155166 -5.223292 -5.387769 0
M  V30 25 C -5.984383 -5.474762 -3.986346 0
M  V30 26 C -5.928982 -6.764347 -3.464509 0
M  V30 27 C -5.793689 -6.923639 -2.108246 0
M  V30 28 C -5.715347 -5.812825 -1.288877 0
M  V30 29 C -5.779289 -4.579708 -1.903610 0
M  V30 30 C -5.912712 -4.286913 -3.243966 0
M  V30 31 C -3.054760 -1.273939 -3.128333 0
M  V30 32 C -2.170874 -0.860406 -2.139984 0
M  V30 33 C -2.660144 -0.600806 -0.877420 0
M  V30 34 C 1.423709 1.162690 3.380527 0
M  V30 35 C 2.684515 1.480039 3.846465 0
M  V30 36 C 7.194514 0.820550 3.423542 0
M  V30 37 C 7.003821 0.994316 4.897106 0
M  V30 38 H 6.145233 2.550773 7.257384 0
M  V30 39 H 7.726958 1.779053 7.041869 0
M  V30 40 H 7.580440 3.587667 6.832830 0
M  V30 41 H 8.383889 3.350109 4.490097 0
M  V30 42 H 6.927494 4.332481 4.722569 0
M  V30 43 H 7.721820 3.139761 2.326334 0
M  V30 44 H 6.138129 3.948727 2.605980 0
M  V30 45 H 6.114338 1.549282 1.678718 0
M  V30 46 H 4.296962 1.008313 0.944765 0
M  V30 47 H 1.996083 0.456936 0.203205 0
M  V30 48 H -1.037105 0.550871 2.504317 0
M  V30 49 H 0.077194 0.009838 -0.263867 0
M  V30 50 H -5.129249 -0.454600 1.185649 0
M  V30 51 H -5.898534 -1.290124 -1.448156 0
M  V30 52 H -4.799828 -1.597698 -5.059218 0
M  V30 53 H -7.205834 -1.665852 -2.962592 0
M  V30 54 H -7.322321 -1.471141 -4.789151 0
M  V30 55 H -6.242469 -5.867620 -6.199384 0
M  V30 56 H -5.981648 -7.662000 -4.034436 0
M  V30 57 H -5.745868 -7.906083 -1.660820 0
M  V30 58 H -5.612290 -5.969325 -0.243462 0
M  V30 59 H -5.719616 -3.779316 -1.177808 0
M  V30 60 H -2.551835 -1.445192 -4.078972 0
M  V30 61 H -1.096887 -0.727980 -2.312216 0
M  V30 62 H 0.599017 1.214460 4.104551 0
M  V30 63 H 2.807851 1.758499 4.877475 0
M  V30 64 H 8.210120 1.169130 3.160874 0
M  V30 65 H 6.978521 -0.224928 3.137318 0
M  V30 66 H 7.850110 0.577657 5.494853 0
M  V30 67 H 6.114328 0.395451 5.242513 0
M  V30 END ATOM
M  V30 BEGIN BOND
M  V30 1 1 1 2
M  V30 2 1 2 3
M  V30 3 1 3 4
M  V30 4 1 4 5
M  V30 5 1 5 6
M  V30 6 1 6 7
M  V30 7 2 7 8
M  V30 8 1 8 9
M  V30 9 2 9 10
M  V30 10 1 10 11
M  V30 11 2 11 12
M  V30 12 1 12 13
M  V30 13 2 13 14
M  V30 14 1 14 15
M  V30 15 1 15 16
M  V30 16 2 16 17
M  V30 17 1 17 18
M  V30 18 1 18 19
M  V30 19 1 19 20
M  V30 20 1 21 20 CFG=1
M  V30 21 1 21 22
M  V30 22 2 22 23
M  V30 23 1 22 24
M  V30 24 1 24 25
M  V30 25 2 25 26
M  V30 26 1 26 27
M  V30 27 2 27 28
M  V30 28 1 28 29
M  V30 29 2 29 30
M  V30 30 2 18 31
M  V30 31 1 31 32
M  V30 32 2 32 33
M  V30 33 1 10 34
M  V30 34 2 34 35
M  V30 35 1 5 36
M  V30 36 1 36 37
M  V30 37 1 37 2
M  V30 38 1 35 7
M  V30 39 1 33 13
M  V30 40 1 33 16
M  V30 41 1 21 19
M  V30 42 1 30 25
M  V30 43 1 30 21
M  V30 44 1 1 38
M  V30 45 1 1 39
M  V30 46 1 1 40
M  V30 47 1 3 41
M  V30 48 1 3 42
M  V30 49 1 4 43
M  V30 50 1 4 44
M  V30 51 1 5 45
M  V30 52 1 8 46
M  V30 53 1 9 47
M  V30 54 1 11 48
M  V30 55 1 12 49
M  V30 56 1 15 50
M  V30 57 1 17 51
M  V30 58 1 19 52 CFG=3
M  V30 59 1 20 53
M  V30 60 1 20 54
M  V30 61 1 24 55
M  V30 62 1 26 56
M  V30 63 1 27 57
M  V30 64 1 28 58
M  V30 65 1 29 59
M  V30 66 1 31 60
M  V30 67 1 32 61
M  V30 68 1 34 62
M  V30 69 1 35 63
M  V30 70 1 36 64
M  V30 71 1 36 65
M  V30 72 1 37 66
M  V30 73 1 37 67
M  V30 END BOND
M  V30 END CTAB
M  END
>  <Dataset>  (683) 
ChEMBL_Kinases

>  <Ligand_Instance>  (683) 
nan

>  <PDB_ID>  (683) 
nan

>  <Standardized_SMILES>  (683) 
CN1CCC(Oc2ccc(/C=C/c3n[nH]c4cc([C@@H]5C[C@@]56C(=O)Nc5ccccc56)ccc34)cc2)CC1

>  <Name>  (683) 
nan

>  <Pocket>  (683) 
nan

>  <ATP_Site>  (683) 
nan

>  <Peripheral>  (683) 
nan

>  <Num_H_Atoms_ProtBoundConf>  (683) 
nan

>  <Num_Resolved_Atoms>  (683) 
nan

>  <Num_Not_Resolved_Atoms>  (683) 
nan

$$$$
CHEMBL3409570
     RDKit          3D

  0  0  0  0  0  0  0  0  0  0999 V3000
M  V30 BEGIN CTAB
M  V30 COUNTS 52 55 0 0 0
M  V30 BEGIN ATOM
M  V30 1 O -1.736226 -2.256119 1.833762 0
M  V30 2 C -2.005321 -1.527068 0.836220 0
M  V30 3 C -1.097926 -0.554537 0.419586 0
M  V30 4 C -1.328040 0.278737 -0.662955 0
M  V30 5 C -0.327000 1.255615 -1.017003 0
M  V30 6 C -0.487791 2.117981 -2.081682 0
M  V30 7 C 0.521042 2.996417 -2.321839 0
M  V30 8 N 1.628552 3.033889 -1.565597 0
M  V30 9 C 1.787515 2.181117 -0.512791 0
M  V30 10 N 2.948544 2.233882 0.264591 0
M  V30 11 C 3.181080 1.368167 1.385603 0
M  V30 12 C 2.182647 1.469447 2.487692 0
M  V30 13 C 2.417975 2.632684 3.423968 0
M  V30 14 O 3.727977 2.826582 3.779041 0
M  V30 15 C 4.473142 1.719236 3.456861 0
M  V30 16 C 4.551307 1.494787 1.961137 0
M  V30 17 N 0.789693 1.313818 -0.276959 0
M  V30 18 C -2.520230 0.080969 -1.303860 0
M  V30 19 C -3.454725 -0.872011 -0.928468 0
M  V30 20 N -3.158881 -1.630626 0.119052 0
M  V30 21 C -4.139034 -2.625798 0.494200 0
M  V30 22 C -3.890163 -3.908568 -0.259470 0
M  V30 23 C -2.553403 -4.461109 0.012032 0
M  V30 24 C -1.514083 -4.078917 -0.818135 0
M  V30 25 C -0.280929 -4.640732 -0.503121 0
M  V30 26 C -0.131556 -5.506156 0.556021 0
M  V30 27 Cl 1.416521 -6.215803 0.957094 0
M  V30 28 C -1.192943 -5.851363 1.346063 0
M  V30 29 F -1.069892 -6.703444 2.396763 0
M  V30 30 C -2.465059 -5.332198 1.098427 0
M  V30 31 H -0.184848 -0.476298 0.991033 0
M  V30 32 H -1.365851 2.101780 -2.696133 0
M  V30 33 H 0.480444 3.698163 -3.123248 0
M  V30 34 H 3.697113 2.917234 0.050496 0
M  V30 35 H 3.095911 0.319836 0.973029 0
M  V30 36 H 2.113082 0.503570 3.035074 0
M  V30 37 H 1.181833 1.649028 2.044210 0
M  V30 38 H 1.743511 2.486286 4.283677 0
M  V30 39 H 2.059551 3.551125 2.877934 0
M  V30 40 H 4.030530 0.806262 3.934278 0
M  V30 41 H 5.474344 1.854377 3.902524 0
M  V30 42 H 5.137223 2.330681 1.544772 0
M  V30 43 H 5.166505 0.554355 1.848766 0
M  V30 44 H -2.748358 0.705675 -2.155278 0
M  V30 45 H -4.373837 -0.962472 -1.490790 0
M  V30 46 H -4.135477 -2.791924 1.600452 0
M  V30 47 H -5.165336 -2.296433 0.202163 0
M  V30 48 H -3.974716 -3.676986 -1.345649 0
M  V30 49 H -4.689921 -4.659543 -0.010857 0
M  V30 50 H -1.698530 -3.400841 -1.625891 0
M  V30 51 H 0.564554 -4.375055 -1.120551 0
M  V30 52 H -3.316179 -5.574245 1.687443 0
M  V30 END ATOM
M  V30 BEGIN BOND
M  V30 1 2 1 2
M  V30 2 1 2 3
M  V30 3 2 3 4
M  V30 4 1 4 5
M  V30 5 2 5 6
M  V30 6 1 6 7
M  V30 7 2 7 8
M  V30 8 1 8 9
M  V30 9 1 9 10
M  V30 10 1 10 11
M  V30 11 1 11 12
M  V30 12 1 12 13
M  V30 13 1 13 14
M  V30 14 1 14 15
M  V30 15 1 15 16
M  V30 16 2 9 17
M  V30 17 1 4 18
M  V30 18 2 18 19
M  V30 19 1 19 20
M  V30 20 1 20 21
M  V30 21 1 21 22
M  V30 22 1 22 23
M  V30 23 2 23 24
M  V30 24 1 24 25
M  V30 25 2 25 26
M  V30 26 1 26 27
M  V30 27 1 26 28
M  V30 28 1 28 29
M  V30 29 2 28 30
M  V30 30 1 20 2
M  V30 31 1 30 23
M  V30 32 1 17 5
M  V30 33 1 16 11
M  V30 34 1 3 31
M  V30 35 1 6 32
M  V30 36 1 7 33
M  V30 37 1 10 34
M  V30 38 1 11 35
M  V30 39 1 12 36
M  V30 40 1 12 37
M  V30 41 1 13 38
M  V30 42 1 13 39
M  V30 43 1 15 40
M  V30 44 1 15 41
M  V30 45 1 16 42
M  V30 46 1 16 43
M  V30 47 1 18 44
M  V30 48 1 19 45
M  V30 49 1 21 46
M  V30 50 1 21 47
M  V30 51 1 22 48
M  V30 52 1 22 49
M  V30 53 1 24 50
M  V30 54 1 25 51
M  V30 55 1 30 52
M  V30 END BOND
M  V30 END CTAB
M  END
>  <Dataset>  (684) 
ChEMBL_Kinases

>  <Ligand_Instance>  (684) 
nan

>  <PDB_ID>  (684) 
nan

>  <Standardized_SMILES>  (684) 
O=c1cc(-c2ccnc(NC3CCOCC3)n2)ccn1CCc1ccc(Cl)c(F)c1

>  <Name>  (684) 
nan

>  <Pocket>  (684) 
nan

>  <ATP_Site>  (684) 
nan

>  <Peripheral>  (684) 
nan

>  <Num_H_Atoms_ProtBoundConf>  (684) 
nan

>  <Num_Resolved_Atoms>  (684) 
nan

>  <Num_Not_Resolved_Atoms>  (684) 
nan

$$$$
CHEMBL3409406
     RDKit          3D

  0  0  0  0  0  0  0  0  0  0999 V3000
M  V30 BEGIN CTAB
M  V30 COUNTS 49 52 0 0 0
M  V30 BEGIN ATOM
M  V30 1 O -4.154954 -2.502455 0.706795 0
M  V30 2 C -3.044609 -2.144998 0.183301 0
M  V30 3 C -2.353762 -1.225339 1.024828 0
M  V30 4 C -1.146470 -0.827600 0.475090 0
M  V30 5 C -0.278562 0.129588 1.269399 0
M  V30 6 C -0.560629 0.633985 2.562297 0
M  V30 7 C 0.356574 1.515402 3.215001 0
M  V30 8 N 0.996405 1.379984 2.219919 0
M  V30 9 C 1.806800 1.367288 1.267430 0
M  V30 10 N 2.944715 1.767793 0.598324 0
M  V30 11 C 3.647258 2.818836 1.288486 0
M  V30 12 C 2.628790 3.974168 1.293577 0
M  V30 13 C 3.210799 5.180681 1.948304 0
M  V30 14 O 3.995849 4.887511 3.052816 0
M  V30 15 C 3.676663 3.670836 3.620372 0
M  V30 16 C 4.061952 2.559062 2.665023 0
M  V30 17 N 0.883446 0.546541 0.740809 0
M  V30 18 C -0.622008 -1.229237 -0.729846 0
M  V30 19 C -1.395051 -2.111835 -1.429292 0
M  V30 20 N -2.580510 -2.573770 -1.005444 0
M  V30 21 C -3.371395 -3.512576 -1.774188 0
M  V30 22 C -3.014802 -4.934200 -1.412877 0
M  V30 23 C -3.766484 -5.585480 -0.468868 0
M  V30 24 C -3.398538 -6.897130 -0.156572 0
M  V30 25 C -2.334748 -7.579081 -0.732580 0
M  V30 26 C -1.710822 -6.776255 -1.641882 0
M  V30 27 C -1.908482 -5.498709 -2.080087 0
M  V30 28 H -2.748077 -0.901666 1.974715 0
M  V30 29 H -1.540677 0.255847 2.948810 0
M  V30 30 H -0.113981 1.720726 4.164988 0
M  V30 31 H 3.151043 1.278989 -0.297192 0
M  V30 32 H 4.489130 3.146916 0.658848 0
M  V30 33 H 1.723458 3.662995 1.865519 0
M  V30 34 H 2.359190 4.220766 0.242846 0
M  V30 35 H 2.341605 5.792974 2.332893 0
M  V30 36 H 3.691495 5.842643 1.201222 0
M  V30 37 H 2.608823 3.612031 3.915288 0
M  V30 38 H 4.327673 3.556473 4.535190 0
M  V30 39 H 3.800294 1.558013 3.065790 0
M  V30 40 H 5.195172 2.533693 2.686170 0
M  V30 41 H 0.323292 -0.868518 -1.093550 0
M  V30 42 H -1.027827 -2.461736 -2.392339 0
M  V30 43 H -4.460285 -3.319468 -1.561968 0
M  V30 44 H -3.268001 -3.382044 -2.871285 0
M  V30 45 H -4.605638 -5.153974 0.034768 0
M  V30 46 H -3.987529 -7.434345 0.609443 0
M  V30 47 H -2.035306 -8.585072 -0.516107 0
M  V30 48 H -0.850049 -7.256280 -2.151548 0
M  V30 49 H -1.348329 -4.959425 -2.807036 0
M  V30 END ATOM
M  V30 BEGIN BOND
M  V30 1 2 1 2
M  V30 2 1 2 3
M  V30 3 2 3 4
M  V30 4 1 4 5
M  V30 5 2 5 6
M  V30 6 1 6 7
M  V30 7 2 7 8
M  V30 8 1 8 9
M  V30 9 1 9 10
M  V30 10 1 10 11
M  V30 11 1 11 12
M  V30 12 1 12 13
M  V30 13 1 13 14
M  V30 14 1 14 15
M  V30 15 1 15 16
M  V30 16 2 9 17
M  V30 17 1 4 18
M  V30 18 2 18 19
M  V30 19 1 19 20
M  V30 20 1 20 21
M  V30 21 1 21 22
M  V30 22 2 22 23
M  V30 23 1 23 24
M  V30 24 2 24 25
M  V30 25 1 25 26
M  V30 26 2 26 27
M  V30 27 1 20 2
M  V30 28 1 27 22
M  V30 29 1 17 5
M  V30 30 1 16 11
M  V30 31 1 3 28
M  V30 32 1 6 29
M  V30 33 1 7 30
M  V30 34 1 10 31
M  V30 35 1 11 32
M  V30 36 1 12 33
M  V30 37 1 12 34
M  V30 38 1 13 35
M  V30 39 1 13 36
M  V30 40 1 15 37
M  V30 41 1 15 38
M  V30 42 1 16 39
M  V30 43 1 16 40
M  V30 44 1 18 41
M  V30 45 1 19 42
M  V30 46 1 21 43
M  V30 47 1 21 44
M  V30 48 1 23 45
M  V30 49 1 24 46
M  V30 50 1 25 47
M  V30 51 1 26 48
M  V30 52 1 27 49
M  V30 END BOND
M  V30 END CTAB
M  END
>  <Dataset>  (685) 
ChEMBL_Kinases

>  <Ligand_Instance>  (685) 
nan

>  <PDB_ID>  (685) 
nan

>  <Standardized_SMILES>  (685) 
O=c1cc(-c2ccnc(NC3CCOCC3)n2)ccn1Cc1ccccc1

>  <Name>  (685) 
nan

>  <Pocket>  (685) 
nan

>  <ATP_Site>  (685) 
nan

>  <Peripheral>  (685) 
nan

>  <Num_H_Atoms_ProtBoundConf>  (685) 
nan

>  <Num_Resolved_Atoms>  (685) 
nan

>  <Num_Not_Resolved_Atoms>  (685) 
nan

$$$$
CHEMBL3409407
     RDKit          3D

  0  0  0  0  0  0  0  0  0  0999 V3000
M  V30 BEGIN CTAB
M  V30 COUNTS 49 52 0 0 0
M  V30 BEGIN ATOM
M  V30 1 O -1.680330 -0.526328 2.409040 0
M  V30 2 C -0.905765 -1.387914 1.888860 0
M  V30 3 C 0.238924 -0.944703 1.253945 0
M  V30 4 C 1.091934 -1.865679 0.683265 0
M  V30 5 C 2.300306 -1.403627 0.012600 0
M  V30 6 C 3.197696 -2.247908 -0.577933 0
M  V30 7 C 4.301439 -1.679037 -1.179014 0
M  V30 8 N 4.456731 -0.356756 -1.166790 0
M  V30 9 C 3.579513 0.510468 -0.586269 0
M  V30 10 N 3.777742 1.912155 -0.591471 0
M  V30 11 C 2.843323 2.842227 0.024742 0
M  V30 12 C 1.482692 2.772460 -0.580300 0
M  V30 13 C 0.367333 3.323030 0.222081 0
M  V30 14 O 0.482055 3.258555 1.587018 0
M  V30 15 C 1.714315 3.531870 2.092687 0
M  V30 16 C 2.832725 2.738723 1.512060 0
M  V30 17 N 2.545554 -0.101991 -0.029381 0
M  V30 18 C 0.723300 -3.189475 0.795660 0
M  V30 19 C -0.411812 -3.629849 1.425195 0
M  V30 20 N -1.232737 -2.693179 1.978330 0
M  V30 21 C -2.428496 -3.177705 2.639896 0
M  V30 22 C -3.576838 -3.269026 1.703531 0
M  V30 23 C -4.467385 -2.222493 1.481291 0
M  V30 24 C -5.518338 -2.340434 0.608848 0
M  V30 25 C -5.746264 -3.513102 -0.097683 0
M  V30 26 C -4.879635 -4.591991 0.091328 0
M  V30 27 Cl -5.122045 -6.091878 -0.774055 0
M  V30 28 C -3.839899 -4.420258 0.979278 0
M  V30 29 H 0.444356 0.129261 1.217533 0
M  V30 30 H 3.043857 -3.311839 -0.570867 0
M  V30 31 H 5.031843 -2.328838 -1.656786 0
M  V30 32 H 4.659246 2.256606 -1.076793 0
M  V30 33 H 3.222103 3.882403 -0.201831 0
M  V30 34 H 1.218537 1.703750 -0.810356 0
M  V30 35 H 1.442578 3.262166 -1.598215 0
M  V30 36 H 0.321937 4.425145 -0.022791 0
M  V30 37 H -0.605005 2.934398 -0.141267 0
M  V30 38 H 1.965811 4.627645 2.071260 0
M  V30 39 H 1.669312 3.300402 3.193145 0
M  V30 40 H 3.778011 3.153323 1.923956 0
M  V30 41 H 2.775089 1.700996 1.892640 0
M  V30 42 H 1.352570 -3.942647 0.368908 0
M  V30 43 H -0.669566 -4.668927 1.494940 0
M  V30 44 H -2.744654 -2.521725 3.495667 0
M  V30 45 H -2.202520 -4.167677 3.082315 0
M  V30 46 H -4.320768 -1.292288 2.015068 0
M  V30 47 H -6.200521 -1.525711 0.444507 0
M  V30 48 H -6.546884 -3.680849 -0.797447 0
M  V30 49 H -3.168474 -5.279201 1.115255 0
M  V30 END ATOM
M  V30 BEGIN BOND
M  V30 1 2 1 2
M  V30 2 1 2 3
M  V30 3 2 3 4
M  V30 4 1 4 5
M  V30 5 2 5 6
M  V30 6 1 6 7
M  V30 7 2 7 8
M  V30 8 1 8 9
M  V30 9 1 9 10
M  V30 10 1 10 11
M  V30 11 1 11 12
M  V30 12 1 12 13
M  V30 13 1 13 14
M  V30 14 1 14 15
M  V30 15 1 15 16
M  V30 16 2 9 17
M  V30 17 1 4 18
M  V30 18 2 18 19
M  V30 19 1 19 20
M  V30 20 1 20 21
M  V30 21 1 21 22
M  V30 22 2 22 23
M  V30 23 1 23 24
M  V30 24 2 24 25
M  V30 25 1 25 26
M  V30 26 1 26 27
M  V30 27 2 26 28
M  V30 28 1 20 2
M  V30 29 1 28 22
M  V30 30 1 17 5
M  V30 31 1 16 11
M  V30 32 1 3 29
M  V30 33 1 6 30
M  V30 34 1 7 31
M  V30 35 1 10 32
M  V30 36 1 11 33
M  V30 37 1 12 34
M  V30 38 1 12 35
M  V30 39 1 13 36
M  V30 40 1 13 37
M  V30 41 1 15 38
M  V30 42 1 15 39
M  V30 43 1 16 40
M  V30 44 1 16 41
M  V30 45 1 18 42
M  V30 46 1 19 43
M  V30 47 1 21 44
M  V30 48 1 21 45
M  V30 49 1 23 46
M  V30 50 1 24 47
M  V30 51 1 25 48
M  V30 52 1 28 49
M  V30 END BOND
M  V30 END CTAB
M  END
>  <Dataset>  (686) 
ChEMBL_Kinases

>  <Ligand_Instance>  (686) 
nan

>  <PDB_ID>  (686) 
nan

>  <Standardized_SMILES>  (686) 
O=c1cc(-c2ccnc(NC3CCOCC3)n2)ccn1Cc1cccc(Cl)c1

>  <Name>  (686) 
nan

>  <Pocket>  (686) 
nan

>  <ATP_Site>  (686) 
nan

>  <Peripheral>  (686) 
nan

>  <Num_H_Atoms_ProtBoundConf>  (686) 
nan

>  <Num_Resolved_Atoms>  (686) 
nan

>  <Num_Not_Resolved_Atoms>  (686) 
nan

$$$$
CHEMBL3409408
     RDKit          3D

  0  0  0  0  0  0  0  0  0  0999 V3000
M  V30 BEGIN CTAB
M  V30 COUNTS 49 52 0 0 0
M  V30 BEGIN ATOM
M  V30 1 O -1.485373 -0.616322 2.643942 0
M  V30 2 C -0.750675 -1.395845 1.969411 0
M  V30 3 C 0.297690 -0.949472 1.191157 0
M  V30 4 C 1.101128 -1.794976 0.454309 0
M  V30 5 C 2.189519 -1.245123 -0.344190 0
M  V30 6 C 3.013756 -2.049400 -1.089884 0
M  V30 7 C 4.013839 -1.429563 -1.808290 0
M  V30 8 N 4.155437 -0.100015 -1.764982 0
M  V30 9 C 3.339522 0.703584 -1.025995 0
M  V30 10 N 3.503603 2.123818 -0.987790 0
M  V30 11 C 2.656550 3.012089 -0.218979 0
M  V30 12 C 1.214516 2.957382 -0.622504 0
M  V30 13 C 0.243395 3.331588 0.455032 0
M  V30 14 O 0.889518 4.187579 1.333995 0
M  V30 15 C 1.765665 3.417275 2.092037 0
M  V30 16 C 2.869100 2.822459 1.260797 0
M  V30 17 N 2.359021 0.088841 -0.322480 0
M  V30 18 C 0.786055 -3.134104 0.545769 0
M  V30 19 C -0.263317 -3.580302 1.324852 0
M  V30 20 N -1.025372 -2.715329 2.031175 0
M  V30 21 C -2.099681 -3.296150 2.814164 0
M  V30 22 C -3.356914 -3.390640 2.042516 0
M  V30 23 C -4.311295 -2.395257 2.004304 0
M  V30 24 C -5.435678 -2.633940 1.234972 0
M  V30 25 C -5.616770 -3.804214 0.530211 0
M  V30 26 Cl -7.061485 -4.056620 -0.430447 0
M  V30 27 C -4.662947 -4.805016 0.565324 0
M  V30 28 C -3.540954 -4.570750 1.331014 0
M  V30 29 H 0.483720 0.096536 1.167953 0
M  V30 30 H 2.906526 -3.111507 -1.129151 0
M  V30 31 H 4.726793 -1.985012 -2.436907 0
M  V30 32 H 4.308779 2.497260 -1.575350 0
M  V30 33 H 2.998388 4.047966 -0.436233 0
M  V30 34 H 0.982789 1.923165 -1.013950 0
M  V30 35 H 1.042157 3.636163 -1.488523 0
M  V30 36 H -0.110839 2.404385 0.956539 0
M  V30 37 H -0.619791 3.864357 0.005486 0
M  V30 38 H 2.194663 4.073401 2.871100 0
M  V30 39 H 1.182889 2.641330 2.625262 0
M  V30 40 H 3.841038 3.235043 1.597052 0
M  V30 41 H 2.893050 1.733936 1.471172 0
M  V30 42 H 1.378456 -3.838602 -0.007097 0
M  V30 43 H -0.455162 -4.647834 1.350747 0
M  V30 44 H -2.261711 -2.660259 3.725741 0
M  V30 45 H -1.769039 -4.280387 3.204784 0
M  V30 46 H -4.143556 -1.486716 2.567063 0
M  V30 47 H -6.185972 -1.838593 1.211502 0
M  V30 48 H -4.782880 -5.728202 0.022547 0
M  V30 49 H -2.805248 -5.365459 1.346422 0
M  V30 END ATOM
M  V30 BEGIN BOND
M  V30 1 2 1 2
M  V30 2 1 2 3
M  V30 3 2 3 4
M  V30 4 1 4 5
M  V30 5 2 5 6
M  V30 6 1 6 7
M  V30 7 2 7 8
M  V30 8 1 8 9
M  V30 9 1 9 10
M  V30 10 1 10 11
M  V30 11 1 11 12
M  V30 12 1 12 13
M  V30 13 1 13 14
M  V30 14 1 14 15
M  V30 15 1 15 16
M  V30 16 2 9 17
M  V30 17 1 4 18
M  V30 18 2 18 19
M  V30 19 1 19 20
M  V30 20 1 20 21
M  V30 21 1 21 22
M  V30 22 2 22 23
M  V30 23 1 23 24
M  V30 24 2 24 25
M  V30 25 1 25 26
M  V30 26 1 25 27
M  V30 27 2 27 28
M  V30 28 1 20 2
M  V30 29 1 28 22
M  V30 30 1 17 5
M  V30 31 1 16 11
M  V30 32 1 3 29
M  V30 33 1 6 30
M  V30 34 1 7 31
M  V30 35 1 10 32
M  V30 36 1 11 33
M  V30 37 1 12 34
M  V30 38 1 12 35
M  V30 39 1 13 36
M  V30 40 1 13 37
M  V30 41 1 15 38
M  V30 42 1 15 39
M  V30 43 1 16 40
M  V30 44 1 16 41
M  V30 45 1 18 42
M  V30 46 1 19 43
M  V30 47 1 21 44
M  V30 48 1 21 45
M  V30 49 1 23 46
M  V30 50 1 24 47
M  V30 51 1 27 48
M  V30 52 1 28 49
M  V30 END BOND
M  V30 END CTAB
M  END
>  <Dataset>  (687) 
ChEMBL_Kinases

>  <Ligand_Instance>  (687) 
nan

>  <PDB_ID>  (687) 
nan

>  <Standardized_SMILES>  (687) 
O=c1cc(-c2ccnc(NC3CCOCC3)n2)ccn1Cc1ccc(Cl)cc1

>  <Name>  (687) 
nan

>  <Pocket>  (687) 
nan

>  <ATP_Site>  (687) 
nan

>  <Peripheral>  (687) 
nan

>  <Num_H_Atoms_ProtBoundConf>  (687) 
nan

>  <Num_Resolved_Atoms>  (687) 
nan

>  <Num_Not_Resolved_Atoms>  (687) 
nan

$$$$
CHEMBL3409458
     RDKit          3D

  0  0  0  0  0  0  0  0  0  0999 V3000
M  V30 BEGIN CTAB
M  V30 COUNTS 74 79 0 0 0
M  V30 BEGIN ATOM
M  V30 1 C 5.578763 4.297399 4.367866 0
M  V30 2 N 5.459799 3.460112 3.181805 0
M  V30 3 C 6.682231 3.153639 2.476249 0
M  V30 4 O 7.721502 3.594961 2.983396 0
M  V30 5 C 6.861015 2.392946 1.245093 0
M  V30 6 C 8.189868 2.132425 0.963574 0
M  V30 7 C 8.589316 1.426571 -0.146279 0
M  V30 8 C 7.625738 0.959740 -1.013003 0
M  V30 9 C 6.288205 1.193201 -0.776530 0
M  V30 10 C 5.920421 1.902871 0.342149 0
M  V30 11 N 4.502448 2.084852 0.476230 0
M  V30 12 C 3.765522 1.909427 -0.740836 0
M  V30 13 C 3.770733 2.411954 1.647485 0
M  V30 14 N 2.485952 2.070562 1.551680 0
M  V30 15 C 1.540820 2.247023 2.477845 0
M  V30 16 N 0.162970 1.905487 2.465436 0
M  V30 17 C -0.591176 1.230475 1.473883 0
M  V30 18 C 0.091629 0.814687 0.355942 0
M  V30 19 C -0.570276 0.138077 -0.650258 0
M  V30 20 C -1.912081 -0.070537 -0.438491 0
M  V30 21 C -2.751052 -0.771244 -1.362659 0
M  V30 22 O -2.049691 -1.443099 -2.147764 0
M  V30 23 N -3.580471 -1.428510 -2.232416 0
M  V30 24 C -3.287002 -2.319331 -3.322961 0
M  V30 25 C -3.689007 -3.722167 -2.930859 0
M  V30 26 C -5.018988 -3.848495 -2.275796 0
M  V30 27 N -5.135326 -4.852793 -1.311030 0
M  V30 28 C -6.392281 -5.057333 -0.685767 0
M  V30 29 C -6.190320 -5.519310 0.759259 0
M  V30 30 C -4.781031 -5.188703 1.156524 0
M  V30 31 C -3.811225 -5.980500 0.276338 0
M  V30 32 C -4.278843 -5.940466 -1.196213 0
M  V30 33 C -5.617585 -2.583733 -1.733380 0
M  V30 34 C -5.010595 -1.301677 -2.130106 0
M  V30 35 C -2.620779 0.325015 0.650497 0
M  V30 36 C -1.937301 1.008148 1.659449 0
M  V30 37 Cl -2.737309 1.578110 3.118824 0
M  V30 38 N 2.011339 2.831993 3.583192 0
M  V30 39 C 3.276960 3.213700 3.783058 0
M  V30 40 C 4.188392 3.003683 2.798453 0
M  V30 41 H 6.634121 4.679798 4.374887 0
M  V30 42 H 5.501456 3.699786 5.298027 0
M  V30 43 H 4.954492 5.198894 4.345724 0
M  V30 44 H 8.989223 2.478805 1.618464 0
M  V30 45 H 9.604466 1.190192 -0.424127 0
M  V30 46 H 7.805979 0.384854 -1.934846 0
M  V30 47 H 5.506219 0.854524 -1.409487 0
M  V30 48 H 2.794371 2.439451 -0.651166 0
M  V30 49 H 4.249509 2.422695 -1.622086 0
M  V30 50 H 3.508150 0.855400 -0.947051 0
M  V30 51 H -0.398856 2.185672 3.304461 0
M  V30 52 H 1.134808 0.927894 0.106708 0
M  V30 53 H -0.098620 -0.225685 -1.573621 0
M  V30 54 H -3.944069 -2.016765 -4.190109 0
M  V30 55 H -2.274714 -2.273826 -3.735863 0
M  V30 56 H -3.612264 -4.418558 -3.788024 0
M  V30 57 H -2.901122 -4.047040 -2.198053 0
M  V30 58 H -5.727710 -4.140289 -3.121353 0
M  V30 59 H -7.035652 -5.806558 -1.229178 0
M  V30 60 H -7.043639 -4.144221 -0.652338 0
M  V30 61 H -6.893153 -4.977173 1.416017 0
M  V30 62 H -6.345464 -6.611668 0.876242 0
M  V30 63 H -4.602714 -4.124785 0.978445 0
M  V30 64 H -4.541102 -5.507278 2.191701 0
M  V30 65 H -2.818801 -5.490047 0.396717 0
M  V30 66 H -3.718284 -7.009921 0.656042 0
M  V30 67 H -3.345365 -5.955351 -1.775038 0
M  V30 68 H -4.746032 -6.944642 -1.340734 0
M  V30 69 H -6.725815 -2.507502 -1.949672 0
M  V30 70 H -5.600320 -2.620484 -0.600875 0
M  V30 71 H -5.462636 -0.952713 -3.103625 0
M  V30 72 H -5.251149 -0.487073 -1.397920 0
M  V30 73 H -3.668725 0.194114 0.872764 0
M  V30 74 H 3.558340 3.675133 4.700553 0
M  V30 END ATOM
M  V30 BEGIN BOND
M  V30 1 1 1 2
M  V30 2 1 2 3
M  V30 3 2 3 4
M  V30 4 1 3 5
M  V30 5 2 5 6
M  V30 6 1 6 7
M  V30 7 2 7 8
M  V30 8 1 8 9
M  V30 9 2 9 10
M  V30 10 1 10 11
M  V30 11 1 11 12
M  V30 12 1 11 13
M  V30 13 2 13 14
M  V30 14 1 14 15
M  V30 15 1 15 16
M  V30 16 1 16 17
M  V30 17 2 17 18
M  V30 18 1 18 19
M  V30 19 2 19 20
M  V30 20 1 20 21
M  V30 21 2 21 22
M  V30 22 1 21 23
M  V30 23 1 23 24
M  V30 24 1 24 25
M  V30 25 1 25 26
M  V30 26 1 26 27
M  V30 27 1 27 28
M  V30 28 1 28 29
M  V30 29 1 29 30
M  V30 30 1 30 31
M  V30 31 1 31 32
M  V30 32 1 26 33
M  V30 33 1 33 34
M  V30 34 1 20 35
M  V30 35 2 35 36
M  V30 36 1 36 37
M  V30 37 2 15 38
M  V30 38 1 38 39
M  V30 39 2 39 40
M  V30 40 1 40 2
M  V30 41 1 10 5
M  V30 42 1 40 13
M  V30 43 1 36 17
M  V30 44 1 34 23
M  V30 45 1 32 27
M  V30 46 1 1 41
M  V30 47 1 1 42
M  V30 48 1 1 43
M  V30 49 1 6 44
M  V30 50 1 7 45
M  V30 51 1 8 46
M  V30 52 1 9 47
M  V30 53 1 12 48
M  V30 54 1 12 49
M  V30 55 1 12 50
M  V30 56 1 16 51
M  V30 57 1 18 52
M  V30 58 1 19 53
M  V30 59 1 24 54
M  V30 60 1 24 55
M  V30 61 1 25 56
M  V30 62 1 25 57
M  V30 63 1 26 58
M  V30 64 1 28 59
M  V30 65 1 28 60
M  V30 66 1 29 61
M  V30 67 1 29 62
M  V30 68 1 30 63
M  V30 69 1 30 64
M  V30 70 1 31 65
M  V30 71 1 31 66
M  V30 72 1 32 67
M  V30 73 1 32 68
M  V30 74 1 33 69
M  V30 75 1 33 70
M  V30 76 1 34 71
M  V30 77 1 34 72
M  V30 78 1 35 73
M  V30 79 1 39 74
M  V30 END BOND
M  V30 END CTAB
M  END
>  <Dataset>  (688) 
ChEMBL_Kinases

>  <Ligand_Instance>  (688) 
nan

>  <PDB_ID>  (688) 
nan

>  <Standardized_SMILES>  (688) 
CN1C(=O)c2ccccc2N(C)c2nc(Nc3ccc(C(=O)N4CCC(N5CCCCC5)CC4)cc3Cl)ncc21

>  <Name>  (688) 
nan

>  <Pocket>  (688) 
nan

>  <ATP_Site>  (688) 
nan

>  <Peripheral>  (688) 
nan

>  <Num_H_Atoms_ProtBoundConf>  (688) 
nan

>  <Num_Resolved_Atoms>  (688) 
nan

>  <Num_Not_Resolved_Atoms>  (688) 
nan

$$$$
CHEMBL3409459
     RDKit          3D

  0  0  0  0  0  0  0  0  0  0999 V3000
M  V30 BEGIN CTAB
M  V30 COUNTS 75 80 0 0 0
M  V30 BEGIN ATOM
M  V30 1 C 3.644376 0.944636 5.713956 0
M  V30 2 N 2.920159 0.180176 4.720986 0
M  V30 3 C 2.404116 -1.075034 5.151183 0
M  V30 4 C 1.861963 -1.970750 4.146713 0
M  V30 5 C 1.339394 -3.075117 4.832554 0
M  V30 6 C 0.739352 -4.130998 4.147191 0
M  V30 7 C 0.650995 -4.104039 2.782543 0
M  V30 8 C 1.149353 -3.041396 2.052916 0
M  V30 9 C 1.725686 -2.034479 2.755987 0
M  V30 10 N 2.200870 -1.003963 1.922604 0
M  V30 11 C 2.376378 -1.366116 0.536223 0
M  V30 12 C 2.547261 0.363773 2.231715 0
M  V30 13 N 2.543904 1.164717 1.154224 0
M  V30 14 C 2.840701 2.469060 1.189877 0
M  V30 15 N 2.731481 3.045395 -0.101514 0
M  V30 16 C 1.736604 2.680930 -1.037919 0
M  V30 17 C 0.675336 1.920627 -0.599480 0
M  V30 18 C -0.329904 1.578129 -1.490645 0
M  V30 19 C -0.342771 1.956977 -2.830922 0
M  V30 20 C -1.471829 1.508321 -3.674521 0
M  V30 21 O -2.380836 2.211738 -4.176474 0
M  V30 22 N -1.329933 0.085022 -3.816872 0
M  V30 23 C -0.365463 -0.880319 -3.326501 0
M  V30 24 C -0.929419 -2.240411 -3.131423 0
M  V30 25 C -2.377158 -2.378129 -2.875622 0
M  V30 26 N -2.871738 -2.289617 -1.566249 0
M  V30 27 C -4.267123 -2.577512 -1.411076 0
M  V30 28 C -4.809972 -1.742183 -0.279209 0
M  V30 29 C -3.948253 -1.799581 0.959323 0
M  V30 30 C -2.489723 -1.540874 0.635102 0
M  V30 31 C -2.107914 -2.581972 -0.439426 0
M  V30 32 C -3.223568 -1.461203 -3.744371 0
M  V30 33 C -2.369490 -0.569214 -4.612711 0
M  V30 34 C 0.736958 2.715897 -3.222091 0
M  V30 35 C 1.743203 3.068003 -2.357538 0
M  V30 36 Cl 3.071355 4.037024 -2.962201 0
M  V30 37 N 3.159986 2.991653 2.383753 0
M  V30 38 C 3.173214 2.209310 3.500457 0
M  V30 39 C 2.868320 0.864800 3.475595 0
M  V30 40 H 4.629889 1.322048 5.362422 0
M  V30 41 H 3.017463 1.698919 6.222690 0
M  V30 42 H 3.922218 0.220562 6.537156 0
M  V30 43 H 3.259129 -1.618003 5.639641 0
M  V30 44 H 1.637178 -0.952358 5.960681 0
M  V30 45 H 1.338977 -3.230297 5.911809 0
M  V30 46 H 0.318297 -5.010087 4.610338 0
M  V30 47 H 0.190820 -4.909944 2.209354 0
M  V30 48 H 1.081977 -3.016421 0.978599 0
M  V30 49 H 3.094640 -0.645917 0.066696 0
M  V30 50 H 2.931646 -2.346662 0.440275 0
M  V30 51 H 1.457750 -1.317904 -0.059560 0
M  V30 52 H 3.423193 3.774723 -0.360250 0
M  V30 53 H 0.475234 1.534821 0.365789 0
M  V30 54 H -1.201508 0.974861 -1.188847 0
M  V30 55 H 0.426893 -0.893245 -4.141118 0
M  V30 56 H 0.209558 -0.525808 -2.440000 0
M  V30 57 H -0.689992 -2.823365 -4.081174 0
M  V30 58 H -0.370756 -2.837411 -2.358886 0
M  V30 59 H -2.657032 -3.422058 -3.231609 0
M  V30 60 H -4.820568 -2.348449 -2.324803 0
M  V30 61 H -4.460270 -3.647938 -1.160651 0
M  V30 62 H -5.795868 -2.214031 -0.011435 0
M  V30 63 H -5.009845 -0.709910 -0.584566 0
M  V30 64 H -4.293371 -0.963979 1.627693 0
M  V30 65 H -4.012552 -2.740659 1.509819 0
M  V30 66 H -2.446187 -0.558564 0.107983 0
M  V30 67 H -1.898124 -1.620933 1.539852 0
M  V30 68 H -2.417275 -3.563046 0.038874 0
M  V30 69 H -1.024874 -2.628524 -0.500110 0
M  V30 70 H -3.802327 -0.771706 -3.101215 0
M  V30 71 H -3.952394 -2.013441 -4.361599 0
M  V30 72 H -1.849502 -1.232480 -5.328056 0
M  V30 73 H -2.940459 0.151089 -5.190939 0
M  V30 74 H 0.732066 3.017378 -4.270390 0
M  V30 75 H 3.426224 2.654343 4.430249 0
M  V30 END ATOM
M  V30 BEGIN BOND
M  V30 1 1 1 2
M  V30 2 1 2 3
M  V30 3 1 3 4
M  V30 4 2 4 5
M  V30 5 1 5 6
M  V30 6 2 6 7
M  V30 7 1 7 8
M  V30 8 2 8 9
M  V30 9 1 9 10
M  V30 10 1 10 11
M  V30 11 1 10 12
M  V30 12 2 12 13
M  V30 13 1 13 14
M  V30 14 1 14 15
M  V30 15 1 15 16
M  V30 16 2 16 17
M  V30 17 1 17 18
M  V30 18 2 18 19
M  V30 19 1 19 20
M  V30 20 2 20 21
M  V30 21 1 20 22
M  V30 22 1 22 23
M  V30 23 1 23 24
M  V30 24 1 24 25
M  V30 25 1 25 26
M  V30 26 1 26 27
M  V30 27 1 27 28
M  V30 28 1 28 29
M  V30 29 1 29 30
M  V30 30 1 30 31
M  V30 31 1 25 32
M  V30 32 1 32 33
M  V30 33 1 19 34
M  V30 34 2 34 35
M  V30 35 1 35 36
M  V30 36 2 14 37
M  V30 37 1 37 38
M  V30 38 2 38 39
M  V30 39 1 39 2
M  V30 40 1 9 4
M  V30 41 1 39 12
M  V30 42 1 35 16
M  V30 43 1 33 22
M  V30 44 1 31 26
M  V30 45 1 1 40
M  V30 46 1 1 41
M  V30 47 1 1 42
M  V30 48 1 3 43
M  V30 49 1 3 44
M  V30 50 1 5 45
M  V30 51 1 6 46
M  V30 52 1 7 47
M  V30 53 1 8 48
M  V30 54 1 11 49
M  V30 55 1 11 50
M  V30 56 1 11 51
M  V30 57 1 15 52
M  V30 58 1 17 53
M  V30 59 1 18 54
M  V30 60 1 23 55
M  V30 61 1 23 56
M  V30 62 1 24 57
M  V30 63 1 24 58
M  V30 64 1 25 59
M  V30 65 1 27 60
M  V30 66 1 27 61
M  V30 67 1 28 62
M  V30 68 1 28 63
M  V30 69 1 29 64
M  V30 70 1 29 65
M  V30 71 1 30 66
M  V30 72 1 30 67
M  V30 73 1 31 68
M  V30 74 1 31 69
M  V30 75 1 32 70
M  V30 76 1 32 71
M  V30 77 1 33 72
M  V30 78 1 33 73
M  V30 79 1 34 74
M  V30 80 1 38 75
M  V30 END BOND
M  V30 END CTAB
M  END
>  <Dataset>  (689) 
ChEMBL_Kinases

>  <Ligand_Instance>  (689) 
nan

>  <PDB_ID>  (689) 
nan

>  <Standardized_SMILES>  (689) 
CN1Cc2ccccc2N(C)c2nc(Nc3ccc(C(=O)N4CCC(N5CCCCC5)CC4)cc3Cl)ncc21

>  <Name>  (689) 
nan

>  <Pocket>  (689) 
nan

>  <ATP_Site>  (689) 
nan

>  <Peripheral>  (689) 
nan

>  <Num_H_Atoms_ProtBoundConf>  (689) 
nan

>  <Num_Resolved_Atoms>  (689) 
nan

>  <Num_Not_Resolved_Atoms>  (689) 
nan

$$$$
CHEMBL3409462
     RDKit          3D

  0  0  0  0  0  0  0  0  0  0999 V3000
M  V30 BEGIN CTAB
M  V30 COUNTS 46 48 0 0 0
M  V30 BEGIN ATOM
M  V30 1 N -2.720600 -5.359416 3.883740 0
M  V30 2 C -2.262016 -4.771801 2.696814 0
M  V30 3 C -1.444820 -5.432468 1.801200 0
M  V30 4 C -1.047130 -4.749660 0.653130 0
M  V30 5 C -1.467209 -3.434898 0.421082 0
M  V30 6 C -0.935798 -2.904060 -0.839034 0
M  V30 7 O -1.253304 -3.428217 -1.956196 0
M  V30 8 N -0.059785 -1.789263 -0.751713 0
M  V30 9 C 0.317333 -1.171261 0.506134 0
M  V30 10 C -0.130710 0.289619 0.407609 0
M  V30 11 C 0.653265 0.959379 -0.656880 0
M  V30 12 N 1.492951 2.052628 -0.234597 0
M  V30 13 C 0.654739 3.090868 0.268822 0
M  V30 14 C 1.278367 4.071238 1.179640 0
M  V30 15 C 2.064921 3.329651 2.263580 0
M  V30 16 C 3.190558 2.672772 1.455686 0
M  V30 17 C 2.529037 1.611814 0.648287 0
M  V30 18 C 1.438951 -0.019983 -1.498386 0
M  V30 19 C 0.536385 -1.180144 -1.942055 0
M  V30 20 C -2.285613 -2.806610 1.341436 0
M  V30 21 C -2.680356 -3.477457 2.476222 0
M  V30 22 Cl -3.713434 -2.608247 3.583885 0
M  V30 23 H -3.522148 -5.956485 4.229278 0
M  V30 24 H -2.044099 -5.119492 4.654109 0
M  V30 25 H -1.121212 -6.462539 1.992570 0
M  V30 26 H -0.399945 -5.323939 -0.021223 0
M  V30 27 H 1.422963 -1.270177 0.568397 0
M  V30 28 H -0.100719 -1.676017 1.396038 0
M  V30 29 H -0.098946 0.782316 1.396449 0
M  V30 30 H -1.197478 0.225695 0.117971 0
M  V30 31 H -0.072388 1.427546 -1.392754 0
M  V30 32 H -0.257798 2.698616 0.757377 0
M  V30 33 H 0.291390 3.653716 -0.629251 0
M  V30 34 H 0.478274 4.637373 1.720326 0
M  V30 35 H 1.998593 4.779701 0.711852 0
M  V30 36 H 2.441585 3.985376 3.053970 0
M  V30 37 H 1.433190 2.479603 2.630654 0
M  V30 38 H 3.702793 3.439959 0.841865 0
M  V30 39 H 3.867001 2.206225 2.189706 0
M  V30 40 H 2.181404 0.845083 1.399062 0
M  V30 41 H 3.305625 1.100399 0.041319 0
M  V30 42 H 1.712808 0.493508 -2.462600 0
M  V30 43 H 2.336526 -0.416806 -1.031189 0
M  V30 44 H -0.284249 -0.822222 -2.592659 0
M  V30 45 H 1.207915 -1.887446 -2.467352 0
M  V30 46 H -2.548520 -1.810948 1.075582 0
M  V30 END ATOM
M  V30 BEGIN BOND
M  V30 1 1 1 2
M  V30 2 2 2 3
M  V30 3 1 3 4
M  V30 4 2 4 5
M  V30 5 1 5 6
M  V30 6 2 6 7
M  V30 7 1 6 8
M  V30 8 1 8 9
M  V30 9 1 9 10
M  V30 10 1 10 11
M  V30 11 1 11 12
M  V30 12 1 12 13
M  V30 13 1 13 14
M  V30 14 1 14 15
M  V30 15 1 15 16
M  V30 16 1 16 17
M  V30 17 1 11 18
M  V30 18 1 18 19
M  V30 19 1 5 20
M  V30 20 2 20 21
M  V30 21 1 21 22
M  V30 22 1 21 2
M  V30 23 1 19 8
M  V30 24 1 17 12
M  V30 25 1 1 23
M  V30 26 1 1 24
M  V30 27 1 3 25
M  V30 28 1 4 26
M  V30 29 1 9 27
M  V30 30 1 9 28
M  V30 31 1 10 29
M  V30 32 1 10 30
M  V30 33 1 11 31
M  V30 34 1 13 32
M  V30 35 1 13 33
M  V30 36 1 14 34
M  V30 37 1 14 35
M  V30 38 1 15 36
M  V30 39 1 15 37
M  V30 40 1 16 38
M  V30 41 1 16 39
M  V30 42 1 17 40
M  V30 43 1 17 41
M  V30 44 1 18 42
M  V30 45 1 18 43
M  V30 46 1 19 44
M  V30 47 1 19 45
M  V30 48 1 20 46
M  V30 END BOND
M  V30 END CTAB
M  END
>  <Dataset>  (690) 
ChEMBL_Kinases

>  <Ligand_Instance>  (690) 
nan

>  <PDB_ID>  (690) 
nan

>  <Standardized_SMILES>  (690) 
Nc1ccc(C(=O)N2CCC(N3CCCCC3)CC2)cc1Cl

>  <Name>  (690) 
nan

>  <Pocket>  (690) 
nan

>  <ATP_Site>  (690) 
nan

>  <Peripheral>  (690) 
nan

>  <Num_H_Atoms_ProtBoundConf>  (690) 
nan

>  <Num_Resolved_Atoms>  (690) 
nan

>  <Num_Not_Resolved_Atoms>  (690) 
nan

$$$$
CHEMBL3409568
     RDKit          3D

  0  0  0  0  0  0  0  0  0  0999 V3000
M  V30 BEGIN CTAB
M  V30 COUNTS 49 52 0 0 0
M  V30 BEGIN ATOM
M  V30 1 O -1.419094 -5.149877 2.168312 0
M  V30 2 C -1.379156 -3.933544 1.903408 0
M  V30 3 C -0.162982 -3.317520 1.667807 0
M  V30 4 C -0.077231 -1.993856 1.375812 0
M  V30 5 C 1.156041 -1.261481 1.114088 0
M  V30 6 C 2.379616 -1.897199 1.148271 0
M  V30 7 C 3.503469 -1.138232 0.890330 0
M  V30 8 N 3.427777 0.168336 0.615101 0
M  V30 9 C 2.234315 0.783933 0.582662 0
M  V30 10 N 2.094247 2.170393 0.295077 0
M  V30 11 C 3.217614 3.043848 0.014568 0
M  V30 12 C 2.785493 4.452185 -0.271899 0
M  V30 13 C 3.527063 5.525396 0.429586 0
M  V30 14 O 4.766146 5.138064 0.923776 0
M  V30 15 C 4.502321 4.157921 1.879228 0
M  V30 16 C 4.217550 2.885079 1.101898 0
M  V30 17 N 1.142497 0.045954 0.833418 0
M  V30 18 C -1.281023 -1.292124 1.326808 0
M  V30 19 C -2.460057 -1.951879 1.568711 0
M  V30 20 N -2.543507 -3.260514 1.857322 0
M  V30 21 C -3.854416 -3.836004 2.091328 0
M  V30 22 C -4.331192 -4.296204 0.739411 0
M  V30 23 C -5.050200 -3.381483 -0.032900 0
M  V30 24 C -5.557267 -3.629682 -1.281288 0
M  V30 25 C -5.309796 -4.898304 -1.766773 0
M  V30 26 F -5.777549 -5.231422 -3.001428 0
M  V30 27 C -4.615244 -5.825577 -1.055097 0
M  V30 28 Cl -4.342176 -7.422739 -1.745857 0
M  V30 29 C -4.131775 -5.528296 0.182903 0
M  V30 30 H 0.726750 -3.894912 1.716667 0
M  V30 31 H 2.488186 -2.942308 1.364400 0
M  V30 32 H 4.505949 -1.579277 0.901352 0
M  V30 33 H 1.146647 2.605417 0.279043 0
M  V30 34 H 3.652827 2.639312 -0.944129 0
M  V30 35 H 2.810601 4.686366 -1.376449 0
M  V30 36 H 1.694503 4.542780 -0.019240 0
M  V30 37 H 3.739374 6.399597 -0.246478 0
M  V30 38 H 2.957235 5.966065 1.279650 0
M  V30 39 H 3.632610 4.526431 2.453101 0
M  V30 40 H 5.358790 3.942937 2.545230 0
M  V30 41 H 5.203402 2.577636 0.683266 0
M  V30 42 H 3.918394 2.118140 1.875561 0
M  V30 43 H -1.306649 -0.230410 1.100706 0
M  V30 44 H -3.384235 -1.362315 1.520573 0
M  V30 45 H -3.769380 -4.696074 2.770367 0
M  V30 46 H -4.525340 -3.046195 2.461089 0
M  V30 47 H -5.234778 -2.377950 0.373935 0
M  V30 48 H -6.106373 -2.875458 -1.827688 0
M  V30 49 H -3.577100 -6.232403 0.780057 0
M  V30 END ATOM
M  V30 BEGIN BOND
M  V30 1 2 1 2
M  V30 2 1 2 3
M  V30 3 2 3 4
M  V30 4 1 4 5
M  V30 5 2 5 6
M  V30 6 1 6 7
M  V30 7 2 7 8
M  V30 8 1 8 9
M  V30 9 1 9 10
M  V30 10 1 10 11
M  V30 11 1 11 12
M  V30 12 1 12 13
M  V30 13 1 13 14
M  V30 14 1 14 15
M  V30 15 1 15 16
M  V30 16 2 9 17
M  V30 17 1 4 18
M  V30 18 2 18 19
M  V30 19 1 19 20
M  V30 20 1 20 21
M  V30 21 1 21 22
M  V30 22 2 22 23
M  V30 23 1 23 24
M  V30 24 2 24 25
M  V30 25 1 25 26
M  V30 26 1 25 27
M  V30 27 1 27 28
M  V30 28 2 27 29
M  V30 29 1 20 2
M  V30 30 1 29 22
M  V30 31 1 17 5
M  V30 32 1 16 11
M  V30 33 1 3 30
M  V30 34 1 6 31
M  V30 35 1 7 32
M  V30 36 1 10 33
M  V30 37 1 11 34
M  V30 38 1 12 35
M  V30 39 1 12 36
M  V30 40 1 13 37
M  V30 41 1 13 38
M  V30 42 1 15 39
M  V30 43 1 15 40
M  V30 44 1 16 41
M  V30 45 1 16 42
M  V30 46 1 18 43
M  V30 47 1 19 44
M  V30 48 1 21 45
M  V30 49 1 21 46
M  V30 50 1 23 47
M  V30 51 1 24 48
M  V30 52 1 29 49
M  V30 END BOND
M  V30 END CTAB
M  END
>  <Dataset>  (691) 
ChEMBL_Kinases

>  <Ligand_Instance>  (691) 
nan

>  <PDB_ID>  (691) 
nan

>  <Standardized_SMILES>  (691) 
O=c1cc(-c2ccnc(NC3CCOCC3)n2)ccn1Cc1ccc(F)c(Cl)c1

>  <Name>  (691) 
nan

>  <Pocket>  (691) 
nan

>  <ATP_Site>  (691) 
nan

>  <Peripheral>  (691) 
nan

>  <Num_H_Atoms_ProtBoundConf>  (691) 
nan

>  <Num_Resolved_Atoms>  (691) 
nan

>  <Num_Not_Resolved_Atoms>  (691) 
nan

$$$$
CHEMBL3409569
     RDKit          3D

  0  0  0  0  0  0  0  0  0  0999 V3000
M  V30 BEGIN CTAB
M  V30 COUNTS 49 52 0 0 0
M  V30 BEGIN ATOM
M  V30 1 O -1.436171 -5.101796 2.250522 0
M  V30 2 C -1.383416 -3.900027 1.955169 0
M  V30 3 C -0.151693 -3.301217 1.720853 0
M  V30 4 C -0.050785 -1.987513 1.394816 0
M  V30 5 C 1.187474 -1.264742 1.130328 0
M  V30 6 C 2.409095 -1.899676 1.197628 0
M  V30 7 C 3.546645 -1.162750 0.937670 0
M  V30 8 N 3.441848 0.142787 0.627860 0
M  V30 9 C 2.257085 0.769664 0.559802 0
M  V30 10 N 2.125068 2.148107 0.234945 0
M  V30 11 C 3.243433 3.026345 -0.053270 0
M  V30 12 C 2.800002 4.419619 -0.387475 0
M  V30 13 C 3.358598 5.504842 0.456082 0
M  V30 14 O 4.672701 5.250713 0.876947 0
M  V30 15 C 4.552504 4.188720 1.773859 0
M  V30 16 C 4.306399 2.942242 0.984306 0
M  V30 17 N 1.180755 0.036041 0.814708 0
M  V30 18 C -1.254477 -1.286007 1.311653 0
M  V30 19 C -2.466221 -1.879720 1.543307 0
M  V30 20 N -2.541804 -3.200633 1.869250 0
M  V30 21 C -3.854726 -3.770554 2.101915 0
M  V30 22 C -4.348727 -4.274688 0.783828 0
M  V30 23 C -5.076007 -3.390074 -0.003047 0
M  V30 24 C -5.590763 -3.715883 -1.235269 0
M  V30 25 C -5.359246 -4.990775 -1.689394 0
M  V30 26 Cl -5.982001 -5.490850 -3.255733 0
M  V30 27 C -4.637125 -5.875036 -0.912164 0
M  V30 28 F -4.433828 -7.133341 -1.408368 0
M  V30 29 C -4.117645 -5.554528 0.325370 0
M  V30 30 H 0.737098 -3.878504 1.796588 0
M  V30 31 H 2.511144 -2.945596 1.444540 0
M  V30 32 H 4.540762 -1.624377 0.979285 0
M  V30 33 H 1.174921 2.576304 0.195549 0
M  V30 34 H 3.686795 2.601368 -1.002521 0
M  V30 35 H 2.994983 4.696478 -1.463212 0
M  V30 36 H 1.673933 4.464215 -0.321805 0
M  V30 37 H 3.428529 6.458206 -0.126245 0
M  V30 38 H 2.743879 5.666434 1.365773 0
M  V30 39 H 3.742138 4.468434 2.475453 0
M  V30 40 H 5.472628 4.022420 2.369640 0
M  V30 41 H 5.309980 2.647427 0.558256 0
M  V30 42 H 4.092239 2.134232 1.738990 0
M  V30 43 H -1.244893 -0.225858 1.053444 0
M  V30 44 H -3.378154 -1.275028 1.462431 0
M  V30 45 H -3.811317 -4.583936 2.853023 0
M  V30 46 H -4.510522 -2.960081 2.477749 0
M  V30 47 H -5.260312 -2.384039 0.352755 0
M  V30 48 H -6.145987 -2.981204 -1.794238 0
M  V30 49 H -3.561915 -6.233620 0.924047 0
M  V30 END ATOM
M  V30 BEGIN BOND
M  V30 1 2 1 2
M  V30 2 1 2 3
M  V30 3 2 3 4
M  V30 4 1 4 5
M  V30 5 2 5 6
M  V30 6 1 6 7
M  V30 7 2 7 8
M  V30 8 1 8 9
M  V30 9 1 9 10
M  V30 10 1 10 11
M  V30 11 1 11 12
M  V30 12 1 12 13
M  V30 13 1 13 14
M  V30 14 1 14 15
M  V30 15 1 15 16
M  V30 16 2 9 17
M  V30 17 1 4 18
M  V30 18 2 18 19
M  V30 19 1 19 20
M  V30 20 1 20 21
M  V30 21 1 21 22
M  V30 22 2 22 23
M  V30 23 1 23 24
M  V30 24 2 24 25
M  V30 25 1 25 26
M  V30 26 1 25 27
M  V30 27 1 27 28
M  V30 28 2 27 29
M  V30 29 1 20 2
M  V30 30 1 29 22
M  V30 31 1 17 5
M  V30 32 1 16 11
M  V30 33 1 3 30
M  V30 34 1 6 31
M  V30 35 1 7 32
M  V30 36 1 10 33
M  V30 37 1 11 34
M  V30 38 1 12 35
M  V30 39 1 12 36
M  V30 40 1 13 37
M  V30 41 1 13 38
M  V30 42 1 15 39
M  V30 43 1 15 40
M  V30 44 1 16 41
M  V30 45 1 16 42
M  V30 46 1 18 43
M  V30 47 1 19 44
M  V30 48 1 21 45
M  V30 49 1 21 46
M  V30 50 1 23 47
M  V30 51 1 24 48
M  V30 52 1 29 49
M  V30 END BOND
M  V30 END CTAB
M  END
>  <Dataset>  (692) 
ChEMBL_Kinases

>  <Ligand_Instance>  (692) 
nan

>  <PDB_ID>  (692) 
nan

>  <Standardized_SMILES>  (692) 
O=c1cc(-c2ccnc(NC3CCOCC3)n2)ccn1Cc1ccc(Cl)c(F)c1

>  <Name>  (692) 
nan

>  <Pocket>  (692) 
nan

>  <ATP_Site>  (692) 
nan

>  <Peripheral>  (692) 
nan

>  <Num_H_Atoms_ProtBoundConf>  (692) 
nan

>  <Num_Resolved_Atoms>  (692) 
nan

>  <Num_Not_Resolved_Atoms>  (692) 
nan

$$$$
CHEMBL3408957
     RDKit          3D

  0  0  0  0  0  0  0  0  0  0999 V3000
M  V30 BEGIN CTAB
M  V30 COUNTS 73 79 0 0 0
M  V30 BEGIN ATOM
M  V30 1 C 5.794096 -7.737949 0.476221 0
M  V30 2 C 5.185416 -6.952951 -0.674951 0
M  V30 3 C 3.834955 -6.475802 -0.201808 0
M  V30 4 N 6.018633 -5.917872 -1.144340 0
M  V30 5 C 6.419424 -4.894667 -0.279364 0
M  V30 6 C 6.473520 -3.544974 -0.995537 0
M  V30 7 C 5.276763 -3.482298 -1.928236 0
M  V30 8 O 5.059833 -2.188349 -2.400815 0
M  V30 9 C 3.939297 -1.414521 -2.219516 0
M  V30 10 C 2.796981 -1.768317 -1.533961 0
M  V30 11 C 1.689315 -0.961817 -1.372315 0
M  V30 12 C 1.700052 0.300397 -1.929515 0
M  V30 13 C 0.576425 1.220116 -1.799846 0
M  V30 14 C -0.530857 0.940022 -1.161991 0
M  V30 15 C -1.628400 1.932363 -1.073738 0
M  V30 16 N -1.679885 3.177413 -1.554050 0
M  V30 17 N -2.849968 3.739562 -1.254050 0
M  V30 18 C -3.600662 2.864463 -0.561699 0
M  V30 19 C -4.869320 2.969500 -0.032746 0
M  V30 20 C -5.443996 1.908077 0.653386 0
M  V30 21 C -6.740875 1.783380 1.306737 0 CFG=2
M  V30 22 C -7.728473 2.939637 1.108681 0
M  V30 23 C -7.229173 2.585375 2.430994 0 CFG=1
M  V30 24 C -8.244453 1.983842 3.346334 0
M  V30 25 O -9.153168 1.206439 2.942578 0
M  V30 26 N -8.081302 2.374664 4.703187 0
M  V30 27 C -6.965644 3.257248 4.638698 0
M  V30 28 C -6.443419 3.911813 5.766782 0
M  V30 29 C -5.370938 4.762170 5.609059 0
M  V30 30 C -4.820409 4.964848 4.358441 0
M  V30 31 C -5.396215 4.280919 3.307970 0
M  V30 32 C -6.462376 3.409721 3.338550 0
M  V30 33 C -4.630698 0.767846 0.746588 0
M  V30 34 C -3.363641 0.648138 0.224975 0
M  V30 35 C -2.838084 1.723417 -0.444265 0
M  V30 36 C 2.826992 0.682357 -2.620094 0
M  V30 37 C 3.951271 -0.140394 -2.782560 0
M  V30 38 C 5.572875 -4.427505 -3.069589 0
M  V30 39 C 6.052846 -5.743743 -2.538242 0
M  V30 40 H 6.014822 -7.088109 1.344613 0
M  V30 41 H 4.988573 -8.422102 0.825364 0
M  V30 42 H 6.633192 -8.383529 0.181795 0
M  V30 43 H 4.965356 -7.734715 -1.459252 0
M  V30 44 H 3.890764 -5.719107 0.581913 0
M  V30 45 H 3.324925 -7.362066 0.256662 0
M  V30 46 H 3.196026 -6.196489 -1.073376 0
M  V30 47 H 7.447387 -5.018313 0.149059 0
M  V30 48 H 5.680322 -4.764389 0.551958 0
M  V30 49 H 7.394310 -3.575039 -1.603337 0
M  V30 50 H 6.496933 -2.726390 -0.253629 0
M  V30 51 H 4.432239 -3.897801 -1.366126 0
M  V30 52 H 2.771436 -2.748290 -1.091667 0
M  V30 53 H 0.853471 -1.336049 -0.822661 0
M  V30 54 H 0.633000 2.193368 -2.243914 0
M  V30 55 H -0.662975 -0.019065 -0.688474 0
M  V30 56 H -3.127918 4.708618 -1.520090 0
M  V30 57 H -5.500159 3.830419 -0.094610 0
M  V30 58 H -7.190261 0.743594 1.300512 0
M  V30 59 H -8.775185 2.648648 0.805727 0
M  V30 60 H -7.411123 3.857152 0.603341 0
M  V30 61 H -8.667718 2.057716 5.499382 0
M  V30 62 H -6.835264 3.789477 6.762873 0
M  V30 63 H -4.972207 5.263906 6.479293 0
M  V30 64 H -3.980835 5.634647 4.254947 0
M  V30 65 H -4.915172 4.492901 2.372131 0
M  V30 66 H -4.970697 -0.143377 1.263512 0
M  V30 67 H -2.773806 -0.251439 0.322594 0
M  V30 68 H 2.873344 1.672526 -3.075309 0
M  V30 69 H 4.786851 0.261205 -3.342247 0
M  V30 70 H 4.653542 -4.536755 -3.704532 0
M  V30 71 H 6.348804 -3.957958 -3.721703 0
M  V30 72 H 5.443374 -6.560175 -3.000213 0
M  V30 73 H 7.098646 -5.901220 -2.917361 0
M  V30 END ATOM
M  V30 BEGIN BOND
M  V30 1 1 1 2
M  V30 2 1 2 3
M  V30 3 1 2 4
M  V30 4 1 4 5
M  V30 5 1 5 6
M  V30 6 1 6 7
M  V30 7 1 7 8
M  V30 8 1 8 9
M  V30 9 2 9 10
M  V30 10 1 10 11
M  V30 11 2 11 12
M  V30 12 1 12 13
M  V30 13 2 13 14
M  V30 14 1 14 15
M  V30 15 2 15 16
M  V30 16 1 16 17
M  V30 17 1 17 18
M  V30 18 2 18 19
M  V30 19 1 19 20
M  V30 20 1 20 21
M  V30 21 1 21 22
M  V30 22 1 23 22 CFG=3
M  V30 23 1 23 24
M  V30 24 2 24 25
M  V30 25 1 24 26
M  V30 26 1 26 27
M  V30 27 2 27 28
M  V30 28 1 28 29
M  V30 29 2 29 30
M  V30 30 1 30 31
M  V30 31 2 31 32
M  V30 32 2 20 33
M  V30 33 1 33 34
M  V30 34 2 34 35
M  V30 35 1 12 36
M  V30 36 2 36 37
M  V30 37 1 7 38
M  V30 38 1 38 39
M  V30 39 1 39 4
M  V30 40 1 37 9
M  V30 41 1 35 15
M  V30 42 1 35 18
M  V30 43 1 23 21
M  V30 44 1 32 27
M  V30 45 1 32 23
M  V30 46 1 1 40
M  V30 47 1 1 41
M  V30 48 1 1 42
M  V30 49 1 2 43
M  V30 50 1 3 44
M  V30 51 1 3 45
M  V30 52 1 3 46
M  V30 53 1 5 47
M  V30 54 1 5 48
M  V30 55 1 6 49
M  V30 56 1 6 50
M  V30 57 1 7 51
M  V30 58 1 10 52
M  V30 59 1 11 53
M  V30 60 1 13 54
M  V30 61 1 14 55
M  V30 62 1 17 56
M  V30 63 1 19 57
M  V30 64 1 21 58 CFG=1
M  V30 65 1 22 59
M  V30 66 1 22 60
M  V30 67 1 26 61
M  V30 68 1 28 62
M  V30 69 1 29 63
M  V30 70 1 30 64
M  V30 71 1 31 65
M  V30 72 1 33 66
M  V30 73 1 34 67
M  V30 74 1 36 68
M  V30 75 1 37 69
M  V30 76 1 38 70
M  V30 77 1 38 71
M  V30 78 1 39 72
M  V30 79 1 39 73
M  V30 END BOND
M  V30 END CTAB
M  END
>  <Dataset>  (693) 
ChEMBL_Kinases

>  <Ligand_Instance>  (693) 
nan

>  <PDB_ID>  (693) 
nan

>  <Standardized_SMILES>  (693) 
CC(C)N1CCC(Oc2ccc(/C=C/c3n[nH]c4cc([C@@H]5C[C@@]56C(=O)Nc5ccccc56)ccc34)cc2)CC1

>  <Name>  (693) 
nan

>  <Pocket>  (693) 
nan

>  <ATP_Site>  (693) 
nan

>  <Peripheral>  (693) 
nan

>  <Num_H_Atoms_ProtBoundConf>  (693) 
nan

>  <Num_Resolved_Atoms>  (693) 
nan

>  <Num_Not_Resolved_Atoms>  (693) 
nan

$$$$
CHEMBL3402472
     RDKit          3D

  0  0  0  0  0  0  0  0  0  0999 V3000
M  V30 BEGIN CTAB
M  V30 COUNTS 67 69 0 0 0
M  V30 BEGIN ATOM
M  V30 1 C 2.919337 1.429104 3.994678 0
M  V30 2 N 3.059221 0.182130 3.313428 0
M  V30 3 C 3.313743 -0.936964 4.179654 0
M  V30 4 C 3.912193 0.226135 2.165157 0
M  V30 5 C 3.341707 1.038447 1.027427 0
M  V30 6 O 2.105229 0.507659 0.591090 0
M  V30 7 C 1.427795 1.133214 -0.463817 0
M  V30 8 C 1.976306 2.252255 -1.057115 0
M  V30 9 C 1.356998 2.910505 -2.099004 0
M  V30 10 C 1.922927 4.095200 -2.735989 0
M  V30 11 C 1.794663 4.507237 -4.060717 0
M  V30 12 N 2.485875 5.654793 -4.195060 0
M  V30 13 N 3.052881 6.017468 -3.056288 0
M  V30 14 C 2.718867 5.076277 -2.156198 0
M  V30 15 C 0.150530 2.411479 -2.541682 0
M  V30 16 C -0.365846 1.292977 -1.925143 0
M  V30 17 C 0.224841 0.614445 -0.886282 0
M  V30 18 N -0.268446 -0.535134 -0.229647 0
M  V30 19 C -1.444806 -1.246652 -0.498570 0
M  V30 20 O -2.222672 -0.906524 -1.413958 0
M  V30 21 N -2.052444 -2.376562 0.057083 0
M  V30 22 C -3.310849 -2.771904 -0.574385 0
M  V30 23 C -3.129096 -3.718737 -1.713767 0
M  V30 24 N -2.504191 -4.976867 -1.364983 0
M  V30 25 C -2.391338 -5.715161 -2.634378 0
M  V30 26 C -3.318248 -5.764839 -0.482894 0
M  V30 27 C -1.394984 -3.024213 1.190191 0
M  V30 28 C -1.865627 -2.509194 2.495306 0
M  V30 29 C -2.970038 -3.143699 3.079922 0
M  V30 30 C -3.539272 -2.787448 4.303408 0
M  V30 31 C -2.961905 -1.730131 4.977007 0
M  V30 32 C -1.866190 -1.066292 4.443103 0
M  V30 33 C -1.349449 -1.465554 3.229929 0
M  V30 34 H 2.960203 1.235698 5.087273 0
M  V30 35 H 3.834094 2.025212 3.780029 0
M  V30 36 H 1.990237 1.971210 3.796150 0
M  V30 37 H 2.956731 -1.900185 3.758257 0
M  V30 38 H 4.438861 -0.998751 4.261394 0
M  V30 39 H 2.957456 -0.786890 5.208481 0
M  V30 40 H 4.074730 -0.804781 1.796472 0
M  V30 41 H 4.903539 0.610542 2.479804 0
M  V30 42 H 3.297874 2.121070 1.264224 0
M  V30 43 H 4.042223 0.928824 0.173448 0
M  V30 44 H 2.916849 2.602123 -0.677968 0
M  V30 45 H 1.219618 3.935134 -4.774650 0
M  V30 46 H 3.646509 6.856721 -2.857244 0
M  V30 47 H 2.993177 5.021864 -1.109302 0
M  V30 48 H -0.360573 2.900588 -3.351837 0
M  V30 49 H -1.304849 0.954890 -2.315136 0
M  V30 50 H 0.242838 -0.961258 0.548887 0
M  V30 51 H -3.989644 -3.224437 0.189255 0
M  V30 52 H -3.818659 -1.871916 -0.960908 0
M  V30 53 H -4.149669 -3.908838 -2.130381 0
M  V30 54 H -2.586177 -3.193793 -2.524323 0
M  V30 55 H -3.444371 -6.042661 -2.863383 0
M  V30 56 H -2.080301 -5.066295 -3.471007 0
M  V30 57 H -1.812568 -6.642601 -2.529724 0
M  V30 58 H -2.796298 -6.077851 0.448770 0
M  V30 59 H -4.299371 -5.273060 -0.244668 0
M  V30 60 H -3.592641 -6.706148 -0.990087 0
M  V30 61 H -0.301543 -2.863808 1.059260 0
M  V30 62 H -1.631551 -4.100237 1.140416 0
M  V30 63 H -3.427904 -3.972008 2.557517 0
M  V30 64 H -4.382110 -3.326303 4.676462 0
M  V30 65 H -3.362843 -1.406895 5.936755 0
M  V30 66 H -1.421173 -0.242628 4.975571 0
M  V30 67 H -0.509646 -0.966198 2.809462 0
M  V30 END ATOM
M  V30 BEGIN BOND
M  V30 1 1 1 2
M  V30 2 1 2 3
M  V30 3 1 2 4
M  V30 4 1 4 5
M  V30 5 1 5 6
M  V30 6 1 6 7
M  V30 7 2 7 8
M  V30 8 1 8 9
M  V30 9 1 9 10
M  V30 10 1 10 11
M  V30 11 2 11 12
M  V30 12 1 12 13
M  V30 13 1 13 14
M  V30 14 2 9 15
M  V30 15 1 15 16
M  V30 16 2 16 17
M  V30 17 1 17 18
M  V30 18 1 18 19
M  V30 19 2 19 20
M  V30 20 1 19 21
M  V30 21 1 21 22
M  V30 22 1 22 23
M  V30 23 1 23 24
M  V30 24 1 24 25
M  V30 25 1 24 26
M  V30 26 1 21 27
M  V30 27 1 27 28
M  V30 28 2 28 29
M  V30 29 1 29 30
M  V30 30 2 30 31
M  V30 31 1 31 32
M  V30 32 2 32 33
M  V30 33 1 17 7
M  V30 34 1 33 28
M  V30 35 2 14 10
M  V30 36 1 1 34
M  V30 37 1 1 35
M  V30 38 1 1 36
M  V30 39 1 3 37
M  V30 40 1 3 38
M  V30 41 1 3 39
M  V30 42 1 4 40
M  V30 43 1 4 41
M  V30 44 1 5 42
M  V30 45 1 5 43
M  V30 46 1 8 44
M  V30 47 1 11 45
M  V30 48 1 13 46
M  V30 49 1 14 47
M  V30 50 1 15 48
M  V30 51 1 16 49
M  V30 52 1 18 50
M  V30 53 1 22 51
M  V30 54 1 22 52
M  V30 55 1 23 53
M  V30 56 1 23 54
M  V30 57 1 25 55
M  V30 58 1 25 56
M  V30 59 1 25 57
M  V30 60 1 26 58
M  V30 61 1 26 59
M  V30 62 1 26 60
M  V30 63 1 27 61
M  V30 64 1 27 62
M  V30 65 1 29 63
M  V30 66 1 30 64
M  V30 67 1 31 65
M  V30 68 1 32 66
M  V30 69 1 33 67
M  V30 END BOND
M  V30 END CTAB
M  END
>  <Dataset>  (694) 
ChEMBL_Kinases

>  <Ligand_Instance>  (694) 
nan

>  <PDB_ID>  (694) 
nan

>  <Standardized_SMILES>  (694) 
CN(C)CCOc1cc(-c2cn[nH]c2)ccc1NC(=O)N(CCN(C)C)Cc1ccccc1

>  <Name>  (694) 
nan

>  <Pocket>  (694) 
nan

>  <ATP_Site>  (694) 
nan

>  <Peripheral>  (694) 
nan

>  <Num_H_Atoms_ProtBoundConf>  (694) 
nan

>  <Num_Resolved_Atoms>  (694) 
nan

>  <Num_Not_Resolved_Atoms>  (694) 
nan

$$$$
CHEMBL3402470
     RDKit          3D

  0  0  0  0  0  0  0  0  0  0999 V3000
M  V30 BEGIN CTAB
M  V30 COUNTS 45 46 0 0 0
M  V30 BEGIN ATOM
M  V30 1 C -0.332480 -4.247463 3.140526 0
M  V30 2 N -0.437822 -3.079619 2.295736 0
M  V30 3 C -0.057871 -1.795351 2.732447 0
M  V30 4 O 0.342403 -2.042153 3.927049 0
M  V30 5 N -0.040662 -0.499331 2.172560 0
M  V30 6 C 0.716322 0.379560 3.029505 0
M  V30 7 C 2.161889 0.501963 2.754861 0
M  V30 8 C 2.978077 -0.746953 2.807423 0
M  V30 9 N 2.571892 -1.717745 1.831388 0
M  V30 10 C 2.850933 -1.316994 0.469201 0
M  V30 11 C 3.100948 -3.037267 2.099286 0
M  V30 12 C -0.571204 0.070129 1.007104 0
M  V30 13 C -0.249149 1.346372 0.620080 0
M  V30 14 C -0.759418 1.960054 -0.491553 0
M  V30 15 C -1.652469 1.293306 -1.297057 0
M  V30 16 C -2.203860 1.934426 -2.484536 0
M  V30 17 C -2.483589 3.272310 -2.716141 0
M  V30 18 N -2.978233 3.327142 -3.974189 0
M  V30 19 N -3.010932 2.101174 -4.509095 0
M  V30 20 C -2.542105 1.202194 -3.627521 0
M  V30 21 C -2.031449 -0.002820 -0.975883 0
M  V30 22 C -1.466178 -0.536100 0.160091 0
M  V30 23 H 0.627012 -4.203486 3.695756 0
M  V30 24 H -1.206217 -4.260899 3.817258 0
M  V30 25 H -0.253426 -5.169988 2.508914 0
M  V30 26 H -0.786141 -3.153573 1.323810 0
M  V30 27 H 0.231870 1.384802 3.001837 0
M  V30 28 H 0.612245 0.078326 4.107590 0
M  V30 29 H 2.444283 1.040330 1.823568 0
M  V30 30 H 2.576003 1.182566 3.567040 0
M  V30 31 H 2.964456 -1.228983 3.809932 0
M  V30 32 H 4.055572 -0.542890 2.606487 0
M  V30 33 H 3.788906 -1.792216 0.082994 0
M  V30 34 H 2.913163 -0.237623 0.310278 0
M  V30 35 H 1.982769 -1.670522 -0.134758 0
M  V30 36 H 3.299030 -3.206084 3.173061 0
M  V30 37 H 4.043439 -3.161574 1.526382 0
M  V30 38 H 2.381433 -3.785199 1.702661 0
M  V30 39 H 0.429422 1.978962 1.150755 0
M  V30 40 H -0.508589 2.958538 -0.795842 0
M  V30 41 H -2.299798 4.010457 -1.969902 0
M  V30 42 H -3.361187 1.921278 -5.481117 0
M  V30 43 H -2.444981 0.123875 -3.772422 0
M  V30 44 H -2.727999 -0.485361 -1.628382 0
M  V30 45 H -1.837471 -1.520575 0.322962 0
M  V30 END ATOM
M  V30 BEGIN BOND
M  V30 1 1 1 2
M  V30 2 1 2 3
M  V30 3 2 3 4
M  V30 4 1 3 5
M  V30 5 1 5 6
M  V30 6 1 6 7
M  V30 7 1 7 8
M  V30 8 1 8 9
M  V30 9 1 9 10
M  V30 10 1 9 11
M  V30 11 1 5 12
M  V30 12 2 12 13
M  V30 13 1 13 14
M  V30 14 2 14 15
M  V30 15 1 15 16
M  V30 16 1 16 17
M  V30 17 2 17 18
M  V30 18 1 18 19
M  V30 19 1 19 20
M  V30 20 1 15 21
M  V30 21 2 21 22
M  V30 22 1 22 12
M  V30 23 2 20 16
M  V30 24 1 1 23
M  V30 25 1 1 24
M  V30 26 1 1 25
M  V30 27 1 2 26
M  V30 28 1 6 27
M  V30 29 1 6 28
M  V30 30 1 7 29
M  V30 31 1 7 30
M  V30 32 1 8 31
M  V30 33 1 8 32
M  V30 34 1 10 33
M  V30 35 1 10 34
M  V30 36 1 10 35
M  V30 37 1 11 36
M  V30 38 1 11 37
M  V30 39 1 11 38
M  V30 40 1 13 39
M  V30 41 1 14 40
M  V30 42 1 17 41
M  V30 43 1 19 42
M  V30 44 1 20 43
M  V30 45 1 21 44
M  V30 46 1 22 45
M  V30 END BOND
M  V30 END CTAB
M  END
>  <Dataset>  (695) 
ChEMBL_Kinases

>  <Ligand_Instance>  (695) 
nan

>  <PDB_ID>  (695) 
nan

>  <Standardized_SMILES>  (695) 
CNC(=O)N(CCCN(C)C)c1ccc(-c2cn[nH]c2)cc1

>  <Name>  (695) 
nan

>  <Pocket>  (695) 
nan

>  <ATP_Site>  (695) 
nan

>  <Peripheral>  (695) 
nan

>  <Num_H_Atoms_ProtBoundConf>  (695) 
nan

>  <Num_Resolved_Atoms>  (695) 
nan

>  <Num_Not_Resolved_Atoms>  (695) 
nan

$$$$
CHEMBL3402469
     RDKit          3D

  0  0  0  0  0  0  0  0  0  0999 V3000
M  V30 BEGIN CTAB
M  V30 COUNTS 42 43 0 0 0
M  V30 BEGIN ATOM
M  V30 1 C 1.830532 -5.338072 2.373058 0
M  V30 2 N 1.516388 -3.955459 2.254405 0
M  V30 3 C 1.472056 -3.219686 1.055385 0
M  V30 4 O 1.771307 -4.120479 0.193110 0
M  V30 5 N 1.201291 -1.890749 0.678783 0
M  V30 6 C 1.225356 -1.788188 -0.782859 0
M  V30 7 C -0.121544 -2.051877 -1.396186 0
M  V30 8 N -0.059141 -1.927365 -2.838182 0
M  V30 9 C -1.366497 -2.186471 -3.395533 0
M  V30 10 C 0.327162 -0.586571 -3.244815 0
M  V30 11 C 0.936726 -0.680712 1.368589 0
M  V30 12 C 0.506346 0.441254 0.699894 0
M  V30 13 C 0.259963 1.642714 1.307649 0
M  V30 14 C 0.447670 1.755295 2.666552 0
M  V30 15 C 0.186295 3.030971 3.324265 0
M  V30 16 C 0.727663 3.655106 4.420102 0
M  V30 17 N 0.107799 4.826311 4.585723 0
M  V30 18 N -0.819887 5.007166 3.649511 0
M  V30 19 C -0.788791 3.923757 2.869462 0
M  V30 20 C 0.877197 0.686176 3.422267 0
M  V30 21 C 1.096940 -0.475135 2.718855 0
M  V30 22 H 2.538333 -5.560568 3.203403 0
M  V30 23 H 0.881725 -5.872921 2.671312 0
M  V30 24 H 2.173774 -5.848938 1.472132 0
M  V30 25 H 1.286098 -3.422460 3.105290 0
M  V30 26 H 1.996313 -2.488107 -1.186492 0
M  V30 27 H 1.579196 -0.792079 -1.081964 0
M  V30 28 H -0.895470 -1.426438 -0.943821 0
M  V30 29 H -0.438934 -3.114439 -1.203843 0
M  V30 30 H -2.162432 -2.343267 -2.667872 0
M  V30 31 H -1.305458 -3.087258 -4.069023 0
M  V30 32 H -1.710450 -1.357167 -4.067448 0
M  V30 33 H 0.039899 -0.480829 -4.314124 0
M  V30 34 H -0.292583 0.135815 -2.677157 0
M  V30 35 H 1.416863 -0.400156 -3.179088 0
M  V30 36 H 0.323129 0.469020 -0.356204 0
M  V30 37 H -0.074853 2.512838 0.782892 0
M  V30 38 H 1.522597 3.179854 4.981099 0
M  V30 39 H -1.317775 5.911385 3.755190 0
M  V30 40 H -1.484503 3.892292 2.041563 0
M  V30 41 H 1.011552 0.809687 4.471153 0
M  V30 42 H 1.443037 -1.256797 3.364681 0
M  V30 END ATOM
M  V30 BEGIN BOND
M  V30 1 1 1 2
M  V30 2 1 2 3
M  V30 3 2 3 4
M  V30 4 1 3 5
M  V30 5 1 5 6
M  V30 6 1 6 7
M  V30 7 1 7 8
M  V30 8 1 8 9
M  V30 9 1 8 10
M  V30 10 1 5 11
M  V30 11 2 11 12
M  V30 12 1 12 13
M  V30 13 2 13 14
M  V30 14 1 14 15
M  V30 15 1 15 16
M  V30 16 2 16 17
M  V30 17 1 17 18
M  V30 18 1 18 19
M  V30 19 1 14 20
M  V30 20 2 20 21
M  V30 21 1 21 11
M  V30 22 2 19 15
M  V30 23 1 1 22
M  V30 24 1 1 23
M  V30 25 1 1 24
M  V30 26 1 2 25
M  V30 27 1 6 26
M  V30 28 1 6 27
M  V30 29 1 7 28
M  V30 30 1 7 29
M  V30 31 1 9 30
M  V30 32 1 9 31
M  V30 33 1 9 32
M  V30 34 1 10 33
M  V30 35 1 10 34
M  V30 36 1 10 35
M  V30 37 1 12 36
M  V30 38 1 13 37
M  V30 39 1 16 38
M  V30 40 1 18 39
M  V30 41 1 19 40
M  V30 42 1 20 41
M  V30 43 1 21 42
M  V30 END BOND
M  V30 END CTAB
M  END
>  <Dataset>  (696) 
ChEMBL_Kinases

>  <Ligand_Instance>  (696) 
nan

>  <PDB_ID>  (696) 
nan

>  <Standardized_SMILES>  (696) 
CNC(=O)N(CCN(C)C)c1ccc(-c2cn[nH]c2)cc1

>  <Name>  (696) 
nan

>  <Pocket>  (696) 
nan

>  <ATP_Site>  (696) 
nan

>  <Peripheral>  (696) 
nan

>  <Num_H_Atoms_ProtBoundConf>  (696) 
nan

>  <Num_Resolved_Atoms>  (696) 
nan

>  <Num_Not_Resolved_Atoms>  (696) 
nan

$$$$
CHEMBL3402468
     RDKit          3D

  0  0  0  0  0  0  0  0  0  0999 V3000
M  V30 BEGIN CTAB
M  V30 COUNTS 35 36 0 0 0
M  V30 BEGIN ATOM
M  V30 1 C -1.200937 -1.724938 4.469454 0
M  V30 2 N -0.519227 -1.527617 3.206505 0
M  V30 3 C 0.415325 -2.400079 2.603909 0
M  V30 4 O 0.703925 -3.476115 3.214481 0
M  V30 5 N 1.023335 -2.094162 1.349104 0
M  V30 6 C 1.967121 -2.980309 0.749658 0
M  V30 7 C 1.304316 -4.001455 -0.161664 0
M  V30 8 O 0.395383 -4.787573 0.537624 0
M  V30 9 C 0.652230 -0.855601 0.704147 0
M  V30 10 C -0.431094 -0.860647 -0.174358 0
M  V30 11 C -0.819789 0.320087 -0.817681 0
M  V30 12 C -0.134330 1.507686 -0.590442 0
M  V30 13 C -0.503297 2.762956 -1.238481 0
M  V30 14 C -0.327822 4.003704 -0.656528 0
M  V30 15 N -0.769721 4.957541 -1.514593 0
M  V30 16 N -1.207854 4.346252 -2.597298 0
M  V30 17 C -1.069506 2.995990 -2.485266 0
M  V30 18 C 0.933018 1.468929 0.287263 0
M  V30 19 C 1.348332 0.324922 0.942022 0
M  V30 20 H -2.298675 -1.569923 4.339482 0
M  V30 21 H -0.890930 -0.948133 5.201132 0
M  V30 22 H -0.995458 -2.737137 4.863116 0
M  V30 23 H -0.790830 -0.632118 2.747139 0
M  V30 24 H 2.740757 -2.418842 0.220043 0
M  V30 25 H 2.498144 -3.580391 1.544553 0
M  V30 26 H 0.738323 -3.451505 -0.936642 0
M  V30 27 H 2.072655 -4.590556 -0.686827 0
M  V30 28 H 0.908474 -5.510601 0.984360 0
M  V30 29 H -1.008610 -1.745431 -0.398002 0
M  V30 30 H -1.666183 0.309418 -1.502040 0
M  V30 31 H 0.074292 4.310393 0.299290 0
M  V30 32 H -1.600729 4.842058 -3.412578 0
M  V30 33 H -1.329130 2.213642 -3.189042 0
M  V30 34 H 1.499029 2.361341 0.499362 0
M  V30 35 H 2.183624 0.296759 1.628090 0
M  V30 END ATOM
M  V30 BEGIN BOND
M  V30 1 1 1 2
M  V30 2 1 2 3
M  V30 3 2 3 4
M  V30 4 1 3 5
M  V30 5 1 5 6
M  V30 6 1 6 7
M  V30 7 1 7 8
M  V30 8 1 5 9
M  V30 9 2 9 10
M  V30 10 1 10 11
M  V30 11 2 11 12
M  V30 12 1 12 13
M  V30 13 1 13 14
M  V30 14 2 14 15
M  V30 15 1 15 16
M  V30 16 1 16 17
M  V30 17 1 12 18
M  V30 18 2 18 19
M  V30 19 1 19 9
M  V30 20 2 17 13
M  V30 21 1 1 20
M  V30 22 1 1 21
M  V30 23 1 1 22
M  V30 24 1 2 23
M  V30 25 1 6 24
M  V30 26 1 6 25
M  V30 27 1 7 26
M  V30 28 1 7 27
M  V30 29 1 8 28
M  V30 30 1 10 29
M  V30 31 1 11 30
M  V30 32 1 14 31
M  V30 33 1 16 32
M  V30 34 1 17 33
M  V30 35 1 18 34
M  V30 36 1 19 35
M  V30 END BOND
M  V30 END CTAB
M  END
>  <Dataset>  (697) 
ChEMBL_Kinases

>  <Ligand_Instance>  (697) 
nan

>  <PDB_ID>  (697) 
nan

>  <Standardized_SMILES>  (697) 
CNC(=O)N(CCO)c1ccc(-c2cn[nH]c2)cc1

>  <Name>  (697) 
nan

>  <Pocket>  (697) 
nan

>  <ATP_Site>  (697) 
nan

>  <Peripheral>  (697) 
nan

>  <Num_H_Atoms_ProtBoundConf>  (697) 
nan

>  <Num_Resolved_Atoms>  (697) 
nan

>  <Num_Not_Resolved_Atoms>  (697) 
nan

$$$$
CHEMBL3402467
     RDKit          3D

  0  0  0  0  0  0  0  0  0  0999 V3000
M  V30 BEGIN CTAB
M  V30 COUNTS 31 32 0 0 0
M  V30 BEGIN ATOM
M  V30 1 C -2.432069 -3.583327 3.528459 0
M  V30 2 N -1.643690 -2.829262 2.571402 0
M  V30 3 C -0.826004 -3.585187 1.656716 0
M  V30 4 O -0.926004 -4.829097 1.836313 0
M  V30 5 N -0.008352 -2.949672 0.671485 0
M  V30 6 C 0.749094 -3.872169 -0.166159 0
M  V30 7 C 0.216137 -1.572638 0.340341 0
M  V30 8 C -0.494672 -0.818242 -0.571394 0
M  V30 9 C -0.135581 0.502366 -0.763344 0
M  V30 10 C 0.918366 1.033178 -0.043918 0
M  V30 11 C 1.312799 2.432002 -0.235062 0
M  V30 12 C 2.528551 3.089508 -0.147262 0
M  V30 13 N 2.314458 4.399893 -0.427319 0
M  V30 14 N 1.031266 4.593928 -0.684706 0
M  V30 15 C 0.402059 3.413562 -0.574280 0
M  V30 16 C 1.648762 0.290937 0.880327 0
M  V30 17 C 1.272034 -1.044973 1.062678 0
M  V30 18 H -3.452782 -3.799833 3.207320 0
M  V30 19 H -1.950010 -4.548866 3.774921 0
M  V30 20 H -2.486325 -3.025442 4.483938 0
M  V30 21 H -1.643827 -1.789288 2.518680 0
M  V30 22 H 1.123757 -4.741862 0.450565 0
M  V30 23 H 0.084538 -4.347762 -0.915839 0
M  V30 24 H 1.635149 -3.439398 -0.627521 0
M  V30 25 H -1.296735 -1.336320 -1.075233 0
M  V30 26 H -0.701330 1.078944 -1.479939 0
M  V30 27 H 3.425565 2.553135 0.107141 0
M  V30 28 H 0.817389 5.593530 -0.907040 0
M  V30 29 H -0.663221 3.416812 -0.758650 0
M  V30 30 H 2.461738 0.756257 1.413813 0
M  V30 31 H 1.873574 -1.565026 1.789030 0
M  V30 END ATOM
M  V30 BEGIN BOND
M  V30 1 1 1 2
M  V30 2 1 2 3
M  V30 3 2 3 4
M  V30 4 1 3 5
M  V30 5 1 5 6
M  V30 6 1 5 7
M  V30 7 2 7 8
M  V30 8 1 8 9
M  V30 9 2 9 10
M  V30 10 1 10 11
M  V30 11 1 11 12
M  V30 12 2 12 13
M  V30 13 1 13 14
M  V30 14 1 14 15
M  V30 15 1 10 16
M  V30 16 2 16 17
M  V30 17 1 17 7
M  V30 18 2 15 11
M  V30 19 1 1 18
M  V30 20 1 1 19
M  V30 21 1 1 20
M  V30 22 1 2 21
M  V30 23 1 6 22
M  V30 24 1 6 23
M  V30 25 1 6 24
M  V30 26 1 8 25
M  V30 27 1 9 26
M  V30 28 1 12 27
M  V30 29 1 14 28
M  V30 30 1 15 29
M  V30 31 1 16 30
M  V30 32 1 17 31
M  V30 END BOND
M  V30 END CTAB
M  END
>  <Dataset>  (698) 
ChEMBL_Kinases

>  <Ligand_Instance>  (698) 
nan

>  <PDB_ID>  (698) 
nan

>  <Standardized_SMILES>  (698) 
CNC(=O)N(C)c1ccc(-c2cn[nH]c2)cc1

>  <Name>  (698) 
nan

>  <Pocket>  (698) 
nan

>  <ATP_Site>  (698) 
nan

>  <Peripheral>  (698) 
nan

>  <Num_H_Atoms_ProtBoundConf>  (698) 
nan

>  <Num_Resolved_Atoms>  (698) 
nan

>  <Num_Not_Resolved_Atoms>  (698) 
nan

$$$$
CHEMBL3402466
     RDKit          3D

  0  0  0  0  0  0  0  0  0  0999 V3000
M  V30 BEGIN CTAB
M  V30 COUNTS 42 44 0 0 0
M  V30 BEGIN ATOM
M  V30 1 C 0.878815 -7.305131 -0.904284 0
M  V30 2 O 1.165449 -6.160847 -1.669208 0
M  V30 3 C 0.421585 -5.013259 -1.440928 0
M  V30 4 C -0.555504 -5.080132 -0.470354 0
M  V30 5 C -1.308055 -3.922177 -0.238547 0
M  V30 6 C -1.080541 -2.759403 -0.953589 0
M  V30 7 C -0.088310 -2.707167 -1.932551 0
M  V30 8 C 0.195181 -1.493201 -2.720079 0
M  V30 9 N 1.192628 -0.644703 -2.111778 0
M  V30 10 C 0.995096 0.208744 -1.015690 0
M  V30 11 O -0.106074 0.326618 -0.438031 0
M  V30 12 N 2.011030 1.026102 -0.443013 0
M  V30 13 C 1.498103 1.776987 0.660562 0
M  V30 14 C 0.926390 3.030298 0.683509 0
M  V30 15 C 0.495609 3.566140 1.878536 0
M  V30 16 C 0.638900 2.845291 3.043334 0
M  V30 17 C 0.180474 3.418690 4.325649 0
M  V30 18 C -0.297153 2.615748 5.354278 0
M  V30 19 N -0.632052 3.441157 6.387275 0
M  V30 20 N -0.376846 4.686420 6.021156 0
M  V30 21 C 0.121020 4.728577 4.770591 0
M  V30 22 C 1.213252 1.577870 3.043475 0
M  V30 23 C 1.648131 1.040745 1.827312 0
M  V30 24 C 0.670600 -3.852093 -2.175958 0
M  V30 25 H 1.630603 -8.107291 -1.037123 0
M  V30 26 H 0.905404 -7.083097 0.198386 0
M  V30 27 H -0.112368 -7.701166 -1.143809 0
M  V30 28 H -0.795938 -5.934960 0.125505 0
M  V30 29 H -2.081303 -3.942401 0.515558 0
M  V30 30 H -1.680380 -1.895728 -0.746358 0
M  V30 31 H -0.757155 -0.918533 -2.750903 0
M  V30 32 H 0.483143 -1.784009 -3.732412 0
M  V30 33 H 2.168238 -0.665016 -2.529429 0
M  V30 34 H 2.982048 0.990258 -0.872451 0
M  V30 35 H 0.873384 3.483829 -0.295609 0
M  V30 36 H 0.056258 4.549718 1.840511 0
M  V30 37 H -0.383562 1.527037 5.328770 0
M  V30 38 H -0.509909 5.572547 6.557103 0
M  V30 39 H 0.458231 5.482653 4.086034 0
M  V30 40 H 1.291104 1.079413 3.984203 0
M  V30 41 H 2.075920 0.053663 1.953128 0
M  V30 42 H 1.453445 -3.850736 -2.931057 0
M  V30 END ATOM
M  V30 BEGIN BOND
M  V30 1 1 1 2
M  V30 2 1 2 3
M  V30 3 2 3 4
M  V30 4 1 4 5
M  V30 5 2 5 6
M  V30 6 1 6 7
M  V30 7 1 7 8
M  V30 8 1 8 9
M  V30 9 1 9 10
M  V30 10 2 10 11
M  V30 11 1 10 12
M  V30 12 1 12 13
M  V30 13 2 13 14
M  V30 14 1 14 15
M  V30 15 2 15 16
M  V30 16 1 16 17
M  V30 17 1 17 18
M  V30 18 2 18 19
M  V30 19 1 19 20
M  V30 20 1 20 21
M  V30 21 1 16 22
M  V30 22 2 22 23
M  V30 23 2 7 24
M  V30 24 1 24 3
M  V30 25 1 23 13
M  V30 26 2 21 17
M  V30 27 1 1 25
M  V30 28 1 1 26
M  V30 29 1 1 27
M  V30 30 1 4 28
M  V30 31 1 5 29
M  V30 32 1 6 30
M  V30 33 1 8 31
M  V30 34 1 8 32
M  V30 35 1 9 33
M  V30 36 1 12 34
M  V30 37 1 14 35
M  V30 38 1 15 36
M  V30 39 1 18 37
M  V30 40 1 20 38
M  V30 41 1 21 39
M  V30 42 1 22 40
M  V30 43 1 23 41
M  V30 44 1 24 42
M  V30 END BOND
M  V30 END CTAB
M  END
>  <Dataset>  (699) 
ChEMBL_Kinases

>  <Ligand_Instance>  (699) 
nan

>  <PDB_ID>  (699) 
nan

>  <Standardized_SMILES>  (699) 
COc1cccc(CNC(=O)Nc2ccc(-c3cn[nH]c3)cc2)c1

>  <Name>  (699) 
nan

>  <Pocket>  (699) 
nan

>  <ATP_Site>  (699) 
nan

>  <Peripheral>  (699) 
nan

>  <Num_H_Atoms_ProtBoundConf>  (699) 
nan

>  <Num_Resolved_Atoms>  (699) 
nan

>  <Num_Not_Resolved_Atoms>  (699) 
nan

$$$$
CHEMBL3402465
     RDKit          3D

  0  0  0  0  0  0  0  0  0  0999 V3000
M  V30 BEGIN CTAB
M  V30 COUNTS 38 40 0 0 0
M  V30 BEGIN ATOM
M  V30 1 O 0.208724 -1.591214 1.791307 0
M  V30 2 C -0.922563 -1.833885 1.322978 0
M  V30 3 N -1.377388 -3.162090 1.105019 0
M  V30 4 C -0.629300 -4.386915 1.379432 0
M  V30 5 C 0.415983 -4.664225 0.360805 0
M  V30 6 C 0.143350 -5.402011 -0.774670 0
M  V30 7 C 1.104108 -5.678208 -1.743864 0
M  V30 8 C 2.394176 -5.191204 -1.562275 0
M  V30 9 C 2.670465 -4.446168 -0.415710 0
M  V30 10 C 1.694585 -4.188371 0.529163 0
M  V30 11 N -1.785483 -0.744882 0.996131 0
M  V30 12 C -1.250975 0.552667 1.243887 0
M  V30 13 C -0.576073 1.029883 0.109917 0
M  V30 14 C 0.027374 2.291383 0.135338 0
M  V30 15 C -0.057270 3.044249 1.289614 0
M  V30 16 C 0.524280 4.373669 1.450329 0
M  V30 17 C 1.054199 5.095626 2.499324 0
M  V30 18 N 1.439811 6.295600 2.027042 0
M  V30 19 N 1.174526 6.351976 0.737044 0
M  V30 20 C 0.607334 5.185655 0.334964 0
M  V30 21 C -0.723638 2.566864 2.401733 0
M  V30 22 C -1.322308 1.322606 2.385154 0
M  V30 23 H -2.350788 -3.302748 0.704575 0
M  V30 24 H -0.151992 -4.197682 2.378458 0
M  V30 25 H -1.312058 -5.237093 1.556736 0
M  V30 26 H -0.851474 -5.792293 -0.940444 0
M  V30 27 H 0.910847 -6.254087 -2.640686 0
M  V30 28 H 3.208272 -5.360278 -2.270453 0
M  V30 29 H 3.680426 -4.074811 -0.290840 0
M  V30 30 H 2.012217 -3.609792 1.368130 0
M  V30 31 H -2.744600 -0.945469 0.599529 0
M  V30 32 H -0.458515 0.515190 -0.833021 0
M  V30 33 H 0.555327 2.708995 -0.696638 0
M  V30 34 H 1.069361 4.597465 3.479383 0
M  V30 35 H 1.450535 7.272518 0.286821 0
M  V30 36 H 0.359404 5.155117 -0.718190 0
M  V30 37 H -0.843724 3.083061 3.353423 0
M  V30 38 H -1.872433 0.799772 3.142733 0
M  V30 END ATOM
M  V30 BEGIN BOND
M  V30 1 2 1 2
M  V30 2 1 2 3
M  V30 3 1 3 4
M  V30 4 1 4 5
M  V30 5 2 5 6
M  V30 6 1 6 7
M  V30 7 2 7 8
M  V30 8 1 8 9
M  V30 9 2 9 10
M  V30 10 1 2 11
M  V30 11 1 11 12
M  V30 12 2 12 13
M  V30 13 1 13 14
M  V30 14 2 14 15
M  V30 15 1 15 16
M  V30 16 1 16 17
M  V30 17 2 17 18
M  V30 18 1 18 19
M  V30 19 1 19 20
M  V30 20 1 15 21
M  V30 21 2 21 22
M  V30 22 1 10 5
M  V30 23 1 22 12
M  V30 24 2 20 16
M  V30 25 1 3 23
M  V30 26 1 4 24
M  V30 27 1 4 25
M  V30 28 1 6 26
M  V30 29 1 7 27
M  V30 30 1 8 28
M  V30 31 1 9 29
M  V30 32 1 10 30
M  V30 33 1 11 31
M  V30 34 1 13 32
M  V30 35 1 14 33
M  V30 36 1 17 34
M  V30 37 1 19 35
M  V30 38 1 20 36
M  V30 39 1 21 37
M  V30 40 1 22 38
M  V30 END BOND
M  V30 END CTAB
M  END
>  <Dataset>  (700) 
ChEMBL_Kinases

>  <Ligand_Instance>  (700) 
nan

>  <PDB_ID>  (700) 
nan

>  <Standardized_SMILES>  (700) 
O=C(NCc1ccccc1)Nc1ccc(-c2cn[nH]c2)cc1

>  <Name>  (700) 
nan

>  <Pocket>  (700) 
nan

>  <ATP_Site>  (700) 
nan

>  <Peripheral>  (700) 
nan

>  <Num_H_Atoms_ProtBoundConf>  (700) 
nan

>  <Num_Resolved_Atoms>  (700) 
nan

>  <Num_Not_Resolved_Atoms>  (700) 
nan

$$$$
CHEMBL3402464
     RDKit          3D

  0  0  0  0  0  0  0  0  0  0999 V3000
M  V30 BEGIN CTAB
M  V30 COUNTS 67 69 0 0 0
M  V30 BEGIN ATOM
M  V30 1 C 2.917012 -1.038625 3.165465 0
M  V30 2 C 2.273337 0.088003 2.407025 0
M  V30 3 N 2.652608 0.040548 0.988147 0
M  V30 4 C 3.832475 0.759889 0.518627 0
M  V30 5 C 3.542187 2.148698 0.110298 0
M  V30 6 C 3.197633 2.468890 -1.183372 0
M  V30 7 C 2.916716 3.762162 -1.607876 0
M  V30 8 C 2.987823 4.789104 -0.670580 0
M  V30 9 C 3.334701 4.481871 0.638518 0
M  V30 10 O 3.377385 5.586762 1.499868 0
M  V30 11 C 3.727079 5.348000 2.865252 0
M  V30 12 C 3.609876 3.193899 1.039699 0
M  V30 13 C 1.874353 -0.705196 0.045566 0
M  V30 14 O 2.208885 -0.731993 -1.163579 0
M  V30 15 N 0.720531 -1.426524 0.433966 0
M  V30 16 C -0.163021 -2.210786 -0.340466 0
M  V30 17 C -0.096764 -2.409203 -1.700038 0
M  V30 18 C -0.980958 -3.185577 -2.417100 0
M  V30 19 C -2.014580 -3.820536 -1.754314 0
M  V30 20 C -2.931893 -4.630430 -2.569506 0
M  V30 21 C -4.283615 -4.873800 -2.360221 0
M  V30 22 N -4.730127 -5.674177 -3.371844 0
M  V30 23 N -3.695730 -5.907643 -4.162213 0
M  V30 24 C -2.573344 -5.309573 -3.741175 0
M  V30 25 C -2.105345 -3.639227 -0.386045 0
M  V30 26 C -1.198868 -2.853996 0.291020 0
M  V30 27 N -1.469212 -2.809498 1.714643 0
M  V30 28 C -0.354737 -3.381836 2.475725 0
M  V30 29 C -2.465071 -2.418519 2.663264 0
M  V30 30 C -3.707410 -1.780869 2.162401 0
M  V30 31 N -3.694038 -0.560666 1.513931 0
M  V30 32 C -4.971960 -0.038890 1.084522 0
M  V30 33 C -2.662725 -0.100175 0.690651 0
M  V30 34 H 3.112618 -1.899140 2.489252 0
M  V30 35 H 3.908105 -0.768575 3.607040 0
M  V30 36 H 2.290466 -1.389951 4.014285 0
M  V30 37 H 2.760612 1.024736 2.805957 0
M  V30 38 H 1.206673 0.225121 2.569905 0
M  V30 39 H 4.585386 0.862050 1.355580 0
M  V30 40 H 4.319762 0.172810 -0.261368 0
M  V30 41 H 3.120452 1.728066 -1.966986 0
M  V30 42 H 2.645069 4.021220 -2.624953 0
M  V30 43 H 2.771455 5.817642 -0.975972 0
M  V30 44 H 3.549306 6.269182 3.438829 0
M  V30 45 H 3.091011 4.536189 3.273897 0
M  V30 46 H 4.787003 5.068875 2.885562 0
M  V30 47 H 3.871051 3.024467 2.070006 0
M  V30 48 H 0.533434 -1.326710 1.452465 0
M  V30 49 H 0.668577 -1.952932 -2.271409 0
M  V30 50 H -0.880047 -3.308471 -3.497119 0
M  V30 51 H -4.757131 -4.435227 -1.498264 0
M  V30 52 H -3.715551 -6.497175 -5.038751 0
M  V30 53 H -1.598673 -5.306948 -4.153835 0
M  V30 54 H -2.917366 -4.152865 0.066450 0
M  V30 55 H 0.493146 -3.680952 1.845373 0
M  V30 56 H -0.692184 -4.315102 3.001264 0
M  V30 57 H -0.027809 -2.694304 3.271036 0
M  V30 58 H -1.956116 -1.792290 3.452570 0
M  V30 59 H -2.742031 -3.372046 3.219432 0
M  V30 60 H -4.236347 -2.561829 1.536767 0
M  V30 61 H -4.407926 -1.679489 3.066342 0
M  V30 62 H -4.786643 1.014768 0.737476 0
M  V30 63 H -5.280466 -0.605744 0.196735 0
M  V30 64 H -5.699863 -0.046577 1.915881 0
M  V30 65 H -2.661812 -0.512774 -0.348113 0
M  V30 66 H -2.785110 1.027688 0.499605 0
M  V30 67 H -1.631489 -0.154018 1.089583 0
M  V30 END ATOM
M  V30 BEGIN BOND
M  V30 1 1 1 2
M  V30 2 1 2 3
M  V30 3 1 3 4
M  V30 4 1 4 5
M  V30 5 2 5 6
M  V30 6 1 6 7
M  V30 7 2 7 8
M  V30 8 1 8 9
M  V30 9 1 9 10
M  V30 10 1 10 11
M  V30 11 2 9 12
M  V30 12 1 3 13
M  V30 13 2 13 14
M  V30 14 1 13 15
M  V30 15 1 15 16
M  V30 16 2 16 17
M  V30 17 1 17 18
M  V30 18 2 18 19
M  V30 19 1 19 20
M  V30 20 1 20 21
M  V30 21 2 21 22
M  V30 22 1 22 23
M  V30 23 1 23 24
M  V30 24 1 19 25
M  V30 25 2 25 26
M  V30 26 1 26 27
M  V30 27 1 27 28
M  V30 28 1 27 29
M  V30 29 1 29 30
M  V30 30 1 30 31
M  V30 31 1 31 32
M  V30 32 1 31 33
M  V30 33 1 12 5
M  V30 34 1 26 16
M  V30 35 2 24 20
M  V30 36 1 1 34
M  V30 37 1 1 35
M  V30 38 1 1 36
M  V30 39 1 2 37
M  V30 40 1 2 38
M  V30 41 1 4 39
M  V30 42 1 4 40
M  V30 43 1 6 41
M  V30 44 1 7 42
M  V30 45 1 8 43
M  V30 46 1 11 44
M  V30 47 1 11 45
M  V30 48 1 11 46
M  V30 49 1 12 47
M  V30 50 1 15 48
M  V30 51 1 17 49
M  V30 52 1 18 50
M  V30 53 1 21 51
M  V30 54 1 23 52
M  V30 55 1 24 53
M  V30 56 1 25 54
M  V30 57 1 28 55
M  V30 58 1 28 56
M  V30 59 1 28 57
M  V30 60 1 29 58
M  V30 61 1 29 59
M  V30 62 1 30 60
M  V30 63 1 30 61
M  V30 64 1 32 62
M  V30 65 1 32 63
M  V30 66 1 32 64
M  V30 67 1 33 65
M  V30 68 1 33 66
M  V30 69 1 33 67
M  V30 END BOND
M  V30 END CTAB
M  END
>  <Dataset>  (701) 
ChEMBL_Kinases

>  <Ligand_Instance>  (701) 
nan

>  <PDB_ID>  (701) 
nan

>  <Standardized_SMILES>  (701) 
CCN(Cc1cccc(OC)c1)C(=O)Nc1ccc(-c2cn[nH]c2)cc1N(C)CCN(C)C

>  <Name>  (701) 
nan

>  <Pocket>  (701) 
nan

>  <ATP_Site>  (701) 
nan

>  <Peripheral>  (701) 
nan

>  <Num_H_Atoms_ProtBoundConf>  (701) 
nan

>  <Num_Resolved_Atoms>  (701) 
nan

>  <Num_Not_Resolved_Atoms>  (701) 
nan

$$$$
CHEMBL3402462
     RDKit          3D

  0  0  0  0  0  0  0  0  0  0999 V3000
M  V30 BEGIN CTAB
M  V30 COUNTS 63 65 0 0 0
M  V30 BEGIN ATOM
M  V30 1 C 2.600618 -1.174858 3.581017 0
M  V30 2 C 1.701816 -0.094030 4.137813 0
M  V30 3 N 1.262489 0.775600 3.056480 0
M  V30 4 C 2.091666 1.933771 2.770697 0
M  V30 5 C 3.093279 1.593020 1.756463 0
M  V30 6 C 4.352308 1.075311 1.962952 0
M  V30 7 C 5.195714 0.803859 0.929777 0
M  V30 8 C 4.830654 1.034581 -0.382565 0
M  V30 9 C 3.574187 1.557019 -0.675462 0
M  V30 10 O 3.143152 1.812849 -1.959089 0
M  V30 11 C 1.903104 2.335255 -2.326813 0
M  V30 12 C 2.767328 1.810073 0.414148 0
M  V30 13 C 0.087419 0.561459 2.284203 0
M  V30 14 O -0.454375 1.158704 1.345583 0
M  V30 15 N -0.675576 -0.587128 2.628322 0
M  V30 16 C -1.895809 -1.020085 1.999759 0
M  V30 17 C -3.019734 -0.440144 2.601403 0
M  V30 18 C -4.266101 -0.762917 2.105990 0
M  V30 19 C -4.433061 -1.630801 1.046904 0
M  V30 20 C -5.713982 -2.019612 0.465934 0
M  V30 21 C -6.899733 -1.317209 0.338472 0
M  V30 22 N -7.821713 -2.112862 -0.279744 0
M  V30 23 N -7.256616 -3.279473 -0.540804 0
M  V30 24 C -5.985165 -3.265923 -0.107498 0
M  V30 25 C -3.300124 -2.178005 0.485712 0
M  V30 26 C -2.021675 -1.907524 0.921090 0
M  V30 27 O -0.792781 -2.318913 0.533739 0
M  V30 28 C -0.391918 -3.177489 -0.469757 0
M  V30 29 C -0.738650 -2.802549 -1.868347 0
M  V30 30 N -0.168792 -1.528763 -2.269828 0
M  V30 31 C 1.280905 -1.693554 -2.353773 0
M  V30 32 C -0.644778 -1.246761 -3.610342 0
M  V30 33 H 2.250332 -2.194167 3.899317 0
M  V30 34 H 3.657005 -1.089092 3.907651 0
M  V30 35 H 2.594591 -1.169751 2.474283 0
M  V30 36 H 0.871826 -0.582866 4.666014 0
M  V30 37 H 2.261496 0.536361 4.889193 0
M  V30 38 H 1.416936 2.725547 2.374615 0
M  V30 39 H 2.532291 2.360359 3.695540 0
M  V30 40 H 4.627627 0.899756 2.991155 0
M  V30 41 H 6.181960 0.395066 1.139014 0
M  V30 42 H 5.482825 0.828195 -1.240518 0
M  V30 43 H 1.078518 1.605566 -2.396701 0
M  V30 44 H 1.624870 3.201720 -1.674886 0
M  V30 45 H 2.025952 2.776121 -3.358693 0
M  V30 46 H 1.792668 2.216977 0.179496 0
M  V30 47 H -0.507297 -1.304568 3.366647 0
M  V30 48 H -2.981299 0.248466 3.433066 0
M  V30 49 H -5.177171 -0.357771 2.515626 0
M  V30 50 H -7.042189 -0.308951 0.679967 0
M  V30 51 H -7.683101 -4.128716 -1.012480 0
M  V30 52 H -5.283773 -4.107978 -0.197027 0
M  V30 53 H -3.307723 -2.867410 -0.337938 0
M  V30 54 H -0.919121 -4.160881 -0.278162 0
M  V30 55 H 0.686419 -3.453179 -0.418142 0
M  V30 56 H -1.789857 -2.891297 -2.145534 0
M  V30 57 H -0.206670 -3.558235 -2.525817 0
M  V30 58 H 1.698552 -0.697740 -2.603453 0
M  V30 59 H 1.736191 -2.007572 -1.399731 0
M  V30 60 H 1.566290 -2.372361 -3.207741 0
M  V30 61 H -1.562234 -0.617600 -3.574337 0
M  V30 62 H 0.128031 -0.609429 -4.116502 0
M  V30 63 H -0.813469 -2.140039 -4.226063 0
M  V30 END ATOM
M  V30 BEGIN BOND
M  V30 1 1 1 2
M  V30 2 1 2 3
M  V30 3 1 3 4
M  V30 4 1 4 5
M  V30 5 2 5 6
M  V30 6 1 6 7
M  V30 7 2 7 8
M  V30 8 1 8 9
M  V30 9 1 9 10
M  V30 10 1 10 11
M  V30 11 2 9 12
M  V30 12 1 3 13
M  V30 13 2 13 14
M  V30 14 1 13 15
M  V30 15 1 15 16
M  V30 16 2 16 17
M  V30 17 1 17 18
M  V30 18 2 18 19
M  V30 19 1 19 20
M  V30 20 1 20 21
M  V30 21 2 21 22
M  V30 22 1 22 23
M  V30 23 1 23 24
M  V30 24 1 19 25
M  V30 25 2 25 26
M  V30 26 1 26 27
M  V30 27 1 27 28
M  V30 28 1 28 29
M  V30 29 1 29 30
M  V30 30 1 30 31
M  V30 31 1 30 32
M  V30 32 1 12 5
M  V30 33 1 26 16
M  V30 34 2 24 20
M  V30 35 1 1 33
M  V30 36 1 1 34
M  V30 37 1 1 35
M  V30 38 1 2 36
M  V30 39 1 2 37
M  V30 40 1 4 38
M  V30 41 1 4 39
M  V30 42 1 6 40
M  V30 43 1 7 41
M  V30 44 1 8 42
M  V30 45 1 11 43
M  V30 46 1 11 44
M  V30 47 1 11 45
M  V30 48 1 12 46
M  V30 49 1 15 47
M  V30 50 1 17 48
M  V30 51 1 18 49
M  V30 52 1 21 50
M  V30 53 1 23 51
M  V30 54 1 24 52
M  V30 55 1 25 53
M  V30 56 1 28 54
M  V30 57 1 28 55
M  V30 58 1 29 56
M  V30 59 1 29 57
M  V30 60 1 31 58
M  V30 61 1 31 59
M  V30 62 1 31 60
M  V30 63 1 32 61
M  V30 64 1 32 62
M  V30 65 1 32 63
M  V30 END BOND
M  V30 END CTAB
M  END
>  <Dataset>  (702) 
ChEMBL_Kinases

>  <Ligand_Instance>  (702) 
nan

>  <PDB_ID>  (702) 
nan

>  <Standardized_SMILES>  (702) 
CCN(Cc1cccc(OC)c1)C(=O)Nc1ccc(-c2cn[nH]c2)cc1OCCN(C)C

>  <Name>  (702) 
nan

>  <Pocket>  (702) 
nan

>  <ATP_Site>  (702) 
nan

>  <Peripheral>  (702) 
nan

>  <Num_H_Atoms_ProtBoundConf>  (702) 
nan

>  <Num_Resolved_Atoms>  (702) 
nan

>  <Num_Not_Resolved_Atoms>  (702) 
nan

$$$$
CHEMBL3402461
     RDKit          3D

  0  0  0  0  0  0  0  0  0  0999 V3000
M  V30 BEGIN CTAB
M  V30 COUNTS 64 66 0 0 0
M  V30 BEGIN ATOM
M  V30 1 C 2.045441 -2.334679 4.785348 0
M  V30 2 O 3.300869 -2.469999 4.168458 0
M  V30 3 C 3.748109 -1.466873 3.324587 0
M  V30 4 C 4.991708 -1.652941 2.749654 0
M  V30 5 C 5.466110 -0.667996 1.902903 0
M  V30 6 C 4.744449 0.475625 1.620886 0
M  V30 7 C 3.487076 0.680361 2.191993 0
M  V30 8 C 2.669993 1.870915 1.954996 0
M  V30 9 N 1.824833 1.839013 0.804751 0
M  V30 10 C 2.338765 2.367368 -0.453133 0
M  V30 11 C 0.506028 1.311878 0.847085 0
M  V30 12 O 0.189532 0.873744 1.959819 0
M  V30 13 N -0.297138 1.331168 -0.328051 0
M  V30 14 C -1.602392 0.889810 -0.597504 0
M  V30 15 C -2.502201 1.817764 -0.098821 0
M  V30 16 C -3.872870 1.640270 -0.251839 0
M  V30 17 C -4.293828 0.511399 -0.915221 0
M  V30 18 C -5.712654 0.242730 -1.122361 0
M  V30 19 C -6.707606 1.197184 -1.296675 0
M  V30 20 N -7.902492 0.567926 -1.461435 0
M  V30 21 N -7.709902 -0.756802 -1.399187 0
M  V30 22 C -6.393179 -0.968594 -1.194793 0
M  V30 23 C -3.406959 -0.407098 -1.409479 0
M  V30 24 C -2.053829 -0.229088 -1.257318 0
M  V30 25 N -1.100538 -1.148668 -1.767618 0
M  V30 26 C -1.681270 -2.062767 -2.748709 0
M  V30 27 C 0.278523 -1.479446 -1.636275 0
M  V30 28 C 0.504880 -2.851691 -1.048603 0
M  V30 29 N -0.038894 -3.029679 0.270899 0
M  V30 30 C 0.113503 -4.421201 0.716053 0
M  V30 31 C 0.676869 -2.230497 1.258233 0
M  V30 32 C 3.030236 -0.324083 3.040774 0
M  V30 33 H 1.831088 -3.196379 5.456630 0
M  V30 34 H 2.070516 -1.420073 5.445388 0
M  V30 35 H 1.208001 -2.201246 4.102208 0
M  V30 36 H 5.568522 -2.541060 2.959383 0
M  V30 37 H 6.449079 -0.846718 1.467488 0
M  V30 38 H 5.134070 1.237227 0.953707 0
M  V30 39 H 3.344310 2.769590 1.849479 0
M  V30 40 H 2.068397 2.077995 2.873456 0
M  V30 41 H 1.965341 3.394392 -0.551550 0
M  V30 42 H 2.062280 1.708666 -1.307158 0
M  V30 43 H 3.441248 2.405325 -0.404346 0
M  V30 44 H 0.022178 1.722508 -1.242640 0
M  V30 45 H -2.299040 2.754653 0.445823 0
M  V30 46 H -4.644126 2.306897 0.102422 0
M  V30 47 H -6.615624 2.279032 -1.310314 0
M  V30 48 H -8.407828 -1.534780 -1.485299 0
M  V30 49 H -5.871215 -1.922602 -1.091705 0
M  V30 50 H -3.771318 -1.288149 -1.927922 0
M  V30 51 H -2.314506 -2.822399 -2.232144 0
M  V30 52 H -0.959873 -2.556327 -3.409077 0
M  V30 53 H -2.388365 -1.471432 -3.404795 0
M  V30 54 H 0.744436 -1.416704 -2.670138 0
M  V30 55 H 0.891235 -0.785474 -1.040991 0
M  V30 56 H 0.195166 -3.649168 -1.748934 0
M  V30 57 H 1.624742 -2.948778 -0.931811 0
M  V30 58 H 0.184135 -4.434435 1.819682 0
M  V30 59 H -0.779907 -4.960666 0.361195 0
M  V30 60 H 1.052284 -4.865519 0.279482 0
M  V30 61 H 1.397409 -2.890580 1.826449 0
M  V30 62 H -0.039643 -1.857115 1.988509 0
M  V30 63 H 1.316933 -1.450323 0.806648 0
M  V30 64 H 2.089364 -0.296796 3.545174 0
M  V30 END ATOM
M  V30 BEGIN BOND
M  V30 1 1 1 2
M  V30 2 1 2 3
M  V30 3 2 3 4
M  V30 4 1 4 5
M  V30 5 2 5 6
M  V30 6 1 6 7
M  V30 7 1 7 8
M  V30 8 1 8 9
M  V30 9 1 9 10
M  V30 10 1 9 11
M  V30 11 2 11 12
M  V30 12 1 11 13
M  V30 13 1 13 14
M  V30 14 2 14 15
M  V30 15 1 15 16
M  V30 16 2 16 17
M  V30 17 1 17 18
M  V30 18 1 18 19
M  V30 19 2 19 20
M  V30 20 1 20 21
M  V30 21 1 21 22
M  V30 22 1 17 23
M  V30 23 2 23 24
M  V30 24 1 24 25
M  V30 25 1 25 26
M  V30 26 1 25 27
M  V30 27 1 27 28
M  V30 28 1 28 29
M  V30 29 1 29 30
M  V30 30 1 29 31
M  V30 31 2 7 32
M  V30 32 1 32 3
M  V30 33 1 24 14
M  V30 34 2 22 18
M  V30 35 1 1 33
M  V30 36 1 1 34
M  V30 37 1 1 35
M  V30 38 1 4 36
M  V30 39 1 5 37
M  V30 40 1 6 38
M  V30 41 1 8 39
M  V30 42 1 8 40
M  V30 43 1 10 41
M  V30 44 1 10 42
M  V30 45 1 10 43
M  V30 46 1 13 44
M  V30 47 1 15 45
M  V30 48 1 16 46
M  V30 49 1 19 47
M  V30 50 1 21 48
M  V30 51 1 22 49
M  V30 52 1 23 50
M  V30 53 1 26 51
M  V30 54 1 26 52
M  V30 55 1 26 53
M  V30 56 1 27 54
M  V30 57 1 27 55
M  V30 58 1 28 56
M  V30 59 1 28 57
M  V30 60 1 30 58
M  V30 61 1 30 59
M  V30 62 1 30 60
M  V30 63 1 31 61
M  V30 64 1 31 62
M  V30 65 1 31 63
M  V30 66 1 32 64
M  V30 END BOND
M  V30 END CTAB
M  END
>  <Dataset>  (703) 
ChEMBL_Kinases

>  <Ligand_Instance>  (703) 
nan

>  <PDB_ID>  (703) 
nan

>  <Standardized_SMILES>  (703) 
COc1cccc(CN(C)C(=O)Nc2ccc(-c3cn[nH]c3)cc2N(C)CCN(C)C)c1

>  <Name>  (703) 
nan

>  <Pocket>  (703) 
nan

>  <ATP_Site>  (703) 
nan

>  <Peripheral>  (703) 
nan

>  <Num_H_Atoms_ProtBoundConf>  (703) 
nan

>  <Num_Resolved_Atoms>  (703) 
nan

>  <Num_Not_Resolved_Atoms>  (703) 
nan

$$$$
CHEMBL3402451
     RDKit          3D

  0  0  0  0  0  0  0  0  0  0999 V3000
M  V30 BEGIN CTAB
M  V30 COUNTS 49 52 0 0 0
M  V30 BEGIN ATOM
M  V30 1 C 2.656612 -5.367363 0.889424 0
M  V30 2 O 3.072828 -4.346181 -0.015842 0
M  V30 3 C 3.594688 -3.165826 0.448996 0
M  V30 4 C 3.764984 -2.854819 1.787094 0
M  V30 5 C 4.290951 -1.664586 2.246203 0
M  V30 6 C 4.672792 -0.721322 1.313013 0
M  V30 7 C 4.509780 -1.014622 -0.038321 0
M  V30 8 C 4.921806 0.004124 -1.060126 0
M  V30 9 N 3.801911 0.885281 -1.365928 0
M  V30 10 C 2.514675 0.747557 -0.745333 0
M  V30 11 O 2.249184 -0.139312 0.107972 0
M  V30 12 N 1.444061 1.650461 -1.088806 0
M  V30 13 C 0.266310 1.329599 -0.356355 0
M  V30 14 C 0.023649 1.904351 0.874209 0
M  V30 15 C -1.136874 1.556114 1.541719 0
M  V30 16 C -2.082510 0.673217 1.076221 0
M  V30 17 C -3.288989 0.332556 1.820674 0
M  V30 18 N -3.359795 0.937717 2.957415 0
M  V30 19 C -4.507005 0.653065 3.744437 0
M  V30 20 N -5.419608 -0.139465 3.391749 0
M  V30 21 C -5.423625 -0.854172 2.167334 0
M  V30 22 N -6.580333 -0.544709 1.334296 0
M  V30 23 C -6.292314 0.144555 0.130997 0
M  V30 24 C -4.978379 0.103184 0.091899 0
M  V30 25 C -4.283260 -0.593836 1.225897 0
M  V30 26 C -1.768197 0.143383 -0.155721 0
M  V30 27 C -0.640913 0.434482 -0.883752 0
M  V30 28 C 3.975223 -2.225475 -0.486031 0
M  V30 29 H 3.375524 -5.515537 1.696292 0
M  V30 30 H 2.519896 -6.295356 0.331607 0
M  V30 31 H 1.666313 -5.054323 1.326367 0
M  V30 32 H 3.461641 -3.604537 2.534257 0
M  V30 33 H 4.409982 -1.455025 3.306713 0
M  V30 34 H 5.093585 0.237400 1.576514 0
M  V30 35 H 5.258811 -0.508847 -1.998476 0
M  V30 36 H 5.798252 0.519401 -0.663272 0
M  V30 37 H 3.996032 1.630360 -2.071481 0
M  V30 38 H 1.608997 2.412796 -1.797508 0
M  V30 39 H 0.716893 2.612288 1.317698 0
M  V30 40 H -1.284882 2.038612 2.514566 0
M  V30 41 H -4.655467 1.117162 4.712392 0
M  V30 42 H -5.513256 -1.968783 2.345868 0
M  V30 43 H -7.554072 -0.836360 1.650820 0
M  V30 44 H -7.015561 0.570015 -0.536176 0
M  V30 45 H -4.501613 0.590744 -0.778727 0
M  V30 46 H -3.805900 -1.534054 0.868553 0
M  V30 47 H -2.431201 -0.567268 -0.626894 0
M  V30 48 H -0.436961 -0.004936 -1.844468 0
M  V30 49 H 3.888235 -2.359161 -1.572380 0
M  V30 END ATOM
M  V30 BEGIN BOND
M  V30 1 1 1 2
M  V30 2 1 2 3
M  V30 3 2 3 4
M  V30 4 1 4 5
M  V30 5 2 5 6
M  V30 6 1 6 7
M  V30 7 1 7 8
M  V30 8 1 8 9
M  V30 9 1 9 10
M  V30 10 2 10 11
M  V30 11 1 10 12
M  V30 12 1 12 13
M  V30 13 2 13 14
M  V30 14 1 14 15
M  V30 15 2 15 16
M  V30 16 1 16 17
M  V30 17 2 17 18
M  V30 18 1 18 19
M  V30 19 2 19 20
M  V30 20 1 20 21
M  V30 21 1 21 22
M  V30 22 1 22 23
M  V30 23 2 23 24
M  V30 24 1 24 25
M  V30 25 1 16 26
M  V30 26 2 26 27
M  V30 27 2 7 28
M  V30 28 1 28 3
M  V30 29 1 27 13
M  V30 30 1 25 17
M  V30 31 1 25 21
M  V30 32 1 1 29
M  V30 33 1 1 30
M  V30 34 1 1 31
M  V30 35 1 4 32
M  V30 36 1 5 33
M  V30 37 1 6 34
M  V30 38 1 8 35
M  V30 39 1 8 36
M  V30 40 1 9 37
M  V30 41 1 12 38
M  V30 42 1 14 39
M  V30 43 1 15 40
M  V30 44 1 19 41
M  V30 45 1 21 42
M  V30 46 1 22 43
M  V30 47 1 23 44
M  V30 48 1 24 45
M  V30 49 1 25 46
M  V30 50 1 26 47
M  V30 51 1 27 48
M  V30 52 1 28 49
M  V30 END BOND
M  V30 END CTAB
M  END
>  <Dataset>  (704) 
ChEMBL_Kinases

>  <Ligand_Instance>  (704) 
nan

>  <PDB_ID>  (704) 
nan

>  <Standardized_SMILES>  (704) 
COc1cccc(CNC(=O)Nc2ccc(C3=NC=NC4NC=CC34)cc2)c1

>  <Name>  (704) 
nan

>  <Pocket>  (704) 
nan

>  <ATP_Site>  (704) 
nan

>  <Peripheral>  (704) 
nan

>  <Num_H_Atoms_ProtBoundConf>  (704) 
nan

>  <Num_Resolved_Atoms>  (704) 
nan

>  <Num_Not_Resolved_Atoms>  (704) 
nan

$$$$
CHEMBL3402450
     RDKit          3D

  0  0  0  0  0  0  0  0  0  0999 V3000
M  V30 BEGIN CTAB
M  V30 COUNTS 46 48 0 0 0
M  V30 BEGIN ATOM
M  V30 1 C 2.336278 -5.873151 -0.159704 0
M  V30 2 O 2.044485 -4.666921 -0.811972 0
M  V30 3 C 2.982124 -3.723504 -1.153550 0
M  V30 4 C 4.334158 -3.853880 -0.892648 0
M  V30 5 C 5.209791 -2.849861 -1.273863 0
M  V30 6 C 4.760813 -1.694340 -1.922642 0
M  V30 7 C 3.403336 -1.546164 -2.193349 0
M  V30 8 C 2.896730 -0.336272 -2.877450 0
M  V30 9 N 2.532359 0.733309 -1.968809 0
M  V30 10 C 1.396854 0.846746 -1.161315 0
M  V30 11 O 0.515065 -0.048291 -1.152171 0
M  V30 12 N 1.166392 1.963218 -0.310449 0
M  V30 13 C -0.080617 1.829177 0.414763 0
M  V30 14 C 0.110479 1.176927 1.626148 0
M  V30 15 C -0.947430 0.939436 2.485500 0
M  V30 16 C -2.206820 1.371408 2.103561 0
M  V30 17 C -3.358416 1.141194 2.983862 0
M  V30 18 C -4.651895 0.940920 2.538111 0
M  V30 19 C -5.686377 0.729983 3.430571 0
M  V30 20 N -5.436181 0.718776 4.744570 0
M  V30 21 C -4.179163 0.912041 5.211449 0
M  V30 22 N -3.937844 0.895585 6.616953 0
M  V30 23 C -3.105090 1.128024 4.359676 0
M  V30 24 C -2.385756 2.019207 0.896449 0
M  V30 25 C -1.336188 2.261328 0.030971 0
M  V30 26 C 2.568634 -2.585164 -1.788585 0
M  V30 27 H 3.120390 -5.803118 0.604508 0
M  V30 28 H 2.580855 -6.671506 -0.907918 0
M  V30 29 H 1.421376 -6.271481 0.359550 0
M  V30 30 H 4.645730 -4.753930 -0.392473 0
M  V30 31 H 6.250343 -3.038408 -1.028564 0
M  V30 32 H 5.485011 -0.942681 -2.197823 0
M  V30 33 H 3.573134 0.046922 -3.649693 0
M  V30 34 H 1.921902 -0.652933 -3.352877 0
M  V30 35 H 3.203710 1.549508 -1.890949 0
M  V30 36 H 1.880094 2.741551 -0.286203 0
M  V30 37 H 1.054929 0.805322 2.006474 0
M  V30 38 H -0.830841 0.427405 3.448573 0
M  V30 39 H -4.822071 0.955993 1.460897 0
M  V30 40 H -6.682556 0.579626 2.995015 0
M  V30 41 H -3.389247 0.104906 7.054840 0
M  V30 42 H -4.169479 1.506312 7.446485 0
M  V30 43 H -2.128786 1.274772 4.805487 0
M  V30 44 H -3.351039 2.372211 0.560420 0
M  V30 45 H -1.352747 2.746977 -0.918390 0
M  V30 46 H 1.531869 -2.453646 -2.005535 0
M  V30 END ATOM
M  V30 BEGIN BOND
M  V30 1 1 1 2
M  V30 2 1 2 3
M  V30 3 2 3 4
M  V30 4 1 4 5
M  V30 5 2 5 6
M  V30 6 1 6 7
M  V30 7 1 7 8
M  V30 8 1 8 9
M  V30 9 1 9 10
M  V30 10 2 10 11
M  V30 11 1 10 12
M  V30 12 1 12 13
M  V30 13 2 13 14
M  V30 14 1 14 15
M  V30 15 2 15 16
M  V30 16 1 16 17
M  V30 17 2 17 18
M  V30 18 1 18 19
M  V30 19 2 19 20
M  V30 20 1 20 21
M  V30 21 1 21 22
M  V30 22 2 21 23
M  V30 23 1 16 24
M  V30 24 2 24 25
M  V30 25 2 7 26
M  V30 26 1 26 3
M  V30 27 1 25 13
M  V30 28 1 23 17
M  V30 29 1 1 27
M  V30 30 1 1 28
M  V30 31 1 1 29
M  V30 32 1 4 30
M  V30 33 1 5 31
M  V30 34 1 6 32
M  V30 35 1 8 33
M  V30 36 1 8 34
M  V30 37 1 9 35
M  V30 38 1 12 36
M  V30 39 1 14 37
M  V30 40 1 15 38
M  V30 41 1 18 39
M  V30 42 1 19 40
M  V30 43 1 22 41
M  V30 44 1 22 42
M  V30 45 1 23 43
M  V30 46 1 24 44
M  V30 47 1 25 45
M  V30 48 1 26 46
M  V30 END BOND
M  V30 END CTAB
M  END
>  <Dataset>  (705) 
ChEMBL_Kinases

>  <Ligand_Instance>  (705) 
nan

>  <PDB_ID>  (705) 
nan

>  <Standardized_SMILES>  (705) 
COc1cccc(CNC(=O)Nc2ccc(-c3ccnc(N)c3)cc2)c1

>  <Name>  (705) 
nan

>  <Pocket>  (705) 
nan

>  <ATP_Site>  (705) 
nan

>  <Peripheral>  (705) 
nan

>  <Num_H_Atoms_ProtBoundConf>  (705) 
nan

>  <Num_Resolved_Atoms>  (705) 
nan

>  <Num_Not_Resolved_Atoms>  (705) 
nan

$$$$
CHEMBL3402449
     RDKit          3D

  0  0  0  0  0  0  0  0  0  0999 V3000
M  V30 BEGIN CTAB
M  V30 COUNTS 45 47 0 0 0
M  V30 BEGIN ATOM
M  V30 1 C 2.915017 -5.448442 0.412044 0
M  V30 2 O 2.323444 -4.406894 -0.312905 0
M  V30 3 C 3.052345 -3.429294 -0.932264 0
M  V30 4 C 4.429159 -3.417657 -0.874702 0
M  V30 5 C 5.123473 -2.427219 -1.504166 0
M  V30 6 C 4.465187 -1.423066 -2.206857 0
M  V30 7 C 3.069462 -1.407594 -2.283352 0
M  V30 8 C 2.448962 -0.313809 -3.044252 0
M  V30 9 N 2.193224 0.821595 -2.163537 0
M  V30 10 C 1.152205 0.912858 -1.233912 0
M  V30 11 O 0.301846 0.006017 -1.052828 0
M  V30 12 N 0.931567 2.033867 -0.387052 0
M  V30 13 C -0.205114 1.844979 0.458677 0
M  V30 14 C 0.032578 1.251571 1.689109 0
M  V30 15 C -1.048065 1.054289 2.530836 0
M  V30 16 C -2.353272 1.401958 2.245131 0
M  V30 17 C -3.389667 1.128578 3.235868 0
M  V30 18 C -4.711224 1.453223 3.007427 0
M  V30 19 C -5.566962 1.142014 4.014989 0
M  V30 20 N -5.197004 0.554679 5.179118 0
M  V30 21 C -3.880309 0.250640 5.363850 0
M  V30 22 N -3.357253 -0.367711 6.539534 0
M  V30 23 N -3.005153 0.551220 4.372467 0
M  V30 24 C -2.547829 1.989704 1.011492 0
M  V30 25 C -1.500022 2.206372 0.138846 0
M  V30 26 C 2.434732 -2.430363 -1.629676 0
M  V30 27 H 3.384915 -6.181615 -0.277600 0
M  V30 28 H 3.670221 -5.115832 1.159421 0
M  V30 29 H 2.137114 -5.992098 1.012516 0
M  V30 30 H 4.902787 -4.223939 -0.312722 0
M  V30 31 H 6.190429 -2.467072 -1.426766 0
M  V30 32 H 5.101831 -0.678098 -2.675256 0
M  V30 33 H 1.443935 -0.698869 -3.385411 0
M  V30 34 H 2.993166 -0.010297 -3.948975 0
M  V30 35 H 2.861699 1.624136 -2.255635 0
M  V30 36 H 1.587893 2.866015 -0.448917 0
M  V30 37 H 1.036619 0.958994 1.964161 0
M  V30 38 H -0.781369 0.580268 3.485040 0
M  V30 39 H -5.039042 1.920757 2.092826 0
M  V30 40 H -6.628824 1.344681 3.960399 0
M  V30 41 H -3.167389 0.058221 7.473170 0
M  V30 42 H -3.128498 -1.386713 6.469749 0
M  V30 43 H -3.556031 2.275023 0.753806 0
M  V30 44 H -1.660366 2.665254 -0.820642 0
M  V30 45 H 1.368420 -2.443335 -1.672903 0
M  V30 END ATOM
M  V30 BEGIN BOND
M  V30 1 1 1 2
M  V30 2 1 2 3
M  V30 3 2 3 4
M  V30 4 1 4 5
M  V30 5 2 5 6
M  V30 6 1 6 7
M  V30 7 1 7 8
M  V30 8 1 8 9
M  V30 9 1 9 10
M  V30 10 2 10 11
M  V30 11 1 10 12
M  V30 12 1 12 13
M  V30 13 2 13 14
M  V30 14 1 14 15
M  V30 15 2 15 16
M  V30 16 1 16 17
M  V30 17 2 17 18
M  V30 18 1 18 19
M  V30 19 2 19 20
M  V30 20 1 20 21
M  V30 21 1 21 22
M  V30 22 2 21 23
M  V30 23 1 16 24
M  V30 24 2 24 25
M  V30 25 2 7 26
M  V30 26 1 26 3
M  V30 27 1 25 13
M  V30 28 1 23 17
M  V30 29 1 1 27
M  V30 30 1 1 28
M  V30 31 1 1 29
M  V30 32 1 4 30
M  V30 33 1 5 31
M  V30 34 1 6 32
M  V30 35 1 8 33
M  V30 36 1 8 34
M  V30 37 1 9 35
M  V30 38 1 12 36
M  V30 39 1 14 37
M  V30 40 1 15 38
M  V30 41 1 18 39
M  V30 42 1 19 40
M  V30 43 1 22 41
M  V30 44 1 22 42
M  V30 45 1 24 43
M  V30 46 1 25 44
M  V30 47 1 26 45
M  V30 END BOND
M  V30 END CTAB
M  END
>  <Dataset>  (706) 
ChEMBL_Kinases

>  <Ligand_Instance>  (706) 
nan

>  <PDB_ID>  (706) 
nan

>  <Standardized_SMILES>  (706) 
COc1cccc(CNC(=O)Nc2ccc(-c3ccnc(N)n3)cc2)c1

>  <Name>  (706) 
nan

>  <Pocket>  (706) 
nan

>  <ATP_Site>  (706) 
nan

>  <Peripheral>  (706) 
nan

>  <Num_H_Atoms_ProtBoundConf>  (706) 
nan

>  <Num_Resolved_Atoms>  (706) 
nan

>  <Num_Not_Resolved_Atoms>  (706) 
nan

$$$$
CHEMBL3402448
     RDKit          3D

  0  0  0  0  0  0  0  0  0  0999 V3000
M  V30 BEGIN CTAB
M  V30 COUNTS 44 46 0 0 0
M  V30 BEGIN ATOM
M  V30 1 C -1.837619 -4.811998 -1.000013 0
M  V30 2 O -1.064772 -3.854920 -1.694152 0
M  V30 3 C -1.449868 -2.554883 -1.940441 0
M  V30 4 C -2.625723 -1.937994 -1.575143 0
M  V30 5 C -2.900233 -0.624255 -1.879632 0
M  V30 6 C -1.919513 0.062057 -2.584474 0
M  V30 7 C -0.724433 -0.508181 -2.974675 0
M  V30 8 C 0.200710 0.366955 -3.715197 0
M  V30 9 N 1.112629 1.084911 -2.879253 0
M  V30 10 C 1.181586 1.008234 -1.441696 0
M  V30 11 O 0.353091 0.228184 -0.861055 0
M  V30 12 N 2.099232 1.736057 -0.656272 0
M  V30 13 C 1.894241 1.424725 0.724895 0
M  V30 14 C 1.049940 2.070481 1.609315 0
M  V30 15 C 0.974085 1.634525 2.918329 0
M  V30 16 C 1.747150 0.560047 3.311266 0
M  V30 17 C 1.618305 0.144051 4.725919 0
M  V30 18 C 1.779226 -1.179549 5.104710 0
M  V30 19 C 1.658299 -1.569505 6.431708 0
M  V30 20 N 1.380168 -0.654021 7.374203 0
M  V30 21 C 1.219956 0.634342 7.031289 0
M  V30 22 C 1.329255 1.088325 5.713881 0
M  V30 23 C 2.607630 -0.124584 2.475995 0
M  V30 24 C 2.662720 0.339319 1.158772 0
M  V30 25 C -0.475332 -1.845076 -2.650118 0
M  V30 26 H -2.619948 -4.342873 -0.387572 0
M  V30 27 H -1.113830 -5.402349 -0.369961 0
M  V30 28 H -2.267711 -5.571577 -1.710758 0
M  V30 29 H -3.316777 -2.540659 -1.038827 0
M  V30 30 H -3.832946 -0.169939 -1.578111 0
M  V30 31 H -2.155039 1.100589 -2.816206 0
M  V30 32 H 0.839176 -0.260155 -4.401935 0
M  V30 33 H -0.359832 1.043442 -4.357343 0
M  V30 34 H 1.782781 1.718212 -3.373287 0
M  V30 35 H 2.768417 2.370387 -1.168836 0
M  V30 36 H 0.494019 2.898656 1.188420 0
M  V30 37 H 0.310081 2.153019 3.587269 0
M  V30 38 H 2.001847 -1.897119 4.332249 0
M  V30 39 H 1.797776 -2.620994 6.648214 0
M  V30 40 H 0.992169 1.412047 7.770665 0
M  V30 41 H 1.197300 2.118362 5.467687 0
M  V30 42 H 3.189153 -0.955070 2.826930 0
M  V30 43 H 3.342862 -0.207811 0.513871 0
M  V30 44 H 0.477656 -2.234233 -2.983041 0
M  V30 END ATOM
M  V30 BEGIN BOND
M  V30 1 1 1 2
M  V30 2 1 2 3
M  V30 3 2 3 4
M  V30 4 1 4 5
M  V30 5 2 5 6
M  V30 6 1 6 7
M  V30 7 1 7 8
M  V30 8 1 8 9
M  V30 9 1 9 10
M  V30 10 2 10 11
M  V30 11 1 10 12
M  V30 12 1 12 13
M  V30 13 2 13 14
M  V30 14 1 14 15
M  V30 15 2 15 16
M  V30 16 1 16 17
M  V30 17 2 17 18
M  V30 18 1 18 19
M  V30 19 2 19 20
M  V30 20 1 20 21
M  V30 21 2 21 22
M  V30 22 1 16 23
M  V30 23 2 23 24
M  V30 24 2 7 25
M  V30 25 1 25 3
M  V30 26 1 24 13
M  V30 27 1 22 17
M  V30 28 1 1 26
M  V30 29 1 1 27
M  V30 30 1 1 28
M  V30 31 1 4 29
M  V30 32 1 5 30
M  V30 33 1 6 31
M  V30 34 1 8 32
M  V30 35 1 8 33
M  V30 36 1 9 34
M  V30 37 1 12 35
M  V30 38 1 14 36
M  V30 39 1 15 37
M  V30 40 1 18 38
M  V30 41 1 19 39
M  V30 42 1 21 40
M  V30 43 1 22 41
M  V30 44 1 23 42
M  V30 45 1 24 43
M  V30 46 1 25 44
M  V30 END BOND
M  V30 END CTAB
M  END
>  <Dataset>  (707) 
ChEMBL_Kinases

>  <Ligand_Instance>  (707) 
nan

>  <PDB_ID>  (707) 
nan

>  <Standardized_SMILES>  (707) 
COc1cccc(CNC(=O)Nc2ccc(-c3ccncc3)cc2)c1

>  <Name>  (707) 
nan

>  <Pocket>  (707) 
nan

>  <ATP_Site>  (707) 
nan

>  <Peripheral>  (707) 
nan

>  <Num_H_Atoms_ProtBoundConf>  (707) 
nan

>  <Num_Resolved_Atoms>  (707) 
nan

>  <Num_Not_Resolved_Atoms>  (707) 
nan

$$$$
CHEMBL3402447
     RDKit          3D

  0  0  0  0  0  0  0  0  0  0999 V3000
M  V30 BEGIN CTAB
M  V30 COUNTS 45 47 0 0 0
M  V30 BEGIN ATOM
M  V30 1 C -1.786561 -5.761266 -0.631666 0
M  V30 2 O -1.859658 -4.377081 -0.875818 0
M  V30 3 C -1.244478 -3.749868 -1.941809 0
M  V30 4 C -0.489667 -4.376258 -2.894041 0
M  V30 5 C 0.106981 -3.703211 -3.944681 0
M  V30 6 C -0.061925 -2.316828 -4.049104 0
M  V30 7 C -0.824797 -1.688807 -3.085012 0
M  V30 8 C -0.939928 -0.227279 -3.290108 0
M  V30 9 N 0.105632 0.531879 -2.640842 0
M  V30 10 C 0.195400 0.817552 -1.271125 0
M  V30 11 O -0.684216 0.408660 -0.446333 0
M  V30 12 N 1.218819 1.559902 -0.644841 0
M  V30 13 C 1.052713 1.693042 0.760836 0
M  V30 14 C 0.388747 2.676384 1.471035 0
M  V30 15 C 0.345604 2.617633 2.845883 0
M  V30 16 C 0.957563 1.586056 3.545826 0
M  V30 17 C 0.857771 1.602638 5.018687 0
M  V30 18 C -0.353489 1.857925 5.671511 0
M  V30 19 N -0.168947 1.812254 7.005164 0
M  V30 20 N 1.112744 1.537987 7.186075 0
M  V30 21 C 1.762526 1.404925 6.036509 0
M  V30 22 C 3.185892 1.103460 5.751206 0
M  V30 23 C 1.631169 0.587301 2.838721 0
M  V30 24 C 1.669151 0.655857 1.447002 0
M  V30 25 C -1.407780 -2.376180 -2.051038 0
M  V30 26 H -0.731833 -6.114465 -0.505958 0
M  V30 27 H -2.277956 -6.316513 -1.453325 0
M  V30 28 H -2.283316 -5.948107 0.356288 0
M  V30 29 H -0.401696 -5.446628 -2.750323 0
M  V30 30 H 0.686301 -4.323281 -4.640003 0
M  V30 31 H 0.421661 -1.833403 -4.884820 0
M  V30 32 H -1.023752 0.031958 -4.366873 0
M  V30 33 H -1.937510 0.058409 -2.841710 0
M  V30 34 H 0.879075 0.912108 -3.240497 0
M  V30 35 H 1.998150 1.941964 -1.258594 0
M  V30 36 H -0.054838 3.433933 0.840041 0
M  V30 37 H -0.190100 3.419246 3.334428 0
M  V30 38 H -1.350405 2.071429 5.283214 0
M  V30 39 H -0.759349 1.934130 7.850032 0
M  V30 40 H 3.588958 1.846817 5.016849 0
M  V30 41 H 3.363013 0.060687 5.421612 0
M  V30 42 H 3.805133 1.243977 6.676283 0
M  V30 43 H 2.101988 -0.208225 3.400656 0
M  V30 44 H 2.221353 -0.174960 0.993610 0
M  V30 45 H -1.995306 -1.838752 -1.322798 0
M  V30 END ATOM
M  V30 BEGIN BOND
M  V30 1 1 1 2
M  V30 2 1 2 3
M  V30 3 2 3 4
M  V30 4 1 4 5
M  V30 5 2 5 6
M  V30 6 1 6 7
M  V30 7 1 7 8
M  V30 8 1 8 9
M  V30 9 1 9 10
M  V30 10 2 10 11
M  V30 11 1 10 12
M  V30 12 1 12 13
M  V30 13 2 13 14
M  V30 14 1 14 15
M  V30 15 2 15 16
M  V30 16 1 16 17
M  V30 17 2 17 18
M  V30 18 1 18 19
M  V30 19 1 19 20
M  V30 20 2 20 21
M  V30 21 1 21 22
M  V30 22 1 16 23
M  V30 23 2 23 24
M  V30 24 2 7 25
M  V30 25 1 25 3
M  V30 26 1 24 13
M  V30 27 1 21 17
M  V30 28 1 1 26
M  V30 29 1 1 27
M  V30 30 1 1 28
M  V30 31 1 4 29
M  V30 32 1 5 30
M  V30 33 1 6 31
M  V30 34 1 8 32
M  V30 35 1 8 33
M  V30 36 1 9 34
M  V30 37 1 12 35
M  V30 38 1 14 36
M  V30 39 1 15 37
M  V30 40 1 18 38
M  V30 41 1 19 39
M  V30 42 1 22 40
M  V30 43 1 22 41
M  V30 44 1 22 42
M  V30 45 1 23 43
M  V30 46 1 24 44
M  V30 47 1 25 45
M  V30 END BOND
M  V30 END CTAB
M  END
>  <Dataset>  (708) 
ChEMBL_Kinases

>  <Ligand_Instance>  (708) 
nan

>  <PDB_ID>  (708) 
nan

>  <Standardized_SMILES>  (708) 
COc1cccc(CNC(=O)Nc2ccc(-c3c[nH]nc3C)cc2)c1

>  <Name>  (708) 
nan

>  <Pocket>  (708) 
nan

>  <ATP_Site>  (708) 
nan

>  <Peripheral>  (708) 
nan

>  <Num_H_Atoms_ProtBoundConf>  (708) 
nan

>  <Num_Resolved_Atoms>  (708) 
nan

>  <Num_Not_Resolved_Atoms>  (708) 
nan

$$$$
CHEMBL3407864
     RDKit          3D

  0  0  0  0  0  0  0  0  0  0999 V3000
M  V30 BEGIN CTAB
M  V30 COUNTS 69 74 0 0 0
M  V30 BEGIN ATOM
M  V30 1 C 2.952679 -6.615102 5.177507 0
M  V30 2 O 2.127613 -5.542523 4.775124 0
M  V30 3 C 2.558834 -4.227790 4.829951 0
M  V30 4 C 3.791839 -3.810847 5.263452 0
M  V30 5 C 4.207431 -2.501035 5.312248 0
M  V30 6 N 5.420551 -2.124517 5.750914 0
M  V30 7 C 5.730794 -0.793412 5.766984 0
M  V30 8 C 4.848615 0.195997 5.348892 0
M  V30 9 C 3.585895 -0.194687 4.892010 0
M  V30 10 O 2.731309 0.814765 4.482904 0
M  V30 11 C 2.238699 0.960168 3.196962 0
M  V30 12 C 2.486453 0.259031 2.010108 0
M  V30 13 C 1.838021 0.632697 0.852979 0
M  V30 14 C 0.932044 1.698841 0.824008 0
M  V30 15 N 0.418514 1.856413 -0.492189 0
M  V30 16 C -0.749202 1.062655 -0.650652 0
M  V30 17 O -0.979437 0.464784 0.414066 0
M  V30 18 C -1.519629 0.993107 -1.882532 0
M  V30 19 C -2.673028 0.251790 -2.002291 0
M  V30 20 C -3.461529 -0.565115 -1.095363 0
M  V30 21 C -3.915023 -0.266893 0.169429 0
M  V30 22 C -4.645840 -1.165337 0.913695 0
M  V30 23 N -4.928144 -2.372520 0.394800 0
M  V30 24 C -4.516929 -2.735304 -0.838193 0
M  V30 25 C -3.785725 -1.829253 -1.577556 0
M  V30 26 N -3.058979 0.435452 -3.299109 0
M  V30 27 C -4.232896 -0.126482 -3.975434 0
M  V30 28 N -2.212497 1.227611 -3.930326 0
M  V30 29 C -2.282289 1.645713 -5.292343 0
M  V30 30 C -3.226118 2.472893 -5.863996 0
M  V30 31 C -3.184311 2.803073 -7.200328 0
M  V30 32 C -2.163563 2.282474 -7.970731 0
M  V30 33 C -1.178252 1.449836 -7.488185 0
M  V30 34 C -1.272565 1.149367 -6.124027 0
M  V30 35 C -1.219289 1.608445 -3.075613 0
M  V30 36 O -0.267870 2.358578 -3.376615 0
M  V30 37 N 0.700226 2.367964 1.972239 0
M  V30 38 C 1.324410 2.019216 3.117874 0
M  V30 39 C 3.286983 -1.537986 4.882245 0
M  V30 40 C 2.046089 -1.940066 4.445317 0
M  V30 41 C 1.644330 -3.259312 4.402372 0
M  V30 42 O 0.383968 -3.624448 3.954121 0
M  V30 43 C -0.522581 -2.643620 3.528965 0
M  V30 44 H 3.454352 -6.349371 6.116682 0
M  V30 45 H 3.645223 -6.940250 4.370352 0
M  V30 46 H 2.275664 -7.471697 5.422963 0
M  V30 47 H 4.472346 -4.576044 5.585569 0
M  V30 48 H 6.739641 -0.590184 6.140835 0
M  V30 49 H 5.193428 1.219791 5.401910 0
M  V30 50 H 3.193211 -0.522925 2.180609 0
M  V30 51 H 2.137663 -0.009591 0.020647 0
M  V30 52 H 0.775940 2.447145 -1.302232 0
M  V30 53 H -3.663362 0.720815 0.527476 0
M  V30 54 H -4.942388 -0.811074 1.890920 0
M  V30 55 H -4.787269 -3.727080 -1.179320 0
M  V30 56 H -3.501375 -2.205597 -2.543913 0
M  V30 57 H -4.698368 0.610652 -4.676388 0
M  V30 58 H -3.974057 -1.022733 -4.576744 0
M  V30 59 H -4.991208 -0.460639 -3.230483 0
M  V30 60 H -3.982227 2.835409 -5.205911 0
M  V30 61 H -3.946938 3.455656 -7.605123 0
M  V30 62 H -2.129153 2.537882 -9.011413 0
M  V30 63 H -0.373828 1.033718 -8.075662 0
M  V30 64 H -0.501650 0.493006 -5.730293 0
M  V30 65 H 0.996830 2.687943 3.927465 0
M  V30 66 H 1.302801 -1.228824 4.115887 0
M  V30 67 H -1.488644 -3.116968 3.225724 0
M  V30 68 H -0.698600 -1.880400 4.332174 0
M  V30 69 H -0.158794 -2.069038 2.638911 0
M  V30 END ATOM
M  V30 BEGIN BOND
M  V30 1 1 1 2
M  V30 2 1 2 3
M  V30 3 2 3 4
M  V30 4 1 4 5
M  V30 5 2 5 6
M  V30 6 1 6 7
M  V30 7 2 7 8
M  V30 8 1 8 9
M  V30 9 1 9 10
M  V30 10 1 10 11
M  V30 11 2 11 12
M  V30 12 1 12 13
M  V30 13 2 13 14
M  V30 14 1 14 15
M  V30 15 1 15 16
M  V30 16 2 16 17
M  V30 17 1 16 18
M  V30 18 2 18 19
M  V30 19 1 19 20
M  V30 20 2 20 21
M  V30 21 1 21 22
M  V30 22 2 22 23
M  V30 23 1 23 24
M  V30 24 2 24 25
M  V30 25 1 19 26
M  V30 26 1 26 27
M  V30 27 1 26 28
M  V30 28 1 28 29
M  V30 29 2 29 30
M  V30 30 1 30 31
M  V30 31 2 31 32
M  V30 32 1 32 33
M  V30 33 2 33 34
M  V30 34 1 28 35
M  V30 35 2 35 36
M  V30 36 1 14 37
M  V30 37 2 37 38
M  V30 38 2 9 39
M  V30 39 1 39 40
M  V30 40 2 40 41
M  V30 41 1 41 42
M  V30 42 1 42 43
M  V30 43 1 41 3
M  V30 44 1 39 5
M  V30 45 1 38 11
M  V30 46 1 35 18
M  V30 47 1 25 20
M  V30 48 1 34 29
M  V30 49 1 1 44
M  V30 50 1 1 45
M  V30 51 1 1 46
M  V30 52 1 4 47
M  V30 53 1 7 48
M  V30 54 1 8 49
M  V30 55 1 12 50
M  V30 56 1 13 51
M  V30 57 1 15 52
M  V30 58 1 21 53
M  V30 59 1 22 54
M  V30 60 1 24 55
M  V30 61 1 25 56
M  V30 62 1 27 57
M  V30 63 1 27 58
M  V30 64 1 27 59
M  V30 65 1 30 60
M  V30 66 1 31 61
M  V30 67 1 32 62
M  V30 68 1 33 63
M  V30 69 1 34 64
M  V30 70 1 38 65
M  V30 71 1 40 66
M  V30 72 1 43 67
M  V30 73 1 43 68
M  V30 74 1 43 69
M  V30 END BOND
M  V30 END CTAB
M  END
>  <Dataset>  (709) 
ChEMBL_Kinases

>  <Ligand_Instance>  (709) 
nan

>  <PDB_ID>  (709) 
nan

>  <Standardized_SMILES>  (709) 
COc1cc2nccc(Oc3ccc(NC(=O)c4c(-c5ccncc5)n(C)n(-c5ccccc5)c4=O)nc3)c2cc1OC

>  <Name>  (709) 
nan

>  <Pocket>  (709) 
nan

>  <ATP_Site>  (709) 
nan

>  <Peripheral>  (709) 
nan

>  <Num_H_Atoms_ProtBoundConf>  (709) 
nan

>  <Num_Resolved_Atoms>  (709) 
nan

>  <Num_Not_Resolved_Atoms>  (709) 
nan

$$$$
CHEMBL3401127
     RDKit          3D

  0  0  0  0  0  0  0  0  0  0999 V3000
M  V30 BEGIN CTAB
M  V30 COUNTS 42 44 0 0 0
M  V30 BEGIN ATOM
M  V30 1 C -0.879488 -2.592780 1.348305 0
M  V30 2 C 0.599164 -2.716330 1.571359 0 CFG=2
M  V30 3 C 1.060896 -2.144310 2.897595 0 CFG=1
M  V30 4 C 0.215479 -2.558922 4.058200 0
M  V30 5 O 2.359585 -2.484862 3.099813 0
M  V30 6 C 3.244138 -2.350850 2.091921 0
M  V30 7 C 2.773059 -2.193515 0.707225 0
M  V30 8 N 1.344680 -1.907428 0.591744 0
M  V30 9 C 0.627319 -1.024458 -0.268576 0
M  V30 10 N 0.432544 0.244595 0.183770 0
M  V30 11 C -0.227787 1.168284 -0.534216 0
M  V30 12 C -0.369859 2.483525 0.055314 0
M  V30 13 C 0.179942 2.690572 1.303453 0
M  V30 14 C 0.076710 3.936956 1.925538 0
M  V30 15 N -0.550204 4.976337 1.352259 0
M  V30 16 C -1.095537 4.803975 0.136253 0
M  V30 17 C -0.993992 3.588704 -0.468507 0
M  V30 18 F -1.558548 3.482704 -1.679103 0
M  V30 19 C -0.676922 0.710433 -1.746349 0
M  V30 20 C -0.481163 -0.573239 -2.206456 0
M  V30 21 O -0.940044 -0.880170 -3.337698 0
M  V30 22 N 0.185831 -1.467086 -1.455128 0
M  V30 23 C 0.401065 -2.811184 -1.916173 0
M  V30 24 H -1.379183 -2.788835 2.303087 0
M  V30 25 H -1.156284 -1.597260 0.960367 0
M  V30 26 H -1.174691 -3.413465 0.659239 0
M  V30 27 H 0.904548 -3.759267 1.470234 0
M  V30 28 H 1.022292 -1.017127 2.856215 0
M  V30 29 H 0.030874 -3.632380 4.135125 0
M  V30 30 H 0.786403 -2.279856 4.977177 0
M  V30 31 H -0.728237 -1.946303 4.117171 0
M  V30 32 H 3.969679 -3.213306 2.165986 0
M  V30 33 H 3.900955 -1.465118 2.340118 0
M  V30 34 H 2.899340 -3.166493 0.167566 0
M  V30 35 H 3.387099 -1.477537 0.141862 0
M  V30 36 H 0.716261 1.918979 1.872223 0
M  V30 37 H 0.513882 4.077100 2.901674 0
M  V30 38 H -1.591706 5.632666 -0.313416 0
M  V30 39 H -1.215340 1.402784 -2.372310 0
M  V30 40 H 1.080423 -2.779086 -2.772700 0
M  V30 41 H 0.762830 -3.438723 -1.081870 0
M  V30 42 H -0.591123 -3.230271 -2.206580 0
M  V30 END ATOM
M  V30 BEGIN BOND
M  V30 1 1 1 2
M  V30 2 1 2 3
M  V30 3 1 3 4
M  V30 4 1 3 5
M  V30 5 1 5 6
M  V30 6 1 6 7
M  V30 7 1 7 8
M  V30 8 1 8 9
M  V30 9 2 9 10
M  V30 10 1 10 11
M  V30 11 1 11 12
M  V30 12 2 12 13
M  V30 13 1 13 14
M  V30 14 2 14 15
M  V30 15 1 15 16
M  V30 16 2 16 17
M  V30 17 1 17 18
M  V30 18 2 11 19
M  V30 19 1 19 20
M  V30 20 2 20 21
M  V30 21 1 20 22
M  V30 22 1 22 23
M  V30 23 1 8 2
M  V30 24 1 22 9
M  V30 25 1 17 12
M  V30 26 1 1 24
M  V30 27 1 1 25
M  V30 28 1 1 26
M  V30 29 1 2 27 CFG=1
M  V30 30 1 3 28 CFG=3
M  V30 31 1 4 29
M  V30 32 1 4 30
M  V30 33 1 4 31
M  V30 34 1 6 32
M  V30 35 1 6 33
M  V30 36 1 7 34
M  V30 37 1 7 35
M  V30 38 1 13 36
M  V30 39 1 14 37
M  V30 40 1 16 38
M  V30 41 1 19 39
M  V30 42 1 23 40
M  V30 43 1 23 41
M  V30 44 1 23 42
M  V30 END BOND
M  V30 END CTAB
M  END
>  <Dataset>  (710) 
ChEMBL_Kinases

>  <Ligand_Instance>  (710) 
nan

>  <PDB_ID>  (710) 
nan

>  <Standardized_SMILES>  (710) 
C[C@@H]1[C@@H](C)OCCN1c1nc(-c2ccncc2F)cc(=O)n1C

>  <Name>  (710) 
nan

>  <Pocket>  (710) 
nan

>  <ATP_Site>  (710) 
nan

>  <Peripheral>  (710) 
nan

>  <Num_H_Atoms_ProtBoundConf>  (710) 
nan

>  <Num_Resolved_Atoms>  (710) 
nan

>  <Num_Not_Resolved_Atoms>  (710) 
nan

$$$$
CHEMBL3401128
     RDKit          3D

  0  0  0  0  0  0  0  0  0  0999 V3000
M  V30 BEGIN CTAB
M  V30 COUNTS 45 47 0 0 0
M  V30 BEGIN ATOM
M  V30 1 C -0.539986 -2.590989 3.333354 0
M  V30 2 C -0.626817 -1.914879 1.983544 0
M  V30 3 N -0.017493 -0.571114 2.012514 0
M  V30 4 C 1.054765 0.088686 1.300620 0
M  V30 5 N 1.106879 0.017301 -0.040549 0
M  V30 6 C 2.028243 0.581098 -0.803019 0
M  V30 7 C 2.082204 0.493983 -2.256990 0
M  V30 8 C 3.028317 1.136987 -3.019880 0
M  V30 9 C 3.093855 1.056216 -4.399547 0
M  V30 10 N 2.163994 0.296033 -5.005422 0
M  V30 11 C 1.224981 -0.345140 -4.282730 0
M  V30 12 C 1.114586 -0.297031 -2.888383 0
M  V30 13 F 0.140731 -0.979747 -2.262106 0
M  V30 14 C 2.997910 1.292541 -0.128890 0
M  V30 15 C 2.923957 1.351385 1.248911 0
M  V30 16 O 3.815252 2.005888 1.877844 0
M  V30 17 N 1.964076 0.761041 2.022007 0
M  V30 18 C 2.017312 0.898132 3.460666 0
M  V30 19 C -0.765243 0.195670 3.015192 0
M  V30 20 C -2.243003 -0.049145 2.961530 0
M  V30 21 O -2.583991 -0.542099 1.731288 0
M  V30 22 C -2.060009 -1.807727 1.480458 0
M  V30 23 C -2.120791 -1.993461 -0.020009 0
M  V30 24 C -2.977568 -2.823185 2.115501 0
M  V30 25 H -1.521264 -2.796438 3.798108 0
M  V30 26 H 0.109112 -2.009354 4.052273 0
M  V30 27 H -0.021280 -3.590058 3.288828 0
M  V30 28 H -0.102759 -2.574834 1.262723 0
M  V30 29 H 3.787272 1.754754 -2.585016 0
M  V30 30 H 3.844901 1.568921 -4.978030 0
M  V30 31 H 0.492105 -0.950670 -4.829582 0
M  V30 32 H 3.820103 1.812541 -0.590883 0
M  V30 33 H 1.401875 1.725225 3.861039 0
M  V30 34 H 3.077025 1.218638 3.714303 0
M  V30 35 H 1.910802 -0.061399 4.007801 0
M  V30 36 H -0.640901 1.291906 2.758085 0
M  V30 37 H -0.449071 -0.025505 4.048121 0
M  V30 38 H -2.794286 0.923851 3.073563 0
M  V30 39 H -2.611399 -0.664952 3.806662 0
M  V30 40 H -1.933341 -1.016334 -0.544784 0
M  V30 41 H -3.185659 -2.259671 -0.266311 0
M  V30 42 H -1.425870 -2.775148 -0.373006 0
M  V30 43 H -3.411651 -2.375349 3.045271 0
M  V30 44 H -3.826007 -3.035483 1.407886 0
M  V30 45 H -2.513036 -3.794088 2.327188 0
M  V30 END ATOM
M  V30 BEGIN BOND
M  V30 1 1 1 2
M  V30 2 1 2 3
M  V30 3 1 3 4
M  V30 4 2 4 5
M  V30 5 1 5 6
M  V30 6 1 6 7
M  V30 7 2 7 8
M  V30 8 1 8 9
M  V30 9 2 9 10
M  V30 10 1 10 11
M  V30 11 2 11 12
M  V30 12 1 12 13
M  V30 13 2 6 14
M  V30 14 1 14 15
M  V30 15 2 15 16
M  V30 16 1 15 17
M  V30 17 1 17 18
M  V30 18 1 3 19
M  V30 19 1 19 20
M  V30 20 1 20 21
M  V30 21 1 21 22
M  V30 22 1 22 23
M  V30 23 1 22 24
M  V30 24 1 22 2
M  V30 25 1 17 4
M  V30 26 1 12 7
M  V30 27 1 1 25
M  V30 28 1 1 26
M  V30 29 1 1 27
M  V30 30 1 2 28
M  V30 31 1 8 29
M  V30 32 1 9 30
M  V30 33 1 11 31
M  V30 34 1 14 32
M  V30 35 1 18 33
M  V30 36 1 18 34
M  V30 37 1 18 35
M  V30 38 1 19 36
M  V30 39 1 19 37
M  V30 40 1 20 38
M  V30 41 1 20 39
M  V30 42 1 23 40
M  V30 43 1 23 41
M  V30 44 1 23 42
M  V30 45 1 24 43
M  V30 46 1 24 44
M  V30 47 1 24 45
M  V30 END BOND
M  V30 END CTAB
M  END
>  <Dataset>  (711) 
ChEMBL_Kinases

>  <Ligand_Instance>  (711) 
nan

>  <PDB_ID>  (711) 
nan

>  <Standardized_SMILES>  (711) 
CC1N(c2nc(-c3ccncc3F)cc(=O)n2C)CCOC1(C)C

>  <Name>  (711) 
nan

>  <Pocket>  (711) 
nan

>  <ATP_Site>  (711) 
nan

>  <Peripheral>  (711) 
nan

>  <Num_H_Atoms_ProtBoundConf>  (711) 
nan

>  <Num_Resolved_Atoms>  (711) 
nan

>  <Num_Not_Resolved_Atoms>  (711) 
nan

$$$$
CHEMBL3401129
     RDKit          3D

  0  0  0  0  0  0  0  0  0  0999 V3000
M  V30 BEGIN CTAB
M  V30 COUNTS 43 46 0 0 0
M  V30 BEGIN ATOM
M  V30 1 C 0.217588 -3.785688 1.788211 0
M  V30 2 N -0.541798 -2.556407 1.833477 0
M  V30 3 C 0.133475 -1.447623 1.564623 0
M  V30 4 N 1.538297 -1.320917 1.221927 0
M  V30 5 C 2.846047 -1.323152 1.891391 0
M  V30 6 C 3.473253 0.040533 1.675574 0
M  V30 7 O 3.082090 0.578568 0.427759 0
M  V30 8 C 2.994514 -0.466976 -0.428345 0 CFG=2
M  V30 9 C 2.759534 -0.166663 -1.873789 0
M  V30 10 C 2.227562 -1.525305 -2.356100 0
M  V30 11 C 1.790156 -2.272129 -1.080147 0
M  V30 12 C 1.613385 -1.113314 -0.176025 0 CFG=1
M  V30 13 N -0.458431 -0.219955 1.570348 0
M  V30 14 C -1.765247 -0.029370 1.845888 0
M  V30 15 C -2.290377 1.323478 1.805279 0
M  V30 16 C -1.369357 2.304312 1.413810 0
M  V30 17 C -1.781635 3.640939 1.343586 0
M  V30 18 N -3.049717 4.032564 1.641759 0
M  V30 19 C -3.941340 3.087913 2.019665 0
M  V30 20 C -3.548690 1.770067 2.092698 0
M  V30 21 F -4.452157 0.856142 2.470042 0
M  V30 22 C -2.438313 -1.193571 2.120385 0
M  V30 23 C -1.846205 -2.437038 2.116653 0
M  V30 24 O -2.473317 -3.481162 2.369415 0
M  V30 25 H -0.276540 -4.484665 2.494873 0
M  V30 26 H 0.120125 -4.223496 0.764369 0
M  V30 27 H 1.284186 -3.632832 2.048716 0
M  V30 28 H 3.475461 -2.154305 1.515482 0
M  V30 29 H 2.727297 -1.464063 2.979132 0
M  V30 30 H 3.197480 0.697784 2.519465 0
M  V30 31 H 4.572594 -0.149751 1.596452 0
M  V30 32 H 3.807202 -1.208027 -0.367077 0
M  V30 33 H 3.607549 0.193857 -2.443843 0
M  V30 34 H 1.891111 0.554514 -1.893658 0
M  V30 35 H 3.052583 -2.016901 -2.872814 0
M  V30 36 H 1.309748 -1.361300 -2.946633 0
M  V30 37 H 2.630034 -2.951683 -0.753366 0
M  V30 38 H 0.841396 -2.802962 -1.235140 0
M  V30 39 H 0.857150 -0.434327 -0.620783 0
M  V30 40 H -0.330201 2.135222 1.148975 0
M  V30 41 H -1.086341 4.410439 1.045469 0
M  V30 42 H -4.952989 3.349358 2.264428 0
M  V30 43 H -3.472195 -1.131491 2.346659 0
M  V30 END ATOM
M  V30 BEGIN BOND
M  V30 1 1 1 2
M  V30 2 1 2 3
M  V30 3 1 3 4
M  V30 4 1 4 5
M  V30 5 1 5 6
M  V30 6 1 6 7
M  V30 7 1 7 8
M  V30 8 1 8 9
M  V30 9 1 9 10
M  V30 10 1 10 11
M  V30 11 1 11 12
M  V30 12 2 3 13
M  V30 13 1 13 14
M  V30 14 1 14 15
M  V30 15 2 15 16
M  V30 16 1 16 17
M  V30 17 2 17 18
M  V30 18 1 18 19
M  V30 19 2 19 20
M  V30 20 1 20 21
M  V30 21 2 14 22
M  V30 22 1 22 23
M  V30 23 2 23 24
M  V30 24 1 23 2
M  V30 25 1 12 4
M  V30 26 1 20 15
M  V30 27 1 12 8
M  V30 28 1 1 25
M  V30 29 1 1 26
M  V30 30 1 1 27
M  V30 31 1 5 28
M  V30 32 1 5 29
M  V30 33 1 6 30
M  V30 34 1 6 31
M  V30 35 1 8 32 CFG=3
M  V30 36 1 9 33
M  V30 37 1 9 34
M  V30 38 1 10 35
M  V30 39 1 10 36
M  V30 40 1 11 37
M  V30 41 1 11 38
M  V30 42 1 12 39 CFG=3
M  V30 43 1 16 40
M  V30 44 1 17 41
M  V30 45 1 19 42
M  V30 46 1 22 43
M  V30 END BOND
M  V30 END CTAB
M  END
>  <Dataset>  (712) 
ChEMBL_Kinases

>  <Ligand_Instance>  (712) 
nan

>  <PDB_ID>  (712) 
nan

>  <Standardized_SMILES>  (712) 
Cn1c(N2CCO[C@@H]3CCC[C@H]32)nc(-c2ccncc2F)cc1=O

>  <Name>  (712) 
nan

>  <Pocket>  (712) 
nan

>  <ATP_Site>  (712) 
nan

>  <Peripheral>  (712) 
nan

>  <Num_H_Atoms_ProtBoundConf>  (712) 
nan

>  <Num_Resolved_Atoms>  (712) 
nan

>  <Num_Not_Resolved_Atoms>  (712) 
nan

$$$$
CHEMBL3401130
     RDKit          3D

  0  0  0  0  0  0  0  0  0  0999 V3000
M  V30 BEGIN CTAB
M  V30 COUNTS 43 46 0 0 0
M  V30 BEGIN ATOM
M  V30 1 C 0.230863 -3.920856 2.157943 0
M  V30 2 N -0.429262 -2.641532 2.037370 0
M  V30 3 C 0.159095 -1.618708 1.400616 0
M  V30 4 N 1.484604 -1.615876 0.863360 0
M  V30 5 C 2.638405 -2.424555 0.950543 0
M  V30 6 C 3.098650 -2.997157 -0.371255 0
M  V30 7 O 2.870270 -2.067722 -1.417886 0
M  V30 8 C 2.981014 -0.847681 -0.845014 0 CFG=1
M  V30 9 C 2.929306 0.361131 -1.753672 0
M  V30 10 C 2.731697 1.461286 -0.693258 0
M  V30 11 C 2.221667 0.748425 0.570999 0
M  V30 12 C 1.746683 -0.547058 -0.029758 0 CFG=2
M  V30 13 N -0.571346 -0.498045 1.326038 0
M  V30 14 C -1.796828 -0.339317 1.825788 0
M  V30 15 C -2.408076 0.960823 1.624660 0
M  V30 16 C -1.732272 1.920335 0.888263 0
M  V30 17 C -2.253819 3.183279 0.664412 0
M  V30 18 N -3.444128 3.544984 1.150302 0
M  V30 19 C -4.154802 2.648901 1.880258 0
M  V30 20 C -3.616445 1.411738 2.085059 0
M  V30 21 F -4.355014 0.572505 2.812069 0
M  V30 22 C -2.354272 -1.409915 2.467510 0
M  V30 23 C -1.656637 -2.587110 2.576405 0
M  V30 24 O -2.180601 -3.551257 3.163273 0
M  V30 25 H -0.540984 -4.739304 2.379721 0
M  V30 26 H 0.661008 -4.286652 1.204860 0
M  V30 27 H 0.893167 -3.985765 3.040875 0
M  V30 28 H 3.483805 -1.764904 1.342714 0
M  V30 29 H 2.612035 -3.231162 1.705649 0
M  V30 30 H 2.550914 -3.922234 -0.627324 0
M  V30 31 H 4.167418 -3.259467 -0.274783 0
M  V30 32 H 3.874570 -0.701166 -0.202200 0
M  V30 33 H 3.853953 0.522962 -2.330491 0
M  V30 34 H 2.029850 0.352015 -2.395454 0
M  V30 35 H 1.962981 2.181325 -1.016314 0
M  V30 36 H 3.707353 1.938934 -0.540673 0
M  V30 37 H 3.157679 0.511153 1.149483 0
M  V30 38 H 1.482717 1.321147 1.120254 0
M  V30 39 H 0.870768 -0.318751 -0.696820 0
M  V30 40 H -0.764427 1.746477 0.443915 0
M  V30 41 H -1.720572 3.915993 0.092296 0
M  V30 42 H -5.107918 2.940221 2.269390 0
M  V30 43 H -3.338101 -1.346823 2.889667 0
M  V30 END ATOM
M  V30 BEGIN BOND
M  V30 1 1 1 2
M  V30 2 1 2 3
M  V30 3 1 3 4
M  V30 4 1 4 5
M  V30 5 1 5 6
M  V30 6 1 6 7
M  V30 7 1 7 8
M  V30 8 1 8 9
M  V30 9 1 9 10
M  V30 10 1 10 11
M  V30 11 1 11 12
M  V30 12 2 3 13
M  V30 13 1 13 14
M  V30 14 1 14 15
M  V30 15 2 15 16
M  V30 16 1 16 17
M  V30 17 2 17 18
M  V30 18 1 18 19
M  V30 19 2 19 20
M  V30 20 1 20 21
M  V30 21 2 14 22
M  V30 22 1 22 23
M  V30 23 2 23 24
M  V30 24 1 23 2
M  V30 25 1 12 4
M  V30 26 1 20 15
M  V30 27 1 12 8
M  V30 28 1 1 25
M  V30 29 1 1 26
M  V30 30 1 1 27
M  V30 31 1 5 28
M  V30 32 1 5 29
M  V30 33 1 6 30
M  V30 34 1 6 31
M  V30 35 1 8 32 CFG=1
M  V30 36 1 9 33
M  V30 37 1 9 34
M  V30 38 1 10 35
M  V30 39 1 10 36
M  V30 40 1 11 37
M  V30 41 1 11 38
M  V30 42 1 12 39 CFG=3
M  V30 43 1 16 40
M  V30 44 1 17 41
M  V30 45 1 19 42
M  V30 46 1 22 43
M  V30 END BOND
M  V30 END CTAB
M  END
>  <Dataset>  (713) 
ChEMBL_Kinases

>  <Ligand_Instance>  (713) 
nan

>  <PDB_ID>  (713) 
nan

>  <Standardized_SMILES>  (713) 
Cn1c(N2CCO[C@H]3CCC[C@@H]32)nc(-c2ccncc2F)cc1=O

>  <Name>  (713) 
nan

>  <Pocket>  (713) 
nan

>  <ATP_Site>  (713) 
nan

>  <Peripheral>  (713) 
nan

>  <Num_H_Atoms_ProtBoundConf>  (713) 
nan

>  <Num_Resolved_Atoms>  (713) 
nan

>  <Num_Not_Resolved_Atoms>  (713) 
nan

$$$$
CHEMBL3401131
     RDKit          3D

  0  0  0  0  0  0  0  0  0  0999 V3000
M  V30 BEGIN CTAB
M  V30 COUNTS 46 49 0 0 0
M  V30 BEGIN ATOM
M  V30 1 C 1.280524 -2.951541 1.911421 0
M  V30 2 N 0.046577 -2.213664 2.057648 0
M  V30 3 C -0.134558 -1.109774 1.317847 0
M  V30 4 N 0.780749 -0.524302 0.397168 0
M  V30 5 C 0.307543 0.616075 -0.387495 0
M  V30 6 C 0.041865 0.121093 -1.795931 0
M  V30 7 O 1.201627 -0.558286 -2.220725 0
M  V30 8 C 2.274810 -0.212194 -1.452273 0 CFG=2
M  V30 9 C 3.521293 -0.905963 -2.020552 0
M  V30 10 C 4.628747 -0.800719 -0.968211 0
M  V30 11 C 4.376833 0.352535 -0.016979 0
M  V30 12 C 3.145093 0.032739 0.824378 0
M  V30 13 C 2.132014 -0.740231 -0.005259 0 CFG=1
M  V30 14 N -1.299090 -0.487891 1.489022 0
M  V30 15 C -2.294722 -0.840856 2.308978 0
M  V30 16 C -3.497029 -0.034442 2.354276 0
M  V30 17 C -3.578625 1.059453 1.518905 0
M  V30 18 C -4.689195 1.875088 1.506657 0
M  V30 19 N -5.765470 1.644661 2.318833 0
M  V30 20 C -5.720427 0.571488 3.158917 0
M  V30 21 C -4.593892 -0.197408 3.124193 0
M  V30 22 F -4.607084 -1.239581 3.978034 0
M  V30 23 C -2.037653 -1.975088 3.031442 0
M  V30 24 C -0.868261 -2.683543 2.922796 0
M  V30 25 O -0.648886 -3.723494 3.593282 0
M  V30 26 H 1.237751 -3.486299 0.939865 0
M  V30 27 H 2.188721 -2.409403 2.138819 0
M  V30 28 H 1.266245 -3.800434 2.663731 0
M  V30 29 H -0.660196 0.978400 0.032800 0
M  V30 30 H 0.979759 1.466432 -0.366601 0
M  V30 31 H -0.206495 0.989317 -2.415467 0
M  V30 32 H -0.778708 -0.619630 -1.750295 0
M  V30 33 H 2.518346 0.870188 -1.450734 0
M  V30 34 H 3.246850 -1.966441 -2.196673 0
M  V30 35 H 3.771974 -0.361880 -2.947563 0
M  V30 36 H 4.609629 -1.730129 -0.363410 0
M  V30 37 H 5.595450 -0.663070 -1.486899 0
M  V30 38 H 4.287915 1.326826 -0.496952 0
M  V30 39 H 5.241190 0.387056 0.664458 0
M  V30 40 H 2.696685 1.012466 1.102525 0
M  V30 41 H 3.433879 -0.481064 1.755022 0
M  V30 42 H 2.444522 -1.797956 -0.107846 0
M  V30 43 H -2.840769 1.402421 0.812709 0
M  V30 44 H -4.822437 2.742563 0.883446 0
M  V30 45 H -6.560768 0.376146 3.806169 0
M  V30 46 H -2.764029 -2.356134 3.724424 0
M  V30 END ATOM
M  V30 BEGIN BOND
M  V30 1 1 1 2
M  V30 2 1 2 3
M  V30 3 1 3 4
M  V30 4 1 4 5
M  V30 5 1 5 6
M  V30 6 1 6 7
M  V30 7 1 7 8
M  V30 8 1 8 9
M  V30 9 1 9 10
M  V30 10 1 10 11
M  V30 11 1 11 12
M  V30 12 1 12 13
M  V30 13 2 3 14
M  V30 14 1 14 15
M  V30 15 1 15 16
M  V30 16 2 16 17
M  V30 17 1 17 18
M  V30 18 2 18 19
M  V30 19 1 19 20
M  V30 20 2 20 21
M  V30 21 1 21 22
M  V30 22 2 15 23
M  V30 23 1 23 24
M  V30 24 2 24 25
M  V30 25 1 24 2
M  V30 26 1 13 4
M  V30 27 1 21 16
M  V30 28 1 13 8
M  V30 29 1 1 26
M  V30 30 1 1 27
M  V30 31 1 1 28
M  V30 32 1 5 29
M  V30 33 1 5 30
M  V30 34 1 6 31
M  V30 35 1 6 32
M  V30 36 1 8 33 CFG=1
M  V30 37 1 9 34
M  V30 38 1 9 35
M  V30 39 1 10 36
M  V30 40 1 10 37
M  V30 41 1 11 38
M  V30 42 1 11 39
M  V30 43 1 12 40
M  V30 44 1 12 41
M  V30 45 1 13 42 CFG=3
M  V30 46 1 17 43
M  V30 47 1 18 44
M  V30 48 1 20 45
M  V30 49 1 23 46
M  V30 END BOND
M  V30 END CTAB
M  END
>  <Dataset>  (714) 
ChEMBL_Kinases

>  <Ligand_Instance>  (714) 
nan

>  <PDB_ID>  (714) 
nan

>  <Standardized_SMILES>  (714) 
Cn1c(N2CCO[C@@H]3CCCC[C@H]32)nc(-c2ccncc2F)cc1=O

>  <Name>  (714) 
nan

>  <Pocket>  (714) 
nan

>  <ATP_Site>  (714) 
nan

>  <Peripheral>  (714) 
nan

>  <Num_H_Atoms_ProtBoundConf>  (714) 
nan

>  <Num_Resolved_Atoms>  (714) 
nan

>  <Num_Not_Resolved_Atoms>  (714) 
nan

$$$$
CHEMBL3401132
     RDKit          3D

  0  0  0  0  0  0  0  0  0  0999 V3000
M  V30 BEGIN CTAB
M  V30 COUNTS 41 44 0 0 0
M  V30 BEGIN ATOM
M  V30 1 C 2.281115 -3.357833 1.387445 0
M  V30 2 N 1.356678 -2.455929 2.013415 0
M  V30 3 C 0.814861 -1.589319 1.125647 0
M  V30 4 N 0.989674 -1.450811 -0.302247 0
M  V30 5 C -0.069017 -2.113314 -1.103464 0
M  V30 6 C -0.689687 -1.014622 -1.940515 0
M  V30 7 O 0.187150 -0.200569 -2.597353 0
M  V30 8 C 1.129153 0.352039 -1.782946 0 CFG=2
M  V30 9 C 2.266195 1.049633 -2.420150 0
M  V30 10 O 3.448527 0.662236 -1.809145 0
M  V30 11 C 3.088515 -0.148711 -0.706997 0
M  V30 12 C 1.903784 -0.848536 -1.215343 0 CFG=1
M  V30 13 N -0.075557 -0.652278 1.509732 0
M  V30 14 C -0.509354 -0.480754 2.773526 0
M  V30 15 C -1.475332 0.545280 3.170021 0
M  V30 16 C -1.919251 0.705561 4.445560 0
M  V30 17 C -2.839077 1.743238 4.621342 0
M  V30 18 N -3.269367 2.536117 3.631287 0
M  V30 19 C -2.839374 2.388198 2.375680 0
M  V30 20 C -1.919818 1.369438 2.130906 0
M  V30 21 F -1.472634 1.213907 0.845740 0
M  V30 22 C 0.051100 -1.369248 3.661832 0
M  V30 23 C 0.959811 -2.332348 3.292501 0
M  V30 24 O 1.504490 -3.171969 4.053543 0
M  V30 25 H 2.898709 -3.823555 2.209675 0
M  V30 26 H 1.771157 -4.191483 0.879121 0
M  V30 27 H 3.029260 -2.849645 0.746418 0
M  V30 28 H -0.868515 -2.520996 -0.462840 0
M  V30 29 H 0.407843 -2.875580 -1.756053 0
M  V30 30 H -1.311002 -1.532132 -2.727610 0
M  V30 31 H -1.437770 -0.508735 -1.296323 0
M  V30 32 H 0.757150 0.997944 -0.964264 0
M  V30 33 H 2.223349 2.168538 -2.311958 0
M  V30 34 H 2.248510 0.868757 -3.519843 0
M  V30 35 H 2.959502 0.506943 0.147450 0
M  V30 36 H 3.958489 -0.851569 -0.590845 0
M  V30 37 H 2.183614 -1.520198 -2.028360 0
M  V30 38 H -1.575218 0.067785 5.235833 0
M  V30 39 H -3.231311 1.925280 5.606763 0
M  V30 40 H -3.153074 3.005586 1.527142 0
M  V30 41 H -0.210442 -1.342398 4.700757 0
M  V30 END ATOM
M  V30 BEGIN BOND
M  V30 1 1 1 2
M  V30 2 1 2 3
M  V30 3 1 3 4
M  V30 4 1 4 5
M  V30 5 1 5 6
M  V30 6 1 6 7
M  V30 7 1 7 8
M  V30 8 1 8 9
M  V30 9 1 9 10
M  V30 10 1 10 11
M  V30 11 1 11 12
M  V30 12 2 3 13
M  V30 13 1 13 14
M  V30 14 1 14 15
M  V30 15 2 15 16
M  V30 16 1 16 17
M  V30 17 2 17 18
M  V30 18 1 18 19
M  V30 19 2 19 20
M  V30 20 1 20 21
M  V30 21 2 14 22
M  V30 22 1 22 23
M  V30 23 2 23 24
M  V30 24 1 23 2
M  V30 25 1 12 4
M  V30 26 1 20 15
M  V30 27 1 12 8
M  V30 28 1 1 25
M  V30 29 1 1 26
M  V30 30 1 1 27
M  V30 31 1 5 28
M  V30 32 1 5 29
M  V30 33 1 6 30
M  V30 34 1 6 31
M  V30 35 1 8 32 CFG=1
M  V30 36 1 9 33
M  V30 37 1 9 34
M  V30 38 1 11 35
M  V30 39 1 11 36
M  V30 40 1 12 37 CFG=3
M  V30 41 1 16 38
M  V30 42 1 17 39
M  V30 43 1 19 40
M  V30 44 1 22 41
M  V30 END BOND
M  V30 END CTAB
M  END
>  <Dataset>  (715) 
ChEMBL_Kinases

>  <Ligand_Instance>  (715) 
nan

>  <PDB_ID>  (715) 
nan

>  <Standardized_SMILES>  (715) 
Cn1c(N2CCO[C@@H]3COC[C@H]32)nc(-c2ccncc2F)cc1=O

>  <Name>  (715) 
nan

>  <Pocket>  (715) 
nan

>  <ATP_Site>  (715) 
nan

>  <Peripheral>  (715) 
nan

>  <Num_H_Atoms_ProtBoundConf>  (715) 
nan

>  <Num_Resolved_Atoms>  (715) 
nan

>  <Num_Not_Resolved_Atoms>  (715) 
nan

$$$$
CHEMBL3401977
     RDKit          3D

  0  0  0  0  0  0  0  0  0  0999 V3000
M  V30 BEGIN CTAB
M  V30 COUNTS 56 60 0 0 0
M  V30 BEGIN ATOM
M  V30 1 O -3.514187 -4.317688 -0.660561 0
M  V30 2 P -3.653684 -4.034135 0.813839 0
M  V30 3 O -2.323311 -4.595438 1.709209 0
M  V30 4 O -5.028301 -4.902934 1.335455 0
M  V30 5 C -3.969661 -2.282858 1.118690 0
M  V30 6 C -2.750506 -1.432057 0.966530 0
M  V30 7 C -2.152064 -1.504108 -0.416790 0 CFG=1
M  V30 8 C -3.093399 -1.056208 -1.489040 0
M  V30 9 C -2.389168 -1.346464 -2.798507 0
M  V30 10 C -1.273637 -0.345802 -2.946568 0
M  V30 11 C -0.997639 0.331970 -1.609553 0
M  V30 12 C -2.169637 1.254754 -1.343268 0
M  V30 13 C -3.418077 0.406821 -1.472349 0
M  V30 14 C -0.902489 -0.676525 -0.474287 0 CFG=2
M  V30 15 N 0.220155 -1.568586 -0.720782 0
M  V30 16 C 1.552092 -1.096370 -0.768157 0
M  V30 17 N 1.866084 0.190963 -0.572833 0
M  V30 18 C 3.148576 0.588552 -0.632978 0
M  V30 19 C 3.569782 1.975305 -0.423060 0
M  V30 20 C 4.849857 2.510144 -0.485266 0
M  V30 21 N 4.823688 3.828689 -0.227094 0
M  V30 22 C 3.558728 4.217894 0.011818 0
M  V30 23 N 3.032560 5.419955 0.313423 0
M  V30 24 C 1.704301 5.556849 0.513312 0
M  V30 25 C 0.855156 4.449498 0.409607 0
M  V30 26 F -0.477486 4.569144 0.606939 0
M  V30 27 C 1.449377 3.238833 0.097399 0
M  V30 28 C 2.798346 3.074904 -0.110629 0
M  V30 29 N 4.136492 -0.292452 -0.889086 0
M  V30 30 C 3.927061 -1.602520 -1.099026 0
M  V30 31 C 2.596995 -1.958102 -1.026464 0
M  V30 32 F 2.292877 -3.277305 -1.228251 0
M  V30 33 H -2.500059 -5.555867 1.904462 0
M  V30 34 H -5.813859 -4.433618 0.922619 0
M  V30 35 H -4.798227 -1.989551 0.444344 0
M  V30 36 H -4.316476 -2.179625 2.168659 0
M  V30 37 H -2.964157 -0.420731 1.319384 0
M  V30 38 H -1.978442 -1.853748 1.665136 0
M  V30 39 H -1.949807 -2.580806 -0.612208 0
M  V30 40 H -4.056060 -1.608654 -1.478191 0
M  V30 41 H -3.070589 -1.387058 -3.669596 0
M  V30 42 H -1.874588 -2.348301 -2.713196 0
M  V30 43 H -0.345608 -0.776054 -3.375567 0
M  V30 44 H -1.617879 0.409879 -3.664150 0
M  V30 45 H -0.098417 0.964029 -1.654454 0
M  V30 46 H -2.097775 1.736374 -0.346654 0
M  V30 47 H -2.180345 2.097638 -2.067150 0
M  V30 48 H -4.185643 0.696916 -0.747210 0
M  V30 49 H -3.836748 0.631280 -2.497544 0
M  V30 50 H -0.743960 -0.117408 0.450451 0
M  V30 51 H 0.057687 -2.606395 -0.871979 0
M  V30 52 H 5.733885 1.907676 -0.716038 0
M  V30 53 H 5.701820 4.405222 -0.229355 0
M  V30 54 H 1.277532 6.519423 0.755481 0
M  V30 55 H 0.796200 2.401659 0.022720 0
M  V30 56 H 4.711317 -2.317731 -1.305036 0
M  V30 END ATOM
M  V30 BEGIN BOND
M  V30 1 2 1 2
M  V30 2 1 2 3
M  V30 3 1 2 4
M  V30 4 1 2 5
M  V30 5 1 5 6
M  V30 6 1 6 7
M  V30 7 1 7 8
M  V30 8 1 8 9
M  V30 9 1 9 10
M  V30 10 1 10 11
M  V30 11 1 11 12
M  V30 12 1 12 13
M  V30 13 1 11 14
M  V30 14 1 14 15
M  V30 15 1 15 16
M  V30 16 2 16 17
M  V30 17 1 17 18
M  V30 18 1 18 19
M  V30 19 2 19 20
M  V30 20 1 20 21
M  V30 21 1 21 22
M  V30 22 2 22 23
M  V30 23 1 23 24
M  V30 24 2 24 25
M  V30 25 1 25 26
M  V30 26 1 25 27
M  V30 27 2 27 28
M  V30 28 2 18 29
M  V30 29 1 29 30
M  V30 30 2 30 31
M  V30 31 1 31 32
M  V30 32 1 14 7
M  V30 33 1 31 16
M  V30 34 1 13 8
M  V30 35 1 28 19
M  V30 36 1 28 22
M  V30 37 1 3 33
M  V30 38 1 4 34
M  V30 39 1 5 35
M  V30 40 1 5 36
M  V30 41 1 6 37
M  V30 42 1 6 38
M  V30 43 1 7 39 CFG=3
M  V30 44 1 8 40
M  V30 45 1 9 41
M  V30 46 1 9 42
M  V30 47 1 10 43
M  V30 48 1 10 44
M  V30 49 1 11 45
M  V30 50 1 12 46
M  V30 51 1 12 47
M  V30 52 1 13 48
M  V30 53 1 13 49
M  V30 54 1 14 50 CFG=1
M  V30 55 1 15 51
M  V30 56 1 20 52
M  V30 57 1 21 53
M  V30 58 1 24 54
M  V30 59 1 27 55
M  V30 60 1 30 56
M  V30 END BOND
M  V30 END CTAB
M  END
>  <Dataset>  (716) 
ChEMBL_Kinases

>  <Ligand_Instance>  (716) 
nan

>  <PDB_ID>  (716) 
nan

>  <Standardized_SMILES>  (716) 
O=P(O)(O)CC[C@H]1C2CCC(CC2)[C@@H]1Nc1nc(-c2c[nH]c3ncc(F)cc23)ncc1F

>  <Name>  (716) 
nan

>  <Pocket>  (716) 
nan

>  <ATP_Site>  (716) 
nan

>  <Peripheral>  (716) 
nan

>  <Num_H_Atoms_ProtBoundConf>  (716) 
nan

>  <Num_Resolved_Atoms>  (716) 
nan

>  <Num_Not_Resolved_Atoms>  (716) 
nan

$$$$
CHEMBL3402446
     RDKit          3D

  0  0  0  0  0  0  0  0  0  0999 V3000
M  V30 BEGIN CTAB
M  V30 COUNTS 38 40 0 0 0
M  V30 BEGIN ATOM
M  V30 1 O 0.641191 -1.609297 1.984506 0
M  V30 2 C 0.342004 -2.220060 0.929551 0
M  V30 3 N 0.804094 -3.490782 0.522326 0
M  V30 4 C 1.719079 -4.262009 1.312988 0
M  V30 5 C 3.085698 -3.703377 1.148810 0
M  V30 6 C 3.729452 -2.752874 1.907174 0
M  V30 7 C 5.007186 -2.308410 1.648996 0
M  V30 8 C 5.722035 -2.831425 0.561752 0
M  V30 9 C 5.096129 -3.793900 -0.222444 0
M  V30 10 F 5.768487 -4.316832 -1.283985 0
M  V30 11 C 3.817027 -4.206679 0.075004 0
M  V30 12 N -0.553048 -1.523409 0.094926 0
M  V30 13 C -1.177336 -0.255584 0.234245 0
M  V30 14 C -0.617954 0.936503 -0.232316 0
M  V30 15 C -1.312661 2.140004 -0.051664 0
M  V30 16 C -2.540293 2.164480 0.579908 0
M  V30 17 C -3.264579 3.439863 0.762789 0
M  V30 18 C -4.109725 3.711187 1.836836 0
M  V30 19 N -4.545836 4.974311 1.595813 0
M  V30 20 N -4.022180 5.441809 0.480394 0
M  V30 21 C -3.212248 4.527972 -0.086074 0
M  V30 22 C -3.126800 0.987666 1.058296 0
M  V30 23 C -2.405651 -0.195607 0.861023 0
M  V30 24 H 0.447780 -3.868776 -0.407843 0
M  V30 25 H 1.464785 -4.239306 2.398238 0
M  V30 26 H 1.696267 -5.297542 0.942410 0
M  V30 27 H 3.149571 -2.375316 2.737418 0
M  V30 28 H 5.432888 -1.566309 2.289344 0
M  V30 29 H 6.724647 -2.486045 0.355338 0
M  V30 30 H 3.404315 -4.961117 -0.588135 0
M  V30 31 H -0.921446 -1.867831 -0.831364 0
M  V30 32 H 0.353792 0.890223 -0.727385 0
M  V30 33 H -0.858550 3.069720 -0.425229 0
M  V30 34 H -4.356405 3.058759 2.668313 0
M  V30 35 H -4.257341 6.400416 0.153774 0
M  V30 36 H -2.650683 4.643195 -1.008864 0
M  V30 37 H -4.089463 0.996214 1.555475 0
M  V30 38 H -2.909510 -1.070965 1.251835 0
M  V30 END ATOM
M  V30 BEGIN BOND
M  V30 1 2 1 2
M  V30 2 1 2 3
M  V30 3 1 3 4
M  V30 4 1 4 5
M  V30 5 2 5 6
M  V30 6 1 6 7
M  V30 7 2 7 8
M  V30 8 1 8 9
M  V30 9 1 9 10
M  V30 10 2 9 11
M  V30 11 1 2 12
M  V30 12 1 12 13
M  V30 13 2 13 14
M  V30 14 1 14 15
M  V30 15 2 15 16
M  V30 16 1 16 17
M  V30 17 1 17 18
M  V30 18 2 18 19
M  V30 19 1 19 20
M  V30 20 1 20 21
M  V30 21 1 16 22
M  V30 22 2 22 23
M  V30 23 1 11 5
M  V30 24 1 23 13
M  V30 25 2 21 17
M  V30 26 1 3 24
M  V30 27 1 4 25
M  V30 28 1 4 26
M  V30 29 1 6 27
M  V30 30 1 7 28
M  V30 31 1 8 29
M  V30 32 1 11 30
M  V30 33 1 12 31
M  V30 34 1 14 32
M  V30 35 1 15 33
M  V30 36 1 18 34
M  V30 37 1 20 35
M  V30 38 1 21 36
M  V30 39 1 22 37
M  V30 40 1 23 38
M  V30 END BOND
M  V30 END CTAB
M  END
>  <Dataset>  (717) 
ChEMBL_Kinases

>  <Ligand_Instance>  (717) 
nan

>  <PDB_ID>  (717) 
nan

>  <Standardized_SMILES>  (717) 
O=C(NCc1cccc(F)c1)Nc1ccc(-c2cn[nH]c2)cc1

>  <Name>  (717) 
nan

>  <Pocket>  (717) 
nan

>  <ATP_Site>  (717) 
nan

>  <Peripheral>  (717) 
nan

>  <Num_H_Atoms_ProtBoundConf>  (717) 
nan

>  <Num_Resolved_Atoms>  (717) 
nan

>  <Num_Not_Resolved_Atoms>  (717) 
nan

$$$$
CHEMBL3401985
     RDKit          3D

  0  0  0  0  0  0  0  0  0  0999 V3000
M  V30 BEGIN CTAB
M  V30 COUNTS 53 58 0 0 0
M  V30 BEGIN ATOM
M  V30 1 O -1.197883 1.383436 6.427872 0
M  V30 2 C -1.124330 1.684118 5.062226 0
M  V30 3 C -0.065854 1.335453 4.250091 0
M  V30 4 C -0.265868 1.760640 2.956562 0
M  V30 5 C 0.515263 1.670397 1.704271 0 CFG=1
M  V30 6 C 1.703054 2.620016 1.839219 0
M  V30 7 C 2.922039 1.911693 2.433148 0
M  V30 8 C 3.435292 0.815320 1.525699 0
M  V30 9 C 2.318389 0.466142 0.577137 0
M  V30 10 C 2.124175 1.660037 -0.338194 0
M  V30 11 C 2.090474 2.975171 0.407225 0
M  V30 12 C 1.058980 0.273513 1.455302 0 CFG=2
M  V30 13 N 0.197083 -0.566861 0.694156 0
M  V30 14 C 0.272832 -1.953999 0.413829 0
M  V30 15 N -0.623107 -2.564837 -0.375398 0
M  V30 16 C -0.582150 -3.879969 -0.643058 0
M  V30 17 C -1.611476 -4.438804 -1.517593 0
M  V30 18 C -1.719277 -5.760255 -1.893827 0
M  V30 19 N -2.786270 -5.930730 -2.708223 0
M  V30 20 C -3.378611 -4.729292 -2.868205 0
M  V30 21 N -4.480369 -4.358396 -3.585897 0
M  V30 22 C -4.897129 -3.062856 -3.596982 0
M  V30 23 C -4.188184 -2.128500 -2.870773 0
M  V30 24 F -4.590896 -0.815312 -2.867682 0
M  V30 25 C -3.057164 -2.449505 -2.120600 0
M  V30 26 C -2.657974 -3.782113 -2.130659 0
M  V30 27 N 0.360652 -4.653817 -0.132897 0
M  V30 28 C 1.321637 -4.144928 0.680893 0
M  V30 29 C 1.236326 -2.784546 0.926870 0
M  V30 30 F 2.191298 -2.317698 1.748331 0
M  V30 31 N -1.471605 2.371076 3.021914 0
M  V30 32 N -1.983113 2.330916 4.254810 0
M  V30 33 H -1.658990 0.501256 6.667427 0
M  V30 34 H 0.799776 0.804443 4.563436 0
M  V30 35 H -0.056990 2.032235 0.834438 0
M  V30 36 H 1.431245 3.475081 2.448605 0
M  V30 37 H 2.755265 1.545846 3.451708 0
M  V30 38 H 3.715782 2.715607 2.447689 0
M  V30 39 H 3.752777 -0.046580 2.149367 0
M  V30 40 H 4.301631 1.132010 0.915805 0
M  V30 41 H 2.470637 -0.408116 -0.042007 0
M  V30 42 H 3.046105 1.697564 -0.963925 0
M  V30 43 H 1.256928 1.539330 -1.004808 0
M  V30 44 H 1.265120 3.585866 -0.059561 0
M  V30 45 H 3.042407 3.513548 0.415656 0
M  V30 46 H 1.419091 -0.173335 2.397343 0
M  V30 47 H -0.621989 -0.050632 0.282997 0
M  V30 48 H -1.059170 -6.570078 -1.596194 0
M  V30 49 H -3.156822 -6.803472 -3.174374 0
M  V30 50 H -5.770837 -2.784781 -4.169688 0
M  V30 51 H -2.507432 -1.715004 -1.555184 0
M  V30 52 H 2.090389 -4.779161 1.096151 0
M  V30 53 H -1.995094 2.838879 2.233153 0
M  V30 END ATOM
M  V30 BEGIN BOND
M  V30 1 1 1 2
M  V30 2 1 2 3
M  V30 3 2 3 4
M  V30 4 1 4 5
M  V30 5 1 5 6
M  V30 6 1 6 7
M  V30 7 1 7 8
M  V30 8 1 8 9
M  V30 9 1 9 10
M  V30 10 1 10 11
M  V30 11 1 9 12
M  V30 12 1 12 13
M  V30 13 1 13 14
M  V30 14 2 14 15
M  V30 15 1 15 16
M  V30 16 1 16 17
M  V30 17 2 17 18
M  V30 18 1 18 19
M  V30 19 1 19 20
M  V30 20 2 20 21
M  V30 21 1 21 22
M  V30 22 2 22 23
M  V30 23 1 23 24
M  V30 24 1 23 25
M  V30 25 2 25 26
M  V30 26 2 16 27
M  V30 27 1 27 28
M  V30 28 2 28 29
M  V30 29 1 29 30
M  V30 30 1 4 31
M  V30 31 1 31 32
M  V30 32 2 32 2
M  V30 33 1 12 5
M  V30 34 1 29 14
M  V30 35 1 11 6
M  V30 36 1 26 17
M  V30 37 1 26 20
M  V30 38 1 1 33
M  V30 39 1 3 34
M  V30 40 1 5 35 CFG=3
M  V30 41 1 6 36
M  V30 42 1 7 37
M  V30 43 1 7 38
M  V30 44 1 8 39
M  V30 45 1 8 40
M  V30 46 1 9 41
M  V30 47 1 10 42
M  V30 48 1 10 43
M  V30 49 1 11 44
M  V30 50 1 11 45
M  V30 51 1 12 46 CFG=1
M  V30 52 1 13 47
M  V30 53 1 18 48
M  V30 54 1 19 49
M  V30 55 1 22 50
M  V30 56 1 25 51
M  V30 57 1 28 52
M  V30 58 1 31 53
M  V30 END BOND
M  V30 END CTAB
M  END
>  <Dataset>  (718) 
ChEMBL_Kinases

>  <Ligand_Instance>  (718) 
nan

>  <PDB_ID>  (718) 
nan

>  <Standardized_SMILES>  (718) 
Oc1cc([C@H]2C3CCC(CC3)[C@@H]2Nc2nc(-c3c[nH]c4ncc(F)cc34)ncc2F)[nH]n1

>  <Name>  (718) 
nan

>  <Pocket>  (718) 
nan

>  <ATP_Site>  (718) 
nan

>  <Peripheral>  (718) 
nan

>  <Num_H_Atoms_ProtBoundConf>  (718) 
nan

>  <Num_Resolved_Atoms>  (718) 
nan

>  <Num_Not_Resolved_Atoms>  (718) 
nan

$$$$
CHEMBL3401988
     RDKit          3D

  0  0  0  0  0  0  0  0  0  0999 V3000
M  V30 BEGIN CTAB
M  V30 COUNTS 53 58 0 0 0
M  V30 BEGIN ATOM
M  V30 1 C -1.359112 -2.828623 3.846382 0
M  V30 2 C -0.701991 -2.549742 2.545648 0
M  V30 3 N -1.297788 -2.639444 1.348082 0
M  V30 4 O -0.444559 -2.329367 0.417674 0
M  V30 5 C 0.708347 -2.030869 0.912077 0
M  V30 6 C 1.933240 -1.632251 0.243305 0 CFG=1
M  V30 7 C 2.325958 -2.470707 -0.951660 0
M  V30 8 C 3.861575 -2.460359 -0.978585 0
M  V30 9 C 4.267218 -1.023543 -0.662066 0
M  V30 10 C 3.166169 -0.059320 -1.129601 0
M  V30 11 C 2.807612 -0.595650 -2.525309 0
M  V30 12 C 1.924960 -1.807870 -2.266333 0
M  V30 13 C 1.934867 -0.195651 -0.292986 0 CFG=2
M  V30 14 N 1.770330 0.746109 0.754369 0
M  V30 15 C 0.662014 1.168272 1.519799 0
M  V30 16 N -0.607625 0.768263 1.339222 0
M  V30 17 C -1.617796 1.197119 2.128186 0
M  V30 18 C -3.008287 0.813312 1.931377 0
M  V30 19 C -4.083991 1.077869 2.753693 0
M  V30 20 N -5.216247 0.580704 2.230840 0
M  V30 21 C -4.954649 -0.022307 1.065537 0
M  V30 22 N -5.749887 -0.651543 0.183591 0
M  V30 23 C -5.207719 -1.170614 -0.938465 0
M  V30 24 C -3.857311 -1.071807 -1.203987 0
M  V30 25 F -3.392635 -1.613349 -2.342680 0
M  V30 26 C -3.090082 -0.420254 -0.271581 0
M  V30 27 C -3.594566 0.129220 0.895002 0
M  V30 28 N -1.378799 2.040033 3.122216 0
M  V30 29 C -0.148864 2.482962 3.366088 0
M  V30 30 C 0.873063 2.044963 2.561359 0
M  V30 31 F 2.115779 2.511235 2.830086 0
M  V30 32 N 0.554172 -2.167958 2.263669 0
M  V30 33 H -2.131526 -3.613931 3.759485 0
M  V30 34 H -1.792818 -1.900139 4.287572 0
M  V30 35 H -0.616921 -3.202249 4.599680 0
M  V30 36 H 2.781472 -1.627889 1.002825 0
M  V30 37 H 1.926930 -3.494691 -0.935099 0
M  V30 38 H 4.176384 -3.162950 -0.192489 0
M  V30 39 H 4.163082 -2.765808 -1.999079 0
M  V30 40 H 5.126478 -0.786736 -1.355014 0
M  V30 41 H 4.563024 -0.865125 0.372192 0
M  V30 42 H 3.585195 0.950045 -1.164937 0
M  V30 43 H 3.733358 -0.962715 -3.021917 0
M  V30 44 H 2.291326 0.168288 -3.135946 0
M  V30 45 H 2.133328 -2.570982 -3.053217 0
M  V30 46 H 0.853953 -1.598617 -2.322728 0
M  V30 47 H 1.041171 -0.074963 -0.985302 0
M  V30 48 H 2.700181 1.187626 0.959025 0
M  V30 49 H -4.042878 1.619385 3.710096 0
M  V30 50 H -6.166306 0.668061 2.696087 0
M  V30 51 H -5.944961 -1.651228 -1.569138 0
M  V30 52 H -2.042200 -0.327370 -0.464278 0
M  V30 53 H 0.054398 3.179174 4.184835 0
M  V30 END ATOM
M  V30 BEGIN BOND
M  V30 1 1 1 2
M  V30 2 2 2 3
M  V30 3 1 3 4
M  V30 4 1 4 5
M  V30 5 1 5 6
M  V30 6 1 6 7
M  V30 7 1 7 8
M  V30 8 1 8 9
M  V30 9 1 9 10
M  V30 10 1 10 11
M  V30 11 1 11 12
M  V30 12 1 10 13
M  V30 13 1 13 14
M  V30 14 1 14 15
M  V30 15 2 15 16
M  V30 16 1 16 17
M  V30 17 1 17 18
M  V30 18 2 18 19
M  V30 19 1 19 20
M  V30 20 1 20 21
M  V30 21 2 21 22
M  V30 22 1 22 23
M  V30 23 2 23 24
M  V30 24 1 24 25
M  V30 25 1 24 26
M  V30 26 2 26 27
M  V30 27 2 17 28
M  V30 28 1 28 29
M  V30 29 2 29 30
M  V30 30 1 30 31
M  V30 31 2 5 32
M  V30 32 1 32 2
M  V30 33 1 13 6
M  V30 34 1 30 15
M  V30 35 1 12 7
M  V30 36 1 27 18
M  V30 37 1 27 21
M  V30 38 1 1 33
M  V30 39 1 1 34
M  V30 40 1 1 35
M  V30 41 1 6 36 CFG=1
M  V30 42 1 7 37
M  V30 43 1 8 38
M  V30 44 1 8 39
M  V30 45 1 9 40
M  V30 46 1 9 41
M  V30 47 1 10 42
M  V30 48 1 11 43
M  V30 49 1 11 44
M  V30 50 1 12 45
M  V30 51 1 12 46
M  V30 52 1 13 47 CFG=3
M  V30 53 1 14 48
M  V30 54 1 19 49
M  V30 55 1 20 50
M  V30 56 1 23 51
M  V30 57 1 26 52
M  V30 58 1 29 53
M  V30 END BOND
M  V30 END CTAB
M  END
>  <Dataset>  (719) 
ChEMBL_Kinases

>  <Ligand_Instance>  (719) 
nan

>  <PDB_ID>  (719) 
nan

>  <Standardized_SMILES>  (719) 
Cc1noc([C@H]2C3CCC(CC3)[C@@H]2Nc2nc(-c3c[nH]c4ncc(F)cc34)ncc2F)n1

>  <Name>  (719) 
nan

>  <Pocket>  (719) 
nan

>  <ATP_Site>  (719) 
nan

>  <Peripheral>  (719) 
nan

>  <Num_H_Atoms_ProtBoundConf>  (719) 
nan

>  <Num_Resolved_Atoms>  (719) 
nan

>  <Num_Not_Resolved_Atoms>  (719) 
nan

$$$$
CHEMBL3401990
     RDKit          3D

  0  0  0  0  0  0  0  0  0  0999 V3000
M  V30 BEGIN CTAB
M  V30 COUNTS 51 55 0 0 0
M  V30 BEGIN ATOM
M  V30 1 C -0.821514 0.912787 -1.429571 0
M  V30 2 S 0.835401 0.287184 -1.534265 0
M  V30 3 O 0.804548 -0.906709 -2.460880 0
M  V30 4 O 1.669984 1.347046 -2.161320 0
M  V30 5 C 1.457379 -0.225777 0.030305 0 CFG=1
M  V30 6 C 2.817741 -0.849648 -0.067921 0
M  V30 7 C 3.244199 -1.142327 1.392667 0
M  V30 8 C 3.646826 0.146847 2.070118 0
M  V30 9 C 2.995572 1.283960 1.272579 0
M  V30 10 C 3.813672 1.378508 0.016202 0
M  V30 11 C 3.822891 0.070297 -0.706802 0
M  V30 12 C 1.530780 0.912198 1.019021 0 CFG=2
M  V30 13 N 0.935328 0.648233 2.291126 0
M  V30 14 C -0.261728 0.014900 2.690014 0
M  V30 15 N -1.124814 -0.591913 1.854066 0
M  V30 16 C -2.244121 -1.127589 2.367718 0
M  V30 17 C -3.255213 -1.852166 1.607446 0
M  V30 18 C -4.516316 -2.305377 2.014179 0
M  V30 19 N -5.129896 -2.945162 1.026823 0
M  V30 20 C -4.360464 -2.968667 -0.067582 0
M  V30 21 N -4.588240 -3.505247 -1.256721 0
M  V30 22 C -3.670365 -3.430962 -2.244449 0
M  V30 23 C -2.489678 -2.766896 -1.940385 0
M  V30 24 F -1.591117 -2.711129 -2.950893 0
M  V30 25 C -2.264934 -2.211032 -0.694674 0
M  V30 26 C -3.202528 -2.290878 0.300093 0
M  V30 27 N -2.544774 -1.082830 3.698880 0
M  V30 28 C -1.735087 -0.497765 4.585778 0
M  V30 29 C -0.591826 0.047274 4.053333 0
M  V30 30 F 0.219596 0.641499 4.996504 0
M  V30 31 H -1.540524 0.270441 -1.994365 0
M  V30 32 H -0.894962 1.934859 -1.888902 0
M  V30 33 H -1.206535 1.024194 -0.418641 0
M  V30 34 H 0.785439 -1.040864 0.405694 0
M  V30 35 H 2.818850 -1.843791 -0.568837 0
M  V30 36 H 4.073121 -1.848105 1.445799 0
M  V30 37 H 2.329811 -1.507768 1.903850 0
M  V30 38 H 3.382009 0.235681 3.114127 0
M  V30 39 H 4.751170 0.312658 2.008653 0
M  V30 40 H 3.015447 2.221841 1.837681 0
M  V30 41 H 4.881853 1.514581 0.395179 0
M  V30 42 H 3.631765 2.271648 -0.593853 0
M  V30 43 H 3.580463 0.228792 -1.759922 0
M  V30 44 H 4.832671 -0.434211 -0.635498 0
M  V30 45 H 1.062698 1.796108 0.559307 0
M  V30 46 H 1.530026 1.022321 3.098336 0
M  V30 47 H -4.934156 -2.152784 3.004784 0
M  V30 48 H -6.088956 -3.370676 1.106286 0
M  V30 49 H -3.854193 -3.867108 -3.213425 0
M  V30 50 H -1.341104 -1.710639 -0.476950 0
M  V30 51 H -1.968492 -0.462544 5.623969 0
M  V30 END ATOM
M  V30 BEGIN BOND
M  V30 1 1 1 2
M  V30 2 2 2 3
M  V30 3 2 2 4
M  V30 4 1 2 5
M  V30 5 1 5 6
M  V30 6 1 6 7
M  V30 7 1 7 8
M  V30 8 1 8 9
M  V30 9 1 9 10
M  V30 10 1 10 11
M  V30 11 1 9 12
M  V30 12 1 12 13
M  V30 13 1 13 14
M  V30 14 2 14 15
M  V30 15 1 15 16
M  V30 16 1 16 17
M  V30 17 2 17 18
M  V30 18 1 18 19
M  V30 19 1 19 20
M  V30 20 2 20 21
M  V30 21 1 21 22
M  V30 22 2 22 23
M  V30 23 1 23 24
M  V30 24 1 23 25
M  V30 25 2 25 26
M  V30 26 2 16 27
M  V30 27 1 27 28
M  V30 28 2 28 29
M  V30 29 1 29 30
M  V30 30 1 12 5
M  V30 31 1 29 14
M  V30 32 1 11 6
M  V30 33 1 26 17
M  V30 34 1 26 20
M  V30 35 1 1 31
M  V30 36 1 1 32
M  V30 37 1 1 33
M  V30 38 1 5 34 CFG=1
M  V30 39 1 6 35
M  V30 40 1 7 36
M  V30 41 1 7 37
M  V30 42 1 8 38
M  V30 43 1 8 39
M  V30 44 1 9 40
M  V30 45 1 10 41
M  V30 46 1 10 42
M  V30 47 1 11 43
M  V30 48 1 11 44
M  V30 49 1 12 45 CFG=3
M  V30 50 1 13 46
M  V30 51 1 18 47
M  V30 52 1 19 48
M  V30 53 1 22 49
M  V30 54 1 25 50
M  V30 55 1 28 51
M  V30 END BOND
M  V30 END CTAB
M  END
>  <Dataset>  (720) 
ChEMBL_Kinases

>  <Ligand_Instance>  (720) 
nan

>  <PDB_ID>  (720) 
nan

>  <Standardized_SMILES>  (720) 
CS(=O)(=O)[C@H]1C2CCC(CC2)[C@@H]1Nc1nc(-c2c[nH]c3ncc(F)cc23)ncc1F

>  <Name>  (720) 
nan

>  <Pocket>  (720) 
nan

>  <ATP_Site>  (720) 
nan

>  <Peripheral>  (720) 
nan

>  <Num_H_Atoms_ProtBoundConf>  (720) 
nan

>  <Num_Resolved_Atoms>  (720) 
nan

>  <Num_Not_Resolved_Atoms>  (720) 
nan

$$$$
CHEMBL3402441
     RDKit          3D

  0  0  0  0  0  0  0  0  0  0999 V3000
M  V30 BEGIN CTAB
M  V30 COUNTS 42 44 0 0 0
M  V30 BEGIN ATOM
M  V30 1 C -2.958706 -3.563867 -1.610188 0
M  V30 2 O -1.770642 -2.868708 -2.007537 0
M  V30 3 C -0.623705 -3.113559 -1.256145 0
M  V30 4 C -0.625977 -3.979648 -0.181684 0
M  V30 5 C 0.526908 -4.203458 0.546359 0
M  V30 6 C 1.709023 -3.563290 0.215704 0
M  V30 7 C 1.633165 -2.719259 -0.861120 0
M  V30 8 C 0.534389 -2.436647 -1.642994 0
M  V30 9 C 0.475835 -1.498369 -2.792346 0
M  V30 10 N 1.584997 -0.541815 -2.593215 0
M  V30 11 C 1.644790 0.217073 -1.420013 0
M  V30 12 O 0.671317 -0.040511 -0.600703 0
M  V30 13 N 2.459159 1.214966 -0.805115 0
M  V30 14 C 1.838808 1.510028 0.473799 0
M  V30 15 C 0.907753 2.510220 0.634188 0
M  V30 16 C 0.365421 2.634241 1.894225 0
M  V30 17 C 0.806164 1.742929 2.881537 0
M  V30 18 C 0.253171 1.856960 4.249042 0
M  V30 19 C -1.049793 2.289826 4.444253 0
M  V30 20 N -1.163861 2.247822 5.787226 0
M  V30 21 N -0.047289 1.834959 6.317582 0
M  V30 22 C 0.911118 1.562209 5.406878 0
M  V30 23 C 1.745227 0.746986 2.696327 0
M  V30 24 C 2.284025 0.625896 1.435183 0
M  V30 25 H -3.163285 -3.329673 -0.541774 0
M  V30 26 H -3.810679 -3.343054 -2.293348 0
M  V30 27 H -2.722207 -4.638099 -1.635657 0
M  V30 28 H -1.526309 -4.502546 0.117755 0
M  V30 29 H 0.502020 -4.903730 1.399364 0
M  V30 30 H 2.630404 -3.707746 0.758796 0
M  V30 31 H 2.542418 -2.185486 -1.184282 0
M  V30 32 H 0.494372 -1.936142 -3.773617 0
M  V30 33 H -0.436978 -0.853827 -2.617506 0
M  V30 34 H 2.430960 -0.246902 -3.171175 0
M  V30 35 H 3.245683 1.396863 -1.496580 0
M  V30 36 H 0.646551 3.139265 -0.203419 0
M  V30 37 H -0.368469 3.396239 2.097291 0
M  V30 38 H -1.858400 2.600025 3.804380 0
M  V30 39 H 0.185539 1.700977 7.350183 0
M  V30 40 H 1.918765 1.217637 5.380331 0
M  V30 41 H 2.030218 0.097386 3.512247 0
M  V30 42 H 3.012993 -0.158718 1.317482 0
M  V30 END ATOM
M  V30 BEGIN BOND
M  V30 1 1 1 2
M  V30 2 1 2 3
M  V30 3 2 3 4
M  V30 4 1 4 5
M  V30 5 2 5 6
M  V30 6 1 6 7
M  V30 7 2 7 8
M  V30 8 1 8 9
M  V30 9 1 9 10
M  V30 10 1 10 11
M  V30 11 2 11 12
M  V30 12 1 11 13
M  V30 13 1 13 14
M  V30 14 2 14 15
M  V30 15 1 15 16
M  V30 16 2 16 17
M  V30 17 1 17 18
M  V30 18 1 18 19
M  V30 19 2 19 20
M  V30 20 1 20 21
M  V30 21 1 21 22
M  V30 22 1 17 23
M  V30 23 2 23 24
M  V30 24 1 8 3
M  V30 25 1 24 14
M  V30 26 2 22 18
M  V30 27 1 1 25
M  V30 28 1 1 26
M  V30 29 1 1 27
M  V30 30 1 4 28
M  V30 31 1 5 29
M  V30 32 1 6 30
M  V30 33 1 7 31
M  V30 34 1 9 32
M  V30 35 1 9 33
M  V30 36 1 10 34
M  V30 37 1 13 35
M  V30 38 1 15 36
M  V30 39 1 16 37
M  V30 40 1 19 38
M  V30 41 1 21 39
M  V30 42 1 22 40
M  V30 43 1 23 41
M  V30 44 1 24 42
M  V30 END BOND
M  V30 END CTAB
M  END
>  <Dataset>  (721) 
ChEMBL_Kinases

>  <Ligand_Instance>  (721) 
nan

>  <PDB_ID>  (721) 
nan

>  <Standardized_SMILES>  (721) 
COc1ccccc1CNC(=O)Nc1ccc(-c2cn[nH]c2)cc1

>  <Name>  (721) 
nan

>  <Pocket>  (721) 
nan

>  <ATP_Site>  (721) 
nan

>  <Peripheral>  (721) 
nan

>  <Num_H_Atoms_ProtBoundConf>  (721) 
nan

>  <Num_Resolved_Atoms>  (721) 
nan

>  <Num_Not_Resolved_Atoms>  (721) 
nan

$$$$
CHEMBL3402442
     RDKit          3D

  0  0  0  0  0  0  0  0  0  0999 V3000
M  V30 BEGIN CTAB
M  V30 COUNTS 42 44 0 0 0
M  V30 BEGIN ATOM
M  V30 1 C 2.267748 -6.600981 1.099702 0
M  V30 2 O 2.950389 -5.860989 0.113739 0
M  V30 3 C 2.415251 -4.787500 -0.583671 0
M  V30 4 C 1.134527 -4.267338 -0.430733 0
M  V30 5 C 0.789610 -3.192388 -1.221148 0
M  V30 6 C 1.612106 -2.591953 -2.150618 0
M  V30 7 C 1.158411 -1.436680 -2.959285 0
M  V30 8 N 1.444863 -0.166731 -2.320823 0
M  V30 9 C 0.768086 0.418608 -1.246156 0
M  V30 10 O -0.210106 -0.118815 -0.689159 0
M  V30 11 N 1.111735 1.669529 -0.676933 0
M  V30 12 C 0.248826 2.020627 0.410045 0
M  V30 13 C 0.747123 1.547850 1.627824 0
M  V30 14 C 0.047272 1.786930 2.816262 0
M  V30 15 C -1.135179 2.489556 2.787593 0
M  V30 16 C -1.849939 2.729060 4.035812 0
M  V30 17 C -1.117612 2.879899 5.216350 0
M  V30 18 N -1.986696 3.090979 6.236403 0
M  V30 19 N -3.214062 3.079035 5.752534 0
M  V30 20 C -3.178047 2.861178 4.412552 0
M  V30 21 C -1.601478 2.941842 1.579936 0
M  V30 22 C -0.937505 2.723949 0.391275 0
M  V30 23 C 2.898239 -3.126666 -2.293356 0
M  V30 24 C 3.255646 -4.198383 -1.511817 0
M  V30 25 H 2.975505 -6.965640 1.897083 0
M  V30 26 H 1.555250 -5.903810 1.602327 0
M  V30 27 H 1.695418 -7.448601 0.697987 0
M  V30 28 H 0.505367 -4.744966 0.296171 0
M  V30 29 H -0.220305 -2.843931 -1.046222 0
M  V30 30 H 0.035987 -1.483897 -3.007281 0
M  V30 31 H 1.501472 -1.432541 -3.995323 0
M  V30 32 H 2.252111 0.381735 -2.704138 0
M  V30 33 H 1.932671 2.214118 -1.078702 0
M  V30 34 H 1.661592 0.987554 1.765804 0
M  V30 35 H 0.402233 1.436776 3.774746 0
M  V30 36 H -0.040621 2.851514 5.402137 0
M  V30 37 H -4.179554 3.198120 6.169257 0
M  V30 38 H -3.903759 2.772111 3.615159 0
M  V30 39 H -2.528011 3.497231 1.521419 0
M  V30 40 H -1.225697 3.038378 -0.588461 0
M  V30 41 H 3.555063 -2.665901 -3.018736 0
M  V30 42 H 4.270963 -4.571413 -1.667841 0
M  V30 END ATOM
M  V30 BEGIN BOND
M  V30 1 1 1 2
M  V30 2 1 2 3
M  V30 3 2 3 4
M  V30 4 1 4 5
M  V30 5 2 5 6
M  V30 6 1 6 7
M  V30 7 1 7 8
M  V30 8 1 8 9
M  V30 9 2 9 10
M  V30 10 1 9 11
M  V30 11 1 11 12
M  V30 12 2 12 13
M  V30 13 1 13 14
M  V30 14 2 14 15
M  V30 15 1 15 16
M  V30 16 1 16 17
M  V30 17 2 17 18
M  V30 18 1 18 19
M  V30 19 1 19 20
M  V30 20 1 15 21
M  V30 21 2 21 22
M  V30 22 1 6 23
M  V30 23 2 23 24
M  V30 24 1 24 3
M  V30 25 1 22 12
M  V30 26 2 20 16
M  V30 27 1 1 25
M  V30 28 1 1 26
M  V30 29 1 1 27
M  V30 30 1 4 28
M  V30 31 1 5 29
M  V30 32 1 7 30
M  V30 33 1 7 31
M  V30 34 1 8 32
M  V30 35 1 11 33
M  V30 36 1 13 34
M  V30 37 1 14 35
M  V30 38 1 17 36
M  V30 39 1 19 37
M  V30 40 1 20 38
M  V30 41 1 21 39
M  V30 42 1 22 40
M  V30 43 1 23 41
M  V30 44 1 24 42
M  V30 END BOND
M  V30 END CTAB
M  END
>  <Dataset>  (722) 
ChEMBL_Kinases

>  <Ligand_Instance>  (722) 
nan

>  <PDB_ID>  (722) 
nan

>  <Standardized_SMILES>  (722) 
COc1ccc(CNC(=O)Nc2ccc(-c3cn[nH]c3)cc2)cc1

>  <Name>  (722) 
nan

>  <Pocket>  (722) 
nan

>  <ATP_Site>  (722) 
nan

>  <Peripheral>  (722) 
nan

>  <Num_H_Atoms_ProtBoundConf>  (722) 
nan

>  <Num_Resolved_Atoms>  (722) 
nan

>  <Num_Not_Resolved_Atoms>  (722) 
nan

$$$$
CHEMBL3402443
     RDKit          3D

  0  0  0  0  0  0  0  0  0  0999 V3000
M  V30 BEGIN CTAB
M  V30 COUNTS 41 43 0 0 0
M  V30 BEGIN ATOM
M  V30 1 C -0.486017 -4.710971 -0.001921 0
M  V30 2 C 0.744285 -3.896045 -0.257287 0
M  V30 3 C 1.803199 -3.857498 0.622488 0
M  V30 4 C 2.897573 -3.079154 0.306522 0
M  V30 5 C 3.001750 -2.328357 -0.846022 0
M  V30 6 C 1.935861 -2.373799 -1.720263 0
M  V30 7 C 1.913521 -1.603296 -3.014629 0
M  V30 8 N 1.314564 -0.286610 -2.752379 0
M  V30 9 C 0.866304 0.111482 -1.442112 0
M  V30 10 O 0.920911 -0.572886 -0.388674 0
M  V30 11 N 0.287571 1.402390 -1.232236 0
M  V30 12 C -0.060345 1.512318 0.166474 0
M  V30 13 C 0.870311 2.029133 1.045941 0
M  V30 14 C 0.491242 2.113620 2.389004 0
M  V30 15 C -0.763463 1.691105 2.786629 0
M  V30 16 C -1.099837 1.807636 4.218548 0
M  V30 17 C -0.111869 1.674402 5.174779 0
M  V30 18 N -0.681268 1.820893 6.396118 0
M  V30 19 N -1.968811 2.037858 6.246043 0
M  V30 20 C -2.270715 2.037912 4.923530 0
M  V30 21 C -1.685038 1.173638 1.882250 0
M  V30 22 C -1.320199 1.083276 0.536039 0
M  V30 23 C 0.829585 -3.144767 -1.427617 0
M  V30 24 H -1.080685 -4.102018 0.740797 0
M  V30 25 H -0.201671 -5.651749 0.493342 0
M  V30 26 H -1.042502 -4.844559 -0.931421 0
M  V30 27 H 1.773966 -4.422794 1.534538 0
M  V30 28 H 3.741715 -3.045043 1.002370 0
M  V30 29 H 3.866020 -1.718153 -1.086603 0
M  V30 30 H 2.962151 -1.392045 -3.363667 0
M  V30 31 H 1.339157 -2.093376 -3.798108 0
M  V30 32 H 1.217387 0.371369 -3.551451 0
M  V30 33 H 0.179712 2.079728 -2.026942 0
M  V30 34 H 1.841401 2.345457 0.678419 0
M  V30 35 H 1.196245 2.513224 3.103220 0
M  V30 36 H 0.942689 1.488440 5.061615 0
M  V30 37 H -2.757581 2.199543 6.903665 0
M  V30 38 H -3.174002 2.170744 4.324715 0
M  V30 39 H -2.664397 0.844168 2.199650 0
M  V30 40 H -2.007077 0.686147 -0.202107 0
M  V30 41 H -0.008810 -3.167411 -2.138176 0
M  V30 END ATOM
M  V30 BEGIN BOND
M  V30 1 1 1 2
M  V30 2 2 2 3
M  V30 3 1 3 4
M  V30 4 2 4 5
M  V30 5 1 5 6
M  V30 6 1 6 7
M  V30 7 1 7 8
M  V30 8 1 8 9
M  V30 9 2 9 10
M  V30 10 1 9 11
M  V30 11 1 11 12
M  V30 12 2 12 13
M  V30 13 1 13 14
M  V30 14 2 14 15
M  V30 15 1 15 16
M  V30 16 1 16 17
M  V30 17 2 17 18
M  V30 18 1 18 19
M  V30 19 1 19 20
M  V30 20 1 15 21
M  V30 21 2 21 22
M  V30 22 2 6 23
M  V30 23 1 23 2
M  V30 24 1 22 12
M  V30 25 2 20 16
M  V30 26 1 1 24
M  V30 27 1 1 25
M  V30 28 1 1 26
M  V30 29 1 3 27
M  V30 30 1 4 28
M  V30 31 1 5 29
M  V30 32 1 7 30
M  V30 33 1 7 31
M  V30 34 1 8 32
M  V30 35 1 11 33
M  V30 36 1 13 34
M  V30 37 1 14 35
M  V30 38 1 17 36
M  V30 39 1 19 37
M  V30 40 1 20 38
M  V30 41 1 21 39
M  V30 42 1 22 40
M  V30 43 1 23 41
M  V30 END BOND
M  V30 END CTAB
M  END
>  <Dataset>  (723) 
ChEMBL_Kinases

>  <Ligand_Instance>  (723) 
nan

>  <PDB_ID>  (723) 
nan

>  <Standardized_SMILES>  (723) 
Cc1cccc(CNC(=O)Nc2ccc(-c3cn[nH]c3)cc2)c1

>  <Name>  (723) 
nan

>  <Pocket>  (723) 
nan

>  <ATP_Site>  (723) 
nan

>  <Peripheral>  (723) 
nan

>  <Num_H_Atoms_ProtBoundConf>  (723) 
nan

>  <Num_Resolved_Atoms>  (723) 
nan

>  <Num_Not_Resolved_Atoms>  (723) 
nan

$$$$
CHEMBL3402444
     RDKit          3D

  0  0  0  0  0  0  0  0  0  0999 V3000
M  V30 BEGIN CTAB
M  V30 COUNTS 40 42 0 0 0
M  V30 BEGIN ATOM
M  V30 1 N -1.190454 -6.359249 -1.739130 0
M  V30 2 C -0.310097 -5.283346 -1.439472 0
M  V30 3 C 0.507474 -5.496485 -0.327433 0
M  V30 4 C 1.401833 -4.500673 0.041573 0
M  V30 5 C 1.414346 -3.365419 -0.726792 0
M  V30 6 C 0.624999 -3.117718 -1.829267 0
M  V30 7 C 0.630034 -1.906588 -2.659762 0
M  V30 8 N -0.289798 -0.878010 -2.214908 0
M  V30 9 C -0.052022 -0.032037 -1.100275 0
M  V30 10 O 0.977189 -0.085376 -0.383872 0
M  V30 11 N -0.973180 0.971499 -0.684596 0
M  V30 12 C -0.464097 1.668951 0.471803 0
M  V30 13 C 0.326149 2.796066 0.463946 0
M  V30 14 C 0.726166 3.338474 1.675185 0
M  V30 15 C 0.326961 2.741855 2.866327 0
M  V30 16 C 0.760219 3.328901 4.128100 0
M  V30 17 C 1.014282 4.646165 4.472903 0
M  V30 18 N 1.390521 4.661825 5.770490 0
M  V30 19 N 1.381963 3.423398 6.244226 0
M  V30 20 C 1.004362 2.584373 5.276698 0
M  V30 21 C -0.469930 1.605539 2.859486 0
M  V30 22 C -0.873730 1.057419 1.658511 0
M  V30 23 C -0.258114 -4.114681 -2.184080 0
M  V30 24 H -1.933284 -6.312970 -1.017130 0
M  V30 25 H -1.424821 -7.155776 -2.340616 0
M  V30 26 H 0.464122 -6.406119 0.248936 0
M  V30 27 H 2.050827 -4.617957 0.887985 0
M  V30 28 H 2.110628 -2.583653 -0.445256 0
M  V30 29 H 0.515613 -2.127446 -3.736375 0
M  V30 30 H 1.652997 -1.445976 -2.530925 0
M  V30 31 H -1.168504 -0.775499 -2.762255 0
M  V30 32 H -1.872835 1.091719 -1.229945 0
M  V30 33 H 0.569122 3.164544 -0.503086 0
M  V30 34 H 1.355259 4.236502 1.636169 0
M  V30 35 H 0.901280 5.445621 3.754686 0
M  V30 36 H 1.619917 3.080870 7.208461 0
M  V30 37 H 0.900116 1.510530 5.354604 0
M  V30 38 H -0.732030 1.208712 3.847457 0
M  V30 39 H -1.488388 0.179813 1.722736 0
M  V30 40 H -0.921615 -4.026244 -3.029280 0
M  V30 END ATOM
M  V30 BEGIN BOND
M  V30 1 1 1 2
M  V30 2 2 2 3
M  V30 3 1 3 4
M  V30 4 2 4 5
M  V30 5 1 5 6
M  V30 6 1 6 7
M  V30 7 1 7 8
M  V30 8 1 8 9
M  V30 9 2 9 10
M  V30 10 1 9 11
M  V30 11 1 11 12
M  V30 12 2 12 13
M  V30 13 1 13 14
M  V30 14 2 14 15
M  V30 15 1 15 16
M  V30 16 1 16 17
M  V30 17 2 17 18
M  V30 18 1 18 19
M  V30 19 1 19 20
M  V30 20 1 15 21
M  V30 21 2 21 22
M  V30 22 2 6 23
M  V30 23 1 23 2
M  V30 24 1 22 12
M  V30 25 2 20 16
M  V30 26 1 1 24
M  V30 27 1 1 25
M  V30 28 1 3 26
M  V30 29 1 4 27
M  V30 30 1 5 28
M  V30 31 1 7 29
M  V30 32 1 7 30
M  V30 33 1 8 31
M  V30 34 1 11 32
M  V30 35 1 13 33
M  V30 36 1 14 34
M  V30 37 1 17 35
M  V30 38 1 19 36
M  V30 39 1 20 37
M  V30 40 1 21 38
M  V30 41 1 22 39
M  V30 42 1 23 40
M  V30 END BOND
M  V30 END CTAB
M  END
>  <Dataset>  (724) 
ChEMBL_Kinases

>  <Ligand_Instance>  (724) 
nan

>  <PDB_ID>  (724) 
nan

>  <Standardized_SMILES>  (724) 
Nc1cccc(CNC(=O)Nc2ccc(-c3cn[nH]c3)cc2)c1

>  <Name>  (724) 
nan

>  <Pocket>  (724) 
nan

>  <ATP_Site>  (724) 
nan

>  <Peripheral>  (724) 
nan

>  <Num_H_Atoms_ProtBoundConf>  (724) 
nan

>  <Num_Resolved_Atoms>  (724) 
nan

>  <Num_Not_Resolved_Atoms>  (724) 
nan

$$$$
CHEMBL3402445
     RDKit          3D

  0  0  0  0  0  0  0  0  0  0999 V3000
M  V30 BEGIN CTAB
M  V30 COUNTS 38 40 0 0 0
M  V30 BEGIN ATOM
M  V30 1 O -0.309113 -1.597862 1.383544 0
M  V30 2 C -1.385658 -1.665930 0.725817 0
M  V30 3 N -1.848214 -2.865778 0.129068 0
M  V30 4 C -1.169477 -4.155010 0.185534 0
M  V30 5 C -0.001078 -4.210781 -0.741103 0
M  V30 6 C 1.292014 -3.861601 -0.409060 0
M  V30 7 C 2.303876 -3.948777 -1.350908 0
M  V30 8 C 2.074262 -4.379523 -2.638777 0
M  V30 9 C 0.771254 -4.735087 -2.985025 0
M  V30 10 Cl 0.524822 -5.276700 -4.631432 0
M  V30 11 C -0.254128 -4.651043 -2.045486 0
M  V30 12 N -2.070030 -0.435665 0.649878 0
M  V30 13 C -1.325471 0.576546 1.362862 0
M  V30 14 C -0.438442 1.199112 0.497546 0
M  V30 15 C 0.388415 2.217883 0.984599 0
M  V30 16 C 0.282740 2.567154 2.336583 0
M  V30 17 C 1.127477 3.624708 2.878670 0
M  V30 18 C 1.693084 3.873275 4.121258 0
M  V30 19 N 2.392467 5.014066 4.070944 0
M  V30 20 N 2.321716 5.540999 2.853130 0
M  V30 21 C 1.548141 4.697603 2.112097 0
M  V30 22 C -0.610541 1.928033 3.172624 0
M  V30 23 C -1.426364 0.923387 2.693886 0
M  V30 24 H -2.760637 -2.815191 -0.398537 0
M  V30 25 H -1.856245 -4.989798 0.078447 0
M  V30 26 H -0.789928 -4.215643 1.248169 0
M  V30 27 H 1.477448 -3.524339 0.599594 0
M  V30 28 H 3.294474 -3.666920 -1.052494 0
M  V30 29 H 2.916179 -4.425810 -3.335781 0
M  V30 30 H -1.260788 -4.945938 -2.382100 0
M  V30 31 H -2.985023 -0.394068 0.118529 0
M  V30 32 H -0.276669 1.014706 -0.540279 0
M  V30 33 H 1.106913 2.763010 0.404194 0
M  V30 34 H 1.519676 3.165237 4.944218 0
M  V30 35 H 2.767824 6.432424 2.512556 0
M  V30 36 H 1.325522 4.888639 1.073102 0
M  V30 37 H -0.724120 2.166376 4.223241 0
M  V30 38 H -2.161657 0.347170 3.233072 0
M  V30 END ATOM
M  V30 BEGIN BOND
M  V30 1 2 1 2
M  V30 2 1 2 3
M  V30 3 1 3 4
M  V30 4 1 4 5
M  V30 5 2 5 6
M  V30 6 1 6 7
M  V30 7 2 7 8
M  V30 8 1 8 9
M  V30 9 1 9 10
M  V30 10 2 9 11
M  V30 11 1 2 12
M  V30 12 1 12 13
M  V30 13 2 13 14
M  V30 14 1 14 15
M  V30 15 2 15 16
M  V30 16 1 16 17
M  V30 17 1 17 18
M  V30 18 2 18 19
M  V30 19 1 19 20
M  V30 20 1 20 21
M  V30 21 1 16 22
M  V30 22 2 22 23
M  V30 23 1 11 5
M  V30 24 1 23 13
M  V30 25 2 21 17
M  V30 26 1 3 24
M  V30 27 1 4 25
M  V30 28 1 4 26
M  V30 29 1 6 27
M  V30 30 1 7 28
M  V30 31 1 8 29
M  V30 32 1 11 30
M  V30 33 1 12 31
M  V30 34 1 14 32
M  V30 35 1 15 33
M  V30 36 1 18 34
M  V30 37 1 20 35
M  V30 38 1 21 36
M  V30 39 1 22 37
M  V30 40 1 23 38
M  V30 END BOND
M  V30 END CTAB
M  END
>  <Dataset>  (725) 
ChEMBL_Kinases

>  <Ligand_Instance>  (725) 
nan

>  <PDB_ID>  (725) 
nan

>  <Standardized_SMILES>  (725) 
O=C(NCc1cccc(Cl)c1)Nc1ccc(-c2cn[nH]c2)cc1

>  <Name>  (725) 
nan

>  <Pocket>  (725) 
nan

>  <ATP_Site>  (725) 
nan

>  <Peripheral>  (725) 
nan

>  <Num_H_Atoms_ProtBoundConf>  (725) 
nan

>  <Num_Resolved_Atoms>  (725) 
nan

>  <Num_Not_Resolved_Atoms>  (725) 
nan

$$$$
CHEMBL3401978
     RDKit          3D

  0  0  0  0  0  0  0  0  0  0999 V3000
M  V30 BEGIN CTAB
M  V30 COUNTS 55 60 0 0 0
M  V30 BEGIN ATOM
M  V30 1 O 2.681879 -3.379311 4.175188 0
M  V30 2 C 2.993255 -2.265825 3.646857 0
M  V30 3 N 3.765838 -1.331897 4.221262 0
M  V30 4 C 3.799022 -0.364690 3.289427 0
M  V30 5 O 4.416444 0.722274 3.390429 0
M  V30 6 N 3.081857 -0.693931 2.203492 0
M  V30 7 C 2.742956 -0.077933 0.950294 0
M  V30 8 C 1.459046 0.657838 0.899794 0 CFG=1
M  V30 9 C 1.420242 1.787207 1.896812 0
M  V30 10 C 1.844083 3.122966 1.269921 0
M  V30 11 C 0.830279 3.597667 0.243297 0
M  V30 12 C 0.115539 2.318568 -0.252468 0
M  V30 13 C -0.801189 1.900069 0.896543 0
M  V30 14 C -0.073081 1.988924 2.218254 0
M  V30 15 C 1.229728 1.324898 -0.451052 0 CFG=2
M  V30 16 N 1.120566 0.452033 -1.553492 0
M  V30 17 C 0.261472 -0.664799 -1.794370 0
M  V30 18 N -0.658247 -1.119253 -0.934685 0
M  V30 19 C -1.433482 -2.170896 -1.219060 0
M  V30 20 C -2.418092 -2.615329 -0.235071 0
M  V30 21 C -2.650892 -2.053542 1.004391 0
M  V30 22 N -3.629938 -2.716660 1.648809 0
M  V30 23 C -4.037161 -3.712083 0.830394 0
M  V30 24 N -4.981159 -4.658605 0.988028 0
M  V30 25 C -5.218300 -5.563630 0.020230 0
M  V30 26 C -4.518127 -5.574154 -1.172508 0
M  V30 27 F -4.798445 -6.502842 -2.103499 0
M  V30 28 C -3.543948 -4.603633 -1.344634 0
M  V30 29 C -3.296438 -3.672926 -0.355486 0
M  V30 30 N -1.341695 -2.845037 -2.390728 0
M  V30 31 C -0.430449 -2.451616 -3.328284 0
M  V30 32 C 0.336012 -1.366056 -2.977958 0
M  V30 33 F 1.235263 -1.006385 -3.946330 0
M  V30 34 O 2.594037 -1.890837 2.466008 0
M  V30 35 H 4.231696 -1.332467 5.149244 0
M  V30 36 H 3.548419 0.649032 0.667356 0
M  V30 37 H 2.698794 -0.858149 0.130261 0
M  V30 38 H 0.642119 -0.066256 1.120490 0
M  V30 39 H 1.996632 1.642202 2.803746 0
M  V30 40 H 1.747637 3.852004 2.124168 0
M  V30 41 H 2.872076 3.117645 0.905795 0
M  V30 42 H 1.410624 3.957152 -0.635680 0
M  V30 43 H 0.120998 4.328227 0.633607 0
M  V30 44 H -0.472649 2.509093 -1.153364 0
M  V30 45 H -1.681848 2.583268 0.909507 0
M  V30 46 H -1.193861 0.887948 0.814671 0
M  V30 47 H -0.406795 1.234624 2.943464 0
M  V30 48 H -0.136980 3.012600 2.656880 0
M  V30 49 H 2.208305 1.909654 -0.593697 0
M  V30 50 H 1.789572 0.643659 -2.368068 0
M  V30 51 H -2.166038 -1.206178 1.468824 0
M  V30 52 H -4.043530 -2.546688 2.600587 0
M  V30 53 H -6.005490 -6.287335 0.250703 0
M  V30 54 H -2.972236 -4.573631 -2.260273 0
M  V30 55 H -0.339242 -2.967914 -4.260780 0
M  V30 END ATOM
M  V30 BEGIN BOND
M  V30 1 2 1 2
M  V30 2 1 2 3
M  V30 3 1 3 4
M  V30 4 2 4 5
M  V30 5 1 4 6
M  V30 6 1 6 7
M  V30 7 1 7 8
M  V30 8 1 8 9
M  V30 9 1 9 10
M  V30 10 1 10 11
M  V30 11 1 11 12
M  V30 12 1 12 13
M  V30 13 1 13 14
M  V30 14 1 12 15
M  V30 15 1 15 16
M  V30 16 1 16 17
M  V30 17 2 17 18
M  V30 18 1 18 19
M  V30 19 1 19 20
M  V30 20 2 20 21
M  V30 21 1 21 22
M  V30 22 1 22 23
M  V30 23 2 23 24
M  V30 24 1 24 25
M  V30 25 2 25 26
M  V30 26 1 26 27
M  V30 27 1 26 28
M  V30 28 2 28 29
M  V30 29 2 19 30
M  V30 30 1 30 31
M  V30 31 2 31 32
M  V30 32 1 32 33
M  V30 33 1 6 34
M  V30 34 1 34 2
M  V30 35 1 15 8
M  V30 36 1 32 17
M  V30 37 1 14 9
M  V30 38 1 29 20
M  V30 39 1 29 23
M  V30 40 1 3 35
M  V30 41 1 7 36
M  V30 42 1 7 37
M  V30 43 1 8 38 CFG=1
M  V30 44 1 9 39
M  V30 45 1 10 40
M  V30 46 1 10 41
M  V30 47 1 11 42
M  V30 48 1 11 43
M  V30 49 1 12 44
M  V30 50 1 13 45
M  V30 51 1 13 46
M  V30 52 1 14 47
M  V30 53 1 14 48
M  V30 54 1 15 49 CFG=3
M  V30 55 1 16 50
M  V30 56 1 21 51
M  V30 57 1 22 52
M  V30 58 1 25 53
M  V30 59 1 28 54
M  V30 60 1 31 55
M  V30 END BOND
M  V30 END CTAB
M  END
>  <Dataset>  (726) 
ChEMBL_Kinases

>  <Ligand_Instance>  (726) 
nan

>  <PDB_ID>  (726) 
nan

>  <Standardized_SMILES>  (726) 
O=c1[nH]c(=O)n(C[C@H]2C3CCC(CC3)[C@@H]2Nc2nc(-c3c[nH]c4ncc(F)cc34)ncc2F)o1

>  <Name>  (726) 
nan

>  <Pocket>  (726) 
nan

>  <ATP_Site>  (726) 
nan

>  <Peripheral>  (726) 
nan

>  <Num_H_Atoms_ProtBoundConf>  (726) 
nan

>  <Num_Resolved_Atoms>  (726) 
nan

>  <Num_Not_Resolved_Atoms>  (726) 
nan

$$$$
CHEMBL3407863
     RDKit          3D

  0  0  0  0  0  0  0  0  0  0999 V3000
M  V30 BEGIN CTAB
M  V30 COUNTS 56 60 0 0 0
M  V30 BEGIN ATOM
M  V30 1 C 6.825383 -1.220646 4.126540 0
M  V30 2 C 5.726583 -1.249504 3.126037 0
M  V30 3 N 4.810639 -0.276108 3.295378 0
M  V30 4 C 3.745808 -0.181144 2.449802 0
M  V30 5 N 2.801926 0.853861 2.634825 0
M  V30 6 C 3.675849 -1.120654 1.444196 0
M  V30 7 C 2.683463 -1.197781 0.483815 0
M  V30 8 C 1.460672 -0.466762 0.182572 0
M  V30 9 C 1.252435 0.042492 -1.100889 0
M  V30 10 C 0.093931 0.734131 -1.437447 0
M  V30 11 C -0.870767 0.918684 -0.474559 0
M  V30 12 C -0.731423 0.442799 0.810661 0
M  V30 13 C 0.444352 -0.247948 1.116143 0
M  V30 14 C -1.880895 0.739133 1.697636 0
M  V30 15 C -2.694877 1.709295 0.880252 0
M  V30 16 N -2.137770 1.556681 -0.449411 0
M  V30 17 C -2.895993 2.051779 -1.558088 0
M  V30 18 C -4.111460 1.293568 -1.847040 0
M  V30 19 O -4.767082 2.035671 -2.662709 0
M  V30 20 C -4.732172 0.041306 -1.499324 0
M  V30 21 C -5.987079 -0.173628 -2.021108 0
M  V30 22 C -6.642503 -1.377941 -1.737394 0
M  V30 23 F -7.872381 -1.642910 -2.220987 0
M  V30 24 C -6.052103 -2.331074 -0.954790 0
M  V30 25 C -4.794073 -2.150191 -0.414619 0
M  V30 26 C -4.104418 -3.166572 0.449581 0
M  V30 27 F -4.604574 -4.415053 0.127387 0
M  V30 28 F -4.280027 -2.940956 1.782234 0
M  V30 29 F -2.763677 -3.171152 0.079370 0
M  V30 30 C -4.194612 -0.948264 -0.725498 0
M  V30 31 C 3.065814 -2.295618 -0.289267 0
M  V30 32 N 4.221126 -2.844459 0.183450 0
M  V30 33 C 5.006121 -3.966080 -0.253382 0
M  V30 34 C 4.600973 -2.123846 1.252397 0
M  V30 35 N 5.625118 -2.151024 2.129831 0
M  V30 36 H 6.451476 -1.395666 5.166603 0
M  V30 37 H 7.396198 -0.260683 4.080803 0
M  V30 38 H 7.526304 -2.025080 3.903885 0
M  V30 39 H 2.219717 0.871309 3.502387 0
M  V30 40 H 2.481052 1.695392 2.103768 0
M  V30 41 H 1.990458 -0.080894 -1.894677 0
M  V30 42 H -0.090662 1.137891 -2.423466 0
M  V30 43 H 0.563484 -0.643228 2.134107 0
M  V30 44 H -2.458586 -0.177015 1.944799 0
M  V30 45 H -1.548661 1.263550 2.620460 0
M  V30 46 H -2.586413 2.751316 1.253681 0
M  V30 47 H -3.760703 1.370037 0.946275 0
M  V30 48 H -2.272262 2.027052 -2.480672 0
M  V30 49 H -3.108352 3.140500 -1.326223 0
M  V30 50 H -6.575534 0.493651 -2.656440 0
M  V30 51 H -6.573139 -3.260021 -0.744362 0
M  V30 52 H -3.218586 -0.814119 -0.317038 0
M  V30 53 H 2.650547 -2.793665 -1.164615 0
M  V30 54 H 5.851714 -3.705727 -0.906987 0
M  V30 55 H 4.321824 -4.649190 -0.830552 0
M  V30 56 H 5.441322 -4.511361 0.605517 0
M  V30 END ATOM
M  V30 BEGIN BOND
M  V30 1 1 1 2
M  V30 2 2 2 3
M  V30 3 1 3 4
M  V30 4 1 4 5
M  V30 5 2 4 6
M  V30 6 1 6 7
M  V30 7 1 7 8
M  V30 8 2 8 9
M  V30 9 1 9 10
M  V30 10 2 10 11
M  V30 11 1 11 12
M  V30 12 2 12 13
M  V30 13 1 12 14
M  V30 14 1 14 15
M  V30 15 1 15 16
M  V30 16 1 16 17
M  V30 17 1 17 18
M  V30 18 2 18 19
M  V30 19 1 18 20
M  V30 20 2 20 21
M  V30 21 1 21 22
M  V30 22 1 22 23
M  V30 23 2 22 24
M  V30 24 1 24 25
M  V30 25 1 25 26
M  V30 26 1 26 27
M  V30 27 1 26 28
M  V30 28 1 26 29
M  V30 29 2 25 30
M  V30 30 2 7 31
M  V30 31 1 31 32
M  V30 32 1 32 33
M  V30 33 1 32 34
M  V30 34 2 34 35
M  V30 35 1 35 2
M  V30 36 1 34 6
M  V30 37 1 13 8
M  V30 38 1 30 20
M  V30 39 1 16 11
M  V30 40 1 1 36
M  V30 41 1 1 37
M  V30 42 1 1 38
M  V30 43 1 5 39
M  V30 44 1 5 40
M  V30 45 1 9 41
M  V30 46 1 10 42
M  V30 47 1 13 43
M  V30 48 1 14 44
M  V30 49 1 14 45
M  V30 50 1 15 46
M  V30 51 1 15 47
M  V30 52 1 17 48
M  V30 53 1 17 49
M  V30 54 1 21 50
M  V30 55 1 24 51
M  V30 56 1 30 52
M  V30 57 1 31 53
M  V30 58 1 33 54
M  V30 59 1 33 55
M  V30 60 1 33 56
M  V30 END BOND
M  V30 END CTAB
M  END
>  <Dataset>  (727) 
ChEMBL_Kinases

>  <Ligand_Instance>  (727) 
nan

>  <PDB_ID>  (727) 
nan

>  <Standardized_SMILES>  (727) 
Cc1nc(N)c2c(-c3ccc4c(c3)CCN4CC(=O)c3cc(F)cc(C(F)(F)F)c3)cn(C)c2n1

>  <Name>  (727) 
nan

>  <Pocket>  (727) 
nan

>  <ATP_Site>  (727) 
nan

>  <Peripheral>  (727) 
nan

>  <Num_H_Atoms_ProtBoundConf>  (727) 
nan

>  <Num_Resolved_Atoms>  (727) 
nan

>  <Num_Not_Resolved_Atoms>  (727) 
nan

$$$$
CHEMBL3407861
     RDKit          3D

  0  0  0  0  0  0  0  0  0  0999 V3000
M  V30 BEGIN CTAB
M  V30 COUNTS 65 70 0 0 0
M  V30 BEGIN ATOM
M  V30 1 C -0.813514 1.756662 5.046021 0
M  V30 2 C -0.714119 0.973323 3.785126 0
M  V30 3 C -1.665499 0.007803 3.546543 0
M  V30 4 C -1.525138 -0.684203 2.367794 0
M  V30 5 C -0.555661 -0.528606 1.407499 0
M  V30 6 C -0.380978 -1.212376 0.154752 0
M  V30 7 O 0.540063 -0.706013 -0.557189 0
M  V30 8 C -0.986606 -2.330171 -0.504508 0
M  V30 9 C -0.870788 -2.519236 -1.880310 0
M  V30 10 C -0.252328 -1.736265 -2.964326 0
M  V30 11 C 0.590510 -2.313860 -3.894536 0
M  V30 12 C 1.183531 -1.633566 -4.935293 0
M  V30 13 C 0.930628 -0.291561 -5.071520 0
M  V30 14 C 0.097247 0.341727 -4.174125 0
M  V30 15 C -0.465623 -0.390696 -3.155854 0
M  V30 16 N -1.510091 -3.675208 -2.192411 0
M  V30 17 C -1.643140 -4.268922 -3.530680 0
M  V30 18 N -2.033638 -4.253197 -1.124260 0
M  V30 19 C -2.766605 -5.469914 -1.095945 0
M  V30 20 C -4.144339 -5.579779 -1.161347 0
M  V30 21 C -4.760502 -6.817519 -1.126002 0
M  V30 22 C -3.943901 -7.920020 -1.023764 0
M  V30 23 C -2.554846 -7.842662 -0.955952 0
M  V30 24 C -1.991449 -6.584277 -0.995208 0
M  V30 25 C -1.710185 -3.432229 -0.115124 0
M  V30 26 O -2.079166 -3.731674 1.043961 0
M  V30 27 C 0.376710 0.465518 1.710097 0
M  V30 28 N 1.501540 0.854041 0.898766 0
M  V30 29 C 0.294576 1.199663 2.878092 0
M  V30 30 C 1.243486 2.245200 3.234771 0
M  V30 31 C 2.432516 2.111641 3.959206 0
M  V30 32 C 3.257483 3.150197 4.244122 0
M  V30 33 C 2.974756 4.434076 3.830862 0
M  V30 34 N 3.651204 5.542848 4.014947 0
M  V30 35 C 3.405049 6.628930 3.661254 0
M  V30 36 C 4.091933 7.951071 3.810792 0
M  V30 37 F 5.284010 7.994148 3.090204 0
M  V30 38 F 4.385811 8.142104 5.127503 0
M  V30 39 F 3.299270 8.949695 3.275594 0
M  V30 40 S 1.740276 6.367212 2.733394 0
M  V30 41 C 1.776158 4.527305 3.108596 0
M  V30 42 C 0.886246 3.496459 2.784033 0
M  V30 43 H -0.163679 2.632294 5.004900 0
M  V30 44 H -0.620656 1.123103 5.954692 0
M  V30 45 H -1.881172 2.077241 5.133012 0
M  V30 46 H -2.469882 -0.198033 4.233104 0
M  V30 47 H -2.287337 -1.421675 2.191509 0
M  V30 48 H 0.827575 -3.369560 -3.838636 0
M  V30 49 H 1.834429 -2.100432 -5.646369 0
M  V30 50 H 1.369772 0.290145 -5.869597 0
M  V30 51 H -0.086280 1.396857 -4.301851 0
M  V30 52 H -1.108441 0.161529 -2.503637 0
M  V30 53 H -1.527635 -3.484874 -4.323280 0
M  V30 54 H -2.657444 -4.711629 -3.580253 0
M  V30 55 H -0.865237 -5.059238 -3.617045 0
M  V30 56 H -4.705469 -4.648258 -1.241071 0
M  V30 57 H -5.834860 -6.896769 -1.177357 0
M  V30 58 H -4.403971 -8.912136 -0.993677 0
M  V30 59 H -2.007169 -8.769738 -0.877187 0
M  V30 60 H -0.912180 -6.578629 -0.939573 0
M  V30 61 H 1.101792 1.466399 0.130958 0
M  V30 62 H 2.369753 0.411814 1.316892 0
M  V30 63 H 2.624532 1.077536 4.271399 0
M  V30 64 H 4.125907 2.871546 4.808076 0
M  V30 65 H 0.021697 3.817031 2.214208 0
M  V30 END ATOM
M  V30 BEGIN BOND
M  V30 1 1 1 2
M  V30 2 2 2 3
M  V30 3 1 3 4
M  V30 4 2 4 5
M  V30 5 1 5 6
M  V30 6 2 6 7
M  V30 7 1 6 8
M  V30 8 2 8 9
M  V30 9 1 9 10
M  V30 10 2 10 11
M  V30 11 1 11 12
M  V30 12 2 12 13
M  V30 13 1 13 14
M  V30 14 2 14 15
M  V30 15 1 9 16
M  V30 16 1 16 17
M  V30 17 1 16 18
M  V30 18 1 18 19
M  V30 19 2 19 20
M  V30 20 1 20 21
M  V30 21 2 21 22
M  V30 22 1 22 23
M  V30 23 2 23 24
M  V30 24 1 18 25
M  V30 25 2 25 26
M  V30 26 1 5 27
M  V30 27 1 27 28
M  V30 28 2 27 29
M  V30 29 1 29 30
M  V30 30 2 30 31
M  V30 31 1 31 32
M  V30 32 2 32 33
M  V30 33 1 33 34
M  V30 34 2 34 35
M  V30 35 1 35 36
M  V30 36 1 36 37
M  V30 37 1 36 38
M  V30 38 1 36 39
M  V30 39 1 35 40
M  V30 40 1 40 41
M  V30 41 2 41 42
M  V30 42 1 29 2
M  V30 43 1 42 30
M  V30 44 1 25 8
M  V30 45 1 41 33
M  V30 46 1 15 10
M  V30 47 1 24 19
M  V30 48 1 1 43
M  V30 49 1 1 44
M  V30 50 1 1 45
M  V30 51 1 3 46
M  V30 52 1 4 47
M  V30 53 1 11 48
M  V30 54 1 12 49
M  V30 55 1 13 50
M  V30 56 1 14 51
M  V30 57 1 15 52
M  V30 58 1 17 53
M  V30 59 1 17 54
M  V30 60 1 17 55
M  V30 61 1 20 56
M  V30 62 1 21 57
M  V30 63 1 22 58
M  V30 64 1 23 59
M  V30 65 1 24 60
M  V30 66 1 28 61
M  V30 67 1 28 62
M  V30 68 1 31 63
M  V30 69 1 32 64
M  V30 70 1 42 65
M  V30 END BOND
M  V30 END CTAB
M  END
>  <Dataset>  (728) 
ChEMBL_Kinases

>  <Ligand_Instance>  (728) 
nan

>  <PDB_ID>  (728) 
nan

>  <Standardized_SMILES>  (728) 
Cc1ccc(C(=O)c2c(-c3ccccc3)n(C)n(-c3ccccc3)c2=O)c(N)c1-c1ccc2nc(C(F)(F)F)sc2c1

>  <Name>  (728) 
nan

>  <Pocket>  (728) 
nan

>  <ATP_Site>  (728) 
nan

>  <Peripheral>  (728) 
nan

>  <Num_H_Atoms_ProtBoundConf>  (728) 
nan

>  <Num_Resolved_Atoms>  (728) 
nan

>  <Num_Not_Resolved_Atoms>  (728) 
nan

$$$$
CHEMBL3407855
     RDKit          3D

  0  0  0  0  0  0  0  0  0  0999 V3000
M  V30 BEGIN CTAB
M  V30 COUNTS 65 70 0 0 0
M  V30 BEGIN ATOM
M  V30 1 C 5.085005 2.489732 7.792114 0
M  V30 2 C 4.465336 2.795505 6.436248 0
M  V30 3 N 4.171860 2.102365 5.574932 0
M  V30 4 C 3.626989 2.417651 4.396049 0
M  V30 5 C 3.269727 1.590126 3.352237 0
M  V30 6 C 2.715472 2.120123 2.208334 0
M  V30 7 C 2.324733 1.254273 1.079346 0
M  V30 8 C 3.290474 1.023694 0.127374 0
M  V30 9 C 4.642810 1.626119 0.255209 0
M  V30 10 C 3.003820 0.225885 -0.957964 0
M  V30 11 C 1.732161 -0.290529 -0.999547 0
M  V30 12 C 0.715072 -0.108093 -0.093717 0
M  V30 13 C -0.615890 -0.656839 -0.110600 0
M  V30 14 O -1.246494 -0.407445 0.974524 0
M  V30 15 C -1.419393 -1.410565 -1.025282 0
M  V30 16 C -2.531450 -2.105859 -0.569001 0
M  V30 17 C -3.154778 -2.353724 0.723152 0
M  V30 18 C -4.528186 -2.168020 0.864072 0
M  V30 19 C -5.270261 -2.368932 2.007600 0
M  V30 20 C -4.556302 -2.798001 3.112613 0
M  V30 21 C -3.192378 -3.006881 3.058652 0
M  V30 22 C -2.528821 -2.781091 1.871851 0
M  V30 23 N -3.113768 -2.690128 -1.662725 0
M  V30 24 C -4.319169 -3.534415 -1.709598 0
M  V30 25 N -2.460912 -2.422309 -2.779124 0
M  V30 26 C -2.766384 -2.852818 -4.099201 0
M  V30 27 C -1.843327 -3.778710 -4.575778 0
M  V30 28 C -1.969850 -4.317393 -5.845653 0
M  V30 29 C -3.047468 -3.908398 -6.637134 0
M  V30 30 C -3.969088 -2.982379 -6.158102 0
M  V30 31 C -3.826886 -2.455179 -4.887850 0
M  V30 32 C -1.439516 -1.647667 -2.377602 0
M  V30 33 O -0.621719 -1.216367 -3.216811 0
M  V30 34 C 1.044124 0.696797 0.977860 0
M  V30 35 N 0.203451 1.062285 2.064625 0
M  V30 36 C 2.476558 3.463879 2.007533 0
M  V30 37 C 2.824428 4.313539 3.035507 0
M  V30 38 C 3.381522 3.750921 4.177499 0
M  V30 39 S 3.974022 4.516235 5.750074 0
M  V30 40 H 6.133038 2.189714 7.668255 0
M  V30 41 H 5.067655 3.408681 8.414033 0
M  V30 42 H 4.415598 1.723935 8.210179 0
M  V30 43 H 3.387982 0.508223 3.342213 0
M  V30 44 H 5.440986 0.841386 0.330469 0
M  V30 45 H 4.904707 2.221139 -0.641545 0
M  V30 46 H 4.681001 2.261907 1.173600 0
M  V30 47 H 3.738763 0.026701 -1.719777 0
M  V30 48 H 1.553806 -0.921041 -1.852135 0
M  V30 49 H -5.078303 -1.830748 -0.009642 0
M  V30 50 H -6.336089 -2.192201 2.001265 0
M  V30 51 H -5.083237 -2.972232 4.037008 0
M  V30 52 H -2.632226 -3.345350 3.932141 0
M  V30 53 H -1.467243 -2.954896 1.834829 0
M  V30 54 H -4.119471 -4.389790 -2.419840 0
M  V30 55 H -4.469698 -4.041378 -0.733648 0
M  V30 56 H -5.191242 -3.004547 -2.098065 0
M  V30 57 H -0.979772 -4.149485 -4.027933 0
M  V30 58 H -1.289845 -5.039606 -6.277015 0
M  V30 59 H -3.167656 -4.323705 -7.649871 0
M  V30 60 H -4.818288 -2.645169 -6.751863 0
M  V30 61 H -4.489017 -1.732005 -4.427483 0
M  V30 62 H 0.139589 0.265664 2.746902 0
M  V30 63 H -0.298520 1.977725 2.206383 0
M  V30 64 H 2.047872 3.933762 1.138478 0
M  V30 65 H 2.703022 5.388123 3.036135 0
M  V30 END ATOM
M  V30 BEGIN BOND
M  V30 1 1 1 2
M  V30 2 2 2 3
M  V30 3 1 3 4
M  V30 4 2 4 5
M  V30 5 1 5 6
M  V30 6 1 6 7
M  V30 7 2 7 8
M  V30 8 1 8 9
M  V30 9 1 8 10
M  V30 10 2 10 11
M  V30 11 1 11 12
M  V30 12 1 12 13
M  V30 13 2 13 14
M  V30 14 1 13 15
M  V30 15 2 15 16
M  V30 16 1 16 17
M  V30 17 2 17 18
M  V30 18 1 18 19
M  V30 19 2 19 20
M  V30 20 1 20 21
M  V30 21 2 21 22
M  V30 22 1 16 23
M  V30 23 1 23 24
M  V30 24 1 23 25
M  V30 25 1 25 26
M  V30 26 2 26 27
M  V30 27 1 27 28
M  V30 28 2 28 29
M  V30 29 1 29 30
M  V30 30 2 30 31
M  V30 31 1 25 32
M  V30 32 2 32 33
M  V30 33 2 12 34
M  V30 34 1 34 35
M  V30 35 2 6 36
M  V30 36 1 36 37
M  V30 37 2 37 38
M  V30 38 1 38 39
M  V30 39 1 39 2
M  V30 40 1 38 4
M  V30 41 1 34 7
M  V30 42 1 32 15
M  V30 43 1 22 17
M  V30 44 1 31 26
M  V30 45 1 1 40
M  V30 46 1 1 41
M  V30 47 1 1 42
M  V30 48 1 5 43
M  V30 49 1 9 44
M  V30 50 1 9 45
M  V30 51 1 9 46
M  V30 52 1 10 47
M  V30 53 1 11 48
M  V30 54 1 18 49
M  V30 55 1 19 50
M  V30 56 1 20 51
M  V30 57 1 21 52
M  V30 58 1 22 53
M  V30 59 1 24 54
M  V30 60 1 24 55
M  V30 61 1 24 56
M  V30 62 1 27 57
M  V30 63 1 28 58
M  V30 64 1 29 59
M  V30 65 1 30 60
M  V30 66 1 31 61
M  V30 67 1 35 62
M  V30 68 1 35 63
M  V30 69 1 36 64
M  V30 70 1 37 65
M  V30 END BOND
M  V30 END CTAB
M  END
>  <Dataset>  (729) 
ChEMBL_Kinases

>  <Ligand_Instance>  (729) 
nan

>  <PDB_ID>  (729) 
nan

>  <Standardized_SMILES>  (729) 
Cc1nc2cc(-c3c(C)ccc(C(=O)c4c(-c5ccccc5)n(C)n(-c5ccccc5)c4=O)c3N)ccc2s1

>  <Name>  (729) 
nan

>  <Pocket>  (729) 
nan

>  <ATP_Site>  (729) 
nan

>  <Peripheral>  (729) 
nan

>  <Num_H_Atoms_ProtBoundConf>  (729) 
nan

>  <Num_Resolved_Atoms>  (729) 
nan

>  <Num_Not_Resolved_Atoms>  (729) 
nan

$$$$
CHEMBL340776
     RDKit          3D

  0  0  0  0  0  0  0  0  0  0999 V3000
M  V30 BEGIN CTAB
M  V30 COUNTS 61 66 0 0 0
M  V30 BEGIN ATOM
M  V30 1 O 2.131939 0.068899 4.585034 0
M  V30 2 C 2.342150 -0.514978 3.462225 0
M  V30 3 N 3.431035 -1.432830 3.398398 0
M  V30 4 C 3.367578 -1.874501 2.046581 0
M  V30 5 O 4.223971 -2.730345 1.629922 0
M  V30 6 C 2.253877 -1.228781 1.308589 0
M  V30 7 C 1.648968 -0.423666 2.155720 0
M  V30 8 C 0.508964 0.477663 2.099686 0
M  V30 9 C -0.837635 0.176519 2.076602 0
M  V30 10 N -1.579520 1.294829 2.040412 0
M  V30 11 C -0.768940 2.346137 2.037451 0
M  V30 12 N -1.082224 3.645072 2.009977 0
M  V30 13 C -0.058526 4.547466 2.019055 0
M  V30 14 C 1.268711 4.112451 2.056043 0
M  V30 15 C 1.595405 2.750404 2.084840 0
M  V30 16 C 0.519129 1.858124 2.074166 0
M  V30 17 C -3.017200 0.960045 2.025547 0
M  V30 18 C -3.270571 0.305583 0.730981 0
M  V30 19 O -4.489834 -0.184312 0.425085 0
M  V30 20 C -4.971657 -1.170336 1.290170 0
M  V30 21 C -3.937795 -2.265523 1.455832 0
M  V30 22 O -3.575841 -2.877462 0.272093 0
M  V30 23 C -2.507657 -3.737488 0.519567 0
M  V30 24 C -2.001708 -4.358939 -0.788802 0
M  V30 25 O -1.613123 -3.580406 -1.683830 0
M  V30 26 C -1.226000 -2.804810 -2.575474 0
M  V30 27 C 0.237833 -2.732609 -3.023976 0
M  V30 28 N 1.120946 -2.197357 -2.030240 0
M  V30 29 C 0.941203 -2.118765 -0.706392 0
M  V30 30 C 2.010910 -1.521142 -0.091628 0
M  V30 31 C 2.886428 -1.227944 -1.146204 0
M  V30 32 C 4.147327 -0.618367 -1.180799 0
M  V30 33 C 4.874009 -0.409020 -2.331993 0
M  V30 34 C 4.242153 -0.859728 -3.470998 0
M  V30 35 N 3.038135 -1.444701 -3.459536 0
M  V30 36 C 2.324801 -1.650559 -2.333814 0
M  V30 37 H 4.109292 -1.720681 4.135503 0
M  V30 38 H -1.014137 -0.886639 2.092109 0
M  V30 39 H -0.246362 5.620742 1.997922 0
M  V30 40 H 2.106822 4.823789 2.063770 0
M  V30 41 H 2.631586 2.446528 2.113137 0
M  V30 42 H -3.188234 0.339047 2.920163 0
M  V30 43 H -3.623069 1.869272 2.127549 0
M  V30 44 H -2.430688 -0.435425 0.526320 0
M  V30 45 H -3.051145 1.093975 -0.059962 0
M  V30 46 H -5.307616 -0.795228 2.267823 0
M  V30 47 H -5.848085 -1.619410 0.788212 0
M  V30 48 H -4.427958 -3.094025 2.060542 0
M  V30 49 H -3.063971 -1.989204 2.040956 0
M  V30 50 H -2.839024 -4.594039 1.142509 0
M  V30 51 H -1.745430 -3.199038 1.067180 0
M  V30 52 H -1.254856 -5.140051 -0.390058 0
M  V30 53 H -2.862280 -5.026092 -1.095510 0
M  V30 54 H -1.562471 -1.696477 -2.450043 0
M  V30 55 H -1.789897 -3.023686 -3.572539 0
M  V30 56 H 0.283422 -2.110673 -3.939584 0
M  V30 57 H 0.541204 -3.751544 -3.353713 0
M  V30 58 H 0.155959 -2.416653 -0.038734 0
M  V30 59 H 4.628777 -0.267494 -0.253982 0
M  V30 60 H 5.843646 0.066781 -2.304943 0
M  V30 61 H 4.749458 -0.733014 -4.429485 0
M  V30 END ATOM
M  V30 BEGIN BOND
M  V30 1 2 1 2
M  V30 2 1 2 3
M  V30 3 1 3 4
M  V30 4 2 4 5
M  V30 5 1 4 6
M  V30 6 2 6 7
M  V30 7 1 7 8
M  V30 8 2 8 9
M  V30 9 1 9 10
M  V30 10 1 10 11
M  V30 11 2 11 12
M  V30 12 1 12 13
M  V30 13 2 13 14
M  V30 14 1 14 15
M  V30 15 2 15 16
M  V30 16 1 10 17
M  V30 17 1 17 18
M  V30 18 1 18 19
M  V30 19 1 19 20
M  V30 20 1 20 21
M  V30 21 1 21 22
M  V30 22 1 22 23
M  V30 23 1 23 24
M  V30 24 1 24 25
M  V30 25 1 25 26
M  V30 26 1 26 27
M  V30 27 1 27 28
M  V30 28 1 28 29
M  V30 29 2 29 30
M  V30 30 1 30 31
M  V30 31 2 31 32
M  V30 32 1 32 33
M  V30 33 2 33 34
M  V30 34 1 34 35
M  V30 35 2 35 36
M  V30 36 1 7 2
M  V30 37 1 16 8
M  V30 38 1 36 28
M  V30 39 1 30 6
M  V30 40 1 36 31
M  V30 41 1 16 11
M  V30 42 1 3 37
M  V30 43 1 9 38
M  V30 44 1 13 39
M  V30 45 1 14 40
M  V30 46 1 15 41
M  V30 47 1 17 42
M  V30 48 1 17 43
M  V30 49 1 18 44
M  V30 50 1 18 45
M  V30 51 1 20 46
M  V30 52 1 20 47
M  V30 53 1 21 48
M  V30 54 1 21 49
M  V30 55 1 23 50
M  V30 56 1 23 51
M  V30 57 1 24 52
M  V30 58 1 24 53
M  V30 59 1 26 54
M  V30 60 1 26 55
M  V30 61 1 27 56
M  V30 62 1 27 57
M  V30 63 1 29 58
M  V30 64 1 32 59
M  V30 65 1 33 60
M  V30 66 1 34 61
M  V30 END BOND
M  V30 END CTAB
M  END
>  <Dataset>  (730) 
ChEMBL_Kinases

>  <Ligand_Instance>  (730) 
nan

>  <PDB_ID>  (730) 
nan

>  <Standardized_SMILES>  (730) 
O=C1NC(=O)C2=C1c1cn(c3ncccc13)CCOCCOCCOCCn1cc2c2cccnc21

>  <Name>  (730) 
nan

>  <Pocket>  (730) 
nan

>  <ATP_Site>  (730) 
nan

>  <Peripheral>  (730) 
nan

>  <Num_H_Atoms_ProtBoundConf>  (730) 
nan

>  <Num_Resolved_Atoms>  (730) 
nan

>  <Num_Not_Resolved_Atoms>  (730) 
nan

$$$$
CHEMBL3403031
     RDKit          3D

  0  0  0  0  0  0  0  0  0  0999 V3000
M  V30 BEGIN CTAB
M  V30 COUNTS 47 51 0 0 0
M  V30 BEGIN ATOM
M  V30 1 C -0.190395 3.395965 3.770166 0
M  V30 2 N 0.556526 2.747995 2.684523 0
M  V30 3 C 1.336607 2.964210 1.498913 0
M  V30 4 O 1.512133 1.727732 1.306645 0
M  V30 5 N 1.770364 4.115949 0.779868 0
M  V30 6 C 2.544563 3.765272 -0.364019 0
M  V30 7 C 3.923215 3.620180 -0.311634 0
M  V30 8 C 4.602047 3.276303 -1.473192 0
M  V30 9 C 3.871093 3.092844 -2.635808 0
M  V30 10 C 2.493986 3.232402 -2.711543 0
M  V30 11 C 1.848801 3.576315 -1.533119 0
M  V30 12 C 0.612821 1.312327 2.683094 0
M  V30 13 C 1.594954 0.577430 3.315418 0
M  V30 14 C 1.568382 -0.800687 3.260493 0
M  V30 15 C 0.578627 -1.487082 2.584659 0
M  V30 16 N 0.268141 -2.771820 2.343714 0
M  V30 17 C -0.843930 -2.912293 1.601417 0
M  V30 18 C -1.334413 -4.224349 1.240189 0
M  V30 19 N -0.753049 -5.383083 1.594890 0
M  V30 20 N -1.400471 -6.428766 1.136644 0
M  V30 21 C -2.474601 -6.029484 0.434150 0
M  V30 22 C -3.478999 -6.682608 -0.250529 0
M  V30 23 C -4.479700 -5.949779 -0.895232 0
M  V30 24 C -4.415664 -4.579732 -0.815617 0
M  V30 25 C -3.408715 -3.969843 -0.130413 0
M  V30 26 C -2.414618 -4.649422 0.511345 0
M  V30 27 C -1.228532 -1.620410 1.380968 0
M  V30 28 C -0.378494 -0.709078 1.970111 0
M  V30 29 N -0.365573 0.637030 2.015106 0
M  V30 30 H 0.336624 3.316924 4.731172 0
M  V30 31 H -0.454028 4.432838 3.508017 0
M  V30 32 H -1.147782 2.819181 3.822858 0
M  V30 33 H 1.395640 4.948493 1.295078 0
M  V30 34 H 4.439304 3.777236 0.629173 0
M  V30 35 H 5.683770 3.156183 -1.459446 0
M  V30 36 H 4.467708 2.825375 -3.505190 0
M  V30 37 H 2.024033 3.064472 -3.676838 0
M  V30 38 H 0.769713 3.681561 -1.610366 0
M  V30 39 H 2.369013 1.109541 3.843838 0
M  V30 40 H 2.331959 -1.381844 3.751842 0
M  V30 41 H 0.913116 -3.486193 2.752695 0
M  V30 42 H -1.090363 -7.397618 1.316347 0
M  V30 43 H -3.442223 -7.764273 -0.255394 0
M  V30 44 H -5.202047 -6.579931 -1.391987 0
M  V30 45 H -5.214925 -4.081553 -1.332900 0
M  V30 46 H -3.418101 -2.904806 -0.107811 0
M  V30 47 H -2.086430 -1.323374 0.819299 0
M  V30 END ATOM
M  V30 BEGIN BOND
M  V30 1 1 1 2
M  V30 2 1 2 3
M  V30 3 2 3 4
M  V30 4 1 3 5
M  V30 5 1 5 6
M  V30 6 2 6 7
M  V30 7 1 7 8
M  V30 8 2 8 9
M  V30 9 1 9 10
M  V30 10 2 10 11
M  V30 11 1 2 12
M  V30 12 2 12 13
M  V30 13 1 13 14
M  V30 14 2 14 15
M  V30 15 1 15 16
M  V30 16 1 16 17
M  V30 17 1 17 18
M  V30 18 2 18 19
M  V30 19 1 19 20
M  V30 20 1 20 21
M  V30 21 2 21 22
M  V30 22 1 22 23
M  V30 23 2 23 24
M  V30 24 1 24 25
M  V30 25 2 25 26
M  V30 26 2 17 27
M  V30 27 1 27 28
M  V30 28 2 28 29
M  V30 29 1 11 6
M  V30 30 1 29 12
M  V30 31 1 28 15
M  V30 32 1 26 18
M  V30 33 1 26 21
M  V30 34 1 1 30
M  V30 35 1 1 31
M  V30 36 1 1 32
M  V30 37 1 5 33
M  V30 38 1 7 34
M  V30 39 1 8 35
M  V30 40 1 9 36
M  V30 41 1 10 37
M  V30 42 1 11 38
M  V30 43 1 13 39
M  V30 44 1 14 40
M  V30 45 1 16 41
M  V30 46 1 20 42
M  V30 47 1 22 43
M  V30 48 1 23 44
M  V30 49 1 24 45
M  V30 50 1 25 46
M  V30 51 1 27 47
M  V30 END BOND
M  V30 END CTAB
M  END
>  <Dataset>  (731) 
ChEMBL_Kinases

>  <Ligand_Instance>  (731) 
nan

>  <PDB_ID>  (731) 
nan

>  <Standardized_SMILES>  (731) 
CN(C(=O)Nc1ccccc1)c1ccc2[nH]c(-c3n[nH]c4ccccc34)cc2n1

>  <Name>  (731) 
nan

>  <Pocket>  (731) 
nan

>  <ATP_Site>  (731) 
nan

>  <Peripheral>  (731) 
nan

>  <Num_H_Atoms_ProtBoundConf>  (731) 
nan

>  <Num_Resolved_Atoms>  (731) 
nan

>  <Num_Not_Resolved_Atoms>  (731) 
nan

$$$$
CHEMBL3403013
     RDKit          3D

  0  0  0  0  0  0  0  0  0  0999 V3000
M  V30 BEGIN CTAB
M  V30 COUNTS 45 49 0 0 0
M  V30 BEGIN ATOM
M  V30 1 C 0.522911 4.154737 1.626236 0
M  V30 2 N 1.118875 2.875951 1.313869 0
M  V30 3 C 2.216450 2.840814 0.487939 0
M  V30 4 O 2.594772 1.638844 0.733060 0
M  V30 5 C 3.250130 3.171699 -0.457695 0
M  V30 6 C 2.722460 3.213304 -1.726144 0
M  V30 7 C 3.470532 3.530178 -2.858212 0
M  V30 8 C 4.799507 3.797731 -2.574793 0
M  V30 9 Cl 5.840375 4.226935 -3.948612 0
M  V30 10 C 5.325770 3.753873 -1.310294 0
M  V30 11 C 4.578110 3.440280 -0.200795 0
M  V30 12 C 0.553274 1.692121 1.823080 0
M  V30 13 C -0.230374 1.575660 2.890132 0
M  V30 14 C -0.925237 0.459836 3.277797 0
M  V30 15 C -0.757947 -0.619910 2.444495 0
M  V30 16 N -1.233017 -1.858142 2.344390 0
M  V30 17 C -0.824824 -2.585755 1.303271 0
M  V30 18 C -1.226932 -3.869351 0.789650 0
M  V30 19 N -0.729798 -4.470258 -0.305991 0
M  V30 20 N -1.283779 -5.658832 -0.482519 0
M  V30 21 C -2.171926 -5.875427 0.497986 0
M  V30 22 C -2.970030 -6.966398 0.723887 0
M  V30 23 C -3.805266 -6.959215 1.839404 0
M  V30 24 C -3.799421 -5.874831 2.667836 0
M  V30 25 C -2.959116 -4.802999 2.363731 0
M  V30 26 C -2.134628 -4.760237 1.293855 0
M  V30 27 C 0.061410 -1.755675 0.572637 0
M  V30 28 C 0.069759 -0.578483 1.292910 0
M  V30 29 N 0.706731 0.588041 1.012675 0
M  V30 30 H -0.332718 4.331058 0.894206 0
M  V30 31 H 1.227846 4.995088 1.404395 0
M  V30 32 H 0.054078 4.215955 2.618474 0
M  V30 33 H 1.661870 3.005869 -2.002673 0
M  V30 34 H 3.070148 3.569875 -3.858934 0
M  V30 35 H 6.380240 3.970882 -1.123776 0
M  V30 36 H 4.883078 3.369233 0.823922 0
M  V30 37 H -0.271921 2.466802 3.455814 0
M  V30 38 H -1.549281 0.382036 4.145201 0
M  V30 39 H -1.878281 -2.130935 3.095725 0
M  V30 40 H -1.051753 -6.291586 -1.270777 0
M  V30 41 H -2.912137 -7.793158 0.020396 0
M  V30 42 H -4.397055 -7.893569 1.891384 0
M  V30 43 H -4.444202 -5.909355 3.504417 0
M  V30 44 H -2.978008 -3.985859 3.022993 0
M  V30 45 H 0.588161 -1.999832 -0.334405 0
M  V30 END ATOM
M  V30 BEGIN BOND
M  V30 1 1 1 2
M  V30 2 1 2 3
M  V30 3 2 3 4
M  V30 4 1 3 5
M  V30 5 2 5 6
M  V30 6 1 6 7
M  V30 7 2 7 8
M  V30 8 1 8 9
M  V30 9 1 8 10
M  V30 10 2 10 11
M  V30 11 1 2 12
M  V30 12 2 12 13
M  V30 13 1 13 14
M  V30 14 2 14 15
M  V30 15 1 15 16
M  V30 16 1 16 17
M  V30 17 1 17 18
M  V30 18 2 18 19
M  V30 19 1 19 20
M  V30 20 1 20 21
M  V30 21 2 21 22
M  V30 22 1 22 23
M  V30 23 2 23 24
M  V30 24 1 24 25
M  V30 25 2 25 26
M  V30 26 2 17 27
M  V30 27 1 27 28
M  V30 28 2 28 29
M  V30 29 1 11 5
M  V30 30 1 29 12
M  V30 31 1 28 15
M  V30 32 1 26 18
M  V30 33 1 26 21
M  V30 34 1 1 30
M  V30 35 1 1 31
M  V30 36 1 1 32
M  V30 37 1 6 33
M  V30 38 1 7 34
M  V30 39 1 10 35
M  V30 40 1 11 36
M  V30 41 1 13 37
M  V30 42 1 14 38
M  V30 43 1 16 39
M  V30 44 1 20 40
M  V30 45 1 22 41
M  V30 46 1 23 42
M  V30 47 1 24 43
M  V30 48 1 25 44
M  V30 49 1 27 45
M  V30 END BOND
M  V30 END CTAB
M  END
>  <Dataset>  (732) 
ChEMBL_Kinases

>  <Ligand_Instance>  (732) 
nan

>  <PDB_ID>  (732) 
nan

>  <Standardized_SMILES>  (732) 
CN(C(=O)c1ccc(Cl)cc1)c1ccc2[nH]c(-c3n[nH]c4ccccc34)cc2n1

>  <Name>  (732) 
nan

>  <Pocket>  (732) 
nan

>  <ATP_Site>  (732) 
nan

>  <Peripheral>  (732) 
nan

>  <Num_H_Atoms_ProtBoundConf>  (732) 
nan

>  <Num_Resolved_Atoms>  (732) 
nan

>  <Num_Not_Resolved_Atoms>  (732) 
nan

$$$$
CHEMBL3403010
     RDKit          3D

  0  0  0  0  0  0  0  0  0  0999 V3000
M  V30 BEGIN CTAB
M  V30 COUNTS 45 49 0 0 0
M  V30 BEGIN ATOM
M  V30 1 C 2.789705 -1.101617 5.287320 0
M  V30 2 N 2.854939 -0.723124 3.885823 0
M  V30 3 C 4.136774 -0.820703 3.272275 0
M  V30 4 O 5.227384 -1.245862 3.792409 0
M  V30 5 C 4.518147 -0.457767 1.917248 0
M  V30 6 C 4.080822 -1.097435 0.758877 0
M  V30 7 C 4.457065 -0.699693 -0.499281 0
M  V30 8 C 5.294209 0.360334 -0.692987 0
M  V30 9 C 5.760722 1.032735 0.424850 0
M  V30 10 C 5.381482 0.630622 1.684864 0
M  V30 11 C 1.899951 -0.278687 2.918628 0
M  V30 12 C 1.791961 0.993956 2.419698 0
M  V30 13 C 0.772432 1.254911 1.555535 0
M  V30 14 C -0.151294 0.281832 1.168204 0
M  V30 15 N -1.233829 0.239729 0.388236 0
M  V30 16 C -1.834969 -0.951624 0.349898 0
M  V30 17 C -3.017938 -1.487400 -0.291306 0
M  V30 18 N -3.420602 -2.788355 -0.162505 0
M  V30 19 N -4.535131 -2.969705 -0.832225 0
M  V30 20 C -4.973565 -1.834760 -1.459040 0
M  V30 21 C -6.042972 -1.513790 -2.249050 0
M  V30 22 C -6.149932 -0.197903 -2.715143 0
M  V30 23 C -5.185956 0.722419 -2.368057 0
M  V30 24 C -4.135607 0.334127 -1.568643 0
M  V30 25 C -3.982954 -0.953146 -1.081202 0
M  V30 26 C -1.028500 -1.712853 1.191530 0
M  V30 27 C 0.008889 -0.972113 1.701266 0
M  V30 28 N 1.028503 -1.271548 2.577004 0
M  V30 29 H 3.312896 -0.392914 5.946947 0
M  V30 30 H 1.684363 -1.177316 5.536882 0
M  V30 31 H 3.185039 -2.114751 5.492732 0
M  V30 32 H 3.423808 -1.929086 0.956273 0
M  V30 33 H 4.084489 -1.238144 -1.385053 0
M  V30 34 H 5.627153 0.729647 -1.652031 0
M  V30 35 H 6.430816 1.899747 0.390131 0
M  V30 36 H 5.725289 1.137777 2.600469 0
M  V30 37 H 2.535676 1.710353 2.751076 0
M  V30 38 H 0.643362 2.248755 1.111538 0
M  V30 39 H -1.526427 1.078280 -0.115026 0
M  V30 40 H -5.029663 -3.908988 -0.868412 0
M  V30 41 H -6.774853 -2.305673 -2.483984 0
M  V30 42 H -7.009096 0.034760 -3.345772 0
M  V30 43 H -5.252578 1.750443 -2.724601 0
M  V30 44 H -3.418124 1.093779 -1.335007 0
M  V30 45 H -1.123052 -2.762258 1.469760 0
M  V30 END ATOM
M  V30 BEGIN BOND
M  V30 1 1 1 2
M  V30 2 1 2 3
M  V30 3 2 3 4
M  V30 4 1 3 5
M  V30 5 2 5 6
M  V30 6 1 6 7
M  V30 7 2 7 8
M  V30 8 1 8 9
M  V30 9 2 9 10
M  V30 10 1 2 11
M  V30 11 2 11 12
M  V30 12 1 12 13
M  V30 13 2 13 14
M  V30 14 1 14 15
M  V30 15 1 15 16
M  V30 16 1 16 17
M  V30 17 2 17 18
M  V30 18 1 18 19
M  V30 19 1 19 20
M  V30 20 2 20 21
M  V30 21 1 21 22
M  V30 22 2 22 23
M  V30 23 1 23 24
M  V30 24 2 24 25
M  V30 25 2 16 26
M  V30 26 1 26 27
M  V30 27 2 27 28
M  V30 28 1 10 5
M  V30 29 1 28 11
M  V30 30 1 27 14
M  V30 31 1 25 17
M  V30 32 1 25 20
M  V30 33 1 1 29
M  V30 34 1 1 30
M  V30 35 1 1 31
M  V30 36 1 6 32
M  V30 37 1 7 33
M  V30 38 1 8 34
M  V30 39 1 9 35
M  V30 40 1 10 36
M  V30 41 1 12 37
M  V30 42 1 13 38
M  V30 43 1 15 39
M  V30 44 1 19 40
M  V30 45 1 21 41
M  V30 46 1 22 42
M  V30 47 1 23 43
M  V30 48 1 24 44
M  V30 49 1 26 45
M  V30 END BOND
M  V30 END CTAB
M  END
>  <Dataset>  (733) 
ChEMBL_Kinases

>  <Ligand_Instance>  (733) 
nan

>  <PDB_ID>  (733) 
nan

>  <Standardized_SMILES>  (733) 
CN(C(=O)c1ccccc1)c1ccc2[nH]c(-c3n[nH]c4ccccc34)cc2n1

>  <Name>  (733) 
nan

>  <Pocket>  (733) 
nan

>  <ATP_Site>  (733) 
nan

>  <Peripheral>  (733) 
nan

>  <Num_H_Atoms_ProtBoundConf>  (733) 
nan

>  <Num_Resolved_Atoms>  (733) 
nan

>  <Num_Not_Resolved_Atoms>  (733) 
nan

$$$$
CHEMBL3402994
     RDKit          3D

  0  0  0  0  0  0  0  0  0  0999 V3000
M  V30 BEGIN CTAB
M  V30 COUNTS 46 48 0 0 0
M  V30 BEGIN ATOM
M  V30 1 C -0.309894 -3.530415 0.036592 0
M  V30 2 C 0.591788 -2.527056 0.605468 0
M  V30 3 C 1.794939 -2.321618 -0.030149 0
M  V30 4 C 2.302851 -2.972437 -1.260287 0
M  V30 5 C 1.668246 -2.388768 -2.465718 0
M  V30 6 C 0.574173 -2.818183 -3.175361 0
M  V30 7 C 0.066765 -2.179033 -4.284088 0
M  V30 8 C 0.696012 -1.031309 -4.714162 0
M  V30 9 C 1.797605 -0.530874 -4.063718 0
M  V30 10 N 2.417764 0.655977 -4.538748 0
M  V30 11 C 2.254813 -1.218221 -2.960748 0
M  V30 12 C 2.606759 -1.360463 0.578667 0
M  V30 13 O 3.761464 -1.013662 0.159471 0
M  V30 14 O 2.317157 -0.668828 1.665504 0
M  V30 15 C 1.169627 -0.854139 2.283837 0
M  V30 16 C 0.829935 -0.138266 3.437068 0
M  V30 17 C -0.395046 -0.393007 4.024100 0
M  V30 18 O -0.562447 0.415131 5.166292 0
M  V30 19 C -1.211657 1.611849 5.096126 0
M  V30 20 O -1.114880 0.961965 4.027360 0
M  V30 21 N -1.883825 2.850450 5.022476 0
M  V30 22 C -2.034979 3.664682 6.231047 0
M  V30 23 C -2.446628 3.377585 3.793395 0
M  V30 24 C -1.271205 -1.321715 3.503525 0
M  V30 25 C -0.904002 -2.010186 2.364544 0
M  V30 26 C 0.307510 -1.791986 1.742353 0
M  V30 27 H -1.170261 -3.100266 -0.515064 0
M  V30 28 H -0.767093 -4.101614 0.900701 0
M  V30 29 H 0.229481 -4.326474 -0.524802 0
M  V30 30 H 3.405579 -2.791058 -1.335712 0
M  V30 31 H 2.085609 -4.061464 -1.289305 0
M  V30 32 H 0.114580 -3.717894 -2.812711 0
M  V30 33 H -0.808319 -2.620864 -4.759152 0
M  V30 34 H 0.279761 -0.536675 -5.595490 0
M  V30 35 H 2.630760 1.585546 -4.081603 0
M  V30 36 H 2.711573 0.569706 -5.534901 0
M  V30 37 H 3.134885 -0.757800 -2.498438 0
M  V30 38 H 1.591539 0.556965 3.747966 0
M  V30 39 H -1.969965 2.969508 7.091229 0
M  V30 40 H -2.963658 4.232061 6.196266 0
M  V30 41 H -1.106298 4.300369 6.281607 0
M  V30 42 H -2.073953 2.716653 2.965968 0
M  V30 43 H -3.552642 3.314495 3.776032 0
M  V30 44 H -2.067595 4.385660 3.541857 0
M  V30 45 H -2.187428 -1.419876 4.058549 0
M  V30 46 H -1.651104 -2.710922 2.030061 0
M  V30 END ATOM
M  V30 BEGIN BOND
M  V30 1 1 1 2
M  V30 2 2 2 3
M  V30 3 1 3 4
M  V30 4 1 4 5
M  V30 5 2 5 6
M  V30 6 1 6 7
M  V30 7 2 7 8
M  V30 8 1 8 9
M  V30 9 1 9 10
M  V30 10 2 9 11
M  V30 11 1 3 12
M  V30 12 2 12 13
M  V30 13 1 12 14
M  V30 14 1 14 15
M  V30 15 2 15 16
M  V30 16 1 16 17
M  V30 17 1 17 18
M  V30 18 1 18 19
M  V30 19 2 19 20
M  V30 20 1 19 21
M  V30 21 1 21 22
M  V30 22 1 21 23
M  V30 23 2 17 24
M  V30 24 1 24 25
M  V30 25 2 25 26
M  V30 26 1 26 2
M  V30 27 1 11 5
M  V30 28 1 26 15
M  V30 29 1 1 27
M  V30 30 1 1 28
M  V30 31 1 1 29
M  V30 32 1 4 30
M  V30 33 1 4 31
M  V30 34 1 6 32
M  V30 35 1 7 33
M  V30 36 1 8 34
M  V30 37 1 10 35
M  V30 38 1 10 36
M  V30 39 1 11 37
M  V30 40 1 16 38
M  V30 41 1 22 39
M  V30 42 1 22 40
M  V30 43 1 22 41
M  V30 44 1 23 42
M  V30 45 1 23 43
M  V30 46 1 23 44
M  V30 47 1 24 45
M  V30 48 1 25 46
M  V30 END BOND
M  V30 END CTAB
M  END
>  <Dataset>  (734) 
ChEMBL_Kinases

>  <Ligand_Instance>  (734) 
nan

>  <PDB_ID>  (734) 
nan

>  <Standardized_SMILES>  (734) 
Cc1c(Cc2cccc(N)c2)c(=O)oc2cc(OC(=O)N(C)C)ccc12

>  <Name>  (734) 
nan

>  <Pocket>  (734) 
nan

>  <ATP_Site>  (734) 
nan

>  <Peripheral>  (734) 
nan

>  <Num_H_Atoms_ProtBoundConf>  (734) 
nan

>  <Num_Resolved_Atoms>  (734) 
nan

>  <Num_Not_Resolved_Atoms>  (734) 
nan

$$$$
CHEMBL3402993
     RDKit          3D

  0  0  0  0  0  0  0  0  0  0999 V3000
M  V30 BEGIN CTAB
M  V30 COUNTS 46 48 0 0 0
M  V30 BEGIN ATOM
M  V30 1 C 1.622017 -2.771254 2.253442 0
M  V30 2 C 0.793995 -1.556052 2.316173 0
M  V30 3 C 1.315832 -0.441672 2.935902 0
M  V30 4 C 2.626885 -0.272642 3.556828 0
M  V30 5 C 3.748898 -0.080336 2.615816 0
M  V30 6 C 4.596911 -1.023421 2.073711 0
M  V30 7 C 5.600662 -0.665129 1.201118 0
M  V30 8 C 5.826052 0.636407 0.813998 0
M  V30 9 C 5.001158 1.610474 1.332465 0
M  V30 10 N 5.181284 2.969804 0.972332 0 CHG=1 VAL=4
M  V30 11 O 6.093768 3.292999 0.180692 0
M  V30 12 O 4.385721 3.966785 1.461750 0 CHG=-1 VAL=1
M  V30 13 C 4.006523 1.232939 2.200614 0
M  V30 14 C 0.438874 0.644551 2.939494 0
M  V30 15 O 0.743944 1.743708 3.460026 0
M  V30 16 O -0.774423 0.667263 2.421675 0
M  V30 17 C -1.298054 -0.373938 1.827017 0
M  V30 18 C -2.565137 -0.344072 1.287086 0
M  V30 19 C -3.052529 -1.474690 0.674119 0
M  V30 20 O -4.357951 -1.359749 0.146343 0
M  V30 21 C -4.591707 -0.994923 -1.152638 0
M  V30 22 O -3.372035 -1.068672 -0.780230 0
M  V30 23 N -4.888197 -0.620645 -2.490584 0
M  V30 24 C -3.685462 -0.371918 -3.261626 0
M  V30 25 C -6.262422 -0.532249 -2.911930 0
M  V30 26 C -2.281089 -2.640065 0.596149 0
M  V30 27 C -1.019264 -2.610596 1.155079 0
M  V30 28 C -0.496632 -1.498246 1.777028 0
M  V30 29 H 2.286945 -2.780259 3.153412 0
M  V30 30 H 1.046023 -3.723686 2.332644 0
M  V30 31 H 2.292672 -2.755900 1.370488 0
M  V30 32 H 2.607940 0.619306 4.220992 0
M  V30 33 H 2.826224 -1.162379 4.206440 0
M  V30 34 H 4.414685 -2.032487 2.382634 0
M  V30 35 H 6.248654 -1.432071 0.794241 0
M  V30 36 H 6.594501 0.975469 0.136541 0
M  V30 37 H 3.377745 2.047963 2.584126 0
M  V30 38 H -3.129023 0.556198 1.361361 0
M  V30 39 H -3.036864 0.320228 -2.666810 0
M  V30 40 H -3.883331 0.058817 -4.240359 0
M  V30 41 H -3.127511 -1.334130 -3.302390 0
M  V30 42 H -6.913910 -0.175945 -2.087863 0
M  V30 43 H -6.593315 -1.489111 -3.365870 0
M  V30 44 H -6.261920 0.214381 -3.758876 0
M  V30 45 H -2.716235 -3.484228 0.107235 0
M  V30 46 H -0.482608 -3.533294 1.058104 0
M  V30 END ATOM
M  V30 BEGIN BOND
M  V30 1 1 1 2
M  V30 2 2 2 3
M  V30 3 1 3 4
M  V30 4 1 4 5
M  V30 5 2 5 6
M  V30 6 1 6 7
M  V30 7 2 7 8
M  V30 8 1 8 9
M  V30 9 1 9 10
M  V30 10 2 10 11
M  V30 11 1 10 12
M  V30 12 2 9 13
M  V30 13 1 3 14
M  V30 14 2 14 15
M  V30 15 1 14 16
M  V30 16 1 16 17
M  V30 17 2 17 18
M  V30 18 1 18 19
M  V30 19 1 19 20
M  V30 20 1 20 21
M  V30 21 2 21 22
M  V30 22 1 21 23
M  V30 23 1 23 24
M  V30 24 1 23 25
M  V30 25 2 19 26
M  V30 26 1 26 27
M  V30 27 2 27 28
M  V30 28 1 28 2
M  V30 29 1 13 5
M  V30 30 1 28 17
M  V30 31 1 1 29
M  V30 32 1 1 30
M  V30 33 1 1 31
M  V30 34 1 4 32
M  V30 35 1 4 33
M  V30 36 1 6 34
M  V30 37 1 7 35
M  V30 38 1 8 36
M  V30 39 1 13 37
M  V30 40 1 18 38
M  V30 41 1 24 39
M  V30 42 1 24 40
M  V30 43 1 24 41
M  V30 44 1 25 42
M  V30 45 1 25 43
M  V30 46 1 25 44
M  V30 47 1 26 45
M  V30 48 1 27 46
M  V30 END BOND
M  V30 END CTAB
M  END
>  <Dataset>  (735) 
ChEMBL_Kinases

>  <Ligand_Instance>  (735) 
nan

>  <PDB_ID>  (735) 
nan

>  <Standardized_SMILES>  (735) 
Cc1c(Cc2cccc([N+](=O)[O-])c2)c(=O)oc2cc(OC(=O)N(C)C)ccc12

>  <Name>  (735) 
nan

>  <Pocket>  (735) 
nan

>  <ATP_Site>  (735) 
nan

>  <Peripheral>  (735) 
nan

>  <Num_H_Atoms_ProtBoundConf>  (735) 
nan

>  <Num_Resolved_Atoms>  (735) 
nan

>  <Num_Not_Resolved_Atoms>  (735) 
nan

$$$$
CHEMBL3402508
     RDKit          3D

  0  0  0  0  0  0  0  0  0  0999 V3000
M  V30 BEGIN CTAB
M  V30 COUNTS 70 75 0 0 0
M  V30 BEGIN ATOM
M  V30 1 C -2.044613 -4.906464 0.773987 0
M  V30 2 C -0.833523 -4.952872 -0.153197 0
M  V30 3 C -1.311940 -4.623344 -1.539401 0
M  V30 4 C 0.201757 -3.957110 0.331966 0
M  V30 5 C 1.408124 -3.981367 -0.560961 0
M  V30 6 O 2.359854 -3.080708 -0.115576 0
M  V30 7 C 2.244186 -1.738082 -0.041492 0
M  V30 8 C 3.450116 -1.269589 0.511422 0
M  V30 9 C 3.696589 0.089625 0.742008 0
M  V30 10 C 2.710740 1.001699 0.410278 0
M  V30 11 C 1.495190 0.582337 -0.143636 0
M  V30 12 C 0.401855 1.514773 -0.471153 0
M  V30 13 C -0.873558 0.730440 -0.178788 0
M  V30 14 C -1.142978 0.201144 1.124689 0
M  V30 15 O -0.136976 0.542988 1.847911 0
M  V30 16 C -2.097033 -0.547960 1.881649 0
M  V30 17 C -3.296500 -1.059322 1.453398 0
M  V30 18 C -4.242250 -1.800866 2.162087 0
M  V30 19 C -3.838500 -1.999866 3.460688 0
M  V30 20 C -2.671305 -1.552652 4.033013 0
M  V30 21 C -1.849305 -0.840065 3.202792 0
M  V30 22 C -2.609304 -1.982881 5.472718 0
M  V30 23 C -4.090750 -2.261031 5.727626 0
M  V30 24 C -4.845989 -1.010520 6.072947 0
M  V30 25 O -4.567799 -2.708941 4.444418 0
M  V30 26 C -1.582634 0.657327 -1.289719 0
M  V30 27 O -2.784554 0.099964 -1.644991 0
M  V30 28 C -0.956351 1.317764 -2.423305 0
M  V30 29 O -1.206854 1.518925 -3.621718 0
M  V30 30 N 0.243107 1.810627 -1.857856 0
M  V30 31 C 1.345768 2.569631 -2.355946 0
M  V30 32 N 2.426938 3.048842 -2.051424 0
M  V30 33 C 3.180498 3.749978 -2.865344 0
M  V30 34 C 4.401714 4.299832 -2.518243 0
M  V30 35 C 5.111928 5.017268 -3.421560 0
M  V30 36 C 4.706834 5.264862 -4.732554 0
M  V30 37 F 5.350343 5.967147 -5.691386 0
M  V30 38 C 3.510252 4.745527 -5.121331 0
M  V30 39 C 2.765274 3.994993 -4.178934 0
M  V30 40 S 1.178414 3.122320 -4.154859 0
M  V30 41 C 1.339876 -0.758498 -0.334896 0
M  V30 42 H -1.808960 -5.426560 1.714987 0
M  V30 43 H -2.866007 -5.488159 0.297797 0
M  V30 44 H -2.433147 -3.880711 0.915306 0
M  V30 45 H -0.467405 -5.992362 -0.119350 0
M  V30 46 H -1.296139 -3.499055 -1.633544 0
M  V30 47 H -2.392722 -4.904839 -1.597390 0
M  V30 48 H -0.701635 -5.094062 -2.328597 0
M  V30 49 H -0.209873 -2.969074 0.440799 0
M  V30 50 H 0.576653 -4.277927 1.349195 0
M  V30 51 H 1.099572 -3.794635 -1.636098 0
M  V30 52 H 1.845760 -5.024205 -0.612557 0
M  V30 53 H 4.348355 -1.817634 0.841210 0
M  V30 54 H 4.577940 0.549123 1.160170 0
M  V30 55 H 2.833247 2.076565 0.568584 0
M  V30 56 H 0.418690 2.423254 0.171852 0
M  V30 57 H -3.619598 -0.904146 0.442101 0
M  V30 58 H -5.162054 -2.162514 1.735754 0
M  V30 59 H -0.934510 -0.519690 3.737473 0
M  V30 60 H -2.225119 -1.174495 6.111321 0
M  V30 61 H -2.001908 -2.892976 5.597538 0
M  V30 62 H -4.219984 -3.086330 6.423873 0
M  V30 63 H -5.753353 -1.278858 6.672633 0
M  V30 64 H -5.230201 -0.514694 5.150560 0
M  V30 65 H -4.209557 -0.264320 6.577588 0
M  V30 66 H -2.835887 -0.852410 -1.986707 0
M  V30 67 H 4.891835 4.215105 -1.536356 0
M  V30 68 H 6.087586 5.472715 -3.184076 0
M  V30 69 H 2.982064 4.793190 -6.065341 0
M  V30 70 H 0.441483 -1.160495 -0.775550 0
M  V30 END ATOM
M  V30 BEGIN BOND
M  V30 1 1 1 2
M  V30 2 1 2 3
M  V30 3 1 2 4
M  V30 4 1 4 5
M  V30 5 1 5 6
M  V30 6 1 6 7
M  V30 7 2 7 8
M  V30 8 1 8 9
M  V30 9 2 9 10
M  V30 10 1 10 11
M  V30 11 1 11 12
M  V30 12 1 12 13
M  V30 13 1 13 14
M  V30 14 2 14 15
M  V30 15 1 14 16
M  V30 16 2 16 17
M  V30 17 1 17 18
M  V30 18 2 18 19
M  V30 19 1 19 20
M  V30 20 2 20 21
M  V30 21 1 20 22
M  V30 22 1 22 23
M  V30 23 1 23 24
M  V30 24 1 23 25
M  V30 25 2 13 26
M  V30 26 1 26 27
M  V30 27 1 26 28
M  V30 28 2 28 29
M  V30 29 1 28 30
M  V30 30 1 30 31
M  V30 31 2 31 32
M  V30 32 1 32 33
M  V30 33 2 33 34
M  V30 34 1 34 35
M  V30 35 2 35 36
M  V30 36 1 36 37
M  V30 37 1 36 38
M  V30 38 2 38 39
M  V30 39 1 39 40
M  V30 40 2 11 41
M  V30 41 1 41 7
M  V30 42 1 30 12
M  V30 43 1 40 31
M  V30 44 1 21 16
M  V30 45 1 39 33
M  V30 46 1 25 19
M  V30 47 1 1 42
M  V30 48 1 1 43
M  V30 49 1 1 44
M  V30 50 1 2 45
M  V30 51 1 3 46
M  V30 52 1 3 47
M  V30 53 1 3 48
M  V30 54 1 4 49
M  V30 55 1 4 50
M  V30 56 1 5 51
M  V30 57 1 5 52
M  V30 58 1 8 53
M  V30 59 1 9 54
M  V30 60 1 10 55
M  V30 61 1 12 56
M  V30 62 1 17 57
M  V30 63 1 18 58
M  V30 64 1 21 59
M  V30 65 1 22 60
M  V30 66 1 22 61
M  V30 67 1 23 62
M  V30 68 1 24 63
M  V30 69 1 24 64
M  V30 70 1 24 65
M  V30 71 1 27 66
M  V30 72 1 34 67
M  V30 73 1 35 68
M  V30 74 1 38 69
M  V30 75 1 41 70
M  V30 END BOND
M  V30 END CTAB
M  END
>  <Dataset>  (736) 
ChEMBL_Kinases

>  <Ligand_Instance>  (736) 
nan

>  <PDB_ID>  (736) 
nan

>  <Standardized_SMILES>  (736) 
CC(C)CCOc1cccc(C2C(C(=O)c3ccc4c(c3)CC(C)O4)=C(O)C(=O)N2c2nc3ccc(F)cc3s2)c1

>  <Name>  (736) 
nan

>  <Pocket>  (736) 
nan

>  <ATP_Site>  (736) 
nan

>  <Peripheral>  (736) 
nan

>  <Num_H_Atoms_ProtBoundConf>  (736) 
nan

>  <Num_Resolved_Atoms>  (736) 
nan

>  <Num_Not_Resolved_Atoms>  (736) 
nan

$$$$
CHEMBL3402507
     RDKit          3D

  0  0  0  0  0  0  0  0  0  0999 V3000
M  V30 BEGIN CTAB
M  V30 COUNTS 70 75 0 0 0
M  V30 BEGIN ATOM
M  V30 1 C 5.283309 -5.295222 -0.084325 0
M  V30 2 C 4.224718 -5.884142 -0.984351 0
M  V30 3 C 3.389135 -4.738780 -1.584278 0
M  V30 4 C 2.343173 -5.321056 -2.472982 0
M  V30 5 C 1.446991 -4.336596 -3.173276 0
M  V30 6 O 0.696289 -3.483509 -2.448232 0
M  V30 7 C 0.785854 -2.472433 -1.597852 0
M  V30 8 C -0.538320 -2.127254 -1.257937 0
M  V30 9 C -0.849285 -1.084537 -0.368262 0
M  V30 10 C 0.209714 -0.384449 0.181494 0
M  V30 11 C 0.038867 0.777592 1.127988 0
M  V30 12 C -1.390705 1.184507 1.230853 0
M  V30 13 C -2.081509 1.708774 0.086337 0
M  V30 14 O -1.274846 1.736061 -0.907894 0
M  V30 15 C -3.341420 2.216974 -0.368104 0
M  V30 16 C -3.439451 2.608473 -1.690406 0
M  V30 17 C -4.638849 3.118584 -2.216629 0
M  V30 18 C -5.731201 3.225525 -1.388135 0
M  V30 19 C -5.711068 2.856658 -0.061840 0
M  V30 20 C -4.496742 2.371915 0.355055 0
M  V30 21 C -7.047309 3.111033 0.498210 0
M  V30 22 C -7.900516 3.489302 -0.693298 0
M  V30 23 C -8.636142 4.799248 -0.439482 0
M  V30 24 O -6.990454 3.706984 -1.741943 0
M  V30 25 C -1.814154 0.982658 2.462541 0
M  V30 26 O -3.005494 1.170252 3.102740 0
M  V30 27 C -0.765374 0.443602 3.315019 0
M  V30 28 O -0.680674 0.097256 4.516699 0
M  V30 29 N 0.355969 0.342548 2.448445 0
M  V30 30 C 1.661895 -0.117189 2.781245 0
M  V30 31 N 2.280502 -1.098048 2.834194 0
M  V30 32 C 3.541672 -1.268068 3.191879 0
M  V30 33 C 4.291515 -2.422230 3.260714 0
M  V30 34 C 5.592406 -2.385895 3.658404 0
M  V30 35 C 6.273135 -1.240214 4.020316 0
M  V30 36 F 7.556088 -1.122133 4.423726 0
M  V30 37 C 5.590871 -0.044516 3.977583 0
M  V30 38 C 4.246944 -0.118175 3.561807 0
M  V30 39 S 2.946641 1.196760 3.348581 0
M  V30 40 C 1.507818 -0.663683 -0.102633 0
M  V30 41 C 1.739615 -1.696158 -0.980727 0
M  V30 42 H 6.317344 -5.503920 -0.420579 0
M  V30 43 H 5.165368 -4.201057 0.075199 0
M  V30 44 H 5.220378 -5.754501 0.943839 0
M  V30 45 H 3.589529 -6.564431 -0.396439 0
M  V30 46 H 4.706673 -6.387896 -1.825503 0
M  V30 47 H 4.073070 -4.046136 -2.062082 0
M  V30 48 H 2.901974 -4.279223 -0.673332 0
M  V30 49 H 1.701820 -6.041116 -1.874080 0
M  V30 50 H 2.835588 -6.012575 -3.218432 0
M  V30 51 H 2.014397 -3.834659 -4.016177 0
M  V30 52 H 0.721473 -4.993220 -3.773591 0
M  V30 53 H -1.499153 -2.563568 -1.589609 0
M  V30 54 H -1.837631 -0.774021 -0.061344 0
M  V30 55 H 0.672735 1.632683 0.788902 0
M  V30 56 H -2.659743 2.583347 -2.469097 0
M  V30 57 H -4.699995 3.421595 -3.256773 0
M  V30 58 H -4.549420 2.108964 1.375290 0
M  V30 59 H -6.967475 4.000787 1.152342 0
M  V30 60 H -7.445679 2.222347 1.029443 0
M  V30 61 H -8.639908 2.693726 -0.918286 0
M  V30 62 H -9.526105 4.793174 -1.098103 0
M  V30 63 H -8.974555 4.799584 0.608361 0
M  V30 64 H -7.991453 5.683233 -0.596106 0
M  V30 65 H -3.738342 0.476327 3.173634 0
M  V30 66 H 3.931974 -3.397406 3.019054 0
M  V30 67 H 6.222800 -3.289172 3.725336 0
M  V30 68 H 5.921139 0.962364 4.214872 0
M  V30 69 H 2.421192 -0.205590 0.237697 0
M  V30 70 H 2.724172 -2.004381 -1.297177 0
M  V30 END ATOM
M  V30 BEGIN BOND
M  V30 1 1 1 2
M  V30 2 1 2 3
M  V30 3 1 3 4
M  V30 4 1 4 5
M  V30 5 1 5 6
M  V30 6 1 6 7
M  V30 7 2 7 8
M  V30 8 1 8 9
M  V30 9 2 9 10
M  V30 10 1 10 11
M  V30 11 1 11 12
M  V30 12 1 12 13
M  V30 13 2 13 14
M  V30 14 1 13 15
M  V30 15 2 15 16
M  V30 16 1 16 17
M  V30 17 2 17 18
M  V30 18 1 18 19
M  V30 19 2 19 20
M  V30 20 1 19 21
M  V30 21 1 21 22
M  V30 22 1 22 23
M  V30 23 1 22 24
M  V30 24 2 12 25
M  V30 25 1 25 26
M  V30 26 1 25 27
M  V30 27 2 27 28
M  V30 28 1 27 29
M  V30 29 1 29 30
M  V30 30 2 30 31
M  V30 31 1 31 32
M  V30 32 2 32 33
M  V30 33 1 33 34
M  V30 34 2 34 35
M  V30 35 1 35 36
M  V30 36 1 35 37
M  V30 37 2 37 38
M  V30 38 1 38 39
M  V30 39 1 10 40
M  V30 40 2 40 41
M  V30 41 1 41 7
M  V30 42 1 29 11
M  V30 43 1 39 30
M  V30 44 1 20 15
M  V30 45 1 38 32
M  V30 46 1 24 18
M  V30 47 1 1 42
M  V30 48 1 1 43
M  V30 49 1 1 44
M  V30 50 1 2 45
M  V30 51 1 2 46
M  V30 52 1 3 47
M  V30 53 1 3 48
M  V30 54 1 4 49
M  V30 55 1 4 50
M  V30 56 1 5 51
M  V30 57 1 5 52
M  V30 58 1 8 53
M  V30 59 1 9 54
M  V30 60 1 11 55
M  V30 61 1 16 56
M  V30 62 1 17 57
M  V30 63 1 20 58
M  V30 64 1 21 59
M  V30 65 1 21 60
M  V30 66 1 22 61
M  V30 67 1 23 62
M  V30 68 1 23 63
M  V30 69 1 23 64
M  V30 70 1 26 65
M  V30 71 1 33 66
M  V30 72 1 34 67
M  V30 73 1 37 68
M  V30 74 1 40 69
M  V30 75 1 41 70
M  V30 END BOND
M  V30 END CTAB
M  END
>  <Dataset>  (737) 
ChEMBL_Kinases

>  <Ligand_Instance>  (737) 
nan

>  <PDB_ID>  (737) 
nan

>  <Standardized_SMILES>  (737) 
CCCCCOc1ccc(C2C(C(=O)c3ccc4c(c3)CC(C)O4)=C(O)C(=O)N2c2nc3ccc(F)cc3s2)cc1

>  <Name>  (737) 
nan

>  <Pocket>  (737) 
nan

>  <ATP_Site>  (737) 
nan

>  <Peripheral>  (737) 
nan

>  <Num_H_Atoms_ProtBoundConf>  (737) 
nan

>  <Num_Resolved_Atoms>  (737) 
nan

>  <Num_Not_Resolved_Atoms>  (737) 
nan

$$$$
CHEMBL3402506
     RDKit          3D

  0  0  0  0  0  0  0  0  0  0999 V3000
M  V30 BEGIN CTAB
M  V30 COUNTS 71 76 0 0 0
M  V30 BEGIN ATOM
M  V30 1 C 1.562772 -8.672619 1.927101 0
M  V30 2 C 1.685451 -8.134019 0.527293 0
M  V30 3 C 1.646707 -6.624010 0.588203 0
M  V30 4 C 1.767760 -6.029969 -0.807408 0
M  V30 5 C 1.730580 -4.518215 -0.762079 0
M  V30 6 O 0.546647 -4.022527 -0.212512 0
M  V30 7 C 0.296425 -2.643518 -0.073404 0
M  V30 8 C -0.889715 -2.202743 0.476526 0
M  V30 9 C -1.181598 -0.865211 0.633998 0
M  V30 10 C -0.267807 0.085833 0.233168 0
M  V30 11 C -0.399090 1.585621 0.284744 0
M  V30 12 C -1.770999 1.954757 0.713600 0
M  V30 13 C -2.912129 1.645269 -0.086511 0
M  V30 14 O -2.460622 1.048125 -1.135929 0
M  V30 15 C -4.342525 1.757186 -0.140824 0
M  V30 16 C -5.176937 2.320515 0.785239 0
M  V30 17 C -6.543925 2.436829 0.745894 0
M  V30 18 C -7.123632 1.910658 -0.381259 0
M  V30 19 C -6.397301 1.318906 -1.382922 0
M  V30 20 C -5.049084 1.259083 -1.238190 0
M  V30 21 O -7.020463 0.799604 -2.505216 0
M  V30 22 C -8.351046 1.212166 -2.769660 0
M  V30 23 C -9.179483 1.193251 -1.478656 0
M  V30 24 O -8.504514 1.985264 -0.503333 0
M  V30 25 C -1.699450 2.572119 1.876350 0
M  V30 26 O -2.598309 3.132208 2.753756 0
M  V30 27 C -0.333063 2.701150 2.360797 0
M  V30 28 O 0.259414 3.177702 3.355674 0
M  V30 29 N 0.431362 2.077205 1.333037 0
M  V30 30 C 1.844373 1.917987 1.259797 0
M  V30 31 N 2.642234 2.636954 0.737249 0
M  V30 32 C 3.945581 2.458133 0.707810 0
M  V30 33 C 4.909431 3.276477 0.107726 0
M  V30 34 C 6.232250 2.904946 0.194132 0
M  V30 35 C 6.725806 1.802757 0.812952 0
M  V30 36 C 8.144528 1.413215 0.900847 0
M  V30 37 C 5.798768 0.981368 1.410849 0
M  V30 38 C 4.471095 1.311472 1.350316 0
M  V30 39 S 2.942145 0.529691 1.988562 0
M  V30 40 C 0.924681 -0.335569 -0.319479 0
M  V30 41 C 1.230656 -1.685114 -0.483113 0
M  V30 42 H 1.959003 -9.715317 2.016580 0
M  V30 43 H 0.481874 -8.765785 2.215817 0
M  V30 44 H 2.010170 -8.012215 2.691658 0
M  V30 45 H 0.769578 -8.462253 -0.015689 0
M  V30 46 H 2.611754 -8.521701 0.094926 0
M  V30 47 H 2.418116 -6.208471 1.266135 0
M  V30 48 H 0.619099 -6.368099 0.949286 0
M  V30 49 H 0.955686 -6.372336 -1.448602 0
M  V30 50 H 2.740762 -6.348911 -1.229419 0
M  V30 51 H 1.837974 -4.126555 -1.783578 0
M  V30 52 H 2.567220 -4.143015 -0.141894 0
M  V30 53 H -1.662234 -2.903799 0.817166 0
M  V30 54 H -2.086588 -0.477344 1.062784 0
M  V30 55 H -0.151601 2.022940 -0.710980 0
M  V30 56 H -4.786871 2.742756 1.678649 0
M  V30 57 H -7.150910 2.894055 1.511126 0
M  V30 58 H -4.531993 0.775995 -2.068259 0
M  V30 59 H -8.318671 2.265600 -3.103772 0
M  V30 60 H -8.845891 0.535276 -3.493133 0
M  V30 61 H -10.146214 1.675121 -1.675909 0
M  V30 62 H -9.246301 0.173504 -1.077166 0
M  V30 63 H -3.068384 2.538775 3.440433 0
M  V30 64 H 4.664753 4.191854 -0.423276 0
M  V30 65 H 6.976231 3.563925 -0.285576 0
M  V30 66 H 8.345947 0.760062 1.775195 0
M  V30 67 H 8.745676 2.337846 1.104166 0
M  V30 68 H 8.497757 0.953578 -0.032669 0
M  V30 69 H 6.004371 0.053605 1.953827 0
M  V30 70 H 1.772828 0.250940 -0.707493 0
M  V30 71 H 2.117162 -2.112398 -0.895861 0
M  V30 END ATOM
M  V30 BEGIN BOND
M  V30 1 1 1 2
M  V30 2 1 2 3
M  V30 3 1 3 4
M  V30 4 1 4 5
M  V30 5 1 5 6
M  V30 6 1 6 7
M  V30 7 2 7 8
M  V30 8 1 8 9
M  V30 9 2 9 10
M  V30 10 1 10 11
M  V30 11 1 11 12
M  V30 12 1 12 13
M  V30 13 2 13 14
M  V30 14 1 13 15
M  V30 15 2 15 16
M  V30 16 1 16 17
M  V30 17 2 17 18
M  V30 18 1 18 19
M  V30 19 2 19 20
M  V30 20 1 19 21
M  V30 21 1 21 22
M  V30 22 1 22 23
M  V30 23 1 23 24
M  V30 24 2 12 25
M  V30 25 1 25 26
M  V30 26 1 25 27
M  V30 27 2 27 28
M  V30 28 1 27 29
M  V30 29 1 29 30
M  V30 30 2 30 31
M  V30 31 1 31 32
M  V30 32 2 32 33
M  V30 33 1 33 34
M  V30 34 2 34 35
M  V30 35 1 35 36
M  V30 36 1 35 37
M  V30 37 2 37 38
M  V30 38 1 38 39
M  V30 39 1 10 40
M  V30 40 2 40 41
M  V30 41 1 41 7
M  V30 42 1 29 11
M  V30 43 1 39 30
M  V30 44 1 20 15
M  V30 45 1 38 32
M  V30 46 1 24 18
M  V30 47 1 1 42
M  V30 48 1 1 43
M  V30 49 1 1 44
M  V30 50 1 2 45
M  V30 51 1 2 46
M  V30 52 1 3 47
M  V30 53 1 3 48
M  V30 54 1 4 49
M  V30 55 1 4 50
M  V30 56 1 5 51
M  V30 57 1 5 52
M  V30 58 1 8 53
M  V30 59 1 9 54
M  V30 60 1 11 55
M  V30 61 1 16 56
M  V30 62 1 17 57
M  V30 63 1 20 58
M  V30 64 1 22 59
M  V30 65 1 22 60
M  V30 66 1 23 61
M  V30 67 1 23 62
M  V30 68 1 26 63
M  V30 69 1 33 64
M  V30 70 1 34 65
M  V30 71 1 36 66
M  V30 72 1 36 67
M  V30 73 1 36 68
M  V30 74 1 37 69
M  V30 75 1 40 70
M  V30 76 1 41 71
M  V30 END BOND
M  V30 END CTAB
M  END
>  <Dataset>  (738) 
ChEMBL_Kinases

>  <Ligand_Instance>  (738) 
nan

>  <PDB_ID>  (738) 
nan

>  <Standardized_SMILES>  (738) 
CCCCCOc1ccc(C2C(C(=O)c3ccc4c(c3)OCCO4)=C(O)C(=O)N2c2nc3ccc(C)cc3s2)cc1

>  <Name>  (738) 
nan

>  <Pocket>  (738) 
nan

>  <ATP_Site>  (738) 
nan

>  <Peripheral>  (738) 
nan

>  <Num_H_Atoms_ProtBoundConf>  (738) 
nan

>  <Num_Resolved_Atoms>  (738) 
nan

>  <Num_Not_Resolved_Atoms>  (738) 
nan

$$$$
CHEMBL3402505
     RDKit          3D

  0  0  0  0  0  0  0  0  0  0999 V3000
M  V30 BEGIN CTAB
M  V30 COUNTS 65 70 0 0 0
M  V30 BEGIN ATOM
M  V30 1 C 3.305208 -1.183587 6.715833 0
M  V30 2 C 1.956047 -1.507748 6.138527 0
M  V30 3 C 1.627711 -0.611907 4.954883 0
M  V30 4 C 2.681025 -0.837383 3.923567 0
M  V30 5 O 2.590213 -0.121019 2.751856 0
M  V30 6 C 1.661923 -0.082031 1.771396 0
M  V30 7 C 0.486888 -0.766345 1.610675 0
M  V30 8 C -0.340428 -0.592492 0.536242 0
M  V30 9 C -0.026808 0.298481 -0.460550 0
M  V30 10 C -0.759287 0.656469 -1.719969 0
M  V30 11 C 0.101860 0.367993 -2.881503 0
M  V30 12 C 0.706475 -0.759804 -3.578059 0
M  V30 13 O 1.474368 -0.595576 -4.589470 0
M  V30 14 C 0.559698 -2.169726 -3.277982 0
M  V30 15 C 1.294734 -3.087210 -4.001876 0
M  V30 16 C 1.188808 -4.467877 -3.786471 0
M  V30 17 C 0.342830 -4.981989 -2.838104 0
M  V30 18 C -0.403358 -4.091975 -2.100850 0
M  V30 19 C -0.267914 -2.745603 -2.345995 0
M  V30 20 O -1.262244 -4.578473 -1.140691 0
M  V30 21 C -1.376940 -5.921674 -0.777359 0
M  V30 22 C -0.449112 -6.862179 -1.467168 0
M  V30 23 O 0.207238 -6.331709 -2.592471 0
M  V30 24 C 0.466875 1.503043 -3.522547 0
M  V30 25 O 1.210036 2.020080 -4.605241 0
M  V30 26 C -0.147343 2.648098 -2.848945 0
M  V30 27 O -0.248959 3.881737 -2.870474 0
M  V30 28 N -0.900260 2.109435 -1.775869 0
M  V30 29 C -1.764981 2.572976 -0.722536 0
M  V30 30 N -2.926132 2.736744 -0.678965 0
M  V30 31 C -3.648519 3.169473 0.335412 0
M  V30 32 C -5.016149 3.350989 0.352635 0
M  V30 33 C -5.622626 3.813386 1.499850 0
M  V30 34 C -4.972743 4.123923 2.675650 0
M  V30 35 Cl -5.729067 4.709536 4.133062 0
M  V30 36 C -3.606221 3.942038 2.656873 0
M  V30 37 C -2.996575 3.472549 1.489738 0
M  V30 38 S -1.296478 3.111042 1.062742 0
M  V30 39 C 1.160374 1.023110 -0.347642 0
M  V30 40 C 1.996171 0.832101 0.760961 0
M  V30 41 H 4.063715 -1.849506 6.247984 0
M  V30 42 H 3.540940 -0.112616 6.628765 0
M  V30 43 H 3.279499 -1.436663 7.801263 0
M  V30 44 H 1.196238 -1.314558 6.942704 0
M  V30 45 H 1.900693 -2.570530 5.896975 0
M  V30 46 H 1.617103 0.432509 5.345246 0
M  V30 47 H 0.644782 -0.898952 4.557613 0
M  V30 48 H 2.602501 -1.939516 3.651222 0
M  V30 49 H 3.722412 -0.786780 4.366935 0
M  V30 50 H 0.213287 -1.479208 2.363727 0
M  V30 51 H -1.271810 -1.099647 0.362804 0
M  V30 52 H -1.696468 0.110297 -1.800913 0
M  V30 53 H 1.992210 -2.862189 -4.767952 0
M  V30 54 H 1.757220 -5.194606 -4.344879 0
M  V30 55 H -0.881810 -2.117135 -1.759080 0
M  V30 56 H -1.172941 -5.955278 0.332972 0
M  V30 57 H -2.451205 -6.203006 -0.891937 0
M  V30 58 H -1.063217 -7.769291 -1.740694 0
M  V30 59 H 0.318850 -7.260397 -0.772457 0
M  V30 60 H 0.707665 2.191404 -5.484478 0
M  V30 61 H -5.708304 3.159854 -0.483207 0
M  V30 62 H -6.713761 3.966525 1.538305 0
M  V30 63 H -2.946600 4.136195 3.489109 0
M  V30 64 H 1.496506 1.761532 -1.098377 0
M  V30 65 H 2.915092 1.436862 0.783971 0
M  V30 END ATOM
M  V30 BEGIN BOND
M  V30 1 1 1 2
M  V30 2 1 2 3
M  V30 3 1 3 4
M  V30 4 1 4 5
M  V30 5 1 5 6
M  V30 6 2 6 7
M  V30 7 1 7 8
M  V30 8 2 8 9
M  V30 9 1 9 10
M  V30 10 1 10 11
M  V30 11 1 11 12
M  V30 12 2 12 13
M  V30 13 1 12 14
M  V30 14 2 14 15
M  V30 15 1 15 16
M  V30 16 2 16 17
M  V30 17 1 17 18
M  V30 18 2 18 19
M  V30 19 1 18 20
M  V30 20 1 20 21
M  V30 21 1 21 22
M  V30 22 1 22 23
M  V30 23 2 11 24
M  V30 24 1 24 25
M  V30 25 1 24 26
M  V30 26 2 26 27
M  V30 27 1 26 28
M  V30 28 1 28 29
M  V30 29 2 29 30
M  V30 30 1 30 31
M  V30 31 2 31 32
M  V30 32 1 32 33
M  V30 33 2 33 34
M  V30 34 1 34 35
M  V30 35 1 34 36
M  V30 36 2 36 37
M  V30 37 1 37 38
M  V30 38 1 9 39
M  V30 39 2 39 40
M  V30 40 1 40 6
M  V30 41 1 28 10
M  V30 42 1 38 29
M  V30 43 1 19 14
M  V30 44 1 37 31
M  V30 45 1 23 17
M  V30 46 1 1 41
M  V30 47 1 1 42
M  V30 48 1 1 43
M  V30 49 1 2 44
M  V30 50 1 2 45
M  V30 51 1 3 46
M  V30 52 1 3 47
M  V30 53 1 4 48
M  V30 54 1 4 49
M  V30 55 1 7 50
M  V30 56 1 8 51
M  V30 57 1 10 52
M  V30 58 1 15 53
M  V30 59 1 16 54
M  V30 60 1 19 55
M  V30 61 1 21 56
M  V30 62 1 21 57
M  V30 63 1 22 58
M  V30 64 1 22 59
M  V30 65 1 25 60
M  V30 66 1 32 61
M  V30 67 1 33 62
M  V30 68 1 36 63
M  V30 69 1 39 64
M  V30 70 1 40 65
M  V30 END BOND
M  V30 END CTAB
M  END
>  <Dataset>  (739) 
ChEMBL_Kinases

>  <Ligand_Instance>  (739) 
nan

>  <PDB_ID>  (739) 
nan

>  <Standardized_SMILES>  (739) 
CCCCOc1ccc(C2C(C(=O)c3ccc4c(c3)OCCO4)=C(O)C(=O)N2c2nc3ccc(Cl)cc3s2)cc1

>  <Name>  (739) 
nan

>  <Pocket>  (739) 
nan

>  <ATP_Site>  (739) 
nan

>  <Peripheral>  (739) 
nan

>  <Num_H_Atoms_ProtBoundConf>  (739) 
nan

>  <Num_Resolved_Atoms>  (739) 
nan

>  <Num_Not_Resolved_Atoms>  (739) 
nan

$$$$
CHEMBL3402504
     RDKit          3D

  0  0  0  0  0  0  0  0  0  0999 V3000
M  V30 BEGIN CTAB
M  V30 COUNTS 62 67 0 0 0
M  V30 BEGIN ATOM
M  V30 1 C 1.216087 1.438106 6.362628 0
M  V30 2 C -0.241819 1.265016 6.011091 0
M  V30 3 C -0.350148 0.499389 4.693895 0
M  V30 4 O 0.290946 1.195396 3.650712 0
M  V30 5 C 0.313476 0.676782 2.364091 0
M  V30 6 C -0.301771 -0.531028 2.123310 0
M  V30 7 C -0.312880 -1.095338 0.870786 0
M  V30 8 C 0.292687 -0.475200 -0.202148 0
M  V30 9 C 0.470223 -0.767113 -1.649174 0
M  V30 10 C -0.147424 0.216799 -2.548704 0
M  V30 11 C -1.471561 0.727255 -2.880231 0
M  V30 12 O -1.648663 1.674354 -3.721475 0
M  V30 13 C -2.752867 0.294920 -2.363748 0
M  V30 14 C -3.897436 0.980089 -2.705450 0
M  V30 15 C -5.168011 0.591683 -2.261790 0
M  V30 16 C -5.341694 -0.504384 -1.454023 0
M  V30 17 C -4.217368 -1.213311 -1.093360 0
M  V30 18 C -2.997291 -0.790680 -1.555608 0
M  V30 19 O -4.385318 -2.321864 -0.277283 0
M  V30 20 C -5.463754 -2.437245 0.635864 0
M  V30 21 C -6.684871 -1.675220 0.239035 0
M  V30 22 O -6.557511 -0.955402 -0.971918 0
M  V30 23 C 0.752880 0.878079 -3.316326 0
M  V30 24 O 0.883218 1.868583 -4.304642 0
M  V30 25 C 2.097273 0.334697 -2.987565 0
M  V30 26 O 3.276674 0.541248 -3.350800 0
M  V30 27 N 1.877864 -0.662237 -2.005700 0
M  V30 28 C 2.744775 -1.556874 -1.318776 0
M  V30 29 N 2.718559 -2.418777 -0.499374 0
M  V30 30 C 3.751481 -3.102392 -0.041816 0
M  V30 31 C 3.712700 -4.101177 0.909345 0
M  V30 32 C 4.870186 -4.720510 1.283517 0
M  V30 33 C 6.125056 -4.439675 0.789028 0
M  V30 34 Cl 7.645364 -5.184452 1.215373 0
M  V30 35 C 6.235488 -3.461314 -0.155933 0
M  V30 36 C 5.036744 -2.813985 -0.549037 0
M  V30 37 S 4.583254 -1.486225 -1.721184 0
M  V30 38 C 0.917617 0.751912 0.043771 0
M  V30 39 C 0.930840 1.330762 1.321889 0
M  V30 40 H 1.664709 2.335413 5.909001 0
M  V30 41 H 1.822174 0.580132 5.951226 0
M  V30 42 H 1.345281 1.551964 7.462190 0
M  V30 43 H -0.771468 0.730897 6.823263 0
M  V30 44 H -0.700092 2.277453 5.916565 0
M  V30 45 H -1.434882 0.359646 4.516183 0
M  V30 46 H 0.073952 -0.505313 4.872704 0
M  V30 47 H -0.809940 -1.123740 2.855732 0
M  V30 48 H -0.741908 -2.028595 0.520543 0
M  V30 49 H 0.125499 -1.762894 -1.888846 0
M  V30 50 H -3.938065 1.859900 -3.329230 0
M  V30 51 H -6.065113 1.130741 -2.531106 0
M  V30 52 H -2.160883 -1.396686 -1.261988 0
M  V30 53 H -5.030203 -2.088739 1.619095 0
M  V30 54 H -5.728336 -3.516981 0.753496 0
M  V30 55 H -7.604135 -2.311884 0.196508 0
M  V30 56 H -6.896399 -0.947505 1.076805 0
M  V30 57 H 0.657898 2.846886 -4.086328 0
M  V30 58 H 2.809996 -4.466654 1.419380 0
M  V30 59 H 4.872479 -5.522139 2.040766 0
M  V30 60 H 7.063324 -3.060307 -0.686052 0
M  V30 61 H 1.457714 1.423523 -0.639160 0
M  V30 62 H 1.384215 2.261975 1.594690 0
M  V30 END ATOM
M  V30 BEGIN BOND
M  V30 1 1 1 2
M  V30 2 1 2 3
M  V30 3 1 3 4
M  V30 4 1 4 5
M  V30 5 2 5 6
M  V30 6 1 6 7
M  V30 7 2 7 8
M  V30 8 1 8 9
M  V30 9 1 9 10
M  V30 10 1 10 11
M  V30 11 2 11 12
M  V30 12 1 11 13
M  V30 13 2 13 14
M  V30 14 1 14 15
M  V30 15 2 15 16
M  V30 16 1 16 17
M  V30 17 2 17 18
M  V30 18 1 17 19
M  V30 19 1 19 20
M  V30 20 1 20 21
M  V30 21 1 21 22
M  V30 22 2 10 23
M  V30 23 1 23 24
M  V30 24 1 23 25
M  V30 25 2 25 26
M  V30 26 1 25 27
M  V30 27 1 27 28
M  V30 28 2 28 29
M  V30 29 1 29 30
M  V30 30 2 30 31
M  V30 31 1 31 32
M  V30 32 2 32 33
M  V30 33 1 33 34
M  V30 34 1 33 35
M  V30 35 2 35 36
M  V30 36 1 36 37
M  V30 37 1 8 38
M  V30 38 2 38 39
M  V30 39 1 39 5
M  V30 40 1 27 9
M  V30 41 1 37 28
M  V30 42 1 18 13
M  V30 43 1 36 30
M  V30 44 1 22 16
M  V30 45 1 1 40
M  V30 46 1 1 41
M  V30 47 1 1 42
M  V30 48 1 2 43
M  V30 49 1 2 44
M  V30 50 1 3 45
M  V30 51 1 3 46
M  V30 52 1 6 47
M  V30 53 1 7 48
M  V30 54 1 9 49
M  V30 55 1 14 50
M  V30 56 1 15 51
M  V30 57 1 18 52
M  V30 58 1 20 53
M  V30 59 1 20 54
M  V30 60 1 21 55
M  V30 61 1 21 56
M  V30 62 1 24 57
M  V30 63 1 31 58
M  V30 64 1 32 59
M  V30 65 1 35 60
M  V30 66 1 38 61
M  V30 67 1 39 62
M  V30 END BOND
M  V30 END CTAB
M  END
>  <Dataset>  (740) 
ChEMBL_Kinases

>  <Ligand_Instance>  (740) 
nan

>  <PDB_ID>  (740) 
nan

>  <Standardized_SMILES>  (740) 
CCCOc1ccc(C2C(C(=O)c3ccc4c(c3)OCCO4)=C(O)C(=O)N2c2nc3ccc(Cl)cc3s2)cc1

>  <Name>  (740) 
nan

>  <Pocket>  (740) 
nan

>  <ATP_Site>  (740) 
nan

>  <Peripheral>  (740) 
nan

>  <Num_H_Atoms_ProtBoundConf>  (740) 
nan

>  <Num_Resolved_Atoms>  (740) 
nan

>  <Num_Not_Resolved_Atoms>  (740) 
nan

$$$$
CHEMBL3402503
     RDKit          3D

  0  0  0  0  0  0  0  0  0  0999 V3000
M  V30 BEGIN CTAB
M  V30 COUNTS 68 73 0 0 0
M  V30 BEGIN ATOM
M  V30 1 C 0.077909 -3.698736 3.998732 0
M  V30 2 C 0.203935 -5.194131 3.963463 0
M  V30 3 C 0.384639 -5.718412 2.588488 0
M  V30 4 C 1.582662 -5.268992 1.837264 0
M  V30 5 O 1.624677 -3.915301 1.601381 0
M  V30 6 C 0.822126 -3.084737 0.882369 0
M  V30 7 C 1.359226 -1.801593 1.022645 0
M  V30 8 C 0.801040 -0.686290 0.421801 0
M  V30 9 C -0.331604 -0.838074 -0.348763 0
M  V30 10 C -1.181909 0.120637 -1.137218 0
M  V30 11 C -1.235017 -0.270646 -2.580956 0
M  V30 12 C -0.317713 -0.328735 -3.713151 0
M  V30 13 O -0.712190 -0.775158 -4.835333 0
M  V30 14 C 1.056536 0.074582 -3.741901 0
M  V30 15 C 1.784415 -0.156391 -4.907621 0
M  V30 16 C 3.126903 0.225001 -5.038340 0
M  V30 17 C 3.791644 0.846324 -4.021553 0
M  V30 18 C 3.101073 1.091751 -2.850994 0
M  V30 19 C 1.785925 0.697376 -2.775859 0
M  V30 20 O 3.733318 1.711751 -1.811414 0
M  V30 21 C 5.058717 2.190193 -1.850124 0
M  V30 22 C 5.724883 2.110222 -3.178762 0
M  V30 23 O 5.111476 1.238937 -4.105018 0
M  V30 24 C -2.457640 -0.696902 -2.969242 0
M  V30 25 O -3.207624 -1.188543 -4.062679 0
M  V30 26 C -3.357344 -0.599131 -1.790457 0
M  V30 27 O -4.541676 -0.819813 -1.468358 0
M  V30 28 N -2.589806 -0.098030 -0.738917 0
M  V30 29 C -2.832109 0.262933 0.655310 0
M  V30 30 N -3.161815 1.314562 1.068242 0
M  V30 31 C -3.387312 1.669113 2.318894 0
M  V30 32 C -3.773559 2.880328 2.856948 0
M  V30 33 C -3.948295 3.007555 4.217183 0
M  V30 34 C -3.765487 1.992766 5.134310 0
M  V30 35 C -3.943524 2.091003 6.602471 0
M  V30 36 C -3.379484 0.751054 4.679629 0
M  V30 37 C -3.211021 0.648787 3.314116 0
M  V30 38 S -2.702709 -0.791901 2.197854 0
M  V30 39 C -0.881033 -2.119405 -0.498162 0
M  V30 40 C -0.305977 -3.212658 0.110217 0
M  V30 41 H -0.204548 -3.371251 5.046331 0
M  V30 42 H -0.678862 -3.369113 3.274178 0
M  V30 43 H 1.044705 -3.231077 3.733235 0
M  V30 44 H -0.707213 -5.687941 4.419019 0
M  V30 45 H 1.086489 -5.513931 4.572665 0
M  V30 46 H -0.540880 -5.499208 1.979198 0
M  V30 47 H 0.468985 -6.838066 2.660391 0
M  V30 48 H 1.606197 -5.823894 0.839131 0
M  V30 49 H 2.502163 -5.612976 2.416210 0
M  V30 50 H 2.242051 -1.445598 1.578946 0
M  V30 51 H 1.088368 0.337215 0.437008 0
M  V30 52 H -0.904324 1.139308 -0.940303 0
M  V30 53 H 1.420128 -0.633299 -5.804368 0
M  V30 54 H 3.701434 0.052084 -5.934643 0
M  V30 55 H 1.298932 0.927433 -1.863064 0
M  V30 56 H 5.628409 1.658762 -1.034875 0
M  V30 57 H 5.092309 3.278563 -1.548841 0
M  V30 58 H 6.761070 1.718762 -3.022865 0
M  V30 59 H 5.843895 3.080160 -3.695151 0
M  V30 60 H -3.718954 -0.547126 -4.660952 0
M  V30 61 H -3.949071 3.752616 2.246649 0
M  V30 62 H -4.257418 3.981627 4.635098 0
M  V30 63 H -3.739618 3.165336 6.877019 0
M  V30 64 H -3.213485 1.501106 7.164734 0
M  V30 65 H -5.003018 1.934734 6.905411 0
M  V30 66 H -3.189671 -0.146967 5.219439 0
M  V30 67 H -1.765212 -2.427823 -1.064117 0
M  V30 68 H -0.636341 -4.221595 0.052791 0
M  V30 END ATOM
M  V30 BEGIN BOND
M  V30 1 1 1 2
M  V30 2 1 2 3
M  V30 3 1 3 4
M  V30 4 1 4 5
M  V30 5 1 5 6
M  V30 6 2 6 7
M  V30 7 1 7 8
M  V30 8 2 8 9
M  V30 9 1 9 10
M  V30 10 1 10 11
M  V30 11 1 11 12
M  V30 12 2 12 13
M  V30 13 1 12 14
M  V30 14 2 14 15
M  V30 15 1 15 16
M  V30 16 2 16 17
M  V30 17 1 17 18
M  V30 18 2 18 19
M  V30 19 1 18 20
M  V30 20 1 20 21
M  V30 21 1 21 22
M  V30 22 1 22 23
M  V30 23 2 11 24
M  V30 24 1 24 25
M  V30 25 1 24 26
M  V30 26 2 26 27
M  V30 27 1 26 28
M  V30 28 1 28 29
M  V30 29 2 29 30
M  V30 30 1 30 31
M  V30 31 2 31 32
M  V30 32 1 32 33
M  V30 33 2 33 34
M  V30 34 1 34 35
M  V30 35 1 34 36
M  V30 36 2 36 37
M  V30 37 1 37 38
M  V30 38 1 9 39
M  V30 39 2 39 40
M  V30 40 1 40 6
M  V30 41 1 28 10
M  V30 42 1 38 29
M  V30 43 1 19 14
M  V30 44 1 37 31
M  V30 45 1 23 17
M  V30 46 1 1 41
M  V30 47 1 1 42
M  V30 48 1 1 43
M  V30 49 1 2 44
M  V30 50 1 2 45
M  V30 51 1 3 46
M  V30 52 1 3 47
M  V30 53 1 4 48
M  V30 54 1 4 49
M  V30 55 1 7 50
M  V30 56 1 8 51
M  V30 57 1 10 52
M  V30 58 1 15 53
M  V30 59 1 16 54
M  V30 60 1 19 55
M  V30 61 1 21 56
M  V30 62 1 21 57
M  V30 63 1 22 58
M  V30 64 1 22 59
M  V30 65 1 25 60
M  V30 66 1 32 61
M  V30 67 1 33 62
M  V30 68 1 35 63
M  V30 69 1 35 64
M  V30 70 1 35 65
M  V30 71 1 36 66
M  V30 72 1 39 67
M  V30 73 1 40 68
M  V30 END BOND
M  V30 END CTAB
M  END
>  <Dataset>  (741) 
ChEMBL_Kinases

>  <Ligand_Instance>  (741) 
nan

>  <PDB_ID>  (741) 
nan

>  <Standardized_SMILES>  (741) 
CCCCOc1ccc(C2C(C(=O)c3ccc4c(c3)OCCO4)=C(O)C(=O)N2c2nc3ccc(C)cc3s2)cc1

>  <Name>  (741) 
nan

>  <Pocket>  (741) 
nan

>  <ATP_Site>  (741) 
nan

>  <Peripheral>  (741) 
nan

>  <Num_H_Atoms_ProtBoundConf>  (741) 
nan

>  <Num_Resolved_Atoms>  (741) 
nan

>  <Num_Not_Resolved_Atoms>  (741) 
nan

$$$$
CHEMBL3402473
     RDKit          3D

  0  0  0  0  0  0  0  0  0  0999 V3000
M  V30 BEGIN CTAB
M  V30 COUNTS 53 55 0 0 0
M  V30 BEGIN ATOM
M  V30 1 C 0.823978 -2.452971 0.740991 0
M  V30 2 N 1.831570 -2.561842 1.717045 0
M  V30 3 C 1.922973 -3.765553 2.441808 0
M  V30 4 C 2.386400 -1.400694 2.278683 0
M  V30 5 C 1.472348 -0.598919 3.150406 0
M  V30 6 S 0.001391 0.027000 2.391501 0
M  V30 7 C 0.209398 1.264706 1.163283 0
M  V30 8 C 1.343173 1.880549 0.682676 0
M  V30 9 C 1.298695 2.839464 -0.302524 0
M  V30 10 C 2.610356 3.384327 -0.687414 0
M  V30 11 C 2.942759 3.842043 -1.947826 0
M  V30 12 N 4.230113 4.270021 -1.940944 0
M  V30 13 N 4.668159 4.076527 -0.705263 0
M  V30 14 C 3.724078 3.540285 0.097196 0
M  V30 15 C 0.115355 3.242916 -0.868797 0
M  V30 16 C -1.031863 2.636865 -0.399874 0
M  V30 17 C -1.009973 1.663980 0.596401 0
M  V30 18 N -2.301706 1.138762 0.961568 0
M  V30 19 C -2.603089 0.016347 0.149528 0
M  V30 20 O -1.724826 -0.266148 -0.676481 0
M  V30 21 N -3.794916 -0.737500 0.249455 0
M  V30 22 C -4.156255 -1.888281 -0.547655 0
M  V30 23 C -3.450717 -3.119379 -0.158908 0
M  V30 24 C -2.265525 -3.442394 -0.755299 0
M  V30 25 C -1.624166 -4.617829 -0.357565 0
M  V30 26 C -2.107746 -5.480816 0.602076 0
M  V30 27 C -3.316833 -5.096581 1.170852 0
M  V30 28 C -3.990458 -3.937586 0.807551 0
M  V30 29 H -0.173486 -2.580410 1.147693 0
M  V30 30 H 0.892484 -1.448087 0.267051 0
M  V30 31 H 0.931683 -3.238111 -0.062892 0
M  V30 32 H 1.231737 -4.514302 1.973955 0
M  V30 33 H 2.933877 -4.221212 2.404266 0
M  V30 34 H 1.644486 -3.731257 3.513752 0
M  V30 35 H 2.732356 -0.756147 1.449198 0
M  V30 36 H 3.309080 -1.685388 2.827016 0
M  V30 37 H 1.167404 -1.259810 3.999983 0
M  V30 38 H 2.022169 0.238995 3.655509 0
M  V30 39 H 2.231602 1.538307 1.153127 0
M  V30 40 H 2.260105 3.850297 -2.808821 0
M  V30 41 H 5.627511 4.295651 -0.332882 0
M  V30 42 H 3.823299 3.286236 1.142112 0
M  V30 43 H 0.133650 3.995269 -1.634360 0
M  V30 44 H -1.956786 2.972467 -0.863999 0
M  V30 45 H -3.007011 1.445199 1.692393 0
M  V30 46 H -4.440204 -0.369513 1.001039 0
M  V30 47 H -5.235602 -2.068565 -0.402206 0
M  V30 48 H -4.050509 -1.670320 -1.646645 0
M  V30 49 H -1.775302 -2.875665 -1.507773 0
M  V30 50 H -0.676699 -4.897909 -0.819104 0
M  V30 51 H -1.575142 -6.369016 0.869767 0
M  V30 52 H -3.734756 -5.747125 1.930344 0
M  V30 53 H -4.932554 -3.660868 1.266611 0
M  V30 END ATOM
M  V30 BEGIN BOND
M  V30 1 1 1 2
M  V30 2 1 2 3
M  V30 3 1 2 4
M  V30 4 1 4 5
M  V30 5 1 5 6
M  V30 6 1 6 7
M  V30 7 2 7 8
M  V30 8 1 8 9
M  V30 9 1 9 10
M  V30 10 1 10 11
M  V30 11 2 11 12
M  V30 12 1 12 13
M  V30 13 1 13 14
M  V30 14 2 9 15
M  V30 15 1 15 16
M  V30 16 2 16 17
M  V30 17 1 17 18
M  V30 18 1 18 19
M  V30 19 2 19 20
M  V30 20 1 19 21
M  V30 21 1 21 22
M  V30 22 1 22 23
M  V30 23 2 23 24
M  V30 24 1 24 25
M  V30 25 2 25 26
M  V30 26 1 26 27
M  V30 27 2 27 28
M  V30 28 1 17 7
M  V30 29 1 28 23
M  V30 30 2 14 10
M  V30 31 1 1 29
M  V30 32 1 1 30
M  V30 33 1 1 31
M  V30 34 1 3 32
M  V30 35 1 3 33
M  V30 36 1 3 34
M  V30 37 1 4 35
M  V30 38 1 4 36
M  V30 39 1 5 37
M  V30 40 1 5 38
M  V30 41 1 8 39
M  V30 42 1 11 40
M  V30 43 1 13 41
M  V30 44 1 14 42
M  V30 45 1 15 43
M  V30 46 1 16 44
M  V30 47 1 18 45
M  V30 48 1 21 46
M  V30 49 1 22 47
M  V30 50 1 22 48
M  V30 51 1 24 49
M  V30 52 1 25 50
M  V30 53 1 26 51
M  V30 54 1 27 52
M  V30 55 1 28 53
M  V30 END BOND
M  V30 END CTAB
M  END
>  <Dataset>  (742) 
ChEMBL_Kinases

>  <Ligand_Instance>  (742) 
nan

>  <PDB_ID>  (742) 
nan

>  <Standardized_SMILES>  (742) 
CN(C)CCSc1cc(-c2cn[nH]c2)ccc1NC(=O)NCc1ccccc1

>  <Name>  (742) 
nan

>  <Pocket>  (742) 
nan

>  <ATP_Site>  (742) 
nan

>  <Peripheral>  (742) 
nan

>  <Num_H_Atoms_ProtBoundConf>  (742) 
nan

>  <Num_Resolved_Atoms>  (742) 
nan

>  <Num_Not_Resolved_Atoms>  (742) 
nan

$$$$
CHEMBL3402474
     RDKit          3D

  0  0  0  0  0  0  0  0  0  0999 V3000
M  V30 BEGIN CTAB
M  V30 COUNTS 57 59 0 0 0
M  V30 BEGIN ATOM
M  V30 1 C 0.347977 -3.729830 4.061621 0
M  V30 2 N 0.649794 -2.324574 3.959782 0
M  V30 3 C -0.155628 -1.526730 4.827035 0
M  V30 4 C 0.577027 -1.907886 2.571280 0
M  V30 5 C 0.870993 -0.463795 2.380770 0
M  V30 6 N 0.805322 -0.016479 1.011526 0
M  V30 7 C 1.862122 -0.572790 0.159883 0
M  V30 8 C -0.161600 0.878017 0.491502 0
M  V30 9 C 0.453448 2.076381 0.108729 0
M  V30 10 C -0.337578 3.104677 -0.413042 0
M  V30 11 C 0.223138 4.384846 -0.834725 0
M  V30 12 C -0.093034 5.321740 -1.795790 0
M  V30 13 N 0.777356 6.346052 -1.753966 0
M  V30 14 N 1.658185 6.105577 -0.788728 0
M  V30 15 C 1.346673 4.910451 -0.204972 0
M  V30 16 C -1.703593 2.980247 -0.564328 0
M  V30 17 C -2.308575 1.791625 -0.184299 0
M  V30 18 C -1.521410 0.784635 0.328200 0
M  V30 19 N -2.057973 -0.489615 0.740572 0
M  V30 20 C -2.054723 -1.346537 -0.403108 0
M  V30 21 O -1.580377 -0.715336 -1.407407 0
M  V30 22 N -2.494143 -2.685467 -0.476767 0
M  V30 23 C -2.467322 -3.509216 -1.673772 0
M  V30 24 C -1.087179 -3.991102 -1.928142 0
M  V30 25 C -0.104492 -3.390329 -2.679555 0
M  V30 26 C 1.147472 -3.936784 -2.846294 0
M  V30 27 C 1.449161 -5.145361 -2.237759 0
M  V30 28 C 0.485126 -5.778051 -1.474977 0
M  V30 29 C -0.768756 -5.211059 -1.319621 0
M  V30 30 H 0.777068 -4.174127 5.006602 0
M  V30 31 H -0.766354 -3.894272 4.139994 0
M  V30 32 H 0.743619 -4.292112 3.198868 0
M  V30 33 H 0.423493 -0.726587 5.370643 0
M  V30 34 H -0.571385 -2.180261 5.621026 0
M  V30 35 H -1.037631 -1.112633 4.296643 0
M  V30 36 H -0.418967 -2.200165 2.186369 0
M  V30 37 H 1.298090 -2.554014 2.030398 0
M  V30 38 H 1.939615 -0.291479 2.695959 0
M  V30 39 H 0.275184 0.208268 3.026022 0
M  V30 40 H 1.904701 -0.044734 -0.829027 0
M  V30 41 H 1.657208 -1.626019 -0.069811 0
M  V30 42 H 2.865506 -0.456239 0.591127 0
M  V30 43 H 1.509694 2.329930 0.163487 0
M  V30 44 H -0.961242 5.127185 -2.434507 0
M  V30 45 H 2.449824 6.774780 -0.560989 0
M  V30 46 H 1.913351 4.470822 0.622266 0
M  V30 47 H -2.320638 3.771649 -0.967027 0
M  V30 48 H -3.351176 1.604258 -0.264070 0
M  V30 49 H -2.431589 -0.921208 1.629128 0
M  V30 50 H -2.861143 -3.088127 0.415218 0
M  V30 51 H -3.159175 -4.363595 -1.548340 0
M  V30 52 H -2.840279 -2.929337 -2.560658 0
M  V30 53 H -0.377337 -2.451940 -3.138787 0
M  V30 54 H 1.881544 -3.419541 -3.447770 0
M  V30 55 H 2.456722 -5.512388 -2.415471 0
M  V30 56 H 0.757358 -6.724034 -1.013699 0
M  V30 57 H -1.451456 -5.781138 -0.706154 0
M  V30 END ATOM
M  V30 BEGIN BOND
M  V30 1 1 1 2
M  V30 2 1 2 3
M  V30 3 1 2 4
M  V30 4 1 4 5
M  V30 5 1 5 6
M  V30 6 1 6 7
M  V30 7 1 6 8
M  V30 8 2 8 9
M  V30 9 1 9 10
M  V30 10 1 10 11
M  V30 11 1 11 12
M  V30 12 2 12 13
M  V30 13 1 13 14
M  V30 14 1 14 15
M  V30 15 2 10 16
M  V30 16 1 16 17
M  V30 17 2 17 18
M  V30 18 1 18 19
M  V30 19 1 19 20
M  V30 20 2 20 21
M  V30 21 1 20 22
M  V30 22 1 22 23
M  V30 23 1 23 24
M  V30 24 2 24 25
M  V30 25 1 25 26
M  V30 26 2 26 27
M  V30 27 1 27 28
M  V30 28 2 28 29
M  V30 29 1 18 8
M  V30 30 1 29 24
M  V30 31 2 15 11
M  V30 32 1 1 30
M  V30 33 1 1 31
M  V30 34 1 1 32
M  V30 35 1 3 33
M  V30 36 1 3 34
M  V30 37 1 3 35
M  V30 38 1 4 36
M  V30 39 1 4 37
M  V30 40 1 5 38
M  V30 41 1 5 39
M  V30 42 1 7 40
M  V30 43 1 7 41
M  V30 44 1 7 42
M  V30 45 1 9 43
M  V30 46 1 12 44
M  V30 47 1 14 45
M  V30 48 1 15 46
M  V30 49 1 16 47
M  V30 50 1 17 48
M  V30 51 1 19 49
M  V30 52 1 22 50
M  V30 53 1 23 51
M  V30 54 1 23 52
M  V30 55 1 25 53
M  V30 56 1 26 54
M  V30 57 1 27 55
M  V30 58 1 28 56
M  V30 59 1 29 57
M  V30 END BOND
M  V30 END CTAB
M  END
>  <Dataset>  (743) 
ChEMBL_Kinases

>  <Ligand_Instance>  (743) 
nan

>  <PDB_ID>  (743) 
nan

>  <Standardized_SMILES>  (743) 
CN(C)CCN(C)c1cc(-c2cn[nH]c2)ccc1NC(=O)NCc1ccccc1

>  <Name>  (743) 
nan

>  <Pocket>  (743) 
nan

>  <ATP_Site>  (743) 
nan

>  <Peripheral>  (743) 
nan

>  <Num_H_Atoms_ProtBoundConf>  (743) 
nan

>  <Num_Resolved_Atoms>  (743) 
nan

>  <Num_Not_Resolved_Atoms>  (743) 
nan

$$$$
CHEMBL3402475
     RDKit          3D

  0  0  0  0  0  0  0  0  0  0999 V3000
M  V30 BEGIN CTAB
M  V30 COUNTS 47 49 0 0 0
M  V30 BEGIN ATOM
M  V30 1 C 2.169814 -2.066937 -1.770067 0
M  V30 2 C 0.979430 -1.111667 -1.880194 0
M  V30 3 C 0.821804 -0.736274 -3.323277 0
M  V30 4 N 1.163183 0.023184 -1.006049 0
M  V30 5 C 2.112136 1.099322 -0.944125 0
M  V30 6 C 3.289790 0.649609 -0.167405 0
M  V30 7 C 4.383198 0.083406 -0.838429 0
M  V30 8 C 5.543335 -0.383036 -0.255930 0
M  V30 9 C 5.648804 -0.288378 1.115388 0
M  V30 10 C 4.609763 0.258642 1.837298 0
M  V30 11 C 3.475884 0.707036 1.196794 0
M  V30 12 C 0.113244 -0.051431 -0.033951 0
M  V30 13 O -0.750987 -0.989192 -0.007667 0
M  V30 14 N -0.152182 0.861351 1.031663 0
M  V30 15 C -1.296988 0.371539 1.737047 0
M  V30 16 C -1.048916 -0.485970 2.772394 0
M  V30 17 C -2.150505 -0.964777 3.460082 0
M  V30 18 C -3.421176 -0.573337 3.089707 0
M  V30 19 C -4.661325 -1.026646 3.757360 0
M  V30 20 C -5.888870 -0.472813 3.980486 0
M  V30 21 N -6.618359 -1.396287 4.659133 0
M  V30 22 N -5.883225 -2.494393 4.859607 0
M  V30 23 C -4.673530 -2.297353 4.315903 0
M  V30 24 C -3.619396 0.297583 2.033445 0
M  V30 25 C -2.540537 0.813217 1.302371 0
M  V30 26 H 1.779643 -3.107265 -1.965444 0
M  V30 27 H 2.962360 -1.850035 -2.483171 0
M  V30 28 H 2.480216 -2.079262 -0.723037 0
M  V30 29 H 0.083540 -1.697494 -1.562725 0
M  V30 30 H 0.309644 -1.601987 -3.819864 0
M  V30 31 H 1.770224 -0.521252 -3.842283 0
M  V30 32 H 0.147219 0.129718 -3.476225 0
M  V30 33 H 2.501717 1.383060 -1.950048 0
M  V30 34 H 1.659407 2.038744 -0.552521 0
M  V30 35 H 4.352590 -0.008260 -1.912717 0
M  V30 36 H 6.335297 -0.801868 -0.824395 0
M  V30 37 H 6.534702 -0.640667 1.596875 0
M  V30 38 H 4.696881 0.329715 2.900178 0
M  V30 39 H 2.693959 1.124484 1.782992 0
M  V30 40 H 0.510253 1.692344 1.096485 0
M  V30 41 H -0.077309 -0.789106 3.060356 0
M  V30 42 H -2.078400 -1.652378 4.301650 0
M  V30 43 H -6.098555 0.517836 3.628053 0
M  V30 44 H -6.384682 -3.266908 5.386084 0
M  V30 45 H -3.957197 -3.111831 4.399789 0
M  V30 46 H -4.596859 0.645921 1.690594 0
M  V30 47 H -2.638957 1.495821 0.469386 0
M  V30 END ATOM
M  V30 BEGIN BOND
M  V30 1 1 1 2
M  V30 2 1 2 3
M  V30 3 1 2 4
M  V30 4 1 4 5
M  V30 5 1 5 6
M  V30 6 2 6 7
M  V30 7 1 7 8
M  V30 8 2 8 9
M  V30 9 1 9 10
M  V30 10 2 10 11
M  V30 11 1 4 12
M  V30 12 2 12 13
M  V30 13 1 12 14
M  V30 14 1 14 15
M  V30 15 2 15 16
M  V30 16 1 16 17
M  V30 17 2 17 18
M  V30 18 1 18 19
M  V30 19 1 19 20
M  V30 20 2 20 21
M  V30 21 1 21 22
M  V30 22 1 22 23
M  V30 23 1 18 24
M  V30 24 2 24 25
M  V30 25 1 11 6
M  V30 26 1 25 15
M  V30 27 2 23 19
M  V30 28 1 1 26
M  V30 29 1 1 27
M  V30 30 1 1 28
M  V30 31 1 2 29
M  V30 32 1 3 30
M  V30 33 1 3 31
M  V30 34 1 3 32
M  V30 35 1 5 33
M  V30 36 1 5 34
M  V30 37 1 7 35
M  V30 38 1 8 36
M  V30 39 1 9 37
M  V30 40 1 10 38
M  V30 41 1 11 39
M  V30 42 1 14 40
M  V30 43 1 16 41
M  V30 44 1 17 42
M  V30 45 1 20 43
M  V30 46 1 22 44
M  V30 47 1 23 45
M  V30 48 1 24 46
M  V30 49 1 25 47
M  V30 END BOND
M  V30 END CTAB
M  END
>  <Dataset>  (744) 
ChEMBL_Kinases

>  <Ligand_Instance>  (744) 
nan

>  <PDB_ID>  (744) 
nan

>  <Standardized_SMILES>  (744) 
CC(C)N(Cc1ccccc1)C(=O)Nc1ccc(-c2cn[nH]c2)cc1

>  <Name>  (744) 
nan

>  <Pocket>  (744) 
nan

>  <ATP_Site>  (744) 
nan

>  <Peripheral>  (744) 
nan

>  <Num_H_Atoms_ProtBoundConf>  (744) 
nan

>  <Num_Resolved_Atoms>  (744) 
nan

>  <Num_Not_Resolved_Atoms>  (744) 
nan

$$$$
CHEMBL3402485
     RDKit          3D

  0  0  0  0  0  0  0  0  0  0999 V3000
M  V30 BEGIN CTAB
M  V30 COUNTS 58 62 0 0 0
M  V30 BEGIN ATOM
M  V30 1 C 1.536400 -3.697417 4.348083 0
M  V30 2 C 2.641823 -3.033499 3.581362 0
M  V30 3 C 3.955823 -3.376844 3.464192 0
M  V30 4 C 4.497881 -2.396187 2.628811 0
M  V30 5 C 3.492409 -1.506112 2.278522 0
M  V30 6 C 3.728219 -0.358924 1.410709 0
M  V30 7 O 4.908661 -0.217984 1.000857 0
M  V30 8 C 2.680798 0.575350 1.031894 0
M  V30 9 C 3.057433 1.581174 0.242171 0
M  V30 10 O 4.263002 1.991100 -0.349983 0
M  V30 11 C 1.904253 2.450661 -0.054881 0
M  V30 12 O 1.754266 3.483331 -0.727417 0
M  V30 13 N 0.792956 1.891229 0.622091 0
M  V30 14 C -0.571359 2.231669 0.773401 0
M  V30 15 N -1.600642 1.917022 1.265737 0
M  V30 16 C -2.749539 2.565868 1.153506 0
M  V30 17 C -3.935930 2.171816 1.741770 0
M  V30 18 C -5.067935 2.934027 1.549867 0
M  V30 19 C -5.129499 4.091122 0.801157 0
M  V30 20 F -6.224211 4.851906 0.599907 0
M  V30 21 C -3.941881 4.479352 0.216407 0
M  V30 22 C -2.801687 3.712440 0.409160 0
M  V30 23 S -1.105225 3.818369 -0.129225 0
M  V30 24 C 1.236141 0.670881 1.307395 0
M  V30 25 C 0.557233 -0.443165 0.579123 0
M  V30 26 C -0.158192 -1.537022 1.041244 0
M  V30 27 C -0.690302 -2.433102 0.170002 0
M  V30 28 C -0.562323 -2.324135 -1.189487 0
M  V30 29 C -1.168832 -3.339403 -2.092453 0
M  V30 30 C -0.109659 -4.412793 -2.297124 0
M  V30 31 C -2.366915 -3.934517 -1.406091 0
M  V30 32 C -1.499195 -2.689307 -3.410888 0
M  V30 33 C 0.135152 -1.260935 -1.687217 0
M  V30 34 C 0.679696 -0.344620 -0.805891 0
M  V30 35 O 2.429561 -1.964967 2.889843 0
M  V30 36 H 0.790112 -2.932364 4.701382 0
M  V30 37 H 1.918044 -4.161674 5.284651 0
M  V30 38 H 0.951643 -4.392640 3.709566 0
M  V30 39 H 4.427024 -4.212576 3.921908 0
M  V30 40 H 5.551906 -2.439892 2.372326 0
M  V30 41 H 4.780905 1.362859 -0.964533 0
M  V30 42 H -4.107636 1.295543 2.369036 0
M  V30 43 H -6.038744 2.661944 1.997915 0
M  V30 44 H -3.805010 5.355996 -0.401500 0
M  V30 45 H 0.944200 0.624724 2.353216 0
M  V30 46 H -0.201835 -1.531630 2.131565 0
M  V30 47 H -1.233806 -3.257915 0.612243 0
M  V30 48 H -0.358147 -4.917229 -3.252461 0
M  V30 49 H 0.907896 -3.972218 -2.332903 0
M  V30 50 H -0.213668 -5.187169 -1.508468 0
M  V30 51 H -3.051396 -4.284482 -2.186856 0
M  V30 52 H -1.985943 -4.784634 -0.782084 0
M  V30 53 H -2.812607 -3.130218 -0.757150 0
M  V30 54 H -0.636031 -2.739783 -4.114193 0
M  V30 55 H -1.748239 -1.624896 -3.202073 0
M  V30 56 H -2.342263 -3.184983 -3.935422 0
M  V30 57 H 0.224587 -1.192794 -2.755092 0
M  V30 58 H 1.215237 0.461798 -1.330363 0
M  V30 END ATOM
M  V30 BEGIN BOND
M  V30 1 1 1 2
M  V30 2 2 2 3
M  V30 3 1 3 4
M  V30 4 2 4 5
M  V30 5 1 5 6
M  V30 6 2 6 7
M  V30 7 1 6 8
M  V30 8 2 8 9
M  V30 9 1 9 10
M  V30 10 1 9 11
M  V30 11 2 11 12
M  V30 12 1 11 13
M  V30 13 1 13 14
M  V30 14 2 14 15
M  V30 15 1 15 16
M  V30 16 2 16 17
M  V30 17 1 17 18
M  V30 18 2 18 19
M  V30 19 1 19 20
M  V30 20 1 19 21
M  V30 21 2 21 22
M  V30 22 1 22 23
M  V30 23 1 13 24
M  V30 24 1 24 25
M  V30 25 2 25 26
M  V30 26 1 26 27
M  V30 27 2 27 28
M  V30 28 1 28 29
M  V30 29 1 29 30
M  V30 30 1 29 31
M  V30 31 1 29 32
M  V30 32 1 28 33
M  V30 33 2 33 34
M  V30 34 1 5 35
M  V30 35 1 35 2
M  V30 36 1 24 8
M  V30 37 1 34 25
M  V30 38 1 23 14
M  V30 39 1 22 16
M  V30 40 1 1 36
M  V30 41 1 1 37
M  V30 42 1 1 38
M  V30 43 1 3 39
M  V30 44 1 4 40
M  V30 45 1 10 41
M  V30 46 1 17 42
M  V30 47 1 18 43
M  V30 48 1 21 44
M  V30 49 1 24 45
M  V30 50 1 26 46
M  V30 51 1 27 47
M  V30 52 1 30 48
M  V30 53 1 30 49
M  V30 54 1 30 50
M  V30 55 1 31 51
M  V30 56 1 31 52
M  V30 57 1 31 53
M  V30 58 1 32 54
M  V30 59 1 32 55
M  V30 60 1 32 56
M  V30 61 1 33 57
M  V30 62 1 34 58
M  V30 END BOND
M  V30 END CTAB
M  END
>  <Dataset>  (745) 
ChEMBL_Kinases

>  <Ligand_Instance>  (745) 
nan

>  <PDB_ID>  (745) 
nan

>  <Standardized_SMILES>  (745) 
Cc1ccc(C(=O)C2=C(O)C(=O)N(c3nc4ccc(F)cc4s3)C2c2ccc(C(C)(C)C)cc2)o1

>  <Name>  (745) 
nan

>  <Pocket>  (745) 
nan

>  <ATP_Site>  (745) 
nan

>  <Peripheral>  (745) 
nan

>  <Num_H_Atoms_ProtBoundConf>  (745) 
nan

>  <Num_Resolved_Atoms>  (745) 
nan

>  <Num_Not_Resolved_Atoms>  (745) 
nan

$$$$
CHEMBL3402486
     RDKit          3D

  0  0  0  0  0  0  0  0  0  0999 V3000
M  V30 BEGIN CTAB
M  V30 COUNTS 61 65 0 0 0
M  V30 BEGIN ATOM
M  V30 1 C 7.169241 -1.685324 3.221201 0
M  V30 2 C 5.877347 -1.321844 2.594388 0
M  V30 3 C 5.397248 -1.715131 1.364424 0
M  V30 4 C 4.182979 -1.342639 0.833341 0
M  V30 5 C 3.892025 -1.901561 -0.516307 0
M  V30 6 C 3.349978 -0.511684 1.554756 0
M  V30 7 N 2.170578 -0.089351 1.153081 0
M  V30 8 C 1.455495 0.656928 1.834620 0
M  V30 9 N 0.175717 1.276888 1.701326 0
M  V30 10 C -0.549221 2.123570 2.571131 0
M  V30 11 O -0.067964 2.352757 3.686963 0
M  V30 12 C -1.766956 2.511483 1.818884 0
M  V30 13 O -2.565388 3.366175 2.591666 0
M  V30 14 C -1.721068 1.910292 0.610330 0
M  V30 15 C -2.908672 2.298731 -0.133105 0
M  V30 16 O -3.838555 3.044897 0.335727 0
M  V30 17 C -3.193892 1.894218 -1.503495 0
M  V30 18 C -2.418298 1.153355 -2.367475 0
M  V30 19 C -3.016718 0.961354 -3.594665 0
M  V30 20 C -4.202084 1.633788 -3.417024 0
M  V30 21 C -5.297841 1.779827 -4.431762 0
M  V30 22 O -4.255562 2.144229 -2.218696 0
M  V30 23 C -0.562408 1.030808 0.468866 0
M  V30 24 C -0.920589 -0.410422 0.384850 0
M  V30 25 C -1.601363 -0.716503 1.576141 0
M  V30 26 C -2.073177 -2.005106 1.839943 0
M  V30 27 C -1.877792 -3.018239 0.923426 0
M  V30 28 C -2.302998 -4.421525 1.033444 0
M  V30 29 C -3.106630 -4.877027 -0.165280 0
M  V30 30 C -1.073786 -5.312812 1.083686 0
M  V30 31 C -1.209108 -2.708898 -0.241592 0
M  V30 32 C -0.742018 -1.444490 -0.508085 0
M  V30 33 S 2.454364 0.921424 3.349065 0
M  V30 34 C 3.845329 -0.121086 2.795254 0
M  V30 35 C 5.066013 -0.491854 3.336052 0
M  V30 36 H 7.034328 -2.079480 4.255609 0
M  V30 37 H 7.713411 -2.446173 2.662948 0
M  V30 38 H 7.800273 -0.768264 3.354690 0
M  V30 39 H 6.092466 -2.375208 0.825332 0
M  V30 40 H 3.228835 -2.789420 -0.457114 0
M  V30 41 H 3.282518 -1.103383 -1.033172 0
M  V30 42 H 4.787926 -2.026809 -1.123781 0
M  V30 43 H -2.344375 4.345326 2.691862 0
M  V30 44 H -1.436219 0.745084 -2.190977 0
M  V30 45 H -2.654384 0.429436 -4.457551 0
M  V30 46 H -5.649071 0.759195 -4.762885 0
M  V30 47 H -6.197881 2.240605 -3.977876 0
M  V30 48 H -4.962203 2.364386 -5.288566 0
M  V30 49 H 0.052927 1.342662 -0.373897 0
M  V30 50 H -1.866899 -0.078875 2.435526 0
M  V30 51 H -2.603478 -2.330734 2.722372 0
M  V30 52 H -2.829220 -4.565192 1.997508 0
M  V30 53 H -3.921735 -5.564223 0.120294 0
M  V30 54 H -2.463737 -5.453093 -0.892512 0
M  V30 55 H -3.540387 -4.047975 -0.752319 0
M  V30 56 H -1.415374 -6.360663 0.891217 0
M  V30 57 H -0.595224 -5.280535 2.071151 0
M  V30 58 H -0.381675 -5.058667 0.256377 0
M  V30 59 H -0.973030 -3.386107 -1.063443 0
M  V30 60 H -0.203924 -1.063830 -1.356373 0
M  V30 61 H 5.254088 -0.073906 4.315931 0
M  V30 END ATOM
M  V30 BEGIN BOND
M  V30 1 1 1 2
M  V30 2 2 2 3
M  V30 3 1 3 4
M  V30 4 1 4 5
M  V30 5 2 4 6
M  V30 6 1 6 7
M  V30 7 2 7 8
M  V30 8 1 8 9
M  V30 9 1 9 10
M  V30 10 2 10 11
M  V30 11 1 10 12
M  V30 12 1 12 13
M  V30 13 2 12 14
M  V30 14 1 14 15
M  V30 15 2 15 16
M  V30 16 1 15 17
M  V30 17 2 17 18
M  V30 18 1 18 19
M  V30 19 2 19 20
M  V30 20 1 20 21
M  V30 21 1 20 22
M  V30 22 1 14 23
M  V30 23 1 23 24
M  V30 24 2 24 25
M  V30 25 1 25 26
M  V30 26 2 26 27
M  V30 27 1 27 28
M  V30 28 1 28 29
M  V30 29 1 28 30
M  V30 30 1 27 31
M  V30 31 2 31 32
M  V30 32 1 8 33
M  V30 33 1 33 34
M  V30 34 2 34 35
M  V30 35 1 35 2
M  V30 36 1 34 6
M  V30 37 1 23 9
M  V30 38 1 32 24
M  V30 39 1 22 17
M  V30 40 1 1 36
M  V30 41 1 1 37
M  V30 42 1 1 38
M  V30 43 1 3 39
M  V30 44 1 5 40
M  V30 45 1 5 41
M  V30 46 1 5 42
M  V30 47 1 13 43
M  V30 48 1 18 44
M  V30 49 1 19 45
M  V30 50 1 21 46
M  V30 51 1 21 47
M  V30 52 1 21 48
M  V30 53 1 23 49
M  V30 54 1 25 50
M  V30 55 1 26 51
M  V30 56 1 28 52
M  V30 57 1 29 53
M  V30 58 1 29 54
M  V30 59 1 29 55
M  V30 60 1 30 56
M  V30 61 1 30 57
M  V30 62 1 30 58
M  V30 63 1 31 59
M  V30 64 1 32 60
M  V30 65 1 35 61
M  V30 END BOND
M  V30 END CTAB
M  END
>  <Dataset>  (746) 
ChEMBL_Kinases

>  <Ligand_Instance>  (746) 
nan

>  <PDB_ID>  (746) 
nan

>  <Standardized_SMILES>  (746) 
Cc1cc(C)c2nc(N3C(=O)C(O)=C(C(=O)c4ccc(C)o4)C3c3ccc(C(C)C)cc3)sc2c1

>  <Name>  (746) 
nan

>  <Pocket>  (746) 
nan

>  <ATP_Site>  (746) 
nan

>  <Peripheral>  (746) 
nan

>  <Num_H_Atoms_ProtBoundConf>  (746) 
nan

>  <Num_Resolved_Atoms>  (746) 
nan

>  <Num_Not_Resolved_Atoms>  (746) 
nan

$$$$
CHEMBL3402489
     RDKit          3D

  0  0  0  0  0  0  0  0  0  0999 V3000
M  V30 BEGIN CTAB
M  V30 COUNTS 43 47 0 0 0
M  V30 BEGIN ATOM
M  V30 1 O -1.967886 -0.007502 3.040683 0
M  V30 2 C -1.451102 -1.177444 3.200301 0
M  V30 3 C -0.626761 -1.577351 2.102075 0
M  V30 4 C 0.063686 -2.726185 2.022262 0
M  V30 5 O 0.220425 -3.822748 2.853491 0
M  V30 6 C 0.786360 -2.738952 0.755280 0
M  V30 7 O 1.555693 -3.660837 0.295388 0
M  V30 8 N 0.482224 -1.519116 0.095076 0
M  V30 9 C 1.159827 -1.191700 -1.135321 0
M  V30 10 N 2.216772 -0.600438 -1.300336 0
M  V30 11 C 2.706674 -0.405030 -2.551385 0
M  V30 12 C 3.925817 0.269691 -2.722254 0
M  V30 13 C 4.334827 0.406809 -4.047605 0
M  V30 14 C 3.661949 -0.052727 -5.185365 0
M  V30 15 F 4.042958 0.068274 -6.466056 0
M  V30 16 C 2.480153 -0.701787 -4.942459 0
M  V30 17 C 2.023851 -0.866950 -3.639869 0
M  V30 18 S 0.569597 -1.639685 -2.831252 0
M  V30 19 C -0.498245 -0.803164 0.812393 0
M  V30 20 C -0.267073 0.608317 1.086430 0
M  V30 21 C 1.013805 0.954766 1.518016 0
M  V30 22 C 1.389801 2.260817 1.820574 0
M  V30 23 C 0.375215 3.168604 1.651525 0
M  V30 24 C -0.919558 2.960784 1.235808 0
M  V30 25 Cl -2.101072 4.234844 1.070812 0
M  V30 26 C -1.193939 1.625531 0.959321 0
M  V30 27 C -1.957737 -1.531066 4.426649 0
M  V30 28 C -1.823780 -2.738781 5.064330 0
M  V30 29 C -2.381615 -3.113719 6.260272 0
M  V30 30 C -3.219016 -1.956518 6.832481 0
M  V30 31 S -3.010500 -0.581665 5.506716 0
M  V30 32 H -0.532523 -4.524420 2.831395 0
M  V30 33 H 4.583468 0.693677 -1.977926 0
M  V30 34 H 5.283063 0.925356 -4.257739 0
M  V30 35 H 1.797943 -1.138922 -5.669818 0
M  V30 36 H -1.471024 -0.888769 0.238697 0
M  V30 37 H 1.775358 0.187530 1.632925 0
M  V30 38 H 2.351189 2.592493 2.153648 0
M  V30 39 H 0.618242 4.216242 1.876658 0
M  V30 40 H -2.184680 1.355970 0.625990 0
M  V30 41 H -1.339423 -3.692754 4.933444 0
M  V30 42 H -2.638598 -3.700373 7.105218 0
M  V30 43 H -3.859400 -1.550485 7.608319 0
M  V30 END ATOM
M  V30 BEGIN BOND
M  V30 1 2 1 2
M  V30 2 1 2 3
M  V30 3 2 3 4
M  V30 4 1 4 5
M  V30 5 1 4 6
M  V30 6 2 6 7
M  V30 7 1 6 8
M  V30 8 1 8 9
M  V30 9 2 9 10
M  V30 10 1 10 11
M  V30 11 2 11 12
M  V30 12 1 12 13
M  V30 13 2 13 14
M  V30 14 1 14 15
M  V30 15 1 14 16
M  V30 16 2 16 17
M  V30 17 1 17 18
M  V30 18 1 8 19
M  V30 19 1 19 20
M  V30 20 2 20 21
M  V30 21 1 21 22
M  V30 22 2 22 23
M  V30 23 1 23 24
M  V30 24 1 24 25
M  V30 25 2 24 26
M  V30 26 1 2 27
M  V30 27 2 27 28
M  V30 28 1 28 29
M  V30 29 2 29 30
M  V30 30 1 30 31
M  V30 31 1 19 3
M  V30 32 1 26 20
M  V30 33 1 31 27
M  V30 34 1 18 9
M  V30 35 1 17 11
M  V30 36 1 5 32
M  V30 37 1 12 33
M  V30 38 1 13 34
M  V30 39 1 16 35
M  V30 40 1 19 36
M  V30 41 1 21 37
M  V30 42 1 22 38
M  V30 43 1 23 39
M  V30 44 1 26 40
M  V30 45 1 28 41
M  V30 46 1 29 42
M  V30 47 1 30 43
M  V30 END BOND
M  V30 END CTAB
M  END
>  <Dataset>  (747) 
ChEMBL_Kinases

>  <Ligand_Instance>  (747) 
nan

>  <PDB_ID>  (747) 
nan

>  <Standardized_SMILES>  (747) 
O=C(C1=C(O)C(=O)N(c2nc3ccc(F)cc3s2)C1c1cccc(Cl)c1)c1cccs1

>  <Name>  (747) 
nan

>  <Pocket>  (747) 
nan

>  <ATP_Site>  (747) 
nan

>  <Peripheral>  (747) 
nan

>  <Num_H_Atoms_ProtBoundConf>  (747) 
nan

>  <Num_Resolved_Atoms>  (747) 
nan

>  <Num_Not_Resolved_Atoms>  (747) 
nan

$$$$
CHEMBL3402490
     RDKit          3D

  0  0  0  0  0  0  0  0  0  0999 V3000
M  V30 BEGIN CTAB
M  V30 COUNTS 53 57 0 0 0
M  V30 BEGIN ATOM
M  V30 1 C 5.954259 -1.303862 2.347170 0
M  V30 2 C 4.501629 -0.891113 2.302142 0
M  V30 3 O 4.033945 -0.793041 0.976513 0
M  V30 4 C 2.737016 -0.432536 0.637054 0
M  V30 5 C 2.262231 -0.331533 -0.652967 0
M  V30 6 C 0.932901 0.041162 -0.882190 0
M  V30 7 C 0.064220 0.317032 0.183821 0
M  V30 8 C -1.257085 0.659201 -0.420481 0
M  V30 9 C -1.195596 1.850735 -1.304270 0
M  V30 10 C -0.926178 3.290954 -1.176633 0
M  V30 11 O -0.929688 4.058673 -2.202055 0
M  V30 12 C -0.643904 3.994373 0.021187 0
M  V30 13 C -0.545126 3.743287 1.341529 0
M  V30 14 C -0.261783 4.687691 2.274514 0
M  V30 15 C -0.069730 6.000303 1.759610 0
M  V30 16 S -0.316672 5.777205 -0.077848 0
M  V30 17 C -1.456092 1.561145 -2.595646 0
M  V30 18 O -1.561825 2.134168 -3.882301 0
M  V30 19 C -1.744733 0.111567 -2.701716 0
M  V30 20 O -2.040977 -0.757145 -3.555730 0
M  V30 21 N -1.630772 -0.382003 -1.376895 0
M  V30 22 C -1.789060 -1.677774 -0.701639 0
M  V30 23 N -2.746204 -2.171102 -0.207692 0
M  V30 24 C -2.840919 -3.337526 0.387641 0
M  V30 25 C -3.966201 -3.899784 0.959740 0
M  V30 26 C -3.884972 -5.140492 1.545006 0
M  V30 27 C -2.741362 -5.905132 1.616936 0
M  V30 28 C -2.601057 -7.245156 2.235391 0
M  V30 29 C -1.607067 -5.361928 1.051753 0
M  V30 30 C -1.714733 -4.093365 0.459851 0
M  V30 31 S -0.514066 -3.022763 -0.380668 0
M  V30 32 C 0.573799 0.205544 1.457518 0
M  V30 33 C 1.878946 -0.160429 1.677835 0
M  V30 34 H 6.652464 -0.518378 2.042374 0
M  V30 35 H 6.182814 -1.543461 3.416333 0
M  V30 36 H 6.103061 -2.209169 1.727515 0
M  V30 37 H 4.411113 0.103053 2.777122 0
M  V30 38 H 3.928989 -1.645598 2.890531 0
M  V30 39 H 3.000144 -0.561809 -1.406254 0
M  V30 40 H 0.761402 0.061160 -1.969504 0
M  V30 41 H -2.025540 0.789258 0.336094 0
M  V30 42 H -0.726824 2.713090 1.582694 0
M  V30 43 H -0.179756 4.499338 3.332163 0
M  V30 44 H 0.169865 6.877053 2.415597 0
M  V30 45 H -0.684429 2.241543 -4.366895 0
M  V30 46 H -4.951468 -3.436696 0.993466 0
M  V30 47 H -4.764991 -5.604460 2.004274 0
M  V30 48 H -1.697394 -7.203654 2.912140 0
M  V30 49 H -3.446374 -7.513427 2.877266 0
M  V30 50 H -2.354762 -8.044082 1.494727 0
M  V30 51 H -0.618831 -5.797912 1.004005 0
M  V30 52 H -0.232619 0.450822 2.150398 0
M  V30 53 H 2.106061 -0.197010 2.737076 0
M  V30 END ATOM
M  V30 BEGIN BOND
M  V30 1 1 1 2
M  V30 2 1 2 3
M  V30 3 1 3 4
M  V30 4 2 4 5
M  V30 5 1 5 6
M  V30 6 2 6 7
M  V30 7 1 7 8
M  V30 8 1 8 9
M  V30 9 1 9 10
M  V30 10 2 10 11
M  V30 11 1 10 12
M  V30 12 2 12 13
M  V30 13 1 13 14
M  V30 14 2 14 15
M  V30 15 1 15 16
M  V30 16 2 9 17
M  V30 17 1 17 18
M  V30 18 1 17 19
M  V30 19 2 19 20
M  V30 20 1 19 21
M  V30 21 1 21 22
M  V30 22 2 22 23
M  V30 23 1 23 24
M  V30 24 2 24 25
M  V30 25 1 25 26
M  V30 26 2 26 27
M  V30 27 1 27 28
M  V30 28 1 27 29
M  V30 29 2 29 30
M  V30 30 1 30 31
M  V30 31 1 7 32
M  V30 32 2 32 33
M  V30 33 1 33 4
M  V30 34 1 21 8
M  V30 35 1 31 22
M  V30 36 1 16 12
M  V30 37 1 30 24
M  V30 38 1 1 34
M  V30 39 1 1 35
M  V30 40 1 1 36
M  V30 41 1 2 37
M  V30 42 1 2 38
M  V30 43 1 5 39
M  V30 44 1 6 40
M  V30 45 1 8 41
M  V30 46 1 13 42
M  V30 47 1 14 43
M  V30 48 1 15 44
M  V30 49 1 18 45
M  V30 50 1 25 46
M  V30 51 1 26 47
M  V30 52 1 28 48
M  V30 53 1 28 49
M  V30 54 1 28 50
M  V30 55 1 29 51
M  V30 56 1 32 52
M  V30 57 1 33 53
M  V30 END BOND
M  V30 END CTAB
M  END
>  <Dataset>  (748) 
ChEMBL_Kinases

>  <Ligand_Instance>  (748) 
nan

>  <PDB_ID>  (748) 
nan

>  <Standardized_SMILES>  (748) 
CCOc1ccc(C2C(C(=O)c3cccs3)=C(O)C(=O)N2c2nc3ccc(C)cc3s2)cc1

>  <Name>  (748) 
nan

>  <Pocket>  (748) 
nan

>  <ATP_Site>  (748) 
nan

>  <Peripheral>  (748) 
nan

>  <Num_H_Atoms_ProtBoundConf>  (748) 
nan

>  <Num_Resolved_Atoms>  (748) 
nan

>  <Num_Not_Resolved_Atoms>  (748) 
nan

$$$$
CHEMBL3402491
     RDKit          3D

  0  0  0  0  0  0  0  0  0  0999 V3000
M  V30 BEGIN CTAB
M  V30 COUNTS 53 57 0 0 0
M  V30 BEGIN ATOM
M  V30 1 C 5.374240 4.061252 5.273578 0
M  V30 2 C 4.507335 5.042027 4.519237 0
M  V30 3 O 3.212387 4.505966 4.237796 0
M  V30 4 C 3.065322 3.362625 3.474311 0
M  V30 5 C 4.023407 2.572561 2.877438 0
M  V30 6 C 3.803088 1.454718 2.136663 0
M  V30 7 C 2.480873 1.040114 1.943380 0
M  V30 8 N 2.105883 -0.013911 1.255668 0
M  V30 9 C 1.016964 -0.393989 1.070180 0
M  V30 10 N 0.436028 -1.549698 0.380907 0
M  V30 11 C 1.358120 -2.526005 -0.065073 0
M  V30 12 O 2.638416 -2.461329 -0.096279 0
M  V30 13 C 0.561414 -3.676610 -0.505573 0
M  V30 14 O 1.269942 -4.807006 -0.984572 0
M  V30 15 C -0.740119 -3.376317 -0.344029 0
M  V30 16 C -1.692161 -4.415671 -0.709560 0
M  V30 17 O -1.194870 -5.510717 -1.158457 0
M  V30 18 C -3.134499 -4.427995 -0.652713 0
M  V30 19 C -3.992341 -3.450015 -0.212536 0
M  V30 20 C -5.360961 -3.490427 -0.177295 0
M  V30 21 C -5.978780 -4.626436 -0.626944 0
M  V30 22 C -5.199397 -5.649949 -1.082917 0
M  V30 23 C -3.833538 -5.535526 -1.087290 0
M  V30 24 C -0.886988 -1.956542 0.062888 0
M  V30 25 C -1.431826 -1.235548 -1.126168 0
M  V30 26 C -1.725146 0.105855 -1.197990 0
M  V30 27 C -2.199498 0.785868 -2.292680 0
M  V30 28 C -2.419321 0.092306 -3.461025 0
M  V30 29 Cl -3.021757 0.931591 -4.866630 0
M  V30 30 C -2.149872 -1.259142 -3.472493 0
M  V30 31 C -1.675767 -1.864455 -2.331213 0
M  V30 32 S 0.050286 0.898344 2.007005 0
M  V30 33 C 1.529388 1.821572 2.533876 0
M  V30 34 C 1.757677 2.973770 3.297401 0
M  V30 35 H 6.371168 3.920783 4.788186 0
M  V30 36 H 4.838986 3.095101 5.426713 0
M  V30 37 H 5.544753 4.444282 6.317057 0
M  V30 38 H 4.419380 5.957077 5.133130 0
M  V30 39 H 5.048404 5.276439 3.573163 0
M  V30 40 H 5.049676 2.932735 3.050819 0
M  V30 41 H 4.695700 0.967008 1.748313 0
M  V30 42 H 1.303965 -5.656028 -0.466505 0
M  V30 43 H -3.581276 -2.529775 0.160348 0
M  V30 44 H -5.963155 -2.678065 0.183980 0
M  V30 45 H -7.050972 -4.712093 -0.621826 0
M  V30 46 H -5.719660 -6.534092 -1.431302 0
M  V30 47 H -3.344229 -6.439878 -1.482561 0
M  V30 48 H -1.558322 -1.809118 0.940974 0
M  V30 49 H -1.595622 0.731636 -0.333308 0
M  V30 50 H -2.409611 1.842977 -2.281370 0
M  V30 51 H -2.339889 -1.753079 -4.412604 0
M  V30 52 H -1.505533 -2.908577 -2.502812 0
M  V30 53 H 0.828373 3.417402 3.658317 0
M  V30 END ATOM
M  V30 BEGIN BOND
M  V30 1 1 1 2
M  V30 2 1 2 3
M  V30 3 1 3 4
M  V30 4 2 4 5
M  V30 5 1 5 6
M  V30 6 2 6 7
M  V30 7 1 7 8
M  V30 8 2 8 9
M  V30 9 1 9 10
M  V30 10 1 10 11
M  V30 11 2 11 12
M  V30 12 1 11 13
M  V30 13 1 13 14
M  V30 14 2 13 15
M  V30 15 1 15 16
M  V30 16 2 16 17
M  V30 17 1 16 18
M  V30 18 2 18 19
M  V30 19 1 19 20
M  V30 20 2 20 21
M  V30 21 1 21 22
M  V30 22 2 22 23
M  V30 23 1 15 24
M  V30 24 1 24 25
M  V30 25 2 25 26
M  V30 26 1 26 27
M  V30 27 2 27 28
M  V30 28 1 28 29
M  V30 29 1 28 30
M  V30 30 2 30 31
M  V30 31 1 9 32
M  V30 32 1 32 33
M  V30 33 2 33 34
M  V30 34 1 34 4
M  V30 35 1 33 7
M  V30 36 1 24 10
M  V30 37 1 31 25
M  V30 38 1 23 18
M  V30 39 1 1 35
M  V30 40 1 1 36
M  V30 41 1 1 37
M  V30 42 1 2 38
M  V30 43 1 2 39
M  V30 44 1 5 40
M  V30 45 1 6 41
M  V30 46 1 14 42
M  V30 47 1 19 43
M  V30 48 1 20 44
M  V30 49 1 21 45
M  V30 50 1 22 46
M  V30 51 1 23 47
M  V30 52 1 24 48
M  V30 53 1 26 49
M  V30 54 1 27 50
M  V30 55 1 30 51
M  V30 56 1 31 52
M  V30 57 1 34 53
M  V30 END BOND
M  V30 END CTAB
M  END
>  <Dataset>  (749) 
ChEMBL_Kinases

>  <Ligand_Instance>  (749) 
nan

>  <PDB_ID>  (749) 
nan

>  <Standardized_SMILES>  (749) 
CCOc1ccc2nc(N3C(=O)C(O)=C(C(=O)c4ccccc4)C3c3ccc(Cl)cc3)sc2c1

>  <Name>  (749) 
nan

>  <Pocket>  (749) 
nan

>  <ATP_Site>  (749) 
nan

>  <Peripheral>  (749) 
nan

>  <Num_H_Atoms_ProtBoundConf>  (749) 
nan

>  <Num_Resolved_Atoms>  (749) 
nan

>  <Num_Not_Resolved_Atoms>  (749) 
nan

$$$$
CHEMBL3402502
     RDKit          3D

  0  0  0  0  0  0  0  0  0  0999 V3000
M  V30 BEGIN CTAB
M  V30 COUNTS 72 77 0 0 0
M  V30 BEGIN ATOM
M  V30 1 C -3.282300 -6.916281 1.641461 0
M  V30 2 C -1.827797 -6.826367 1.291684 0
M  V30 3 C -1.492103 -5.547206 0.523806 0
M  V30 4 C -0.026567 -5.602808 0.251582 0
M  V30 5 O 0.534460 -4.552046 -0.435983 0
M  V30 6 C 0.627682 -3.222081 -0.128789 0
M  V30 7 C 0.195371 -2.531393 0.978446 0
M  V30 8 C 0.339059 -1.179633 1.190852 0
M  V30 9 C 0.972250 -0.446928 0.210309 0
M  V30 10 C 1.097290 1.019069 0.502637 0
M  V30 11 C -0.295712 1.594711 0.513095 0
M  V30 12 C -1.082218 1.630970 -0.668170 0
M  V30 13 O -0.399333 1.110059 -1.621424 0
M  V30 14 C -2.352957 2.033509 -1.187294 0
M  V30 15 C -2.575306 1.787587 -2.546835 0
M  V30 16 C -3.783504 2.141982 -3.166547 0
M  V30 17 C -4.760147 2.741339 -2.415539 0
M  V30 18 C -4.609134 3.011102 -1.080365 0
M  V30 19 C -3.403060 2.636859 -0.543194 0
M  V30 20 O -5.620199 3.617816 -0.357267 0
M  V30 21 C -6.787818 4.148035 -0.948573 0
M  V30 22 C -6.790730 4.121999 -2.440914 0
M  V30 23 O -5.973852 3.107829 -2.999041 0
M  V30 24 C -0.560827 2.006154 1.738703 0
M  V30 25 O -1.656742 2.602902 2.331762 0
M  V30 26 C 0.548370 1.778569 2.660316 0
M  V30 27 O 0.773317 1.983099 3.863562 0
M  V30 28 N 1.519056 1.179627 1.845984 0
M  V30 29 C 2.824425 0.730751 2.181667 0
M  V30 30 N 3.322254 0.806407 3.290050 0
M  V30 31 C 4.539675 0.383808 3.586580 0
M  V30 32 C 5.182661 0.434272 4.830389 0
M  V30 33 C 6.443575 -0.058952 4.916231 0
M  V30 34 C 7.190969 -0.618880 3.904137 0
M  V30 35 Cl 8.810657 -1.262993 3.974588 0
M  V30 36 C 6.619041 -0.699677 2.655601 0
M  V30 37 C 5.303862 -0.191560 2.540585 0
M  V30 38 S 4.085735 -0.042421 1.156906 0
M  V30 39 C 1.434498 -1.066906 -0.929227 0
M  V30 40 C 1.262479 -2.420937 -1.087163 0
M  V30 41 O 1.741058 -3.006712 -2.247394 0
M  V30 42 C 2.386068 -2.386379 -3.304140 0
M  V30 43 C 1.467786 -1.345738 -3.907811 0
M  V30 44 H -3.747625 -5.988763 1.972477 0
M  V30 45 H -3.878411 -7.290680 0.776221 0
M  V30 46 H -3.358483 -7.735971 2.407440 0
M  V30 47 H -1.235020 -6.874340 2.218132 0
M  V30 48 H -1.575353 -7.702993 0.665942 0
M  V30 49 H -1.877403 -4.683485 1.046173 0
M  V30 50 H -2.007138 -5.655806 -0.476099 0
M  V30 51 H 0.515111 -5.778333 1.224464 0
M  V30 52 H 0.134091 -6.530609 -0.376204 0
M  V30 53 H -0.289463 -3.117876 1.740877 0
M  V30 54 H -0.057721 -0.761909 2.127509 0
M  V30 55 H 1.729059 1.527179 -0.246029 0
M  V30 56 H -1.919784 1.325691 -3.289679 0
M  V30 57 H -3.993221 1.969363 -4.210356 0
M  V30 58 H -3.327903 2.861450 0.482801 0
M  V30 59 H -6.937027 5.173199 -0.549335 0
M  V30 60 H -7.658227 3.544440 -0.581581 0
M  V30 61 H -7.816280 3.968858 -2.820857 0
M  V30 62 H -6.464241 5.112144 -2.871105 0
M  V30 63 H -2.457296 2.133127 2.702361 0
M  V30 64 H 4.733975 0.841544 5.721066 0
M  V30 65 H 6.977410 -0.034247 5.880576 0
M  V30 66 H 6.986244 -1.085667 1.717375 0
M  V30 67 H 1.903869 -0.396006 -1.603045 0
M  V30 68 H 2.608589 -3.190998 -4.062766 0
M  V30 69 H 3.366744 -1.947321 -3.019366 0
M  V30 70 H 1.928408 -0.343278 -3.991101 0
M  V30 71 H 0.508511 -1.232228 -3.355428 0
M  V30 72 H 1.149563 -1.707173 -4.925095 0
M  V30 END ATOM
M  V30 BEGIN BOND
M  V30 1 1 1 2
M  V30 2 1 2 3
M  V30 3 1 3 4
M  V30 4 1 4 5
M  V30 5 1 5 6
M  V30 6 2 6 7
M  V30 7 1 7 8
M  V30 8 2 8 9
M  V30 9 1 9 10
M  V30 10 1 10 11
M  V30 11 1 11 12
M  V30 12 2 12 13
M  V30 13 1 12 14
M  V30 14 2 14 15
M  V30 15 1 15 16
M  V30 16 2 16 17
M  V30 17 1 17 18
M  V30 18 2 18 19
M  V30 19 1 18 20
M  V30 20 1 20 21
M  V30 21 1 21 22
M  V30 22 1 22 23
M  V30 23 2 11 24
M  V30 24 1 24 25
M  V30 25 1 24 26
M  V30 26 2 26 27
M  V30 27 1 26 28
M  V30 28 1 28 29
M  V30 29 2 29 30
M  V30 30 1 30 31
M  V30 31 2 31 32
M  V30 32 1 32 33
M  V30 33 2 33 34
M  V30 34 1 34 35
M  V30 35 1 34 36
M  V30 36 2 36 37
M  V30 37 1 37 38
M  V30 38 1 9 39
M  V30 39 2 39 40
M  V30 40 1 40 41
M  V30 41 1 41 42
M  V30 42 1 42 43
M  V30 43 1 40 6
M  V30 44 1 28 10
M  V30 45 1 38 29
M  V30 46 1 19 14
M  V30 47 1 37 31
M  V30 48 1 23 17
M  V30 49 1 1 44
M  V30 50 1 1 45
M  V30 51 1 1 46
M  V30 52 1 2 47
M  V30 53 1 2 48
M  V30 54 1 3 49
M  V30 55 1 3 50
M  V30 56 1 4 51
M  V30 57 1 4 52
M  V30 58 1 7 53
M  V30 59 1 8 54
M  V30 60 1 10 55
M  V30 61 1 15 56
M  V30 62 1 16 57
M  V30 63 1 19 58
M  V30 64 1 21 59
M  V30 65 1 21 60
M  V30 66 1 22 61
M  V30 67 1 22 62
M  V30 68 1 25 63
M  V30 69 1 32 64
M  V30 70 1 33 65
M  V30 71 1 36 66
M  V30 72 1 39 67
M  V30 73 1 42 68
M  V30 74 1 42 69
M  V30 75 1 43 70
M  V30 76 1 43 71
M  V30 77 1 43 72
M  V30 END BOND
M  V30 END CTAB
M  END
>  <Dataset>  (750) 
ChEMBL_Kinases

>  <Ligand_Instance>  (750) 
nan

>  <PDB_ID>  (750) 
nan

>  <Standardized_SMILES>  (750) 
CCCCOc1ccc(C2C(C(=O)c3ccc4c(c3)OCCO4)=C(O)C(=O)N2c2nc3ccc(Cl)cc3s2)cc1OCC

>  <Name>  (750) 
nan

>  <Pocket>  (750) 
nan

>  <ATP_Site>  (750) 
nan

>  <Peripheral>  (750) 
nan

>  <Num_H_Atoms_ProtBoundConf>  (750) 
nan

>  <Num_Resolved_Atoms>  (750) 
nan

>  <Num_Not_Resolved_Atoms>  (750) 
nan

$$$$
CHEMBL3402493
     RDKit          3D

  0  0  0  0  0  0  0  0  0  0999 V3000
M  V30 BEGIN CTAB
M  V30 COUNTS 68 72 0 0 0
M  V30 BEGIN ATOM
M  V30 1 C 8.286176 -0.996167 5.807706 0
M  V30 2 C 6.919019 -0.793128 5.262019 0
M  V30 3 O 6.857476 0.126622 4.194779 0
M  V30 4 C 5.629114 0.379570 3.623536 0
M  V30 5 C 5.454856 1.273994 2.559171 0
M  V30 6 C 4.263500 1.572889 1.943764 0
M  V30 7 C 3.111020 0.953680 2.388784 0
M  V30 8 N 1.892776 1.106907 1.933226 0
M  V30 9 C 0.907036 0.581415 2.308271 0
M  V30 10 N -0.540873 0.344632 2.241089 0
M  V30 11 C -1.451563 1.152452 2.973857 0
M  V30 12 O -1.087962 2.167929 3.663642 0
M  V30 13 C -2.810191 0.588596 2.768117 0
M  V30 14 O -3.822041 1.274074 3.435755 0
M  V30 15 C -2.653113 -0.472012 1.955838 0
M  V30 16 C -3.907074 -1.151191 1.663464 0
M  V30 17 O -4.993389 -0.678249 2.160469 0
M  V30 18 C -4.184104 -2.333394 0.872500 0
M  V30 19 C -5.492184 -2.738402 0.732716 0
M  V30 20 C -5.836466 -3.871036 -0.004288 0
M  V30 21 C -4.888462 -4.644862 -0.631419 0
M  V30 22 C -5.258348 -5.850516 -1.416038 0
M  V30 23 C -3.569356 -4.265058 -0.509803 0
M  V30 24 C -3.288239 -3.147872 0.223502 0
M  V30 25 C -1.278164 -0.684673 1.485956 0
M  V30 26 C -1.153456 -0.341977 0.018934 0
M  V30 27 C 0.081458 -0.308623 -0.591518 0
M  V30 28 C 0.304005 0.013904 -1.913120 0
M  V30 29 C -0.786125 0.329697 -2.697338 0
M  V30 30 C -0.713886 0.698623 -4.135641 0
M  V30 31 C 0.709170 0.680157 -4.598982 0
M  V30 32 C -1.273135 2.092275 -4.318907 0
M  V30 33 C -1.494729 -0.268368 -4.996239 0
M  V30 34 C -2.045630 0.312117 -2.138533 0
M  V30 35 C -2.200389 -0.018003 -0.812667 0
M  V30 36 S 1.563920 -0.500978 3.698953 0
M  V30 37 C 3.325049 0.089052 3.428135 0
M  V30 38 C 4.512236 -0.257442 4.097123 0
M  V30 39 H 8.547586 -0.144626 6.476955 0
M  V30 40 H 9.031100 -1.236771 5.052708 0
M  V30 41 H 8.219074 -1.882418 6.503125 0
M  V30 42 H 6.524664 -1.759469 4.838803 0
M  V30 43 H 6.214006 -0.484352 6.035098 0
M  V30 44 H 6.379095 1.769157 2.203714 0
M  V30 45 H 4.309750 2.294108 1.128338 0
M  V30 46 H -4.284170 2.103612 3.046917 0
M  V30 47 H -6.362152 -2.268864 1.143727 0
M  V30 48 H -6.854626 -4.212191 -0.130749 0
M  V30 49 H -4.378325 -6.191958 -1.984681 0
M  V30 50 H -6.086869 -5.512725 -2.100717 0
M  V30 51 H -5.669359 -6.628370 -0.748658 0
M  V30 52 H -2.814020 -4.858466 -0.993864 0
M  V30 53 H -2.240802 -2.919759 0.280041 0
M  V30 54 H -0.856007 -1.686485 1.711063 0
M  V30 55 H 0.993320 -0.546968 -0.070301 0
M  V30 56 H 1.263756 0.038811 -2.382585 0
M  V30 57 H 1.325404 1.350592 -3.942386 0
M  V30 58 H 1.134428 -0.329267 -4.716819 0
M  V30 59 H 0.713569 1.208101 -5.597993 0
M  V30 60 H -0.704791 2.643132 -5.081990 0
M  V30 61 H -2.354239 1.976967 -4.597387 0
M  V30 62 H -1.248778 2.617981 -3.328568 0
M  V30 63 H -2.287389 -0.789578 -4.426273 0
M  V30 64 H -0.804739 -1.052540 -5.393338 0
M  V30 65 H -1.951186 0.320235 -5.815216 0
M  V30 66 H -2.925665 0.555628 -2.728857 0
M  V30 67 H -3.196689 -0.010188 -0.412682 0
M  V30 68 H 4.458902 -0.960826 4.890530 0
M  V30 END ATOM
M  V30 BEGIN BOND
M  V30 1 1 1 2
M  V30 2 1 2 3
M  V30 3 1 3 4
M  V30 4 2 4 5
M  V30 5 1 5 6
M  V30 6 2 6 7
M  V30 7 1 7 8
M  V30 8 2 8 9
M  V30 9 1 9 10
M  V30 10 1 10 11
M  V30 11 2 11 12
M  V30 12 1 11 13
M  V30 13 1 13 14
M  V30 14 2 13 15
M  V30 15 1 15 16
M  V30 16 2 16 17
M  V30 17 1 16 18
M  V30 18 2 18 19
M  V30 19 1 19 20
M  V30 20 2 20 21
M  V30 21 1 21 22
M  V30 22 1 21 23
M  V30 23 2 23 24
M  V30 24 1 15 25
M  V30 25 1 25 26
M  V30 26 2 26 27
M  V30 27 1 27 28
M  V30 28 2 28 29
M  V30 29 1 29 30
M  V30 30 1 30 31
M  V30 31 1 30 32
M  V30 32 1 30 33
M  V30 33 1 29 34
M  V30 34 2 34 35
M  V30 35 1 9 36
M  V30 36 1 36 37
M  V30 37 2 37 38
M  V30 38 1 38 4
M  V30 39 1 37 7
M  V30 40 1 25 10
M  V30 41 1 35 26
M  V30 42 1 24 18
M  V30 43 1 1 39
M  V30 44 1 1 40
M  V30 45 1 1 41
M  V30 46 1 2 42
M  V30 47 1 2 43
M  V30 48 1 5 44
M  V30 49 1 6 45
M  V30 50 1 14 46
M  V30 51 1 19 47
M  V30 52 1 20 48
M  V30 53 1 22 49
M  V30 54 1 22 50
M  V30 55 1 22 51
M  V30 56 1 23 52
M  V30 57 1 24 53
M  V30 58 1 25 54
M  V30 59 1 27 55
M  V30 60 1 28 56
M  V30 61 1 31 57
M  V30 62 1 31 58
M  V30 63 1 31 59
M  V30 64 1 32 60
M  V30 65 1 32 61
M  V30 66 1 32 62
M  V30 67 1 33 63
M  V30 68 1 33 64
M  V30 69 1 33 65
M  V30 70 1 34 66
M  V30 71 1 35 67
M  V30 72 1 38 68
M  V30 END BOND
M  V30 END CTAB
M  END
>  <Dataset>  (751) 
ChEMBL_Kinases

>  <Ligand_Instance>  (751) 
nan

>  <PDB_ID>  (751) 
nan

>  <Standardized_SMILES>  (751) 
CCOc1ccc2nc(N3C(=O)C(O)=C(C(=O)c4ccc(C)cc4)C3c3ccc(C(C)(C)C)cc3)sc2c1

>  <Name>  (751) 
nan

>  <Pocket>  (751) 
nan

>  <ATP_Site>  (751) 
nan

>  <Peripheral>  (751) 
nan

>  <Num_H_Atoms_ProtBoundConf>  (751) 
nan

>  <Num_Resolved_Atoms>  (751) 
nan

>  <Num_Not_Resolved_Atoms>  (751) 
nan

$$$$
CHEMBL3402494
     RDKit          3D

  0  0  0  0  0  0  0  0  0  0999 V3000
M  V30 BEGIN CTAB
M  V30 COUNTS 64 68 0 0 0
M  V30 BEGIN ATOM
M  V30 1 C 4.320256 -3.665546 5.116595 0
M  V30 2 C 4.154688 -2.784075 3.933406 0
M  V30 3 C 5.148821 -2.623453 2.993572 0
M  V30 4 C 4.973665 -1.786861 1.882730 0
M  V30 5 C 3.804990 -1.084073 1.671625 0
M  V30 6 C 3.711107 -0.223945 0.508798 0
M  V30 7 O 4.815944 -0.198369 -0.131974 0
M  V30 8 C 2.549926 0.539698 0.068574 0
M  V30 9 C 2.881093 1.236237 -1.026394 0
M  V30 10 O 3.930291 1.512891 -1.926742 0
M  V30 11 C 1.707927 2.024534 -1.460794 0
M  V30 12 O 1.334634 2.828280 -2.335512 0
M  V30 13 N 0.695092 1.724289 -0.529330 0
M  V30 14 C -0.690078 2.177353 -0.314723 0
M  V30 15 N -1.150435 3.023945 0.294377 0
M  V30 16 C -2.413365 3.391167 0.454247 0
M  V30 17 C -2.924268 4.430614 1.207449 0
M  V30 18 C -4.285599 4.641095 1.236545 0
M  V30 19 C -5.217890 3.881898 0.558323 0
M  V30 20 C -6.687092 4.086827 0.572550 0
M  V30 21 C -4.716721 2.841455 -0.196602 0
M  V30 22 C -3.330304 2.652385 -0.206687 0
M  V30 23 S -2.296320 1.419736 -1.057857 0
M  V30 24 C 1.148508 0.715500 0.451653 0
M  V30 25 C 0.383803 -0.556377 0.178567 0
M  V30 26 C 0.502023 -0.825592 -1.193138 0
M  V30 27 C -0.116508 -1.948123 -1.756972 0
M  V30 28 C -0.854165 -2.804046 -0.952932 0
M  V30 29 C -1.542598 -4.010476 -1.448569 0
M  V30 30 C -0.716281 -5.256722 -1.417086 0
M  V30 31 C -2.010883 -3.717311 -2.872479 0
M  V30 32 C -2.786326 -4.209076 -0.617469 0
M  V30 33 C -0.947518 -2.507630 0.385955 0
M  V30 34 C -0.350386 -1.412202 0.965592 0
M  V30 35 C 2.854292 -1.287580 2.645253 0
M  V30 36 C 2.974216 -2.095509 3.752337 0
M  V30 37 H 3.315016 -4.076214 5.422716 0
M  V30 38 H 5.027025 -4.482231 4.963101 0
M  V30 39 H 4.602221 -3.009561 5.976929 0
M  V30 40 H 6.047288 -3.179858 3.179462 0
M  V30 41 H 5.848551 -1.779441 1.252393 0
M  V30 42 H 4.381012 0.717471 -2.366383 0
M  V30 43 H -2.333658 5.136583 1.811013 0
M  V30 44 H -4.711049 5.466933 1.833061 0
M  V30 45 H -6.962202 5.114744 0.882929 0
M  V30 46 H -7.217523 3.325940 1.187722 0
M  V30 47 H -7.105935 3.971451 -0.454291 0
M  V30 48 H -5.286019 2.156791 -0.781594 0
M  V30 49 H 0.951641 1.076902 1.455172 0
M  V30 50 H 1.027349 -0.282864 -1.968469 0
M  V30 51 H -0.083942 -2.236174 -2.788977 0
M  V30 52 H -0.847095 -5.789562 -0.437596 0
M  V30 53 H -1.167056 -5.950212 -2.177614 0
M  V30 54 H 0.323134 -5.134998 -1.721539 0
M  V30 55 H -2.885724 -4.365097 -3.147207 0
M  V30 56 H -2.330296 -2.641125 -2.863455 0
M  V30 57 H -1.174827 -3.813935 -3.584920 0
M  V30 58 H -2.587916 -4.888239 0.246003 0
M  V30 59 H -3.622466 -4.669356 -1.180949 0
M  V30 60 H -3.118445 -3.237995 -0.171479 0
M  V30 61 H -1.500834 -3.103946 1.128670 0
M  V30 62 H -0.344945 -1.068246 1.969453 0
M  V30 63 H 1.931306 -0.772280 2.566846 0
M  V30 64 H 2.181318 -2.201801 4.469828 0
M  V30 END ATOM
M  V30 BEGIN BOND
M  V30 1 1 1 2
M  V30 2 2 2 3
M  V30 3 1 3 4
M  V30 4 2 4 5
M  V30 5 1 5 6
M  V30 6 2 6 7
M  V30 7 1 6 8
M  V30 8 2 8 9
M  V30 9 1 9 10
M  V30 10 1 9 11
M  V30 11 2 11 12
M  V30 12 1 11 13
M  V30 13 1 13 14
M  V30 14 2 14 15
M  V30 15 1 15 16
M  V30 16 2 16 17
M  V30 17 1 17 18
M  V30 18 2 18 19
M  V30 19 1 19 20
M  V30 20 1 19 21
M  V30 21 2 21 22
M  V30 22 1 22 23
M  V30 23 1 13 24
M  V30 24 1 24 25
M  V30 25 2 25 26
M  V30 26 1 26 27
M  V30 27 2 27 28
M  V30 28 1 28 29
M  V30 29 1 29 30
M  V30 30 1 29 31
M  V30 31 1 29 32
M  V30 32 1 28 33
M  V30 33 2 33 34
M  V30 34 1 5 35
M  V30 35 2 35 36
M  V30 36 1 36 2
M  V30 37 1 24 8
M  V30 38 1 34 25
M  V30 39 1 23 14
M  V30 40 1 22 16
M  V30 41 1 1 37
M  V30 42 1 1 38
M  V30 43 1 1 39
M  V30 44 1 3 40
M  V30 45 1 4 41
M  V30 46 1 10 42
M  V30 47 1 17 43
M  V30 48 1 18 44
M  V30 49 1 20 45
M  V30 50 1 20 46
M  V30 51 1 20 47
M  V30 52 1 21 48
M  V30 53 1 24 49
M  V30 54 1 26 50
M  V30 55 1 27 51
M  V30 56 1 30 52
M  V30 57 1 30 53
M  V30 58 1 30 54
M  V30 59 1 31 55
M  V30 60 1 31 56
M  V30 61 1 31 57
M  V30 62 1 32 58
M  V30 63 1 32 59
M  V30 64 1 32 60
M  V30 65 1 33 61
M  V30 66 1 34 62
M  V30 67 1 35 63
M  V30 68 1 36 64
M  V30 END BOND
M  V30 END CTAB
M  END
>  <Dataset>  (752) 
ChEMBL_Kinases

>  <Ligand_Instance>  (752) 
nan

>  <PDB_ID>  (752) 
nan

>  <Standardized_SMILES>  (752) 
Cc1ccc(C(=O)C2=C(O)C(=O)N(c3nc4ccc(C)cc4s3)C2c2ccc(C(C)(C)C)cc2)cc1

>  <Name>  (752) 
nan

>  <Pocket>  (752) 
nan

>  <ATP_Site>  (752) 
nan

>  <Peripheral>  (752) 
nan

>  <Num_H_Atoms_ProtBoundConf>  (752) 
nan

>  <Num_Resolved_Atoms>  (752) 
nan

>  <Num_Not_Resolved_Atoms>  (752) 
nan

$$$$
CHEMBL3402495
     RDKit          3D

  0  0  0  0  0  0  0  0  0  0999 V3000
M  V30 BEGIN CTAB
M  V30 COUNTS 61 65 0 0 0
M  V30 BEGIN ATOM
M  V30 1 C 3.264209 -5.458975 4.202165 0
M  V30 2 C 3.291907 -4.175672 3.462967 0
M  V30 3 C 2.168828 -3.378859 3.420322 0
M  V30 4 C 2.251622 -2.198412 2.719565 0
M  V30 5 C 3.337780 -1.698636 2.038630 0
M  V30 6 C 3.415995 -0.462622 1.288345 0
M  V30 7 O 4.568892 -0.244109 0.815962 0
M  V30 8 C 2.333074 0.478783 1.058326 0
M  V30 9 C 2.772380 1.519651 0.345932 0
M  V30 10 O 3.930967 2.041876 -0.277511 0
M  V30 11 C 1.651206 2.470043 0.135290 0
M  V30 12 O 1.462435 3.570072 -0.430679 0
M  V30 13 N 0.535449 1.933352 0.762281 0
M  V30 14 C -0.836278 2.364248 0.958191 0
M  V30 15 N -1.841763 1.983227 1.468378 0
M  V30 16 C -2.983305 2.646926 1.471176 0
M  V30 17 C -4.154053 2.211398 2.060939 0
M  V30 18 C -5.278808 3.002238 1.991696 0
M  V30 19 C -5.351405 4.229649 1.368699 0
M  V30 20 F -6.416666 5.050648 1.265320 0
M  V30 21 C -4.192896 4.680019 0.774910 0
M  V30 22 C -3.060086 3.857497 0.858334 0
M  V30 23 S -1.344739 3.995432 0.257197 0
M  V30 24 C 0.891744 0.625791 1.342074 0
M  V30 25 C 0.173430 -0.348054 0.438010 0
M  V30 26 C -0.662639 -1.376530 0.732505 0
M  V30 27 C -1.224141 -2.173262 -0.238236 0
M  V30 28 C -0.966039 -1.968268 -1.572149 0
M  V30 29 C -1.598067 -2.857913 -2.584713 0
M  V30 30 C -0.686235 -4.029446 -2.832603 0
M  V30 31 C -1.753760 -2.097239 -3.867355 0
M  V30 32 C -2.950154 -3.341383 -2.126048 0
M  V30 33 C -0.114257 -0.923173 -1.905099 0
M  V30 34 C 0.445167 -0.126667 -0.906370 0
M  V30 35 C 4.424712 -2.555283 2.128776 0
M  V30 36 C 4.424200 -3.748497 2.806992 0
M  V30 37 H 2.631150 -6.227965 3.710988 0
M  V30 38 H 4.274084 -5.872767 4.361166 0
M  V30 39 H 2.825312 -5.342194 5.222481 0
M  V30 40 H 1.284167 -3.697886 3.924446 0
M  V30 41 H 1.346394 -1.623061 2.737283 0
M  V30 42 H 4.186162 1.770865 -1.224694 0
M  V30 43 H -4.302858 1.264544 2.604642 0
M  V30 44 H -6.228293 2.681847 2.452713 0
M  V30 45 H -4.033392 5.598391 0.242781 0
M  V30 46 H 0.593145 0.558660 2.380906 0
M  V30 47 H -0.834065 -1.490374 1.799057 0
M  V30 48 H -1.864474 -2.948106 0.131452 0
M  V30 49 H 0.325216 -3.625711 -3.097494 0
M  V30 50 H -0.614661 -4.636924 -1.908694 0
M  V30 51 H -1.061071 -4.628730 -3.694507 0
M  V30 52 H -2.501249 -2.572355 -4.535060 0
M  V30 53 H -0.795893 -2.021407 -4.419457 0
M  V30 54 H -2.091086 -1.044928 -3.683686 0
M  V30 55 H -3.559572 -2.489189 -1.812554 0
M  V30 56 H -2.871765 -4.114888 -1.333235 0
M  V30 57 H -3.446327 -3.806130 -3.007023 0
M  V30 58 H 0.041484 -0.822881 -2.970198 0
M  V30 59 H 1.072802 0.622635 -1.368994 0
M  V30 60 H 5.365125 -2.308959 1.645320 0
M  V30 61 H 5.303144 -4.380950 2.845576 0
M  V30 END ATOM
M  V30 BEGIN BOND
M  V30 1 1 1 2
M  V30 2 2 2 3
M  V30 3 1 3 4
M  V30 4 2 4 5
M  V30 5 1 5 6
M  V30 6 2 6 7
M  V30 7 1 6 8
M  V30 8 2 8 9
M  V30 9 1 9 10
M  V30 10 1 9 11
M  V30 11 2 11 12
M  V30 12 1 11 13
M  V30 13 1 13 14
M  V30 14 2 14 15
M  V30 15 1 15 16
M  V30 16 2 16 17
M  V30 17 1 17 18
M  V30 18 2 18 19
M  V30 19 1 19 20
M  V30 20 1 19 21
M  V30 21 2 21 22
M  V30 22 1 22 23
M  V30 23 1 13 24
M  V30 24 1 24 25
M  V30 25 2 25 26
M  V30 26 1 26 27
M  V30 27 2 27 28
M  V30 28 1 28 29
M  V30 29 1 29 30
M  V30 30 1 29 31
M  V30 31 1 29 32
M  V30 32 1 28 33
M  V30 33 2 33 34
M  V30 34 1 5 35
M  V30 35 2 35 36
M  V30 36 1 36 2
M  V30 37 1 24 8
M  V30 38 1 34 25
M  V30 39 1 23 14
M  V30 40 1 22 16
M  V30 41 1 1 37
M  V30 42 1 1 38
M  V30 43 1 1 39
M  V30 44 1 3 40
M  V30 45 1 4 41
M  V30 46 1 10 42
M  V30 47 1 17 43
M  V30 48 1 18 44
M  V30 49 1 21 45
M  V30 50 1 24 46
M  V30 51 1 26 47
M  V30 52 1 27 48
M  V30 53 1 30 49
M  V30 54 1 30 50
M  V30 55 1 30 51
M  V30 56 1 31 52
M  V30 57 1 31 53
M  V30 58 1 31 54
M  V30 59 1 32 55
M  V30 60 1 32 56
M  V30 61 1 32 57
M  V30 62 1 33 58
M  V30 63 1 34 59
M  V30 64 1 35 60
M  V30 65 1 36 61
M  V30 END BOND
M  V30 END CTAB
M  END
>  <Dataset>  (753) 
ChEMBL_Kinases

>  <Ligand_Instance>  (753) 
nan

>  <PDB_ID>  (753) 
nan

>  <Standardized_SMILES>  (753) 
Cc1ccc(C(=O)C2=C(O)C(=O)N(c3nc4ccc(F)cc4s3)C2c2ccc(C(C)(C)C)cc2)cc1

>  <Name>  (753) 
nan

>  <Pocket>  (753) 
nan

>  <ATP_Site>  (753) 
nan

>  <Peripheral>  (753) 
nan

>  <Num_H_Atoms_ProtBoundConf>  (753) 
nan

>  <Num_Resolved_Atoms>  (753) 
nan

>  <Num_Not_Resolved_Atoms>  (753) 
nan

$$$$
CHEMBL3402496
     RDKit          3D

  0  0  0  0  0  0  0  0  0  0999 V3000
M  V30 BEGIN CTAB
M  V30 COUNTS 49 53 0 0 0
M  V30 BEGIN ATOM
M  V30 1 C 4.858699 -6.041598 -1.189007 0
M  V30 2 C 4.214868 -4.808327 -0.679459 0
M  V30 3 C 4.135527 -4.408424 0.634485 0
M  V30 4 C 3.536598 -3.264846 1.088862 0
M  V30 5 C 2.946326 -2.405939 0.183199 0
M  V30 6 N 2.321818 -1.254345 0.449778 0
M  V30 7 C 1.824983 -0.543318 -0.373534 0
M  V30 8 N 1.137814 0.719276 -0.104159 0
M  V30 9 C 1.531623 2.080178 -0.016598 0
M  V30 10 O 2.755712 2.222111 -0.146737 0
M  V30 11 C 0.261741 2.817976 0.205521 0
M  V30 12 O 0.620474 4.180248 0.290940 0
M  V30 13 C -0.746675 1.918860 0.241839 0
M  V30 14 C -1.974554 2.680859 0.450459 0
M  V30 15 O -1.969911 3.954938 0.606660 0
M  V30 16 C -3.321848 2.143511 0.508998 0
M  V30 17 C -3.714723 0.844871 0.281319 0
M  V30 18 C -4.979623 0.329741 0.365031 0
M  V30 19 C -5.995497 1.166078 0.709709 0
M  V30 20 F -7.272580 0.742044 0.815822 0
M  V30 21 C -5.700801 2.479732 0.955054 0
M  V30 22 C -4.415227 2.930512 0.854247 0
M  V30 23 C -0.287472 0.525371 0.129472 0
M  V30 24 C -0.513564 -0.309176 1.325806 0
M  V30 25 C -1.245215 -1.441539 1.624174 0
M  V30 26 C -1.254124 -1.987731 2.881589 0
M  V30 27 C -0.539482 -1.439948 3.903670 0
M  V30 28 Cl -0.613034 -2.209108 5.476749 0
M  V30 29 C 0.219821 -0.294623 3.662984 0
M  V30 30 C 0.217741 0.251244 2.371309 0
M  V30 31 S 2.157699 -1.448762 -1.988482 0
M  V30 32 C 3.024283 -2.811735 -1.172648 0
M  V30 33 C 3.628654 -3.954512 -1.574661 0
M  V30 34 H 4.943760 -6.748893 -0.336699 0
M  V30 35 H 5.904354 -5.809285 -1.491224 0
M  V30 36 H 4.266908 -6.498857 -2.024157 0
M  V30 37 H 4.604479 -5.088717 1.364459 0
M  V30 38 H 3.558008 -3.088684 2.167974 0
M  V30 39 H 0.572163 4.630137 1.191914 0
M  V30 40 H -2.963505 0.133683 -0.018103 0
M  V30 41 H -5.202404 -0.696623 0.172064 0
M  V30 42 H -6.515927 3.142045 1.229420 0
M  V30 43 H -4.292081 4.001032 1.072448 0
M  V30 44 H -0.708401 0.091722 -0.783456 0
M  V30 45 H -1.757214 -1.765686 0.706811 0
M  V30 46 H -1.868664 -2.864593 2.957943 0
M  V30 47 H 0.742697 0.059615 4.519702 0
M  V30 48 H 0.866553 1.134490 2.389848 0
M  V30 49 H 3.592124 -4.102454 -2.645736 0
M  V30 END ATOM
M  V30 BEGIN BOND
M  V30 1 1 1 2
M  V30 2 2 2 3
M  V30 3 1 3 4
M  V30 4 2 4 5
M  V30 5 1 5 6
M  V30 6 2 6 7
M  V30 7 1 7 8
M  V30 8 1 8 9
M  V30 9 2 9 10
M  V30 10 1 9 11
M  V30 11 1 11 12
M  V30 12 2 11 13
M  V30 13 1 13 14
M  V30 14 2 14 15
M  V30 15 1 14 16
M  V30 16 2 16 17
M  V30 17 1 17 18
M  V30 18 2 18 19
M  V30 19 1 19 20
M  V30 20 1 19 21
M  V30 21 2 21 22
M  V30 22 1 13 23
M  V30 23 1 23 24
M  V30 24 2 24 25
M  V30 25 1 25 26
M  V30 26 2 26 27
M  V30 27 1 27 28
M  V30 28 1 27 29
M  V30 29 2 29 30
M  V30 30 1 7 31
M  V30 31 1 31 32
M  V30 32 2 32 33
M  V30 33 1 33 2
M  V30 34 1 32 5
M  V30 35 1 23 8
M  V30 36 1 30 24
M  V30 37 1 22 16
M  V30 38 1 1 34
M  V30 39 1 1 35
M  V30 40 1 1 36
M  V30 41 1 3 37
M  V30 42 1 4 38
M  V30 43 1 12 39
M  V30 44 1 17 40
M  V30 45 1 18 41
M  V30 46 1 21 42
M  V30 47 1 22 43
M  V30 48 1 23 44
M  V30 49 1 25 45
M  V30 50 1 26 46
M  V30 51 1 29 47
M  V30 52 1 30 48
M  V30 53 1 33 49
M  V30 END BOND
M  V30 END CTAB
M  END
>  <Dataset>  (754) 
ChEMBL_Kinases

>  <Ligand_Instance>  (754) 
nan

>  <PDB_ID>  (754) 
nan

>  <Standardized_SMILES>  (754) 
Cc1ccc2nc(N3C(=O)C(O)=C(C(=O)c4ccc(F)cc4)C3c3ccc(Cl)cc3)sc2c1

>  <Name>  (754) 
nan

>  <Pocket>  (754) 
nan

>  <ATP_Site>  (754) 
nan

>  <Peripheral>  (754) 
nan

>  <Num_H_Atoms_ProtBoundConf>  (754) 
nan

>  <Num_Resolved_Atoms>  (754) 
nan

>  <Num_Not_Resolved_Atoms>  (754) 
nan

$$$$
CHEMBL3402497
     RDKit          3D

  0  0  0  0  0  0  0  0  0  0999 V3000
M  V30 BEGIN CTAB
M  V30 COUNTS 56 60 0 0 0
M  V30 BEGIN ATOM
M  V30 1 C 4.415034 -5.483585 -0.660772 0
M  V30 2 C 5.441681 -4.995117 0.301687 0
M  V30 3 O 5.892303 -3.676571 0.068876 0
M  V30 4 C 5.090544 -2.573199 0.078838 0
M  V30 5 C 3.735959 -2.641042 0.322799 0
M  V30 6 C 3.019660 -1.469106 0.309800 0
M  V30 7 C 3.494268 -0.200555 0.077747 0
M  V30 8 C 2.727932 1.030301 0.057058 0
M  V30 9 O 3.471114 2.056927 -0.158471 0
M  V30 10 C 1.304617 1.272746 0.237072 0
M  V30 11 C 0.957988 2.572610 0.171495 0
M  V30 12 O 1.581982 3.823625 -0.033527 0
M  V30 13 C -0.507020 2.612182 0.397411 0
M  V30 14 O -1.247125 3.659945 0.412045 0
M  V30 15 N -0.978410 1.286905 0.599467 0
M  V30 16 C -2.347993 1.062906 0.922038 0
M  V30 17 N -3.454865 0.877482 0.590424 0
M  V30 18 C -4.510741 0.704685 1.376429 0
M  V30 19 C -5.813049 0.485965 0.987884 0
M  V30 20 C -6.781331 0.327941 1.942242 0
M  V30 21 C -6.580281 0.366548 3.298154 0
M  V30 22 C -7.586330 0.202228 4.374857 0
M  V30 23 C -5.307667 0.580633 3.764953 0
M  V30 24 C -4.319301 0.741905 2.789425 0
M  V30 25 S -2.478112 1.048448 2.830130 0
M  V30 26 C 0.134876 0.399002 0.430036 0
M  V30 27 C -0.183840 -0.404730 -0.807552 0
M  V30 28 C -1.278960 -1.191083 -0.943235 0
M  V30 29 C -1.587372 -1.907168 -2.071866 0
M  V30 30 C -0.745069 -1.845417 -3.163433 0
M  V30 31 F -1.014769 -2.536794 -4.293039 0
M  V30 32 C 0.395816 -1.057594 -3.090413 0
M  V30 33 C 0.629664 -0.374869 -1.927556 0
M  V30 34 C 4.852999 -0.199218 -0.158974 0
M  V30 35 C 5.627639 -1.331032 -0.160771 0
M  V30 36 H 4.131584 -4.725567 -1.432050 0
M  V30 37 H 4.834551 -6.340867 -1.245839 0
M  V30 38 H 3.492861 -5.887315 -0.196438 0
M  V30 39 H 4.942164 -4.968511 1.312354 0
M  V30 40 H 6.262794 -5.717965 0.372946 0
M  V30 41 H 3.290963 -3.606016 0.514394 0
M  V30 42 H 1.975715 -1.621449 0.515957 0
M  V30 43 H 1.637989 4.504794 0.714881 0
M  V30 44 H -6.170945 0.422479 -0.031070 0
M  V30 45 H -7.836945 0.150712 1.672641 0
M  V30 46 H -7.181809 -0.344556 5.246188 0
M  V30 47 H -7.840609 1.226075 4.731178 0
M  V30 48 H -8.508964 -0.266112 3.972711 0
M  V30 49 H -4.903933 0.651531 4.744097 0
M  V30 50 H 0.233195 -0.309225 1.285367 0
M  V30 51 H -1.975175 -1.304270 -0.147602 0
M  V30 52 H -2.470886 -2.530260 -2.157362 0
M  V30 53 H 1.031878 -1.027580 -3.950837 0
M  V30 54 H 1.530297 0.217848 -1.953989 0
M  V30 55 H 5.400375 0.720734 -0.362577 0
M  V30 56 H 6.696564 -1.276248 -0.353362 0
M  V30 END ATOM
M  V30 BEGIN BOND
M  V30 1 1 1 2
M  V30 2 1 2 3
M  V30 3 1 3 4
M  V30 4 2 4 5
M  V30 5 1 5 6
M  V30 6 2 6 7
M  V30 7 1 7 8
M  V30 8 2 8 9
M  V30 9 1 8 10
M  V30 10 2 10 11
M  V30 11 1 11 12
M  V30 12 1 11 13
M  V30 13 2 13 14
M  V30 14 1 13 15
M  V30 15 1 15 16
M  V30 16 2 16 17
M  V30 17 1 17 18
M  V30 18 2 18 19
M  V30 19 1 19 20
M  V30 20 2 20 21
M  V30 21 1 21 22
M  V30 22 1 21 23
M  V30 23 2 23 24
M  V30 24 1 24 25
M  V30 25 1 15 26
M  V30 26 1 26 27
M  V30 27 2 27 28
M  V30 28 1 28 29
M  V30 29 2 29 30
M  V30 30 1 30 31
M  V30 31 1 30 32
M  V30 32 2 32 33
M  V30 33 1 7 34
M  V30 34 2 34 35
M  V30 35 1 35 4
M  V30 36 1 26 10
M  V30 37 1 33 27
M  V30 38 1 25 16
M  V30 39 1 24 18
M  V30 40 1 1 36
M  V30 41 1 1 37
M  V30 42 1 1 38
M  V30 43 1 2 39
M  V30 44 1 2 40
M  V30 45 1 5 41
M  V30 46 1 6 42
M  V30 47 1 12 43
M  V30 48 1 19 44
M  V30 49 1 20 45
M  V30 50 1 22 46
M  V30 51 1 22 47
M  V30 52 1 22 48
M  V30 53 1 23 49
M  V30 54 1 26 50
M  V30 55 1 28 51
M  V30 56 1 29 52
M  V30 57 1 32 53
M  V30 58 1 33 54
M  V30 59 1 34 55
M  V30 60 1 35 56
M  V30 END BOND
M  V30 END CTAB
M  END
>  <Dataset>  (755) 
ChEMBL_Kinases

>  <Ligand_Instance>  (755) 
nan

>  <PDB_ID>  (755) 
nan

>  <Standardized_SMILES>  (755) 
CCOc1ccc(C(=O)C2=C(O)C(=O)N(c3nc4ccc(C)cc4s3)C2c2ccc(F)cc2)cc1

>  <Name>  (755) 
nan

>  <Pocket>  (755) 
nan

>  <ATP_Site>  (755) 
nan

>  <Peripheral>  (755) 
nan

>  <Num_H_Atoms_ProtBoundConf>  (755) 
nan

>  <Num_Resolved_Atoms>  (755) 
nan

>  <Num_Not_Resolved_Atoms>  (755) 
nan

$$$$
CHEMBL3402498
     RDKit          3D

  0  0  0  0  0  0  0  0  0  0999 V3000
M  V30 BEGIN CTAB
M  V30 COUNTS 61 65 0 0 0
M  V30 BEGIN ATOM
M  V30 1 C 5.839259 -5.701929 2.231457 0
M  V30 2 C 5.007645 -4.477248 2.297923 0
M  V30 3 C 4.724312 -3.746108 3.432675 0
M  V30 4 C 3.948088 -2.612462 3.461710 0
M  V30 5 C 3.787856 -2.000734 4.805809 0
M  V30 6 C 3.385315 -2.126408 2.293209 0
M  V30 7 N 2.619646 -1.071154 2.099246 0
M  V30 8 C 2.150397 -0.665413 1.126801 0
M  V30 9 N 1.314200 0.512533 0.888110 0
M  V30 10 C 1.906811 1.740391 0.507113 0
M  V30 11 O 3.147675 1.887984 0.300699 0
M  V30 12 C 0.859648 2.784349 0.396132 0
M  V30 13 O 1.308415 4.071924 0.023843 0
M  V30 14 C -0.308817 2.184673 0.699302 0
M  V30 15 C -1.469239 3.052385 0.653999 0
M  V30 16 O -1.271696 4.270081 0.303534 0
M  V30 17 C -2.861798 2.773098 0.947540 0
M  V30 18 C -3.402008 1.603504 1.410505 0
M  V30 19 C -4.732233 1.363877 1.660187 0
M  V30 20 C -5.639210 2.355317 1.441718 0
M  V30 21 Cl -7.347855 2.131918 1.734220 0
M  V30 22 C -5.164304 3.556973 0.976911 0
M  V30 23 C -3.839125 3.727563 0.750826 0
M  V30 24 C -0.109578 0.765633 0.956230 0
M  V30 25 C -0.747351 -0.140904 -0.045738 0
M  V30 26 C -0.564084 -1.495159 0.043679 0
M  V30 27 C -1.110251 -2.383746 -0.859330 0
M  V30 28 C -1.878763 -1.933039 -1.909202 0
M  V30 29 C -2.497222 -2.824880 -2.917102 0
M  V30 30 C -4.003043 -2.742352 -2.910647 0
M  V30 31 C -1.923247 -2.511470 -4.263820 0
M  V30 32 C -2.078721 -0.577195 -2.021771 0
M  V30 33 C -1.510339 0.269563 -1.092715 0
M  V30 34 S 2.789209 -1.947727 -0.134844 0
M  V30 35 C 3.672110 -2.860359 1.166315 0
M  V30 36 C 4.463180 -4.021966 1.114337 0
M  V30 37 H 6.717041 -5.583243 1.547962 0
M  V30 38 H 5.195234 -6.548597 1.872022 0
M  V30 39 H 6.168341 -6.016965 3.241637 0
M  V30 40 H 5.186607 -4.163503 4.328420 0
M  V30 41 H 3.636873 -0.900870 4.628480 0
M  V30 42 H 4.675057 -2.118161 5.428511 0
M  V30 43 H 2.914608 -2.384798 5.336681 0
M  V30 44 H 1.259087 4.344749 -0.940519 0
M  V30 45 H -2.768518 0.770782 1.625432 0
M  V30 46 H -5.098750 0.418401 2.024879 0
M  V30 47 H -5.892814 4.338739 0.806452 0
M  V30 48 H -3.580018 4.730255 0.380091 0
M  V30 49 H -0.462880 0.427421 1.975234 0
M  V30 50 H 0.006190 -1.978530 0.823656 0
M  V30 51 H -0.974658 -3.457304 -0.803155 0
M  V30 52 H -2.223711 -3.871587 -2.659916 0
M  V30 53 H -4.456882 -3.354328 -2.103309 0
M  V30 54 H -4.386928 -1.705235 -2.947362 0
M  V30 55 H -4.338034 -3.225560 -3.863741 0
M  V30 56 H -1.586135 -3.410316 -4.816804 0
M  V30 57 H -1.016246 -1.864231 -4.161998 0
M  V30 58 H -2.659344 -1.994939 -4.917290 0
M  V30 59 H -2.685179 -0.174428 -2.843772 0
M  V30 60 H -1.701042 1.314419 -1.239535 0
M  V30 61 H 4.579405 -4.464300 0.144510 0
M  V30 END ATOM
M  V30 BEGIN BOND
M  V30 1 1 1 2
M  V30 2 2 2 3
M  V30 3 1 3 4
M  V30 4 1 4 5
M  V30 5 2 4 6
M  V30 6 1 6 7
M  V30 7 2 7 8
M  V30 8 1 8 9
M  V30 9 1 9 10
M  V30 10 2 10 11
M  V30 11 1 10 12
M  V30 12 1 12 13
M  V30 13 2 12 14
M  V30 14 1 14 15
M  V30 15 2 15 16
M  V30 16 1 15 17
M  V30 17 2 17 18
M  V30 18 1 18 19
M  V30 19 2 19 20
M  V30 20 1 20 21
M  V30 21 1 20 22
M  V30 22 2 22 23
M  V30 23 1 14 24
M  V30 24 1 24 25
M  V30 25 2 25 26
M  V30 26 1 26 27
M  V30 27 2 27 28
M  V30 28 1 28 29
M  V30 29 1 29 30
M  V30 30 1 29 31
M  V30 31 1 28 32
M  V30 32 2 32 33
M  V30 33 1 8 34
M  V30 34 1 34 35
M  V30 35 2 35 36
M  V30 36 1 36 2
M  V30 37 1 35 6
M  V30 38 1 24 9
M  V30 39 1 33 25
M  V30 40 1 23 17
M  V30 41 1 1 37
M  V30 42 1 1 38
M  V30 43 1 1 39
M  V30 44 1 3 40
M  V30 45 1 5 41
M  V30 46 1 5 42
M  V30 47 1 5 43
M  V30 48 1 13 44
M  V30 49 1 18 45
M  V30 50 1 19 46
M  V30 51 1 22 47
M  V30 52 1 23 48
M  V30 53 1 24 49
M  V30 54 1 26 50
M  V30 55 1 27 51
M  V30 56 1 29 52
M  V30 57 1 30 53
M  V30 58 1 30 54
M  V30 59 1 30 55
M  V30 60 1 31 56
M  V30 61 1 31 57
M  V30 62 1 31 58
M  V30 63 1 32 59
M  V30 64 1 33 60
M  V30 65 1 36 61
M  V30 END BOND
M  V30 END CTAB
M  END
>  <Dataset>  (756) 
ChEMBL_Kinases

>  <Ligand_Instance>  (756) 
nan

>  <PDB_ID>  (756) 
nan

>  <Standardized_SMILES>  (756) 
Cc1cc(C)c2nc(N3C(=O)C(O)=C(C(=O)c4ccc(Cl)cc4)C3c3ccc(C(C)C)cc3)sc2c1

>  <Name>  (756) 
nan

>  <Pocket>  (756) 
nan

>  <ATP_Site>  (756) 
nan

>  <Peripheral>  (756) 
nan

>  <Num_H_Atoms_ProtBoundConf>  (756) 
nan

>  <Num_Resolved_Atoms>  (756) 
nan

>  <Num_Not_Resolved_Atoms>  (756) 
nan

$$$$
CHEMBL3402500
     RDKit          3D

  0  0  0  0  0  0  0  0  0  0999 V3000
M  V30 BEGIN CTAB
M  V30 COUNTS 65 70 0 0 0
M  V30 BEGIN ATOM
M  V30 1 C 2.048002 0.647861 5.954763 0
M  V30 2 C 1.118024 -0.555640 5.934558 0
M  V30 3 C -0.272208 -0.168966 5.570727 0
M  V30 4 O -0.467219 0.427166 4.343712 0
M  V30 5 C -0.237368 -0.019614 3.081389 0
M  V30 6 C 0.255649 -1.200116 2.570403 0
M  V30 7 C 0.404511 -1.432765 1.221958 0
M  V30 8 C 0.043245 -0.438148 0.337142 0
M  V30 9 C 0.174857 -0.628735 -1.119929 0
M  V30 10 C -1.148118 -0.797266 -1.789048 0
M  V30 11 C -2.131051 -1.765501 -1.403776 0
M  V30 12 O -1.587739 -2.368223 -0.424521 0
M  V30 13 C -3.434718 -2.281366 -1.696939 0
M  V30 14 C -4.302433 -1.885458 -2.684068 0
M  V30 15 C -5.555141 -2.377112 -2.958514 0
M  V30 16 C -5.948951 -3.385012 -2.121206 0
M  V30 17 C -5.172591 -3.865379 -1.101544 0
M  V30 18 C -3.947374 -3.312985 -0.910899 0
M  V30 19 O -5.707477 -4.874344 -0.352905 0
M  V30 20 C -7.097551 -5.038439 -0.126754 0
M  V30 21 C -7.949555 -4.548763 -1.251750 0
M  V30 22 O -7.199153 -3.964824 -2.298986 0
M  V30 23 C -1.208583 0.095037 -2.760572 0
M  V30 24 O -2.132759 0.454894 -3.727267 0
M  V30 25 C -0.013193 0.921697 -2.860518 0
M  V30 26 O 0.393845 1.863414 -3.584896 0
M  V30 27 N 0.797836 0.416044 -1.813284 0
M  V30 28 C 2.085140 0.715622 -1.302365 0
M  V30 29 N 2.912711 0.433676 -0.478822 0
M  V30 30 C 4.089150 1.026569 -0.345958 0
M  V30 31 C 5.032902 0.689335 0.608414 0
M  V30 32 C 6.218771 1.362126 0.662687 0
M  V30 33 C 6.575880 2.390931 -0.183575 0
M  V30 34 C 7.836182 3.175275 -0.197109 0
M  V30 35 C 5.674211 2.767769 -1.152463 0
M  V30 36 C 4.468790 2.063616 -1.186508 0
M  V30 37 S 2.957133 2.144528 -2.237191 0
M  V30 38 C -0.465451 0.787525 0.783378 0
M  V30 39 C -0.599481 0.980073 2.165276 0
M  V30 40 H 1.433226 1.538924 6.100586 0
M  V30 41 H 2.680356 0.700293 5.048247 0
M  V30 42 H 2.769105 0.618802 6.806852 0
M  V30 43 H 1.587526 -1.346263 5.361102 0
M  V30 44 H 1.121786 -0.921702 7.005722 0
M  V30 45 H -0.673290 0.428971 6.424980 0
M  V30 46 H -0.913987 -1.100833 5.578934 0
M  V30 47 H 0.500629 -1.906293 3.345288 0
M  V30 48 H 0.798877 -2.381138 0.911875 0
M  V30 49 H 0.730439 -1.568584 -1.298439 0
M  V30 50 H -4.032680 -1.103575 -3.358809 0
M  V30 51 H -6.190805 -2.021360 -3.752315 0
M  V30 52 H -3.398670 -3.762794 -0.073656 0
M  V30 53 H -7.346389 -4.531902 0.843727 0
M  V30 54 H -7.302296 -6.116861 0.026880 0
M  V30 55 H -8.588626 -5.336033 -1.708215 0
M  V30 56 H -8.676404 -3.792761 -0.832988 0
M  V30 57 H -2.019136 0.123874 -4.685090 0
M  V30 58 H 4.948755 -0.083211 1.361059 0
M  V30 59 H 7.008018 1.138681 1.399798 0
M  V30 60 H 8.381599 3.091171 -1.160243 0
M  V30 61 H 8.456804 2.985315 0.684956 0
M  V30 62 H 7.549450 4.265480 -0.119477 0
M  V30 63 H 5.722810 3.518176 -1.905161 0
M  V30 64 H -0.732999 1.532855 0.048989 0
M  V30 65 H -1.003889 1.968460 2.387150 0
M  V30 END ATOM
M  V30 BEGIN BOND
M  V30 1 1 1 2
M  V30 2 1 2 3
M  V30 3 1 3 4
M  V30 4 1 4 5
M  V30 5 2 5 6
M  V30 6 1 6 7
M  V30 7 2 7 8
M  V30 8 1 8 9
M  V30 9 1 9 10
M  V30 10 1 10 11
M  V30 11 2 11 12
M  V30 12 1 11 13
M  V30 13 2 13 14
M  V30 14 1 14 15
M  V30 15 2 15 16
M  V30 16 1 16 17
M  V30 17 2 17 18
M  V30 18 1 17 19
M  V30 19 1 19 20
M  V30 20 1 20 21
M  V30 21 1 21 22
M  V30 22 2 10 23
M  V30 23 1 23 24
M  V30 24 1 23 25
M  V30 25 2 25 26
M  V30 26 1 25 27
M  V30 27 1 27 28
M  V30 28 2 28 29
M  V30 29 1 29 30
M  V30 30 2 30 31
M  V30 31 1 31 32
M  V30 32 2 32 33
M  V30 33 1 33 34
M  V30 34 1 33 35
M  V30 35 2 35 36
M  V30 36 1 36 37
M  V30 37 1 8 38
M  V30 38 2 38 39
M  V30 39 1 39 5
M  V30 40 1 27 9
M  V30 41 1 37 28
M  V30 42 1 18 13
M  V30 43 1 36 30
M  V30 44 1 22 16
M  V30 45 1 1 40
M  V30 46 1 1 41
M  V30 47 1 1 42
M  V30 48 1 2 43
M  V30 49 1 2 44
M  V30 50 1 3 45
M  V30 51 1 3 46
M  V30 52 1 6 47
M  V30 53 1 7 48
M  V30 54 1 9 49
M  V30 55 1 14 50
M  V30 56 1 15 51
M  V30 57 1 18 52
M  V30 58 1 20 53
M  V30 59 1 20 54
M  V30 60 1 21 55
M  V30 61 1 21 56
M  V30 62 1 24 57
M  V30 63 1 31 58
M  V30 64 1 32 59
M  V30 65 1 34 60
M  V30 66 1 34 61
M  V30 67 1 34 62
M  V30 68 1 35 63
M  V30 69 1 38 64
M  V30 70 1 39 65
M  V30 END BOND
M  V30 END CTAB
M  END
>  <Dataset>  (757) 
ChEMBL_Kinases

>  <Ligand_Instance>  (757) 
nan

>  <PDB_ID>  (757) 
nan

>  <Standardized_SMILES>  (757) 
CCCOc1ccc(C2C(C(=O)c3ccc4c(c3)OCCO4)=C(O)C(=O)N2c2nc3ccc(C)cc3s2)cc1

>  <Name>  (757) 
nan

>  <Pocket>  (757) 
nan

>  <ATP_Site>  (757) 
nan

>  <Peripheral>  (757) 
nan

>  <Num_H_Atoms_ProtBoundConf>  (757) 
nan

>  <Num_Resolved_Atoms>  (757) 
nan

>  <Num_Not_Resolved_Atoms>  (757) 
nan

$$$$
CHEMBL3402501
     RDKit          3D

  0  0  0  0  0  0  0  0  0  0999 V3000
M  V30 BEGIN CTAB
M  V30 COUNTS 64 69 0 0 0
M  V30 BEGIN ATOM
M  V30 1 C 2.422284 -1.833007 4.081983 0
M  V30 2 C 1.194618 -2.640298 3.639956 0
M  V30 3 C 0.114046 -2.267578 4.664622 0
M  V30 4 C 1.407101 -4.107184 3.780843 0
M  V30 5 C 0.829291 -2.168330 2.305176 0
M  V30 6 C 1.303437 -2.684846 1.119505 0
M  V30 7 C 0.882752 -2.151548 -0.106746 0
M  V30 8 C -0.023991 -1.087847 -0.144172 0
M  V30 9 C -0.269267 -0.774761 -1.592653 0
M  V30 10 C 0.978497 -0.372355 -2.295049 0
M  V30 11 C 1.947487 0.717172 -2.273961 0
M  V30 12 O 2.971261 0.700816 -3.029734 0
M  V30 13 C 1.912128 1.894275 -1.466001 0
M  V30 14 C 2.991506 2.780926 -1.514207 0
M  V30 15 C 3.013951 3.967432 -0.769137 0
M  V30 16 C 1.987561 4.328074 0.045454 0
M  V30 17 C 0.904427 3.477647 0.118270 0
M  V30 18 C 0.929824 2.323690 -0.633644 0
M  V30 19 O -0.148512 3.814953 0.932901 0
M  V30 20 C -0.196902 4.952602 1.747256 0
M  V30 21 C 0.867751 5.967523 1.495518 0
M  V30 22 O 1.985047 5.479509 0.782850 0
M  V30 23 C 1.357219 -1.265903 -3.236181 0
M  V30 24 O 2.324387 -1.569890 -4.213090 0
M  V30 25 C 0.350605 -2.357302 -3.258697 0
M  V30 26 O 0.081764 -3.432891 -3.830575 0
M  V30 27 N -0.612138 -2.018890 -2.282830 0
M  V30 28 C -1.870466 -2.617351 -1.797387 0
M  V30 29 N -2.949610 -2.468648 -2.145557 0
M  V30 30 C -4.080661 -2.998385 -1.718757 0
M  V30 31 C -5.386940 -2.826395 -2.130939 0
M  V30 32 C -6.415266 -3.505435 -1.514998 0
M  V30 33 C -6.232813 -4.397212 -0.455328 0
M  V30 34 Cl -7.488734 -5.283278 0.362219 0
M  V30 35 C -4.956259 -4.621403 0.012345 0
M  V30 36 C -3.963165 -3.898445 -0.660153 0
M  V30 37 S -2.087947 -3.870957 -0.385287 0
M  V30 38 C -0.488006 -0.583721 1.046312 0
M  V30 39 C -0.063486 -1.120251 2.239127 0
M  V30 40 H 2.120343 -0.780470 4.261122 0
M  V30 41 H 3.230000 -1.917219 3.333857 0
M  V30 42 H 2.775942 -2.227447 5.061937 0
M  V30 43 H 0.226832 -1.212130 4.980252 0
M  V30 44 H 0.281643 -2.907004 5.560268 0
M  V30 45 H -0.886885 -2.410257 4.206774 0
M  V30 46 H 2.200531 -4.288512 4.547733 0
M  V30 47 H 1.648703 -4.663702 2.880088 0
M  V30 48 H 0.498707 -4.613320 4.213112 0
M  V30 49 H 1.997687 -3.501885 1.245969 0
M  V30 50 H 1.365926 -2.691272 -0.910380 0
M  V30 51 H -1.091991 -0.083234 -1.686384 0
M  V30 52 H 3.876562 2.650533 -2.100264 0
M  V30 53 H 3.853812 4.653311 -0.808963 0
M  V30 54 H 0.041830 1.721086 -0.541041 0
M  V30 55 H -1.176434 5.488675 1.632219 0
M  V30 56 H -0.148924 4.608179 2.814758 0
M  V30 57 H 0.473845 6.901098 1.029346 0
M  V30 58 H 1.274774 6.323649 2.487546 0
M  V30 59 H 2.558507 -0.924853 -4.956323 0
M  V30 60 H -5.668813 -2.166388 -2.939269 0
M  V30 61 H -7.462901 -3.372630 -1.839509 0
M  V30 62 H -4.605647 -5.261972 0.809380 0
M  V30 63 H -1.175984 0.222841 0.838731 0
M  V30 64 H -0.520379 -0.612964 3.093498 0
M  V30 END ATOM
M  V30 BEGIN BOND
M  V30 1 1 1 2
M  V30 2 1 2 3
M  V30 3 1 2 4
M  V30 4 1 2 5
M  V30 5 2 5 6
M  V30 6 1 6 7
M  V30 7 2 7 8
M  V30 8 1 8 9
M  V30 9 1 9 10
M  V30 10 1 10 11
M  V30 11 2 11 12
M  V30 12 1 11 13
M  V30 13 2 13 14
M  V30 14 1 14 15
M  V30 15 2 15 16
M  V30 16 1 16 17
M  V30 17 2 17 18
M  V30 18 1 17 19
M  V30 19 1 19 20
M  V30 20 1 20 21
M  V30 21 1 21 22
M  V30 22 2 10 23
M  V30 23 1 23 24
M  V30 24 1 23 25
M  V30 25 2 25 26
M  V30 26 1 25 27
M  V30 27 1 27 28
M  V30 28 2 28 29
M  V30 29 1 29 30
M  V30 30 2 30 31
M  V30 31 1 31 32
M  V30 32 2 32 33
M  V30 33 1 33 34
M  V30 34 1 33 35
M  V30 35 2 35 36
M  V30 36 1 36 37
M  V30 37 1 8 38
M  V30 38 2 38 39
M  V30 39 1 39 5
M  V30 40 1 27 9
M  V30 41 1 37 28
M  V30 42 1 18 13
M  V30 43 1 36 30
M  V30 44 1 22 16
M  V30 45 1 1 40
M  V30 46 1 1 41
M  V30 47 1 1 42
M  V30 48 1 3 43
M  V30 49 1 3 44
M  V30 50 1 3 45
M  V30 51 1 4 46
M  V30 52 1 4 47
M  V30 53 1 4 48
M  V30 54 1 6 49
M  V30 55 1 7 50
M  V30 56 1 9 51
M  V30 57 1 14 52
M  V30 58 1 15 53
M  V30 59 1 18 54
M  V30 60 1 20 55
M  V30 61 1 20 56
M  V30 62 1 21 57
M  V30 63 1 21 58
M  V30 64 1 24 59
M  V30 65 1 31 60
M  V30 66 1 32 61
M  V30 67 1 35 62
M  V30 68 1 38 63
M  V30 69 1 39 64
M  V30 END BOND
M  V30 END CTAB
M  END
>  <Dataset>  (758) 
ChEMBL_Kinases

>  <Ligand_Instance>  (758) 
nan

>  <PDB_ID>  (758) 
nan

>  <Standardized_SMILES>  (758) 
CC(C)(C)c1ccc(C2C(C(=O)c3ccc4c(c3)OCCO4)=C(O)C(=O)N2c2nc3ccc(Cl)cc3s2)cc1

>  <Name>  (758) 
nan

>  <Pocket>  (758) 
nan

>  <ATP_Site>  (758) 
nan

>  <Peripheral>  (758) 
nan

>  <Num_H_Atoms_ProtBoundConf>  (758) 
nan

>  <Num_Resolved_Atoms>  (758) 
nan

>  <Num_Not_Resolved_Atoms>  (758) 
nan

$$$$
CHEMBL3402492
     RDKit          3D

  0  0  0  0  0  0  0  0  0  0999 V3000
M  V30 BEGIN CTAB
M  V30 COUNTS 65 69 0 0 0
M  V30 BEGIN ATOM
M  V30 1 C 4.864246 -2.811295 6.608122 0
M  V30 2 C 4.750677 -3.993489 5.700816 0
M  V30 3 O 4.991647 -3.735555 4.344371 0
M  V30 4 C 4.212751 -2.858694 3.635901 0
M  V30 5 C 4.437381 -2.580286 2.295350 0
M  V30 6 C 3.721034 -1.730604 1.514918 0
M  V30 7 C 2.638771 -1.042262 2.068354 0
M  V30 8 N 1.810899 -0.181916 1.522790 0
M  V30 9 C 0.906337 0.383682 2.015044 0
M  V30 10 N -0.129086 1.327097 1.717150 0
M  V30 11 C -0.248994 2.714964 1.756662 0
M  V30 12 O 0.802029 3.311396 2.095488 0
M  V30 13 C -1.640089 3.039614 1.367809 0
M  V30 14 O -1.811596 4.441231 1.397413 0
M  V30 15 C -2.288331 1.885644 1.112045 0
M  V30 16 C -3.661217 2.182459 0.734934 0
M  V30 17 O -4.101651 3.378301 0.650271 0
M  V30 18 C -4.681332 1.211306 0.416937 0
M  V30 19 C -5.939599 1.655121 0.005854 0
M  V30 20 C -6.978019 0.789026 -0.301801 0
M  V30 21 C -6.816397 -0.575947 -0.215463 0
M  V30 22 C -5.595081 -1.063717 0.185373 0
M  V30 23 C -4.610735 -0.159028 0.475155 0
M  V30 24 C -1.387608 0.741172 1.256715 0
M  V30 25 C -1.036350 0.107880 -0.051812 0
M  V30 26 C -1.231740 -1.150061 -0.579341 0
M  V30 27 C -0.811947 -1.473338 -1.837095 0
M  V30 28 C -0.175823 -0.590527 -2.657655 0
M  V30 29 C 0.204865 -1.109578 -3.978310 0
M  V30 30 C 0.887971 -0.009551 -4.747743 0
M  V30 31 C 1.121687 -2.301541 -3.901494 0
M  V30 32 C -1.022495 -1.528109 -4.752848 0
M  V30 33 C 0.049031 0.684404 -2.185870 0
M  V30 34 C -0.382033 1.006409 -0.902601 0
M  V30 35 S 0.944759 -0.269866 3.823950 0
M  V30 36 C 2.439692 -1.356701 3.452590 0
M  V30 37 C 3.168166 -2.224698 4.257049 0
M  V30 38 H 3.985443 -2.744609 7.301698 0
M  V30 39 H 5.736165 -2.920443 7.326699 0
M  V30 40 H 5.006403 -1.843458 6.124215 0
M  V30 41 H 5.475784 -4.772790 6.082391 0
M  V30 42 H 3.732381 -4.458524 5.856256 0
M  V30 43 H 5.289133 -3.113299 1.833957 0
M  V30 44 H 4.003917 -1.604887 0.480510 0
M  V30 45 H -2.462180 4.866086 2.018187 0
M  V30 46 H -6.210400 2.677015 -0.107050 0
M  V30 47 H -7.955407 1.129973 -0.621196 0
M  V30 48 H -7.611691 -1.244488 -0.451265 0
M  V30 49 H -5.446284 -2.111955 0.259265 0
M  V30 50 H -3.676771 -0.582939 0.798866 0
M  V30 51 H -1.718144 0.023439 2.014155 0
M  V30 52 H -1.743865 -1.786028 0.154294 0
M  V30 53 H -1.034692 -2.500466 -2.118045 0
M  V30 54 H 1.779025 0.363062 -4.183246 0
M  V30 55 H 0.207434 0.846313 -4.940662 0
M  V30 56 H 1.205975 -0.373411 -5.754185 0
M  V30 57 H 2.086661 -1.983830 -3.489640 0
M  V30 58 H 1.247691 -2.680647 -4.947946 0
M  V30 59 H 0.628667 -3.098545 -3.290228 0
M  V30 60 H -1.406376 -0.648209 -5.285516 0
M  V30 61 H -1.741921 -1.976507 -4.050161 0
M  V30 62 H -0.699038 -2.284837 -5.497407 0
M  V30 63 H 0.546104 1.365538 -2.833344 0
M  V30 64 H -0.144862 2.049213 -0.643891 0
M  V30 65 H 2.837961 -2.311514 5.269049 0
M  V30 END ATOM
M  V30 BEGIN BOND
M  V30 1 1 1 2
M  V30 2 1 2 3
M  V30 3 1 3 4
M  V30 4 2 4 5
M  V30 5 1 5 6
M  V30 6 2 6 7
M  V30 7 1 7 8
M  V30 8 2 8 9
M  V30 9 1 9 10
M  V30 10 1 10 11
M  V30 11 2 11 12
M  V30 12 1 11 13
M  V30 13 1 13 14
M  V30 14 2 13 15
M  V30 15 1 15 16
M  V30 16 2 16 17
M  V30 17 1 16 18
M  V30 18 2 18 19
M  V30 19 1 19 20
M  V30 20 2 20 21
M  V30 21 1 21 22
M  V30 22 2 22 23
M  V30 23 1 15 24
M  V30 24 1 24 25
M  V30 25 2 25 26
M  V30 26 1 26 27
M  V30 27 2 27 28
M  V30 28 1 28 29
M  V30 29 1 29 30
M  V30 30 1 29 31
M  V30 31 1 29 32
M  V30 32 1 28 33
M  V30 33 2 33 34
M  V30 34 1 9 35
M  V30 35 1 35 36
M  V30 36 2 36 37
M  V30 37 1 37 4
M  V30 38 1 36 7
M  V30 39 1 24 10
M  V30 40 1 34 25
M  V30 41 1 23 18
M  V30 42 1 1 38
M  V30 43 1 1 39
M  V30 44 1 1 40
M  V30 45 1 2 41
M  V30 46 1 2 42
M  V30 47 1 5 43
M  V30 48 1 6 44
M  V30 49 1 14 45
M  V30 50 1 19 46
M  V30 51 1 20 47
M  V30 52 1 21 48
M  V30 53 1 22 49
M  V30 54 1 23 50
M  V30 55 1 24 51
M  V30 56 1 26 52
M  V30 57 1 27 53
M  V30 58 1 30 54
M  V30 59 1 30 55
M  V30 60 1 30 56
M  V30 61 1 31 57
M  V30 62 1 31 58
M  V30 63 1 31 59
M  V30 64 1 32 60
M  V30 65 1 32 61
M  V30 66 1 32 62
M  V30 67 1 33 63
M  V30 68 1 34 64
M  V30 69 1 37 65
M  V30 END BOND
M  V30 END CTAB
M  END
>  <Dataset>  (759) 
ChEMBL_Kinases

>  <Ligand_Instance>  (759) 
nan

>  <PDB_ID>  (759) 
nan

>  <Standardized_SMILES>  (759) 
CCOc1ccc2nc(N3C(=O)C(O)=C(C(=O)c4ccccc4)C3c3ccc(C(C)(C)C)cc3)sc2c1

>  <Name>  (759) 
nan

>  <Pocket>  (759) 
nan

>  <ATP_Site>  (759) 
nan

>  <Peripheral>  (759) 
nan

>  <Num_H_Atoms_ProtBoundConf>  (759) 
nan

>  <Num_Resolved_Atoms>  (759) 
nan

>  <Num_Not_Resolved_Atoms>  (759) 
nan

$$$$
