CHEMBL3112852
     RDKit          3D

  0  0  0  0  0  0  0  0  0  0999 V3000
M  V30 BEGIN CTAB
M  V30 COUNTS 49 52 0 0 0
M  V30 BEGIN ATOM
M  V30 1 C 7.428305 -2.982806 1.600892 0
M  V30 2 O 6.291028 -2.530654 0.889789 0
M  V30 3 C 4.984509 -2.797760 1.283788 0
M  V30 4 C 4.598504 -3.521133 2.392520 0
M  V30 5 C 3.268020 -3.727536 2.692429 0
M  V30 6 C 2.293312 -3.203221 1.871941 0
M  V30 7 C 2.698442 -2.482296 0.767339 0
M  V30 8 C 4.011218 -2.255517 0.435863 0
M  V30 9 C 4.055450 -1.445724 -0.809068 0
M  V30 10 C 2.645962 -1.550041 -1.344761 0
M  V30 11 N 1.819342 -1.878037 -0.175405 0
M  V30 12 C 0.441160 -1.555842 -0.221549 0
M  V30 13 O -0.191822 -1.002018 -1.156581 0
M  V30 14 C -0.582382 -1.798911 0.829987 0
M  V30 15 C -1.920602 -1.295253 0.380882 0
M  V30 16 N -2.292132 -0.031582 0.645407 0
M  V30 17 C -3.469241 0.506877 0.282410 0
M  V30 18 N -3.783874 1.876125 0.609234 0
M  V30 19 C -2.747549 2.587386 1.328682 0
M  V30 20 C -3.388691 3.619158 2.198080 0
M  V30 21 O -4.756500 3.659084 2.169801 0
M  V30 22 C -5.294406 3.677796 0.896407 0
M  V30 23 C -5.080730 2.350990 0.177226 0
M  V30 24 C -4.331932 -0.318899 -0.406701 0
M  V30 25 C -4.006387 -1.632589 -0.710020 0
M  V30 26 O -4.812410 -2.365508 -1.340525 0
M  V30 27 N -2.808590 -2.042740 -0.292826 0
M  V30 28 H 8.276795 -2.257462 1.515175 0
M  V30 29 H 7.183311 -2.991612 2.686381 0
M  V30 30 H 7.731659 -4.008222 1.336614 0
M  V30 31 H 5.393671 -3.916395 3.011729 0
M  V30 32 H 2.989211 -4.296294 3.564214 0
M  V30 33 H 1.257691 -3.378130 2.127903 0
M  V30 34 H 4.393016 -0.415026 -0.632145 0
M  V30 35 H 4.779427 -1.919368 -1.503804 0
M  V30 36 H 2.319202 -0.654692 -1.869650 0
M  V30 37 H 2.584286 -2.433906 -2.018661 0
M  V30 38 H -0.286059 -1.409884 1.808712 0
M  V30 39 H -0.702939 -2.923001 0.841058 0
M  V30 40 H -2.094959 3.132352 0.587086 0
M  V30 41 H -2.081676 1.896185 1.879504 0
M  V30 42 H -2.983835 4.637261 2.006193 0
M  V30 43 H -3.081148 3.409641 3.265748 0
M  V30 44 H -6.406878 3.756337 1.049784 0
M  V30 45 H -4.976646 4.546465 0.320325 0
M  V30 46 H -5.894064 1.632742 0.413295 0
M  V30 47 H -5.034156 2.603054 -0.898826 0
M  V30 48 H -5.291886 0.056945 -0.725240 0
M  V30 49 H -2.549128 -3.033789 -0.515035 0
M  V30 END ATOM
M  V30 BEGIN BOND
M  V30 1 1 1 2
M  V30 2 1 2 3
M  V30 3 2 3 4
M  V30 4 1 4 5
M  V30 5 2 5 6
M  V30 6 1 6 7
M  V30 7 2 7 8
M  V30 8 1 8 9
M  V30 9 1 9 10
M  V30 10 1 10 11
M  V30 11 1 11 12
M  V30 12 2 12 13
M  V30 13 1 12 14
M  V30 14 1 14 15
M  V30 15 2 15 16
M  V30 16 1 16 17
M  V30 17 1 17 18
M  V30 18 1 18 19
M  V30 19 1 19 20
M  V30 20 1 20 21
M  V30 21 1 21 22
M  V30 22 1 22 23
M  V30 23 2 17 24
M  V30 24 1 24 25
M  V30 25 2 25 26
M  V30 26 1 25 27
M  V30 27 1 8 3
M  V30 28 1 27 15
M  V30 29 1 11 7
M  V30 30 1 23 18
M  V30 31 1 1 28
M  V30 32 1 1 29
M  V30 33 1 1 30
M  V30 34 1 4 31
M  V30 35 1 5 32
M  V30 36 1 6 33
M  V30 37 1 9 34
M  V30 38 1 9 35
M  V30 39 1 10 36
M  V30 40 1 10 37
M  V30 41 1 14 38
M  V30 42 1 14 39
M  V30 43 1 19 40
M  V30 44 1 19 41
M  V30 45 1 20 42
M  V30 46 1 20 43
M  V30 47 1 22 44
M  V30 48 1 22 45
M  V30 49 1 23 46
M  V30 50 1 23 47
M  V30 51 1 24 48
M  V30 52 1 27 49
M  V30 END BOND
M  V30 END CTAB
M  END
>  <Dataset>  (1) 
ChEMBL_Kinases

>  <Ligand_Instance>  (1) 
nan

>  <PDB_ID>  (1) 
nan

>  <Standardized_SMILES>  (1) 
COc1cccc2c1CCN2C(=O)Cc1nc(N2CCOCC2)cc(=O)[nH]1

>  <Name>  (1) 
nan

>  <Pocket>  (1) 
nan

>  <ATP_Site>  (1) 
nan

>  <Peripheral>  (1) 
nan

>  <Num_H_Atoms_ProtBoundConf>  (1) 
nan

>  <Num_Resolved_Atoms>  (1) 
nan

>  <Num_Not_Resolved_Atoms>  (1) 
nan

$$$$
CHEMBL3112861
     RDKit          3D

  0  0  0  0  0  0  0  0  0  0999 V3000
M  V30 BEGIN CTAB
M  V30 COUNTS 48 51 0 0 0
M  V30 BEGIN ATOM
M  V30 1 C 1.609215 -3.743177 -0.015622 0
M  V30 2 N 0.258406 -3.263206 -0.000402 0
M  V30 3 C 0.006004 -1.981868 -0.306602 0
M  V30 4 C 1.093752 -1.011755 -0.670681 0
M  V30 5 C 1.551102 -0.376512 0.589979 0
M  V30 6 O 0.998800 -0.725960 1.665282 0
M  V30 7 N 2.583366 0.601152 0.598684 0
M  V30 8 C 3.302630 1.096578 -0.553093 0
M  V30 9 C 3.948402 2.392641 -0.108005 0
M  V30 10 C 3.884077 2.314768 1.376878 0
M  V30 11 C 4.478658 3.100811 2.342087 0
M  V30 12 C 4.256626 2.815014 3.690497 0
M  V30 13 C 3.455868 1.764117 4.093823 0
M  V30 14 C 2.874559 0.995410 3.104734 0
M  V30 15 C 3.074065 1.251599 1.759755 0
M  V30 16 N -1.273517 -1.550633 -0.286126 0
M  V30 17 C -2.325885 -2.299667 0.016953 0
M  V30 18 N -3.620110 -1.715403 -0.000772 0
M  V30 19 C -3.723154 -0.310619 -0.354931 0
M  V30 20 C -4.277402 0.376720 0.897574 0
M  V30 21 O -5.205176 -0.429405 1.531856 0
M  V30 22 C -5.853782 -1.300867 0.658202 0
M  V30 23 C -4.836004 -2.393049 0.301121 0
M  V30 24 C -2.115324 -3.624982 0.338889 0
M  V30 25 C -0.795598 -4.046453 0.311721 0
M  V30 26 O -0.565873 -5.249041 0.599845 0
M  V30 27 H 2.146505 -3.557320 -0.951940 0
M  V30 28 H 1.585327 -4.850423 0.133380 0
M  V30 29 H 2.230090 -3.330523 0.811064 0
M  V30 30 H 1.908178 -1.503599 -1.227161 0
M  V30 31 H 0.632234 -0.293221 -1.379771 0
M  V30 32 H 4.103083 0.424229 -0.868757 0
M  V30 33 H 2.593498 1.342798 -1.385807 0
M  V30 34 H 3.399618 3.275392 -0.495964 0
M  V30 35 H 4.995071 2.487085 -0.463362 0
M  V30 36 H 5.112948 3.933545 2.089958 0
M  V30 37 H 4.696265 3.396600 4.488039 0
M  V30 38 H 3.276303 1.532810 5.144772 0
M  V30 39 H 2.246252 0.170861 3.426871 0
M  V30 40 H -4.429344 -0.145507 -1.194985 0
M  V30 41 H -2.746187 0.132248 -0.638789 0
M  V30 42 H -4.627895 1.399498 0.682533 0
M  V30 43 H -3.388068 0.473957 1.573809 0
M  V30 44 H -6.162741 -0.736769 -0.227681 0
M  V30 45 H -6.709618 -1.744946 1.190017 0
M  V30 46 H -4.796766 -3.034163 1.199412 0
M  V30 47 H -5.174785 -2.960004 -0.581894 0
M  V30 48 H -2.929648 -4.265976 0.589337 0
M  V30 END ATOM
M  V30 BEGIN BOND
M  V30 1 1 1 2
M  V30 2 1 2 3
M  V30 3 1 3 4
M  V30 4 1 4 5
M  V30 5 2 5 6
M  V30 6 1 5 7
M  V30 7 1 7 8
M  V30 8 1 8 9
M  V30 9 1 9 10
M  V30 10 2 10 11
M  V30 11 1 11 12
M  V30 12 2 12 13
M  V30 13 1 13 14
M  V30 14 2 14 15
M  V30 15 2 3 16
M  V30 16 1 16 17
M  V30 17 1 17 18
M  V30 18 1 18 19
M  V30 19 1 19 20
M  V30 20 1 20 21
M  V30 21 1 21 22
M  V30 22 1 22 23
M  V30 23 2 17 24
M  V30 24 1 24 25
M  V30 25 2 25 26
M  V30 26 1 25 2
M  V30 27 1 15 7
M  V30 28 1 23 18
M  V30 29 1 15 10
M  V30 30 1 1 27
M  V30 31 1 1 28
M  V30 32 1 1 29
M  V30 33 1 4 30
M  V30 34 1 4 31
M  V30 35 1 8 32
M  V30 36 1 8 33
M  V30 37 1 9 34
M  V30 38 1 9 35
M  V30 39 1 11 36
M  V30 40 1 12 37
M  V30 41 1 13 38
M  V30 42 1 14 39
M  V30 43 1 19 40
M  V30 44 1 19 41
M  V30 45 1 20 42
M  V30 46 1 20 43
M  V30 47 1 22 44
M  V30 48 1 22 45
M  V30 49 1 23 46
M  V30 50 1 23 47
M  V30 51 1 24 48
M  V30 END BOND
M  V30 END CTAB
M  END
>  <Dataset>  (2) 
ChEMBL_Kinases

>  <Ligand_Instance>  (2) 
nan

>  <PDB_ID>  (2) 
nan

>  <Standardized_SMILES>  (2) 
Cn1c(CC(=O)N2CCc3ccccc32)nc(N2CCOCC2)cc1=O

>  <Name>  (2) 
nan

>  <Pocket>  (2) 
nan

>  <ATP_Site>  (2) 
nan

>  <Peripheral>  (2) 
nan

>  <Num_H_Atoms_ProtBoundConf>  (2) 
nan

>  <Num_Resolved_Atoms>  (2) 
nan

>  <Num_Not_Resolved_Atoms>  (2) 
nan

$$$$
CHEMBL3112862
     RDKit          3D

  0  0  0  0  0  0  0  0  0  0999 V3000
M  V30 BEGIN CTAB
M  V30 COUNTS 48 51 0 0 0
M  V30 BEGIN ATOM
M  V30 1 C 2.659650 -0.169013 3.339996 0
M  V30 2 C 2.817714 1.024558 2.409539 0
M  V30 3 C 4.266713 1.440982 2.299041 0
M  V30 4 C 4.723813 0.721348 1.096900 0
M  V30 5 C 6.011376 0.521662 0.644913 0
M  V30 6 C 6.225208 -0.192986 -0.525442 0
M  V30 7 C 5.163139 -0.714198 -1.254906 0
M  V30 8 C 3.867078 -0.519273 -0.809730 0
M  V30 9 C 3.691428 0.194474 0.355311 0
M  V30 10 N 2.520072 0.563442 1.068720 0
M  V30 11 C 1.178500 0.542521 0.672931 0
M  V30 12 O 0.123681 0.852809 1.246260 0
M  V30 13 C 0.451553 0.154785 -0.559855 0
M  V30 14 C -1.015123 0.364808 -0.374829 0
M  V30 15 N -1.761041 -0.656591 0.119754 0
M  V30 16 C -3.068059 -0.576112 0.322653 0
M  V30 17 N -3.801343 -1.679137 0.844037 0
M  V30 18 C -3.157678 -2.941034 1.171871 0
M  V30 19 C -3.777425 -3.966475 0.222731 0
M  V30 20 O -5.150494 -3.802480 0.112518 0
M  V30 21 C -5.692345 -3.058339 1.139610 0
M  V30 22 C -5.231347 -1.597416 1.074474 0
M  V30 23 C -3.744197 0.587550 0.029368 0
M  V30 24 C -2.991905 1.649590 -0.480792 0
M  V30 25 O -3.534277 2.754722 -0.776940 0
M  V30 26 N -1.662384 1.518663 -0.669768 0
M  V30 27 H 2.558943 -1.130475 2.801687 0
M  V30 28 H 3.540256 -0.267996 4.012971 0
M  V30 29 H 1.697790 -0.052609 3.911494 0
M  V30 30 H 2.185390 1.877859 2.736219 0
M  V30 31 H 4.848109 1.175920 3.205990 0
M  V30 32 H 4.281114 2.536943 2.098629 0
M  V30 33 H 6.917714 0.875728 1.121874 0
M  V30 34 H 7.192650 -0.395595 -0.949892 0
M  V30 35 H 5.285431 -1.277631 -2.172193 0
M  V30 36 H 3.001420 -0.899736 -1.333356 0
M  V30 37 H 0.823513 0.792879 -1.386057 0
M  V30 38 H 0.657067 -0.899551 -0.847164 0
M  V30 39 H -3.344485 -3.248198 2.226336 0
M  V30 40 H -2.080736 -2.824996 0.956530 0
M  V30 41 H -3.473678 -4.994713 0.481535 0
M  V30 42 H -3.346465 -3.711037 -0.787051 0
M  V30 43 H -5.371364 -3.511252 2.100074 0
M  V30 44 H -6.779817 -3.026622 1.028872 0
M  V30 45 H -5.790764 -1.019018 0.349574 0
M  V30 46 H -5.349835 -1.203456 2.111254 0
M  V30 47 H -4.787339 0.746342 0.157503 0
M  V30 48 H -1.033194 2.271142 -1.048470 0
M  V30 END ATOM
M  V30 BEGIN BOND
M  V30 1 1 1 2
M  V30 2 1 2 3
M  V30 3 1 3 4
M  V30 4 2 4 5
M  V30 5 1 5 6
M  V30 6 2 6 7
M  V30 7 1 7 8
M  V30 8 2 8 9
M  V30 9 1 9 10
M  V30 10 1 10 11
M  V30 11 2 11 12
M  V30 12 1 11 13
M  V30 13 1 13 14
M  V30 14 2 14 15
M  V30 15 1 15 16
M  V30 16 1 16 17
M  V30 17 1 17 18
M  V30 18 1 18 19
M  V30 19 1 19 20
M  V30 20 1 20 21
M  V30 21 1 21 22
M  V30 22 2 16 23
M  V30 23 1 23 24
M  V30 24 2 24 25
M  V30 25 1 24 26
M  V30 26 1 10 2
M  V30 27 1 26 14
M  V30 28 1 9 4
M  V30 29 1 22 17
M  V30 30 1 1 27
M  V30 31 1 1 28
M  V30 32 1 1 29
M  V30 33 1 2 30
M  V30 34 1 3 31
M  V30 35 1 3 32
M  V30 36 1 5 33
M  V30 37 1 6 34
M  V30 38 1 7 35
M  V30 39 1 8 36
M  V30 40 1 13 37
M  V30 41 1 13 38
M  V30 42 1 18 39
M  V30 43 1 18 40
M  V30 44 1 19 41
M  V30 45 1 19 42
M  V30 46 1 21 43
M  V30 47 1 21 44
M  V30 48 1 22 45
M  V30 49 1 22 46
M  V30 50 1 23 47
M  V30 51 1 26 48
M  V30 END BOND
M  V30 END CTAB
M  END
>  <Dataset>  (3) 
ChEMBL_Kinases

>  <Ligand_Instance>  (3) 
nan

>  <PDB_ID>  (3) 
nan

>  <Standardized_SMILES>  (3) 
CC1Cc2ccccc2N1C(=O)Cc1nc(N2CCOCC2)cc(=O)[nH]1

>  <Name>  (3) 
nan

>  <Pocket>  (3) 
nan

>  <ATP_Site>  (3) 
nan

>  <Peripheral>  (3) 
nan

>  <Num_H_Atoms_ProtBoundConf>  (3) 
nan

>  <Num_Resolved_Atoms>  (3) 
nan

>  <Num_Not_Resolved_Atoms>  (3) 
nan

$$$$
CHEMBL3112864
     RDKit          3D

  0  0  0  0  0  0  0  0  0  0999 V3000
M  V30 BEGIN CTAB
M  V30 COUNTS 48 51 0 0 0
M  V30 BEGIN ATOM
M  V30 1 C -2.490728 -5.376228 1.731921 0
M  V30 2 C -1.769658 -5.102032 0.421682 0
M  V30 3 C -0.668426 -4.115377 0.672418 0
M  V30 4 N -1.227881 -2.795992 0.455402 0
M  V30 5 C -0.625228 -1.667785 1.023722 0
M  V30 6 O 0.401385 -1.641076 1.752090 0
M  V30 7 C -1.022516 -0.240332 0.923781 0
M  V30 8 C -0.080684 0.613921 1.709088 0
M  V30 9 N 1.024570 1.120567 1.127739 0
M  V30 10 C 1.898037 1.894349 1.799100 0
M  V30 11 N 3.045870 2.400970 1.136604 0
M  V30 12 C 4.073260 3.241792 1.712641 0
M  V30 13 C 4.261207 4.488274 0.848652 0
M  V30 14 O 4.517990 4.055751 -0.450940 0
M  V30 15 C 3.373019 3.445499 -0.955955 0
M  V30 16 C 3.276518 2.084438 -0.259329 0
M  V30 17 C 1.625934 2.160016 3.124498 0
M  V30 18 C 0.490614 1.635248 3.708550 0
M  V30 19 O 0.191006 1.844828 4.916829 0
M  V30 20 N -0.377352 0.852838 3.000533 0
M  V30 21 C -2.370262 -2.990957 -0.369298 0
M  V30 22 C -3.087574 -2.038710 -1.060155 0
M  V30 23 C -4.185386 -2.465664 -1.815779 0
M  V30 24 C -4.516985 -3.823985 -1.847138 0
M  V30 25 C -3.798659 -4.779862 -1.154831 0
M  V30 26 C -2.718093 -4.324310 -0.416708 0
M  V30 27 H -1.887219 -4.980785 2.587701 0
M  V30 28 H -2.695338 -6.449384 1.892083 0
M  V30 29 H -3.469490 -4.863581 1.806296 0
M  V30 30 H -1.438872 -6.026142 -0.057521 0
M  V30 31 H 0.146237 -4.279367 -0.069054 0
M  V30 32 H -0.315122 -4.199671 1.710200 0
M  V30 33 H -0.926365 0.132478 -0.133580 0
M  V30 34 H -2.066713 -0.160080 1.246362 0
M  V30 35 H 5.035021 2.668481 1.563442 0
M  V30 36 H 3.949120 3.468583 2.769074 0
M  V30 37 H 5.115072 5.058924 1.251151 0
M  V30 38 H 3.383511 5.133507 0.821383 0
M  V30 39 H 3.415806 3.283109 -2.037513 0
M  V30 40 H 2.463773 4.010969 -0.637714 0
M  V30 41 H 4.290856 1.623300 -0.390014 0
M  V30 42 H 2.508174 1.437922 -0.701554 0
M  V30 43 H 2.289638 2.775111 3.716783 0
M  V30 44 H -1.239369 0.459518 3.459636 0
M  V30 45 H -2.823282 -1.012309 -1.025470 0
M  V30 46 H -4.770661 -1.745663 -2.370429 0
M  V30 47 H -5.366948 -4.167814 -2.430283 0
M  V30 48 H -4.093779 -5.810501 -1.211369 0
M  V30 END ATOM
M  V30 BEGIN BOND
M  V30 1 1 1 2
M  V30 2 1 2 3
M  V30 3 1 3 4
M  V30 4 1 4 5
M  V30 5 2 5 6
M  V30 6 1 5 7
M  V30 7 1 7 8
M  V30 8 2 8 9
M  V30 9 1 9 10
M  V30 10 1 10 11
M  V30 11 1 11 12
M  V30 12 1 12 13
M  V30 13 1 13 14
M  V30 14 1 14 15
M  V30 15 1 15 16
M  V30 16 2 10 17
M  V30 17 1 17 18
M  V30 18 2 18 19
M  V30 19 1 18 20
M  V30 20 1 4 21
M  V30 21 2 21 22
M  V30 22 1 22 23
M  V30 23 2 23 24
M  V30 24 1 24 25
M  V30 25 2 25 26
M  V30 26 1 26 2
M  V30 27 1 20 8
M  V30 28 1 26 21
M  V30 29 1 16 11
M  V30 30 1 1 27
M  V30 31 1 1 28
M  V30 32 1 1 29
M  V30 33 1 2 30
M  V30 34 1 3 31
M  V30 35 1 3 32
M  V30 36 1 7 33
M  V30 37 1 7 34
M  V30 38 1 12 35
M  V30 39 1 12 36
M  V30 40 1 13 37
M  V30 41 1 13 38
M  V30 42 1 15 39
M  V30 43 1 15 40
M  V30 44 1 16 41
M  V30 45 1 16 42
M  V30 46 1 17 43
M  V30 47 1 20 44
M  V30 48 1 22 45
M  V30 49 1 23 46
M  V30 50 1 24 47
M  V30 51 1 25 48
M  V30 END BOND
M  V30 END CTAB
M  END
>  <Dataset>  (4) 
ChEMBL_Kinases

>  <Ligand_Instance>  (4) 
nan

>  <PDB_ID>  (4) 
nan

>  <Standardized_SMILES>  (4) 
CC1CN(C(=O)Cc2nc(N3CCOCC3)cc(=O)[nH]2)c2ccccc21

>  <Name>  (4) 
nan

>  <Pocket>  (4) 
nan

>  <ATP_Site>  (4) 
nan

>  <Peripheral>  (4) 
nan

>  <Num_H_Atoms_ProtBoundConf>  (4) 
nan

>  <Num_Resolved_Atoms>  (4) 
nan

>  <Num_Not_Resolved_Atoms>  (4) 
nan

$$$$
CHEMBL3112847
     RDKit          3D

  0  0  0  0  0  0  0  0  0  0999 V3000
M  V30 BEGIN CTAB
M  V30 COUNTS 45 48 0 0 0
M  V30 BEGIN ATOM
M  V30 1 O -1.166234 -0.968485 1.653421 0
M  V30 2 C -0.308113 -1.856703 1.693607 0
M  V30 3 C 1.134525 -1.506332 1.932855 0
M  V30 4 C 1.306597 -0.048416 2.093340 0
M  V30 5 N 1.550498 0.721084 1.009241 0
M  V30 6 C 1.714044 2.054637 1.109279 0
M  V30 7 N 1.967340 2.835365 -0.033874 0
M  V30 8 C 2.157754 4.272964 -0.050161 0
M  V30 9 C 1.619029 4.864392 -1.343325 0
M  V30 10 O 2.275194 4.339370 -2.453198 0
M  V30 11 C 2.906475 3.143439 -2.192845 0
M  V30 12 C 2.056938 2.199611 -1.339353 0
M  V30 13 C 1.626927 2.632495 2.359051 0
M  V30 14 C 1.375746 1.830971 3.466412 0
M  V30 15 O 1.298495 2.384246 4.616111 0
M  V30 16 N 1.216862 0.497807 3.331142 0
M  V30 17 N -0.627435 -3.232049 1.519734 0
M  V30 18 C 0.249692 -4.365721 1.539629 0
M  V30 19 C -0.481283 -5.352102 0.656516 0
M  V30 20 C -1.914587 -4.962608 0.761936 0
M  V30 21 C -3.018566 -5.701446 0.417384 0
M  V30 22 C -4.283949 -5.136907 0.601037 0
M  V30 23 F -5.468591 -5.746821 0.306236 0
M  V30 24 C -4.380721 -3.862576 1.119779 0
M  V30 25 C -3.230098 -3.157246 1.452354 0
M  V30 26 C -1.974703 -3.681233 1.284936 0
M  V30 27 H 1.780855 -1.895638 1.131770 0
M  V30 28 H 1.407555 -2.015532 2.883915 0
M  V30 29 H 1.552222 4.703002 0.768279 0
M  V30 30 H 3.217993 4.529292 0.015439 0
M  V30 31 H 1.736876 5.964792 -1.258430 0
M  V30 32 H 0.543545 4.666773 -1.484764 0
M  V30 33 H 3.200458 2.691965 -3.159750 0
M  V30 34 H 3.812560 3.401626 -1.585539 0
M  V30 35 H 2.537964 1.222555 -1.325064 0
M  V30 36 H 1.044671 2.175474 -1.831596 0
M  V30 37 H 1.744954 3.689139 2.526875 0
M  V30 38 H 1.029327 -0.074272 4.184391 0
M  V30 39 H 1.229489 -4.103923 1.084699 0
M  V30 40 H 0.433366 -4.788844 2.548888 0
M  V30 41 H -0.170454 -5.151539 -0.377473 0
M  V30 42 H -0.291712 -6.406452 0.911406 0
M  V30 43 H -2.991447 -6.691904 0.012349 0
M  V30 44 H -5.326625 -3.346057 1.295852 0
M  V30 45 H -3.264598 -2.141199 1.867655 0
M  V30 END ATOM
M  V30 BEGIN BOND
M  V30 1 2 1 2
M  V30 2 1 2 3
M  V30 3 1 3 4
M  V30 4 2 4 5
M  V30 5 1 5 6
M  V30 6 1 6 7
M  V30 7 1 7 8
M  V30 8 1 8 9
M  V30 9 1 9 10
M  V30 10 1 10 11
M  V30 11 1 11 12
M  V30 12 2 6 13
M  V30 13 1 13 14
M  V30 14 2 14 15
M  V30 15 1 14 16
M  V30 16 1 2 17
M  V30 17 1 17 18
M  V30 18 1 18 19
M  V30 19 1 19 20
M  V30 20 2 20 21
M  V30 21 1 21 22
M  V30 22 1 22 23
M  V30 23 2 22 24
M  V30 24 1 24 25
M  V30 25 2 25 26
M  V30 26 1 16 4
M  V30 27 1 26 17
M  V30 28 1 12 7
M  V30 29 1 26 20
M  V30 30 1 3 27
M  V30 31 1 3 28
M  V30 32 1 8 29
M  V30 33 1 8 30
M  V30 34 1 9 31
M  V30 35 1 9 32
M  V30 36 1 11 33
M  V30 37 1 11 34
M  V30 38 1 12 35
M  V30 39 1 12 36
M  V30 40 1 13 37
M  V30 41 1 16 38
M  V30 42 1 18 39
M  V30 43 1 18 40
M  V30 44 1 19 41
M  V30 45 1 19 42
M  V30 46 1 21 43
M  V30 47 1 24 44
M  V30 48 1 25 45
M  V30 END BOND
M  V30 END CTAB
M  END
>  <Dataset>  (5) 
ChEMBL_Kinases

>  <Ligand_Instance>  (5) 
nan

>  <PDB_ID>  (5) 
nan

>  <Standardized_SMILES>  (5) 
O=C(Cc1nc(N2CCOCC2)cc(=O)[nH]1)N1CCc2cc(F)ccc21

>  <Name>  (5) 
nan

>  <Pocket>  (5) 
nan

>  <ATP_Site>  (5) 
nan

>  <Peripheral>  (5) 
nan

>  <Num_H_Atoms_ProtBoundConf>  (5) 
nan

>  <Num_Resolved_Atoms>  (5) 
nan

>  <Num_Not_Resolved_Atoms>  (5) 
nan

$$$$
CHEMBL3102954
     RDKit          3D

  0  0  0  0  0  0  0  0  0  0999 V3000
M  V30 BEGIN CTAB
M  V30 COUNTS 39 42 0 0 0
M  V30 BEGIN ATOM
M  V30 1 O 0.304261 -5.225513 0.146910 0
M  V30 2 C 1.368709 -4.370451 0.459305 0
M  V30 3 C 2.460967 -4.897446 1.092654 0
M  V30 4 C 3.546453 -4.118992 1.432046 0
M  V30 5 C 3.550059 -2.776637 1.134773 0
M  V30 6 O 4.516016 -1.812801 1.376414 0
M  V30 7 C 2.448213 -2.226780 0.491804 0
M  V30 8 C 2.243915 -0.832149 0.084667 0
M  V30 9 C 3.232561 -0.087966 -0.550618 0
M  V30 10 N 2.999415 1.188895 -0.905812 0
M  V30 11 C 1.810340 1.767330 -0.654093 0
M  V30 12 N 1.334377 3.011954 -0.905606 0
M  V30 13 C 0.051588 3.095417 -0.446087 0
M  V30 14 C -0.338587 1.898141 0.118824 0
M  V30 15 C -1.624177 1.565891 0.723973 0
M  V30 16 C -2.821906 1.923406 0.102311 0
M  V30 17 C -4.052694 1.605494 0.681373 0
M  V30 18 C -4.058714 0.923393 1.893645 0
M  V30 19 O -5.254438 0.564650 2.544867 0
M  V30 20 C -2.871557 0.557935 2.529543 0
M  V30 21 O -2.928205 -0.131478 3.755385 0
M  V30 22 C -1.677552 0.891403 1.923261 0
M  V30 23 C 0.777981 1.099651 -0.028763 0
M  V30 24 C 1.037574 -0.207394 0.326855 0
M  V30 25 C 1.355546 -3.029052 0.154325 0
M  V30 26 H -0.619611 -4.789560 0.286661 0
M  V30 27 H 2.545989 -5.930930 1.363001 0
M  V30 28 H 4.461212 -4.440259 1.935728 0
M  V30 29 H 4.551964 -1.328789 2.265470 0
M  V30 30 H 4.197157 -0.576932 -0.747958 0
M  V30 31 H 1.912466 3.740658 -1.379150 0
M  V30 32 H -0.558561 4.003850 -0.529596 0
M  V30 33 H -2.780512 2.453398 -0.840041 0
M  V30 34 H -4.981637 1.872334 0.217777 0
M  V30 35 H -5.401643 -0.428715 2.753486 0
M  V30 36 H -2.093892 -0.688072 3.998757 0
M  V30 37 H -0.794398 0.580899 2.464981 0
M  V30 38 H 0.280117 -0.798040 0.820698 0
M  V30 39 H 0.458168 -2.687552 -0.345655 0
M  V30 END ATOM
M  V30 BEGIN BOND
M  V30 1 1 1 2
M  V30 2 2 2 3
M  V30 3 1 3 4
M  V30 4 2 4 5
M  V30 5 1 5 6
M  V30 6 1 5 7
M  V30 7 1 7 8
M  V30 8 2 8 9
M  V30 9 1 9 10
M  V30 10 2 10 11
M  V30 11 1 11 12
M  V30 12 1 12 13
M  V30 13 2 13 14
M  V30 14 1 14 15
M  V30 15 2 15 16
M  V30 16 1 16 17
M  V30 17 2 17 18
M  V30 18 1 18 19
M  V30 19 1 18 20
M  V30 20 1 20 21
M  V30 21 2 20 22
M  V30 22 1 14 23
M  V30 23 2 23 24
M  V30 24 2 7 25
M  V30 25 1 25 2
M  V30 26 1 24 8
M  V30 27 1 23 11
M  V30 28 1 22 15
M  V30 29 1 1 26
M  V30 30 1 3 27
M  V30 31 1 4 28
M  V30 32 1 6 29
M  V30 33 1 9 30
M  V30 34 1 12 31
M  V30 35 1 13 32
M  V30 36 1 16 33
M  V30 37 1 17 34
M  V30 38 1 19 35
M  V30 39 1 21 36
M  V30 40 1 22 37
M  V30 41 1 24 38
M  V30 42 1 25 39
M  V30 END BOND
M  V30 END CTAB
M  END
>  <Dataset>  (6) 
ChEMBL_Kinases

>  <Ligand_Instance>  (6) 
nan

>  <PDB_ID>  (6) 
nan

>  <Standardized_SMILES>  (6) 
Oc1ccc(O)c(-c2cnc3[nH]cc(-c4ccc(O)c(O)c4)c3c2)c1

>  <Name>  (6) 
nan

>  <Pocket>  (6) 
nan

>  <ATP_Site>  (6) 
nan

>  <Peripheral>  (6) 
nan

>  <Num_H_Atoms_ProtBoundConf>  (6) 
nan

>  <Num_Resolved_Atoms>  (6) 
nan

>  <Num_Not_Resolved_Atoms>  (6) 
nan

$$$$
CHEMBL3102953
     RDKit          3D

  0  0  0  0  0  0  0  0  0  0999 V3000
M  V30 BEGIN CTAB
M  V30 COUNTS 39 42 0 0 0
M  V30 BEGIN ATOM
M  V30 1 O 0.866551 -5.400130 4.702406 0
M  V30 2 C 1.120240 -4.547613 3.634709 0
M  V30 3 C 1.439969 -5.039718 2.386178 0
M  V30 4 C 1.678627 -4.125534 1.374793 0
M  V30 5 C 1.605648 -2.750934 1.581541 0
M  V30 6 C 1.865843 -1.822144 0.483207 0
M  V30 7 C 2.931673 -1.947275 -0.403730 0
M  V30 8 N 3.133330 -1.066885 -1.402525 0
M  V30 9 C 2.321885 -0.004788 -1.615951 0
M  V30 10 N 2.266735 1.008627 -2.495574 0
M  V30 11 C 1.210327 1.798415 -2.228411 0
M  V30 12 C 0.524610 1.292280 -1.118591 0
M  V30 13 C -0.678555 1.879389 -0.527259 0
M  V30 14 C -0.800938 3.239500 -0.294197 0
M  V30 15 C -1.954606 3.787466 0.270794 0
M  V30 16 C -2.987204 2.917631 0.595615 0
M  V30 17 O -4.174276 3.395577 1.165549 0
M  V30 18 C -2.895247 1.549216 0.374428 0
M  V30 19 O -3.982709 0.730536 0.729461 0
M  V30 20 C -1.724269 1.043797 -0.192292 0
M  V30 21 C 1.246849 0.167500 -0.763707 0
M  V30 22 C 1.035883 -0.732694 0.262043 0
M  V30 23 C 1.284787 -2.256072 2.834432 0
M  V30 24 O 1.196767 -0.894454 3.102144 0
M  V30 25 C 1.043687 -3.182562 3.856351 0
M  V30 26 H -0.107927 -5.469536 5.012215 0
M  V30 27 H 1.505165 -6.099010 2.191033 0
M  V30 28 H 1.936184 -4.433355 0.363545 0
M  V30 29 H 3.587679 -2.799350 -0.237236 0
M  V30 30 H 2.963469 1.152177 -3.282479 0
M  V30 31 H 0.980260 2.684646 -2.826685 0
M  V30 32 H 0.036695 3.898722 -0.563864 0
M  V30 33 H -2.062423 4.842242 0.457028 0
M  V30 34 H -4.701556 2.822821 1.832684 0
M  V30 35 H -3.730165 -0.238561 0.971787 0
M  V30 36 H -1.733085 -0.023194 -0.330462 0
M  V30 37 H 0.211243 -0.626694 0.939893 0
M  V30 38 H 1.333087 -0.604496 4.071576 0
M  V30 39 H 0.792730 -2.786346 4.835666 0
M  V30 END ATOM
M  V30 BEGIN BOND
M  V30 1 1 1 2
M  V30 2 2 2 3
M  V30 3 1 3 4
M  V30 4 2 4 5
M  V30 5 1 5 6
M  V30 6 2 6 7
M  V30 7 1 7 8
M  V30 8 2 8 9
M  V30 9 1 9 10
M  V30 10 1 10 11
M  V30 11 2 11 12
M  V30 12 1 12 13
M  V30 13 2 13 14
M  V30 14 1 14 15
M  V30 15 2 15 16
M  V30 16 1 16 17
M  V30 17 1 16 18
M  V30 18 1 18 19
M  V30 19 2 18 20
M  V30 20 1 12 21
M  V30 21 2 21 22
M  V30 22 1 5 23
M  V30 23 1 23 24
M  V30 24 2 23 25
M  V30 25 1 25 2
M  V30 26 1 22 6
M  V30 27 1 21 9
M  V30 28 1 20 13
M  V30 29 1 1 26
M  V30 30 1 3 27
M  V30 31 1 4 28
M  V30 32 1 7 29
M  V30 33 1 10 30
M  V30 34 1 11 31
M  V30 35 1 14 32
M  V30 36 1 15 33
M  V30 37 1 17 34
M  V30 38 1 19 35
M  V30 39 1 20 36
M  V30 40 1 22 37
M  V30 41 1 24 38
M  V30 42 1 25 39
M  V30 END BOND
M  V30 END CTAB
M  END
>  <Dataset>  (7) 
ChEMBL_Kinases

>  <Ligand_Instance>  (7) 
nan

>  <PDB_ID>  (7) 
nan

>  <Standardized_SMILES>  (7) 
Oc1ccc(-c2cnc3[nH]cc(-c4ccc(O)c(O)c4)c3c2)c(O)c1

>  <Name>  (7) 
nan

>  <Pocket>  (7) 
nan

>  <ATP_Site>  (7) 
nan

>  <Peripheral>  (7) 
nan

>  <Num_H_Atoms_ProtBoundConf>  (7) 
nan

>  <Num_Resolved_Atoms>  (7) 
nan

>  <Num_Not_Resolved_Atoms>  (7) 
nan

$$$$
CHEMBL3102952
     RDKit          3D

  0  0  0  0  0  0  0  0  0  0999 V3000
M  V30 BEGIN CTAB
M  V30 COUNTS 38 41 0 0 0
M  V30 BEGIN ATOM
M  V30 1 O -1.037658 -5.593541 3.280342 0
M  V30 2 C -0.148170 -4.590178 2.927815 0
M  V30 3 C -0.213544 -4.015119 1.662346 0
M  V30 4 C 0.635477 -2.999522 1.210914 0
M  V30 5 C 1.602576 -2.547015 2.098611 0
M  V30 6 C 2.478437 -1.487170 1.614257 0
M  V30 7 C 3.868034 -1.413720 1.738364 0
M  V30 8 N 4.312362 -0.282398 1.162117 0
M  V30 9 C 3.286321 0.420521 0.649450 0
M  V30 10 N 3.166606 1.602715 -0.022009 0
M  V30 11 C 1.970654 2.075290 -0.426547 0
M  V30 12 C 0.797650 1.371821 -0.174590 0
M  V30 13 C -0.528510 1.841408 -0.593218 0
M  V30 14 C -0.846721 3.182385 -0.667983 0
M  V30 15 C -2.127310 3.488873 -1.076122 0
M  V30 16 C -3.069421 2.535482 -1.401210 0
M  V30 17 O -4.351409 2.905409 -1.808679 0
M  V30 18 C -2.728121 1.192350 -1.318995 0
M  V30 19 O -3.704062 0.251537 -1.654857 0
M  V30 20 C -1.447142 0.851064 -0.911440 0
M  V30 21 C 0.929344 0.175763 0.506029 0
M  V30 22 C 2.147915 -0.316792 0.924291 0
M  V30 23 C 1.696950 -3.093767 3.361196 0
M  V30 24 C 0.838223 -4.104540 3.785063 0
M  V30 25 H -2.013907 -5.569891 2.968500 0
M  V30 26 H -0.997781 -4.410450 0.998986 0
M  V30 27 H 0.453127 -2.663089 0.201898 0
M  V30 28 H 4.524455 -2.148159 2.224721 0
M  V30 29 H 5.305478 0.037495 1.102044 0
M  V30 30 H 1.907601 3.015807 -0.956984 0
M  V30 31 H -0.090160 3.913472 -0.407943 0
M  V30 32 H -2.401923 4.546767 -1.142773 0
M  V30 33 H -5.104043 2.421188 -1.336798 0
M  V30 34 H -3.708970 -0.576142 -1.041427 0
M  V30 35 H -1.298475 -0.211131 -0.885866 0
M  V30 36 H 0.012918 -0.365360 0.699358 0
M  V30 37 H 2.454074 -2.725216 4.026578 0
M  V30 38 H 0.903843 -4.537280 4.766740 0
M  V30 END ATOM
M  V30 BEGIN BOND
M  V30 1 1 1 2
M  V30 2 2 2 3
M  V30 3 1 3 4
M  V30 4 2 4 5
M  V30 5 1 5 6
M  V30 6 2 6 7
M  V30 7 1 7 8
M  V30 8 1 8 9
M  V30 9 2 9 10
M  V30 10 1 10 11
M  V30 11 2 11 12
M  V30 12 1 12 13
M  V30 13 2 13 14
M  V30 14 1 14 15
M  V30 15 2 15 16
M  V30 16 1 16 17
M  V30 17 1 16 18
M  V30 18 1 18 19
M  V30 19 2 18 20
M  V30 20 1 12 21
M  V30 21 2 21 22
M  V30 22 1 5 23
M  V30 23 2 23 24
M  V30 24 1 24 2
M  V30 25 1 22 6
M  V30 26 1 22 9
M  V30 27 1 20 13
M  V30 28 1 1 25
M  V30 29 1 3 26
M  V30 30 1 4 27
M  V30 31 1 7 28
M  V30 32 1 8 29
M  V30 33 1 11 30
M  V30 34 1 14 31
M  V30 35 1 15 32
M  V30 36 1 17 33
M  V30 37 1 19 34
M  V30 38 1 20 35
M  V30 39 1 21 36
M  V30 40 1 23 37
M  V30 41 1 24 38
M  V30 END BOND
M  V30 END CTAB
M  END
>  <Dataset>  (8) 
ChEMBL_Kinases

>  <Ligand_Instance>  (8) 
nan

>  <PDB_ID>  (8) 
nan

>  <Standardized_SMILES>  (8) 
Oc1ccc(-c2c[nH]c3ncc(-c4ccc(O)c(O)c4)cc23)cc1

>  <Name>  (8) 
nan

>  <Pocket>  (8) 
nan

>  <ATP_Site>  (8) 
nan

>  <Peripheral>  (8) 
nan

>  <Num_H_Atoms_ProtBoundConf>  (8) 
nan

>  <Num_Resolved_Atoms>  (8) 
nan

>  <Num_Not_Resolved_Atoms>  (8) 
nan

$$$$
CHEMBL3102951
     RDKit          3D

  0  0  0  0  0  0  0  0  0  0999 V3000
M  V30 BEGIN CTAB
M  V30 COUNTS 38 41 0 0 0
M  V30 BEGIN ATOM
M  V30 1 O -0.722931 -5.698242 3.274773 0
M  V30 2 C 0.074947 -4.647324 2.827468 0
M  V30 3 C -0.245394 -4.138596 1.583574 0
M  V30 4 C 0.531308 -3.093908 1.114995 0
M  V30 5 C 1.578780 -2.592540 1.871148 0
M  V30 6 C 2.423424 -1.492692 1.417029 0
M  V30 7 C 3.807584 -1.391145 1.473104 0
M  V30 8 N 4.238564 -0.225176 0.956807 0
M  V30 9 C 3.158956 0.485039 0.541616 0
M  V30 10 N 2.978977 1.690801 -0.039245 0
M  V30 11 C 1.765476 2.179281 -0.360143 0
M  V30 12 C 0.614288 1.454868 -0.105652 0
M  V30 13 C -0.747027 1.891913 -0.413434 0
M  V30 14 C -1.235809 3.155993 -0.151581 0
M  V30 15 C -2.545953 3.502507 -0.472686 0
M  V30 16 C -3.347936 2.545703 -1.062369 0
M  V30 17 O -4.672275 2.902590 -1.384728 0
M  V30 18 C -2.868301 1.274672 -1.329616 0
M  V30 19 C -1.549562 0.935788 -1.003071 0
M  V30 20 O -1.220485 -0.368629 -1.331835 0
M  V30 21 C 0.821027 0.219706 0.491051 0
M  V30 22 C 2.056546 -0.297723 0.827220 0
M  V30 23 C 1.873190 -3.122923 3.110462 0
M  V30 24 C 1.121439 -4.167889 3.615742 0
M  V30 25 H -1.736408 -5.674645 3.236306 0
M  V30 26 H -1.070819 -4.545799 1.006237 0
M  V30 27 H 0.312509 -2.672401 0.152148 0
M  V30 28 H 4.449502 -2.176460 1.890791 0
M  V30 29 H 5.238513 0.085593 0.885609 0
M  V30 30 H 1.632576 3.151725 -0.827690 0
M  V30 31 H -0.564621 3.876311 0.314881 0
M  V30 32 H -2.930700 4.492697 -0.268181 0
M  V30 33 H -5.368323 2.414515 -0.827787 0
M  V30 34 H -3.586614 0.601583 -1.795949 0
M  V30 35 H -0.685164 -0.592943 -2.159265 0
M  V30 36 H -0.065719 -0.366770 0.700495 0
M  V30 37 H 2.686609 -2.770938 3.754793 0
M  V30 38 H 1.274547 -4.645677 4.569162 0
M  V30 END ATOM
M  V30 BEGIN BOND
M  V30 1 1 1 2
M  V30 2 2 2 3
M  V30 3 1 3 4
M  V30 4 2 4 5
M  V30 5 1 5 6
M  V30 6 2 6 7
M  V30 7 1 7 8
M  V30 8 1 8 9
M  V30 9 2 9 10
M  V30 10 1 10 11
M  V30 11 2 11 12
M  V30 12 1 12 13
M  V30 13 2 13 14
M  V30 14 1 14 15
M  V30 15 2 15 16
M  V30 16 1 16 17
M  V30 17 1 16 18
M  V30 18 2 18 19
M  V30 19 1 19 20
M  V30 20 1 12 21
M  V30 21 2 21 22
M  V30 22 1 5 23
M  V30 23 2 23 24
M  V30 24 1 24 2
M  V30 25 1 22 6
M  V30 26 1 22 9
M  V30 27 1 19 13
M  V30 28 1 1 25
M  V30 29 1 3 26
M  V30 30 1 4 27
M  V30 31 1 7 28
M  V30 32 1 8 29
M  V30 33 1 11 30
M  V30 34 1 14 31
M  V30 35 1 15 32
M  V30 36 1 17 33
M  V30 37 1 18 34
M  V30 38 1 20 35
M  V30 39 1 21 36
M  V30 40 1 23 37
M  V30 41 1 24 38
M  V30 END BOND
M  V30 END CTAB
M  END
>  <Dataset>  (9) 
ChEMBL_Kinases

>  <Ligand_Instance>  (9) 
nan

>  <PDB_ID>  (9) 
nan

>  <Standardized_SMILES>  (9) 
Oc1ccc(-c2c[nH]c3ncc(-c4ccc(O)cc4O)cc23)cc1

>  <Name>  (9) 
nan

>  <Pocket>  (9) 
nan

>  <ATP_Site>  (9) 
nan

>  <Peripheral>  (9) 
nan

>  <Num_H_Atoms_ProtBoundConf>  (9) 
nan

>  <Num_Resolved_Atoms>  (9) 
nan

>  <Num_Not_Resolved_Atoms>  (9) 
nan

$$$$
CHEMBL3102947
     RDKit          3D

  0  0  0  0  0  0  0  0  0  0999 V3000
M  V30 BEGIN CTAB
M  V30 COUNTS 51 54 0 0 0
M  V30 BEGIN ATOM
M  V30 1 C -0.894105 1.018096 6.335907 0
M  V30 2 O -0.608624 1.021209 4.966132 0
M  V30 3 C 0.630533 0.822703 4.416534 0
M  V30 4 C 1.763266 0.591568 5.178143 0
M  V30 5 C 3.015849 0.390729 4.627430 0
M  V30 6 C 3.140475 0.422969 3.243980 0
M  V30 7 O 4.331152 0.237916 2.571476 0
M  V30 8 C 5.560241 -0.005143 3.201123 0
M  V30 9 C 2.019153 0.652846 2.462804 0
M  V30 10 C 2.071746 0.701576 0.986271 0
M  V30 11 C 3.045494 1.386630 0.290203 0
M  V30 12 N 3.066758 1.412482 -1.057577 0
M  V30 13 C 2.114695 0.754002 -1.761472 0
M  V30 14 N 1.858884 0.586230 -3.072140 0
M  V30 15 C 0.763184 -0.176723 -3.255099 0
M  V30 16 C 0.262478 -0.536313 -1.998685 0
M  V30 17 C -0.924595 -1.366014 -1.816871 0
M  V30 18 C -0.894958 -2.399841 -0.886154 0
M  V30 19 C -1.980673 -3.224097 -0.661890 0
M  V30 20 C -3.133671 -3.006557 -1.392987 0
M  V30 21 O -4.258569 -3.798032 -1.216100 0
M  V30 22 C -4.256926 -4.869988 -0.264608 0
M  V30 23 C -3.203478 -1.992216 -2.325167 0
M  V30 24 O -4.372672 -1.801676 -3.039872 0
M  V30 25 C -4.509019 -0.786688 -4.003718 0
M  V30 26 C -2.099596 -1.163172 -2.545198 0
M  V30 27 C 1.124582 0.057801 -1.097524 0
M  V30 28 C 1.098472 0.028443 0.265443 0
M  V30 29 C 0.763221 0.853090 3.043908 0
M  V30 30 H -0.803755 2.065375 6.694730 0
M  V30 31 H -1.960891 0.718680 6.529860 0
M  V30 32 H -0.209562 0.389396 6.928595 0
M  V30 33 H 1.706779 0.559472 6.249804 0
M  V30 34 H 3.906963 0.209038 5.222372 0
M  V30 35 H 6.255468 -0.588135 2.553474 0
M  V30 36 H 6.060244 0.970999 3.382729 0
M  V30 37 H 5.454102 -0.576623 4.148813 0
M  V30 38 H 3.800400 1.908735 0.850591 0
M  V30 39 H 2.481458 1.026441 -3.789712 0
M  V30 40 H 0.406218 -0.417744 -4.237831 0
M  V30 41 H -0.011856 -2.618395 -0.280140 0
M  V30 42 H -2.001594 -4.031718 0.044612 0
M  V30 43 H -3.518549 -5.651882 -0.501925 0
M  V30 44 H -3.915147 -4.402002 0.703486 0
M  V30 45 H -5.268515 -5.227468 -0.078458 0
M  V30 46 H -4.111361 -1.079029 -4.997549 0
M  V30 47 H -5.603887 -0.541546 -4.109740 0
M  V30 48 H -4.042801 0.174799 -3.715538 0
M  V30 49 H -2.120070 -0.358569 -3.268321 0
M  V30 50 H 0.347856 -0.499610 0.801309 0
M  V30 51 H -0.097096 1.031250 2.399205 0
M  V30 END ATOM
M  V30 BEGIN BOND
M  V30 1 1 1 2
M  V30 2 1 2 3
M  V30 3 2 3 4
M  V30 4 1 4 5
M  V30 5 2 5 6
M  V30 6 1 6 7
M  V30 7 1 7 8
M  V30 8 1 6 9
M  V30 9 1 9 10
M  V30 10 2 10 11
M  V30 11 1 11 12
M  V30 12 2 12 13
M  V30 13 1 13 14
M  V30 14 1 14 15
M  V30 15 2 15 16
M  V30 16 1 16 17
M  V30 17 2 17 18
M  V30 18 1 18 19
M  V30 19 2 19 20
M  V30 20 1 20 21
M  V30 21 1 21 22
M  V30 22 1 20 23
M  V30 23 1 23 24
M  V30 24 1 24 25
M  V30 25 2 23 26
M  V30 26 1 16 27
M  V30 27 2 27 28
M  V30 28 2 9 29
M  V30 29 1 29 3
M  V30 30 1 28 10
M  V30 31 1 27 13
M  V30 32 1 26 17
M  V30 33 1 1 30
M  V30 34 1 1 31
M  V30 35 1 1 32
M  V30 36 1 4 33
M  V30 37 1 5 34
M  V30 38 1 8 35
M  V30 39 1 8 36
M  V30 40 1 8 37
M  V30 41 1 11 38
M  V30 42 1 14 39
M  V30 43 1 15 40
M  V30 44 1 18 41
M  V30 45 1 19 42
M  V30 46 1 22 43
M  V30 47 1 22 44
M  V30 48 1 22 45
M  V30 49 1 25 46
M  V30 50 1 25 47
M  V30 51 1 25 48
M  V30 52 1 26 49
M  V30 53 1 28 50
M  V30 54 1 29 51
M  V30 END BOND
M  V30 END CTAB
M  END
>  <Dataset>  (10) 
ChEMBL_Kinases

>  <Ligand_Instance>  (10) 
nan

>  <PDB_ID>  (10) 
nan

>  <Standardized_SMILES>  (10) 
COc1ccc(OC)c(-c2cnc3[nH]cc(-c4ccc(OC)c(OC)c4)c3c2)c1

>  <Name>  (10) 
nan

>  <Pocket>  (10) 
nan

>  <ATP_Site>  (10) 
nan

>  <Peripheral>  (10) 
nan

>  <Num_H_Atoms_ProtBoundConf>  (10) 
nan

>  <Num_Resolved_Atoms>  (10) 
nan

>  <Num_Not_Resolved_Atoms>  (10) 
nan

$$$$
CHEMBL3102946
     RDKit          3D

  0  0  0  0  0  0  0  0  0  0999 V3000
M  V30 BEGIN CTAB
M  V30 COUNTS 51 54 0 0 0
M  V30 BEGIN ATOM
M  V30 1 C 0.230039 -7.063689 2.762255 0
M  V30 2 O 0.088735 -6.829463 1.388860 0
M  V30 3 C 0.405078 -5.575684 0.881263 0
M  V30 4 C 0.859417 -4.532458 1.678254 0
M  V30 5 C 1.138617 -3.336586 1.050357 0
M  V30 6 C 0.980645 -3.164202 -0.304765 0
M  V30 7 C 1.315174 -1.845979 -0.826017 0
M  V30 8 C 2.068695 -1.702768 -1.979209 0
M  V30 9 N 2.421095 -0.507201 -2.526891 0
M  V30 10 C 1.996425 0.602402 -1.885798 0
M  V30 11 N 2.153702 1.915059 -2.136016 0
M  V30 12 C 1.538142 2.669449 -1.200426 0
M  V30 13 C 0.936410 1.807567 -0.273984 0
M  V30 14 C 0.166254 2.218521 0.900543 0
M  V30 15 C 0.361821 1.621987 2.131737 0
M  V30 16 C -0.376969 2.027050 3.224763 0
M  V30 17 C -1.324554 3.047370 3.070516 0
M  V30 18 O -2.060931 3.444686 4.179936 0
M  V30 19 C -1.800357 2.779268 5.418230 0
M  V30 20 C -1.524002 3.646967 1.842159 0
M  V30 21 O -2.485721 4.648179 1.792285 0
M  V30 22 C -2.848031 5.381984 0.665327 0
M  V30 23 C -0.767401 3.225581 0.743163 0
M  V30 24 C 1.242199 0.538206 -0.732116 0
M  V30 25 C 0.897837 -0.690073 -0.196482 0
M  V30 26 C 0.526475 -4.211378 -1.092715 0
M  V30 27 O 0.416983 -3.892764 -2.433114 0
M  V30 28 C -0.031220 -4.850185 -3.363844 0
M  V30 29 C 0.243568 -5.412132 -0.478637 0
M  V30 30 H 1.272166 -6.783859 3.093312 0
M  V30 31 H -0.437492 -6.441571 3.394166 0
M  V30 32 H 0.003292 -8.120338 3.016249 0
M  V30 33 H 0.962258 -4.731185 2.734719 0
M  V30 34 H 1.490537 -2.537071 1.684888 0
M  V30 35 H 2.433738 -2.565987 -2.530956 0
M  V30 36 H 2.693424 2.265919 -2.963851 0
M  V30 37 H 1.516739 3.755629 -1.175768 0
M  V30 38 H 1.088033 0.833366 2.270654 0
M  V30 39 H -0.209314 1.548153 4.179287 0
M  V30 40 H -0.734669 2.885578 5.699809 0
M  V30 41 H -2.495070 3.135971 6.205085 0
M  V30 42 H -1.951073 1.676005 5.242332 0
M  V30 43 H -3.883324 5.770443 0.782308 0
M  V30 44 H -2.874526 4.670672 -0.198372 0
M  V30 45 H -2.117515 6.162303 0.380927 0
M  V30 46 H -0.975026 3.739743 -0.193679 0
M  V30 47 H 0.320174 -0.803052 0.687606 0
M  V30 48 H 0.408961 -5.834050 -3.113487 0
M  V30 49 H -1.134873 -4.940744 -3.218025 0
M  V30 50 H 0.208316 -4.589245 -4.401744 0
M  V30 51 H -0.105179 -6.183100 -1.150435 0
M  V30 END ATOM
M  V30 BEGIN BOND
M  V30 1 1 1 2
M  V30 2 1 2 3
M  V30 3 2 3 4
M  V30 4 1 4 5
M  V30 5 2 5 6
M  V30 6 1 6 7
M  V30 7 2 7 8
M  V30 8 1 8 9
M  V30 9 2 9 10
M  V30 10 1 10 11
M  V30 11 1 11 12
M  V30 12 2 12 13
M  V30 13 1 13 14
M  V30 14 2 14 15
M  V30 15 1 15 16
M  V30 16 2 16 17
M  V30 17 1 17 18
M  V30 18 1 18 19
M  V30 19 1 17 20
M  V30 20 1 20 21
M  V30 21 1 21 22
M  V30 22 2 20 23
M  V30 23 1 13 24
M  V30 24 2 24 25
M  V30 25 1 6 26
M  V30 26 1 26 27
M  V30 27 1 27 28
M  V30 28 2 26 29
M  V30 29 1 29 3
M  V30 30 1 25 7
M  V30 31 1 24 10
M  V30 32 1 23 14
M  V30 33 1 1 30
M  V30 34 1 1 31
M  V30 35 1 1 32
M  V30 36 1 4 33
M  V30 37 1 5 34
M  V30 38 1 8 35
M  V30 39 1 11 36
M  V30 40 1 12 37
M  V30 41 1 15 38
M  V30 42 1 16 39
M  V30 43 1 19 40
M  V30 44 1 19 41
M  V30 45 1 19 42
M  V30 46 1 22 43
M  V30 47 1 22 44
M  V30 48 1 22 45
M  V30 49 1 23 46
M  V30 50 1 25 47
M  V30 51 1 28 48
M  V30 52 1 28 49
M  V30 53 1 28 50
M  V30 54 1 29 51
M  V30 END BOND
M  V30 END CTAB
M  END
>  <Dataset>  (11) 
ChEMBL_Kinases

>  <Ligand_Instance>  (11) 
nan

>  <PDB_ID>  (11) 
nan

>  <Standardized_SMILES>  (11) 
COc1ccc(-c2cnc3[nH]cc(-c4ccc(OC)c(OC)c4)c3c2)c(OC)c1

>  <Name>  (11) 
nan

>  <Pocket>  (11) 
nan

>  <ATP_Site>  (11) 
nan

>  <Peripheral>  (11) 
nan

>  <Num_H_Atoms_ProtBoundConf>  (11) 
nan

>  <Num_Resolved_Atoms>  (11) 
nan

>  <Num_Not_Resolved_Atoms>  (11) 
nan

$$$$
CHEMBL3102945
     RDKit          3D

  0  0  0  0  0  0  0  0  0  0999 V3000
M  V30 BEGIN CTAB
M  V30 COUNTS 47 50 0 0 0
M  V30 BEGIN ATOM
M  V30 1 C -2.905716 -6.508618 -0.220596 0
M  V30 2 O -1.927982 -6.168335 -1.153146 0
M  V30 3 C -1.456799 -4.894555 -1.418095 0
M  V30 4 C -0.468765 -4.793398 -2.400810 0
M  V30 5 C 0.044431 -3.539176 -2.711552 0
M  V30 6 C -0.388080 -2.400121 -2.084657 0
M  V30 7 C 0.124791 -1.065139 -2.382834 0
M  V30 8 C 0.300238 -0.608241 -3.678222 0
M  V30 9 N 0.785813 0.659290 -3.597187 0
M  V30 10 C 0.930668 1.038343 -2.316412 0
M  V30 11 N 1.360958 2.160990 -1.705814 0
M  V30 12 C 1.398502 2.258860 -0.344470 0
M  V30 13 C 0.978489 1.162974 0.401515 0
M  V30 14 C 1.018118 1.265091 1.870928 0
M  V30 15 C 1.246909 0.148339 2.650209 0
M  V30 16 C 1.267303 0.341400 4.018944 0
M  V30 17 C 1.068325 1.590599 4.574622 0
M  V30 18 O 1.099379 1.726944 5.957757 0
M  V30 19 C 1.336343 0.575050 6.781728 0
M  V30 20 C 0.839502 2.707195 3.794359 0
M  V30 21 O 0.651162 3.917788 4.445144 0
M  V30 22 C 0.411067 5.116872 3.777191 0
M  V30 23 C 0.818860 2.514856 2.423584 0
M  V30 24 C 0.527635 -0.013282 -0.168283 0
M  V30 25 C 0.519939 -0.033270 -1.549619 0
M  V30 26 C -1.364724 -2.505917 -1.114238 0
M  V30 27 C -1.896281 -3.737628 -0.781210 0
M  V30 28 H -3.530169 -7.325475 -0.670884 0
M  V30 29 H -2.492636 -6.960778 0.711093 0
M  V30 30 H -3.620160 -5.705463 0.037534 0
M  V30 31 H -0.076150 -5.668533 -2.943150 0
M  V30 32 H 0.817428 -3.403535 -3.471021 0
M  V30 33 H 0.100298 -1.130855 -4.623827 0
M  V30 34 H 1.027199 1.288557 -4.417409 0
M  V30 35 H 1.752112 3.180856 0.098232 0
M  V30 36 H 1.396138 -0.805063 2.162573 0
M  V30 37 H 1.444239 -0.511660 4.666654 0
M  V30 38 H 1.299474 0.864764 7.847096 0
M  V30 39 H 2.227320 0.019026 6.489812 0
M  V30 40 H 0.456838 -0.106419 6.600366 0
M  V30 41 H 0.822128 5.956909 4.389448 0
M  V30 42 H -0.678318 5.338343 3.659214 0
M  V30 43 H 0.941011 5.130599 2.816835 0
M  V30 44 H 0.640161 3.384938 1.809485 0
M  V30 45 H 0.211014 -0.840047 0.453360 0
M  V30 46 H -1.793863 -1.694855 -0.545813 0
M  V30 47 H -2.674065 -3.872492 -0.016834 0
M  V30 END ATOM
M  V30 BEGIN BOND
M  V30 1 1 1 2
M  V30 2 1 2 3
M  V30 3 2 3 4
M  V30 4 1 4 5
M  V30 5 2 5 6
M  V30 6 1 6 7
M  V30 7 2 7 8
M  V30 8 1 8 9
M  V30 9 1 9 10
M  V30 10 2 10 11
M  V30 11 1 11 12
M  V30 12 2 12 13
M  V30 13 1 13 14
M  V30 14 2 14 15
M  V30 15 1 15 16
M  V30 16 2 16 17
M  V30 17 1 17 18
M  V30 18 1 18 19
M  V30 19 1 17 20
M  V30 20 1 20 21
M  V30 21 1 21 22
M  V30 22 2 20 23
M  V30 23 1 13 24
M  V30 24 2 24 25
M  V30 25 1 6 26
M  V30 26 2 26 27
M  V30 27 1 27 3
M  V30 28 1 25 7
M  V30 29 1 25 10
M  V30 30 1 23 14
M  V30 31 1 1 28
M  V30 32 1 1 29
M  V30 33 1 1 30
M  V30 34 1 4 31
M  V30 35 1 5 32
M  V30 36 1 8 33
M  V30 37 1 9 34
M  V30 38 1 12 35
M  V30 39 1 15 36
M  V30 40 1 16 37
M  V30 41 1 19 38
M  V30 42 1 19 39
M  V30 43 1 19 40
M  V30 44 1 22 41
M  V30 45 1 22 42
M  V30 46 1 22 43
M  V30 47 1 23 44
M  V30 48 1 24 45
M  V30 49 1 26 46
M  V30 50 1 27 47
M  V30 END BOND
M  V30 END CTAB
M  END
>  <Dataset>  (12) 
ChEMBL_Kinases

>  <Ligand_Instance>  (12) 
nan

>  <PDB_ID>  (12) 
nan

>  <Standardized_SMILES>  (12) 
COc1ccc(-c2c[nH]c3ncc(-c4ccc(OC)c(OC)c4)cc23)cc1

>  <Name>  (12) 
nan

>  <Pocket>  (12) 
nan

>  <ATP_Site>  (12) 
nan

>  <Peripheral>  (12) 
nan

>  <Num_H_Atoms_ProtBoundConf>  (12) 
nan

>  <Num_Resolved_Atoms>  (12) 
nan

>  <Num_Not_Resolved_Atoms>  (12) 
nan

$$$$
CHEMBL3102944
     RDKit          3D

  0  0  0  0  0  0  0  0  0  0999 V3000
M  V30 BEGIN CTAB
M  V30 COUNTS 47 50 0 0 0
M  V30 BEGIN ATOM
M  V30 1 C -1.735428 -6.527694 1.139063 0
M  V30 2 O -2.052153 -5.889772 -0.084827 0
M  V30 3 C -1.388447 -4.797685 -0.572405 0
M  V30 4 C -0.338085 -4.237082 0.123389 0
M  V30 5 C 0.320820 -3.123527 -0.397570 0
M  V30 6 C -0.082281 -2.588674 -1.607101 0
M  V30 7 C 0.635111 -1.422669 -2.116071 0
M  V30 8 C 1.043945 -1.304685 -3.435677 0
M  V30 9 N 1.678840 -0.130937 -3.618938 0
M  V30 10 C 1.704507 0.539403 -2.452916 0
M  V30 11 N 2.208406 1.742280 -2.087219 0
M  V30 12 C 2.063354 2.139836 -0.791196 0
M  V30 13 C 1.421432 1.362588 0.165509 0
M  V30 14 C 1.311237 1.874285 1.545169 0
M  V30 15 C 2.425137 2.442796 2.129278 0
M  V30 16 C 2.323772 2.929237 3.438296 0
M  V30 17 C 1.090253 2.812489 4.089434 0
M  V30 18 O 1.107505 3.324227 5.371453 0
M  V30 19 C 0.038842 3.354059 6.267075 0
M  V30 20 C 0.000624 2.236126 3.466823 0
M  V30 21 C 0.089260 1.753536 2.177324 0
M  V30 22 O -0.998954 1.171909 1.540299 0
M  V30 23 C -2.252158 1.027478 2.136523 0
M  V30 24 C 0.900367 0.132392 -0.186910 0
M  V30 25 C 1.055074 -0.256287 -1.502622 0
M  V30 26 C -1.150191 -3.169473 -2.300905 0
M  V30 27 C -1.807763 -4.278171 -1.784271 0
M  V30 28 H -2.502860 -7.284591 1.370944 0
M  V30 29 H -0.755792 -7.028321 1.140311 0
M  V30 30 H -1.763352 -5.761435 1.936659 0
M  V30 31 H -0.080289 -4.709778 1.061088 0
M  V30 32 H 1.130300 -2.752230 0.215009 0
M  V30 33 H 0.900236 -2.024345 -4.249427 0
M  V30 34 H 2.102603 0.238972 -4.520247 0
M  V30 35 H 2.453971 3.099799 -0.455911 0
M  V30 36 H 3.346831 2.502846 1.573926 0
M  V30 37 H 3.203790 3.370335 3.879415 0
M  V30 38 H 0.406978 2.915745 7.239288 0
M  V30 39 H -0.293848 4.375847 6.544768 0
M  V30 40 H -0.837639 2.748478 5.987895 0
M  V30 41 H -0.920734 2.179470 4.030492 0
M  V30 42 H -2.865974 1.934619 1.904430 0
M  V30 43 H -2.193843 0.807433 3.219126 0
M  V30 44 H -2.767742 0.136907 1.676771 0
M  V30 45 H 0.401513 -0.486288 0.528973 0
M  V30 46 H -1.371542 -2.664248 -3.230906 0
M  V30 47 H -2.615550 -4.659467 -2.382016 0
M  V30 END ATOM
M  V30 BEGIN BOND
M  V30 1 1 1 2
M  V30 2 1 2 3
M  V30 3 2 3 4
M  V30 4 1 4 5
M  V30 5 2 5 6
M  V30 6 1 6 7
M  V30 7 2 7 8
M  V30 8 1 8 9
M  V30 9 1 9 10
M  V30 10 2 10 11
M  V30 11 1 11 12
M  V30 12 2 12 13
M  V30 13 1 13 14
M  V30 14 2 14 15
M  V30 15 1 15 16
M  V30 16 2 16 17
M  V30 17 1 17 18
M  V30 18 1 18 19
M  V30 19 1 17 20
M  V30 20 2 20 21
M  V30 21 1 21 22
M  V30 22 1 22 23
M  V30 23 1 13 24
M  V30 24 2 24 25
M  V30 25 1 6 26
M  V30 26 2 26 27
M  V30 27 1 27 3
M  V30 28 1 25 7
M  V30 29 1 25 10
M  V30 30 1 21 14
M  V30 31 1 1 28
M  V30 32 1 1 29
M  V30 33 1 1 30
M  V30 34 1 4 31
M  V30 35 1 5 32
M  V30 36 1 8 33
M  V30 37 1 9 34
M  V30 38 1 12 35
M  V30 39 1 15 36
M  V30 40 1 16 37
M  V30 41 1 19 38
M  V30 42 1 19 39
M  V30 43 1 19 40
M  V30 44 1 20 41
M  V30 45 1 23 42
M  V30 46 1 23 43
M  V30 47 1 23 44
M  V30 48 1 24 45
M  V30 49 1 26 46
M  V30 50 1 27 47
M  V30 END BOND
M  V30 END CTAB
M  END
>  <Dataset>  (13) 
ChEMBL_Kinases

>  <Ligand_Instance>  (13) 
nan

>  <PDB_ID>  (13) 
nan

>  <Standardized_SMILES>  (13) 
COc1ccc(-c2c[nH]c3ncc(-c4ccc(OC)cc4OC)cc23)cc1

>  <Name>  (13) 
nan

>  <Pocket>  (13) 
nan

>  <ATP_Site>  (13) 
nan

>  <Peripheral>  (13) 
nan

>  <Num_H_Atoms_ProtBoundConf>  (13) 
nan

>  <Num_Resolved_Atoms>  (13) 
nan

>  <Num_Not_Resolved_Atoms>  (13) 
nan

$$$$
CHEMBL3102943
     RDKit          3D

  0  0  0  0  0  0  0  0  0  0999 V3000
M  V30 BEGIN CTAB
M  V30 COUNTS 43 46 0 0 0
M  V30 BEGIN ATOM
M  V30 1 C 2.745015 -7.275937 0.641543 0
M  V30 2 O 2.563565 -6.054397 1.340452 0
M  V30 3 C 2.342819 -4.857700 0.672510 0
M  V30 4 C 2.179631 -3.728893 1.478389 0
M  V30 5 C 1.951375 -2.457026 0.969623 0
M  V30 6 C 1.885409 -2.319483 -0.403166 0
M  V30 7 C 1.643466 -0.965810 -0.893662 0
M  V30 8 C 2.182759 -0.601469 -2.114385 0
M  V30 9 N 1.975014 0.645494 -2.593864 0
M  V30 10 C 1.248351 1.553742 -1.906977 0
M  V30 11 N 0.909015 2.828753 -2.167913 0
M  V30 12 C 0.158749 3.330995 -1.160252 0
M  V30 13 C -0.014249 2.348668 -0.176852 0
M  V30 14 C -0.746196 2.424839 1.085429 0
M  V30 15 C -0.618209 3.510428 1.938819 0
M  V30 16 C -1.309733 3.603767 3.149220 0
M  V30 17 C -2.151696 2.540623 3.473270 0
M  V30 18 O -2.825995 2.665202 4.686213 0
M  V30 19 C -3.704828 1.594103 5.062157 0
M  V30 20 C -2.282470 1.457124 2.626430 0
M  V30 21 C -1.586489 1.379496 1.424158 0
M  V30 22 C 0.678725 1.252294 -0.674857 0
M  V30 23 C 0.906663 -0.021639 -0.213135 0
M  V30 24 C 2.041483 -3.407102 -1.217885 0
M  V30 25 C 2.267650 -4.663318 -0.691544 0
M  V30 26 H 2.766282 -8.110861 1.373048 0
M  V30 27 H 3.737802 -7.255895 0.146976 0
M  V30 28 H 1.953966 -7.419605 -0.119067 0
M  V30 29 H 2.228360 -3.817819 2.555292 0
M  V30 30 H 1.834141 -1.624224 1.662327 0
M  V30 31 H 2.775012 -1.305859 -2.698945 0
M  V30 32 H 1.169559 3.396111 -3.025223 0
M  V30 33 H -0.277527 4.323517 -1.053809 0
M  V30 34 H 0.033408 4.320367 1.675997 0
M  V30 35 H -1.160495 4.476126 3.759543 0
M  V30 36 H -4.008875 1.638835 6.109184 0
M  V30 37 H -4.550634 1.598167 4.333586 0
M  V30 38 H -3.150727 0.619037 4.937435 0
M  V30 39 H -2.940815 0.656652 2.909527 0
M  V30 40 H -1.752567 0.495219 0.828392 0
M  V30 41 H 0.495871 -0.329310 0.738770 0
M  V30 42 H 1.985315 -3.270371 -2.283880 0
M  V30 43 H 2.397066 -5.552222 -1.294082 0
M  V30 END ATOM
M  V30 BEGIN BOND
M  V30 1 1 1 2
M  V30 2 1 2 3
M  V30 3 2 3 4
M  V30 4 1 4 5
M  V30 5 2 5 6
M  V30 6 1 6 7
M  V30 7 2 7 8
M  V30 8 1 8 9
M  V30 9 2 9 10
M  V30 10 1 10 11
M  V30 11 1 11 12
M  V30 12 2 12 13
M  V30 13 1 13 14
M  V30 14 2 14 15
M  V30 15 1 15 16
M  V30 16 2 16 17
M  V30 17 1 17 18
M  V30 18 1 18 19
M  V30 19 1 17 20
M  V30 20 2 20 21
M  V30 21 1 13 22
M  V30 22 2 22 23
M  V30 23 1 6 24
M  V30 24 2 24 25
M  V30 25 1 25 3
M  V30 26 1 23 7
M  V30 27 1 22 10
M  V30 28 1 21 14
M  V30 29 1 1 26
M  V30 30 1 1 27
M  V30 31 1 1 28
M  V30 32 1 4 29
M  V30 33 1 5 30
M  V30 34 1 8 31
M  V30 35 1 11 32
M  V30 36 1 12 33
M  V30 37 1 15 34
M  V30 38 1 16 35
M  V30 39 1 19 36
M  V30 40 1 19 37
M  V30 41 1 19 38
M  V30 42 1 20 39
M  V30 43 1 21 40
M  V30 44 1 23 41
M  V30 45 1 24 42
M  V30 46 1 25 43
M  V30 END BOND
M  V30 END CTAB
M  END
>  <Dataset>  (14) 
ChEMBL_Kinases

>  <Ligand_Instance>  (14) 
nan

>  <PDB_ID>  (14) 
nan

>  <Standardized_SMILES>  (14) 
COc1ccc(-c2cnc3[nH]cc(-c4ccc(OC)cc4)c3c2)cc1

>  <Name>  (14) 
nan

>  <Pocket>  (14) 
nan

>  <ATP_Site>  (14) 
nan

>  <Peripheral>  (14) 
nan

>  <Num_H_Atoms_ProtBoundConf>  (14) 
nan

>  <Num_Resolved_Atoms>  (14) 
nan

>  <Num_Not_Resolved_Atoms>  (14) 
nan

$$$$
CHEMBL3102942
     RDKit          3D

  0  0  0  0  0  0  0  0  0  0999 V3000
M  V30 BEGIN CTAB
M  V30 COUNTS 37 40 0 0 0
M  V30 BEGIN ATOM
M  V30 1 O 0.199324 -4.604620 5.104861 0
M  V30 2 C 0.557280 -3.875440 3.968991 0
M  V30 3 C -0.418884 -3.348906 3.116836 0
M  V30 4 C -0.017245 -2.640210 2.014316 0
M  V30 5 C 1.328288 -2.465529 1.774829 0
M  V30 6 C 1.677745 -1.699673 0.581655 0
M  V30 7 C 2.821120 -1.918272 -0.149984 0
M  V30 8 N 3.082134 -1.170851 -1.245417 0
M  V30 9 C 2.256369 -0.195186 -1.669204 0
M  V30 10 N 2.272332 0.678040 -2.699629 0
M  V30 11 C 1.164094 1.457645 -2.651466 0
M  V30 12 C 0.383242 1.094707 -1.555502 0
M  V30 13 C -0.883175 1.704854 -1.174640 0
M  V30 14 C -1.106809 3.057183 -1.138734 0
M  V30 15 C -2.341821 3.586894 -0.766370 0
M  V30 16 C -3.367631 2.731443 -0.424493 0
M  V30 17 C -3.125491 1.368730 -0.465900 0
M  V30 18 C -1.903330 0.842227 -0.834399 0
M  V30 19 C 1.099368 0.067080 -0.976649 0
M  V30 20 C 0.837302 -0.690320 0.131311 0
M  V30 21 C 2.273029 -2.994096 2.629288 0
M  V30 22 C 1.909591 -3.721669 3.762467 0
M  V30 23 O 2.847375 -4.260576 4.633025 0
M  V30 24 H -0.387968 -4.165811 5.817393 0
M  V30 25 H -1.434776 -3.560247 3.422496 0
M  V30 26 H -0.831601 -2.276279 1.421528 0
M  V30 27 H 3.509755 -2.699903 0.166016 0
M  V30 28 H 3.050049 0.720726 -3.420022 0
M  V30 29 H 0.929727 2.244786 -3.365947 0
M  V30 30 H -0.291873 3.734826 -1.410125 0
M  V30 31 H -2.528965 4.655769 -0.734819 0
M  V30 32 H -4.320974 3.154415 -0.137218 0
M  V30 33 H -3.979534 0.771799 -0.184160 0
M  V30 34 H -1.883002 -0.237719 -0.814131 0
M  V30 35 H -0.058272 -0.526708 0.713985 0
M  V30 36 H 3.325705 -2.848200 2.427345 0
M  V30 37 H 2.955170 -3.927334 5.575436 0
M  V30 END ATOM
M  V30 BEGIN BOND
M  V30 1 1 1 2
M  V30 2 2 2 3
M  V30 3 1 3 4
M  V30 4 2 4 5
M  V30 5 1 5 6
M  V30 6 2 6 7
M  V30 7 1 7 8
M  V30 8 2 8 9
M  V30 9 1 9 10
M  V30 10 1 10 11
M  V30 11 2 11 12
M  V30 12 1 12 13
M  V30 13 2 13 14
M  V30 14 1 14 15
M  V30 15 2 15 16
M  V30 16 1 16 17
M  V30 17 2 17 18
M  V30 18 1 12 19
M  V30 19 2 19 20
M  V30 20 1 5 21
M  V30 21 2 21 22
M  V30 22 1 22 23
M  V30 23 1 22 2
M  V30 24 1 20 6
M  V30 25 1 19 9
M  V30 26 1 18 13
M  V30 27 1 1 24
M  V30 28 1 3 25
M  V30 29 1 4 26
M  V30 30 1 7 27
M  V30 31 1 10 28
M  V30 32 1 11 29
M  V30 33 1 14 30
M  V30 34 1 15 31
M  V30 35 1 16 32
M  V30 36 1 17 33
M  V30 37 1 18 34
M  V30 38 1 20 35
M  V30 39 1 21 36
M  V30 40 1 23 37
M  V30 END BOND
M  V30 END CTAB
M  END
>  <Dataset>  (15) 
ChEMBL_Kinases

>  <Ligand_Instance>  (15) 
nan

>  <PDB_ID>  (15) 
nan

>  <Standardized_SMILES>  (15) 
Oc1ccc(-c2cnc3[nH]cc(-c4ccccc4)c3c2)cc1O

>  <Name>  (15) 
nan

>  <Pocket>  (15) 
nan

>  <ATP_Site>  (15) 
nan

>  <Peripheral>  (15) 
nan

>  <Num_H_Atoms_ProtBoundConf>  (15) 
nan

>  <Num_Resolved_Atoms>  (15) 
nan

>  <Num_Not_Resolved_Atoms>  (15) 
nan

$$$$
CHEMBL3102940
     RDKit          3D

  0  0  0  0  0  0  0  0  0  0999 V3000
M  V30 BEGIN CTAB
M  V30 COUNTS 43 46 0 0 0
M  V30 BEGIN ATOM
M  V30 1 C -0.359702 -6.886554 2.379103 0
M  V30 2 O 0.626793 -5.853620 2.362529 0
M  V30 3 C 0.356890 -4.718236 1.616457 0
M  V30 4 C -0.826130 -4.577694 0.906231 0
M  V30 5 C -1.039059 -3.412340 0.174919 0
M  V30 6 C -0.055335 -2.416674 0.176587 0
M  V30 7 C -0.362985 -1.213372 -0.625685 0
M  V30 8 C -0.887755 -1.239144 -1.903116 0
M  V30 9 N -1.131659 -0.078969 -2.548117 0
M  V30 10 C -0.880688 1.129669 -1.989518 0
M  V30 11 N -1.027404 2.416922 -2.403271 0
M  V30 12 C -0.620052 3.254292 -1.447406 0
M  V30 13 C -0.176480 2.540187 -0.335453 0
M  V30 14 C 0.346211 3.072298 0.914741 0
M  V30 15 C 1.282868 4.110221 0.912765 0
M  V30 16 C 1.782075 4.618466 2.105741 0
M  V30 17 C 1.371565 4.117539 3.329855 0
M  V30 18 C 0.452835 3.098711 3.352255 0
M  V30 19 C -0.044931 2.592302 2.152964 0
M  V30 20 C -0.356594 1.212048 -0.716207 0
M  V30 21 C -0.106256 0.032229 -0.054668 0
M  V30 22 C 1.137329 -2.561378 0.894199 0
M  V30 23 O 2.022795 -1.495840 0.806069 0
M  V30 24 C 3.246949 -1.583794 1.510563 0
M  V30 25 C 1.317945 -3.728099 1.608867 0
M  V30 26 H -1.279428 -6.534983 2.922940 0
M  V30 27 H -0.701268 -7.142363 1.349061 0
M  V30 28 H 0.031648 -7.800121 2.878720 0
M  V30 29 H -1.577298 -5.348341 0.910449 0
M  V30 30 H -1.957468 -3.279273 -0.389137 0
M  V30 31 H -1.083822 -2.206069 -2.338522 0
M  V30 32 H -1.400751 2.725075 -3.326382 0
M  V30 33 H -0.600414 4.335746 -1.446852 0
M  V30 34 H 1.632066 4.532533 -0.027453 0
M  V30 35 H 2.503928 5.416031 2.166300 0
M  V30 36 H 1.735838 4.485455 4.278698 0
M  V30 37 H 0.098149 2.670126 4.297596 0
M  V30 38 H -0.759588 1.797712 2.225028 0
M  V30 39 H 0.298094 0.077077 0.928578 0
M  V30 40 H 3.835949 -0.648013 1.405662 0
M  V30 41 H 3.864077 -2.441320 1.158351 0
M  V30 42 H 2.999904 -1.688993 2.580591 0
M  V30 43 H 2.266127 -3.758830 2.134757 0
M  V30 END ATOM
M  V30 BEGIN BOND
M  V30 1 1 1 2
M  V30 2 1 2 3
M  V30 3 2 3 4
M  V30 4 1 4 5
M  V30 5 2 5 6
M  V30 6 1 6 7
M  V30 7 2 7 8
M  V30 8 1 8 9
M  V30 9 2 9 10
M  V30 10 1 10 11
M  V30 11 1 11 12
M  V30 12 2 12 13
M  V30 13 1 13 14
M  V30 14 2 14 15
M  V30 15 1 15 16
M  V30 16 2 16 17
M  V30 17 1 17 18
M  V30 18 2 18 19
M  V30 19 1 13 20
M  V30 20 2 20 21
M  V30 21 1 6 22
M  V30 22 1 22 23
M  V30 23 1 23 24
M  V30 24 2 22 25
M  V30 25 1 25 3
M  V30 26 1 21 7
M  V30 27 1 20 10
M  V30 28 1 19 14
M  V30 29 1 1 26
M  V30 30 1 1 27
M  V30 31 1 1 28
M  V30 32 1 4 29
M  V30 33 1 5 30
M  V30 34 1 8 31
M  V30 35 1 11 32
M  V30 36 1 12 33
M  V30 37 1 15 34
M  V30 38 1 16 35
M  V30 39 1 17 36
M  V30 40 1 18 37
M  V30 41 1 19 38
M  V30 42 1 21 39
M  V30 43 1 24 40
M  V30 44 1 24 41
M  V30 45 1 24 42
M  V30 46 1 25 43
M  V30 END BOND
M  V30 END CTAB
M  END
>  <Dataset>  (16) 
ChEMBL_Kinases

>  <Ligand_Instance>  (16) 
nan

>  <PDB_ID>  (16) 
nan

>  <Standardized_SMILES>  (16) 
COc1ccc(-c2cnc3[nH]cc(-c4ccccc4)c3c2)c(OC)c1

>  <Name>  (16) 
nan

>  <Pocket>  (16) 
nan

>  <ATP_Site>  (16) 
nan

>  <Peripheral>  (16) 
nan

>  <Num_H_Atoms_ProtBoundConf>  (16) 
nan

>  <Num_Resolved_Atoms>  (16) 
nan

>  <Num_Not_Resolved_Atoms>  (16) 
nan

$$$$
CHEMBL3102939
     RDKit          3D

  0  0  0  0  0  0  0  0  0  0999 V3000
M  V30 BEGIN CTAB
M  V30 COUNTS 36 39 0 0 0
M  V30 BEGIN ATOM
M  V30 1 O 2.612214 -2.328975 3.691284 0
M  V30 2 C 2.198244 -3.183061 2.671010 0
M  V30 3 C 2.173072 -4.557316 2.789405 0
M  V30 4 C 1.756835 -5.375409 1.758002 0
M  V30 5 C 1.363600 -4.750119 0.592805 0
M  V30 6 C 1.369100 -3.376351 0.420450 0
M  V30 7 C 1.796281 -2.571085 1.483662 0
M  V30 8 C 1.778629 -1.129864 1.238496 0
M  V30 9 C 2.867939 -0.353271 1.621563 0
M  V30 10 N 2.916468 0.977503 1.425562 0
M  V30 11 C 1.906338 1.647669 0.841801 0
M  V30 12 N 1.668855 2.949887 0.516395 0
M  V30 13 C 0.447749 3.000925 -0.064510 0
M  V30 14 C -0.134682 1.755032 -0.132780 0
M  V30 15 C -1.451579 1.503573 -0.708852 0
M  V30 16 C -2.442442 2.409937 -0.319449 0
M  V30 17 C -3.710781 2.226995 -0.829777 0
M  V30 18 C -4.000184 1.183711 -1.698451 0
M  V30 19 C -3.014612 0.275569 -2.090749 0
M  V30 20 C -1.766457 0.475622 -1.573501 0
M  V30 21 C 0.798111 0.915735 0.442525 0
M  V30 22 C 0.728030 -0.453666 0.634769 0
M  V30 23 H 1.928105 -1.906360 4.329987 0
M  V30 24 H 2.492680 -5.013465 3.729347 0
M  V30 25 H 1.742100 -6.438178 1.862534 0
M  V30 26 H 1.030022 -5.386463 -0.236440 0
M  V30 27 H 1.041804 -2.969950 -0.533796 0
M  V30 28 H 3.731085 -0.819687 2.102920 0
M  V30 29 H 2.377971 3.665526 0.731232 0
M  V30 30 H 0.100814 3.984098 -0.388788 0
M  V30 31 H -2.271375 3.234278 0.349971 0
M  V30 32 H -4.490541 2.932862 -0.528903 0
M  V30 33 H -5.008728 1.091570 -2.064196 0
M  V30 34 H -3.245050 -0.530503 -2.763934 0
M  V30 35 H -0.948539 -0.188978 -1.832172 0
M  V30 36 H -0.127409 -1.024662 0.327561 0
M  V30 END ATOM
M  V30 BEGIN BOND
M  V30 1 1 1 2
M  V30 2 2 2 3
M  V30 3 1 3 4
M  V30 4 2 4 5
M  V30 5 1 5 6
M  V30 6 2 6 7
M  V30 7 1 7 8
M  V30 8 2 8 9
M  V30 9 1 9 10
M  V30 10 2 10 11
M  V30 11 1 11 12
M  V30 12 1 12 13
M  V30 13 2 13 14
M  V30 14 1 14 15
M  V30 15 2 15 16
M  V30 16 1 16 17
M  V30 17 2 17 18
M  V30 18 1 18 19
M  V30 19 2 19 20
M  V30 20 1 14 21
M  V30 21 2 21 22
M  V30 22 1 7 2
M  V30 23 1 22 8
M  V30 24 1 21 11
M  V30 25 1 20 15
M  V30 26 1 1 23
M  V30 27 1 3 24
M  V30 28 1 4 25
M  V30 29 1 5 26
M  V30 30 1 6 27
M  V30 31 1 9 28
M  V30 32 1 12 29
M  V30 33 1 13 30
M  V30 34 1 16 31
M  V30 35 1 17 32
M  V30 36 1 18 33
M  V30 37 1 19 34
M  V30 38 1 20 35
M  V30 39 1 22 36
M  V30 END BOND
M  V30 END CTAB
M  END
>  <Dataset>  (17) 
ChEMBL_Kinases

>  <Ligand_Instance>  (17) 
nan

>  <PDB_ID>  (17) 
nan

>  <Standardized_SMILES>  (17) 
Oc1ccccc1-c1cnc2[nH]cc(-c3ccccc3)c2c1

>  <Name>  (17) 
nan

>  <Pocket>  (17) 
nan

>  <ATP_Site>  (17) 
nan

>  <Peripheral>  (17) 
nan

>  <Num_H_Atoms_ProtBoundConf>  (17) 
nan

>  <Num_Resolved_Atoms>  (17) 
nan

>  <Num_Not_Resolved_Atoms>  (17) 
nan

$$$$
CHEMBL3102938
     RDKit          3D

  0  0  0  0  0  0  0  0  0  0999 V3000
M  V30 BEGIN CTAB
M  V30 COUNTS 39 42 0 0 0
M  V30 BEGIN ATOM
M  V30 1 C 0.438861 -5.072633 -1.571252 0
M  V30 2 O 0.635445 -3.739158 -1.138106 0
M  V30 3 C 1.546266 -3.491589 -0.119477 0
M  V30 4 C 2.252682 -4.512634 0.468419 0
M  V30 5 C 3.148450 -4.173622 1.486128 0
M  V30 6 C 3.273781 -2.864242 1.838795 0
M  V30 7 C 2.564031 -1.835451 1.248613 0
M  V30 8 C 1.662479 -2.160640 0.227003 0
M  V30 9 C 0.892152 -1.096352 -0.422247 0
M  V30 10 C 0.711619 -0.985761 -1.792071 0
M  V30 11 N -0.020399 0.041210 -2.271943 0
M  V30 12 C -0.574650 0.953630 -1.452607 0
M  V30 13 N -1.324481 2.025169 -1.772490 0
M  V30 14 C -1.647243 2.634215 -0.613844 0
M  V30 15 C -1.088687 1.930839 0.456107 0
M  V30 16 C -1.211858 2.274114 1.870423 0
M  V30 17 C -0.115544 2.244259 2.707583 0
M  V30 18 C -0.222964 2.566151 4.040903 0
M  V30 19 C -1.490285 2.921620 4.497350 0
M  V30 20 C -2.635315 2.970813 3.702912 0
M  V30 21 C -2.452036 2.631461 2.359205 0
M  V30 22 C -0.405328 0.859162 -0.086686 0
M  V30 23 C 0.334668 -0.172297 0.457235 0
M  V30 24 H 1.448348 -5.489267 -1.792976 0
M  V30 25 H -0.102593 -5.674340 -0.796471 0
M  V30 26 H -0.202838 -5.025785 -2.465857 0
M  V30 27 H 2.117310 -5.533298 0.153085 0
M  V30 28 H 3.687916 -4.997229 1.927774 0
M  V30 29 H 3.989701 -2.636403 2.644992 0
M  V30 30 H 2.698350 -0.792698 1.566500 0
M  V30 31 H 1.176480 -1.743916 -2.416999 0
M  V30 32 H -1.610807 2.339010 -2.730774 0
M  V30 33 H -2.260231 3.546555 -0.556561 0
M  V30 34 H 0.862387 1.971826 2.363655 0
M  V30 35 H 0.593420 2.566805 4.765852 0
M  V30 36 H -1.616631 3.185894 5.558271 0
M  V30 37 H -3.575133 3.255342 4.134247 0
M  V30 38 H -3.349908 2.674774 1.757296 0
M  V30 39 H 0.459547 -0.236340 1.514126 0
M  V30 END ATOM
M  V30 BEGIN BOND
M  V30 1 1 1 2
M  V30 2 1 2 3
M  V30 3 2 3 4
M  V30 4 1 4 5
M  V30 5 2 5 6
M  V30 6 1 6 7
M  V30 7 2 7 8
M  V30 8 1 8 9
M  V30 9 2 9 10
M  V30 10 1 10 11
M  V30 11 2 11 12
M  V30 12 1 12 13
M  V30 13 1 13 14
M  V30 14 2 14 15
M  V30 15 1 15 16
M  V30 16 2 16 17
M  V30 17 1 17 18
M  V30 18 2 18 19
M  V30 19 1 19 20
M  V30 20 2 20 21
M  V30 21 1 15 22
M  V30 22 2 22 23
M  V30 23 1 8 3
M  V30 24 1 23 9
M  V30 25 1 22 12
M  V30 26 1 21 16
M  V30 27 1 1 24
M  V30 28 1 1 25
M  V30 29 1 1 26
M  V30 30 1 4 27
M  V30 31 1 5 28
M  V30 32 1 6 29
M  V30 33 1 7 30
M  V30 34 1 10 31
M  V30 35 1 13 32
M  V30 36 1 14 33
M  V30 37 1 17 34
M  V30 38 1 18 35
M  V30 39 1 19 36
M  V30 40 1 20 37
M  V30 41 1 21 38
M  V30 42 1 23 39
M  V30 END BOND
M  V30 END CTAB
M  END
>  <Dataset>  (18) 
ChEMBL_Kinases

>  <Ligand_Instance>  (18) 
nan

>  <PDB_ID>  (18) 
nan

>  <Standardized_SMILES>  (18) 
COc1ccccc1-c1cnc2[nH]cc(-c3ccccc3)c2c1

>  <Name>  (18) 
nan

>  <Pocket>  (18) 
nan

>  <ATP_Site>  (18) 
nan

>  <Peripheral>  (18) 
nan

>  <Num_H_Atoms_ProtBoundConf>  (18) 
nan

>  <Num_Resolved_Atoms>  (18) 
nan

>  <Num_Not_Resolved_Atoms>  (18) 
nan

$$$$
CHEMBL3102937
     RDKit          3D

  0  0  0  0  0  0  0  0  0  0999 V3000
M  V30 BEGIN CTAB
M  V30 COUNTS 36 39 0 0 0
M  V30 BEGIN ATOM
M  V30 1 O -0.122847 -4.153073 3.566391 0
M  V30 2 C 0.744131 -4.012211 2.469470 0
M  V30 3 C 1.420063 -5.103662 1.963190 0
M  V30 4 C 2.287406 -5.066673 0.895997 0
M  V30 5 C 2.479353 -3.831675 0.303299 0
M  V30 6 C 1.807914 -2.724211 0.799283 0
M  V30 7 C 1.985996 -1.380826 0.191137 0
M  V30 8 C 3.185164 -0.988508 -0.387411 0
M  V30 9 N 3.276410 0.247807 -0.922801 0
M  V30 10 C 2.256803 1.130904 -0.926333 0
M  V30 11 N 2.099409 2.390657 -1.384181 0
M  V30 12 C 0.856186 2.827728 -1.127946 0
M  V30 13 C 0.123682 1.847677 -0.473110 0
M  V30 14 C -1.256429 1.859619 0.003508 0
M  V30 15 C -1.815877 2.903669 0.695253 0
M  V30 16 C -3.122109 2.923749 1.150273 0
M  V30 17 C -3.936239 1.833683 0.904555 0
M  V30 18 C -3.407693 0.748598 0.203602 0
M  V30 19 C -2.096674 0.787352 -0.224682 0
M  V30 20 C 1.027893 0.787086 -0.357183 0
M  V30 21 C 0.935189 -0.474542 0.188974 0
M  V30 22 C 0.937584 -2.780317 1.875813 0
M  V30 23 H -0.890816 -3.494095 3.597616 0
M  V30 24 H 1.277588 -6.080709 2.421347 0
M  V30 25 H 2.782801 -5.965564 0.553918 0
M  V30 26 H 3.150082 -3.737468 -0.540167 0
M  V30 27 H 3.997222 -1.703665 -0.379702 0
M  V30 28 H 2.846131 2.955502 -1.874863 0
M  V30 29 H 0.450059 3.808561 -1.385684 0
M  V30 30 H -1.188099 3.766826 0.895445 0
M  V30 31 H -3.525463 3.752188 1.685711 0
M  V30 32 H -4.967999 1.779550 1.230210 0
M  V30 33 H -4.049614 -0.107877 0.011468 0
M  V30 34 H -1.771363 -0.095987 -0.760148 0
M  V30 35 H 0.035699 -0.816700 0.642592 0
M  V30 36 H 0.402120 -1.960267 2.290141 0
M  V30 END ATOM
M  V30 BEGIN BOND
M  V30 1 1 1 2
M  V30 2 2 2 3
M  V30 3 1 3 4
M  V30 4 2 4 5
M  V30 5 1 5 6
M  V30 6 1 6 7
M  V30 7 2 7 8
M  V30 8 1 8 9
M  V30 9 2 9 10
M  V30 10 1 10 11
M  V30 11 1 11 12
M  V30 12 2 12 13
M  V30 13 1 13 14
M  V30 14 2 14 15
M  V30 15 1 15 16
M  V30 16 2 16 17
M  V30 17 1 17 18
M  V30 18 2 18 19
M  V30 19 1 13 20
M  V30 20 2 20 21
M  V30 21 2 6 22
M  V30 22 1 22 2
M  V30 23 1 21 7
M  V30 24 1 20 10
M  V30 25 1 19 14
M  V30 26 1 1 23
M  V30 27 1 3 24
M  V30 28 1 4 25
M  V30 29 1 5 26
M  V30 30 1 8 27
M  V30 31 1 11 28
M  V30 32 1 12 29
M  V30 33 1 15 30
M  V30 34 1 16 31
M  V30 35 1 17 32
M  V30 36 1 18 33
M  V30 37 1 19 34
M  V30 38 1 21 35
M  V30 39 1 22 36
M  V30 END BOND
M  V30 END CTAB
M  END
>  <Dataset>  (19) 
ChEMBL_Kinases

>  <Ligand_Instance>  (19) 
nan

>  <PDB_ID>  (19) 
nan

>  <Standardized_SMILES>  (19) 
Oc1cccc(-c2cnc3[nH]cc(-c4ccccc4)c3c2)c1

>  <Name>  (19) 
nan

>  <Pocket>  (19) 
nan

>  <ATP_Site>  (19) 
nan

>  <Peripheral>  (19) 
nan

>  <Num_H_Atoms_ProtBoundConf>  (19) 
nan

>  <Num_Resolved_Atoms>  (19) 
nan

>  <Num_Not_Resolved_Atoms>  (19) 
nan

$$$$
CHEMBL3102936
     RDKit          3D

  0  0  0  0  0  0  0  0  0  0999 V3000
M  V30 BEGIN CTAB
M  V30 COUNTS 39 42 0 0 0
M  V30 BEGIN ATOM
M  V30 1 C 0.336435 -4.494464 2.544925 0
M  V30 2 O 1.119178 -3.922609 3.576099 0
M  V30 3 C 1.237615 -2.544293 3.699514 0
M  V30 4 C 2.059575 -2.240933 4.790479 0
M  V30 5 C 2.334626 -0.910425 5.124657 0
M  V30 6 C 1.781950 0.103996 4.360245 0
M  V30 7 C 0.973586 -0.215090 3.287696 0
M  V30 8 C 0.346656 0.786530 2.424799 0
M  V30 9 C -0.064607 2.043289 2.864202 0
M  V30 10 N -0.637064 2.926470 2.021547 0
M  V30 11 C -0.847233 2.659283 0.719724 0
M  V30 12 N -1.382379 3.325178 -0.333917 0
M  V30 13 C -1.341559 2.564106 -1.444617 0
M  V30 14 C -0.758938 1.337357 -1.139155 0
M  V30 15 C -0.529634 0.233869 -2.066319 0
M  V30 16 C 0.692914 -0.417672 -2.061667 0
M  V30 17 C 1.002460 -1.457855 -2.888436 0
M  V30 18 C 0.059130 -1.916268 -3.801322 0
M  V30 19 C -1.154603 -1.280187 -3.815994 0
M  V30 20 C -1.475188 -0.227792 -2.983330 0
M  V30 21 C -0.468368 1.436423 0.205679 0
M  V30 22 C 0.122348 0.521343 1.068794 0
M  V30 23 C 0.697781 -1.522368 2.952084 0
M  V30 24 H 0.341171 -3.844295 1.646078 0
M  V30 25 H 0.747786 -5.465429 2.198361 0
M  V30 26 H -0.700303 -4.604347 2.937420 0
M  V30 27 H 2.551888 -2.943330 5.465822 0
M  V30 28 H 2.964242 -0.630103 5.958768 0
M  V30 29 H 1.959824 1.163823 4.571410 0
M  V30 30 H 0.091145 2.289372 3.911438 0
M  V30 31 H -1.764238 4.295113 -0.255353 0
M  V30 32 H -1.716845 2.900450 -2.402547 0
M  V30 33 H 1.512856 -0.152041 -1.394272 0
M  V30 34 H 1.960534 -1.974917 -2.890779 0
M  V30 35 H 0.313201 -2.745429 -4.456769 0
M  V30 36 H -1.882735 -1.643199 -4.529226 0
M  V30 37 H -2.430996 0.264948 -3.002836 0
M  V30 38 H 0.442420 -0.454082 0.730826 0
M  V30 39 H 0.092334 -1.885227 2.152088 0
M  V30 END ATOM
M  V30 BEGIN BOND
M  V30 1 1 1 2
M  V30 2 1 2 3
M  V30 3 2 3 4
M  V30 4 1 4 5
M  V30 5 2 5 6
M  V30 6 1 6 7
M  V30 7 1 7 8
M  V30 8 2 8 9
M  V30 9 1 9 10
M  V30 10 2 10 11
M  V30 11 1 11 12
M  V30 12 1 12 13
M  V30 13 2 13 14
M  V30 14 1 14 15
M  V30 15 2 15 16
M  V30 16 1 16 17
M  V30 17 2 17 18
M  V30 18 1 18 19
M  V30 19 2 19 20
M  V30 20 1 14 21
M  V30 21 2 21 22
M  V30 22 2 7 23
M  V30 23 1 23 3
M  V30 24 1 22 8
M  V30 25 1 21 11
M  V30 26 1 20 15
M  V30 27 1 1 24
M  V30 28 1 1 25
M  V30 29 1 1 26
M  V30 30 1 4 27
M  V30 31 1 5 28
M  V30 32 1 6 29
M  V30 33 1 9 30
M  V30 34 1 12 31
M  V30 35 1 13 32
M  V30 36 1 16 33
M  V30 37 1 17 34
M  V30 38 1 18 35
M  V30 39 1 19 36
M  V30 40 1 20 37
M  V30 41 1 22 38
M  V30 42 1 23 39
M  V30 END BOND
M  V30 END CTAB
M  END
>  <Dataset>  (20) 
ChEMBL_Kinases

>  <Ligand_Instance>  (20) 
nan

>  <PDB_ID>  (20) 
nan

>  <Standardized_SMILES>  (20) 
COc1cccc(-c2cnc3[nH]cc(-c4ccccc4)c3c2)c1

>  <Name>  (20) 
nan

>  <Pocket>  (20) 
nan

>  <ATP_Site>  (20) 
nan

>  <Peripheral>  (20) 
nan

>  <Num_H_Atoms_ProtBoundConf>  (20) 
nan

>  <Num_Resolved_Atoms>  (20) 
nan

>  <Num_Not_Resolved_Atoms>  (20) 
nan

$$$$
CHEMBL3109938
     RDKit          3D

  0  0  0  0  0  0  0  0  0  0999 V3000
M  V30 BEGIN CTAB
M  V30 COUNTS 77 81 0 0 0
M  V30 BEGIN ATOM
M  V30 1 C 2.752090 -1.368145 4.004542 0
M  V30 2 N 2.886565 -2.260299 2.853349 0
M  V30 3 C 2.013490 -3.461514 3.139956 0
M  V30 4 C 2.492354 -1.690584 1.621638 0
M  V30 5 C 3.234541 -2.423999 0.546386 0
M  V30 6 C 3.689891 -1.695494 -0.677747 0
M  V30 7 N 3.791936 -0.311179 -0.745148 0
M  V30 8 C 4.154661 1.092069 -1.304880 0
M  V30 9 O 4.796724 0.279184 -1.924503 0
M  V30 10 C 3.443451 2.230751 -0.642271 0
M  V30 11 C 2.119814 1.559482 -0.820374 0
M  V30 12 C 1.114451 2.363745 -0.204738 0
M  V30 13 C 1.150642 3.615942 0.556430 0
M  V30 14 N -0.119936 3.775125 0.926852 0
M  V30 15 C -0.756184 2.664998 1.654671 0
M  V30 16 C -1.482928 1.826047 0.920042 0
M  V30 17 C -2.187539 0.643975 1.121588 0
M  V30 18 C -2.089409 0.309942 2.466795 0
M  V30 19 C -1.370162 1.119294 3.368697 0
M  V30 20 N -0.762415 2.209239 2.884087 0
M  V30 21 C -2.732230 -0.924593 2.622988 0
M  V30 22 C -3.192531 -1.274331 1.357522 0
M  V30 23 C -3.881640 -2.392474 0.956191 0
M  V30 24 C -4.124049 -3.436772 1.840992 0
M  V30 25 N -4.824987 -4.487806 1.401677 0
M  V30 26 N -5.103591 -4.209453 0.062800 0
M  V30 27 C -5.785779 -4.934474 -0.952666 0
M  V30 28 C -4.561129 -3.107772 0.016329 0
M  V30 29 N -2.877685 -0.392937 0.504979 0
M  V30 30 C -2.596127 -0.137636 -0.902629 0
M  V30 31 O -2.371453 0.799903 -1.578066 0
M  V30 32 O -2.480414 -1.169649 -1.847012 0
M  V30 33 C -1.893628 -0.816223 -3.113149 0
M  V30 34 C -0.348538 -0.685153 -2.564437 0
M  V30 35 C -2.123552 0.566686 -3.613445 0
M  V30 36 C -1.756617 -1.789972 -4.178506 0
M  V30 37 C 2.485317 3.853970 0.473925 0
M  V30 38 Cl 2.569820 5.362377 1.345802 0
M  V30 39 C 3.647201 3.371356 -0.037706 0
M  V30 40 C 3.694992 0.149059 0.649939 0
M  V30 41 C 2.569668 -0.256615 1.491514 0
M  V30 42 H 3.653186 -0.768164 4.123224 0
M  V30 43 H 1.793115 -0.769818 3.971591 0
M  V30 44 H 2.665736 -1.945914 4.955520 0
M  V30 45 H 1.770210 -3.845305 2.142004 0
M  V30 46 H 2.634215 -4.139711 3.728188 0
M  V30 47 H 1.153947 -3.070264 3.692068 0
M  V30 48 H 1.367746 -2.004314 1.477190 0
M  V30 49 H 4.076580 -3.121123 0.982874 0
M  V30 50 H 2.501113 -3.272118 0.180742 0
M  V30 51 H 4.558067 -2.192653 -1.082889 0
M  V30 52 H 2.892682 -1.987142 -1.502981 0
M  V30 53 H 1.876050 0.690816 -1.379677 0
M  V30 54 H 0.214889 1.759870 -0.596812 0
M  V30 55 H -0.715642 4.579920 0.647591 0
M  V30 56 H -1.703749 2.201515 -0.070611 0
M  V30 57 H -1.233878 0.838707 4.438357 0
M  V30 58 H -2.853680 -1.503131 3.564564 0
M  V30 59 H -3.897973 -3.631489 2.949208 0
M  V30 60 H -5.067872 -5.046503 -1.861024 0
M  V30 61 H -6.635267 -4.287870 -1.397029 0
M  V30 62 H -6.154650 -5.941074 -0.698057 0
M  V30 63 H -4.570155 -2.555381 -0.976142 0
M  V30 64 H 0.082880 0.238425 -3.054114 0
M  V30 65 H -0.429302 -0.512742 -1.482684 0
M  V30 66 H 0.191007 -1.541306 -2.884380 0
M  V30 67 H -3.128625 0.893003 -3.726135 0
M  V30 68 H -1.387686 1.258701 -3.138058 0
M  V30 69 H -1.652234 0.488997 -4.686282 0
M  V30 70 H -2.458764 -1.665766 -4.963939 0
M  V30 71 H -1.652022 -2.869599 -3.866228 0
M  V30 72 H -0.774571 -1.610605 -4.711391 0
M  V30 73 H 4.645483 3.574798 -0.067740 0
M  V30 74 H 3.863924 1.264654 0.771333 0
M  V30 75 H 4.677605 -0.265696 1.117091 0
M  V30 76 H 2.784183 0.158199 2.558788 0
M  V30 77 H 1.590106 0.121024 1.269100 0
M  V30 END ATOM
M  V30 BEGIN BOND
M  V30 1 1 1 2
M  V30 2 1 2 3
M  V30 3 1 2 4
M  V30 4 1 4 5
M  V30 5 1 5 6
M  V30 6 1 6 7
M  V30 7 1 7 8
M  V30 8 2 8 9
M  V30 9 1 8 10
M  V30 10 2 10 11
M  V30 11 1 11 12
M  V30 12 2 12 13
M  V30 13 1 13 14
M  V30 14 1 14 15
M  V30 15 2 15 16
M  V30 16 1 16 17
M  V30 17 2 17 18
M  V30 18 1 18 19
M  V30 19 2 19 20
M  V30 20 1 18 21
M  V30 21 2 21 22
M  V30 22 1 22 23
M  V30 23 1 23 24
M  V30 24 2 24 25
M  V30 25 1 25 26
M  V30 26 1 26 27
M  V30 27 1 26 28
M  V30 28 1 22 29
M  V30 29 1 29 30
M  V30 30 2 30 31
M  V30 31 1 30 32
M  V30 32 1 32 33
M  V30 33 1 33 34
M  V30 34 1 33 35
M  V30 35 1 33 36
M  V30 36 1 13 37
M  V30 37 1 37 38
M  V30 38 2 37 39
M  V30 39 1 7 40
M  V30 40 1 40 41
M  V30 41 1 41 4
M  V30 42 1 39 10
M  V30 43 1 20 15
M  V30 44 2 28 23
M  V30 45 1 29 17
M  V30 46 1 1 42
M  V30 47 1 1 43
M  V30 48 1 1 44
M  V30 49 1 3 45
M  V30 50 1 3 46
M  V30 51 1 3 47
M  V30 52 1 4 48
M  V30 53 1 5 49
M  V30 54 1 5 50
M  V30 55 1 6 51
M  V30 56 1 6 52
M  V30 57 1 11 53
M  V30 58 1 12 54
M  V30 59 1 14 55
M  V30 60 1 16 56
M  V30 61 1 19 57
M  V30 62 1 21 58
M  V30 63 1 24 59
M  V30 64 1 27 60
M  V30 65 1 27 61
M  V30 66 1 27 62
M  V30 67 1 28 63
M  V30 68 1 34 64
M  V30 69 1 34 65
M  V30 70 1 34 66
M  V30 71 1 35 67
M  V30 72 1 35 68
M  V30 73 1 35 69
M  V30 74 1 36 70
M  V30 75 1 36 71
M  V30 76 1 36 72
M  V30 77 1 39 73
M  V30 78 1 40 74
M  V30 79 1 40 75
M  V30 80 1 41 76
M  V30 81 1 41 77
M  V30 END BOND
M  V30 END CTAB
M  END
>  <Dataset>  (21) 
ChEMBL_Kinases

>  <Ligand_Instance>  (21) 
nan

>  <PDB_ID>  (21) 
nan

>  <Standardized_SMILES>  (21) 
CN(C)C1CCN(C(=O)c2ccc(Nc3cc4c(cn3)cc(-c3cnn(C)c3)n4C(=O)OC(C)(C)C)c(Cl)c2)CC1

>  <Name>  (21) 
nan

>  <Pocket>  (21) 
nan

>  <ATP_Site>  (21) 
nan

>  <Peripheral>  (21) 
nan

>  <Num_H_Atoms_ProtBoundConf>  (21) 
nan

>  <Num_Resolved_Atoms>  (21) 
nan

>  <Num_Not_Resolved_Atoms>  (21) 
nan

$$$$
CHEMBL3099839
     RDKit          3D

  0  0  0  0  0  0  0  0  0  0999 V3000
M  V30 BEGIN CTAB
M  V30 COUNTS 74 80 0 0 0
M  V30 BEGIN ATOM
M  V30 1 O 3.033795 -4.416643 4.692637 0
M  V30 2 C 1.980897 -4.124448 4.046473 0
M  V30 3 N 0.852546 -4.923987 4.341615 0
M  V30 4 C -0.208661 -4.430923 3.512201 0
M  V30 5 O -1.401180 -4.892101 3.482860 0
M  V30 6 C 0.324305 -3.326230 2.726773 0
M  V30 7 C -0.410738 -2.558611 1.726820 0
M  V30 8 N -0.099620 -2.287428 0.449196 0
M  V30 9 N -1.015040 -1.505672 -0.132050 0
M  V30 10 C -0.887035 -1.053511 -1.499886 0
M  V30 11 C -1.631046 -1.919240 -2.499678 0
M  V30 12 C -3.115124 -1.920889 -2.233407 0
M  V30 13 N -3.758085 -0.692146 -2.303793 0
M  V30 14 C -5.163906 -0.638875 -1.970391 0
M  V30 15 C -5.623666 0.792817 -1.762486 0
M  V30 16 O -5.395430 1.477141 -2.952074 0
M  V30 17 C -4.011873 1.601672 -3.096746 0
M  V30 18 C -3.430298 0.210757 -3.368617 0
M  V30 19 C -1.925661 -1.291958 0.835271 0
M  V30 20 N -3.055944 -0.569980 0.788507 0
M  V30 21 C -3.882573 -0.438451 1.843102 0
M  V30 22 C -3.594115 -1.053238 3.036596 0
M  V30 23 C -2.425563 -1.810134 3.115005 0
M  V30 24 C -1.598053 -1.921791 2.004922 0
M  V30 25 C 1.598196 -3.145516 3.036711 0
M  V30 26 C 2.542881 -2.149910 2.565557 0
M  V30 27 C 2.085474 -0.842982 2.447498 0
M  V30 28 N 3.065389 0.003663 2.009183 0
M  V30 29 C 3.061939 1.410266 1.759039 0
M  V30 30 C 2.714514 1.840204 0.379637 0
M  V30 31 C 1.345629 1.423377 -0.063283 0
M  V30 32 N 1.175708 1.933231 -1.410067 0
M  V30 33 C 0.632435 3.141180 -1.745706 0
M  V30 34 C 0.626296 3.335519 -3.113648 0
M  V30 35 N 1.185835 2.206378 -3.626327 0
M  V30 36 C 1.499264 1.399117 -2.601502 0
M  V30 37 C 4.141482 -0.793830 1.853840 0
M  V30 38 C 5.441400 -0.567145 1.443223 0
M  V30 39 C 6.396653 -1.561174 1.360578 0
M  V30 40 C 6.016174 -2.846302 1.710671 0
M  V30 41 C 4.729945 -3.156418 2.132780 0
M  V30 42 C 3.862278 -2.110949 2.182097 0
M  V30 43 H 0.675563 -5.723975 4.992502 0
M  V30 44 H -1.312723 -0.053912 -1.546252 0
M  V30 45 H 0.212218 -1.024878 -1.769658 0
M  V30 46 H -1.277159 -2.958331 -2.330319 0
M  V30 47 H -1.373482 -1.662827 -3.540296 0
M  V30 48 H -3.559471 -2.600487 -3.017027 0
M  V30 49 H -3.281639 -2.435874 -1.271691 0
M  V30 50 H -5.374714 -1.294495 -1.106661 0
M  V30 51 H -5.727254 -1.034168 -2.838451 0
M  V30 52 H -5.103707 1.267018 -0.895374 0
M  V30 53 H -6.704549 0.773468 -1.598746 0
M  V30 54 H -3.792617 2.266234 -3.947859 0
M  V30 55 H -3.624059 2.060806 -2.174865 0
M  V30 56 H -3.982929 -0.155883 -4.258962 0
M  V30 57 H -2.385231 0.274980 -3.621384 0
M  V30 58 H -4.779738 0.134463 1.805023 0
M  V30 59 H -4.156157 -1.035088 3.949721 0
M  V30 60 H -2.137063 -2.317225 4.022172 0
M  V30 61 H 1.098870 -0.392576 2.640370 0
M  V30 62 H 4.072676 1.814375 2.010992 0
M  V30 63 H 2.378079 1.937566 2.479559 0
M  V30 64 H 3.424241 1.471639 -0.393634 0
M  V30 65 H 2.770785 2.945899 0.337522 0
M  V30 66 H 0.543444 1.900814 0.551345 0
M  V30 67 H 1.179486 0.352505 -0.070116 0
M  V30 68 H 0.226261 3.914081 -1.093745 0
M  V30 69 H 0.298467 4.119339 -3.768266 0
M  V30 70 H 1.961589 0.426770 -2.710338 0
M  V30 71 H 5.677458 0.464815 1.183026 0
M  V30 72 H 7.384150 -1.299530 1.033343 0
M  V30 73 H 6.787345 -3.613309 1.638160 0
M  V30 74 H 4.438647 -4.162260 2.398241 0
M  V30 END ATOM
M  V30 BEGIN BOND
M  V30 1 2 1 2
M  V30 2 1 2 3
M  V30 3 1 3 4
M  V30 4 2 4 5
M  V30 5 1 4 6
M  V30 6 1 6 7
M  V30 7 2 7 8
M  V30 8 1 8 9
M  V30 9 1 9 10
M  V30 10 1 10 11
M  V30 11 1 11 12
M  V30 12 1 12 13
M  V30 13 1 13 14
M  V30 14 1 14 15
M  V30 15 1 15 16
M  V30 16 1 16 17
M  V30 17 1 17 18
M  V30 18 1 9 19
M  V30 19 2 19 20
M  V30 20 1 20 21
M  V30 21 2 21 22
M  V30 22 1 22 23
M  V30 23 2 23 24
M  V30 24 2 6 25
M  V30 25 1 25 26
M  V30 26 2 26 27
M  V30 27 1 27 28
M  V30 28 1 28 29
M  V30 29 1 29 30
M  V30 30 1 30 31
M  V30 31 1 31 32
M  V30 32 1 32 33
M  V30 33 2 33 34
M  V30 34 1 34 35
M  V30 35 2 35 36
M  V30 36 1 28 37
M  V30 37 2 37 38
M  V30 38 1 38 39
M  V30 39 2 39 40
M  V30 40 1 40 41
M  V30 41 2 41 42
M  V30 42 1 25 2
M  V30 43 1 42 26
M  V30 44 1 24 7
M  V30 45 1 36 32
M  V30 46 1 42 37
M  V30 47 1 18 13
M  V30 48 1 24 19
M  V30 49 1 3 43
M  V30 50 1 10 44
M  V30 51 1 10 45
M  V30 52 1 11 46
M  V30 53 1 11 47
M  V30 54 1 12 48
M  V30 55 1 12 49
M  V30 56 1 14 50
M  V30 57 1 14 51
M  V30 58 1 15 52
M  V30 59 1 15 53
M  V30 60 1 17 54
M  V30 61 1 17 55
M  V30 62 1 18 56
M  V30 63 1 18 57
M  V30 64 1 21 58
M  V30 65 1 22 59
M  V30 66 1 23 60
M  V30 67 1 27 61
M  V30 68 1 29 62
M  V30 69 1 29 63
M  V30 70 1 30 64
M  V30 71 1 30 65
M  V30 72 1 31 66
M  V30 73 1 31 67
M  V30 74 1 33 68
M  V30 75 1 34 69
M  V30 76 1 36 70
M  V30 77 1 38 71
M  V30 78 1 39 72
M  V30 79 1 40 73
M  V30 80 1 41 74
M  V30 END BOND
M  V30 END CTAB
M  END
>  <Dataset>  (22) 
ChEMBL_Kinases

>  <Ligand_Instance>  (22) 
nan

>  <PDB_ID>  (22) 
nan

>  <Standardized_SMILES>  (22) 
O=C1NC(=O)C(c2nn(CCCN3CCOCC3)c3ncccc23)=C1c1cn(CCCn2ccnc2)c2ccccc12

>  <Name>  (22) 
nan

>  <Pocket>  (22) 
nan

>  <ATP_Site>  (22) 
nan

>  <Peripheral>  (22) 
nan

>  <Num_H_Atoms_ProtBoundConf>  (22) 
nan

>  <Num_Resolved_Atoms>  (22) 
nan

>  <Num_Not_Resolved_Atoms>  (22) 
nan

$$$$
CHEMBL3099840
     RDKit          3D

  0  0  0  0  0  0  0  0  0  0999 V3000
M  V30 BEGIN CTAB
M  V30 COUNTS 58 63 0 0 0
M  V30 BEGIN ATOM
M  V30 1 O -3.130546 -5.006882 1.366421 0
M  V30 2 C -2.242717 -4.153342 1.564025 0
M  V30 3 N -1.969901 -3.720944 2.894112 0
M  V30 4 C -0.909584 -2.756338 2.749807 0
M  V30 5 O -0.406201 -2.155473 3.756942 0
M  V30 6 C -0.555431 -2.619749 1.316949 0
M  V30 7 C 0.488803 -1.679373 0.932077 0
M  V30 8 N 1.662375 -1.572522 1.593311 0
M  V30 9 N 2.448604 -0.644240 1.062820 0
M  V30 10 C 3.763116 -0.200168 1.447688 0
M  V30 11 C 3.785322 0.892175 2.478603 0
M  V30 12 C 3.101496 2.155587 2.136972 0
M  V30 13 N 1.654829 2.009508 1.955059 0
M  V30 14 C 1.084201 3.254071 1.488534 0
M  V30 15 C -0.361739 3.429148 1.824544 0
M  V30 16 O -0.643313 3.179148 3.167892 0
M  V30 17 C -0.410341 1.797005 3.309855 0
M  V30 18 C 1.048644 1.566266 3.190769 0
M  V30 19 C 1.799304 -0.084748 -0.005925 0
M  V30 20 N 2.098140 0.883078 -0.920052 0
M  V30 21 C 1.218203 1.205064 -1.879956 0
M  V30 22 C -0.017544 0.571960 -1.979086 0
M  V30 23 C -0.304493 -0.403867 -1.049880 0
M  V30 24 C 0.597573 -0.737042 -0.064587 0
M  V30 25 C -1.350242 -3.444574 0.663397 0
M  V30 26 C -1.292003 -3.615233 -0.781510 0
M  V30 27 C -0.181694 -3.767827 -1.607962 0
M  V30 28 N -0.533630 -3.867096 -2.902199 0
M  V30 29 C -1.875735 -3.782370 -2.954985 0
M  V30 30 C -2.764479 -3.818137 -4.036087 0
M  V30 31 C -4.120160 -3.697186 -3.784279 0
M  V30 32 C -4.662395 -3.541269 -2.517027 0
M  V30 33 C -3.736683 -3.512402 -1.490281 0
M  V30 34 C -2.387941 -3.625545 -1.659017 0
M  V30 35 H -2.427026 -4.024008 3.790036 0
M  V30 36 H 4.301906 0.182966 0.547028 0
M  V30 37 H 4.362313 -1.072592 1.806578 0
M  V30 38 H 4.843974 1.043807 2.827108 0
M  V30 39 H 3.296437 0.450476 3.405774 0
M  V30 40 H 3.540959 2.533482 1.192562 0
M  V30 41 H 3.320375 2.920171 2.909142 0
M  V30 42 H 1.674282 4.107961 1.872522 0
M  V30 43 H 1.190041 3.274956 0.384987 0
M  V30 44 H -0.955492 2.657569 1.251603 0
M  V30 45 H -0.693605 4.411225 1.485158 0
M  V30 46 H -0.948827 1.268392 2.496497 0
M  V30 47 H -0.753959 1.403285 4.277048 0
M  V30 48 H 1.264152 0.499658 3.325613 0
M  V30 49 H 1.549213 2.070363 4.072059 0
M  V30 50 H 1.437213 1.966885 -2.611518 0
M  V30 51 H -0.686576 0.864194 -2.766922 0
M  V30 52 H -1.274412 -0.860072 -1.153150 0
M  V30 53 H 0.856782 -3.803522 -1.252757 0
M  V30 54 H 0.082853 -3.985653 -3.733321 0
M  V30 55 H -2.383097 -3.935818 -5.040685 0
M  V30 56 H -4.844319 -3.719378 -4.613719 0
M  V30 57 H -5.728672 -3.446011 -2.341455 0
M  V30 58 H -4.173744 -3.382873 -0.509866 0
M  V30 END ATOM
M  V30 BEGIN BOND
M  V30 1 2 1 2
M  V30 2 1 2 3
M  V30 3 1 3 4
M  V30 4 2 4 5
M  V30 5 1 4 6
M  V30 6 1 6 7
M  V30 7 2 7 8
M  V30 8 1 8 9
M  V30 9 1 9 10
M  V30 10 1 10 11
M  V30 11 1 11 12
M  V30 12 1 12 13
M  V30 13 1 13 14
M  V30 14 1 14 15
M  V30 15 1 15 16
M  V30 16 1 16 17
M  V30 17 1 17 18
M  V30 18 1 9 19
M  V30 19 2 19 20
M  V30 20 1 20 21
M  V30 21 2 21 22
M  V30 22 1 22 23
M  V30 23 2 23 24
M  V30 24 2 6 25
M  V30 25 1 25 26
M  V30 26 2 26 27
M  V30 27 1 27 28
M  V30 28 1 28 29
M  V30 29 2 29 30
M  V30 30 1 30 31
M  V30 31 2 31 32
M  V30 32 1 32 33
M  V30 33 2 33 34
M  V30 34 1 25 2
M  V30 35 1 34 26
M  V30 36 1 24 7
M  V30 37 1 34 29
M  V30 38 1 18 13
M  V30 39 1 24 19
M  V30 40 1 3 35
M  V30 41 1 10 36
M  V30 42 1 10 37
M  V30 43 1 11 38
M  V30 44 1 11 39
M  V30 45 1 12 40
M  V30 46 1 12 41
M  V30 47 1 14 42
M  V30 48 1 14 43
M  V30 49 1 15 44
M  V30 50 1 15 45
M  V30 51 1 17 46
M  V30 52 1 17 47
M  V30 53 1 18 48
M  V30 54 1 18 49
M  V30 55 1 21 50
M  V30 56 1 22 51
M  V30 57 1 23 52
M  V30 58 1 27 53
M  V30 59 1 28 54
M  V30 60 1 30 55
M  V30 61 1 31 56
M  V30 62 1 32 57
M  V30 63 1 33 58
M  V30 END BOND
M  V30 END CTAB
M  END
>  <Dataset>  (23) 
ChEMBL_Kinases

>  <Ligand_Instance>  (23) 
nan

>  <PDB_ID>  (23) 
nan

>  <Standardized_SMILES>  (23) 
O=C1NC(=O)C(c2nn(CCCN3CCOCC3)c3ncccc23)=C1c1c[nH]c2ccccc12

>  <Name>  (23) 
nan

>  <Pocket>  (23) 
nan

>  <ATP_Site>  (23) 
nan

>  <Peripheral>  (23) 
nan

>  <Num_H_Atoms_ProtBoundConf>  (23) 
nan

>  <Num_Resolved_Atoms>  (23) 
nan

>  <Num_Not_Resolved_Atoms>  (23) 
nan

$$$$
CHEMBL3099842
     RDKit          3D

  0  0  0  0  0  0  0  0  0  0999 V3000
M  V30 BEGIN CTAB
M  V30 COUNTS 36 40 0 0 0
M  V30 BEGIN ATOM
M  V30 1 O -1.470218 -3.732589 2.939704 0
M  V30 2 C -0.430172 -3.091409 2.637612 0
M  V30 3 N 0.792204 -3.066371 3.403579 0
M  V30 4 C 1.701577 -2.223876 2.705484 0
M  V30 5 O 2.833582 -2.088757 3.239497 0
M  V30 6 C 1.038273 -1.729303 1.508653 0
M  V30 7 C 1.711169 -0.869141 0.549391 0
M  V30 8 N 1.702334 -1.022138 -0.805946 0
M  V30 9 N 2.422794 -0.042372 -1.371634 0
M  V30 10 C 2.920444 0.773508 -0.427987 0
M  V30 11 N 3.688561 1.892186 -0.413769 0
M  V30 12 C 4.025764 2.506773 0.730638 0
M  V30 13 C 3.627209 2.063408 1.975371 0
M  V30 14 C 2.835909 0.908666 1.938866 0
M  V30 15 C 2.480098 0.263587 0.774487 0
M  V30 16 C -0.187178 -2.222444 1.461242 0
M  V30 17 C -1.225515 -1.991034 0.469197 0
M  V30 18 C -1.970396 -3.047116 -0.070839 0
M  V30 19 N -2.854798 -2.557409 -0.939955 0
M  V30 20 C -2.760640 -1.217112 -1.028503 0
M  V30 21 C -3.401659 -0.212847 -1.733490 0
M  V30 22 C -3.029423 1.107301 -1.554993 0
M  V30 23 C -2.016993 1.432198 -0.673524 0
M  V30 24 C -1.384696 0.429286 0.022977 0
M  V30 25 C -1.751197 -0.878978 -0.152658 0
M  V30 26 H 0.871271 -3.617639 4.306876 0
M  V30 27 H 2.636414 0.162335 -2.384486 0
M  V30 28 H 4.639687 3.394563 0.699616 0
M  V30 29 H 3.880271 2.531207 2.918541 0
M  V30 30 H 2.515394 0.563283 2.913035 0
M  V30 31 H -1.953004 -4.116556 0.083440 0
M  V30 32 H -3.579792 -3.050403 -1.536913 0
M  V30 33 H -4.195160 -0.477308 -2.425102 0
M  V30 34 H -3.519487 1.916818 -2.097085 0
M  V30 35 H -1.755863 2.453260 -0.559322 0
M  V30 36 H -0.623100 0.729553 0.692984 0
M  V30 END ATOM
M  V30 BEGIN BOND
M  V30 1 2 1 2
M  V30 2 1 2 3
M  V30 3 1 3 4
M  V30 4 2 4 5
M  V30 5 1 4 6
M  V30 6 1 6 7
M  V30 7 2 7 8
M  V30 8 1 8 9
M  V30 9 1 9 10
M  V30 10 2 10 11
M  V30 11 1 11 12
M  V30 12 2 12 13
M  V30 13 1 13 14
M  V30 14 2 14 15
M  V30 15 2 6 16
M  V30 16 1 16 17
M  V30 17 2 17 18
M  V30 18 1 18 19
M  V30 19 1 19 20
M  V30 20 2 20 21
M  V30 21 1 21 22
M  V30 22 2 22 23
M  V30 23 1 23 24
M  V30 24 2 24 25
M  V30 25 1 16 2
M  V30 26 1 25 17
M  V30 27 1 15 7
M  V30 28 1 25 20
M  V30 29 1 15 10
M  V30 30 1 3 26
M  V30 31 1 9 27
M  V30 32 1 12 28
M  V30 33 1 13 29
M  V30 34 1 14 30
M  V30 35 1 18 31
M  V30 36 1 19 32
M  V30 37 1 21 33
M  V30 38 1 22 34
M  V30 39 1 23 35
M  V30 40 1 24 36
M  V30 END BOND
M  V30 END CTAB
M  END
>  <Dataset>  (24) 
ChEMBL_Kinases

>  <Ligand_Instance>  (24) 
nan

>  <PDB_ID>  (24) 
nan

>  <Standardized_SMILES>  (24) 
O=C1NC(=O)C(c2n[nH]c3ncccc23)=C1c1c[nH]c2ccccc12

>  <Name>  (24) 
nan

>  <Pocket>  (24) 
nan

>  <ATP_Site>  (24) 
nan

>  <Peripheral>  (24) 
nan

>  <Num_H_Atoms_ProtBoundConf>  (24) 
nan

>  <Num_Resolved_Atoms>  (24) 
nan

>  <Num_Not_Resolved_Atoms>  (24) 
nan

$$$$
CHEMBL3099962
     RDKit          3D

  0  0  0  0  0  0  0  0  0  0999 V3000
M  V30 BEGIN CTAB
M  V30 COUNTS 53 57 0 0 0
M  V30 BEGIN ATOM
M  V30 1 F -0.404935 -4.188333 0.071630 0
M  V30 2 C 0.709670 -3.451517 -0.128966 0
M  V30 3 C 0.763215 -2.486462 -1.115997 0
M  V30 4 C 1.890677 -1.727558 -1.333299 0
M  V30 5 C 3.005364 -1.930521 -0.545662 0
M  V30 6 C 4.295340 -1.212252 -0.637185 0
M  V30 7 N 5.471795 -1.811188 -0.908681 0
M  V30 8 N 6.466669 -0.938151 -0.927956 0
M  V30 9 C 5.929183 0.248238 -0.664799 0
M  V30 10 C 4.556372 0.137275 -0.471546 0
M  V30 11 C 3.470971 1.031432 -0.173181 0
M  V30 12 C 3.212569 2.062381 -1.084481 0
M  V30 13 C 2.199738 2.968712 -0.901127 0
M  V30 14 N 1.472772 2.793670 0.219610 0
M  V30 15 C 1.668141 1.835811 1.122426 0
M  V30 16 N 0.783866 1.822728 2.237364 0
M  V30 17 C -0.371617 1.014750 2.036387 0
M  V30 18 C -0.568852 0.263518 0.889794 0
M  V30 19 C -1.692686 -0.507522 0.713360 0
M  V30 20 C -2.685748 -0.578546 1.662884 0
M  V30 21 N -3.855112 -1.369139 1.497723 0
M  V30 22 C -4.956259 -1.510182 2.430046 0
M  V30 23 C -6.152973 -0.798621 1.783361 0
M  V30 24 O -6.296076 -1.174019 0.472195 0
M  V30 25 C -5.586981 -2.313956 0.137583 0
M  V30 26 C -4.091800 -2.168030 0.310714 0
M  V30 27 C -2.511046 0.158529 2.808198 0
M  V30 28 C -1.377683 0.930284 2.975702 0
M  V30 29 C 2.681264 0.919105 0.951096 0
M  V30 30 C 2.953589 -2.905258 0.452484 0
M  V30 31 C 1.819296 -3.687338 0.690464 0
M  V30 32 H -0.100175 -2.296936 -1.759379 0
M  V30 33 H 2.010780 -0.956418 -2.081999 0
M  V30 34 H 7.485682 -1.085704 -1.106683 0
M  V30 35 H 6.370936 1.249434 -0.579929 0
M  V30 36 H 3.821869 2.170305 -1.977787 0
M  V30 37 H 1.974957 3.773819 -1.584141 0
M  V30 38 H 0.874892 2.311003 3.142657 0
M  V30 39 H 0.187733 0.288740 0.114194 0
M  V30 40 H -1.761547 -1.061474 -0.211910 0
M  V30 41 H -4.765300 -1.063821 3.410081 0
M  V30 42 H -5.286483 -2.584246 2.512889 0
M  V30 43 H -7.032725 -1.045904 2.415074 0
M  V30 44 H -6.028510 0.282930 1.845755 0
M  V30 45 H -5.789871 -2.516718 -0.954654 0
M  V30 46 H -5.927762 -3.197336 0.680539 0
M  V30 47 H -3.691474 -3.214115 0.457132 0
M  V30 48 H -3.599622 -1.802848 -0.592831 0
M  V30 49 H -3.201886 0.197240 3.628066 0
M  V30 50 H -1.217800 1.524260 3.877500 0
M  V30 51 H 2.848291 0.143842 1.671606 0
M  V30 52 H 3.797159 -3.123616 1.116279 0
M  V30 53 H 1.818196 -4.434260 1.475003 0
M  V30 END ATOM
M  V30 BEGIN BOND
M  V30 1 1 1 2
M  V30 2 2 2 3
M  V30 3 1 3 4
M  V30 4 2 4 5
M  V30 5 1 5 6
M  V30 6 2 6 7
M  V30 7 1 7 8
M  V30 8 1 8 9
M  V30 9 2 9 10
M  V30 10 1 10 11
M  V30 11 2 11 12
M  V30 12 1 12 13
M  V30 13 2 13 14
M  V30 14 1 14 15
M  V30 15 1 15 16
M  V30 16 1 16 17
M  V30 17 2 17 18
M  V30 18 1 18 19
M  V30 19 2 19 20
M  V30 20 1 20 21
M  V30 21 1 21 22
M  V30 22 1 22 23
M  V30 23 1 23 24
M  V30 24 1 24 25
M  V30 25 1 25 26
M  V30 26 1 20 27
M  V30 27 2 27 28
M  V30 28 2 15 29
M  V30 29 1 5 30
M  V30 30 2 30 31
M  V30 31 1 31 2
M  V30 32 1 10 6
M  V30 33 1 29 11
M  V30 34 1 28 17
M  V30 35 1 26 21
M  V30 36 1 3 32
M  V30 37 1 4 33
M  V30 38 1 8 34
M  V30 39 1 9 35
M  V30 40 1 12 36
M  V30 41 1 13 37
M  V30 42 1 16 38
M  V30 43 1 18 39
M  V30 44 1 19 40
M  V30 45 1 22 41
M  V30 46 1 22 42
M  V30 47 1 23 43
M  V30 48 1 23 44
M  V30 49 1 25 45
M  V30 50 1 25 46
M  V30 51 1 26 47
M  V30 52 1 26 48
M  V30 53 1 27 49
M  V30 54 1 28 50
M  V30 55 1 29 51
M  V30 56 1 30 52
M  V30 57 1 31 53
M  V30 END BOND
M  V30 END CTAB
M  END
>  <Dataset>  (25) 
ChEMBL_Kinases

>  <Ligand_Instance>  (25) 
nan

>  <PDB_ID>  (25) 
nan

>  <Standardized_SMILES>  (25) 
Fc1ccc(-c2n[nH]cc2-c2ccnc(Nc3ccc(N4CCOCC4)cc3)c2)cc1

>  <Name>  (25) 
nan

>  <Pocket>  (25) 
nan

>  <ATP_Site>  (25) 
nan

>  <Peripheral>  (25) 
nan

>  <Num_H_Atoms_ProtBoundConf>  (25) 
nan

>  <Num_Resolved_Atoms>  (25) 
nan

>  <Num_Not_Resolved_Atoms>  (25) 
nan

$$$$
CHEMBL3099967
     RDKit          3D

  0  0  0  0  0  0  0  0  0  0999 V3000
M  V30 BEGIN CTAB
M  V30 COUNTS 59 64 0 0 0
M  V30 BEGIN ATOM
M  V30 1 F 3.199735 -3.364606 3.697433 0
M  V30 2 C 3.089473 -2.826677 2.465046 0
M  V30 3 C 4.123507 -2.792710 1.544632 0
M  V30 4 C 3.939371 -2.229578 0.311750 0
M  V30 5 C 2.722577 -1.669140 -0.079451 0
M  V30 6 C 2.664993 -1.113042 -1.411052 0
M  V30 7 C 2.663671 0.140264 -2.034371 0
M  V30 8 C 2.763312 1.291665 -1.111711 0
M  V30 9 C 3.870763 2.153568 -1.124178 0
M  V30 10 C 3.857373 3.199729 -0.201110 0
M  V30 11 N 2.877759 3.418812 0.667249 0
M  V30 12 C 1.809099 2.623159 0.710085 0
M  V30 13 N 0.709368 2.720947 1.600825 0
M  V30 14 C -0.446050 1.903417 1.525098 0
M  V30 15 C -0.783534 1.303676 2.727118 0
M  V30 16 C -1.875239 0.474555 2.855993 0
M  V30 17 C -2.688272 0.205778 1.773487 0
M  V30 18 N -3.840341 -0.661336 1.842211 0
M  V30 19 C -4.717406 -1.040955 0.754295 0
M  V30 20 C -6.137005 -0.755651 1.168152 0
M  V30 21 O -6.411690 -0.994565 2.490273 0
M  V30 22 C -5.492756 -1.844531 3.095466 0
M  V30 23 C -4.115854 -1.195806 3.162304 0
M  V30 24 C -2.339698 0.811151 0.586486 0
M  V30 25 C -1.256544 1.645984 0.418584 0
M  V30 26 C 1.790283 1.592721 -0.177090 0
M  V30 27 N 2.574457 -0.038073 -3.364567 0
M  V30 28 O 2.520068 -1.310776 -3.631587 0
M  V30 29 C 2.571222 -2.004158 -2.490049 0
M  V30 30 C 2.530415 -3.509512 -2.461883 0
M  V30 31 C 1.130058 -4.093372 -2.265424 0
M  V30 32 C 1.859004 -4.241232 -3.555978 0
M  V30 33 C 1.706503 -1.716707 0.859246 0
M  V30 34 C 1.898145 -2.284583 2.098282 0
M  V30 35 H 5.079298 -3.235426 1.852644 0
M  V30 36 H 4.799042 -2.232531 -0.374007 0
M  V30 37 H 4.680822 1.978268 -1.836631 0
M  V30 38 H 4.695264 3.881896 -0.180920 0
M  V30 39 H 0.724396 3.442141 2.381852 0
M  V30 40 H -0.200901 1.453049 3.651815 0
M  V30 41 H -2.108295 0.022905 3.810401 0
M  V30 42 H -4.636292 -2.141471 0.539082 0
M  V30 43 H -4.464511 -0.528373 -0.197293 0
M  V30 44 H -6.346563 0.337995 0.977628 0
M  V30 45 H -6.851463 -1.297403 0.480062 0
M  V30 46 H -5.865488 -2.034376 4.137784 0
M  V30 47 H -5.469469 -2.819239 2.581951 0
M  V30 48 H -3.386746 -2.015068 3.341580 0
M  V30 49 H -4.072136 -0.432654 3.962528 0
M  V30 50 H -2.878213 0.692653 -0.330566 0
M  V30 51 H -0.972733 2.137365 -0.486771 0
M  V30 52 H 0.978932 0.884480 -0.229739 0
M  V30 53 H 3.340142 -4.007277 -1.897978 0
M  V30 54 H 0.288140 -3.386714 -2.188031 0
M  V30 55 H 1.026880 -4.933329 -1.542835 0
M  V30 56 H 2.255278 -5.267110 -3.767228 0
M  V30 57 H 1.507443 -3.746014 -4.467351 0
M  V30 58 H 0.749602 -1.299014 0.585315 0
M  V30 59 H 1.029673 -2.268106 2.760690 0
M  V30 END ATOM
M  V30 BEGIN BOND
M  V30 1 1 1 2
M  V30 2 2 2 3
M  V30 3 1 3 4
M  V30 4 2 4 5
M  V30 5 1 5 6
M  V30 6 1 6 7
M  V30 7 1 7 8
M  V30 8 2 8 9
M  V30 9 1 9 10
M  V30 10 2 10 11
M  V30 11 1 11 12
M  V30 12 1 12 13
M  V30 13 1 13 14
M  V30 14 2 14 15
M  V30 15 1 15 16
M  V30 16 2 16 17
M  V30 17 1 17 18
M  V30 18 1 18 19
M  V30 19 1 19 20
M  V30 20 1 20 21
M  V30 21 1 21 22
M  V30 22 1 22 23
M  V30 23 1 17 24
M  V30 24 2 24 25
M  V30 25 2 12 26
M  V30 26 2 7 27
M  V30 27 1 27 28
M  V30 28 1 28 29
M  V30 29 1 29 30
M  V30 30 1 30 31
M  V30 31 1 31 32
M  V30 32 1 5 33
M  V30 33 2 33 34
M  V30 34 1 34 2
M  V30 35 2 29 6
M  V30 36 1 32 30
M  V30 37 1 26 8
M  V30 38 1 25 14
M  V30 39 1 23 18
M  V30 40 1 3 35
M  V30 41 1 4 36
M  V30 42 1 9 37
M  V30 43 1 10 38
M  V30 44 1 13 39
M  V30 45 1 15 40
M  V30 46 1 16 41
M  V30 47 1 19 42
M  V30 48 1 19 43
M  V30 49 1 20 44
M  V30 50 1 20 45
M  V30 51 1 22 46
M  V30 52 1 22 47
M  V30 53 1 23 48
M  V30 54 1 23 49
M  V30 55 1 24 50
M  V30 56 1 25 51
M  V30 57 1 26 52
M  V30 58 1 30 53
M  V30 59 1 31 54
M  V30 60 1 31 55
M  V30 61 1 32 56
M  V30 62 1 32 57
M  V30 63 1 33 58
M  V30 64 1 34 59
M  V30 END BOND
M  V30 END CTAB
M  END
>  <Dataset>  (26) 
ChEMBL_Kinases

>  <Ligand_Instance>  (26) 
nan

>  <PDB_ID>  (26) 
nan

>  <Standardized_SMILES>  (26) 
Fc1ccc(-c2c(-c3ccnc(Nc4ccc(N5CCOCC5)cc4)c3)noc2C2CC2)cc1

>  <Name>  (26) 
nan

>  <Pocket>  (26) 
nan

>  <ATP_Site>  (26) 
nan

>  <Peripheral>  (26) 
nan

>  <Num_H_Atoms_ProtBoundConf>  (26) 
nan

>  <Num_Resolved_Atoms>  (26) 
nan

>  <Num_Not_Resolved_Atoms>  (26) 
nan

$$$$
CHEMBL3099968
     RDKit          3D

  0  0  0  0  0  0  0  0  0  0999 V3000
M  V30 BEGIN CTAB
M  V30 COUNTS 55 59 0 0 0
M  V30 BEGIN ATOM
M  V30 1 C 0.787094 -6.255301 1.723813 0
M  V30 2 C 1.764219 -5.128611 1.571936 0
M  V30 3 O 2.784458 -4.995998 2.411018 0
M  V30 4 N 3.490363 -3.961106 2.089794 0
M  V30 5 C 2.949396 -3.364890 1.007941 0
M  V30 6 C 3.311088 -2.192811 0.227799 0
M  V30 7 C 4.513728 -2.297518 -0.484338 0
M  V30 8 C 4.853662 -1.179813 -1.224596 0
M  V30 9 N 4.107723 -0.067373 -1.274308 0
M  V30 10 C 2.959287 0.063589 -0.608291 0
M  V30 11 N 2.196901 1.249006 -0.708378 0
M  V30 12 C 1.046118 1.721080 -0.048720 0
M  V30 13 C 0.702668 1.490688 1.266741 0
M  V30 14 C -0.435054 1.929160 1.907636 0
M  V30 15 C -1.309315 2.672491 1.145260 0
M  V30 16 N -2.513308 3.178653 1.705021 0
M  V30 17 C -2.951763 3.069961 3.080935 0
M  V30 18 C -4.129555 2.107647 3.087266 0
M  V30 19 O -5.020443 2.477279 2.111393 0
M  V30 20 C -4.821083 3.720723 1.571392 0
M  V30 21 C -3.483356 3.897549 0.895688 0
M  V30 22 C -1.052998 2.955113 -0.176809 0
M  V30 23 C 0.106251 2.482523 -0.750476 0
M  V30 24 C 2.595564 -1.018194 0.129612 0
M  V30 25 C 1.821431 -4.091477 0.634837 0
M  V30 26 C 0.803289 -4.045892 -0.368673 0
M  V30 27 C 0.869153 -5.111701 -1.269444 0
M  V30 28 C -0.035386 -5.244869 -2.314131 0
M  V30 29 C -1.003939 -4.270119 -2.417765 0
M  V30 30 F -1.905821 -4.382398 -3.440620 0
M  V30 31 C -1.131521 -3.185186 -1.562254 0
M  V30 32 C -0.190985 -3.137219 -0.558433 0
M  V30 33 H 0.117038 -6.333123 0.860721 0
M  V30 34 H 1.253558 -7.218465 1.931621 0
M  V30 35 H 0.116981 -5.969483 2.581747 0
M  V30 36 H 5.167143 -3.155857 -0.494754 0
M  V30 37 H 5.770497 -1.168040 -1.810718 0
M  V30 38 H 2.546197 1.955991 -1.427644 0
M  V30 39 H 1.376789 0.926693 1.877919 0
M  V30 40 H -0.614780 1.693779 2.945795 0
M  V30 41 H -2.149847 2.734473 3.764109 0
M  V30 42 H -3.312129 4.084143 3.425232 0
M  V30 43 H -3.732746 1.084779 2.850780 0
M  V30 44 H -4.610346 2.026278 4.074387 0
M  V30 45 H -5.627909 3.870380 0.812885 0
M  V30 46 H -4.988780 4.546896 2.308100 0
M  V30 47 H -3.293862 4.987515 0.873569 0
M  V30 48 H -3.595891 3.477619 -0.121050 0
M  V30 49 H -1.684872 3.526886 -0.832869 0
M  V30 50 H 0.343948 2.687237 -1.797009 0
M  V30 51 H 1.703843 -1.050982 0.700768 0
M  V30 52 H 1.620087 -5.908934 -1.226922 0
M  V30 53 H -0.014871 -6.055841 -3.028547 0
M  V30 54 H -1.898982 -2.435037 -1.665099 0
M  V30 55 H -0.223850 -2.332829 0.143378 0
M  V30 END ATOM
M  V30 BEGIN BOND
M  V30 1 1 1 2
M  V30 2 1 2 3
M  V30 3 1 3 4
M  V30 4 2 4 5
M  V30 5 1 5 6
M  V30 6 2 6 7
M  V30 7 1 7 8
M  V30 8 2 8 9
M  V30 9 1 9 10
M  V30 10 1 10 11
M  V30 11 1 11 12
M  V30 12 2 12 13
M  V30 13 1 13 14
M  V30 14 2 14 15
M  V30 15 1 15 16
M  V30 16 1 16 17
M  V30 17 1 17 18
M  V30 18 1 18 19
M  V30 19 1 19 20
M  V30 20 1 20 21
M  V30 21 1 15 22
M  V30 22 2 22 23
M  V30 23 2 10 24
M  V30 24 1 5 25
M  V30 25 1 25 26
M  V30 26 2 26 27
M  V30 27 1 27 28
M  V30 28 2 28 29
M  V30 29 1 29 30
M  V30 30 1 29 31
M  V30 31 2 31 32
M  V30 32 2 25 2
M  V30 33 1 32 26
M  V30 34 1 24 6
M  V30 35 1 23 12
M  V30 36 1 21 16
M  V30 37 1 1 33
M  V30 38 1 1 34
M  V30 39 1 1 35
M  V30 40 1 7 36
M  V30 41 1 8 37
M  V30 42 1 11 38
M  V30 43 1 13 39
M  V30 44 1 14 40
M  V30 45 1 17 41
M  V30 46 1 17 42
M  V30 47 1 18 43
M  V30 48 1 18 44
M  V30 49 1 20 45
M  V30 50 1 20 46
M  V30 51 1 21 47
M  V30 52 1 21 48
M  V30 53 1 22 49
M  V30 54 1 23 50
M  V30 55 1 24 51
M  V30 56 1 27 52
M  V30 57 1 28 53
M  V30 58 1 31 54
M  V30 59 1 32 55
M  V30 END BOND
M  V30 END CTAB
M  END
>  <Dataset>  (27) 
ChEMBL_Kinases

>  <Ligand_Instance>  (27) 
nan

>  <PDB_ID>  (27) 
nan

>  <Standardized_SMILES>  (27) 
Cc1onc(-c2ccnc(Nc3ccc(N4CCOCC4)cc3)c2)c1-c1ccc(F)cc1

>  <Name>  (27) 
nan

>  <Pocket>  (27) 
nan

>  <ATP_Site>  (27) 
nan

>  <Peripheral>  (27) 
nan

>  <Num_H_Atoms_ProtBoundConf>  (27) 
nan

>  <Num_Resolved_Atoms>  (27) 
nan

>  <Num_Not_Resolved_Atoms>  (27) 
nan

$$$$
CHEMBL3099969
     RDKit          3D

  0  0  0  0  0  0  0  0  0  0999 V3000
M  V30 BEGIN CTAB
M  V30 COUNTS 53 57 0 0 0
M  V30 BEGIN ATOM
M  V30 1 N 1.474486 -7.492914 -0.478086 0
M  V30 2 C 2.071674 -6.535854 -0.694125 0
M  V30 3 C 2.816151 -5.334372 -0.950340 0
M  V30 4 O 3.958782 -5.306097 -1.617886 0
M  V30 5 N 4.394816 -4.072451 -1.688187 0
M  V30 6 C 3.505941 -3.261003 -1.042986 0
M  V30 7 C 3.546620 -1.817118 -0.848503 0
M  V30 8 C 4.657371 -1.346872 -0.142982 0
M  V30 9 C 4.770893 0.021371 0.084185 0
M  V30 10 N 3.846391 0.895456 -0.354388 0
M  V30 11 C 2.771615 0.457764 -1.034898 0
M  V30 12 N 1.695573 1.215891 -1.577061 0
M  V30 13 C 0.599236 1.436241 -0.703622 0
M  V30 14 C 0.585022 0.974207 0.604364 0
M  V30 15 C -0.494602 1.198917 1.438805 0
M  V30 16 C -1.606457 1.888499 1.020628 0
M  V30 17 N -2.712767 2.121785 1.870261 0
M  V30 18 C -2.835295 1.709753 3.252243 0
M  V30 19 C -4.121841 1.037512 3.600252 0
M  V30 20 O -5.119983 1.069034 2.704120 0
M  V30 21 C -5.007826 1.759405 1.557962 0
M  V30 22 C -3.928680 2.816965 1.506504 0
M  V30 23 C -1.597536 2.348684 -0.274772 0
M  V30 24 C -0.521210 2.125642 -1.109871 0
M  V30 25 C 2.603419 -0.905633 -1.293537 0
M  V30 26 C 2.475207 -4.037464 -0.554170 0
M  V30 27 C 1.278090 -3.753414 0.190659 0
M  V30 28 C 1.103419 -3.214341 1.469753 0
M  V30 29 C -0.169158 -3.037157 1.969847 0
M  V30 30 C -1.307568 -3.365568 1.271894 0
M  V30 31 F -2.526833 -3.165019 1.822562 0
M  V30 32 C -1.144549 -3.905192 -0.008231 0
M  V30 33 C 0.121113 -4.089957 -0.525335 0
M  V30 34 H 5.482913 -1.910593 0.274192 0
M  V30 35 H 5.585498 0.515498 0.619030 0
M  V30 36 H 1.653992 1.605020 -2.527528 0
M  V30 37 H 1.457666 0.430375 0.939896 0
M  V30 38 H -0.392481 0.797728 2.419803 0
M  V30 39 H -2.824874 2.681271 3.832003 0
M  V30 40 H -1.952778 1.163793 3.636282 0
M  V30 41 H -3.880657 -0.022758 3.834701 0
M  V30 42 H -4.538605 1.428000 4.576025 0
M  V30 43 H -5.987381 2.267765 1.351021 0
M  V30 44 H -4.887662 1.021871 0.729753 0
M  V30 45 H -3.927672 3.267167 0.510226 0
M  V30 46 H -4.206731 3.588365 2.278802 0
M  V30 47 H -2.388494 2.894292 -0.727274 0
M  V30 48 H -0.493421 2.479690 -2.135253 0
M  V30 49 H 1.800006 -1.369929 -1.818355 0
M  V30 50 H 2.046453 -2.991538 1.932234 0
M  V30 51 H -0.204397 -2.613502 2.969156 0
M  V30 52 H -2.047793 -4.162377 -0.553621 0
M  V30 53 H 0.110966 -4.520821 -1.538551 0
M  V30 END ATOM
M  V30 BEGIN BOND
M  V30 1 3 1 2
M  V30 2 1 2 3
M  V30 3 1 3 4
M  V30 4 1 4 5
M  V30 5 2 5 6
M  V30 6 1 6 7
M  V30 7 2 7 8
M  V30 8 1 8 9
M  V30 9 2 9 10
M  V30 10 1 10 11
M  V30 11 1 11 12
M  V30 12 1 12 13
M  V30 13 2 13 14
M  V30 14 1 14 15
M  V30 15 2 15 16
M  V30 16 1 16 17
M  V30 17 1 17 18
M  V30 18 1 18 19
M  V30 19 1 19 20
M  V30 20 1 20 21
M  V30 21 1 21 22
M  V30 22 1 16 23
M  V30 23 2 23 24
M  V30 24 2 11 25
M  V30 25 1 6 26
M  V30 26 1 26 27
M  V30 27 2 27 28
M  V30 28 1 28 29
M  V30 29 2 29 30
M  V30 30 1 30 31
M  V30 31 1 30 32
M  V30 32 2 32 33
M  V30 33 2 26 3
M  V30 34 1 33 27
M  V30 35 1 25 7
M  V30 36 1 24 13
M  V30 37 1 22 17
M  V30 38 1 8 34
M  V30 39 1 9 35
M  V30 40 1 12 36
M  V30 41 1 14 37
M  V30 42 1 15 38
M  V30 43 1 18 39
M  V30 44 1 18 40
M  V30 45 1 19 41
M  V30 46 1 19 42
M  V30 47 1 21 43
M  V30 48 1 21 44
M  V30 49 1 22 45
M  V30 50 1 22 46
M  V30 51 1 23 47
M  V30 52 1 24 48
M  V30 53 1 25 49
M  V30 54 1 28 50
M  V30 55 1 29 51
M  V30 56 1 32 52
M  V30 57 1 33 53
M  V30 END BOND
M  V30 END CTAB
M  END
>  <Dataset>  (28) 
ChEMBL_Kinases

>  <Ligand_Instance>  (28) 
nan

>  <PDB_ID>  (28) 
nan

>  <Standardized_SMILES>  (28) 
N#Cc1onc(-c2ccnc(Nc3ccc(N4CCOCC4)cc3)c2)c1-c1ccc(F)cc1

>  <Name>  (28) 
nan

>  <Pocket>  (28) 
nan

>  <ATP_Site>  (28) 
nan

>  <Peripheral>  (28) 
nan

>  <Num_H_Atoms_ProtBoundConf>  (28) 
nan

>  <Num_Resolved_Atoms>  (28) 
nan

>  <Num_Not_Resolved_Atoms>  (28) 
nan

$$$$
CHEMBL3102935
     RDKit          3D

  0  0  0  0  0  0  0  0  0  0999 V3000
M  V30 BEGIN CTAB
M  V30 COUNTS 36 39 0 0 0
M  V30 BEGIN ATOM
M  V30 1 O -0.187110 -4.145407 5.553847 0
M  V30 2 C 0.121412 -3.643247 4.283776 0
M  V30 3 C 0.244931 -4.554496 3.229895 0
M  V30 4 C 0.545855 -4.147164 1.950285 0
M  V30 5 C 0.728146 -2.799415 1.714964 0
M  V30 6 C 1.054411 -2.243615 0.386503 0
M  V30 7 C 1.808870 -2.925627 -0.560662 0
M  V30 8 N 2.060403 -2.345884 -1.748403 0
M  V30 9 C 1.614092 -1.116215 -2.080884 0
M  V30 10 N 1.746544 -0.371628 -3.182694 0
M  V30 11 C 1.091726 0.811713 -3.000379 0
M  V30 12 C 0.511608 0.835579 -1.729986 0
M  V30 13 C -0.276425 1.895842 -1.111529 0
M  V30 14 C 0.034178 2.227340 0.188266 0
M  V30 15 C -0.652477 3.217757 0.867413 0
M  V30 16 C -1.685389 3.898611 0.220745 0
M  V30 17 C -1.999546 3.566924 -1.086630 0
M  V30 18 C -1.298250 2.567867 -1.754417 0
M  V30 19 C 0.855282 -0.382852 -1.179358 0
M  V30 20 C 0.602717 -0.986538 0.036606 0
M  V30 21 C 0.613159 -1.862708 2.739841 0
M  V30 22 C 0.311533 -2.297360 4.009266 0
M  V30 23 H -0.546746 -3.459714 6.215970 0
M  V30 24 H 0.099539 -5.604007 3.430297 0
M  V30 25 H 0.645695 -4.834561 1.122131 0
M  V30 26 H 2.164651 -3.902344 -0.299137 0
M  V30 27 H 2.273445 -0.655097 -4.053086 0
M  V30 28 H 1.030521 1.621454 -3.740185 0
M  V30 29 H 0.799270 1.794964 0.811354 0
M  V30 30 H -0.469302 3.534675 1.885217 0
M  V30 31 H -2.243703 4.682605 0.727383 0
M  V30 32 H -2.810999 4.115919 -1.566609 0
M  V30 33 H -1.537170 2.305046 -2.769385 0
M  V30 34 H 0.023604 -0.470688 0.770315 0
M  V30 35 H 0.737159 -0.799678 2.651578 0
M  V30 36 H 0.202031 -1.654924 4.862674 0
M  V30 END ATOM
M  V30 BEGIN BOND
M  V30 1 1 1 2
M  V30 2 2 2 3
M  V30 3 1 3 4
M  V30 4 2 4 5
M  V30 5 1 5 6
M  V30 6 2 6 7
M  V30 7 1 7 8
M  V30 8 2 8 9
M  V30 9 1 9 10
M  V30 10 1 10 11
M  V30 11 2 11 12
M  V30 12 1 12 13
M  V30 13 2 13 14
M  V30 14 1 14 15
M  V30 15 2 15 16
M  V30 16 1 16 17
M  V30 17 2 17 18
M  V30 18 1 12 19
M  V30 19 2 19 20
M  V30 20 1 5 21
M  V30 21 2 21 22
M  V30 22 1 22 2
M  V30 23 1 20 6
M  V30 24 1 19 9
M  V30 25 1 18 13
M  V30 26 1 1 23
M  V30 27 1 3 24
M  V30 28 1 4 25
M  V30 29 1 7 26
M  V30 30 1 10 27
M  V30 31 1 11 28
M  V30 32 1 14 29
M  V30 33 1 15 30
M  V30 34 1 16 31
M  V30 35 1 17 32
M  V30 36 1 18 33
M  V30 37 1 20 34
M  V30 38 1 21 35
M  V30 39 1 22 36
M  V30 END BOND
M  V30 END CTAB
M  END
>  <Dataset>  (29) 
ChEMBL_Kinases

>  <Ligand_Instance>  (29) 
nan

>  <PDB_ID>  (29) 
nan

>  <Standardized_SMILES>  (29) 
Oc1ccc(-c2cnc3[nH]cc(-c4ccccc4)c3c2)cc1

>  <Name>  (29) 
nan

>  <Pocket>  (29) 
nan

>  <ATP_Site>  (29) 
nan

>  <Peripheral>  (29) 
nan

>  <Num_H_Atoms_ProtBoundConf>  (29) 
nan

>  <Num_Resolved_Atoms>  (29) 
nan

>  <Num_Not_Resolved_Atoms>  (29) 
nan

$$$$
CHEMBL3099971
     RDKit          3D

  0  0  0  0  0  0  0  0  0  0999 V3000
M  V30 BEGIN CTAB
M  V30 COUNTS 60 64 0 0 0
M  V30 BEGIN ATOM
M  V30 1 C 3.221201 -4.838926 2.260965 0
M  V30 2 N 3.038359 -3.406976 2.531785 0
M  V30 3 C 2.211767 -3.063657 3.695562 0
M  V30 4 C 3.503595 -2.220291 1.899116 0
M  V30 5 O 4.591700 -1.579553 2.283662 0
M  V30 6 N 4.810866 -0.531240 1.561666 0
M  V30 7 C 3.858611 -0.398253 0.621568 0
M  V30 8 C 3.364000 0.427925 -0.502770 0
M  V30 9 C 3.667979 0.361442 -1.831209 0
M  V30 10 C 3.034455 1.247149 -2.676247 0
M  V30 11 N 2.151787 2.148714 -2.239378 0
M  V30 12 C 1.810372 2.270737 -0.970849 0
M  V30 13 N 0.866634 3.192856 -0.386443 0
M  V30 14 C -0.348473 2.459759 -0.325591 0
M  V30 15 C -1.268747 2.098270 -1.291300 0
M  V30 16 C -2.368826 1.346656 -0.936168 0
M  V30 17 C -2.580424 0.938465 0.371146 0
M  V30 18 N -3.750888 0.164681 0.672255 0
M  V30 19 C -3.927708 -0.617845 1.888914 0
M  V30 20 C -4.728347 -1.849506 1.522556 0
M  V30 21 O -5.973706 -1.577094 1.018868 0
M  V30 22 C -6.110272 -0.402359 0.332293 0
M  V30 23 C -4.853121 0.147728 -0.264889 0
M  V30 24 C -1.664941 1.295521 1.341318 0
M  V30 25 C -0.560939 2.051960 0.979967 0
M  V30 26 C 2.430013 1.393659 -0.090987 0
M  V30 27 C 2.991194 -1.491921 0.819929 0
M  V30 28 C 1.765219 -1.958820 0.132711 0
M  V30 29 C 0.431294 -1.931358 0.494271 0
M  V30 30 C -0.476304 -2.450767 -0.383585 0
M  V30 31 C -0.171666 -3.002819 -1.604927 0
M  V30 32 F -1.117957 -3.499154 -2.428261 0
M  V30 33 C 1.179761 -3.028339 -1.966182 0
M  V30 34 C 2.127237 -2.511002 -1.102616 0
M  V30 35 H 3.939002 -5.205892 3.014230 0
M  V30 36 H 3.495947 -5.026419 1.214030 0
M  V30 37 H 2.237469 -5.331877 2.513373 0
M  V30 38 H 1.749269 -3.963362 4.144493 0
M  V30 39 H 2.896524 -2.529023 4.418057 0
M  V30 40 H 1.465785 -2.310083 3.384137 0
M  V30 41 H 4.388708 -0.401354 -2.058242 0
M  V30 42 H 3.297014 1.166367 -3.715289 0
M  V30 43 H 1.017198 4.194989 -0.063796 0
M  V30 44 H -0.993490 2.470896 -2.253587 0
M  V30 45 H -3.053285 1.098865 -1.742070 0
M  V30 46 H -2.907496 -1.023944 2.163236 0
M  V30 47 H -4.377926 -0.056877 2.703580 0
M  V30 48 H -4.092387 -2.408290 0.772468 0
M  V30 49 H -4.863191 -2.456932 2.435373 0
M  V30 50 H -6.546292 0.366405 1.025483 0
M  V30 51 H -6.803398 -0.583810 -0.539970 0
M  V30 52 H -4.562730 -0.441518 -1.133147 0
M  V30 53 H -5.108425 1.207257 -0.574326 0
M  V30 54 H -1.899366 0.940991 2.335699 0
M  V30 55 H 0.059504 2.243664 1.869154 0
M  V30 56 H 2.159596 1.481463 0.978240 0
M  V30 57 H 0.311574 -1.486599 1.446835 0
M  V30 58 H -1.500820 -2.397391 -0.041729 0
M  V30 59 H 1.378009 -3.469917 -2.930088 0
M  V30 60 H 3.116155 -2.608212 -1.528422 0
M  V30 END ATOM
M  V30 BEGIN BOND
M  V30 1 1 1 2
M  V30 2 1 2 3
M  V30 3 1 2 4
M  V30 4 1 4 5
M  V30 5 1 5 6
M  V30 6 2 6 7
M  V30 7 1 7 8
M  V30 8 2 8 9
M  V30 9 1 9 10
M  V30 10 2 10 11
M  V30 11 1 11 12
M  V30 12 1 12 13
M  V30 13 1 13 14
M  V30 14 2 14 15
M  V30 15 1 15 16
M  V30 16 2 16 17
M  V30 17 1 17 18
M  V30 18 1 18 19
M  V30 19 1 19 20
M  V30 20 1 20 21
M  V30 21 1 21 22
M  V30 22 1 22 23
M  V30 23 1 17 24
M  V30 24 2 24 25
M  V30 25 2 12 26
M  V30 26 1 7 27
M  V30 27 1 27 28
M  V30 28 2 28 29
M  V30 29 1 29 30
M  V30 30 2 30 31
M  V30 31 1 31 32
M  V30 32 1 31 33
M  V30 33 2 33 34
M  V30 34 2 27 4
M  V30 35 1 34 28
M  V30 36 1 26 8
M  V30 37 1 25 14
M  V30 38 1 23 18
M  V30 39 1 1 35
M  V30 40 1 1 36
M  V30 41 1 1 37
M  V30 42 1 3 38
M  V30 43 1 3 39
M  V30 44 1 3 40
M  V30 45 1 9 41
M  V30 46 1 10 42
M  V30 47 1 13 43
M  V30 48 1 15 44
M  V30 49 1 16 45
M  V30 50 1 19 46
M  V30 51 1 19 47
M  V30 52 1 20 48
M  V30 53 1 20 49
M  V30 54 1 22 50
M  V30 55 1 22 51
M  V30 56 1 23 52
M  V30 57 1 23 53
M  V30 58 1 24 54
M  V30 59 1 25 55
M  V30 60 1 26 56
M  V30 61 1 29 57
M  V30 62 1 30 58
M  V30 63 1 33 59
M  V30 64 1 34 60
M  V30 END BOND
M  V30 END CTAB
M  END
>  <Dataset>  (30) 
ChEMBL_Kinases

>  <Ligand_Instance>  (30) 
nan

>  <PDB_ID>  (30) 
nan

>  <Standardized_SMILES>  (30) 
CN(C)c1onc(-c2ccnc(Nc3ccc(N4CCOCC4)cc3)c2)c1-c1ccc(F)cc1

>  <Name>  (30) 
nan

>  <Pocket>  (30) 
nan

>  <ATP_Site>  (30) 
nan

>  <Peripheral>  (30) 
nan

>  <Num_H_Atoms_ProtBoundConf>  (30) 
nan

>  <Num_Resolved_Atoms>  (30) 
nan

>  <Num_Not_Resolved_Atoms>  (30) 
nan

$$$$
CHEMBL3099973
     RDKit          3D

  0  0  0  0  0  0  0  0  0  0999 V3000
M  V30 BEGIN CTAB
M  V30 COUNTS 67 72 0 0 0
M  V30 BEGIN ATOM
M  V30 1 F 5.412061 2.975089 3.595445 0
M  V30 2 C 4.746367 1.883185 3.130637 0
M  V30 3 C 5.286949 0.613320 3.327955 0
M  V30 4 C 4.580009 -0.458690 2.839660 0
M  V30 5 C 3.362201 -0.350245 2.163124 0
M  V30 6 C 2.823374 -1.616598 1.751975 0
M  V30 7 C 2.578284 -1.975378 0.445373 0
M  V30 8 C 2.761899 -1.245409 -0.829677 0
M  V30 9 C 3.955928 -0.779268 -1.336561 0
M  V30 10 C 3.925759 -0.120915 -2.550828 0
M  V30 11 N 2.798217 0.081735 -3.248851 0
M  V30 12 C 1.620078 -0.352048 -2.794956 0
M  V30 13 N 0.460302 -0.129148 -3.587054 0
M  V30 14 C -0.917045 -0.346017 -3.309059 0
M  V30 15 C -1.817951 -0.847965 -4.242547 0
M  V30 16 C -3.151929 -1.016617 -3.893063 0
M  V30 17 C -3.648525 -0.711952 -2.655704 0
M  V30 18 N -5.021948 -0.920906 -2.384728 0
M  V30 19 C -5.983566 -1.531080 -3.278721 0
M  V30 20 C -6.299716 -2.905543 -2.686095 0
M  V30 21 O -6.027926 -2.928216 -1.329295 0
M  V30 22 C -6.433068 -1.793936 -0.667151 0
M  V30 23 C -5.691776 -0.545217 -1.150094 0
M  V30 24 C -2.781026 -0.218824 -1.729914 0
M  V30 25 C -1.426250 -0.032618 -2.040468 0
M  V30 26 C 1.609453 -1.014563 -1.586162 0
M  V30 27 N 2.073946 -3.245811 0.450389 0
M  V30 28 O 2.007956 -3.657635 1.696464 0
M  V30 29 C 2.446759 -2.710755 2.495939 0
M  V30 30 N 2.504332 -2.844869 3.907990 0
M  V30 31 C 1.391396 -2.458781 4.786988 0
M  V30 32 C 1.066714 -1.019620 4.687829 0
M  V30 33 C 0.177645 -0.388540 3.840041 0
M  V30 34 C 0.011113 0.969785 3.893571 0
M  V30 35 C 0.712665 1.747809 4.781407 0
M  V30 36 C 1.613689 1.178868 5.652975 0
M  V30 37 C 1.758699 -0.195744 5.573190 0
M  V30 38 C 2.860381 0.944326 1.989720 0
M  V30 39 C 3.551590 2.032376 2.470675 0
M  V30 40 H 6.227925 0.521548 3.850268 0
M  V30 41 H 5.076601 -1.420677 3.038901 0
M  V30 42 H 4.827083 -0.972581 -0.730786 0
M  V30 43 H 4.876230 0.239554 -2.933975 0
M  V30 44 H 0.547648 0.256899 -4.542637 0
M  V30 45 H -1.384073 -1.072678 -5.202441 0
M  V30 46 H -3.707208 -1.412350 -4.725517 0
M  V30 47 H -5.645401 -1.673972 -4.302211 0
M  V30 48 H -6.917768 -0.899703 -3.329882 0
M  V30 49 H -5.636060 -3.632517 -3.228186 0
M  V30 50 H -7.341813 -3.217153 -2.921135 0
M  V30 51 H -7.546294 -1.647646 -0.725034 0
M  V30 52 H -6.231556 -1.941503 0.410865 0
M  V30 53 H -5.021982 -0.232781 -0.344763 0
M  V30 54 H -6.472058 0.229935 -1.337423 0
M  V30 55 H -3.089762 0.046944 -0.729144 0
M  V30 56 H -0.807103 0.378832 -1.243451 0
M  V30 57 H 0.696174 -1.387746 -1.195106 0
M  V30 58 H 3.390578 -3.236750 4.285309 0
M  V30 59 H 0.484801 -3.008882 4.396594 0
M  V30 60 H 1.542962 -2.806245 5.806099 0
M  V30 61 H -0.338412 -1.064500 3.168964 0
M  V30 62 H -0.692876 1.432795 3.216855 0
M  V30 63 H 0.585917 2.833354 4.832650 0
M  V30 64 H 2.169946 1.781796 6.355720 0
M  V30 65 H 2.485734 -0.604827 6.284940 0
M  V30 66 H 1.919310 0.945571 1.461719 0
M  V30 67 H 3.115179 3.001485 2.307163 0
M  V30 END ATOM
M  V30 BEGIN BOND
M  V30 1 1 1 2
M  V30 2 2 2 3
M  V30 3 1 3 4
M  V30 4 2 4 5
M  V30 5 1 5 6
M  V30 6 1 6 7
M  V30 7 1 7 8
M  V30 8 2 8 9
M  V30 9 1 9 10
M  V30 10 2 10 11
M  V30 11 1 11 12
M  V30 12 1 12 13
M  V30 13 1 13 14
M  V30 14 2 14 15
M  V30 15 1 15 16
M  V30 16 2 16 17
M  V30 17 1 17 18
M  V30 18 1 18 19
M  V30 19 1 19 20
M  V30 20 1 20 21
M  V30 21 1 21 22
M  V30 22 1 22 23
M  V30 23 1 17 24
M  V30 24 2 24 25
M  V30 25 2 12 26
M  V30 26 2 7 27
M  V30 27 1 27 28
M  V30 28 1 28 29
M  V30 29 1 29 30
M  V30 30 1 30 31
M  V30 31 1 31 32
M  V30 32 2 32 33
M  V30 33 1 33 34
M  V30 34 2 34 35
M  V30 35 1 35 36
M  V30 36 2 36 37
M  V30 37 1 5 38
M  V30 38 2 38 39
M  V30 39 1 39 2
M  V30 40 2 29 6
M  V30 41 1 37 32
M  V30 42 1 26 8
M  V30 43 1 25 14
M  V30 44 1 23 18
M  V30 45 1 3 40
M  V30 46 1 4 41
M  V30 47 1 9 42
M  V30 48 1 10 43
M  V30 49 1 13 44
M  V30 50 1 15 45
M  V30 51 1 16 46
M  V30 52 1 19 47
M  V30 53 1 19 48
M  V30 54 1 20 49
M  V30 55 1 20 50
M  V30 56 1 22 51
M  V30 57 1 22 52
M  V30 58 1 23 53
M  V30 59 1 23 54
M  V30 60 1 24 55
M  V30 61 1 25 56
M  V30 62 1 26 57
M  V30 63 1 30 58
M  V30 64 1 31 59
M  V30 65 1 31 60
M  V30 66 1 33 61
M  V30 67 1 34 62
M  V30 68 1 35 63
M  V30 69 1 36 64
M  V30 70 1 37 65
M  V30 71 1 38 66
M  V30 72 1 39 67
M  V30 END BOND
M  V30 END CTAB
M  END
>  <Dataset>  (31) 
ChEMBL_Kinases

>  <Ligand_Instance>  (31) 
nan

>  <PDB_ID>  (31) 
nan

>  <Standardized_SMILES>  (31) 
Fc1ccc(-c2c(-c3ccnc(Nc4ccc(N5CCOCC5)cc4)c3)noc2NCc2ccccc2)cc1

>  <Name>  (31) 
nan

>  <Pocket>  (31) 
nan

>  <ATP_Site>  (31) 
nan

>  <Peripheral>  (31) 
nan

>  <Num_H_Atoms_ProtBoundConf>  (31) 
nan

>  <Num_Resolved_Atoms>  (31) 
nan

>  <Num_Not_Resolved_Atoms>  (31) 
nan

$$$$
CHEMBL3099974
     RDKit          3D

  0  0  0  0  0  0  0  0  0  0999 V3000
M  V30 BEGIN CTAB
M  V30 COUNTS 68 72 0 0 0
M  V30 BEGIN ATOM
M  V30 1 C 2.386009 -2.016823 6.173709 0
M  V30 2 N 2.929430 -2.597710 4.941225 0
M  V30 3 C 3.828074 -3.642003 5.320285 0
M  V30 4 C 3.509520 -1.512839 4.211195 0
M  V30 5 C 4.135064 -1.909612 2.892233 0
M  V30 6 N 4.702382 -0.762060 2.204391 0
M  V30 7 C 3.801426 0.285044 1.869068 0
M  V30 8 O 3.517715 1.217822 2.717286 0
M  V30 9 N 2.677669 2.083142 2.227923 0
M  V30 10 C 2.350344 1.734746 0.953314 0
M  V30 11 C 1.446664 2.423085 0.036796 0
M  V30 12 C 1.740184 3.087184 -1.136782 0
M  V30 13 C 0.729487 3.673061 -1.867724 0
M  V30 14 N -0.581496 3.633711 -1.487705 0
M  V30 15 C -0.906495 2.988703 -0.338587 0
M  V30 16 N -2.275027 2.915775 0.105350 0
M  V30 17 C -3.034489 1.798849 -0.367078 0
M  V30 18 C -4.354677 1.610222 -0.015471 0
M  V30 19 C -5.130882 0.554235 -0.440686 0
M  V30 20 C -4.579163 -0.393866 -1.274580 0
M  V30 21 N -5.278888 -1.525532 -1.780278 0
M  V30 22 C -4.805625 -2.577919 -2.653986 0
M  V30 23 C -5.004131 -3.953953 -2.044888 0
M  V30 24 O -6.353101 -4.181838 -1.858681 0
M  V30 25 C -6.800095 -3.261301 -0.910870 0
M  V30 26 C -6.652222 -1.861495 -1.511245 0
M  V30 27 C -3.254940 -0.251244 -1.658478 0
M  V30 28 C -2.511265 0.834258 -1.201368 0
M  V30 29 C 0.094541 2.394416 0.408949 0
M  V30 30 C 3.075251 0.582794 0.734077 0
M  V30 31 C 3.119220 -0.227629 -0.472733 0
M  V30 32 C 3.710717 0.224430 -1.633477 0
M  V30 33 C 3.765926 -0.514764 -2.797243 0
M  V30 34 C 3.212849 -1.775981 -2.845282 0
M  V30 35 F 3.237119 -2.545686 -3.959317 0
M  V30 36 C 2.610477 -2.267294 -1.704716 0
M  V30 37 C 2.578263 -1.493487 -0.562736 0
M  V30 38 H 3.278870 -1.704250 6.788522 0
M  V30 39 H 1.908201 -2.819264 6.774395 0
M  V30 40 H 1.708079 -1.176416 5.981262 0
M  V30 41 H 4.212745 -4.232963 4.467640 0
M  V30 42 H 3.253950 -4.332726 5.984394 0
M  V30 43 H 4.682465 -3.236636 5.908419 0
M  V30 44 H 2.688030 -0.786363 4.011403 0
M  V30 45 H 4.225854 -0.977772 4.859319 0
M  V30 46 H 4.917578 -2.675752 3.052306 0
M  V30 47 H 3.364347 -2.379806 2.254010 0
M  V30 48 H 5.659392 -0.515317 1.884220 0
M  V30 49 H 2.774995 3.092795 -1.390127 0
M  V30 50 H 0.987159 4.187239 -2.783392 0
M  V30 51 H -2.753154 3.586291 0.725118 0
M  V30 52 H -4.867927 2.319658 0.644623 0
M  V30 53 H -6.155317 0.458529 -0.133181 0
M  V30 54 H -5.374655 -2.546752 -3.611561 0
M  V30 55 H -3.735311 -2.488851 -2.925400 0
M  V30 56 H -4.550713 -4.675914 -2.778275 0
M  V30 57 H -4.446073 -4.043343 -1.104528 0
M  V30 58 H -7.899332 -3.426047 -0.814588 0
M  V30 59 H -6.261986 -3.350876 0.045461 0
M  V30 60 H -7.242620 -1.867422 -2.462686 0
M  V30 61 H -7.134536 -1.179252 -0.791765 0
M  V30 62 H -2.683375 -0.890681 -2.293525 0
M  V30 63 H -1.457262 0.990252 -1.476801 0
M  V30 64 H -0.226862 1.886983 1.328532 0
M  V30 65 H 4.166334 1.178239 -1.702475 0
M  V30 66 H 4.235997 -0.145456 -3.706256 0
M  V30 67 H 2.176730 -3.266785 -1.756913 0
M  V30 68 H 2.095341 -1.930648 0.284726 0
M  V30 END ATOM
M  V30 BEGIN BOND
M  V30 1 1 1 2
M  V30 2 1 2 3
M  V30 3 1 2 4
M  V30 4 1 4 5
M  V30 5 1 5 6
M  V30 6 1 6 7
M  V30 7 1 7 8
M  V30 8 1 8 9
M  V30 9 2 9 10
M  V30 10 1 10 11
M  V30 11 2 11 12
M  V30 12 1 12 13
M  V30 13 2 13 14
M  V30 14 1 14 15
M  V30 15 1 15 16
M  V30 16 1 16 17
M  V30 17 2 17 18
M  V30 18 1 18 19
M  V30 19 2 19 20
M  V30 20 1 20 21
M  V30 21 1 21 22
M  V30 22 1 22 23
M  V30 23 1 23 24
M  V30 24 1 24 25
M  V30 25 1 25 26
M  V30 26 1 20 27
M  V30 27 2 27 28
M  V30 28 2 15 29
M  V30 29 1 10 30
M  V30 30 1 30 31
M  V30 31 2 31 32
M  V30 32 1 32 33
M  V30 33 2 33 34
M  V30 34 1 34 35
M  V30 35 1 34 36
M  V30 36 2 36 37
M  V30 37 2 30 7
M  V30 38 1 37 31
M  V30 39 1 29 11
M  V30 40 1 28 17
M  V30 41 1 26 21
M  V30 42 1 1 38
M  V30 43 1 1 39
M  V30 44 1 1 40
M  V30 45 1 3 41
M  V30 46 1 3 42
M  V30 47 1 3 43
M  V30 48 1 4 44
M  V30 49 1 4 45
M  V30 50 1 5 46
M  V30 51 1 5 47
M  V30 52 1 6 48
M  V30 53 1 12 49
M  V30 54 1 13 50
M  V30 55 1 16 51
M  V30 56 1 18 52
M  V30 57 1 19 53
M  V30 58 1 22 54
M  V30 59 1 22 55
M  V30 60 1 23 56
M  V30 61 1 23 57
M  V30 62 1 25 58
M  V30 63 1 25 59
M  V30 64 1 26 60
M  V30 65 1 26 61
M  V30 66 1 27 62
M  V30 67 1 28 63
M  V30 68 1 29 64
M  V30 69 1 32 65
M  V30 70 1 33 66
M  V30 71 1 36 67
M  V30 72 1 37 68
M  V30 END BOND
M  V30 END CTAB
M  END
>  <Dataset>  (32) 
ChEMBL_Kinases

>  <Ligand_Instance>  (32) 
nan

>  <PDB_ID>  (32) 
nan

>  <Standardized_SMILES>  (32) 
CN(C)CCNc1onc(-c2ccnc(Nc3ccc(N4CCOCC4)cc3)c2)c1-c1ccc(F)cc1

>  <Name>  (32) 
nan

>  <Pocket>  (32) 
nan

>  <ATP_Site>  (32) 
nan

>  <Peripheral>  (32) 
nan

>  <Num_H_Atoms_ProtBoundConf>  (32) 
nan

>  <Num_Resolved_Atoms>  (32) 
nan

>  <Num_Not_Resolved_Atoms>  (32) 
nan

$$$$
CHEMBL3099976
     RDKit          3D

  0  0  0  0  0  0  0  0  0  0999 V3000
M  V30 BEGIN CTAB
M  V30 COUNTS 41 44 0 0 0
M  V30 BEGIN ATOM
M  V30 1 C -0.130936 -7.343644 3.352256 0
M  V30 2 C 0.572686 -6.168978 2.742628 0
M  V30 3 N 1.849240 -5.725820 2.873984 0
M  V30 4 C 1.987949 -4.612595 2.107917 0
M  V30 5 N 0.799807 -4.375149 1.509623 0
M  V30 6 C 0.768352 -3.234177 0.663515 0
M  V30 7 C -0.098070 -2.175004 0.904866 0
M  V30 8 C -0.142912 -1.054321 0.093831 0
M  V30 9 C 0.700115 -0.978560 -0.995842 0
M  V30 10 N 0.674240 0.166076 -1.840680 0
M  V30 11 C -0.242013 1.212348 -1.543826 0
M  V30 12 C 0.238459 2.144508 -0.650856 0
M  V30 13 C -0.522706 3.226800 -0.257778 0
M  V30 14 C 0.000335 4.215709 0.706468 0
M  V30 15 N 0.040592 5.556464 0.806287 0
M  V30 16 O 0.638741 5.869887 1.902431 0
M  V30 17 C 1.021996 4.805423 2.580115 0
M  V30 18 C 0.627496 3.685975 1.839304 0
M  V30 19 C 0.922398 2.324876 2.356283 0
M  V30 20 C -1.816678 3.418705 -0.754168 0
M  V30 21 C -2.252284 2.445933 -1.653872 0
M  V30 22 N -1.504340 1.396723 -2.029702 0
M  V30 23 C 1.568457 -2.015641 -1.257115 0
M  V30 24 C 1.601962 -3.132689 -0.435068 0
M  V30 25 N -0.052916 -5.312519 1.891753 0
M  V30 26 H -1.104813 -7.004705 3.794996 0
M  V30 27 H -0.325745 -8.117616 2.587298 0
M  V30 28 H 0.475473 -7.734010 4.204916 0
M  V30 29 H 2.990103 -4.204905 2.167677 0
M  V30 30 H -0.768136 -2.200780 1.745677 0
M  V30 31 H -0.821597 -0.228638 0.285477 0
M  V30 32 H 1.321115 0.223467 -2.659013 0
M  V30 33 H 1.220860 2.094357 -0.208416 0
M  V30 34 H 1.538264 4.927035 3.523051 0
M  V30 35 H 0.769247 2.299979 3.454573 0
M  V30 36 H 1.951943 1.993944 2.152301 0
M  V30 37 H 0.216164 1.580814 1.904376 0
M  V30 38 H -2.417741 4.262439 -0.452743 0
M  V30 39 H -3.243870 2.526682 -2.082350 0
M  V30 40 H 2.211878 -1.911303 -2.125433 0
M  V30 41 H 2.289719 -3.943138 -0.649662 0
M  V30 END ATOM
M  V30 BEGIN BOND
M  V30 1 1 1 2
M  V30 2 1 2 3
M  V30 3 2 3 4
M  V30 4 1 4 5
M  V30 5 1 5 6
M  V30 6 2 6 7
M  V30 7 1 7 8
M  V30 8 2 8 9
M  V30 9 1 9 10
M  V30 10 1 10 11
M  V30 11 2 11 12
M  V30 12 1 12 13
M  V30 13 1 13 14
M  V30 14 2 14 15
M  V30 15 1 15 16
M  V30 16 1 16 17
M  V30 17 2 17 18
M  V30 18 1 18 19
M  V30 19 2 13 20
M  V30 20 1 20 21
M  V30 21 2 21 22
M  V30 22 1 9 23
M  V30 23 2 23 24
M  V30 24 1 5 25
M  V30 25 2 25 2
M  V30 26 1 24 6
M  V30 27 1 22 11
M  V30 28 1 18 14
M  V30 29 1 1 26
M  V30 30 1 1 27
M  V30 31 1 1 28
M  V30 32 1 4 29
M  V30 33 1 7 30
M  V30 34 1 8 31
M  V30 35 1 10 32
M  V30 36 1 12 33
M  V30 37 1 17 34
M  V30 38 1 19 35
M  V30 39 1 19 36
M  V30 40 1 19 37
M  V30 41 1 20 38
M  V30 42 1 21 39
M  V30 43 1 23 40
M  V30 44 1 24 41
M  V30 END BOND
M  V30 END CTAB
M  END
>  <Dataset>  (33) 
ChEMBL_Kinases

>  <Ligand_Instance>  (33) 
nan

>  <PDB_ID>  (33) 
nan

>  <Standardized_SMILES>  (33) 
Cc1ncn(-c2ccc(Nc3cc(-c4nocc4C)ccn3)cc2)n1

>  <Name>  (33) 
nan

>  <Pocket>  (33) 
nan

>  <ATP_Site>  (33) 
nan

>  <Peripheral>  (33) 
nan

>  <Num_H_Atoms_ProtBoundConf>  (33) 
nan

>  <Num_Resolved_Atoms>  (33) 
nan

>  <Num_Not_Resolved_Atoms>  (33) 
nan

$$$$
CHEMBL3099977
     RDKit          3D

  0  0  0  0  0  0  0  0  0  0999 V3000
M  V30 BEGIN CTAB
M  V30 COUNTS 52 56 0 0 0
M  V30 BEGIN ATOM
M  V30 1 C -0.795631 0.533727 4.039745 0
M  V30 2 N 0.347214 -0.037693 3.381044 0
M  V30 3 C 1.655786 0.245305 3.307417 0
M  V30 4 C 2.302097 -0.700472 2.478789 0
M  V30 5 C 3.732728 -0.419586 2.378610 0
M  V30 6 C 4.711038 -0.726355 3.300311 0
M  V30 7 O 5.804251 -0.249000 2.776991 0
M  V30 8 N 5.597071 0.316129 1.633571 0
M  V30 9 C 4.272824 0.244026 1.306994 0
M  V30 10 C 3.796434 0.769282 0.039206 0
M  V30 11 C 4.669989 1.039184 -1.021078 0
M  V30 12 C 4.183813 1.507100 -2.217063 0
M  V30 13 N 2.856283 1.725777 -2.423352 0
M  V30 14 C 1.963978 1.475442 -1.417110 0
M  V30 15 N 0.632245 1.732998 -1.793823 0
M  V30 16 C -0.353323 0.744618 -1.443972 0
M  V30 17 C -0.800575 0.583990 -0.156828 0
M  V30 18 C -1.719047 -0.459905 0.010948 0
M  V30 19 C -2.187417 -1.305796 -1.001306 0
M  V30 20 N -3.082341 -2.286187 -0.494367 0
M  V30 21 C -2.661902 -2.891558 0.783725 0
M  V30 22 C -3.785440 -2.599032 1.749582 0
M  V30 23 O -4.861805 -3.371376 1.379883 0
M  V30 24 C -4.891162 -3.772629 0.076547 0
M  V30 25 C -4.345127 -2.830137 -0.936791 0
M  V30 26 C -1.699029 -1.087542 -2.274199 0
M  V30 27 C -0.790253 -0.072501 -2.493346 0
M  V30 28 C 2.495039 1.010568 -0.241645 0
M  V30 29 C 1.260617 -1.531129 2.095123 0
M  V30 30 N 0.116498 -1.106476 2.649137 0
M  V30 31 H -1.279901 -0.127405 4.764885 0
M  V30 32 H -1.564981 0.772027 3.247574 0
M  V30 33 H -0.525127 1.511601 4.484528 0
M  V30 34 H 1.918037 1.138298 3.900646 0
M  V30 35 H 4.504596 -1.256339 4.231737 0
M  V30 36 H 5.740325 0.853294 -0.839790 0
M  V30 37 H 4.958541 1.687062 -2.963806 0
M  V30 38 H 0.392210 2.621519 -2.309271 0
M  V30 39 H -0.492640 1.202711 0.649171 0
M  V30 40 H -2.057604 -0.546680 1.049594 0
M  V30 41 H -1.674237 -2.546256 1.112345 0
M  V30 42 H -2.655194 -3.984636 0.574086 0
M  V30 43 H -3.418111 -2.781873 2.766042 0
M  V30 44 H -4.144871 -1.531073 1.676021 0
M  V30 45 H -5.987543 -3.906161 -0.176283 0
M  V30 46 H -4.418082 -4.764660 -0.011618 0
M  V30 47 H -5.065629 -2.032496 -1.226493 0
M  V30 48 H -4.145034 -3.422765 -1.857906 0
M  V30 49 H -2.119803 -1.784481 -2.982499 0
M  V30 50 H -0.468945 0.008440 -3.527348 0
M  V30 51 H 1.782613 0.828377 0.514361 0
M  V30 52 H 1.660871 -2.315817 1.434972 0
M  V30 END ATOM
M  V30 BEGIN BOND
M  V30 1 1 1 2
M  V30 2 1 2 3
M  V30 3 2 3 4
M  V30 4 1 4 5
M  V30 5 2 5 6
M  V30 6 1 6 7
M  V30 7 1 7 8
M  V30 8 2 8 9
M  V30 9 1 9 10
M  V30 10 2 10 11
M  V30 11 1 11 12
M  V30 12 2 12 13
M  V30 13 1 13 14
M  V30 14 1 14 15
M  V30 15 1 15 16
M  V30 16 2 16 17
M  V30 17 1 17 18
M  V30 18 2 18 19
M  V30 19 1 19 20
M  V30 20 1 20 21
M  V30 21 1 21 22
M  V30 22 1 22 23
M  V30 23 1 23 24
M  V30 24 1 24 25
M  V30 25 1 19 26
M  V30 26 2 26 27
M  V30 27 2 14 28
M  V30 28 1 4 29
M  V30 29 2 29 30
M  V30 30 1 30 2
M  V30 31 1 9 5
M  V30 32 1 28 10
M  V30 33 1 27 16
M  V30 34 1 25 20
M  V30 35 1 1 31
M  V30 36 1 1 32
M  V30 37 1 1 33
M  V30 38 1 3 34
M  V30 39 1 6 35
M  V30 40 1 11 36
M  V30 41 1 12 37
M  V30 42 1 15 38
M  V30 43 1 17 39
M  V30 44 1 18 40
M  V30 45 1 21 41
M  V30 46 1 21 42
M  V30 47 1 22 43
M  V30 48 1 22 44
M  V30 49 1 24 45
M  V30 50 1 24 46
M  V30 51 1 25 47
M  V30 52 1 25 48
M  V30 53 1 26 49
M  V30 54 1 27 50
M  V30 55 1 28 51
M  V30 56 1 29 52
M  V30 END BOND
M  V30 END CTAB
M  END
>  <Dataset>  (34) 
ChEMBL_Kinases

>  <Ligand_Instance>  (34) 
nan

>  <PDB_ID>  (34) 
nan

>  <Standardized_SMILES>  (34) 
Cn1cc(-c2conc2-c2ccnc(Nc3ccc(N4CCOCC4)cc3)c2)cn1

>  <Name>  (34) 
nan

>  <Pocket>  (34) 
nan

>  <ATP_Site>  (34) 
nan

>  <Peripheral>  (34) 
nan

>  <Num_H_Atoms_ProtBoundConf>  (34) 
nan

>  <Num_Resolved_Atoms>  (34) 
nan

>  <Num_Not_Resolved_Atoms>  (34) 
nan

$$$$
CHEMBL3100083
     RDKit          3D

  0  0  0  0  0  0  0  0  0  0999 V3000
M  V30 BEGIN CTAB
M  V30 COUNTS 49 53 0 0 0
M  V30 BEGIN ATOM
M  V30 1 C 3.527636 -3.525658 3.284327 0
M  V30 2 C 4.286952 -2.729145 2.431693 0
M  V30 3 C 3.770094 -1.482570 2.046929 0
M  V30 4 C 4.542358 -0.624907 1.158169 0
M  V30 5 N 5.852529 -0.315266 1.327697 0
M  V30 6 O 6.234855 0.455528 0.349853 0
M  V30 7 C 5.202700 0.644254 -0.437176 0
M  V30 8 C 4.058336 -0.024931 0.015424 0
M  V30 9 C 2.755244 -0.049896 -0.624431 0
M  V30 10 C 1.615207 0.810759 -0.369918 0
M  V30 11 C 2.514060 1.229658 -1.481720 0
M  V30 12 C 2.516582 -1.151343 2.567925 0
M  V30 13 C 1.788014 -1.970468 3.415783 0
M  V30 14 N 0.567062 -1.330317 3.763988 0
M  V30 15 C -0.509715 -1.223089 2.822153 0
M  V30 16 C -1.733650 -0.669505 3.222685 0
M  V30 17 C -2.755268 -0.547690 2.307183 0
M  V30 18 C -2.611640 -0.956370 1.000123 0
M  V30 19 N -3.695895 -0.801615 0.100346 0
M  V30 20 C -3.735631 -1.166026 -1.302309 0
M  V30 21 C -3.597076 0.144597 -2.074574 0
M  V30 22 O -4.346941 1.151163 -1.458177 0
M  V30 23 C -5.433742 0.612968 -0.764974 0
M  V30 24 C -4.988707 -0.241150 0.422052 0
M  V30 25 C -1.406697 -1.498066 0.622333 0
M  V30 26 C -0.360948 -1.635453 1.512323 0
M  V30 27 N 2.312732 -3.172298 3.770854 0
M  V30 28 H 3.849943 -4.503902 3.633058 0
M  V30 29 H 5.243257 -3.084954 2.091806 0
M  V30 30 H 5.330361 1.267571 -1.315898 0
M  V30 31 H 2.575530 -0.990184 -1.216205 0
M  V30 32 H 0.616762 0.425853 -0.726648 0
M  V30 33 H 1.481317 1.448438 0.521079 0
M  V30 34 H 3.116570 2.122745 -1.256370 0
M  V30 35 H 2.248343 1.088074 -2.529221 0
M  V30 36 H 2.218309 -0.175241 2.217601 0
M  V30 37 H 0.443904 -0.929112 4.713153 0
M  V30 38 H -1.787668 -0.371582 4.251173 0
M  V30 39 H -3.634599 -0.111657 2.737740 0
M  V30 40 H -4.649946 -1.708173 -1.599468 0
M  V30 41 H -2.857240 -1.777732 -1.586974 0
M  V30 42 H -2.545878 0.493896 -2.069693 0
M  V30 43 H -3.946713 0.064924 -3.116038 0
M  V30 44 H -6.075657 -0.014095 -1.413036 0
M  V30 45 H -6.029553 1.448539 -0.378332 0
M  V30 46 H -5.688548 -1.127716 0.494461 0
M  V30 47 H -5.048301 0.302566 1.360213 0
M  V30 48 H -1.228407 -1.838656 -0.386337 0
M  V30 49 H 0.592663 -2.070219 1.190975 0
M  V30 END ATOM
M  V30 BEGIN BOND
M  V30 1 2 1 2
M  V30 2 1 2 3
M  V30 3 1 3 4
M  V30 4 2 4 5
M  V30 5 1 5 6
M  V30 6 1 6 7
M  V30 7 2 7 8
M  V30 8 1 8 9
M  V30 9 1 9 10
M  V30 10 1 10 11
M  V30 11 2 3 12
M  V30 12 1 12 13
M  V30 13 1 13 14
M  V30 14 1 14 15
M  V30 15 2 15 16
M  V30 16 1 16 17
M  V30 17 2 17 18
M  V30 18 1 18 19
M  V30 19 1 19 20
M  V30 20 1 20 21
M  V30 21 1 21 22
M  V30 22 1 22 23
M  V30 23 1 23 24
M  V30 24 1 18 25
M  V30 25 2 25 26
M  V30 26 2 13 27
M  V30 27 1 27 1
M  V30 28 1 8 4
M  V30 29 1 11 9
M  V30 30 1 26 15
M  V30 31 1 24 19
M  V30 32 1 1 28
M  V30 33 1 2 29
M  V30 34 1 7 30
M  V30 35 1 9 31
M  V30 36 1 10 32
M  V30 37 1 10 33
M  V30 38 1 11 34
M  V30 39 1 11 35
M  V30 40 1 12 36
M  V30 41 1 14 37
M  V30 42 1 16 38
M  V30 43 1 17 39
M  V30 44 1 20 40
M  V30 45 1 20 41
M  V30 46 1 21 42
M  V30 47 1 21 43
M  V30 48 1 23 44
M  V30 49 1 23 45
M  V30 50 1 24 46
M  V30 51 1 24 47
M  V30 52 1 25 48
M  V30 53 1 26 49
M  V30 END BOND
M  V30 END CTAB
M  END
>  <Dataset>  (35) 
ChEMBL_Kinases

>  <Ligand_Instance>  (35) 
nan

>  <PDB_ID>  (35) 
nan

>  <Standardized_SMILES>  (35) 
c1cc(-c2nocc2C2CC2)cc(Nc2ccc(N3CCOCC3)cc2)n1

>  <Name>  (35) 
nan

>  <Pocket>  (35) 
nan

>  <ATP_Site>  (35) 
nan

>  <Peripheral>  (35) 
nan

>  <Num_H_Atoms_ProtBoundConf>  (35) 
nan

>  <Num_Resolved_Atoms>  (35) 
nan

>  <Num_Not_Resolved_Atoms>  (35) 
nan

$$$$
CHEMBL3100084
     RDKit          3D

  0  0  0  0  0  0  0  0  0  0999 V3000
M  V30 BEGIN CTAB
M  V30 COUNTS 48 52 0 0 0
M  V30 BEGIN ATOM
M  V30 1 C 2.594039 -4.053470 5.834319 0
M  V30 2 C 2.720417 -4.112085 4.363474 0
M  V30 3 N 3.452694 -4.989386 3.658185 0
M  V30 4 C 3.261545 -4.658892 2.362062 0
M  V30 5 N 2.433414 -3.604762 2.254284 0
M  V30 6 C 2.015006 -2.994410 1.038213 0
M  V30 7 C 2.770364 -3.000623 -0.115718 0
M  V30 8 C 2.304241 -2.389339 -1.266183 0
M  V30 9 C 1.061322 -1.748866 -1.299758 0
M  V30 10 N 0.551105 -1.108685 -2.473966 0
M  V30 11 C -0.735828 -0.516338 -2.389627 0
M  V30 12 C -0.822672 0.806652 -2.011047 0
M  V30 13 C -2.061924 1.358969 -1.932476 0
M  V30 14 C -2.427163 2.730671 -1.558965 0
M  V30 15 N -3.066434 3.662128 -2.290100 0
M  V30 16 O -3.213696 4.754439 -1.618172 0
M  V30 17 C -2.701050 4.647166 -0.420118 0
M  V30 18 C -2.184745 3.366656 -0.335427 0
M  V30 19 C -1.495222 2.681292 0.750528 0
M  V30 20 C -0.299866 3.249713 1.182732 0
M  V30 21 N 0.170487 2.456720 2.189670 0
M  V30 22 N -0.673751 1.441029 2.390018 0
M  V30 23 C -0.524516 0.384862 3.370775 0
M  V30 24 C -1.695087 1.558210 1.524591 0
M  V30 25 C -3.219040 0.627072 -2.221738 0
M  V30 26 C -3.087695 -0.712969 -2.602487 0
M  V30 27 N -1.845590 -1.231747 -2.671011 0
M  V30 28 C 0.338327 -1.771391 -0.107727 0
M  V30 29 C 0.776525 -2.372592 1.055154 0
M  V30 30 N 2.098343 -3.265650 3.488145 0
M  V30 31 H 1.886297 -3.254119 6.129580 0
M  V30 32 H 2.191380 -5.015748 6.236364 0
M  V30 33 H 3.555988 -3.884814 6.331415 0
M  V30 34 H 3.760149 -5.236082 1.595863 0
M  V30 35 H 3.730138 -3.497718 -0.082935 0
M  V30 36 H 2.910590 -2.401827 -2.170272 0
M  V30 37 H 1.166906 -1.126517 -3.304565 0
M  V30 38 H -0.015979 1.453353 -1.770036 0
M  V30 39 H -2.600272 5.287681 0.448698 0
M  V30 40 H 0.315036 4.118389 0.930843 0
M  V30 41 H 0.530241 -0.019548 3.345028 0
M  V30 42 H -0.795151 0.706451 4.396753 0
M  V30 43 H -1.166596 -0.450967 3.092159 0
M  V30 44 H -2.560286 0.969369 1.357946 0
M  V30 45 H -4.233207 0.959377 -2.192182 0
M  V30 46 H -3.931321 -1.347288 -2.842480 0
M  V30 47 H -0.626613 -1.285573 -0.097806 0
M  V30 48 H 0.133173 -2.336005 1.942717 0
M  V30 END ATOM
M  V30 BEGIN BOND
M  V30 1 1 1 2
M  V30 2 1 2 3
M  V30 3 2 3 4
M  V30 4 1 4 5
M  V30 5 1 5 6
M  V30 6 2 6 7
M  V30 7 1 7 8
M  V30 8 2 8 9
M  V30 9 1 9 10
M  V30 10 1 10 11
M  V30 11 2 11 12
M  V30 12 1 12 13
M  V30 13 1 13 14
M  V30 14 2 14 15
M  V30 15 1 15 16
M  V30 16 1 16 17
M  V30 17 2 17 18
M  V30 18 1 18 19
M  V30 19 1 19 20
M  V30 20 2 20 21
M  V30 21 1 21 22
M  V30 22 1 22 23
M  V30 23 1 22 24
M  V30 24 2 13 25
M  V30 25 1 25 26
M  V30 26 2 26 27
M  V30 27 1 9 28
M  V30 28 2 28 29
M  V30 29 1 5 30
M  V30 30 2 30 2
M  V30 31 1 29 6
M  V30 32 1 27 11
M  V30 33 1 18 14
M  V30 34 2 24 19
M  V30 35 1 1 31
M  V30 36 1 1 32
M  V30 37 1 1 33
M  V30 38 1 4 34
M  V30 39 1 7 35
M  V30 40 1 8 36
M  V30 41 1 10 37
M  V30 42 1 12 38
M  V30 43 1 17 39
M  V30 44 1 20 40
M  V30 45 1 23 41
M  V30 46 1 23 42
M  V30 47 1 23 43
M  V30 48 1 24 44
M  V30 49 1 25 45
M  V30 50 1 26 46
M  V30 51 1 28 47
M  V30 52 1 29 48
M  V30 END BOND
M  V30 END CTAB
M  END
>  <Dataset>  (36) 
ChEMBL_Kinases

>  <Ligand_Instance>  (36) 
nan

>  <PDB_ID>  (36) 
nan

>  <Standardized_SMILES>  (36) 
Cc1ncn(-c2ccc(Nc3cc(-c4nocc4-c4cnn(C)c4)ccn3)cc2)n1

>  <Name>  (36) 
nan

>  <Pocket>  (36) 
nan

>  <ATP_Site>  (36) 
nan

>  <Peripheral>  (36) 
nan

>  <Num_H_Atoms_ProtBoundConf>  (36) 
nan

>  <Num_Resolved_Atoms>  (36) 
nan

>  <Num_Not_Resolved_Atoms>  (36) 
nan

$$$$
CHEMBL3102934
     RDKit          3D

  0  0  0  0  0  0  0  0  0  0999 V3000
M  V30 BEGIN CTAB
M  V30 COUNTS 39 42 0 0 0
M  V30 BEGIN ATOM
M  V30 1 C 0.986496 -6.250003 4.078024 0
M  V30 2 O 0.715494 -4.866203 4.191574 0
M  V30 3 C 0.960764 -4.052532 3.097068 0
M  V30 4 C 1.453748 -4.448041 1.870163 0
M  V30 5 C 1.655809 -3.531908 0.851134 0
M  V30 6 C 1.371029 -2.193539 1.028561 0
M  V30 7 C 1.559979 -1.172658 -0.005278 0
M  V30 8 C 2.537620 -1.196708 -0.975618 0
M  V30 9 N 2.628766 -0.199967 -1.889723 0
M  V30 10 C 1.782101 0.851848 -1.899364 0
M  V30 11 N 1.632026 1.960854 -2.662610 0
M  V30 12 C 0.595027 2.691197 -2.214631 0
M  V30 13 C 0.014044 2.077300 -1.119247 0
M  V30 14 C -1.124745 2.558327 -0.358365 0
M  V30 15 C -2.287781 3.044637 -0.921234 0
M  V30 16 C -3.325998 3.485607 -0.093176 0
M  V30 17 C -3.243071 3.457833 1.286754 0
M  V30 18 C -2.067122 2.966080 1.841163 0
M  V30 19 C -1.040987 2.530201 1.015805 0
M  V30 20 C 0.785364 0.942794 -0.964694 0
M  V30 21 C 0.704761 -0.084621 -0.036134 0
M  V30 22 C 0.871834 -1.805250 2.276840 0
M  V30 23 C 0.662511 -2.715737 3.313938 0
M  V30 24 H 0.233381 -6.778758 3.461428 0
M  V30 25 H 1.113133 -6.732112 5.068061 0
M  V30 26 H 1.998975 -6.342514 3.586127 0
M  V30 27 H 1.667633 -5.498985 1.758666 0
M  V30 28 H 2.037060 -3.839486 -0.096835 0
M  V30 29 H 3.218538 -2.038480 -0.971168 0
M  V30 30 H 2.257340 2.174108 -3.472374 0
M  V30 31 H 0.305889 3.624459 -2.691807 0
M  V30 32 H -2.366496 3.072051 -1.996378 0
M  V30 33 H -4.243421 3.869060 -0.524374 0
M  V30 34 H -4.050047 3.800515 1.917419 0
M  V30 35 H -2.039270 2.960013 2.922504 0
M  V30 36 H -0.194272 2.177972 1.602088 0
M  V30 37 H -0.069793 -0.042970 0.712792 0
M  V30 38 H 0.622429 -0.756221 2.492199 0
M  V30 39 H 0.268218 -2.338968 4.266817 0
M  V30 END ATOM
M  V30 BEGIN BOND
M  V30 1 1 1 2
M  V30 2 1 2 3
M  V30 3 2 3 4
M  V30 4 1 4 5
M  V30 5 2 5 6
M  V30 6 1 6 7
M  V30 7 2 7 8
M  V30 8 1 8 9
M  V30 9 2 9 10
M  V30 10 1 10 11
M  V30 11 1 11 12
M  V30 12 2 12 13
M  V30 13 1 13 14
M  V30 14 2 14 15
M  V30 15 1 15 16
M  V30 16 2 16 17
M  V30 17 1 17 18
M  V30 18 2 18 19
M  V30 19 1 13 20
M  V30 20 2 20 21
M  V30 21 1 6 22
M  V30 22 2 22 23
M  V30 23 1 23 3
M  V30 24 1 21 7
M  V30 25 1 20 10
M  V30 26 1 19 14
M  V30 27 1 1 24
M  V30 28 1 1 25
M  V30 29 1 1 26
M  V30 30 1 4 27
M  V30 31 1 5 28
M  V30 32 1 8 29
M  V30 33 1 11 30
M  V30 34 1 12 31
M  V30 35 1 15 32
M  V30 36 1 16 33
M  V30 37 1 17 34
M  V30 38 1 18 35
M  V30 39 1 19 36
M  V30 40 1 21 37
M  V30 41 1 22 38
M  V30 42 1 23 39
M  V30 END BOND
M  V30 END CTAB
M  END
>  <Dataset>  (37) 
ChEMBL_Kinases

>  <Ligand_Instance>  (37) 
nan

>  <PDB_ID>  (37) 
nan

>  <Standardized_SMILES>  (37) 
COc1ccc(-c2cnc3[nH]cc(-c4ccccc4)c3c2)cc1

>  <Name>  (37) 
nan

>  <Pocket>  (37) 
nan

>  <ATP_Site>  (37) 
nan

>  <Peripheral>  (37) 
nan

>  <Num_H_Atoms_ProtBoundConf>  (37) 
nan

>  <Num_Resolved_Atoms>  (37) 
nan

>  <Num_Not_Resolved_Atoms>  (37) 
nan

$$$$
CHEMBL3099970
     RDKit          3D

  0  0  0  0  0  0  0  0  0  0999 V3000
M  V30 BEGIN CTAB
M  V30 COUNTS 65 70 0 0 0
M  V30 BEGIN ATOM
M  V30 1 F 3.020094 3.904155 4.006910 0
M  V30 2 C 2.664212 2.645622 3.594423 0
M  V30 3 C 3.717111 1.783497 3.419614 0
M  V30 4 C 3.418798 0.511293 3.004262 0
M  V30 5 C 2.132278 0.062125 2.756842 0
M  V30 6 C 1.831053 -1.274401 2.303819 0
M  V30 7 C 2.204682 -1.663419 1.008683 0
M  V30 8 C 2.899174 -0.865578 -0.033788 0
M  V30 9 C 4.232622 -0.519840 -0.116473 0
M  V30 10 C 4.610982 0.259132 -1.190418 0
M  V30 11 N 3.705097 0.648885 -2.099630 0
M  V30 12 C 2.417844 0.351685 -2.076982 0
M  V30 13 N 1.530429 0.839880 -3.073279 0
M  V30 14 C 0.168358 0.468604 -3.225312 0
M  V30 15 C -0.842169 1.416140 -3.428193 0
M  V30 16 C -2.143662 1.055948 -3.589518 0
M  V30 17 C -2.485523 -0.277274 -3.554081 0
M  V30 18 N -3.833572 -0.670049 -3.702461 0
M  V30 19 C -4.976873 0.259693 -3.678032 0
M  V30 20 C -6.201935 -0.478207 -3.167069 0
M  V30 21 O -5.871744 -1.420072 -2.209370 0
M  V30 22 C -5.041305 -2.428278 -2.628803 0
M  V30 23 C -4.331300 -2.006977 -3.900103 0
M  V30 24 C -1.525339 -1.246185 -3.357898 0
M  V30 25 C -0.183986 -0.885742 -3.190746 0
M  V30 26 C 1.982318 -0.436451 -1.007794 0
M  V30 27 N 1.784654 -2.950972 0.905647 0
M  V30 28 O 1.212542 -3.327010 2.009958 0
M  V30 29 C 1.209795 -2.363893 2.886809 0
M  V30 30 N 0.690207 -2.322676 4.232577 0
M  V30 31 C 1.545988 -2.636793 5.349152 0
M  V30 32 C 0.975292 -1.986093 6.596772 0
M  V30 33 O -0.419446 -2.073829 6.650708 0
M  V30 34 C -0.891858 -1.228567 5.646969 0
M  V30 35 C -0.723009 -1.955143 4.337935 0
M  V30 36 C 1.104318 0.983405 2.952560 0
M  V30 37 C 1.363867 2.283124 3.372896 0
M  V30 38 H 4.742205 2.077069 3.596388 0
M  V30 39 H 4.234573 -0.189019 2.865487 0
M  V30 40 H 4.828024 -0.912795 0.683473 0
M  V30 41 H 5.660513 0.514371 -1.226544 0
M  V30 42 H 1.872709 1.518794 -3.755686 0
M  V30 43 H -0.500125 2.454612 -3.445960 0
M  V30 44 H -2.867821 1.841115 -3.742736 0
M  V30 45 H -4.765061 1.113416 -3.037696 0
M  V30 46 H -5.157065 0.563991 -4.720656 0
M  V30 47 H -6.839782 0.280933 -2.651185 0
M  V30 48 H -6.753846 -0.852966 -4.030223 0
M  V30 49 H -5.663662 -3.319301 -2.867705 0
M  V30 50 H -4.279752 -2.740050 -1.868463 0
M  V30 51 H -3.535408 -2.737418 -4.163348 0
M  V30 52 H -5.111351 -2.017680 -4.713235 0
M  V30 53 H -1.743298 -2.311775 -3.322225 0
M  V30 54 H 0.544062 -1.700449 -3.048246 0
M  V30 55 H 0.911987 -0.673699 -0.985022 0
M  V30 56 H 2.576674 -2.271070 5.214908 0
M  V30 57 H 1.510113 -3.753478 5.454074 0
M  V30 58 H 1.378446 -2.429512 7.530905 0
M  V30 59 H 1.227544 -0.913288 6.568573 0
M  V30 60 H -0.197621 -0.361278 5.600205 0
M  V30 61 H -1.943120 -0.905092 5.813691 0
M  V30 62 H -1.400066 -2.826688 4.226875 0
M  V30 63 H -0.986199 -1.276125 3.503216 0
M  V30 64 H 0.064489 0.753370 2.793234 0
M  V30 65 H 0.561782 3.010467 3.526100 0
M  V30 END ATOM
M  V30 BEGIN BOND
M  V30 1 1 1 2
M  V30 2 2 2 3
M  V30 3 1 3 4
M  V30 4 2 4 5
M  V30 5 1 5 6
M  V30 6 1 6 7
M  V30 7 1 7 8
M  V30 8 2 8 9
M  V30 9 1 9 10
M  V30 10 2 10 11
M  V30 11 1 11 12
M  V30 12 1 12 13
M  V30 13 1 13 14
M  V30 14 2 14 15
M  V30 15 1 15 16
M  V30 16 2 16 17
M  V30 17 1 17 18
M  V30 18 1 18 19
M  V30 19 1 19 20
M  V30 20 1 20 21
M  V30 21 1 21 22
M  V30 22 1 22 23
M  V30 23 1 17 24
M  V30 24 2 24 25
M  V30 25 2 12 26
M  V30 26 2 7 27
M  V30 27 1 27 28
M  V30 28 1 28 29
M  V30 29 1 29 30
M  V30 30 1 30 31
M  V30 31 1 31 32
M  V30 32 1 32 33
M  V30 33 1 33 34
M  V30 34 1 34 35
M  V30 35 1 5 36
M  V30 36 2 36 37
M  V30 37 1 37 2
M  V30 38 2 29 6
M  V30 39 1 35 30
M  V30 40 1 26 8
M  V30 41 1 25 14
M  V30 42 1 23 18
M  V30 43 1 3 38
M  V30 44 1 4 39
M  V30 45 1 9 40
M  V30 46 1 10 41
M  V30 47 1 13 42
M  V30 48 1 15 43
M  V30 49 1 16 44
M  V30 50 1 19 45
M  V30 51 1 19 46
M  V30 52 1 20 47
M  V30 53 1 20 48
M  V30 54 1 22 49
M  V30 55 1 22 50
M  V30 56 1 23 51
M  V30 57 1 23 52
M  V30 58 1 24 53
M  V30 59 1 25 54
M  V30 60 1 26 55
M  V30 61 1 31 56
M  V30 62 1 31 57
M  V30 63 1 32 58
M  V30 64 1 32 59
M  V30 65 1 34 60
M  V30 66 1 34 61
M  V30 67 1 35 62
M  V30 68 1 35 63
M  V30 69 1 36 64
M  V30 70 1 37 65
M  V30 END BOND
M  V30 END CTAB
M  END
>  <Dataset>  (38) 
ChEMBL_Kinases

>  <Ligand_Instance>  (38) 
nan

>  <PDB_ID>  (38) 
nan

>  <Standardized_SMILES>  (38) 
Fc1ccc(-c2c(-c3ccnc(Nc4ccc(N5CCOCC5)cc4)c3)noc2N2CCOCC2)cc1

>  <Name>  (38) 
nan

>  <Pocket>  (38) 
nan

>  <ATP_Site>  (38) 
nan

>  <Peripheral>  (38) 
nan

>  <Num_H_Atoms_ProtBoundConf>  (38) 
nan

>  <Num_Resolved_Atoms>  (38) 
nan

>  <Num_Not_Resolved_Atoms>  (38) 
nan

$$$$
CHEMBL3109937
     RDKit          3D

  0  0  0  0  0  0  0  0  0  0999 V3000
M  V30 BEGIN CTAB
M  V30 COUNTS 73 77 0 0 0
M  V30 BEGIN ATOM
M  V30 1 C 1.559113 7.168510 -1.756552 0
M  V30 2 O 2.263634 6.230687 -1.005296 0
M  V30 3 C 1.414092 5.557467 -0.134159 0
M  V30 4 C 1.472388 4.088614 -0.556992 0
M  V30 5 C 0.933916 3.162538 0.503946 0
M  V30 6 N 0.179275 3.965774 1.458790 0
M  V30 7 C -1.247377 3.902966 1.658971 0
M  V30 8 O -1.724731 4.686548 2.536247 0
M  V30 9 C -1.929021 2.935538 0.811770 0
M  V30 10 C -2.612623 1.871790 1.388096 0
M  V30 11 C -3.281210 0.905805 0.649326 0
M  V30 12 C -3.281145 0.984656 -0.741091 0
M  V30 13 N -4.012180 -0.103153 -1.295161 0
M  V30 14 C -3.080831 -0.816941 -2.096417 0
M  V30 15 C -2.264909 -1.657192 -1.334527 0
M  V30 16 C -1.301780 -2.433242 -1.926497 0
M  V30 17 C -1.165339 -2.358569 -3.292625 0
M  V30 18 C -1.969524 -1.530405 -4.047312 0
M  V30 19 N -2.899219 -0.787644 -3.426861 0
M  V30 20 C -0.148597 -3.208764 -3.658618 0
M  V30 21 C 0.374606 -3.831628 -2.549811 0
M  V30 22 C 1.459767 -4.796504 -2.529076 0
M  V30 23 C 2.060530 -5.478247 -1.493961 0
M  V30 24 N 3.030016 -6.261991 -1.997359 0
M  V30 25 N 3.084281 -6.119299 -3.307103 0
M  V30 26 C 4.036662 -6.842063 -4.110419 0
M  V30 27 C 2.148003 -5.242641 -3.644213 0
M  V30 28 N -0.363834 -3.316938 -1.565473 0
M  V30 29 C -0.227729 -3.615357 -0.201713 0
M  V30 30 O -0.023518 -3.945501 0.966020 0
M  V30 31 O -0.912813 -3.176559 0.888046 0
M  V30 32 C -0.735165 -3.504402 2.229289 0
M  V30 33 C 0.623795 -3.171064 2.790631 0
M  V30 34 C -1.746425 -2.637598 3.001485 0
M  V30 35 C -1.049088 -4.919621 2.596266 0
M  V30 36 C -2.609359 2.032245 -1.328565 0
M  V30 37 Cl -2.677528 2.042099 -3.067814 0
M  V30 38 C -1.956637 2.972986 -0.562687 0
M  V30 39 C 1.049055 4.862314 2.214569 0
M  V30 40 C 1.866941 5.717225 1.301412 0
M  V30 41 H 1.100297 7.885797 -1.044270 0
M  V30 42 H 2.281548 7.769702 -2.348872 0
M  V30 43 H 0.845225 6.613468 -2.377841 0
M  V30 44 H 0.402553 5.940543 -0.260649 0
M  V30 45 H 0.885815 4.041473 -1.499122 0
M  V30 46 H 2.510118 3.828538 -0.768792 0
M  V30 47 H 0.338321 2.333347 0.069686 0
M  V30 48 H 1.748517 2.667785 1.066766 0
M  V30 49 H -2.597634 1.832615 2.488466 0
M  V30 50 H -3.770129 0.134252 1.266321 0
M  V30 51 H -5.032188 -0.161782 -1.021782 0
M  V30 52 H -2.340540 -1.745830 -0.260438 0
M  V30 53 H -1.838244 -1.494713 -5.113260 0
M  V30 54 H 0.212631 -3.383718 -4.682027 0
M  V30 55 H 1.795263 -5.393431 -0.465633 0
M  V30 56 H 3.574371 -7.719889 -4.593799 0
M  V30 57 H 4.936391 -7.141759 -3.517059 0
M  V30 58 H 4.396115 -6.163526 -4.929098 0
M  V30 59 H 1.961999 -4.930560 -4.665124 0
M  V30 60 H 1.304458 -4.069320 2.859619 0
M  V30 61 H 1.129975 -2.336518 2.273909 0
M  V30 62 H 0.483770 -2.859252 3.846049 0
M  V30 63 H -1.583432 -2.755014 4.093345 0
M  V30 64 H -1.602550 -1.562121 2.751992 0
M  V30 65 H -2.776061 -2.953333 2.736170 0
M  V30 66 H -1.388392 -4.916735 3.674629 0
M  V30 67 H -0.158336 -5.593587 2.598950 0
M  V30 68 H -1.915158 -5.349154 2.041626 0
M  V30 69 H -1.452692 3.762105 -1.061663 0
M  V30 70 H 0.479200 5.428788 2.982474 0
M  V30 71 H 1.734645 4.183727 2.772900 0
M  V30 72 H 1.737987 6.797628 1.541708 0
M  V30 73 H 2.947776 5.416481 1.332113 0
M  V30 END ATOM
M  V30 BEGIN BOND
M  V30 1 1 1 2
M  V30 2 1 2 3
M  V30 3 1 3 4
M  V30 4 1 4 5
M  V30 5 1 5 6
M  V30 6 1 6 7
M  V30 7 2 7 8
M  V30 8 1 7 9
M  V30 9 2 9 10
M  V30 10 1 10 11
M  V30 11 2 11 12
M  V30 12 1 12 13
M  V30 13 1 13 14
M  V30 14 2 14 15
M  V30 15 1 15 16
M  V30 16 2 16 17
M  V30 17 1 17 18
M  V30 18 2 18 19
M  V30 19 1 17 20
M  V30 20 2 20 21
M  V30 21 1 21 22
M  V30 22 1 22 23
M  V30 23 2 23 24
M  V30 24 1 24 25
M  V30 25 1 25 26
M  V30 26 1 25 27
M  V30 27 1 21 28
M  V30 28 1 28 29
M  V30 29 2 29 30
M  V30 30 1 29 31
M  V30 31 1 31 32
M  V30 32 1 32 33
M  V30 33 1 32 34
M  V30 34 1 32 35
M  V30 35 1 12 36
M  V30 36 1 36 37
M  V30 37 2 36 38
M  V30 38 1 6 39
M  V30 39 1 39 40
M  V30 40 1 40 3
M  V30 41 1 38 9
M  V30 42 1 19 14
M  V30 43 2 27 22
M  V30 44 1 28 16
M  V30 45 1 1 41
M  V30 46 1 1 42
M  V30 47 1 1 43
M  V30 48 1 3 44
M  V30 49 1 4 45
M  V30 50 1 4 46
M  V30 51 1 5 47
M  V30 52 1 5 48
M  V30 53 1 10 49
M  V30 54 1 11 50
M  V30 55 1 13 51
M  V30 56 1 15 52
M  V30 57 1 18 53
M  V30 58 1 20 54
M  V30 59 1 23 55
M  V30 60 1 26 56
M  V30 61 1 26 57
M  V30 62 1 26 58
M  V30 63 1 27 59
M  V30 64 1 33 60
M  V30 65 1 33 61
M  V30 66 1 33 62
M  V30 67 1 34 63
M  V30 68 1 34 64
M  V30 69 1 34 65
M  V30 70 1 35 66
M  V30 71 1 35 67
M  V30 72 1 35 68
M  V30 73 1 38 69
M  V30 74 1 39 70
M  V30 75 1 39 71
M  V30 76 1 40 72
M  V30 77 1 40 73
M  V30 END BOND
M  V30 END CTAB
M  END
>  <Dataset>  (39) 
ChEMBL_Kinases

>  <Ligand_Instance>  (39) 
nan

>  <PDB_ID>  (39) 
nan

>  <Standardized_SMILES>  (39) 
COC1CCN(C(=O)c2ccc(Nc3cc4c(cn3)cc(-c3cnn(C)c3)n4C(=O)OC(C)(C)C)c(Cl)c2)CC1

>  <Name>  (39) 
nan

>  <Pocket>  (39) 
nan

>  <ATP_Site>  (39) 
nan

>  <Peripheral>  (39) 
nan

>  <Num_H_Atoms_ProtBoundConf>  (39) 
nan

>  <Num_Resolved_Atoms>  (39) 
nan

>  <Num_Not_Resolved_Atoms>  (39) 
nan

$$$$
CHEMBL3109936
     RDKit          3D

  0  0  0  0  0  0  0  0  0  0999 V3000
M  V30 BEGIN CTAB
M  V30 COUNTS 63 67 0 0 0
M  V30 BEGIN ATOM
M  V30 1 C 1.424220 -7.313313 3.357615 0
M  V30 2 N 2.126649 -6.094047 3.003133 0
M  V30 3 C 1.767668 -5.062212 2.190559 0
M  V30 4 C 2.757124 -4.114906 2.145412 0
M  V30 5 C 2.850306 -2.855308 1.424910 0
M  V30 6 C 3.898091 -1.987738 1.463019 0
M  V30 7 C 3.684969 -0.905849 0.658458 0
M  V30 8 C 4.377738 0.227663 0.334191 0
M  V30 9 N 3.931471 1.173249 -0.510467 0
M  V30 10 C 2.717935 1.031166 -1.102952 0
M  V30 11 N 2.013970 1.896407 -2.016498 0
M  V30 12 C 1.040467 2.503822 -1.142432 0
M  V30 13 C -0.223840 2.126725 -1.609736 0
M  V30 14 C -1.364051 2.551820 -0.949651 0
M  V30 15 C -1.156815 3.357144 0.176177 0
M  V30 16 C -2.270242 3.835571 0.970715 0
M  V30 17 O -2.406788 4.627710 1.926954 0
M  V30 18 N -3.656295 3.536120 0.915143 0
M  V30 19 C -4.665716 4.109449 1.819469 0
M  V30 20 C -5.416406 2.771768 1.698585 0
M  V30 21 C -4.801069 2.823576 0.307387 0
M  V30 22 C 0.086615 3.733223 0.643788 0
M  V30 23 C 1.193636 3.287603 -0.043635 0
M  V30 24 Cl 2.843671 3.660192 0.368422 0
M  V30 25 C 1.992968 -0.128296 -0.782352 0
M  V30 26 C 2.448428 -1.110987 0.091967 0
M  V30 27 N 1.997140 -2.275302 0.577933 0
M  V30 28 C 0.736305 -2.764304 0.207051 0
M  V30 29 O -0.339678 -3.273428 -0.051142 0
M  V30 30 O -0.119216 -2.155397 -0.645060 0
M  V30 31 C -1.387104 -2.520868 -1.087638 0
M  V30 32 C -1.421320 -3.848131 -1.815145 0
M  V30 33 C -1.769532 -1.399911 -2.106773 0
M  V30 34 C -2.445817 -2.443828 -0.012062 0
M  V30 35 C 3.729577 -4.630936 2.974435 0
M  V30 36 N 3.343311 -5.816664 3.483441 0
M  V30 37 H 1.925180 -8.140458 2.809855 0
M  V30 38 H 0.363783 -7.275097 3.068638 0
M  V30 39 H 1.466544 -7.442308 4.464212 0
M  V30 40 H 0.825563 -5.029262 1.669310 0
M  V30 41 H 4.798829 -2.132596 2.057348 0
M  V30 42 H 5.337770 0.378176 0.783453 0
M  V30 43 H 2.127239 2.075668 -3.040769 0
M  V30 44 H -0.483316 1.504401 -2.477744 0
M  V30 45 H -2.382229 2.290496 -1.260564 0
M  V30 46 H -4.353435 4.272205 2.851275 0
M  V30 47 H -5.214551 4.948848 1.374427 0
M  V30 48 H -5.052858 1.974237 2.358321 0
M  V30 49 H -6.505958 2.916638 1.682187 0
M  V30 50 H -4.493571 1.882920 -0.135367 0
M  V30 51 H -5.366940 3.546299 -0.317980 0
M  V30 52 H 0.249338 4.351366 1.512388 0
M  V30 53 H 1.021022 -0.283707 -1.232079 0
M  V30 54 H -1.822870 -4.607142 -1.120946 0
M  V30 55 H -2.071539 -3.734253 -2.719232 0
M  V30 56 H -0.416786 -4.146925 -2.156876 0
M  V30 57 H -2.656338 -1.671976 -2.681252 0
M  V30 58 H -0.883624 -1.163248 -2.735793 0
M  V30 59 H -1.990690 -0.472617 -1.522591 0
M  V30 60 H -3.023012 -3.403102 -0.054628 0
M  V30 61 H -2.068948 -2.233126 0.995683 0
M  V30 62 H -3.192297 -1.647730 -0.263769 0
M  V30 63 H 4.689857 -4.242055 3.249565 0
M  V30 END ATOM
M  V30 BEGIN BOND
M  V30 1 1 1 2
M  V30 2 1 2 3
M  V30 3 2 3 4
M  V30 4 1 4 5
M  V30 5 2 5 6
M  V30 6 1 6 7
M  V30 7 2 7 8
M  V30 8 1 8 9
M  V30 9 2 9 10
M  V30 10 1 10 11
M  V30 11 1 11 12
M  V30 12 2 12 13
M  V30 13 1 13 14
M  V30 14 2 14 15
M  V30 15 1 15 16
M  V30 16 2 16 17
M  V30 17 1 16 18
M  V30 18 1 18 19
M  V30 19 1 19 20
M  V30 20 1 20 21
M  V30 21 1 15 22
M  V30 22 2 22 23
M  V30 23 1 23 24
M  V30 24 1 10 25
M  V30 25 2 25 26
M  V30 26 1 26 27
M  V30 27 1 27 28
M  V30 28 2 28 29
M  V30 29 1 28 30
M  V30 30 1 30 31
M  V30 31 1 31 32
M  V30 32 1 31 33
M  V30 33 1 31 34
M  V30 34 1 4 35
M  V30 35 2 35 36
M  V30 36 1 36 2
M  V30 37 1 27 5
M  V30 38 1 26 7
M  V30 39 1 23 12
M  V30 40 1 21 18
M  V30 41 1 1 37
M  V30 42 1 1 38
M  V30 43 1 1 39
M  V30 44 1 3 40
M  V30 45 1 6 41
M  V30 46 1 8 42
M  V30 47 1 11 43
M  V30 48 1 13 44
M  V30 49 1 14 45
M  V30 50 1 19 46
M  V30 51 1 19 47
M  V30 52 1 20 48
M  V30 53 1 20 49
M  V30 54 1 21 50
M  V30 55 1 21 51
M  V30 56 1 22 52
M  V30 57 1 25 53
M  V30 58 1 32 54
M  V30 59 1 32 55
M  V30 60 1 32 56
M  V30 61 1 33 57
M  V30 62 1 33 58
M  V30 63 1 33 59
M  V30 64 1 34 60
M  V30 65 1 34 61
M  V30 66 1 34 62
M  V30 67 1 35 63
M  V30 END BOND
M  V30 END CTAB
M  END
>  <Dataset>  (40) 
ChEMBL_Kinases

>  <Ligand_Instance>  (40) 
nan

>  <PDB_ID>  (40) 
nan

>  <Standardized_SMILES>  (40) 
Cn1cc(-c2cc3cnc(Nc4ccc(C(=O)N5CCC5)cc4Cl)cc3n2C(=O)OC(C)(C)C)cn1

>  <Name>  (40) 
nan

>  <Pocket>  (40) 
nan

>  <ATP_Site>  (40) 
nan

>  <Peripheral>  (40) 
nan

>  <Num_H_Atoms_ProtBoundConf>  (40) 
nan

>  <Num_Resolved_Atoms>  (40) 
nan

>  <Num_Not_Resolved_Atoms>  (40) 
nan

$$$$
CHEMBL3109935
     RDKit          3D

  0  0  0  0  0  0  0  0  0  0999 V3000
M  V30 BEGIN CTAB
M  V30 COUNTS 63 66 0 0 0
M  V30 BEGIN ATOM
M  V30 1 C 5.396936 -0.735410 2.213095 0
M  V30 2 N 6.176617 0.447447 2.015558 0
M  V30 3 C 6.773659 0.544610 0.717763 0
M  V30 4 S 5.389114 1.864220 2.545773 0
M  V30 5 O 5.080787 1.712850 4.012899 0
M  V30 6 O 6.311933 3.039131 2.334626 0
M  V30 7 C 3.896745 2.179107 1.693629 0
M  V30 8 C 2.739188 1.633643 2.225171 0
M  V30 9 C 1.526154 1.851295 1.590779 0
M  V30 10 C 1.400241 2.599673 0.429319 0
M  V30 11 N 0.133566 2.796181 -0.185988 0
M  V30 12 C -0.980545 2.186926 0.453254 0
M  V30 13 C -1.310731 0.913572 0.069170 0
M  V30 14 C -2.369069 0.237660 0.625537 0
M  V30 15 C -3.111899 0.858177 1.590974 0
M  V30 16 C -2.753753 2.158809 1.965282 0
M  V30 17 N -1.710598 2.820833 1.414551 0
M  V30 18 C -4.103850 -0.008385 1.991652 0
M  V30 19 C -3.995765 -1.177010 1.285811 0
M  V30 20 C -4.888532 -2.310776 1.461035 0
M  V30 21 C -5.936377 -2.323326 2.357811 0
M  V30 22 N -6.544757 -3.533763 2.247708 0
M  V30 23 N -5.952765 -4.285990 1.342941 0
M  V30 24 C -6.289952 -5.638482 0.924552 0
M  V30 25 C -4.937702 -3.548234 0.854644 0
M  V30 26 N -2.938525 -0.942736 0.497308 0
M  V30 27 C -2.569168 -1.979998 -0.362766 0
M  V30 28 O -1.808742 -2.399252 -1.243569 0
M  V30 29 O -2.080625 -2.871033 -1.250579 0
M  V30 30 C -0.999044 -2.688818 -2.104111 0
M  V30 31 C -0.800669 -3.971033 -2.926014 0
M  V30 32 C 0.298446 -2.329326 -1.478708 0
M  V30 33 C -1.351945 -1.615132 -3.143767 0
M  V30 34 C 2.581824 3.122455 -0.061946 0
M  V30 35 Cl 2.515894 4.087195 -1.534847 0
M  V30 36 C 3.811579 2.934863 0.531275 0
M  V30 37 H 6.045184 -1.604636 2.047669 0
M  V30 38 H 4.557045 -0.787434 1.489864 0
M  V30 39 H 5.065934 -0.760392 3.272111 0
M  V30 40 H 6.928227 1.596103 0.385358 0
M  V30 41 H 7.757733 -0.004219 0.790323 0
M  V30 42 H 6.176712 -0.045348 -0.004012 0
M  V30 43 H 2.779659 1.034788 3.139122 0
M  V30 44 H 0.646142 1.409442 2.035659 0
M  V30 45 H 0.140862 3.381023 -1.067043 0
M  V30 46 H -0.748755 0.388584 -0.687638 0
M  V30 47 H -3.355319 2.625983 2.728516 0
M  V30 48 H -4.832202 0.273663 2.767257 0
M  V30 49 H -6.285031 -1.570874 3.052970 0
M  V30 50 H -6.213018 -5.731837 -0.181996 0
M  V30 51 H -5.532229 -6.350137 1.333601 0
M  V30 52 H -7.326349 -5.890363 1.203684 0
M  V30 53 H -4.253508 -3.867878 0.097187 0
M  V30 54 H 0.249644 -4.064765 -3.251803 0
M  V30 55 H -1.437676 -4.003300 -3.820486 0
M  V30 56 H -1.074611 -4.861814 -2.317609 0
M  V30 57 H 0.334767 -2.567057 -0.377059 0
M  V30 58 H 0.625271 -1.287763 -1.686043 0
M  V30 59 H 1.099390 -2.964701 -1.910877 0
M  V30 60 H -2.292278 -2.002627 -3.619057 0
M  V30 61 H -1.476232 -0.623812 -2.714019 0
M  V30 62 H -0.560650 -1.636736 -3.915461 0
M  V30 63 H 4.728153 3.353597 0.130255 0
M  V30 END ATOM
M  V30 BEGIN BOND
M  V30 1 1 1 2
M  V30 2 1 2 3
M  V30 3 1 2 4
M  V30 4 2 4 5
M  V30 5 2 4 6
M  V30 6 1 4 7
M  V30 7 2 7 8
M  V30 8 1 8 9
M  V30 9 2 9 10
M  V30 10 1 10 11
M  V30 11 1 11 12
M  V30 12 2 12 13
M  V30 13 1 13 14
M  V30 14 2 14 15
M  V30 15 1 15 16
M  V30 16 2 16 17
M  V30 17 1 15 18
M  V30 18 2 18 19
M  V30 19 1 19 20
M  V30 20 1 20 21
M  V30 21 2 21 22
M  V30 22 1 22 23
M  V30 23 1 23 24
M  V30 24 1 23 25
M  V30 25 1 19 26
M  V30 26 1 26 27
M  V30 27 2 27 28
M  V30 28 1 27 29
M  V30 29 1 29 30
M  V30 30 1 30 31
M  V30 31 1 30 32
M  V30 32 1 30 33
M  V30 33 1 10 34
M  V30 34 1 34 35
M  V30 35 2 34 36
M  V30 36 1 36 7
M  V30 37 1 17 12
M  V30 38 2 25 20
M  V30 39 1 26 14
M  V30 40 1 1 37
M  V30 41 1 1 38
M  V30 42 1 1 39
M  V30 43 1 3 40
M  V30 44 1 3 41
M  V30 45 1 3 42
M  V30 46 1 8 43
M  V30 47 1 9 44
M  V30 48 1 11 45
M  V30 49 1 13 46
M  V30 50 1 16 47
M  V30 51 1 18 48
M  V30 52 1 21 49
M  V30 53 1 24 50
M  V30 54 1 24 51
M  V30 55 1 24 52
M  V30 56 1 25 53
M  V30 57 1 31 54
M  V30 58 1 31 55
M  V30 59 1 31 56
M  V30 60 1 32 57
M  V30 61 1 32 58
M  V30 62 1 32 59
M  V30 63 1 33 60
M  V30 64 1 33 61
M  V30 65 1 33 62
M  V30 66 1 36 63
M  V30 END BOND
M  V30 END CTAB
M  END
>  <Dataset>  (41) 
ChEMBL_Kinases

>  <Ligand_Instance>  (41) 
nan

>  <PDB_ID>  (41) 
nan

>  <Standardized_SMILES>  (41) 
CN(C)S(=O)(=O)c1ccc(Nc2cc3c(cn2)cc(-c2cnn(C)c2)n3C(=O)OC(C)(C)C)c(Cl)c1

>  <Name>  (41) 
nan

>  <Pocket>  (41) 
nan

>  <ATP_Site>  (41) 
nan

>  <Peripheral>  (41) 
nan

>  <Num_H_Atoms_ProtBoundConf>  (41) 
nan

>  <Num_Resolved_Atoms>  (41) 
nan

>  <Num_Not_Resolved_Atoms>  (41) 
nan

$$$$
CHEMBL3109934
     RDKit          3D

  0  0  0  0  0  0  0  0  0  0999 V3000
M  V30 BEGIN CTAB
M  V30 COUNTS 52 55 0 0 0
M  V30 BEGIN ATOM
M  V30 1 C -0.321078 -3.339596 7.581031 0
M  V30 2 N -0.481911 -3.129939 6.135692 0
M  V30 3 C 0.017267 -2.120228 5.399765 0
M  V30 4 C -0.360107 -2.288332 4.084294 0
M  V30 5 C 0.005378 -1.377916 3.007252 0
M  V30 6 C 0.770778 -0.251503 3.205132 0
M  V30 7 C 0.926337 0.376906 1.988460 0
M  V30 8 C 1.585753 1.531580 1.574169 0
M  V30 9 N 1.589546 1.947428 0.278542 0
M  V30 10 C 0.936218 1.230218 -0.660092 0
M  V30 11 N 0.948621 1.676265 -2.009254 0
M  V30 12 C 1.652201 2.868510 -2.325108 0
M  V30 13 C 2.677078 2.669368 -3.250696 0
M  V30 14 C 3.455172 3.740544 -3.659502 0
M  V30 15 C 3.243190 5.011103 -3.172463 0
M  V30 16 C 2.218973 5.195540 -2.250974 0
M  V30 17 C 1.435014 4.137281 -1.834044 0
M  V30 18 Cl 0.132331 4.270939 -0.686308 0
M  V30 19 C 0.272719 0.081608 -0.284786 0
M  V30 20 C 0.265249 -0.343615 1.023344 0
M  V30 21 N -0.259541 -1.373122 1.697566 0
M  V30 22 C -1.030778 -2.404739 1.203152 0
M  V30 23 O -1.297948 -2.404261 -0.022637 0
M  V30 24 O -1.757377 -3.297384 0.503473 0
M  V30 25 C -2.080612 -3.329565 -0.853274 0
M  V30 26 C -2.878864 -2.122259 -1.325990 0
M  V30 27 C -0.898483 -3.486324 -1.764232 0
M  V30 28 C -3.007557 -4.530119 -1.095852 0
M  V30 29 C -1.109104 -3.446625 4.066687 0
M  V30 30 N -1.168729 -3.937001 5.317416 0
M  V30 31 H 0.638698 -2.829731 7.879086 0
M  V30 32 H -1.125830 -2.767507 8.094470 0
M  V30 33 H -0.305711 -4.400100 7.848307 0
M  V30 34 H 0.621762 -1.323444 5.848047 0
M  V30 35 H 1.215990 0.154785 4.103407 0
M  V30 36 H 2.105907 2.099121 2.332299 0
M  V30 37 H 0.461426 1.156518 -2.757281 0
M  V30 38 H 2.938298 1.723546 -3.701816 0
M  V30 39 H 4.260007 3.657739 -4.368659 0
M  V30 40 H 3.798951 5.891092 -3.436828 0
M  V30 41 H 1.952858 6.148392 -1.793978 0
M  V30 42 H -0.261452 -0.524653 -1.000224 0
M  V30 43 H -3.427793 -1.618834 -0.497044 0
M  V30 44 H -3.692023 -2.435243 -2.048568 0
M  V30 45 H -2.267062 -1.413721 -1.920651 0
M  V30 46 H -0.694234 -2.520102 -2.260376 0
M  V30 47 H 0.017700 -3.871078 -1.268530 0
M  V30 48 H -1.166755 -4.194010 -2.595289 0
M  V30 49 H -2.383889 -5.380846 -1.437632 0
M  V30 50 H -3.710047 -4.314682 -1.924720 0
M  V30 51 H -3.529013 -4.817546 -0.163368 0
M  V30 52 H -1.563182 -3.871000 3.182275 0
M  V30 END ATOM
M  V30 BEGIN BOND
M  V30 1 1 1 2
M  V30 2 1 2 3
M  V30 3 2 3 4
M  V30 4 1 4 5
M  V30 5 2 5 6
M  V30 6 1 6 7
M  V30 7 2 7 8
M  V30 8 1 8 9
M  V30 9 2 9 10
M  V30 10 1 10 11
M  V30 11 1 11 12
M  V30 12 2 12 13
M  V30 13 1 13 14
M  V30 14 2 14 15
M  V30 15 1 15 16
M  V30 16 2 16 17
M  V30 17 1 17 18
M  V30 18 1 10 19
M  V30 19 2 19 20
M  V30 20 1 20 21
M  V30 21 1 21 22
M  V30 22 2 22 23
M  V30 23 1 22 24
M  V30 24 1 24 25
M  V30 25 1 25 26
M  V30 26 1 25 27
M  V30 27 1 25 28
M  V30 28 1 4 29
M  V30 29 2 29 30
M  V30 30 1 30 2
M  V30 31 1 21 5
M  V30 32 1 20 7
M  V30 33 1 17 12
M  V30 34 1 1 31
M  V30 35 1 1 32
M  V30 36 1 1 33
M  V30 37 1 3 34
M  V30 38 1 6 35
M  V30 39 1 8 36
M  V30 40 1 11 37
M  V30 41 1 13 38
M  V30 42 1 14 39
M  V30 43 1 15 40
M  V30 44 1 16 41
M  V30 45 1 19 42
M  V30 46 1 26 43
M  V30 47 1 26 44
M  V30 48 1 26 45
M  V30 49 1 27 46
M  V30 50 1 27 47
M  V30 51 1 27 48
M  V30 52 1 28 49
M  V30 53 1 28 50
M  V30 54 1 28 51
M  V30 55 1 29 52
M  V30 END BOND
M  V30 END CTAB
M  END
>  <Dataset>  (42) 
ChEMBL_Kinases

>  <Ligand_Instance>  (42) 
nan

>  <PDB_ID>  (42) 
nan

>  <Standardized_SMILES>  (42) 
Cn1cc(-c2cc3cnc(Nc4ccccc4Cl)cc3n2C(=O)OC(C)(C)C)cn1

>  <Name>  (42) 
nan

>  <Pocket>  (42) 
nan

>  <ATP_Site>  (42) 
nan

>  <Peripheral>  (42) 
nan

>  <Num_H_Atoms_ProtBoundConf>  (42) 
nan

>  <Num_Resolved_Atoms>  (42) 
nan

>  <Num_Not_Resolved_Atoms>  (42) 
nan

$$$$
CHEMBL3109933
     RDKit          3D

  0  0  0  0  0  0  0  0  0  0999 V3000
M  V30 BEGIN CTAB
M  V30 COUNTS 62 65 0 0 0
M  V30 BEGIN ATOM
M  V30 1 C 3.190218 -0.306161 3.808438 0
M  V30 2 N 4.427800 0.486737 3.868584 0
M  V30 3 C 5.309013 0.000528 4.914252 0
M  V30 4 C 4.916835 1.616691 3.111706 0
M  V30 5 O 5.976243 2.296485 3.160578 0
M  V30 6 C 3.872286 1.912167 2.141022 0
M  V30 7 C 3.944274 1.429673 0.858360 0
M  V30 8 C 2.902800 1.748326 -0.017346 0
M  V30 9 C 1.829388 2.532851 0.403150 0
M  V30 10 N 0.938485 2.667885 -0.692945 0
M  V30 11 C -0.425564 2.270219 -0.738878 0
M  V30 12 C -0.720215 0.924730 -0.712077 0
M  V30 13 C -2.001280 0.444485 -0.774333 0
M  V30 14 C -2.981942 1.404648 -0.866045 0
M  V30 15 C -2.723519 2.764406 -0.894321 0
M  V30 16 N -1.435096 3.160925 -0.829566 0
M  V30 17 C -4.153374 0.692809 -0.920368 0
M  V30 18 C -3.985894 -0.670505 -0.869016 0
M  V30 19 C -5.001355 -1.693218 -0.925891 0
M  V30 20 C -6.341106 -1.393869 -1.043086 0
M  V30 21 N -6.960345 -2.601612 -1.060105 0
M  V30 22 N -6.039847 -3.563196 -0.958868 0
M  V30 23 C -6.345781 -4.996548 -0.937796 0
M  V30 24 C -4.779802 -3.052412 -0.870565 0
M  V30 25 N -2.652743 -0.719291 -0.781178 0
M  V30 26 C -1.955542 -1.929023 -0.713727 0
M  V30 27 O -1.141215 -2.859448 -0.641291 0
M  V30 28 O -1.160063 -2.992801 -0.642935 0
M  V30 29 C 0.208950 -3.157170 -0.522911 0
M  V30 30 C 0.821167 -2.563988 0.726765 0
M  V30 31 C 0.961684 -2.646867 -1.759382 0
M  V30 32 C 0.461764 -4.650264 -0.474813 0
M  V30 33 C 1.766254 3.010613 1.684604 0
M  V30 34 Cl 0.355450 3.958267 2.009328 0
M  V30 35 C 2.801088 2.698333 2.571704 0
M  V30 36 H 3.460180 -1.316156 3.456059 0
M  V30 37 H 2.767490 -0.388638 4.828311 0
M  V30 38 H 2.442764 0.152628 3.137716 0
M  V30 39 H 5.295921 -1.108456 4.994024 0
M  V30 40 H 6.360983 0.307414 4.770009 0
M  V30 41 H 4.947814 0.438974 5.875556 0
M  V30 42 H 4.802015 0.830032 0.602439 0
M  V30 43 H 3.085496 1.300037 -1.002204 0
M  V30 44 H 1.247955 3.100267 -1.608730 0
M  V30 45 H 0.080409 0.210851 -0.638786 0
M  V30 46 H -3.552855 3.452708 -0.961807 0
M  V30 47 H -5.140575 1.188490 -0.998570 0
M  V30 48 H -6.893779 -0.472994 -1.113342 0
M  V30 49 H -7.424838 -5.170265 -1.007509 0
M  V30 50 H -5.882079 -5.436494 -0.043026 0
M  V30 51 H -5.834766 -5.417271 -1.831547 0
M  V30 52 H -3.878567 -3.612061 -0.776529 0
M  V30 53 H 0.052693 -2.621913 1.529321 0
M  V30 54 H 1.652648 -3.229311 1.107532 0
M  V30 55 H 1.108284 -1.520626 0.626009 0
M  V30 56 H 2.038439 -2.773322 -1.519025 0
M  V30 57 H 0.691165 -3.350460 -2.588956 0
M  V30 58 H 0.699994 -1.619821 -2.015301 0
M  V30 59 H -0.443025 -5.210928 -0.791111 0
M  V30 60 H 0.618171 -4.952030 0.588475 0
M  V30 61 H 1.342444 -4.934715 -1.102174 0
M  V30 62 H 2.675421 3.107416 3.555823 0
M  V30 END ATOM
M  V30 BEGIN BOND
M  V30 1 1 1 2
M  V30 2 1 2 3
M  V30 3 1 2 4
M  V30 4 2 4 5
M  V30 5 1 4 6
M  V30 6 2 6 7
M  V30 7 1 7 8
M  V30 8 2 8 9
M  V30 9 1 9 10
M  V30 10 1 10 11
M  V30 11 2 11 12
M  V30 12 1 12 13
M  V30 13 2 13 14
M  V30 14 1 14 15
M  V30 15 2 15 16
M  V30 16 1 14 17
M  V30 17 2 17 18
M  V30 18 1 18 19
M  V30 19 1 19 20
M  V30 20 2 20 21
M  V30 21 1 21 22
M  V30 22 1 22 23
M  V30 23 1 22 24
M  V30 24 1 18 25
M  V30 25 1 25 26
M  V30 26 2 26 27
M  V30 27 1 26 28
M  V30 28 1 28 29
M  V30 29 1 29 30
M  V30 30 1 29 31
M  V30 31 1 29 32
M  V30 32 1 9 33
M  V30 33 1 33 34
M  V30 34 2 33 35
M  V30 35 1 35 6
M  V30 36 1 16 11
M  V30 37 2 24 19
M  V30 38 1 25 13
M  V30 39 1 1 36
M  V30 40 1 1 37
M  V30 41 1 1 38
M  V30 42 1 3 39
M  V30 43 1 3 40
M  V30 44 1 3 41
M  V30 45 1 7 42
M  V30 46 1 8 43
M  V30 47 1 10 44
M  V30 48 1 12 45
M  V30 49 1 15 46
M  V30 50 1 17 47
M  V30 51 1 20 48
M  V30 52 1 23 49
M  V30 53 1 23 50
M  V30 54 1 23 51
M  V30 55 1 24 52
M  V30 56 1 30 53
M  V30 57 1 30 54
M  V30 58 1 30 55
M  V30 59 1 31 56
M  V30 60 1 31 57
M  V30 61 1 31 58
M  V30 62 1 32 59
M  V30 63 1 32 60
M  V30 64 1 32 61
M  V30 65 1 35 62
M  V30 END BOND
M  V30 END CTAB
M  END
>  <Dataset>  (43) 
ChEMBL_Kinases

>  <Ligand_Instance>  (43) 
nan

>  <PDB_ID>  (43) 
nan

>  <Standardized_SMILES>  (43) 
CN(C)C(=O)c1ccc(Nc2cc3c(cn2)cc(-c2cnn(C)c2)n3C(=O)OC(C)(C)C)c(Cl)c1

>  <Name>  (43) 
nan

>  <Pocket>  (43) 
nan

>  <ATP_Site>  (43) 
nan

>  <Peripheral>  (43) 
nan

>  <Num_H_Atoms_ProtBoundConf>  (43) 
nan

>  <Num_Resolved_Atoms>  (43) 
nan

>  <Num_Not_Resolved_Atoms>  (43) 
nan

$$$$
CHEMBL3109732
     RDKit          3D

  0  0  0  0  0  0  0  0  0  0999 V3000
M  V30 BEGIN CTAB
M  V30 COUNTS 48 50 0 0 0
M  V30 BEGIN ATOM
M  V30 1 C 1.288130 -4.878479 0.537722 0
M  V30 2 C 1.030462 -3.910916 -0.598745 0
M  V30 3 C 0.254195 -4.707489 -1.652947 0
M  V30 4 C 2.339724 -3.544713 -1.242658 0
M  V30 5 C 0.232776 -2.730359 -0.181138 0
M  V30 6 C 0.608736 -1.498683 0.308846 0
M  V30 7 C -0.505831 -0.740931 0.549784 0
M  V30 8 N -0.575437 0.584502 1.055760 0
M  V30 9 C 0.517732 1.390835 1.414666 0
M  V30 10 O 1.658729 0.932072 1.289792 0
M  V30 11 N 0.423350 2.706901 1.915923 0
M  V30 12 C 1.700614 3.301614 2.201807 0
M  V30 13 C 2.454853 4.026089 1.332422 0
M  V30 14 C 3.663115 4.572011 1.649197 0
M  V30 15 C 4.160523 4.379679 2.939571 0
M  V30 16 Cl 5.713654 5.077205 3.358491 0
M  V30 17 C 3.437650 3.652357 3.864515 0
M  V30 18 C 2.210695 3.120884 3.479165 0
M  V30 19 N -1.579492 -1.478239 0.218315 0
M  V30 20 C -2.922279 -1.062406 0.317660 0
M  V30 21 C -3.464709 -0.012639 -0.395148 0
M  V30 22 C -4.776529 0.385953 -0.291574 0
M  V30 23 C -5.585200 -0.331183 0.594422 0
M  V30 24 C -5.045139 -1.380503 1.307649 0
M  V30 25 C -3.727616 -1.777121 1.200460 0
M  V30 26 C -1.159706 -2.677077 -0.223278 0
M  V30 27 H 1.119820 -5.945325 0.237546 0
M  V30 28 H 2.375040 -4.857491 0.842567 0
M  V30 29 H 0.635229 -4.669153 1.412707 0
M  V30 30 H -0.254137 -4.051430 -2.377075 0
M  V30 31 H 0.954530 -5.412983 -2.154764 0
M  V30 32 H -0.534914 -5.328982 -1.168289 0
M  V30 33 H 3.197547 -4.113963 -0.820233 0
M  V30 34 H 2.360994 -3.732711 -2.336486 0
M  V30 35 H 2.570186 -2.467416 -1.123078 0
M  V30 36 H 1.638652 -1.242325 0.453612 0
M  V30 37 H -1.486642 1.070004 1.201246 0
M  V30 38 H -0.535993 3.131554 2.035874 0
M  V30 39 H 2.049934 4.167630 0.323764 0
M  V30 40 H 4.257103 5.139613 0.972725 0
M  V30 41 H 3.815622 3.493183 4.881285 0
M  V30 42 H 1.665567 2.559737 4.211885 0
M  V30 43 H -2.750589 0.473498 -1.051908 0
M  V30 44 H -5.129899 1.217426 -0.881958 0
M  V30 45 H -6.619273 -0.023421 0.681559 0
M  V30 46 H -5.736785 -1.872304 1.961636 0
M  V30 47 H -3.414532 -2.610081 1.805755 0
M  V30 48 H -1.786433 -3.491636 -0.564321 0
M  V30 END ATOM
M  V30 BEGIN BOND
M  V30 1 1 1 2
M  V30 2 1 2 3
M  V30 3 1 2 4
M  V30 4 1 2 5
M  V30 5 1 5 6
M  V30 6 2 6 7
M  V30 7 1 7 8
M  V30 8 1 8 9
M  V30 9 2 9 10
M  V30 10 1 9 11
M  V30 11 1 11 12
M  V30 12 2 12 13
M  V30 13 1 13 14
M  V30 14 2 14 15
M  V30 15 1 15 16
M  V30 16 1 15 17
M  V30 17 2 17 18
M  V30 18 1 7 19
M  V30 19 1 19 20
M  V30 20 2 20 21
M  V30 21 1 21 22
M  V30 22 2 22 23
M  V30 23 1 23 24
M  V30 24 2 24 25
M  V30 25 1 19 26
M  V30 26 2 26 5
M  V30 27 1 18 12
M  V30 28 1 25 20
M  V30 29 1 1 27
M  V30 30 1 1 28
M  V30 31 1 1 29
M  V30 32 1 3 30
M  V30 33 1 3 31
M  V30 34 1 3 32
M  V30 35 1 4 33
M  V30 36 1 4 34
M  V30 37 1 4 35
M  V30 38 1 6 36
M  V30 39 1 8 37
M  V30 40 1 11 38
M  V30 41 1 13 39
M  V30 42 1 14 40
M  V30 43 1 17 41
M  V30 44 1 18 42
M  V30 45 1 21 43
M  V30 46 1 22 44
M  V30 47 1 23 45
M  V30 48 1 24 46
M  V30 49 1 25 47
M  V30 50 1 26 48
M  V30 END BOND
M  V30 END CTAB
M  END
>  <Dataset>  (44) 
ChEMBL_Kinases

>  <Ligand_Instance>  (44) 
nan

>  <PDB_ID>  (44) 
nan

>  <Standardized_SMILES>  (44) 
CC(C)(C)c1cc(NC(=O)Nc2ccc(Cl)cc2)n(-c2ccccc2)c1

>  <Name>  (44) 
nan

>  <Pocket>  (44) 
nan

>  <ATP_Site>  (44) 
nan

>  <Peripheral>  (44) 
nan

>  <Num_H_Atoms_ProtBoundConf>  (44) 
nan

>  <Num_Resolved_Atoms>  (44) 
nan

>  <Num_Not_Resolved_Atoms>  (44) 
nan

$$$$
CHEMBL3109731
     RDKit          3D

  0  0  0  0  0  0  0  0  0  0999 V3000
M  V30 BEGIN CTAB
M  V30 COUNTS 52 55 0 0 0
M  V30 BEGIN ATOM
M  V30 1 O 1.497465 -3.080640 -1.832326 0
M  V30 2 C 0.754980 -2.223036 -1.328159 0
M  V30 3 N 1.435980 -1.425424 -0.346671 0
M  V30 4 C 2.593407 -1.077244 0.407220 0
M  V30 5 C 2.742778 -1.822299 1.561377 0
M  V30 6 C 3.768168 -1.515709 2.467203 0
M  V30 7 C 4.546217 -0.456880 2.090033 0
M  V30 8 Cl 5.880414 0.079211 3.088681 0
M  V30 9 C 4.439606 0.310191 0.959503 0
M  V30 10 C 5.052478 1.630257 0.536413 0
M  V30 11 O 3.993705 2.520938 0.547442 0
M  V30 12 C 3.063373 2.989980 1.327421 0
M  V30 13 C 2.545366 2.920960 2.595152 0
M  V30 14 C 1.465769 3.619237 3.079309 0
M  V30 15 C 0.848564 4.484059 2.162250 0
M  V30 16 N 1.277908 4.630773 0.884520 0
M  V30 17 C 2.368381 3.892997 0.484771 0
M  V30 18 C 3.422917 -0.012262 0.072060 0
M  V30 19 C -0.639869 -1.696424 -1.359892 0
M  V30 20 C -0.911777 -0.365663 -1.708128 0
M  V30 21 C -2.205100 0.082954 -1.602883 0
M  V30 22 Cl -2.603496 1.749345 -2.043721 0
M  V30 23 C -3.174586 -0.787435 -1.162102 0
M  V30 24 C -2.875647 -2.080003 -0.830538 0
M  V30 25 N -3.843986 -2.977449 -0.309120 0
M  V30 26 C -4.822523 -2.437615 0.653607 0
M  V30 27 C -4.503195 -3.199843 1.950896 0
M  V30 28 O -4.818988 -4.528177 1.711822 0
M  V30 29 C -3.959329 -5.136469 0.791194 0
M  V30 30 C -4.112223 -4.379608 -0.519894 0
M  V30 31 C -1.580277 -2.575581 -0.924468 0
M  V30 32 H 0.858398 -0.660651 0.146380 0
M  V30 33 H 2.111454 -2.655574 1.834446 0
M  V30 34 H 4.014802 -1.995687 3.398239 0
M  V30 35 H 5.811454 1.856377 1.331385 0
M  V30 36 H 5.489174 1.486573 -0.439136 0
M  V30 37 H 3.177720 2.195248 3.133192 0
M  V30 38 H 1.192486 3.441351 4.105296 0
M  V30 39 H 0.007874 5.009383 2.565545 0
M  V30 40 H 2.497717 4.192830 -0.575588 0
M  V30 41 H 3.178041 0.457812 -0.864571 0
M  V30 42 H -0.086798 0.278928 -2.053285 0
M  V30 43 H -4.188341 -0.414155 -1.090963 0
M  V30 44 H -5.851752 -2.706376 0.374756 0
M  V30 45 H -4.661943 -1.369138 0.860824 0
M  V30 46 H -5.089474 -2.852705 2.800707 0
M  V30 47 H -3.401303 -3.090504 2.114581 0
M  V30 48 H -2.931856 -5.177111 1.140960 0
M  V30 49 H -4.367794 -6.164676 0.624997 0
M  V30 50 H -5.174621 -4.474146 -0.825534 0
M  V30 51 H -3.501635 -4.808107 -1.341164 0
M  V30 52 H -1.365742 -3.579356 -0.660352 0
M  V30 END ATOM
M  V30 BEGIN BOND
M  V30 1 2 1 2
M  V30 2 1 2 3
M  V30 3 1 3 4
M  V30 4 2 4 5
M  V30 5 1 5 6
M  V30 6 2 6 7
M  V30 7 1 7 8
M  V30 8 1 7 9
M  V30 9 1 9 10
M  V30 10 1 10 11
M  V30 11 1 11 12
M  V30 12 2 12 13
M  V30 13 1 13 14
M  V30 14 2 14 15
M  V30 15 1 15 16
M  V30 16 2 16 17
M  V30 17 2 9 18
M  V30 18 1 2 19
M  V30 19 2 19 20
M  V30 20 1 20 21
M  V30 21 1 21 22
M  V30 22 2 21 23
M  V30 23 1 23 24
M  V30 24 1 24 25
M  V30 25 1 25 26
M  V30 26 1 26 27
M  V30 27 1 27 28
M  V30 28 1 28 29
M  V30 29 1 29 30
M  V30 30 2 24 31
M  V30 31 1 18 4
M  V30 32 1 31 19
M  V30 33 1 17 12
M  V30 34 1 30 25
M  V30 35 1 3 32
M  V30 36 1 5 33
M  V30 37 1 6 34
M  V30 38 1 10 35
M  V30 39 1 10 36
M  V30 40 1 13 37
M  V30 41 1 14 38
M  V30 42 1 15 39
M  V30 43 1 17 40
M  V30 44 1 18 41
M  V30 45 1 20 42
M  V30 46 1 23 43
M  V30 47 1 26 44
M  V30 48 1 26 45
M  V30 49 1 27 46
M  V30 50 1 27 47
M  V30 51 1 29 48
M  V30 52 1 29 49
M  V30 53 1 30 50
M  V30 54 1 30 51
M  V30 55 1 31 52
M  V30 END BOND
M  V30 END CTAB
M  END
>  <Dataset>  (45) 
ChEMBL_Kinases

>  <Ligand_Instance>  (45) 
nan

>  <PDB_ID>  (45) 
nan

>  <Standardized_SMILES>  (45) 
O=C(Nc1ccc(Cl)c(COc2cccnc2)c1)c1cc(Cl)cc(N2CCOCC2)c1

>  <Name>  (45) 
nan

>  <Pocket>  (45) 
nan

>  <ATP_Site>  (45) 
nan

>  <Peripheral>  (45) 
nan

>  <Num_H_Atoms_ProtBoundConf>  (45) 
nan

>  <Num_Resolved_Atoms>  (45) 
nan

>  <Num_Not_Resolved_Atoms>  (45) 
nan

$$$$
CHEMBL3109011
     RDKit          3D

  0  0  0  0  0  0  0  0  0  0999 V3000
M  V30 BEGIN CTAB
M  V30 COUNTS 49 51 0 0 0
M  V30 BEGIN ATOM
M  V30 1 C 0.778845 -7.858748 2.467656 0
M  V30 2 C -0.667676 -7.798307 2.109664 0
M  V30 3 O -0.984930 -6.882770 1.085908 0
M  V30 4 C -0.753609 -5.537978 1.148136 0
M  V30 5 C -0.172037 -4.857507 2.223405 0
M  V30 6 C 0.007725 -3.492076 2.163392 0
M  V30 7 C -0.362931 -2.732949 1.072937 0
M  V30 8 C -0.198124 -1.367334 0.979249 0
M  V30 9 C -0.602007 -0.667877 -0.165738 0
M  V30 10 C -0.322895 0.755695 -0.045712 0
M  V30 11 N 0.823840 1.310829 0.359706 0
M  V30 12 N 0.694729 2.626509 0.345127 0
M  V30 13 C 1.796427 3.474517 0.740202 0
M  V30 14 C 3.021465 3.049593 -0.084952 0
M  V30 15 C 1.588917 4.919740 0.429131 0
M  V30 16 C 2.147684 3.212080 2.173374 0
M  V30 17 C -0.546260 3.015038 -0.070967 0
M  V30 18 N -1.029162 4.344576 -0.205299 0
M  V30 19 C -1.164736 1.808716 -0.309720 0
M  V30 20 C -2.540033 1.799694 -0.772940 0
M  V30 21 N -3.494199 0.811281 -1.102511 0
M  V30 22 O -3.185105 2.849193 -0.980523 0
M  V30 23 C -1.168961 -1.383923 -1.196700 0
M  V30 24 N -1.326825 -2.715027 -1.098489 0
M  V30 25 C -0.940862 -3.389175 -0.002144 0
M  V30 26 C -1.113141 -4.751306 0.073585 0
M  V30 27 H 1.349452 -7.129816 1.881959 0
M  V30 28 H 1.187885 -8.864282 2.196417 0
M  V30 29 H 0.977911 -7.768879 3.567617 0
M  V30 30 H -1.095157 -8.800288 1.905656 0
M  V30 31 H -1.212374 -7.409724 3.019963 0
M  V30 32 H 0.117889 -5.452594 3.076892 0
M  V30 33 H 0.458654 -2.956653 2.993542 0
M  V30 34 H 0.260100 -0.925617 1.858713 0
M  V30 35 H 2.957751 2.008981 -0.406474 0
M  V30 36 H 3.073132 3.668194 -1.027840 0
M  V30 37 H 3.937831 3.321299 0.470628 0
M  V30 38 H 1.212046 5.023292 -0.597977 0
M  V30 39 H 2.617606 5.388084 0.394514 0
M  V30 40 H 1.059000 5.490346 1.198699 0
M  V30 41 H 2.970423 2.449032 2.258165 0
M  V30 42 H 1.305686 2.817665 2.776992 0
M  V30 43 H 2.588410 4.118847 2.666011 0
M  V30 44 H -1.256708 4.656171 -1.194158 0
M  V30 45 H -1.201355 5.078142 0.514441 0
M  V30 46 H -4.110139 0.042871 -0.786892 0
M  V30 47 H -3.882487 0.606922 -2.042539 0
M  V30 48 H -1.440501 -0.784728 -2.027249 0
M  V30 49 H -1.568290 -5.227205 -0.787258 0
M  V30 END ATOM
M  V30 BEGIN BOND
M  V30 1 1 1 2
M  V30 2 1 2 3
M  V30 3 1 3 4
M  V30 4 2 4 5
M  V30 5 1 5 6
M  V30 6 2 6 7
M  V30 7 1 7 8
M  V30 8 2 8 9
M  V30 9 1 9 10
M  V30 10 2 10 11
M  V30 11 1 11 12
M  V30 12 1 12 13
M  V30 13 1 13 14
M  V30 14 1 13 15
M  V30 15 1 13 16
M  V30 16 1 12 17
M  V30 17 1 17 18
M  V30 18 2 17 19
M  V30 19 1 19 20
M  V30 20 1 20 21
M  V30 21 2 20 22
M  V30 22 1 9 23
M  V30 23 2 23 24
M  V30 24 1 24 25
M  V30 25 2 25 26
M  V30 26 1 26 4
M  V30 27 1 25 7
M  V30 28 1 19 10
M  V30 29 1 1 27
M  V30 30 1 1 28
M  V30 31 1 1 29
M  V30 32 1 2 30
M  V30 33 1 2 31
M  V30 34 1 5 32
M  V30 35 1 6 33
M  V30 36 1 8 34
M  V30 37 1 14 35
M  V30 38 1 14 36
M  V30 39 1 14 37
M  V30 40 1 15 38
M  V30 41 1 15 39
M  V30 42 1 15 40
M  V30 43 1 16 41
M  V30 44 1 16 42
M  V30 45 1 16 43
M  V30 46 1 18 44
M  V30 47 1 18 45
M  V30 48 1 21 46
M  V30 49 1 21 47
M  V30 50 1 23 48
M  V30 51 1 26 49
M  V30 END BOND
M  V30 END CTAB
M  END
>  <Dataset>  (46) 
ChEMBL_Kinases

>  <Ligand_Instance>  (46) 
nan

>  <PDB_ID>  (46) 
nan

>  <Standardized_SMILES>  (46) 
CCOc1ccc2cc(-c3nn(C(C)(C)C)c(N)c3C(N)=O)cnc2c1

>  <Name>  (46) 
nan

>  <Pocket>  (46) 
nan

>  <ATP_Site>  (46) 
nan

>  <Peripheral>  (46) 
nan

>  <Num_H_Atoms_ProtBoundConf>  (46) 
nan

>  <Num_Resolved_Atoms>  (46) 
nan

>  <Num_Not_Resolved_Atoms>  (46) 
nan

$$$$
CHEMBL3108997
     RDKit          3D

  0  0  0  0  0  0  0  0  0  0999 V3000
M  V30 BEGIN CTAB
M  V30 COUNTS 44 46 0 0 0
M  V30 BEGIN ATOM
M  V30 1 C -1.361472 -4.476210 -1.098242 0
M  V30 2 C -1.823728 -3.116949 -0.651059 0
M  V30 3 C -3.128545 -3.246283 0.110795 0
M  V30 4 C -2.111580 -2.285672 -1.874403 0
M  V30 5 N -0.816116 -2.426449 0.167597 0
M  V30 6 N -0.291480 -1.240800 -0.092692 0
M  V30 7 C 0.597454 -0.910195 0.860803 0
M  V30 8 C 1.381285 0.314169 0.932834 0
M  V30 9 C 2.724174 0.483653 1.188178 0
M  V30 10 C 3.254473 1.760332 1.213636 0
M  V30 11 C 2.483481 2.882666 0.990827 0
M  V30 12 C 3.081987 4.127846 1.031708 0
M  V30 13 C 2.289456 5.233698 0.805587 0
M  V30 14 O 2.780252 6.539250 0.821346 0
M  V30 15 C 0.923720 5.134530 0.541096 0
M  V30 16 C 0.383839 3.860040 0.513669 0
M  V30 17 C 1.137674 2.716595 0.734467 0
M  V30 18 C 0.594685 1.446337 0.706204 0
M  V30 19 C 0.569513 -1.986311 1.717116 0
M  V30 20 C 1.339782 -2.159007 2.936857 0
M  V30 21 N 2.286498 -1.502526 3.719010 0
M  V30 22 O 1.234850 -3.191720 3.643494 0
M  V30 23 C -0.309763 -2.965393 1.315330 0
M  V30 24 N -0.626841 -4.213254 1.913974 0
M  V30 25 H -1.735832 -5.301086 -0.455180 0
M  V30 26 H -1.730920 -4.727794 -2.125229 0
M  V30 27 H -0.255090 -4.467880 -1.129918 0
M  V30 28 H -3.186795 -4.163685 0.700532 0
M  V30 29 H -3.938983 -3.326511 -0.662148 0
M  V30 30 H -3.319007 -2.313662 0.669451 0
M  V30 31 H -1.876492 -1.222920 -1.626245 0
M  V30 32 H -1.496659 -2.596358 -2.754086 0
M  V30 33 H -3.201191 -2.290394 -2.139655 0
M  V30 34 H 3.251310 -0.436630 1.345687 0
M  V30 35 H 4.321909 1.830542 1.420810 0
M  V30 36 H 4.148531 4.268896 1.234290 0
M  V30 37 H 3.456024 6.826448 1.492828 0
M  V30 38 H 0.290602 5.997582 0.361722 0
M  V30 39 H -0.687188 3.761950 0.307524 0
M  V30 40 H -0.468510 1.442900 0.495702 0
M  V30 41 H 3.330885 -1.678057 3.638714 0
M  V30 42 H 3.336785 -1.630681 3.688961 0
M  V30 43 H 0.064846 -4.999690 1.795649 0
M  V30 44 H -1.499936 -4.422137 2.470048 0
M  V30 END ATOM
M  V30 BEGIN BOND
M  V30 1 1 1 2
M  V30 2 1 2 3
M  V30 3 1 2 4
M  V30 4 1 2 5
M  V30 5 1 5 6
M  V30 6 2 6 7
M  V30 7 1 7 8
M  V30 8 2 8 9
M  V30 9 1 9 10
M  V30 10 2 10 11
M  V30 11 1 11 12
M  V30 12 2 12 13
M  V30 13 1 13 14
M  V30 14 1 13 15
M  V30 15 2 15 16
M  V30 16 1 16 17
M  V30 17 2 17 18
M  V30 18 1 7 19
M  V30 19 1 19 20
M  V30 20 1 20 21
M  V30 21 2 20 22
M  V30 22 2 19 23
M  V30 23 1 23 24
M  V30 24 1 23 5
M  V30 25 1 18 8
M  V30 26 1 17 11
M  V30 27 1 1 25
M  V30 28 1 1 26
M  V30 29 1 1 27
M  V30 30 1 3 28
M  V30 31 1 3 29
M  V30 32 1 3 30
M  V30 33 1 4 31
M  V30 34 1 4 32
M  V30 35 1 4 33
M  V30 36 1 9 34
M  V30 37 1 10 35
M  V30 38 1 12 36
M  V30 39 1 14 37
M  V30 40 1 15 38
M  V30 41 1 16 39
M  V30 42 1 18 40
M  V30 43 1 21 41
M  V30 44 1 21 42
M  V30 45 1 24 43
M  V30 46 1 24 44
M  V30 END BOND
M  V30 END CTAB
M  END
>  <Dataset>  (47) 
ChEMBL_Kinases

>  <Ligand_Instance>  (47) 
nan

>  <PDB_ID>  (47) 
nan

>  <Standardized_SMILES>  (47) 
CC(C)(C)n1nc(-c2ccc3cc(O)ccc3c2)c(C(N)=O)c1N

>  <Name>  (47) 
nan

>  <Pocket>  (47) 
nan

>  <ATP_Site>  (47) 
nan

>  <Peripheral>  (47) 
nan

>  <Num_H_Atoms_ProtBoundConf>  (47) 
nan

>  <Num_Resolved_Atoms>  (47) 
nan

>  <Num_Not_Resolved_Atoms>  (47) 
nan

$$$$
CHEMBL3108948
     RDKit          3D

  0  0  0  0  0  0  0  0  0  0999 V3000
M  V30 BEGIN CTAB
M  V30 COUNTS 76 78 0 0 0
M  V30 BEGIN ATOM
M  V30 1 C -1.819818 -1.576172 -9.736530 0
M  V30 2 N -2.741031 -0.512055 -9.318976 0
M  V30 3 C -2.148695 0.584504 -8.593383 0
M  V30 4 O -0.922540 0.317837 -8.507815 0
M  V30 5 O -3.072892 1.552553 -8.229616 0
M  V30 6 C -2.610100 2.691746 -7.503819 0 CFG=1
M  V30 7 C -2.751200 3.888751 -8.456019 0
M  V30 8 C -3.359980 2.904688 -6.267312 0
M  V30 9 C -3.142061 2.475252 -5.040439 0
M  V30 10 C -1.971380 1.643416 -4.816910 0
M  V30 11 O -1.057911 1.205676 -5.555155 0
M  V30 12 N -1.705670 1.166391 -3.521189 0
M  V30 13 C -0.580821 0.327936 -3.138196 0 CFG=1
M  V30 14 C 0.184581 1.065672 -2.057791 0
M  V30 15 C 1.481673 0.367723 -1.716415 0
M  V30 16 C 1.261086 -1.106104 -1.698851 0 CFG=1
M  V30 17 C 2.173172 -1.870212 -0.784546 0
M  V30 18 C 2.088053 -1.494443 0.626134 0
M  V30 19 C 1.754939 -2.277465 1.651542 0
M  V30 20 C 1.395282 -3.717205 1.574486 0
M  V30 21 C 1.742460 -1.661205 2.973510 0
M  V30 22 C 1.433166 -2.315577 4.069102 0
M  V30 23 C 1.426160 -1.669091 5.407483 0 CFG=2
M  V30 24 C 1.160880 -2.705517 6.450115 0
M  V30 25 C 1.152101 -1.999123 7.787624 0 CFG=1
M  V30 26 C 0.334929 -2.569699 8.853560 0
M  V30 27 O 1.736407 -2.569759 8.896158 0
M  V30 28 C 1.257658 -0.499561 7.651876 0
M  V30 29 C 0.382496 0.034920 6.569352 0
M  V30 30 C -1.065645 0.153382 6.953436 0
M  V30 31 C 0.881630 1.450636 6.254179 0
M  V30 32 O 0.462767 -0.667184 5.373574 0
M  V30 33 C -0.173971 -1.387374 -1.388480 0
M  V30 34 C -1.099835 -0.940826 -2.492997 0
M  V30 35 H -1.445512 -2.134731 -8.838961 0
M  V30 36 H -2.256858 -2.245048 -10.487781 0
M  V30 37 H -0.924515 -1.097694 -10.211734 0
M  V30 38 H -3.754006 -0.669470 -9.600981 0
M  V30 39 H -1.534053 2.569599 -7.354892 0
M  V30 40 H -1.836613 4.040397 -9.064163 0
M  V30 41 H -2.890577 4.838611 -7.871440 0
M  V30 42 H -3.641897 3.796904 -9.079655 0
M  V30 43 H -4.239434 3.517596 -6.390965 0
M  V30 44 H -3.785706 2.717230 -4.232021 0
M  V30 45 H -2.293093 1.357758 -2.655205 0
M  V30 46 H 0.068028 0.095842 -4.006366 0
M  V30 47 H -0.486328 1.124733 -1.176069 0
M  V30 48 H 0.424573 2.103972 -2.343607 0
M  V30 49 H 2.287494 0.624058 -2.419571 0
M  V30 50 H 1.789739 0.771684 -0.732974 0
M  V30 51 H 1.479081 -1.492857 -2.734406 0
M  V30 52 H 2.008775 -2.951051 -0.973471 0
M  V30 53 H 3.239012 -1.684391 -1.107660 0
M  V30 54 H 2.333738 -0.447156 0.808476 0
M  V30 55 H 1.475941 -4.155869 0.580810 0
M  V30 56 H 0.366838 -3.920144 1.972638 0
M  V30 57 H 2.067279 -4.222970 2.323682 0
M  V30 58 H 1.992019 -0.605223 3.138407 0
M  V30 59 H 1.179439 -3.364346 3.949215 0
M  V30 60 H 2.411571 -1.209651 5.620920 0
M  V30 61 H 0.133420 -3.122853 6.299946 0
M  V30 62 H 1.950206 -3.469248 6.377851 0
M  V30 63 H -0.219619 -1.857916 9.496813 0
M  V30 64 H -0.177488 -3.531719 8.688118 0
M  V30 65 H 2.292008 -0.130787 7.526456 0
M  V30 66 H 0.901078 -0.044847 8.611343 0
M  V30 67 H -1.318799 -0.647724 7.675170 0
M  V30 68 H -1.701887 0.005398 6.048501 0
M  V30 69 H -1.258350 1.179625 7.380756 0
M  V30 70 H 1.037463 2.035054 7.177266 0
M  V30 71 H 1.862304 1.310999 5.722511 0
M  V30 72 H 0.151321 1.894713 5.565705 0
M  V30 73 H -0.289586 -2.456728 -1.143930 0
M  V30 74 H -0.407860 -0.833790 -0.440390 0
M  V30 75 H -1.351772 -1.722634 -3.210387 0
M  V30 76 H -2.067789 -0.642679 -1.995560 0
M  V30 END ATOM
M  V30 BEGIN BOND
M  V30 1 1 1 2
M  V30 2 1 2 3
M  V30 3 2 3 4
M  V30 4 1 3 5
M  V30 5 1 5 6
M  V30 6 1 6 7
M  V30 7 1 6 8
M  V30 8 2 8 9
M  V30 9 1 9 10
M  V30 10 2 10 11
M  V30 11 1 10 12
M  V30 12 1 12 13
M  V30 13 1 13 14
M  V30 14 1 14 15
M  V30 15 1 15 16
M  V30 16 1 16 17
M  V30 17 1 17 18
M  V30 18 2 18 19
M  V30 19 1 19 20
M  V30 20 1 19 21
M  V30 21 2 21 22
M  V30 22 1 22 23
M  V30 23 1 23 24
M  V30 24 1 24 25
M  V30 25 1 25 26
M  V30 26 1 26 27
M  V30 27 1 25 28
M  V30 28 1 28 29
M  V30 29 1 29 30
M  V30 30 1 29 31
M  V30 31 1 29 32
M  V30 32 1 16 33
M  V30 33 1 33 34
M  V30 34 1 34 13
M  V30 35 1 32 23
M  V30 36 1 25 27 CFG=1
M  V30 37 1 1 35
M  V30 38 1 1 36
M  V30 39 1 1 37
M  V30 40 1 2 38
M  V30 41 1 6 39 CFG=1
M  V30 42 1 7 40
M  V30 43 1 7 41
M  V30 44 1 7 42
M  V30 45 1 8 43
M  V30 46 1 9 44
M  V30 47 1 12 45
M  V30 48 1 13 46 CFG=3
M  V30 49 1 14 47
M  V30 50 1 14 48
M  V30 51 1 15 49
M  V30 52 1 15 50
M  V30 53 1 16 51 CFG=3
M  V30 54 1 17 52
M  V30 55 1 17 53
M  V30 56 1 18 54
M  V30 57 1 20 55
M  V30 58 1 20 56
M  V30 59 1 20 57
M  V30 60 1 21 58
M  V30 61 1 22 59
M  V30 62 1 23 60 CFG=1
M  V30 63 1 24 61
M  V30 64 1 24 62
M  V30 65 1 26 63
M  V30 66 1 26 64
M  V30 67 1 28 65
M  V30 68 1 28 66
M  V30 69 1 30 67
M  V30 70 1 30 68
M  V30 71 1 30 69
M  V30 72 1 31 70
M  V30 73 1 31 71
M  V30 74 1 31 72
M  V30 75 1 33 73
M  V30 76 1 33 74
M  V30 77 1 34 75
M  V30 78 1 34 76
M  V30 END BOND
M  V30 END CTAB
M  END
>  <Dataset>  (48) 
ChEMBL_Kinases

>  <Ligand_Instance>  (48) 
nan

>  <PDB_ID>  (48) 
nan

>  <Standardized_SMILES>  (48) 
CNC(=O)O[C@@H](C)/C=C\C(=O)N[C@H]1CC[C@@H](C/C=C(C)/C=C/[C@@H]2C[C@]3(CO3)CC(C)(C)O2)CC1

>  <Name>  (48) 
nan

>  <Pocket>  (48) 
nan

>  <ATP_Site>  (48) 
nan

>  <Peripheral>  (48) 
nan

>  <Num_H_Atoms_ProtBoundConf>  (48) 
nan

>  <Num_Resolved_Atoms>  (48) 
nan

>  <Num_Not_Resolved_Atoms>  (48) 
nan

$$$$
CHEMBL3108913
     RDKit          3D

  0  0  0  0  0  0  0  0  0  0999 V3000
M  V30 BEGIN CTAB
M  V30 COUNTS 50 52 0 0 0
M  V30 BEGIN ATOM
M  V30 1 C 1.688395 -7.574332 2.369220 0
M  V30 2 C 0.297026 -7.822142 1.821575 0
M  V30 3 O 0.036658 -6.922805 0.772377 0
M  V30 4 C 0.047932 -5.559526 0.970426 0
M  V30 5 C 0.282547 -4.803098 2.096249 0
M  V30 6 C 0.232974 -3.426740 2.024877 0
M  V30 7 C -0.043029 -2.758130 0.868571 0
M  V30 8 C -0.092535 -1.381738 0.802011 0
M  V30 9 C -0.373649 -0.660599 -0.366339 0
M  V30 10 C -0.354062 0.780624 -0.192432 0
M  V30 11 N 0.675329 1.400415 0.422386 0
M  V30 12 N 0.450681 2.710017 0.459991 0
M  V30 13 C 1.300762 3.729649 1.027039 0
M  V30 14 C 1.982254 4.558310 -0.047170 0
M  V30 15 C 0.602704 4.688610 1.937996 0
M  V30 16 C 2.417811 3.070043 1.808977 0
M  V30 17 C -0.752064 2.948015 -0.143674 0
M  V30 18 N -1.309292 4.272528 -0.279131 0
M  V30 19 C -1.269182 1.740241 -0.558463 0
M  V30 20 C -2.536238 1.573151 -1.232078 0
M  V30 21 N -3.137071 0.359170 -1.640595 0
M  V30 22 O -3.152775 2.642612 -1.466961 0
M  V30 23 C -0.603516 -1.419676 -1.475061 0
M  V30 24 C -0.558286 -2.795402 -1.425509 0
M  V30 25 C -0.281743 -3.496983 -0.272893 0
M  V30 26 C -0.235420 -4.872366 -0.215664 0
M  V30 27 H 2.172726 -6.713732 1.880289 0
M  V30 28 H 2.350586 -8.464938 2.193141 0
M  V30 29 H 1.684610 -7.406576 3.471726 0
M  V30 30 H 0.155243 -8.869993 1.542999 0
M  V30 31 H -0.421064 -7.538992 2.642710 0
M  V30 32 H 0.488353 -5.399438 2.957339 0
M  V30 33 H 0.422292 -2.884330 2.926411 0
M  V30 34 H 0.111053 -0.882801 1.763054 0
M  V30 35 H 2.374649 3.906245 -0.858287 0
M  V30 36 H 1.362182 5.402525 -0.407808 0
M  V30 37 H 2.874713 5.024365 0.434478 0
M  V30 38 H 1.386782 5.180717 2.568951 0
M  V30 39 H -0.055568 4.157998 2.667601 0
M  V30 40 H 0.088883 5.528725 1.428385 0
M  V30 41 H 2.938321 3.793799 2.475277 0
M  V30 42 H 1.975660 2.236408 2.391796 0
M  V30 43 H 3.156702 2.683235 1.070013 0
M  V30 44 H -1.234755 5.029418 -0.993782 0
M  V30 45 H -1.934080 4.514364 0.545722 0
M  V30 46 H -4.158946 0.309386 -1.843766 0
M  V30 47 H -4.150953 0.307872 -1.842642 0
M  V30 48 H -0.806560 -0.860162 -2.373883 0
M  V30 49 H -0.752931 -3.334561 -2.350325 0
M  V30 50 H -0.442587 -5.340820 -1.185861 0
M  V30 END ATOM
M  V30 BEGIN BOND
M  V30 1 1 1 2
M  V30 2 1 2 3
M  V30 3 1 3 4
M  V30 4 2 4 5
M  V30 5 1 5 6
M  V30 6 2 6 7
M  V30 7 1 7 8
M  V30 8 2 8 9
M  V30 9 1 9 10
M  V30 10 2 10 11
M  V30 11 1 11 12
M  V30 12 1 12 13
M  V30 13 1 13 14
M  V30 14 1 13 15
M  V30 15 1 13 16
M  V30 16 1 12 17
M  V30 17 1 17 18
M  V30 18 2 17 19
M  V30 19 1 19 20
M  V30 20 1 20 21
M  V30 21 2 20 22
M  V30 22 1 9 23
M  V30 23 2 23 24
M  V30 24 1 24 25
M  V30 25 2 25 26
M  V30 26 1 26 4
M  V30 27 1 25 7
M  V30 28 1 19 10
M  V30 29 1 1 27
M  V30 30 1 1 28
M  V30 31 1 1 29
M  V30 32 1 2 30
M  V30 33 1 2 31
M  V30 34 1 5 32
M  V30 35 1 6 33
M  V30 36 1 8 34
M  V30 37 1 14 35
M  V30 38 1 14 36
M  V30 39 1 14 37
M  V30 40 1 15 38
M  V30 41 1 15 39
M  V30 42 1 15 40
M  V30 43 1 16 41
M  V30 44 1 16 42
M  V30 45 1 16 43
M  V30 46 1 18 44
M  V30 47 1 18 45
M  V30 48 1 21 46
M  V30 49 1 21 47
M  V30 50 1 23 48
M  V30 51 1 24 49
M  V30 52 1 26 50
M  V30 END BOND
M  V30 END CTAB
M  END
>  <Dataset>  (49) 
ChEMBL_Kinases

>  <Ligand_Instance>  (49) 
nan

>  <PDB_ID>  (49) 
nan

>  <Standardized_SMILES>  (49) 
CCOc1ccc2cc(-c3nn(C(C)(C)C)c(N)c3C(N)=O)ccc2c1

>  <Name>  (49) 
nan

>  <Pocket>  (49) 
nan

>  <ATP_Site>  (49) 
nan

>  <Peripheral>  (49) 
nan

>  <Num_H_Atoms_ProtBoundConf>  (49) 
nan

>  <Num_Resolved_Atoms>  (49) 
nan

>  <Num_Not_Resolved_Atoms>  (49) 
nan

$$$$
CHEMBL3105110
     RDKit          3D

  0  0  0  0  0  0  0  0  0  0999 V3000
M  V30 BEGIN CTAB
M  V30 COUNTS 69 73 0 0 0
M  V30 BEGIN ATOM
M  V30 1 C -1.175899 -0.907220 4.264531 0
M  V30 2 C -0.489675 -0.734604 2.953286 0
M  V30 3 C 0.704422 -1.256028 2.602093 0
M  V30 4 C 0.955115 -0.825961 1.260893 0 CFG=2
M  V30 5 C 2.339404 -0.332825 0.983800 0
M  V30 6 O 3.288220 -0.306623 1.711097 0
M  V30 7 C 2.696495 0.236909 -0.389431 0 CFG=1
M  V30 8 C 2.688428 1.657413 -0.185853 0
M  V30 9 C 1.700806 2.297950 0.504595 0
M  V30 10 C 1.763853 3.786115 0.336733 0
M  V30 11 O 0.611823 4.309310 -0.227702 0
M  V30 12 C 0.630241 1.698255 1.363020 0 CFG=1
M  V30 13 O -0.428092 2.605687 1.348525 0
M  V30 14 C 0.102870 0.374483 0.920079 0 CFG=1
M  V30 15 O -0.354510 0.369234 -0.382007 0
M  V30 16 C -1.079797 0.076642 1.826713 0 CFG=1
M  V30 17 O -2.116558 -0.576196 1.163412 0
M  V30 18 C -3.417248 -0.037159 1.171908 0
M  V30 19 O -3.713570 1.039333 1.764185 0
M  V30 20 C -4.379056 -0.856965 0.423988 0
M  V30 21 C -5.076391 -1.855782 1.071704 0
M  V30 22 C -4.814105 -2.054827 2.519079 0
M  V30 23 C -5.961581 -2.596322 0.342306 0
M  V30 24 C -6.132916 -2.331131 -1.000880 0
M  V30 25 C -5.440448 -1.326096 -1.682882 0
M  V30 26 C -4.540933 -0.581176 -0.919302 0
M  V30 27 O -3.843210 0.425805 -1.589770 0
M  V30 28 C 3.776969 -0.606355 -0.768435 0 CFG=1
M  V30 29 C 3.468606 -2.010784 -0.465521 0 CFG=1
M  V30 30 C 2.244969 -2.574590 -0.008609 0
M  V30 31 C 0.935934 -1.928980 0.188113 0 CFG=1
M  V30 32 C -0.001459 -3.002187 0.761692 0
M  V30 33 C 3.727618 -1.571918 -1.890957 0
M  V30 34 C 2.550357 -1.662793 -2.818747 0
M  V30 35 C 5.042309 -1.885101 -2.573370 0
M  V30 36 H -0.479196 -1.001719 5.112341 0
M  V30 37 H -1.804455 -1.831443 4.248894 0
M  V30 38 H -1.795646 0.004556 4.497786 0
M  V30 39 H 1.355597 -1.868146 3.180573 0
M  V30 40 H 1.881799 0.040242 -1.153255 0
M  V30 41 H 3.486086 2.273292 -0.585018 0
M  V30 42 H 2.692733 4.089272 -0.134627 0
M  V30 43 H 1.806665 4.183342 1.393890 0
M  V30 44 H 0.423900 5.201568 0.164367 0
M  V30 45 H 0.958002 1.607075 2.417312 0
M  V30 46 H -1.133322 2.345735 0.701757 0
M  V30 47 H -1.114235 -0.244995 -0.448410 0
M  V30 48 H -1.491594 1.006336 2.299231 0
M  V30 49 H -3.992589 -2.759748 2.706873 0
M  V30 50 H -5.743281 -2.516927 2.955731 0
M  V30 51 H -4.687455 -1.084674 3.057039 0
M  V30 52 H -6.520942 -3.386793 0.830301 0
M  V30 53 H -6.821799 -2.889452 -1.621459 0
M  V30 54 H -5.594163 -1.139683 -2.736374 0
M  V30 55 H -4.302761 0.939320 -2.352961 0
M  V30 56 H 4.782288 -0.203491 -0.503343 0
M  V30 57 H 4.372681 -2.596354 -0.097646 0
M  V30 58 H 2.404478 -3.103197 0.986933 0
M  V30 59 H 2.018808 -3.472626 -0.670167 0
M  V30 60 H 0.410806 -1.574080 -0.719396 0
M  V30 61 H 0.380987 -4.030968 0.501743 0
M  V30 62 H -0.053787 -2.983422 1.852682 0
M  V30 63 H -1.008791 -2.959064 0.352809 0
M  V30 64 H 2.825659 -2.051573 -3.834066 0
M  V30 65 H 1.861736 -2.437040 -2.420519 0
M  V30 66 H 2.059152 -0.693222 -3.040748 0
M  V30 67 H 5.610627 -0.910887 -2.572151 0
M  V30 68 H 5.615421 -2.646919 -2.012557 0
M  V30 69 H 4.942441 -2.165605 -3.631526 0
M  V30 END ATOM
M  V30 BEGIN BOND
M  V30 1 1 1 2
M  V30 2 2 2 3
M  V30 3 1 4 3 CFG=1
M  V30 4 1 4 5
M  V30 5 2 5 6
M  V30 6 1 5 7
M  V30 7 1 7 8
M  V30 8 2 8 9
M  V30 9 1 9 10
M  V30 10 1 10 11
M  V30 11 1 9 12
M  V30 12 1 12 13
M  V30 13 1 12 14
M  V30 14 1 14 15 CFG=3
M  V30 15 1 14 16
M  V30 16 1 16 17
M  V30 17 1 17 18
M  V30 18 2 18 19
M  V30 19 1 18 20
M  V30 20 2 20 21
M  V30 21 1 21 22
M  V30 22 1 21 23
M  V30 23 2 23 24
M  V30 24 1 24 25
M  V30 25 2 25 26
M  V30 26 1 26 27
M  V30 27 1 7 28
M  V30 28 1 28 29
M  V30 29 1 29 30
M  V30 30 1 30 31
M  V30 31 1 31 32
M  V30 32 1 29 33
M  V30 33 1 33 34
M  V30 34 1 33 35
M  V30 35 1 16 2
M  V30 36 1 26 20
M  V30 37 1 33 28
M  V30 38 1 14 4
M  V30 39 1 31 4
M  V30 40 1 1 36
M  V30 41 1 1 37
M  V30 42 1 1 38
M  V30 43 1 3 39
M  V30 44 1 7 40 CFG=3
M  V30 45 1 8 41
M  V30 46 1 10 42
M  V30 47 1 10 43
M  V30 48 1 11 44
M  V30 49 1 12 45 CFG=1
M  V30 50 1 13 46
M  V30 51 1 15 47
M  V30 52 1 16 48 CFG=1
M  V30 53 1 22 49
M  V30 54 1 22 50
M  V30 55 1 22 51
M  V30 56 1 23 52
M  V30 57 1 24 53
M  V30 58 1 25 54
M  V30 59 1 27 55
M  V30 60 1 28 56 CFG=1
M  V30 61 1 29 57 CFG=1
M  V30 62 1 30 58
M  V30 63 1 30 59
M  V30 64 1 31 60 CFG=3
M  V30 65 1 32 61
M  V30 66 1 32 62
M  V30 67 1 32 63
M  V30 68 1 34 64
M  V30 69 1 34 65
M  V30 70 1 34 66
M  V30 71 1 35 67
M  V30 72 1 35 68
M  V30 73 1 35 69
M  V30 END BOND
M  V30 END CTAB
M  END
>  <Dataset>  (50) 
ChEMBL_Kinases

>  <Ligand_Instance>  (50) 
nan

>  <PDB_ID>  (50) 
nan

>  <Standardized_SMILES>  (50) 
CC1=C[C@]23C(=O)[C@@H](C=C(CO)[C@@H](O)[C@]2(O)[C@H]1OC(=O)c1c(C)cccc1O)[C@H]1[C@@H](C[C@H]3C)C1(C)C

>  <Name>  (50) 
nan

>  <Pocket>  (50) 
nan

>  <ATP_Site>  (50) 
nan

>  <Peripheral>  (50) 
nan

>  <Num_H_Atoms_ProtBoundConf>  (50) 
nan

>  <Num_Resolved_Atoms>  (50) 
nan

>  <Num_Not_Resolved_Atoms>  (50) 
nan

$$$$
CHEMBL3105106
     RDKit          3D

  0  0  0  0  0  0  0  0  0  0999 V3000
M  V30 BEGIN CTAB
M  V30 COUNTS 70 74 0 0 0
M  V30 BEGIN ATOM
M  V30 1 C -2.683262 1.496525 2.114862 0
M  V30 2 C -1.543841 0.810701 1.404901 0
M  V30 3 C -0.864756 -0.189443 1.949570 0
M  V30 4 C 0.125380 -0.556457 0.958010 0 CFG=2
M  V30 5 C 1.509630 -0.738454 1.482682 0
M  V30 6 O 1.864370 -0.672414 2.624597 0
M  V30 7 C 2.652873 -1.044960 0.518142 0 CFG=1
M  V30 8 C 3.335882 0.218442 0.417979 0
M  V30 9 C 2.694667 1.403607 0.213801 0
M  V30 10 C 3.603543 2.517083 -0.174461 0
M  V30 11 O 3.497477 3.531714 0.789552 0
M  V30 12 C 1.220475 1.675062 0.342600 0 CFG=1
M  V30 13 O 0.934203 2.748234 -0.501553 0
M  V30 14 C 0.299538 0.579819 -0.024668 0 CFG=1
M  V30 15 O 0.465215 0.095671 -1.313108 0
M  V30 16 C -1.088489 1.194275 0.044292 0 CFG=1
M  V30 17 O -1.914319 0.644977 -0.963802 0
M  V30 18 C -2.593775 1.451419 -1.833662 0
M  V30 19 O -2.574848 2.710024 -1.850679 0
M  V30 20 C -3.398164 0.684213 -2.808047 0
M  V30 21 C -2.910508 0.265312 -4.036236 0
M  V30 22 C -1.503172 0.604339 -4.395233 0
M  V30 23 C -3.732498 -0.450951 -4.892876 0
M  V30 24 C -5.033656 -0.767074 -4.566304 0
M  V30 25 C -5.529695 -0.350462 -3.336519 0
M  V30 26 C -4.707650 0.363886 -2.483863 0
M  V30 27 N -5.218305 0.784754 -1.234427 0
M  V30 28 C 3.138045 -2.253599 1.105763 0 CFG=1
M  V30 29 C 1.983912 -3.133501 1.408103 0 CFG=1
M  V30 30 C 0.702221 -3.049774 0.800864 0
M  V30 31 C -0.068914 -1.912377 0.312968 0 CFG=1
M  V30 32 C -1.560418 -2.171475 0.311103 0
M  V30 33 C 3.153826 -3.598236 0.506809 0
M  V30 34 C 2.852190 -3.800363 -0.969230 0
M  V30 35 C 4.099922 -4.645052 1.034450 0
M  V30 36 H -2.251023 2.142269 2.927503 0
M  V30 37 H -3.282542 0.725176 2.645909 0
M  V30 38 H -3.327958 2.060902 1.436795 0
M  V30 39 H -0.989274 -0.647678 2.899668 0
M  V30 40 H 2.308749 -1.299492 -0.508146 0
M  V30 41 H 4.417363 0.262998 0.505362 0
M  V30 42 H 3.290750 2.915628 -1.151550 0
M  V30 43 H 4.643710 2.154246 -0.208982 0
M  V30 44 H 2.577726 3.629627 1.150362 0
M  V30 45 H 0.959956 2.016017 1.362398 0
M  V30 46 H 1.283422 2.604678 -1.417753 0
M  V30 47 H 0.302414 0.814187 -1.980611 0
M  V30 48 H -1.090578 2.294114 0.007048 0
M  V30 49 H -1.420361 0.448033 -5.503383 0
M  V30 50 H -1.281969 1.671794 -4.219455 0
M  V30 51 H -0.776570 -0.091813 -3.927338 0
M  V30 52 H -3.334124 -0.767869 -5.844198 0
M  V30 53 H -5.692968 -1.321144 -5.211456 0
M  V30 54 H -6.536020 -0.582108 -3.057474 0
M  V30 55 H -4.910531 0.106461 -0.485244 0
M  V30 56 H -5.808234 1.583700 -0.897342 0
M  V30 57 H 3.907825 -2.106933 1.890070 0
M  V30 58 H 2.067402 -3.613143 2.437756 0
M  V30 59 H 0.673315 -3.792850 -0.063577 0
M  V30 60 H -0.038598 -3.580405 1.488575 0
M  V30 61 H 0.180881 -1.728199 -0.775890 0
M  V30 62 H -2.088468 -1.596791 1.113946 0
M  V30 63 H -2.041726 -2.085416 -0.664411 0
M  V30 64 H -1.715635 -3.248065 0.616807 0
M  V30 65 H 2.441665 -4.842332 -1.094381 0
M  V30 66 H 2.092217 -3.133443 -1.371254 0
M  V30 67 H 3.793258 -3.714490 -1.514235 0
M  V30 68 H 3.628160 -5.181248 1.891416 0
M  V30 69 H 5.018718 -4.104366 1.386697 0
M  V30 70 H 4.411472 -5.395245 0.302431 0
M  V30 END ATOM
M  V30 BEGIN BOND
M  V30 1 1 1 2
M  V30 2 2 2 3
M  V30 3 1 4 3 CFG=1
M  V30 4 1 4 5
M  V30 5 2 5 6
M  V30 6 1 5 7
M  V30 7 1 7 8
M  V30 8 2 8 9
M  V30 9 1 9 10
M  V30 10 1 10 11
M  V30 11 1 9 12
M  V30 12 1 12 13
M  V30 13 1 12 14
M  V30 14 1 14 15 CFG=3
M  V30 15 1 14 16
M  V30 16 1 16 17
M  V30 17 1 17 18
M  V30 18 2 18 19
M  V30 19 1 18 20
M  V30 20 2 20 21
M  V30 21 1 21 22
M  V30 22 1 21 23
M  V30 23 2 23 24
M  V30 24 1 24 25
M  V30 25 2 25 26
M  V30 26 1 26 27
M  V30 27 1 7 28
M  V30 28 1 28 29
M  V30 29 1 29 30
M  V30 30 1 30 31
M  V30 31 1 31 32
M  V30 32 1 29 33
M  V30 33 1 33 34
M  V30 34 1 33 35
M  V30 35 1 16 2
M  V30 36 1 26 20
M  V30 37 1 33 28
M  V30 38 1 14 4
M  V30 39 1 31 4
M  V30 40 1 1 36
M  V30 41 1 1 37
M  V30 42 1 1 38
M  V30 43 1 3 39
M  V30 44 1 7 40 CFG=3
M  V30 45 1 8 41
M  V30 46 1 10 42
M  V30 47 1 10 43
M  V30 48 1 11 44
M  V30 49 1 12 45 CFG=1
M  V30 50 1 13 46
M  V30 51 1 15 47
M  V30 52 1 16 48 CFG=1
M  V30 53 1 22 49
M  V30 54 1 22 50
M  V30 55 1 22 51
M  V30 56 1 23 52
M  V30 57 1 24 53
M  V30 58 1 25 54
M  V30 59 1 27 55
M  V30 60 1 27 56
M  V30 61 1 28 57 CFG=1
M  V30 62 1 29 58 CFG=1
M  V30 63 1 30 59
M  V30 64 1 30 60
M  V30 65 1 31 61 CFG=3
M  V30 66 1 32 62
M  V30 67 1 32 63
M  V30 68 1 32 64
M  V30 69 1 34 65
M  V30 70 1 34 66
M  V30 71 1 34 67
M  V30 72 1 35 68
M  V30 73 1 35 69
M  V30 74 1 35 70
M  V30 END BOND
M  V30 END CTAB
M  END
>  <Dataset>  (51) 
ChEMBL_Kinases

>  <Ligand_Instance>  (51) 
nan

>  <PDB_ID>  (51) 
nan

>  <Standardized_SMILES>  (51) 
CC1=C[C@]23C(=O)[C@@H](C=C(CO)[C@@H](O)[C@]2(O)[C@H]1OC(=O)c1c(C)cccc1N)[C@H]1[C@@H](C[C@H]3C)C1(C)C

>  <Name>  (51) 
nan

>  <Pocket>  (51) 
nan

>  <ATP_Site>  (51) 
nan

>  <Peripheral>  (51) 
nan

>  <Num_H_Atoms_ProtBoundConf>  (51) 
nan

>  <Num_Resolved_Atoms>  (51) 
nan

>  <Num_Not_Resolved_Atoms>  (51) 
nan

$$$$
CHEMBL3105104
     RDKit          3D

  0  0  0  0  0  0  0  0  0  0999 V3000
M  V30 BEGIN CTAB
M  V30 COUNTS 65 69 0 0 0
M  V30 BEGIN ATOM
M  V30 1 C 3.207247 0.021527 1.667899 0
M  V30 2 C 1.987587 -0.355286 0.857479 0
M  V30 3 C 0.711325 0.046541 0.997995 0
M  V30 4 C -0.166553 -0.574699 -0.020596 0 CFG=2
M  V30 5 C -1.453708 -1.153921 0.520591 0
M  V30 6 O -2.002726 -1.636641 -0.425705 0
M  V30 7 C -1.786527 -1.039098 1.982974 0 CFG=1
M  V30 8 C -0.536433 -1.643274 2.607115 0
M  V30 9 C 0.440314 -2.410764 2.052661 0
M  V30 10 C 1.557094 -2.862095 2.935880 0
M  V30 11 O 1.406556 -2.402889 4.231577 0
M  V30 12 C 0.481871 -2.842251 0.634736 0 CFG=1
M  V30 13 O -0.567983 -3.710605 0.325417 0
M  V30 14 C 0.616841 -1.739223 -0.392626 0 CFG=1
M  V30 15 O 0.333175 -2.270211 -1.646505 0
M  V30 16 C 2.060930 -1.293067 -0.288252 0 CFG=1
M  V30 17 O 2.482064 -0.669818 -1.477008 0
M  V30 18 C 3.565560 -1.066381 -2.205374 0
M  V30 19 O 4.333970 -2.008386 -1.952140 0
M  V30 20 C 3.755775 -0.218413 -3.402225 0
M  V30 21 C 3.109306 -0.633518 -4.563907 0
M  V30 22 Cl 2.110336 -2.060736 -4.693284 0
M  V30 23 C 3.258803 0.128553 -5.707269 0
M  V30 24 C 4.031177 1.279717 -5.708317 0
M  V30 25 C 4.672746 1.686497 -4.544463 0
M  V30 26 C 4.527674 0.927936 -3.394569 0
M  V30 27 Cl 5.288010 1.353335 -1.895115 0
M  V30 28 C -1.860986 0.441842 2.191159 0 CFG=1
M  V30 29 C -1.834509 1.381072 1.138054 0 CFG=1
M  V30 30 C -1.864003 1.121542 -0.291851 0
M  V30 31 C -0.651836 0.453842 -0.919377 0 CFG=1
M  V30 32 C 0.333888 1.522554 -1.308694 0
M  V30 33 C -3.119119 1.162974 1.946102 0
M  V30 34 C -4.288740 0.519785 1.235341 0
M  V30 35 C -3.561576 2.262586 2.905000 0
M  V30 36 H 4.116314 -0.189468 1.111469 0
M  V30 37 H 3.110045 1.140605 1.802784 0
M  V30 38 H 3.168541 -0.374051 2.695220 0
M  V30 39 H 0.541418 0.744330 1.812037 0
M  V30 40 H -2.683810 -1.597651 2.264440 0
M  V30 41 H -0.380123 -1.438328 3.674630 0
M  V30 42 H 2.555863 -2.677521 2.494174 0
M  V30 43 H 1.451416 -3.981804 2.983617 0
M  V30 44 H 2.250913 -2.064956 4.598037 0
M  V30 45 H 1.398326 -3.487986 0.478849 0
M  V30 46 H -0.406069 -4.628942 0.634750 0
M  V30 47 H -0.136751 -3.129140 -1.567511 0
M  V30 48 H 2.709296 -2.139462 -0.014535 0
M  V30 49 H 2.785463 -0.128908 -6.656383 0
M  V30 50 H 4.179774 1.906571 -6.567878 0
M  V30 51 H 5.288710 2.575561 -4.483849 0
M  V30 52 H -1.390476 0.709678 3.185723 0
M  V30 53 H -1.379390 2.390013 1.379067 0
M  V30 54 H -2.805697 0.560185 -0.566379 0
M  V30 55 H -1.981367 2.078503 -0.863732 0
M  V30 56 H -1.019376 -0.002909 -1.864556 0
M  V30 57 H 0.734477 1.344508 -2.328078 0
M  V30 58 H -0.158929 2.516583 -1.357217 0
M  V30 59 H 1.151695 1.651504 -0.559218 0
M  V30 60 H -4.685685 1.180868 0.410357 0
M  V30 61 H -4.119216 -0.501527 0.898473 0
M  V30 62 H -5.119696 0.465835 1.969129 0
M  V30 63 H -4.242435 2.984603 2.416634 0
M  V30 64 H -3.974113 1.799098 3.822504 0
M  V30 65 H -2.616360 2.785998 3.200723 0
M  V30 END ATOM
M  V30 BEGIN BOND
M  V30 1 1 1 2
M  V30 2 2 2 3
M  V30 3 1 4 3 CFG=1
M  V30 4 1 4 5
M  V30 5 2 5 6
M  V30 6 1 5 7
M  V30 7 1 7 8
M  V30 8 2 8 9
M  V30 9 1 9 10
M  V30 10 1 10 11
M  V30 11 1 9 12
M  V30 12 1 12 13
M  V30 13 1 12 14
M  V30 14 1 14 15 CFG=3
M  V30 15 1 14 16
M  V30 16 1 16 17
M  V30 17 1 17 18
M  V30 18 2 18 19
M  V30 19 1 18 20
M  V30 20 2 20 21
M  V30 21 1 21 22
M  V30 22 1 21 23
M  V30 23 2 23 24
M  V30 24 1 24 25
M  V30 25 2 25 26
M  V30 26 1 26 27
M  V30 27 1 7 28
M  V30 28 1 28 29
M  V30 29 1 29 30
M  V30 30 1 30 31
M  V30 31 1 31 32
M  V30 32 1 29 33
M  V30 33 1 33 34
M  V30 34 1 33 35
M  V30 35 1 16 2
M  V30 36 1 26 20
M  V30 37 1 33 28
M  V30 38 1 14 4
M  V30 39 1 31 4
M  V30 40 1 1 36
M  V30 41 1 1 37
M  V30 42 1 1 38
M  V30 43 1 3 39
M  V30 44 1 7 40 CFG=3
M  V30 45 1 8 41
M  V30 46 1 10 42
M  V30 47 1 10 43
M  V30 48 1 11 44
M  V30 49 1 12 45 CFG=1
M  V30 50 1 13 46
M  V30 51 1 15 47
M  V30 52 1 16 48 CFG=1
M  V30 53 1 23 49
M  V30 54 1 24 50
M  V30 55 1 25 51
M  V30 56 1 28 52 CFG=1
M  V30 57 1 29 53 CFG=3
M  V30 58 1 30 54
M  V30 59 1 30 55
M  V30 60 1 31 56 CFG=3
M  V30 61 1 32 57
M  V30 62 1 32 58
M  V30 63 1 32 59
M  V30 64 1 34 60
M  V30 65 1 34 61
M  V30 66 1 34 62
M  V30 67 1 35 63
M  V30 68 1 35 64
M  V30 69 1 35 65
M  V30 END BOND
M  V30 END CTAB
M  END
>  <Dataset>  (52) 
ChEMBL_Kinases

>  <Ligand_Instance>  (52) 
nan

>  <PDB_ID>  (52) 
nan

>  <Standardized_SMILES>  (52) 
CC1=C[C@]23C(=O)[C@@H](C=C(CO)[C@@H](O)[C@]2(O)[C@H]1OC(=O)c1c(Cl)cccc1Cl)[C@H]1[C@@H](C[C@H]3C)C1(C)C

>  <Name>  (52) 
nan

>  <Pocket>  (52) 
nan

>  <ATP_Site>  (52) 
nan

>  <Peripheral>  (52) 
nan

>  <Num_H_Atoms_ProtBoundConf>  (52) 
nan

>  <Num_Resolved_Atoms>  (52) 
nan

>  <Num_Not_Resolved_Atoms>  (52) 
nan

$$$$
CHEMBL3105103
     RDKit          3D

  0  0  0  0  0  0  0  0  0  0999 V3000
M  V30 BEGIN CTAB
M  V30 COUNTS 73 77 0 0 0
M  V30 BEGIN ATOM
M  V30 1 C 2.893504 -2.963650 3.557314 0
M  V30 2 O 1.877156 -1.980948 3.549101 0
M  V30 3 C 2.119772 -0.742910 4.105560 0
M  V30 4 C 3.318820 -0.347573 4.700642 0
M  V30 5 C 3.433700 0.925069 5.222604 0
M  V30 6 C 2.389493 1.809155 5.166886 0
M  V30 7 C 1.192262 1.456285 4.588483 0
M  V30 8 O 0.168390 2.367928 4.550740 0
M  V30 9 C 0.292727 3.678093 5.090233 0
M  V30 10 C 1.073889 0.180410 4.064007 0
M  V30 11 C -0.220276 -0.168570 3.450858 0
M  V30 12 O -1.244576 -0.680572 3.969229 0
M  V30 13 O -0.282029 0.129066 2.083950 0
M  V30 14 C -1.421359 -0.128197 1.331628 0 CFG=1
M  V30 15 C -2.042600 1.071098 0.732755 0
M  V30 16 C -2.673948 2.123505 1.580677 0
M  V30 17 C -1.931678 1.020512 -0.592299 0
M  V30 18 C -1.235013 -0.202172 -0.990538 0 CFG=2
M  V30 19 C -1.868434 -0.904931 -2.140478 0
M  V30 20 O -2.829495 -0.583749 -2.760259 0
M  V30 21 C -1.267865 -2.211451 -2.649829 0 CFG=1
M  V30 22 C -2.092197 -3.199906 -2.015685 0
M  V30 23 C -2.290230 -3.229833 -0.684875 0
M  V30 24 C -3.028664 -4.430770 -0.198972 0
M  V30 25 O -3.321045 -5.222295 -1.305715 0
M  V30 26 C -1.921229 -2.303369 0.395487 0 CFG=1
M  V30 27 O -1.229802 -3.111561 1.334601 0
M  V30 28 C -1.151513 -1.095754 0.191404 0 CFG=2
M  V30 29 O 0.209072 -1.415471 0.298081 0
M  V30 30 C -1.052838 -1.912724 -4.011485 0 CFG=1
M  V30 31 C -0.462566 -0.570257 -4.156511 0 CFG=1
M  V30 32 C 0.024689 0.295301 -3.142472 0
M  V30 33 C 0.096231 0.087084 -1.681008 0 CFG=1
M  V30 34 C 0.666849 1.377791 -1.074789 0
M  V30 35 C 0.298544 -1.792030 -4.655488 0
M  V30 36 C 0.396938 -2.069273 -6.141592 0
M  V30 37 C 1.539488 -2.197507 -3.899322 0
M  V30 38 H 2.492996 -3.985276 3.362589 0
M  V30 39 H 3.635168 -2.701639 2.757312 0
M  V30 40 H 3.454926 -3.008901 4.514112 0
M  V30 41 H 4.125746 -1.092308 4.720499 0
M  V30 42 H 4.406375 1.126588 5.660551 0
M  V30 43 H 2.535490 2.792973 5.591613 0
M  V30 44 H 1.216963 4.177832 4.793540 0
M  V30 45 H 0.268199 3.659726 6.205433 0
M  V30 46 H -0.556394 4.255990 4.681463 0
M  V30 47 H -2.171883 -0.575874 2.019254 0
M  V30 48 H -3.562273 2.570912 1.046472 0
M  V30 49 H -3.076938 1.709455 2.521421 0
M  V30 50 H -1.911889 2.917092 1.718441 0
M  V30 51 H -2.298775 1.768042 -1.286436 0
M  V30 52 H -0.228758 -2.384594 -2.231782 0
M  V30 53 H -2.581536 -3.959591 -2.620718 0
M  V30 54 H -2.445599 -5.034191 0.521313 0
M  V30 55 H -3.997085 -4.089960 0.205337 0
M  V30 56 H -4.143242 -5.760306 -1.173923 0
M  V30 57 H -2.879250 -2.076121 0.936384 0
M  V30 58 H -0.284427 -3.203662 1.157168 0
M  V30 59 H 0.569092 -1.351581 1.197546 0
M  V30 60 H -1.865137 -2.208402 -4.709390 0
M  V30 61 H -0.862007 0.005020 -5.054011 0
M  V30 62 H -0.449812 1.322254 -3.214395 0
M  V30 63 H 1.093808 0.556324 -3.421834 0
M  V30 64 H 0.805506 -0.696700 -1.357334 0
M  V30 65 H -0.084686 2.185838 -1.030750 0
M  V30 66 H 1.515505 1.736646 -1.706405 0
M  V30 67 H 1.047700 1.204612 -0.069241 0
M  V30 68 H -0.598597 -2.025878 -6.629831 0
M  V30 69 H 1.136281 -1.404270 -6.597199 0
M  V30 70 H 0.803628 -3.111430 -6.212915 0
M  V30 71 H 1.400101 -3.075890 -3.235807 0
M  V30 72 H 2.370402 -2.505043 -4.575523 0
M  V30 73 H 1.936970 -1.299138 -3.382749 0
M  V30 END ATOM
M  V30 BEGIN BOND
M  V30 1 1 1 2
M  V30 2 1 2 3
M  V30 3 2 3 4
M  V30 4 1 4 5
M  V30 5 2 5 6
M  V30 6 1 6 7
M  V30 7 1 7 8
M  V30 8 1 8 9
M  V30 9 2 7 10
M  V30 10 1 10 11
M  V30 11 2 11 12
M  V30 12 1 11 13
M  V30 13 1 13 14
M  V30 14 1 14 15
M  V30 15 1 15 16
M  V30 16 2 15 17
M  V30 17 1 18 17 CFG=1
M  V30 18 1 18 19
M  V30 19 2 19 20
M  V30 20 1 19 21
M  V30 21 1 21 22
M  V30 22 2 22 23
M  V30 23 1 23 24
M  V30 24 1 24 25
M  V30 25 1 23 26
M  V30 26 1 26 27
M  V30 27 1 26 28
M  V30 28 1 28 29 CFG=1
M  V30 29 1 21 30
M  V30 30 1 30 31
M  V30 31 1 31 32
M  V30 32 1 32 33
M  V30 33 1 33 34
M  V30 34 1 31 35
M  V30 35 1 35 36
M  V30 36 1 35 37
M  V30 37 1 10 3
M  V30 38 1 28 14
M  V30 39 1 35 30
M  V30 40 1 28 18
M  V30 41 1 33 18
M  V30 42 1 1 38
M  V30 43 1 1 39
M  V30 44 1 1 40
M  V30 45 1 4 41
M  V30 46 1 5 42
M  V30 47 1 6 43
M  V30 48 1 9 44
M  V30 49 1 9 45
M  V30 50 1 9 46
M  V30 51 1 14 47 CFG=1
M  V30 52 1 16 48
M  V30 53 1 16 49
M  V30 54 1 16 50
M  V30 55 1 17 51
M  V30 56 1 21 52 CFG=1
M  V30 57 1 22 53
M  V30 58 1 24 54
M  V30 59 1 24 55
M  V30 60 1 25 56
M  V30 61 1 26 57 CFG=1
M  V30 62 1 27 58
M  V30 63 1 29 59
M  V30 64 1 30 60 CFG=3
M  V30 65 1 31 61 CFG=3
M  V30 66 1 32 62
M  V30 67 1 32 63
M  V30 68 1 33 64 CFG=3
M  V30 69 1 34 65
M  V30 70 1 34 66
M  V30 71 1 34 67
M  V30 72 1 36 68
M  V30 73 1 36 69
M  V30 74 1 36 70
M  V30 75 1 37 71
M  V30 76 1 37 72
M  V30 77 1 37 73
M  V30 END BOND
M  V30 END CTAB
M  END
>  <Dataset>  (53) 
ChEMBL_Kinases

>  <Ligand_Instance>  (53) 
nan

>  <PDB_ID>  (53) 
nan

>  <Standardized_SMILES>  (53) 
COc1cccc(OC)c1C(=O)O[C@H]1C(C)=C[C@]23C(=O)[C@@H](C=C(CO)[C@@H](O)[C@]12O)[C@H]1[C@@H](C[C@H]3C)C1(C)C

>  <Name>  (53) 
nan

>  <Pocket>  (53) 
nan

>  <ATP_Site>  (53) 
nan

>  <Peripheral>  (53) 
nan

>  <Num_H_Atoms_ProtBoundConf>  (53) 
nan

>  <Num_Resolved_Atoms>  (53) 
nan

>  <Num_Not_Resolved_Atoms>  (53) 
nan

$$$$
CHEMBL3102955
     RDKit          3D

  0  0  0  0  0  0  0  0  0  0999 V3000
M  V30 BEGIN CTAB
M  V30 COUNTS 39 42 0 0 0
M  V30 BEGIN ATOM
M  V30 1 O 0.782530 -5.390146 4.524124 0
M  V30 2 C 1.131437 -4.477265 3.522732 0
M  V30 3 C 1.911391 -4.850823 2.446139 0
M  V30 4 C 2.246081 -3.933589 1.465115 0
M  V30 5 C 1.796574 -2.632040 1.562450 0
M  V30 6 C 2.106745 -1.598301 0.564141 0
M  V30 7 C 3.274872 -1.547860 -0.166071 0
M  V30 8 N 3.517607 -0.584390 -1.069699 0
M  V30 9 C 2.620070 0.404020 -1.319035 0
M  V30 10 N 2.591463 1.469685 -2.142434 0
M  V30 11 C 1.421510 2.145268 -1.983482 0
M  V30 12 C 0.651915 1.506323 -1.024845 0
M  V30 13 C -0.675932 1.904497 -0.557599 0
M  V30 14 C -1.007928 3.209740 -0.229108 0
M  V30 15 C -2.279014 3.548330 0.208255 0
M  V30 16 C -3.202973 2.527809 0.303296 0
M  V30 17 O -4.504224 2.816964 0.741081 0
M  V30 18 C -2.919248 1.196063 -0.015517 0
M  V30 19 O -3.913420 0.226599 0.109485 0
M  V30 20 C -1.622694 0.907631 -0.451734 0
M  V30 21 C 1.429124 0.414757 -0.623606 0
M  V30 22 C 1.200783 -0.575810 0.292884 0
M  V30 23 C 1.016256 -2.259975 2.640474 0
M  V30 24 C 0.672105 -3.162868 3.629813 0
M  V30 25 O -0.111012 -2.820833 4.727269 0
M  V30 26 H -0.192303 -5.678979 4.679331 0
M  V30 27 H 2.277781 -5.861925 2.342999 0
M  V30 28 H 2.856799 -4.200930 0.609600 0
M  V30 29 H 4.013887 -2.319556 0.005978 0
M  V30 30 H 3.388278 1.689367 -2.786921 0
M  V30 31 H 1.152781 3.051041 -2.538386 0
M  V30 32 H -0.231889 3.956791 -0.328279 0
M  V30 33 H -2.543497 4.565066 0.465611 0
M  V30 34 H -4.724868 2.877632 1.744902 0
M  V30 35 H -3.835984 -0.555182 0.773453 0
M  V30 36 H -1.496285 -0.141358 -0.675058 0
M  V30 37 H 0.275628 -0.605301 0.864872 0
M  V30 38 H 0.606200 -1.253895 2.816230 0
M  V30 39 H -1.093582 -2.607361 4.617653 0
M  V30 END ATOM
M  V30 BEGIN BOND
M  V30 1 1 1 2
M  V30 2 2 2 3
M  V30 3 1 3 4
M  V30 4 2 4 5
M  V30 5 1 5 6
M  V30 6 2 6 7
M  V30 7 1 7 8
M  V30 8 2 8 9
M  V30 9 1 9 10
M  V30 10 1 10 11
M  V30 11 2 11 12
M  V30 12 1 12 13
M  V30 13 2 13 14
M  V30 14 1 14 15
M  V30 15 2 15 16
M  V30 16 1 16 17
M  V30 17 1 16 18
M  V30 18 1 18 19
M  V30 19 2 18 20
M  V30 20 1 12 21
M  V30 21 2 21 22
M  V30 22 1 5 23
M  V30 23 2 23 24
M  V30 24 1 24 25
M  V30 25 1 24 2
M  V30 26 1 22 6
M  V30 27 1 21 9
M  V30 28 1 20 13
M  V30 29 1 1 26
M  V30 30 1 3 27
M  V30 31 1 4 28
M  V30 32 1 7 29
M  V30 33 1 10 30
M  V30 34 1 11 31
M  V30 35 1 14 32
M  V30 36 1 15 33
M  V30 37 1 17 34
M  V30 38 1 19 35
M  V30 39 1 20 36
M  V30 40 1 22 37
M  V30 41 1 23 38
M  V30 42 1 25 39
M  V30 END BOND
M  V30 END CTAB
M  END
>  <Dataset>  (54) 
ChEMBL_Kinases

>  <Ligand_Instance>  (54) 
nan

>  <PDB_ID>  (54) 
nan

>  <Standardized_SMILES>  (54) 
Oc1ccc(-c2cnc3[nH]cc(-c4ccc(O)c(O)c4)c3c2)cc1O

>  <Name>  (54) 
nan

>  <Pocket>  (54) 
nan

>  <ATP_Site>  (54) 
nan

>  <Peripheral>  (54) 
nan

>  <Num_H_Atoms_ProtBoundConf>  (54) 
nan

>  <Num_Resolved_Atoms>  (54) 
nan

>  <Num_Not_Resolved_Atoms>  (54) 
nan

$$$$
CHEMBL3102956
     RDKit          3D

  0  0  0  0  0  0  0  0  0  0999 V3000
M  V30 BEGIN CTAB
M  V30 COUNTS 37 40 0 0 0
M  V30 BEGIN ATOM
M  V30 1 O -0.476281 -4.423977 3.219056 0
M  V30 2 C 0.466507 -4.256632 2.202961 0
M  V30 3 C 1.097938 -5.361277 1.669667 0
M  V30 4 C 2.045809 -5.321357 0.663595 0
M  V30 5 C 2.350300 -4.063180 0.189825 0
M  V30 6 C 1.742584 -2.928608 0.694537 0
M  V30 7 C 2.059049 -1.584502 0.198057 0
M  V30 8 C 3.293571 -1.195215 -0.277810 0
M  V30 9 N 3.501237 0.067566 -0.718612 0
M  V30 10 C 2.527552 0.998139 -0.716205 0
M  V30 11 N 2.500304 2.297429 -1.100522 0
M  V30 12 C 1.261841 2.788183 -0.889031 0
M  V30 13 C 0.445959 1.792253 -0.351444 0
M  V30 14 C -0.967938 1.890833 0.031542 0
M  V30 15 C -1.935510 2.483390 -0.755853 0
M  V30 16 C -3.244584 2.533054 -0.313638 0
M  V30 17 C -3.628830 1.998581 0.916469 0
M  V30 18 C -2.678832 1.406270 1.710575 0
M  V30 19 O -3.066684 0.875912 2.934024 0
M  V30 20 C -1.359033 1.364062 1.249319 0
M  V30 21 C 1.265218 0.685802 -0.255302 0
M  V30 22 C 1.070620 -0.605802 0.190323 0
M  V30 23 C 0.799151 -3.004079 1.700091 0
M  V30 24 H -0.319338 -4.131026 4.170874 0
M  V30 25 H 0.855230 -6.356738 2.047302 0
M  V30 26 H 2.497257 -6.233787 0.297243 0
M  V30 27 H 3.082680 -3.977567 -0.594556 0
M  V30 28 H 4.078813 -1.954994 -0.276684 0
M  V30 29 H 3.325041 2.804595 -1.493186 0
M  V30 30 H 0.918984 3.809349 -1.097698 0
M  V30 31 H -1.598180 2.883389 -1.696739 0
M  V30 32 H -3.986579 3.011219 -0.964388 0
M  V30 33 H -4.668272 2.068283 1.206277 0
M  V30 34 H -3.330055 -0.098757 2.975119 0
M  V30 35 H -0.696256 0.877025 1.952674 0
M  V30 36 H 0.100295 -0.906046 0.562630 0
M  V30 37 H 0.268080 -2.188215 2.162480 0
M  V30 END ATOM
M  V30 BEGIN BOND
M  V30 1 1 1 2
M  V30 2 2 2 3
M  V30 3 1 3 4
M  V30 4 2 4 5
M  V30 5 1 5 6
M  V30 6 1 6 7
M  V30 7 2 7 8
M  V30 8 1 8 9
M  V30 9 2 9 10
M  V30 10 1 10 11
M  V30 11 1 11 12
M  V30 12 2 12 13
M  V30 13 1 13 14
M  V30 14 2 14 15
M  V30 15 1 15 16
M  V30 16 2 16 17
M  V30 17 1 17 18
M  V30 18 1 18 19
M  V30 19 2 18 20
M  V30 20 1 13 21
M  V30 21 2 21 22
M  V30 22 2 6 23
M  V30 23 1 23 2
M  V30 24 1 22 7
M  V30 25 1 21 10
M  V30 26 1 20 14
M  V30 27 1 1 24
M  V30 28 1 3 25
M  V30 29 1 4 26
M  V30 30 1 5 27
M  V30 31 1 8 28
M  V30 32 1 11 29
M  V30 33 1 12 30
M  V30 34 1 15 31
M  V30 35 1 16 32
M  V30 36 1 17 33
M  V30 37 1 19 34
M  V30 38 1 20 35
M  V30 39 1 22 36
M  V30 40 1 23 37
M  V30 END BOND
M  V30 END CTAB
M  END
>  <Dataset>  (55) 
ChEMBL_Kinases

>  <Ligand_Instance>  (55) 
nan

>  <PDB_ID>  (55) 
nan

>  <Standardized_SMILES>  (55) 
Oc1cccc(-c2cnc3[nH]cc(-c4cccc(O)c4)c3c2)c1

>  <Name>  (55) 
nan

>  <Pocket>  (55) 
nan

>  <ATP_Site>  (55) 
nan

>  <Peripheral>  (55) 
nan

>  <Num_H_Atoms_ProtBoundConf>  (55) 
nan

>  <Num_Resolved_Atoms>  (55) 
nan

>  <Num_Not_Resolved_Atoms>  (55) 
nan

$$$$
CHEMBL3102957
     RDKit          3D

  0  0  0  0  0  0  0  0  0  0999 V3000
M  V30 BEGIN CTAB
M  V30 COUNTS 37 40 0 0 0
M  V30 BEGIN ATOM
M  V30 1 O -0.249422 -5.184691 4.723612 0
M  V30 2 C 0.160821 -4.402195 3.648137 0
M  V30 3 C 0.398395 -5.034868 2.442777 0
M  V30 4 C 0.807329 -4.333564 1.328526 0
M  V30 5 C 0.987397 -2.962308 1.407898 0
M  V30 6 C 1.418008 -2.081073 0.311167 0
M  V30 7 C 2.469472 -2.374656 -0.556115 0
M  V30 8 N 2.802188 -1.512439 -1.537796 0
M  V30 9 C 2.151382 -0.343812 -1.731783 0
M  V30 10 N 2.275640 0.676792 -2.615707 0
M  V30 11 C 1.344435 1.619839 -2.353397 0
M  V30 12 C 0.568808 1.228298 -1.263338 0
M  V30 13 C -0.539838 1.968414 -0.667712 0
M  V30 14 C -0.449573 3.333151 -0.415747 0
M  V30 15 C -1.529829 4.015533 0.156434 0
M  V30 16 C -2.712163 3.357287 0.486418 0
M  V30 17 C -2.774396 2.001572 0.225243 0
M  V30 18 C -1.716542 1.325934 -0.336636 0
M  V30 19 C 1.100933 0.004995 -0.906439 0
M  V30 20 C 0.762287 -0.878785 0.097327 0
M  V30 21 C 0.755696 -2.310769 2.601982 0
M  V30 22 O 0.877813 -0.958084 2.882624 0
M  V30 23 C 0.341579 -3.022518 3.729516 0
M  V30 24 H 0.178077 -6.094188 4.847826 0
M  V30 25 H 0.263400 -6.098697 2.364084 0
M  V30 26 H 1.009746 -4.777837 0.352422 0
M  V30 27 H 2.986471 -3.298867 -0.405100 0
M  V30 28 H 2.983522 0.734265 -3.388504 0
M  V30 29 H 1.245820 2.531754 -2.926928 0
M  V30 30 H 0.452899 3.877422 -0.658795 0
M  V30 31 H -1.505044 5.072939 0.369555 0
M  V30 32 H -3.525015 3.899195 0.922949 0
M  V30 33 H -3.710925 1.513961 0.493746 0
M  V30 34 H -1.868796 0.268355 -0.499262 0
M  V30 35 H -0.039936 -0.649375 0.755027 0
M  V30 36 H 1.744482 -0.438569 2.856281 0
M  V30 37 H 0.132526 -2.628834 4.702681 0
M  V30 END ATOM
M  V30 BEGIN BOND
M  V30 1 1 1 2
M  V30 2 2 2 3
M  V30 3 1 3 4
M  V30 4 2 4 5
M  V30 5 1 5 6
M  V30 6 2 6 7
M  V30 7 1 7 8
M  V30 8 2 8 9
M  V30 9 1 9 10
M  V30 10 1 10 11
M  V30 11 2 11 12
M  V30 12 1 12 13
M  V30 13 2 13 14
M  V30 14 1 14 15
M  V30 15 2 15 16
M  V30 16 1 16 17
M  V30 17 2 17 18
M  V30 18 1 12 19
M  V30 19 2 19 20
M  V30 20 1 5 21
M  V30 21 1 21 22
M  V30 22 2 21 23
M  V30 23 1 23 2
M  V30 24 1 20 6
M  V30 25 1 19 9
M  V30 26 1 18 13
M  V30 27 1 1 24
M  V30 28 1 3 25
M  V30 29 1 4 26
M  V30 30 1 7 27
M  V30 31 1 10 28
M  V30 32 1 11 29
M  V30 33 1 14 30
M  V30 34 1 15 31
M  V30 35 1 16 32
M  V30 36 1 17 33
M  V30 37 1 18 34
M  V30 38 1 20 35
M  V30 39 1 22 36
M  V30 40 1 23 37
M  V30 END BOND
M  V30 END CTAB
M  END
>  <Dataset>  (56) 
ChEMBL_Kinases

>  <Ligand_Instance>  (56) 
nan

>  <PDB_ID>  (56) 
nan

>  <Standardized_SMILES>  (56) 
Oc1ccc(-c2cnc3[nH]cc(-c4ccccc4)c3c2)c(O)c1

>  <Name>  (56) 
nan

>  <Pocket>  (56) 
nan

>  <ATP_Site>  (56) 
nan

>  <Peripheral>  (56) 
nan

>  <Num_H_Atoms_ProtBoundConf>  (56) 
nan

>  <Num_Resolved_Atoms>  (56) 
nan

>  <Num_Not_Resolved_Atoms>  (56) 
nan

$$$$
CHEMBL3103191
     RDKit          3D

  0  0  0  0  0  0  0  0  0  0999 V3000
M  V30 BEGIN CTAB
M  V30 COUNTS 62 65 0 0 0
M  V30 BEGIN ATOM
M  V30 1 C 0.260489 -3.626172 4.175365 0
M  V30 2 C 0.703229 -2.799199 3.026040 0
M  V30 3 O 1.194646 -1.666893 3.255391 0
M  V30 4 N 0.604971 -3.212649 1.673838 0
M  V30 5 C 0.975624 -2.552247 0.496863 0
M  V30 6 C 1.566380 -1.323846 0.410577 0
M  V30 7 C 1.944583 -0.704377 -0.748027 0
M  V30 8 N 2.480524 0.601988 -0.906713 0
M  V30 9 C 1.674831 1.439322 -0.091732 0
M  V30 10 C 2.040402 2.135508 1.016552 0
M  V30 11 C 1.190414 2.935310 1.761391 0
M  V30 12 N 1.648126 3.671285 2.875138 0
M  V30 13 C 1.367856 4.522752 3.955318 0
M  V30 14 C 0.474692 5.708615 3.799973 0
M  V30 15 C 0.039673 4.507855 4.638260 0
M  V30 16 N -0.105748 3.010570 1.325833 0
M  V30 17 N -1.186465 3.634217 1.723418 0
M  V30 18 C -2.217205 3.369352 0.926365 0
M  V30 19 C -1.813414 2.514423 -0.074063 0
M  V30 20 C -2.629101 1.995222 -1.122657 0
M  V30 21 N -3.276706 1.560791 -1.970233 0
M  V30 22 C -0.485809 2.331497 0.235321 0
M  V30 23 N 0.381362 1.573029 -0.446863 0
M  V30 24 C 1.724229 -1.355467 -1.966000 0
M  V30 25 C 1.118016 -2.617272 -1.916675 0
M  V30 26 C 0.762512 -3.174855 -0.702225 0
M  V30 27 N 0.075459 -4.403324 -0.906962 0
M  V30 28 C 0.707449 -5.439305 -1.698228 0
M  V30 29 C -1.280228 -4.645606 -0.380941 0
M  V30 30 C -2.266474 -4.659990 -1.568538 0
M  V30 31 N -2.168257 -3.321538 -2.168146 0
M  V30 32 C -2.992236 -3.246046 -3.369658 0
M  V30 33 C -2.609236 -2.317784 -1.202921 0
M  V30 34 H 0.447045 -3.117155 5.113576 0
M  V30 35 H -0.828013 -3.896906 4.084134 0
M  V30 36 H 0.797593 -4.603964 4.173224 0
M  V30 37 H 0.197442 -4.168760 1.622725 0
M  V30 38 H 1.782030 -0.735723 1.285633 0
M  V30 39 H 3.297615 0.753654 -1.525860 0
M  V30 40 H 3.102713 1.997544 1.270217 0
M  V30 41 H 2.707450 3.536600 2.941974 0
M  V30 42 H 2.251245 4.722103 4.653823 0
M  V30 43 H 0.720880 6.612210 4.374838 0
M  V30 44 H -0.020373 5.924410 2.847492 0
M  V30 45 H 0.088170 4.691867 5.772238 0
M  V30 46 H -0.833430 3.969776 4.286875 0
M  V30 47 H -3.203679 3.797052 1.092313 0
M  V30 48 H 2.005146 -0.921745 -2.927074 0
M  V30 49 H 0.968248 -3.085050 -2.881102 0
M  V30 50 H 0.736013 -5.225068 -2.773496 0
M  V30 51 H 1.712875 -5.596606 -1.255648 0
M  V30 52 H 0.142510 -6.410510 -1.595408 0
M  V30 53 H -1.647267 -3.834690 0.253035 0
M  V30 54 H -1.288913 -5.604267 0.159782 0
M  V30 55 H -1.952514 -5.413516 -2.286830 0
M  V30 56 H -3.284065 -4.854366 -1.215713 0
M  V30 57 H -2.990544 -4.224356 -3.837130 0
M  V30 58 H -3.990184 -2.843200 -3.117804 0
M  V30 59 H -2.454601 -2.520892 -4.049191 0
M  V30 60 H -3.275688 -2.803888 -0.464763 0
M  V30 61 H -1.753472 -1.916958 -0.652494 0
M  V30 62 H -3.140002 -1.495002 -1.720718 0
M  V30 END ATOM
M  V30 BEGIN BOND
M  V30 1 1 1 2
M  V30 2 2 2 3
M  V30 3 1 2 4
M  V30 4 1 4 5
M  V30 5 2 5 6
M  V30 6 1 6 7
M  V30 7 1 7 8
M  V30 8 1 8 9
M  V30 9 1 9 10
M  V30 10 2 10 11
M  V30 11 1 11 12
M  V30 12 1 12 13
M  V30 13 1 13 14
M  V30 14 1 14 15
M  V30 15 1 11 16
M  V30 16 1 16 17
M  V30 17 2 17 18
M  V30 18 1 18 19
M  V30 19 1 19 20
M  V30 20 3 20 21
M  V30 21 2 19 22
M  V30 22 1 22 23
M  V30 23 2 7 24
M  V30 24 1 24 25
M  V30 25 2 25 26
M  V30 26 1 26 27
M  V30 27 1 27 28
M  V30 28 1 27 29
M  V30 29 1 29 30
M  V30 30 1 30 31
M  V30 31 1 31 32
M  V30 32 1 31 33
M  V30 33 1 26 5
M  V30 34 2 23 9
M  V30 35 1 15 13
M  V30 36 1 22 16
M  V30 37 1 1 34
M  V30 38 1 1 35
M  V30 39 1 1 36
M  V30 40 1 4 37
M  V30 41 1 6 38
M  V30 42 1 8 39
M  V30 43 1 10 40
M  V30 44 1 12 41
M  V30 45 1 13 42
M  V30 46 1 14 43
M  V30 47 1 14 44
M  V30 48 1 15 45
M  V30 49 1 15 46
M  V30 50 1 18 47
M  V30 51 1 24 48
M  V30 52 1 25 49
M  V30 53 1 28 50
M  V30 54 1 28 51
M  V30 55 1 28 52
M  V30 56 1 29 53
M  V30 57 1 29 54
M  V30 58 1 30 55
M  V30 59 1 30 56
M  V30 60 1 32 57
M  V30 61 1 32 58
M  V30 62 1 32 59
M  V30 63 1 33 60
M  V30 64 1 33 61
M  V30 65 1 33 62
M  V30 END BOND
M  V30 END CTAB
M  END
>  <Dataset>  (57) 
ChEMBL_Kinases

>  <Ligand_Instance>  (57) 
nan

>  <PDB_ID>  (57) 
nan

>  <Standardized_SMILES>  (57) 
CC(=O)Nc1cc(Nc2cc(NC3CC3)n3ncc(C#N)c3n2)ccc1N(C)CCN(C)C

>  <Name>  (57) 
nan

>  <Pocket>  (57) 
nan

>  <ATP_Site>  (57) 
nan

>  <Peripheral>  (57) 
nan

>  <Num_H_Atoms_ProtBoundConf>  (57) 
nan

>  <Num_Resolved_Atoms>  (57) 
nan

>  <Num_Not_Resolved_Atoms>  (57) 
nan

$$$$
CHEMBL3103864
     RDKit          3D

  0  0  0  0  0  0  0  0  0  0999 V3000
M  V30 BEGIN CTAB
M  V30 COUNTS 57 60 0 0 0
M  V30 BEGIN ATOM
M  V30 1 C 0.278755 -1.286191 4.194278 0
M  V30 2 O 1.171658 -0.791129 3.228372 0
M  V30 3 C 2.548719 -0.820516 3.377545 0
M  V30 4 C 3.105893 -1.365003 4.538075 0
M  V30 5 C 4.475670 -1.419203 4.738031 0
M  V30 6 C 5.309427 -0.921167 3.762827 0
M  V30 7 C 4.730261 -0.393734 2.636109 0
M  V30 8 C 3.389644 -0.323358 2.404569 0
M  V30 9 C 2.780491 0.238335 1.205430 0
M  V30 10 C 3.509404 0.767694 0.161613 0
M  V30 11 C 2.993038 1.308491 -0.988074 0
M  V30 12 C 1.611825 1.331834 -1.127487 0
M  V30 13 N 1.002744 1.876604 -2.291415 0
M  V30 14 C 0.882992 0.801792 -0.082258 0
M  V30 15 C -0.567867 0.832541 -0.242633 0
M  V30 16 O -1.073880 1.315395 -1.273396 0
M  V30 17 N -1.407215 0.298018 0.804849 0
M  V30 18 C -2.787046 0.403664 0.493894 0
M  V30 19 C -3.334283 1.553991 0.986756 0
M  V30 20 N -4.658992 1.797196 0.756873 0
M  V30 21 C -5.357556 0.866062 0.042631 0
M  V30 22 C -4.758363 -0.273839 -0.430030 0
M  V30 23 C -3.441507 -0.564292 -0.229154 0
M  V30 24 N -2.871024 -1.761132 -0.736129 0
M  V30 25 C -3.561790 -2.647748 -1.613471 0
M  V30 26 C -2.837980 -2.996646 -2.890240 0
M  V30 27 C -1.386772 -3.365878 -2.692343 0
M  V30 28 C -0.814987 -2.256248 -1.832993 0 CFG=2
M  V30 29 N 0.590683 -2.363348 -1.632972 0
M  V30 30 C -1.597811 -2.347470 -0.523821 0
M  V30 31 N 1.448834 0.284018 1.023246 0
M  V30 32 H 0.185442 -2.383006 4.080220 0
M  V30 33 H -0.719701 -0.775682 4.111106 0
M  V30 34 H 0.607047 -1.056499 5.248467 0
M  V30 35 H 2.513670 -1.772470 5.341670 0
M  V30 36 H 4.917858 -1.840283 5.636505 0
M  V30 37 H 6.381663 -0.955367 3.902336 0
M  V30 38 H 5.413761 -0.013141 1.893815 0
M  V30 39 H 4.589359 0.778803 0.209885 0
M  V30 40 H 3.601894 1.708984 -1.773970 0
M  V30 41 H 1.007884 1.495307 -3.253097 0
M  V30 42 H 0.444980 2.760256 -2.365051 0
M  V30 43 H -1.013555 -0.110911 1.706805 0
M  V30 44 H -2.802896 2.305387 1.554289 0
M  V30 45 H -6.391073 1.159584 -0.078397 0
M  V30 46 H -5.480817 -0.852715 -0.947746 0
M  V30 47 H -4.521306 -2.207302 -1.931975 0
M  V30 48 H -3.850738 -3.612831 -1.110544 0
M  V30 49 H -2.837023 -2.101467 -3.554176 0
M  V30 50 H -3.393418 -3.836577 -3.345830 0
M  V30 51 H -0.916056 -3.357424 -3.695341 0
M  V30 52 H -1.314723 -4.341758 -2.174359 0
M  V30 53 H -1.072106 -1.319129 -2.379744 0
M  V30 54 H 1.036390 -1.456888 -1.897230 0
M  V30 55 H 0.989344 -3.084199 -2.268023 0
M  V30 56 H -1.002466 -1.966769 0.322476 0
M  V30 57 H -1.684363 -3.456389 -0.309679 0
M  V30 END ATOM
M  V30 BEGIN BOND
M  V30 1 1 1 2
M  V30 2 1 2 3
M  V30 3 2 3 4
M  V30 4 1 4 5
M  V30 5 2 5 6
M  V30 6 1 6 7
M  V30 7 2 7 8
M  V30 8 1 8 9
M  V30 9 2 9 10
M  V30 10 1 10 11
M  V30 11 2 11 12
M  V30 12 1 12 13
M  V30 13 1 12 14
M  V30 14 1 14 15
M  V30 15 2 15 16
M  V30 16 1 15 17
M  V30 17 1 17 18
M  V30 18 2 18 19
M  V30 19 1 19 20
M  V30 20 2 20 21
M  V30 21 1 21 22
M  V30 22 2 22 23
M  V30 23 1 23 24
M  V30 24 1 24 25
M  V30 25 1 25 26
M  V30 26 1 26 27
M  V30 27 1 27 28
M  V30 28 1 28 29
M  V30 29 1 28 30
M  V30 30 2 14 31
M  V30 31 1 8 3
M  V30 32 1 31 9
M  V30 33 1 23 18
M  V30 34 1 30 24
M  V30 35 1 1 32
M  V30 36 1 1 33
M  V30 37 1 1 34
M  V30 38 1 4 35
M  V30 39 1 5 36
M  V30 40 1 6 37
M  V30 41 1 7 38
M  V30 42 1 10 39
M  V30 43 1 11 40
M  V30 44 1 13 41
M  V30 45 1 13 42
M  V30 46 1 17 43
M  V30 47 1 19 44
M  V30 48 1 21 45
M  V30 49 1 22 46
M  V30 50 1 25 47
M  V30 51 1 25 48
M  V30 52 1 26 49
M  V30 53 1 26 50
M  V30 54 1 27 51
M  V30 55 1 27 52
M  V30 56 1 28 53 CFG=3
M  V30 57 1 29 54
M  V30 58 1 29 55
M  V30 59 1 30 56
M  V30 60 1 30 57
M  V30 END BOND
M  V30 END CTAB
M  END
>  <Dataset>  (58) 
ChEMBL_Kinases

>  <Ligand_Instance>  (58) 
nan

>  <PDB_ID>  (58) 
nan

>  <Standardized_SMILES>  (58) 
COc1ccccc1-c1ccc(N)c(C(=O)Nc2cnccc2N2CCC[C@H](N)C2)n1

>  <Name>  (58) 
nan

>  <Pocket>  (58) 
nan

>  <ATP_Site>  (58) 
nan

>  <Peripheral>  (58) 
nan

>  <Num_H_Atoms_ProtBoundConf>  (58) 
nan

>  <Num_Resolved_Atoms>  (58) 
nan

>  <Num_Not_Resolved_Atoms>  (58) 
nan

$$$$
CHEMBL3103882
     RDKit          3D

  0  0  0  0  0  0  0  0  0  0999 V3000
M  V30 BEGIN CTAB
M  V30 COUNTS 37 39 0 0 0
M  V30 BEGIN ATOM
M  V30 1 O 1.092315 -3.089098 0.902931 0
M  V30 2 C 0.108092 -2.569241 1.484190 0
M  V30 3 N 0.459046 -1.297856 1.985034 0
M  V30 4 C 1.768756 -0.770523 1.803614 0
M  V30 5 C 2.850569 -0.931702 2.644090 0
M  V30 6 C 4.062754 -0.353753 2.329587 0
M  V30 7 C 4.237310 0.394531 1.182886 0
M  V30 8 C 3.131565 0.549836 0.339499 0
M  V30 9 C 1.905112 -0.029202 0.648277 0
M  V30 10 N 0.953950 0.276262 -0.359387 0
M  V30 11 C 0.130817 -0.463421 -1.292865 0
M  V30 12 C -1.340339 -0.313527 -1.029205 0
M  V30 13 C -1.779354 1.110514 -0.941897 0
M  V30 14 C -0.781199 1.982415 -0.211565 0
M  V30 15 C 0.633705 1.682448 -0.618736 0
M  V30 16 C -1.213755 -3.152658 1.641902 0
M  V30 17 C -1.501530 -4.524971 1.071136 0
M  V30 18 S -3.312457 -4.683437 1.598515 0
M  V30 19 C -3.305054 -2.978281 2.424584 0
M  V30 20 N -2.167276 -2.500048 2.277235 0
M  V30 21 H -0.296293 -0.768596 2.494858 0
M  V30 22 H 2.640357 -1.527273 3.519002 0
M  V30 23 H 4.871644 -0.523534 3.039606 0
M  V30 24 H 5.209368 0.825043 0.985241 0
M  V30 25 H 3.379838 1.156276 -0.533235 0
M  V30 26 H 0.307964 -0.154761 -2.358506 0
M  V30 27 H 0.351789 -1.545456 -1.244256 0
M  V30 28 H -1.670734 -0.917225 -0.147295 0
M  V30 29 H -1.872899 -0.770032 -1.892819 0
M  V30 30 H -1.940376 1.517499 -1.957407 0
M  V30 31 H -2.718833 1.146683 -0.350725 0
M  V30 32 H -0.869937 1.847683 0.870156 0
M  V30 33 H -1.017700 3.021286 -0.455686 0
M  V30 34 H 1.301175 2.334249 -0.032022 0
M  V30 35 H 0.826610 1.960499 -1.688424 0
M  V30 36 H -0.565230 -5.084623 0.486726 0
M  V30 37 H -4.272121 -2.812430 2.827931 0
M  V30 END ATOM
M  V30 BEGIN BOND
M  V30 1 2 1 2
M  V30 2 1 2 3
M  V30 3 1 3 4
M  V30 4 2 4 5
M  V30 5 1 5 6
M  V30 6 2 6 7
M  V30 7 1 7 8
M  V30 8 2 8 9
M  V30 9 1 9 10
M  V30 10 1 10 11
M  V30 11 1 11 12
M  V30 12 1 12 13
M  V30 13 1 13 14
M  V30 14 1 14 15
M  V30 15 1 2 16
M  V30 16 2 16 17
M  V30 17 1 17 18
M  V30 18 1 18 19
M  V30 19 2 19 20
M  V30 20 1 9 4
M  V30 21 1 15 10
M  V30 22 1 20 16
M  V30 23 1 3 21
M  V30 24 1 5 22
M  V30 25 1 6 23
M  V30 26 1 7 24
M  V30 27 1 8 25
M  V30 28 1 11 26
M  V30 29 1 11 27
M  V30 30 1 12 28
M  V30 31 1 12 29
M  V30 32 1 13 30
M  V30 33 1 13 31
M  V30 34 1 14 32
M  V30 35 1 14 33
M  V30 36 1 15 34
M  V30 37 1 15 35
M  V30 38 1 17 36
M  V30 39 1 19 37
M  V30 END BOND
M  V30 END CTAB
M  END
>  <Dataset>  (59) 
ChEMBL_Kinases

>  <Ligand_Instance>  (59) 
nan

>  <PDB_ID>  (59) 
nan

>  <Standardized_SMILES>  (59) 
O=C(Nc1ccccc1N1CCCCC1)c1cscn1

>  <Name>  (59) 
nan

>  <Pocket>  (59) 
nan

>  <ATP_Site>  (59) 
nan

>  <Peripheral>  (59) 
nan

>  <Num_H_Atoms_ProtBoundConf>  (59) 
nan

>  <Num_Resolved_Atoms>  (59) 
nan

>  <Num_Not_Resolved_Atoms>  (59) 
nan

$$$$
CHEMBL3103885
     RDKit          3D

  0  0  0  0  0  0  0  0  0  0999 V3000
M  V30 BEGIN CTAB
M  V30 COUNTS 41 43 0 0 0
M  V30 BEGIN ATOM
M  V30 1 O -0.418156 -2.660846 3.119657 0
M  V30 2 C -0.566866 -1.587988 2.484709 0
M  V30 3 N 0.197430 -1.391964 1.325307 0
M  V30 4 C 1.155614 -2.234816 0.715143 0
M  V30 5 C 1.564904 -3.472475 1.149053 0
M  V30 6 C 2.504597 -4.265851 0.527703 0
M  V30 7 C 3.095356 -3.792236 -0.630869 0
M  V30 8 C 2.707810 -2.553635 -1.094549 0
M  V30 9 C 1.772043 -1.808738 -0.440277 0
M  V30 10 N 1.506445 -0.548928 -1.092435 0
M  V30 11 C 0.270130 -0.072170 -1.656340 0
M  V30 12 C -0.084211 1.333735 -1.378756 0
M  V30 13 C 1.041811 2.234410 -1.032429 0
M  V30 14 C 2.193720 1.584437 -0.332950 0
M  V30 15 C 2.588154 0.400499 -1.225674 0
M  V30 16 C -1.525067 -0.612270 2.992148 0
M  V30 17 N -1.715447 0.550816 2.342587 0
M  V30 18 C -2.613220 1.461620 2.820631 0
M  V30 19 C -3.334244 1.202222 3.971703 0
M  V30 20 C -3.172230 0.010581 4.680750 0
M  V30 21 C -2.248377 -0.861716 4.138529 0
M  V30 22 O -2.048757 -2.062314 4.804960 0
M  V30 23 H -0.005555 -0.469205 0.881488 0
M  V30 24 H 1.142686 -3.886294 2.036781 0
M  V30 25 H 2.784396 -5.226211 0.914577 0
M  V30 26 H 3.832537 -4.408231 -1.123232 0
M  V30 27 H 3.209854 -2.255984 -1.996349 0
M  V30 28 H 0.408405 -0.163501 -2.775591 0
M  V30 29 H -0.527455 -0.806895 -1.427415 0
M  V30 30 H -0.815893 1.350902 -0.541994 0
M  V30 31 H -0.631429 1.801063 -2.248807 0
M  V30 32 H 0.672603 3.103352 -0.422894 0
M  V30 33 H 1.468976 2.723566 -1.952586 0
M  V30 34 H 1.885342 1.253959 0.665929 0
M  V30 35 H 3.025952 2.308862 -0.283235 0
M  V30 36 H 2.598314 0.754318 -2.273280 0
M  V30 37 H 3.527414 -0.048619 -0.900807 0
M  V30 38 H -2.813811 2.426709 2.337827 0
M  V30 39 H -4.061567 1.910381 4.381988 0
M  V30 40 H -3.711306 -0.240119 5.585290 0
M  V30 41 H -1.308066 -2.076476 5.508791 0
M  V30 END ATOM
M  V30 BEGIN BOND
M  V30 1 2 1 2
M  V30 2 1 2 3
M  V30 3 1 3 4
M  V30 4 2 4 5
M  V30 5 1 5 6
M  V30 6 2 6 7
M  V30 7 1 7 8
M  V30 8 2 8 9
M  V30 9 1 9 10
M  V30 10 1 10 11
M  V30 11 1 11 12
M  V30 12 1 12 13
M  V30 13 1 13 14
M  V30 14 1 14 15
M  V30 15 1 2 16
M  V30 16 2 16 17
M  V30 17 1 17 18
M  V30 18 2 18 19
M  V30 19 1 19 20
M  V30 20 2 20 21
M  V30 21 1 21 22
M  V30 22 1 9 4
M  V30 23 1 15 10
M  V30 24 1 21 16
M  V30 25 1 3 23
M  V30 26 1 5 24
M  V30 27 1 6 25
M  V30 28 1 7 26
M  V30 29 1 8 27
M  V30 30 1 11 28
M  V30 31 1 11 29
M  V30 32 1 12 30
M  V30 33 1 12 31
M  V30 34 1 13 32
M  V30 35 1 13 33
M  V30 36 1 14 34
M  V30 37 1 14 35
M  V30 38 1 15 36
M  V30 39 1 15 37
M  V30 40 1 18 38
M  V30 41 1 19 39
M  V30 42 1 20 40
M  V30 43 1 22 41
M  V30 END BOND
M  V30 END CTAB
M  END
>  <Dataset>  (60) 
ChEMBL_Kinases

>  <Ligand_Instance>  (60) 
nan

>  <PDB_ID>  (60) 
nan

>  <Standardized_SMILES>  (60) 
O=C(Nc1ccccc1N1CCCCC1)c1ncccc1O

>  <Name>  (60) 
nan

>  <Pocket>  (60) 
nan

>  <ATP_Site>  (60) 
nan

>  <Peripheral>  (60) 
nan

>  <Num_H_Atoms_ProtBoundConf>  (60) 
nan

>  <Num_Resolved_Atoms>  (60) 
nan

>  <Num_Not_Resolved_Atoms>  (60) 
nan

$$$$
CHEMBL310396
     RDKit          3D

  0  0  0  0  0  0  0  0  0  0999 V3000
M  V30 BEGIN CTAB
M  V30 COUNTS 20 21 0 0 0
M  V30 BEGIN ATOM
M  V30 1 O -0.655070 0.385480 3.361832 0
M  V30 2 C -0.004085 -0.297458 2.510259 0
M  V30 3 C 0.482211 -1.636327 2.823395 0
M  V30 4 C 1.163939 -2.409598 1.998141 0
M  V30 5 C 1.462780 -1.902260 0.666953 0
M  V30 6 O 2.107078 -2.624457 -0.122850 0
M  V30 7 C 1.013895 -0.557101 0.252717 0
M  V30 8 C 1.301787 -0.090732 -1.004061 0
M  V30 9 O 2.013966 -0.889828 -1.876162 0
M  V30 10 C 0.843456 1.179436 -1.308675 0
M  V30 11 Cl 1.210607 1.778712 -2.916652 0
M  V30 12 C 0.139341 1.971459 -0.448712 0
M  V30 13 Cl -0.405013 3.577324 -0.922011 0
M  V30 14 C -0.124228 1.466354 0.791382 0
M  V30 15 O -0.840072 2.225471 1.718468 0
M  V30 16 C 0.304754 0.207673 1.156501 0
M  V30 17 H 0.265649 -2.029350 3.817164 0
M  V30 18 H 1.508147 -3.399515 2.268140 0
M  V30 19 H 1.579453 -1.714839 -2.267219 0
M  V30 20 H -1.808500 2.088433 1.894825 0
M  V30 END ATOM
M  V30 BEGIN BOND
M  V30 1 2 1 2
M  V30 2 1 2 3
M  V30 3 2 3 4
M  V30 4 1 4 5
M  V30 5 2 5 6
M  V30 6 1 5 7
M  V30 7 2 7 8
M  V30 8 1 8 9
M  V30 9 1 8 10
M  V30 10 1 10 11
M  V30 11 2 10 12
M  V30 12 1 12 13
M  V30 13 1 12 14
M  V30 14 1 14 15
M  V30 15 2 14 16
M  V30 16 1 16 2
M  V30 17 1 16 7
M  V30 18 1 3 17
M  V30 19 1 4 18
M  V30 20 1 9 19
M  V30 21 1 15 20
M  V30 END BOND
M  V30 END CTAB
M  END
>  <Dataset>  (61) 
ChEMBL_Kinases

>  <Ligand_Instance>  (61) 
nan

>  <PDB_ID>  (61) 
nan

>  <Standardized_SMILES>  (61) 
O=C1C=CC(=O)c2c(O)c(Cl)c(Cl)c(O)c21

>  <Name>  (61) 
nan

>  <Pocket>  (61) 
nan

>  <ATP_Site>  (61) 
nan

>  <Peripheral>  (61) 
nan

>  <Num_H_Atoms_ProtBoundConf>  (61) 
nan

>  <Num_Resolved_Atoms>  (61) 
nan

>  <Num_Not_Resolved_Atoms>  (61) 
nan

$$$$
CHEMBL3105102
     RDKit          3D

  0  0  0  0  0  0  0  0  0  0999 V3000
M  V30 BEGIN CTAB
M  V30 COUNTS 71 75 0 0 0
M  V30 BEGIN ATOM
M  V30 1 C -1.189862 1.788149 1.209863 0
M  V30 2 C -0.201942 0.904169 0.480664 0
M  V30 3 C 1.130023 0.832290 0.481974 0
M  V30 4 C 1.654530 -0.204959 -0.402458 0 CFG=2
M  V30 5 C 2.771554 0.204200 -1.334594 0
M  V30 6 O 3.145474 -0.660436 -2.047570 0
M  V30 7 C 3.299619 1.610025 -1.290070 0 CFG=1
M  V30 8 C 2.038313 2.422175 -1.517073 0
M  V30 9 C 0.812767 2.021602 -1.956102 0
M  V30 10 C -0.271111 3.056890 -2.001658 0
M  V30 11 O 0.175383 4.284546 -1.574687 0
M  V30 12 C 0.507857 0.634941 -2.386729 0 CFG=1
M  V30 13 O 1.194936 0.236622 -3.525394 0
M  V30 14 C 0.524636 -0.417055 -1.279658 0 CFG=1
M  V30 15 O 0.473673 -1.672170 -1.877104 0
M  V30 16 C -0.694636 -0.120471 -0.459036 0 CFG=1
M  V30 17 O -1.302282 -1.213767 0.148858 0
M  V30 18 C -2.601135 -1.611313 -0.066116 0
M  V30 19 O -3.238022 -0.877887 -0.896705 0
M  V30 20 C -3.265873 -2.759306 0.561614 0
M  V30 21 C -2.606842 -3.587705 1.476104 0
M  V30 22 C -1.195360 -3.252638 1.787430 0
M  V30 23 C -3.245562 -4.672653 2.064617 0
M  V30 24 C -4.542869 -4.958400 1.761645 0
M  V30 25 C -5.151145 -4.116914 0.857538 0
M  V30 26 C -4.580257 -3.020067 0.232214 0
M  V30 27 C -5.348668 -2.188670 -0.728797 0
M  V30 28 C 3.804322 1.744106 0.112798 0 CFG=1
M  V30 29 C 3.876296 0.661005 1.017308 0 CFG=1
M  V30 30 C 3.704531 -0.752585 0.717389 0
M  V30 31 C 2.274512 -1.225104 0.454968 0 CFG=1
M  V30 32 C 1.680092 -1.322987 1.842217 0
M  V30 33 C 5.164531 1.341075 0.489715 0
M  V30 34 C 6.003790 0.555379 -0.482677 0
M  V30 35 C 5.969889 2.145223 1.491653 0
M  V30 36 H -1.598307 1.240939 2.094462 0
M  V30 37 H -2.065023 2.008668 0.567003 0
M  V30 38 H -0.744011 2.768828 1.472630 0
M  V30 39 H 1.586349 1.576929 1.159474 0
M  V30 40 H 3.995941 1.851443 -2.083869 0
M  V30 41 H 2.118910 3.485377 -1.297828 0
M  V30 42 H -0.496449 3.171596 -3.103892 0
M  V30 43 H -1.203581 2.722325 -1.548097 0
M  V30 44 H 0.607666 4.816574 -2.309216 0
M  V30 45 H -0.572351 0.667194 -2.743494 0
M  V30 46 H 0.955703 0.878519 -4.231771 0
M  V30 47 H 0.006892 -1.566567 -2.746111 0
M  V30 48 H -1.493756 0.328299 -1.131471 0
M  V30 49 H -0.552579 -3.301087 0.888345 0
M  V30 50 H -0.853569 -3.956798 2.572918 0
M  V30 51 H -1.219150 -2.259690 2.279793 0
M  V30 52 H -2.684622 -5.280713 2.767155 0
M  V30 53 H -5.071627 -5.782140 2.190721 0
M  V30 54 H -6.188387 -4.322081 0.597200 0
M  V30 55 H -4.920208 -2.235818 -1.772771 0
M  V30 56 H -5.499197 -1.142850 -0.387603 0
M  V30 57 H -6.353648 -2.666498 -0.841199 0
M  V30 58 H 3.547305 2.767635 0.507306 0
M  V30 59 H 3.681334 0.895523 2.109410 0
M  V30 60 H 4.058070 -1.364784 1.600202 0
M  V30 61 H 4.310368 -1.154568 -0.120781 0
M  V30 62 H 2.321960 -2.222055 -0.010416 0
M  V30 63 H 2.316038 -0.881617 2.637924 0
M  V30 64 H 1.553342 -2.409767 2.067077 0
M  V30 65 H 0.695295 -0.849702 1.959818 0
M  V30 66 H 5.588706 0.505201 -1.507377 0
M  V30 67 H 6.232825 -0.476329 -0.148520 0
M  V30 68 H 6.996471 1.039876 -0.581935 0
M  V30 69 H 6.442868 3.032110 1.047462 0
M  V30 70 H 5.318008 2.486807 2.344509 0
M  V30 71 H 6.691828 1.434466 1.961906 0
M  V30 END ATOM
M  V30 BEGIN BOND
M  V30 1 1 1 2
M  V30 2 2 2 3
M  V30 3 1 4 3 CFG=1
M  V30 4 1 4 5
M  V30 5 2 5 6
M  V30 6 1 5 7
M  V30 7 1 7 8
M  V30 8 2 8 9
M  V30 9 1 9 10
M  V30 10 1 10 11
M  V30 11 1 9 12
M  V30 12 1 12 13
M  V30 13 1 12 14
M  V30 14 1 14 15 CFG=3
M  V30 15 1 14 16
M  V30 16 1 16 17
M  V30 17 1 17 18
M  V30 18 2 18 19
M  V30 19 1 18 20
M  V30 20 2 20 21
M  V30 21 1 21 22
M  V30 22 1 21 23
M  V30 23 2 23 24
M  V30 24 1 24 25
M  V30 25 2 25 26
M  V30 26 1 26 27
M  V30 27 1 7 28
M  V30 28 1 28 29
M  V30 29 1 29 30
M  V30 30 1 30 31
M  V30 31 1 31 32
M  V30 32 1 29 33
M  V30 33 1 33 34
M  V30 34 1 33 35
M  V30 35 1 16 2
M  V30 36 1 26 20
M  V30 37 1 33 28
M  V30 38 1 14 4
M  V30 39 1 31 4
M  V30 40 1 1 36
M  V30 41 1 1 37
M  V30 42 1 1 38
M  V30 43 1 3 39
M  V30 44 1 7 40 CFG=3
M  V30 45 1 8 41
M  V30 46 1 10 42
M  V30 47 1 10 43
M  V30 48 1 11 44
M  V30 49 1 12 45 CFG=3
M  V30 50 1 13 46
M  V30 51 1 15 47
M  V30 52 1 16 48 CFG=3
M  V30 53 1 22 49
M  V30 54 1 22 50
M  V30 55 1 22 51
M  V30 56 1 23 52
M  V30 57 1 24 53
M  V30 58 1 25 54
M  V30 59 1 27 55
M  V30 60 1 27 56
M  V30 61 1 27 57
M  V30 62 1 28 58 CFG=1
M  V30 63 1 29 59 CFG=1
M  V30 64 1 30 60
M  V30 65 1 30 61
M  V30 66 1 31 62 CFG=3
M  V30 67 1 32 63
M  V30 68 1 32 64
M  V30 69 1 32 65
M  V30 70 1 34 66
M  V30 71 1 34 67
M  V30 72 1 34 68
M  V30 73 1 35 69
M  V30 74 1 35 70
M  V30 75 1 35 71
M  V30 END BOND
M  V30 END CTAB
M  END
>  <Dataset>  (62) 
ChEMBL_Kinases

>  <Ligand_Instance>  (62) 
nan

>  <PDB_ID>  (62) 
nan

>  <Standardized_SMILES>  (62) 
CC1=C[C@]23C(=O)[C@@H](C=C(CO)[C@@H](O)[C@]2(O)[C@H]1OC(=O)c1c(C)cccc1C)[C@H]1[C@@H](C[C@H]3C)C1(C)C

>  <Name>  (62) 
nan

>  <Pocket>  (62) 
nan

>  <ATP_Site>  (62) 
nan

>  <Peripheral>  (62) 
nan

>  <Num_H_Atoms_ProtBoundConf>  (62) 
nan

>  <Num_Resolved_Atoms>  (62) 
nan

>  <Num_Not_Resolved_Atoms>  (62) 
nan

$$$$
CHEMBL3105026
     RDKit          3D

  0  0  0  0  0  0  0  0  0  0999 V3000
M  V30 BEGIN CTAB
M  V30 COUNTS 75 79 0 0 0
M  V30 BEGIN ATOM
M  V30 1 C 3.748892 0.193554 4.820695 0
M  V30 2 C 3.016360 0.882092 3.727231 0
M  V30 3 O 1.809051 1.173877 3.787833 0
M  V30 4 N 3.763237 1.202620 2.582620 0
M  V30 5 C 3.590396 1.822456 1.313948 0
M  V30 6 C 3.778672 3.192993 1.133532 0
M  V30 7 C 3.612204 3.798383 -0.094871 0
M  V30 8 C 3.247993 2.973777 -1.141008 0
M  V30 9 C 3.039986 1.610697 -1.057078 0
M  V30 10 C 2.651473 0.799312 -2.225111 0
M  V30 11 C 3.223133 1.065246 0.202298 0
M  V30 12 C 3.023721 -0.387993 0.394733 0
M  V30 13 O 3.889198 -1.320278 0.285793 0
M  V30 14 O 1.727682 -0.658607 0.725071 0
M  V30 15 C 1.151290 -1.912639 0.985715 0 CFG=1
M  V30 16 C 0.492843 -1.839273 2.319550 0
M  V30 17 C 1.220593 -2.083795 3.617227 0
M  V30 18 C -0.797795 -1.535980 2.229305 0
M  V30 19 C -1.083250 -1.388008 0.837410 0 CFG=2
M  V30 20 C -2.332829 -2.045646 0.349490 0
M  V30 21 O -3.180054 -2.623522 0.970424 0
M  V30 22 C -2.681027 -2.041176 -1.140123 0 CFG=1
M  V30 23 C -2.318364 -3.356247 -1.584545 0
M  V30 24 C -1.148854 -3.959861 -1.225460 0
M  V30 25 C -0.877442 -5.200083 -2.020125 0
M  V30 26 O -0.811218 -6.228293 -1.050813 0
M  V30 27 C -0.170294 -3.538300 -0.179983 0 CFG=1
M  V30 28 O 1.076712 -4.004422 -0.637652 0
M  V30 29 C -0.012333 -2.068336 0.019762 0 CFG=2
M  V30 30 O 0.309395 -1.389115 -1.137337 0
M  V30 31 C -3.947186 -1.396599 -1.161397 0 CFG=1
M  V30 32 C -3.958550 -0.236976 -0.261252 0 CFG=1
M  V30 33 C -2.873802 0.339958 0.453748 0
M  V30 34 C -1.431715 0.036703 0.369332 0 CFG=1
M  V30 35 C -0.715447 1.034447 1.284653 0
M  V30 36 C -4.214109 -0.053860 -1.739219 0
M  V30 37 C -5.613107 0.223213 -2.254333 0
M  V30 38 C -3.161055 0.713226 -2.494659 0
M  V30 39 H 3.061395 -0.552871 5.304053 0
M  V30 40 H 4.137747 0.924900 5.557590 0
M  V30 41 H 4.603684 -0.396746 4.416407 0
M  V30 42 H 4.772857 1.000596 2.439216 0
M  V30 43 H 4.065719 3.793654 1.995618 0
M  V30 44 H 3.756446 4.862403 -0.243813 0
M  V30 45 H 3.123044 3.479215 -2.101981 0
M  V30 46 H 2.742690 -0.262322 -1.954334 0
M  V30 47 H 1.579100 0.979431 -2.476535 0
M  V30 48 H 3.234492 1.007551 -3.130772 0
M  V30 49 H 1.860644 -2.754917 0.904303 0
M  V30 50 H 0.996808 -3.104408 3.948645 0
M  V30 51 H 2.317097 -2.020397 3.467519 0
M  V30 52 H 0.879085 -1.378766 4.404203 0
M  V30 53 H -1.528562 -1.414000 3.020967 0
M  V30 54 H -2.006686 -1.342905 -1.727397 0
M  V30 55 H -2.986432 -3.885419 -2.220329 0
M  V30 56 H -1.688490 -5.409730 -2.726661 0
M  V30 57 H 0.132947 -5.146881 -2.449956 0
M  V30 58 H -1.652661 -6.140983 -0.507395 0
M  V30 59 H -0.408973 -3.992478 0.804334 0
M  V30 60 H 1.490455 -4.665933 -0.057577 0
M  V30 61 H 0.493489 -1.994521 -1.898847 0
M  V30 62 H -4.822851 -2.090829 -1.159203 0
M  V30 63 H -4.943490 -0.112196 0.294561 0
M  V30 64 H -2.943821 1.465902 0.311800 0
M  V30 65 H -3.066827 0.271771 1.572917 0
M  V30 66 H -0.947793 0.139627 -0.609508 0
M  V30 67 H -0.348533 0.524738 2.207907 0
M  V30 68 H 0.086813 1.591844 0.768459 0
M  V30 69 H -1.397317 1.824587 1.664438 0
M  V30 70 H -5.654967 1.326315 -2.428929 0
M  V30 71 H -6.402562 -0.030051 -1.543434 0
M  V30 72 H -5.721103 -0.260009 -3.257489 0
M  V30 73 H -2.644854 1.377801 -1.762508 0
M  V30 74 H -3.583856 1.424590 -3.236926 0
M  V30 75 H -2.473015 0.086773 -3.093905 0
M  V30 END ATOM
M  V30 BEGIN BOND
M  V30 1 1 1 2
M  V30 2 2 2 3
M  V30 3 1 2 4
M  V30 4 1 4 5
M  V30 5 2 5 6
M  V30 6 1 6 7
M  V30 7 2 7 8
M  V30 8 1 8 9
M  V30 9 1 9 10
M  V30 10 2 9 11
M  V30 11 1 11 12
M  V30 12 2 12 13
M  V30 13 1 12 14
M  V30 14 1 14 15
M  V30 15 1 15 16
M  V30 16 1 16 17
M  V30 17 2 16 18
M  V30 18 1 19 18 CFG=1
M  V30 19 1 19 20
M  V30 20 2 20 21
M  V30 21 1 20 22
M  V30 22 1 22 23
M  V30 23 2 23 24
M  V30 24 1 24 25
M  V30 25 1 25 26
M  V30 26 1 24 27
M  V30 27 1 27 28
M  V30 28 1 27 29
M  V30 29 1 29 30 CFG=3
M  V30 30 1 22 31
M  V30 31 1 31 32
M  V30 32 1 32 33
M  V30 33 1 33 34
M  V30 34 1 34 35
M  V30 35 1 32 36
M  V30 36 1 36 37
M  V30 37 1 36 38
M  V30 38 1 11 5
M  V30 39 1 29 15
M  V30 40 1 36 31
M  V30 41 1 29 19
M  V30 42 1 34 19
M  V30 43 1 1 39
M  V30 44 1 1 40
M  V30 45 1 1 41
M  V30 46 1 4 42
M  V30 47 1 6 43
M  V30 48 1 7 44
M  V30 49 1 8 45
M  V30 50 1 10 46
M  V30 51 1 10 47
M  V30 52 1 10 48
M  V30 53 1 15 49 CFG=1
M  V30 54 1 17 50
M  V30 55 1 17 51
M  V30 56 1 17 52
M  V30 57 1 18 53
M  V30 58 1 22 54 CFG=3
M  V30 59 1 23 55
M  V30 60 1 25 56
M  V30 61 1 25 57
M  V30 62 1 26 58
M  V30 63 1 27 59 CFG=1
M  V30 64 1 28 60
M  V30 65 1 30 61
M  V30 66 1 31 62 CFG=1
M  V30 67 1 32 63 CFG=1
M  V30 68 1 33 64
M  V30 69 1 33 65
M  V30 70 1 34 66 CFG=3
M  V30 71 1 35 67
M  V30 72 1 35 68
M  V30 73 1 35 69
M  V30 74 1 37 70
M  V30 75 1 37 71
M  V30 76 1 37 72
M  V30 77 1 38 73
M  V30 78 1 38 74
M  V30 79 1 38 75
M  V30 END BOND
M  V30 END CTAB
M  END
>  <Dataset>  (63) 
ChEMBL_Kinases

>  <Ligand_Instance>  (63) 
nan

>  <PDB_ID>  (63) 
nan

>  <Standardized_SMILES>  (63) 
CC(=O)Nc1cccc(C)c1C(=O)O[C@H]1C(C)=C[C@]23C(=O)[C@@H](C=C(CO)[C@@H](O)[C@]12O)[C@H]1[C@@H](C[C@H]3C)C1(C)C

>  <Name>  (63) 
nan

>  <Pocket>  (63) 
nan

>  <ATP_Site>  (63) 
nan

>  <Peripheral>  (63) 
nan

>  <Num_H_Atoms_ProtBoundConf>  (63) 
nan

>  <Num_Resolved_Atoms>  (63) 
nan

>  <Num_Not_Resolved_Atoms>  (63) 
nan

$$$$
CHEMBL3105027
     RDKit          3D

  0  0  0  0  0  0  0  0  0  0999 V3000
M  V30 BEGIN CTAB
M  V30 COUNTS 71 76 0 0 0
M  V30 BEGIN ATOM
M  V30 1 C -2.758723 1.313809 -0.827105 0
M  V30 2 C -1.390382 0.746381 -0.519631 0
M  V30 3 C -0.404059 1.142670 0.298150 0
M  V30 4 C 0.746400 0.242461 0.245712 0 CFG=2
M  V30 5 C 2.105802 0.887070 0.141935 0
M  V30 6 O 2.916613 -0.005343 0.081306 0
M  V30 7 C 2.189879 2.394004 0.133542 0 CFG=1
M  V30 8 C 1.275017 2.741183 -1.031577 0
M  V30 9 C 0.887498 1.935828 -2.061355 0
M  V30 10 C 0.210300 2.650638 -3.206914 0
M  V30 11 O -1.065931 2.211032 -3.440698 0
M  V30 12 C 1.068799 0.482604 -2.164919 0 CFG=1
M  V30 13 O 2.406649 0.151072 -2.495230 0
M  V30 14 C 0.563009 -0.387200 -1.046395 0 CFG=1
M  V30 15 O 1.138755 -1.657555 -1.168735 0
M  V30 16 C -0.953441 -0.473375 -1.204362 0 CFG=1
M  V30 17 O -1.329197 -1.688144 -0.657616 0
M  V30 18 C -1.962522 -2.714965 -1.330584 0
M  V30 19 O -2.122279 -2.337562 -2.493627 0
M  V30 20 C -2.398661 -4.020819 -0.859225 0
M  V30 21 C -3.007868 -4.792124 -1.831328 0
M  V30 22 C -3.468367 -6.054383 -1.512052 0
M  V30 23 C -3.282089 -6.473647 -0.198655 0
M  V30 24 C -3.750027 -7.752646 0.121930 0
M  V30 25 C -3.602457 -8.238364 1.401971 0
M  V30 26 C -2.987302 -7.449384 2.367046 0
M  V30 27 C -2.516453 -6.178923 2.070322 0
M  V30 28 C -2.666227 -5.697191 0.788466 0
M  V30 29 C -2.217262 -4.442834 0.440276 0
M  V30 30 C 1.597062 2.790476 1.444819 0 CFG=1
M  V30 31 C 1.173593 1.863209 2.424920 0 CFG=1
M  V30 32 C 1.513098 0.447179 2.499698 0
M  V30 33 C 0.787955 -0.475402 1.529127 0 CFG=1
M  V30 34 C -0.557421 -0.692892 2.190495 0
M  V30 35 C 2.399175 2.789993 2.663063 0
M  V30 36 C 2.158835 3.860268 3.736941 0
M  V30 37 C 3.758805 2.165668 2.749947 0
M  V30 38 H -3.474348 0.937275 -0.083165 0
M  V30 39 H -2.721365 2.427753 -0.693591 0
M  V30 40 H -3.042333 1.153267 -1.862343 0
M  V30 41 H -0.666443 2.052899 0.829730 0
M  V30 42 H 3.207688 2.760043 -0.022133 0
M  V30 43 H 0.850919 3.717894 -1.112398 0
M  V30 44 H 0.881408 2.525695 -4.104598 0
M  V30 45 H 0.204524 3.729960 -3.010068 0
M  V30 46 H -1.653491 2.994739 -3.671385 0
M  V30 47 H 0.509393 0.151393 -3.095308 0
M  V30 48 H 2.561401 0.426275 -3.436770 0
M  V30 49 H 1.382327 -1.801481 -2.120381 0
M  V30 50 H -1.221943 -0.398404 -2.301451 0
M  V30 51 H -3.158930 -4.476970 -2.858010 0
M  V30 52 H -3.959894 -6.734000 -2.203780 0
M  V30 53 H -4.240682 -8.400952 -0.617171 0
M  V30 54 H -3.957860 -9.237443 1.689749 0
M  V30 55 H -2.849413 -7.790888 3.388812 0
M  V30 56 H -2.041366 -5.566829 2.810969 0
M  V30 57 H -1.734314 -3.804351 1.167504 0
M  V30 58 H 0.981940 3.723942 1.326557 0
M  V30 59 H 0.252740 2.117640 3.036608 0
M  V30 60 H 2.609323 0.225084 2.366480 0
M  V30 61 H 1.294394 0.055565 3.521902 0
M  V30 62 H 1.316236 -1.446115 1.507399 0
M  V30 63 H -0.516282 -0.552361 3.291660 0
M  V30 64 H -0.926235 -1.730157 2.066642 0
M  V30 65 H -1.315496 0.073808 1.851008 0
M  V30 66 H 1.196094 4.344034 3.463641 0
M  V30 67 H 2.086093 3.413259 4.750043 0
M  V30 68 H 2.947625 4.615030 3.687734 0
M  V30 69 H 3.782077 1.389930 3.558756 0
M  V30 70 H 4.456952 2.941207 3.064148 0
M  V30 71 H 4.139959 1.751040 1.803154 0
M  V30 END ATOM
M  V30 BEGIN BOND
M  V30 1 1 1 2
M  V30 2 2 2 3
M  V30 3 1 4 3 CFG=1
M  V30 4 1 4 5
M  V30 5 2 5 6
M  V30 6 1 5 7
M  V30 7 1 7 8
M  V30 8 2 8 9
M  V30 9 1 9 10
M  V30 10 1 10 11
M  V30 11 1 9 12
M  V30 12 1 12 13
M  V30 13 1 12 14
M  V30 14 1 14 15 CFG=1
M  V30 15 1 14 16
M  V30 16 1 16 17
M  V30 17 1 17 18
M  V30 18 2 18 19
M  V30 19 1 18 20
M  V30 20 2 20 21
M  V30 21 1 21 22
M  V30 22 2 22 23
M  V30 23 1 23 24
M  V30 24 2 24 25
M  V30 25 1 25 26
M  V30 26 2 26 27
M  V30 27 1 27 28
M  V30 28 2 28 29
M  V30 29 1 7 30
M  V30 30 1 30 31
M  V30 31 1 31 32
M  V30 32 1 32 33
M  V30 33 1 33 34
M  V30 34 1 31 35
M  V30 35 1 35 36
M  V30 36 1 35 37
M  V30 37 1 16 2
M  V30 38 1 29 20
M  V30 39 1 35 30
M  V30 40 1 14 4
M  V30 41 1 28 23
M  V30 42 1 33 4
M  V30 43 1 1 38
M  V30 44 1 1 39
M  V30 45 1 1 40
M  V30 46 1 3 41
M  V30 47 1 7 42 CFG=3
M  V30 48 1 8 43
M  V30 49 1 10 44
M  V30 50 1 10 45
M  V30 51 1 11 46
M  V30 52 1 12 47 CFG=3
M  V30 53 1 13 48
M  V30 54 1 15 49
M  V30 55 1 16 50 CFG=3
M  V30 56 1 21 51
M  V30 57 1 22 52
M  V30 58 1 24 53
M  V30 59 1 25 54
M  V30 60 1 26 55
M  V30 61 1 27 56
M  V30 62 1 29 57
M  V30 63 1 30 58 CFG=3
M  V30 64 1 31 59 CFG=1
M  V30 65 1 32 60
M  V30 66 1 32 61
M  V30 67 1 33 62 CFG=3
M  V30 68 1 34 63
M  V30 69 1 34 64
M  V30 70 1 34 65
M  V30 71 1 36 66
M  V30 72 1 36 67
M  V30 73 1 36 68
M  V30 74 1 37 69
M  V30 75 1 37 70
M  V30 76 1 37 71
M  V30 END BOND
M  V30 END CTAB
M  END
>  <Dataset>  (64) 
ChEMBL_Kinases

>  <Ligand_Instance>  (64) 
nan

>  <PDB_ID>  (64) 
nan

>  <Standardized_SMILES>  (64) 
CC1=C[C@]23C(=O)[C@@H](C=C(CO)[C@@H](O)[C@]2(O)[C@H]1OC(=O)c1ccc2ccccc2c1)[C@H]1[C@@H](C[C@H]3C)C1(C)C

>  <Name>  (64) 
nan

>  <Pocket>  (64) 
nan

>  <ATP_Site>  (64) 
nan

>  <Peripheral>  (64) 
nan

>  <Num_H_Atoms_ProtBoundConf>  (64) 
nan

>  <Num_Resolved_Atoms>  (64) 
nan

>  <Num_Not_Resolved_Atoms>  (64) 
nan

$$$$
CHEMBL3105089
     RDKit          3D

  0  0  0  0  0  0  0  0  0  0999 V3000
M  V30 BEGIN CTAB
M  V30 COUNTS 65 69 0 0 0
M  V30 BEGIN ATOM
M  V30 1 C 2.869757 -3.498693 1.208757 0
M  V30 2 C 1.974937 -2.344195 0.887369 0
M  V30 3 C 2.030544 -1.653439 -0.270985 0
M  V30 4 C 1.025601 -0.641331 -0.192367 0 CFG=2
M  V30 5 C 1.448624 0.741740 -0.626961 0
M  V30 6 O 2.486036 1.089324 -1.097874 0
M  V30 7 C 0.489575 1.922347 -0.485117 0 CFG=1
M  V30 8 C 0.945396 2.603848 0.691630 0
M  V30 9 C 1.304870 1.953256 1.834050 0
M  V30 10 C 1.461561 2.897427 2.992388 0
M  V30 11 O 2.810309 2.735284 3.388810 0
M  V30 12 C 1.544401 0.493440 2.026705 0 CFG=1
M  V30 13 O 1.334812 0.227606 3.391562 0
M  V30 14 C 0.619701 -0.412950 1.247448 0 CFG=1
M  V30 15 O -0.720365 -0.129099 1.415084 0
M  V30 16 C 0.924047 -1.817959 1.792433 0 CFG=1
M  V30 17 O -0.266811 -2.532365 1.811460 0
M  V30 18 C -0.887681 -3.109258 2.890806 0
M  V30 19 O -0.327084 -2.989655 4.015366 0
M  V30 20 C -2.150839 -3.838357 2.761144 0
M  V30 21 C -2.719119 -3.937487 1.505931 0
M  V30 22 C -3.912719 -4.628027 1.392025 0
M  V30 23 C -4.456242 -5.169795 2.529000 0
M  V30 24 C -3.906227 -5.083546 3.794560 0
M  V30 25 C -2.713258 -4.391149 3.896789 0
M  V30 26 Br -1.922883 -4.248910 5.619694 0
M  V30 27 C 0.417604 2.403724 -1.821748 0 CFG=1
M  V30 28 C 0.276402 1.275177 -2.749830 0 CFG=1
M  V30 29 C 0.016692 -0.085539 -2.454991 0
M  V30 30 C -0.152260 -0.773617 -1.165303 0 CFG=1
M  V30 31 C -0.392864 -2.238096 -1.479630 0
M  V30 32 C -0.816977 2.340653 -2.686504 0
M  V30 33 C -2.141823 2.003783 -2.038491 0
M  V30 34 C -0.954311 3.353212 -3.795376 0
M  V30 35 H 3.051848 -3.571733 2.310176 0
M  V30 36 H 3.898511 -3.334501 0.778694 0
M  V30 37 H 2.529368 -4.451108 0.772146 0
M  V30 38 H 2.668298 -1.776037 -1.124003 0
M  V30 39 H -0.564082 1.577859 -0.243509 0
M  V30 40 H 0.994079 3.672439 0.637585 0
M  V30 41 H 1.379905 3.937901 2.686149 0
M  V30 42 H 0.837934 2.614694 3.845827 0
M  V30 43 H 3.377673 2.697890 2.571402 0
M  V30 44 H 2.576142 0.213921 1.724636 0
M  V30 45 H 0.433256 0.553441 3.621197 0
M  V30 46 H -1.090572 -0.733945 2.104578 0
M  V30 47 H 1.315203 -1.782826 2.829873 0
M  V30 48 H -2.238412 -3.489006 0.660779 0
M  V30 49 H -4.364442 -4.711128 0.416775 0
M  V30 50 H -5.395256 -5.696137 2.350955 0
M  V30 51 H -4.441622 -5.558225 4.605989 0
M  V30 52 H 1.102981 3.235887 -2.075992 0
M  V30 53 H 0.874622 1.414660 -3.708257 0
M  V30 54 H 0.760665 -0.770385 -2.980590 0
M  V30 55 H -0.921361 -0.372619 -3.030798 0
M  V30 56 H -1.035969 -0.460053 -0.574440 0
M  V30 57 H -1.471904 -2.494107 -1.442415 0
M  V30 58 H -0.094543 -2.500335 -2.536849 0
M  V30 59 H 0.235658 -2.909149 -0.865404 0
M  V30 60 H -3.014702 2.444098 -2.578505 0
M  V30 61 H -2.237489 2.451783 -1.005528 0
M  V30 62 H -2.306313 0.922239 -2.065128 0
M  V30 63 H -1.886040 3.110513 -4.357437 0
M  V30 64 H -0.115218 3.260206 -4.520385 0
M  V30 65 H -1.078686 4.378603 -3.430565 0
M  V30 END ATOM
M  V30 BEGIN BOND
M  V30 1 1 1 2
M  V30 2 2 2 3
M  V30 3 1 4 3 CFG=1
M  V30 4 1 4 5
M  V30 5 2 5 6
M  V30 6 1 5 7
M  V30 7 1 7 8
M  V30 8 2 8 9
M  V30 9 1 9 10
M  V30 10 1 10 11
M  V30 11 1 9 12
M  V30 12 1 12 13
M  V30 13 1 12 14
M  V30 14 1 14 15 CFG=3
M  V30 15 1 14 16
M  V30 16 1 16 17
M  V30 17 1 17 18
M  V30 18 2 18 19
M  V30 19 1 18 20
M  V30 20 2 20 21
M  V30 21 1 21 22
M  V30 22 2 22 23
M  V30 23 1 23 24
M  V30 24 2 24 25
M  V30 25 1 25 26
M  V30 26 1 7 27
M  V30 27 1 27 28
M  V30 28 1 28 29
M  V30 29 1 29 30
M  V30 30 1 30 31
M  V30 31 1 28 32
M  V30 32 1 32 33
M  V30 33 1 32 34
M  V30 34 1 16 2
M  V30 35 1 25 20
M  V30 36 1 32 27
M  V30 37 1 14 4
M  V30 38 1 30 4
M  V30 39 1 1 35
M  V30 40 1 1 36
M  V30 41 1 1 37
M  V30 42 1 3 38
M  V30 43 1 7 39 CFG=1
M  V30 44 1 8 40
M  V30 45 1 10 41
M  V30 46 1 10 42
M  V30 47 1 11 43
M  V30 48 1 12 44 CFG=3
M  V30 49 1 13 45
M  V30 50 1 15 46
M  V30 51 1 16 47 CFG=1
M  V30 52 1 21 48
M  V30 53 1 22 49
M  V30 54 1 23 50
M  V30 55 1 24 51
M  V30 56 1 27 52 CFG=3
M  V30 57 1 28 53 CFG=3
M  V30 58 1 29 54
M  V30 59 1 29 55
M  V30 60 1 30 56 CFG=1
M  V30 61 1 31 57
M  V30 62 1 31 58
M  V30 63 1 31 59
M  V30 64 1 33 60
M  V30 65 1 33 61
M  V30 66 1 33 62
M  V30 67 1 34 63
M  V30 68 1 34 64
M  V30 69 1 34 65
M  V30 END BOND
M  V30 END CTAB
M  END
>  <Dataset>  (65) 
ChEMBL_Kinases

>  <Ligand_Instance>  (65) 
nan

>  <PDB_ID>  (65) 
nan

>  <Standardized_SMILES>  (65) 
CC1=C[C@]23C(=O)[C@@H](C=C(CO)[C@@H](O)[C@]2(O)[C@H]1OC(=O)c1ccccc1Br)[C@H]1[C@@H](C[C@H]3C)C1(C)C

>  <Name>  (65) 
nan

>  <Pocket>  (65) 
nan

>  <ATP_Site>  (65) 
nan

>  <Peripheral>  (65) 
nan

>  <Num_H_Atoms_ProtBoundConf>  (65) 
nan

>  <Num_Resolved_Atoms>  (65) 
nan

>  <Num_Not_Resolved_Atoms>  (65) 
nan

$$$$
CHEMBL3105092
     RDKit          3D

  0  0  0  0  0  0  0  0  0  0999 V3000
M  V30 BEGIN CTAB
M  V30 COUNTS 69 73 0 0 0
M  V30 BEGIN ATOM
M  V30 1 C 2.272998 -0.145959 4.897127 0
M  V30 2 O 2.305445 0.506512 3.628807 0
M  V30 3 C 3.181014 1.573400 3.495313 0
M  V30 4 C 3.992020 2.002968 4.524292 0
M  V30 5 C 4.852036 3.060251 4.373241 0
M  V30 6 C 4.865204 3.670578 3.144219 0
M  V30 7 C 4.067780 3.247741 2.133433 0
M  V30 8 C 3.196065 2.186749 2.264659 0
M  V30 9 C 2.402169 1.848471 1.093389 0
M  V30 10 O 2.512457 2.492972 0.005788 0
M  V30 11 O 1.454906 0.863380 0.912321 0
M  V30 12 C 0.763001 0.654097 -0.295044 0 CFG=1
M  V30 13 C 0.969802 -0.752955 -0.743063 0
M  V30 14 C 2.314173 -1.039386 -1.354143 0
M  V30 15 C -0.115419 -1.497635 -0.497936 0
M  V30 16 C -1.164397 -0.702784 0.132285 0 CFG=2
M  V30 17 C -2.548743 -0.837934 -0.469639 0
M  V30 18 O -3.369804 -0.192689 0.074261 0
M  V30 19 C -2.769866 -1.735799 -1.654083 0 CFG=1
M  V30 20 C -1.747997 -1.174473 -2.632106 0
M  V30 21 C -1.072508 0.009413 -2.612200 0
M  V30 22 C -0.120626 0.228183 -3.760317 0
M  V30 23 O -0.130547 -0.851769 -4.622147 0
M  V30 24 C -1.218501 1.054929 -1.570787 0 CFG=1
M  V30 25 O -2.472209 1.653562 -1.565455 0
M  V30 26 C -0.745010 0.652955 -0.173090 0 CFG=2
M  V30 27 O -1.195330 1.632788 0.704112 0
M  V30 28 C -2.369268 -3.087227 -1.132212 0 CFG=1
M  V30 29 C -2.115887 -3.340310 0.232800 0 CFG=1
M  V30 30 C -2.323123 -2.436700 1.365346 0
M  V30 31 C -1.416803 -1.227078 1.480742 0 CFG=1
M  V30 32 C -0.192357 -1.659011 2.240639 0
M  V30 33 C -3.344298 -3.953442 -0.460416 0
M  V30 34 C -4.703060 -3.456905 -0.034978 0
M  V30 35 C -3.331984 -5.425199 -0.803884 0
M  V30 36 H 3.286702 -0.591851 5.103196 0
M  V30 37 H 2.099461 0.639827 5.675235 0
M  V30 38 H 1.485610 -0.918069 4.891322 0
M  V30 39 H 3.958667 1.498477 5.487557 0
M  V30 40 H 5.498633 3.418380 5.161192 0
M  V30 41 H 5.552374 4.514735 3.024262 0
M  V30 42 H 4.154086 3.799963 1.197118 0
M  V30 43 H 1.078833 1.378665 -1.084955 0
M  V30 44 H 2.196375 -2.004679 -1.919717 0
M  V30 45 H 2.661633 -0.260332 -2.026295 0
M  V30 46 H 2.979855 -1.263257 -0.501648 0
M  V30 47 H 0.040263 -2.521702 -0.821989 0
M  V30 48 H -3.766983 -1.668702 -2.081327 0
M  V30 49 H -1.462788 -1.766756 -3.519118 0
M  V30 50 H 0.881286 0.511406 -3.420025 0
M  V30 51 H -0.542738 1.083294 -4.326875 0
M  V30 52 H -0.009186 -0.537029 -5.552373 0
M  V30 53 H -0.536952 1.891604 -1.915815 0
M  V30 54 H -3.047434 1.260504 -2.245060 0
M  V30 55 H -2.133326 1.889920 0.497913 0
M  V30 56 H -1.736950 -3.599117 -1.920834 0
M  V30 57 H -1.363583 -4.155905 0.462156 0
M  V30 58 H -2.192109 -3.009597 2.330976 0
M  V30 59 H -3.379934 -2.061781 1.469910 0
M  V30 60 H -1.959016 -0.440103 2.059871 0
M  V30 61 H -0.423854 -2.567341 2.850987 0
M  V30 62 H 0.663482 -1.935038 1.599067 0
M  V30 63 H 0.026856 -0.880284 2.998628 0
M  V30 64 H -4.945687 -2.447297 -0.425441 0
M  V30 65 H -5.507689 -4.134890 -0.386404 0
M  V30 66 H -4.829466 -3.436192 1.070522 0
M  V30 67 H -3.316461 -5.487997 -1.913479 0
M  V30 68 H -4.155082 -6.000872 -0.353104 0
M  V30 69 H -2.327373 -5.825454 -0.482402 0
M  V30 END ATOM
M  V30 BEGIN BOND
M  V30 1 1 1 2
M  V30 2 1 2 3
M  V30 3 2 3 4
M  V30 4 1 4 5
M  V30 5 2 5 6
M  V30 6 1 6 7
M  V30 7 2 7 8
M  V30 8 1 8 9
M  V30 9 2 9 10
M  V30 10 1 9 11
M  V30 11 1 11 12
M  V30 12 1 12 13
M  V30 13 1 13 14
M  V30 14 2 13 15
M  V30 15 1 16 15 CFG=3
M  V30 16 1 16 17
M  V30 17 2 17 18
M  V30 18 1 17 19
M  V30 19 1 19 20
M  V30 20 2 20 21
M  V30 21 1 21 22
M  V30 22 1 22 23
M  V30 23 1 21 24
M  V30 24 1 24 25
M  V30 25 1 24 26
M  V30 26 1 26 27 CFG=1
M  V30 27 1 19 28
M  V30 28 1 28 29
M  V30 29 1 29 30
M  V30 30 1 30 31
M  V30 31 1 31 32
M  V30 32 1 29 33
M  V30 33 1 33 34
M  V30 34 1 33 35
M  V30 35 1 8 3
M  V30 36 1 26 12
M  V30 37 1 33 28
M  V30 38 1 26 16
M  V30 39 1 31 16
M  V30 40 1 1 36
M  V30 41 1 1 37
M  V30 42 1 1 38
M  V30 43 1 4 39
M  V30 44 1 5 40
M  V30 45 1 6 41
M  V30 46 1 7 42
M  V30 47 1 12 43 CFG=3
M  V30 48 1 14 44
M  V30 49 1 14 45
M  V30 50 1 14 46
M  V30 51 1 15 47
M  V30 52 1 19 48 CFG=3
M  V30 53 1 20 49
M  V30 54 1 22 50
M  V30 55 1 22 51
M  V30 56 1 23 52
M  V30 57 1 24 53 CFG=3
M  V30 58 1 25 54
M  V30 59 1 27 55
M  V30 60 1 28 56 CFG=3
M  V30 61 1 29 57 CFG=3
M  V30 62 1 30 58
M  V30 63 1 30 59
M  V30 64 1 31 60 CFG=1
M  V30 65 1 32 61
M  V30 66 1 32 62
M  V30 67 1 32 63
M  V30 68 1 34 64
M  V30 69 1 34 65
M  V30 70 1 34 66
M  V30 71 1 35 67
M  V30 72 1 35 68
M  V30 73 1 35 69
M  V30 END BOND
M  V30 END CTAB
M  END
>  <Dataset>  (66) 
ChEMBL_Kinases

>  <Ligand_Instance>  (66) 
nan

>  <PDB_ID>  (66) 
nan

>  <Standardized_SMILES>  (66) 
COc1ccccc1C(=O)O[C@H]1C(C)=C[C@]23C(=O)[C@@H](C=C(CO)[C@@H](O)[C@]12O)[C@H]1[C@@H](C[C@H]3C)C1(C)C

>  <Name>  (66) 
nan

>  <Pocket>  (66) 
nan

>  <ATP_Site>  (66) 
nan

>  <Peripheral>  (66) 
nan

>  <Num_H_Atoms_ProtBoundConf>  (66) 
nan

>  <Num_Resolved_Atoms>  (66) 
nan

>  <Num_Not_Resolved_Atoms>  (66) 
nan

$$$$
CHEMBL3105094
     RDKit          3D

  0  0  0  0  0  0  0  0  0  0999 V3000
M  V30 BEGIN CTAB
M  V30 COUNTS 75 80 0 0 0
M  V30 BEGIN ATOM
M  V30 1 C 2.201545 -1.841461 -0.382040 0
M  V30 2 C 1.032764 -1.023938 -0.849521 0
M  V30 3 C 0.273563 -1.143757 -1.939153 0
M  V30 4 C -0.751618 -0.103507 -1.957470 0 CFG=2
M  V30 5 C -0.907896 0.630602 -3.279614 0
M  V30 6 O -1.755899 1.457481 -3.109975 0
M  V30 7 C -0.064257 0.244296 -4.462341 0 CFG=1
M  V30 8 C 1.331301 0.355750 -3.865449 0
M  V30 9 C 1.749683 0.995539 -2.736845 0
M  V30 10 C 3.220013 0.950509 -2.452058 0
M  V30 11 O 3.616879 2.309041 -2.439653 0
M  V30 12 C 0.876092 1.725487 -1.789542 0 CFG=1
M  V30 13 O 0.337710 2.881274 -2.355841 0
M  V30 14 C -0.182253 0.905099 -1.078159 0 CFG=1
M  V30 15 O -1.097020 1.793022 -0.520748 0
M  V30 16 C 0.574981 0.138274 -0.016985 0 CFG=1
M  V30 17 O -0.192984 -0.251823 1.068401 0
M  V30 18 C 0.113709 0.079536 2.355041 0
M  V30 19 O 1.158366 0.766937 2.410004 0
M  V30 20 C -0.756140 -0.378626 3.430304 0
M  V30 21 C -1.900574 -1.084788 3.144245 0
M  V30 22 C -2.743059 -1.488270 4.153183 0
M  V30 23 C -2.508125 -1.223696 5.465771 0
M  V30 24 C -1.368571 -0.518083 5.785002 0
M  V30 25 C -0.514267 -0.110203 4.756535 0
M  V30 26 C 0.667817 0.584747 5.229098 0
M  V30 27 C 0.369751 1.710334 6.006373 0
M  V30 28 C 1.348091 2.502855 6.569303 0
M  V30 29 C 2.682003 2.229260 6.397036 0
M  V30 30 C 2.965329 1.118578 5.630395 0
M  V30 31 C 2.007679 0.309991 5.057021 0
M  V30 32 C -0.450278 -1.183440 -4.709011 0 CFG=1
M  V30 33 C -1.516054 -1.817934 -4.032228 0 CFG=1
M  V30 34 C -2.523455 -1.190861 -3.183272 0
M  V30 35 C -2.071833 -0.707240 -1.812726 0 CFG=1
M  V30 36 C -2.185992 -1.876765 -0.879632 0
M  V30 37 C -1.591729 -1.555382 -5.544140 0
M  V30 38 C -1.515274 -2.731582 -6.493606 0
M  V30 39 C -2.531693 -0.485583 -6.042830 0
M  V30 40 H 2.710315 -2.359544 -1.232343 0
M  V30 41 H 2.936483 -1.195596 0.089958 0
M  V30 42 H 1.803490 -2.633965 0.274784 0
M  V30 43 H 0.539068 -1.965846 -2.596409 0
M  V30 44 H -0.184405 0.925505 -5.301855 0
M  V30 45 H 2.122686 -0.155948 -4.427381 0
M  V30 46 H 3.361283 0.598442 -1.431824 0
M  V30 47 H 3.771589 0.399132 -3.211106 0
M  V30 48 H 4.586280 2.415283 -2.377024 0
M  V30 49 H 1.549471 2.133666 -0.976640 0
M  V30 50 H -0.259541 3.248988 -1.655934 0
M  V30 51 H -0.729410 2.169905 0.311566 0
M  V30 52 H 1.447451 0.741434 0.321310 0
M  V30 53 H -2.128750 -1.316779 2.134720 0
M  V30 54 H -3.643432 -2.045260 3.912161 0
M  V30 55 H -3.178842 -1.544628 6.266704 0
M  V30 56 H -1.186045 -0.310218 6.828882 0
M  V30 57 H -0.654391 2.041704 6.222894 0
M  V30 58 H 1.100763 3.376116 7.172136 0
M  V30 59 H 3.492904 2.787759 6.795067 0
M  V30 60 H 4.002450 0.846361 5.455169 0
M  V30 61 H 2.200753 -0.569204 4.468315 0
M  V30 62 H 0.476830 -1.785414 -4.954436 0
M  V30 63 H -1.410411 -2.927255 -3.832318 0
M  V30 64 H -3.356503 -1.927171 -2.978848 0
M  V30 65 H -3.086820 -0.357741 -3.708877 0
M  V30 66 H -2.800484 0.085375 -1.517697 0
M  V30 67 H -2.639042 -2.781794 -1.385892 0
M  V30 68 H -2.948229 -1.655594 -0.085143 0
M  V30 69 H -1.229676 -2.256930 -0.486656 0
M  V30 70 H -0.726625 -3.440693 -6.126431 0
M  V30 71 H -1.301693 -2.332801 -7.492362 0
M  V30 72 H -2.487872 -3.291681 -6.445522 0
M  V30 73 H -3.597857 -0.798047 -6.058648 0
M  V30 74 H -2.271884 -0.364812 -7.134226 0
M  V30 75 H -2.390124 0.501053 -5.606931 0
M  V30 END ATOM
M  V30 BEGIN BOND
M  V30 1 1 1 2
M  V30 2 2 2 3
M  V30 3 1 4 3 CFG=3
M  V30 4 1 4 5
M  V30 5 2 5 6
M  V30 6 1 5 7
M  V30 7 1 7 8
M  V30 8 2 8 9
M  V30 9 1 9 10
M  V30 10 1 10 11
M  V30 11 1 9 12
M  V30 12 1 12 13
M  V30 13 1 12 14
M  V30 14 1 14 15 CFG=1
M  V30 15 1 14 16
M  V30 16 1 16 17
M  V30 17 1 17 18
M  V30 18 2 18 19
M  V30 19 1 18 20
M  V30 20 2 20 21
M  V30 21 1 21 22
M  V30 22 2 22 23
M  V30 23 1 23 24
M  V30 24 2 24 25
M  V30 25 1 25 26
M  V30 26 2 26 27
M  V30 27 1 27 28
M  V30 28 2 28 29
M  V30 29 1 29 30
M  V30 30 2 30 31
M  V30 31 1 7 32
M  V30 32 1 32 33
M  V30 33 1 33 34
M  V30 34 1 34 35
M  V30 35 1 35 36
M  V30 36 1 33 37
M  V30 37 1 37 38
M  V30 38 1 37 39
M  V30 39 1 16 2
M  V30 40 1 25 20
M  V30 41 1 31 26
M  V30 42 1 37 32
M  V30 43 1 14 4
M  V30 44 1 35 4
M  V30 45 1 1 40
M  V30 46 1 1 41
M  V30 47 1 1 42
M  V30 48 1 3 43
M  V30 49 1 7 44 CFG=3
M  V30 50 1 8 45
M  V30 51 1 10 46
M  V30 52 1 10 47
M  V30 53 1 11 48
M  V30 54 1 12 49 CFG=1
M  V30 55 1 13 50
M  V30 56 1 15 51
M  V30 57 1 16 52 CFG=1
M  V30 58 1 21 53
M  V30 59 1 22 54
M  V30 60 1 23 55
M  V30 61 1 24 56
M  V30 62 1 27 57
M  V30 63 1 28 58
M  V30 64 1 29 59
M  V30 65 1 30 60
M  V30 66 1 31 61
M  V30 67 1 32 62 CFG=3
M  V30 68 1 33 63 CFG=3
M  V30 69 1 34 64
M  V30 70 1 34 65
M  V30 71 1 35 66 CFG=1
M  V30 72 1 36 67
M  V30 73 1 36 68
M  V30 74 1 36 69
M  V30 75 1 38 70
M  V30 76 1 38 71
M  V30 77 1 38 72
M  V30 78 1 39 73
M  V30 79 1 39 74
M  V30 80 1 39 75
M  V30 END BOND
M  V30 END CTAB
M  END
>  <Dataset>  (67) 
ChEMBL_Kinases

>  <Ligand_Instance>  (67) 
nan

>  <PDB_ID>  (67) 
nan

>  <Standardized_SMILES>  (67) 
CC1=C[C@]23C(=O)[C@@H](C=C(CO)[C@@H](O)[C@]2(O)[C@H]1OC(=O)c1ccccc1-c1ccccc1)[C@H]1[C@@H](C[C@H]3C)C1(C)C

>  <Name>  (67) 
nan

>  <Pocket>  (67) 
nan

>  <ATP_Site>  (67) 
nan

>  <Peripheral>  (67) 
nan

>  <Num_H_Atoms_ProtBoundConf>  (67) 
nan

>  <Num_Resolved_Atoms>  (67) 
nan

>  <Num_Not_Resolved_Atoms>  (67) 
nan

$$$$
CHEMBL3105095
     RDKit          3D

  0  0  0  0  0  0  0  0  0  0999 V3000
M  V30 BEGIN CTAB
M  V30 COUNTS 76 81 0 0 0
M  V30 BEGIN ATOM
M  V30 1 C 1.633159 0.276791 -3.301113 0
M  V30 2 C 0.598668 -0.178024 -2.295866 0
M  V30 3 C -0.373467 -1.123206 -2.326513 0
M  V30 4 C -1.151570 -1.199874 -1.066493 0 CFG=2
M  V30 5 C -2.661534 -1.258690 -1.222182 0
M  V30 6 O -3.091079 -1.246305 -0.083478 0
M  V30 7 C -3.250872 -1.311595 -2.538017 0 CFG=1
M  V30 8 C -2.690090 -0.065075 -3.206010 0
M  V30 9 C -2.024638 0.985746 -2.647577 0
M  V30 10 C -1.537353 2.036878 -3.613861 0
M  V30 11 O -1.889044 1.686316 -4.911640 0
M  V30 12 C -1.762779 1.159312 -1.199473 0 CFG=1
M  V30 13 O -2.930801 1.410734 -0.481651 0
M  V30 14 C -0.903401 0.098706 -0.531575 0 CFG=1
M  V30 15 O -1.062235 0.245703 0.851068 0
M  V30 16 C 0.509733 0.461831 -0.953107 0 CFG=1
M  V30 17 O 1.376694 0.007676 0.010097 0
M  V30 18 C 2.274995 0.769232 0.740390 0
M  V30 19 O 2.126914 1.924998 0.342955 0
M  V30 20 C 3.169708 0.266472 1.740530 0
M  V30 21 C 3.284236 -1.066474 2.054057 0
M  V30 22 C 4.174944 -1.549775 2.988842 0
M  V30 23 C 4.979533 -0.628262 3.626442 0
M  V30 24 C 4.873207 0.732721 3.317517 0
M  V30 25 C 3.960437 1.201574 2.364764 0
M  V30 26 O 4.042687 2.549532 2.241761 0
M  V30 27 C 3.122131 3.516244 2.503072 0
M  V30 28 C 1.838085 3.538741 3.051512 0
M  V30 29 C 1.121178 4.703850 3.197812 0
M  V30 30 C 1.651544 5.912568 2.802326 0
M  V30 31 C 2.916628 5.940959 2.254981 0
M  V30 32 C 3.645874 4.754723 2.106309 0
M  V30 33 C -2.848666 -2.567418 -3.211563 0 CFG=1
M  V30 34 C -1.874870 -3.489105 -2.796513 0 CFG=1
M  V30 35 C -0.985744 -3.486351 -1.676328 0
M  V30 36 C -0.965084 -2.524107 -0.544327 0 CFG=1
M  V30 37 C 0.326068 -2.825772 0.230008 0
M  V30 38 C -3.347183 -3.852361 -2.765027 0
M  V30 39 C -3.930446 -4.764384 -3.861405 0
M  V30 40 C -3.855296 -4.219535 -1.429576 0
M  V30 41 H 1.703844 1.377899 -3.211694 0
M  V30 42 H 1.321158 0.050718 -4.336382 0
M  V30 43 H 2.619474 -0.191342 -3.115875 0
M  V30 44 H -0.379475 -1.633452 -3.282450 0
M  V30 45 H -4.350800 -1.256277 -2.473732 0
M  V30 46 H -2.793574 0.078611 -4.262439 0
M  V30 47 H -0.487369 2.290795 -3.486483 0
M  V30 48 H -2.129416 2.965586 -3.389838 0
M  V30 49 H -2.820014 1.958439 -5.138436 0
M  V30 50 H -1.218603 2.149610 -1.116634 0
M  V30 51 H -2.782545 1.880279 0.357227 0
M  V30 52 H -0.322627 0.819105 1.148517 0
M  V30 53 H 0.619713 1.561748 -1.086444 0
M  V30 54 H 2.666093 -1.805526 1.567807 0
M  V30 55 H 4.241234 -2.606319 3.213834 0
M  V30 56 H 5.676925 -1.011083 4.358153 0
M  V30 57 H 5.575700 1.340440 3.904008 0
M  V30 58 H 1.564080 2.509631 3.311945 0
M  V30 59 H 0.138872 4.514538 3.645988 0
M  V30 60 H 1.013510 6.775100 2.956711 0
M  V30 61 H 3.268263 6.920921 1.967995 0
M  V30 62 H 4.626262 4.973424 1.654786 0
M  V30 63 H -2.953888 -2.341687 -4.312268 0
M  V30 64 H -1.395107 -4.088511 -3.644433 0
M  V30 65 H 0.090241 -3.446602 -2.043099 0
M  V30 66 H -1.006850 -4.509297 -1.192688 0
M  V30 67 H -1.721966 -2.888518 0.218096 0
M  V30 68 H 0.318244 -2.400131 1.225639 0
M  V30 69 H 0.259324 -3.946086 0.377806 0
M  V30 70 H 1.227620 -2.710339 -0.377641 0
M  V30 71 H -4.811012 -4.265958 -4.328296 0
M  V30 72 H -3.094720 -4.891524 -4.583648 0
M  V30 73 H -4.194149 -5.741725 -3.468775 0
M  V30 74 H -4.566360 -5.101521 -1.450699 0
M  V30 75 H -3.019731 -4.606377 -0.809678 0
M  V30 76 H -4.461307 -3.446153 -0.924404 0
M  V30 END ATOM
M  V30 BEGIN BOND
M  V30 1 1 1 2
M  V30 2 2 2 3
M  V30 3 1 4 3 CFG=3
M  V30 4 1 4 5
M  V30 5 2 5 6
M  V30 6 1 5 7
M  V30 7 1 7 8
M  V30 8 2 8 9
M  V30 9 1 9 10
M  V30 10 1 10 11
M  V30 11 1 9 12
M  V30 12 1 12 13
M  V30 13 1 12 14
M  V30 14 1 14 15 CFG=1
M  V30 15 1 14 16
M  V30 16 1 16 17
M  V30 17 1 17 18
M  V30 18 2 18 19
M  V30 19 1 18 20
M  V30 20 2 20 21
M  V30 21 1 21 22
M  V30 22 2 22 23
M  V30 23 1 23 24
M  V30 24 2 24 25
M  V30 25 1 25 26
M  V30 26 1 26 27
M  V30 27 2 27 28
M  V30 28 1 28 29
M  V30 29 2 29 30
M  V30 30 1 30 31
M  V30 31 2 31 32
M  V30 32 1 7 33
M  V30 33 1 33 34
M  V30 34 1 34 35
M  V30 35 1 35 36
M  V30 36 1 36 37
M  V30 37 1 34 38
M  V30 38 1 38 39
M  V30 39 1 38 40
M  V30 40 1 16 2
M  V30 41 1 25 20
M  V30 42 1 32 27
M  V30 43 1 38 33
M  V30 44 1 14 4
M  V30 45 1 36 4
M  V30 46 1 1 41
M  V30 47 1 1 42
M  V30 48 1 1 43
M  V30 49 1 3 44
M  V30 50 1 7 45 CFG=1
M  V30 51 1 8 46
M  V30 52 1 10 47
M  V30 53 1 10 48
M  V30 54 1 11 49
M  V30 55 1 12 50 CFG=3
M  V30 56 1 13 51
M  V30 57 1 15 52
M  V30 58 1 16 53 CFG=3
M  V30 59 1 21 54
M  V30 60 1 22 55
M  V30 61 1 23 56
M  V30 62 1 24 57
M  V30 63 1 28 58
M  V30 64 1 29 59
M  V30 65 1 30 60
M  V30 66 1 31 61
M  V30 67 1 32 62
M  V30 68 1 33 63 CFG=3
M  V30 69 1 34 64 CFG=3
M  V30 70 1 35 65
M  V30 71 1 35 66
M  V30 72 1 36 67 CFG=1
M  V30 73 1 37 68
M  V30 74 1 37 69
M  V30 75 1 37 70
M  V30 76 1 39 71
M  V30 77 1 39 72
M  V30 78 1 39 73
M  V30 79 1 40 74
M  V30 80 1 40 75
M  V30 81 1 40 76
M  V30 END BOND
M  V30 END CTAB
M  END
>  <Dataset>  (68) 
ChEMBL_Kinases

>  <Ligand_Instance>  (68) 
nan

>  <PDB_ID>  (68) 
nan

>  <Standardized_SMILES>  (68) 
CC1=C[C@]23C(=O)[C@@H](C=C(CO)[C@@H](O)[C@]2(O)[C@H]1OC(=O)c1ccccc1Oc1ccccc1)[C@H]1[C@@H](C[C@H]3C)C1(C)C

>  <Name>  (68) 
nan

>  <Pocket>  (68) 
nan

>  <ATP_Site>  (68) 
nan

>  <Peripheral>  (68) 
nan

>  <Num_H_Atoms_ProtBoundConf>  (68) 
nan

>  <Num_Resolved_Atoms>  (68) 
nan

>  <Num_Not_Resolved_Atoms>  (68) 
nan

$$$$
CHEMBL3105096
     RDKit          3D

  0  0  0  0  0  0  0  0  0  0999 V3000
M  V30 BEGIN CTAB
M  V30 COUNTS 77 82 0 0 0
M  V30 BEGIN ATOM
M  V30 1 C -0.702887 -1.895635 2.019732 0
M  V30 2 C -0.989557 -1.428346 0.610061 0
M  V30 3 C -2.126730 -1.440446 -0.131789 0
M  V30 4 C -1.984819 -0.888435 -1.465865 0 CFG=2
M  V30 5 C -2.585163 -1.677865 -2.602736 0
M  V30 6 O -2.374011 -1.052135 -3.606258 0
M  V30 7 C -3.264658 -2.963752 -2.309642 0 CFG=1
M  V30 8 C -2.218738 -3.699922 -1.485904 0
M  V30 9 C -0.869800 -3.499428 -1.522105 0
M  V30 10 C -0.109693 -4.629020 -0.870485 0
M  V30 11 O 0.657312 -4.229047 0.195537 0
M  V30 12 C -0.160989 -2.347333 -2.126159 0 CFG=1
M  V30 13 O -0.135253 -2.418833 -3.517741 0
M  V30 14 C -0.544546 -0.971861 -1.638123 0 CFG=1
M  V30 15 O -0.004126 -0.046577 -2.532455 0
M  V30 16 C 0.072119 -0.826968 -0.259716 0 CFG=1
M  V30 17 O 0.463464 0.450614 0.086152 0
M  V30 18 C 1.675007 0.903854 0.519194 0
M  V30 19 O 2.344393 -0.150031 0.520788 0
M  V30 20 C 1.968101 2.286423 0.856539 0
M  V30 21 C 0.905405 3.148500 0.700291 0
M  V30 22 C 0.977831 4.494397 0.963884 0
M  V30 23 C 2.177744 5.002343 1.406530 0
M  V30 24 C 3.235165 4.136937 1.560084 0
M  V30 25 C 3.159799 2.798060 1.297818 0
M  V30 26 N 4.247029 1.915312 1.478966 0
M  V30 27 C 5.567316 2.048009 1.967772 0
M  V30 28 C 6.712626 1.449143 1.477813 0
M  V30 29 C 7.958965 1.612990 2.027270 0
M  V30 30 C 8.120376 2.412688 3.131544 0
M  V30 31 C 7.023923 3.038054 3.670179 0
M  V30 32 C 5.775319 2.843847 3.080526 0
M  V30 33 C -4.435827 -2.569456 -1.451135 0 CFG=1
M  V30 34 C -4.716851 -1.220612 -1.131331 0 CFG=1
M  V30 35 C -4.196380 -0.043237 -1.787836 0
M  V30 36 C -2.755956 0.364352 -1.529841 0 CFG=1
M  V30 37 C -2.709035 1.256784 -0.339640 0
M  V30 38 C -5.685155 -2.048192 -2.009364 0
M  V30 39 C -7.013083 -2.408388 -1.332906 0
M  V30 40 C -5.853891 -1.652969 -3.451191 0
M  V30 41 H -1.345686 -2.781434 2.274861 0
M  V30 42 H -0.932679 -1.061249 2.713345 0
M  V30 43 H 0.334275 -2.236321 2.049250 0
M  V30 44 H -2.951549 -1.871998 0.418641 0
M  V30 45 H -3.539781 -3.520502 -3.213241 0
M  V30 46 H -2.577533 -4.467228 -0.795230 0
M  V30 47 H 0.599824 -4.996247 -1.659232 0
M  V30 48 H -0.780965 -5.459119 -0.652963 0
M  V30 49 H 0.638772 -4.862224 0.968367 0
M  V30 50 H 0.930120 -2.453663 -1.826296 0
M  V30 51 H 0.459730 -3.164877 -3.738997 0
M  V30 52 H -0.138370 -0.322328 -3.460431 0
M  V30 53 H 0.938047 -1.540637 -0.138153 0
M  V30 54 H -0.066275 2.823801 0.357427 0
M  V30 55 H 0.124610 5.173253 0.836582 0
M  V30 56 H 2.245065 6.065311 1.617173 0
M  V30 57 H 4.136142 4.624992 1.897467 0
M  V30 58 H 4.187535 0.912392 1.236882 0
M  V30 59 H 6.556310 0.813853 0.591905 0
M  V30 60 H 8.766526 1.071339 1.526278 0
M  V30 61 H 9.114421 2.514323 3.529727 0
M  V30 62 H 7.238050 3.640964 4.527328 0
M  V30 63 H 5.031295 3.396329 3.642244 0
M  V30 64 H -4.586502 -3.342972 -0.666119 0
M  V30 65 H -5.109716 -0.998743 -0.089014 0
M  V30 66 H -4.349975 -0.054990 -2.908605 0
M  V30 67 H -4.799046 0.866179 -1.484748 0
M  V30 68 H -2.402061 0.952976 -2.420401 0
M  V30 69 H -2.198119 2.224022 -0.532587 0
M  V30 70 H -2.269923 0.719806 0.533771 0
M  V30 71 H -3.742832 1.541806 -0.062261 0
M  V30 72 H -7.848785 -1.820279 -1.736703 0
M  V30 73 H -6.952978 -2.175885 -0.244668 0
M  V30 74 H -7.159470 -3.503730 -1.417663 0
M  V30 75 H -6.655422 -2.265324 -3.867486 0
M  V30 76 H -6.223241 -0.591581 -3.536644 0
M  V30 77 H -4.968761 -1.815531 -4.074424 0
M  V30 END ATOM
M  V30 BEGIN BOND
M  V30 1 1 1 2
M  V30 2 2 2 3
M  V30 3 1 4 3 CFG=1
M  V30 4 1 4 5
M  V30 5 2 5 6
M  V30 6 1 5 7
M  V30 7 1 7 8
M  V30 8 2 8 9
M  V30 9 1 9 10
M  V30 10 1 10 11
M  V30 11 1 9 12
M  V30 12 1 12 13
M  V30 13 1 12 14
M  V30 14 1 14 15 CFG=3
M  V30 15 1 14 16
M  V30 16 1 16 17
M  V30 17 1 17 18
M  V30 18 2 18 19
M  V30 19 1 18 20
M  V30 20 2 20 21
M  V30 21 1 21 22
M  V30 22 2 22 23
M  V30 23 1 23 24
M  V30 24 2 24 25
M  V30 25 1 25 26
M  V30 26 1 26 27
M  V30 27 2 27 28
M  V30 28 1 28 29
M  V30 29 2 29 30
M  V30 30 1 30 31
M  V30 31 2 31 32
M  V30 32 1 7 33
M  V30 33 1 33 34
M  V30 34 1 34 35
M  V30 35 1 35 36
M  V30 36 1 36 37
M  V30 37 1 34 38
M  V30 38 1 38 39
M  V30 39 1 38 40
M  V30 40 1 16 2
M  V30 41 1 25 20
M  V30 42 1 32 27
M  V30 43 1 38 33
M  V30 44 1 14 4
M  V30 45 1 36 4
M  V30 46 1 1 41
M  V30 47 1 1 42
M  V30 48 1 1 43
M  V30 49 1 3 44
M  V30 50 1 7 45 CFG=3
M  V30 51 1 8 46
M  V30 52 1 10 47
M  V30 53 1 10 48
M  V30 54 1 11 49
M  V30 55 1 12 50 CFG=1
M  V30 56 1 13 51
M  V30 57 1 15 52
M  V30 58 1 16 53 CFG=3
M  V30 59 1 21 54
M  V30 60 1 22 55
M  V30 61 1 23 56
M  V30 62 1 24 57
M  V30 63 1 26 58
M  V30 64 1 28 59
M  V30 65 1 29 60
M  V30 66 1 30 61
M  V30 67 1 31 62
M  V30 68 1 32 63
M  V30 69 1 33 64 CFG=1
M  V30 70 1 34 65 CFG=1
M  V30 71 1 35 66
M  V30 72 1 35 67
M  V30 73 1 36 68 CFG=3
M  V30 74 1 37 69
M  V30 75 1 37 70
M  V30 76 1 37 71
M  V30 77 1 39 72
M  V30 78 1 39 73
M  V30 79 1 39 74
M  V30 80 1 40 75
M  V30 81 1 40 76
M  V30 82 1 40 77
M  V30 END BOND
M  V30 END CTAB
M  END
>  <Dataset>  (69) 
ChEMBL_Kinases

>  <Ligand_Instance>  (69) 
nan

>  <PDB_ID>  (69) 
nan

>  <Standardized_SMILES>  (69) 
CC1=C[C@]23C(=O)[C@@H](C=C(CO)[C@@H](O)[C@]2(O)[C@H]1OC(=O)c1ccccc1Nc1ccccc1)[C@H]1[C@@H](C[C@H]3C)C1(C)C

>  <Name>  (69) 
nan

>  <Pocket>  (69) 
nan

>  <ATP_Site>  (69) 
nan

>  <Peripheral>  (69) 
nan

>  <Num_H_Atoms_ProtBoundConf>  (69) 
nan

>  <Num_Resolved_Atoms>  (69) 
nan

>  <Num_Not_Resolved_Atoms>  (69) 
nan

$$$$
CHEMBL3105098
     RDKit          3D

  0  0  0  0  0  0  0  0  0  0999 V3000
M  V30 BEGIN CTAB
M  V30 COUNTS 70 74 0 0 0
M  V30 BEGIN ATOM
M  V30 1 C -1.946278 2.477192 -5.212125 0
M  V30 2 N -1.826267 2.567313 -3.783486 0
M  V30 3 C -1.781712 3.847458 -3.212000 0
M  V30 4 C -1.850602 4.999571 -3.965275 0
M  V30 5 C -1.806120 6.240826 -3.369625 0
M  V30 6 C -1.691408 6.343190 -2.004192 0
M  V30 7 C -1.623026 5.190748 -1.257775 0
M  V30 8 C -1.666399 3.941061 -1.841329 0
M  V30 9 C -1.577907 2.849937 -0.890250 0
M  V30 10 O -1.477820 2.985235 0.348207 0
M  V30 11 O -1.570292 1.482162 -0.961388 0
M  V30 12 C -1.474890 0.573800 0.089564 0 CFG=1
M  V30 13 C -2.589825 -0.409848 0.116569 0
M  V30 14 C -4.039271 -0.044145 -0.046587 0
M  V30 15 C -2.179714 -1.657545 0.300693 0
M  V30 16 C -0.723039 -1.608856 0.414077 0 CFG=2
M  V30 17 C -0.242221 -1.793560 1.833609 0
M  V30 18 O -0.901302 -1.839136 2.820941 0
M  V30 19 C 1.254689 -1.948505 2.128665 0 CFG=1
M  V30 20 C 1.610682 -0.603938 2.474566 0
M  V30 21 C 1.473244 0.412864 1.567887 0
M  V30 22 C 2.016319 1.712146 2.125254 0
M  V30 23 O 1.002075 2.649414 2.165038 0
M  V30 24 C 0.906625 0.405312 0.207841 0 CFG=1
M  V30 25 O 1.981251 -0.027484 -0.608986 0
M  V30 26 C -0.272029 -0.357670 -0.147077 0 CFG=2
M  V30 27 O -0.221018 -0.541251 -1.553765 0
M  V30 28 C 1.288225 -3.148115 2.860359 0 CFG=1
M  V30 29 C 0.610424 -4.202747 2.056900 0 CFG=1
M  V30 30 C -0.079617 -4.024403 0.831569 0
M  V30 31 C -0.082082 -2.906596 -0.136231 0 CFG=1
M  V30 32 C -1.010253 -3.308037 -1.270530 0
M  V30 33 C 2.036044 -4.406922 2.335208 0
M  V30 34 C 2.554256 -5.319400 3.429322 0
M  V30 35 C 3.152008 -3.989345 1.420017 0
M  V30 36 H -2.771320 3.175125 -5.533490 0
M  V30 37 H -1.023412 2.839993 -5.736450 0
M  V30 38 H -2.203011 1.450754 -5.494959 0
M  V30 39 H -1.778174 1.699648 -3.238905 0
M  V30 40 H -1.940762 4.967315 -5.039364 0
M  V30 41 H -1.861787 7.129607 -3.980573 0
M  V30 42 H -1.660151 7.338926 -1.578269 0
M  V30 43 H -1.533999 5.362563 -0.193114 0
M  V30 44 H -1.388387 1.010329 1.098519 0
M  V30 45 H -4.513980 -0.012311 0.969984 0
M  V30 46 H -4.561929 -0.872311 -0.570247 0
M  V30 47 H -4.152273 0.923624 -0.537337 0
M  V30 48 H -2.783576 -2.551125 0.359081 0
M  V30 49 H 1.827107 -2.181824 1.166379 0
M  V30 50 H 1.996437 -0.363342 3.461659 0
M  V30 51 H 2.773496 2.066604 1.397353 0
M  V30 52 H 2.472104 1.568744 3.095987 0
M  V30 53 H 1.376888 3.566495 2.198212 0
M  V30 54 H 0.763161 1.463830 -0.090655 0
M  V30 55 H 1.681727 -0.167235 -1.538084 0
M  V30 56 H -0.997683 -0.187181 -2.007886 0
M  V30 57 H 1.158642 -3.089304 3.978057 0
M  V30 58 H 0.031775 -4.902392 2.751627 0
M  V30 59 H 0.163303 -4.929280 0.188964 0
M  V30 60 H -1.198580 -4.178704 0.967383 0
M  V30 61 H 0.861168 -2.668916 -0.627788 0
M  V30 62 H -1.764227 -4.045069 -0.884890 0
M  V30 63 H -1.618144 -2.468943 -1.659400 0
M  V30 64 H -0.456551 -3.834876 -2.074811 0
M  V30 65 H 3.173852 -4.766055 4.139962 0
M  V30 66 H 3.226478 -6.064769 2.940464 0
M  V30 67 H 1.742854 -5.903493 3.911273 0
M  V30 68 H 3.709683 -3.167318 1.924206 0
M  V30 69 H 3.929525 -4.803393 1.320843 0
M  V30 70 H 2.875855 -3.755049 0.396725 0
M  V30 END ATOM
M  V30 BEGIN BOND
M  V30 1 1 1 2
M  V30 2 1 2 3
M  V30 3 2 3 4
M  V30 4 1 4 5
M  V30 5 2 5 6
M  V30 6 1 6 7
M  V30 7 2 7 8
M  V30 8 1 8 9
M  V30 9 2 9 10
M  V30 10 1 9 11
M  V30 11 1 11 12
M  V30 12 1 12 13
M  V30 13 1 13 14
M  V30 14 2 13 15
M  V30 15 1 16 15 CFG=1
M  V30 16 1 16 17
M  V30 17 2 17 18
M  V30 18 1 17 19
M  V30 19 1 19 20
M  V30 20 2 20 21
M  V30 21 1 21 22
M  V30 22 1 22 23
M  V30 23 1 21 24
M  V30 24 1 24 25
M  V30 25 1 24 26
M  V30 26 1 26 27 CFG=3
M  V30 27 1 19 28
M  V30 28 1 28 29
M  V30 29 1 29 30
M  V30 30 1 30 31
M  V30 31 1 31 32
M  V30 32 1 29 33
M  V30 33 1 33 34
M  V30 34 1 33 35
M  V30 35 1 8 3
M  V30 36 1 26 12
M  V30 37 1 33 28
M  V30 38 1 26 16
M  V30 39 1 31 16
M  V30 40 1 1 36
M  V30 41 1 1 37
M  V30 42 1 1 38
M  V30 43 1 2 39
M  V30 44 1 4 40
M  V30 45 1 5 41
M  V30 46 1 6 42
M  V30 47 1 7 43
M  V30 48 1 12 44 CFG=1
M  V30 49 1 14 45
M  V30 50 1 14 46
M  V30 51 1 14 47
M  V30 52 1 15 48
M  V30 53 1 19 49 CFG=3
M  V30 54 1 20 50
M  V30 55 1 22 51
M  V30 56 1 22 52
M  V30 57 1 23 53
M  V30 58 1 24 54 CFG=3
M  V30 59 1 25 55
M  V30 60 1 27 56
M  V30 61 1 28 57 CFG=1
M  V30 62 1 29 58 CFG=1
M  V30 63 1 30 59
M  V30 64 1 30 60
M  V30 65 1 31 61 CFG=3
M  V30 66 1 32 62
M  V30 67 1 32 63
M  V30 68 1 32 64
M  V30 69 1 34 65
M  V30 70 1 34 66
M  V30 71 1 34 67
M  V30 72 1 35 68
M  V30 73 1 35 69
M  V30 74 1 35 70
M  V30 END BOND
M  V30 END CTAB
M  END
>  <Dataset>  (70) 
ChEMBL_Kinases

>  <Ligand_Instance>  (70) 
nan

>  <PDB_ID>  (70) 
nan

>  <Standardized_SMILES>  (70) 
CNc1ccccc1C(=O)O[C@H]1C(C)=C[C@]23C(=O)[C@@H](C=C(CO)[C@@H](O)[C@]12O)[C@H]1[C@@H](C[C@H]3C)C1(C)C

>  <Name>  (70) 
nan

>  <Pocket>  (70) 
nan

>  <ATP_Site>  (70) 
nan

>  <Peripheral>  (70) 
nan

>  <Num_H_Atoms_ProtBoundConf>  (70) 
nan

>  <Num_Resolved_Atoms>  (70) 
nan

>  <Num_Not_Resolved_Atoms>  (70) 
nan

$$$$
CHEMBL3104853
     RDKit          3D

  0  0  0  0  0  0  0  0  0  0999 V3000
M  V30 BEGIN CTAB
M  V30 COUNTS 27 27 0 0 0
M  V30 BEGIN ATOM
M  V30 1 C -1.360804 -2.731462 1.882071 0
M  V30 2 O -0.938639 -1.762826 2.755475 0
M  V30 3 C -0.953729 -0.475778 2.275856 0
M  V30 4 C -0.121452 -0.225284 1.101960 0
M  V30 5 C 1.247046 -0.123151 1.251006 0
M  V30 6 C 1.855857 -0.269817 2.595042 0
M  V30 7 C 2.065470 0.117777 0.140404 0
M  V30 8 O 3.428437 0.217159 0.305317 0
M  V30 9 C 1.531861 0.259306 -1.127115 0
M  V30 10 O 2.389602 0.498059 -2.200295 0
M  V30 11 C 0.161584 0.156218 -1.270866 0
M  V30 12 O -0.345917 0.304290 -2.565014 0
M  V30 13 C -0.634330 -0.081394 -0.169461 0
M  V30 14 C -2.066806 -0.174785 -0.406138 0
M  V30 15 O -2.898718 -1.048205 -0.677721 0
M  V30 16 H -2.402941 -2.616230 1.520132 0
M  V30 17 H -1.334293 -3.698775 2.457989 0
M  V30 18 H -0.683488 -2.863259 1.013178 0
M  V30 19 H -2.028024 -0.269789 1.994688 0
M  V30 20 H -0.774925 0.230672 3.124993 0
M  V30 21 H 2.821221 0.289750 2.572359 0
M  V30 22 H 2.139647 -1.311781 2.830786 0
M  V30 23 H 1.251892 0.210469 3.398788 0
M  V30 24 H 4.008881 -0.560622 0.610310 0
M  V30 25 H 2.651236 -0.256218 -2.848223 0
M  V30 26 H -0.836564 1.164062 -2.813360 0
M  V30 27 H -2.326448 0.877253 -0.273927 0
M  V30 END ATOM
M  V30 BEGIN BOND
M  V30 1 1 1 2
M  V30 2 1 2 3
M  V30 3 1 3 4
M  V30 4 2 4 5
M  V30 5 1 5 6
M  V30 6 1 5 7
M  V30 7 1 7 8
M  V30 8 2 7 9
M  V30 9 1 9 10
M  V30 10 1 9 11
M  V30 11 1 11 12
M  V30 12 2 11 13
M  V30 13 1 13 14
M  V30 14 2 14 15
M  V30 15 1 13 4
M  V30 16 1 1 16
M  V30 17 1 1 17
M  V30 18 1 1 18
M  V30 19 1 3 19
M  V30 20 1 3 20
M  V30 21 1 6 21
M  V30 22 1 6 22
M  V30 23 1 6 23
M  V30 24 1 8 24
M  V30 25 1 10 25
M  V30 26 1 12 26
M  V30 27 1 14 27
M  V30 END BOND
M  V30 END CTAB
M  END
>  <Dataset>  (71) 
ChEMBL_Kinases

>  <Ligand_Instance>  (71) 
nan

>  <PDB_ID>  (71) 
nan

>  <Standardized_SMILES>  (71) 
COCc1c(C)c(O)c(O)c(O)c1C=O

>  <Name>  (71) 
nan

>  <Pocket>  (71) 
nan

>  <ATP_Site>  (71) 
nan

>  <Peripheral>  (71) 
nan

>  <Num_H_Atoms_ProtBoundConf>  (71) 
nan

>  <Num_Resolved_Atoms>  (71) 
nan

>  <Num_Not_Resolved_Atoms>  (71) 
nan

$$$$
CHEMBL3298675
     RDKit          3D

  0  0  0  0  0  0  0  0  0  0999 V3000
M  V30 BEGIN CTAB
M  V30 COUNTS 47 49 0 0 0
M  V30 BEGIN ATOM
M  V30 1 C 5.709304 -1.541380 -4.356052 0
M  V30 2 C 5.211123 -2.049549 -3.038024 0
M  V30 3 O 5.837143 -2.661581 -2.135214 0
M  V30 4 N 3.837015 -1.810937 -2.758966 0
M  V30 5 C 3.141281 -2.199388 -1.575664 0
M  V30 6 N 2.541268 -3.418880 -1.549425 0
M  V30 7 C 1.883312 -3.762127 -0.403319 0
M  V30 8 C 1.853149 -2.880473 0.658024 0
M  V30 9 C 2.466903 -1.645498 0.617106 0
M  V30 10 N 3.118660 -1.321268 -0.535964 0
M  V30 11 C 2.377805 -0.765260 1.812991 0
M  V30 12 N 0.973758 -0.743582 2.177947 0
M  V30 13 C 0.253012 0.472669 2.317125 0
M  V30 14 O 0.857759 1.555483 2.116818 0
M  V30 15 N -1.119733 0.425348 2.676017 0
M  V30 16 C -1.866724 1.656676 2.821353 0 CFG=2
M  V30 17 C -2.378117 1.783381 4.262265 0
M  V30 18 O -3.205645 0.743390 4.620057 0
M  V30 19 C -3.085469 1.648621 1.946676 0
M  V30 20 C -2.865726 1.197752 0.659279 0
M  V30 21 C -3.858240 1.106579 -0.323281 0
M  V30 22 C -5.137869 1.502140 0.049128 0
M  V30 23 F -6.139553 1.435497 -0.861803 0
M  V30 24 C -5.350716 1.951118 1.335252 0
M  V30 25 Cl -6.963935 2.452811 1.814330 0
M  V30 26 C -4.365820 2.037288 2.296595 0
M  V30 27 C 0.327977 -2.020094 2.396802 0
M  V30 28 C 1.159709 -3.176274 1.941056 0
M  V30 29 H 6.735025 -1.921387 -4.550771 0
M  V30 30 H 5.010866 -1.752851 -5.168702 0
M  V30 31 H 5.792007 -0.434292 -4.300230 0
M  V30 32 H 3.221655 -1.300962 -3.458906 0
M  V30 33 H 1.371616 -4.730553 -0.300697 0
M  V30 34 H 2.906299 -1.322746 2.637720 0
M  V30 35 H 2.808525 0.223771 1.641319 0
M  V30 36 H -1.647046 -0.453953 2.848165 0
M  V30 37 H -1.250704 2.558656 2.626078 0
M  V30 38 H -1.513403 1.746874 4.975783 0
M  V30 39 H -2.822941 2.786106 4.425046 0
M  V30 40 H -3.073671 0.453332 5.574240 0
M  V30 41 H -1.871627 0.873045 0.314178 0
M  V30 42 H -3.629304 0.745786 -1.316302 0
M  V30 43 H -4.474298 2.374896 3.299812 0
M  V30 44 H -0.642907 -2.079805 1.837799 0
M  V30 45 H 0.061600 -2.183074 3.466346 0
M  V30 46 H 0.518109 -4.076669 1.840325 0
M  V30 47 H 1.878654 -3.422905 2.749284 0
M  V30 END ATOM
M  V30 BEGIN BOND
M  V30 1 1 1 2
M  V30 2 2 2 3
M  V30 3 1 2 4
M  V30 4 1 4 5
M  V30 5 2 5 6
M  V30 6 1 6 7
M  V30 7 2 7 8
M  V30 8 1 8 9
M  V30 9 2 9 10
M  V30 10 1 9 11
M  V30 11 1 11 12
M  V30 12 1 12 13
M  V30 13 2 13 14
M  V30 14 1 13 15
M  V30 15 1 15 16
M  V30 16 1 16 17
M  V30 17 1 17 18
M  V30 18 1 16 19
M  V30 19 2 19 20
M  V30 20 1 20 21
M  V30 21 2 21 22
M  V30 22 1 22 23
M  V30 23 1 22 24
M  V30 24 1 24 25
M  V30 25 2 24 26
M  V30 26 1 12 27
M  V30 27 1 27 28
M  V30 28 1 10 5
M  V30 29 1 26 19
M  V30 30 1 28 8
M  V30 31 1 1 29
M  V30 32 1 1 30
M  V30 33 1 1 31
M  V30 34 1 4 32
M  V30 35 1 7 33
M  V30 36 1 11 34
M  V30 37 1 11 35
M  V30 38 1 15 36
M  V30 39 1 16 37 CFG=3
M  V30 40 1 17 38
M  V30 41 1 17 39
M  V30 42 1 18 40
M  V30 43 1 20 41
M  V30 44 1 21 42
M  V30 45 1 26 43
M  V30 46 1 27 44
M  V30 47 1 27 45
M  V30 48 1 28 46
M  V30 49 1 28 47
M  V30 END BOND
M  V30 END CTAB
M  END
>  <Dataset>  (72) 
ChEMBL_Kinases

>  <Ligand_Instance>  (72) 
nan

>  <PDB_ID>  (72) 
nan

>  <Standardized_SMILES>  (72) 
CC(=O)Nc1ncc2c(n1)CN(C(=O)N[C@H](CO)c1ccc(F)c(Cl)c1)CC2

>  <Name>  (72) 
nan

>  <Pocket>  (72) 
nan

>  <ATP_Site>  (72) 
nan

>  <Peripheral>  (72) 
nan

>  <Num_H_Atoms_ProtBoundConf>  (72) 
nan

>  <Num_Resolved_Atoms>  (72) 
nan

>  <Num_Not_Resolved_Atoms>  (72) 
nan

$$$$
CHEMBL3298674
     RDKit          3D

  0  0  0  0  0  0  0  0  0  0999 V3000
M  V30 BEGIN CTAB
M  V30 COUNTS 47 49 0 0 0
M  V30 BEGIN ATOM
M  V30 1 C 2.114273 -6.462533 -0.201700 0
M  V30 2 C 1.285447 -5.291824 -0.660479 0
M  V30 3 C 1.037852 -5.388991 -2.159942 0
M  V30 4 N 1.872280 -4.017466 -0.293746 0
M  V30 5 C 1.209938 -2.810944 -0.653980 0
M  V30 6 N 0.047840 -2.862713 -1.328987 0
M  V30 7 C -0.621314 -1.730136 -1.694401 0
M  V30 8 C -0.055058 -0.507466 -1.341492 0
M  V30 9 C 1.144133 -0.449588 -0.644884 0
M  V30 10 N 1.760613 -1.621775 -0.310818 0
M  V30 11 C 1.769535 0.844790 -0.256546 0
M  V30 12 N 0.651573 1.797687 -0.179501 0
M  V30 13 C 0.139374 2.594792 0.899486 0
M  V30 14 O -0.847875 3.358754 0.743323 0
M  V30 15 N 0.749566 2.531658 2.180304 0
M  V30 16 C 0.342901 3.276366 3.363097 0
M  V30 17 C -0.866694 2.727109 4.000305 0
M  V30 18 C -0.637084 1.752011 4.961917 0
M  V30 19 C -1.652681 1.133255 5.656150 0
M  V30 20 C -2.957176 1.524463 5.358199 0
M  V30 21 C -3.234746 2.483089 4.416718 0
M  V30 22 F -4.491054 2.856400 4.133135 0
M  V30 23 C -2.180467 3.065485 3.756060 0
M  V30 24 C -0.026468 1.910038 -1.476758 0
M  V30 25 C -0.852347 0.669065 -1.779734 0
M  V30 26 H 2.072170 -7.329740 -0.899274 0
M  V30 27 H 3.162867 -6.105483 -0.064629 0
M  V30 28 H 1.782655 -6.859474 0.789155 0
M  V30 29 H 0.290547 -5.384148 -0.165840 0
M  V30 30 H -0.048354 -5.250315 -2.399443 0
M  V30 31 H 1.619042 -4.631957 -2.738575 0
M  V30 32 H 1.282220 -6.410840 -2.558249 0
M  V30 33 H 2.774395 -3.986803 0.230884 0
M  V30 34 H -1.550796 -1.822905 -2.235642 0
M  V30 35 H 2.232709 0.797205 0.748032 0
M  V30 36 H 2.506067 1.206387 -1.009234 0
M  V30 37 H 1.570019 1.901732 2.323527 0
M  V30 38 H 0.071904 4.308725 3.001169 0
M  V30 39 H 1.183880 3.419603 4.064428 0
M  V30 40 H 0.347805 1.418189 5.225659 0
M  V30 41 H -1.475390 0.367072 6.411806 0
M  V30 42 H -3.827907 1.083904 5.863677 0
M  V30 43 H -2.328257 3.825040 3.006024 0
M  V30 44 H 0.733075 2.032146 -2.257842 0
M  V30 45 H -0.717885 2.779814 -1.481618 0
M  V30 46 H -0.937580 0.598043 -2.901716 0
M  V30 47 H -1.855461 0.718008 -1.316429 0
M  V30 END ATOM
M  V30 BEGIN BOND
M  V30 1 1 1 2
M  V30 2 1 2 3
M  V30 3 1 2 4
M  V30 4 1 4 5
M  V30 5 2 5 6
M  V30 6 1 6 7
M  V30 7 2 7 8
M  V30 8 1 8 9
M  V30 9 2 9 10
M  V30 10 1 9 11
M  V30 11 1 11 12
M  V30 12 1 12 13
M  V30 13 2 13 14
M  V30 14 1 13 15
M  V30 15 1 15 16
M  V30 16 1 16 17
M  V30 17 2 17 18
M  V30 18 1 18 19
M  V30 19 2 19 20
M  V30 20 1 20 21
M  V30 21 1 21 22
M  V30 22 2 21 23
M  V30 23 1 12 24
M  V30 24 1 24 25
M  V30 25 1 10 5
M  V30 26 1 23 17
M  V30 27 1 25 8
M  V30 28 1 1 26
M  V30 29 1 1 27
M  V30 30 1 1 28
M  V30 31 1 2 29
M  V30 32 1 3 30
M  V30 33 1 3 31
M  V30 34 1 3 32
M  V30 35 1 4 33
M  V30 36 1 7 34
M  V30 37 1 11 35
M  V30 38 1 11 36
M  V30 39 1 15 37
M  V30 40 1 16 38
M  V30 41 1 16 39
M  V30 42 1 18 40
M  V30 43 1 19 41
M  V30 44 1 20 42
M  V30 45 1 23 43
M  V30 46 1 24 44
M  V30 47 1 24 45
M  V30 48 1 25 46
M  V30 49 1 25 47
M  V30 END BOND
M  V30 END CTAB
M  END
>  <Dataset>  (73) 
ChEMBL_Kinases

>  <Ligand_Instance>  (73) 
nan

>  <PDB_ID>  (73) 
nan

>  <Standardized_SMILES>  (73) 
CC(C)Nc1ncc2c(n1)CN(C(=O)NCc1cccc(F)c1)CC2

>  <Name>  (73) 
nan

>  <Pocket>  (73) 
nan

>  <ATP_Site>  (73) 
nan

>  <Peripheral>  (73) 
nan

>  <Num_H_Atoms_ProtBoundConf>  (73) 
nan

>  <Num_Resolved_Atoms>  (73) 
nan

>  <Num_Not_Resolved_Atoms>  (73) 
nan

$$$$
CHEMBL3298673
     RDKit          3D

  0  0  0  0  0  0  0  0  0  0999 V3000
M  V30 BEGIN CTAB
M  V30 COUNTS 47 49 0 0 0
M  V30 BEGIN ATOM
M  V30 1 C 2.617332 -6.256160 -1.141931 0
M  V30 2 C 1.512207 -5.229058 -1.255143 0
M  V30 3 C 0.872309 -5.359431 -2.592058 0
M  V30 4 N 1.996816 -3.898798 -0.952592 0
M  V30 5 C 1.128100 -2.773264 -0.998780 0
M  V30 6 N -0.166062 -2.931265 -1.328638 0
M  V30 7 C -1.045783 -1.887794 -1.389008 0
M  V30 8 C -0.526598 -0.622207 -1.085366 0
M  V30 9 C 0.801367 -0.452974 -0.745707 0
M  V30 10 N 1.618661 -1.547430 -0.707516 0
M  V30 11 C 1.385737 0.874482 -0.416715 0
M  V30 12 N 0.238993 1.754458 -0.148195 0
M  V30 13 C -0.107823 2.563203 0.986145 0
M  V30 14 O -1.167879 3.275150 1.032936 0
M  V30 15 N 0.708451 2.626025 2.137691 0
M  V30 16 C 0.508903 3.377088 3.346401 0
M  V30 17 C -0.520095 2.758322 4.227927 0
M  V30 18 C -0.048432 1.817751 5.142053 0
M  V30 19 C -0.890088 1.164508 6.024421 0
M  V30 20 C -2.237078 1.461065 5.989884 0
M  V30 21 Cl -3.446408 0.726393 7.038197 0
M  V30 22 C -2.734432 2.387464 5.096684 0
M  V30 23 C -1.865281 3.017649 4.233355 0
M  V30 24 C -0.714406 1.791836 -1.265647 0
M  V30 25 C -1.504248 0.504622 -1.156647 0
M  V30 26 H 2.895784 -6.612643 -2.146276 0
M  V30 27 H 3.488117 -5.838874 -0.585907 0
M  V30 28 H 2.295447 -7.143736 -0.562840 0
M  V30 29 H 0.771994 -5.469628 -0.467960 0
M  V30 30 H 0.824602 -4.377609 -3.145289 0
M  V30 31 H 1.346957 -6.127021 -3.242554 0
M  V30 32 H -0.183718 -5.666554 -2.463570 0
M  V30 33 H 3.001727 -3.783036 -0.698357 0
M  V30 34 H -2.080862 -2.015222 -1.653190 0
M  V30 35 H 2.012296 0.839774 0.481841 0
M  V30 36 H 1.950939 1.265608 -1.311989 0
M  V30 37 H 1.581228 2.026870 2.074510 0
M  V30 38 H 0.123867 4.400225 3.117299 0
M  V30 39 H 1.467799 3.517835 3.867344 0
M  V30 40 H 0.996569 1.526178 5.235311 0
M  V30 41 H -0.566172 0.429348 6.748229 0
M  V30 42 H -3.780136 2.657930 5.026488 0
M  V30 43 H -2.211612 3.744073 3.525307 0
M  V30 44 H -1.361028 2.685598 -1.218440 0
M  V30 45 H -0.138084 1.846476 -2.210400 0
M  V30 46 H -2.138862 0.442272 -2.082674 0
M  V30 47 H -2.121034 0.566229 -0.237038 0
M  V30 END ATOM
M  V30 BEGIN BOND
M  V30 1 1 1 2
M  V30 2 1 2 3
M  V30 3 1 2 4
M  V30 4 1 4 5
M  V30 5 2 5 6
M  V30 6 1 6 7
M  V30 7 2 7 8
M  V30 8 1 8 9
M  V30 9 2 9 10
M  V30 10 1 9 11
M  V30 11 1 11 12
M  V30 12 1 12 13
M  V30 13 2 13 14
M  V30 14 1 13 15
M  V30 15 1 15 16
M  V30 16 1 16 17
M  V30 17 2 17 18
M  V30 18 1 18 19
M  V30 19 2 19 20
M  V30 20 1 20 21
M  V30 21 1 20 22
M  V30 22 2 22 23
M  V30 23 1 12 24
M  V30 24 1 24 25
M  V30 25 1 10 5
M  V30 26 1 23 17
M  V30 27 1 25 8
M  V30 28 1 1 26
M  V30 29 1 1 27
M  V30 30 1 1 28
M  V30 31 1 2 29
M  V30 32 1 3 30
M  V30 33 1 3 31
M  V30 34 1 3 32
M  V30 35 1 4 33
M  V30 36 1 7 34
M  V30 37 1 11 35
M  V30 38 1 11 36
M  V30 39 1 15 37
M  V30 40 1 16 38
M  V30 41 1 16 39
M  V30 42 1 18 40
M  V30 43 1 19 41
M  V30 44 1 22 42
M  V30 45 1 23 43
M  V30 46 1 24 44
M  V30 47 1 24 45
M  V30 48 1 25 46
M  V30 49 1 25 47
M  V30 END BOND
M  V30 END CTAB
M  END
>  <Dataset>  (74) 
ChEMBL_Kinases

>  <Ligand_Instance>  (74) 
nan

>  <PDB_ID>  (74) 
nan

>  <Standardized_SMILES>  (74) 
CC(C)Nc1ncc2c(n1)CN(C(=O)NCc1ccc(Cl)cc1)CC2

>  <Name>  (74) 
nan

>  <Pocket>  (74) 
nan

>  <ATP_Site>  (74) 
nan

>  <Peripheral>  (74) 
nan

>  <Num_H_Atoms_ProtBoundConf>  (74) 
nan

>  <Num_Resolved_Atoms>  (74) 
nan

>  <Num_Not_Resolved_Atoms>  (74) 
nan

$$$$
CHEMBL3298672
     RDKit          3D

  0  0  0  0  0  0  0  0  0  0999 V3000
M  V30 BEGIN CTAB
M  V30 COUNTS 47 49 0 0 0
M  V30 BEGIN ATOM
M  V30 1 C 0.387748 -5.759891 -1.142647 0
M  V30 2 C 1.415732 -5.182115 -2.058121 0
M  V30 3 C 2.579389 -6.101469 -2.297714 0
M  V30 4 N 1.830607 -3.884832 -1.584235 0
M  V30 5 C 0.963988 -2.775118 -1.464012 0
M  V30 6 N -0.336252 -2.835135 -1.802450 0
M  V30 7 C -1.185110 -1.797501 -1.700968 0
M  V30 8 C -0.686176 -0.604441 -1.220754 0
M  V30 9 C 0.652976 -0.491296 -0.856560 0
M  V30 10 N 1.432855 -1.604010 -0.997579 0
M  V30 11 C 1.259241 0.766007 -0.330183 0
M  V30 12 N 0.164245 1.691405 -0.036460 0
M  V30 13 C -0.065114 2.532519 1.113107 0
M  V30 14 O -1.080245 3.295084 1.232848 0
M  V30 15 N 0.839430 2.567532 2.204707 0
M  V30 16 C 0.713798 3.362885 3.397986 0
M  V30 17 C -0.277173 2.821867 4.362405 0
M  V30 18 C 0.279693 1.915763 5.272980 0
M  V30 19 C -0.474014 1.292256 6.264171 0
M  V30 20 C -1.816099 1.582013 6.346299 0
M  V30 21 F -2.624666 1.016875 7.285074 0
M  V30 22 C -2.366886 2.473556 5.451202 0
M  V30 23 C -1.612713 3.071545 4.490589 0
M  V30 24 C -0.865310 1.779266 -1.076868 0
M  V30 25 C -1.676328 0.504832 -1.135164 0
M  V30 26 H -0.005366 -6.744032 -1.512186 0
M  V30 27 H 0.740117 -5.841608 -0.092358 0
M  V30 28 H -0.487060 -5.088817 -1.108231 0
M  V30 29 H 0.928457 -4.993544 -3.058774 0
M  V30 30 H 2.194935 -6.940765 -2.946023 0
M  V30 31 H 3.389952 -5.630424 -2.869365 0
M  V30 32 H 2.971878 -6.597824 -1.404211 0
M  V30 33 H 2.833969 -3.790032 -1.322502 0
M  V30 34 H -2.216303 -1.921925 -1.992730 0
M  V30 35 H 1.784792 0.592856 0.623995 0
M  V30 36 H 1.906122 1.255279 -1.074511 0
M  V30 37 H 1.678628 1.958709 2.139584 0
M  V30 38 H 0.329662 4.356381 3.077697 0
M  V30 39 H 1.683131 3.518460 3.892158 0
M  V30 40 H 1.329288 1.632478 5.276846 0
M  V30 41 H -0.031775 0.594986 6.960579 0
M  V30 42 H -3.430958 2.741180 5.470242 0
M  V30 43 H -1.991665 3.774124 3.770209 0
M  V30 44 H -1.507855 2.660746 -0.968974 0
M  V30 45 H -0.307224 1.892300 -2.026480 0
M  V30 46 H -2.254026 0.586762 -2.102483 0
M  V30 47 H -2.402228 0.402843 -0.328539 0
M  V30 END ATOM
M  V30 BEGIN BOND
M  V30 1 1 1 2
M  V30 2 1 2 3
M  V30 3 1 2 4
M  V30 4 1 4 5
M  V30 5 2 5 6
M  V30 6 1 6 7
M  V30 7 2 7 8
M  V30 8 1 8 9
M  V30 9 2 9 10
M  V30 10 1 9 11
M  V30 11 1 11 12
M  V30 12 1 12 13
M  V30 13 2 13 14
M  V30 14 1 13 15
M  V30 15 1 15 16
M  V30 16 1 16 17
M  V30 17 2 17 18
M  V30 18 1 18 19
M  V30 19 2 19 20
M  V30 20 1 20 21
M  V30 21 1 20 22
M  V30 22 2 22 23
M  V30 23 1 12 24
M  V30 24 1 24 25
M  V30 25 1 10 5
M  V30 26 1 23 17
M  V30 27 1 25 8
M  V30 28 1 1 26
M  V30 29 1 1 27
M  V30 30 1 1 28
M  V30 31 1 2 29
M  V30 32 1 3 30
M  V30 33 1 3 31
M  V30 34 1 3 32
M  V30 35 1 4 33
M  V30 36 1 7 34
M  V30 37 1 11 35
M  V30 38 1 11 36
M  V30 39 1 15 37
M  V30 40 1 16 38
M  V30 41 1 16 39
M  V30 42 1 18 40
M  V30 43 1 19 41
M  V30 44 1 22 42
M  V30 45 1 23 43
M  V30 46 1 24 44
M  V30 47 1 24 45
M  V30 48 1 25 46
M  V30 49 1 25 47
M  V30 END BOND
M  V30 END CTAB
M  END
>  <Dataset>  (75) 
ChEMBL_Kinases

>  <Ligand_Instance>  (75) 
nan

>  <PDB_ID>  (75) 
nan

>  <Standardized_SMILES>  (75) 
CC(C)Nc1ncc2c(n1)CN(C(=O)NCc1ccc(F)cc1)CC2

>  <Name>  (75) 
nan

>  <Pocket>  (75) 
nan

>  <ATP_Site>  (75) 
nan

>  <Peripheral>  (75) 
nan

>  <Num_H_Atoms_ProtBoundConf>  (75) 
nan

>  <Num_Resolved_Atoms>  (75) 
nan

>  <Num_Not_Resolved_Atoms>  (75) 
nan

$$$$
CHEMBL3298671
     RDKit          3D

  0  0  0  0  0  0  0  0  0  0999 V3000
M  V30 BEGIN CTAB
M  V30 COUNTS 47 49 0 0 0
M  V30 BEGIN ATOM
M  V30 1 C 1.197405 -5.248041 -1.834646 0
M  V30 2 C 1.241347 -4.933062 -0.361700 0
M  V30 3 C -0.189247 -4.998606 0.172905 0
M  V30 4 N 1.804497 -3.618865 -0.131351 0
M  V30 5 C 1.164863 -2.476604 -0.664791 0
M  V30 6 N 0.037053 -2.517333 -1.384742 0
M  V30 7 C -0.562146 -1.423982 -1.884124 0
M  V30 8 C -0.002846 -0.171085 -1.656228 0
M  V30 9 C 1.169294 -0.135413 -0.907358 0
M  V30 10 N 1.709347 -1.263184 -0.442485 0
M  V30 11 C 1.656572 1.272071 -0.735375 0
M  V30 12 N 0.452877 2.041692 -0.381048 0
M  V30 13 C 0.086713 2.558522 0.894546 0
M  V30 14 O -0.993641 3.192976 1.030371 0
M  V30 15 N 0.896068 2.384345 2.022513 0
M  V30 16 C 0.658729 2.844017 3.376793 0
M  V30 17 C -0.347476 1.972365 4.067917 0
M  V30 18 C 0.179189 0.874298 4.753123 0
M  V30 19 C -0.571991 -0.047895 5.451824 0
M  V30 20 C -1.927817 0.146823 5.460564 0
M  V30 21 C -2.483664 1.217077 4.797257 0
M  V30 22 C -1.727014 2.149773 4.090926 0
M  V30 23 C -0.443040 2.271562 -1.526548 0
M  V30 24 C -0.725216 0.973739 -2.240608 0
M  V30 25 H 0.254903 -5.825894 -2.035899 0
M  V30 26 H 1.213297 -4.300717 -2.402615 0
M  V30 27 H 2.067249 -5.893926 -2.117312 0
M  V30 28 H 1.820646 -5.719445 0.189540 0
M  V30 29 H -0.326536 -5.845334 0.862125 0
M  V30 30 H -0.374948 -4.078477 0.729523 0
M  V30 31 H -0.938609 -5.101077 -0.632661 0
M  V30 32 H 2.668019 -3.543707 0.422164 0
M  V30 33 H -1.487464 -1.545431 -2.465428 0
M  V30 34 H 1.997178 1.607394 -1.735703 0
M  V30 35 H 2.443436 1.325663 0.019275 0
M  V30 36 H 1.783523 1.853949 1.865425 0
M  V30 37 H 0.225010 3.877131 3.381801 0
M  V30 38 H 1.574841 2.848738 3.971211 0
M  V30 39 H 1.257599 0.699128 4.759537 0
M  V30 40 H -0.104527 -0.876821 5.961863 0
M  V30 41 H -2.600644 -0.525739 5.982999 0
M  V30 42 H -3.545288 1.366756 4.806195 0
M  V30 43 H -2.081757 2.996492 3.557328 0
M  V30 44 H -1.355753 2.784311 -1.219875 0
M  V30 45 H 0.110812 2.986360 -2.206860 0
M  V30 46 H -0.472199 1.118008 -3.327588 0
M  V30 47 H -1.818553 0.783177 -2.211185 0
M  V30 END ATOM
M  V30 BEGIN BOND
M  V30 1 1 1 2
M  V30 2 1 2 3
M  V30 3 1 2 4
M  V30 4 1 4 5
M  V30 5 2 5 6
M  V30 6 1 6 7
M  V30 7 2 7 8
M  V30 8 1 8 9
M  V30 9 2 9 10
M  V30 10 1 9 11
M  V30 11 1 11 12
M  V30 12 1 12 13
M  V30 13 2 13 14
M  V30 14 1 13 15
M  V30 15 1 15 16
M  V30 16 1 16 17
M  V30 17 2 17 18
M  V30 18 1 18 19
M  V30 19 2 19 20
M  V30 20 1 20 21
M  V30 21 2 21 22
M  V30 22 1 12 23
M  V30 23 1 23 24
M  V30 24 1 10 5
M  V30 25 1 22 17
M  V30 26 1 24 8
M  V30 27 1 1 25
M  V30 28 1 1 26
M  V30 29 1 1 27
M  V30 30 1 2 28
M  V30 31 1 3 29
M  V30 32 1 3 30
M  V30 33 1 3 31
M  V30 34 1 4 32
M  V30 35 1 7 33
M  V30 36 1 11 34
M  V30 37 1 11 35
M  V30 38 1 15 36
M  V30 39 1 16 37
M  V30 40 1 16 38
M  V30 41 1 18 39
M  V30 42 1 19 40
M  V30 43 1 20 41
M  V30 44 1 21 42
M  V30 45 1 22 43
M  V30 46 1 23 44
M  V30 47 1 23 45
M  V30 48 1 24 46
M  V30 49 1 24 47
M  V30 END BOND
M  V30 END CTAB
M  END
>  <Dataset>  (76) 
ChEMBL_Kinases

>  <Ligand_Instance>  (76) 
nan

>  <PDB_ID>  (76) 
nan

>  <Standardized_SMILES>  (76) 
CC(C)Nc1ncc2c(n1)CN(C(=O)NCc1ccccc1)CC2

>  <Name>  (76) 
nan

>  <Pocket>  (76) 
nan

>  <ATP_Site>  (76) 
nan

>  <Peripheral>  (76) 
nan

>  <Num_H_Atoms_ProtBoundConf>  (76) 
nan

>  <Num_Resolved_Atoms>  (76) 
nan

>  <Num_Not_Resolved_Atoms>  (76) 
nan

$$$$
CHEMBL3298659
     RDKit          3D

  0  0  0  0  0  0  0  0  0  0999 V3000
M  V30 BEGIN CTAB
M  V30 COUNTS 50 52 0 0 0
M  V30 BEGIN ATOM
M  V30 1 C 2.600938 -4.043338 3.187067 0
M  V30 2 C 2.044892 -2.699400 2.666699 0
M  V30 3 C 0.994958 -2.226889 3.655798 0
M  V30 4 C 1.350597 -2.973952 1.367321 0
M  V30 5 C 3.185707 -1.757224 2.613871 0
M  V30 6 N 2.841856 -0.462297 2.179335 0
M  V30 7 C 2.339959 0.183117 1.043958 0
M  V30 8 O 2.074440 -0.459796 0.011862 0
M  V30 9 C 2.046458 1.595552 0.834278 0
M  V30 10 C 1.445763 1.867711 -0.535922 0
M  V30 11 C 1.237991 3.394985 -0.529234 0
M  V30 12 N 0.545110 3.765830 0.698194 0
M  V30 13 C -0.790742 3.220989 0.686255 0
M  V30 14 O -1.788992 3.797764 1.243808 0
M  V30 15 C -0.957350 1.929591 -0.018683 0
M  V30 16 C -2.137449 1.229505 -0.194940 0
M  V30 17 C -1.790890 0.118572 -0.935567 0
M  V30 18 C -2.759063 -0.887202 -1.339994 0
M  V30 19 C -4.071910 -0.564582 -1.606942 0
M  V30 20 C -4.912968 -1.592021 -1.983537 0
M  V30 21 C -4.498894 -2.901810 -2.100588 0
M  V30 22 C -3.161447 -3.202665 -1.823999 0
M  V30 23 F -2.852343 -4.516500 -1.967121 0
M  V30 24 C -2.306598 -2.170362 -1.443246 0
M  V30 25 C -0.432063 0.212414 -1.160984 0
M  V30 26 N 0.094989 1.298830 -0.615369 0
M  V30 27 H 1.900404 -4.828352 2.866302 0
M  V30 28 H 3.611264 -4.135033 2.759979 0
M  V30 29 H 2.640245 -3.995289 4.285733 0
M  V30 30 H 0.262872 -3.063000 3.786448 0
M  V30 31 H 0.479736 -1.336682 3.285830 0
M  V30 32 H 1.451155 -2.033170 4.640576 0
M  V30 33 H 0.886529 -4.027322 1.441820 0
M  V30 34 H 2.004143 -3.069561 0.492479 0
M  V30 35 H 0.518935 -2.296897 1.129658 0
M  V30 36 H 4.064828 -2.187958 2.045972 0
M  V30 37 H 3.591032 -1.665687 3.661234 0
M  V30 38 H 2.981259 0.334366 2.889363 0
M  V30 39 H 2.921365 2.214110 1.028478 0
M  V30 40 H 1.254191 1.955457 1.555717 0
M  V30 41 H 2.066946 1.576057 -1.372551 0
M  V30 42 H 2.256709 3.827498 -0.458222 0
M  V30 43 H 0.753990 3.729781 -1.444158 0
M  V30 44 H 0.802305 4.325802 1.554914 0
M  V30 45 H -3.121917 1.489450 0.166133 0
M  V30 46 H -4.353817 0.471490 -1.503290 0
M  V30 47 H -5.935951 -1.329419 -2.189753 0
M  V30 48 H -5.214628 -3.658351 -2.401490 0
M  V30 49 H -1.284874 -2.529976 -1.253421 0
M  V30 50 H 0.021853 -0.565574 -1.730801 0
M  V30 END ATOM
M  V30 BEGIN BOND
M  V30 1 1 1 2
M  V30 2 1 2 3
M  V30 3 1 2 4
M  V30 4 1 2 5
M  V30 5 1 5 6
M  V30 6 1 6 7
M  V30 7 2 7 8
M  V30 8 1 7 9
M  V30 9 1 9 10
M  V30 10 1 10 11
M  V30 11 1 11 12
M  V30 12 1 12 13
M  V30 13 2 13 14
M  V30 14 1 13 15
M  V30 15 2 15 16
M  V30 16 1 16 17
M  V30 17 1 17 18
M  V30 18 2 18 19
M  V30 19 1 19 20
M  V30 20 2 20 21
M  V30 21 1 21 22
M  V30 22 1 22 23
M  V30 23 2 22 24
M  V30 24 2 17 25
M  V30 25 1 25 26
M  V30 26 1 26 10
M  V30 27 1 26 15
M  V30 28 1 24 18
M  V30 29 1 1 27
M  V30 30 1 1 28
M  V30 31 1 1 29
M  V30 32 1 3 30
M  V30 33 1 3 31
M  V30 34 1 3 32
M  V30 35 1 4 33
M  V30 36 1 4 34
M  V30 37 1 4 35
M  V30 38 1 5 36
M  V30 39 1 5 37
M  V30 40 1 6 38
M  V30 41 1 9 39
M  V30 42 1 9 40
M  V30 43 1 10 41
M  V30 44 1 11 42
M  V30 45 1 11 43
M  V30 46 1 12 44
M  V30 47 1 16 45
M  V30 48 1 19 46
M  V30 49 1 20 47
M  V30 50 1 21 48
M  V30 51 1 24 49
M  V30 52 1 25 50
M  V30 END BOND
M  V30 END CTAB
M  END
>  <Dataset>  (77) 
ChEMBL_Kinases

>  <Ligand_Instance>  (77) 
nan

>  <PDB_ID>  (77) 
nan

>  <Standardized_SMILES>  (77) 
CC(C)(C)CNC(=O)CC1CNC(=O)c2cc(-c3cccc(F)c3)cn21

>  <Name>  (77) 
nan

>  <Pocket>  (77) 
nan

>  <ATP_Site>  (77) 
nan

>  <Peripheral>  (77) 
nan

>  <Num_H_Atoms_ProtBoundConf>  (77) 
nan

>  <Num_Resolved_Atoms>  (77) 
nan

>  <Num_Not_Resolved_Atoms>  (77) 
nan

$$$$
CHEMBL3298611
     RDKit          3D

  0  0  0  0  0  0  0  0  0  0999 V3000
M  V30 BEGIN CTAB
M  V30 COUNTS 39 39 0 0 0
M  V30 BEGIN ATOM
M  V30 1 C 1.124542 -2.989238 4.281301 0
M  V30 2 C 0.553866 -3.275954 2.890710 0
M  V30 3 C -0.758571 -4.031730 3.053591 0
M  V30 4 C 1.510667 -4.167473 2.163556 0
M  V30 5 O 0.365222 -2.015656 2.288319 0
M  V30 6 C -0.131889 -1.789787 1.026981 0
M  V30 7 O -0.464018 -2.733760 0.299586 0
M  V30 8 N -0.202767 -0.424325 0.706712 0
M  V30 9 N -0.662682 0.123766 -0.495963 0
M  V30 10 C 0.392318 0.291450 -1.476784 0
M  V30 11 C 0.953781 1.664771 -1.253068 0
M  V30 12 C 0.538469 2.841776 -1.840321 0
M  V30 13 C 1.180926 4.015597 -1.507892 0
M  V30 14 C 2.230683 4.073862 -0.606991 0
M  V30 15 C 2.654309 2.912406 -0.015505 0
M  V30 16 C 2.009563 1.741072 -0.350399 0
M  V30 17 C -1.985799 0.524739 -0.870077 0
M  V30 18 O -2.725382 1.016181 -1.780769 0
M  V30 19 C -3.123858 0.384728 0.080779 0
M  V30 20 Br -4.722969 1.033751 -0.803333 0
M  V30 21 H 1.719340 -2.040704 4.253675 0
M  V30 22 H 0.272936 -2.799292 4.954833 0
M  V30 23 H 1.766898 -3.815041 4.622387 0
M  V30 24 H -0.972376 -4.641538 2.155154 0
M  V30 25 H -1.602383 -3.340042 3.245685 0
M  V30 26 H -0.640611 -4.696818 3.941442 0
M  V30 27 H 1.711914 -5.034464 2.827386 0
M  V30 28 H 2.467479 -3.658201 1.948869 0
M  V30 29 H 1.058346 -4.606135 1.246970 0
M  V30 30 H 0.076718 0.373659 1.318397 0
M  V30 31 H -0.064614 0.232028 -2.502869 0
M  V30 32 H 1.201499 -0.442154 -1.391764 0
M  V30 33 H -0.275093 2.737784 -2.527206 0
M  V30 34 H 0.818551 4.925523 -1.997764 0
M  V30 35 H 2.724828 4.999972 -0.355787 0
M  V30 36 H 3.472210 2.920413 0.693589 0
M  V30 37 H 2.382510 0.852297 0.144611 0
M  V30 38 H -2.941244 0.879520 1.052963 0
M  V30 39 H -3.326356 -0.683788 0.325110 0
M  V30 END ATOM
M  V30 BEGIN BOND
M  V30 1 1 1 2
M  V30 2 1 2 3
M  V30 3 1 2 4
M  V30 4 1 2 5
M  V30 5 1 5 6
M  V30 6 2 6 7
M  V30 7 1 6 8
M  V30 8 1 8 9
M  V30 9 1 9 10
M  V30 10 1 10 11
M  V30 11 2 11 12
M  V30 12 1 12 13
M  V30 13 2 13 14
M  V30 14 1 14 15
M  V30 15 2 15 16
M  V30 16 1 9 17
M  V30 17 2 17 18
M  V30 18 1 17 19
M  V30 19 1 19 20
M  V30 20 1 16 11
M  V30 21 1 1 21
M  V30 22 1 1 22
M  V30 23 1 1 23
M  V30 24 1 3 24
M  V30 25 1 3 25
M  V30 26 1 3 26
M  V30 27 1 4 27
M  V30 28 1 4 28
M  V30 29 1 4 29
M  V30 30 1 8 30
M  V30 31 1 10 31
M  V30 32 1 10 32
M  V30 33 1 12 33
M  V30 34 1 13 34
M  V30 35 1 14 35
M  V30 36 1 15 36
M  V30 37 1 16 37
M  V30 38 1 19 38
M  V30 39 1 19 39
M  V30 END BOND
M  V30 END CTAB
M  END
>  <Dataset>  (78) 
ChEMBL_Kinases

>  <Ligand_Instance>  (78) 
nan

>  <PDB_ID>  (78) 
nan

>  <Standardized_SMILES>  (78) 
CC(C)(C)OC(=O)NN(Cc1ccccc1)C(=O)CBr

>  <Name>  (78) 
nan

>  <Pocket>  (78) 
nan

>  <ATP_Site>  (78) 
nan

>  <Peripheral>  (78) 
nan

>  <Num_H_Atoms_ProtBoundConf>  (78) 
nan

>  <Num_Resolved_Atoms>  (78) 
nan

>  <Num_Not_Resolved_Atoms>  (78) 
nan

$$$$
CHEMBL3298567
     RDKit          3D

  0  0  0  0  0  0  0  0  0  0999 V3000
M  V30 BEGIN CTAB
M  V30 COUNTS 54 57 0 0 0
M  V30 BEGIN ATOM
M  V30 1 C 0.898183 2.285657 4.239785 0
M  V30 2 C 1.993589 1.277344 4.142333 0
M  V30 3 N 2.173828 0.174964 4.914239 0
M  V30 4 O 3.247305 -0.424818 4.491989 0
M  V30 5 C 3.781467 0.228005 3.481485 0
M  V30 6 C 5.012726 -0.178698 2.760544 0
M  V30 7 C 3.014403 1.341436 3.206980 0
M  V30 8 N 3.273955 2.304142 2.172847 0
M  V30 9 C 2.774493 2.226505 0.825113 0
M  V30 10 N 2.963887 3.063493 -0.182572 0
M  V30 11 C 2.403398 2.808432 -1.379172 0
M  V30 12 C 1.621684 1.702906 -1.637935 0
M  V30 13 C 1.443575 0.851213 -0.568847 0
M  V30 14 N 2.011409 1.136004 0.593810 0
M  V30 15 C 0.615479 -0.371921 -0.745093 0
M  V30 16 N -0.483617 -0.051051 -1.630473 0
M  V30 17 C -1.812898 -0.550087 -1.558029 0
M  V30 18 O -2.846200 -0.335114 -2.278699 0
M  V30 19 N -2.137352 -1.469468 -0.512462 0
M  V30 20 C -3.376428 -2.127768 -0.196038 0 CFG=2
M  V30 21 C -3.886620 -1.697375 1.177279 0
M  V30 22 O -2.943036 -2.025545 2.166346 0
M  V30 23 C -3.222812 -3.604248 -0.264101 0
M  V30 24 C -4.191488 -4.381536 -0.906612 0
M  V30 25 C -4.102900 -5.762726 -1.002141 0
M  V30 26 C -3.014047 -6.413050 -0.441830 0
M  V30 27 F -2.897018 -7.749058 -0.516117 0
M  V30 28 C -2.027335 -5.665525 0.207944 0
M  V30 29 Cl -0.644528 -6.465677 0.922248 0
M  V30 30 C -2.176924 -4.295237 0.267052 0
M  V30 31 C -0.364756 0.846942 -2.736704 0
M  V30 32 C 0.999602 1.414804 -2.956626 0
M  V30 33 H 0.416046 2.140663 5.229418 0
M  V30 34 H 1.311777 3.309074 4.188412 0
M  V30 35 H 0.112280 2.169489 3.493260 0
M  V30 36 H 4.966818 0.176338 1.703524 0
M  V30 37 H 5.026246 -1.291249 2.684254 0
M  V30 38 H 5.894843 0.149373 3.311546 0
M  V30 39 H 3.884389 3.096369 2.508678 0
M  V30 40 H 2.581247 3.519100 -2.183827 0
M  V30 41 H 1.280176 -1.148654 -1.166495 0
M  V30 42 H 0.242655 -0.728694 0.217350 0
M  V30 43 H -1.486724 -1.811024 0.207047 0
M  V30 44 H -4.159070 -1.826548 -0.920468 0
M  V30 45 H -4.810455 -2.226211 1.422153 0
M  V30 46 H -3.981618 -0.599486 1.124982 0
M  V30 47 H -3.048630 -1.485544 2.966688 0
M  V30 48 H -5.049435 -3.921025 -1.353622 0
M  V30 49 H -4.884850 -6.325097 -1.513893 0
M  V30 50 H -1.401886 -3.771827 0.770663 0
M  V30 51 H -1.086537 1.676695 -2.656863 0
M  V30 52 H -0.621909 0.267758 -3.662007 0
M  V30 53 H 0.923616 2.335659 -3.563021 0
M  V30 54 H 1.680955 0.678442 -3.455623 0
M  V30 END ATOM
M  V30 BEGIN BOND
M  V30 1 1 1 2
M  V30 2 2 2 3
M  V30 3 1 3 4
M  V30 4 1 4 5
M  V30 5 1 5 6
M  V30 6 2 5 7
M  V30 7 1 7 8
M  V30 8 1 8 9
M  V30 9 2 9 10
M  V30 10 1 10 11
M  V30 11 2 11 12
M  V30 12 1 12 13
M  V30 13 2 13 14
M  V30 14 1 13 15
M  V30 15 1 15 16
M  V30 16 1 16 17
M  V30 17 2 17 18
M  V30 18 1 17 19
M  V30 19 1 19 20
M  V30 20 1 20 21
M  V30 21 1 21 22
M  V30 22 1 20 23
M  V30 23 2 23 24
M  V30 24 1 24 25
M  V30 25 2 25 26
M  V30 26 1 26 27
M  V30 27 1 26 28
M  V30 28 1 28 29
M  V30 29 2 28 30
M  V30 30 1 16 31
M  V30 31 1 31 32
M  V30 32 1 7 2
M  V30 33 1 14 9
M  V30 34 1 30 23
M  V30 35 1 32 12
M  V30 36 1 1 33
M  V30 37 1 1 34
M  V30 38 1 1 35
M  V30 39 1 6 36
M  V30 40 1 6 37
M  V30 41 1 6 38
M  V30 42 1 8 39
M  V30 43 1 11 40
M  V30 44 1 15 41
M  V30 45 1 15 42
M  V30 46 1 19 43
M  V30 47 1 20 44 CFG=3
M  V30 48 1 21 45
M  V30 49 1 21 46
M  V30 50 1 22 47
M  V30 51 1 24 48
M  V30 52 1 25 49
M  V30 53 1 30 50
M  V30 54 1 31 51
M  V30 55 1 31 52
M  V30 56 1 32 53
M  V30 57 1 32 54
M  V30 END BOND
M  V30 END CTAB
M  END
>  <Dataset>  (79) 
ChEMBL_Kinases

>  <Ligand_Instance>  (79) 
nan

>  <PDB_ID>  (79) 
nan

>  <Standardized_SMILES>  (79) 
Cc1noc(C)c1Nc1ncc2c(n1)CN(C(=O)N[C@H](CO)c1ccc(F)c(Cl)c1)CC2

>  <Name>  (79) 
nan

>  <Pocket>  (79) 
nan

>  <ATP_Site>  (79) 
nan

>  <Peripheral>  (79) 
nan

>  <Num_H_Atoms_ProtBoundConf>  (79) 
nan

>  <Num_Resolved_Atoms>  (79) 
nan

>  <Num_Not_Resolved_Atoms>  (79) 
nan

$$$$
CHEMBL3298566
     RDKit          3D

  0  0  0  0  0  0  0  0  0  0999 V3000
M  V30 BEGIN CTAB
M  V30 COUNTS 52 55 0 0 0
M  V30 BEGIN ATOM
M  V30 1 O 2.123955 -0.708245 3.801174 0
M  V30 2 C 1.645112 -0.625739 2.645064 0
M  V30 3 N 2.189075 -0.031331 1.480891 0
M  V30 4 C 3.475655 0.586467 1.565089 0 CFG=2
M  V30 5 C 3.448531 2.076073 1.320831 0
M  V30 6 O 2.654682 2.761469 2.224290 0
M  V30 7 C 4.496580 -0.018359 0.689551 0
M  V30 8 C 4.022533 -0.264747 -0.600515 0
M  V30 9 C 4.833970 -0.834910 -1.584337 0
M  V30 10 C 6.133873 -1.161831 -1.273097 0
M  V30 11 F 6.937765 -1.716093 -2.213667 0
M  V30 12 C 6.604368 -0.919726 -0.000540 0
M  V30 13 Cl 8.239306 -1.309006 0.461336 0
M  V30 14 C 5.808939 -0.357338 0.975045 0
M  V30 15 N 0.352819 -1.250397 2.575592 0
M  V30 16 C -0.230188 -1.866916 3.748583 0
M  V30 17 C -1.424376 -1.045219 4.237510 0
M  V30 18 C -2.390511 -1.045098 3.107297 0
M  V30 19 C -3.742164 -0.899432 3.332044 0
M  V30 20 N -4.568748 -0.905981 2.280422 0
M  V30 21 C -4.182258 -1.044020 1.017700 0
M  V30 22 N -5.146157 -1.036699 -0.024252 0
M  V30 23 C -4.954341 -1.167653 -1.423626 0
M  V30 24 C -6.018913 -1.136294 -2.298890 0
M  V30 25 C -5.871002 -1.259699 -3.656128 0
M  V30 26 C -4.639446 -1.423324 -4.225358 0
M  V30 27 F -4.525445 -1.541855 -5.562342 0
M  V30 28 C -3.553151 -1.460799 -3.400174 0
M  V30 29 C -3.735148 -1.334181 -2.043619 0
M  V30 30 N -2.862177 -1.182342 0.847338 0
M  V30 31 C -1.944766 -1.191371 1.811806 0
M  V30 32 C -0.511554 -1.358622 1.415659 0
M  V30 33 H 1.651090 -0.051098 0.586667 0
M  V30 34 H 3.834327 0.471895 2.621858 0
M  V30 35 H 4.490564 2.442163 1.480715 0
M  V30 36 H 3.209912 2.292363 0.264527 0
M  V30 37 H 3.099827 2.969596 3.062974 0
M  V30 38 H 3.008578 -0.040278 -0.941571 0
M  V30 39 H 4.455789 -1.023184 -2.586895 0
M  V30 40 H 6.081187 -0.130474 1.990620 0
M  V30 41 H 0.515003 -1.849687 4.559447 0
M  V30 42 H -0.576920 -2.897062 3.483796 0
M  V30 43 H -0.997695 -0.017158 4.411716 0
M  V30 44 H -1.842704 -1.463164 5.163967 0
M  V30 45 H -4.142391 -0.781539 4.328417 0
M  V30 46 H -6.158298 -0.916969 0.271963 0
M  V30 47 H -7.024467 -1.009476 -1.918364 0
M  V30 48 H -6.746030 -1.227221 -4.292301 0
M  V30 49 H -2.580264 -1.589917 -3.847924 0
M  V30 50 H -2.837197 -1.373679 -1.467132 0
M  V30 51 H -0.441943 -2.386100 0.960116 0
M  V30 52 H -0.300844 -0.642339 0.620417 0
M  V30 END ATOM
M  V30 BEGIN BOND
M  V30 1 2 1 2
M  V30 2 1 2 3
M  V30 3 1 3 4
M  V30 4 1 4 5
M  V30 5 1 5 6
M  V30 6 1 4 7
M  V30 7 2 7 8
M  V30 8 1 8 9
M  V30 9 2 9 10
M  V30 10 1 10 11
M  V30 11 1 10 12
M  V30 12 1 12 13
M  V30 13 2 12 14
M  V30 14 1 2 15
M  V30 15 1 15 16
M  V30 16 1 16 17
M  V30 17 1 17 18
M  V30 18 2 18 19
M  V30 19 1 19 20
M  V30 20 2 20 21
M  V30 21 1 21 22
M  V30 22 1 22 23
M  V30 23 2 23 24
M  V30 24 1 24 25
M  V30 25 2 25 26
M  V30 26 1 26 27
M  V30 27 1 26 28
M  V30 28 2 28 29
M  V30 29 1 21 30
M  V30 30 2 30 31
M  V30 31 1 31 32
M  V30 32 1 14 7
M  V30 33 1 32 15
M  V30 34 1 31 18
M  V30 35 1 29 23
M  V30 36 1 3 33
M  V30 37 1 4 34 CFG=1
M  V30 38 1 5 35
M  V30 39 1 5 36
M  V30 40 1 6 37
M  V30 41 1 8 38
M  V30 42 1 9 39
M  V30 43 1 14 40
M  V30 44 1 16 41
M  V30 45 1 16 42
M  V30 46 1 17 43
M  V30 47 1 17 44
M  V30 48 1 19 45
M  V30 49 1 22 46
M  V30 50 1 24 47
M  V30 51 1 25 48
M  V30 52 1 28 49
M  V30 53 1 29 50
M  V30 54 1 32 51
M  V30 55 1 32 52
M  V30 END BOND
M  V30 END CTAB
M  END
>  <Dataset>  (80) 
ChEMBL_Kinases

>  <Ligand_Instance>  (80) 
nan

>  <PDB_ID>  (80) 
nan

>  <Standardized_SMILES>  (80) 
O=C(N[C@H](CO)c1ccc(F)c(Cl)c1)N1CCc2cnc(Nc3ccc(F)cc3)nc2C1

>  <Name>  (80) 
nan

>  <Pocket>  (80) 
nan

>  <ATP_Site>  (80) 
nan

>  <Peripheral>  (80) 
nan

>  <Num_H_Atoms_ProtBoundConf>  (80) 
nan

>  <Num_Resolved_Atoms>  (80) 
nan

>  <Num_Not_Resolved_Atoms>  (80) 
nan

$$$$
CHEMBL3298565
     RDKit          3D

  0  0  0  0  0  0  0  0  0  0999 V3000
M  V30 BEGIN CTAB
M  V30 COUNTS 51 53 0 0 0
M  V30 BEGIN ATOM
M  V30 1 C -2.511308 -5.837201 -2.217290 0
M  V30 2 O -2.025575 -4.828192 -3.085561 0
M  V30 3 C -0.808643 -4.196857 -2.888132 0
M  V30 4 C 0.058602 -4.480782 -1.828507 0
M  V30 5 C 1.257090 -3.803285 -1.704191 0
M  V30 6 C 1.656600 -2.832504 -2.595729 0
M  V30 7 C 2.930878 -2.069478 -2.513565 0
M  V30 8 N 2.778403 -0.831196 -1.751516 0
M  V30 9 C 2.699930 -0.713525 -0.336988 0
M  V30 10 O 2.765437 -1.758947 0.358987 0
M  V30 11 N 2.550753 0.552964 0.290220 0
M  V30 12 C 2.460894 1.821771 -0.390746 0
M  V30 13 C 1.884659 2.908087 0.478652 0
M  V30 14 C 0.808664 2.406643 1.394026 0
M  V30 15 C -0.382485 3.081423 1.557779 0
M  V30 16 N -1.262475 2.499859 2.424963 0
M  V30 17 C -0.965660 1.347598 3.063685 0
M  V30 18 N -1.886411 0.748610 3.967380 0
M  V30 19 C -2.269180 0.696858 5.348998 0
M  V30 20 C -3.448385 -0.265941 5.476675 0
M  V30 21 C -2.765651 2.062360 5.770268 0
M  V30 22 N 0.224369 0.700023 2.881723 0
M  V30 23 C 1.150285 1.229300 2.026623 0
M  V30 24 C 2.478877 0.621987 1.744535 0
M  V30 25 C 0.799690 -2.544080 -3.652455 0
M  V30 26 C -0.406333 -3.225828 -3.777696 0
M  V30 27 H -2.047845 -6.807975 -2.410131 0
M  V30 28 H -3.632189 -5.840314 -2.345705 0
M  V30 29 H -2.333387 -5.581123 -1.152582 0
M  V30 30 H -0.238833 -5.240872 -1.118376 0
M  V30 31 H 1.908487 -4.041936 -0.880552 0
M  V30 32 H 3.748291 -2.695547 -2.080242 0
M  V30 33 H 3.225717 -1.786228 -3.543116 0
M  V30 34 H 2.716835 0.095430 -2.271515 0
M  V30 35 H 1.895178 1.693480 -1.332965 0
M  V30 36 H 3.488914 2.136691 -0.660657 0
M  V30 37 H 2.682264 3.387866 1.113179 0
M  V30 38 H 1.518455 3.715702 -0.193497 0
M  V30 39 H -0.577286 4.001725 1.024495 0
M  V30 40 H -2.391213 0.178465 3.224515 0
M  V30 41 H -1.454451 0.327587 6.010560 0
M  V30 42 H -3.380576 -1.054648 4.692735 0
M  V30 43 H -3.542427 -0.666745 6.485329 0
M  V30 44 H -4.359112 0.323948 5.248837 0
M  V30 45 H -2.317115 2.272850 6.763972 0
M  V30 46 H -3.866514 2.081080 5.861517 0
M  V30 47 H -2.478934 2.824030 5.002384 0
M  V30 48 H 3.258942 1.359084 2.037409 0
M  V30 49 H 2.602759 -0.360313 2.209142 0
M  V30 50 H 1.086438 -1.779817 -4.376348 0
M  V30 51 H -1.037721 -2.958796 -4.625868 0
M  V30 END ATOM
M  V30 BEGIN BOND
M  V30 1 1 1 2
M  V30 2 1 2 3
M  V30 3 2 3 4
M  V30 4 1 4 5
M  V30 5 2 5 6
M  V30 6 1 6 7
M  V30 7 1 7 8
M  V30 8 1 8 9
M  V30 9 2 9 10
M  V30 10 1 9 11
M  V30 11 1 11 12
M  V30 12 1 12 13
M  V30 13 1 13 14
M  V30 14 2 14 15
M  V30 15 1 15 16
M  V30 16 2 16 17
M  V30 17 1 17 18
M  V30 18 1 18 19
M  V30 19 1 19 20
M  V30 20 1 19 21
M  V30 21 1 17 22
M  V30 22 2 22 23
M  V30 23 1 23 24
M  V30 24 1 6 25
M  V30 25 2 25 26
M  V30 26 1 26 3
M  V30 27 1 24 11
M  V30 28 1 23 14
M  V30 29 1 1 27
M  V30 30 1 1 28
M  V30 31 1 1 29
M  V30 32 1 4 30
M  V30 33 1 5 31
M  V30 34 1 7 32
M  V30 35 1 7 33
M  V30 36 1 8 34
M  V30 37 1 12 35
M  V30 38 1 12 36
M  V30 39 1 13 37
M  V30 40 1 13 38
M  V30 41 1 15 39
M  V30 42 1 18 40
M  V30 43 1 19 41
M  V30 44 1 20 42
M  V30 45 1 20 43
M  V30 46 1 20 44
M  V30 47 1 21 45
M  V30 48 1 21 46
M  V30 49 1 21 47
M  V30 50 1 24 48
M  V30 51 1 24 49
M  V30 52 1 25 50
M  V30 53 1 26 51
M  V30 END BOND
M  V30 END CTAB
M  END
>  <Dataset>  (81) 
ChEMBL_Kinases

>  <Ligand_Instance>  (81) 
nan

>  <PDB_ID>  (81) 
nan

>  <Standardized_SMILES>  (81) 
COc1ccc(CNC(=O)N2CCc3cnc(NC(C)C)nc3C2)cc1

>  <Name>  (81) 
nan

>  <Pocket>  (81) 
nan

>  <ATP_Site>  (81) 
nan

>  <Peripheral>  (81) 
nan

>  <Num_H_Atoms_ProtBoundConf>  (81) 
nan

>  <Num_Resolved_Atoms>  (81) 
nan

>  <Num_Not_Resolved_Atoms>  (81) 
nan

$$$$
CHEMBL3298562
     RDKit          3D

  0  0  0  0  0  0  0  0  0  0999 V3000
M  V30 BEGIN CTAB
M  V30 COUNTS 54 56 0 0 0
M  V30 BEGIN ATOM
M  V30 1 C 3.469829 -0.266896 4.588531 0
M  V30 2 C 3.697492 -0.482216 3.106968 0
M  V30 3 C 5.063145 0.046454 2.773588 0
M  V30 4 C 3.707466 -1.975856 2.864496 0
M  V30 5 C 2.596319 0.212572 2.365111 0
M  V30 6 N 2.682574 0.093877 0.924299 0
M  V30 7 C 1.624703 0.762194 0.250921 0
M  V30 8 O 0.674721 1.411022 0.801057 0
M  V30 9 C 1.557663 0.744337 -1.232840 0
M  V30 10 C 0.355778 1.514278 -1.745171 0
M  V30 11 C 0.380726 2.948757 -1.326074 0
M  V30 12 N -0.847661 3.443134 -0.766799 0
M  V30 13 C -2.022102 2.735928 -0.453120 0
M  V30 14 O -3.022414 3.248948 0.091220 0
M  V30 15 C -2.020077 1.320920 -0.805503 0
M  V30 16 C -2.912643 0.278429 -0.694424 0
M  V30 17 C -2.279228 -0.846407 -1.239029 0
M  V30 18 C -2.967212 -2.134039 -1.273666 0
M  V30 19 C -2.674178 -3.011069 -2.326301 0
M  V30 20 C -3.339047 -4.220109 -2.330408 0
M  V30 21 C -4.265983 -4.621198 -1.375379 0
M  V30 22 C -4.525550 -3.722183 -0.351641 0
M  V30 23 O -5.456709 -4.128760 0.605281 0
M  V30 24 C -5.155416 -4.825668 1.775641 0
M  V30 25 F -6.369624 -5.029591 2.440776 0
M  V30 26 F -4.663357 -6.064618 1.410418 0
M  V30 27 F -4.257012 -4.201027 2.605436 0
M  V30 28 C -3.879831 -2.484850 -0.300556 0
M  V30 29 C -1.031709 -0.434707 -1.655528 0
M  V30 30 N -0.883627 0.897065 -1.384333 0
M  V30 31 H 2.434150 0.071126 4.772852 0
M  V30 32 H 4.165816 0.531529 4.970155 0
M  V30 33 H 3.716351 -1.178036 5.141933 0
M  V30 34 H 5.115249 0.637588 1.854857 0
M  V30 35 H 5.450945 0.709203 3.599920 0
M  V30 36 H 5.816254 -0.787111 2.726696 0
M  V30 37 H 4.226201 -2.236824 1.925034 0
M  V30 38 H 4.294969 -2.433706 3.692290 0
M  V30 39 H 2.677887 -2.357834 2.941689 0
M  V30 40 H 1.641385 -0.260776 2.666567 0
M  V30 41 H 2.633295 1.283176 2.636182 0
M  V30 42 H 3.402873 -0.406559 0.331270 0
M  V30 43 H 2.448790 1.174337 -1.725760 0
M  V30 44 H 1.439326 -0.285469 -1.576573 0
M  V30 45 H 0.467825 1.481829 -2.863506 0
M  V30 46 H 1.231062 3.181112 -0.641887 0
M  V30 47 H 0.568924 3.576838 -2.239161 0
M  V30 48 H -0.829042 4.471064 -0.580931 0
M  V30 49 H -3.888150 0.427606 -0.251233 0
M  V30 50 H -1.958451 -2.767584 -3.113081 0
M  V30 51 H -3.129735 -4.926759 -3.141497 0
M  V30 52 H -4.732854 -5.592959 -1.469891 0
M  V30 53 H -4.109377 -1.806367 0.516797 0
M  V30 54 H -0.429774 -1.237600 -2.106994 0
M  V30 END ATOM
M  V30 BEGIN BOND
M  V30 1 1 1 2
M  V30 2 1 2 3
M  V30 3 1 2 4
M  V30 4 1 2 5
M  V30 5 1 5 6
M  V30 6 1 6 7
M  V30 7 2 7 8
M  V30 8 1 7 9
M  V30 9 1 9 10
M  V30 10 1 10 11
M  V30 11 1 11 12
M  V30 12 1 12 13
M  V30 13 2 13 14
M  V30 14 1 13 15
M  V30 15 2 15 16
M  V30 16 1 16 17
M  V30 17 1 17 18
M  V30 18 2 18 19
M  V30 19 1 19 20
M  V30 20 2 20 21
M  V30 21 1 21 22
M  V30 22 1 22 23
M  V30 23 1 23 24
M  V30 24 1 24 25
M  V30 25 1 24 26
M  V30 26 1 24 27
M  V30 27 2 22 28
M  V30 28 2 17 29
M  V30 29 1 29 30
M  V30 30 1 30 10
M  V30 31 1 30 15
M  V30 32 1 28 18
M  V30 33 1 1 31
M  V30 34 1 1 32
M  V30 35 1 1 33
M  V30 36 1 3 34
M  V30 37 1 3 35
M  V30 38 1 3 36
M  V30 39 1 4 37
M  V30 40 1 4 38
M  V30 41 1 4 39
M  V30 42 1 5 40
M  V30 43 1 5 41
M  V30 44 1 6 42
M  V30 45 1 9 43
M  V30 46 1 9 44
M  V30 47 1 10 45
M  V30 48 1 11 46
M  V30 49 1 11 47
M  V30 50 1 12 48
M  V30 51 1 16 49
M  V30 52 1 19 50
M  V30 53 1 20 51
M  V30 54 1 21 52
M  V30 55 1 28 53
M  V30 56 1 29 54
M  V30 END BOND
M  V30 END CTAB
M  END
>  <Dataset>  (82) 
ChEMBL_Kinases

>  <Ligand_Instance>  (82) 
nan

>  <PDB_ID>  (82) 
nan

>  <Standardized_SMILES>  (82) 
CC(C)(C)CNC(=O)CC1CNC(=O)c2cc(-c3cccc(OC(F)(F)F)c3)cn21

>  <Name>  (82) 
nan

>  <Pocket>  (82) 
nan

>  <ATP_Site>  (82) 
nan

>  <Peripheral>  (82) 
nan

>  <Num_H_Atoms_ProtBoundConf>  (82) 
nan

>  <Num_Resolved_Atoms>  (82) 
nan

>  <Num_Not_Resolved_Atoms>  (82) 
nan

$$$$
CHEMBL3298516
     RDKit          3D

  0  0  0  0  0  0  0  0  0  0999 V3000
M  V30 BEGIN CTAB
M  V30 COUNTS 53 54 0 0 0
M  V30 BEGIN ATOM
M  V30 1 C -0.516230 -1.392356 6.456853 0
M  V30 2 C 0.048971 -2.433982 5.515000 0
M  V30 3 C 1.245302 -3.038137 6.215520 0
M  V30 4 C -0.959967 -3.502239 5.271320 0
M  V30 5 O 0.492527 -1.802421 4.323981 0
M  V30 6 C -0.365527 -1.064916 3.559464 0
M  V30 7 O -1.593222 -0.907779 3.890951 0
M  V30 8 N -0.121260 -0.399395 2.391546 0
M  V30 9 C -0.506997 0.423347 1.275169 0 CFG=1
M  V30 10 C 0.362080 1.661298 1.179458 0
M  V30 11 C 0.018999 2.534102 0.067167 0
M  V30 12 C -0.929247 3.533670 0.252302 0
M  V30 13 C -1.326257 4.433156 -0.715132 0
M  V30 14 C -0.721740 4.320536 -1.967056 0
M  V30 15 C 0.244328 3.345434 -2.248505 0
M  V30 16 C 0.556967 2.497501 -1.190068 0
M  V30 17 C -0.483732 -0.341403 0.002379 0
M  V30 18 O -0.967400 0.249559 -0.963115 0
M  V30 19 N 0.047230 -1.672229 -0.166245 0
M  V30 20 C -0.030019 -2.279308 -1.468006 0
M  V30 21 C 0.668399 -1.552151 -2.556592 0
M  V30 22 N 0.502310 -2.260355 -3.847990 0
M  V30 23 C -0.620813 -1.929944 -4.693674 0
M  V30 24 O -1.566224 -1.105379 -4.591082 0
M  V30 25 C -0.560012 -2.760368 -5.857665 0
M  V30 26 C 0.490908 -3.567327 -5.814542 0
M  V30 27 C 1.201705 -3.287304 -4.552316 0
M  V30 28 O 2.242621 -3.722323 -3.967990 0
M  V30 29 H -0.262860 -0.358895 6.125494 0
M  V30 30 H -0.304093 -1.595683 7.510964 0
M  V30 31 H -1.639769 -1.450484 6.301208 0
M  V30 32 H 0.920454 -3.989022 6.696515 0
M  V30 33 H 1.998557 -3.305257 5.436256 0
M  V30 34 H 1.654028 -2.384380 7.003020 0
M  V30 35 H -1.078752 -3.795624 4.212557 0
M  V30 36 H -1.962022 -3.073574 5.579297 0
M  V30 37 H -0.769584 -4.344228 5.947818 0
M  V30 38 H 0.910749 -0.550753 2.112885 0
M  V30 39 H -1.574180 0.744403 1.423924 0
M  V30 40 H 1.413727 1.282311 1.148893 0
M  V30 41 H 0.263904 2.227260 2.153209 0
M  V30 42 H -1.430977 3.671788 1.206519 0
M  V30 43 H -2.058369 5.218059 -0.604185 0
M  V30 44 H -0.924548 4.949417 -2.843270 0
M  V30 45 H 0.737862 3.220767 -3.198539 0
M  V30 46 H 1.305465 1.738154 -1.402010 0
M  V30 47 H 0.445389 -2.035176 0.745899 0
M  V30 48 H 0.373560 -3.335347 -1.386574 0
M  V30 49 H -1.123494 -2.443326 -1.657409 0
M  V30 50 H 0.291462 -0.540435 -2.658607 0
M  V30 51 H 1.768304 -1.591397 -2.362326 0
M  V30 52 H -1.144672 -2.906646 -6.762794 0
M  V30 53 H 0.922225 -4.345202 -6.462271 0
M  V30 END ATOM
M  V30 BEGIN BOND
M  V30 1 1 1 2
M  V30 2 1 2 3
M  V30 3 1 2 4
M  V30 4 1 2 5
M  V30 5 1 5 6
M  V30 6 2 6 7
M  V30 7 1 6 8
M  V30 8 1 8 9
M  V30 9 1 9 10
M  V30 10 1 10 11
M  V30 11 2 11 12
M  V30 12 1 12 13
M  V30 13 2 13 14
M  V30 14 1 14 15
M  V30 15 2 15 16
M  V30 16 1 9 17
M  V30 17 2 17 18
M  V30 18 1 17 19
M  V30 19 1 19 20
M  V30 20 1 20 21
M  V30 21 1 21 22
M  V30 22 1 22 23
M  V30 23 2 23 24
M  V30 24 1 23 25
M  V30 25 2 25 26
M  V30 26 1 26 27
M  V30 27 2 27 28
M  V30 28 1 16 11
M  V30 29 1 27 22
M  V30 30 1 1 29
M  V30 31 1 1 30
M  V30 32 1 1 31
M  V30 33 1 3 32
M  V30 34 1 3 33
M  V30 35 1 3 34
M  V30 36 1 4 35
M  V30 37 1 4 36
M  V30 38 1 4 37
M  V30 39 1 8 38
M  V30 40 1 9 39 CFG=1
M  V30 41 1 10 40
M  V30 42 1 10 41
M  V30 43 1 12 42
M  V30 44 1 13 43
M  V30 45 1 14 44
M  V30 46 1 15 45
M  V30 47 1 16 46
M  V30 48 1 19 47
M  V30 49 1 20 48
M  V30 50 1 20 49
M  V30 51 1 21 50
M  V30 52 1 21 51
M  V30 53 1 25 52
M  V30 54 1 26 53
M  V30 END BOND
M  V30 END CTAB
M  END
>  <Dataset>  (83) 
ChEMBL_Kinases

>  <Ligand_Instance>  (83) 
nan

>  <PDB_ID>  (83) 
nan

>  <Standardized_SMILES>  (83) 
CC(C)(C)OC(=O)N[C@@H](Cc1ccccc1)C(=O)NCCN1C(=O)C=CC1=O

>  <Name>  (83) 
nan

>  <Pocket>  (83) 
nan

>  <ATP_Site>  (83) 
nan

>  <Peripheral>  (83) 
nan

>  <Num_H_Atoms_ProtBoundConf>  (83) 
nan

>  <Num_Resolved_Atoms>  (83) 
nan

>  <Num_Not_Resolved_Atoms>  (83) 
nan

$$$$
CHEMBL3298512
     RDKit          3D

  0  0  0  0  0  0  0  0  0  0999 V3000
M  V30 BEGIN CTAB
M  V30 COUNTS 41 41 0 0 0
M  V30 BEGIN ATOM
M  V30 1 C -1.497510 -1.450771 5.780996 0
M  V30 2 C -0.899887 -1.249181 4.631173 0
M  V30 3 C -1.514580 -1.813764 3.435294 0
M  V30 4 O -2.585118 -2.436707 3.751655 0
M  V30 5 C -1.004509 -1.699923 2.066338 0 CFG=2
M  V30 6 C -0.750455 -3.069028 1.455913 0
M  V30 7 C -0.238885 -2.929420 0.081664 0
M  V30 8 C 1.139942 -2.846322 -0.090953 0
M  V30 9 C 1.699598 -2.715671 -1.328598 0
M  V30 10 C 0.905896 -2.660447 -2.470705 0
M  V30 11 C -0.475366 -2.742914 -2.307142 0
M  V30 12 C -1.033994 -2.875874 -1.041079 0
M  V30 13 N 0.222381 -0.945617 1.972686 0
M  V30 14 C 0.357768 0.190589 1.160215 0
M  V30 15 O -0.607285 0.602091 0.468423 0
M  V30 16 O 1.507280 0.971085 1.016278 0
M  V30 17 C 1.548937 2.103920 0.169638 0
M  V30 18 C 1.267837 1.807671 -1.271053 0
M  V30 19 C 2.998360 2.606626 0.230911 0
M  V30 20 C 0.676668 3.220882 0.643517 0
M  V30 21 H -1.072634 -1.045001 6.710991 0
M  V30 22 H -2.409560 -2.006490 5.884049 0
M  V30 23 H 0.011789 -0.684039 4.592380 0
M  V30 24 H -1.772668 -1.214535 1.395485 0
M  V30 25 H -1.717249 -3.622056 1.448208 0
M  V30 26 H -0.041339 -3.620152 2.107021 0
M  V30 27 H 1.837090 -2.880532 0.740039 0
M  V30 28 H 2.771646 -2.645087 -1.534827 0
M  V30 29 H 1.351261 -2.555227 -3.470619 0
M  V30 30 H -1.118187 -2.701963 -3.186630 0
M  V30 31 H -2.108845 -2.941792 -0.892716 0
M  V30 32 H 1.057454 -1.240683 2.524827 0
M  V30 33 H 1.741985 0.902030 -1.659889 0
M  V30 34 H 0.171437 1.846354 -1.496394 0
M  V30 35 H 1.686004 2.666582 -1.865578 0
M  V30 36 H 3.094660 3.639627 -0.164845 0
M  V30 37 H 3.359209 2.501251 1.278312 0
M  V30 38 H 3.561365 1.906885 -0.425761 0
M  V30 39 H -0.387262 2.927492 0.645742 0
M  V30 40 H 0.794937 4.053231 -0.081705 0
M  V30 41 H 1.024663 3.550826 1.651820 0
M  V30 END ATOM
M  V30 BEGIN BOND
M  V30 1 2 1 2
M  V30 2 1 2 3
M  V30 3 2 3 4
M  V30 4 1 3 5
M  V30 5 1 5 6
M  V30 6 1 6 7
M  V30 7 2 7 8
M  V30 8 1 8 9
M  V30 9 2 9 10
M  V30 10 1 10 11
M  V30 11 2 11 12
M  V30 12 1 5 13
M  V30 13 1 13 14
M  V30 14 2 14 15
M  V30 15 1 14 16
M  V30 16 1 16 17
M  V30 17 1 17 18
M  V30 18 1 17 19
M  V30 19 1 17 20
M  V30 20 1 12 7
M  V30 21 1 1 21
M  V30 22 1 1 22
M  V30 23 1 2 23
M  V30 24 1 5 24 CFG=3
M  V30 25 1 6 25
M  V30 26 1 6 26
M  V30 27 1 8 27
M  V30 28 1 9 28
M  V30 29 1 10 29
M  V30 30 1 11 30
M  V30 31 1 12 31
M  V30 32 1 13 32
M  V30 33 1 18 33
M  V30 34 1 18 34
M  V30 35 1 18 35
M  V30 36 1 19 36
M  V30 37 1 19 37
M  V30 38 1 19 38
M  V30 39 1 20 39
M  V30 40 1 20 40
M  V30 41 1 20 41
M  V30 END BOND
M  V30 END CTAB
M  END
>  <Dataset>  (84) 
ChEMBL_Kinases

>  <Ligand_Instance>  (84) 
nan

>  <PDB_ID>  (84) 
nan

>  <Standardized_SMILES>  (84) 
C=CC(=O)[C@H](Cc1ccccc1)NC(=O)OC(C)(C)C

>  <Name>  (84) 
nan

>  <Pocket>  (84) 
nan

>  <ATP_Site>  (84) 
nan

>  <Peripheral>  (84) 
nan

>  <Num_H_Atoms_ProtBoundConf>  (84) 
nan

>  <Num_Resolved_Atoms>  (84) 
nan

>  <Num_Not_Resolved_Atoms>  (84) 
nan

$$$$
CHEMBL3298417
     RDKit          3D

  0  0  0  0  0  0  0  0  0  0999 V3000
M  V30 BEGIN CTAB
M  V30 COUNTS 56 59 0 0 0
M  V30 BEGIN ATOM
M  V30 1 O 1.096765 2.624318 -0.113758 0
M  V30 2 C 1.759541 1.531716 -0.137938 0
M  V30 3 N 2.999271 1.486080 0.558306 0
M  V30 4 C 3.502406 2.631121 1.272228 0 CFG=2
M  V30 5 C 4.771805 3.177934 0.671500 0
M  V30 6 O 4.459165 3.544387 -0.637822 0
M  V30 7 C 3.603376 2.422278 2.739611 0
M  V30 8 C 4.133482 1.263247 3.313588 0
M  V30 9 C 4.203820 1.121279 4.673020 0
M  V30 10 C 3.761318 2.101057 5.513778 0
M  V30 11 F 3.811551 2.002535 6.868637 0
M  V30 12 C 3.221203 3.282850 5.017472 0
M  V30 13 Cl 2.623504 4.604602 5.984285 0
M  V30 14 C 3.172625 3.376728 3.640546 0
M  V30 15 N 1.266987 0.400027 -0.841298 0
M  V30 16 C 2.048701 -0.818843 -0.845310 0
M  V30 17 C 1.421077 -1.893367 -1.693148 0
M  V30 18 C -0.035969 -1.999631 -1.366227 0
M  V30 19 C -0.626495 -3.232183 -1.156441 0
M  V30 20 N -1.958909 -3.194305 -0.866901 0
M  V30 21 C -2.645619 -2.020903 -0.792935 0
M  V30 22 N -4.036424 -2.058093 -0.486786 0
M  V30 23 C -4.626924 -3.353431 -0.274146 0 CFG=1
M  V30 24 C -6.115300 -3.271382 0.040729 0
M  V30 25 C -6.420891 -4.776040 0.061770 0
M  V30 26 C -5.575103 -5.330241 -1.086633 0 CFG=2
M  V30 27 O -4.762225 -6.375520 -0.647905 0
M  V30 28 C -4.658916 -4.200775 -1.518626 0
M  V30 29 N -2.028521 -0.836872 -1.005328 0
M  V30 30 C -0.700798 -0.794323 -1.299084 0
M  V30 31 C -0.003984 0.495016 -1.536002 0
M  V30 32 H 3.588796 0.624726 0.577987 0
M  V30 33 H 2.735454 3.447982 1.130084 0
M  V30 34 H 5.571674 2.414861 0.604471 0
M  V30 35 H 5.118415 4.015829 1.299422 0
M  V30 36 H 3.868724 2.834813 -0.998310 0
M  V30 37 H 4.486586 0.481800 2.664731 0
M  V30 38 H 4.602885 0.249389 5.163917 0
M  V30 39 H 2.760991 4.276999 3.209151 0
M  V30 40 H 3.059308 -0.564656 -1.226133 0
M  V30 41 H 2.154083 -1.179817 0.180413 0
M  V30 42 H 1.551530 -1.612837 -2.766879 0
M  V30 43 H 1.972839 -2.836464 -1.505092 0
M  V30 44 H -0.056502 -4.128004 -1.222973 0
M  V30 45 H -4.585145 -1.184095 -0.423424 0
M  V30 46 H -4.163751 -3.936214 0.538088 0
M  V30 47 H -6.331035 -2.786569 0.996622 0
M  V30 48 H -6.593751 -2.805610 -0.840107 0
M  V30 49 H -6.028326 -5.183698 1.028539 0
M  V30 50 H -7.485544 -4.989174 -0.054798 0
M  V30 51 H -6.226389 -5.662885 -1.927991 0
M  V30 52 H -3.867335 -6.029272 -0.399281 0
M  V30 53 H -3.659649 -4.550625 -1.842524 0
M  V30 54 H -5.191410 -3.589128 -2.287161 0
M  V30 55 H -0.585374 1.359476 -1.209165 0
M  V30 56 H 0.265910 0.618043 -2.615926 0
M  V30 END ATOM
M  V30 BEGIN BOND
M  V30 1 2 1 2
M  V30 2 1 2 3
M  V30 3 1 3 4
M  V30 4 1 4 5
M  V30 5 1 5 6
M  V30 6 1 4 7
M  V30 7 2 7 8
M  V30 8 1 8 9
M  V30 9 2 9 10
M  V30 10 1 10 11
M  V30 11 1 10 12
M  V30 12 1 12 13
M  V30 13 2 12 14
M  V30 14 1 2 15
M  V30 15 1 15 16
M  V30 16 1 16 17
M  V30 17 1 17 18
M  V30 18 2 18 19
M  V30 19 1 19 20
M  V30 20 2 20 21
M  V30 21 1 21 22
M  V30 22 1 22 23
M  V30 23 1 23 24
M  V30 24 1 24 25
M  V30 25 1 25 26
M  V30 26 1 26 27
M  V30 27 1 26 28
M  V30 28 1 21 29
M  V30 29 2 29 30
M  V30 30 1 30 31
M  V30 31 1 14 7
M  V30 32 1 31 15
M  V30 33 1 30 18
M  V30 34 1 28 23
M  V30 35 1 3 32
M  V30 36 1 4 33 CFG=1
M  V30 37 1 5 34
M  V30 38 1 5 35
M  V30 39 1 6 36
M  V30 40 1 8 37
M  V30 41 1 9 38
M  V30 42 1 14 39
M  V30 43 1 16 40
M  V30 44 1 16 41
M  V30 45 1 17 42
M  V30 46 1 17 43
M  V30 47 1 19 44
M  V30 48 1 22 45
M  V30 49 1 23 46 CFG=1
M  V30 50 1 24 47
M  V30 51 1 24 48
M  V30 52 1 25 49
M  V30 53 1 25 50
M  V30 54 1 26 51 CFG=3
M  V30 55 1 27 52
M  V30 56 1 28 53
M  V30 57 1 28 54
M  V30 58 1 31 55
M  V30 59 1 31 56
M  V30 END BOND
M  V30 END CTAB
M  END
>  <Dataset>  (85) 
ChEMBL_Kinases

>  <Ligand_Instance>  (85) 
nan

>  <PDB_ID>  (85) 
nan

>  <Standardized_SMILES>  (85) 
O=C(N[C@H](CO)c1ccc(F)c(Cl)c1)N1CCc2cnc(N[C@H]3CC[C@H](O)C3)nc2C1

>  <Name>  (85) 
nan

>  <Pocket>  (85) 
nan

>  <ATP_Site>  (85) 
nan

>  <Peripheral>  (85) 
nan

>  <Num_H_Atoms_ProtBoundConf>  (85) 
nan

>  <Num_Resolved_Atoms>  (85) 
nan

>  <Num_Not_Resolved_Atoms>  (85) 
nan

$$$$
CHEMBL3298416
     RDKit          3D

  0  0  0  0  0  0  0  0  0  0999 V3000
M  V30 BEGIN CTAB
M  V30 COUNTS 54 56 0 0 0
M  V30 BEGIN ATOM
M  V30 1 C 2.852346 -0.675892 5.974669 0
M  V30 2 C 2.460173 -0.028564 4.670173 0
M  V30 3 C 2.275126 1.480070 4.801578 0
M  V30 4 C 1.147547 -0.683391 4.233378 0
M  V30 5 N 3.407442 -0.320194 3.597646 0
M  V30 6 C 3.116703 0.251064 2.327227 0
M  V30 7 N 3.565277 1.464843 1.953460 0
M  V30 8 C 3.283854 1.995136 0.748989 0
M  V30 9 C 2.502120 1.280224 -0.159543 0
M  V30 10 C 2.045723 0.036170 0.230888 0
M  V30 11 N 2.364466 -0.446084 1.463239 0
M  V30 12 C 1.215141 -0.695098 -0.765962 0
M  V30 13 N 0.211243 0.284257 -1.208798 0
M  V30 14 C -1.214726 0.143746 -1.361114 0
M  V30 15 O -2.129011 0.948019 -1.737117 0
M  V30 16 N -1.795832 -1.125323 -1.046046 0
M  V30 17 C -3.226241 -1.441644 -1.144251 0 CFG=2
M  V30 18 C -3.697756 -1.830372 0.232835 0
M  V30 19 O -3.460910 -0.719144 1.057949 0
M  V30 20 C -3.354808 -2.557078 -2.120896 0
M  V30 21 C -4.189894 -3.620245 -1.791833 0
M  V30 22 C -4.291295 -4.649172 -2.723142 0
M  V30 23 C -3.607744 -4.639377 -3.921250 0
M  V30 24 F -3.782492 -5.702279 -4.759530 0
M  V30 25 C -2.779737 -3.552007 -4.211671 0
M  V30 26 Cl -1.931369 -3.583576 -5.745878 0
M  V30 27 C -2.657159 -2.510602 -3.304338 0
M  V30 28 C 0.599592 1.633503 -1.575357 0
M  V30 29 C 2.110739 1.737472 -1.522444 0
M  V30 30 H 3.514387 -0.048418 6.578512 0
M  V30 31 H 1.893990 -0.877092 6.527154 0
M  V30 32 H 3.332266 -1.656849 5.698472 0
M  V30 33 H 2.216664 1.785633 5.872508 0
M  V30 34 H 1.343984 1.799185 4.274188 0
M  V30 35 H 3.116635 2.021072 4.321034 0
M  V30 36 H 1.343297 -1.636785 3.688377 0
M  V30 37 H 0.549920 -0.923964 5.137845 0
M  V30 38 H 0.536402 0.032635 3.648345 0
M  V30 39 H 4.242901 -0.911470 3.760963 0
M  V30 40 H 3.624496 2.964718 0.411854 0
M  V30 41 H 0.696820 -1.544849 -0.285463 0
M  V30 42 H 1.797140 -1.017306 -1.651610 0
M  V30 43 H -1.256038 -1.958079 -0.712668 0
M  V30 44 H -3.759003 -0.546464 -1.495986 0
M  V30 45 H -3.130013 -2.688669 0.607016 0
M  V30 46 H -4.783125 -2.002066 0.243970 0
M  V30 47 H -4.124560 -0.019746 0.897557 0
M  V30 48 H -4.755580 -3.703493 -0.881423 0
M  V30 49 H -4.937625 -5.492953 -2.491039 0
M  V30 50 H -2.007386 -1.671541 -3.547624 0
M  V30 51 H 0.221442 1.917516 -2.576565 0
M  V30 52 H 0.211657 2.371363 -0.813512 0
M  V30 53 H 2.435818 2.778375 -1.699058 0
M  V30 54 H 2.527957 1.031334 -2.297010 0
M  V30 END ATOM
M  V30 BEGIN BOND
M  V30 1 1 1 2
M  V30 2 1 2 3
M  V30 3 1 2 4
M  V30 4 1 2 5
M  V30 5 1 5 6
M  V30 6 2 6 7
M  V30 7 1 7 8
M  V30 8 2 8 9
M  V30 9 1 9 10
M  V30 10 2 10 11
M  V30 11 1 10 12
M  V30 12 1 12 13
M  V30 13 1 13 14
M  V30 14 2 14 15
M  V30 15 1 14 16
M  V30 16 1 16 17
M  V30 17 1 17 18
M  V30 18 1 18 19
M  V30 19 1 17 20
M  V30 20 2 20 21
M  V30 21 1 21 22
M  V30 22 2 22 23
M  V30 23 1 23 24
M  V30 24 1 23 25
M  V30 25 1 25 26
M  V30 26 2 25 27
M  V30 27 1 13 28
M  V30 28 1 28 29
M  V30 29 1 11 6
M  V30 30 1 27 20
M  V30 31 1 29 9
M  V30 32 1 1 30
M  V30 33 1 1 31
M  V30 34 1 1 32
M  V30 35 1 3 33
M  V30 36 1 3 34
M  V30 37 1 3 35
M  V30 38 1 4 36
M  V30 39 1 4 37
M  V30 40 1 4 38
M  V30 41 1 5 39
M  V30 42 1 8 40
M  V30 43 1 12 41
M  V30 44 1 12 42
M  V30 45 1 16 43
M  V30 46 1 17 44 CFG=3
M  V30 47 1 18 45
M  V30 48 1 18 46
M  V30 49 1 19 47
M  V30 50 1 21 48
M  V30 51 1 22 49
M  V30 52 1 27 50
M  V30 53 1 28 51
M  V30 54 1 28 52
M  V30 55 1 29 53
M  V30 56 1 29 54
M  V30 END BOND
M  V30 END CTAB
M  END
>  <Dataset>  (86) 
ChEMBL_Kinases

>  <Ligand_Instance>  (86) 
nan

>  <PDB_ID>  (86) 
nan

>  <Standardized_SMILES>  (86) 
CC(C)(C)Nc1ncc2c(n1)CN(C(=O)N[C@H](CO)c1ccc(F)c(Cl)c1)CC2

>  <Name>  (86) 
nan

>  <Pocket>  (86) 
nan

>  <ATP_Site>  (86) 
nan

>  <Peripheral>  (86) 
nan

>  <Num_H_Atoms_ProtBoundConf>  (86) 
nan

>  <Num_Resolved_Atoms>  (86) 
nan

>  <Num_Not_Resolved_Atoms>  (86) 
nan

$$$$
CHEMBL3216550
     RDKit          3D

  0  0  0  0  0  0  0  0  0  0999 V3000
M  V30 BEGIN CTAB
M  V30 COUNTS 51 54 0 0 0
M  V30 BEGIN ATOM
M  V30 1 C 1.489488 -0.610899 4.301816 0
M  V30 2 N 1.813539 -1.446380 3.194089 0
M  V30 3 C 2.346057 -2.697550 3.706662 0
M  V30 4 C 3.810799 -2.386104 4.006178 0
M  V30 5 C 4.087646 -1.098753 3.256166 0
M  V30 6 C 2.877679 -0.996875 2.355660 0
M  V30 7 C 2.701692 0.366339 1.778743 0
M  V30 8 C 1.500940 0.539460 0.924393 0
M  V30 9 N 1.474177 -0.338378 -0.232154 0
M  V30 10 C 0.356770 -0.297753 -1.110437 0
M  V30 11 N -0.654423 0.538731 -0.858437 0
M  V30 12 C -1.763261 0.661269 -1.609819 0
M  V30 13 N -2.703937 1.621494 -1.146027 0
M  V30 14 C -3.694459 1.276141 -0.168904 0
M  V30 15 C -4.645990 2.122994 0.325065 0
M  V30 16 C -5.577240 1.771123 1.264198 0
M  V30 17 C -5.543210 0.472376 1.735919 0
M  V30 18 Cl -6.685255 -0.098629 2.942567 0
M  V30 19 C -4.608435 -0.401167 1.266504 0
M  V30 20 Cl -4.566537 -2.043858 1.866404 0
M  V30 21 C -3.695025 -0.013543 0.329005 0
M  V30 22 N -1.867393 -0.124800 -2.711785 0
M  V30 23 C -0.894682 -0.997043 -3.041806 0
M  V30 24 C -1.046565 -1.770458 -4.167465 0
M  V30 25 C -0.035837 -2.653455 -4.481106 0
M  V30 26 C 1.090727 -2.751719 -3.684064 0
M  V30 27 Cl 2.339874 -3.901228 -4.147554 0
M  V30 28 C 1.212684 -1.961246 -2.560797 0
M  V30 29 C 0.216534 -1.078779 -2.235932 0
M  V30 30 H 2.179862 0.236061 4.479393 0
M  V30 31 H 0.468666 -0.179681 4.089629 0
M  V30 32 H 1.355980 -1.141568 5.265798 0
M  V30 33 H 1.874839 -3.005752 4.658238 0
M  V30 34 H 2.285961 -3.510775 2.961381 0
M  V30 35 H 3.975851 -2.278084 5.099821 0
M  V30 36 H 4.486637 -3.159768 3.597120 0
M  V30 37 H 4.222102 -0.239356 3.928756 0
M  V30 38 H 5.017454 -1.166607 2.653279 0
M  V30 39 H 3.013468 -1.765460 1.558509 0
M  V30 40 H 2.691998 1.115911 2.577403 0
M  V30 41 H 3.596029 0.583831 1.159328 0
M  V30 42 H 1.572428 1.578461 0.492227 0
M  V30 43 H 0.536466 0.519042 1.469652 0
M  V30 44 H 2.306822 -0.943333 -0.320979 0
M  V30 45 H -2.724988 2.610550 -1.485586 0
M  V30 46 H -4.662079 3.137341 -0.052589 0
M  V30 47 H -6.321525 2.468394 1.637778 0
M  V30 48 H -2.950159 -0.708576 -0.045342 0
M  V30 49 H -1.962384 -1.650384 -4.763405 0
M  V30 50 H -0.156300 -3.261922 -5.367733 0
M  V30 51 H 2.104217 -2.066343 -1.965100 0
M  V30 END ATOM
M  V30 BEGIN BOND
M  V30 1 1 1 2
M  V30 2 1 2 3
M  V30 3 1 3 4
M  V30 4 1 4 5
M  V30 5 1 5 6
M  V30 6 1 6 7
M  V30 7 1 7 8
M  V30 8 1 8 9
M  V30 9 1 9 10
M  V30 10 2 10 11
M  V30 11 1 11 12
M  V30 12 1 12 13
M  V30 13 1 13 14
M  V30 14 2 14 15
M  V30 15 1 15 16
M  V30 16 2 16 17
M  V30 17 1 17 18
M  V30 18 1 17 19
M  V30 19 1 19 20
M  V30 20 2 19 21
M  V30 21 2 12 22
M  V30 22 1 22 23
M  V30 23 2 23 24
M  V30 24 1 24 25
M  V30 25 2 25 26
M  V30 26 1 26 27
M  V30 27 1 26 28
M  V30 28 2 28 29
M  V30 29 1 6 2
M  V30 30 1 29 10
M  V30 31 1 21 14
M  V30 32 1 29 23
M  V30 33 1 1 30
M  V30 34 1 1 31
M  V30 35 1 1 32
M  V30 36 1 3 33
M  V30 37 1 3 34
M  V30 38 1 4 35
M  V30 39 1 4 36
M  V30 40 1 5 37
M  V30 41 1 5 38
M  V30 42 1 6 39
M  V30 43 1 7 40
M  V30 44 1 7 41
M  V30 45 1 8 42
M  V30 46 1 8 43
M  V30 47 1 9 44
M  V30 48 1 13 45
M  V30 49 1 15 46
M  V30 50 1 16 47
M  V30 51 1 21 48
M  V30 52 1 24 49
M  V30 53 1 25 50
M  V30 54 1 28 51
M  V30 END BOND
M  V30 END CTAB
M  END
>  <Dataset>  (87) 
ChEMBL_Kinases

>  <Ligand_Instance>  (87) 
nan

>  <PDB_ID>  (87) 
nan

>  <Standardized_SMILES>  (87) 
CN1CCCC1CCNc1nc(Nc2ccc(Cl)c(Cl)c2)nc2ccc(Cl)cc12

>  <Name>  (87) 
nan

>  <Pocket>  (87) 
nan

>  <ATP_Site>  (87) 
nan

>  <Peripheral>  (87) 
nan

>  <Num_H_Atoms_ProtBoundConf>  (87) 
nan

>  <Num_Resolved_Atoms>  (87) 
nan

>  <Num_Not_Resolved_Atoms>  (87) 
nan

$$$$
CHEMBL3298403
     RDKit          3D

  0  0  0  0  0  0  0  0  0  0999 V3000
M  V30 BEGIN CTAB
M  V30 COUNTS 50 52 0 0 0
M  V30 BEGIN ATOM
M  V30 1 C 2.672099 -4.140287 3.098470 0
M  V30 2 C 2.091612 -2.796802 2.611013 0
M  V30 3 C 1.040160 -2.372133 3.590518 0
M  V30 4 C 1.440095 -3.032413 1.274069 0
M  V30 5 C 3.240332 -1.837236 2.531517 0
M  V30 6 N 2.890062 -0.528961 2.127088 0
M  V30 7 C 2.359934 0.168361 1.040040 0
M  V30 8 O 2.041416 -0.410273 -0.013878 0
M  V30 9 C 2.075193 1.584407 0.874980 0
M  V30 10 C 1.433248 1.880382 -0.488865 0
M  V30 11 C 1.233734 3.407232 -0.449063 0
M  V30 12 N 0.544260 3.718964 0.804710 0
M  V30 13 C -0.802757 3.199998 0.815891 0
M  V30 14 O -1.754439 3.799831 1.425651 0
M  V30 15 C -0.969794 1.931819 0.068732 0
M  V30 16 C -2.151450 1.240588 -0.113967 0
M  V30 17 C -1.803755 0.151621 -0.905117 0
M  V30 18 C -2.793669 -0.822148 -1.316501 0
M  V30 19 C -4.102348 -0.450551 -1.535258 0
M  V30 20 C -5.026473 -1.406798 -1.928777 0
M  V30 21 C -4.629091 -2.725620 -2.098891 0
M  V30 22 F -5.570413 -3.641516 -2.488496 0
M  V30 23 C -3.307853 -3.064632 -1.870884 0
M  V30 24 C -2.369229 -2.127845 -1.477977 0
M  V30 25 C -0.447732 0.278710 -1.130395 0
M  V30 26 N 0.075384 1.350670 -0.547471 0
M  V30 27 H 2.052547 -4.981061 2.730372 0
M  V30 28 H 3.714639 -4.185623 2.772927 0
M  V30 29 H 2.653521 -4.087167 4.203453 0
M  V30 30 H 0.336953 -3.225367 3.693791 0
M  V30 31 H 0.477742 -1.511878 3.198999 0
M  V30 32 H 1.451251 -2.187993 4.600290 0
M  V30 33 H 2.180818 -3.015774 0.460262 0
M  V30 34 H 0.604709 -2.359176 1.062781 0
M  V30 35 H 0.990434 -4.085215 1.350965 0
M  V30 36 H 4.037882 -2.267233 1.841435 0
M  V30 37 H 3.726823 -1.759510 3.538816 0
M  V30 38 H 3.061472 0.245954 2.852773 0
M  V30 39 H 2.952523 2.215626 1.037623 0
M  V30 40 H 1.312734 1.951387 1.623551 0
M  V30 41 H 2.041875 1.584738 -1.332767 0
M  V30 42 H 2.249483 3.844023 -0.415942 0
M  V30 43 H 0.681647 3.713432 -1.331818 0
M  V30 44 H 0.861015 4.244800 1.668671 0
M  V30 45 H -3.129643 1.493011 0.273885 0
M  V30 46 H -4.333847 0.581412 -1.384530 0
M  V30 47 H -6.037721 -1.100364 -2.093823 0
M  V30 48 H -3.012353 -4.107247 -2.009296 0
M  V30 49 H -1.361150 -2.498320 -1.326021 0
M  V30 50 H -0.020359 -0.499259 -1.744269 0
M  V30 END ATOM
M  V30 BEGIN BOND
M  V30 1 1 1 2
M  V30 2 1 2 3
M  V30 3 1 2 4
M  V30 4 1 2 5
M  V30 5 1 5 6
M  V30 6 1 6 7
M  V30 7 2 7 8
M  V30 8 1 7 9
M  V30 9 1 9 10
M  V30 10 1 10 11
M  V30 11 1 11 12
M  V30 12 1 12 13
M  V30 13 2 13 14
M  V30 14 1 13 15
M  V30 15 2 15 16
M  V30 16 1 16 17
M  V30 17 1 17 18
M  V30 18 2 18 19
M  V30 19 1 19 20
M  V30 20 2 20 21
M  V30 21 1 21 22
M  V30 22 1 21 23
M  V30 23 2 23 24
M  V30 24 2 17 25
M  V30 25 1 25 26
M  V30 26 1 26 10
M  V30 27 1 26 15
M  V30 28 1 24 18
M  V30 29 1 1 27
M  V30 30 1 1 28
M  V30 31 1 1 29
M  V30 32 1 3 30
M  V30 33 1 3 31
M  V30 34 1 3 32
M  V30 35 1 4 33
M  V30 36 1 4 34
M  V30 37 1 4 35
M  V30 38 1 5 36
M  V30 39 1 5 37
M  V30 40 1 6 38
M  V30 41 1 9 39
M  V30 42 1 9 40
M  V30 43 1 10 41
M  V30 44 1 11 42
M  V30 45 1 11 43
M  V30 46 1 12 44
M  V30 47 1 16 45
M  V30 48 1 19 46
M  V30 49 1 20 47
M  V30 50 1 23 48
M  V30 51 1 24 49
M  V30 52 1 25 50
M  V30 END BOND
M  V30 END CTAB
M  END
>  <Dataset>  (88) 
ChEMBL_Kinases

>  <Ligand_Instance>  (88) 
nan

>  <PDB_ID>  (88) 
nan

>  <Standardized_SMILES>  (88) 
CC(C)(C)CNC(=O)CC1CNC(=O)c2cc(-c3ccc(F)cc3)cn21

>  <Name>  (88) 
nan

>  <Pocket>  (88) 
nan

>  <ATP_Site>  (88) 
nan

>  <Peripheral>  (88) 
nan

>  <Num_H_Atoms_ProtBoundConf>  (88) 
nan

>  <Num_Resolved_Atoms>  (88) 
nan

>  <Num_Not_Resolved_Atoms>  (88) 
nan

$$$$
CHEMBL3298401
     RDKit          3D

  0  0  0  0  0  0  0  0  0  0999 V3000
M  V30 BEGIN CTAB
M  V30 COUNTS 50 52 0 0 0
M  V30 BEGIN ATOM
M  V30 1 C -1.109571 -5.059690 3.191114 0
M  V30 2 C -0.755900 -3.651546 3.607799 0
M  V30 3 C 0.061035 -3.698598 4.874339 0
M  V30 4 C -2.041246 -2.932258 3.927072 0
M  V30 5 C -0.016425 -3.023690 2.466484 0
M  V30 6 N 0.345699 -1.652599 2.831590 0
M  V30 7 C 1.069039 -0.926262 1.812564 0
M  V30 8 O 1.178498 -1.728296 0.865177 0
M  V30 9 C 1.393107 0.444099 2.265441 0
M  V30 10 C 2.144657 1.177272 1.147178 0
M  V30 11 C 2.468877 2.575824 1.642560 0
M  V30 12 N 1.249800 3.290250 2.003798 0
M  V30 13 C 0.408246 3.427916 0.837275 0
M  V30 14 O -0.395527 4.401039 0.646902 0
M  V30 15 C 0.509145 2.356931 -0.179524 0
M  V30 16 C -0.189901 2.287872 -1.391048 0
M  V30 17 C 0.226381 1.137377 -2.025925 0
M  V30 18 C -0.216690 0.627749 -3.323514 0
M  V30 19 C -1.518335 0.872135 -3.734577 0
M  V30 20 C -1.901414 0.375831 -4.965598 0
M  V30 21 C -1.034103 -0.346269 -5.784126 0
M  V30 22 C 0.259045 -0.582767 -5.363319 0
M  V30 23 C 0.622002 -0.078091 -4.129749 0
M  V30 24 C 1.145255 0.572404 -1.179211 0
M  V30 25 N 1.340628 1.280492 -0.055107 0
M  V30 26 H -1.499597 -5.679090 4.017687 0
M  V30 27 H -1.851435 -5.075124 2.367788 0
M  V30 28 H -0.209161 -5.585127 2.768522 0
M  V30 29 H 0.030798 -2.744169 5.430124 0
M  V30 30 H 1.098491 -4.018305 4.641190 0
M  V30 31 H -0.405359 -4.452341 5.545247 0
M  V30 32 H -2.795284 -3.050774 3.130902 0
M  V30 33 H -1.847554 -1.862464 4.156221 0
M  V30 34 H -2.494329 -3.376160 4.837052 0
M  V30 35 H 0.883423 -3.593680 2.182818 0
M  V30 36 H -0.688447 -3.053957 1.579313 0
M  V30 37 H 0.070744 -1.280109 3.782407 0
M  V30 38 H 0.465825 1.048171 2.436112 0
M  V30 39 H 1.950368 0.470156 3.202886 0
M  V30 40 H 3.104846 0.682445 0.911169 0
M  V30 41 H 3.065335 2.479406 2.572826 0
M  V30 42 H 3.086526 3.111653 0.909495 0
M  V30 43 H 0.842032 3.721517 2.886255 0
M  V30 44 H -0.917662 2.972224 -1.791520 0
M  V30 45 H -2.190103 1.431858 -3.099784 0
M  V30 46 H -2.918241 0.552794 -5.314643 0
M  V30 47 H -1.332288 -0.734648 -6.746766 0
M  V30 48 H 0.944715 -1.141330 -5.986352 0
M  V30 49 H 1.622803 -0.262160 -3.806112 0
M  V30 50 H 1.642772 -0.349347 -1.431168 0
M  V30 END ATOM
M  V30 BEGIN BOND
M  V30 1 1 1 2
M  V30 2 1 2 3
M  V30 3 1 2 4
M  V30 4 1 2 5
M  V30 5 1 5 6
M  V30 6 1 6 7
M  V30 7 2 7 8
M  V30 8 1 7 9
M  V30 9 1 9 10
M  V30 10 1 10 11
M  V30 11 1 11 12
M  V30 12 1 12 13
M  V30 13 2 13 14
M  V30 14 1 13 15
M  V30 15 2 15 16
M  V30 16 1 16 17
M  V30 17 1 17 18
M  V30 18 2 18 19
M  V30 19 1 19 20
M  V30 20 2 20 21
M  V30 21 1 21 22
M  V30 22 2 22 23
M  V30 23 2 17 24
M  V30 24 1 24 25
M  V30 25 1 25 10
M  V30 26 1 25 15
M  V30 27 1 23 18
M  V30 28 1 1 26
M  V30 29 1 1 27
M  V30 30 1 1 28
M  V30 31 1 3 29
M  V30 32 1 3 30
M  V30 33 1 3 31
M  V30 34 1 4 32
M  V30 35 1 4 33
M  V30 36 1 4 34
M  V30 37 1 5 35
M  V30 38 1 5 36
M  V30 39 1 6 37
M  V30 40 1 9 38
M  V30 41 1 9 39
M  V30 42 1 10 40
M  V30 43 1 11 41
M  V30 44 1 11 42
M  V30 45 1 12 43
M  V30 46 1 16 44
M  V30 47 1 19 45
M  V30 48 1 20 46
M  V30 49 1 21 47
M  V30 50 1 22 48
M  V30 51 1 23 49
M  V30 52 1 24 50
M  V30 END BOND
M  V30 END CTAB
M  END
>  <Dataset>  (89) 
ChEMBL_Kinases

>  <Ligand_Instance>  (89) 
nan

>  <PDB_ID>  (89) 
nan

>  <Standardized_SMILES>  (89) 
CC(C)(C)CNC(=O)CC1CNC(=O)c2cc(-c3ccccc3)cn21

>  <Name>  (89) 
nan

>  <Pocket>  (89) 
nan

>  <ATP_Site>  (89) 
nan

>  <Peripheral>  (89) 
nan

>  <Num_H_Atoms_ProtBoundConf>  (89) 
nan

>  <Num_Resolved_Atoms>  (89) 
nan

>  <Num_Not_Resolved_Atoms>  (89) 
nan

$$$$
CHEMBL3298400
     RDKit          3D

  0  0  0  0  0  0  0  0  0  0999 V3000
M  V30 BEGIN CTAB
M  V30 COUNTS 47 49 0 0 0
M  V30 BEGIN ATOM
M  V30 1 C -0.204899 -4.650188 1.496573 0
M  V30 2 C 0.555671 -4.520086 0.194495 0
M  V30 3 C 1.911618 -5.132726 0.313258 0
M  V30 4 C -0.232921 -5.300387 -0.845212 0
M  V30 5 C 0.553871 -3.081833 -0.251794 0
M  V30 6 N 1.169534 -2.180331 0.696443 0
M  V30 7 C 1.281134 -0.774463 0.487229 0
M  V30 8 O 0.782402 -0.400294 -0.620164 0
M  V30 9 C 1.942475 -0.013329 1.571887 0
M  V30 10 C 2.008165 1.459933 1.290799 0
M  V30 11 C 2.763540 1.801030 0.049918 0
M  V30 12 N 2.740274 3.244522 -0.103374 0
M  V30 13 C 1.452668 3.849914 -0.155789 0
M  V30 14 O 1.147068 4.914626 -0.782310 0
M  V30 15 C 0.352333 3.196921 0.579771 0
M  V30 16 C -1.005749 3.453873 0.775287 0
M  V30 17 C -1.471417 2.439413 1.577805 0
M  V30 18 C -2.834258 2.271708 2.052344 0
M  V30 19 C -3.878301 2.682403 1.285179 0
M  V30 20 C -5.212819 2.486500 1.817504 0
M  V30 21 S -4.924871 1.671181 3.502906 0
M  V30 22 C -3.064915 1.660736 3.355954 0
M  V30 23 C -0.414937 1.600560 1.851533 0
M  V30 24 N 0.705071 2.076200 1.231535 0
M  V30 25 H 0.394315 -4.357847 2.363684 0
M  V30 26 H -1.155689 -4.068209 1.378983 0
M  V30 27 H -0.458330 -5.726015 1.621566 0
M  V30 28 H 2.479260 -5.029799 -0.622510 0
M  V30 29 H 2.465546 -4.819181 1.222540 0
M  V30 30 H 1.743534 -6.238820 0.427334 0
M  V30 31 H -1.252488 -4.874989 -0.986323 0
M  V30 32 H 0.284473 -5.188127 -1.820751 0
M  V30 33 H -0.271506 -6.385956 -0.622336 0
M  V30 34 H -0.500743 -2.777069 -0.369333 0
M  V30 35 H 1.043649 -2.990138 -1.242082 0
M  V30 36 H 1.537578 -2.634681 1.567266 0
M  V30 37 H 1.380417 -0.141612 2.499315 0
M  V30 38 H 2.977013 -0.376305 1.739199 0
M  V30 39 H 2.552611 1.917536 2.142485 0
M  V30 40 H 2.278494 1.391830 -0.877168 0
M  V30 41 H 3.821111 1.420061 0.075031 0
M  V30 42 H 3.537398 3.944765 -0.186772 0
M  V30 43 H -1.523719 4.285029 0.360772 0
M  V30 44 H -3.832973 3.140229 0.321039 0
M  V30 45 H -6.174829 2.785171 1.277938 0
M  V30 46 H -2.333751 1.320564 4.001945 0
M  V30 47 H -0.522022 0.703410 2.477996 0
M  V30 END ATOM
M  V30 BEGIN BOND
M  V30 1 1 1 2
M  V30 2 1 2 3
M  V30 3 1 2 4
M  V30 4 1 2 5
M  V30 5 1 5 6
M  V30 6 1 6 7
M  V30 7 2 7 8
M  V30 8 1 7 9
M  V30 9 1 9 10
M  V30 10 1 10 11
M  V30 11 1 11 12
M  V30 12 1 12 13
M  V30 13 2 13 14
M  V30 14 1 13 15
M  V30 15 2 15 16
M  V30 16 1 16 17
M  V30 17 1 17 18
M  V30 18 1 18 19
M  V30 19 2 19 20
M  V30 20 1 20 21
M  V30 21 1 21 22
M  V30 22 2 17 23
M  V30 23 1 23 24
M  V30 24 1 24 10
M  V30 25 1 24 15
M  V30 26 2 22 18
M  V30 27 1 1 25
M  V30 28 1 1 26
M  V30 29 1 1 27
M  V30 30 1 3 28
M  V30 31 1 3 29
M  V30 32 1 3 30
M  V30 33 1 4 31
M  V30 34 1 4 32
M  V30 35 1 4 33
M  V30 36 1 5 34
M  V30 37 1 5 35
M  V30 38 1 6 36
M  V30 39 1 9 37
M  V30 40 1 9 38
M  V30 41 1 10 39
M  V30 42 1 11 40
M  V30 43 1 11 41
M  V30 44 1 12 42
M  V30 45 1 16 43
M  V30 46 1 19 44
M  V30 47 1 20 45
M  V30 48 1 22 46
M  V30 49 1 23 47
M  V30 END BOND
M  V30 END CTAB
M  END
>  <Dataset>  (90) 
ChEMBL_Kinases

>  <Ligand_Instance>  (90) 
nan

>  <PDB_ID>  (90) 
nan

>  <Standardized_SMILES>  (90) 
CC(C)(C)CNC(=O)CC1CNC(=O)c2cc(-c3ccsc3)cn21

>  <Name>  (90) 
nan

>  <Pocket>  (90) 
nan

>  <ATP_Site>  (90) 
nan

>  <Peripheral>  (90) 
nan

>  <Num_H_Atoms_ProtBoundConf>  (90) 
nan

>  <Num_Resolved_Atoms>  (90) 
nan

>  <Num_Not_Resolved_Atoms>  (90) 
nan

$$$$
CHEMBL3298376
     RDKit          3D

  0  0  0  0  0  0  0  0  0  0999 V3000
M  V30 BEGIN CTAB
M  V30 COUNTS 63 66 0 0 0
M  V30 BEGIN ATOM
M  V30 1 C 0.856436 1.078787 5.092539 0
M  V30 2 N 1.070642 1.336154 3.643599 0
M  V30 3 C 1.790960 0.156220 3.119903 0
M  V30 4 C 1.883337 2.515353 3.524158 0
M  V30 5 C 2.007274 3.075250 2.141465 0
M  V30 6 C 0.717277 3.555303 1.527197 0 CFG=1
M  V30 7 C 1.075604 4.124491 0.165198 0
M  V30 8 C 2.066120 3.744073 -0.705925 0
M  V30 9 C 2.312008 4.323898 -1.929171 0
M  V30 10 C 1.481290 5.384629 -2.306502 0
M  V30 11 C 0.486204 5.779860 -1.450308 0
M  V30 12 Cl -0.502571 7.126397 -2.025696 0
M  V30 13 C 0.257881 5.193344 -0.242978 0
M  V30 14 N -0.243515 2.499418 1.273672 0
M  V30 15 C -0.133025 1.295706 0.691066 0
M  V30 16 C -1.370272 0.640651 0.645584 0
M  V30 17 N -1.431167 -0.646100 0.044983 0
M  V30 18 C -1.635560 -1.048160 -1.286217 0
M  V30 19 O -1.778370 -0.060007 -2.045930 0
M  V30 20 C -1.678677 -2.416102 -1.750955 0
M  V30 21 N -1.739363 -2.560814 -3.092070 0
M  V30 22 N -1.777565 -3.838191 -3.434458 0
M  V30 23 C -1.741410 -4.558602 -2.302385 0
M  V30 24 C -1.679477 -3.674425 -1.221241 0
M  V30 25 C -1.641870 -4.069445 0.186248 0
M  V30 26 C -2.295303 -5.466486 0.236746 0
M  V30 27 C -1.600416 -6.412379 -0.683214 0
M  V30 28 C -2.179183 -7.799948 -0.503903 0
M  V30 29 C -0.109321 -6.517184 -0.360628 0
M  V30 30 C -1.752063 -6.036973 -2.137279 0
M  V30 31 C -2.224825 1.540356 1.242975 0
M  V30 32 N -1.532906 2.630796 1.605331 0
M  V30 33 H -0.166437 0.699035 5.231340 0
M  V30 34 H 1.643162 0.452276 5.520475 0
M  V30 35 H 0.909528 2.076233 5.570515 0
M  V30 36 H 2.627719 0.536458 2.517401 0
M  V30 37 H 2.252082 -0.406491 3.968366 0
M  V30 38 H 1.143268 -0.505329 2.529563 0
M  V30 39 H 1.388623 3.331193 4.134176 0
M  V30 40 H 2.887601 2.389103 3.988597 0
M  V30 41 H 2.458028 2.244595 1.520464 0
M  V30 42 H 2.796262 3.862596 2.105185 0
M  V30 43 H 0.270930 4.383229 2.110913 0
M  V30 44 H 2.665919 2.920645 -0.350488 0
M  V30 45 H 3.112543 3.931931 -2.507201 0
M  V30 46 H 1.725420 5.800353 -3.283529 0
M  V30 47 H -0.564209 5.600536 0.341718 0
M  V30 48 H 0.847208 0.992200 0.344773 0
M  V30 49 H -1.280858 -1.321616 0.811384 0
M  V30 50 H -1.826993 -4.219897 -4.401928 0
M  V30 51 H -0.604034 -4.220027 0.530367 0
M  V30 52 H -2.257492 -3.429722 0.857456 0
M  V30 53 H -3.316379 -5.276641 -0.211754 0
M  V30 54 H -2.326241 -5.852480 1.252206 0
M  V30 55 H -1.543085 -8.543229 -1.061580 0
M  V30 56 H -3.217099 -7.900194 -0.882385 0
M  V30 57 H -2.215340 -8.110303 0.550207 0
M  V30 58 H 0.456017 -5.807555 -1.012528 0
M  V30 59 H 0.225219 -7.562417 -0.515818 0
M  V30 60 H 0.100819 -6.255417 0.685628 0
M  V30 61 H -2.670283 -6.416547 -2.613721 0
M  V30 62 H -0.868848 -6.467784 -2.695508 0
M  V30 63 H -3.266689 1.246828 1.324194 0
M  V30 END ATOM
M  V30 BEGIN BOND
M  V30 1 1 1 2
M  V30 2 1 2 3
M  V30 3 1 2 4
M  V30 4 1 4 5
M  V30 5 1 5 6
M  V30 6 1 6 7
M  V30 7 2 7 8
M  V30 8 1 8 9
M  V30 9 2 9 10
M  V30 10 1 10 11
M  V30 11 1 11 12
M  V30 12 2 11 13
M  V30 13 1 6 14
M  V30 14 1 14 15
M  V30 15 2 15 16
M  V30 16 1 16 17
M  V30 17 1 17 18
M  V30 18 2 18 19
M  V30 19 1 18 20
M  V30 20 2 20 21
M  V30 21 1 21 22
M  V30 22 1 22 23
M  V30 23 2 23 24
M  V30 24 1 24 25
M  V30 25 1 25 26
M  V30 26 1 26 27
M  V30 27 1 27 28
M  V30 28 1 27 29
M  V30 29 1 27 30
M  V30 30 1 16 31
M  V30 31 2 31 32
M  V30 32 1 13 7
M  V30 33 1 32 14
M  V30 34 1 24 20
M  V30 35 1 30 23
M  V30 36 1 1 33
M  V30 37 1 1 34
M  V30 38 1 1 35
M  V30 39 1 3 36
M  V30 40 1 3 37
M  V30 41 1 3 38
M  V30 42 1 4 39
M  V30 43 1 4 40
M  V30 44 1 5 41
M  V30 45 1 5 42
M  V30 46 1 6 43 CFG=1
M  V30 47 1 8 44
M  V30 48 1 9 45
M  V30 49 1 10 46
M  V30 50 1 13 47
M  V30 51 1 15 48
M  V30 52 1 17 49
M  V30 53 1 22 50
M  V30 54 1 25 51
M  V30 55 1 25 52
M  V30 56 1 26 53
M  V30 57 1 26 54
M  V30 58 1 28 55
M  V30 59 1 28 56
M  V30 60 1 28 57
M  V30 61 1 29 58
M  V30 62 1 29 59
M  V30 63 1 29 60
M  V30 64 1 30 61
M  V30 65 1 30 62
M  V30 66 1 31 63
M  V30 END BOND
M  V30 END CTAB
M  END
>  <Dataset>  (91) 
ChEMBL_Kinases

>  <Ligand_Instance>  (91) 
nan

>  <PDB_ID>  (91) 
nan

>  <Standardized_SMILES>  (91) 
CN(C)CC[C@@H](c1cccc(Cl)c1)n1cc(NC(=O)c2n[nH]c3c2CCC(C)(C)C3)cn1

>  <Name>  (91) 
nan

>  <Pocket>  (91) 
nan

>  <ATP_Site>  (91) 
nan

>  <Peripheral>  (91) 
nan

>  <Num_H_Atoms_ProtBoundConf>  (91) 
nan

>  <Num_Resolved_Atoms>  (91) 
nan

>  <Num_Not_Resolved_Atoms>  (91) 
nan

$$$$
CHEMBL3298375
     RDKit          3D

  0  0  0  0  0  0  0  0  0  0999 V3000
M  V30 BEGIN CTAB
M  V30 COUNTS 66 69 0 0 0
M  V30 BEGIN ATOM
M  V30 1 C 4.711762 -1.348022 3.769554 0
M  V30 2 C 4.490741 -0.010539 3.159261 0
M  V30 3 C 4.925025 1.131130 3.815599 0
M  V30 4 C 4.701730 2.355504 3.222670 0
M  V30 5 C 4.073007 2.489452 2.020661 0
M  V30 6 C 3.624787 1.379706 1.333556 0
M  V30 7 C 2.934208 1.369823 0.044828 0 CFG=2
M  V30 8 C 3.318417 2.488266 -0.891085 0
M  V30 9 C 2.518137 2.341280 -2.181096 0
M  V30 10 N 2.848474 3.395999 -3.120438 0
M  V30 11 C 4.208892 3.222988 -3.589206 0
M  V30 12 C 1.992216 3.363418 -4.274494 0
M  V30 13 N 1.483626 1.379211 0.294380 0
M  V30 14 C 0.538376 0.740931 -0.414473 0
M  V30 15 C -0.692450 1.012124 0.152135 0
M  V30 16 N -2.012209 0.592992 -0.199449 0
M  V30 17 C -2.340628 -0.626480 0.472116 0
M  V30 18 O -1.418494 -1.070162 1.218806 0
M  V30 19 C -3.635081 -1.283580 0.295244 0
M  V30 20 N -4.728819 -0.958333 -0.454672 0
M  V30 21 N -5.660920 -1.902906 -0.259979 0
M  V30 22 C -5.230431 -2.830114 0.580619 0
M  V30 23 C -3.955600 -2.459935 0.943264 0
M  V30 24 C -3.274166 -3.393266 1.908111 0
M  V30 25 C -3.420575 -4.760843 1.263969 0
M  V30 26 C -4.866386 -5.191283 1.292101 0
M  V30 27 C -5.164842 -5.866255 2.637812 0
M  V30 28 C -5.035679 -6.265712 0.237454 0
M  V30 29 C -5.841641 -4.079460 1.138862 0
M  V30 30 C -0.429492 1.845146 1.235044 0
M  V30 31 N 0.900377 2.052536 1.299210 0
M  V30 32 C 3.866957 0.153044 1.962003 0
M  V30 33 H 3.957048 -1.519486 4.570154 0
M  V30 34 H 5.753145 -1.499799 4.125924 0
M  V30 35 H 4.468987 -2.103673 2.980671 0
M  V30 36 H 5.425660 0.966242 4.781740 0
M  V30 37 H 5.064552 3.213728 3.784828 0
M  V30 38 H 3.900777 3.447315 1.561319 0
M  V30 39 H 3.180421 0.422402 -0.477405 0
M  V30 40 H 4.379613 2.330109 -1.170989 0
M  V30 41 H 3.212155 3.487706 -0.464770 0
M  V30 42 H 1.441982 2.477527 -1.945224 0
M  V30 43 H 2.631355 1.336146 -2.606250 0
M  V30 44 H 4.299491 3.605264 -4.642033 0
M  V30 45 H 4.898030 3.715886 -2.906565 0
M  V30 46 H 4.436777 2.140353 -3.671175 0
M  V30 47 H 2.453334 2.770704 -5.117468 0
M  V30 48 H 1.065260 2.816280 -4.004063 0
M  V30 49 H 1.721164 4.354610 -4.653430 0
M  V30 50 H 0.665225 0.117805 -1.277418 0
M  V30 51 H -2.717588 1.037029 -0.842388 0
M  V30 52 H -6.581359 -1.835934 -0.749700 0
M  V30 53 H -3.775681 -3.439376 2.873679 0
M  V30 54 H -2.213889 -3.165553 2.012801 0
M  V30 55 H -2.846444 -5.473238 1.888144 0
M  V30 56 H -3.078619 -4.766571 0.220260 0
M  V30 57 H -5.530593 -5.085528 3.340508 0
M  V30 58 H -4.269270 -6.409842 3.010555 0
M  V30 59 H -6.024962 -6.547203 2.452012 0
M  V30 60 H -5.409530 -5.838487 -0.731737 0
M  V30 61 H -5.752174 -7.031224 0.598673 0
M  V30 62 H -4.059396 -6.738505 0.028144 0
M  V30 63 H -6.707924 -4.403055 0.523259 0
M  V30 64 H -6.287526 -3.743353 2.120643 0
M  V30 65 H -1.101636 2.284331 1.937564 0
M  V30 66 H 3.529079 -0.763569 1.454607 0
M  V30 END ATOM
M  V30 BEGIN BOND
M  V30 1 1 1 2
M  V30 2 2 2 3
M  V30 3 1 3 4
M  V30 4 2 4 5
M  V30 5 1 5 6
M  V30 6 1 6 7
M  V30 7 1 7 8
M  V30 8 1 8 9
M  V30 9 1 9 10
M  V30 10 1 10 11
M  V30 11 1 10 12
M  V30 12 1 7 13
M  V30 13 1 13 14
M  V30 14 2 14 15
M  V30 15 1 15 16
M  V30 16 1 16 17
M  V30 17 2 17 18
M  V30 18 1 17 19
M  V30 19 2 19 20
M  V30 20 1 20 21
M  V30 21 1 21 22
M  V30 22 2 22 23
M  V30 23 1 23 24
M  V30 24 1 24 25
M  V30 25 1 25 26
M  V30 26 1 26 27
M  V30 27 1 26 28
M  V30 28 1 26 29
M  V30 29 1 15 30
M  V30 30 2 30 31
M  V30 31 2 6 32
M  V30 32 1 32 2
M  V30 33 1 31 13
M  V30 34 1 23 19
M  V30 35 1 29 22
M  V30 36 1 1 33
M  V30 37 1 1 34
M  V30 38 1 1 35
M  V30 39 1 3 36
M  V30 40 1 4 37
M  V30 41 1 5 38
M  V30 42 1 7 39 CFG=3
M  V30 43 1 8 40
M  V30 44 1 8 41
M  V30 45 1 9 42
M  V30 46 1 9 43
M  V30 47 1 11 44
M  V30 48 1 11 45
M  V30 49 1 11 46
M  V30 50 1 12 47
M  V30 51 1 12 48
M  V30 52 1 12 49
M  V30 53 1 14 50
M  V30 54 1 16 51
M  V30 55 1 21 52
M  V30 56 1 24 53
M  V30 57 1 24 54
M  V30 58 1 25 55
M  V30 59 1 25 56
M  V30 60 1 27 57
M  V30 61 1 27 58
M  V30 62 1 27 59
M  V30 63 1 28 60
M  V30 64 1 28 61
M  V30 65 1 28 62
M  V30 66 1 29 63
M  V30 67 1 29 64
M  V30 68 1 30 65
M  V30 69 1 32 66
M  V30 END BOND
M  V30 END CTAB
M  END
>  <Dataset>  (92) 
ChEMBL_Kinases

>  <Ligand_Instance>  (92) 
nan

>  <PDB_ID>  (92) 
nan

>  <Standardized_SMILES>  (92) 
Cc1cccc([C@H](CCN(C)C)n2cc(NC(=O)c3n[nH]c4c3CCC(C)(C)C4)cn2)c1

>  <Name>  (92) 
nan

>  <Pocket>  (92) 
nan

>  <ATP_Site>  (92) 
nan

>  <Peripheral>  (92) 
nan

>  <Num_H_Atoms_ProtBoundConf>  (92) 
nan

>  <Num_Resolved_Atoms>  (92) 
nan

>  <Num_Not_Resolved_Atoms>  (92) 
nan

$$$$
CHEMBL3298374
     RDKit          3D

  0  0  0  0  0  0  0  0  0  0999 V3000
M  V30 BEGIN CTAB
M  V30 COUNTS 61 64 0 0 0
M  V30 BEGIN ATOM
M  V30 1 C 2.790174 -4.537467 4.066638 0
M  V30 2 C 3.431695 -3.230264 4.463029 0
M  V30 3 C 3.928809 -3.450459 5.898742 0
M  V30 4 C 2.470434 -2.094629 4.528795 0
M  V30 5 C 2.049090 -1.545057 3.180558 0
M  V30 6 C 3.119144 -1.654085 2.182781 0
M  V30 7 C 3.056495 -1.149640 0.917422 0
M  V30 8 C 2.133036 -0.414842 0.068139 0
M  V30 9 O 2.310075 -0.031833 -1.139436 0
M  V30 10 N 0.859270 -0.011411 0.492296 0
M  V30 11 C -0.175166 0.699186 -0.166299 0
M  V30 12 C -0.284665 2.073476 -0.152931 0
M  V30 13 N -1.361004 2.435878 -0.857281 0
M  V30 14 N -1.993131 1.353472 -1.353261 0
M  V30 15 C -3.192500 1.389415 -2.114988 0 CFG=1
M  V30 16 C -3.245984 0.636585 -3.366636 0
M  V30 17 C -2.380829 0.909524 -4.515593 0
M  V30 18 S -0.672010 0.690046 -4.304554 0
M  V30 19 C -0.228058 -0.956217 -3.830648 0
M  V30 20 O -0.058511 0.873102 -5.723177 0
M  V30 21 O -0.049461 1.748594 -3.490846 0
M  V30 22 C -4.320239 0.862372 -1.240562 0
M  V30 23 C -5.199966 1.756728 -0.622895 0
M  V30 24 C -6.252212 1.433804 0.192425 0
M  V30 25 C -6.455203 0.095345 0.419911 0
M  V30 26 C -5.627947 -0.838589 -0.155605 0
M  V30 27 C -4.586847 -0.454844 -0.965712 0
M  V30 28 C -1.259001 0.313497 -0.923337 0
M  V30 29 N 4.257280 -1.478584 0.351353 0
M  V30 30 N 5.004751 -2.139112 1.209924 0
M  V30 31 C 4.336222 -2.273573 2.368927 0
M  V30 32 C 4.678838 -2.916104 3.664572 0
M  V30 33 H 1.878204 -4.427469 3.456012 0
M  V30 34 H 2.482561 -5.143955 4.952087 0
M  V30 35 H 3.482254 -5.189928 3.488404 0
M  V30 36 H 4.423634 -2.522061 6.260037 0
M  V30 37 H 4.738248 -4.221710 5.870320 0
M  V30 38 H 3.088119 -3.723413 6.547754 0
M  V30 39 H 1.570971 -2.441800 5.051580 0
M  V30 40 H 2.938026 -1.292138 5.161889 0
M  V30 41 H 1.799318 -0.463741 3.396413 0
M  V30 42 H 1.090758 -2.005578 2.867732 0
M  V30 43 H 0.485142 -0.205918 1.434835 0
M  V30 44 H 0.327150 2.837568 0.309064 0
M  V30 45 H -3.460969 2.498439 -2.288558 0
M  V30 46 H -4.321408 0.643618 -3.784479 0
M  V30 47 H -3.169777 -0.476813 -3.067006 0
M  V30 48 H -2.548491 1.965832 -4.882714 0
M  V30 49 H -2.675577 0.255936 -5.412281 0
M  V30 50 H 0.552753 -0.915611 -3.047994 0
M  V30 51 H -1.078532 -1.501756 -3.365883 0
M  V30 52 H 0.082067 -1.546706 -4.700724 0
M  V30 53 H -5.043750 2.821530 -0.799683 0
M  V30 54 H -6.874411 2.194313 0.622276 0
M  V30 55 H -7.255656 -0.261288 1.046394 0
M  V30 56 H -5.765554 -1.907651 0.007370 0
M  V30 57 H -3.949675 -1.206837 -1.400644 0
M  V30 58 H -1.468047 -0.743123 -1.130535 0
M  V30 59 H 5.980480 -2.513772 1.035129 0
M  V30 60 H 5.164136 -3.917747 3.473761 0
M  V30 61 H 5.417627 -2.343150 4.253127 0
M  V30 END ATOM
M  V30 BEGIN BOND
M  V30 1 1 1 2
M  V30 2 1 2 3
M  V30 3 1 2 4
M  V30 4 1 4 5
M  V30 5 1 5 6
M  V30 6 1 6 7
M  V30 7 1 7 8
M  V30 8 2 8 9
M  V30 9 1 8 10
M  V30 10 1 10 11
M  V30 11 1 11 12
M  V30 12 2 12 13
M  V30 13 1 13 14
M  V30 14 1 14 15
M  V30 15 1 15 16
M  V30 16 1 16 17
M  V30 17 1 17 18
M  V30 18 1 18 19
M  V30 19 2 18 20
M  V30 20 2 18 21
M  V30 21 1 15 22
M  V30 22 2 22 23
M  V30 23 1 23 24
M  V30 24 2 24 25
M  V30 25 1 25 26
M  V30 26 2 26 27
M  V30 27 1 14 28
M  V30 28 2 7 29
M  V30 29 1 29 30
M  V30 30 1 30 31
M  V30 31 1 31 32
M  V30 32 1 32 2
M  V30 33 2 31 6
M  V30 34 2 28 11
M  V30 35 1 27 22
M  V30 36 1 1 33
M  V30 37 1 1 34
M  V30 38 1 1 35
M  V30 39 1 3 36
M  V30 40 1 3 37
M  V30 41 1 3 38
M  V30 42 1 4 39
M  V30 43 1 4 40
M  V30 44 1 5 41
M  V30 45 1 5 42
M  V30 46 1 10 43
M  V30 47 1 12 44
M  V30 48 1 15 45 CFG=3
M  V30 49 1 16 46
M  V30 50 1 16 47
M  V30 51 1 17 48
M  V30 52 1 17 49
M  V30 53 1 19 50
M  V30 54 1 19 51
M  V30 55 1 19 52
M  V30 56 1 23 53
M  V30 57 1 24 54
M  V30 58 1 25 55
M  V30 59 1 26 56
M  V30 60 1 27 57
M  V30 61 1 28 58
M  V30 62 1 30 59
M  V30 63 1 32 60
M  V30 64 1 32 61
M  V30 END BOND
M  V30 END CTAB
M  END
>  <Dataset>  (93) 
ChEMBL_Kinases

>  <Ligand_Instance>  (93) 
nan

>  <PDB_ID>  (93) 
nan

>  <Standardized_SMILES>  (93) 
CC1(C)CCc2c(C(=O)Nc3cnn([C@@H](CCS(C)(=O)=O)c4ccccc4)c3)n[nH]c2C1

>  <Name>  (93) 
nan

>  <Pocket>  (93) 
nan

>  <ATP_Site>  (93) 
nan

>  <Peripheral>  (93) 
nan

>  <Num_H_Atoms_ProtBoundConf>  (93) 
nan

>  <Num_Resolved_Atoms>  (93) 
nan

>  <Num_Not_Resolved_Atoms>  (93) 
nan

$$$$
CHEMBL3298373
     RDKit          3D

  0  0  0  0  0  0  0  0  0  0999 V3000
M  V30 BEGIN CTAB
M  V30 COUNTS 64 68 0 0 0
M  V30 BEGIN ATOM
M  V30 1 C 4.568502 -0.396353 5.090962 0
M  V30 2 C 5.384630 0.461951 4.157933 0
M  V30 3 C 6.458121 1.177863 4.969246 0
M  V30 4 C 4.546168 1.534012 3.503267 0
M  V30 5 C 3.458048 0.979788 2.609174 0
M  V30 6 C 3.966638 -0.220601 1.943938 0
M  V30 7 C 3.289771 -0.865401 0.960735 0
M  V30 8 C 2.035376 -0.803760 0.210915 0
M  V30 9 O 1.574257 -1.512286 -0.748081 0
M  V30 10 N 1.055220 0.185574 0.506710 0
M  V30 11 C -0.083003 0.058400 -0.346380 0
M  V30 12 C -0.237967 0.711376 -1.573738 0
M  V30 13 N -1.425963 0.352943 -2.094297 0
M  V30 14 N -2.040424 -0.493467 -1.268414 0
M  V30 15 C -3.350734 -1.088644 -1.512861 0 CFG=2
M  V30 16 C -3.550757 -1.117365 -2.979754 0
M  V30 17 C -4.121998 -0.094592 -3.706390 0
M  V30 18 C -4.270352 -0.210826 -5.088243 0
M  V30 19 C -3.847612 -1.354408 -5.759596 0
M  V30 20 C -3.272292 -2.388407 -5.039507 0
M  V30 21 C -3.138456 -2.249743 -3.687762 0
M  V30 22 C -4.464138 -0.423771 -0.782578 0
M  V30 23 C -5.755594 -1.132658 -1.131273 0
M  V30 24 C -5.715704 -2.534480 -0.630048 0
M  V30 25 N -5.424668 -2.696253 0.758308 0
M  V30 26 C -4.414544 -1.840417 1.293738 0
M  V30 27 C -4.338975 -0.474530 0.701309 0
M  V30 28 C -1.241248 -0.680395 -0.208796 0
M  V30 29 N 4.067853 -1.922971 0.579993 0
M  V30 30 N 5.184845 -1.949395 1.287216 0
M  V30 31 C 5.145846 -0.908833 2.136279 0
M  V30 32 C 6.089668 -0.411518 3.176563 0
M  V30 33 H 3.813369 0.283630 5.549196 0
M  V30 34 H 4.064835 -1.250478 4.588043 0
M  V30 35 H 5.191326 -0.847441 5.884958 0
M  V30 36 H 7.392514 1.302120 4.352061 0
M  V30 37 H 6.076209 2.147508 5.299204 0
M  V30 38 H 6.705477 0.579219 5.885186 0
M  V30 39 H 5.203819 2.174128 2.879494 0
M  V30 40 H 4.098381 2.147435 4.333248 0
M  V30 41 H 2.525878 0.775250 3.196007 0
M  V30 42 H 3.255623 1.797297 1.858627 0
M  V30 43 H 1.149898 0.903072 1.243445 0
M  V30 44 H 0.465309 1.402423 -2.059471 0
M  V30 45 H -3.311889 -2.148742 -1.128076 0
M  V30 46 H -4.446960 0.790363 -3.172005 0
M  V30 47 H -4.720828 0.622207 -5.584180 0
M  V30 48 H -3.967970 -1.431600 -6.829021 0
M  V30 49 H -2.931129 -3.299407 -5.550547 0
M  V30 50 H -2.679530 -3.082717 -3.143503 0
M  V30 51 H -4.612779 0.632115 -1.090366 0
M  V30 52 H -6.642540 -0.619912 -0.711372 0
M  V30 53 H -5.922527 -1.179703 -2.226114 0
M  V30 54 H -5.045024 -3.201169 -1.210600 0
M  V30 55 H -6.741485 -2.984293 -0.784813 0
M  V30 56 H -5.092437 -3.681777 0.905530 0
M  V30 57 H -3.413647 -2.356501 1.373087 0
M  V30 58 H -4.689749 -1.687117 2.380589 0
M  V30 59 H -3.446636 0.026787 1.120466 0
M  V30 60 H -5.214835 0.107401 1.107937 0
M  V30 61 H -1.402392 -1.288393 0.646538 0
M  V30 62 H 5.980583 -2.626570 1.238243 0
M  V30 63 H 6.438472 -1.335978 3.722898 0
M  V30 64 H 7.000617 0.054628 2.730456 0
M  V30 END ATOM
M  V30 BEGIN BOND
M  V30 1 1 1 2
M  V30 2 1 2 3
M  V30 3 1 2 4
M  V30 4 1 4 5
M  V30 5 1 5 6
M  V30 6 1 6 7
M  V30 7 1 7 8
M  V30 8 2 8 9
M  V30 9 1 8 10
M  V30 10 1 10 11
M  V30 11 1 11 12
M  V30 12 2 12 13
M  V30 13 1 13 14
M  V30 14 1 14 15
M  V30 15 1 15 16
M  V30 16 2 16 17
M  V30 17 1 17 18
M  V30 18 2 18 19
M  V30 19 1 19 20
M  V30 20 2 20 21
M  V30 21 1 15 22
M  V30 22 1 22 23
M  V30 23 1 23 24
M  V30 24 1 24 25
M  V30 25 1 25 26
M  V30 26 1 26 27
M  V30 27 1 14 28
M  V30 28 2 7 29
M  V30 29 1 29 30
M  V30 30 1 30 31
M  V30 31 1 31 32
M  V30 32 1 32 2
M  V30 33 2 31 6
M  V30 34 2 28 11
M  V30 35 1 21 16
M  V30 36 1 27 22
M  V30 37 1 1 33
M  V30 38 1 1 34
M  V30 39 1 1 35
M  V30 40 1 3 36
M  V30 41 1 3 37
M  V30 42 1 3 38
M  V30 43 1 4 39
M  V30 44 1 4 40
M  V30 45 1 5 41
M  V30 46 1 5 42
M  V30 47 1 10 43
M  V30 48 1 12 44
M  V30 49 1 15 45 CFG=1
M  V30 50 1 17 46
M  V30 51 1 18 47
M  V30 52 1 19 48
M  V30 53 1 20 49
M  V30 54 1 21 50
M  V30 55 1 22 51
M  V30 56 1 23 52
M  V30 57 1 23 53
M  V30 58 1 24 54
M  V30 59 1 24 55
M  V30 60 1 25 56
M  V30 61 1 26 57
M  V30 62 1 26 58
M  V30 63 1 27 59
M  V30 64 1 27 60
M  V30 65 1 28 61
M  V30 66 1 30 62
M  V30 67 1 32 63
M  V30 68 1 32 64
M  V30 END BOND
M  V30 END CTAB
M  END
>  <Dataset>  (94) 
ChEMBL_Kinases

>  <Ligand_Instance>  (94) 
nan

>  <PDB_ID>  (94) 
nan

>  <Standardized_SMILES>  (94) 
CC1(C)CCc2c(C(=O)Nc3cnn([C@H](c4ccccc4)C4CCNCC4)c3)n[nH]c2C1

>  <Name>  (94) 
nan

>  <Pocket>  (94) 
nan

>  <ATP_Site>  (94) 
nan

>  <Peripheral>  (94) 
nan

>  <Num_H_Atoms_ProtBoundConf>  (94) 
nan

>  <Num_Resolved_Atoms>  (94) 
nan

>  <Num_Not_Resolved_Atoms>  (94) 
nan

$$$$
CHEMBL3298372
     RDKit          3D

  0  0  0  0  0  0  0  0  0  0999 V3000
M  V30 BEGIN CTAB
M  V30 COUNTS 63 66 0 0 0
M  V30 BEGIN ATOM
M  V30 1 C 2.721422 1.550665 5.867025 0
M  V30 2 N 2.361115 1.025562 4.589358 0
M  V30 3 C 2.719268 -0.339417 4.353795 0
M  V30 4 C 2.759958 1.866777 3.480466 0
M  V30 5 C 2.333253 1.221247 2.198531 0
M  V30 6 C 2.707154 2.028057 0.984006 0 CFG=2
M  V30 7 C 2.046624 3.353749 1.090866 0
M  V30 8 C 2.718979 4.424671 0.487057 0
M  V30 9 C 2.276956 5.731511 0.473408 0
M  V30 10 C 1.082803 6.023313 1.097870 0
M  V30 11 C 0.402967 4.984787 1.699329 0
M  V30 12 C 0.858696 3.683285 1.704015 0
M  V30 13 N 2.221839 1.418883 -0.239169 0
M  V30 14 C 1.202490 0.532056 -0.366111 0
M  V30 15 C 1.027331 0.170541 -1.684125 0
M  V30 16 N 0.094460 -0.718939 -2.281668 0
M  V30 17 C -0.887984 -1.438399 -1.560172 0
M  V30 18 O -0.976157 -1.313321 -0.316538 0
M  V30 19 C -1.809668 -2.331358 -2.238213 0
M  V30 20 N -1.828006 -2.561055 -3.579511 0
M  V30 21 N -2.778100 -3.420361 -3.896003 0
M  V30 22 C -3.396558 -3.765013 -2.756778 0
M  V30 23 C -2.811591 -3.094587 -1.676205 0
M  V30 24 C -3.302250 -3.290651 -0.288751 0
M  V30 25 C -3.632152 -4.722636 0.034225 0
M  V30 26 C -3.953577 -5.513625 -1.214965 0
M  V30 27 C -4.861718 -6.663936 -0.846522 0
M  V30 28 C -2.668782 -6.129820 -1.762390 0
M  V30 29 C -4.526828 -4.655766 -2.309008 0
M  V30 30 C 1.996123 0.886054 -2.352776 0
M  V30 31 N 2.693647 1.625825 -1.442031 0
M  V30 32 H 1.834412 2.080006 6.289133 0
M  V30 33 H 2.904312 0.700208 6.555941 0
M  V30 34 H 3.611345 2.208029 5.831486 0
M  V30 35 H 3.720977 -0.426267 3.868397 0
M  V30 36 H 1.979341 -0.756670 3.613626 0
M  V30 37 H 2.626368 -0.953863 5.260645 0
M  V30 38 H 2.351169 2.889365 3.611764 0
M  V30 39 H 3.861807 1.972234 3.554362 0
M  V30 40 H 2.913283 0.269636 2.118284 0
M  V30 41 H 1.253645 1.057946 2.194940 0
M  V30 42 H 3.813680 2.166340 0.901706 0
M  V30 43 H 3.674995 4.248899 -0.024678 0
M  V30 44 H 2.853169 6.502609 -0.014120 0
M  V30 45 H 0.667931 7.015144 1.133000 0
M  V30 46 H -0.546860 5.157240 2.208172 0
M  V30 47 H 0.344457 2.858656 2.166539 0
M  V30 48 H 0.628848 0.178454 0.464117 0
M  V30 49 H 0.105129 -0.872538 -3.293046 0
M  V30 50 H -3.065295 -3.812121 -4.818717 0
M  V30 51 H -2.476196 -2.953830 0.390931 0
M  V30 52 H -4.146226 -2.604766 -0.050921 0
M  V30 53 H -2.743812 -5.240631 0.491930 0
M  V30 54 H -4.503192 -4.775248 0.720399 0
M  V30 55 H -4.864015 -7.435554 -1.660243 0
M  V30 56 H -5.875994 -6.350488 -0.548720 0
M  V30 57 H -4.390575 -7.163813 0.024608 0
M  V30 58 H -1.795732 -5.716049 -1.221516 0
M  V30 59 H -2.629767 -7.234709 -1.592122 0
M  V30 60 H -2.561024 -5.979874 -2.851865 0
M  V30 61 H -4.809531 -5.361015 -3.132709 0
M  V30 62 H -5.398155 -4.069873 -2.015824 0
M  V30 63 H 2.214327 0.901879 -3.404222 0
M  V30 END ATOM
M  V30 BEGIN BOND
M  V30 1 1 1 2
M  V30 2 1 2 3
M  V30 3 1 2 4
M  V30 4 1 4 5
M  V30 5 1 5 6
M  V30 6 1 6 7
M  V30 7 2 7 8
M  V30 8 1 8 9
M  V30 9 2 9 10
M  V30 10 1 10 11
M  V30 11 2 11 12
M  V30 12 1 6 13
M  V30 13 1 13 14
M  V30 14 2 14 15
M  V30 15 1 15 16
M  V30 16 1 16 17
M  V30 17 2 17 18
M  V30 18 1 17 19
M  V30 19 2 19 20
M  V30 20 1 20 21
M  V30 21 1 21 22
M  V30 22 2 22 23
M  V30 23 1 23 24
M  V30 24 1 24 25
M  V30 25 1 25 26
M  V30 26 1 26 27
M  V30 27 1 26 28
M  V30 28 1 26 29
M  V30 29 1 15 30
M  V30 30 2 30 31
M  V30 31 1 12 7
M  V30 32 1 31 13
M  V30 33 1 23 19
M  V30 34 1 29 22
M  V30 35 1 1 32
M  V30 36 1 1 33
M  V30 37 1 1 34
M  V30 38 1 3 35
M  V30 39 1 3 36
M  V30 40 1 3 37
M  V30 41 1 4 38
M  V30 42 1 4 39
M  V30 43 1 5 40
M  V30 44 1 5 41
M  V30 45 1 6 42 CFG=3
M  V30 46 1 8 43
M  V30 47 1 9 44
M  V30 48 1 10 45
M  V30 49 1 11 46
M  V30 50 1 12 47
M  V30 51 1 14 48
M  V30 52 1 16 49
M  V30 53 1 21 50
M  V30 54 1 24 51
M  V30 55 1 24 52
M  V30 56 1 25 53
M  V30 57 1 25 54
M  V30 58 1 27 55
M  V30 59 1 27 56
M  V30 60 1 27 57
M  V30 61 1 28 58
M  V30 62 1 28 59
M  V30 63 1 28 60
M  V30 64 1 29 61
M  V30 65 1 29 62
M  V30 66 1 30 63
M  V30 END BOND
M  V30 END CTAB
M  END
>  <Dataset>  (95) 
ChEMBL_Kinases

>  <Ligand_Instance>  (95) 
nan

>  <PDB_ID>  (95) 
nan

>  <Standardized_SMILES>  (95) 
CN(C)CC[C@H](c1ccccc1)n1cc(NC(=O)c2n[nH]c3c2CCC(C)(C)C3)cn1

>  <Name>  (95) 
nan

>  <Pocket>  (95) 
nan

>  <ATP_Site>  (95) 
nan

>  <Peripheral>  (95) 
nan

>  <Num_H_Atoms_ProtBoundConf>  (95) 
nan

>  <Num_Resolved_Atoms>  (95) 
nan

>  <Num_Not_Resolved_Atoms>  (95) 
nan

$$$$
CHEMBL3298371
     RDKit          3D

  0  0  0  0  0  0  0  0  0  0999 V3000
M  V30 BEGIN CTAB
M  V30 COUNTS 63 66 0 0 0
M  V30 BEGIN ATOM
M  V30 1 C 3.061121 2.889033 5.361385 0
M  V30 2 N 2.966970 2.109430 4.134727 0
M  V30 3 C 3.353486 0.746113 4.458145 0
M  V30 4 C 3.808054 2.664884 3.091054 0
M  V30 5 C 3.637456 1.810285 1.852596 0
M  V30 6 C 2.195362 1.816971 1.395733 0 CFG=1
M  V30 7 C 1.733121 3.191585 1.066614 0
M  V30 8 C 2.476774 4.192799 0.476026 0
M  V30 9 C 1.934554 5.433281 0.220005 0
M  V30 10 C 0.620828 5.739426 0.540345 0
M  V30 11 C -0.177125 4.782902 1.133017 0
M  V30 12 C 0.415457 3.559281 1.366781 0
M  V30 13 N 1.979935 0.878932 0.308948 0
M  V30 14 C 0.752818 0.837751 -0.285104 0
M  V30 15 C 0.875743 -0.141500 -1.263189 0
M  V30 16 N -0.090926 -0.633979 -2.216257 0
M  V30 17 C -0.795269 -1.727427 -1.631245 0
M  V30 18 O -0.394104 -1.969006 -0.459222 0
M  V30 19 C -1.850250 -2.467955 -2.317586 0
M  V30 20 N -2.397758 -2.353401 -3.540791 0
M  V30 21 N -3.339253 -3.265838 -3.715870 0
M  V30 22 C -3.425826 -3.994127 -2.611947 0
M  V30 23 C -2.500593 -3.520668 -1.704348 0
M  V30 24 C -2.432869 -4.200469 -0.396352 0
M  V30 25 C -2.819038 -5.647050 -0.552101 0
M  V30 26 C -4.196556 -5.836284 -1.143647 0
M  V30 27 C -4.395663 -7.315251 -1.382610 0
M  V30 28 C -5.235778 -5.406193 -0.130266 0
M  V30 29 C -4.380086 -5.120435 -2.438665 0
M  V30 30 C 2.157615 -0.668711 -1.244322 0
M  V30 31 N 2.786839 -0.002297 -0.258833 0
M  V30 32 H 2.044440 3.079769 5.783748 0
M  V30 33 H 3.641541 2.347946 6.119828 0
M  V30 34 H 3.536879 3.877702 5.192488 0
M  V30 35 H 2.898712 0.498981 5.429738 0
M  V30 36 H 2.919528 0.085496 3.683098 0
M  V30 37 H 4.465060 0.668188 4.450832 0
M  V30 38 H 3.407866 3.681227 2.883458 0
M  V30 39 H 4.855515 2.716695 3.420522 0
M  V30 40 H 4.279938 2.250434 1.061161 0
M  V30 41 H 3.996641 0.812467 2.111343 0
M  V30 42 H 1.587233 1.487122 2.277741 0
M  V30 43 H 3.497995 3.939721 0.232141 0
M  V30 44 H 2.600066 6.159652 -0.249513 0
M  V30 45 H 0.214825 6.702545 0.336803 0
M  V30 46 H -1.204664 4.926467 1.416957 0
M  V30 47 H -0.204906 2.785272 1.838146 0
M  V30 48 H -0.177928 1.354700 -0.157370 0
M  V30 49 H -0.343328 -0.337476 -3.205551 0
M  V30 50 H -3.786359 -3.194849 -4.675398 0
M  V30 51 H -3.039898 -3.677574 0.372677 0
M  V30 52 H -1.368503 -4.188004 -0.089780 0
M  V30 53 H -2.742256 -6.114941 0.450120 0
M  V30 54 H -2.040055 -6.147123 -1.163653 0
M  V30 55 H -5.245394 -7.515295 -2.074922 0
M  V30 56 H -4.621834 -7.890395 -0.461714 0
M  V30 57 H -3.503023 -7.777922 -1.850633 0
M  V30 58 H -4.904466 -4.531403 0.472046 0
M  V30 59 H -6.195603 -5.160002 -0.667467 0
M  V30 60 H -5.483481 -6.279767 0.517109 0
M  V30 61 H -4.347582 -5.812075 -3.301383 0
M  V30 62 H -5.402759 -4.641688 -2.444469 0
M  V30 63 H 2.685297 -1.420523 -1.800829 0
M  V30 END ATOM
M  V30 BEGIN BOND
M  V30 1 1 1 2
M  V30 2 1 2 3
M  V30 3 1 2 4
M  V30 4 1 4 5
M  V30 5 1 5 6
M  V30 6 1 6 7
M  V30 7 2 7 8
M  V30 8 1 8 9
M  V30 9 2 9 10
M  V30 10 1 10 11
M  V30 11 2 11 12
M  V30 12 1 6 13
M  V30 13 1 13 14
M  V30 14 2 14 15
M  V30 15 1 15 16
M  V30 16 1 16 17
M  V30 17 2 17 18
M  V30 18 1 17 19
M  V30 19 2 19 20
M  V30 20 1 20 21
M  V30 21 1 21 22
M  V30 22 2 22 23
M  V30 23 1 23 24
M  V30 24 1 24 25
M  V30 25 1 25 26
M  V30 26 1 26 27
M  V30 27 1 26 28
M  V30 28 1 26 29
M  V30 29 1 15 30
M  V30 30 2 30 31
M  V30 31 1 12 7
M  V30 32 1 31 13
M  V30 33 1 23 19
M  V30 34 1 29 22
M  V30 35 1 1 32
M  V30 36 1 1 33
M  V30 37 1 1 34
M  V30 38 1 3 35
M  V30 39 1 3 36
M  V30 40 1 3 37
M  V30 41 1 4 38
M  V30 42 1 4 39
M  V30 43 1 5 40
M  V30 44 1 5 41
M  V30 45 1 6 42 CFG=1
M  V30 46 1 8 43
M  V30 47 1 9 44
M  V30 48 1 10 45
M  V30 49 1 11 46
M  V30 50 1 12 47
M  V30 51 1 14 48
M  V30 52 1 16 49
M  V30 53 1 21 50
M  V30 54 1 24 51
M  V30 55 1 24 52
M  V30 56 1 25 53
M  V30 57 1 25 54
M  V30 58 1 27 55
M  V30 59 1 27 56
M  V30 60 1 27 57
M  V30 61 1 28 58
M  V30 62 1 28 59
M  V30 63 1 28 60
M  V30 64 1 29 61
M  V30 65 1 29 62
M  V30 66 1 30 63
M  V30 END BOND
M  V30 END CTAB
M  END
>  <Dataset>  (96) 
ChEMBL_Kinases

>  <Ligand_Instance>  (96) 
nan

>  <PDB_ID>  (96) 
nan

>  <Standardized_SMILES>  (96) 
CN(C)CC[C@@H](c1ccccc1)n1cc(NC(=O)c2n[nH]c3c2CCC(C)(C)C3)cn1

>  <Name>  (96) 
nan

>  <Pocket>  (96) 
nan

>  <ATP_Site>  (96) 
nan

>  <Peripheral>  (96) 
nan

>  <Num_H_Atoms_ProtBoundConf>  (96) 
nan

>  <Num_Resolved_Atoms>  (96) 
nan

>  <Num_Not_Resolved_Atoms>  (96) 
nan

$$$$
CHEMBL3298370
     RDKit          3D

  0  0  0  0  0  0  0  0  0  0999 V3000
M  V30 BEGIN CTAB
M  V30 COUNTS 60 63 0 0 0
M  V30 BEGIN ATOM
M  V30 1 C 2.194505 -0.096464 -0.284224 0
M  V30 2 N 3.339108 0.740286 -0.064940 0
M  V30 3 C 4.488668 -0.171874 0.007997 0
M  V30 4 C 3.341054 1.487764 1.155595 0
M  V30 5 C 2.346644 2.596314 1.273718 0 CFG=1
M  V30 6 C 2.552263 3.598956 0.238868 0
M  V30 7 C 2.743703 3.442738 -1.115496 0
M  V30 8 C 2.937036 4.437769 -2.043783 0
M  V30 9 C 2.942746 5.739915 -1.586516 0
M  V30 10 C 2.762498 6.043258 -0.253854 0
M  V30 11 C 2.578658 4.960129 0.576378 0
M  V30 12 N 0.973394 2.129661 1.353769 0
M  V30 13 C 0.407113 1.191060 2.109388 0
M  V30 14 C -0.942938 1.111130 1.829566 0
M  V30 15 N -1.943072 0.245495 2.388049 0
M  V30 16 C -1.975615 -0.908823 1.558089 0
M  V30 17 O -1.139269 -0.842711 0.594794 0
M  V30 18 C -2.871212 -2.066744 1.770403 0
M  V30 19 N -3.802720 -2.300670 2.729967 0
M  V30 20 N -4.363351 -3.485546 2.510935 0
M  V30 21 C -3.804407 -4.038127 1.406738 0
M  V30 22 C -2.844416 -3.148206 0.912892 0
M  V30 23 C -2.028172 -3.452641 -0.315961 0
M  V30 24 C -2.657031 -4.587289 -1.052875 0
M  V30 25 C -2.907599 -5.727522 -0.095514 0
M  V30 26 C -1.649993 -5.948595 0.696480 0
M  V30 27 C -3.210615 -7.006831 -0.847254 0
M  V30 28 C -4.088801 -5.359828 0.745246 0
M  V30 29 C -1.173675 2.067443 0.846494 0
M  V30 30 N 0.016104 2.645447 0.603236 0
M  V30 31 H 1.284118 0.457451 -0.544095 0
M  V30 32 H 1.940135 -0.727448 0.612136 0
M  V30 33 H 2.418008 -0.867848 -1.072732 0
M  V30 34 H 5.426294 0.384019 0.209842 0
M  V30 35 H 4.339621 -0.925848 0.796490 0
M  V30 36 H 4.566652 -0.708992 -0.960778 0
M  V30 37 H 4.379171 1.940852 1.227210 0
M  V30 38 H 3.251487 0.783563 2.028953 0
M  V30 39 H 2.533418 3.112951 2.266333 0
M  V30 40 H 2.741591 2.442089 -1.513604 0
M  V30 41 H 3.079632 4.210815 -3.090676 0
M  V30 42 H 3.093097 6.538030 -2.299055 0
M  V30 43 H 2.760509 7.045140 0.141392 0
M  V30 44 H 2.435133 5.213081 1.637004 0
M  V30 45 H 0.930253 0.586277 2.831522 0
M  V30 46 H -2.596673 0.276168 3.201948 0
M  V30 47 H -5.119554 -3.912534 3.108948 0
M  V30 48 H -2.068126 -2.553234 -0.983907 0
M  V30 49 H -0.975913 -3.620760 -0.040004 0
M  V30 50 H -1.996208 -4.866551 -1.898106 0
M  V30 51 H -3.643582 -4.249463 -1.433916 0
M  V30 52 H -0.789180 -5.778741 0.006627 0
M  V30 53 H -1.542969 -5.301411 1.573936 0
M  V30 54 H -1.540138 -6.992063 1.072962 0
M  V30 55 H -4.293763 -7.221000 -0.871674 0
M  V30 56 H -2.894043 -6.911591 -1.912184 0
M  V30 57 H -2.632956 -7.858633 -0.432864 0
M  V30 58 H -4.956179 -5.233217 0.063815 0
M  V30 59 H -4.253121 -6.160728 1.484783 0
M  V30 60 H -2.140644 2.259166 0.406380 0
M  V30 END ATOM
M  V30 BEGIN BOND
M  V30 1 1 1 2
M  V30 2 1 2 3
M  V30 3 1 2 4
M  V30 4 1 4 5
M  V30 5 1 5 6
M  V30 6 2 6 7
M  V30 7 1 7 8
M  V30 8 2 8 9
M  V30 9 1 9 10
M  V30 10 2 10 11
M  V30 11 1 5 12
M  V30 12 1 12 13
M  V30 13 2 13 14
M  V30 14 1 14 15
M  V30 15 1 15 16
M  V30 16 2 16 17
M  V30 17 1 16 18
M  V30 18 2 18 19
M  V30 19 1 19 20
M  V30 20 1 20 21
M  V30 21 2 21 22
M  V30 22 1 22 23
M  V30 23 1 23 24
M  V30 24 1 24 25
M  V30 25 1 25 26
M  V30 26 1 25 27
M  V30 27 1 25 28
M  V30 28 1 14 29
M  V30 29 2 29 30
M  V30 30 1 11 6
M  V30 31 1 30 12
M  V30 32 1 22 18
M  V30 33 1 28 21
M  V30 34 1 1 31
M  V30 35 1 1 32
M  V30 36 1 1 33
M  V30 37 1 3 34
M  V30 38 1 3 35
M  V30 39 1 3 36
M  V30 40 1 4 37
M  V30 41 1 4 38
M  V30 42 1 5 39 CFG=1
M  V30 43 1 7 40
M  V30 44 1 8 41
M  V30 45 1 9 42
M  V30 46 1 10 43
M  V30 47 1 11 44
M  V30 48 1 13 45
M  V30 49 1 15 46
M  V30 50 1 20 47
M  V30 51 1 23 48
M  V30 52 1 23 49
M  V30 53 1 24 50
M  V30 54 1 24 51
M  V30 55 1 26 52
M  V30 56 1 26 53
M  V30 57 1 26 54
M  V30 58 1 27 55
M  V30 59 1 27 56
M  V30 60 1 27 57
M  V30 61 1 28 58
M  V30 62 1 28 59
M  V30 63 1 29 60
M  V30 END BOND
M  V30 END CTAB
M  END
>  <Dataset>  (97) 
ChEMBL_Kinases

>  <Ligand_Instance>  (97) 
nan

>  <PDB_ID>  (97) 
nan

>  <Standardized_SMILES>  (97) 
CN(C)C[C@@H](c1ccccc1)n1cc(NC(=O)c2n[nH]c3c2CCC(C)(C)C3)cn1

>  <Name>  (97) 
nan

>  <Pocket>  (97) 
nan

>  <ATP_Site>  (97) 
nan

>  <Peripheral>  (97) 
nan

>  <Num_H_Atoms_ProtBoundConf>  (97) 
nan

>  <Num_Resolved_Atoms>  (97) 
nan

>  <Num_Not_Resolved_Atoms>  (97) 
nan

$$$$
CHEMBL3298369
     RDKit          3D

  0  0  0  0  0  0  0  0  0  0999 V3000
M  V30 BEGIN CTAB
M  V30 COUNTS 47 51 0 0 0
M  V30 BEGIN ATOM
M  V30 1 C 0.056863 -5.252967 0.687213 0
M  V30 2 C -0.817223 -5.478376 -0.527128 0
M  V30 3 C 0.022029 -5.648267 -1.745271 0
M  V30 4 C 0.849533 -4.377269 -1.714621 0
M  V30 5 N 2.078661 -4.061775 -2.151078 0
M  V30 6 N 2.301024 -2.798264 -1.848435 0
M  V30 7 C 1.260358 -2.247371 -1.220069 0
M  V30 8 C 1.374725 -0.854818 -0.826275 0
M  V30 9 O 2.394102 -0.178145 -1.116847 0
M  V30 10 N 0.428842 -0.097862 -0.107008 0
M  V30 11 C 0.629336 1.268798 0.233552 0
M  V30 12 C 0.262804 2.358131 -0.529894 0
M  V30 13 N 0.605976 3.496876 0.100107 0
M  V30 14 N 1.184100 3.186298 1.248986 0
M  V30 15 C 1.725672 4.054117 2.279657 0
M  V30 16 C 0.649764 4.371375 3.266411 0
M  V30 17 C 0.508469 3.528245 4.342079 0
M  V30 18 C -0.484627 3.801163 5.274207 0
M  V30 19 C -1.322229 4.906387 5.124746 0
M  V30 20 C -1.184812 5.754909 4.048093 0
M  V30 21 C -0.184966 5.462952 3.128000 0
M  V30 22 C 1.217231 1.827160 1.367512 0
M  V30 23 C 0.310216 -3.227238 -1.116325 0
M  V30 24 C -1.044591 -3.128726 -0.504645 0
M  V30 25 C -1.765159 -4.333735 -0.967583 0
M  V30 26 C -2.217605 -5.506216 -0.311660 0
M  V30 27 H 1.084752 -4.946633 0.465499 0
M  V30 28 H 0.137875 -6.265508 1.173438 0
M  V30 29 H -0.428372 -4.634290 1.469734 0
M  V30 30 H 0.700982 -6.524801 -1.711413 0
M  V30 31 H -0.635312 -5.654303 -2.634407 0
M  V30 32 H 2.687854 -4.755657 -2.636341 0
M  V30 33 H -0.460704 -0.544129 0.200538 0
M  V30 34 H -0.231968 2.265147 -1.499029 0
M  V30 35 H 2.125419 4.994133 1.812623 0
M  V30 36 H 2.560315 3.586573 2.818234 0
M  V30 37 H 1.161268 2.673044 4.451953 0
M  V30 38 H -0.545821 3.092220 6.107658 0
M  V30 39 H -2.085329 5.062215 5.898613 0
M  V30 40 H -1.837193 6.592802 3.956188 0
M  V30 41 H -0.044305 6.099603 2.273895 0
M  V30 42 H 1.623734 1.256179 2.189184 0
M  V30 43 H -1.051200 -2.905182 0.561175 0
M  V30 44 H -1.566995 -2.244475 -0.982605 0
M  V30 45 H -2.031714 -4.257531 -2.057456 0
M  V30 46 H -2.596716 -5.406568 0.718986 0
M  V30 47 H -2.814977 -6.252492 -0.868597 0
M  V30 END ATOM
M  V30 BEGIN BOND
M  V30 1 1 1 2
M  V30 2 1 2 3
M  V30 3 1 3 4
M  V30 4 1 4 5
M  V30 5 1 5 6
M  V30 6 2 6 7
M  V30 7 1 7 8
M  V30 8 2 8 9
M  V30 9 1 8 10
M  V30 10 1 10 11
M  V30 11 1 11 12
M  V30 12 2 12 13
M  V30 13 1 13 14
M  V30 14 1 14 15
M  V30 15 1 15 16
M  V30 16 2 16 17
M  V30 17 1 17 18
M  V30 18 2 18 19
M  V30 19 1 19 20
M  V30 20 2 20 21
M  V30 21 1 14 22
M  V30 22 1 7 23
M  V30 23 1 23 24
M  V30 24 1 24 25
M  V30 25 1 25 26
M  V30 26 1 25 2
M  V30 27 1 26 2
M  V30 28 2 23 4
M  V30 29 2 22 11
M  V30 30 1 21 16
M  V30 31 1 1 27
M  V30 32 1 1 28
M  V30 33 1 1 29
M  V30 34 1 3 30
M  V30 35 1 3 31
M  V30 36 1 5 32
M  V30 37 1 10 33
M  V30 38 1 12 34
M  V30 39 1 15 35
M  V30 40 1 15 36
M  V30 41 1 17 37
M  V30 42 1 18 38
M  V30 43 1 19 39
M  V30 44 1 20 40
M  V30 45 1 21 41
M  V30 46 1 22 42
M  V30 47 1 24 43
M  V30 48 1 24 44
M  V30 49 1 25 45
M  V30 50 1 26 46
M  V30 51 1 26 47
M  V30 END BOND
M  V30 END CTAB
M  END
>  <Dataset>  (98) 
ChEMBL_Kinases

>  <Ligand_Instance>  (98) 
nan

>  <PDB_ID>  (98) 
nan

>  <Standardized_SMILES>  (98) 
CC12Cc3[nH]nc(C(=O)Nc4cnn(Cc5ccccc5)c4)c3CC1C2

>  <Name>  (98) 
nan

>  <Pocket>  (98) 
nan

>  <ATP_Site>  (98) 
nan

>  <Peripheral>  (98) 
nan

>  <Num_H_Atoms_ProtBoundConf>  (98) 
nan

>  <Num_Resolved_Atoms>  (98) 
nan

>  <Num_Not_Resolved_Atoms>  (98) 
nan

$$$$
CHEMBL3298368
     RDKit          3D

  0  0  0  0  0  0  0  0  0  0999 V3000
M  V30 BEGIN CTAB
M  V30 COUNTS 44 48 0 0 0
M  V30 BEGIN ATOM
M  V30 1 O 0.501219 -0.937132 1.120488 0
M  V30 2 C 0.792050 -2.074336 0.711933 0
M  V30 3 N 2.216259 -2.303319 0.736616 0
M  V30 4 C 2.853486 -1.107256 1.240176 0
M  V30 5 C 3.189911 -0.696527 2.514796 0
M  V30 6 N 3.764885 0.512094 2.378046 0
M  V30 7 N 3.802194 0.867715 1.102528 0
M  V30 8 C 4.367552 2.128401 0.637823 0
M  V30 9 C 3.323199 3.188240 0.604478 0
M  V30 10 C 2.584202 3.355522 -0.571471 0
M  V30 11 C 1.580489 4.288906 -0.772046 0
M  V30 12 C 1.300299 5.125512 0.311214 0
M  V30 13 C 2.008619 4.994647 1.496637 0
M  V30 14 C 3.001756 4.049406 1.652194 0
M  V30 15 C 3.245095 -0.112198 0.361633 0
M  V30 16 C -0.151096 -3.095929 0.250592 0
M  V30 17 N 0.004193 -4.342799 -0.210142 0
M  V30 18 N -1.186672 -4.867106 -0.502285 0
M  V30 19 C -2.148468 -3.967562 -0.236461 0
M  V30 20 C -1.506075 -2.834302 0.243673 0
M  V30 21 C -2.369617 -1.694180 0.608439 0
M  V30 22 C -3.441331 -2.209748 1.549869 0
M  V30 23 C -3.315587 -3.515462 2.230710 0
M  V30 24 C -4.160062 -3.388125 1.023722 0
M  V30 25 C -3.647560 -3.870736 -0.317171 0
M  V30 26 H 2.597345 -3.240934 0.410831 0
M  V30 27 H 2.981424 -1.313141 3.379427 0
M  V30 28 H 4.760292 2.031941 -0.389816 0
M  V30 29 H 5.157783 2.459682 1.358833 0
M  V30 30 H 2.818899 2.687576 -1.413925 0
M  V30 31 H 1.080565 4.320091 -1.729693 0
M  V30 32 H 0.514164 5.866931 0.174609 0
M  V30 33 H 1.773418 5.655758 2.324538 0
M  V30 34 H 3.573444 3.915512 2.553046 0
M  V30 35 H 3.139512 -0.091989 -0.719791 0
M  V30 36 H -1.398959 -5.811004 -0.876907 0
M  V30 37 H -1.835946 -0.854963 1.055793 0
M  V30 38 H -2.935846 -1.375073 -0.315302 0
M  V30 39 H -4.013945 -1.386354 2.056366 0
M  V30 40 H -2.350042 -4.083164 2.140349 0
M  V30 41 H -3.829843 -3.665184 3.181795 0
M  V30 42 H -5.265989 -3.372602 1.099040 0
M  V30 43 H -3.862517 -3.070003 -1.051646 0
M  V30 44 H -4.114813 -4.837623 -0.525955 0
M  V30 END ATOM
M  V30 BEGIN BOND
M  V30 1 2 1 2
M  V30 2 1 2 3
M  V30 3 1 3 4
M  V30 4 1 4 5
M  V30 5 2 5 6
M  V30 6 1 6 7
M  V30 7 1 7 8
M  V30 8 1 8 9
M  V30 9 2 9 10
M  V30 10 1 10 11
M  V30 11 2 11 12
M  V30 12 1 12 13
M  V30 13 2 13 14
M  V30 14 1 7 15
M  V30 15 1 2 16
M  V30 16 2 16 17
M  V30 17 1 17 18
M  V30 18 1 18 19
M  V30 19 2 19 20
M  V30 20 1 20 21
M  V30 21 1 21 22
M  V30 22 1 22 23
M  V30 23 1 23 24
M  V30 24 1 24 25
M  V30 25 2 15 4
M  V30 26 1 20 16
M  V30 27 1 24 22
M  V30 28 1 14 9
M  V30 29 1 25 19
M  V30 30 1 3 26
M  V30 31 1 5 27
M  V30 32 1 8 28
M  V30 33 1 8 29
M  V30 34 1 10 30
M  V30 35 1 11 31
M  V30 36 1 12 32
M  V30 37 1 13 33
M  V30 38 1 14 34
M  V30 39 1 15 35
M  V30 40 1 18 36
M  V30 41 1 21 37
M  V30 42 1 21 38
M  V30 43 1 22 39
M  V30 44 1 23 40
M  V30 45 1 23 41
M  V30 46 1 24 42
M  V30 47 1 25 43
M  V30 48 1 25 44
M  V30 END BOND
M  V30 END CTAB
M  END
>  <Dataset>  (99) 
ChEMBL_Kinases

>  <Ligand_Instance>  (99) 
nan

>  <PDB_ID>  (99) 
nan

>  <Standardized_SMILES>  (99) 
O=C(Nc1cnn(Cc2ccccc2)c1)c1n[nH]c2c1CC1CC1C2

>  <Name>  (99) 
nan

>  <Pocket>  (99) 
nan

>  <ATP_Site>  (99) 
nan

>  <Peripheral>  (99) 
nan

>  <Num_H_Atoms_ProtBoundConf>  (99) 
nan

>  <Num_Resolved_Atoms>  (99) 
nan

>  <Num_Not_Resolved_Atoms>  (99) 
nan

$$$$
CHEMBL3298366
     RDKit          3D

  0  0  0  0  0  0  0  0  0  0999 V3000
M  V30 BEGIN CTAB
M  V30 COUNTS 48 52 0 0 0
M  V30 BEGIN ATOM
M  V30 1 O 1.604387 -0.588832 1.667216 0
M  V30 2 C 0.438670 -1.056043 1.657978 0
M  V30 3 N 0.382792 -2.246890 0.886697 0
M  V30 4 C 1.733176 -2.470655 0.396406 0
M  V30 5 C 2.886864 -3.087279 0.806652 0
M  V30 6 N 3.761079 -2.901370 -0.191855 0
M  V30 7 N 3.252591 -2.220250 -1.196737 0
M  V30 8 C 3.952197 -1.870136 -2.418932 0
M  V30 9 C 4.581391 -0.544996 -2.219878 0
M  V30 10 C 3.826734 0.573693 -2.611383 0
M  V30 11 C 4.218449 1.890921 -2.523149 0
M  V30 12 C 5.480412 2.151586 -1.998533 0
M  V30 13 C 6.222943 1.071794 -1.615263 0
M  V30 14 C 5.846029 -0.245766 -1.695717 0
M  V30 15 C 1.957111 -1.917688 -0.874932 0
M  V30 16 C -0.677302 -0.436127 2.354363 0
M  V30 17 N -0.365169 0.682171 3.049697 0
M  V30 18 N -1.443808 1.156113 3.640224 0
M  V30 19 C -2.497763 0.372417 3.357562 0
M  V30 20 C -2.018257 -0.644898 2.538596 0
M  V30 21 C -2.770348 -1.764989 1.950200 0
M  V30 22 C -4.200197 -1.698529 2.442850 0
M  V30 23 C -4.687956 -0.308118 2.632398 0
M  V30 24 C -6.182509 -0.147332 2.768799 0
M  V30 25 O -6.283761 -0.103113 1.380170 0
M  V30 26 C -4.993488 0.477927 1.393969 0
M  V30 27 C -3.945806 0.392586 3.726091 0
M  V30 28 H -0.526304 -2.747429 0.787528 0
M  V30 29 H 2.839327 -3.554604 1.776614 0
M  V30 30 H 4.694296 -2.653596 -2.674005 0
M  V30 31 H 3.170256 -1.766525 -3.197311 0
M  V30 32 H 2.826215 0.409223 -3.026860 0
M  V30 33 H 3.570632 2.692138 -2.849582 0
M  V30 34 H 5.839107 3.152000 -1.905535 0
M  V30 35 H 7.228138 1.221364 -1.194374 0
M  V30 36 H 6.402899 -1.121304 -1.401783 0
M  V30 37 H 1.347226 -1.350231 -1.583599 0
M  V30 38 H -1.486179 2.017072 4.245472 0
M  V30 39 H -2.729724 -1.760139 0.843843 0
M  V30 40 H -2.331380 -2.705404 2.320569 0
M  V30 41 H -4.811343 -2.139685 1.608316 0
M  V30 42 H -4.387134 -2.357108 3.320988 0
M  V30 43 H -6.725587 -0.970832 3.257635 0
M  V30 44 H -6.406245 0.877869 3.160745 0
M  V30 45 H -5.078300 1.557466 1.615659 0
M  V30 46 H -4.401822 0.222293 0.495733 0
M  V30 47 H -4.063342 -0.129916 4.693330 0
M  V30 48 H -4.305172 1.423937 3.897853 0
M  V30 END ATOM
M  V30 BEGIN BOND
M  V30 1 2 1 2
M  V30 2 1 2 3
M  V30 3 1 3 4
M  V30 4 1 4 5
M  V30 5 2 5 6
M  V30 6 1 6 7
M  V30 7 1 7 8
M  V30 8 1 8 9
M  V30 9 2 9 10
M  V30 10 1 10 11
M  V30 11 2 11 12
M  V30 12 1 12 13
M  V30 13 2 13 14
M  V30 14 1 7 15
M  V30 15 1 2 16
M  V30 16 2 16 17
M  V30 17 1 17 18
M  V30 18 1 18 19
M  V30 19 2 19 20
M  V30 20 1 20 21
M  V30 21 1 21 22
M  V30 22 1 22 23
M  V30 23 1 23 24
M  V30 24 1 24 25
M  V30 25 1 25 26
M  V30 26 1 23 27
M  V30 27 2 15 4
M  V30 28 1 20 16
M  V30 29 1 26 23
M  V30 30 1 14 9
M  V30 31 1 27 19
M  V30 32 1 3 28
M  V30 33 1 5 29
M  V30 34 1 8 30
M  V30 35 1 8 31
M  V30 36 1 10 32
M  V30 37 1 11 33
M  V30 38 1 12 34
M  V30 39 1 13 35
M  V30 40 1 14 36
M  V30 41 1 15 37
M  V30 42 1 18 38
M  V30 43 1 21 39
M  V30 44 1 21 40
M  V30 45 1 22 41
M  V30 46 1 22 42
M  V30 47 1 24 43
M  V30 48 1 24 44
M  V30 49 1 26 45
M  V30 50 1 26 46
M  V30 51 1 27 47
M  V30 52 1 27 48
M  V30 END BOND
M  V30 END CTAB
M  END
>  <Dataset>  (100) 
ChEMBL_Kinases

>  <Ligand_Instance>  (100) 
nan

>  <PDB_ID>  (100) 
nan

>  <Standardized_SMILES>  (100) 
O=C(Nc1cnn(Cc2ccccc2)c1)c1n[nH]c2c1CCC1(COC1)C2

>  <Name>  (100) 
nan

>  <Pocket>  (100) 
nan

>  <ATP_Site>  (100) 
nan

>  <Peripheral>  (100) 
nan

>  <Num_H_Atoms_ProtBoundConf>  (100) 
nan

>  <Num_Resolved_Atoms>  (100) 
nan

>  <Num_Not_Resolved_Atoms>  (100) 
nan

$$$$
CHEMBL3298307
     RDKit          3D

  0  0  0  0  0  0  0  0  0  0999 V3000
M  V30 BEGIN CTAB
M  V30 COUNTS 55 58 0 0 0
M  V30 BEGIN ATOM
M  V30 1 O -0.047668 2.448425 2.082075 0
M  V30 2 C 0.339683 1.523649 1.314697 0
M  V30 3 N 1.044293 1.326401 0.094120 0
M  V30 4 C 1.567487 2.437009 -0.663947 0 CFG=2
M  V30 5 C 0.802682 2.489526 -1.963327 0
M  V30 6 O 0.996979 1.270562 -2.652049 0
M  V30 7 C 3.013907 2.444910 -0.829950 0
M  V30 8 C 3.716758 1.296407 -1.177379 0
M  V30 9 C 5.092699 1.361297 -1.321654 0
M  V30 10 C 5.799337 2.533825 -1.131838 0
M  V30 11 F 7.147052 2.566110 -1.280265 0
M  V30 12 C 5.144533 3.698254 -0.786259 0
M  V30 13 Cl 5.954395 5.207292 -0.530524 0
M  V30 14 C 3.774419 3.605751 -0.649086 0
M  V30 15 N -0.206525 0.485938 2.120305 0
M  V30 16 C -0.865591 1.012453 3.303479 0
M  V30 17 C -1.225031 -0.091787 4.274274 0
M  V30 18 C -1.967715 -1.175457 3.577363 0
M  V30 19 C -3.117828 -1.760099 4.033891 0
M  V30 20 N -3.701575 -2.731760 3.317963 0
M  V30 21 C -3.189420 -3.158646 2.149726 0
M  V30 22 N -3.795737 -4.186851 1.377517 0
M  V30 23 C -3.271813 -4.667563 0.125067 0
M  V30 24 C -1.895987 -5.253206 0.217611 0
M  V30 25 C -1.270613 -5.034049 -1.148134 0
M  V30 26 C -1.867744 -3.720298 -1.617699 0
M  V30 27 C -3.210910 -3.578565 -0.924203 0
M  V30 28 N -2.043161 -2.568149 1.705716 0
M  V30 29 C -1.427276 -1.588213 2.397582 0
M  V30 30 C -0.186482 -0.950543 1.915570 0
M  V30 31 H 1.129435 0.319726 -0.169344 0
M  V30 32 H 1.294236 3.362553 -0.094560 0
M  V30 33 H 1.095574 3.290935 -2.643985 0
M  V30 34 H -0.283963 2.598104 -1.773027 0
M  V30 35 H 0.531369 0.531513 -2.206812 0
M  V30 36 H 3.179235 0.370427 -1.329600 0
M  V30 37 H 5.640774 0.453645 -1.595316 0
M  V30 38 H 3.186653 4.495391 -0.374904 0
M  V30 39 H -1.768843 1.613438 3.072270 0
M  V30 40 H -0.172040 1.691779 3.849315 0
M  V30 41 H -0.310037 -0.478817 4.768258 0
M  V30 42 H -1.910112 0.332502 5.036438 0
M  V30 43 H -3.527638 -1.416532 4.971320 0
M  V30 44 H -4.686146 -4.607330 1.771088 0
M  V30 45 H -3.938837 -5.451644 -0.279821 0
M  V30 46 H -1.933795 -6.340397 0.450579 0
M  V30 47 H -1.299417 -4.689195 0.944877 0
M  V30 48 H -1.535220 -5.873725 -1.843674 0
M  V30 49 H -0.170547 -5.005212 -1.053587 0
M  V30 50 H -1.949811 -3.683981 -2.714582 0
M  V30 51 H -1.143565 -2.934845 -1.252682 0
M  V30 52 H -3.240292 -2.564544 -0.479252 0
M  V30 53 H -4.032328 -3.636136 -1.668481 0
M  V30 54 H 0.648445 -1.341103 2.532807 0
M  V30 55 H 0.038805 -1.220113 0.859279 0
M  V30 END ATOM
M  V30 BEGIN BOND
M  V30 1 2 1 2
M  V30 2 1 2 3
M  V30 3 1 3 4
M  V30 4 1 4 5
M  V30 5 1 5 6
M  V30 6 1 4 7
M  V30 7 2 7 8
M  V30 8 1 8 9
M  V30 9 2 9 10
M  V30 10 1 10 11
M  V30 11 1 10 12
M  V30 12 1 12 13
M  V30 13 2 12 14
M  V30 14 1 2 15
M  V30 15 1 15 16
M  V30 16 1 16 17
M  V30 17 1 17 18
M  V30 18 2 18 19
M  V30 19 1 19 20
M  V30 20 2 20 21
M  V30 21 1 21 22
M  V30 22 1 22 23
M  V30 23 1 23 24
M  V30 24 1 24 25
M  V30 25 1 25 26
M  V30 26 1 26 27
M  V30 27 1 21 28
M  V30 28 2 28 29
M  V30 29 1 29 30
M  V30 30 1 14 7
M  V30 31 1 30 15
M  V30 32 1 29 18
M  V30 33 1 27 23
M  V30 34 1 3 31
M  V30 35 1 4 32 CFG=1
M  V30 36 1 5 33
M  V30 37 1 5 34
M  V30 38 1 6 35
M  V30 39 1 8 36
M  V30 40 1 9 37
M  V30 41 1 14 38
M  V30 42 1 16 39
M  V30 43 1 16 40
M  V30 44 1 17 41
M  V30 45 1 17 42
M  V30 46 1 19 43
M  V30 47 1 22 44
M  V30 48 1 23 45
M  V30 49 1 24 46
M  V30 50 1 24 47
M  V30 51 1 25 48
M  V30 52 1 25 49
M  V30 53 1 26 50
M  V30 54 1 26 51
M  V30 55 1 27 52
M  V30 56 1 27 53
M  V30 57 1 30 54
M  V30 58 1 30 55
M  V30 END BOND
M  V30 END CTAB
M  END
>  <Dataset>  (101) 
ChEMBL_Kinases

>  <Ligand_Instance>  (101) 
nan

>  <PDB_ID>  (101) 
nan

>  <Standardized_SMILES>  (101) 
O=C(N[C@H](CO)c1ccc(F)c(Cl)c1)N1CCc2cnc(NC3CCCC3)nc2C1

>  <Name>  (101) 
nan

>  <Pocket>  (101) 
nan

>  <ATP_Site>  (101) 
nan

>  <Peripheral>  (101) 
nan

>  <Num_H_Atoms_ProtBoundConf>  (101) 
nan

>  <Num_Resolved_Atoms>  (101) 
nan

>  <Num_Not_Resolved_Atoms>  (101) 
nan

$$$$
CHEMBL3298306
     RDKit          3D

  0  0  0  0  0  0  0  0  0  0999 V3000
M  V30 BEGIN CTAB
M  V30 COUNTS 49 51 0 0 0
M  V30 BEGIN ATOM
M  V30 1 O 2.545658 -0.920366 -1.094681 0
M  V30 2 C 1.907719 -1.168538 -0.051573 0
M  V30 3 N 2.660698 -0.842735 1.108286 0
M  V30 4 C 3.969731 -0.301448 1.298980 0 CFG=2
M  V30 5 C 4.892844 -1.151864 2.122062 0
M  V30 6 O 4.312394 -1.307093 3.370395 0
M  V30 7 C 3.789506 1.018424 1.972695 0
M  V30 8 C 4.498851 1.512882 3.044679 0
M  V30 9 C 4.245630 2.737439 3.578951 0
M  V30 10 C 3.245189 3.508735 3.028240 0
M  V30 11 F 2.906739 4.731889 3.471645 0
M  V30 12 C 2.507686 3.056178 1.953976 0
M  V30 13 Cl 1.221505 4.024209 1.230515 0
M  V30 14 C 2.773489 1.802517 1.413932 0
M  V30 15 N 0.583995 -1.710655 0.137813 0
M  V30 16 C -0.124864 -1.985025 1.397539 0
M  V30 17 C -0.843946 -3.314266 1.124187 0
M  V30 18 C -1.993711 -2.911655 0.247249 0
M  V30 19 C -3.306932 -3.187838 0.568425 0
M  V30 20 N -4.219069 -2.758554 -0.324736 0
M  V30 21 C -3.846821 -2.100302 -1.458063 0
M  V30 22 N -4.859035 -1.669167 -2.367981 0
M  V30 23 C -5.335081 -0.316513 -2.054168 0
M  V30 24 C -5.916718 -0.308310 -0.644564 0
M  V30 25 O -6.360962 0.973496 -0.363889 0
M  V30 26 N -2.541126 -1.835726 -1.759380 0
M  V30 27 C -1.563353 -2.243207 -0.896656 0
M  V30 28 C -0.110941 -2.013907 -1.115065 0
M  V30 29 H 2.274062 -0.988358 2.088200 0
M  V30 30 H 4.469173 -0.109825 0.321202 0
M  V30 31 H 5.863040 -0.613842 2.161974 0
M  V30 32 H 5.123185 -2.103217 1.611063 0
M  V30 33 H 3.769623 -2.105509 3.464237 0
M  V30 34 H 5.254333 0.870858 3.421559 0
M  V30 35 H 4.802796 3.114231 4.413352 0
M  V30 36 H 2.174301 1.468877 0.563417 0
M  V30 37 H 0.560037 -2.083386 2.246908 0
M  V30 38 H -0.890580 -1.192465 1.527759 0
M  V30 39 H -0.188058 -3.958741 0.517374 0
M  V30 40 H -1.151600 -3.771950 2.064487 0
M  V30 41 H -3.536483 -3.714649 1.484556 0
M  V30 42 H -5.189172 -2.289355 -3.155486 0
M  V30 43 H -4.438538 0.344290 -1.991235 0
M  V30 44 H -6.001860 0.096869 -2.808956 0
M  V30 45 H -5.093063 -0.565727 0.046168 0
M  V30 46 H -6.711712 -1.074595 -0.589047 0
M  V30 47 H -5.837345 1.397859 0.358948 0
M  V30 48 H 0.024504 -1.200854 -1.847339 0
M  V30 49 H 0.277189 -2.946564 -1.592352 0
M  V30 END ATOM
M  V30 BEGIN BOND
M  V30 1 2 1 2
M  V30 2 1 2 3
M  V30 3 1 3 4
M  V30 4 1 4 5
M  V30 5 1 5 6
M  V30 6 1 4 7
M  V30 7 2 7 8
M  V30 8 1 8 9
M  V30 9 2 9 10
M  V30 10 1 10 11
M  V30 11 1 10 12
M  V30 12 1 12 13
M  V30 13 2 12 14
M  V30 14 1 2 15
M  V30 15 1 15 16
M  V30 16 1 16 17
M  V30 17 1 17 18
M  V30 18 2 18 19
M  V30 19 1 19 20
M  V30 20 2 20 21
M  V30 21 1 21 22
M  V30 22 1 22 23
M  V30 23 1 23 24
M  V30 24 1 24 25
M  V30 25 1 21 26
M  V30 26 2 26 27
M  V30 27 1 27 28
M  V30 28 1 14 7
M  V30 29 1 28 15
M  V30 30 1 27 18
M  V30 31 1 3 29
M  V30 32 1 4 30 CFG=3
M  V30 33 1 5 31
M  V30 34 1 5 32
M  V30 35 1 6 33
M  V30 36 1 8 34
M  V30 37 1 9 35
M  V30 38 1 14 36
M  V30 39 1 16 37
M  V30 40 1 16 38
M  V30 41 1 17 39
M  V30 42 1 17 40
M  V30 43 1 19 41
M  V30 44 1 22 42
M  V30 45 1 23 43
M  V30 46 1 23 44
M  V30 47 1 24 45
M  V30 48 1 24 46
M  V30 49 1 25 47
M  V30 50 1 28 48
M  V30 51 1 28 49
M  V30 END BOND
M  V30 END CTAB
M  END
>  <Dataset>  (102) 
ChEMBL_Kinases

>  <Ligand_Instance>  (102) 
nan

>  <PDB_ID>  (102) 
nan

>  <Standardized_SMILES>  (102) 
O=C(N[C@H](CO)c1ccc(F)c(Cl)c1)N1CCc2cnc(NCCO)nc2C1

>  <Name>  (102) 
nan

>  <Pocket>  (102) 
nan

>  <ATP_Site>  (102) 
nan

>  <Peripheral>  (102) 
nan

>  <Num_H_Atoms_ProtBoundConf>  (102) 
nan

>  <Num_Resolved_Atoms>  (102) 
nan

>  <Num_Not_Resolved_Atoms>  (102) 
nan

$$$$
CHEMBL3298404
     RDKit          3D

  0  0  0  0  0  0  0  0  0  0999 V3000
M  V30 BEGIN CTAB
M  V30 COUNTS 50 52 0 0 0
M  V30 BEGIN ATOM
M  V30 1 C 2.605035 -3.177358 4.136827 0
M  V30 2 C 2.011538 -2.079160 3.210329 0
M  V30 3 C 0.850096 -1.509332 3.988960 0
M  V30 4 C 1.545582 -2.764924 1.969151 0
M  V30 5 C 3.077423 -1.083221 2.935738 0
M  V30 6 N 2.714368 0.025313 2.120920 0
M  V30 7 C 2.278428 0.316946 0.826777 0
M  V30 8 O 2.117770 -0.582670 0.009113 0
M  V30 9 C 1.976017 1.654771 0.314483 0
M  V30 10 C 1.447945 1.593642 -1.126611 0
M  V30 11 C 1.197087 3.062668 -1.514582 0
M  V30 12 N 0.420175 3.627093 -0.428636 0
M  V30 13 C -0.910891 3.083670 -0.281749 0
M  V30 14 O -1.887472 3.801593 0.133730 0
M  V30 15 C -0.990002 1.652381 -0.656884 0
M  V30 16 C -2.118941 0.858212 -0.679399 0
M  V30 17 C -1.665985 -0.378652 -1.152880 0
M  V30 18 C -2.606113 -1.478536 -1.308346 0
M  V30 19 C -3.521369 -1.733955 -0.286413 0
M  V30 20 C -4.455421 -2.744478 -0.322529 0
M  V30 21 C -4.479300 -3.546996 -1.441093 0
M  V30 22 C -3.574072 -3.295268 -2.453118 0
M  V30 23 C -2.633074 -2.284558 -2.427273 0
M  V30 24 F -1.756270 -2.053545 -3.425935 0
M  V30 25 C -0.306736 -0.214812 -1.370846 0
M  V30 26 N 0.114954 1.011998 -1.072355 0
M  V30 27 H 2.033931 -4.105811 3.984358 0
M  V30 28 H 3.668448 -3.345004 3.877979 0
M  V30 29 H 2.457424 -2.863304 5.190194 0
M  V30 30 H 1.176654 -0.779451 4.751972 0
M  V30 31 H 0.174426 -1.025921 3.235312 0
M  V30 32 H 0.301877 -2.311713 4.526474 0
M  V30 33 H 0.701532 -2.240558 1.520505 0
M  V30 34 H 1.137006 -3.787108 2.228646 0
M  V30 35 H 2.369064 -2.902704 1.271399 0
M  V30 36 H 3.978416 -1.600047 2.455168 0
M  V30 37 H 3.457687 -0.731197 3.915442 0
M  V30 38 H 2.788878 0.960402 2.646948 0
M  V30 39 H 2.839756 2.360857 0.374604 0
M  V30 40 H 1.209913 2.093281 0.985453 0
M  V30 41 H 2.105097 1.073748 -1.809576 0
M  V30 42 H 2.167734 3.585975 -1.644971 0
M  V30 43 H 0.583616 3.077954 -2.428273 0
M  V30 44 H 0.714062 4.378686 0.250580 0
M  V30 45 H -3.119118 1.150598 -0.390391 0
M  V30 46 H -3.496538 -1.093173 0.597962 0
M  V30 47 H -5.133057 -2.878507 0.513339 0
M  V30 48 H -5.204483 -4.358587 -1.508045 0
M  V30 49 H -3.619879 -3.948500 -3.323565 0
M  V30 50 H 0.158304 -1.112176 -1.749630 0
M  V30 END ATOM
M  V30 BEGIN BOND
M  V30 1 1 1 2
M  V30 2 1 2 3
M  V30 3 1 2 4
M  V30 4 1 2 5
M  V30 5 1 5 6
M  V30 6 1 6 7
M  V30 7 2 7 8
M  V30 8 1 7 9
M  V30 9 1 9 10
M  V30 10 1 10 11
M  V30 11 1 11 12
M  V30 12 1 12 13
M  V30 13 2 13 14
M  V30 14 1 13 15
M  V30 15 2 15 16
M  V30 16 1 16 17
M  V30 17 1 17 18
M  V30 18 2 18 19
M  V30 19 1 19 20
M  V30 20 2 20 21
M  V30 21 1 21 22
M  V30 22 2 22 23
M  V30 23 1 23 24
M  V30 24 2 17 25
M  V30 25 1 25 26
M  V30 26 1 26 10
M  V30 27 1 26 15
M  V30 28 1 23 18
M  V30 29 1 1 27
M  V30 30 1 1 28
M  V30 31 1 1 29
M  V30 32 1 3 30
M  V30 33 1 3 31
M  V30 34 1 3 32
M  V30 35 1 4 33
M  V30 36 1 4 34
M  V30 37 1 4 35
M  V30 38 1 5 36
M  V30 39 1 5 37
M  V30 40 1 6 38
M  V30 41 1 9 39
M  V30 42 1 9 40
M  V30 43 1 10 41
M  V30 44 1 11 42
M  V30 45 1 11 43
M  V30 46 1 12 44
M  V30 47 1 16 45
M  V30 48 1 19 46
M  V30 49 1 20 47
M  V30 50 1 21 48
M  V30 51 1 22 49
M  V30 52 1 25 50
M  V30 END BOND
M  V30 END CTAB
M  END
>  <Dataset>  (103) 
ChEMBL_Kinases

>  <Ligand_Instance>  (103) 
nan

>  <PDB_ID>  (103) 
nan

>  <Standardized_SMILES>  (103) 
CC(C)(C)CNC(=O)CC1CNC(=O)c2cc(-c3ccccc3F)cn21

>  <Name>  (103) 
nan

>  <Pocket>  (103) 
nan

>  <ATP_Site>  (103) 
nan

>  <Peripheral>  (103) 
nan

>  <Num_H_Atoms_ProtBoundConf>  (103) 
nan

>  <Num_Resolved_Atoms>  (103) 
nan

>  <Num_Not_Resolved_Atoms>  (103) 
nan

$$$$
CHEMBL3310277
     RDKit          3D

  0  0  0  0  0  0  0  0  0  0999 V3000
M  V30 BEGIN CTAB
M  V30 COUNTS 42 45 0 0 0
M  V30 BEGIN ATOM
M  V30 1 N -0.913571 -4.190123 3.040471 0
M  V30 2 C -0.402337 -4.026426 2.003683 0
M  V30 3 C 0.255251 -3.817907 0.690957 0
M  V30 4 C 0.474178 -2.413921 0.265969 0
M  V30 5 C 0.365692 -1.964813 -1.026917 0
M  V30 6 C 0.599672 -0.628074 -1.270653 0
M  V30 7 C 0.474421 -0.174762 -2.680150 0
M  V30 8 C -0.931835 0.270343 -3.003496 0
M  V30 9 O -1.305107 1.328063 -2.180487 0
M  V30 10 C 0.934727 0.212040 -0.204674 0
M  V30 11 C 1.046837 -0.238935 1.116847 0
M  V30 12 C 1.442760 0.871554 1.964242 0
M  V30 13 C 2.738194 1.328344 1.664404 0
M  V30 14 C 3.359299 2.352792 2.349951 0
M  V30 15 N 2.657957 2.935639 3.366068 0
M  V30 16 C 1.427128 2.530018 3.678481 0
M  V30 17 N 0.486148 2.895367 4.574405 0
M  V30 18 N -0.597540 2.169722 4.448459 0
M  V30 19 C -0.457910 1.249504 3.442244 0
M  V30 20 C -1.446147 0.238259 3.007612 0
M  V30 21 F -1.732237 0.305960 1.651000 0
M  V30 22 F -2.671267 0.694627 3.584753 0
M  V30 23 F -1.292124 -1.003361 3.516179 0
M  V30 24 C 0.816832 1.506811 2.988689 0
M  V30 25 C 0.803857 -1.581770 1.305769 0
M  V30 26 C -0.102793 -4.831171 -0.320844 0
M  V30 27 C 1.262622 -4.882365 0.351171 0
M  V30 28 H 0.106074 -2.659009 -1.794264 0
M  V30 29 H 1.211272 0.627672 -2.810668 0
M  V30 30 H 0.761728 -0.995179 -3.343749 0
M  V30 31 H -1.643763 -0.555427 -3.050946 0
M  V30 32 H -0.895091 0.703681 -4.035302 0
M  V30 33 H -1.986321 1.869810 -2.621256 0
M  V30 34 H 1.085644 1.235275 -0.573970 0
M  V30 35 H 3.370798 0.915751 0.863450 0
M  V30 36 H 4.339812 2.706596 2.131998 0
M  V30 37 H 0.575923 3.652004 5.288241 0
M  V30 38 H 0.931237 -1.815625 2.355809 0
M  V30 39 H -0.822777 -5.640585 -0.068673 0
M  V30 40 H -0.059227 -4.655851 -1.412264 0
M  V30 41 H 2.153567 -4.603152 -0.274618 0
M  V30 42 H 1.443309 -5.713924 1.053791 0
M  V30 END ATOM
M  V30 BEGIN BOND
M  V30 1 3 1 2
M  V30 2 1 2 3
M  V30 3 1 3 4
M  V30 4 2 4 5
M  V30 5 1 5 6
M  V30 6 1 6 7
M  V30 7 1 7 8
M  V30 8 1 8 9
M  V30 9 2 6 10
M  V30 10 1 10 11
M  V30 11 1 11 12
M  V30 12 2 12 13
M  V30 13 1 13 14
M  V30 14 2 14 15
M  V30 15 1 15 16
M  V30 16 1 16 17
M  V30 17 1 17 18
M  V30 18 2 18 19
M  V30 19 1 19 20
M  V30 20 1 20 21
M  V30 21 1 20 22
M  V30 22 1 20 23
M  V30 23 1 19 24
M  V30 24 2 11 25
M  V30 25 1 3 26
M  V30 26 1 26 27
M  V30 27 1 27 3
M  V30 28 1 25 4
M  V30 29 1 24 12
M  V30 30 2 24 16
M  V30 31 1 5 28
M  V30 32 1 7 29
M  V30 33 1 7 30
M  V30 34 1 8 31
M  V30 35 1 8 32
M  V30 36 1 9 33
M  V30 37 1 10 34
M  V30 38 1 13 35
M  V30 39 1 14 36
M  V30 40 1 17 37
M  V30 41 1 25 38
M  V30 42 1 26 39
M  V30 43 1 26 40
M  V30 44 1 27 41
M  V30 45 1 27 42
M  V30 END BOND
M  V30 END CTAB
M  END
>  <Dataset>  (104) 
ChEMBL_Kinases

>  <Ligand_Instance>  (104) 
nan

>  <PDB_ID>  (104) 
nan

>  <Standardized_SMILES>  (104) 
N#CC1(c2cc(CCO)cc(-c3ccnc4[nH]nc(C(F)(F)F)c34)c2)CC1

>  <Name>  (104) 
nan

>  <Pocket>  (104) 
nan

>  <ATP_Site>  (104) 
nan

>  <Peripheral>  (104) 
nan

>  <Num_H_Atoms_ProtBoundConf>  (104) 
nan

>  <Num_Resolved_Atoms>  (104) 
nan

>  <Num_Not_Resolved_Atoms>  (104) 
nan

$$$$
CHEMBL3310276
     RDKit          3D

  0  0  0  0  0  0  0  0  0  0999 V3000
M  V30 BEGIN CTAB
M  V30 COUNTS 49 52 0 0 0
M  V30 BEGIN ATOM
M  V30 1 C -1.213533 -6.044246 -3.202126 0
M  V30 2 C -1.130279 -5.780782 -1.735011 0
M  V30 3 C -0.721929 -4.526376 -1.333191 0
M  V30 4 C -0.602222 -4.146004 0.011878 0
M  V30 5 C -0.165190 -2.816570 0.413636 0
M  V30 6 N 1.141261 -2.503100 0.659088 0
M  V30 7 O 1.226953 -1.249738 0.984931 0
M  V30 8 C 0.018061 -0.699713 0.968997 0
M  V30 9 N -0.115417 0.677637 1.298108 0
M  V30 10 C 1.001449 1.468514 1.663782 0
M  V30 11 O 2.176143 0.962563 1.710084 0
M  V30 12 C 0.829522 2.904970 2.002226 0
M  V30 13 C 2.089443 3.551678 2.374277 0
M  V30 14 C 2.299229 3.797099 3.721798 0
M  V30 15 C 3.431408 4.396329 4.219081 0
M  V30 16 C 4.415847 4.773048 3.303161 0
M  V30 17 C 4.258330 4.550058 1.929894 0
M  V30 18 C 3.078654 3.934675 1.496222 0
M  V30 19 C 2.899043 3.692477 0.045009 0
M  V30 20 C -0.891028 -1.663074 0.611359 0
M  V30 21 C -2.292186 -1.447907 0.487448 0
M  V30 22 C -3.276201 -2.349654 0.149796 0
M  V30 23 C -4.608544 -2.100504 0.049983 0
M  V30 24 N -5.022175 -0.836053 0.307707 0
M  V30 25 C -4.106955 0.086800 0.642354 0
M  V30 26 N -2.810429 -0.230327 0.721215 0
M  V30 27 C -0.913901 -5.090519 0.989955 0
M  V30 28 C -1.325796 -6.355713 0.582049 0
M  V30 29 C -1.441613 -6.723809 -0.747694 0
M  V30 30 F -1.833871 -7.928683 -1.180653 0
M  V30 31 H -0.218189 -6.280385 -3.616315 0
M  V30 32 H -1.939309 -6.874752 -3.383623 0
M  V30 33 H -1.651402 -5.104406 -3.635279 0
M  V30 34 H -0.474342 -3.775086 -2.062255 0
M  V30 35 H -1.047095 1.192662 1.290736 0
M  V30 36 H 0.062424 3.012093 2.785007 0
M  V30 37 H 0.407666 3.460434 1.116078 0
M  V30 38 H 1.532920 3.506568 4.457729 0
M  V30 39 H 3.549493 4.567396 5.282551 0
M  V30 40 H 5.324453 5.251861 3.682052 0
M  V30 41 H 5.033246 4.849852 1.239423 0
M  V30 42 H 1.853165 3.648596 -0.286234 0
M  V30 43 H 3.460733 4.501719 -0.483675 0
M  V30 44 H 3.381728 2.722533 -0.262385 0
M  V30 45 H -2.974427 -3.360491 -0.054687 0
M  V30 46 H -5.329514 -2.867717 -0.223503 0
M  V30 47 H -4.350324 1.125020 0.865422 0
M  V30 48 H -0.850461 -4.884821 2.060661 0
M  V30 49 H -1.571940 -7.101602 1.328532 0
M  V30 END ATOM
M  V30 BEGIN BOND
M  V30 1 1 1 2
M  V30 2 2 2 3
M  V30 3 1 3 4
M  V30 4 1 4 5
M  V30 5 2 5 6
M  V30 6 1 6 7
M  V30 7 1 7 8
M  V30 8 1 8 9
M  V30 9 1 9 10
M  V30 10 2 10 11
M  V30 11 1 10 12
M  V30 12 1 12 13
M  V30 13 2 13 14
M  V30 14 1 14 15
M  V30 15 2 15 16
M  V30 16 1 16 17
M  V30 17 2 17 18
M  V30 18 1 18 19
M  V30 19 2 8 20
M  V30 20 1 20 21
M  V30 21 2 21 22
M  V30 22 1 22 23
M  V30 23 2 23 24
M  V30 24 1 24 25
M  V30 25 2 25 26
M  V30 26 2 4 27
M  V30 27 1 27 28
M  V30 28 2 28 29
M  V30 29 1 29 30
M  V30 30 1 29 2
M  V30 31 1 20 5
M  V30 32 1 26 21
M  V30 33 1 18 13
M  V30 34 1 1 31
M  V30 35 1 1 32
M  V30 36 1 1 33
M  V30 37 1 3 34
M  V30 38 1 9 35
M  V30 39 1 12 36
M  V30 40 1 12 37
M  V30 41 1 14 38
M  V30 42 1 15 39
M  V30 43 1 16 40
M  V30 44 1 17 41
M  V30 45 1 19 42
M  V30 46 1 19 43
M  V30 47 1 19 44
M  V30 48 1 22 45
M  V30 49 1 23 46
M  V30 50 1 25 47
M  V30 51 1 27 48
M  V30 52 1 28 49
M  V30 END BOND
M  V30 END CTAB
M  END
>  <Dataset>  (105) 
ChEMBL_Kinases

>  <Ligand_Instance>  (105) 
nan

>  <PDB_ID>  (105) 
nan

>  <Standardized_SMILES>  (105) 
Cc1cc(-c2noc(NC(=O)Cc3ccccc3C)c2-c2ccncn2)ccc1F

>  <Name>  (105) 
nan

>  <Pocket>  (105) 
nan

>  <ATP_Site>  (105) 
nan

>  <Peripheral>  (105) 
nan

>  <Num_H_Atoms_ProtBoundConf>  (105) 
nan

>  <Num_Resolved_Atoms>  (105) 
nan

>  <Num_Not_Resolved_Atoms>  (105) 
nan

$$$$
CHEMBL3310149
     RDKit          3D

  0  0  0  0  0  0  0  0  0  0999 V3000
M  V30 BEGIN CTAB
M  V30 COUNTS 46 49 0 0 0
M  V30 BEGIN ATOM
M  V30 1 C -1.065079 -3.542026 4.319946 0
M  V30 2 C 0.004575 -3.890656 3.334312 0
M  V30 3 C 0.511928 -5.187170 3.367109 0
M  V30 4 C 1.491272 -5.466292 2.450963 0
M  V30 5 C 1.974547 -4.554333 1.536451 0
M  V30 6 C 1.441720 -3.259881 1.531399 0
M  V30 7 C 1.825503 -2.162827 0.642948 0
M  V30 8 N 3.060922 -1.603958 0.644768 0
M  V30 9 O 3.127341 -0.653121 -0.235782 0
M  V30 10 C 1.938441 -0.588167 -0.813724 0
M  V30 11 N 1.676749 0.360600 -1.833265 0
M  V30 12 C 1.230176 1.560434 -1.214421 0
M  V30 13 O 1.051100 1.863945 0.015705 0
M  V30 14 C 0.785584 2.922177 -1.529576 0
M  V30 15 C 0.477836 3.562417 -0.199369 0
M  V30 16 C 1.348852 4.473962 0.390593 0
M  V30 17 C 1.006868 5.025191 1.619451 0
M  V30 18 C -0.175258 4.696501 2.278045 0
M  V30 19 C -1.040257 3.780247 1.674398 0
M  V30 20 C -0.712294 3.225026 0.453216 0
M  V30 21 Cl -1.838296 2.083630 -0.252147 0
M  V30 22 C 1.060827 -1.519989 -0.304510 0
M  V30 23 C -0.309114 -1.810141 -0.652138 0
M  V30 24 C -1.063111 -1.192783 -1.618746 0
M  V30 25 C -2.370487 -1.487666 -1.941961 0
M  V30 26 N -2.945761 -2.491929 -1.217856 0
M  V30 27 C -2.246882 -3.120109 -0.266935 0
M  V30 28 N -0.965093 -2.795897 0.015430 0
M  V30 29 C 0.438641 -2.926254 2.448704 0
M  V30 30 H -0.635694 -2.840379 5.034375 0
M  V30 31 H -1.879658 -2.993632 3.795391 0
M  V30 32 H -1.462025 -4.443810 4.811981 0
M  V30 33 H 0.144829 -5.898692 4.070223 0
M  V30 34 H 1.945987 -6.451049 2.402660 0
M  V30 35 H 2.744175 -4.732200 0.798437 0
M  V30 36 H 1.652660 0.612598 -2.842088 0
M  V30 37 H 1.491606 3.542024 -2.081471 0
M  V30 38 H -0.173261 2.951263 -2.110592 0
M  V30 39 H 2.272469 4.741077 -0.107591 0
M  V30 40 H 1.646463 5.738492 2.122272 0
M  V30 41 H -0.442287 5.126086 3.235863 0
M  V30 42 H -1.956663 3.528075 2.189474 0
M  V30 43 H -0.605458 -0.408098 -2.186234 0
M  V30 44 H -2.885825 -0.941182 -2.726316 0
M  V30 45 H -2.668446 -3.922062 0.327783 0
M  V30 46 H -0.021828 -1.955912 2.510726 0
M  V30 END ATOM
M  V30 BEGIN BOND
M  V30 1 1 1 2
M  V30 2 2 2 3
M  V30 3 1 3 4
M  V30 4 2 4 5
M  V30 5 1 5 6
M  V30 6 1 6 7
M  V30 7 2 7 8
M  V30 8 1 8 9
M  V30 9 1 9 10
M  V30 10 1 10 11
M  V30 11 1 11 12
M  V30 12 2 12 13
M  V30 13 1 12 14
M  V30 14 1 14 15
M  V30 15 2 15 16
M  V30 16 1 16 17
M  V30 17 2 17 18
M  V30 18 1 18 19
M  V30 19 2 19 20
M  V30 20 1 20 21
M  V30 21 2 10 22
M  V30 22 1 22 23
M  V30 23 2 23 24
M  V30 24 1 24 25
M  V30 25 2 25 26
M  V30 26 1 26 27
M  V30 27 2 27 28
M  V30 28 2 6 29
M  V30 29 1 29 2
M  V30 30 1 22 7
M  V30 31 1 28 23
M  V30 32 1 20 15
M  V30 33 1 1 30
M  V30 34 1 1 31
M  V30 35 1 1 32
M  V30 36 1 3 33
M  V30 37 1 4 34
M  V30 38 1 5 35
M  V30 39 1 11 36
M  V30 40 1 14 37
M  V30 41 1 14 38
M  V30 42 1 16 39
M  V30 43 1 17 40
M  V30 44 1 18 41
M  V30 45 1 19 42
M  V30 46 1 24 43
M  V30 47 1 25 44
M  V30 48 1 27 45
M  V30 49 1 29 46
M  V30 END BOND
M  V30 END CTAB
M  END
>  <Dataset>  (106) 
ChEMBL_Kinases

>  <Ligand_Instance>  (106) 
nan

>  <PDB_ID>  (106) 
nan

>  <Standardized_SMILES>  (106) 
Cc1cccc(-c2noc(NC(=O)Cc3ccccc3Cl)c2-c2ccncn2)c1

>  <Name>  (106) 
nan

>  <Pocket>  (106) 
nan

>  <ATP_Site>  (106) 
nan

>  <Peripheral>  (106) 
nan

>  <Num_H_Atoms_ProtBoundConf>  (106) 
nan

>  <Num_Resolved_Atoms>  (106) 
nan

>  <Num_Not_Resolved_Atoms>  (106) 
nan

$$$$
CHEMBL3310148
     RDKit          3D

  0  0  0  0  0  0  0  0  0  0999 V3000
M  V30 BEGIN CTAB
M  V30 COUNTS 43 46 0 0 0
M  V30 BEGIN ATOM
M  V30 1 O 2.969521 -0.258415 1.666956 0
M  V30 2 C 2.508118 -0.467678 0.507006 0
M  V30 3 C 3.566582 -1.012816 -0.375278 0
M  V30 4 C 4.746194 -0.086201 -0.491709 0
M  V30 5 C 4.716781 0.773180 -1.591022 0
M  V30 6 C 5.767480 1.676104 -1.791277 0
M  V30 7 C 6.808810 1.688779 -0.887841 0
M  V30 8 C 6.846987 0.843945 0.201278 0
M  V30 9 C 5.798334 -0.054899 0.398275 0
M  V30 10 N 1.200035 -0.256489 0.000313 0
M  V30 11 C -0.041710 0.219712 0.498684 0
M  V30 12 O -0.309778 1.505658 0.476824 0
M  V30 13 N -1.513393 1.695969 0.988368 0
M  V30 14 C -2.009217 0.472639 1.341030 0
M  V30 15 C -3.316214 0.270838 1.937209 0
M  V30 16 C -4.337298 0.060521 0.995502 0
M  V30 17 Cl -4.027265 0.033157 -0.740665 0
M  V30 18 C -5.621587 -0.129511 1.457290 0
M  V30 19 C -5.936986 -0.121380 2.788276 0
M  V30 20 C -4.917827 0.088130 3.716772 0
M  V30 21 C -3.598912 0.285791 3.293632 0
M  V30 22 Cl -2.257463 0.555380 4.369076 0
M  V30 23 C -1.101604 -0.513643 1.047299 0
M  V30 24 C -1.074187 -1.960465 1.190251 0
M  V30 25 C -2.115521 -2.681631 1.721464 0
M  V30 26 C -1.922544 -4.043547 1.777697 0
M  V30 27 N -0.831055 -4.690804 1.366514 0
M  V30 28 C 0.172949 -3.917750 0.846331 0
M  V30 29 N 0.023981 -2.588665 0.774036 0
M  V30 30 H 3.920465 -2.018328 0.005946 0
M  V30 31 H 3.143264 -1.214115 -1.363483 0
M  V30 32 H 3.887422 0.749170 -2.292927 0
M  V30 33 H 5.771369 2.352546 -2.634237 0
M  V30 34 H 7.648943 2.374831 -1.002593 0
M  V30 35 H 7.673354 0.871888 0.895813 0
M  V30 36 H 5.773809 -0.743863 1.238333 0
M  V30 37 H 1.049753 -0.502818 -1.016599 0
M  V30 38 H -6.482333 -0.300538 0.795774 0
M  V30 39 H -6.912036 -0.261486 3.229376 0
M  V30 40 H -5.052990 0.114347 4.808681 0
M  V30 41 H -3.017331 -2.222218 2.071086 0
M  V30 42 H -2.730500 -4.649047 2.193169 0
M  V30 43 H 1.108565 -4.315661 0.478157 0
M  V30 END ATOM
M  V30 BEGIN BOND
M  V30 1 2 1 2
M  V30 2 1 2 3
M  V30 3 1 3 4
M  V30 4 2 4 5
M  V30 5 1 5 6
M  V30 6 2 6 7
M  V30 7 1 7 8
M  V30 8 2 8 9
M  V30 9 1 2 10
M  V30 10 1 10 11
M  V30 11 1 11 12
M  V30 12 1 12 13
M  V30 13 2 13 14
M  V30 14 1 14 15
M  V30 15 2 15 16
M  V30 16 1 16 17
M  V30 17 1 16 18
M  V30 18 2 18 19
M  V30 19 1 19 20
M  V30 20 2 20 21
M  V30 21 1 21 22
M  V30 22 1 14 23
M  V30 23 1 23 24
M  V30 24 2 24 25
M  V30 25 1 25 26
M  V30 26 2 26 27
M  V30 27 1 27 28
M  V30 28 2 28 29
M  V30 29 1 9 4
M  V30 30 2 23 11
M  V30 31 1 29 24
M  V30 32 1 21 15
M  V30 33 1 3 30
M  V30 34 1 3 31
M  V30 35 1 5 32
M  V30 36 1 6 33
M  V30 37 1 7 34
M  V30 38 1 8 35
M  V30 39 1 9 36
M  V30 40 1 10 37
M  V30 41 1 18 38
M  V30 42 1 19 39
M  V30 43 1 20 40
M  V30 44 1 25 41
M  V30 45 1 26 42
M  V30 46 1 28 43
M  V30 END BOND
M  V30 END CTAB
M  END
>  <Dataset>  (107) 
ChEMBL_Kinases

>  <Ligand_Instance>  (107) 
nan

>  <PDB_ID>  (107) 
nan

>  <Standardized_SMILES>  (107) 
O=C(Cc1ccccc1)Nc1onc(-c2c(Cl)cccc2Cl)c1-c1ccncn1

>  <Name>  (107) 
nan

>  <Pocket>  (107) 
nan

>  <ATP_Site>  (107) 
nan

>  <Peripheral>  (107) 
nan

>  <Num_H_Atoms_ProtBoundConf>  (107) 
nan

>  <Num_Resolved_Atoms>  (107) 
nan

>  <Num_Not_Resolved_Atoms>  (107) 
nan

$$$$
CHEMBL3310147
     RDKit          3D

  0  0  0  0  0  0  0  0  0  0999 V3000
M  V30 BEGIN CTAB
M  V30 COUNTS 43 46 0 0 0
M  V30 BEGIN ATOM
M  V30 1 O 1.570286 1.152666 1.058170 0
M  V30 2 C 1.567241 1.155051 -0.216522 0
M  V30 3 C 2.717228 1.458560 -1.105960 0
M  V30 4 C 3.918127 1.770738 -0.310771 0
M  V30 5 C 4.789792 0.762336 0.062517 0
M  V30 6 C 5.912815 1.059578 0.806449 0
M  V30 7 C 6.199855 2.352339 1.197070 0
M  V30 8 C 5.307601 3.334201 0.806651 0
M  V30 9 C 4.170022 3.076601 0.060229 0
M  V30 10 N 0.298164 0.823923 -0.766367 0
M  V30 11 C -0.828683 0.526548 0.073319 0
M  V30 12 O -1.638537 1.482130 0.465294 0
M  V30 13 N -2.584531 0.968086 1.218081 0
M  V30 14 C -2.365817 -0.377692 1.309186 0
M  V30 15 C -3.185497 -1.316271 2.058927 0
M  V30 16 C -2.973151 -1.669171 3.394951 0
M  V30 17 F -1.906596 -1.081517 4.028199 0
M  V30 18 C -3.814995 -2.568259 4.016395 0
M  V30 19 C -4.880824 -3.124252 3.303769 0
M  V30 20 C -5.090646 -2.772001 1.974509 0
M  V30 21 C -4.253098 -1.871512 1.340739 0
M  V30 22 F -4.500448 -1.560586 0.043722 0
M  V30 23 C -1.241761 -0.686654 0.580920 0
M  V30 24 C -0.551247 -1.923388 0.322337 0
M  V30 25 C -0.880964 -3.175206 0.773130 0
M  V30 26 C -0.167807 -4.320882 0.479627 0
M  V30 27 N 0.914961 -4.178071 -0.298907 0
M  V30 28 C 1.278681 -2.983557 -0.763396 0
M  V30 29 N 0.551600 -1.893200 -0.450453 0
M  V30 30 H 2.460773 2.305340 -1.749387 0
M  V30 31 H 2.964901 0.600256 -1.760544 0
M  V30 32 H 4.578877 -0.248353 -0.234597 0
M  V30 33 H 6.549447 0.218548 1.061866 0
M  V30 34 H 7.073980 2.564065 1.772922 0
M  V30 35 H 5.543514 4.338406 1.117849 0
M  V30 36 H 3.532459 3.892604 -0.200166 0
M  V30 37 H 0.119965 0.779797 -1.794232 0
M  V30 38 H -3.614644 -2.813936 5.052134 0
M  V30 39 H -5.527358 -3.827762 3.814867 0
M  V30 40 H -5.938285 -3.239157 1.472349 0
M  V30 41 H -1.739650 -3.282552 1.387017 0
M  V30 42 H -0.499808 -5.273093 0.879015 0
M  V30 43 H 2.139024 -2.814081 -1.392120 0
M  V30 END ATOM
M  V30 BEGIN BOND
M  V30 1 2 1 2
M  V30 2 1 2 3
M  V30 3 1 3 4
M  V30 4 2 4 5
M  V30 5 1 5 6
M  V30 6 2 6 7
M  V30 7 1 7 8
M  V30 8 2 8 9
M  V30 9 1 2 10
M  V30 10 1 10 11
M  V30 11 1 11 12
M  V30 12 1 12 13
M  V30 13 2 13 14
M  V30 14 1 14 15
M  V30 15 2 15 16
M  V30 16 1 16 17
M  V30 17 1 16 18
M  V30 18 2 18 19
M  V30 19 1 19 20
M  V30 20 2 20 21
M  V30 21 1 21 22
M  V30 22 1 14 23
M  V30 23 1 23 24
M  V30 24 2 24 25
M  V30 25 1 25 26
M  V30 26 2 26 27
M  V30 27 1 27 28
M  V30 28 2 28 29
M  V30 29 1 9 4
M  V30 30 2 23 11
M  V30 31 1 29 24
M  V30 32 1 21 15
M  V30 33 1 3 30
M  V30 34 1 3 31
M  V30 35 1 5 32
M  V30 36 1 6 33
M  V30 37 1 7 34
M  V30 38 1 8 35
M  V30 39 1 9 36
M  V30 40 1 10 37
M  V30 41 1 18 38
M  V30 42 1 19 39
M  V30 43 1 20 40
M  V30 44 1 25 41
M  V30 45 1 26 42
M  V30 46 1 28 43
M  V30 END BOND
M  V30 END CTAB
M  END
>  <Dataset>  (108) 
ChEMBL_Kinases

>  <Ligand_Instance>  (108) 
nan

>  <PDB_ID>  (108) 
nan

>  <Standardized_SMILES>  (108) 
O=C(Cc1ccccc1)Nc1onc(-c2c(F)cccc2F)c1-c1ccncn1

>  <Name>  (108) 
nan

>  <Pocket>  (108) 
nan

>  <ATP_Site>  (108) 
nan

>  <Peripheral>  (108) 
nan

>  <Num_H_Atoms_ProtBoundConf>  (108) 
nan

>  <Num_Resolved_Atoms>  (108) 
nan

>  <Num_Not_Resolved_Atoms>  (108) 
nan

$$$$
CHEMBL3310146
     RDKit          3D

  0  0  0  0  0  0  0  0  0  0999 V3000
M  V30 BEGIN CTAB
M  V30 COUNTS 43 46 0 0 0
M  V30 BEGIN ATOM
M  V30 1 O 2.073676 0.398931 0.028707 0
M  V30 2 C 2.586365 -0.204757 1.008462 0
M  V30 3 C 3.909793 -0.866270 0.878174 0
M  V30 4 C 4.473236 -0.706410 -0.483421 0
M  V30 5 C 5.480911 0.216836 -0.629742 0
M  V30 6 C 6.102620 0.473847 -1.849774 0
M  V30 7 C 5.658260 -0.253706 -2.942367 0
M  V30 8 C 4.633644 -1.200488 -2.822991 0
M  V30 9 C 4.044022 -1.419093 -1.575501 0
M  V30 10 Cl 2.757201 -2.589265 -1.360881 0
M  V30 11 N 1.953144 -0.301267 2.295268 0
M  V30 12 C 0.673845 0.365210 2.344085 0
M  V30 13 O 0.574993 1.615358 2.683112 0
M  V30 14 N -0.691323 1.989052 2.651336 0
M  V30 15 C -1.431156 0.905938 2.268878 0
M  V30 16 C -2.877111 0.899531 2.121850 0
M  V30 17 C -3.592633 0.527932 3.266948 0
M  V30 18 C -4.979062 0.478502 3.288614 0
M  V30 19 C -5.647239 0.814763 2.119054 0
M  V30 20 F -7.017261 0.787062 2.071024 0
M  V30 21 C -4.973467 1.190360 0.956023 0
M  V30 22 C -3.595377 1.226602 0.976686 0
M  V30 23 F -2.862256 1.578191 -0.102926 0
M  V30 24 C -0.582205 -0.157380 2.062541 0
M  V30 25 C -0.815935 -1.508705 1.659231 0
M  V30 26 C -1.984583 -2.125835 1.352883 0
M  V30 27 C -2.119086 -3.446291 0.965187 0
M  V30 28 N -1.012028 -4.204175 0.876460 0
M  V30 29 C 0.164465 -3.625571 1.172594 0
M  V30 30 N 0.268708 -2.329132 1.550108 0
M  V30 31 H 3.726346 -1.958401 1.004487 0
M  V30 32 H 4.610354 -0.583270 1.666220 0
M  V30 33 H 5.839373 0.797481 0.229081 0
M  V30 34 H 6.888776 1.176695 -2.029303 0
M  V30 35 H 6.124261 -0.079565 -3.923567 0
M  V30 36 H 4.300473 -1.758192 -3.687340 0
M  V30 37 H 2.427454 -0.817234 3.075056 0
M  V30 38 H -3.148616 0.248604 4.227418 0
M  V30 39 H -5.548834 0.197464 4.149097 0
M  V30 40 H -5.522626 1.442301 0.073768 0
M  V30 41 H -2.881661 -1.533030 1.416172 0
M  V30 42 H -3.092015 -3.844023 0.743541 0
M  V30 43 H 1.077521 -4.197984 1.114535 0
M  V30 END ATOM
M  V30 BEGIN BOND
M  V30 1 2 1 2
M  V30 2 1 2 3
M  V30 3 1 3 4
M  V30 4 2 4 5
M  V30 5 1 5 6
M  V30 6 2 6 7
M  V30 7 1 7 8
M  V30 8 2 8 9
M  V30 9 1 9 10
M  V30 10 1 2 11
M  V30 11 1 11 12
M  V30 12 1 12 13
M  V30 13 1 13 14
M  V30 14 2 14 15
M  V30 15 1 15 16
M  V30 16 2 16 17
M  V30 17 1 17 18
M  V30 18 2 18 19
M  V30 19 1 19 20
M  V30 20 1 19 21
M  V30 21 2 21 22
M  V30 22 1 22 23
M  V30 23 1 15 24
M  V30 24 1 24 25
M  V30 25 2 25 26
M  V30 26 1 26 27
M  V30 27 2 27 28
M  V30 28 1 28 29
M  V30 29 2 29 30
M  V30 30 1 9 4
M  V30 31 2 24 12
M  V30 32 1 30 25
M  V30 33 1 22 16
M  V30 34 1 3 31
M  V30 35 1 3 32
M  V30 36 1 5 33
M  V30 37 1 6 34
M  V30 38 1 7 35
M  V30 39 1 8 36
M  V30 40 1 11 37
M  V30 41 1 17 38
M  V30 42 1 18 39
M  V30 43 1 21 40
M  V30 44 1 26 41
M  V30 45 1 27 42
M  V30 46 1 29 43
M  V30 END BOND
M  V30 END CTAB
M  END
>  <Dataset>  (109) 
ChEMBL_Kinases

>  <Ligand_Instance>  (109) 
nan

>  <PDB_ID>  (109) 
nan

>  <Standardized_SMILES>  (109) 
O=C(Cc1ccccc1Cl)Nc1onc(-c2ccc(F)cc2F)c1-c1ccncn1

>  <Name>  (109) 
nan

>  <Pocket>  (109) 
nan

>  <ATP_Site>  (109) 
nan

>  <Peripheral>  (109) 
nan

>  <Num_H_Atoms_ProtBoundConf>  (109) 
nan

>  <Num_Resolved_Atoms>  (109) 
nan

>  <Num_Not_Resolved_Atoms>  (109) 
nan

$$$$
CHEMBL3310145
     RDKit          3D

  0  0  0  0  0  0  0  0  0  0999 V3000
M  V30 BEGIN CTAB
M  V30 COUNTS 43 46 0 0 0
M  V30 BEGIN ATOM
M  V30 1 O 1.302784 1.186559 -0.003942 0
M  V30 2 C 1.849651 1.185430 1.127902 0
M  V30 3 C 3.229218 1.679958 1.114069 0
M  V30 4 C 3.693566 2.083233 -0.227014 0
M  V30 5 C 4.545390 1.393207 -1.057231 0
M  V30 6 C 4.869063 1.932395 -2.280392 0
M  V30 7 C 4.406054 3.134493 -2.765882 0
M  V30 8 C 3.542124 3.818318 -1.905979 0
M  V30 9 C 3.209749 3.294876 -0.684104 0
M  V30 10 Cl 2.112740 4.280710 0.276503 0
M  V30 11 N 1.264106 0.765336 2.350651 0
M  V30 12 C -0.082866 0.302830 2.255158 0
M  V30 13 O -1.031410 1.210817 2.400164 0
M  V30 14 N -2.198781 0.644755 2.288874 0
M  V30 15 C -2.016047 -0.691602 2.061604 0
M  V30 16 C -3.072978 -1.673822 1.886622 0
M  V30 17 C -3.654989 -2.408852 2.905706 0
M  V30 18 C -4.653042 -3.293644 2.546917 0
M  V30 19 C -5.073859 -3.460689 1.240238 0
M  V30 20 Cl -6.364300 -4.623782 0.901515 0
M  V30 21 C -4.480130 -2.718219 0.243009 0
M  V30 22 C -3.470151 -1.816149 0.568636 0
M  V30 23 C -0.661409 -0.930383 2.036376 0
M  V30 24 C 0.116869 -2.117331 1.841302 0
M  V30 25 C -0.340920 -3.393895 1.611916 0
M  V30 26 C 0.427656 -4.520950 1.425137 0
M  V30 27 N 1.780367 -4.350936 1.473173 0
M  V30 28 C 2.262714 -3.101788 1.697840 0
M  V30 29 N 1.459135 -2.040330 1.872601 0
M  V30 30 H 3.443186 2.477960 1.832154 0
M  V30 31 H 3.878117 0.816262 1.435837 0
M  V30 32 H 4.908873 0.452610 -0.677282 0
M  V30 33 H 5.543734 1.348771 -2.894355 0
M  V30 34 H 4.725204 3.461973 -3.741159 0
M  V30 35 H 3.167800 4.770949 -2.276670 0
M  V30 36 H 1.757493 0.780307 3.264642 0
M  V30 37 H -3.281196 -2.229257 3.888344 0
M  V30 38 H -5.109084 -3.870035 3.350255 0
M  V30 39 H -4.852472 -2.890622 -0.777121 0
M  V30 40 H -3.059787 -1.276029 -0.272040 0
M  V30 41 H -1.405876 -3.550467 1.568136 0
M  V30 42 H -0.041350 -5.495350 1.248035 0
M  V30 43 H 3.330022 -2.946998 1.738642 0
M  V30 END ATOM
M  V30 BEGIN BOND
M  V30 1 2 1 2
M  V30 2 1 2 3
M  V30 3 1 3 4
M  V30 4 2 4 5
M  V30 5 1 5 6
M  V30 6 2 6 7
M  V30 7 1 7 8
M  V30 8 2 8 9
M  V30 9 1 9 10
M  V30 10 1 2 11
M  V30 11 1 11 12
M  V30 12 1 12 13
M  V30 13 1 13 14
M  V30 14 2 14 15
M  V30 15 1 15 16
M  V30 16 2 16 17
M  V30 17 1 17 18
M  V30 18 2 18 19
M  V30 19 1 19 20
M  V30 20 1 19 21
M  V30 21 2 21 22
M  V30 22 1 15 23
M  V30 23 1 23 24
M  V30 24 2 24 25
M  V30 25 1 25 26
M  V30 26 2 26 27
M  V30 27 1 27 28
M  V30 28 2 28 29
M  V30 29 1 9 4
M  V30 30 2 23 12
M  V30 31 1 29 24
M  V30 32 1 22 16
M  V30 33 1 3 30
M  V30 34 1 3 31
M  V30 35 1 5 32
M  V30 36 1 6 33
M  V30 37 1 7 34
M  V30 38 1 8 35
M  V30 39 1 11 36
M  V30 40 1 17 37
M  V30 41 1 18 38
M  V30 42 1 21 39
M  V30 43 1 22 40
M  V30 44 1 25 41
M  V30 45 1 26 42
M  V30 46 1 28 43
M  V30 END BOND
M  V30 END CTAB
M  END
>  <Dataset>  (110) 
ChEMBL_Kinases

>  <Ligand_Instance>  (110) 
nan

>  <PDB_ID>  (110) 
nan

>  <Standardized_SMILES>  (110) 
O=C(Cc1ccccc1Cl)Nc1onc(-c2ccc(Cl)cc2)c1-c1ccncn1

>  <Name>  (110) 
nan

>  <Pocket>  (110) 
nan

>  <ATP_Site>  (110) 
nan

>  <Peripheral>  (110) 
nan

>  <Num_H_Atoms_ProtBoundConf>  (110) 
nan

>  <Num_Resolved_Atoms>  (110) 
nan

>  <Num_Not_Resolved_Atoms>  (110) 
nan

$$$$
CHEMBL3310144
     RDKit          3D

  0  0  0  0  0  0  0  0  0  0999 V3000
M  V30 BEGIN CTAB
M  V30 COUNTS 43 46 0 0 0
M  V30 BEGIN ATOM
M  V30 1 O 2.050986 1.366598 -0.456836 0
M  V30 2 C 2.308730 0.111706 -0.376417 0
M  V30 3 C 3.617639 -0.013406 -1.123678 0
M  V30 4 C 4.020794 1.328263 -1.609180 0
M  V30 5 C 3.538533 1.647557 -2.882371 0
M  V30 6 C 3.817912 2.861573 -3.492720 0
M  V30 7 C 4.592249 3.745176 -2.793741 0
M  V30 8 C 5.082432 3.461927 -1.539417 0
M  V30 9 C 4.798127 2.241010 -0.932286 0
M  V30 10 N 1.569022 -0.917215 0.249289 0
M  V30 11 C 0.375849 -0.500260 0.874463 0
M  V30 12 O -0.052866 0.732419 0.899005 0
M  V30 13 N -1.173638 0.730176 1.559064 0
M  V30 14 C -1.457915 -0.509879 1.955556 0
M  V30 15 C -2.688628 -0.715665 2.719683 0
M  V30 16 C -2.666019 -1.165190 4.024554 0
M  V30 17 C -3.792946 -1.379704 4.798312 0
M  V30 18 C -5.021804 -1.123963 4.217513 0
M  V30 19 C -5.096390 -0.668178 2.901419 0
M  V30 20 C -3.931913 -0.474462 2.183148 0
M  V30 21 Cl -4.011502 0.096816 0.531673 0
M  V30 22 C -0.438213 -1.364944 1.513344 0
M  V30 23 C -0.480733 -2.776651 1.798829 0
M  V30 24 C 0.394357 -3.771911 1.467439 0
M  V30 25 C 0.305707 -5.110068 1.766509 0
M  V30 26 N -0.766854 -5.505437 2.470691 0
M  V30 27 C -1.668118 -4.575383 2.829513 0
M  V30 28 N -1.508177 -3.290091 2.498244 0
M  V30 29 H 3.519206 -0.728684 -1.950909 0
M  V30 30 H 4.354383 -0.317936 -0.356008 0
M  V30 31 H 2.919978 0.964187 -3.462342 0
M  V30 32 H 3.427662 3.078516 -4.483067 0
M  V30 33 H 4.812104 4.703277 -3.276711 0
M  V30 34 H 5.688307 4.159885 -0.998882 0
M  V30 35 H 5.139127 1.933253 0.046986 0
M  V30 36 H 2.169413 -1.718702 0.044147 0
M  V30 37 H -1.737324 -1.380183 4.528534 0
M  V30 38 H -3.759567 -1.729607 5.811817 0
M  V30 39 H -5.951885 -1.266729 4.756402 0
M  V30 40 H -6.056454 -0.455920 2.411431 0
M  V30 41 H 1.268390 -3.510835 0.904863 0
M  V30 42 H 1.055751 -5.813987 1.454968 0
M  V30 43 H -2.590746 -4.756728 3.405961 0
M  V30 END ATOM
M  V30 BEGIN BOND
M  V30 1 2 1 2
M  V30 2 1 2 3
M  V30 3 1 3 4
M  V30 4 2 4 5
M  V30 5 1 5 6
M  V30 6 2 6 7
M  V30 7 1 7 8
M  V30 8 2 8 9
M  V30 9 1 2 10
M  V30 10 1 10 11
M  V30 11 1 11 12
M  V30 12 1 12 13
M  V30 13 2 13 14
M  V30 14 1 14 15
M  V30 15 2 15 16
M  V30 16 1 16 17
M  V30 17 2 17 18
M  V30 18 1 18 19
M  V30 19 2 19 20
M  V30 20 1 20 21
M  V30 21 1 14 22
M  V30 22 1 22 23
M  V30 23 2 23 24
M  V30 24 1 24 25
M  V30 25 2 25 26
M  V30 26 1 26 27
M  V30 27 2 27 28
M  V30 28 1 9 4
M  V30 29 2 22 11
M  V30 30 1 28 23
M  V30 31 1 20 15
M  V30 32 1 3 29
M  V30 33 1 3 30
M  V30 34 1 5 31
M  V30 35 1 6 32
M  V30 36 1 7 33
M  V30 37 1 8 34
M  V30 38 1 9 35
M  V30 39 1 10 36
M  V30 40 1 16 37
M  V30 41 1 17 38
M  V30 42 1 18 39
M  V30 43 1 19 40
M  V30 44 1 24 41
M  V30 45 1 25 42
M  V30 46 1 27 43
M  V30 END BOND
M  V30 END CTAB
M  END
>  <Dataset>  (111) 
ChEMBL_Kinases

>  <Ligand_Instance>  (111) 
nan

>  <PDB_ID>  (111) 
nan

>  <Standardized_SMILES>  (111) 
O=C(Cc1ccccc1)Nc1onc(-c2ccccc2Cl)c1-c1ccncn1

>  <Name>  (111) 
nan

>  <Pocket>  (111) 
nan

>  <ATP_Site>  (111) 
nan

>  <Peripheral>  (111) 
nan

>  <Num_H_Atoms_ProtBoundConf>  (111) 
nan

>  <Num_Resolved_Atoms>  (111) 
nan

>  <Num_Not_Resolved_Atoms>  (111) 
nan

$$$$
CHEMBL3310143
     RDKit          3D

  0  0  0  0  0  0  0  0  0  0999 V3000
M  V30 BEGIN CTAB
M  V30 COUNTS 49 52 0 0 0
M  V30 BEGIN ATOM
M  V30 1 C 1.737163 -5.108446 3.272847 0
M  V30 2 C 2.329272 -3.750912 3.156404 0
M  V30 3 C 2.721634 -2.957114 4.213038 0
M  V30 4 C 3.266888 -1.699738 4.019026 0
M  V30 5 C 3.446733 -1.173238 2.753175 0
M  V30 6 C 4.032661 0.163327 2.556974 0
M  V30 7 C 3.057734 -1.958130 1.691394 0
M  V30 8 C 3.194977 -1.496952 0.267687 0
M  V30 9 C 2.112162 -0.519039 -0.031586 0
M  V30 10 O 1.451921 -0.430941 1.062401 0
M  V30 11 N 1.743176 0.228242 -1.175071 0
M  V30 12 C 0.600011 0.994297 -0.818644 0
M  V30 13 O 0.790910 2.194555 -0.333328 0
M  V30 14 N -0.346663 2.767204 -0.056111 0
M  V30 15 C -1.323527 1.879385 -0.383861 0
M  V30 16 C -2.719011 2.144800 -0.212929 0
M  V30 17 C -3.169765 1.723822 1.034060 0
M  V30 18 C -4.500612 1.882198 1.431022 0
M  V30 19 C -5.367430 2.483424 0.521565 0
M  V30 20 F -6.684417 2.704989 0.761229 0
M  V30 21 C -4.908483 2.894641 -0.707783 0
M  V30 22 C -3.593387 2.739264 -1.102483 0
M  V30 23 C -0.751621 0.729265 -0.877183 0
M  V30 24 C -1.309406 -0.497140 -1.358417 0
M  V30 25 C -2.618189 -0.852549 -1.461047 0
M  V30 26 C -3.129260 -2.042842 -1.932529 0
M  V30 27 N -2.215662 -2.948008 -2.334034 0
M  V30 28 C -0.884180 -2.655239 -2.257882 0
M  V30 29 N -0.450765 -1.459094 -1.781480 0
M  V30 30 C 2.518027 -3.205160 1.906028 0
M  V30 31 H 1.968642 -5.661375 2.319711 0
M  V30 32 H 0.618332 -4.960881 3.222044 0
M  V30 33 H 2.039943 -5.640829 4.176269 0
M  V30 34 H 2.576095 -3.380625 5.216442 0
M  V30 35 H 3.565719 -1.098341 4.869039 0
M  V30 36 H 4.701146 0.250453 1.674210 0
M  V30 37 H 4.727651 0.331992 3.433920 0
M  V30 38 H 3.249597 0.917373 2.630403 0
M  V30 39 H 3.184174 -2.357823 -0.420899 0
M  V30 40 H 4.157660 -0.989088 0.156934 0
M  V30 41 H 2.406263 0.006784 -1.941669 0
M  V30 42 H -2.578128 1.245530 1.813458 0
M  V30 43 H -4.893825 1.572240 2.385144 0
M  V30 44 H -5.563175 3.363927 -1.430863 0
M  V30 45 H -3.159016 3.032540 -2.042062 0
M  V30 46 H -3.356069 -0.131309 -1.142884 0
M  V30 47 H -4.187940 -2.222340 -1.970974 0
M  V30 48 H -0.113978 -3.354330 -2.570005 0
M  V30 49 H 2.218919 -3.806220 1.044903 0
M  V30 END ATOM
M  V30 BEGIN BOND
M  V30 1 1 1 2
M  V30 2 2 2 3
M  V30 3 1 3 4
M  V30 4 2 4 5
M  V30 5 1 5 6
M  V30 6 1 5 7
M  V30 7 1 7 8
M  V30 8 1 8 9
M  V30 9 2 9 10
M  V30 10 1 9 11
M  V30 11 1 11 12
M  V30 12 1 12 13
M  V30 13 1 13 14
M  V30 14 2 14 15
M  V30 15 1 15 16
M  V30 16 2 16 17
M  V30 17 1 17 18
M  V30 18 2 18 19
M  V30 19 1 19 20
M  V30 20 1 19 21
M  V30 21 2 21 22
M  V30 22 1 15 23
M  V30 23 1 23 24
M  V30 24 2 24 25
M  V30 25 1 25 26
M  V30 26 2 26 27
M  V30 27 1 27 28
M  V30 28 2 28 29
M  V30 29 2 7 30
M  V30 30 1 30 2
M  V30 31 2 23 12
M  V30 32 1 29 24
M  V30 33 1 22 16
M  V30 34 1 1 31
M  V30 35 1 1 32
M  V30 36 1 1 33
M  V30 37 1 3 34
M  V30 38 1 4 35
M  V30 39 1 6 36
M  V30 40 1 6 37
M  V30 41 1 6 38
M  V30 42 1 8 39
M  V30 43 1 8 40
M  V30 44 1 11 41
M  V30 45 1 17 42
M  V30 46 1 18 43
M  V30 47 1 21 44
M  V30 48 1 22 45
M  V30 49 1 25 46
M  V30 50 1 26 47
M  V30 51 1 28 48
M  V30 52 1 30 49
M  V30 END BOND
M  V30 END CTAB
M  END
>  <Dataset>  (112) 
ChEMBL_Kinases

>  <Ligand_Instance>  (112) 
nan

>  <PDB_ID>  (112) 
nan

>  <Standardized_SMILES>  (112) 
Cc1ccc(C)c(CC(=O)Nc2onc(-c3ccc(F)cc3)c2-c2ccncn2)c1

>  <Name>  (112) 
nan

>  <Pocket>  (112) 
nan

>  <ATP_Site>  (112) 
nan

>  <Peripheral>  (112) 
nan

>  <Num_H_Atoms_ProtBoundConf>  (112) 
nan

>  <Num_Resolved_Atoms>  (112) 
nan

>  <Num_Not_Resolved_Atoms>  (112) 
nan

$$$$
CHEMBL3310141
     RDKit          3D

  0  0  0  0  0  0  0  0  0  0999 V3000
M  V30 BEGIN CTAB
M  V30 COUNTS 43 46 0 0 0
M  V30 BEGIN ATOM
M  V30 1 O 2.080224 0.219911 -0.643042 0
M  V30 2 C 1.463888 -0.594034 -1.413878 0
M  V30 3 C 2.816817 -0.824906 -1.986097 0
M  V30 4 C 3.818909 0.020610 -1.268634 0
M  V30 5 C 4.735920 -0.385253 -0.314387 0
M  V30 6 C 5.586716 0.546857 0.244078 0
M  V30 7 C 5.564532 1.878927 -0.109139 0
M  V30 8 C 4.647034 2.278129 -1.062188 0
M  V30 9 C 3.778584 1.355969 -1.639614 0
M  V30 10 Cl 2.672437 1.998726 -2.828295 0
M  V30 11 N 0.179282 -1.082328 -1.664263 0
M  V30 12 C -0.723323 -0.464797 -0.761308 0
M  V30 13 O -1.314331 0.694324 -1.049210 0
M  V30 14 N -2.083330 1.018028 -0.041096 0
M  V30 15 C -1.978730 0.042482 0.908948 0
M  V30 16 C -2.730775 0.134827 2.158281 0
M  V30 17 C -2.028436 0.224793 3.352671 0
M  V30 18 C -2.818368 0.307475 4.465174 0
M  V30 19 C -4.212680 0.308181 4.489408 0
M  V30 20 F -4.905042 0.394578 5.651164 0
M  V30 21 C -4.854230 0.215387 3.258469 0
M  V30 22 C -4.108338 0.129168 2.097998 0
M  V30 23 C -1.102206 -0.926150 0.458591 0
M  V30 24 C -0.757241 -2.119634 1.192962 0
M  V30 25 C 0.084968 -3.111765 0.758401 0
M  V30 26 C 0.374423 -4.247511 1.512030 0
M  V30 27 N -0.191476 -4.376837 2.708238 0
M  V30 28 C -1.018045 -3.428205 3.162803 0
M  V30 29 N -1.269715 -2.355092 2.410356 0
M  V30 30 H 3.083120 -1.875266 -1.835366 0
M  V30 31 H 2.845285 -0.636976 -3.078008 0
M  V30 32 H 4.701735 -1.442040 -0.082166 0
M  V30 33 H 6.289973 0.187223 0.987766 0
M  V30 34 H 6.240517 2.584993 0.343172 0
M  V30 35 H 4.660393 3.335018 -1.313757 0
M  V30 36 H 0.235260 -1.767289 -2.447765 0
M  V30 37 H -0.965063 0.231918 3.435525 0
M  V30 38 H -2.366136 0.381215 5.446026 0
M  V30 39 H -5.923811 0.210251 3.196514 0
M  V30 40 H -4.602960 0.055566 1.125802 0
M  V30 41 H 0.548838 -3.023938 -0.211575 0
M  V30 42 H 1.041335 -5.011822 1.142273 0
M  V30 43 H -1.520989 -3.460094 4.131929 0
M  V30 END ATOM
M  V30 BEGIN BOND
M  V30 1 2 1 2
M  V30 2 1 2 3
M  V30 3 1 3 4
M  V30 4 2 4 5
M  V30 5 1 5 6
M  V30 6 2 6 7
M  V30 7 1 7 8
M  V30 8 2 8 9
M  V30 9 1 9 10
M  V30 10 1 2 11
M  V30 11 1 11 12
M  V30 12 1 12 13
M  V30 13 1 13 14
M  V30 14 2 14 15
M  V30 15 1 15 16
M  V30 16 2 16 17
M  V30 17 1 17 18
M  V30 18 2 18 19
M  V30 19 1 19 20
M  V30 20 1 19 21
M  V30 21 2 21 22
M  V30 22 1 15 23
M  V30 23 1 23 24
M  V30 24 2 24 25
M  V30 25 1 25 26
M  V30 26 2 26 27
M  V30 27 1 27 28
M  V30 28 2 28 29
M  V30 29 1 9 4
M  V30 30 2 23 12
M  V30 31 1 29 24
M  V30 32 1 22 16
M  V30 33 1 3 30
M  V30 34 1 3 31
M  V30 35 1 5 32
M  V30 36 1 6 33
M  V30 37 1 7 34
M  V30 38 1 8 35
M  V30 39 1 11 36
M  V30 40 1 17 37
M  V30 41 1 18 38
M  V30 42 1 21 39
M  V30 43 1 22 40
M  V30 44 1 25 41
M  V30 45 1 26 42
M  V30 46 1 28 43
M  V30 END BOND
M  V30 END CTAB
M  END
>  <Dataset>  (113) 
ChEMBL_Kinases

>  <Ligand_Instance>  (113) 
nan

>  <PDB_ID>  (113) 
nan

>  <Standardized_SMILES>  (113) 
O=C(Cc1ccccc1Cl)Nc1onc(-c2ccc(F)cc2)c1-c1ccncn1

>  <Name>  (113) 
nan

>  <Pocket>  (113) 
nan

>  <ATP_Site>  (113) 
nan

>  <Peripheral>  (113) 
nan

>  <Num_H_Atoms_ProtBoundConf>  (113) 
nan

>  <Num_Resolved_Atoms>  (113) 
nan

>  <Num_Not_Resolved_Atoms>  (113) 
nan

$$$$
CHEMBL3310140
     RDKit          3D

  0  0  0  0  0  0  0  0  0  0999 V3000
M  V30 BEGIN CTAB
M  V30 COUNTS 43 46 0 0 0
M  V30 BEGIN ATOM
M  V30 1 O 3.230865 -0.337204 0.280108 0
M  V30 2 C 2.337224 -0.546219 -0.564310 0
M  V30 3 C 2.719320 -0.949188 -1.972071 0
M  V30 4 C 3.298362 0.287248 -2.564682 0
M  V30 5 C 2.414156 0.932119 -3.442794 0
M  V30 6 C 2.690966 2.108567 -4.124816 0
M  V30 7 C 3.936287 2.654433 -3.898627 0
M  V30 8 C 4.834616 2.044294 -3.037553 0
M  V30 9 C 4.533579 0.863365 -2.363355 0
M  V30 10 F 5.319894 0.194558 -1.517655 0
M  V30 11 N 0.916084 -0.432076 -0.312920 0
M  V30 12 C 0.195658 -0.085435 0.856921 0
M  V30 13 O 0.092726 1.211895 1.126724 0
M  V30 14 N -0.604830 1.337077 2.239732 0
M  V30 15 C -0.953847 0.121051 2.690560 0
M  V30 16 C -1.744913 -0.114667 3.894115 0
M  V30 17 C -1.482516 -0.773094 5.074988 0
M  V30 18 C -2.462145 -0.833553 6.052811 0
M  V30 19 C -3.694526 -0.244654 5.858684 0
M  V30 20 F -4.613971 -0.348428 6.879485 0
M  V30 21 C -4.015261 0.437855 4.675301 0
M  V30 22 C -3.001915 0.479835 3.710758 0
M  V30 23 C -0.450251 -0.813747 1.817499 0
M  V30 24 C -0.569775 -2.236724 1.848291 0
M  V30 25 C -0.053483 -3.084671 0.893819 0
M  V30 26 C -0.179130 -4.456807 0.919486 0
M  V30 27 N -0.858364 -5.043318 1.950760 0
M  V30 28 C -1.367448 -4.225079 2.890804 0
M  V30 29 N -1.216874 -2.895560 2.819812 0
M  V30 30 H 1.856549 -1.304426 -2.517008 0
M  V30 31 H 3.508007 -1.733688 -1.912381 0
M  V30 32 H 1.408772 0.541095 -3.667356 0
M  V30 33 H 1.965608 2.570176 -4.795970 0
M  V30 34 H 4.182223 3.571159 -4.413786 0
M  V30 35 H 5.808756 2.462203 -2.850027 0
M  V30 36 H 0.243998 -0.622504 -1.085315 0
M  V30 37 H -0.485496 -1.173749 5.068954 0
M  V30 38 H -2.173756 -1.369881 6.946542 0
M  V30 39 H -4.999983 0.871169 4.610477 0
M  V30 40 H -3.380937 1.036671 2.853637 0
M  V30 41 H 0.488459 -2.715908 0.059655 0
M  V30 42 H 0.223901 -5.109641 0.174070 0
M  V30 43 H -1.921623 -4.653930 3.735424 0
M  V30 END ATOM
M  V30 BEGIN BOND
M  V30 1 2 1 2
M  V30 2 1 2 3
M  V30 3 1 3 4
M  V30 4 2 4 5
M  V30 5 1 5 6
M  V30 6 2 6 7
M  V30 7 1 7 8
M  V30 8 2 8 9
M  V30 9 1 9 10
M  V30 10 1 2 11
M  V30 11 1 11 12
M  V30 12 1 12 13
M  V30 13 1 13 14
M  V30 14 2 14 15
M  V30 15 1 15 16
M  V30 16 2 16 17
M  V30 17 1 17 18
M  V30 18 2 18 19
M  V30 19 1 19 20
M  V30 20 1 19 21
M  V30 21 2 21 22
M  V30 22 1 15 23
M  V30 23 1 23 24
M  V30 24 2 24 25
M  V30 25 1 25 26
M  V30 26 2 26 27
M  V30 27 1 27 28
M  V30 28 2 28 29
M  V30 29 1 9 4
M  V30 30 2 23 12
M  V30 31 1 29 24
M  V30 32 1 22 16
M  V30 33 1 3 30
M  V30 34 1 3 31
M  V30 35 1 5 32
M  V30 36 1 6 33
M  V30 37 1 7 34
M  V30 38 1 8 35
M  V30 39 1 11 36
M  V30 40 1 17 37
M  V30 41 1 18 38
M  V30 42 1 21 39
M  V30 43 1 22 40
M  V30 44 1 25 41
M  V30 45 1 26 42
M  V30 46 1 28 43
M  V30 END BOND
M  V30 END CTAB
M  END
>  <Dataset>  (114) 
ChEMBL_Kinases

>  <Ligand_Instance>  (114) 
nan

>  <PDB_ID>  (114) 
nan

>  <Standardized_SMILES>  (114) 
O=C(Cc1ccccc1F)Nc1onc(-c2ccc(F)cc2)c1-c1ccncn1

>  <Name>  (114) 
nan

>  <Pocket>  (114) 
nan

>  <ATP_Site>  (114) 
nan

>  <Peripheral>  (114) 
nan

>  <Num_H_Atoms_ProtBoundConf>  (114) 
nan

>  <Num_Resolved_Atoms>  (114) 
nan

>  <Num_Not_Resolved_Atoms>  (114) 
nan

$$$$
CHEMBL3310139
     RDKit          3D

  0  0  0  0  0  0  0  0  0  0999 V3000
M  V30 BEGIN CTAB
M  V30 COUNTS 43 46 0 0 0
M  V30 BEGIN ATOM
M  V30 1 O 1.621201 0.798881 -0.255798 0
M  V30 2 C 2.460928 -0.094989 0.060439 0
M  V30 3 C 3.489186 -0.503576 -0.963823 0
M  V30 4 C 3.286966 0.280092 -2.210463 0
M  V30 5 C 2.456452 -0.152697 -3.239225 0
M  V30 6 C 2.271308 0.580131 -4.397764 0
M  V30 7 C 2.927114 1.786215 -4.553856 0
M  V30 8 C 3.761978 2.264515 -3.568155 0
M  V30 9 C 3.923328 1.502681 -2.420458 0
M  V30 10 N 2.521126 -0.767921 1.335840 0
M  V30 11 C 1.507947 -0.303446 2.217654 0
M  V30 12 O 1.642419 0.732438 3.026092 0
M  V30 13 N 0.517815 0.884990 3.697996 0
M  V30 14 C -0.345513 -0.080889 3.300974 0
M  V30 15 C -1.670658 -0.128780 3.899546 0
M  V30 16 C -1.740293 -0.342073 5.267996 0
M  V30 17 C -2.963562 -0.403565 5.931883 0
M  V30 18 C -4.159636 -0.251818 5.237186 0
M  V30 19 F -5.371115 -0.302833 5.831763 0
M  V30 20 C -4.063741 -0.040530 3.875622 0
M  V30 21 C -2.858242 0.024858 3.191022 0
M  V30 22 C 0.261991 -0.880482 2.333830 0
M  V30 23 C -0.378692 -2.002909 1.715383 0
M  V30 24 C 0.202673 -2.825651 0.778841 0
M  V30 25 C -0.378049 -3.919853 0.163888 0
M  V30 26 N -1.655969 -4.181724 0.547463 0
M  V30 27 C -2.267728 -3.393654 1.470353 0
M  V30 28 N -1.640513 -2.355105 2.018489 0
M  V30 29 H 4.476641 -0.288388 -0.530052 0
M  V30 30 H 3.325620 -1.566077 -1.209071 0
M  V30 31 H 1.963772 -1.096954 -3.079253 0
M  V30 32 H 1.612848 0.222650 -5.197311 0
M  V30 33 H 2.753746 2.337637 -5.487691 0
M  V30 34 H 4.263210 3.202286 -3.705456 0
M  V30 35 H 4.592983 1.897515 -1.642364 0
M  V30 36 H 3.255863 -1.490183 1.489292 0
M  V30 37 H -0.843630 -0.466783 5.858445 0
M  V30 38 H -3.082242 -0.566832 6.993958 0
M  V30 39 H -4.964106 0.083892 3.287958 0
M  V30 40 H -2.799109 0.189446 2.135501 0
M  V30 41 H 1.218707 -2.640131 0.461599 0
M  V30 42 H 0.125970 -4.519641 -0.556415 0
M  V30 43 H -3.284026 -3.600130 1.776933 0
M  V30 END ATOM
M  V30 BEGIN BOND
M  V30 1 2 1 2
M  V30 2 1 2 3
M  V30 3 1 3 4
M  V30 4 2 4 5
M  V30 5 1 5 6
M  V30 6 2 6 7
M  V30 7 1 7 8
M  V30 8 2 8 9
M  V30 9 1 2 10
M  V30 10 1 10 11
M  V30 11 1 11 12
M  V30 12 1 12 13
M  V30 13 2 13 14
M  V30 14 1 14 15
M  V30 15 2 15 16
M  V30 16 1 16 17
M  V30 17 2 17 18
M  V30 18 1 18 19
M  V30 19 1 18 20
M  V30 20 2 20 21
M  V30 21 1 14 22
M  V30 22 1 22 23
M  V30 23 2 23 24
M  V30 24 1 24 25
M  V30 25 2 25 26
M  V30 26 1 26 27
M  V30 27 2 27 28
M  V30 28 1 9 4
M  V30 29 2 22 11
M  V30 30 1 28 23
M  V30 31 1 21 15
M  V30 32 1 3 29
M  V30 33 1 3 30
M  V30 34 1 5 31
M  V30 35 1 6 32
M  V30 36 1 7 33
M  V30 37 1 8 34
M  V30 38 1 9 35
M  V30 39 1 10 36
M  V30 40 1 16 37
M  V30 41 1 17 38
M  V30 42 1 20 39
M  V30 43 1 21 40
M  V30 44 1 24 41
M  V30 45 1 25 42
M  V30 46 1 27 43
M  V30 END BOND
M  V30 END CTAB
M  END
>  <Dataset>  (115) 
ChEMBL_Kinases

>  <Ligand_Instance>  (115) 
nan

>  <PDB_ID>  (115) 
nan

>  <Standardized_SMILES>  (115) 
O=C(Cc1ccccc1)Nc1onc(-c2ccc(F)cc2)c1-c1ccncn1

>  <Name>  (115) 
nan

>  <Pocket>  (115) 
nan

>  <ATP_Site>  (115) 
nan

>  <Peripheral>  (115) 
nan

>  <Num_H_Atoms_ProtBoundConf>  (115) 
nan

>  <Num_Resolved_Atoms>  (115) 
nan

>  <Num_Not_Resolved_Atoms>  (115) 
nan

$$$$
CHEMBL3310137
     RDKit          3D

  0  0  0  0  0  0  0  0  0  0999 V3000
M  V30 BEGIN CTAB
M  V30 COUNTS 50 53 0 0 0
M  V30 BEGIN ATOM
M  V30 1 O 1.642665 -0.550907 0.696367 0
M  V30 2 C 1.784976 -1.715728 1.202359 0
M  V30 3 C 2.394306 -3.030071 1.508944 0
M  V30 4 C 3.720818 -3.183107 0.873292 0
M  V30 5 C 4.826511 -2.299851 1.308940 0
M  V30 6 C 4.660013 -0.860307 1.198587 0
M  V30 7 C 4.248651 -0.159320 2.332413 0
M  V30 8 C 4.103429 1.213292 2.179441 0
M  V30 9 C 4.355930 1.828125 0.969727 0
M  V30 10 C 4.766954 1.102038 -0.150472 0
M  V30 11 C 4.917718 -0.267276 -0.018881 0
M  V30 12 N 0.532872 -1.709355 1.935387 0
M  V30 13 C -0.456145 -0.657085 1.983529 0
M  V30 14 O -0.551292 0.340671 2.793822 0
M  V30 15 N -1.577424 1.092192 2.538295 0
M  V30 16 C -2.277925 0.613783 1.472985 0
M  V30 17 C -3.487998 1.159339 0.865832 0
M  V30 18 C -3.320414 1.560522 -0.441625 0
M  V30 19 C -4.399714 2.095231 -1.124315 0
M  V30 20 C -5.610411 2.206547 -0.464357 0
M  V30 21 F -6.661597 2.730738 -1.138897 0
M  V30 22 C -5.792906 1.810610 0.839972 0
M  V30 23 C -4.708272 1.280507 1.504959 0
M  V30 24 C -1.545329 -0.524592 1.114583 0
M  V30 25 C -1.919743 -1.385645 0.004920 0
M  V30 26 C -3.127334 -2.086158 0.038718 0
M  V30 27 C -3.534364 -2.919865 -0.990638 0
M  V30 28 N -2.732854 -3.070199 -2.084612 0
M  V30 29 C -1.558215 -2.415309 -2.163664 0
M  V30 30 C -1.172571 -1.595742 -1.136570 0
M  V30 31 H 1.716793 -3.820131 1.122624 0
M  V30 32 H 2.468131 -3.180936 2.611027 0
M  V30 33 H 4.041329 -4.261981 0.911180 0
M  V30 34 H 3.578654 -2.997995 -0.239683 0
M  V30 35 H 5.123791 -2.533196 2.374685 0
M  V30 36 H 5.740183 -2.607180 0.727776 0
M  V30 37 H 4.040985 -0.582019 3.285198 0
M  V30 38 H 3.791087 1.906490 2.964078 0
M  V30 39 H 4.272133 2.883308 0.753839 0
M  V30 40 H 4.977798 1.528969 -1.119908 0
M  V30 41 H 5.235668 -0.863336 -0.868308 0
M  V30 42 H 0.050936 -2.421413 2.579969 0
M  V30 43 H -2.405937 1.493853 -0.990305 0
M  V30 44 H -4.332479 2.429972 -2.157179 0
M  V30 45 H -6.747182 1.904039 1.344739 0
M  V30 46 H -4.767167 0.940647 2.544635 0
M  V30 47 H -3.757705 -1.964592 0.904428 0
M  V30 48 H -4.468408 -3.462053 -0.965419 0
M  V30 49 H -0.935949 -2.548112 -3.041434 0
M  V30 50 H -0.241472 -1.088851 -1.221717 0
M  V30 END ATOM
M  V30 BEGIN BOND
M  V30 1 2 1 2
M  V30 2 1 2 3
M  V30 3 1 3 4
M  V30 4 1 4 5
M  V30 5 1 5 6
M  V30 6 2 6 7
M  V30 7 1 7 8
M  V30 8 2 8 9
M  V30 9 1 9 10
M  V30 10 2 10 11
M  V30 11 1 2 12
M  V30 12 1 12 13
M  V30 13 1 13 14
M  V30 14 1 14 15
M  V30 15 2 15 16
M  V30 16 1 16 17
M  V30 17 2 17 18
M  V30 18 1 18 19
M  V30 19 2 19 20
M  V30 20 1 20 21
M  V30 21 1 20 22
M  V30 22 2 22 23
M  V30 23 1 16 24
M  V30 24 1 24 25
M  V30 25 2 25 26
M  V30 26 1 26 27
M  V30 27 2 27 28
M  V30 28 1 28 29
M  V30 29 2 29 30
M  V30 30 1 11 6
M  V30 31 2 24 13
M  V30 32 1 30 25
M  V30 33 1 23 17
M  V30 34 1 3 31
M  V30 35 1 3 32
M  V30 36 1 4 33
M  V30 37 1 4 34
M  V30 38 1 5 35
M  V30 39 1 5 36
M  V30 40 1 7 37
M  V30 41 1 8 38
M  V30 42 1 9 39
M  V30 43 1 10 40
M  V30 44 1 11 41
M  V30 45 1 12 42
M  V30 46 1 18 43
M  V30 47 1 19 44
M  V30 48 1 22 45
M  V30 49 1 23 46
M  V30 50 1 26 47
M  V30 51 1 27 48
M  V30 52 1 29 49
M  V30 53 1 30 50
M  V30 END BOND
M  V30 END CTAB
M  END
>  <Dataset>  (116) 
ChEMBL_Kinases

>  <Ligand_Instance>  (116) 
nan

>  <PDB_ID>  (116) 
nan

>  <Standardized_SMILES>  (116) 
O=C(CCCc1ccccc1)Nc1onc(-c2ccc(F)cc2)c1-c1ccncc1

>  <Name>  (116) 
nan

>  <Pocket>  (116) 
nan

>  <ATP_Site>  (116) 
nan

>  <Peripheral>  (116) 
nan

>  <Num_H_Atoms_ProtBoundConf>  (116) 
nan

>  <Num_Resolved_Atoms>  (116) 
nan

>  <Num_Not_Resolved_Atoms>  (116) 
nan

$$$$
CHEMBL3310136
     RDKit          3D

  0  0  0  0  0  0  0  0  0  0999 V3000
M  V30 BEGIN CTAB
M  V30 COUNTS 47 50 0 0 0
M  V30 BEGIN ATOM
M  V30 1 O 1.604094 1.475716 0.611298 0
M  V30 2 C 0.908146 1.826033 -0.361078 0
M  V30 3 C 0.908502 2.096964 -1.798582 0
M  V30 4 C 2.233198 1.891429 -2.480804 0
M  V30 5 C 2.750546 0.504181 -2.372329 0
M  V30 6 C 3.582320 -0.021010 -1.405091 0
M  V30 7 C 3.968221 -1.343797 -1.448234 0
M  V30 8 C 3.555527 -2.207970 -2.441186 0
M  V30 9 C 2.722702 -1.729380 -3.431576 0
M  V30 10 C 2.353544 -0.402449 -3.361976 0
M  V30 11 N -0.404670 2.036458 0.193562 0
M  V30 12 C -0.633959 1.825618 1.603554 0
M  V30 13 O -0.563366 2.591071 2.649711 0
M  V30 14 N -0.872867 1.916166 3.730925 0
M  V30 15 C -1.163464 0.630858 3.368835 0
M  V30 16 C -1.557521 -0.434161 4.315022 0
M  V30 17 C -0.605430 -1.462053 4.300059 0
M  V30 18 C -0.805746 -2.558379 5.131577 0
M  V30 19 C -1.903361 -2.633917 5.944276 0
M  V30 20 F -2.090549 -3.705320 6.750879 0
M  V30 21 C -2.823155 -1.604166 5.935509 0
M  V30 22 C -2.653233 -0.503179 5.122247 0
M  V30 23 C -1.016106 0.538595 1.979534 0
M  V30 24 C -1.265048 -0.731507 1.308216 0
M  V30 25 C -0.387629 -1.510597 0.565431 0
M  V30 26 C -0.843424 -2.690850 0.013342 0
M  V30 27 N -2.115154 -3.094833 0.182641 0
M  V30 28 C -3.007484 -2.377496 0.893687 0
M  V30 29 C -2.575508 -1.208819 1.446567 0
M  V30 30 H 0.200332 1.345785 -2.256216 0
M  V30 31 H 0.482257 3.080485 -2.062180 0
M  V30 32 H 2.959248 2.605045 -1.999177 0
M  V30 33 H 2.152037 2.126735 -3.562187 0
M  V30 34 H 3.891988 0.673672 -0.645157 0
M  V30 35 H 4.623519 -1.671211 -0.646546 0
M  V30 36 H 3.894123 -3.234628 -2.417994 0
M  V30 37 H 2.375896 -2.361683 -4.223203 0
M  V30 38 H 1.694534 -0.060599 -4.162583 0
M  V30 39 H -1.332690 2.339119 -0.230766 0
M  V30 40 H 0.300011 -1.509050 3.698632 0
M  V30 41 H -0.089853 -3.382334 5.152553 0
M  V30 42 H -3.704835 -1.606137 6.551274 0
M  V30 43 H -3.300799 0.357456 5.030504 0
M  V30 44 H 0.604079 -1.083691 0.499687 0
M  V30 45 H -0.114855 -3.253523 -0.553534 0
M  V30 46 H -4.010907 -2.759454 0.989898 0
M  V30 47 H -3.333122 -0.663465 2.012575 0
M  V30 END ATOM
M  V30 BEGIN BOND
M  V30 1 2 1 2
M  V30 2 1 2 3
M  V30 3 1 3 4
M  V30 4 1 4 5
M  V30 5 2 5 6
M  V30 6 1 6 7
M  V30 7 2 7 8
M  V30 8 1 8 9
M  V30 9 2 9 10
M  V30 10 1 2 11
M  V30 11 1 11 12
M  V30 12 1 12 13
M  V30 13 1 13 14
M  V30 14 2 14 15
M  V30 15 1 15 16
M  V30 16 2 16 17
M  V30 17 1 17 18
M  V30 18 2 18 19
M  V30 19 1 19 20
M  V30 20 1 19 21
M  V30 21 2 21 22
M  V30 22 1 15 23
M  V30 23 1 23 24
M  V30 24 2 24 25
M  V30 25 1 25 26
M  V30 26 2 26 27
M  V30 27 1 27 28
M  V30 28 2 28 29
M  V30 29 1 10 5
M  V30 30 2 23 12
M  V30 31 1 29 24
M  V30 32 1 22 16
M  V30 33 1 3 30
M  V30 34 1 3 31
M  V30 35 1 4 32
M  V30 36 1 4 33
M  V30 37 1 6 34
M  V30 38 1 7 35
M  V30 39 1 8 36
M  V30 40 1 9 37
M  V30 41 1 10 38
M  V30 42 1 11 39
M  V30 43 1 17 40
M  V30 44 1 18 41
M  V30 45 1 21 42
M  V30 46 1 22 43
M  V30 47 1 25 44
M  V30 48 1 26 45
M  V30 49 1 28 46
M  V30 50 1 29 47
M  V30 END BOND
M  V30 END CTAB
M  END
>  <Dataset>  (117) 
ChEMBL_Kinases

>  <Ligand_Instance>  (117) 
nan

>  <PDB_ID>  (117) 
nan

>  <Standardized_SMILES>  (117) 
O=C(CCc1ccccc1)Nc1onc(-c2ccc(F)cc2)c1-c1ccncc1

>  <Name>  (117) 
nan

>  <Pocket>  (117) 
nan

>  <ATP_Site>  (117) 
nan

>  <Peripheral>  (117) 
nan

>  <Num_H_Atoms_ProtBoundConf>  (117) 
nan

>  <Num_Resolved_Atoms>  (117) 
nan

>  <Num_Not_Resolved_Atoms>  (117) 
nan

$$$$
CHEMBL3310135
     RDKit          3D

  0  0  0  0  0  0  0  0  0  0999 V3000
M  V30 BEGIN CTAB
M  V30 COUNTS 44 47 0 0 0
M  V30 BEGIN ATOM
M  V30 1 O 3.573866 -1.967588 1.554666 0
M  V30 2 C 3.320212 -1.293589 0.542992 0
M  V30 3 C 3.975801 -1.514242 -0.786241 0
M  V30 4 C 3.520359 -0.493304 -1.783312 0
M  V30 5 C 2.409530 -0.754831 -2.593162 0
M  V30 6 C 1.965925 0.185477 -3.530141 0
M  V30 7 C 2.622232 1.390445 -3.668541 0
M  V30 8 C 3.732185 1.656451 -2.862079 0
M  V30 9 C 4.165097 0.717342 -1.935165 0
M  V30 10 N 2.369183 -0.267121 0.640600 0
M  V30 11 C 1.531415 0.282509 1.649462 0
M  V30 12 O 1.805098 1.263226 2.481299 0
M  V30 13 N 0.791235 1.487797 3.260993 0
M  V30 14 C -0.225852 0.662418 2.991564 0
M  V30 15 C -1.567313 0.466059 3.528861 0
M  V30 16 C -1.920044 0.104962 4.805318 0
M  V30 17 C -3.262842 -0.020681 5.083817 0
M  V30 18 C -4.237421 0.198468 4.147507 0
M  V30 19 F -5.552055 0.060610 4.474457 0
M  V30 20 C -3.911146 0.562237 2.857537 0
M  V30 21 C -2.566169 0.689379 2.573908 0
M  V30 22 C 0.240188 -0.133104 1.940289 0
M  V30 23 C -0.445412 -1.211877 1.237454 0
M  V30 24 C -0.769453 -1.296145 -0.109104 0
M  V30 25 C -1.425497 -2.431837 -0.533786 0
M  V30 26 N -1.761760 -3.446346 0.280429 0
M  V30 27 C -1.458971 -3.396260 1.607511 0
M  V30 28 C -0.802114 -2.267323 2.052336 0
M  V30 29 H 3.641242 -2.512708 -1.158379 0
M  V30 30 H 5.090737 -1.519515 -0.692264 0
M  V30 31 H 1.866308 -1.687109 -2.517355 0
M  V30 32 H 1.101555 -0.039308 -4.148351 0
M  V30 33 H 2.271864 2.114451 -4.398125 0
M  V30 34 H 4.261569 2.586139 -2.948688 0
M  V30 35 H 5.031729 0.898203 -1.289582 0
M  V30 36 H 2.142273 0.315947 -0.216412 0
M  V30 37 H -1.100220 -0.046837 5.473059 0
M  V30 38 H -3.518985 -0.311475 6.114980 0
M  V30 39 H -4.684600 0.734586 2.120346 0
M  V30 40 H -2.369580 0.980842 1.531475 0
M  V30 41 H -0.463153 -0.441494 -0.684183 0
M  V30 42 H -1.654325 -2.449806 -1.583525 0
M  V30 43 H -1.740567 -4.223197 2.234903 0
M  V30 44 H -0.594240 -2.302670 3.130224 0
M  V30 END ATOM
M  V30 BEGIN BOND
M  V30 1 2 1 2
M  V30 2 1 2 3
M  V30 3 1 3 4
M  V30 4 2 4 5
M  V30 5 1 5 6
M  V30 6 2 6 7
M  V30 7 1 7 8
M  V30 8 2 8 9
M  V30 9 1 2 10
M  V30 10 1 10 11
M  V30 11 1 11 12
M  V30 12 1 12 13
M  V30 13 2 13 14
M  V30 14 1 14 15
M  V30 15 2 15 16
M  V30 16 1 16 17
M  V30 17 2 17 18
M  V30 18 1 18 19
M  V30 19 1 18 20
M  V30 20 2 20 21
M  V30 21 1 14 22
M  V30 22 1 22 23
M  V30 23 2 23 24
M  V30 24 1 24 25
M  V30 25 2 25 26
M  V30 26 1 26 27
M  V30 27 2 27 28
M  V30 28 1 9 4
M  V30 29 2 22 11
M  V30 30 1 28 23
M  V30 31 1 21 15
M  V30 32 1 3 29
M  V30 33 1 3 30
M  V30 34 1 5 31
M  V30 35 1 6 32
M  V30 36 1 7 33
M  V30 37 1 8 34
M  V30 38 1 9 35
M  V30 39 1 10 36
M  V30 40 1 16 37
M  V30 41 1 17 38
M  V30 42 1 20 39
M  V30 43 1 21 40
M  V30 44 1 24 41
M  V30 45 1 25 42
M  V30 46 1 27 43
M  V30 47 1 28 44
M  V30 END BOND
M  V30 END CTAB
M  END
>  <Dataset>  (118) 
ChEMBL_Kinases

>  <Ligand_Instance>  (118) 
nan

>  <PDB_ID>  (118) 
nan

>  <Standardized_SMILES>  (118) 
O=C(Cc1ccccc1)Nc1onc(-c2ccc(F)cc2)c1-c1ccncc1

>  <Name>  (118) 
nan

>  <Pocket>  (118) 
nan

>  <ATP_Site>  (118) 
nan

>  <Peripheral>  (118) 
nan

>  <Num_H_Atoms_ProtBoundConf>  (118) 
nan

>  <Num_Resolved_Atoms>  (118) 
nan

>  <Num_Not_Resolved_Atoms>  (118) 
nan

$$$$
CHEMBL3298676
     RDKit          3D

  0  0  0  0  0  0  0  0  0  0999 V3000
M  V30 BEGIN CTAB
M  V30 COUNTS 52 55 0 0 0
M  V30 BEGIN ATOM
M  V30 1 C 3.869145 -3.377162 -6.628303 0
M  V30 2 N 4.337859 -2.595403 -5.483070 0
M  V30 3 C 3.577525 -1.978973 -4.559193 0
M  V30 4 C 4.349602 -1.331451 -3.617709 0
M  V30 5 N 3.971341 -0.566251 -2.481324 0
M  V30 6 C 2.615650 -0.340808 -2.123677 0
M  V30 7 N 1.548910 -0.807419 -2.793075 0
M  V30 8 C 0.270502 -0.584622 -2.440642 0
M  V30 9 C 0.000066 0.171524 -1.319204 0
M  V30 10 C 1.078079 0.663392 -0.612716 0
M  V30 11 N 2.302870 0.389293 -1.039906 0
M  V30 12 C 0.804808 1.481152 0.600209 0
M  V30 13 N -0.465615 0.928615 1.105455 0
M  V30 14 C -0.423591 0.186825 2.320300 0
M  V30 15 O 0.747605 0.127142 2.776676 0
M  V30 16 N -1.621625 -0.367663 2.850790 0
M  V30 17 C -1.526709 -1.114698 4.090121 0 CFG=2
M  V30 18 C -1.912595 -2.566962 3.892223 0
M  V30 19 O -3.206112 -2.719660 3.435109 0
M  V30 20 C -2.412058 -0.543675 5.105962 0
M  V30 21 C -2.027785 -0.320967 6.431236 0
M  V30 22 C -2.907810 0.224260 7.357576 0
M  V30 23 C -4.208712 0.568193 6.992488 0
M  V30 24 F -5.038755 1.095859 7.916710 0
M  V30 25 C -4.574455 0.341651 5.676382 0
M  V30 26 Cl -6.199377 0.762253 5.186579 0
M  V30 27 C -3.704740 -0.196828 4.762186 0
M  V30 28 C -1.560737 1.271763 0.212915 0
M  V30 29 C -1.437114 0.371304 -0.997818 0
M  V30 30 C 5.639147 -1.596126 -4.032160 0
M  V30 31 N 5.591170 -2.349626 -5.143437 0
M  V30 32 H 4.617402 -3.374121 -7.424046 0
M  V30 33 H 3.657874 -4.417081 -6.268666 0
M  V30 34 H 2.881355 -2.992134 -6.982629 0
M  V30 35 H 2.509830 -2.011610 -4.587603 0
M  V30 36 H 4.709419 -0.155491 -1.888674 0
M  V30 37 H -0.434146 -1.052210 -3.118117 0
M  V30 38 H 0.649494 2.551000 0.287904 0
M  V30 39 H 1.593375 1.400596 1.372986 0
M  V30 40 H -2.521465 -0.234223 2.358393 0
M  V30 41 H -0.465482 -1.121259 4.427512 0
M  V30 42 H -1.838930 -3.039806 4.893112 0
M  V30 43 H -1.153810 -3.103154 3.268532 0
M  V30 44 H -3.254591 -3.564069 2.890787 0
M  V30 45 H -1.019270 -0.586772 6.717362 0
M  V30 46 H -2.577333 0.381698 8.369286 0
M  V30 47 H -4.067954 -0.346685 3.737219 0
M  V30 48 H -1.497606 2.351697 -0.079636 0
M  V30 49 H -2.548030 1.142500 0.718217 0
M  V30 50 H -1.906530 -0.606720 -0.806166 0
M  V30 51 H -1.968938 0.878443 -1.846417 0
M  V30 52 H 6.523188 -1.222073 -3.496349 0
M  V30 END ATOM
M  V30 BEGIN BOND
M  V30 1 1 1 2
M  V30 2 1 2 3
M  V30 3 2 3 4
M  V30 4 1 4 5
M  V30 5 1 5 6
M  V30 6 2 6 7
M  V30 7 1 7 8
M  V30 8 2 8 9
M  V30 9 1 9 10
M  V30 10 2 10 11
M  V30 11 1 10 12
M  V30 12 1 12 13
M  V30 13 1 13 14
M  V30 14 2 14 15
M  V30 15 1 14 16
M  V30 16 1 16 17
M  V30 17 1 17 18
M  V30 18 1 18 19
M  V30 19 1 17 20
M  V30 20 2 20 21
M  V30 21 1 21 22
M  V30 22 2 22 23
M  V30 23 1 23 24
M  V30 24 1 23 25
M  V30 25 1 25 26
M  V30 26 2 25 27
M  V30 27 1 13 28
M  V30 28 1 28 29
M  V30 29 1 4 30
M  V30 30 2 30 31
M  V30 31 1 31 2
M  V30 32 1 11 6
M  V30 33 1 27 20
M  V30 34 1 29 9
M  V30 35 1 1 32
M  V30 36 1 1 33
M  V30 37 1 1 34
M  V30 38 1 3 35
M  V30 39 1 5 36
M  V30 40 1 8 37
M  V30 41 1 12 38
M  V30 42 1 12 39
M  V30 43 1 16 40
M  V30 44 1 17 41 CFG=1
M  V30 45 1 18 42
M  V30 46 1 18 43
M  V30 47 1 19 44
M  V30 48 1 21 45
M  V30 49 1 22 46
M  V30 50 1 27 47
M  V30 51 1 28 48
M  V30 52 1 28 49
M  V30 53 1 29 50
M  V30 54 1 29 51
M  V30 55 1 30 52
M  V30 END BOND
M  V30 END CTAB
M  END
>  <Dataset>  (119) 
ChEMBL_Kinases

>  <Ligand_Instance>  (119) 
nan

>  <PDB_ID>  (119) 
nan

>  <Standardized_SMILES>  (119) 
Cn1cc(Nc2ncc3c(n2)CN(C(=O)N[C@H](CO)c2ccc(F)c(Cl)c2)CC3)cn1

>  <Name>  (119) 
nan

>  <Pocket>  (119) 
nan

>  <ATP_Site>  (119) 
nan

>  <Peripheral>  (119) 
nan

>  <Num_H_Atoms_ProtBoundConf>  (119) 
nan

>  <Num_Resolved_Atoms>  (119) 
nan

>  <Num_Not_Resolved_Atoms>  (119) 
nan

$$$$
CHEMBL3298677
     RDKit          3D

  0  0  0  0  0  0  0  0  0  0999 V3000
M  V30 BEGIN CTAB
M  V30 COUNTS 54 57 0 0 0
M  V30 BEGIN ATOM
M  V30 1 C 2.121776 -3.812200 -3.701039 0
M  V30 2 C 2.833870 -4.337624 -2.514012 0
M  V30 3 C 2.994500 -3.591724 -1.369009 0
M  V30 4 C 3.636151 -4.009032 -0.242511 0
M  V30 5 N 3.825426 -3.278379 0.956280 0
M  V30 6 C 3.392766 -1.960312 1.249084 0
M  V30 7 N 3.642452 -1.395677 2.425442 0
M  V30 8 C 3.273034 -0.159389 2.788049 0
M  V30 9 C 2.574451 0.625738 1.897477 0
M  V30 10 C 2.296154 0.075586 0.666751 0
M  V30 11 N 2.711865 -1.169706 0.406824 0
M  V30 12 C 1.542659 0.916953 -0.298089 0
M  V30 13 N 0.454687 1.493148 0.486442 0
M  V30 14 C -0.869000 1.177129 0.069662 0
M  V30 15 O -0.751338 0.424650 -0.945680 0
M  V30 16 N -2.030983 1.659576 0.728215 0
M  V30 17 C -3.338735 1.257815 0.195657 0 CFG=2
M  V30 18 C -4.181540 2.466831 -0.091638 0
M  V30 19 O -5.422942 2.075901 -0.597679 0
M  V30 20 C -4.030169 0.421323 1.231842 0
M  V30 21 C -4.040589 0.812086 2.570438 0
M  V30 22 C -4.694360 -0.000030 3.480791 0
M  V30 23 C -5.319375 -1.163431 3.081774 0
M  V30 24 F -5.949147 -1.934291 3.996115 0
M  V30 25 C -5.319285 -1.565316 1.763197 0
M  V30 26 Cl -6.104157 -3.040729 1.214735 0
M  V30 27 C -4.669947 -0.762480 0.846718 0
M  V30 28 C 0.770023 2.338401 1.623797 0
M  V30 29 C 2.112577 1.998515 2.174248 0
M  V30 30 C 4.132589 -5.289854 -0.343182 0
M  V30 31 C 3.989175 -6.056204 -1.467333 0
M  V30 32 N 3.348427 -5.582313 -2.534192 0
M  V30 33 H 2.352827 -4.461398 -4.577467 0
M  V30 34 H 2.520708 -2.798939 -3.898272 0
M  V30 35 H 1.027743 -3.783167 -3.588863 0
M  V30 36 H 2.570311 -2.617459 -1.404942 0
M  V30 37 H 4.346790 -3.762735 1.723972 0
M  V30 38 H 3.508315 0.242107 3.764050 0
M  V30 39 H 1.192585 0.404734 -1.189293 0
M  V30 40 H 2.235804 1.743643 -0.618793 0
M  V30 41 H -1.924251 2.267726 1.547396 0
M  V30 42 H -3.142844 0.615573 -0.672673 0
M  V30 43 H -3.632319 3.114489 -0.795549 0
M  V30 44 H -4.301752 3.004620 0.878671 0
M  V30 45 H -5.631675 1.150029 -0.375779 0
M  V30 46 H -3.547782 1.717636 2.846422 0
M  V30 47 H -4.687683 0.330043 4.526885 0
M  V30 48 H -4.651280 -1.048407 -0.193087 0
M  V30 49 H -0.052722 2.229542 2.357154 0
M  V30 50 H 0.802052 3.421466 1.309079 0
M  V30 51 H 2.883710 2.732230 1.833800 0
M  V30 52 H 2.049343 2.177130 3.287833 0
M  V30 53 H 4.670898 -5.782656 0.456876 0
M  V30 54 H 4.371169 -7.054625 -1.557897 0
M  V30 END ATOM
M  V30 BEGIN BOND
M  V30 1 1 1 2
M  V30 2 2 2 3
M  V30 3 1 3 4
M  V30 4 1 4 5
M  V30 5 1 5 6
M  V30 6 2 6 7
M  V30 7 1 7 8
M  V30 8 2 8 9
M  V30 9 1 9 10
M  V30 10 2 10 11
M  V30 11 1 10 12
M  V30 12 1 12 13
M  V30 13 1 13 14
M  V30 14 2 14 15
M  V30 15 1 14 16
M  V30 16 1 16 17
M  V30 17 1 17 18
M  V30 18 1 18 19
M  V30 19 1 17 20
M  V30 20 2 20 21
M  V30 21 1 21 22
M  V30 22 2 22 23
M  V30 23 1 23 24
M  V30 24 1 23 25
M  V30 25 1 25 26
M  V30 26 2 25 27
M  V30 27 1 13 28
M  V30 28 1 28 29
M  V30 29 2 4 30
M  V30 30 1 30 31
M  V30 31 2 31 32
M  V30 32 1 32 2
M  V30 33 1 11 6
M  V30 34 1 27 20
M  V30 35 1 29 9
M  V30 36 1 1 33
M  V30 37 1 1 34
M  V30 38 1 1 35
M  V30 39 1 3 36
M  V30 40 1 5 37
M  V30 41 1 8 38
M  V30 42 1 12 39
M  V30 43 1 12 40
M  V30 44 1 16 41
M  V30 45 1 17 42 CFG=3
M  V30 46 1 18 43
M  V30 47 1 18 44
M  V30 48 1 19 45
M  V30 49 1 21 46
M  V30 50 1 22 47
M  V30 51 1 27 48
M  V30 52 1 28 49
M  V30 53 1 28 50
M  V30 54 1 29 51
M  V30 55 1 29 52
M  V30 56 1 30 53
M  V30 57 1 31 54
M  V30 END BOND
M  V30 END CTAB
M  END
>  <Dataset>  (120) 
ChEMBL_Kinases

>  <Ligand_Instance>  (120) 
nan

>  <PDB_ID>  (120) 
nan

>  <Standardized_SMILES>  (120) 
Cc1cc(Nc2ncc3c(n2)CN(C(=O)N[C@H](CO)c2ccc(F)c(Cl)c2)CC3)ccn1

>  <Name>  (120) 
nan

>  <Pocket>  (120) 
nan

>  <ATP_Site>  (120) 
nan

>  <Peripheral>  (120) 
nan

>  <Num_H_Atoms_ProtBoundConf>  (120) 
nan

>  <Num_Resolved_Atoms>  (120) 
nan

>  <Num_Not_Resolved_Atoms>  (120) 
nan

$$$$
CHEMBL3298792
     RDKit          3D

  0  0  0  0  0  0  0  0  0  0999 V3000
M  V30 BEGIN CTAB
M  V30 COUNTS 39 39 0 0 0
M  V30 BEGIN ATOM
M  V30 1 C 1.162276 -3.088667 4.305826 0
M  V30 2 C 0.569517 -3.311589 2.923275 0
M  V30 3 C -0.774032 -4.022325 3.079910 0
M  V30 4 C 1.456277 -4.207973 2.103425 0
M  V30 5 O 0.401871 -2.022731 2.356312 0
M  V30 6 C -0.110419 -1.774582 1.103956 0
M  V30 7 O -0.474405 -2.695313 0.356879 0
M  V30 8 N -0.164010 -0.399932 0.797474 0
M  V30 9 N -0.646259 0.129433 -0.419971 0
M  V30 10 C 0.384530 0.276519 -1.426507 0
M  V30 11 C 0.950465 1.648177 -1.244358 0
M  V30 12 C 0.497369 2.801419 -1.864387 0
M  V30 13 C 1.108907 4.011004 -1.610060 0
M  V30 14 C 2.184606 4.106531 -0.734745 0
M  V30 15 C 2.664863 2.990642 -0.099976 0
M  V30 16 C 2.030528 1.789578 -0.375074 0
M  V30 17 C -1.965461 0.525771 -0.781770 0
M  V30 18 O -2.450081 1.007316 -1.862919 0
M  V30 19 C -3.130242 0.437008 0.137064 0
M  V30 20 I -4.844101 1.160298 -0.921623 0
M  V30 21 H 1.822574 -2.181142 4.286745 0
M  V30 22 H 0.353656 -2.877494 5.005995 0
M  V30 23 H 1.831531 -3.929582 4.597115 0
M  V30 24 H -0.968918 -4.700943 2.230662 0
M  V30 25 H -1.569912 -3.284824 3.243231 0
M  V30 26 H -0.690068 -4.691057 3.974827 0
M  V30 27 H 1.751554 -5.050677 2.777343 0
M  V30 28 H 2.373034 -3.689747 1.763585 0
M  V30 29 H 0.890961 -4.671002 1.271568 0
M  V30 30 H 0.139661 0.383200 1.418833 0
M  V30 31 H -0.068433 0.171639 -2.430213 0
M  V30 32 H 1.223288 -0.440915 -1.311556 0
M  V30 33 H -0.330830 2.663187 -2.524672 0
M  V30 34 H 0.743166 4.901376 -2.102011 0
M  V30 35 H 2.691073 5.037494 -0.509190 0
M  V30 36 H 3.504690 2.993761 0.598445 0
M  V30 37 H 2.412548 0.904814 0.129260 0
M  V30 38 H -3.002408 1.060514 1.058091 0
M  V30 39 H -3.372400 -0.599989 0.445325 0
M  V30 END ATOM
M  V30 BEGIN BOND
M  V30 1 1 1 2
M  V30 2 1 2 3
M  V30 3 1 2 4
M  V30 4 1 2 5
M  V30 5 1 5 6
M  V30 6 2 6 7
M  V30 7 1 6 8
M  V30 8 1 8 9
M  V30 9 1 9 10
M  V30 10 1 10 11
M  V30 11 2 11 12
M  V30 12 1 12 13
M  V30 13 2 13 14
M  V30 14 1 14 15
M  V30 15 2 15 16
M  V30 16 1 9 17
M  V30 17 2 17 18
M  V30 18 1 17 19
M  V30 19 1 19 20
M  V30 20 1 16 11
M  V30 21 1 1 21
M  V30 22 1 1 22
M  V30 23 1 1 23
M  V30 24 1 3 24
M  V30 25 1 3 25
M  V30 26 1 3 26
M  V30 27 1 4 27
M  V30 28 1 4 28
M  V30 29 1 4 29
M  V30 30 1 8 30
M  V30 31 1 10 31
M  V30 32 1 10 32
M  V30 33 1 12 33
M  V30 34 1 13 34
M  V30 35 1 14 35
M  V30 36 1 15 36
M  V30 37 1 16 37
M  V30 38 1 19 38
M  V30 39 1 19 39
M  V30 END BOND
M  V30 END CTAB
M  END
>  <Dataset>  (121) 
ChEMBL_Kinases

>  <Ligand_Instance>  (121) 
nan

>  <PDB_ID>  (121) 
nan

>  <Standardized_SMILES>  (121) 
CC(C)(C)OC(=O)NN(Cc1ccccc1)C(=O)CI

>  <Name>  (121) 
nan

>  <Pocket>  (121) 
nan

>  <ATP_Site>  (121) 
nan

>  <Peripheral>  (121) 
nan

>  <Num_H_Atoms_ProtBoundConf>  (121) 
nan

>  <Num_Resolved_Atoms>  (121) 
nan

>  <Num_Not_Resolved_Atoms>  (121) 
nan

$$$$
CHEMBL3298818
     RDKit          3D

  0  0  0  0  0  0  0  0  0  0999 V3000
M  V30 BEGIN CTAB
M  V30 COUNTS 57 60 0 0 0
M  V30 BEGIN ATOM
M  V30 1 O -0.514597 -2.180776 2.142607 0
M  V30 2 C 0.035826 -2.424539 1.035115 0
M  V30 3 C 1.460020 -2.330495 0.699834 0
M  V30 4 C 2.336512 -1.887284 1.826420 0
M  V30 5 C 2.297212 -2.793443 3.017979 0
M  V30 6 N 3.227876 -2.244872 4.005565 0
M  V30 7 C 2.952405 -0.902416 4.442719 0
M  V30 8 O 3.232394 -0.466109 5.611832 0
M  V30 9 C 2.311664 -0.000329 3.469310 0
M  V30 10 C 1.894562 1.313706 3.496490 0
M  V30 11 C 1.352995 1.614785 2.264405 0
M  V30 12 C 0.774125 2.879020 1.798149 0
M  V30 13 C 0.116816 3.750759 2.616521 0
M  V30 14 C -0.382634 4.915873 2.028520 0
M  V30 15 C -0.220380 5.170143 0.697384 0
M  V30 16 C 0.445854 4.287797 -0.134346 0
M  V30 17 C 0.651757 4.514842 -1.588161 0
M  V30 18 F 1.733196 5.346016 -1.802661 0
M  V30 19 F 0.864756 3.303894 -2.221039 0
M  V30 20 F -0.526868 5.112371 -2.045795 0
M  V30 21 C 0.937243 3.139714 0.448225 0
M  V30 22 C 1.474111 0.428579 1.530307 0
M  V30 23 N 2.053680 -0.539334 2.266238 0
M  V30 24 N -0.860907 -2.835274 0.016703 0
M  V30 25 C -2.259745 -2.938235 0.305591 0
M  V30 26 C -3.044990 -3.396329 -0.932493 0
M  V30 27 C -2.628520 -4.715059 -1.450149 0
M  V30 28 C -1.788307 -4.771096 -2.661247 0
M  V30 29 C -1.775147 -3.581166 -3.546706 0
M  V30 30 C -3.080811 -2.832790 -3.367998 0
M  V30 31 C -3.037578 -2.288649 -1.956432 0
M  V30 32 H 1.683303 -1.700418 -0.178226 0
M  V30 33 H 1.789522 -3.355026 0.415745 0
M  V30 34 H 3.380816 -1.890561 1.451933 0
M  V30 35 H 1.290495 -2.798927 3.489968 0
M  V30 36 H 2.582217 -3.839516 2.753582 0
M  V30 37 H 4.084392 -2.687902 4.456003 0
M  V30 38 H 1.977236 1.992070 4.339071 0
M  V30 39 H 0.002237 3.526120 3.665411 0
M  V30 40 H -0.901751 5.604836 2.675166 0
M  V30 41 H -0.599941 6.071279 0.216347 0
M  V30 42 H 1.467118 2.435439 -0.210081 0
M  V30 43 H 1.121043 0.387856 0.511647 0
M  V30 44 H -0.510732 -3.059633 -0.930995 0
M  V30 45 H -2.475683 -3.587172 1.179030 0
M  V30 46 H -2.723540 -1.942977 0.567692 0
M  V30 47 H -4.100423 -3.458396 -0.589115 0
M  V30 48 H -2.034070 -5.205002 -0.623809 0
M  V30 49 H -3.512387 -5.409602 -1.554855 0
M  V30 50 H -0.708006 -5.024953 -2.447697 0
M  V30 51 H -2.107055 -5.645271 -3.302466 0
M  V30 52 H -1.617196 -3.876895 -4.613394 0
M  V30 53 H -0.977140 -2.841189 -3.284135 0
M  V30 54 H -3.166511 -2.000404 -4.076397 0
M  V30 55 H -3.903508 -3.574491 -3.516564 0
M  V30 56 H -3.907636 -1.586170 -1.840205 0
M  V30 57 H -2.103304 -1.696152 -1.875453 0
M  V30 END ATOM
M  V30 BEGIN BOND
M  V30 1 2 1 2
M  V30 2 1 2 3
M  V30 3 1 3 4
M  V30 4 1 4 5
M  V30 5 1 5 6
M  V30 6 1 6 7
M  V30 7 2 7 8
M  V30 8 1 7 9
M  V30 9 2 9 10
M  V30 10 1 10 11
M  V30 11 1 11 12
M  V30 12 2 12 13
M  V30 13 1 13 14
M  V30 14 2 14 15
M  V30 15 1 15 16
M  V30 16 1 16 17
M  V30 17 1 17 18
M  V30 18 1 17 19
M  V30 19 1 17 20
M  V30 20 2 16 21
M  V30 21 2 11 22
M  V30 22 1 22 23
M  V30 23 1 2 24
M  V30 24 1 24 25
M  V30 25 1 25 26
M  V30 26 1 26 27
M  V30 27 1 27 28
M  V30 28 1 28 29
M  V30 29 1 29 30
M  V30 30 1 30 31
M  V30 31 1 23 4
M  V30 32 1 31 26
M  V30 33 1 23 9
M  V30 34 1 21 12
M  V30 35 1 3 32
M  V30 36 1 3 33
M  V30 37 1 4 34
M  V30 38 1 5 35
M  V30 39 1 5 36
M  V30 40 1 6 37
M  V30 41 1 10 38
M  V30 42 1 13 39
M  V30 43 1 14 40
M  V30 44 1 15 41
M  V30 45 1 21 42
M  V30 46 1 22 43
M  V30 47 1 24 44
M  V30 48 1 25 45
M  V30 49 1 25 46
M  V30 50 1 26 47
M  V30 51 1 27 48
M  V30 52 1 27 49
M  V30 53 1 28 50
M  V30 54 1 28 51
M  V30 55 1 29 52
M  V30 56 1 29 53
M  V30 57 1 30 54
M  V30 58 1 30 55
M  V30 59 1 31 56
M  V30 60 1 31 57
M  V30 END BOND
M  V30 END CTAB
M  END
>  <Dataset>  (122) 
ChEMBL_Kinases

>  <Ligand_Instance>  (122) 
nan

>  <PDB_ID>  (122) 
nan

>  <Standardized_SMILES>  (122) 
O=C(CC1CNC(=O)c2cc(-c3cccc(C(F)(F)F)c3)cn21)NCC1CCCCC1

>  <Name>  (122) 
nan

>  <Pocket>  (122) 
nan

>  <ATP_Site>  (122) 
nan

>  <Peripheral>  (122) 
nan

>  <Num_H_Atoms_ProtBoundConf>  (122) 
nan

>  <Num_Resolved_Atoms>  (122) 
nan

>  <Num_Not_Resolved_Atoms>  (122) 
nan

$$$$
CHEMBL3298894
     RDKit          3D

  0  0  0  0  0  0  0  0  0  0999 V3000
M  V30 BEGIN CTAB
M  V30 COUNTS 47 49 0 0 0
M  V30 BEGIN ATOM
M  V30 1 C 2.186422 -6.501599 -0.210079 0
M  V30 2 C 1.365835 -5.307891 -0.652631 0
M  V30 3 C 1.088060 -5.396665 -2.134304 0
M  V30 4 N 1.963080 -4.043968 -0.268694 0
M  V30 5 C 1.305220 -2.830778 -0.614582 0
M  V30 6 N 0.125053 -2.901318 -1.298146 0
M  V30 7 C -0.547216 -1.767188 -1.654627 0
M  V30 8 C 0.009864 -0.544133 -1.298509 0
M  V30 9 C 1.201924 -0.471534 -0.608039 0
M  V30 10 N 1.830492 -1.638292 -0.277810 0
M  V30 11 C 1.789766 0.848636 -0.231631 0
M  V30 12 N 0.664276 1.792932 -0.167418 0
M  V30 13 C 0.125992 2.601894 0.898665 0
M  V30 14 O -0.870483 3.353159 0.707239 0
M  V30 15 N 0.722282 2.556779 2.187783 0
M  V30 16 C 0.312550 3.296396 3.360276 0
M  V30 17 C -0.908713 2.740891 4.005590 0
M  V30 18 C -0.778332 1.773579 4.979082 0
M  V30 19 C -1.842889 1.179454 5.654464 0
M  V30 20 C -3.119823 1.603979 5.309412 0
M  V30 21 C -3.297705 2.572852 4.337536 0
M  V30 22 Cl -4.907147 3.140132 3.870580 0
M  V30 23 C -2.201095 3.117097 3.710907 0
M  V30 24 C 0.007104 1.878615 -1.474724 0
M  V30 25 C -0.807940 0.617447 -1.738409 0
M  V30 26 H 2.120804 -7.339094 -0.958274 0
M  V30 27 H 3.217543 -6.172560 -0.051188 0
M  V30 28 H 1.827405 -6.940326 0.752321 0
M  V30 29 H 0.365987 -5.391932 -0.143133 0
M  V30 30 H -0.010279 -5.273752 -2.367418 0
M  V30 31 H 1.700163 -4.676128 -2.729306 0
M  V30 32 H 1.344044 -6.409281 -2.558269 0
M  V30 33 H 2.864473 -4.002100 0.255728 0
M  V30 34 H -1.468628 -1.911205 -2.190594 0
M  V30 35 H 2.292215 0.797272 0.744011 0
M  V30 36 H 2.526669 1.213229 -0.973933 0
M  V30 37 H 1.553263 1.908296 2.284821 0
M  V30 38 H 0.111930 4.335045 3.023965 0
M  V30 39 H 1.156783 3.373129 4.066647 0
M  V30 40 H 0.197271 1.412619 5.279083 0
M  V30 41 H -1.674173 0.421062 6.413738 0
M  V30 42 H -3.987340 1.178474 5.800208 0
M  V30 43 H -2.349265 3.867881 2.959462 0
M  V30 44 H 0.772979 2.017851 -2.256961 0
M  V30 45 H -0.730830 2.724888 -1.487893 0
M  V30 46 H -0.869789 0.563453 -2.864461 0
M  V30 47 H -1.787715 0.688432 -1.268889 0
M  V30 END ATOM
M  V30 BEGIN BOND
M  V30 1 1 1 2
M  V30 2 1 2 3
M  V30 3 1 2 4
M  V30 4 1 4 5
M  V30 5 2 5 6
M  V30 6 1 6 7
M  V30 7 2 7 8
M  V30 8 1 8 9
M  V30 9 2 9 10
M  V30 10 1 9 11
M  V30 11 1 11 12
M  V30 12 1 12 13
M  V30 13 2 13 14
M  V30 14 1 13 15
M  V30 15 1 15 16
M  V30 16 1 16 17
M  V30 17 2 17 18
M  V30 18 1 18 19
M  V30 19 2 19 20
M  V30 20 1 20 21
M  V30 21 1 21 22
M  V30 22 2 21 23
M  V30 23 1 12 24
M  V30 24 1 24 25
M  V30 25 1 10 5
M  V30 26 1 23 17
M  V30 27 1 25 8
M  V30 28 1 1 26
M  V30 29 1 1 27
M  V30 30 1 1 28
M  V30 31 1 2 29
M  V30 32 1 3 30
M  V30 33 1 3 31
M  V30 34 1 3 32
M  V30 35 1 4 33
M  V30 36 1 7 34
M  V30 37 1 11 35
M  V30 38 1 11 36
M  V30 39 1 15 37
M  V30 40 1 16 38
M  V30 41 1 16 39
M  V30 42 1 18 40
M  V30 43 1 19 41
M  V30 44 1 20 42
M  V30 45 1 23 43
M  V30 46 1 24 44
M  V30 47 1 24 45
M  V30 48 1 25 46
M  V30 49 1 25 47
M  V30 END BOND
M  V30 END CTAB
M  END
>  <Dataset>  (123) 
ChEMBL_Kinases

>  <Ligand_Instance>  (123) 
nan

>  <PDB_ID>  (123) 
nan

>  <Standardized_SMILES>  (123) 
CC(C)Nc1ncc2c(n1)CN(C(=O)NCc1cccc(Cl)c1)CC2

>  <Name>  (123) 
nan

>  <Pocket>  (123) 
nan

>  <ATP_Site>  (123) 
nan

>  <Peripheral>  (123) 
nan

>  <Num_H_Atoms_ProtBoundConf>  (123) 
nan

>  <Num_Resolved_Atoms>  (123) 
nan

>  <Num_Not_Resolved_Atoms>  (123) 
nan

$$$$
CHEMBL3298929
     RDKit          3D

  0  0  0  0  0  0  0  0  0  0999 V3000
M  V30 BEGIN CTAB
M  V30 COUNTS 47 48 0 0 0
M  V30 BEGIN ATOM
M  V30 1 C 2.932575 -4.948379 1.796457 0
M  V30 2 C 1.773963 -4.065048 1.378090 0
M  V30 3 C 0.518642 -4.754915 1.882379 0
M  V30 4 C 1.725869 -4.076240 -0.121636 0
M  V30 5 O 1.912444 -2.760085 1.925226 0
M  V30 6 C 0.916367 -1.860057 1.615226 0
M  V30 7 O -0.026970 -2.221313 0.893913 0
M  V30 8 N 0.904821 -0.518886 2.080640 0
M  V30 9 N -0.026428 0.493593 1.851099 0
M  V30 10 C 0.170088 1.799403 2.435163 0
M  V30 11 C 0.976470 2.723999 1.643449 0
M  V30 12 C 0.599953 3.666941 0.713736 0
M  V30 13 C 1.505655 4.459618 0.045732 0
M  V30 14 C 2.858713 4.346232 0.279343 0
M  V30 15 C 3.287003 3.416755 1.201415 0
M  V30 16 C 2.358637 2.637006 1.854888 0
M  V30 17 C -1.168782 0.264754 1.050410 0
M  V30 18 O -1.882503 -0.477640 0.338250 0
M  V30 19 C -2.284359 1.115322 0.649477 0
M  V30 20 N -3.158603 0.282570 -0.192339 0
M  V30 21 C -4.244521 -0.521967 0.261570 0
M  V30 22 O -4.650044 -0.667615 1.441103 0
M  V30 23 C -4.766732 -1.129349 -0.958801 0
M  V30 24 C -4.084299 -0.743486 -2.025345 0
M  V30 25 C -3.022410 0.172862 -1.623503 0
M  V30 26 O -2.150047 0.770902 -2.303180 0
M  V30 27 H 2.995282 -5.772052 1.054818 0
M  V30 28 H 3.890813 -4.404513 1.813762 0
M  V30 29 H 2.677613 -5.435252 2.766571 0
M  V30 30 H 0.310827 -4.370986 2.910218 0
M  V30 31 H -0.367010 -4.509516 1.266113 0
M  V30 32 H 0.680096 -5.833929 1.857083 0
M  V30 33 H 2.387432 -3.339588 -0.595282 0
M  V30 34 H 0.684372 -3.991073 -0.456951 0
M  V30 35 H 2.067525 -5.082263 -0.459261 0
M  V30 36 H 1.749187 -0.297283 2.690413 0
M  V30 37 H -0.814917 2.263557 2.729891 0
M  V30 38 H 0.659478 1.601774 3.426337 0
M  V30 39 H -0.450891 3.740455 0.552777 0
M  V30 40 H 1.117480 5.160109 -0.655261 0
M  V30 41 H 3.499824 5.006957 -0.288067 0
M  V30 42 H 4.346927 3.324803 1.387510 0
M  V30 43 H 2.788084 1.931518 2.564502 0
M  V30 44 H -1.901336 1.949373 0.029166 0
M  V30 45 H -2.839391 1.566827 1.492792 0
M  V30 46 H -5.605592 -1.814485 -1.023407 0
M  V30 47 H -4.261223 -1.043680 -3.054890 0
M  V30 END ATOM
M  V30 BEGIN BOND
M  V30 1 1 1 2
M  V30 2 1 2 3
M  V30 3 1 2 4
M  V30 4 1 2 5
M  V30 5 1 5 6
M  V30 6 2 6 7
M  V30 7 1 6 8
M  V30 8 1 8 9
M  V30 9 1 9 10
M  V30 10 1 10 11
M  V30 11 2 11 12
M  V30 12 1 12 13
M  V30 13 2 13 14
M  V30 14 1 14 15
M  V30 15 2 15 16
M  V30 16 1 9 17
M  V30 17 2 17 18
M  V30 18 1 17 19
M  V30 19 1 19 20
M  V30 20 1 20 21
M  V30 21 2 21 22
M  V30 22 1 21 23
M  V30 23 2 23 24
M  V30 24 1 24 25
M  V30 25 2 25 26
M  V30 26 1 16 11
M  V30 27 1 25 20
M  V30 28 1 1 27
M  V30 29 1 1 28
M  V30 30 1 1 29
M  V30 31 1 3 30
M  V30 32 1 3 31
M  V30 33 1 3 32
M  V30 34 1 4 33
M  V30 35 1 4 34
M  V30 36 1 4 35
M  V30 37 1 8 36
M  V30 38 1 10 37
M  V30 39 1 10 38
M  V30 40 1 12 39
M  V30 41 1 13 40
M  V30 42 1 14 41
M  V30 43 1 15 42
M  V30 44 1 16 43
M  V30 45 1 19 44
M  V30 46 1 19 45
M  V30 47 1 23 46
M  V30 48 1 24 47
M  V30 END BOND
M  V30 END CTAB
M  END
>  <Dataset>  (124) 
ChEMBL_Kinases

>  <Ligand_Instance>  (124) 
nan

>  <PDB_ID>  (124) 
nan

>  <Standardized_SMILES>  (124) 
CC(C)(C)OC(=O)NN(Cc1ccccc1)C(=O)CN1C(=O)C=CC1=O

>  <Name>  (124) 
nan

>  <Pocket>  (124) 
nan

>  <ATP_Site>  (124) 
nan

>  <Peripheral>  (124) 
nan

>  <Num_H_Atoms_ProtBoundConf>  (124) 
nan

>  <Num_Resolved_Atoms>  (124) 
nan

>  <Num_Not_Resolved_Atoms>  (124) 
nan

$$$$
CHEMBL3299032
     RDKit          3D

  0  0  0  0  0  0  0  0  0  0999 V3000
M  V30 BEGIN CTAB
M  V30 COUNTS 130 131 0 0 0
M  V30 BEGIN ATOM
M  V30 1 C -5.828790 -4.946568 -0.382999 0
M  V30 2 O -6.207097 -3.882802 0.397333 0
M  V30 3 C -6.596883 -2.755478 -0.252416 0
M  V30 4 C -5.463975 -2.075862 -1.071237 0 CFG=2
M  V30 5 N -4.444657 -1.664772 -0.131474 0
M  V30 6 C -3.325837 -2.216157 0.502534 0
M  V30 7 O -3.016286 -3.410649 0.298638 0
M  V30 8 C -2.425284 -1.490574 1.438207 0 CFG=2
M  V30 9 C -2.875896 -1.888810 2.855990 0
M  V30 10 C -2.030584 -1.213762 3.873519 0
M  V30 11 C -0.877853 -1.687828 4.453204 0
M  V30 12 C -0.134522 -1.007730 5.384841 0
M  V30 13 C -0.660317 0.247415 5.709200 0
M  V30 14 O 0.052340 1.000191 6.658684 0
M  V30 15 C -1.796760 0.777089 5.173401 0
M  V30 16 C -2.473756 0.036497 4.255528 0
M  V30 17 N -2.604545 -0.072313 1.364105 0
M  V30 18 C -1.323524 0.569656 1.185640 0
M  V30 19 O -0.183028 0.060036 1.118570 0
M  V30 20 C -0.796487 1.966878 1.010199 0 CFG=2
M  V30 21 C -1.237834 2.483610 -0.351208 0
M  V30 22 C -0.764765 1.683417 -1.506904 0
M  V30 23 C -0.891769 3.935729 -0.552225 0
M  V30 24 N 0.621913 1.995646 1.237724 0
M  V30 25 C 1.142533 2.927037 2.219664 0
M  V30 26 C 1.692563 1.258307 0.688212 0
M  V30 27 O 2.174578 0.386272 -0.079449 0
M  V30 28 C 3.136725 1.253331 0.921381 0 CFG=2
M  V30 29 C 3.925576 2.456434 0.584062 0
M  V30 30 C 4.009272 2.982491 -0.768694 0
M  V30 31 C 2.724487 3.447475 -1.398224 0
M  V30 32 N 3.008056 3.907411 -2.776958 0
M  V30 33 C 1.971763 4.431473 -3.570380 0
M  V30 34 N 1.130463 5.302975 -3.052441 0
M  V30 35 N 1.686518 4.157644 -4.932770 0
M  V30 36 N 3.752110 0.044057 0.338675 0
M  V30 37 C 4.470823 -0.948378 1.088997 0
M  V30 38 O 4.449265 -0.532542 2.325108 0
M  V30 39 C 5.208864 -2.134074 1.314821 0 CFG=2
M  V30 40 C 6.582855 -1.927044 1.961147 0
M  V30 41 C 6.925536 -3.384118 2.181839 0
M  V30 42 C 6.148908 -4.173435 1.105712 0
M  V30 43 N 5.589717 -3.066125 0.302623 0
M  V30 44 C 5.573502 -3.272299 -1.107364 0
M  V30 45 O 5.217019 -2.244998 -1.732432 0
M  V30 46 C 5.890243 -4.441115 -1.965042 0 CFG=1
M  V30 47 N 5.831966 -5.715735 -1.376309 0
M  V30 48 C 5.365639 -4.254579 -3.324595 0
M  V30 49 C 3.947751 -4.061964 -3.572042 0
M  V30 50 C 3.007841 -5.147738 -3.221476 0
M  V30 51 N 2.924804 -5.514370 -1.847953 0
M  V30 52 C 2.400784 -4.588916 -0.908385 0
M  V30 53 N 1.617931 -3.618609 -1.238782 0
M  V30 54 N 2.704007 -4.677971 0.464385 0
M  V30 55 C -6.117890 -0.960966 -1.750223 0
M  V30 56 O -6.898039 -1.407935 -2.662372 0
M  V30 57 N -6.106729 0.449543 -1.651204 0
M  V30 58 C -6.900366 1.288787 -2.493217 0
M  V30 59 C -6.680922 2.712756 -2.061216 0
M  V30 60 C -5.259267 3.189627 -2.168561 0
M  V30 61 C -5.169286 4.614497 -1.701349 0
M  V30 62 O -6.174434 5.288182 -1.289280 0
M  V30 63 O -4.037330 5.399952 -1.641106 0
M  V30 64 H -6.661785 -5.296445 -1.044194 0
M  V30 65 H -4.939198 -4.697800 -0.984070 0
M  V30 66 H -5.501338 -5.779332 0.302735 0
M  V30 67 H -6.846025 -1.989516 0.522022 0
M  V30 68 H -7.429186 -2.949746 -0.940093 0
M  V30 69 H -5.135561 -2.874182 -1.739600 0
M  V30 70 H -4.566709 -0.655309 0.179050 0
M  V30 71 H -1.396316 -1.775895 1.319136 0
M  V30 72 H -3.960443 -1.619345 3.003550 0
M  V30 73 H -2.804463 -2.980050 3.014167 0
M  V30 74 H -0.611290 -2.688047 4.088667 0
M  V30 75 H 0.753882 -1.423811 5.803609 0
M  V30 76 H 0.155167 0.579696 7.566500 0
M  V30 77 H -2.147680 1.760969 5.470496 0
M  V30 78 H -3.381383 0.483671 3.842604 0
M  V30 79 H -3.272876 0.720441 1.383097 0
M  V30 80 H -1.284660 2.655188 1.719957 0
M  V30 81 H -2.375862 2.477419 -0.290325 0
M  V30 82 H -0.218101 2.285351 -2.289267 0
M  V30 83 H -1.686265 1.347052 -2.080764 0
M  V30 84 H -0.252113 0.760298 -1.218066 0
M  V30 85 H -1.659172 4.579987 -0.035045 0
M  V30 86 H -0.953085 4.222172 -1.616501 0
M  V30 87 H 0.125077 4.166766 -0.189735 0
M  V30 88 H 1.972039 2.560707 2.821115 0
M  V30 89 H 1.370229 3.921787 1.839297 0
M  V30 90 H 0.308337 3.102591 2.974550 0
M  V30 91 H 3.242987 1.148934 2.036193 0
M  V30 92 H 5.001537 2.315815 0.966875 0
M  V30 93 H 3.581464 3.299320 1.257244 0
M  V30 94 H 4.617437 2.373914 -1.485763 0
M  V30 95 H 4.639025 3.933099 -0.702167 0
M  V30 96 H 2.399254 4.399287 -0.885722 0
M  V30 97 H 1.933552 2.714096 -1.410814 0
M  V30 98 H 3.939208 3.891500 -3.301591 0
M  V30 99 H 1.214978 5.616662 -2.055161 0
M  V30 100 H 1.429284 4.917780 -5.627560 0
M  V30 101 H 1.572498 3.517408 -5.757001 0
M  V30 102 H 3.822232 -0.361936 -0.615620 0
M  V30 103 H 4.681901 -2.818524 2.090230 0
M  V30 104 H 7.276218 -1.435323 1.260632 0
M  V30 105 H 6.507078 -1.420897 2.922110 0
M  V30 106 H 6.533907 -3.756453 3.150655 0
M  V30 107 H 8.013622 -3.576775 2.123353 0
M  V30 108 H 6.879674 -4.786560 0.536213 0
M  V30 109 H 5.340493 -4.765193 1.531905 0
M  V30 110 H 7.071539 -4.306565 -2.139809 0
M  V30 111 H 6.646229 -6.287800 -1.568758 0
M  V30 112 H 5.269495 -5.849518 -0.565869 0
M  V30 113 H 5.777408 -5.076572 -4.005781 0
M  V30 114 H 5.924798 -3.341596 -3.748951 0
M  V30 115 H 3.582989 -3.148284 -2.977644 0
M  V30 116 H 3.773373 -3.722711 -4.656729 0
M  V30 117 H 3.276788 -6.094258 -3.807169 0
M  V30 118 H 1.993079 -4.873898 -3.641697 0
M  V30 119 H 3.196498 -6.434034 -1.427430 0
M  V30 120 H 1.209676 -2.922990 -0.611461 0
M  V30 121 H 2.208338 -4.563810 1.370402 0
M  V30 122 H 2.950087 -4.749398 1.482370 0
M  V30 123 H -5.464573 0.764796 -0.908896 0
M  V30 124 H -7.971867 1.057715 -2.275646 0
M  V30 125 H -6.701662 1.193246 -3.584118 0
M  V30 126 H -7.378329 3.353877 -2.630280 0
M  V30 127 H -6.994858 2.825904 -0.991583 0
M  V30 128 H -4.893988 3.181545 -3.240663 0
M  V30 129 H -4.555725 2.587877 -1.587937 0
M  V30 130 H -3.874749 6.085095 -0.887497 0
M  V30 END ATOM
M  V30 BEGIN BOND
M  V30 1 1 1 2
M  V30 2 1 2 3
M  V30 3 1 3 4
M  V30 4 1 4 5
M  V30 5 1 5 6
M  V30 6 2 6 7
M  V30 7 1 6 8
M  V30 8 1 8 9
M  V30 9 1 9 10
M  V30 10 2 10 11
M  V30 11 1 11 12
M  V30 12 2 12 13
M  V30 13 1 13 14
M  V30 14 1 13 15
M  V30 15 2 15 16
M  V30 16 1 8 17
M  V30 17 1 17 18
M  V30 18 2 18 19
M  V30 19 1 18 20
M  V30 20 1 20 21
M  V30 21 1 21 22
M  V30 22 1 21 23
M  V30 23 1 20 24
M  V30 24 1 24 25
M  V30 25 1 24 26
M  V30 26 2 26 27
M  V30 27 1 26 28
M  V30 28 1 28 29
M  V30 29 1 29 30
M  V30 30 1 30 31
M  V30 31 1 31 32
M  V30 32 1 32 33
M  V30 33 2 33 34 CFG=2
M  V30 34 1 33 35
M  V30 35 1 28 36
M  V30 36 1 36 37
M  V30 37 2 37 38
M  V30 38 1 37 39
M  V30 39 1 39 40
M  V30 40 1 40 41
M  V30 41 1 41 42
M  V30 42 1 42 43
M  V30 43 1 43 44
M  V30 44 2 44 45
M  V30 45 1 44 46
M  V30 46 1 46 47
M  V30 47 1 46 48
M  V30 48 1 48 49
M  V30 49 1 49 50
M  V30 50 1 50 51
M  V30 51 1 51 52
M  V30 52 2 52 53 CFG=2
M  V30 53 1 52 54
M  V30 54 1 4 55
M  V30 55 2 55 56
M  V30 56 1 55 57
M  V30 57 1 57 58
M  V30 58 1 58 59
M  V30 59 1 59 60
M  V30 60 1 60 61
M  V30 61 2 61 62
M  V30 62 1 61 63
M  V30 63 1 16 10
M  V30 64 1 43 39
M  V30 65 1 1 64
M  V30 66 1 1 65
M  V30 67 1 1 66
M  V30 68 1 3 67
M  V30 69 1 3 68
M  V30 70 1 4 69 CFG=3
M  V30 71 1 5 70
M  V30 72 1 8 71 CFG=3
M  V30 73 1 9 72
M  V30 74 1 9 73
M  V30 75 1 11 74
M  V30 76 1 12 75
M  V30 77 1 14 76
M  V30 78 1 15 77
M  V30 79 1 16 78
M  V30 80 1 17 79
M  V30 81 1 20 80 CFG=1
M  V30 82 1 21 81
M  V30 83 1 22 82
M  V30 84 1 22 83
M  V30 85 1 22 84
M  V30 86 1 23 85
M  V30 87 1 23 86
M  V30 88 1 23 87
M  V30 89 1 25 88
M  V30 90 1 25 89
M  V30 91 1 25 90
M  V30 92 1 28 91 CFG=1
M  V30 93 1 29 92
M  V30 94 1 29 93
M  V30 95 1 30 94
M  V30 96 1 30 95
M  V30 97 1 31 96
M  V30 98 1 31 97
M  V30 99 1 32 98
M  V30 100 1 34 99
M  V30 101 1 35 100
M  V30 102 1 35 101
M  V30 103 1 36 102
M  V30 104 1 39 103 CFG=1
M  V30 105 1 40 104
M  V30 106 1 40 105
M  V30 107 1 41 106
M  V30 108 1 41 107
M  V30 109 1 42 108
M  V30 110 1 42 109
M  V30 111 1 46 110 CFG=3
M  V30 112 1 47 111
M  V30 113 1 47 112
M  V30 114 1 48 113
M  V30 115 1 48 114
M  V30 116 1 49 115
M  V30 117 1 49 116
M  V30 118 1 50 117
M  V30 119 1 50 118
M  V30 120 1 51 119
M  V30 121 1 53 120
M  V30 122 1 54 121
M  V30 123 1 54 122
M  V30 124 1 57 123
M  V30 125 1 58 124
M  V30 126 1 58 125
M  V30 127 1 59 126
M  V30 128 1 59 127
M  V30 129 1 60 128
M  V30 130 1 60 129
M  V30 131 1 63 130
M  V30 END BOND
M  V30 END CTAB
M  END
>  <Dataset>  (125) 
ChEMBL_Kinases

>  <Ligand_Instance>  (125) 
nan

>  <PDB_ID>  (125) 
nan

>  <Standardized_SMILES>  (125) 
COC[C@H](NC(=O)[C@H](Cc1ccc(O)cc1)NC(=O)[C@H](C(C)C)N(C)C(=O)[C@H](CCCNC(=N)N)NC(=O)[C@@H]1CCCN1C(=O)[C@@H](N)CCCNC(=N)N)C(=O)NCCCC(=O)O

>  <Name>  (125) 
nan

>  <Pocket>  (125) 
nan

>  <ATP_Site>  (125) 
nan

>  <Peripheral>  (125) 
nan

>  <Num_H_Atoms_ProtBoundConf>  (125) 
nan

>  <Num_Resolved_Atoms>  (125) 
nan

>  <Num_Not_Resolved_Atoms>  (125) 
nan

$$$$
CHEMBL330358
     RDKit          3D

  0  0  0  0  0  0  0  0  0  0999 V3000
M  V30 BEGIN CTAB
M  V30 COUNTS 45 48 0 0 0
M  V30 BEGIN ATOM
M  V30 1 C 2.616611 -3.152087 4.719132 0
M  V30 2 O 2.154835 -2.144041 3.836159 0
M  V30 3 C 1.381402 -2.483123 2.713875 0
M  V30 4 O 1.121761 -3.678007 2.527269 0
M  V30 5 C 0.934371 -1.430334 1.845569 0
M  V30 6 C 1.223602 -0.097150 2.053074 0
M  V30 7 C 0.803129 0.953966 1.224909 0
M  V30 8 C 1.261969 2.260748 1.663354 0
M  V30 9 C 1.956474 3.276040 1.044488 0
M  V30 10 C 2.255899 4.444983 1.676589 0
M  V30 11 C 1.894847 4.704022 2.967430 0
M  V30 12 Cl 2.356014 6.253276 3.631844 0
M  V30 13 C 1.197195 3.718988 3.633934 0
M  V30 14 C 0.899132 2.542382 2.987885 0
M  V30 15 C 0.045228 0.609740 0.127343 0
M  V30 16 C -0.246359 -0.709842 -0.085067 0
M  V30 17 C 0.173699 -1.731567 0.736129 0
M  V30 18 N -1.047438 -1.101384 -1.192323 0
M  V30 19 C -1.362566 -2.484544 -1.433503 0
M  V30 20 C -0.537702 -3.259096 -2.219627 0
M  V30 21 Cl 0.907596 -2.561344 -2.934347 0
M  V30 22 C -0.812288 -4.577676 -2.466329 0
M  V30 23 C -1.943560 -5.138394 -1.911601 0
M  V30 24 C -2.755482 -4.346045 -1.128153 0
M  V30 25 C -2.488481 -3.018912 -0.873759 0
M  V30 26 Cl -3.570917 -2.108108 0.123779 0
M  V30 27 C -1.576769 -0.158233 -2.114081 0
M  V30 28 O -2.287241 -0.403245 -3.114326 0
M  V30 29 N -1.233126 1.183157 -1.822057 0
M  V30 30 C -0.391911 1.707637 -0.732639 0
M  V30 31 H 1.751368 -3.780056 5.057891 0
M  V30 32 H 3.424652 -3.757344 4.275275 0
M  V30 33 H 2.937698 -2.610777 5.645451 0
M  V30 34 H 1.832955 0.072209 2.955138 0
M  V30 35 H 2.235378 3.032575 0.032258 0
M  V30 36 H 2.809580 5.164667 1.071345 0
M  V30 37 H 0.916697 3.933437 4.653797 0
M  V30 38 H 0.346184 1.849504 3.624428 0
M  V30 39 H -0.071621 -2.774507 0.544337 0
M  V30 40 H -0.175574 -5.206713 -3.083189 0
M  V30 41 H -2.187048 -6.176038 -2.087921 0
M  V30 42 H -3.627453 -4.818218 -0.713465 0
M  V30 43 H -1.592422 1.968539 -2.424396 0
M  V30 44 H 0.395799 2.315109 -1.183222 0
M  V30 45 H -1.097286 2.342801 -0.132532 0
M  V30 END ATOM
M  V30 BEGIN BOND
M  V30 1 1 1 2
M  V30 2 1 2 3
M  V30 3 2 3 4
M  V30 4 1 3 5
M  V30 5 2 5 6
M  V30 6 1 6 7
M  V30 7 1 7 8
M  V30 8 2 8 9
M  V30 9 1 9 10
M  V30 10 2 10 11
M  V30 11 1 11 12
M  V30 12 1 11 13
M  V30 13 2 13 14
M  V30 14 2 7 15
M  V30 15 1 15 16
M  V30 16 2 16 17
M  V30 17 1 16 18
M  V30 18 1 18 19
M  V30 19 2 19 20
M  V30 20 1 20 21
M  V30 21 1 20 22
M  V30 22 2 22 23
M  V30 23 1 23 24
M  V30 24 2 24 25
M  V30 25 1 25 26
M  V30 26 1 18 27
M  V30 27 2 27 28
M  V30 28 1 27 29
M  V30 29 1 29 30
M  V30 30 1 17 5
M  V30 31 1 25 19
M  V30 32 1 14 8
M  V30 33 1 30 15
M  V30 34 1 1 31
M  V30 35 1 1 32
M  V30 36 1 1 33
M  V30 37 1 6 34
M  V30 38 1 9 35
M  V30 39 1 10 36
M  V30 40 1 13 37
M  V30 41 1 14 38
M  V30 42 1 17 39
M  V30 43 1 22 40
M  V30 44 1 23 41
M  V30 45 1 24 42
M  V30 46 1 29 43
M  V30 47 1 30 44
M  V30 48 1 30 45
M  V30 END BOND
M  V30 END CTAB
M  END
>  <Dataset>  (126) 
ChEMBL_Kinases

>  <Ligand_Instance>  (126) 
nan

>  <PDB_ID>  (126) 
nan

>  <Standardized_SMILES>  (126) 
COC(=O)c1cc(-c2ccc(Cl)cc2)c2c(c1)N(c1c(Cl)cccc1Cl)C(=O)NC2

>  <Name>  (126) 
nan

>  <Pocket>  (126) 
nan

>  <ATP_Site>  (126) 
nan

>  <Peripheral>  (126) 
nan

>  <Num_H_Atoms_ProtBoundConf>  (126) 
nan

>  <Num_Resolved_Atoms>  (126) 
nan

>  <Num_Not_Resolved_Atoms>  (126) 
nan

$$$$
CHEMBL3310134
     RDKit          3D

  0  0  0  0  0  0  0  0  0  0999 V3000
M  V30 BEGIN CTAB
M  V30 COUNTS 43 46 0 0 0
M  V30 BEGIN ATOM
M  V30 1 O 1.364299 -3.746630 0.867788 0
M  V30 2 C 0.629215 -3.449437 1.852733 0
M  V30 3 N 0.905578 -2.133174 2.298910 0
M  V30 4 C 1.770202 -1.056273 1.952198 0
M  V30 5 O 2.953269 -1.008638 2.494583 0
M  V30 6 N 3.614875 0.035613 2.072823 0
M  V30 7 C 2.847596 0.722897 1.208827 0
M  V30 8 N 3.035293 1.921866 0.491456 0
M  V30 9 C 2.423145 2.692096 -0.497124 0
M  V30 10 C 1.874716 2.174243 -1.653668 0
M  V30 11 C 1.248883 2.954671 -2.600141 0
M  V30 12 C 1.201406 4.290342 -2.326430 0
M  V30 13 F 0.587008 5.072342 -3.251550 0
M  V30 14 C 1.716153 4.903932 -1.207929 0
M  V30 15 C 2.325366 4.071749 -0.305313 0
M  V30 16 C 1.647866 0.056470 1.099510 0
M  V30 17 C 0.356059 0.139010 0.438219 0
M  V30 18 C -0.166058 -0.376476 -0.727652 0
M  V30 19 C -1.462011 -0.125461 -1.109022 0
M  V30 20 N -2.255881 0.638617 -0.340035 0
M  V30 21 C -1.809972 1.175457 0.814125 0
M  V30 22 C -0.489799 0.924569 1.210406 0
M  V30 23 C -0.382468 -4.255618 2.510127 0
M  V30 24 C -1.167768 -3.952247 3.600893 0
M  V30 25 C -2.082468 -4.857546 4.084925 0
M  V30 26 C -2.192261 -6.076047 3.449848 0
M  V30 27 C -1.440329 -6.450246 2.353644 0
M  V30 28 C -0.523305 -5.492251 1.899502 0
M  V30 29 H 0.361069 -1.749604 3.129912 0
M  V30 30 H 3.938228 2.371321 0.814380 0
M  V30 31 H 1.979778 1.126160 -1.776215 0
M  V30 32 H 0.850624 2.475140 -3.466537 0
M  V30 33 H 1.646473 5.989225 -1.044191 0
M  V30 34 H 2.737346 4.551323 0.585760 0
M  V30 35 H 0.607107 -0.968875 -1.226736 0
M  V30 36 H -1.733413 -0.594084 -2.045521 0
M  V30 37 H -2.532068 1.768632 1.347591 0
M  V30 38 H -0.297229 1.426674 2.152789 0
M  V30 39 H -0.987079 -2.970231 4.007510 0
M  V30 40 H -2.660944 -4.548664 4.942178 0
M  V30 41 H -2.935046 -6.777278 3.864027 0
M  V30 42 H -1.564966 -7.418316 1.891259 0
M  V30 43 H 0.036476 -5.854630 1.030933 0
M  V30 END ATOM
M  V30 BEGIN BOND
M  V30 1 2 1 2
M  V30 2 1 2 3
M  V30 3 1 3 4
M  V30 4 1 4 5
M  V30 5 1 5 6
M  V30 6 2 6 7
M  V30 7 1 7 8
M  V30 8 1 8 9
M  V30 9 2 9 10
M  V30 10 1 10 11
M  V30 11 2 11 12
M  V30 12 1 12 13
M  V30 13 1 12 14
M  V30 14 2 14 15
M  V30 15 1 7 16
M  V30 16 1 16 17
M  V30 17 2 17 18
M  V30 18 1 18 19
M  V30 19 2 19 20
M  V30 20 1 20 21
M  V30 21 2 21 22
M  V30 22 1 2 23
M  V30 23 2 23 24
M  V30 24 1 24 25
M  V30 25 2 25 26
M  V30 26 1 26 27
M  V30 27 2 27 28
M  V30 28 2 16 4
M  V30 29 1 22 17
M  V30 30 1 28 23
M  V30 31 1 15 9
M  V30 32 1 3 29
M  V30 33 1 8 30
M  V30 34 1 10 31
M  V30 35 1 11 32
M  V30 36 1 14 33
M  V30 37 1 15 34
M  V30 38 1 18 35
M  V30 39 1 19 36
M  V30 40 1 21 37
M  V30 41 1 22 38
M  V30 42 1 24 39
M  V30 43 1 25 40
M  V30 44 1 26 41
M  V30 45 1 27 42
M  V30 46 1 28 43
M  V30 END BOND
M  V30 END CTAB
M  END
>  <Dataset>  (127) 
ChEMBL_Kinases

>  <Ligand_Instance>  (127) 
nan

>  <PDB_ID>  (127) 
nan

>  <Standardized_SMILES>  (127) 
O=C(Nc1onc(Nc2ccc(F)cc2)c1-c1ccncc1)c1ccccc1

>  <Name>  (127) 
nan

>  <Pocket>  (127) 
nan

>  <ATP_Site>  (127) 
nan

>  <Peripheral>  (127) 
nan

>  <Num_H_Atoms_ProtBoundConf>  (127) 
nan

>  <Num_Resolved_Atoms>  (127) 
nan

>  <Num_Not_Resolved_Atoms>  (127) 
nan

$$$$
CHEMBL3310126
     RDKit          3D

  0  0  0  0  0  0  0  0  0  0999 V3000
M  V30 BEGIN CTAB
M  V30 COUNTS 47 50 0 0 0
M  V30 BEGIN ATOM
M  V30 1 F -1.342440 -6.676139 3.910390 0
M  V30 2 C -0.870746 -5.717113 3.085738 0
M  V30 3 C 0.163848 -4.896010 3.460306 0
M  V30 4 C 0.586560 -3.932643 2.544276 0
M  V30 5 C -0.004130 -3.796680 1.300652 0
M  V30 6 C 0.513407 -2.756411 0.416358 0
M  V30 7 N 1.815978 -2.813903 0.011155 0
M  V30 8 N 2.079008 -1.786714 -0.777344 0
M  V30 9 C 0.957984 -1.051737 -0.894857 0
M  V30 10 C 0.725287 0.195059 -1.661613 0
M  V30 11 C 0.687263 1.414511 -0.773195 0
M  V30 12 C 1.980825 1.608427 -0.015768 0
M  V30 13 C 1.946662 2.806900 0.858731 0
M  V30 14 C 2.318333 4.091476 0.527159 0
M  V30 15 C 2.229141 5.106643 1.457410 0
M  V30 16 C 1.766543 4.878342 2.751074 0
M  V30 17 C 1.389635 3.593200 3.098500 0
M  V30 18 C 1.483033 2.586028 2.160340 0
M  V30 19 C -0.072181 -1.630480 -0.149829 0
M  V30 20 C -1.448530 -1.304419 0.097013 0
M  V30 21 C -2.007028 -0.996570 1.320472 0
M  V30 22 C -3.349759 -0.700895 1.421371 0
M  V30 23 N -4.146376 -0.702892 0.347618 0
M  V30 24 C -3.633761 -1.000255 -0.869978 0
M  V30 25 C -2.292760 -1.299246 -0.994458 0
M  V30 26 C -1.042358 -4.621514 0.926102 0
M  V30 27 C -1.449985 -5.568504 1.840188 0
M  V30 28 H 0.598823 -5.034196 4.440471 0
M  V30 29 H 1.405355 -3.294960 2.861714 0
M  V30 30 H 2.965042 -1.505006 -1.271031 0
M  V30 31 H -0.258377 0.120863 -2.153436 0
M  V30 32 H 1.488446 0.302119 -2.455517 0
M  V30 33 H 0.527549 2.289465 -1.439543 0
M  V30 34 H -0.179198 1.357561 -0.093526 0
M  V30 35 H 2.794254 1.758008 -0.761275 0
M  V30 36 H 2.248988 0.719218 0.570414 0
M  V30 37 H 2.664854 4.194032 -0.486961 0
M  V30 38 H 2.537378 6.107224 1.140993 0
M  V30 39 H 1.707415 5.686347 3.455536 0
M  V30 40 H 1.025288 3.384347 4.098273 0
M  V30 41 H 1.173832 1.590392 2.483612 0
M  V30 42 H -1.312071 -1.009417 2.164242 0
M  V30 43 H -3.637973 -0.481382 2.441783 0
M  V30 44 H -4.370761 -0.971266 -1.665087 0
M  V30 45 H -2.025164 -1.518304 -2.036244 0
M  V30 46 H -1.468198 -4.474407 -0.054351 0
M  V30 47 H -2.278851 -6.193368 1.483717 0
M  V30 END ATOM
M  V30 BEGIN BOND
M  V30 1 1 1 2
M  V30 2 2 2 3
M  V30 3 1 3 4
M  V30 4 2 4 5
M  V30 5 1 5 6
M  V30 6 2 6 7
M  V30 7 1 7 8
M  V30 8 1 8 9
M  V30 9 1 9 10
M  V30 10 1 10 11
M  V30 11 1 11 12
M  V30 12 1 12 13
M  V30 13 2 13 14
M  V30 14 1 14 15
M  V30 15 2 15 16
M  V30 16 1 16 17
M  V30 17 2 17 18
M  V30 18 2 9 19
M  V30 19 1 19 20
M  V30 20 2 20 21
M  V30 21 1 21 22
M  V30 22 2 22 23
M  V30 23 1 23 24
M  V30 24 2 24 25
M  V30 25 1 5 26
M  V30 26 2 26 27
M  V30 27 1 27 2
M  V30 28 1 19 6
M  V30 29 1 25 20
M  V30 30 1 18 13
M  V30 31 1 3 28
M  V30 32 1 4 29
M  V30 33 1 8 30
M  V30 34 1 10 31
M  V30 35 1 10 32
M  V30 36 1 11 33
M  V30 37 1 11 34
M  V30 38 1 12 35
M  V30 39 1 12 36
M  V30 40 1 14 37
M  V30 41 1 15 38
M  V30 42 1 16 39
M  V30 43 1 17 40
M  V30 44 1 18 41
M  V30 45 1 21 42
M  V30 46 1 22 43
M  V30 47 1 24 44
M  V30 48 1 25 45
M  V30 49 1 26 46
M  V30 50 1 27 47
M  V30 END BOND
M  V30 END CTAB
M  END
>  <Dataset>  (128) 
ChEMBL_Kinases

>  <Ligand_Instance>  (128) 
nan

>  <PDB_ID>  (128) 
nan

>  <Standardized_SMILES>  (128) 
Fc1ccc(-c2n[nH]c(CCCc3ccccc3)c2-c2ccncc2)cc1

>  <Name>  (128) 
nan

>  <Pocket>  (128) 
nan

>  <ATP_Site>  (128) 
nan

>  <Peripheral>  (128) 
nan

>  <Num_H_Atoms_ProtBoundConf>  (128) 
nan

>  <Num_Resolved_Atoms>  (128) 
nan

>  <Num_Not_Resolved_Atoms>  (128) 
nan

$$$$
CHEMBL3310127
     RDKit          3D

  0  0  0  0  0  0  0  0  0  0999 V3000
M  V30 BEGIN CTAB
M  V30 COUNTS 30 32 0 0 0
M  V30 BEGIN ATOM
M  V30 1 N -1.035615 0.153793 4.211057 0
M  V30 2 C -1.016723 -0.812782 3.156264 0
M  V30 3 N -1.629174 -2.022498 3.168015 0
M  V30 4 N -1.370605 -2.622111 1.996166 0
M  V30 5 C -0.612104 -1.848486 1.220128 0
M  V30 6 C -0.118086 -2.138391 -0.121271 0
M  V30 7 C 1.267432 -2.169587 -0.134049 0
M  V30 8 C 1.983534 -2.428845 -1.304871 0
M  V30 9 C 1.230962 -2.652453 -2.449293 0
M  V30 10 F 1.878165 -2.907124 -3.607939 0
M  V30 11 C -0.139938 -2.625703 -2.456675 0
M  V30 12 C -0.817013 -2.367553 -1.288096 0
M  V30 13 C -0.368143 -0.673782 1.943676 0
M  V30 14 C 0.404678 0.487394 1.544848 0
M  V30 15 C 1.537179 0.962948 2.169344 0
M  V30 16 C 2.120485 2.079783 1.632880 0
M  V30 17 N 1.623552 2.694580 0.548347 0
M  V30 18 C 0.515264 2.250116 -0.083320 0
M  V30 19 C -0.105386 1.114860 0.435269 0
M  V30 20 H -1.919061 0.700701 4.011404 0
M  V30 21 H -0.409072 0.365233 5.017621 0
M  V30 22 H -2.210927 -2.432147 3.956091 0
M  V30 23 H 1.943199 -2.005753 0.719171 0
M  V30 24 H 3.065944 -2.460727 -1.351116 0
M  V30 25 H -0.769748 -2.790959 -3.308320 0
M  V30 26 H -1.888253 -2.312943 -1.134864 0
M  V30 27 H 1.857785 0.397330 3.034485 0
M  V30 28 H 3.007751 2.448872 2.125664 0
M  V30 29 H 0.159464 2.787784 -0.955735 0
M  V30 30 H -0.982671 0.811308 -0.111977 0
M  V30 END ATOM
M  V30 BEGIN BOND
M  V30 1 1 1 2
M  V30 2 1 2 3
M  V30 3 1 3 4
M  V30 4 2 4 5
M  V30 5 1 5 6
M  V30 6 2 6 7
M  V30 7 1 7 8
M  V30 8 2 8 9
M  V30 9 1 9 10
M  V30 10 1 9 11
M  V30 11 2 11 12
M  V30 12 1 5 13
M  V30 13 1 13 14
M  V30 14 2 14 15
M  V30 15 1 15 16
M  V30 16 2 16 17
M  V30 17 1 17 18
M  V30 18 2 18 19
M  V30 19 2 13 2
M  V30 20 1 19 14
M  V30 21 1 12 6
M  V30 22 1 1 20
M  V30 23 1 1 21
M  V30 24 1 3 22
M  V30 25 1 7 23
M  V30 26 1 8 24
M  V30 27 1 11 25
M  V30 28 1 12 26
M  V30 29 1 15 27
M  V30 30 1 16 28
M  V30 31 1 18 29
M  V30 32 1 19 30
M  V30 END BOND
M  V30 END CTAB
M  END
>  <Dataset>  (129) 
ChEMBL_Kinases

>  <Ligand_Instance>  (129) 
nan

>  <PDB_ID>  (129) 
nan

>  <Standardized_SMILES>  (129) 
Nc1[nH]nc(-c2ccc(F)cc2)c1-c1ccncc1

>  <Name>  (129) 
nan

>  <Pocket>  (129) 
nan

>  <ATP_Site>  (129) 
nan

>  <Peripheral>  (129) 
nan

>  <Num_H_Atoms_ProtBoundConf>  (129) 
nan

>  <Num_Resolved_Atoms>  (129) 
nan

>  <Num_Not_Resolved_Atoms>  (129) 
nan

$$$$
CHEMBL3310128
     RDKit          3D

  0  0  0  0  0  0  0  0  0  0999 V3000
M  V30 BEGIN CTAB
M  V30 COUNTS 45 48 0 0 0
M  V30 BEGIN ATOM
M  V30 1 O 3.483517 0.239685 1.824075 0
M  V30 2 C 3.285159 -0.614014 0.961128 0
M  V30 3 C 4.044219 -1.182163 -0.226643 0
M  V30 4 C 3.891939 -0.114104 -1.302360 0
M  V30 5 C 2.971334 -0.405538 -2.309387 0
M  V30 6 C 2.773918 0.583087 -3.277412 0
M  V30 7 C 3.457450 1.788166 -3.235324 0
M  V30 8 C 4.376756 2.045284 -2.206769 0
M  V30 9 C 4.584919 1.072673 -1.234462 0
M  V30 10 N 1.969026 -1.145517 1.231747 0
M  V30 11 C 1.067067 -0.746944 2.299295 0
M  V30 12 N 1.319684 -0.104636 3.443308 0
M  V30 13 N 0.182357 0.173667 4.053583 0
M  V30 14 C -0.845565 -0.275258 3.329411 0
M  V30 15 C -2.310347 -0.248685 3.385745 0
M  V30 16 C -2.649273 1.075188 3.242233 0
M  V30 17 C -3.986346 1.502628 3.218747 0
M  V30 18 C -4.953253 0.526099 3.348907 0
M  V30 19 F -6.264110 0.841763 3.332921 0
M  V30 20 C -4.590937 -0.797468 3.492348 0
M  V30 21 C -3.262771 -1.227699 3.515968 0
M  V30 22 C -0.336498 -0.882465 2.184143 0
M  V30 23 C -0.931127 -1.561843 1.029972 0
M  V30 24 C -0.598645 -2.929653 1.067369 0
M  V30 25 C -1.000539 -3.816127 0.089844 0
M  V30 26 N -1.739128 -3.333242 -0.928390 0
M  V30 27 C -2.069651 -2.051627 -0.997639 0
M  V30 28 C -1.694796 -1.127132 -0.050061 0
M  V30 29 H 5.097180 -1.363866 0.017999 0
M  V30 30 H 3.511644 -2.080400 -0.540173 0
M  V30 31 H 2.400211 -1.322073 -2.410799 0
M  V30 32 H 2.065847 0.429602 -4.104401 0
M  V30 33 H 3.287604 2.555949 -3.997460 0
M  V30 34 H 4.921770 2.999156 -2.155387 0
M  V30 35 H 5.290901 1.217964 -0.412478 0
M  V30 36 H 1.630427 -1.926288 0.592035 0
M  V30 37 H 2.289156 0.120434 3.783683 0
M  V30 38 H -2.034323 1.965492 3.134825 0
M  V30 39 H -4.356600 2.514005 3.115638 0
M  V30 40 H -5.312602 -1.596539 3.599003 0
M  V30 41 H -2.843532 -2.205565 3.611107 0
M  V30 42 H -0.007072 -3.427303 1.851270 0
M  V30 43 H -0.759952 -4.870771 0.089564 0
M  V30 44 H -2.663817 -1.598425 -1.800184 0
M  V30 45 H -1.862366 -0.068499 0.063605 0
M  V30 END ATOM
M  V30 BEGIN BOND
M  V30 1 2 1 2
M  V30 2 1 2 3
M  V30 3 1 3 4
M  V30 4 2 4 5
M  V30 5 1 5 6
M  V30 6 2 6 7
M  V30 7 1 7 8
M  V30 8 2 8 9
M  V30 9 1 2 10
M  V30 10 1 10 11
M  V30 11 1 11 12
M  V30 12 1 12 13
M  V30 13 2 13 14
M  V30 14 1 14 15
M  V30 15 2 15 16
M  V30 16 1 16 17
M  V30 17 2 17 18
M  V30 18 1 18 19
M  V30 19 1 18 20
M  V30 20 2 20 21
M  V30 21 1 14 22
M  V30 22 1 22 23
M  V30 23 2 23 24
M  V30 24 1 24 25
M  V30 25 2 25 26
M  V30 26 1 26 27
M  V30 27 2 27 28
M  V30 28 1 9 4
M  V30 29 2 22 11
M  V30 30 1 28 23
M  V30 31 1 21 15
M  V30 32 1 3 29
M  V30 33 1 3 30
M  V30 34 1 5 31
M  V30 35 1 6 32
M  V30 36 1 7 33
M  V30 37 1 8 34
M  V30 38 1 9 35
M  V30 39 1 10 36
M  V30 40 1 12 37
M  V30 41 1 16 38
M  V30 42 1 17 39
M  V30 43 1 20 40
M  V30 44 1 21 41
M  V30 45 1 24 42
M  V30 46 1 25 43
M  V30 47 1 27 44
M  V30 48 1 28 45
M  V30 END BOND
M  V30 END CTAB
M  END
>  <Dataset>  (130) 
ChEMBL_Kinases

>  <Ligand_Instance>  (130) 
nan

>  <PDB_ID>  (130) 
nan

>  <Standardized_SMILES>  (130) 
O=C(Cc1ccccc1)Nc1[nH]nc(-c2ccc(F)cc2)c1-c1ccncc1

>  <Name>  (130) 
nan

>  <Pocket>  (130) 
nan

>  <ATP_Site>  (130) 
nan

>  <Peripheral>  (130) 
nan

>  <Num_H_Atoms_ProtBoundConf>  (130) 
nan

>  <Num_Resolved_Atoms>  (130) 
nan

>  <Num_Not_Resolved_Atoms>  (130) 
nan

$$$$
CHEMBL3310129
     RDKit          3D

  0  0  0  0  0  0  0  0  0  0999 V3000
M  V30 BEGIN CTAB
M  V30 COUNTS 33 35 0 0 0
M  V30 BEGIN ATOM
M  V30 1 C -2.907067 -2.986460 2.400493 0
M  V30 2 N -1.845977 -2.198361 1.771346 0
M  V30 3 N -0.729698 -2.665343 1.228976 0
M  V30 4 C 0.001453 -1.617565 0.749591 0
M  V30 5 C 1.294433 -1.736893 0.085339 0
M  V30 6 C 2.550242 -1.305123 0.458502 0
M  V30 7 C 3.632611 -1.544691 -0.361396 0
M  V30 8 C 3.486566 -2.212206 -1.557140 0
M  V30 9 F 4.661757 -2.356369 -2.229900 0
M  V30 10 C 2.242346 -2.655343 -1.954538 0
M  V30 11 C 1.148197 -2.415623 -1.129790 0
M  V30 12 C -0.694626 -0.457751 1.008250 0
M  V30 13 C -0.350413 0.924452 0.702417 0
M  V30 14 C 0.679837 1.700419 1.186097 0
M  V30 15 C 0.849023 3.001137 0.773640 0
M  V30 16 N -0.004185 3.554669 -0.128454 0
M  V30 17 C -1.019405 2.818290 -0.616895 0
M  V30 18 C -1.211398 1.512224 -0.219835 0
M  V30 19 C -1.853850 -0.848554 1.651904 0
M  V30 20 N -2.865002 0.024091 2.102056 0
M  V30 21 H -2.468954 -3.729729 3.124329 0
M  V30 22 H -3.547634 -3.506664 1.671699 0
M  V30 23 H -3.531350 -2.310246 3.032987 0
M  V30 24 H 2.530051 -0.803093 1.406928 0
M  V30 25 H 4.578928 -1.156797 0.037155 0
M  V30 26 H 2.218761 -3.165207 -2.898645 0
M  V30 27 H 0.230145 -2.815215 -1.557561 0
M  V30 28 H 1.307769 1.184837 1.896254 0
M  V30 29 H 1.710574 3.496362 1.242392 0
M  V30 30 H -1.603869 3.399034 -1.319822 0
M  V30 31 H -2.069835 1.063259 -0.706415 0
M  V30 32 H -2.586724 0.979590 2.412685 0
M  V30 33 H -3.891725 -0.153206 2.172456 0
M  V30 END ATOM
M  V30 BEGIN BOND
M  V30 1 1 1 2
M  V30 2 1 2 3
M  V30 3 2 3 4
M  V30 4 1 4 5
M  V30 5 2 5 6
M  V30 6 1 6 7
M  V30 7 2 7 8
M  V30 8 1 8 9
M  V30 9 1 8 10
M  V30 10 2 10 11
M  V30 11 1 4 12
M  V30 12 1 12 13
M  V30 13 2 13 14
M  V30 14 1 14 15
M  V30 15 2 15 16
M  V30 16 1 16 17
M  V30 17 2 17 18
M  V30 18 2 12 19
M  V30 19 1 19 20
M  V30 20 1 19 2
M  V30 21 1 11 5
M  V30 22 1 18 13
M  V30 23 1 1 21
M  V30 24 1 1 22
M  V30 25 1 1 23
M  V30 26 1 6 24
M  V30 27 1 7 25
M  V30 28 1 10 26
M  V30 29 1 11 27
M  V30 30 1 14 28
M  V30 31 1 15 29
M  V30 32 1 17 30
M  V30 33 1 18 31
M  V30 34 1 20 32
M  V30 35 1 20 33
M  V30 END BOND
M  V30 END CTAB
M  END
>  <Dataset>  (131) 
ChEMBL_Kinases

>  <Ligand_Instance>  (131) 
nan

>  <PDB_ID>  (131) 
nan

>  <Standardized_SMILES>  (131) 
Cn1nc(-c2ccc(F)cc2)c(-c2ccncc2)c1N

>  <Name>  (131) 
nan

>  <Pocket>  (131) 
nan

>  <ATP_Site>  (131) 
nan

>  <Peripheral>  (131) 
nan

>  <Num_H_Atoms_ProtBoundConf>  (131) 
nan

>  <Num_Resolved_Atoms>  (131) 
nan

>  <Num_Not_Resolved_Atoms>  (131) 
nan

$$$$
CHEMBL3310130
     RDKit          3D

  0  0  0  0  0  0  0  0  0  0999 V3000
M  V30 BEGIN CTAB
M  V30 COUNTS 48 51 0 0 0
M  V30 BEGIN ATOM
M  V30 1 C -2.172217 -1.967645 4.553576 0
M  V30 2 N -1.292802 -1.497339 3.481340 0
M  V30 3 N -0.412262 -0.531613 3.651420 0
M  V30 4 C 0.283207 -0.250131 2.551886 0
M  V30 5 N 1.253047 0.766564 2.461869 0
M  V30 6 C 2.229210 0.784235 1.427670 0
M  V30 7 O 2.467380 0.009674 0.492166 0
M  V30 8 C 3.185716 1.953040 1.425399 0
M  V30 9 C 2.773490 2.791079 0.239914 0
M  V30 10 C 3.172067 2.514231 -1.047399 0
M  V30 11 C 2.763439 3.305945 -2.113786 0
M  V30 12 C 1.938777 4.377795 -1.809216 0
M  V30 13 C 1.505636 4.700705 -0.530569 0
M  V30 14 C 1.945431 3.874754 0.504928 0
M  V30 15 C -0.182410 -1.098216 1.585904 0
M  V30 16 C 0.071241 -1.330636 0.183170 0
M  V30 17 C 0.547842 -2.621138 -0.077769 0
M  V30 18 C 0.866036 -3.160048 -1.313544 0
M  V30 19 N 0.694453 -2.327627 -2.387778 0
M  V30 20 C 0.241479 -1.089166 -2.190411 0
M  V30 21 C -0.078357 -0.541836 -0.977435 0
M  V30 22 C -1.165626 -1.867552 2.192580 0
M  V30 23 C -2.017849 -2.952280 1.650215 0
M  V30 24 C -1.999943 -4.297333 2.002297 0
M  V30 25 C -2.915316 -5.134349 1.364447 0
M  V30 26 C -3.781799 -4.609084 0.431765 0
M  V30 27 F -4.607046 -5.545435 -0.093627 0
M  V30 28 C -3.799093 -3.264812 0.080102 0
M  V30 29 C -2.890858 -2.441507 0.715337 0
M  V30 30 H -2.382772 -1.122480 5.248104 0
M  V30 31 H -3.188694 -2.225759 4.134884 0
M  V30 32 H -1.790724 -2.837685 5.087372 0
M  V30 33 H 1.250236 1.527918 3.162670 0
M  V30 34 H 3.089832 2.582123 2.314466 0
M  V30 35 H 4.203467 1.558741 1.233085 0
M  V30 36 H 3.811297 1.669895 -1.229387 0
M  V30 37 H 3.058490 3.111253 -3.133872 0
M  V30 38 H 1.623782 4.985396 -2.628019 0
M  V30 39 H 0.872652 5.526773 -0.287238 0
M  V30 40 H 1.655556 4.063535 1.529575 0
M  V30 41 H 0.728635 -3.375179 0.681164 0
M  V30 42 H 1.232460 -4.132731 -1.565431 0
M  V30 43 H 0.056778 -0.318607 -2.947662 0
M  V30 44 H -0.455594 0.442224 -0.690311 0
M  V30 45 H -1.258978 -4.553670 2.745730 0
M  V30 46 H -2.869071 -6.168078 1.656607 0
M  V30 47 H -4.551522 -3.041034 -0.667510 0
M  V30 48 H -2.964677 -1.410122 0.396049 0
M  V30 END ATOM
M  V30 BEGIN BOND
M  V30 1 1 1 2
M  V30 2 1 2 3
M  V30 3 2 3 4
M  V30 4 1 4 5
M  V30 5 1 5 6
M  V30 6 2 6 7
M  V30 7 1 6 8
M  V30 8 1 8 9
M  V30 9 2 9 10
M  V30 10 1 10 11
M  V30 11 2 11 12
M  V30 12 1 12 13
M  V30 13 2 13 14
M  V30 14 1 4 15
M  V30 15 1 15 16
M  V30 16 2 16 17
M  V30 17 1 17 18
M  V30 18 2 18 19
M  V30 19 1 19 20
M  V30 20 2 20 21
M  V30 21 2 15 22
M  V30 22 1 22 23
M  V30 23 2 23 24
M  V30 24 1 24 25
M  V30 25 2 25 26
M  V30 26 1 26 27
M  V30 27 1 26 28
M  V30 28 2 28 29
M  V30 29 1 22 2
M  V30 30 1 29 23
M  V30 31 1 14 9
M  V30 32 1 21 16
M  V30 33 1 1 30
M  V30 34 1 1 31
M  V30 35 1 1 32
M  V30 36 1 5 33
M  V30 37 1 8 34
M  V30 38 1 8 35
M  V30 39 1 10 36
M  V30 40 1 11 37
M  V30 41 1 12 38
M  V30 42 1 13 39
M  V30 43 1 14 40
M  V30 44 1 17 41
M  V30 45 1 18 42
M  V30 46 1 20 43
M  V30 47 1 21 44
M  V30 48 1 24 45
M  V30 49 1 25 46
M  V30 50 1 28 47
M  V30 51 1 29 48
M  V30 END BOND
M  V30 END CTAB
M  END
>  <Dataset>  (132) 
ChEMBL_Kinases

>  <Ligand_Instance>  (132) 
nan

>  <PDB_ID>  (132) 
nan

>  <Standardized_SMILES>  (132) 
Cn1nc(NC(=O)Cc2ccccc2)c(-c2ccncc2)c1-c1ccc(F)cc1

>  <Name>  (132) 
nan

>  <Pocket>  (132) 
nan

>  <ATP_Site>  (132) 
nan

>  <Peripheral>  (132) 
nan

>  <Num_H_Atoms_ProtBoundConf>  (132) 
nan

>  <Num_Resolved_Atoms>  (132) 
nan

>  <Num_Not_Resolved_Atoms>  (132) 
nan

$$$$
CHEMBL3310131
     RDKit          3D

  0  0  0  0  0  0  0  0  0  0999 V3000
M  V30 BEGIN CTAB
M  V30 COUNTS 29 31 0 0 0
M  V30 BEGIN ATOM
M  V30 1 N -1.654833 -0.069293 4.062874 0
M  V30 2 C -0.521377 0.365355 3.326226 0
M  V30 3 O 0.343373 1.291237 3.646860 0
M  V30 4 N 1.262798 1.446044 2.755597 0
M  V30 5 C 1.025357 0.588294 1.771021 0
M  V30 6 C 1.713898 0.296648 0.497649 0
M  V30 7 C 1.838790 1.269627 -0.460976 0
M  V30 8 C 2.495152 0.916961 -1.621084 0
M  V30 9 C 2.996000 -0.372486 -1.782592 0
M  V30 10 F 3.637556 -0.662574 -2.955491 0
M  V30 11 C 2.844527 -1.329681 -0.778060 0
M  V30 12 C 2.190614 -1.000687 0.393698 0
M  V30 13 C -0.113206 -0.125040 2.100042 0
M  V30 14 C -0.838013 -1.196820 1.392393 0
M  V30 15 C -1.332621 -0.733832 0.173815 0
M  V30 16 C -2.046195 -1.592185 -0.643563 0
M  V30 17 N -2.252899 -2.860169 -0.252105 0
M  V30 18 C -1.778430 -3.311372 0.921184 0
M  V30 19 C -1.064103 -2.508664 1.774246 0
M  V30 20 H -2.280877 0.775391 4.187470 0
M  V30 21 H -1.858639 -1.031685 4.425303 0
M  V30 22 H 1.418104 2.243452 -0.248147 0
M  V30 23 H 2.593296 1.689682 -2.380067 0
M  V30 24 H 3.258782 -2.296478 -0.982205 0
M  V30 25 H 2.081713 -1.742507 1.153670 0
M  V30 26 H -1.231775 0.254781 -0.245232 0
M  V30 27 H -2.460255 -1.301194 -1.604256 0
M  V30 28 H -1.914099 -4.324937 1.290019 0
M  V30 29 H -0.629741 -2.730266 2.730408 0
M  V30 END ATOM
M  V30 BEGIN BOND
M  V30 1 1 1 2
M  V30 2 1 2 3
M  V30 3 1 3 4
M  V30 4 2 4 5
M  V30 5 1 5 6
M  V30 6 2 6 7
M  V30 7 1 7 8
M  V30 8 2 8 9
M  V30 9 1 9 10
M  V30 10 1 9 11
M  V30 11 2 11 12
M  V30 12 1 5 13
M  V30 13 1 13 14
M  V30 14 2 14 15
M  V30 15 1 15 16
M  V30 16 2 16 17
M  V30 17 1 17 18
M  V30 18 2 18 19
M  V30 19 2 13 2
M  V30 20 1 19 14
M  V30 21 1 12 6
M  V30 22 1 1 20
M  V30 23 1 1 21
M  V30 24 1 7 22
M  V30 25 1 8 23
M  V30 26 1 11 24
M  V30 27 1 12 25
M  V30 28 1 15 26
M  V30 29 1 16 27
M  V30 30 1 18 28
M  V30 31 1 19 29
M  V30 END BOND
M  V30 END CTAB
M  END
>  <Dataset>  (133) 
ChEMBL_Kinases

>  <Ligand_Instance>  (133) 
nan

>  <PDB_ID>  (133) 
nan

>  <Standardized_SMILES>  (133) 
Nc1onc(-c2ccc(F)cc2)c1-c1ccncc1

>  <Name>  (133) 
nan

>  <Pocket>  (133) 
nan

>  <ATP_Site>  (133) 
nan

>  <Peripheral>  (133) 
nan

>  <Num_H_Atoms_ProtBoundConf>  (133) 
nan

>  <Num_Resolved_Atoms>  (133) 
nan

>  <Num_Not_Resolved_Atoms>  (133) 
nan

$$$$
CHEMBL3310132
     RDKit          3D

  0  0  0  0  0  0  0  0  0  0999 V3000
M  V30 BEGIN CTAB
M  V30 COUNTS 27 29 0 0 0
M  V30 BEGIN ATOM
M  V30 1 F -1.782510 -4.261524 2.903420 0
M  V30 2 C -0.968561 -3.504314 2.129875 0
M  V30 3 C -1.454670 -2.784044 1.050357 0
M  V30 4 C -0.563918 -2.021698 0.290942 0
M  V30 5 C 0.796190 -1.982006 0.609605 0
M  V30 6 C 1.503839 -1.117060 -0.334627 0
M  V30 7 N 2.461080 -1.599212 -1.146345 0
M  V30 8 O 2.936203 -0.626679 -1.890702 0
M  V30 9 C 2.330281 0.492249 -1.606167 0
M  V30 10 C 1.393952 0.230842 -0.605634 0
M  V30 11 C 0.437380 1.074349 0.103624 0
M  V30 12 C -0.597427 1.766193 -0.497060 0
M  V30 13 C -1.468189 2.551209 0.255230 0
M  V30 14 N -1.310738 2.648863 1.604843 0
M  V30 15 C -0.293607 1.964116 2.165998 0
M  V30 16 C 0.608570 1.167392 1.489598 0
M  V30 17 C 1.253270 -2.708927 1.689955 0
M  V30 18 C 0.366246 -3.448065 2.419876 0
M  V30 19 H -2.509371 -2.857801 0.859771 0
M  V30 20 H -1.070387 -1.507975 -0.522593 0
M  V30 21 H 2.397106 1.513943 -1.960185 0
M  V30 22 H -0.635968 1.623684 -1.562857 0
M  V30 23 H -2.248321 3.051322 -0.330916 0
M  V30 24 H -0.249461 2.106449 3.257207 0
M  V30 25 H 1.392008 0.658524 2.036844 0
M  V30 26 H 2.319864 -2.584124 1.816674 0
M  V30 27 H 0.802800 -3.990068 3.251500 0
M  V30 END ATOM
M  V30 BEGIN BOND
M  V30 1 1 1 2
M  V30 2 2 2 3
M  V30 3 1 3 4
M  V30 4 2 4 5
M  V30 5 1 5 6
M  V30 6 2 6 7
M  V30 7 1 7 8
M  V30 8 1 8 9
M  V30 9 2 9 10
M  V30 10 1 10 11
M  V30 11 2 11 12
M  V30 12 1 12 13
M  V30 13 2 13 14
M  V30 14 1 14 15
M  V30 15 2 15 16
M  V30 16 1 5 17
M  V30 17 2 17 18
M  V30 18 1 18 2
M  V30 19 1 10 6
M  V30 20 1 16 11
M  V30 21 1 3 19
M  V30 22 1 4 20
M  V30 23 1 9 21
M  V30 24 1 12 22
M  V30 25 1 13 23
M  V30 26 1 15 24
M  V30 27 1 16 25
M  V30 28 1 17 26
M  V30 29 1 18 27
M  V30 END BOND
M  V30 END CTAB
M  END
>  <Dataset>  (134) 
ChEMBL_Kinases

>  <Ligand_Instance>  (134) 
nan

>  <PDB_ID>  (134) 
nan

>  <Standardized_SMILES>  (134) 
Fc1ccc(-c2nocc2-c2ccncc2)cc1

>  <Name>  (134) 
nan

>  <Pocket>  (134) 
nan

>  <ATP_Site>  (134) 
nan

>  <Peripheral>  (134) 
nan

>  <Num_H_Atoms_ProtBoundConf>  (134) 
nan

>  <Num_Resolved_Atoms>  (134) 
nan

>  <Num_Not_Resolved_Atoms>  (134) 
nan

$$$$
CHEMBL3310133
     RDKit          3D

  0  0  0  0  0  0  0  0  0  0999 V3000
M  V30 BEGIN CTAB
M  V30 COUNTS 34 36 0 0 0
M  V30 BEGIN ATOM
M  V30 1 C -1.462778 -5.147831 2.012728 0
M  V30 2 C -0.607162 -3.927984 2.081987 0
M  V30 3 O -0.587262 -3.132645 3.057124 0
M  V30 4 N 0.265980 -3.606639 0.980430 0
M  V30 5 C 1.052414 -2.421133 1.125642 0
M  V30 6 O 2.234857 -2.287762 1.633756 0
M  V30 7 N 2.660025 -1.061980 1.609481 0
M  V30 8 C 1.733450 -0.259109 1.051864 0
M  V30 9 C 1.658200 1.167396 0.767210 0
M  V30 10 C 1.556103 1.392011 -0.610413 0
M  V30 11 C 1.470063 2.667940 -1.142586 0
M  V30 12 C 1.486866 3.736804 -0.275981 0
M  V30 13 F 1.405156 4.995535 -0.754001 0
M  V30 14 C 1.587099 3.521382 1.079438 0
M  V30 15 C 1.673449 2.251772 1.619810 0
M  V30 16 C 0.705847 -1.119912 0.741189 0
M  V30 17 C -0.571424 -0.786082 0.108378 0
M  V30 18 C -1.065489 -1.247971 -1.093734 0
M  V30 19 C -2.308122 -0.809594 -1.525437 0
M  V30 20 N -3.032136 0.047993 -0.801578 0
M  V30 21 C -2.597595 0.531893 0.381505 0
M  V30 22 C -1.366277 0.107157 0.824898 0
M  V30 23 H -1.843540 -5.337538 3.016376 0
M  V30 24 H -2.354625 -4.976514 1.349761 0
M  V30 25 H -0.903321 -5.961199 1.553935 0
M  V30 26 H 0.249099 -4.275298 0.160824 0
M  V30 27 H 1.533111 0.622852 -1.394874 0
M  V30 28 H 1.390661 2.883291 -2.190157 0
M  V30 29 H 1.604617 4.322330 1.801126 0
M  V30 30 H 1.754304 1.957711 2.643577 0
M  V30 31 H -0.403133 -1.943738 -1.612168 0
M  V30 32 H -2.647172 -1.196802 -2.464142 0
M  V30 33 H -3.207200 1.224558 0.943315 0
M  V30 34 H -1.065669 0.525622 1.778960 0
M  V30 END ATOM
M  V30 BEGIN BOND
M  V30 1 1 1 2
M  V30 2 2 2 3
M  V30 3 1 2 4
M  V30 4 1 4 5
M  V30 5 1 5 6
M  V30 6 1 6 7
M  V30 7 2 7 8
M  V30 8 1 8 9
M  V30 9 2 9 10
M  V30 10 1 10 11
M  V30 11 2 11 12
M  V30 12 1 12 13
M  V30 13 1 12 14
M  V30 14 2 14 15
M  V30 15 1 8 16
M  V30 16 1 16 17
M  V30 17 2 17 18
M  V30 18 1 18 19
M  V30 19 2 19 20
M  V30 20 1 20 21
M  V30 21 2 21 22
M  V30 22 2 16 5
M  V30 23 1 22 17
M  V30 24 1 15 9
M  V30 25 1 1 23
M  V30 26 1 1 24
M  V30 27 1 1 25
M  V30 28 1 4 26
M  V30 29 1 10 27
M  V30 30 1 11 28
M  V30 31 1 14 29
M  V30 32 1 15 30
M  V30 33 1 18 31
M  V30 34 1 19 32
M  V30 35 1 21 33
M  V30 36 1 22 34
M  V30 END BOND
M  V30 END CTAB
M  END
>  <Dataset>  (135) 
ChEMBL_Kinases

>  <Ligand_Instance>  (135) 
nan

>  <PDB_ID>  (135) 
nan

>  <Standardized_SMILES>  (135) 
CC(=O)Nc1onc(-c2ccc(F)cc2)c1-c1ccncc1

>  <Name>  (135) 
nan

>  <Pocket>  (135) 
nan

>  <ATP_Site>  (135) 
nan

>  <Peripheral>  (135) 
nan

>  <Num_H_Atoms_ProtBoundConf>  (135) 
nan

>  <Num_Resolved_Atoms>  (135) 
nan

>  <Num_Not_Resolved_Atoms>  (135) 
nan

$$$$
CHEMBL330388
     RDKit          3D

  0  0  0  0  0  0  0  0  0  0999 V3000
M  V30 BEGIN CTAB
M  V30 COUNTS 45 48 0 0 0
M  V30 BEGIN ATOM
M  V30 1 C -2.569947 -2.070187 0.527168 0
M  V30 2 O -2.161562 -0.922518 -0.173848 0
M  V30 3 C -2.927705 0.144185 -0.528607 0
M  V30 4 C -4.260609 0.402718 -0.319004 0
M  V30 5 C -4.933181 1.532446 -0.730596 0
M  V30 6 C -4.242336 2.510405 -1.414974 0
M  V30 7 C -2.900801 2.304725 -1.654266 0
M  V30 8 N -2.279513 3.299594 -2.325896 0
M  V30 9 C -0.968139 3.163545 -2.589591 0
M  V30 10 C -0.236635 2.059660 -2.206382 0
M  V30 11 C 1.169657 1.920535 -2.496578 0
M  V30 12 N 2.309639 1.787182 -2.732395 0
M  V30 13 C -0.918833 1.052200 -1.512842 0
M  V30 14 N -0.152079 -0.060225 -1.130949 0
M  V30 15 C 0.506700 -0.252147 0.113429 0
M  V30 16 C 0.358391 0.648514 1.145547 0
M  V30 17 C 0.996525 0.468600 2.352984 0
M  V30 18 C 1.824747 -0.635125 2.589625 0
M  V30 19 O 2.499858 -0.888036 3.774241 0
M  V30 20 C 3.322603 -2.029643 3.822422 0
M  V30 21 C 2.885704 -3.307418 4.187700 0
M  V30 22 C 3.882067 -4.290907 4.163365 0
M  V30 23 C 5.166540 -4.028312 3.814860 0
M  V30 24 C 5.548408 -2.754994 3.463223 0
M  V30 25 C 4.623370 -1.738966 3.464150 0
M  V30 26 C 1.915437 -1.481995 1.504999 0
M  V30 27 C 1.307228 -1.361538 0.276455 0
M  V30 28 C -2.266318 1.162251 -1.226298 0
M  V30 29 H -3.576067 -1.874854 0.945878 0
M  V30 30 H -1.890342 -2.328445 1.370067 0
M  V30 31 H -2.624240 -2.956190 -0.162968 0
M  V30 32 H -4.780515 -0.398267 0.229690 0
M  V30 33 H -6.003763 1.597617 -0.488378 0
M  V30 34 H -4.747096 3.389165 -1.739872 0
M  V30 35 H -0.446324 3.964591 -3.135512 0
M  V30 36 H -0.101113 -0.780987 -1.882349 0
M  V30 37 H -0.279803 1.522048 0.998329 0
M  V30 38 H 0.899946 1.168559 3.198668 0
M  V30 39 H 1.843303 -3.409993 4.446662 0
M  V30 40 H 3.521541 -5.282951 4.452200 0
M  V30 41 H 5.909473 -4.810701 3.807192 0
M  V30 42 H 6.586374 -2.557821 3.184633 0
M  V30 43 H 4.987756 -0.771733 3.180163 0
M  V30 44 H 2.555181 -2.362848 1.642890 0
M  V30 45 H 1.475305 -2.114740 -0.485090 0
M  V30 END ATOM
M  V30 BEGIN BOND
M  V30 1 1 1 2
M  V30 2 1 2 3
M  V30 3 2 3 4
M  V30 4 1 4 5
M  V30 5 2 5 6
M  V30 6 1 6 7
M  V30 7 2 7 8
M  V30 8 1 8 9
M  V30 9 2 9 10
M  V30 10 1 10 11
M  V30 11 3 11 12
M  V30 12 1 10 13
M  V30 13 1 13 14
M  V30 14 1 14 15
M  V30 15 2 15 16
M  V30 16 1 16 17
M  V30 17 2 17 18
M  V30 18 1 18 19
M  V30 19 1 19 20
M  V30 20 2 20 21
M  V30 21 1 21 22
M  V30 22 2 22 23
M  V30 23 1 23 24
M  V30 24 2 24 25
M  V30 25 1 18 26
M  V30 26 2 26 27
M  V30 27 2 13 28
M  V30 28 1 28 3
M  V30 29 1 28 7
M  V30 30 1 27 15
M  V30 31 1 25 20
M  V30 32 1 1 29
M  V30 33 1 1 30
M  V30 34 1 1 31
M  V30 35 1 4 32
M  V30 36 1 5 33
M  V30 37 1 6 34
M  V30 38 1 9 35
M  V30 39 1 14 36
M  V30 40 1 16 37
M  V30 41 1 17 38
M  V30 42 1 21 39
M  V30 43 1 22 40
M  V30 44 1 23 41
M  V30 45 1 24 42
M  V30 46 1 25 43
M  V30 47 1 26 44
M  V30 48 1 27 45
M  V30 END BOND
M  V30 END CTAB
M  END
>  <Dataset>  (136) 
ChEMBL_Kinases

>  <Ligand_Instance>  (136) 
nan

>  <PDB_ID>  (136) 
nan

>  <Standardized_SMILES>  (136) 
COc1cccc2ncc(C#N)c(Nc3ccc(Oc4ccccc4)cc3)c12

>  <Name>  (136) 
nan

>  <Pocket>  (136) 
nan

>  <ATP_Site>  (136) 
nan

>  <Peripheral>  (136) 
nan

>  <Num_H_Atoms_ProtBoundConf>  (136) 
nan

>  <Num_Resolved_Atoms>  (136) 
nan

>  <Num_Not_Resolved_Atoms>  (136) 
nan

$$$$
CHEMBL3297846
     RDKit          3D

  0  0  0  0  0  0  0  0  0  0999 V3000
M  V30 BEGIN CTAB
M  V30 COUNTS 47 50 0 0 0
M  V30 BEGIN ATOM
M  V30 1 C 2.465580 -1.346593 4.520135 0
M  V30 2 C 2.877844 -2.685948 3.953949 0
M  V30 3 O 3.924203 -2.500907 3.078092 0
M  V30 4 C 3.988719 -1.786411 1.908992 0
M  V30 5 C 5.295124 -1.920175 1.415347 0
M  V30 6 C 5.709024 -1.312056 0.221880 0
M  V30 7 C 4.771315 -0.563537 -0.463423 0
M  V30 8 C 3.487275 -0.426492 0.013973 0
M  V30 9 N 2.503295 0.324178 -0.686246 0
M  V30 10 C 1.198523 0.664603 -0.235923 0
M  V30 11 N 1.156773 1.913824 0.280921 0
M  V30 12 C -0.094202 2.183352 0.691396 0
M  V30 13 C -0.767114 3.257455 1.286592 0
M  V30 14 C -2.119463 3.138475 1.563078 0
M  V30 15 C -2.815391 1.964077 1.255472 0
M  V30 16 C -2.179365 0.889826 0.668457 0
M  V30 17 C -2.843829 -0.339055 0.342118 0
M  V30 18 C -2.776115 -1.215507 1.418296 0
M  V30 19 F -2.172186 -0.981143 2.632156 0
M  V30 20 C -3.350956 -2.496243 1.363992 0
M  V30 21 C -3.981387 -2.811055 0.170995 0
M  V30 22 C -4.061571 -1.961845 -0.905709 0
M  V30 23 C -3.480302 -0.695343 -0.821748 0
M  V30 24 O -3.479307 0.267845 -1.821379 0
M  V30 25 C -4.132791 -0.067571 -3.050583 0
M  V30 26 C -0.821604 1.044585 0.404651 0
M  V30 27 O 0.011865 0.165732 -0.152805 0
M  V30 28 C 3.108039 -1.026154 1.174935 0
M  V30 29 H 3.027620 -1.220160 5.496124 0
M  V30 30 H 1.372617 -1.287537 4.698876 0
M  V30 31 H 2.866916 -0.552285 3.861036 0
M  V30 32 H 1.980840 -3.171772 3.489370 0
M  V30 33 H 3.174594 -3.341569 4.820891 0
M  V30 34 H 6.151829 -2.474371 1.837925 0
M  V30 35 H 6.672264 -1.360269 -0.222060 0
M  V30 36 H 5.011569 -0.066102 -1.386657 0
M  V30 37 H 2.754941 0.674181 -1.650680 0
M  V30 38 H -0.187767 4.150661 1.507872 0
M  V30 39 H -2.649012 3.958612 2.023534 0
M  V30 40 H -3.883183 1.870608 1.472872 0
M  V30 41 H -3.317754 -3.202286 2.180534 0
M  V30 42 H -4.448898 -3.784129 0.054091 0
M  V30 43 H -4.553873 -2.212923 -1.826306 0
M  V30 44 H -3.916583 0.650439 -3.859158 0
M  V30 45 H -3.804401 -1.106498 -3.351996 0
M  V30 46 H -5.224335 -0.140617 -2.907461 0
M  V30 47 H 2.140704 -1.006171 1.655183 0
M  V30 END ATOM
M  V30 BEGIN BOND
M  V30 1 1 1 2
M  V30 2 1 2 3
M  V30 3 1 3 4
M  V30 4 2 4 5
M  V30 5 1 5 6
M  V30 6 2 6 7
M  V30 7 1 7 8
M  V30 8 1 8 9
M  V30 9 1 9 10
M  V30 10 2 10 11
M  V30 11 1 11 12
M  V30 12 2 12 13
M  V30 13 1 13 14
M  V30 14 2 14 15
M  V30 15 1 15 16
M  V30 16 1 16 17
M  V30 17 2 17 18
M  V30 18 1 18 19
M  V30 19 1 18 20
M  V30 20 2 20 21
M  V30 21 1 21 22
M  V30 22 2 22 23
M  V30 23 1 23 24
M  V30 24 1 24 25
M  V30 25 2 16 26
M  V30 26 1 26 27
M  V30 27 2 8 28
M  V30 28 1 28 4
M  V30 29 1 27 10
M  V30 30 1 26 12
M  V30 31 1 23 17
M  V30 32 1 1 29
M  V30 33 1 1 30
M  V30 34 1 1 31
M  V30 35 1 2 32
M  V30 36 1 2 33
M  V30 37 1 5 34
M  V30 38 1 6 35
M  V30 39 1 7 36
M  V30 40 1 9 37
M  V30 41 1 13 38
M  V30 42 1 14 39
M  V30 43 1 15 40
M  V30 44 1 20 41
M  V30 45 1 21 42
M  V30 46 1 22 43
M  V30 47 1 25 44
M  V30 48 1 25 45
M  V30 49 1 25 46
M  V30 50 1 28 47
M  V30 END BOND
M  V30 END CTAB
M  END
>  <Dataset>  (137) 
ChEMBL_Kinases

>  <Ligand_Instance>  (137) 
nan

>  <PDB_ID>  (137) 
nan

>  <Standardized_SMILES>  (137) 
CCOc1cccc(Nc2nc3cccc(-c4c(F)cccc4OC)c3o2)c1

>  <Name>  (137) 
nan

>  <Pocket>  (137) 
nan

>  <ATP_Site>  (137) 
nan

>  <Peripheral>  (137) 
nan

>  <Num_H_Atoms_ProtBoundConf>  (137) 
nan

>  <Num_Resolved_Atoms>  (137) 
nan

>  <Num_Not_Resolved_Atoms>  (137) 
nan

$$$$
CHEMBL3297845
     RDKit          3D

  0  0  0  0  0  0  0  0  0  0999 V3000
M  V30 BEGIN CTAB
M  V30 COUNTS 43 46 0 0 0
M  V30 BEGIN ATOM
M  V30 1 C -1.080836 -2.786742 2.162142 0
M  V30 2 O -0.971843 -3.898735 1.309702 0
M  V30 3 C -0.421181 -3.912792 0.052867 0
M  V30 4 C -0.429861 -5.131019 -0.590459 0
M  V30 5 C 0.090938 -5.264723 -1.844664 0
M  V30 6 C 0.616920 -4.133462 -2.422177 0
M  V30 7 C 0.644694 -2.883633 -1.804959 0
M  V30 8 N 1.198485 -1.734111 -2.435595 0
M  V30 9 C 1.220112 -0.464781 -1.794033 0
M  V30 10 N 1.719641 0.658747 -2.315825 0
M  V30 11 C 1.548002 1.631108 -1.397464 0
M  V30 12 C 1.892809 2.981671 -1.444803 0
M  V30 13 C 1.615620 3.802574 -0.369438 0
M  V30 14 C 0.997211 3.276871 0.747282 0
M  V30 15 C 0.672189 1.935353 0.754657 0
M  V30 16 C 0.017873 1.352486 1.921740 0
M  V30 17 C -1.374366 1.433513 1.805473 0
M  V30 18 F -2.060091 1.968644 0.773868 0
M  V30 19 C -2.184858 0.931595 2.818125 0
M  V30 20 C -1.616298 0.355279 3.934417 0
M  V30 21 C -0.241246 0.288571 4.023042 0
M  V30 22 C 0.594211 0.777301 3.035559 0
M  V30 23 O 1.964444 0.761747 3.023692 0
M  V30 24 C 2.732678 0.209057 4.087298 0
M  V30 25 C 0.928466 1.077874 -0.293176 0
M  V30 26 O 0.767310 -0.177380 -0.610581 0
M  V30 27 N 0.111196 -2.814316 -0.556991 0
M  V30 28 H -0.486679 -2.980593 3.087353 0
M  V30 29 H -2.155183 -2.669402 2.416383 0
M  V30 30 H -0.736760 -1.843821 1.710345 0
M  V30 31 H -0.848398 -6.027205 -0.128749 0
M  V30 32 H 0.102942 -6.195303 -2.378353 0
M  V30 33 H 1.037537 -4.211388 -3.418788 0
M  V30 34 H 1.589307 -1.859685 -3.390376 0
M  V30 35 H 2.380277 3.443020 -2.299539 0
M  V30 36 H 1.850103 4.850376 -0.331236 0
M  V30 37 H 0.754858 3.863376 1.616098 0
M  V30 38 H -3.257940 0.962852 2.789892 0
M  V30 39 H -2.237635 -0.043319 4.737908 0
M  V30 40 H 0.250955 -0.154758 4.880075 0
M  V30 41 H 3.698246 0.761074 4.092515 0
M  V30 42 H 2.863610 -0.871947 3.874368 0
M  V30 43 H 2.217507 0.356648 5.061197 0
M  V30 END ATOM
M  V30 BEGIN BOND
M  V30 1 1 1 2
M  V30 2 1 2 3
M  V30 3 2 3 4
M  V30 4 1 4 5
M  V30 5 2 5 6
M  V30 6 1 6 7
M  V30 7 1 7 8
M  V30 8 1 8 9
M  V30 9 2 9 10
M  V30 10 1 10 11
M  V30 11 2 11 12
M  V30 12 1 12 13
M  V30 13 2 13 14
M  V30 14 1 14 15
M  V30 15 1 15 16
M  V30 16 2 16 17
M  V30 17 1 17 18
M  V30 18 1 17 19
M  V30 19 2 19 20
M  V30 20 1 20 21
M  V30 21 2 21 22
M  V30 22 1 22 23
M  V30 23 1 23 24
M  V30 24 2 15 25
M  V30 25 1 25 26
M  V30 26 2 7 27
M  V30 27 1 27 3
M  V30 28 1 26 9
M  V30 29 1 25 11
M  V30 30 1 22 16
M  V30 31 1 1 28
M  V30 32 1 1 29
M  V30 33 1 1 30
M  V30 34 1 4 31
M  V30 35 1 5 32
M  V30 36 1 6 33
M  V30 37 1 8 34
M  V30 38 1 12 35
M  V30 39 1 13 36
M  V30 40 1 14 37
M  V30 41 1 19 38
M  V30 42 1 20 39
M  V30 43 1 21 40
M  V30 44 1 24 41
M  V30 45 1 24 42
M  V30 46 1 24 43
M  V30 END BOND
M  V30 END CTAB
M  END
>  <Dataset>  (138) 
ChEMBL_Kinases

>  <Ligand_Instance>  (138) 
nan

>  <PDB_ID>  (138) 
nan

>  <Standardized_SMILES>  (138) 
COc1cccc(Nc2nc3cccc(-c4c(F)cccc4OC)c3o2)n1

>  <Name>  (138) 
nan

>  <Pocket>  (138) 
nan

>  <ATP_Site>  (138) 
nan

>  <Peripheral>  (138) 
nan

>  <Num_H_Atoms_ProtBoundConf>  (138) 
nan

>  <Num_Resolved_Atoms>  (138) 
nan

>  <Num_Not_Resolved_Atoms>  (138) 
nan

$$$$
CHEMBL3297844
     RDKit          3D

  0  0  0  0  0  0  0  0  0  0999 V3000
M  V30 BEGIN CTAB
M  V30 COUNTS 44 47 0 0 0
M  V30 BEGIN ATOM
M  V30 1 C 1.492709 -4.288627 -2.399003 0
M  V30 2 O 1.569761 -2.904074 -2.095957 0
M  V30 3 C 2.752152 -2.341782 -1.604251 0
M  V30 4 C 3.855044 -3.183220 -1.420235 0
M  V30 5 C 5.035401 -2.625940 -0.930186 0
M  V30 6 C 5.150153 -1.281111 -0.623044 0
M  V30 7 C 4.043553 -0.446960 -0.809712 0
M  V30 8 F 4.149660 0.865149 -0.511927 0
M  V30 9 C 2.863707 -1.000915 -1.298931 0
M  V30 10 C 1.696100 -0.144892 -1.500754 0
M  V30 11 C 1.487851 0.494723 -2.715688 0
M  V30 12 C 0.385526 1.303493 -2.907662 0
M  V30 13 C -0.542696 1.495721 -1.885852 0
M  V30 14 C -0.362147 0.872430 -0.666064 0
M  V30 15 N -1.008304 0.803951 0.535006 0
M  V30 16 C -0.311408 0.001477 1.361315 0
M  V30 17 N -0.650320 -0.328844 2.704041 0
M  V30 18 C -1.848845 0.233865 3.262073 0
M  V30 19 C -2.092689 -0.192267 4.684445 0
M  V30 20 C -3.528624 0.136891 5.026801 0
M  V30 21 O -3.902819 1.374710 4.530191 0
M  V30 22 C -2.812143 2.228803 4.362748 0
M  V30 23 C -1.907633 1.732494 3.229816 0
M  V30 24 O 0.743843 -0.423861 0.700383 0
M  V30 25 C 0.750731 0.071874 -0.510887 0
M  V30 26 H 0.580660 -4.487320 -2.967483 0
M  V30 27 H 2.354684 -4.621666 -3.018971 0
M  V30 28 H 1.401532 -4.870090 -1.451999 0
M  V30 29 H 3.821229 -4.249104 -1.645366 0
M  V30 30 H 5.871474 -3.322431 -0.802477 0
M  V30 31 H 6.114502 -0.919373 -0.241493 0
M  V30 32 H 2.182654 0.380063 -3.551290 0
M  V30 33 H 0.188716 1.823107 -3.850363 0
M  V30 34 H -1.430554 2.115176 -1.963097 0
M  V30 35 H -0.033263 -0.962841 3.250252 0
M  V30 36 H -2.732399 -0.128797 2.669765 0
M  V30 37 H -1.384600 0.270490 5.405157 0
M  V30 38 H -1.977631 -1.309778 4.773976 0
M  V30 39 H -3.745553 0.026172 6.107423 0
M  V30 40 H -4.154107 -0.628801 4.507887 0
M  V30 41 H -2.236717 2.218816 5.303387 0
M  V30 42 H -3.162276 3.243780 4.166827 0
M  V30 43 H -0.923123 2.175220 3.392292 0
M  V30 44 H -2.345903 2.123472 2.276494 0
M  V30 END ATOM
M  V30 BEGIN BOND
M  V30 1 1 1 2
M  V30 2 1 2 3
M  V30 3 2 3 4
M  V30 4 1 4 5
M  V30 5 2 5 6
M  V30 6 1 6 7
M  V30 7 1 7 8
M  V30 8 2 7 9
M  V30 9 1 9 10
M  V30 10 2 10 11
M  V30 11 1 11 12
M  V30 12 2 12 13
M  V30 13 1 13 14
M  V30 14 1 14 15
M  V30 15 2 15 16
M  V30 16 1 16 17
M  V30 17 1 17 18
M  V30 18 1 18 19
M  V30 19 1 19 20
M  V30 20 1 20 21
M  V30 21 1 21 22
M  V30 22 1 22 23
M  V30 23 1 16 24
M  V30 24 1 24 25
M  V30 25 1 9 3
M  V30 26 1 25 10
M  V30 27 2 25 14
M  V30 28 1 23 18
M  V30 29 1 1 26
M  V30 30 1 1 27
M  V30 31 1 1 28
M  V30 32 1 4 29
M  V30 33 1 5 30
M  V30 34 1 6 31
M  V30 35 1 11 32
M  V30 36 1 12 33
M  V30 37 1 13 34
M  V30 38 1 17 35
M  V30 39 1 18 36
M  V30 40 1 19 37
M  V30 41 1 19 38
M  V30 42 1 20 39
M  V30 43 1 20 40
M  V30 44 1 22 41
M  V30 45 1 22 42
M  V30 46 1 23 43
M  V30 47 1 23 44
M  V30 END BOND
M  V30 END CTAB
M  END
>  <Dataset>  (139) 
ChEMBL_Kinases

>  <Ligand_Instance>  (139) 
nan

>  <PDB_ID>  (139) 
nan

>  <Standardized_SMILES>  (139) 
COc1cccc(F)c1-c1cccc2nc(NC3CCOCC3)oc12

>  <Name>  (139) 
nan

>  <Pocket>  (139) 
nan

>  <ATP_Site>  (139) 
nan

>  <Peripheral>  (139) 
nan

>  <Num_H_Atoms_ProtBoundConf>  (139) 
nan

>  <Num_Resolved_Atoms>  (139) 
nan

>  <Num_Not_Resolved_Atoms>  (139) 
nan

$$$$
CHEMBL3297843
     RDKit          3D

  0  0  0  0  0  0  0  0  0  0999 V3000
M  V30 BEGIN CTAB
M  V30 COUNTS 46 49 0 0 0
M  V30 BEGIN ATOM
M  V30 1 C -0.395238 -3.265510 -2.441787 0
M  V30 2 O 0.442743 -2.228896 -2.026337 0
M  V30 3 C 1.637908 -2.496767 -1.372624 0
M  V30 4 C 2.129904 -3.747710 -1.063544 0
M  V30 5 C 3.331569 -3.914653 -0.409865 0
M  V30 6 C 4.041073 -2.772225 -0.067403 0
M  V30 7 C 3.556727 -1.502248 -0.373026 0
M  V30 8 F 4.360264 -0.480371 0.024366 0
M  V30 9 C 2.349176 -1.362289 -1.028934 0
M  V30 10 C 1.975589 0.026207 -1.278925 0
M  V30 11 C 2.359277 0.668589 -2.452360 0
M  V30 12 C 1.987557 1.982619 -2.654520 0
M  V30 13 C 1.244456 2.714498 -1.748287 0
M  V30 14 C 0.870193 2.055803 -0.581487 0
M  V30 15 N 0.158854 2.475962 0.479941 0
M  V30 16 C 0.076758 1.432661 1.357432 0
M  V30 17 N -0.591038 1.450639 2.614429 0
M  V30 18 C -0.661884 0.317928 3.529962 0
M  V30 19 C -1.431954 0.656458 4.779874 0
M  V30 20 C -2.813285 0.092817 4.655862 0
M  V30 21 C -3.388531 0.394199 3.289561 0
M  V30 22 C -2.646837 -0.405647 2.251783 0
M  V30 23 C -1.298580 -0.819871 2.762987 0
M  V30 24 O 0.727180 0.433255 0.812333 0
M  V30 25 C 1.229369 0.746773 -0.358939 0
M  V30 26 H -1.281641 -2.829445 -2.970524 0
M  V30 27 H 0.101697 -3.955840 -3.167444 0
M  V30 28 H -0.771996 -3.880571 -1.588237 0
M  V30 29 H 1.505886 -4.582032 -1.370711 0
M  V30 30 H 3.667337 -4.912358 -0.193886 0
M  V30 31 H 4.974687 -2.973024 0.442954 0
M  V30 32 H 2.942856 0.116971 -3.180078 0
M  V30 33 H 2.292645 2.476742 -3.576040 0
M  V30 34 H 0.958745 3.744330 -1.917413 0
M  V30 35 H -1.069555 2.329023 2.918784 0
M  V30 36 H 0.384653 0.043678 3.771566 0
M  V30 37 H -1.418709 1.746458 4.967953 0
M  V30 38 H -0.909137 0.173134 5.631422 0
M  V30 39 H -3.439431 0.515958 5.467737 0
M  V30 40 H -2.752865 -1.019517 4.791357 0
M  V30 41 H -3.308691 1.493258 3.128627 0
M  V30 42 H -4.450621 0.058879 3.305553 0
M  V30 43 H -3.210953 -1.350629 2.057272 0
M  V30 44 H -2.599104 0.098329 1.265615 0
M  V30 45 H -0.607381 -1.101812 1.953313 0
M  V30 46 H -1.371377 -1.690225 3.449590 0
M  V30 END ATOM
M  V30 BEGIN BOND
M  V30 1 1 1 2
M  V30 2 1 2 3
M  V30 3 2 3 4
M  V30 4 1 4 5
M  V30 5 2 5 6
M  V30 6 1 6 7
M  V30 7 1 7 8
M  V30 8 2 7 9
M  V30 9 1 9 10
M  V30 10 2 10 11
M  V30 11 1 11 12
M  V30 12 2 12 13
M  V30 13 1 13 14
M  V30 14 1 14 15
M  V30 15 2 15 16
M  V30 16 1 16 17
M  V30 17 1 17 18
M  V30 18 1 18 19
M  V30 19 1 19 20
M  V30 20 1 20 21
M  V30 21 1 21 22
M  V30 22 1 22 23
M  V30 23 1 16 24
M  V30 24 1 24 25
M  V30 25 1 9 3
M  V30 26 1 25 10
M  V30 27 2 25 14
M  V30 28 1 23 18
M  V30 29 1 1 26
M  V30 30 1 1 27
M  V30 31 1 1 28
M  V30 32 1 4 29
M  V30 33 1 5 30
M  V30 34 1 6 31
M  V30 35 1 11 32
M  V30 36 1 12 33
M  V30 37 1 13 34
M  V30 38 1 17 35
M  V30 39 1 18 36
M  V30 40 1 19 37
M  V30 41 1 19 38
M  V30 42 1 20 39
M  V30 43 1 20 40
M  V30 44 1 21 41
M  V30 45 1 21 42
M  V30 46 1 22 43
M  V30 47 1 22 44
M  V30 48 1 23 45
M  V30 49 1 23 46
M  V30 END BOND
M  V30 END CTAB
M  END
>  <Dataset>  (140) 
ChEMBL_Kinases

>  <Ligand_Instance>  (140) 
nan

>  <PDB_ID>  (140) 
nan

>  <Standardized_SMILES>  (140) 
COc1cccc(F)c1-c1cccc2nc(NC3CCCCC3)oc12

>  <Name>  (140) 
nan

>  <Pocket>  (140) 
nan

>  <ATP_Site>  (140) 
nan

>  <Peripheral>  (140) 
nan

>  <Num_H_Atoms_ProtBoundConf>  (140) 
nan

>  <Num_Resolved_Atoms>  (140) 
nan

>  <Num_Not_Resolved_Atoms>  (140) 
nan

$$$$
CHEMBL3297842
     RDKit          3D

  0  0  0  0  0  0  0  0  0  0999 V3000
M  V30 BEGIN CTAB
M  V30 COUNTS 40 43 0 0 0
M  V30 BEGIN ATOM
M  V30 1 C 0.196180 -3.654072 -0.957574 0
M  V30 2 O 0.805709 -2.399915 -0.950815 0
M  V30 3 C 2.101729 -2.125484 -0.505014 0
M  V30 4 C 2.847258 -3.183712 -0.025760 0
M  V30 5 C 4.137432 -3.040955 0.442194 0
M  V30 6 C 4.658411 -1.764292 0.408674 0
M  V30 7 C 3.968850 -0.667130 -0.056019 0
M  V30 8 F 4.402033 0.608876 -0.123483 0
M  V30 9 C 2.682790 -0.848055 -0.516459 0
M  V30 10 C 1.740717 0.128562 -1.055284 0
M  V30 11 C 1.682704 0.368764 -2.425906 0
M  V30 12 C 0.760729 1.273879 -2.906380 0
M  V30 13 C -0.066888 1.905838 -2.016577 0
M  V30 14 C 0.014730 1.645281 -0.644937 0
M  V30 15 N -0.654330 2.104600 0.461550 0
M  V30 16 C -0.150592 1.496602 1.569352 0
M  V30 17 N -0.868997 1.998220 2.691281 0
M  V30 18 C -1.899197 1.144271 3.168868 0
M  V30 19 C -1.985543 -0.181761 2.781405 0
M  V30 20 C -2.962589 -1.056956 3.203867 0
M  V30 21 C -3.921727 -0.556353 4.081437 0
M  V30 22 C -3.908355 0.756125 4.517729 0
M  V30 23 C -2.891159 1.572446 4.045129 0
M  V30 24 O 0.802261 0.681124 1.181775 0
M  V30 25 C 0.924469 0.746706 -0.133092 0
M  V30 26 H 0.449685 -4.277917 -0.083975 0
M  V30 27 H 0.355003 -4.177577 -1.933979 0
M  V30 28 H -0.920241 -3.493544 -0.928193 0
M  V30 29 H 2.472972 -4.198794 0.015317 0
M  V30 30 H 4.758067 -3.864016 0.832702 0
M  V30 31 H 5.678470 -1.565125 0.761920 0
M  V30 32 H 2.345283 -0.139085 -3.131761 0
M  V30 33 H 0.634623 1.532420 -3.956702 0
M  V30 34 H -0.846891 2.644107 -2.238062 0
M  V30 35 H -0.715213 2.909668 3.184247 0
M  V30 36 H -1.227314 -0.581128 2.087393 0
M  V30 37 H -3.001918 -2.106287 2.881467 0
M  V30 38 H -4.700564 -1.255336 4.418438 0
M  V30 39 H -4.673626 1.144850 5.210049 0
M  V30 40 H -2.821482 2.626708 4.351005 0
M  V30 END ATOM
M  V30 BEGIN BOND
M  V30 1 1 1 2
M  V30 2 1 2 3
M  V30 3 2 3 4
M  V30 4 1 4 5
M  V30 5 2 5 6
M  V30 6 1 6 7
M  V30 7 1 7 8
M  V30 8 2 7 9
M  V30 9 1 9 10
M  V30 10 2 10 11
M  V30 11 1 11 12
M  V30 12 2 12 13
M  V30 13 1 13 14
M  V30 14 1 14 15
M  V30 15 2 15 16
M  V30 16 1 16 17
M  V30 17 1 17 18
M  V30 18 2 18 19
M  V30 19 1 19 20
M  V30 20 2 20 21
M  V30 21 1 21 22
M  V30 22 2 22 23
M  V30 23 1 16 24
M  V30 24 1 24 25
M  V30 25 1 9 3
M  V30 26 1 25 10
M  V30 27 2 25 14
M  V30 28 1 23 18
M  V30 29 1 1 26
M  V30 30 1 1 27
M  V30 31 1 1 28
M  V30 32 1 4 29
M  V30 33 1 5 30
M  V30 34 1 6 31
M  V30 35 1 11 32
M  V30 36 1 12 33
M  V30 37 1 13 34
M  V30 38 1 17 35
M  V30 39 1 19 36
M  V30 40 1 20 37
M  V30 41 1 21 38
M  V30 42 1 22 39
M  V30 43 1 23 40
M  V30 END BOND
M  V30 END CTAB
M  END
>  <Dataset>  (141) 
ChEMBL_Kinases

>  <Ligand_Instance>  (141) 
nan

>  <PDB_ID>  (141) 
nan

>  <Standardized_SMILES>  (141) 
COc1cccc(F)c1-c1cccc2nc(Nc3ccccc3)oc12

>  <Name>  (141) 
nan

>  <Pocket>  (141) 
nan

>  <ATP_Site>  (141) 
nan

>  <Peripheral>  (141) 
nan

>  <Num_H_Atoms_ProtBoundConf>  (141) 
nan

>  <Num_Resolved_Atoms>  (141) 
nan

>  <Num_Not_Resolved_Atoms>  (141) 
nan

$$$$
CHEMBL3297841
     RDKit          3D

  0  0  0  0  0  0  0  0  0  0999 V3000
M  V30 BEGIN CTAB
M  V30 COUNTS 30 32 0 0 0
M  V30 BEGIN ATOM
M  V30 1 C -1.907798 -3.485577 1.276610 0
M  V30 2 O -1.014534 -2.482534 0.825997 0
M  V30 3 C 0.331969 -2.485818 1.165814 0
M  V30 4 C 1.009581 -3.394470 1.946804 0
M  V30 5 C 2.360139 -3.244797 2.184782 0
M  V30 6 C 3.068381 -2.188358 1.651885 0
M  V30 7 C 2.383342 -1.269835 0.862387 0
M  V30 8 F 3.162799 -0.262631 0.380431 0
M  V30 9 C 1.013371 -1.419224 0.619353 0
M  V30 10 C 0.504575 -0.345432 -0.230430 0
M  V30 11 C 0.476560 -0.419990 -1.600721 0
M  V30 12 C -0.023358 0.642851 -2.357953 0
M  V30 13 C -0.492474 1.775272 -1.731324 0
M  V30 14 C -0.489037 1.906152 -0.358002 0
M  V30 15 N -0.849441 2.822135 0.578855 0
M  V30 16 C -0.575891 2.321613 1.795822 0
M  V30 17 N -0.805011 2.969478 3.040471 0
M  V30 18 O -0.060937 1.131929 1.636429 0
M  V30 19 C 0.018640 0.821143 0.354856 0
M  V30 20 H -2.956796 -3.088527 1.305423 0
M  V30 21 H -1.614747 -3.825413 2.302166 0
M  V30 22 H -1.850526 -4.402463 0.633448 0
M  V30 23 H 0.389122 -4.205822 2.336865 0
M  V30 24 H 2.833382 -4.009274 2.817562 0
M  V30 25 H 4.126422 -2.120695 1.871683 0
M  V30 26 H 0.858133 -1.333387 -2.034587 0
M  V30 27 H -0.031565 0.552660 -3.435896 0
M  V30 28 H -0.883773 2.610563 -2.290295 0
M  V30 29 H -0.622436 2.471097 3.935965 0
M  V30 30 H -1.155216 3.942212 3.098504 0
M  V30 END ATOM
M  V30 BEGIN BOND
M  V30 1 1 1 2
M  V30 2 1 2 3
M  V30 3 2 3 4
M  V30 4 1 4 5
M  V30 5 2 5 6
M  V30 6 1 6 7
M  V30 7 1 7 8
M  V30 8 2 7 9
M  V30 9 1 9 10
M  V30 10 2 10 11
M  V30 11 1 11 12
M  V30 12 2 12 13
M  V30 13 1 13 14
M  V30 14 1 14 15
M  V30 15 2 15 16
M  V30 16 1 16 17
M  V30 17 1 16 18
M  V30 18 1 18 19
M  V30 19 1 9 3
M  V30 20 1 19 10
M  V30 21 2 19 14
M  V30 22 1 1 20
M  V30 23 1 1 21
M  V30 24 1 1 22
M  V30 25 1 4 23
M  V30 26 1 5 24
M  V30 27 1 6 25
M  V30 28 1 11 26
M  V30 29 1 12 27
M  V30 30 1 13 28
M  V30 31 1 17 29
M  V30 32 1 17 30
M  V30 END BOND
M  V30 END CTAB
M  END
>  <Dataset>  (142) 
ChEMBL_Kinases

>  <Ligand_Instance>  (142) 
nan

>  <PDB_ID>  (142) 
nan

>  <Standardized_SMILES>  (142) 
COc1cccc(F)c1-c1cccc2nc(N)oc12

>  <Name>  (142) 
nan

>  <Pocket>  (142) 
nan

>  <ATP_Site>  (142) 
nan

>  <Peripheral>  (142) 
nan

>  <Num_H_Atoms_ProtBoundConf>  (142) 
nan

>  <Num_Resolved_Atoms>  (142) 
nan

>  <Num_Not_Resolved_Atoms>  (142) 
nan

$$$$
CHEMBL3297840
     RDKit          3D

  0  0  0  0  0  0  0  0  0  0999 V3000
M  V30 BEGIN CTAB
M  V30 COUNTS 44 47 0 0 0
M  V30 BEGIN ATOM
M  V30 1 C -2.393782 -4.585986 1.386656 0
M  V30 2 O -1.680996 -3.460979 0.941538 0
M  V30 3 C -1.274485 -3.353052 -0.373229 0
M  V30 4 C -1.570805 -4.353632 -1.247556 0
M  V30 5 C -1.157957 -4.220363 -2.535761 0
M  V30 6 C -0.461530 -3.114775 -2.957888 0
M  V30 7 C -0.135022 -2.072792 -2.114822 0
M  V30 8 N 0.585781 -0.941356 -2.577382 0
M  V30 9 C 0.970699 0.180009 -1.795484 0
M  V30 10 N 1.665571 1.254322 -2.274600 0
M  V30 11 C 1.857458 2.122236 -1.270081 0
M  V30 12 C 2.483038 3.342512 -1.197722 0
M  V30 13 C 2.508456 4.007236 0.029396 0
M  V30 14 C 1.916274 3.449540 1.149845 0
M  V30 15 C 1.274909 2.207445 1.093529 0
M  V30 16 C 0.638741 1.584286 2.249289 0
M  V30 17 C -0.709101 1.903490 2.434171 0
M  V30 18 F -1.415001 2.737418 1.610344 0
M  V30 19 C -1.454881 1.392256 3.486268 0
M  V30 20 C -0.808162 0.540719 4.361890 0
M  V30 21 C 0.522479 0.216045 4.192544 0
M  V30 22 C 1.258529 0.729228 3.142269 0
M  V30 23 O 2.577499 0.462094 2.898885 0
M  V30 24 C 3.422671 -0.361894 3.644340 0
M  V30 25 C 1.277936 1.584578 -0.157433 0
M  V30 26 O 0.774473 0.440342 -0.538372 0
M  V30 27 C -0.575323 -2.256144 -0.822909 0
M  V30 28 H -2.340385 -4.605664 2.500015 0
M  V30 29 H -1.985720 -5.541463 1.002636 0
M  V30 30 H -3.494595 -4.491077 1.172348 0
M  V30 31 H -2.109148 -5.254629 -1.013406 0
M  V30 32 H -1.364698 -4.989044 -3.286099 0
M  V30 33 H -0.147343 -3.049883 -4.010866 0
M  V30 34 H 0.850636 -0.953711 -3.599053 0
M  V30 35 H 2.944431 3.779302 -2.066203 0
M  V30 36 H 3.003312 4.968580 0.078778 0
M  V30 37 H 1.929631 3.959205 2.113837 0
M  V30 38 H -2.497054 1.634107 3.636068 0
M  V30 39 H -1.310387 0.088864 5.218940 0
M  V30 40 H 1.026164 -0.458786 4.890567 0
M  V30 41 H 4.378981 0.211414 3.811698 0
M  V30 42 H 3.740062 -1.290561 3.097290 0
M  V30 43 H 3.050556 -0.609743 4.651372 0
M  V30 44 H -0.374026 -1.500510 -0.078065 0
M  V30 END ATOM
M  V30 BEGIN BOND
M  V30 1 1 1 2
M  V30 2 1 2 3
M  V30 3 2 3 4
M  V30 4 1 4 5
M  V30 5 2 5 6
M  V30 6 1 6 7
M  V30 7 1 7 8
M  V30 8 1 8 9
M  V30 9 2 9 10
M  V30 10 1 10 11
M  V30 11 2 11 12
M  V30 12 1 12 13
M  V30 13 2 13 14
M  V30 14 1 14 15
M  V30 15 1 15 16
M  V30 16 2 16 17
M  V30 17 1 17 18
M  V30 18 1 17 19
M  V30 19 2 19 20
M  V30 20 1 20 21
M  V30 21 2 21 22
M  V30 22 1 22 23
M  V30 23 1 23 24
M  V30 24 2 15 25
M  V30 25 1 25 26
M  V30 26 2 7 27
M  V30 27 1 27 3
M  V30 28 1 26 9
M  V30 29 1 25 11
M  V30 30 1 22 16
M  V30 31 1 1 28
M  V30 32 1 1 29
M  V30 33 1 1 30
M  V30 34 1 4 31
M  V30 35 1 5 32
M  V30 36 1 6 33
M  V30 37 1 8 34
M  V30 38 1 12 35
M  V30 39 1 13 36
M  V30 40 1 14 37
M  V30 41 1 19 38
M  V30 42 1 20 39
M  V30 43 1 21 40
M  V30 44 1 24 41
M  V30 45 1 24 42
M  V30 46 1 24 43
M  V30 47 1 27 44
M  V30 END BOND
M  V30 END CTAB
M  END
>  <Dataset>  (143) 
ChEMBL_Kinases

>  <Ligand_Instance>  (143) 
nan

>  <PDB_ID>  (143) 
nan

>  <Standardized_SMILES>  (143) 
COc1cccc(Nc2nc3cccc(-c4c(F)cccc4OC)c3o2)c1

>  <Name>  (143) 
nan

>  <Pocket>  (143) 
nan

>  <ATP_Site>  (143) 
nan

>  <Peripheral>  (143) 
nan

>  <Num_H_Atoms_ProtBoundConf>  (143) 
nan

>  <Num_Resolved_Atoms>  (143) 
nan

>  <Num_Not_Resolved_Atoms>  (143) 
nan

$$$$
CHEMBL3297768
     RDKit          3D

  0  0  0  0  0  0  0  0  0  0999 V3000
M  V30 BEGIN CTAB
M  V30 COUNTS 61 64 0 0 0
M  V30 BEGIN ATOM
M  V30 1 C -0.044915 2.089807 2.875041 0
M  V30 2 C -0.021581 0.824914 2.059991 0 CFG=1
M  V30 3 C 0.682929 -0.253610 2.798318 0
M  V30 4 N 2.021751 -0.064108 3.166947 0
M  V30 5 C 2.345846 0.883074 4.170644 0
M  V30 6 C 3.802641 0.572218 4.584473 0
M  V30 7 N 4.674185 0.986850 3.492345 0
M  V30 8 C 5.932556 0.291292 3.495591 0
M  V30 9 C 4.013080 0.965356 2.206628 0
M  V30 10 C 3.021524 -0.200948 2.147410 0
M  V30 11 N -1.418906 0.464106 1.779296 0
M  V30 12 C -1.977563 0.427979 0.477300 0
M  V30 13 O -1.134872 0.742365 -0.433893 0
M  V30 14 C -3.370343 0.065066 0.249337 0
M  V30 15 C -3.793827 0.073500 -1.188606 0 CFG=1
M  V30 16 C -3.646433 1.410049 -1.844220 0
M  V30 17 N -3.934514 1.244906 -3.259287 0
M  V30 18 C -3.266173 0.234263 -4.017256 0
M  V30 19 O -3.067750 0.368710 -5.233119 0
M  V30 20 C -2.837951 -0.948563 -3.280476 0
M  V30 21 C -2.189108 -2.106854 -3.636506 0
M  V30 22 C -2.059029 -2.874474 -2.499933 0
M  V30 23 C -1.444558 -4.188961 -2.350344 0
M  V30 24 C -0.835082 -4.515951 -1.146136 0
M  V30 25 C -0.232093 -5.742966 -0.930897 0
M  V30 26 C -0.255471 -6.665539 -1.987663 0
M  V30 27 C -0.855220 -6.361510 -3.191707 0
M  V30 28 Cl -0.871211 -7.530685 -4.493273 0
M  V30 29 C -1.449681 -5.115683 -3.364667 0
M  V30 30 C -2.649015 -2.131842 -1.475452 0
M  V30 31 N -3.124772 -0.949043 -1.966845 0
M  V30 32 H -1.050623 2.577413 2.677928 0
M  V30 33 H 0.020130 1.927729 3.969481 0
M  V30 34 H 0.671133 2.848788 2.485761 0
M  V30 35 H 0.435643 1.058377 1.076647 0
M  V30 36 H 0.113491 -0.535717 3.736634 0
M  V30 37 H 0.606740 -1.204352 2.180841 0
M  V30 38 H 1.746902 0.709134 5.088624 0
M  V30 39 H 2.383573 1.911500 3.818630 0
M  V30 40 H 3.932367 -0.504706 4.817987 0
M  V30 41 H 4.055569 1.167075 5.481424 0
M  V30 42 H 6.755650 0.961788 3.740565 0
M  V30 43 H 5.878825 -0.486550 4.301848 0
M  V30 44 H 6.070549 -0.208555 2.506404 0
M  V30 45 H 4.730261 0.826622 1.381954 0
M  V30 46 H 3.487920 1.941443 2.099787 0
M  V30 47 H 2.645606 -0.340327 1.135323 0
M  V30 48 H 3.620752 -1.108296 2.384488 0
M  V30 49 H -2.036507 0.219370 2.591643 0
M  V30 50 H -4.025542 0.810560 0.777956 0
M  V30 51 H -3.641055 -0.926989 0.671637 0
M  V30 52 H -4.877179 -0.180875 -1.210645 0
M  V30 53 H -4.392957 2.139518 -1.460349 0
M  V30 54 H -2.662922 1.880611 -1.760349 0
M  V30 55 H -4.638860 1.858986 -3.767364 0
M  V30 56 H -1.848145 -2.354796 -4.634709 0
M  V30 57 H -0.848956 -3.749831 -0.353938 0
M  V30 58 H 0.231996 -5.956176 0.025642 0
M  V30 59 H 0.221845 -7.611725 -1.791247 0
M  V30 60 H -1.936440 -4.824068 -4.292319 0
M  V30 61 H -2.692024 -2.500282 -0.447895 0
M  V30 END ATOM
M  V30 BEGIN BOND
M  V30 1 1 1 2
M  V30 2 1 2 3
M  V30 3 1 3 4
M  V30 4 1 4 5
M  V30 5 1 5 6
M  V30 6 1 6 7
M  V30 7 1 7 8
M  V30 8 1 7 9
M  V30 9 1 9 10
M  V30 10 1 2 11
M  V30 11 1 11 12
M  V30 12 2 12 13
M  V30 13 1 12 14
M  V30 14 1 14 15
M  V30 15 1 15 16
M  V30 16 1 16 17
M  V30 17 1 17 18
M  V30 18 2 18 19
M  V30 19 1 18 20
M  V30 20 2 20 21
M  V30 21 1 21 22
M  V30 22 1 22 23
M  V30 23 2 23 24
M  V30 24 1 24 25
M  V30 25 2 25 26
M  V30 26 1 26 27
M  V30 27 1 27 28
M  V30 28 2 27 29
M  V30 29 2 22 30
M  V30 30 1 30 31
M  V30 31 1 10 4
M  V30 32 1 31 15
M  V30 33 1 31 20
M  V30 34 1 29 23
M  V30 35 1 1 32
M  V30 36 1 1 33
M  V30 37 1 1 34
M  V30 38 1 2 35 CFG=3
M  V30 39 1 3 36
M  V30 40 1 3 37
M  V30 41 1 5 38
M  V30 42 1 5 39
M  V30 43 1 6 40
M  V30 44 1 6 41
M  V30 45 1 8 42
M  V30 46 1 8 43
M  V30 47 1 8 44
M  V30 48 1 9 45
M  V30 49 1 9 46
M  V30 50 1 10 47
M  V30 51 1 10 48
M  V30 52 1 11 49
M  V30 53 1 14 50
M  V30 54 1 14 51
M  V30 55 1 15 52 CFG=1
M  V30 56 1 16 53
M  V30 57 1 16 54
M  V30 58 1 17 55
M  V30 59 1 21 56
M  V30 60 1 24 57
M  V30 61 1 25 58
M  V30 62 1 26 59
M  V30 63 1 29 60
M  V30 64 1 30 61
M  V30 END BOND
M  V30 END CTAB
M  END
>  <Dataset>  (144) 
ChEMBL_Kinases

>  <Ligand_Instance>  (144) 
nan

>  <PDB_ID>  (144) 
nan

>  <Standardized_SMILES>  (144) 
C[C@@H](CN1CCN(C)CC1)NC(=O)C[C@H]1CNC(=O)c2cc(-c3cccc(Cl)c3)cn21

>  <Name>  (144) 
nan

>  <Pocket>  (144) 
nan

>  <ATP_Site>  (144) 
nan

>  <Peripheral>  (144) 
nan

>  <Num_H_Atoms_ProtBoundConf>  (144) 
nan

>  <Num_Resolved_Atoms>  (144) 
nan

>  <Num_Not_Resolved_Atoms>  (144) 
nan

$$$$
CHEMBL3297751
     RDKit          3D

  0  0  0  0  0  0  0  0  0  0999 V3000
M  V30 BEGIN CTAB
M  V30 COUNTS 53 55 0 0 0
M  V30 BEGIN ATOM
M  V30 1 C 1.733819 -2.076902 5.068935 0
M  V30 2 C 1.587868 -1.352202 3.705477 0
M  V30 3 C 0.263908 -1.781428 3.179188 0
M  V30 4 C 2.726402 -1.779184 2.809163 0
M  V30 5 C 1.756396 0.100302 4.032514 0
M  V30 6 N 1.687375 1.000264 2.943919 0
M  V30 7 C 0.737211 1.389060 1.989169 0
M  V30 8 O -0.390226 0.854981 2.034863 0
M  V30 9 C 0.929633 2.373731 0.923092 0
M  V30 10 C -0.311875 2.506146 0.043230 0
M  V30 11 C 0.104740 3.578198 -0.981154 0
M  V30 12 N 1.376303 3.135810 -1.571233 0
M  V30 13 C 1.236974 1.928262 -2.352181 0
M  V30 14 O 1.962651 1.716532 -3.385379 0
M  V30 15 C 0.203392 0.995912 -1.847144 0
M  V30 16 C -0.159941 -0.205739 -2.412044 0
M  V30 17 C -1.174317 -0.677624 -1.602625 0
M  V30 18 C -1.840583 -1.947904 -1.866466 0
M  V30 19 C -1.994176 -2.397881 -3.163161 0
M  V30 20 C -2.633976 -3.610143 -3.359539 0
M  V30 21 C -3.092855 -4.323630 -2.273910 0
M  V30 22 C -2.932884 -3.861720 -0.976181 0
M  V30 23 C -3.452482 -4.683333 0.142810 0
M  V30 24 F -2.535966 -5.665680 0.440507 0
M  V30 25 F -3.669727 -3.901967 1.238762 0
M  V30 26 F -4.625996 -5.261740 -0.298339 0
M  V30 27 C -2.298292 -2.655862 -0.754461 0
M  V30 28 C -1.352932 0.267793 -0.608039 0
M  V30 29 N -0.507937 1.299962 -0.751664 0
M  V30 30 H 1.134650 -1.465859 5.769688 0
M  V30 31 H 1.323086 -3.088902 4.920782 0
M  V30 32 H 2.797553 -2.055259 5.341434 0
M  V30 33 H -0.599097 -1.274045 3.650363 0
M  V30 34 H 0.153301 -1.760962 2.085999 0
M  V30 35 H 0.201192 -2.901791 3.415763 0
M  V30 36 H 3.381648 -2.501098 3.340199 0
M  V30 37 H 2.302696 -2.228104 1.882830 0
M  V30 38 H 3.338186 -0.908625 2.493524 0
M  V30 39 H 2.767334 0.172669 4.519291 0
M  V30 40 H 1.064807 0.402342 4.877591 0
M  V30 41 H 2.581155 1.563996 2.754962 0
M  V30 42 H 1.269112 3.370736 1.269284 0
M  V30 43 H 1.732968 2.058496 0.192787 0
M  V30 44 H -1.200209 2.815269 0.581332 0
M  V30 45 H -0.646463 3.717679 -1.746889 0
M  V30 46 H 0.323925 4.527796 -0.430244 0
M  V30 47 H 2.344676 3.562191 -1.509042 0
M  V30 48 H 0.255670 -0.675910 -3.292840 0
M  V30 49 H -1.603107 -1.773769 -3.962284 0
M  V30 50 H -2.761726 -3.974746 -4.364015 0
M  V30 51 H -3.590169 -5.267732 -2.439839 0
M  V30 52 H -2.200406 -2.345199 0.259449 0
M  V30 53 H -2.117221 0.052830 0.109369 0
M  V30 END ATOM
M  V30 BEGIN BOND
M  V30 1 1 1 2
M  V30 2 1 2 3
M  V30 3 1 2 4
M  V30 4 1 2 5
M  V30 5 1 5 6
M  V30 6 1 6 7
M  V30 7 2 7 8
M  V30 8 1 7 9
M  V30 9 1 9 10
M  V30 10 1 10 11
M  V30 11 1 11 12
M  V30 12 1 12 13
M  V30 13 2 13 14
M  V30 14 1 13 15
M  V30 15 2 15 16
M  V30 16 1 16 17
M  V30 17 1 17 18
M  V30 18 2 18 19
M  V30 19 1 19 20
M  V30 20 2 20 21
M  V30 21 1 21 22
M  V30 22 1 22 23
M  V30 23 1 23 24
M  V30 24 1 23 25
M  V30 25 1 23 26
M  V30 26 2 22 27
M  V30 27 2 17 28
M  V30 28 1 28 29
M  V30 29 1 29 10
M  V30 30 1 29 15
M  V30 31 1 27 18
M  V30 32 1 1 30
M  V30 33 1 1 31
M  V30 34 1 1 32
M  V30 35 1 3 33
M  V30 36 1 3 34
M  V30 37 1 3 35
M  V30 38 1 4 36
M  V30 39 1 4 37
M  V30 40 1 4 38
M  V30 41 1 5 39
M  V30 42 1 5 40
M  V30 43 1 6 41
M  V30 44 1 9 42
M  V30 45 1 9 43
M  V30 46 1 10 44
M  V30 47 1 11 45
M  V30 48 1 11 46
M  V30 49 1 12 47
M  V30 50 1 16 48
M  V30 51 1 19 49
M  V30 52 1 20 50
M  V30 53 1 21 51
M  V30 54 1 27 52
M  V30 55 1 28 53
M  V30 END BOND
M  V30 END CTAB
M  END
>  <Dataset>  (145) 
ChEMBL_Kinases

>  <Ligand_Instance>  (145) 
nan

>  <PDB_ID>  (145) 
nan

>  <Standardized_SMILES>  (145) 
CC(C)(C)CNC(=O)CC1CNC(=O)c2cc(-c3cccc(C(F)(F)F)c3)cn21

>  <Name>  (145) 
nan

>  <Pocket>  (145) 
nan

>  <ATP_Site>  (145) 
nan

>  <Peripheral>  (145) 
nan

>  <Num_H_Atoms_ProtBoundConf>  (145) 
nan

>  <Num_Resolved_Atoms>  (145) 
nan

>  <Num_Not_Resolved_Atoms>  (145) 
nan

$$$$
CHEMBL3288306
     RDKit          3D

  0  0  0  0  0  0  0  0  0  0999 V3000
M  V30 BEGIN CTAB
M  V30 COUNTS 22 23 0 0 0
M  V30 BEGIN ATOM
M  V30 1 O -0.536770 1.116730 3.562958 0
M  V30 2 C 0.320129 0.835096 2.694109 0
M  V30 3 C 1.800920 0.971467 2.908457 0
M  V30 4 C 2.494662 0.385168 1.699345 0
M  V30 5 C 1.816919 -0.937450 1.391259 0
M  V30 6 C 0.560215 -0.585546 0.665339 0
M  V30 7 C 0.093712 -1.044752 -0.548684 0
M  V30 8 C -1.110994 -0.566298 -1.018595 0
M  V30 9 O -1.519579 -1.071118 -2.246208 0
M  V30 10 C -1.827858 0.354234 -0.280018 0
M  V30 11 C -1.399622 0.841355 0.939437 0
M  V30 12 C -0.179067 0.343345 1.394297 0
M  V30 13 H 2.033915 2.071561 2.965523 0
M  V30 14 H 2.147964 0.476702 3.820116 0
M  V30 15 H 2.292064 1.077311 0.830431 0
M  V30 16 H 3.575506 0.285018 1.831661 0
M  V30 17 H 1.500056 -1.413481 2.359645 0
M  V30 18 H 2.448305 -1.639447 0.830483 0
M  V30 19 H 0.763058 -1.759667 -1.006716 0
M  V30 20 H -1.643239 -0.498861 -3.070528 0
M  V30 21 H -2.772000 0.688815 -0.712893 0
M  V30 22 H -1.971770 1.562235 1.506840 0
M  V30 END ATOM
M  V30 BEGIN BOND
M  V30 1 2 1 2
M  V30 2 1 2 3
M  V30 3 1 3 4
M  V30 4 1 4 5
M  V30 5 1 5 6
M  V30 6 2 6 7
M  V30 7 1 7 8
M  V30 8 1 8 9
M  V30 9 2 8 10
M  V30 10 1 10 11
M  V30 11 2 11 12
M  V30 12 1 12 2
M  V30 13 1 12 6
M  V30 14 1 3 13
M  V30 15 1 3 14
M  V30 16 1 4 15
M  V30 17 1 4 16
M  V30 18 1 5 17
M  V30 19 1 5 18
M  V30 20 1 7 19
M  V30 21 1 9 20
M  V30 22 1 10 21
M  V30 23 1 11 22
M  V30 END BOND
M  V30 END CTAB
M  END
>  <Dataset>  (146) 
ChEMBL_Kinases

>  <Ligand_Instance>  (146) 
nan

>  <PDB_ID>  (146) 
nan

>  <Standardized_SMILES>  (146) 
O=C1CCCc2cc(O)ccc21

>  <Name>  (146) 
nan

>  <Pocket>  (146) 
nan

>  <ATP_Site>  (146) 
nan

>  <Peripheral>  (146) 
nan

>  <Num_H_Atoms_ProtBoundConf>  (146) 
nan

>  <Num_Resolved_Atoms>  (146) 
nan

>  <Num_Not_Resolved_Atoms>  (146) 
nan

$$$$
CHEMBL328752
     RDKit          3D

  0  0  0  0  0  0  0  0  0  0999 V3000
M  V30 BEGIN CTAB
M  V30 COUNTS 48 51 0 0 0
M  V30 BEGIN ATOM
M  V30 1 C 4.606446 -3.453799 1.240646 0
M  V30 2 O 3.557183 -2.528579 1.057489 0
M  V30 3 C 2.218485 -2.878981 1.133154 0
M  V30 4 O 1.903254 -4.056692 1.372282 0
M  V30 5 C 1.216503 -1.841955 0.927239 0
M  V30 6 C 1.538820 -0.532420 0.661470 0
M  V30 7 C 0.610889 0.491984 0.458485 0
M  V30 8 C 1.210520 1.790709 0.205222 0
M  V30 9 C 2.147823 1.774468 -0.838195 0
M  V30 10 C 2.865247 2.870521 -1.269294 0
M  V30 11 C 2.673017 4.069864 -0.658689 0
M  V30 12 C 1.761696 4.125036 0.369344 0
M  V30 13 C 1.452070 5.379793 1.128434 0
M  V30 14 F 2.589332 6.176949 1.058187 0
M  V30 15 F 0.407474 6.027463 0.527152 0
M  V30 16 F 1.206561 5.068993 2.450927 0
M  V30 17 C 1.056540 3.026691 0.786463 0
M  V30 18 C -0.719359 0.140779 0.534718 0
M  V30 19 C -1.047936 -1.171637 0.799912 0
M  V30 20 C -0.122378 -2.163898 0.997148 0
M  V30 21 N -2.413912 -1.561015 0.843472 0
M  V30 22 C -2.770997 -2.929156 1.123725 0
M  V30 23 C -2.999099 -3.444369 2.393399 0
M  V30 24 Cl -2.835403 -2.328507 3.750512 0
M  V30 25 C -3.336569 -4.782466 2.521139 0
M  V30 26 C -3.441836 -5.579432 1.407019 0
M  V30 27 C -3.214789 -5.063511 0.152623 0
M  V30 28 C -2.876286 -3.729924 -0.001668 0
M  V30 29 Cl -2.603123 -3.145802 -1.622143 0
M  V30 30 C -3.478553 -0.646632 0.618961 0
M  V30 31 O -4.704102 -0.918324 0.643393 0
M  V30 32 N -3.043711 0.660464 0.351688 0
M  V30 33 C -1.703157 1.230548 0.331523 0
M  V30 34 H 5.453773 -3.140155 0.585413 0
M  V30 35 H 4.253157 -4.482975 0.984998 0
M  V30 36 H 4.969906 -3.435144 2.286953 0
M  V30 37 H 2.620097 -0.357129 0.621566 0
M  V30 38 H 2.387220 0.860215 -1.406473 0
M  V30 39 H 3.577092 2.827981 -2.071777 0
M  V30 40 H 3.184178 4.969823 -0.926703 0
M  V30 41 H 0.345056 3.035041 1.594199 0
M  V30 42 H -0.400015 -3.192860 1.206146 0
M  V30 43 H -3.499521 -5.110257 3.550656 0
M  V30 44 H -3.710883 -6.615785 1.601411 0
M  V30 45 H -3.306453 -5.723562 -0.714424 0
M  V30 46 H -3.712114 1.438396 0.114953 0
M  V30 47 H -1.472610 1.754916 -0.607272 0
M  V30 48 H -1.655509 1.927123 1.219341 0
M  V30 END ATOM
M  V30 BEGIN BOND
M  V30 1 1 1 2
M  V30 2 1 2 3
M  V30 3 2 3 4
M  V30 4 1 3 5
M  V30 5 2 5 6
M  V30 6 1 6 7
M  V30 7 1 7 8
M  V30 8 2 8 9
M  V30 9 1 9 10
M  V30 10 2 10 11
M  V30 11 1 11 12
M  V30 12 1 12 13
M  V30 13 1 13 14
M  V30 14 1 13 15
M  V30 15 1 13 16
M  V30 16 2 12 17
M  V30 17 2 7 18
M  V30 18 1 18 19
M  V30 19 2 19 20
M  V30 20 1 19 21
M  V30 21 1 21 22
M  V30 22 2 22 23
M  V30 23 1 23 24
M  V30 24 1 23 25
M  V30 25 2 25 26
M  V30 26 1 26 27
M  V30 27 2 27 28
M  V30 28 1 28 29
M  V30 29 1 21 30
M  V30 30 2 30 31
M  V30 31 1 30 32
M  V30 32 1 32 33
M  V30 33 1 20 5
M  V30 34 1 28 22
M  V30 35 1 17 8
M  V30 36 1 33 18
M  V30 37 1 1 34
M  V30 38 1 1 35
M  V30 39 1 1 36
M  V30 40 1 6 37
M  V30 41 1 9 38
M  V30 42 1 10 39
M  V30 43 1 11 40
M  V30 44 1 17 41
M  V30 45 1 20 42
M  V30 46 1 25 43
M  V30 47 1 26 44
M  V30 48 1 27 45
M  V30 49 1 32 46
M  V30 50 1 33 47
M  V30 51 1 33 48
M  V30 END BOND
M  V30 END CTAB
M  END
>  <Dataset>  (147) 
ChEMBL_Kinases

>  <Ligand_Instance>  (147) 
nan

>  <PDB_ID>  (147) 
nan

>  <Standardized_SMILES>  (147) 
COC(=O)c1cc(-c2cccc(C(F)(F)F)c2)c2c(c1)N(c1c(Cl)cccc1Cl)C(=O)NC2

>  <Name>  (147) 
nan

>  <Pocket>  (147) 
nan

>  <ATP_Site>  (147) 
nan

>  <Peripheral>  (147) 
nan

>  <Num_H_Atoms_ProtBoundConf>  (147) 
nan

>  <Num_Resolved_Atoms>  (147) 
nan

>  <Num_Not_Resolved_Atoms>  (147) 
nan

$$$$
CHEMBL328614
     RDKit          3D

  0  0  0  0  0  0  0  0  0  0999 V3000
M  V30 BEGIN CTAB
M  V30 COUNTS 54 58 0 0 0
M  V30 BEGIN ATOM
M  V30 1 O 2.061620 -4.741169 2.138373 0
M  V30 2 C 1.951101 -3.539992 1.831840 0
M  V30 3 N 3.045696 -2.615432 1.991958 0
M  V30 4 C 2.996816 -1.205267 1.659276 0
M  V30 5 C 1.688867 -0.789138 1.126785 0
M  V30 6 C 1.602013 0.552681 0.796644 0
M  V30 7 C 2.631401 1.583294 0.911104 0
M  V30 8 C 2.687144 2.283147 2.109225 0
M  V30 9 C 3.653850 3.261087 2.235363 0
M  V30 10 C 4.577093 3.601297 1.256964 0
M  V30 11 F 5.497472 4.575961 1.457729 0
M  V30 12 C 4.490531 2.876861 0.067029 0
M  V30 13 C 3.535327 1.880982 -0.112342 0
M  V30 14 Cl 3.430968 0.977822 -1.602021 0
M  V30 15 C 0.381611 1.009217 0.284493 0
M  V30 16 C -0.711823 0.181528 0.103032 0
M  V30 17 C -1.984856 0.716652 -0.444399 0
M  V30 18 C -2.295398 0.010406 -1.726914 0
M  V30 19 C -3.698288 0.288672 -2.219584 0
M  V30 20 N -4.687593 0.306161 -1.181693 0
M  V30 21 C -4.348589 1.100127 -0.041024 0
M  V30 22 C -3.087794 0.552283 0.583941 0
M  V30 23 C -0.611151 -1.153394 0.436262 0
M  V30 24 C 0.591436 -1.603286 0.940942 0
M  V30 25 N 0.765384 -2.984323 1.309110 0
M  V30 26 C -0.319092 -3.913768 1.153486 0
M  V30 27 C -1.290308 -4.227012 2.076779 0
M  V30 28 Cl -1.146563 -3.370307 3.598919 0
M  V30 29 C -2.261954 -5.150589 1.751377 0
M  V30 30 C -2.251585 -5.749166 0.509351 0
M  V30 31 C -1.285181 -5.446473 -0.427783 0
M  V30 32 C -0.306794 -4.520062 -0.107441 0
M  V30 33 Cl 0.879481 -4.196886 -1.356874 0
M  V30 34 H 3.964272 -2.946235 2.374535 0
M  V30 35 H 3.271422 -0.624242 2.577878 0
M  V30 36 H 3.817694 -1.048125 0.916126 0
M  V30 37 H 2.045921 2.142317 2.965407 0
M  V30 38 H 3.738077 3.841628 3.163071 0
M  V30 39 H 5.192178 3.113707 -0.716687 0
M  V30 40 H 0.233380 2.062474 -0.001524 0
M  V30 41 H -1.855490 1.809697 -0.646257 0
M  V30 42 H -1.590150 0.328127 -2.500635 0
M  V30 43 H -2.247030 -1.089853 -1.519745 0
M  V30 44 H -3.722580 1.212051 -2.860416 0
M  V30 45 H -3.950611 -0.549015 -2.911245 0
M  V30 46 H -4.930038 -0.658414 -0.910704 0
M  V30 47 H -4.143385 2.146422 -0.394357 0
M  V30 48 H -5.213193 1.131159 0.632178 0
M  V30 49 H -3.213007 -0.507846 0.840074 0
M  V30 50 H -2.843155 1.205859 1.446628 0
M  V30 51 H -1.405415 -1.854241 0.326792 0
M  V30 52 H -2.989594 -5.341707 2.532306 0
M  V30 53 H -3.063454 -6.466959 0.347797 0
M  V30 54 H -1.385727 -5.982173 -1.362429 0
M  V30 END ATOM
M  V30 BEGIN BOND
M  V30 1 2 1 2
M  V30 2 1 2 3
M  V30 3 1 3 4
M  V30 4 1 4 5
M  V30 5 2 5 6
M  V30 6 1 6 7
M  V30 7 2 7 8
M  V30 8 1 8 9
M  V30 9 2 9 10
M  V30 10 1 10 11
M  V30 11 1 10 12
M  V30 12 2 12 13
M  V30 13 1 13 14
M  V30 14 1 6 15
M  V30 15 2 15 16
M  V30 16 1 16 17
M  V30 17 1 17 18
M  V30 18 1 18 19
M  V30 19 1 19 20
M  V30 20 1 20 21
M  V30 21 1 21 22
M  V30 22 1 16 23
M  V30 23 2 23 24
M  V30 24 1 24 25
M  V30 25 1 25 26
M  V30 26 2 26 27
M  V30 27 1 27 28
M  V30 28 1 27 29
M  V30 29 2 29 30
M  V30 30 1 30 31
M  V30 31 2 31 32
M  V30 32 1 32 33
M  V30 33 1 25 2
M  V30 34 1 32 26
M  V30 35 1 24 5
M  V30 36 1 13 7
M  V30 37 1 22 17
M  V30 38 1 3 34
M  V30 39 1 4 35
M  V30 40 1 4 36
M  V30 41 1 8 37
M  V30 42 1 9 38
M  V30 43 1 12 39
M  V30 44 1 15 40
M  V30 45 1 17 41
M  V30 46 1 18 42
M  V30 47 1 18 43
M  V30 48 1 19 44
M  V30 49 1 19 45
M  V30 50 1 20 46
M  V30 51 1 21 47
M  V30 52 1 21 48
M  V30 53 1 22 49
M  V30 54 1 22 50
M  V30 55 1 23 51
M  V30 56 1 29 52
M  V30 57 1 30 53
M  V30 58 1 31 54
M  V30 END BOND
M  V30 END CTAB
M  END
>  <Dataset>  (148) 
ChEMBL_Kinases

>  <Ligand_Instance>  (148) 
nan

>  <PDB_ID>  (148) 
nan

>  <Standardized_SMILES>  (148) 
O=C1NCc2c(-c3ccc(F)cc3Cl)cc(C3CCNCC3)cc2N1c1c(Cl)cccc1Cl

>  <Name>  (148) 
nan

>  <Pocket>  (148) 
nan

>  <ATP_Site>  (148) 
nan

>  <Peripheral>  (148) 
nan

>  <Num_H_Atoms_ProtBoundConf>  (148) 
nan

>  <Num_Resolved_Atoms>  (148) 
nan

>  <Num_Not_Resolved_Atoms>  (148) 
nan

$$$$
CHEMBL328274
     RDKit          3D

  0  0  0  0  0  0  0  0  0  0999 V3000
M  V30 BEGIN CTAB
M  V30 COUNTS 48 51 0 0 0
M  V30 BEGIN ATOM
M  V30 1 C 2.141288 -1.790385 -4.178755 0
M  V30 2 O 1.840763 -1.304017 -2.886330 0
M  V30 3 C 0.701479 -1.772335 -2.245956 0
M  V30 4 O -0.062262 -2.614772 -2.790202 0
M  V30 5 C 0.389137 -1.272520 -0.913175 0
M  V30 6 C 1.191935 -0.350806 -0.274380 0
M  V30 7 C 0.964663 0.180267 1.002605 0
M  V30 8 C 1.943858 1.153347 1.452743 0
M  V30 9 C 3.239623 0.616525 1.408130 0
M  V30 10 C 4.364280 1.329923 1.767512 0
M  V30 11 C 4.255511 2.635769 2.196824 0
M  V30 12 C 2.985215 3.170349 2.242951 0
M  V30 13 C 2.710081 4.570258 2.686401 0
M  V30 14 C 1.872642 2.457858 1.884818 0
M  V30 15 C -0.158932 -0.269836 1.655971 0
M  V30 16 C -0.978471 -1.191415 1.041125 0
M  V30 17 C -0.724650 -1.692637 -0.217716 0
M  V30 18 N -2.133321 -1.702210 1.695103 0
M  V30 19 C -2.985046 -2.665416 1.038074 0
M  V30 20 C -3.998051 -2.073660 0.305294 0
M  V30 21 Cl -4.243964 -0.336653 0.172021 0
M  V30 22 C -4.887323 -2.859293 -0.374522 0
M  V30 23 C -4.773539 -4.233135 -0.328819 0
M  V30 24 C -3.749124 -4.792575 0.413306 0
M  V30 25 C -2.842703 -4.015996 1.105553 0
M  V30 26 Cl -1.524642 -4.651126 2.062779 0
M  V30 27 C -2.509765 -1.303416 3.006455 0
M  V30 28 O -3.513798 -1.709604 3.645254 0
M  V30 29 N -1.623010 -0.356092 3.587041 0
M  V30 30 C -0.444847 0.248479 2.992483 0
M  V30 31 H 2.586232 -0.950536 -4.751550 0
M  V30 32 H 2.808942 -2.657502 -4.115893 0
M  V30 33 H 1.174832 -2.012206 -4.674224 0
M  V30 34 H 2.070348 -0.039958 -0.859609 0
M  V30 35 H 3.498720 -0.390785 1.095422 0
M  V30 36 H 5.373378 0.944874 1.743931 0
M  V30 37 H 5.029066 3.322405 2.510421 0
M  V30 38 H 3.652322 5.145203 2.628186 0
M  V30 39 H 1.971767 5.008943 1.983980 0
M  V30 40 H 2.260258 4.556888 3.690154 0
M  V30 41 H 0.863166 2.835758 1.890329 0
M  V30 42 H -1.378883 -2.420038 -0.695133 0
M  V30 43 H -5.686962 -2.448875 -0.954553 0
M  V30 44 H -5.438969 -4.900085 -0.839725 0
M  V30 45 H -3.628801 -5.864993 0.472287 0
M  V30 46 H -1.766894 0.000432 4.558405 0
M  V30 47 H -0.495505 1.338926 2.995329 0
M  V30 48 H 0.403981 -0.040541 3.664381 0
M  V30 END ATOM
M  V30 BEGIN BOND
M  V30 1 1 1 2
M  V30 2 1 2 3
M  V30 3 2 3 4
M  V30 4 1 3 5
M  V30 5 2 5 6
M  V30 6 1 6 7
M  V30 7 1 7 8
M  V30 8 2 8 9
M  V30 9 1 9 10
M  V30 10 2 10 11
M  V30 11 1 11 12
M  V30 12 1 12 13
M  V30 13 2 12 14
M  V30 14 2 7 15
M  V30 15 1 15 16
M  V30 16 2 16 17
M  V30 17 1 16 18
M  V30 18 1 18 19
M  V30 19 2 19 20
M  V30 20 1 20 21
M  V30 21 1 20 22
M  V30 22 2 22 23
M  V30 23 1 23 24
M  V30 24 2 24 25
M  V30 25 1 25 26
M  V30 26 1 18 27
M  V30 27 2 27 28
M  V30 28 1 27 29
M  V30 29 1 29 30
M  V30 30 1 17 5
M  V30 31 1 25 19
M  V30 32 1 14 8
M  V30 33 1 30 15
M  V30 34 1 1 31
M  V30 35 1 1 32
M  V30 36 1 1 33
M  V30 37 1 6 34
M  V30 38 1 9 35
M  V30 39 1 10 36
M  V30 40 1 11 37
M  V30 41 1 13 38
M  V30 42 1 13 39
M  V30 43 1 13 40
M  V30 44 1 14 41
M  V30 45 1 17 42
M  V30 46 1 22 43
M  V30 47 1 23 44
M  V30 48 1 24 45
M  V30 49 1 29 46
M  V30 50 1 30 47
M  V30 51 1 30 48
M  V30 END BOND
M  V30 END CTAB
M  END
>  <Dataset>  (149) 
ChEMBL_Kinases

>  <Ligand_Instance>  (149) 
nan

>  <PDB_ID>  (149) 
nan

>  <Standardized_SMILES>  (149) 
COC(=O)c1cc(-c2cccc(C)c2)c2c(c1)N(c1c(Cl)cccc1Cl)C(=O)NC2

>  <Name>  (149) 
nan

>  <Pocket>  (149) 
nan

>  <ATP_Site>  (149) 
nan

>  <Peripheral>  (149) 
nan

>  <Num_H_Atoms_ProtBoundConf>  (149) 
nan

>  <Num_Resolved_Atoms>  (149) 
nan

>  <Num_Not_Resolved_Atoms>  (149) 
nan

$$$$
CHEMBL32827
     RDKit          3D

  0  0  0  0  0  0  0  0  0  0999 V3000
M  V30 BEGIN CTAB
M  V30 COUNTS 60 59 0 0 0
M  V30 BEGIN ATOM
M  V30 1 C 2.933975 -5.277826 0.989553 0
M  V30 2 C 3.812290 -4.052006 1.099675 0
M  V30 3 C 3.581538 -3.325664 2.431416 0
M  V30 4 C 4.502565 -2.124436 2.438070 0
M  V30 5 C 4.382368 -1.316487 3.693464 0
M  V30 6 C 2.996374 -0.792806 3.892431 0
M  V30 7 C 2.518317 0.107098 2.772336 0
M  V30 8 C 1.116782 0.528348 3.160207 0
M  V30 9 C 0.493788 1.441627 2.130013 0
M  V30 10 C 0.385796 0.795451 0.773651 0
M  V30 11 C -0.221221 1.658548 -0.267465 0
M  V30 12 C -1.622208 2.125716 0.007949 0
M  V30 13 C -2.105587 2.964777 -1.119605 0
M  V30 14 C -2.210154 2.395496 -2.468518 0
M  V30 15 C -3.151714 1.259672 -2.703437 0
M  V30 16 C -2.797391 0.057277 -1.935763 0
M  V30 17 O -2.171423 -0.731778 -1.153894 0
M  V30 18 N -3.822415 -0.927451 -2.236973 0
M  V30 19 C -3.994626 -2.299277 -1.769014 0
M  V30 20 C -5.354866 -2.397874 -1.077033 0
M  V30 21 C -4.047811 -3.274921 -2.938195 0
M  V30 22 H 2.146684 -5.130954 0.194223 0
M  V30 23 H 3.535563 -6.147644 0.626885 0
M  V30 24 H 2.379546 -5.491253 1.919996 0
M  V30 25 H 3.549445 -3.366964 0.249255 0
M  V30 26 H 4.884249 -4.313141 0.995379 0
M  V30 27 H 3.860249 -4.052187 3.230834 0
M  V30 28 H 2.520822 -3.027943 2.530570 0
M  V30 29 H 4.266931 -1.504042 1.560661 0
M  V30 30 H 5.559177 -2.502575 2.383356 0
M  V30 31 H 5.128173 -0.511217 3.712921 0
M  V30 32 H 4.633396 -1.992237 4.545085 0
M  V30 33 H 2.950352 -0.268225 4.876551 0
M  V30 34 H 2.272618 -1.639607 3.994913 0
M  V30 35 H 3.218117 0.948019 2.700527 0
M  V30 36 H 2.519645 -0.512828 1.845710 0
M  V30 37 H 0.524886 -0.349852 3.410227 0
M  V30 38 H 1.236096 1.131941 4.088500 0
M  V30 39 H -0.475877 1.779332 2.548203 0
M  V30 40 H 1.148367 2.337105 2.098881 0
M  V30 41 H -0.101500 -0.192868 0.820242 0
M  V30 42 H 1.427282 0.582759 0.451990 0
M  V30 43 H 0.403201 2.584850 -0.411481 0
M  V30 44 H -0.211793 1.136726 -1.238563 0
M  V30 45 H -2.310175 1.394260 0.418699 0
M  V30 46 H -1.499770 2.880123 0.867739 0
M  V30 47 H -1.419646 3.867590 -1.174809 0
M  V30 48 H -3.102291 3.439763 -0.878252 0
M  V30 49 H -2.609750 3.235949 -3.131231 0
M  V30 50 H -1.213023 2.196444 -2.949606 0
M  V30 51 H -4.184726 1.567845 -2.400975 0
M  V30 52 H -3.154486 0.957338 -3.795205 0
M  V30 53 H -4.682539 -0.843152 -2.886463 0
M  V30 54 H -3.187289 -2.637271 -1.109390 0
M  V30 55 H -6.052527 -1.694092 -1.575210 0
M  V30 56 H -5.800709 -3.419213 -1.198539 0
M  V30 57 H -5.241400 -2.197814 0.012341 0
M  V30 58 H -3.053960 -3.737604 -3.138910 0
M  V30 59 H -4.859960 -4.016631 -2.816400 0
M  V30 60 H -4.271080 -2.649181 -3.832651 0
M  V30 END ATOM
M  V30 BEGIN BOND
M  V30 1 1 1 2
M  V30 2 1 2 3
M  V30 3 1 3 4
M  V30 4 1 4 5
M  V30 5 1 5 6
M  V30 6 1 6 7
M  V30 7 1 7 8
M  V30 8 1 8 9
M  V30 9 1 9 10
M  V30 10 1 10 11
M  V30 11 1 11 12
M  V30 12 1 12 13
M  V30 13 1 13 14
M  V30 14 1 14 15
M  V30 15 1 15 16
M  V30 16 2 16 17
M  V30 17 1 16 18
M  V30 18 1 18 19
M  V30 19 1 19 20
M  V30 20 1 19 21
M  V30 21 1 1 22
M  V30 22 1 1 23
M  V30 23 1 1 24
M  V30 24 1 2 25
M  V30 25 1 2 26
M  V30 26 1 3 27
M  V30 27 1 3 28
M  V30 28 1 4 29
M  V30 29 1 4 30
M  V30 30 1 5 31
M  V30 31 1 5 32
M  V30 32 1 6 33
M  V30 33 1 6 34
M  V30 34 1 7 35
M  V30 35 1 7 36
M  V30 36 1 8 37
M  V30 37 1 8 38
M  V30 38 1 9 39
M  V30 39 1 9 40
M  V30 40 1 10 41
M  V30 41 1 10 42
M  V30 42 1 11 43
M  V30 43 1 11 44
M  V30 44 1 12 45
M  V30 45 1 12 46
M  V30 46 1 13 47
M  V30 47 1 13 48
M  V30 48 1 14 49
M  V30 49 1 14 50
M  V30 50 1 15 51
M  V30 51 1 15 52
M  V30 52 1 18 53
M  V30 53 1 19 54
M  V30 54 1 20 55
M  V30 55 1 20 56
M  V30 56 1 20 57
M  V30 57 1 21 58
M  V30 58 1 21 59
M  V30 59 1 21 60
M  V30 END BOND
M  V30 END CTAB
M  END
>  <Dataset>  (150) 
ChEMBL_Kinases

>  <Ligand_Instance>  (150) 
nan

>  <PDB_ID>  (150) 
nan

>  <Standardized_SMILES>  (150) 
CCCCCCCCCCCCCCCC(=O)NC(C)C

>  <Name>  (150) 
HEXADECANOIC ACID ISOPROPYLAMIDE

>  <Pocket>  (150) 
nan

>  <ATP_Site>  (150) 
nan

>  <Peripheral>  (150) 
nan

>  <Num_H_Atoms_ProtBoundConf>  (150) 
nan

>  <Num_Resolved_Atoms>  (150) 
nan

>  <Num_Not_Resolved_Atoms>  (150) 
nan

$$$$
CHEMBL328252
     RDKit          3D

  0  0  0  0  0  0  0  0  0  0999 V3000
M  V30 BEGIN CTAB
M  V30 COUNTS 45 48 0 0 0
M  V30 BEGIN ATOM
M  V30 1 C 1.768582 -5.107404 2.501922 0
M  V30 2 O 1.233779 -3.914993 1.954545 0
M  V30 3 C 1.691949 -2.663896 2.353310 0
M  V30 4 O 2.598420 -2.524439 3.214378 0
M  V30 5 C 1.105261 -1.496078 1.757162 0
M  V30 6 C 1.508814 -0.221238 2.103094 0
M  V30 7 C 1.001540 0.980804 1.582491 0
M  V30 8 C 1.583426 2.205584 2.105946 0
M  V30 9 C 2.987699 2.173929 2.053342 0
M  V30 10 C 3.781354 3.207031 2.495229 0
M  V30 11 C 3.216544 4.348306 3.022827 0
M  V30 12 F 3.856721 5.431799 3.491335 0
M  V30 13 C 1.839293 4.378527 3.074292 0
M  V30 14 C 1.056383 3.338198 2.629048 0
M  V30 15 C 0.007784 0.836526 0.639060 0
M  V30 16 C -0.415473 -0.409544 0.271818 0
M  V30 17 C 0.106841 -1.569316 0.806236 0
M  V30 18 N -1.411918 -0.599847 -0.725250 0
M  V30 19 C -1.856432 -1.920186 -1.105108 0
M  V30 20 C -1.105611 -2.459556 -2.153301 0
M  V30 21 Cl 0.236572 -1.622134 -2.927829 0
M  V30 22 C -1.462245 -3.734256 -2.589483 0
M  V30 23 C -2.503768 -4.434540 -2.019238 0
M  V30 24 C -3.227111 -3.870147 -0.982095 0
M  V30 25 C -2.882445 -2.612955 -0.545132 0
M  V30 26 Cl -3.740780 -1.827487 0.756183 0
M  V30 27 C -2.020015 0.496292 -1.397414 0
M  V30 28 O -2.894697 0.434234 -2.275858 0
M  V30 29 N -1.533905 1.761316 -0.975582 0
M  V30 30 C -0.560366 2.062453 0.082994 0
M  V30 31 H 1.658895 -5.966464 1.819788 0
M  V30 32 H 1.271366 -5.299981 3.467493 0
M  V30 33 H 2.852966 -4.990969 2.741695 0
M  V30 34 H 2.306096 -0.182097 2.862355 0
M  V30 35 H 3.579505 1.331897 1.659302 0
M  V30 36 H 4.861450 3.190031 2.458049 0
M  V30 37 H 1.298310 5.233160 3.472653 0
M  V30 38 H 0.000015 3.351122 2.672398 0
M  V30 39 H -0.218533 -2.568518 0.526421 0
M  V30 40 H -0.920039 -4.200124 -3.393028 0
M  V30 41 H -2.788093 -5.431374 -2.355135 0
M  V30 42 H -4.045620 -4.399647 -0.521242 0
M  V30 43 H -1.899335 2.621776 -1.465862 0
M  V30 44 H 0.138090 2.791773 -0.319314 0
M  V30 45 H -1.232433 2.479427 0.895649 0
M  V30 END ATOM
M  V30 BEGIN BOND
M  V30 1 1 1 2
M  V30 2 1 2 3
M  V30 3 2 3 4
M  V30 4 1 3 5
M  V30 5 2 5 6
M  V30 6 1 6 7
M  V30 7 1 7 8
M  V30 8 2 8 9
M  V30 9 1 9 10
M  V30 10 2 10 11
M  V30 11 1 11 12
M  V30 12 1 11 13
M  V30 13 2 13 14
M  V30 14 2 7 15
M  V30 15 1 15 16
M  V30 16 2 16 17
M  V30 17 1 16 18
M  V30 18 1 18 19
M  V30 19 2 19 20
M  V30 20 1 20 21
M  V30 21 1 20 22
M  V30 22 2 22 23
M  V30 23 1 23 24
M  V30 24 2 24 25
M  V30 25 1 25 26
M  V30 26 1 18 27
M  V30 27 2 27 28
M  V30 28 1 27 29
M  V30 29 1 29 30
M  V30 30 1 17 5
M  V30 31 1 25 19
M  V30 32 1 14 8
M  V30 33 1 30 15
M  V30 34 1 1 31
M  V30 35 1 1 32
M  V30 36 1 1 33
M  V30 37 1 6 34
M  V30 38 1 9 35
M  V30 39 1 10 36
M  V30 40 1 13 37
M  V30 41 1 14 38
M  V30 42 1 17 39
M  V30 43 1 22 40
M  V30 44 1 23 41
M  V30 45 1 24 42
M  V30 46 1 29 43
M  V30 47 1 30 44
M  V30 48 1 30 45
M  V30 END BOND
M  V30 END CTAB
M  END
>  <Dataset>  (151) 
ChEMBL_Kinases

>  <Ligand_Instance>  (151) 
nan

>  <PDB_ID>  (151) 
nan

>  <Standardized_SMILES>  (151) 
COC(=O)c1cc(-c2ccc(F)cc2)c2c(c1)N(c1c(Cl)cccc1Cl)C(=O)NC2

>  <Name>  (151) 
nan

>  <Pocket>  (151) 
nan

>  <ATP_Site>  (151) 
nan

>  <Peripheral>  (151) 
nan

>  <Num_H_Atoms_ProtBoundConf>  (151) 
nan

>  <Num_Resolved_Atoms>  (151) 
nan

>  <Num_Not_Resolved_Atoms>  (151) 
nan

$$$$
CHEMBL3298305
     RDKit          3D

  0  0  0  0  0  0  0  0  0  0999 V3000
M  V30 BEGIN CTAB
M  V30 COUNTS 48 50 0 0 0
M  V30 BEGIN ATOM
M  V30 1 C 6.613875 -1.402433 1.684403 0
M  V30 2 C 5.588823 -1.914987 0.709187 0
M  V30 3 N 4.511659 -0.950276 0.610423 0
M  V30 4 C 3.434740 -1.247973 -0.270444 0
M  V30 5 N 3.396208 -2.379789 -0.997037 0
M  V30 6 C 2.410818 -2.712632 -1.841121 0
M  V30 7 C 1.345326 -1.853378 -1.998072 0
M  V30 8 C 1.364572 -0.684628 -1.261109 0
M  V30 9 N 2.388926 -0.412818 -0.429603 0
M  V30 10 C 0.221425 0.258679 -1.416330 0
M  V30 11 N -0.956831 -0.539510 -1.556883 0
M  V30 12 C -2.089350 -0.497807 -0.682384 0
M  V30 13 O -3.117793 -1.221291 -0.839798 0
M  V30 14 N -2.188471 0.341315 0.438744 0
M  V30 15 C -3.291405 0.423884 1.343704 0 CFG=2
M  V30 16 C -3.952274 1.791551 1.127658 0
M  V30 17 O -5.033559 1.971971 1.958082 0
M  V30 18 C -2.963308 0.226847 2.756766 0
M  V30 19 C -3.747749 -0.592263 3.558701 0
M  V30 20 C -3.417160 -0.758975 4.879523 0
M  V30 21 C -2.333992 -0.156069 5.483433 0
M  V30 22 F -2.015826 -0.326934 6.788373 0
M  V30 23 C -1.603228 0.643105 4.619414 0
M  V30 24 Cl -0.190791 1.471179 5.271498 0
M  V30 25 C -1.867271 0.856976 3.303033 0
M  V30 26 C -1.034227 -1.472312 -2.664491 0
M  V30 27 C 0.245282 -2.211908 -2.932777 0
M  V30 28 H 7.388168 -0.837623 1.133541 0
M  V30 29 H 6.116655 -0.644561 2.357497 0
M  V30 30 H 7.044925 -2.215585 2.304021 0
M  V30 31 H 5.253461 -2.897553 1.100174 0
M  V30 32 H 6.103270 -2.047729 -0.271133 0
M  V30 33 H 4.467885 -0.051984 1.138799 0
M  V30 34 H 2.509673 -3.643516 -2.353973 0
M  V30 35 H 0.180875 1.017439 -0.638647 0
M  V30 36 H 0.354735 0.811084 -2.390738 0
M  V30 37 H -1.382544 0.994493 0.669369 0
M  V30 38 H -4.073737 -0.309957 1.006245 0
M  V30 39 H -4.332287 1.863095 0.077800 0
M  V30 40 H -3.198848 2.600882 1.210965 0
M  V30 41 H -5.011232 2.937779 2.247681 0
M  V30 42 H -4.594708 -1.066042 3.093778 0
M  V30 43 H -4.058393 -1.407856 5.467990 0
M  V30 44 H -1.263881 1.485974 2.689679 0
M  V30 45 H -1.888993 -2.195023 -2.557497 0
M  V30 46 H -1.274492 -0.885464 -3.593268 0
M  V30 47 H 0.038461 -3.320591 -2.874826 0
M  V30 48 H 0.646613 -2.003994 -3.965624 0
M  V30 END ATOM
M  V30 BEGIN BOND
M  V30 1 1 1 2
M  V30 2 1 2 3
M  V30 3 1 3 4
M  V30 4 2 4 5
M  V30 5 1 5 6
M  V30 6 2 6 7
M  V30 7 1 7 8
M  V30 8 2 8 9
M  V30 9 1 8 10
M  V30 10 1 10 11
M  V30 11 1 11 12
M  V30 12 2 12 13
M  V30 13 1 12 14
M  V30 14 1 14 15
M  V30 15 1 15 16
M  V30 16 1 16 17
M  V30 17 1 15 18
M  V30 18 2 18 19
M  V30 19 1 19 20
M  V30 20 2 20 21
M  V30 21 1 21 22
M  V30 22 1 21 23
M  V30 23 1 23 24
M  V30 24 2 23 25
M  V30 25 1 11 26
M  V30 26 1 26 27
M  V30 27 1 9 4
M  V30 28 1 25 18
M  V30 29 1 27 7
M  V30 30 1 1 28
M  V30 31 1 1 29
M  V30 32 1 1 30
M  V30 33 1 2 31
M  V30 34 1 2 32
M  V30 35 1 3 33
M  V30 36 1 6 34
M  V30 37 1 10 35
M  V30 38 1 10 36
M  V30 39 1 14 37
M  V30 40 1 15 38 CFG=3
M  V30 41 1 16 39
M  V30 42 1 16 40
M  V30 43 1 17 41
M  V30 44 1 19 42
M  V30 45 1 20 43
M  V30 46 1 25 44
M  V30 47 1 26 45
M  V30 48 1 26 46
M  V30 49 1 27 47
M  V30 50 1 27 48
M  V30 END BOND
M  V30 END CTAB
M  END
>  <Dataset>  (152) 
ChEMBL_Kinases

>  <Ligand_Instance>  (152) 
nan

>  <PDB_ID>  (152) 
nan

>  <Standardized_SMILES>  (152) 
CCNc1ncc2c(n1)CN(C(=O)N[C@H](CO)c1ccc(F)c(Cl)c1)CC2

>  <Name>  (152) 
nan

>  <Pocket>  (152) 
nan

>  <ATP_Site>  (152) 
nan

>  <Peripheral>  (152) 
nan

>  <Num_H_Atoms_ProtBoundConf>  (152) 
nan

>  <Num_Resolved_Atoms>  (152) 
nan

>  <Num_Not_Resolved_Atoms>  (152) 
nan

$$$$
CHEMBL3264264
     RDKit          3D

  0  0  0  0  0  0  0  0  0  0999 V3000
M  V30 BEGIN CTAB
M  V30 COUNTS 45 47 0 0 0
M  V30 BEGIN ATOM
M  V30 1 C -2.467130 -4.803421 -1.592503 0
M  V30 2 C -1.122141 -5.410199 -1.557394 0
M  V30 3 O -1.071164 -6.628451 -1.952833 0
M  V30 4 C 0.130629 -4.808346 -1.138090 0
M  V30 5 C 1.352008 -5.450700 -1.137200 0
M  V30 6 N 2.295002 -4.611612 -0.694156 0
M  V30 7 C 1.727143 -3.435477 -0.403480 0
M  V30 8 C 2.293616 -2.267801 0.082221 0
M  V30 9 C 1.408310 -1.228660 0.271594 0
M  V30 10 C 0.052173 -1.241086 0.030735 0
M  V30 11 C -0.803106 -0.088645 0.263644 0
M  V30 12 C -2.143685 -0.165933 -0.010562 0
M  V30 13 N -2.986129 0.852171 0.169706 0
M  V30 14 C -2.563847 2.032193 0.638468 0
M  V30 15 C -1.196955 2.166600 0.937044 0
M  V30 16 N -0.723398 3.394916 1.422875 0
M  V30 17 C 0.453526 4.057200 1.906215 0
M  V30 18 C 0.962215 3.445945 3.180555 0
M  V30 19 N 1.352508 2.066326 2.892738 0
M  V30 20 C 1.745530 1.398132 4.135752 0
M  V30 21 C 2.511352 2.096683 1.986356 0
M  V30 22 N -0.424212 1.091596 0.724557 0
M  V30 23 C -0.420067 -2.435043 -0.447374 0
M  V30 24 C 0.381411 -3.533222 -0.671127 0
M  V30 25 H -2.744282 -4.543399 -0.535751 0
M  V30 26 H -2.508776 -3.920923 -2.270553 0
M  V30 27 H -3.211125 -5.542998 -1.960160 0
M  V30 28 H 1.569551 -6.469702 -1.435811 0
M  V30 29 H 3.310099 -4.831826 -0.592047 0
M  V30 30 H 3.357754 -2.144241 0.308057 0
M  V30 31 H 1.843108 -0.324282 0.647093 0
M  V30 32 H -2.661663 -1.026446 -0.391447 0
M  V30 33 H -3.282816 2.850051 0.775598 0
M  V30 34 H -1.478700 4.157258 1.474844 0
M  V30 35 H 1.235000 3.888672 1.115169 0
M  V30 36 H 0.359374 5.126225 2.070920 0
M  V30 37 H 1.781381 4.020413 3.638665 0
M  V30 38 H 0.121647 3.374701 3.920397 0
M  V30 39 H 1.410446 2.039919 4.967231 0
M  V30 40 H 2.830080 1.228084 4.169958 0
M  V30 41 H 1.198843 0.447772 4.171187 0
M  V30 42 H 2.139716 2.071843 0.950747 0
M  V30 43 H 3.192524 1.263844 2.152754 0
M  V30 44 H 3.070215 3.033152 2.173991 0
M  V30 45 H -1.447133 -2.564283 -0.668435 0
M  V30 END ATOM
M  V30 BEGIN BOND
M  V30 1 1 1 2
M  V30 2 2 2 3
M  V30 3 1 2 4
M  V30 4 2 4 5
M  V30 5 1 5 6
M  V30 6 1 6 7
M  V30 7 2 7 8
M  V30 8 1 8 9
M  V30 9 2 9 10
M  V30 10 1 10 11
M  V30 11 2 11 12
M  V30 12 1 12 13
M  V30 13 2 13 14
M  V30 14 1 14 15
M  V30 15 1 15 16
M  V30 16 1 16 17
M  V30 17 1 17 18
M  V30 18 1 18 19
M  V30 19 1 19 20
M  V30 20 1 19 21
M  V30 21 2 15 22
M  V30 22 1 10 23
M  V30 23 2 23 24
M  V30 24 1 24 4
M  V30 25 1 24 7
M  V30 26 1 22 11
M  V30 27 1 1 25
M  V30 28 1 1 26
M  V30 29 1 1 27
M  V30 30 1 5 28
M  V30 31 1 6 29
M  V30 32 1 8 30
M  V30 33 1 9 31
M  V30 34 1 12 32
M  V30 35 1 14 33
M  V30 36 1 16 34
M  V30 37 1 17 35
M  V30 38 1 17 36
M  V30 39 1 18 37
M  V30 40 1 18 38
M  V30 41 1 20 39
M  V30 42 1 20 40
M  V30 43 1 20 41
M  V30 44 1 21 42
M  V30 45 1 21 43
M  V30 46 1 21 44
M  V30 47 1 23 45
M  V30 END BOND
M  V30 END CTAB
M  END
>  <Dataset>  (153) 
ChEMBL_Kinases

>  <Ligand_Instance>  (153) 
nan

>  <PDB_ID>  (153) 
nan

>  <Standardized_SMILES>  (153) 
CC(=O)c1c[nH]c2ccc(-c3cncc(NCCN(C)C)n3)cc12

>  <Name>  (153) 
nan

>  <Pocket>  (153) 
nan

>  <ATP_Site>  (153) 
nan

>  <Peripheral>  (153) 
nan

>  <Num_H_Atoms_ProtBoundConf>  (153) 
nan

>  <Num_Resolved_Atoms>  (153) 
nan

>  <Num_Not_Resolved_Atoms>  (153) 
nan

$$$$
CHEMBL3264265
     RDKit          3D

  0  0  0  0  0  0  0  0  0  0999 V3000
M  V30 BEGIN CTAB
M  V30 COUNTS 49 52 0 0 0
M  V30 BEGIN ATOM
M  V30 1 C 0.986010 -4.655208 1.387368 0
M  V30 2 N 1.172837 -3.346827 0.779628 0
M  V30 3 C 0.253216 -3.281758 -0.352841 0
M  V30 4 C 2.513856 -3.213973 0.240718 0
M  V30 5 C 3.575595 -3.168879 1.279897 0
M  V30 6 N 3.410787 -2.044185 2.178024 0
M  V30 7 C 3.492431 -0.963912 1.220879 0
M  V30 8 C 4.656788 -0.535603 0.613777 0
M  V30 9 N 4.636885 0.491557 -0.242631 0
M  V30 10 C 3.463016 1.092254 -0.495144 0
M  V30 11 C 2.260432 0.726005 0.069329 0
M  V30 12 C 0.983481 1.402697 -0.200464 0
M  V30 13 C 1.036231 2.443243 -1.077546 0
M  V30 14 C -0.166391 3.099266 -1.323935 0
M  V30 15 C -1.320976 2.688454 -0.696178 0
M  V30 16 N -2.605311 3.066623 -0.687616 0
M  V30 17 C -3.379957 2.333497 0.113707 0
M  V30 18 C -2.562533 1.364468 0.712532 0
M  V30 19 C -3.018011 0.345057 1.654521 0
M  V30 20 O -2.167094 -0.455481 2.087185 0
M  V30 21 C -4.443163 0.327112 2.029430 0
M  V30 22 C -4.895097 -0.295753 3.329435 0
M  V30 23 C -5.138381 -1.042159 2.061511 0
M  V30 24 C -1.286943 1.616766 0.184698 0
M  V30 25 C -0.109240 0.911537 0.478776 0
M  V30 26 N 2.370187 -0.310440 0.912579 0
M  V30 27 H 0.125314 -5.177023 0.959347 0
M  V30 28 H 1.894651 -5.282994 1.299324 0
M  V30 29 H 0.787950 -4.490228 2.463660 0
M  V30 30 H 0.410237 -2.406127 -0.981059 0
M  V30 31 H 0.450345 -4.198405 -0.973920 0
M  V30 32 H -0.792637 -3.339780 0.054749 0
M  V30 33 H 2.724262 -4.098045 -0.422890 0
M  V30 34 H 2.528030 -2.299472 -0.408498 0
M  V30 35 H 4.566023 -3.226825 0.834635 0
M  V30 36 H 3.473529 -4.089990 1.915277 0
M  V30 37 H 3.268766 -1.721486 3.159505 0
M  V30 38 H 5.571603 -1.066885 0.855680 0
M  V30 39 H 3.525849 1.907736 -1.194469 0
M  V30 40 H 1.845331 2.867206 -1.633261 0
M  V30 41 H -0.266452 3.940357 -1.994621 0
M  V30 42 H -2.954075 3.881249 -1.274697 0
M  V30 43 H -4.439736 2.500946 0.241438 0
M  V30 44 H -5.103502 1.136879 1.599016 0
M  V30 45 H -5.805874 0.153222 3.811580 0
M  V30 46 H -4.167788 -0.727524 4.019883 0
M  V30 47 H -6.184065 -1.098938 1.655423 0
M  V30 48 H -4.553053 -1.943373 1.850114 0
M  V30 49 H -0.030463 0.077691 1.151746 0
M  V30 END ATOM
M  V30 BEGIN BOND
M  V30 1 1 1 2
M  V30 2 1 2 3
M  V30 3 1 2 4
M  V30 4 1 4 5
M  V30 5 1 5 6
M  V30 6 1 6 7
M  V30 7 2 7 8
M  V30 8 1 8 9
M  V30 9 2 9 10
M  V30 10 1 10 11
M  V30 11 1 11 12
M  V30 12 2 12 13
M  V30 13 1 13 14
M  V30 14 2 14 15
M  V30 15 1 15 16
M  V30 16 1 16 17
M  V30 17 2 17 18
M  V30 18 1 18 19
M  V30 19 2 19 20
M  V30 20 1 19 21
M  V30 21 1 21 22
M  V30 22 1 22 23
M  V30 23 1 18 24
M  V30 24 2 24 25
M  V30 25 2 11 26
M  V30 26 1 26 7
M  V30 27 1 25 12
M  V30 28 1 24 15
M  V30 29 1 23 21
M  V30 30 1 1 27
M  V30 31 1 1 28
M  V30 32 1 1 29
M  V30 33 1 3 30
M  V30 34 1 3 31
M  V30 35 1 3 32
M  V30 36 1 4 33
M  V30 37 1 4 34
M  V30 38 1 5 35
M  V30 39 1 5 36
M  V30 40 1 6 37
M  V30 41 1 8 38
M  V30 42 1 10 39
M  V30 43 1 13 40
M  V30 44 1 14 41
M  V30 45 1 16 42
M  V30 46 1 17 43
M  V30 47 1 21 44
M  V30 48 1 22 45
M  V30 49 1 22 46
M  V30 50 1 23 47
M  V30 51 1 23 48
M  V30 52 1 25 49
M  V30 END BOND
M  V30 END CTAB
M  END
>  <Dataset>  (154) 
ChEMBL_Kinases

>  <Ligand_Instance>  (154) 
nan

>  <PDB_ID>  (154) 
nan

>  <Standardized_SMILES>  (154) 
CN(C)CCNc1cncc(-c2ccc3[nH]cc(C(=O)C4CC4)c3c2)n1

>  <Name>  (154) 
nan

>  <Pocket>  (154) 
nan

>  <ATP_Site>  (154) 
nan

>  <Peripheral>  (154) 
nan

>  <Num_H_Atoms_ProtBoundConf>  (154) 
nan

>  <Num_Resolved_Atoms>  (154) 
nan

>  <Num_Not_Resolved_Atoms>  (154) 
nan

$$$$
CHEMBL3264266
     RDKit          3D

  0  0  0  0  0  0  0  0  0  0999 V3000
M  V30 BEGIN CTAB
M  V30 COUNTS 51 54 0 0 0
M  V30 BEGIN ATOM
M  V30 1 C 1.978537 -4.051782 4.512928 0
M  V30 2 N 2.610707 -2.752775 4.224229 0
M  V30 3 C 2.078750 -1.810833 5.197916 0
M  V30 4 C 4.030999 -2.980362 4.471303 0
M  V30 5 C 4.863688 -1.777318 4.162653 0
M  V30 6 O 4.824892 -1.337670 2.854482 0
M  V30 7 C 3.885637 -0.907894 2.014221 0
M  V30 8 C 4.603999 -0.628886 0.833520 0
M  V30 9 N 3.971549 -0.153070 -0.289213 0
M  V30 10 C 2.630668 0.047612 -0.246985 0
M  V30 11 C 1.916122 -0.221037 0.899826 0
M  V30 12 C 0.485588 -0.000632 0.921158 0
M  V30 13 C -0.323623 -0.243008 2.028179 0
M  V30 14 C -1.686449 -0.051114 2.081566 0
M  V30 15 C -2.330897 0.428352 0.933266 0
M  V30 16 N -3.619192 0.701106 0.700437 0
M  V30 17 C -3.720060 1.133102 -0.564312 0
M  V30 18 C -2.451084 1.114600 -1.096186 0
M  V30 19 C -2.238306 1.521417 -2.474925 0
M  V30 20 O -1.262399 2.283899 -2.754660 0
M  V30 21 C -3.143083 1.052958 -3.517530 0
M  V30 22 C -3.925508 -0.052042 -3.238144 0
M  V30 23 C -4.819839 -0.571635 -4.157833 0
M  V30 24 C -4.983027 -0.013326 -5.412194 0
M  V30 25 C -4.170624 1.096547 -5.639539 0
M  V30 26 C -3.277440 1.641627 -4.765424 0
M  V30 27 C -1.539115 0.668067 -0.159881 0
M  V30 28 C -0.176344 0.467754 -0.187985 0
M  V30 29 N 2.565198 -0.684453 1.977723 0
M  V30 30 H 1.820135 -4.199856 5.589974 0
M  V30 31 H 1.031440 -4.083457 3.975502 0
M  V30 32 H 2.621336 -4.890652 4.157978 0
M  V30 33 H 2.899641 -1.445390 5.873596 0
M  V30 34 H 1.535478 -0.971476 4.772669 0
M  V30 35 H 1.399292 -2.364209 5.870424 0
M  V30 36 H 4.338257 -3.805527 3.799331 0
M  V30 37 H 4.199832 -3.351437 5.501192 0
M  V30 38 H 5.933892 -2.105324 4.348849 0
M  V30 39 H 4.709859 -0.952310 4.897628 0
M  V30 40 H 5.679796 -0.717152 0.579863 0
M  V30 41 H 2.213274 0.422027 -1.166075 0
M  V30 42 H 0.131917 -0.612435 2.931164 0
M  V30 43 H -2.262255 -0.258619 2.971188 0
M  V30 44 H -4.389562 0.589204 1.401039 0
M  V30 45 H -4.674198 1.417180 -0.987120 0
M  V30 46 H -3.915416 -0.607522 -2.297267 0
M  V30 47 H -5.441624 -1.446644 -3.944770 0
M  V30 48 H -5.669943 -0.406030 -6.130025 0
M  V30 49 H -4.296039 1.545809 -6.638712 0
M  V30 50 H -2.669153 2.490990 -4.968370 0
M  V30 51 H 0.272402 0.706916 -1.121993 0
M  V30 END ATOM
M  V30 BEGIN BOND
M  V30 1 1 1 2
M  V30 2 1 2 3
M  V30 3 1 2 4
M  V30 4 1 4 5
M  V30 5 1 5 6
M  V30 6 1 6 7
M  V30 7 2 7 8
M  V30 8 1 8 9
M  V30 9 2 9 10
M  V30 10 1 10 11
M  V30 11 1 11 12
M  V30 12 2 12 13
M  V30 13 1 13 14
M  V30 14 2 14 15
M  V30 15 1 15 16
M  V30 16 1 16 17
M  V30 17 2 17 18
M  V30 18 1 18 19
M  V30 19 2 19 20
M  V30 20 1 19 21
M  V30 21 2 21 22
M  V30 22 1 22 23
M  V30 23 2 23 24
M  V30 24 1 24 25
M  V30 25 2 25 26
M  V30 26 1 18 27
M  V30 27 2 27 28
M  V30 28 2 11 29
M  V30 29 1 29 7
M  V30 30 1 28 12
M  V30 31 1 27 15
M  V30 32 1 26 21
M  V30 33 1 1 30
M  V30 34 1 1 31
M  V30 35 1 1 32
M  V30 36 1 3 33
M  V30 37 1 3 34
M  V30 38 1 3 35
M  V30 39 1 4 36
M  V30 40 1 4 37
M  V30 41 1 5 38
M  V30 42 1 5 39
M  V30 43 1 8 40
M  V30 44 1 10 41
M  V30 45 1 13 42
M  V30 46 1 14 43
M  V30 47 1 16 44
M  V30 48 1 17 45
M  V30 49 1 22 46
M  V30 50 1 23 47
M  V30 51 1 24 48
M  V30 52 1 25 49
M  V30 53 1 26 50
M  V30 54 1 28 51
M  V30 END BOND
M  V30 END CTAB
M  END
>  <Dataset>  (155) 
ChEMBL_Kinases

>  <Ligand_Instance>  (155) 
nan

>  <PDB_ID>  (155) 
nan

>  <Standardized_SMILES>  (155) 
CN(C)CCOc1cncc(-c2ccc3[nH]cc(C(=O)c4ccccc4)c3c2)n1

>  <Name>  (155) 
nan

>  <Pocket>  (155) 
nan

>  <ATP_Site>  (155) 
nan

>  <Peripheral>  (155) 
nan

>  <Num_H_Atoms_ProtBoundConf>  (155) 
nan

>  <Num_Resolved_Atoms>  (155) 
nan

>  <Num_Not_Resolved_Atoms>  (155) 
nan

$$$$
CHEMBL326629
     RDKit          3D

  0  0  0  0  0  0  0  0  0  0999 V3000
M  V30 BEGIN CTAB
M  V30 COUNTS 37 40 0 0 0
M  V30 BEGIN ATOM
M  V30 1 O -0.970351 -4.761705 2.952475 0
M  V30 2 C -0.501515 -3.595438 2.923193 0
M  V30 3 N -0.407387 -2.753571 3.955151 0
M  V30 4 C 0.114510 -1.511266 3.826997 0
M  V30 5 N 0.570350 -1.063666 2.626424 0
M  V30 6 N 1.054129 0.167608 2.643751 0
M  V30 7 C 1.533363 0.702736 1.491829 0
M  V30 8 S 2.233811 2.308477 1.214673 0
M  V30 9 C 1.000109 3.512704 0.761432 0
M  V30 10 C 0.794808 3.593609 -0.605083 0
M  V30 11 C -0.123447 4.470869 -1.148310 0
M  V30 12 C -0.858193 5.289595 -0.321174 0
M  V30 13 F -1.765535 6.161246 -0.805847 0
M  V30 14 C -0.652714 5.209684 1.058006 0
M  V30 15 C 0.267370 4.329625 1.590980 0
M  V30 16 C 1.487294 -0.086715 0.342225 0
M  V30 17 C 0.974654 -1.367022 0.365564 0
M  V30 18 C 0.489545 -1.892750 1.558863 0
M  V30 19 C -0.045132 -3.160125 1.699296 0
M  V30 20 C -0.050045 -3.905583 0.447426 0
M  V30 21 C -1.059181 -3.928330 -0.493652 0
M  V30 22 Cl -2.467843 -2.966265 -0.144137 0
M  V30 23 C -0.922889 -4.684818 -1.637652 0
M  V30 24 C 0.229658 -5.420218 -1.836985 0
M  V30 25 C 1.266551 -5.413273 -0.897515 0
M  V30 26 C 1.113437 -4.643884 0.253026 0
M  V30 27 Cl 2.452836 -4.687812 1.378037 0
M  V30 28 H 0.103687 -0.982447 4.776770 0
M  V30 29 H 1.307265 3.006483 -1.355941 0
M  V30 30 H -0.308670 4.558819 -2.219434 0
M  V30 31 H -1.205167 5.833560 1.769322 0
M  V30 32 H 0.491827 4.199538 2.635211 0
M  V30 33 H 1.833949 0.215951 -0.635201 0
M  V30 34 H 0.923984 -2.005701 -0.506683 0
M  V30 35 H -1.751722 -4.661973 -2.341063 0
M  V30 36 H 0.316987 -6.006552 -2.740065 0
M  V30 37 H 2.127315 -6.017814 -1.138942 0
M  V30 END ATOM
M  V30 BEGIN BOND
M  V30 1 2 1 2
M  V30 2 1 2 3
M  V30 3 2 3 4
M  V30 4 1 4 5
M  V30 5 1 5 6
M  V30 6 2 6 7
M  V30 7 1 7 8
M  V30 8 1 8 9
M  V30 9 2 9 10
M  V30 10 1 10 11
M  V30 11 2 11 12
M  V30 12 1 12 13
M  V30 13 1 12 14
M  V30 14 2 14 15
M  V30 15 1 7 16
M  V30 16 2 16 17
M  V30 17 1 17 18
M  V30 18 2 18 19
M  V30 19 1 19 20
M  V30 20 2 20 21
M  V30 21 1 21 22
M  V30 22 1 21 23
M  V30 23 2 23 24
M  V30 24 1 24 25
M  V30 25 2 25 26
M  V30 26 1 26 27
M  V30 27 1 19 2
M  V30 28 1 26 20
M  V30 29 1 18 5
M  V30 30 1 15 9
M  V30 31 1 4 28
M  V30 32 1 10 29
M  V30 33 1 11 30
M  V30 34 1 14 31
M  V30 35 1 15 32
M  V30 36 1 16 33
M  V30 37 1 17 34
M  V30 38 1 23 35
M  V30 39 1 24 36
M  V30 40 1 25 37
M  V30 END BOND
M  V30 END CTAB
M  END
>  <Dataset>  (156) 
ChEMBL_Kinases

>  <Ligand_Instance>  (156) 
nan

>  <PDB_ID>  (156) 
nan

>  <Standardized_SMILES>  (156) 
O=c1ncn2nc(Sc3ccc(F)cc3)ccc2c1-c1c(Cl)cccc1Cl

>  <Name>  (156) 
nan

>  <Pocket>  (156) 
nan

>  <ATP_Site>  (156) 
nan

>  <Peripheral>  (156) 
nan

>  <Num_H_Atoms_ProtBoundConf>  (156) 
nan

>  <Num_Resolved_Atoms>  (156) 
nan

>  <Num_Not_Resolved_Atoms>  (156) 
nan

$$$$
CHEMBL326688
     RDKit          3D

  0  0  0  0  0  0  0  0  0  0999 V3000
M  V30 BEGIN CTAB
M  V30 COUNTS 56 60 0 0 0
M  V30 BEGIN ATOM
M  V30 1 C 5.147761 1.166667 2.140536 0
M  V30 2 N 5.206447 0.075771 1.185627 0
M  V30 3 C 6.287683 -0.801377 1.583291 0
M  V30 4 C 3.956341 -0.678551 1.383874 0
M  V30 5 C 3.873240 -1.843839 0.446534 0
M  V30 6 C 2.585427 -2.653704 0.621741 0
M  V30 7 N 1.441399 -1.764178 0.370843 0
M  V30 8 C 0.861286 -1.521068 -0.808327 0
M  V30 9 C -0.172108 -0.628065 -0.649829 0
M  V30 10 C -1.030769 -0.114859 -1.710211 0
M  V30 11 C -2.355731 0.089210 -1.805471 0
M  V30 12 C -3.475988 -0.108077 -0.928719 0
M  V30 13 C -4.292487 1.015315 -0.723819 0
M  V30 14 C -5.413376 1.024431 0.077411 0
M  V30 15 C -5.777408 -0.114837 0.724160 0
M  V30 16 C -5.016615 -1.251024 0.561533 0
M  V30 17 C -5.303778 -2.466504 1.159057 0
M  V30 18 C -4.558883 -3.614836 0.991885 0
M  V30 19 C -3.458125 -3.534050 0.172683 0
M  V30 20 C -3.139571 -2.349768 -0.436665 0
M  V30 21 C -3.901669 -1.225691 -0.246996 0
M  V30 22 C -2.599455 0.632285 -3.141624 0
M  V30 23 O -3.697249 0.984190 -3.697202 0
M  V30 24 N -1.393736 0.764866 -3.884754 0
M  V30 25 C -0.398607 0.293904 -2.984480 0
M  V30 26 O 0.827922 0.262050 -3.306570 0
M  V30 27 C -0.170601 -0.358149 0.680239 0
M  V30 28 C -0.943912 0.452653 1.483853 0
M  V30 29 C -0.731993 0.552332 2.837780 0
M  V30 30 C 0.279595 -0.171806 3.427134 0
M  V30 31 N 1.052490 -0.970725 2.674729 0
M  V30 32 C 0.824240 -1.049144 1.358429 0
M  V30 33 H 4.784285 0.762475 3.105639 0
M  V30 34 H 6.116936 1.682844 2.237608 0
M  V30 35 H 4.374903 1.912351 1.788282 0
M  V30 36 H 6.514167 -1.550301 0.794562 0
M  V30 37 H 7.196900 -0.216063 1.884231 0
M  V30 38 H 5.978901 -1.346429 2.498262 0
M  V30 39 H 3.925482 -0.935322 2.454225 0
M  V30 40 H 3.159714 0.086885 1.178160 0
M  V30 41 H 4.724856 -2.521708 0.594357 0
M  V30 42 H 3.869772 -1.442624 -0.588133 0
M  V30 43 H 2.462386 -3.056160 1.624521 0
M  V30 44 H 2.614171 -3.476593 -0.117426 0
M  V30 45 H 1.176096 -1.973894 -1.749854 0
M  V30 46 H -4.060991 1.973704 -1.213493 0
M  V30 47 H -6.003483 1.922411 0.197154 0
M  V30 48 H -6.639610 -0.163346 1.359761 0
M  V30 49 H -6.202866 -2.434230 1.795184 0
M  V30 50 H -4.943221 -4.462001 1.541030 0
M  V30 51 H -2.896073 -4.457369 0.064658 0
M  V30 52 H -2.277895 -2.366631 -1.076785 0
M  V30 53 H -1.237551 1.115657 -4.851547 0
M  V30 54 H -1.738031 1.030365 1.037520 0
M  V30 55 H -1.310518 1.174183 3.516917 0
M  V30 56 H 0.523402 -0.157489 4.491339 0
M  V30 END ATOM
M  V30 BEGIN BOND
M  V30 1 1 1 2
M  V30 2 1 2 3
M  V30 3 1 2 4
M  V30 4 1 4 5
M  V30 5 1 5 6
M  V30 6 1 6 7
M  V30 7 1 7 8
M  V30 8 2 8 9
M  V30 9 1 9 10
M  V30 10 2 10 11
M  V30 11 1 11 12
M  V30 12 2 12 13
M  V30 13 1 13 14
M  V30 14 2 14 15
M  V30 15 1 15 16
M  V30 16 2 16 17
M  V30 17 1 17 18
M  V30 18 2 18 19
M  V30 19 1 19 20
M  V30 20 2 20 21
M  V30 21 1 11 22
M  V30 22 2 22 23
M  V30 23 1 22 24
M  V30 24 1 24 25
M  V30 25 2 25 26
M  V30 26 1 9 27
M  V30 27 2 27 28
M  V30 28 1 28 29
M  V30 29 2 29 30
M  V30 30 1 30 31
M  V30 31 2 31 32
M  V30 32 1 32 7
M  V30 33 1 25 10
M  V30 34 1 32 27
M  V30 35 1 21 12
M  V30 36 1 21 16
M  V30 37 1 1 33
M  V30 38 1 1 34
M  V30 39 1 1 35
M  V30 40 1 3 36
M  V30 41 1 3 37
M  V30 42 1 3 38
M  V30 43 1 4 39
M  V30 44 1 4 40
M  V30 45 1 5 41
M  V30 46 1 5 42
M  V30 47 1 6 43
M  V30 48 1 6 44
M  V30 49 1 8 45
M  V30 50 1 13 46
M  V30 51 1 14 47
M  V30 52 1 15 48
M  V30 53 1 17 49
M  V30 54 1 18 50
M  V30 55 1 19 51
M  V30 56 1 20 52
M  V30 57 1 24 53
M  V30 58 1 28 54
M  V30 59 1 29 55
M  V30 60 1 30 56
M  V30 END BOND
M  V30 END CTAB
M  END
>  <Dataset>  (157) 
ChEMBL_Kinases

>  <Ligand_Instance>  (157) 
nan

>  <PDB_ID>  (157) 
nan

>  <Standardized_SMILES>  (157) 
CN(C)CCCn1cc(C2=C(c3cccc4ccccc34)C(=O)NC2=O)c2cccnc21

>  <Name>  (157) 
nan

>  <Pocket>  (157) 
nan

>  <ATP_Site>  (157) 
nan

>  <Peripheral>  (157) 
nan

>  <Num_H_Atoms_ProtBoundConf>  (157) 
nan

>  <Num_Resolved_Atoms>  (157) 
nan

>  <Num_Not_Resolved_Atoms>  (157) 
nan

$$$$
CHEMBL326705
     RDKit          3D

  0  0  0  0  0  0  0  0  0  0999 V3000
M  V30 BEGIN CTAB
M  V30 COUNTS 48 52 0 0 0
M  V30 BEGIN ATOM
M  V30 1 N 1.291017 -2.905206 4.601945 0
M  V30 2 C 2.602167 -2.483478 4.469189 0
M  V30 3 N 3.512009 -3.119356 5.229072 0
M  V30 4 O 4.651277 -2.560158 4.885900 0
M  V30 5 N 4.452329 -1.661408 3.994847 0
M  V30 6 C 3.155026 -1.538670 3.661466 0
M  V30 7 N 2.665548 -0.599283 2.735969 0
M  V30 8 N 3.509380 0.182239 2.073269 0
M  V30 9 N 2.911587 0.994775 1.245555 0
M  V30 10 C 1.606576 0.794535 1.315034 0
M  V30 11 C 0.715885 1.596577 0.493802 0
M  V30 12 N 0.116945 2.727097 0.937629 0
M  V30 13 N -0.641305 3.255141 -0.018209 0
M  V30 14 C -0.538205 2.462774 -1.098788 0
M  V30 15 C -1.182391 2.626536 -2.392275 0
M  V30 16 C -2.009149 3.694771 -2.628397 0
M  V30 17 C -2.631018 3.852632 -3.866881 0
M  V30 18 N -2.414761 2.946433 -4.834768 0
M  V30 19 C -1.600598 1.890596 -4.607671 0
M  V30 20 C -0.978187 1.713143 -3.400340 0
M  V30 21 N 0.304280 1.437405 -0.773394 0
M  V30 22 C 1.481878 -0.222766 2.271757 0
M  V30 23 C 0.160119 -0.728272 2.624684 0
M  V30 24 N -0.217968 -1.834204 1.814911 0
M  V30 25 C -0.093432 -1.712553 0.409038 0
M  V30 26 C -0.120296 -3.102655 -0.201385 0
M  V30 27 C -0.532216 -4.154689 0.770434 0
M  V30 28 C -1.631758 -3.752487 1.690773 0
M  V30 29 C -1.542952 -2.334890 2.187952 0
M  V30 30 H 0.442183 -2.816461 5.220401 0
M  V30 31 H 0.763009 -3.545573 3.965868 0
M  V30 32 H -1.219543 4.141861 0.069684 0
M  V30 33 H -2.220280 4.464090 -1.875491 0
M  V30 34 H -3.285781 4.693052 -4.063276 0
M  V30 35 H -1.395299 1.142914 -5.339070 0
M  V30 36 H -0.321776 0.887837 -3.173592 0
M  V30 37 H 0.091193 -0.941087 3.685502 0
M  V30 38 H -0.609769 0.123467 2.501331 0
M  V30 39 H 0.854938 -1.194763 0.150124 0
M  V30 40 H -0.919099 -1.142590 -0.030706 0
M  V30 41 H 0.950173 -3.341826 -0.478059 0
M  V30 42 H -0.696165 -3.154711 -1.139180 0
M  V30 43 H 0.363465 -4.565386 1.318900 0
M  V30 44 H -0.925053 -5.026433 0.178355 0
M  V30 45 H -1.543242 -4.414552 2.603876 0
M  V30 46 H -2.644945 -3.958808 1.282811 0
M  V30 47 H -2.351709 -1.714176 1.720022 0
M  V30 48 H -1.590061 -2.268643 3.306106 0
M  V30 END ATOM
M  V30 BEGIN BOND
M  V30 1 1 1 2
M  V30 2 2 2 3
M  V30 3 1 3 4
M  V30 4 1 4 5
M  V30 5 2 5 6
M  V30 6 1 6 7
M  V30 7 1 7 8
M  V30 8 2 8 9
M  V30 9 1 9 10
M  V30 10 1 10 11
M  V30 11 2 11 12
M  V30 12 1 12 13
M  V30 13 1 13 14
M  V30 14 1 14 15
M  V30 15 2 15 16
M  V30 16 1 16 17
M  V30 17 2 17 18
M  V30 18 1 18 19
M  V30 19 2 19 20
M  V30 20 2 14 21
M  V30 21 2 10 22
M  V30 22 1 22 23
M  V30 23 1 23 24
M  V30 24 1 24 25
M  V30 25 1 25 26
M  V30 26 1 26 27
M  V30 27 1 27 28
M  V30 28 1 28 29
M  V30 29 1 6 2
M  V30 30 1 22 7
M  V30 31 1 29 24
M  V30 32 1 21 11
M  V30 33 1 20 15
M  V30 34 1 1 30
M  V30 35 1 1 31
M  V30 36 1 13 32
M  V30 37 1 16 33
M  V30 38 1 17 34
M  V30 39 1 19 35
M  V30 40 1 20 36
M  V30 41 1 23 37
M  V30 42 1 23 38
M  V30 43 1 25 39
M  V30 44 1 25 40
M  V30 45 1 26 41
M  V30 46 1 26 42
M  V30 47 1 27 43
M  V30 48 1 27 44
M  V30 49 1 28 45
M  V30 50 1 28 46
M  V30 51 1 29 47
M  V30 52 1 29 48
M  V30 END BOND
M  V30 END CTAB
M  END
>  <Dataset>  (158) 
ChEMBL_Kinases

>  <Ligand_Instance>  (158) 
nan

>  <PDB_ID>  (158) 
nan

>  <Standardized_SMILES>  (158) 
Nc1nonc1-n1nnc(-c2n[nH]c(-c3ccncc3)n2)c1CN1CCCCC1

>  <Name>  (158) 
nan

>  <Pocket>  (158) 
nan

>  <ATP_Site>  (158) 
nan

>  <Peripheral>  (158) 
nan

>  <Num_H_Atoms_ProtBoundConf>  (158) 
nan

>  <Num_Resolved_Atoms>  (158) 
nan

>  <Num_Not_Resolved_Atoms>  (158) 
nan

$$$$
CHEMBL326748
     RDKit          3D

  0  0  0  0  0  0  0  0  0  0999 V3000
M  V30 BEGIN CTAB
M  V30 COUNTS 34 37 0 0 0
M  V30 BEGIN ATOM
M  V30 1 N -0.010168 -4.536855 4.654839 0
M  V30 2 C -0.013759 -3.564886 3.625316 0
M  V30 3 C 1.008179 -3.724480 2.712281 0
M  V30 4 C 1.083965 -2.809069 1.656831 0
M  V30 5 N 0.169468 -1.825370 1.578216 0
M  V30 6 C 0.064328 -0.853834 0.655418 0
M  V30 7 C 0.943096 -0.649364 -0.489291 0
M  V30 8 C 2.267938 -0.451027 -0.147291 0
M  V30 9 C 3.197928 -0.244305 -1.148493 0
M  V30 10 N 2.756635 -0.247129 -2.424300 0
M  V30 11 C 1.466457 -0.441255 -2.738110 0
M  V30 12 N 0.527664 -0.646589 -1.789915 0
M  V30 13 C -1.043870 -0.078315 1.004524 0
M  V30 14 C -1.467294 1.088998 0.209373 0
M  V30 15 C -0.571352 2.147630 0.113238 0
M  V30 16 C -0.920818 3.267840 -0.621034 0
M  V30 17 C -2.167072 3.233432 -1.211296 0
M  V30 18 C -3.083042 2.204981 -1.140033 0
M  V30 19 C -2.709237 1.085962 -0.394547 0
M  V30 20 N -1.579770 -0.611161 2.139968 0
M  V30 21 C -0.818676 -1.689220 2.480709 0
M  V30 22 N -0.925081 -2.559122 3.520023 0
M  V30 23 H 0.198365 -5.537362 4.503752 0
M  V30 24 H -0.176082 -4.593433 5.694521 0
M  V30 25 H 1.747459 -4.495547 2.750623 0
M  V30 26 H 1.897455 -2.931936 0.925778 0
M  V30 27 H 2.638938 -0.445626 0.864210 0
M  V30 28 H 4.251502 -0.086648 -0.882317 0
M  V30 29 H 1.074755 -0.451115 -3.731973 0
M  V30 30 H 0.389589 2.146082 0.582460 0
M  V30 31 H -0.304473 4.146173 -0.762551 0
M  V30 32 H -2.476322 4.107106 -1.802292 0
M  V30 33 H -4.042206 2.261145 -1.636213 0
M  V30 34 H -3.376103 0.240813 -0.294183 0
M  V30 END ATOM
M  V30 BEGIN BOND
M  V30 1 1 1 2
M  V30 2 1 2 3
M  V30 3 2 3 4
M  V30 4 1 4 5
M  V30 5 1 5 6
M  V30 6 1 6 7
M  V30 7 2 7 8
M  V30 8 1 8 9
M  V30 9 2 9 10
M  V30 10 1 10 11
M  V30 11 2 11 12
M  V30 12 2 6 13
M  V30 13 1 13 14
M  V30 14 2 14 15
M  V30 15 1 15 16
M  V30 16 2 16 17
M  V30 17 1 17 18
M  V30 18 2 18 19
M  V30 19 1 13 20
M  V30 20 2 20 21
M  V30 21 1 21 22
M  V30 22 2 22 2
M  V30 23 1 21 5
M  V30 24 1 12 7
M  V30 25 1 19 14
M  V30 26 1 1 23
M  V30 27 1 1 24
M  V30 28 1 3 25
M  V30 29 1 4 26
M  V30 30 1 8 27
M  V30 31 1 9 28
M  V30 32 1 11 29
M  V30 33 1 15 30
M  V30 34 1 16 31
M  V30 35 1 17 32
M  V30 36 1 18 33
M  V30 37 1 19 34
M  V30 END BOND
M  V30 END CTAB
M  END
>  <Dataset>  (159) 
ChEMBL_Kinases

>  <Ligand_Instance>  (159) 
nan

>  <PDB_ID>  (159) 
nan

>  <Standardized_SMILES>  (159) 
Nc1ccn2c(-c3ccncn3)c(-c3ccccc3)nc2n1

>  <Name>  (159) 
nan

>  <Pocket>  (159) 
nan

>  <ATP_Site>  (159) 
nan

>  <Peripheral>  (159) 
nan

>  <Num_H_Atoms_ProtBoundConf>  (159) 
nan

>  <Num_Resolved_Atoms>  (159) 
nan

>  <Num_Not_Resolved_Atoms>  (159) 
nan

$$$$
CHEMBL328242
     RDKit          3D

  0  0  0  0  0  0  0  0  0  0999 V3000
M  V30 BEGIN CTAB
M  V30 COUNTS 63 67 0 0 0
M  V30 BEGIN ATOM
M  V30 1 C -0.452909 2.315475 5.617501 0
M  V30 2 C 0.230991 1.864093 4.349395 0
M  V30 3 C 1.611141 1.265442 4.653933 0
M  V30 4 N -0.476028 0.901842 3.596731 0
M  V30 5 C -0.773719 -0.341408 4.208843 0
M  V30 6 C -0.629936 -1.396089 3.109217 0
M  V30 7 C -1.494420 -1.075176 1.923785 0
M  V30 8 C -0.744499 -1.008135 0.641366 0
M  V30 9 C 0.339825 -0.219050 0.324895 0
M  V30 10 C 0.944924 -0.254111 -0.912110 0
M  V30 11 C 2.093806 0.629938 -1.139448 0
M  V30 12 C 1.802842 1.901569 -1.642123 0
M  V30 13 C 2.832950 2.798779 -1.886706 0
M  V30 14 C 4.152450 2.481855 -1.650359 0
M  V30 15 F 5.203348 3.306628 -1.866752 0
M  V30 16 C 4.422404 1.219087 -1.152727 0
M  V30 17 C 3.431701 0.303538 -0.897833 0
M  V30 18 Cl 3.750800 -1.279941 -0.274864 0
M  V30 19 C 0.489588 -1.097421 -1.919814 0
M  V30 20 C -0.584744 -1.897194 -1.645378 0
M  V30 21 C -1.169713 -1.840884 -0.400717 0
M  V30 22 N -1.067235 -2.768065 -2.659291 0
M  V30 23 C -2.184785 -3.604784 -2.380946 0
M  V30 24 C -3.526926 -3.345602 -2.558276 0
M  V30 25 Cl -3.882679 -1.762870 -3.218992 0
M  V30 26 C -4.467717 -4.296953 -2.223715 0
M  V30 27 C -4.033757 -5.519691 -1.705306 0
M  V30 28 C -2.693255 -5.804710 -1.517609 0
M  V30 29 C -1.759319 -4.832428 -1.860861 0
M  V30 30 Cl -0.101370 -5.302195 -1.580979 0
M  V30 31 C -0.464235 -2.828314 -3.944868 0
M  V30 32 O -0.853036 -3.580850 -4.874003 0
M  V30 33 N 0.634362 -1.965692 -4.125969 0
M  V30 34 C 1.234003 -1.032256 -3.198547 0
M  V30 35 C -2.258786 0.183844 2.167739 0
M  V30 36 C -1.465167 1.348517 2.691280 0
M  V30 37 H -1.348144 1.741394 5.886565 0
M  V30 38 H 0.267418 2.169607 6.448878 0
M  V30 39 H -0.655844 3.418660 5.600983 0
M  V30 40 H 0.409456 2.755290 3.725503 0
M  V30 41 H 2.318240 2.102739 4.830021 0
M  V30 42 H 1.895156 0.696773 3.744641 0
M  V30 43 H 1.557959 0.579053 5.530148 0
M  V30 44 H -1.816463 -0.375198 4.552330 0
M  V30 45 H -0.048525 -0.649489 4.989179 0
M  V30 46 H -0.868664 -2.382977 3.538886 0
M  V30 47 H 0.447262 -1.443694 2.794727 0
M  V30 48 H -2.265565 -1.890722 1.875864 0
M  V30 49 H 0.689403 0.429974 1.114208 0
M  V30 50 H 0.795441 2.266421 -1.868461 0
M  V30 51 H 2.662241 3.799666 -2.277311 0
M  V30 52 H 5.445900 0.889172 -0.938063 0
M  V30 53 H -2.021161 -2.508648 -0.260482 0
M  V30 54 H -5.505726 -4.037753 -2.384544 0
M  V30 55 H -4.827937 -6.226033 -1.462434 0
M  V30 56 H -2.462566 -6.776100 -1.112357 0
M  V30 57 H 1.126838 -1.963277 -5.059603 0
M  V30 58 H 2.264304 -1.437120 -2.981803 0
M  V30 59 H 1.266895 -0.001887 -3.605140 0
M  V30 60 H -2.885476 0.476370 1.286587 0
M  V30 61 H -3.021854 -0.068588 2.966324 0
M  V30 62 H -2.177569 2.099240 3.161057 0
M  V30 63 H -0.987383 1.937774 1.878099 0
M  V30 END ATOM
M  V30 BEGIN BOND
M  V30 1 1 1 2
M  V30 2 1 2 3
M  V30 3 1 2 4
M  V30 4 1 4 5
M  V30 5 1 5 6
M  V30 6 1 6 7
M  V30 7 1 7 8
M  V30 8 2 8 9
M  V30 9 1 9 10
M  V30 10 1 10 11
M  V30 11 2 11 12
M  V30 12 1 12 13
M  V30 13 2 13 14
M  V30 14 1 14 15
M  V30 15 1 14 16
M  V30 16 2 16 17
M  V30 17 1 17 18
M  V30 18 2 10 19
M  V30 19 1 19 20
M  V30 20 2 20 21
M  V30 21 1 20 22
M  V30 22 1 22 23
M  V30 23 2 23 24
M  V30 24 1 24 25
M  V30 25 1 24 26
M  V30 26 2 26 27
M  V30 27 1 27 28
M  V30 28 2 28 29
M  V30 29 1 29 30
M  V30 30 1 22 31
M  V30 31 2 31 32
M  V30 32 1 31 33
M  V30 33 1 33 34
M  V30 34 1 7 35
M  V30 35 1 35 36
M  V30 36 1 36 4
M  V30 37 1 21 8
M  V30 38 1 29 23
M  V30 39 1 17 11
M  V30 40 1 34 19
M  V30 41 1 1 37
M  V30 42 1 1 38
M  V30 43 1 1 39
M  V30 44 1 2 40
M  V30 45 1 3 41
M  V30 46 1 3 42
M  V30 47 1 3 43
M  V30 48 1 5 44
M  V30 49 1 5 45
M  V30 50 1 6 46
M  V30 51 1 6 47
M  V30 52 1 7 48
M  V30 53 1 9 49
M  V30 54 1 12 50
M  V30 55 1 13 51
M  V30 56 1 16 52
M  V30 57 1 21 53
M  V30 58 1 26 54
M  V30 59 1 27 55
M  V30 60 1 28 56
M  V30 61 1 33 57
M  V30 62 1 34 58
M  V30 63 1 34 59
M  V30 64 1 35 60
M  V30 65 1 35 61
M  V30 66 1 36 62
M  V30 67 1 36 63
M  V30 END BOND
M  V30 END CTAB
M  END
>  <Dataset>  (160) 
ChEMBL_Kinases

>  <Ligand_Instance>  (160) 
nan

>  <PDB_ID>  (160) 
nan

>  <Standardized_SMILES>  (160) 
CC(C)N1CCC(c2cc(-c3ccc(F)cc3Cl)c3c(c2)N(c2c(Cl)cccc2Cl)C(=O)NC3)CC1

>  <Name>  (160) 
nan

>  <Pocket>  (160) 
nan

>  <ATP_Site>  (160) 
nan

>  <Peripheral>  (160) 
nan

>  <Num_H_Atoms_ProtBoundConf>  (160) 
nan

>  <Num_Resolved_Atoms>  (160) 
nan

>  <Num_Not_Resolved_Atoms>  (160) 
nan

$$$$
CHEMBL326971
     RDKit          3D

  0  0  0  0  0  0  0  0  0  0999 V3000
M  V30 BEGIN CTAB
M  V30 COUNTS 43 46 0 0 0
M  V30 BEGIN ATOM
M  V30 1 O 1.909327 -4.576996 3.685842 0
M  V30 2 C 1.759390 -3.365464 3.382944 0
M  V30 3 N 2.441426 -2.409433 4.183989 0
M  V30 4 C 2.088337 -1.135026 3.609755 0
M  V30 5 O 2.505441 -0.020967 4.052259 0
M  V30 6 C 1.190503 -1.351749 2.461626 0
M  V30 7 C 0.679964 -0.269540 1.630279 0
M  V30 8 C 0.708859 -0.175763 0.245897 0
M  V30 9 N 0.122813 0.982050 -0.180862 0
M  V30 10 C -0.058268 1.471015 -1.530500 0
M  V30 11 C 1.085722 2.332804 -1.988598 0
M  V30 12 C 2.359258 1.543188 -1.943639 0
M  V30 13 O 2.294748 0.432703 -2.764061 0
M  V30 14 C -0.288140 1.640872 0.929489 0
M  V30 15 N -0.913084 2.802170 1.068823 0
M  V30 16 C -1.256112 3.313381 2.265987 0
M  V30 17 C -0.942349 2.591379 3.410715 0
M  V30 18 C -0.292581 1.379523 3.303655 0
M  V30 19 C 0.037615 0.901900 2.048253 0
M  V30 20 C 1.014096 -2.655727 2.350371 0
M  V30 21 C 0.183698 -3.345154 1.383034 0
M  V30 22 C -1.043036 -2.693200 1.209948 0
M  V30 23 C -2.042342 -3.133210 0.349981 0
M  V30 24 C -1.759230 -4.300705 -0.364254 0
M  V30 25 C -0.567505 -4.960856 -0.216327 0
M  V30 26 C 0.394612 -4.487297 0.649312 0
M  V30 27 Cl 1.960096 -5.216425 0.934280 0
M  V30 28 H 3.080682 -2.485272 5.020921 0
M  V30 29 H 1.125578 -0.892297 -0.446764 0
M  V30 30 H -0.981221 2.099792 -1.584815 0
M  V30 31 H -0.203947 0.650508 -2.237745 0
M  V30 32 H 0.937627 2.643585 -3.033351 0
M  V30 33 H 1.219282 3.234613 -1.343224 0
M  V30 34 H 2.493010 1.214421 -0.877838 0
M  V30 35 H 3.228873 2.197980 -2.183470 0
M  V30 36 H 1.683493 0.541346 -3.545103 0
M  V30 37 H -1.756038 4.257726 2.248480 0
M  V30 38 H -1.233819 3.031684 4.366058 0
M  V30 39 H -0.062780 0.830976 4.202841 0
M  V30 40 H -1.355928 -1.772527 1.727868 0
M  V30 41 H -2.979935 -2.655068 0.205367 0
M  V30 42 H -2.490936 -4.700307 -1.049364 0
M  V30 43 H -0.302235 -5.870017 -0.749270 0
M  V30 END ATOM
M  V30 BEGIN BOND
M  V30 1 2 1 2
M  V30 2 1 2 3
M  V30 3 1 3 4
M  V30 4 2 4 5
M  V30 5 1 4 6
M  V30 6 1 6 7
M  V30 7 2 7 8
M  V30 8 1 8 9
M  V30 9 1 9 10
M  V30 10 1 10 11
M  V30 11 1 11 12
M  V30 12 1 12 13
M  V30 13 1 9 14
M  V30 14 2 14 15
M  V30 15 1 15 16
M  V30 16 2 16 17
M  V30 17 1 17 18
M  V30 18 2 18 19
M  V30 19 2 6 20
M  V30 20 1 20 21
M  V30 21 2 21 22
M  V30 22 1 22 23
M  V30 23 2 23 24
M  V30 24 1 24 25
M  V30 25 2 25 26
M  V30 26 1 26 27
M  V30 27 1 20 2
M  V30 28 1 26 21
M  V30 29 1 19 7
M  V30 30 1 19 14
M  V30 31 1 3 28
M  V30 32 1 8 29
M  V30 33 1 10 30
M  V30 34 1 10 31
M  V30 35 1 11 32
M  V30 36 1 11 33
M  V30 37 1 12 34
M  V30 38 1 12 35
M  V30 39 1 13 36
M  V30 40 1 16 37
M  V30 41 1 17 38
M  V30 42 1 18 39
M  V30 43 1 22 40
M  V30 44 1 23 41
M  V30 45 1 24 42
M  V30 46 1 25 43
M  V30 END BOND
M  V30 END CTAB
M  END
>  <Dataset>  (161) 
ChEMBL_Kinases

>  <Ligand_Instance>  (161) 
nan

>  <PDB_ID>  (161) 
nan

>  <Standardized_SMILES>  (161) 
O=C1NC(=O)C(c2cn(CCCO)c3ncccc23)=C1c1ccccc1Cl

>  <Name>  (161) 
nan

>  <Pocket>  (161) 
nan

>  <ATP_Site>  (161) 
nan

>  <Peripheral>  (161) 
nan

>  <Num_H_Atoms_ProtBoundConf>  (161) 
nan

>  <Num_Resolved_Atoms>  (161) 
nan

>  <Num_Not_Resolved_Atoms>  (161) 
nan

$$$$
CHEMBL327035
     RDKit          3D

  0  0  0  0  0  0  0  0  0  0999 V3000
M  V30 BEGIN CTAB
M  V30 COUNTS 30 32 0 0 0
M  V30 BEGIN ATOM
M  V30 1 C -2.347529 -1.083355 2.693631 0
M  V30 2 C -0.974161 -0.512757 3.042354 0
M  V30 3 N -0.141718 -0.741972 1.861465 0
M  V30 4 C 0.613010 -1.805377 1.589534 0
M  V30 5 C 0.865302 -2.978779 2.262215 0
M  V30 6 C 1.703642 -3.958160 1.771707 0
M  V30 7 C 2.301026 -3.742756 0.569564 0
M  V30 8 C 2.077909 -2.576452 -0.145381 0
M  V30 9 C 1.225178 -1.593707 0.366099 0
M  V30 10 C 0.791485 -0.361648 -0.057376 0
M  V30 11 C 1.060380 0.359312 -1.181038 0
M  V30 12 C 0.478175 1.597306 -1.361187 0
M  V30 13 N 0.769898 2.337529 -2.541070 0
M  V30 14 C -0.396405 2.180620 -0.440200 0
M  V30 15 C -0.638817 1.415595 0.680222 0
M  V30 16 C -0.064125 0.178034 0.872549 0
M  V30 17 H -3.049040 -0.713614 3.461945 0
M  V30 18 H -2.250760 -2.184947 2.647355 0
M  V30 19 H -2.681604 -0.721590 1.696196 0
M  V30 20 H -0.568400 -1.117075 3.895263 0
M  V30 21 H -1.005185 0.543559 3.327876 0
M  V30 22 H 0.387948 -3.146082 3.218317 0
M  V30 23 H 1.919180 -4.893114 2.283374 0
M  V30 24 H 2.956649 -4.478157 0.157477 0
M  V30 25 H 2.531602 -2.376946 -1.091966 0
M  V30 26 H 1.730928 -0.066346 -1.907304 0
M  V30 27 H 0.468743 2.519354 -3.515526 0
M  V30 28 H 1.595624 2.935050 -2.409560 0
M  V30 29 H -0.838244 3.148484 -0.603354 0
M  V30 30 H -1.317813 1.820848 1.439723 0
M  V30 END ATOM
M  V30 BEGIN BOND
M  V30 1 1 1 2
M  V30 2 1 2 3
M  V30 3 1 3 4
M  V30 4 2 4 5
M  V30 5 1 5 6
M  V30 6 2 6 7
M  V30 7 1 7 8
M  V30 8 2 8 9
M  V30 9 1 9 10
M  V30 10 2 10 11
M  V30 11 1 11 12
M  V30 12 1 12 13
M  V30 13 2 12 14
M  V30 14 1 14 15
M  V30 15 2 15 16
M  V30 16 1 16 3
M  V30 17 1 9 4
M  V30 18 1 16 10
M  V30 19 1 1 17
M  V30 20 1 1 18
M  V30 21 1 1 19
M  V30 22 1 2 20
M  V30 23 1 2 21
M  V30 24 1 5 22
M  V30 25 1 6 23
M  V30 26 1 7 24
M  V30 27 1 8 25
M  V30 28 1 11 26
M  V30 29 1 13 27
M  V30 30 1 13 28
M  V30 31 1 14 29
M  V30 32 1 15 30
M  V30 END BOND
M  V30 END CTAB
M  END
>  <Dataset>  (162) 
ChEMBL_Kinases

>  <Ligand_Instance>  (162) 
nan

>  <PDB_ID>  (162) 
nan

>  <Standardized_SMILES>  (162) 
CCn1c2ccccc2c2cc(N)ccc21

>  <Name>  (162) 
nan

>  <Pocket>  (162) 
nan

>  <ATP_Site>  (162) 
nan

>  <Peripheral>  (162) 
nan

>  <Num_H_Atoms_ProtBoundConf>  (162) 
nan

>  <Num_Resolved_Atoms>  (162) 
nan

>  <Num_Not_Resolved_Atoms>  (162) 
nan

$$$$
CHEMBL327127
     RDKit          3D

  0  0  0  0  0  0  0  0  0  0999 V3000
M  V30 BEGIN CTAB
M  V30 COUNTS 45 48 0 0 0
M  V30 BEGIN ATOM
M  V30 1 C 1.382556 -1.360469 -0.816414 0
M  V30 2 N 1.524210 -0.095821 -0.095682 0
M  V30 3 C 2.473535 0.799353 -0.433298 0
M  V30 4 O 3.244785 0.533028 -1.384953 0
M  V30 5 C 2.596619 1.989748 0.255353 0
M  V30 6 C 3.618156 2.979233 -0.090097 0
M  V30 7 C 3.158909 3.885925 -1.031183 0
M  V30 8 Cl 1.554480 3.876435 -1.741607 0
M  V30 9 C 3.965636 4.909671 -1.500584 0
M  V30 10 C 5.259411 4.995766 -0.991340 0
M  V30 11 C 5.724963 4.093160 -0.050747 0
M  V30 12 C 4.902950 3.077506 0.405247 0
M  V30 13 Cl 5.340040 1.863260 1.585922 0
M  V30 14 C 1.721660 2.232593 1.294560 0
M  V30 15 C 0.745354 1.327607 1.652427 0
M  V30 16 C -0.173119 1.471873 2.667874 0
M  V30 17 N -1.078160 0.518466 2.921573 0
M  V30 18 C -1.161442 -0.627401 2.223534 0
M  V30 19 N -2.126825 -1.594835 2.527897 0
M  V30 20 C -2.366263 -2.834932 1.921535 0
M  V30 21 C -1.684967 -3.374704 0.873577 0
M  V30 22 C -1.916015 -4.594041 0.272984 0
M  V30 23 C -2.946276 -5.357882 0.780593 0
M  V30 24 C -3.682077 -4.877379 1.842550 0
M  V30 25 C -4.788053 -5.713983 2.376126 0
M  V30 26 O -5.962420 -5.369752 1.671646 0
M  V30 27 C -3.379161 -3.660993 2.369399 0
M  V30 28 N -0.256237 -0.741506 1.241897 0
M  V30 29 C 0.678377 0.161673 0.924430 0
M  V30 30 H 1.666431 -2.198947 -0.163007 0
M  V30 31 H 0.296627 -1.384725 -1.109252 0
M  V30 32 H 1.927445 -1.322200 -1.777297 0
M  V30 33 H 3.706477 5.660104 -2.225350 0
M  V30 34 H 5.948076 5.768576 -1.310020 0
M  V30 35 H 6.721940 4.121779 0.372268 0
M  V30 36 H 1.762316 3.140986 1.873263 0
M  V30 37 H -0.119740 2.388260 3.239326 0
M  V30 38 H -2.773421 -1.350827 3.339861 0
M  V30 39 H -0.866029 -2.829669 0.427739 0
M  V30 40 H -1.337916 -4.967578 -0.558650 0
M  V30 41 H -3.165999 -6.321041 0.343347 0
M  V30 42 H -4.570576 -6.761465 2.157429 0
M  V30 43 H -5.008799 -5.505243 3.441260 0
M  V30 44 H -5.715243 -4.970958 0.782730 0
M  V30 45 H -4.013381 -3.351653 3.213280 0
M  V30 END ATOM
M  V30 BEGIN BOND
M  V30 1 1 1 2
M  V30 2 1 2 3
M  V30 3 2 3 4
M  V30 4 1 3 5
M  V30 5 1 5 6
M  V30 6 2 6 7
M  V30 7 1 7 8
M  V30 8 1 7 9
M  V30 9 2 9 10
M  V30 10 1 10 11
M  V30 11 2 11 12
M  V30 12 1 12 13
M  V30 13 2 5 14
M  V30 14 1 14 15
M  V30 15 2 15 16
M  V30 16 1 16 17
M  V30 17 2 17 18
M  V30 18 1 18 19
M  V30 19 1 19 20
M  V30 20 2 20 21
M  V30 21 1 21 22
M  V30 22 2 22 23
M  V30 23 1 23 24
M  V30 24 1 24 25
M  V30 25 1 25 26
M  V30 26 2 24 27
M  V30 27 1 18 28
M  V30 28 2 28 29
M  V30 29 1 29 2
M  V30 30 1 12 6
M  V30 31 1 29 15
M  V30 32 1 27 20
M  V30 33 1 1 30
M  V30 34 1 1 31
M  V30 35 1 1 32
M  V30 36 1 9 33
M  V30 37 1 10 34
M  V30 38 1 11 35
M  V30 39 1 14 36
M  V30 40 1 16 37
M  V30 41 1 19 38
M  V30 42 1 21 39
M  V30 43 1 22 40
M  V30 44 1 23 41
M  V30 45 1 25 42
M  V30 46 1 25 43
M  V30 47 1 26 44
M  V30 48 1 27 45
M  V30 END BOND
M  V30 END CTAB
M  END
>  <Dataset>  (163) 
ChEMBL_Kinases

>  <Ligand_Instance>  (163) 
nan

>  <PDB_ID>  (163) 
nan

>  <Standardized_SMILES>  (163) 
Cn1c(=O)c(-c2c(Cl)cccc2Cl)cc2cnc(Nc3cccc(CO)c3)nc21

>  <Name>  (163) 
nan

>  <Pocket>  (163) 
nan

>  <ATP_Site>  (163) 
nan

>  <Peripheral>  (163) 
nan

>  <Num_H_Atoms_ProtBoundConf>  (163) 
nan

>  <Num_Resolved_Atoms>  (163) 
nan

>  <Num_Not_Resolved_Atoms>  (163) 
nan

$$$$
CHEMBL327217
     RDKit          3D

  0  0  0  0  0  0  0  0  0  0999 V3000
M  V30 BEGIN CTAB
M  V30 COUNTS 55 59 0 0 0
M  V30 BEGIN ATOM
M  V30 1 O 1.853095 -3.715747 -0.223379 0
M  V30 2 C 1.236013 -2.659291 -0.389337 0
M  V30 3 C 0.939038 -1.397949 0.275919 0
M  V30 4 C 1.564612 -0.191809 -0.024850 0
M  V30 5 C 1.186852 0.965411 0.665367 0
M  V30 6 C 1.975070 2.085345 0.172057 0
M  V30 7 C 3.157453 2.310621 0.885811 0
M  V30 8 C 3.941468 3.376035 0.443762 0
M  V30 9 C 3.502015 4.120538 -0.649993 0
M  V30 10 F 4.263226 5.165556 -1.088549 0
M  V30 11 C 2.314647 3.857684 -1.330104 0
M  V30 12 C 1.534328 2.808268 -0.901082 0
M  V30 13 F 0.401049 2.558433 -1.555763 0
M  V30 14 C 0.213560 0.906831 1.624060 0
M  V30 15 C -0.417877 -0.277502 1.937482 0
M  V30 16 C -0.035911 -1.411704 1.249407 0
M  V30 17 N -1.443767 -0.259098 2.947850 0
M  V30 18 C -2.003534 -1.553252 3.155021 0
M  V30 19 C -1.319458 -2.176807 4.208200 0
M  V30 20 Cl -0.007977 -1.505389 5.151954 0
M  V30 21 C -1.665893 -3.471131 4.606494 0
M  V30 22 C -2.696709 -4.125978 3.942225 0
M  V30 23 C -3.351758 -3.489827 2.910959 0
M  V30 24 C -3.017459 -2.218627 2.513254 0
M  V30 25 Cl -3.737033 -1.269128 1.234125 0
M  V30 26 C -1.787859 0.972819 3.599876 0
M  V30 27 O -2.693024 0.863634 4.456803 0
M  V30 28 N -1.103704 2.159929 3.233832 0
M  V30 29 C -0.052148 2.222173 2.239249 0
M  V30 30 N 0.554772 -2.596092 -1.662455 0
M  V30 31 C 0.647419 -3.712213 -2.582748 0
M  V30 32 C -0.654204 -3.832801 -3.341659 0
M  V30 33 N -1.769483 -3.439157 -2.498368 0
M  V30 34 C -1.726174 -2.000499 -2.331998 0
M  V30 35 C -0.274151 -1.575036 -2.290455 0
M  V30 36 H 2.306131 -0.311348 -0.801077 0
M  V30 37 H 3.459027 1.707415 1.728065 0
M  V30 38 H 4.871691 3.618085 0.942195 0
M  V30 39 H 2.023284 4.470439 -2.176048 0
M  V30 40 H -0.535130 -2.361728 1.495604 0
M  V30 41 H -1.190183 -4.018816 5.404823 0
M  V30 42 H -2.978200 -5.118210 4.228692 0
M  V30 43 H -4.158134 -3.922181 2.343752 0
M  V30 44 H -1.383391 3.039275 3.717098 0
M  V30 45 H -0.389654 2.985615 1.499005 0
M  V30 46 H 0.870656 2.645793 2.688915 0
M  V30 47 H 1.493792 -3.561974 -3.282494 0
M  V30 48 H 0.812114 -4.636180 -1.991641 0
M  V30 49 H -0.820392 -4.881986 -3.652517 0
M  V30 50 H -0.634795 -3.167207 -4.225669 0
M  V30 51 H -2.689750 -3.742705 -2.833201 0
M  V30 52 H -2.231590 -1.501709 -3.198199 0
M  V30 53 H -2.285518 -1.697506 -1.423734 0
M  V30 54 H 0.100027 -1.299079 -3.289071 0
M  V30 55 H -0.221397 -0.681170 -1.650218 0
M  V30 END ATOM
M  V30 BEGIN BOND
M  V30 1 2 1 2
M  V30 2 1 2 3
M  V30 3 2 3 4
M  V30 4 1 4 5
M  V30 5 1 5 6
M  V30 6 2 6 7
M  V30 7 1 7 8
M  V30 8 2 8 9
M  V30 9 1 9 10
M  V30 10 1 9 11
M  V30 11 2 11 12
M  V30 12 1 12 13
M  V30 13 2 5 14
M  V30 14 1 14 15
M  V30 15 2 15 16
M  V30 16 1 15 17
M  V30 17 1 17 18
M  V30 18 2 18 19
M  V30 19 1 19 20
M  V30 20 1 19 21
M  V30 21 2 21 22
M  V30 22 1 22 23
M  V30 23 2 23 24
M  V30 24 1 24 25
M  V30 25 1 17 26
M  V30 26 2 26 27
M  V30 27 1 26 28
M  V30 28 1 28 29
M  V30 29 1 2 30
M  V30 30 1 30 31
M  V30 31 1 31 32
M  V30 32 1 32 33
M  V30 33 1 33 34
M  V30 34 1 34 35
M  V30 35 1 16 3
M  V30 36 1 24 18
M  V30 37 1 35 30
M  V30 38 1 12 6
M  V30 39 1 29 14
M  V30 40 1 4 36
M  V30 41 1 7 37
M  V30 42 1 8 38
M  V30 43 1 11 39
M  V30 44 1 16 40
M  V30 45 1 21 41
M  V30 46 1 22 42
M  V30 47 1 23 43
M  V30 48 1 28 44
M  V30 49 1 29 45
M  V30 50 1 29 46
M  V30 51 1 31 47
M  V30 52 1 31 48
M  V30 53 1 32 49
M  V30 54 1 32 50
M  V30 55 1 33 51
M  V30 56 1 34 52
M  V30 57 1 34 53
M  V30 58 1 35 54
M  V30 59 1 35 55
M  V30 END BOND
M  V30 END CTAB
M  END
>  <Dataset>  (164) 
ChEMBL_Kinases

>  <Ligand_Instance>  (164) 
nan

>  <PDB_ID>  (164) 
nan

>  <Standardized_SMILES>  (164) 
O=C(c1cc(-c2ccc(F)cc2F)c2c(c1)N(c1c(Cl)cccc1Cl)C(=O)NC2)N1CCNCC1

>  <Name>  (164) 
nan

>  <Pocket>  (164) 
nan

>  <ATP_Site>  (164) 
nan

>  <Peripheral>  (164) 
nan

>  <Num_H_Atoms_ProtBoundConf>  (164) 
nan

>  <Num_Resolved_Atoms>  (164) 
nan

>  <Num_Not_Resolved_Atoms>  (164) 
nan

$$$$
CHEMBL327746
     RDKit          3D

  0  0  0  0  0  0  0  0  0  0999 V3000
M  V30 BEGIN CTAB
M  V30 COUNTS 56 60 0 0 0
M  V30 BEGIN ATOM
M  V30 1 O 3.303692 -3.746049 -1.966699 0
M  V30 2 C 2.829837 -2.840331 -1.261787 0
M  V30 3 N 3.689586 -1.740774 -0.990828 0
M  V30 4 C 3.271492 -0.625861 -0.191703 0
M  V30 5 C 1.891816 -0.740596 0.306930 0
M  V30 6 C 1.415935 0.294629 1.086735 0
M  V30 7 C 2.267704 1.444717 1.389177 0
M  V30 8 C 2.400799 2.618761 0.675778 0
M  V30 9 C 3.265775 3.591796 1.131713 0
M  V30 10 C 4.003850 3.422579 2.285302 0
M  V30 11 F 4.832674 4.413362 2.677460 0
M  V30 12 C 3.868856 2.242210 3.000886 0
M  V30 13 C 2.994484 1.255297 2.542564 0
M  V30 14 Cl 2.954818 -0.159418 3.569643 0
M  V30 15 C 0.122471 0.271063 1.601461 0
M  V30 16 C -0.743926 -0.775809 1.363049 0
M  V30 17 C -2.122217 -0.844435 1.887267 0
M  V30 18 N -3.074481 -0.245083 0.979683 0
M  V30 19 C -4.400777 -0.314164 1.490354 0
M  V30 20 C -5.351982 0.689252 0.926349 0
M  V30 21 N -4.903947 1.109614 -0.389789 0
M  V30 22 C -3.690639 1.846334 -0.194117 0
M  V30 23 C -2.669085 1.073570 0.560162 0
M  V30 24 C -0.242193 -1.801494 0.578088 0
M  V30 25 C 1.028395 -1.778219 0.072543 0
M  V30 26 N 1.493490 -2.867184 -0.732350 0
M  V30 27 C 0.678975 -3.998946 -1.039645 0
M  V30 28 C 0.584096 -5.160749 -0.301953 0
M  V30 29 Cl 1.569250 -5.216864 1.140633 0
M  V30 30 C -0.245808 -6.189324 -0.708869 0
M  V30 31 C -0.968219 -6.011451 -1.869059 0
M  V30 32 C -0.896325 -4.866108 -2.626983 0
M  V30 33 C -0.055444 -3.840841 -2.201995 0
M  V30 34 Cl 0.012059 -2.383799 -3.200590 0
M  V30 35 H 4.669065 -1.676034 -1.352607 0
M  V30 36 H 3.434185 0.293149 -0.783863 0
M  V30 37 H 3.940029 -0.622171 0.709695 0
M  V30 38 H 1.785755 2.665444 -0.213299 0
M  V30 39 H 3.334462 4.498500 0.533716 0
M  V30 40 H 4.477816 2.159284 3.909125 0
M  V30 41 H -0.216205 1.099996 2.208517 0
M  V30 42 H -2.199611 -0.405249 2.914661 0
M  V30 43 H -2.425057 -1.918213 2.019730 0
M  V30 44 H -4.863941 -1.331731 1.364922 0
M  V30 45 H -4.319645 -0.114703 2.594608 0
M  V30 46 H -5.325733 1.611660 1.553974 0
M  V30 47 H -6.356741 0.274311 0.864598 0
M  V30 48 H -4.756428 0.239890 -0.948962 0
M  V30 49 H -3.963787 2.799847 0.321195 0
M  V30 50 H -3.277289 2.076546 -1.214502 0
M  V30 51 H -1.699651 1.074455 0.037477 0
M  V30 52 H -2.465459 1.630228 1.522521 0
M  V30 53 H -0.873728 -2.665432 0.347248 0
M  V30 54 H -0.290824 -7.082232 -0.102146 0
M  V30 55 H -1.627506 -6.804692 -2.210238 0
M  V30 56 H -1.471211 -4.734401 -3.542933 0
M  V30 END ATOM
M  V30 BEGIN BOND
M  V30 1 2 1 2
M  V30 2 1 2 3
M  V30 3 1 3 4
M  V30 4 1 4 5
M  V30 5 2 5 6
M  V30 6 1 6 7
M  V30 7 2 7 8
M  V30 8 1 8 9
M  V30 9 2 9 10
M  V30 10 1 10 11
M  V30 11 1 10 12
M  V30 12 2 12 13
M  V30 13 1 13 14
M  V30 14 1 6 15
M  V30 15 2 15 16
M  V30 16 1 16 17
M  V30 17 1 17 18
M  V30 18 1 18 19
M  V30 19 1 19 20
M  V30 20 1 20 21
M  V30 21 1 21 22
M  V30 22 1 22 23
M  V30 23 1 16 24
M  V30 24 2 24 25
M  V30 25 1 25 26
M  V30 26 1 26 27
M  V30 27 2 27 28
M  V30 28 1 28 29
M  V30 29 1 28 30
M  V30 30 2 30 31
M  V30 31 1 31 32
M  V30 32 2 32 33
M  V30 33 1 33 34
M  V30 34 1 26 2
M  V30 35 1 33 27
M  V30 36 1 25 5
M  V30 37 1 13 7
M  V30 38 1 23 18
M  V30 39 1 3 35
M  V30 40 1 4 36
M  V30 41 1 4 37
M  V30 42 1 8 38
M  V30 43 1 9 39
M  V30 44 1 12 40
M  V30 45 1 15 41
M  V30 46 1 17 42
M  V30 47 1 17 43
M  V30 48 1 19 44
M  V30 49 1 19 45
M  V30 50 1 20 46
M  V30 51 1 20 47
M  V30 52 1 21 48
M  V30 53 1 22 49
M  V30 54 1 22 50
M  V30 55 1 23 51
M  V30 56 1 23 52
M  V30 57 1 24 53
M  V30 58 1 30 54
M  V30 59 1 31 55
M  V30 60 1 32 56
M  V30 END BOND
M  V30 END CTAB
M  END
>  <Dataset>  (165) 
ChEMBL_Kinases

>  <Ligand_Instance>  (165) 
nan

>  <PDB_ID>  (165) 
nan

>  <Standardized_SMILES>  (165) 
O=C1NCc2c(-c3ccc(F)cc3Cl)cc(CN3CCNCC3)cc2N1c1c(Cl)cccc1Cl

>  <Name>  (165) 
nan

>  <Pocket>  (165) 
nan

>  <ATP_Site>  (165) 
nan

>  <Peripheral>  (165) 
nan

>  <Num_H_Atoms_ProtBoundConf>  (165) 
nan

>  <Num_Resolved_Atoms>  (165) 
nan

>  <Num_Not_Resolved_Atoms>  (165) 
nan

$$$$
CHEMBL327959
     RDKit          3D

  0  0  0  0  0  0  0  0  0  0999 V3000
M  V30 BEGIN CTAB
M  V30 COUNTS 55 59 0 0 0
M  V30 BEGIN ATOM
M  V30 1 O 2.628064 -3.825527 3.650196 0
M  V30 2 C 2.407603 -2.844020 2.897541 0
M  V30 3 N 3.450391 -1.910226 2.639281 0
M  V30 4 C 3.283625 -0.750952 1.784622 0
M  V30 5 C 1.921464 -0.652408 1.219187 0
M  V30 6 C 1.716593 0.437143 0.398193 0
M  V30 7 C 2.752524 1.420377 0.103607 0
M  V30 8 C 2.742324 2.469145 1.025868 0
M  V30 9 C 3.674915 3.497896 0.885417 0
M  V30 10 C 4.582745 3.456254 -0.157316 0
M  V30 11 F 5.481215 4.459750 -0.281847 0
M  V30 12 C 4.579667 2.411086 -1.061727 0
M  V30 13 C 3.662640 1.389181 -0.932586 0
M  V30 14 Cl 3.535539 0.003871 -1.994933 0
M  V30 15 C 0.504644 0.675280 -0.207909 0
M  V30 16 C -0.546932 -0.190130 0.000300 0
M  V30 17 O -1.847020 -0.178379 -0.483008 0
M  V30 18 C -2.410769 0.763438 -1.334116 0
M  V30 19 C -3.573013 1.418951 -0.616632 0
M  V30 20 C -4.684278 0.403657 -0.449816 0
M  V30 21 N -5.222089 0.204441 -1.804297 0
M  V30 22 C -4.198863 -0.605302 -2.474308 0
M  V30 23 C -2.930882 0.185287 -2.625529 0
M  V30 24 C -0.350939 -1.298916 0.831221 0
M  V30 25 C 0.877266 -1.527959 1.437038 0
M  V30 26 N 1.137403 -2.637084 2.291578 0
M  V30 27 C 0.086467 -3.564284 2.542341 0
M  V30 28 C 0.060355 -4.609698 1.621915 0
M  V30 29 Cl 1.193633 -4.770411 0.299595 0
M  V30 30 C -0.892778 -5.605405 1.709047 0
M  V30 31 C -1.816698 -5.531189 2.735604 0
M  V30 32 C -1.781739 -4.491215 3.641917 0
M  V30 33 C -0.836179 -3.490512 3.567175 0
M  V30 34 Cl -0.667120 -2.126102 4.628308 0
M  V30 35 H 4.412555 -1.983493 3.041050 0
M  V30 36 H 3.541522 0.141311 2.399549 0
M  V30 37 H 4.074562 -0.800678 1.008710 0
M  V30 38 H 2.064626 2.567923 1.863078 0
M  V30 39 H 3.700237 4.336621 1.585859 0
M  V30 40 H 5.267247 2.340296 -1.885567 0
M  V30 41 H 0.232306 1.487798 -0.863848 0
M  V30 42 H -1.670444 1.528816 -1.587732 0
M  V30 43 H -3.283877 1.860611 0.343631 0
M  V30 44 H -3.995153 2.201947 -1.301631 0
M  V30 45 H -4.298739 -0.599859 -0.144459 0
M  V30 46 H -5.466786 0.749306 0.241528 0
M  V30 47 H -6.090877 -0.349029 -1.748248 0
M  V30 48 H -4.559904 -0.838058 -3.489347 0
M  V30 49 H -4.068171 -1.501332 -1.839366 0
M  V30 50 H -2.183223 -0.516239 -3.092224 0
M  V30 51 H -3.157700 1.041324 -3.298173 0
M  V30 52 H -1.076918 -2.058238 1.085812 0
M  V30 53 H -0.959837 -6.445012 1.017672 0
M  V30 54 H -2.574748 -6.301210 2.824744 0
M  V30 55 H -2.481375 -4.389779 4.460288 0
M  V30 END ATOM
M  V30 BEGIN BOND
M  V30 1 2 1 2
M  V30 2 1 2 3
M  V30 3 1 3 4
M  V30 4 1 4 5
M  V30 5 2 5 6
M  V30 6 1 6 7
M  V30 7 2 7 8
M  V30 8 1 8 9
M  V30 9 2 9 10
M  V30 10 1 10 11
M  V30 11 1 10 12
M  V30 12 2 12 13
M  V30 13 1 13 14
M  V30 14 1 6 15
M  V30 15 2 15 16
M  V30 16 1 16 17
M  V30 17 1 17 18
M  V30 18 1 18 19
M  V30 19 1 19 20
M  V30 20 1 20 21
M  V30 21 1 21 22
M  V30 22 1 22 23
M  V30 23 1 16 24
M  V30 24 2 24 25
M  V30 25 1 25 26
M  V30 26 1 26 27
M  V30 27 2 27 28
M  V30 28 1 28 29
M  V30 29 1 28 30
M  V30 30 2 30 31
M  V30 31 1 31 32
M  V30 32 2 32 33
M  V30 33 1 33 34
M  V30 34 1 26 2
M  V30 35 1 33 27
M  V30 36 1 25 5
M  V30 37 1 13 7
M  V30 38 1 23 18
M  V30 39 1 3 35
M  V30 40 1 4 36
M  V30 41 1 4 37
M  V30 42 1 8 38
M  V30 43 1 9 39
M  V30 44 1 12 40
M  V30 45 1 15 41
M  V30 46 1 18 42
M  V30 47 1 19 43
M  V30 48 1 19 44
M  V30 49 1 20 45
M  V30 50 1 20 46
M  V30 51 1 21 47
M  V30 52 1 22 48
M  V30 53 1 22 49
M  V30 54 1 23 50
M  V30 55 1 23 51
M  V30 56 1 24 52
M  V30 57 1 30 53
M  V30 58 1 31 54
M  V30 59 1 32 55
M  V30 END BOND
M  V30 END CTAB
M  END
>  <Dataset>  (166) 
ChEMBL_Kinases

>  <Ligand_Instance>  (166) 
nan

>  <PDB_ID>  (166) 
nan

>  <Standardized_SMILES>  (166) 
O=C1NCc2c(-c3ccc(F)cc3Cl)cc(OC3CCNCC3)cc2N1c1c(Cl)cccc1Cl

>  <Name>  (166) 
nan

>  <Pocket>  (166) 
nan

>  <ATP_Site>  (166) 
nan

>  <Peripheral>  (166) 
nan

>  <Num_H_Atoms_ProtBoundConf>  (166) 
nan

>  <Num_Resolved_Atoms>  (166) 
nan

>  <Num_Not_Resolved_Atoms>  (166) 
nan

$$$$
CHEMBL327987
     RDKit          3D

  0  0  0  0  0  0  0  0  0  0999 V3000
M  V30 BEGIN CTAB
M  V30 COUNTS 56 60 0 0 0
M  V30 BEGIN ATOM
M  V30 1 O 2.633242 -4.650287 -0.737942 0
M  V30 2 C 2.443884 -3.527674 -0.213307 0
M  V30 3 N 3.456616 -2.894533 0.551657 0
M  V30 4 C 3.370470 -1.602971 1.210495 0
M  V30 5 C 2.044684 -0.989342 0.985079 0
M  V30 6 C 1.858531 0.243234 1.570164 0
M  V30 7 C 2.904433 0.905853 2.364872 0
M  V30 8 C 3.133759 0.805945 3.725700 0
M  V30 9 C 4.175543 1.518556 4.262892 0
M  V30 10 C 5.005157 2.331026 3.505119 0
M  V30 11 C 4.765695 2.424539 2.136446 0
M  V30 12 C 3.723545 1.715162 1.582204 0
M  V30 13 Cl 3.552841 1.938112 -0.149823 0
M  V30 14 C 0.658465 0.903979 1.422806 0
M  V30 15 C -0.407722 0.387942 0.698481 0
M  V30 16 N -1.631196 1.096405 0.564441 0
M  V30 17 C -2.770179 0.603653 -0.170924 0
M  V30 18 C -3.243388 -0.676932 0.446197 0
M  V30 19 C -4.617780 -0.394260 1.043825 0
M  V30 20 N -5.538670 -0.100215 -0.038471 0
M  V30 21 C -5.087304 0.989078 -0.848360 0
M  V30 22 C -3.864824 1.645501 -0.245637 0
M  V30 23 C -0.167947 -0.847488 0.134264 0
M  V30 24 C 1.012666 -1.540801 0.255978 0
M  V30 25 N 1.219887 -2.816663 -0.343627 0
M  V30 26 C 0.161155 -3.377760 -1.089167 0
M  V30 27 C 0.197202 -3.022360 -2.441976 0
M  V30 28 Cl 1.412550 -1.995290 -3.155637 0
M  V30 29 C -0.814501 -3.532009 -3.263120 0
M  V30 30 C -1.811381 -4.350452 -2.776127 0
M  V30 31 C -1.837849 -4.698535 -1.425753 0
M  V30 32 C -0.828527 -4.191019 -0.602716 0
M  V30 33 Cl -0.779012 -4.576645 1.120100 0
M  V30 34 H 4.364903 -3.391261 0.664938 0
M  V30 35 H 4.160113 -0.945975 0.745978 0
M  V30 36 H 3.606502 -1.703451 2.287754 0
M  V30 37 H 2.452495 0.163712 4.227158 0
M  V30 38 H 4.321597 1.413643 5.329320 0
M  V30 39 H 5.824181 2.882054 3.972037 0
M  V30 40 H 5.447567 3.073306 1.605586 0
M  V30 41 H 0.524104 1.872404 1.887483 0
M  V30 42 H -1.707244 2.016810 1.020514 0
M  V30 43 H -2.478680 0.390938 -1.221827 0
M  V30 44 H -3.306512 -1.491201 -0.304275 0
M  V30 45 H -2.575236 -1.036933 1.268843 0
M  V30 46 H -4.510838 0.406466 1.778926 0
M  V30 47 H -4.961503 -1.331391 1.524066 0
M  V30 48 H -5.627862 -0.987604 -0.585814 0
M  V30 49 H -5.899400 1.758783 -0.996262 0
M  V30 50 H -4.761859 0.571302 -1.833977 0
M  V30 51 H -3.489889 2.437789 -0.929523 0
M  V30 52 H -4.090624 2.108567 0.735898 0
M  V30 53 H -0.921209 -1.323880 -0.439194 0
M  V30 54 H -0.873096 -3.311075 -4.337093 0
M  V30 55 H -2.608028 -4.766404 -3.362754 0
M  V30 56 H -2.596022 -5.336215 -0.993069 0
M  V30 END ATOM
M  V30 BEGIN BOND
M  V30 1 2 1 2
M  V30 2 1 2 3
M  V30 3 1 3 4
M  V30 4 1 4 5
M  V30 5 2 5 6
M  V30 6 1 6 7
M  V30 7 2 7 8
M  V30 8 1 8 9
M  V30 9 2 9 10
M  V30 10 1 10 11
M  V30 11 2 11 12
M  V30 12 1 12 13
M  V30 13 1 6 14
M  V30 14 2 14 15
M  V30 15 1 15 16
M  V30 16 1 16 17
M  V30 17 1 17 18
M  V30 18 1 18 19
M  V30 19 1 19 20
M  V30 20 1 20 21
M  V30 21 1 21 22
M  V30 22 1 15 23
M  V30 23 2 23 24
M  V30 24 1 24 25
M  V30 25 1 25 26
M  V30 26 2 26 27
M  V30 27 1 27 28
M  V30 28 1 27 29
M  V30 29 2 29 30
M  V30 30 1 30 31
M  V30 31 2 31 32
M  V30 32 1 32 33
M  V30 33 1 25 2
M  V30 34 1 32 26
M  V30 35 1 24 5
M  V30 36 1 12 7
M  V30 37 1 22 17
M  V30 38 1 3 34
M  V30 39 1 4 35
M  V30 40 1 4 36
M  V30 41 1 8 37
M  V30 42 1 9 38
M  V30 43 1 10 39
M  V30 44 1 11 40
M  V30 45 1 14 41
M  V30 46 1 16 42
M  V30 47 1 17 43
M  V30 48 1 18 44
M  V30 49 1 18 45
M  V30 50 1 19 46
M  V30 51 1 19 47
M  V30 52 1 20 48
M  V30 53 1 21 49
M  V30 54 1 21 50
M  V30 55 1 22 51
M  V30 56 1 22 52
M  V30 57 1 23 53
M  V30 58 1 29 54
M  V30 59 1 30 55
M  V30 60 1 31 56
M  V30 END BOND
M  V30 END CTAB
M  END
>  <Dataset>  (167) 
ChEMBL_Kinases

>  <Ligand_Instance>  (167) 
nan

>  <PDB_ID>  (167) 
nan

>  <Standardized_SMILES>  (167) 
O=C1NCc2c(-c3ccccc3Cl)cc(NC3CCNCC3)cc2N1c1c(Cl)cccc1Cl

>  <Name>  (167) 
nan

>  <Pocket>  (167) 
nan

>  <ATP_Site>  (167) 
nan

>  <Peripheral>  (167) 
nan

>  <Num_H_Atoms_ProtBoundConf>  (167) 
nan

>  <Num_Resolved_Atoms>  (167) 
nan

>  <Num_Not_Resolved_Atoms>  (167) 
nan

$$$$
CHEMBL328126
     RDKit          3D

  0  0  0  0  0  0  0  0  0  0999 V3000
M  V30 BEGIN CTAB
M  V30 COUNTS 39 42 0 0 0
M  V30 BEGIN ATOM
M  V30 1 F 1.343905 -4.063310 5.848504 0
M  V30 2 C 1.122722 -3.296506 4.756910 0
M  V30 3 C 1.697328 -3.539557 3.537890 0
M  V30 4 C 1.438864 -2.727474 2.453050 0
M  V30 5 C 0.600258 -1.634616 2.516011 0
M  V30 6 C 0.375644 -0.841125 1.335251 0
M  V30 7 C 0.953168 0.428446 1.265510 0
M  V30 8 C 0.624389 1.008787 0.059901 0
M  V30 9 C 1.008906 2.341660 -0.455111 0
M  V30 10 C 0.544708 2.688101 -1.705792 0
M  V30 11 C 0.922901 3.948999 -2.167810 0
M  V30 12 C 1.713510 4.780157 -1.401654 0
M  V30 13 Cl 2.171180 6.359736 -2.013060 0
M  V30 14 C 2.167210 4.412891 -0.151857 0
M  V30 15 C 1.800041 3.156043 0.328016 0
M  V30 16 N -0.145161 0.124355 -0.618521 0
M  V30 17 C -0.298110 -0.988498 0.142725 0
M  V30 18 C -1.037952 -2.213173 -0.134433 0
M  V30 19 C -2.420456 -2.041494 -0.275073 0
M  V30 20 C -3.336019 -3.031816 -0.534739 0
M  V30 21 N -2.835174 -4.291096 -0.664979 0
M  V30 22 C -1.515518 -4.508948 -0.539280 0
M  V30 23 C -0.606730 -3.505898 -0.278209 0
M  V30 24 C 0.027922 -1.400376 3.749088 0
M  V30 25 C 0.268195 -2.197870 4.856774 0
M  V30 26 H 2.347528 -4.405280 3.531076 0
M  V30 27 H 1.971334 -3.052566 1.573226 0
M  V30 28 H 1.580355 0.981897 1.978946 0
M  V30 29 H -0.068298 2.085239 -2.339929 0
M  V30 30 H 0.572623 4.256976 -3.156390 0
M  V30 31 H 2.786959 5.043896 0.468519 0
M  V30 32 H 2.155251 2.880499 1.294469 0
M  V30 33 H -0.585438 0.189774 -1.553471 0
M  V30 34 H -2.878044 -1.058342 -0.181541 0
M  V30 35 H -4.386608 -2.862815 -0.635556 0
M  V30 36 H -1.120694 -5.505664 -0.641687 0
M  V30 37 H 0.459312 -3.615067 -0.169578 0
M  V30 38 H -0.640711 -0.550879 3.851302 0
M  V30 39 H -0.192336 -1.995892 5.817616 0
M  V30 END ATOM
M  V30 BEGIN BOND
M  V30 1 1 1 2
M  V30 2 2 2 3
M  V30 3 1 3 4
M  V30 4 2 4 5
M  V30 5 1 5 6
M  V30 6 1 6 7
M  V30 7 2 7 8
M  V30 8 1 8 9
M  V30 9 2 9 10
M  V30 10 1 10 11
M  V30 11 2 11 12
M  V30 12 1 12 13
M  V30 13 1 12 14
M  V30 14 2 14 15
M  V30 15 1 8 16
M  V30 16 1 16 17
M  V30 17 1 17 18
M  V30 18 2 18 19
M  V30 19 1 19 20
M  V30 20 2 20 21
M  V30 21 1 21 22
M  V30 22 2 22 23
M  V30 23 1 5 24
M  V30 24 2 24 25
M  V30 25 1 25 2
M  V30 26 2 17 6
M  V30 27 1 23 18
M  V30 28 1 15 9
M  V30 29 1 3 26
M  V30 30 1 4 27
M  V30 31 1 7 28
M  V30 32 1 10 29
M  V30 33 1 11 30
M  V30 34 1 14 31
M  V30 35 1 15 32
M  V30 36 1 16 33
M  V30 37 1 19 34
M  V30 38 1 20 35
M  V30 39 1 22 36
M  V30 40 1 23 37
M  V30 41 1 24 38
M  V30 42 1 25 39
M  V30 END BOND
M  V30 END CTAB
M  END
>  <Dataset>  (168) 
ChEMBL_Kinases

>  <Ligand_Instance>  (168) 
nan

>  <PDB_ID>  (168) 
nan

>  <Standardized_SMILES>  (168) 
Fc1ccc(-c2cc(-c3ccc(Cl)cc3)[nH]c2-c2ccncc2)cc1

>  <Name>  (168) 
nan

>  <Pocket>  (168) 
nan

>  <ATP_Site>  (168) 
nan

>  <Peripheral>  (168) 
nan

>  <Num_H_Atoms_ProtBoundConf>  (168) 
nan

>  <Num_Resolved_Atoms>  (168) 
nan

>  <Num_Not_Resolved_Atoms>  (168) 
nan

$$$$
CHEMBL326944
     RDKit          3D

  0  0  0  0  0  0  0  0  0  0999 V3000
M  V30 BEGIN CTAB
M  V30 COUNTS 43 46 0 0 0
M  V30 BEGIN ATOM
M  V30 1 C -0.805530 -6.489212 1.525167 0
M  V30 2 C -0.153301 -5.425627 0.713881 0
M  V30 3 C -0.613555 -5.108150 -0.541974 0
M  V30 4 C -0.055943 -4.143713 -1.329963 0
M  V30 5 C 1.039422 -3.430280 -0.855947 0
M  V30 6 S 1.960767 -2.126476 -1.661949 0
M  V30 7 C 1.183365 -0.573423 -1.222566 0
M  V30 8 C 1.729022 -0.024606 -0.057836 0
M  V30 9 C 1.234816 1.186607 0.422752 0
M  V30 10 C 0.216067 1.787911 -0.290323 0
M  V30 11 C -0.280914 3.001930 0.189369 0
M  V30 12 C 0.299008 3.564309 1.408460 0
M  V30 13 C 1.352198 4.413845 1.529740 0
M  V30 14 Cl 2.110490 4.895920 0.038501 0
M  V30 15 C 1.734280 4.822008 2.791399 0
M  V30 16 C 1.084496 4.397352 3.928362 0
M  V30 17 C -0.001967 3.522522 3.822066 0
M  V30 18 C -0.375968 3.119294 2.542055 0
M  V30 19 Cl -1.759437 2.014980 2.524499 0
M  V30 20 C -1.301228 3.583215 -0.543630 0
M  V30 21 O -1.742393 4.672207 -0.107643 0
M  V30 22 N -1.757669 2.972085 -1.654593 0
M  V30 23 C -1.258870 1.793864 -2.099871 0
M  V30 24 N -0.264438 1.205781 -1.404830 0
M  V30 25 N 0.189360 0.056761 -1.879236 0
M  V30 26 C 1.521509 -3.738139 0.417234 0
M  V30 27 C 0.933087 -4.729908 1.204330 0
M  V30 28 C 1.454036 -5.049836 2.558322 0
M  V30 29 H -0.248864 -7.450171 1.392743 0
M  V30 30 H -0.848295 -6.262556 2.603101 0
M  V30 31 H -1.840237 -6.681487 1.197976 0
M  V30 32 H -1.461852 -5.630546 -0.960631 0
M  V30 33 H -0.343660 -3.828617 -2.314694 0
M  V30 34 H 2.517155 -0.447220 0.532081 0
M  V30 35 H 1.626609 1.641483 1.313719 0
M  V30 36 H 2.584851 5.504803 2.849135 0
M  V30 37 H 1.382596 4.715655 4.910938 0
M  V30 38 H -0.502082 3.197760 4.722477 0
M  V30 39 H -1.702769 1.392180 -3.007138 0
M  V30 40 H 2.377230 -3.242071 0.892448 0
M  V30 41 H 2.571422 -4.998409 2.608596 0
M  V30 42 H 1.169784 -6.083020 2.841437 0
M  V30 43 H 1.022366 -4.378389 3.340828 0
M  V30 END ATOM
M  V30 BEGIN BOND
M  V30 1 1 1 2
M  V30 2 2 2 3
M  V30 3 1 3 4
M  V30 4 2 4 5
M  V30 5 1 5 6
M  V30 6 1 6 7
M  V30 7 1 7 8
M  V30 8 2 8 9
M  V30 9 1 9 10
M  V30 10 2 10 11
M  V30 11 1 11 12
M  V30 12 2 12 13
M  V30 13 1 13 14
M  V30 14 1 13 15
M  V30 15 2 15 16
M  V30 16 1 16 17
M  V30 17 2 17 18
M  V30 18 1 18 19
M  V30 19 1 11 20
M  V30 20 2 20 21
M  V30 21 1 20 22
M  V30 22 2 22 23
M  V30 23 1 23 24
M  V30 24 1 24 25
M  V30 25 1 5 26
M  V30 26 2 26 27
M  V30 27 1 27 28
M  V30 28 1 27 2
M  V30 29 2 25 7
M  V30 30 1 24 10
M  V30 31 1 18 12
M  V30 32 1 1 29
M  V30 33 1 1 30
M  V30 34 1 1 31
M  V30 35 1 3 32
M  V30 36 1 4 33
M  V30 37 1 8 34
M  V30 38 1 9 35
M  V30 39 1 15 36
M  V30 40 1 16 37
M  V30 41 1 17 38
M  V30 42 1 23 39
M  V30 43 1 26 40
M  V30 44 1 28 41
M  V30 45 1 28 42
M  V30 46 1 28 43
M  V30 END BOND
M  V30 END CTAB
M  END
>  <Dataset>  (169) 
ChEMBL_Kinases

>  <Ligand_Instance>  (169) 
nan

>  <PDB_ID>  (169) 
nan

>  <Standardized_SMILES>  (169) 
Cc1ccc(Sc2ccc3c(-c4c(Cl)cccc4Cl)c(=O)ncn3n2)cc1C

>  <Name>  (169) 
nan

>  <Pocket>  (169) 
nan

>  <ATP_Site>  (169) 
nan

>  <Peripheral>  (169) 
nan

>  <Num_H_Atoms_ProtBoundConf>  (169) 
nan

>  <Num_Resolved_Atoms>  (169) 
nan

>  <Num_Not_Resolved_Atoms>  (169) 
nan

$$$$
CHEMBL3298304
     RDKit          3D

  0  0  0  0  0  0  0  0  0  0999 V3000
M  V30 BEGIN CTAB
M  V30 COUNTS 45 47 0 0 0
M  V30 BEGIN ATOM
M  V30 1 C 4.849071 -4.179597 -1.698690 0
M  V30 2 N 3.988504 -3.685313 -2.753692 0
M  V30 3 C 2.637339 -3.263681 -2.532183 0
M  V30 4 N 1.635863 -4.185756 -2.636982 0
M  V30 5 C 0.346370 -3.789053 -2.426905 0
M  V30 6 C 0.119028 -2.461448 -2.115922 0
M  V30 7 C 1.141511 -1.534053 -2.011988 0
M  V30 8 N 2.421877 -1.960218 -2.227614 0
M  V30 9 C 0.750311 -0.135256 -1.669772 0
M  V30 10 N -0.067427 -0.276374 -0.478619 0
M  V30 11 C 0.335998 0.283893 0.750505 0
M  V30 12 O 1.407986 0.790946 0.379438 0
M  V30 13 N -0.441915 0.158974 1.920117 0
M  V30 14 C -0.030119 0.724833 3.152424 0 CFG=2
M  V30 15 C 0.217489 -0.220994 4.282692 0
M  V30 16 O 1.216771 -1.147618 3.992012 0
M  V30 17 C -0.979557 1.805593 3.527601 0
M  V30 18 C -2.332460 1.526454 3.385520 0
M  V30 19 C -3.257907 2.502631 3.723080 0
M  V30 20 C -2.784179 3.709690 4.186089 0
M  V30 21 F -3.644544 4.718313 4.537574 0
M  V30 22 C -1.447119 4.019035 4.338996 0
M  V30 23 Cl -0.882903 5.566832 4.931564 0
M  V30 24 C -0.525907 3.024666 3.994506 0
M  V30 25 C -1.286391 -1.015210 -0.657976 0
M  V30 26 C -1.260817 -1.918172 -1.864712 0
M  V30 27 H 5.320121 -5.160000 -1.964854 0
M  V30 28 H 5.655142 -3.457280 -1.508899 0
M  V30 29 H 4.253127 -4.355651 -0.777514 0
M  V30 30 H 4.398168 -3.644189 -3.715242 0
M  V30 31 H -0.495539 -4.476488 -2.495908 0
M  V30 32 H 0.095507 0.214515 -2.479890 0
M  V30 33 H 1.632061 0.513710 -1.515626 0
M  V30 34 H -1.336290 -0.371712 1.830960 0
M  V30 35 H 0.957631 1.233080 2.953613 0
M  V30 36 H -0.691370 -0.719278 4.657128 0
M  V30 37 H 0.602201 0.391896 5.128781 0
M  V30 38 H 2.106626 -0.764724 3.963900 0
M  V30 39 H -2.750712 0.602474 3.029501 0
M  V30 40 H -4.350430 2.416308 3.660117 0
M  V30 41 H 0.545365 3.173209 4.079996 0
M  V30 42 H -1.593469 -1.612848 0.219922 0
M  V30 43 H -2.098757 -0.281147 -0.842754 0
M  V30 44 H -1.552223 -1.392868 -2.797666 0
M  V30 45 H -1.995197 -2.741128 -1.732481 0
M  V30 END ATOM
M  V30 BEGIN BOND
M  V30 1 1 1 2
M  V30 2 1 2 3
M  V30 3 2 3 4
M  V30 4 1 4 5
M  V30 5 2 5 6
M  V30 6 1 6 7
M  V30 7 2 7 8
M  V30 8 1 7 9
M  V30 9 1 9 10
M  V30 10 1 10 11
M  V30 11 2 11 12
M  V30 12 1 11 13
M  V30 13 1 13 14
M  V30 14 1 14 15
M  V30 15 1 15 16
M  V30 16 1 14 17
M  V30 17 2 17 18
M  V30 18 1 18 19
M  V30 19 2 19 20
M  V30 20 1 20 21
M  V30 21 1 20 22
M  V30 22 1 22 23
M  V30 23 2 22 24
M  V30 24 1 10 25
M  V30 25 1 25 26
M  V30 26 1 8 3
M  V30 27 1 24 17
M  V30 28 1 26 6
M  V30 29 1 1 27
M  V30 30 1 1 28
M  V30 31 1 1 29
M  V30 32 1 2 30
M  V30 33 1 5 31
M  V30 34 1 9 32
M  V30 35 1 9 33
M  V30 36 1 13 34
M  V30 37 1 14 35 CFG=3
M  V30 38 1 15 36
M  V30 39 1 15 37
M  V30 40 1 16 38
M  V30 41 1 18 39
M  V30 42 1 19 40
M  V30 43 1 24 41
M  V30 44 1 25 42
M  V30 45 1 25 43
M  V30 46 1 26 44
M  V30 47 1 26 45
M  V30 END BOND
M  V30 END CTAB
M  END
>  <Dataset>  (170) 
ChEMBL_Kinases

>  <Ligand_Instance>  (170) 
nan

>  <PDB_ID>  (170) 
nan

>  <Standardized_SMILES>  (170) 
CNc1ncc2c(n1)CN(C(=O)N[C@H](CO)c1ccc(F)c(Cl)c1)CC2

>  <Name>  (170) 
nan

>  <Pocket>  (170) 
nan

>  <ATP_Site>  (170) 
nan

>  <Peripheral>  (170) 
nan

>  <Num_H_Atoms_ProtBoundConf>  (170) 
nan

>  <Num_Resolved_Atoms>  (170) 
nan

>  <Num_Not_Resolved_Atoms>  (170) 
nan

$$$$
CHEMBL3298293
     RDKit          3D

  0  0  0  0  0  0  0  0  0  0999 V3000
M  V30 BEGIN CTAB
M  V30 COUNTS 50 53 0 0 0
M  V30 BEGIN ATOM
M  V30 1 C 3.610484 -6.465444 0.173095 0
M  V30 2 C 2.670841 -5.294866 -0.004428 0
M  V30 3 C 1.257660 -5.810657 0.168567 0
M  V30 4 O 0.341349 -4.747964 0.010693 0
M  V30 5 C 2.937541 -4.241069 1.036306 0
M  V30 6 C 3.149499 -2.872884 0.421686 0
M  V30 7 C 2.105691 -2.614400 -0.629587 0
M  V30 8 C 1.237102 -1.568847 -0.883706 0
M  V30 9 C 1.119157 -0.336132 -0.102987 0
M  V30 10 O 1.862956 -0.179438 0.900936 0
M  V30 11 N 0.182631 0.652042 -0.481005 0
M  V30 12 C 0.018114 1.886748 0.245682 0
M  V30 13 C 0.592025 3.132463 0.154169 0
M  V30 14 N 0.049744 3.925242 1.107436 0
M  V30 15 N -0.839221 3.268876 1.809438 0
M  V30 16 C -1.650627 3.742643 2.922293 0
M  V30 17 C -2.949657 4.315079 2.471417 0
M  V30 18 C -4.058879 3.473911 2.357862 0
M  V30 19 C -5.318601 3.865031 1.954102 0
M  V30 20 C -5.489815 5.216038 1.634340 0
M  V30 21 C -4.406234 6.078867 1.736880 0
M  V30 22 C -3.156322 5.657941 2.144201 0
M  V30 23 C -0.886110 2.011137 1.308249 0
M  V30 24 N 0.541051 -1.914695 -1.972045 0
M  V30 25 N 0.926167 -3.117788 -2.412082 0
M  V30 26 C 1.903097 -3.582731 -1.594850 0
M  V30 27 C 2.790346 -4.751017 -1.410212 0
M  V30 28 H 4.651323 -6.222325 -0.072369 0
M  V30 29 H 3.553507 -6.740230 1.254305 0
M  V30 30 H 3.278250 -7.317501 -0.446169 0
M  V30 31 H 1.097606 -6.301351 1.149575 0
M  V30 32 H 0.995551 -6.555259 -0.605749 0
M  V30 33 H -0.435792 -4.979323 0.577833 0
M  V30 34 H 3.854938 -4.504586 1.595311 0
M  V30 35 H 2.124404 -4.143477 1.791469 0
M  V30 36 H 3.075790 -2.147853 1.244951 0
M  V30 37 H 4.174811 -2.810427 0.004024 0
M  V30 38 H -0.443297 0.532707 -1.316479 0
M  V30 39 H 1.345878 3.330400 -0.598963 0
M  V30 40 H -1.914416 2.890289 3.610670 0
M  V30 41 H -1.092192 4.459894 3.562096 0
M  V30 42 H -3.900255 2.415705 2.614629 0
M  V30 43 H -6.113266 3.151036 1.895480 0
M  V30 44 H -6.464926 5.562381 1.312908 0
M  V30 45 H -4.581646 7.115299 1.480241 0
M  V30 46 H -2.315044 6.310444 2.227361 0
M  V30 47 H -1.543023 1.227828 1.695752 0
M  V30 48 H 0.620103 -3.708724 -3.218643 0
M  V30 49 H 2.565440 -5.568628 -2.106169 0
M  V30 50 H 3.827788 -4.365823 -1.549249 0
M  V30 END ATOM
M  V30 BEGIN BOND
M  V30 1 1 1 2
M  V30 2 1 2 3
M  V30 3 1 3 4
M  V30 4 1 2 5
M  V30 5 1 5 6
M  V30 6 1 6 7
M  V30 7 1 7 8
M  V30 8 1 8 9
M  V30 9 2 9 10
M  V30 10 1 9 11
M  V30 11 1 11 12
M  V30 12 1 12 13
M  V30 13 2 13 14
M  V30 14 1 14 15
M  V30 15 1 15 16
M  V30 16 1 16 17
M  V30 17 2 17 18
M  V30 18 1 18 19
M  V30 19 2 19 20
M  V30 20 1 20 21
M  V30 21 2 21 22
M  V30 22 1 15 23
M  V30 23 2 8 24
M  V30 24 1 24 25
M  V30 25 1 25 26
M  V30 26 1 26 27
M  V30 27 1 27 2
M  V30 28 2 26 7
M  V30 29 2 23 12
M  V30 30 1 22 17
M  V30 31 1 1 28
M  V30 32 1 1 29
M  V30 33 1 1 30
M  V30 34 1 3 31
M  V30 35 1 3 32
M  V30 36 1 4 33
M  V30 37 1 5 34
M  V30 38 1 5 35
M  V30 39 1 6 36
M  V30 40 1 6 37
M  V30 41 1 11 38
M  V30 42 1 13 39
M  V30 43 1 16 40
M  V30 44 1 16 41
M  V30 45 1 18 42
M  V30 46 1 19 43
M  V30 47 1 20 44
M  V30 48 1 21 45
M  V30 49 1 22 46
M  V30 50 1 23 47
M  V30 51 1 25 48
M  V30 52 1 27 49
M  V30 53 1 27 50
M  V30 END BOND
M  V30 END CTAB
M  END
>  <Dataset>  (171) 
ChEMBL_Kinases

>  <Ligand_Instance>  (171) 
nan

>  <PDB_ID>  (171) 
nan

>  <Standardized_SMILES>  (171) 
CC1(CO)CCc2c(C(=O)Nc3cnn(Cc4ccccc4)c3)n[nH]c2C1

>  <Name>  (171) 
nan

>  <Pocket>  (171) 
nan

>  <ATP_Site>  (171) 
nan

>  <Peripheral>  (171) 
nan

>  <Num_H_Atoms_ProtBoundConf>  (171) 
nan

>  <Num_Resolved_Atoms>  (171) 
nan

>  <Num_Not_Resolved_Atoms>  (171) 
nan

$$$$
CHEMBL3298291
     RDKit          3D

  0  0  0  0  0  0  0  0  0  0999 V3000
M  V30 BEGIN CTAB
M  V30 COUNTS 47 51 0 0 0
M  V30 BEGIN ATOM
M  V30 1 O 0.512451 -0.514959 2.008955 0
M  V30 2 C 0.618861 -1.768025 2.149901 0
M  V30 3 N 1.976530 -2.167802 2.294832 0
M  V30 4 C 2.821957 -1.003567 2.235184 0
M  V30 5 C 3.265276 -0.176598 3.228924 0
M  V30 6 N 4.023269 0.757226 2.654604 0
M  V30 7 N 4.091555 0.574088 1.337393 0
M  V30 8 C 4.794579 1.338997 0.325385 0
M  V30 9 C 3.961260 2.432798 -0.237255 0
M  V30 10 C 3.194000 2.127032 -1.341524 0
M  V30 11 C 2.385461 3.097990 -1.927763 0
M  V30 12 C 2.334254 4.397636 -1.412017 0
M  V30 13 C 3.124704 4.626823 -0.312693 0
M  V30 14 C 3.941680 3.702561 0.305039 0
M  V30 15 C 3.348625 -0.520158 1.052857 0
M  V30 16 C -0.506974 -2.699336 2.163662 0
M  V30 17 N -0.563304 -4.039638 2.301615 0
M  V30 18 N -1.841499 -4.433412 2.246803 0
M  V30 19 C -2.635984 -3.360752 2.072953 0
M  V30 20 C -1.805512 -2.254372 2.018323 0
M  V30 21 C -2.519082 -0.963575 1.827452 0
M  V30 22 C -3.460076 -1.011464 0.630667 0
M  V30 23 C -4.207088 -2.295552 0.625066 0
M  V30 24 C -4.005344 -3.136211 -0.635951 0
M  V30 25 C -5.332597 -2.590007 -0.272292 0
M  V30 26 C -4.096703 -3.078199 1.932574 0
M  V30 27 H 2.191593 -3.201251 2.420688 0
M  V30 28 H 3.001048 -0.323418 4.275322 0
M  V30 29 H 5.675396 1.841365 0.783692 0
M  V30 30 H 5.169979 0.635583 -0.445878 0
M  V30 31 H 3.154515 1.146479 -1.829168 0
M  V30 32 H 1.749298 2.927428 -2.806308 0
M  V30 33 H 1.725935 5.177511 -1.831045 0
M  V30 34 H 3.115286 5.620399 0.119106 0
M  V30 35 H 4.543588 3.939561 1.170064 0
M  V30 36 H 3.190585 -0.949050 0.063776 0
M  V30 37 H -2.213605 -5.411979 2.322506 0
M  V30 38 H -3.155438 -0.786565 2.741671 0
M  V30 39 H -1.783965 -0.147998 1.772173 0
M  V30 40 H -4.133643 -0.139040 0.692662 0
M  V30 41 H -2.825348 -0.863078 -0.280050 0
M  V30 42 H -3.480334 -2.671371 -1.494222 0
M  V30 43 H -3.777776 -4.203769 -0.513035 0
M  V30 44 H -5.773893 -1.855979 -0.952897 0
M  V30 45 H -6.067966 -3.343347 0.088728 0
M  V30 46 H -4.708104 -3.985249 1.815920 0
M  V30 47 H -4.427362 -2.392026 2.735196 0
M  V30 END ATOM
M  V30 BEGIN BOND
M  V30 1 2 1 2
M  V30 2 1 2 3
M  V30 3 1 3 4
M  V30 4 1 4 5
M  V30 5 2 5 6
M  V30 6 1 6 7
M  V30 7 1 7 8
M  V30 8 1 8 9
M  V30 9 2 9 10
M  V30 10 1 10 11
M  V30 11 2 11 12
M  V30 12 1 12 13
M  V30 13 2 13 14
M  V30 14 1 7 15
M  V30 15 1 2 16
M  V30 16 2 16 17
M  V30 17 1 17 18
M  V30 18 1 18 19
M  V30 19 2 19 20
M  V30 20 1 20 21
M  V30 21 1 21 22
M  V30 22 1 22 23
M  V30 23 1 23 24
M  V30 24 1 24 25
M  V30 25 1 23 26
M  V30 26 2 15 4
M  V30 27 1 20 16
M  V30 28 1 25 23
M  V30 29 1 14 9
M  V30 30 1 26 19
M  V30 31 1 3 27
M  V30 32 1 5 28
M  V30 33 1 8 29
M  V30 34 1 8 30
M  V30 35 1 10 31
M  V30 36 1 11 32
M  V30 37 1 12 33
M  V30 38 1 13 34
M  V30 39 1 14 35
M  V30 40 1 15 36
M  V30 41 1 18 37
M  V30 42 1 21 38
M  V30 43 1 21 39
M  V30 44 1 22 40
M  V30 45 1 22 41
M  V30 46 1 24 42
M  V30 47 1 24 43
M  V30 48 1 25 44
M  V30 49 1 25 45
M  V30 50 1 26 46
M  V30 51 1 26 47
M  V30 END BOND
M  V30 END CTAB
M  END
>  <Dataset>  (172) 
ChEMBL_Kinases

>  <Ligand_Instance>  (172) 
nan

>  <PDB_ID>  (172) 
nan

>  <Standardized_SMILES>  (172) 
O=C(Nc1cnn(Cc2ccccc2)c1)c1n[nH]c2c1CCC1(CC1)C2

>  <Name>  (172) 
nan

>  <Pocket>  (172) 
nan

>  <ATP_Site>  (172) 
nan

>  <Peripheral>  (172) 
nan

>  <Num_H_Atoms_ProtBoundConf>  (172) 
nan

>  <Num_Resolved_Atoms>  (172) 
nan

>  <Num_Not_Resolved_Atoms>  (172) 
nan

$$$$
CHEMBL3298290
     RDKit          3D

  0  0  0  0  0  0  0  0  0  0999 V3000
M  V30 BEGIN CTAB
M  V30 COUNTS 43 46 0 0 0
M  V30 BEGIN ATOM
M  V30 1 O 0.227034 -0.824026 1.397130 0
M  V30 2 C 0.531548 -2.058403 1.400935 0
M  V30 3 N 1.910311 -2.397373 1.408734 0
M  V30 4 C 2.719574 -1.196098 1.410802 0
M  V30 5 C 3.220453 -0.442504 2.471331 0
M  V30 6 N 3.913223 0.580369 1.900243 0
M  V30 7 N 3.854914 0.481239 0.580794 0
M  V30 8 C 4.505073 1.437555 -0.329175 0
M  V30 9 C 3.548349 2.555019 -0.645337 0
M  V30 10 C 2.673899 2.502628 -1.723864 0
M  V30 11 C 1.806330 3.564373 -1.974993 0
M  V30 12 C 1.804982 4.674914 -1.160020 0
M  V30 13 C 2.665434 4.724936 -0.099878 0
M  V30 14 C 3.534450 3.679328 0.164834 0
M  V30 15 C 3.125339 -0.605231 0.211334 0
M  V30 16 C -0.483183 -3.120530 1.397554 0
M  V30 17 N -0.304752 -4.440531 1.400692 0
M  V30 18 N -1.477995 -5.069796 1.395778 0
M  V30 19 C -2.462008 -4.150476 1.389216 0
M  V30 20 C -1.848148 -2.913782 1.390250 0
M  V30 21 C -2.710363 -1.694031 1.383619 0
M  V30 22 C -3.799497 -1.769196 2.416162 0
M  V30 23 C -4.265603 -3.192252 2.625651 0
M  V30 24 F -3.491854 -3.733458 3.649351 0
M  V30 25 F -5.608515 -3.223747 2.941495 0
M  V30 26 C -3.962589 -4.005279 1.381478 0
M  V30 27 H 2.232892 -3.406873 1.412250 0
M  V30 28 H 3.032435 -0.711766 3.503346 0
M  V30 29 H 5.437869 1.821527 0.102453 0
M  V30 30 H 4.694625 0.872361 -1.263258 0
M  V30 31 H 2.699619 1.625226 -2.338401 0
M  V30 32 H 1.141666 3.486934 -2.822453 0
M  V30 33 H 1.116076 5.508510 -1.366416 0
M  V30 34 H 2.632358 5.613254 0.513960 0
M  V30 35 H 4.203932 3.716765 0.988591 0
M  V30 36 H 2.907727 -0.937917 -0.802765 0
M  V30 37 H -1.754399 -6.071873 1.396054 0
M  V30 38 H -3.170105 -1.661701 0.352174 0
M  V30 39 H -2.115266 -0.772583 1.448333 0
M  V30 40 H -4.643316 -1.093387 2.116134 0
M  V30 41 H -3.341535 -1.367547 3.366531 0
M  V30 42 H -4.253406 -3.382559 0.511222 0
M  V30 43 H -4.472610 -4.981399 1.386920 0
M  V30 END ATOM
M  V30 BEGIN BOND
M  V30 1 2 1 2
M  V30 2 1 2 3
M  V30 3 1 3 4
M  V30 4 1 4 5
M  V30 5 2 5 6
M  V30 6 1 6 7
M  V30 7 1 7 8
M  V30 8 1 8 9
M  V30 9 2 9 10
M  V30 10 1 10 11
M  V30 11 2 11 12
M  V30 12 1 12 13
M  V30 13 2 13 14
M  V30 14 1 7 15
M  V30 15 1 2 16
M  V30 16 2 16 17
M  V30 17 1 17 18
M  V30 18 1 18 19
M  V30 19 2 19 20
M  V30 20 1 20 21
M  V30 21 1 21 22
M  V30 22 1 22 23
M  V30 23 1 23 24
M  V30 24 1 23 25
M  V30 25 1 23 26
M  V30 26 2 15 4
M  V30 27 1 20 16
M  V30 28 1 14 9
M  V30 29 1 26 19
M  V30 30 1 3 27
M  V30 31 1 5 28
M  V30 32 1 8 29
M  V30 33 1 8 30
M  V30 34 1 10 31
M  V30 35 1 11 32
M  V30 36 1 12 33
M  V30 37 1 13 34
M  V30 38 1 14 35
M  V30 39 1 15 36
M  V30 40 1 18 37
M  V30 41 1 21 38
M  V30 42 1 21 39
M  V30 43 1 22 40
M  V30 44 1 22 41
M  V30 45 1 26 42
M  V30 46 1 26 43
M  V30 END BOND
M  V30 END CTAB
M  END
>  <Dataset>  (173) 
ChEMBL_Kinases

>  <Ligand_Instance>  (173) 
nan

>  <PDB_ID>  (173) 
nan

>  <Standardized_SMILES>  (173) 
O=C(Nc1cnn(Cc2ccccc2)c1)c1n[nH]c2c1CCC(F)(F)C2

>  <Name>  (173) 
nan

>  <Pocket>  (173) 
nan

>  <ATP_Site>  (173) 
nan

>  <Peripheral>  (173) 
nan

>  <Num_H_Atoms_ProtBoundConf>  (173) 
nan

>  <Num_Resolved_Atoms>  (173) 
nan

>  <Num_Not_Resolved_Atoms>  (173) 
nan

$$$$
CHEMBL3298289
     RDKit          3D

  0  0  0  0  0  0  0  0  0  0999 V3000
M  V30 BEGIN CTAB
M  V30 COUNTS 49 52 0 0 0
M  V30 BEGIN ATOM
M  V30 1 C 1.667386 -4.609353 -1.224301 0
M  V30 2 C 1.746899 -3.387649 -2.099550 0
M  V30 3 C 0.698198 -3.501747 -3.174531 0
M  V30 4 C 3.097630 -3.379797 -2.792819 0
M  V30 5 C 4.192142 -3.425708 -1.750556 0
M  V30 6 C 4.021255 -2.281017 -0.819058 0
M  V30 7 N 4.954240 -1.659492 -0.102358 0
M  V30 8 N 4.333208 -0.692873 0.583117 0
M  V30 9 C 3.017661 -0.715671 0.291411 0
M  V30 10 C 2.157717 0.263067 0.936778 0
M  V30 11 O 2.634332 1.097775 1.754044 0
M  V30 12 N 0.766366 0.390670 0.738508 0
M  V30 13 C -0.040541 1.361410 1.389237 0
M  V30 14 C -0.388819 2.645476 1.035181 0
M  V30 15 N -1.182137 3.181610 1.981889 0
M  V30 16 N -1.374120 2.288079 2.962019 0
M  V30 17 C -2.160704 2.475849 4.152991 0
M  V30 18 C -3.572320 2.080497 3.999057 0
M  V30 19 C -4.101947 0.829816 4.243495 0
M  V30 20 C -5.439302 0.539655 4.074513 0
M  V30 21 C -6.269379 1.568527 3.638199 0
M  V30 22 C -5.759201 2.842124 3.383864 0
M  V30 23 C -4.407007 3.113407 3.560784 0
M  V30 24 C -0.683774 1.176984 2.611250 0
M  V30 25 C 2.788558 -1.714463 -0.597032 0
M  V30 26 C 1.527003 -2.164250 -1.234534 0
M  V30 27 H 1.927498 -5.528132 -1.766360 0
M  V30 28 H 2.316893 -4.507137 -0.331628 0
M  V30 29 H 0.608067 -4.660192 -0.836857 0
M  V30 30 H -0.314358 -3.258913 -2.808456 0
M  V30 31 H 0.962806 -2.920807 -4.094650 0
M  V30 32 H 0.663058 -4.565597 -3.491027 0
M  V30 33 H 3.138479 -4.336223 -3.355686 0
M  V30 34 H 3.209240 -2.526141 -3.462831 0
M  V30 35 H 5.151578 -3.382391 -2.308994 0
M  V30 36 H 4.164745 -4.356391 -1.182830 0
M  V30 37 H 5.979482 -1.848026 -0.048783 0
M  V30 38 H 0.281289 -0.242442 0.089505 0
M  V30 39 H -0.058434 3.122770 0.126712 0
M  V30 40 H -1.734145 1.870144 4.997810 0
M  V30 41 H -2.078020 3.535683 4.513269 0
M  V30 42 H -3.372221 0.094074 4.580792 0
M  V30 43 H -5.811186 -0.456958 4.278602 0
M  V30 44 H -7.326680 1.392490 3.489947 0
M  V30 45 H -6.432931 3.601906 3.050380 0
M  V30 46 H -4.078946 4.127678 3.343686 0
M  V30 47 H -0.674035 0.290791 3.245240 0
M  V30 48 H 1.050043 -1.375583 -1.870642 0
M  V30 49 H 0.797337 -2.500980 -0.453198 0
M  V30 END ATOM
M  V30 BEGIN BOND
M  V30 1 1 1 2
M  V30 2 1 2 3
M  V30 3 1 2 4
M  V30 4 1 4 5
M  V30 5 1 5 6
M  V30 6 1 6 7
M  V30 7 1 7 8
M  V30 8 2 8 9
M  V30 9 1 9 10
M  V30 10 2 10 11
M  V30 11 1 10 12
M  V30 12 1 12 13
M  V30 13 1 13 14
M  V30 14 2 14 15
M  V30 15 1 15 16
M  V30 16 1 16 17
M  V30 17 1 17 18
M  V30 18 2 18 19
M  V30 19 1 19 20
M  V30 20 2 20 21
M  V30 21 1 21 22
M  V30 22 2 22 23
M  V30 23 1 16 24
M  V30 24 1 9 25
M  V30 25 1 25 26
M  V30 26 1 26 2
M  V30 27 2 25 6
M  V30 28 2 24 13
M  V30 29 1 23 18
M  V30 30 1 1 27
M  V30 31 1 1 28
M  V30 32 1 1 29
M  V30 33 1 3 30
M  V30 34 1 3 31
M  V30 35 1 3 32
M  V30 36 1 4 33
M  V30 37 1 4 34
M  V30 38 1 5 35
M  V30 39 1 5 36
M  V30 40 1 7 37
M  V30 41 1 12 38
M  V30 42 1 14 39
M  V30 43 1 17 40
M  V30 44 1 17 41
M  V30 45 1 19 42
M  V30 46 1 20 43
M  V30 47 1 21 44
M  V30 48 1 22 45
M  V30 49 1 23 46
M  V30 50 1 24 47
M  V30 51 1 26 48
M  V30 52 1 26 49
M  V30 END BOND
M  V30 END CTAB
M  END
>  <Dataset>  (174) 
ChEMBL_Kinases

>  <Ligand_Instance>  (174) 
nan

>  <PDB_ID>  (174) 
nan

>  <Standardized_SMILES>  (174) 
CC1(C)CCc2[nH]nc(C(=O)Nc3cnn(Cc4ccccc4)c3)c2C1

>  <Name>  (174) 
nan

>  <Pocket>  (174) 
nan

>  <ATP_Site>  (174) 
nan

>  <Peripheral>  (174) 
nan

>  <Num_H_Atoms_ProtBoundConf>  (174) 
nan

>  <Num_Resolved_Atoms>  (174) 
nan

>  <Num_Not_Resolved_Atoms>  (174) 
nan

$$$$
CHEMBL3298288
     RDKit          3D

  0  0  0  0  0  0  0  0  0  0999 V3000
M  V30 BEGIN CTAB
M  V30 COUNTS 49 52 0 0 0
M  V30 BEGIN ATOM
M  V30 1 C 1.012360 -5.204453 0.155404 0
M  V30 2 C 0.664737 -4.574631 -1.193785 0
M  V30 3 C -0.064127 -5.644058 -1.981046 0
M  V30 4 C -0.268357 -3.416630 -1.040236 0
M  V30 5 C 0.368083 -2.087265 -1.421403 0
M  V30 6 C 1.695239 -2.029838 -0.735228 0
M  V30 7 C 2.415638 -1.194431 0.092921 0
M  V30 8 C 1.870344 0.081128 0.547136 0
M  V30 9 O 0.719451 0.436016 0.181429 0
M  V30 10 N 2.530578 0.998081 1.391870 0
M  V30 11 C 1.668228 2.136453 1.612206 0
M  V30 12 C 1.474868 3.350564 0.972706 0
M  V30 13 N 0.525754 3.998048 1.650189 0
M  V30 14 N 0.109443 3.260086 2.681604 0
M  V30 15 C -0.919449 3.622443 3.659998 0
M  V30 16 C -2.241981 3.135466 3.128983 0
M  V30 17 C -2.716173 1.880333 3.419937 0
M  V30 18 C -3.939990 1.475519 2.908139 0
M  V30 19 C -4.708748 2.311460 2.100975 0
M  V30 20 C -4.231520 3.589577 1.801500 0
M  V30 21 C -3.013400 3.944621 2.332247 0
M  V30 22 C 0.805186 2.085140 2.688128 0
M  V30 23 N 3.593254 -1.739082 0.364302 0
M  V30 24 N 3.714974 -2.927356 -0.249034 0
M  V30 25 C 2.552401 -3.119530 -0.930496 0
M  V30 26 C 2.000618 -4.206183 -1.817921 0
M  V30 27 H 0.285495 -5.987884 0.436461 0
M  V30 28 H 2.020882 -5.697547 0.111370 0
M  V30 29 H 1.093114 -4.372272 0.865199 0
M  V30 30 H -1.138773 -5.598287 -1.639125 0
M  V30 31 H -0.081945 -5.446852 -3.059053 0
M  V30 32 H 0.270411 -6.673496 -1.728780 0
M  V30 33 H -1.196718 -3.510873 -1.641792 0
M  V30 34 H -0.591689 -3.366272 0.023012 0
M  V30 35 H -0.288809 -1.279156 -1.046150 0
M  V30 36 H 0.459743 -2.016972 -2.516014 0
M  V30 37 H 3.500240 0.742522 1.724618 0
M  V30 38 H 2.064897 3.578756 0.098390 0
M  V30 39 H -0.711985 3.058152 4.578296 0
M  V30 40 H -0.927527 4.693781 3.851317 0
M  V30 41 H -2.088130 1.265966 4.048829 0
M  V30 42 H -4.213339 0.475633 3.198957 0
M  V30 43 H -5.657668 1.930427 1.734050 0
M  V30 44 H -4.838224 4.221332 1.176943 0
M  V30 45 H -2.695943 4.937984 2.069268 0
M  V30 46 H 0.635726 1.315831 3.444860 0
M  V30 47 H 4.514254 -3.620673 -0.248207 0
M  V30 48 H 2.648672 -5.085300 -1.714025 0
M  V30 49 H 1.912810 -3.833730 -2.843353 0
M  V30 END ATOM
M  V30 BEGIN BOND
M  V30 1 1 1 2
M  V30 2 1 2 3
M  V30 3 1 2 4
M  V30 4 1 4 5
M  V30 5 1 5 6
M  V30 6 1 6 7
M  V30 7 1 7 8
M  V30 8 2 8 9
M  V30 9 1 8 10
M  V30 10 1 10 11
M  V30 11 1 11 12
M  V30 12 2 12 13
M  V30 13 1 13 14
M  V30 14 1 14 15
M  V30 15 1 15 16
M  V30 16 2 16 17
M  V30 17 1 17 18
M  V30 18 2 18 19
M  V30 19 1 19 20
M  V30 20 2 20 21
M  V30 21 1 14 22
M  V30 22 2 7 23
M  V30 23 1 23 24
M  V30 24 1 24 25
M  V30 25 1 25 26
M  V30 26 1 26 2
M  V30 27 2 25 6
M  V30 28 2 22 11
M  V30 29 1 21 16
M  V30 30 1 1 27
M  V30 31 1 1 28
M  V30 32 1 1 29
M  V30 33 1 3 30
M  V30 34 1 3 31
M  V30 35 1 3 32
M  V30 36 1 4 33
M  V30 37 1 4 34
M  V30 38 1 5 35
M  V30 39 1 5 36
M  V30 40 1 10 37
M  V30 41 1 12 38
M  V30 42 1 15 39
M  V30 43 1 15 40
M  V30 44 1 17 41
M  V30 45 1 18 42
M  V30 46 1 19 43
M  V30 47 1 20 44
M  V30 48 1 21 45
M  V30 49 1 22 46
M  V30 50 1 24 47
M  V30 51 1 26 48
M  V30 52 1 26 49
M  V30 END BOND
M  V30 END CTAB
M  END
>  <Dataset>  (175) 
ChEMBL_Kinases

>  <Ligand_Instance>  (175) 
nan

>  <PDB_ID>  (175) 
nan

>  <Standardized_SMILES>  (175) 
CC1(C)CCc2c(C(=O)Nc3cnn(Cc4ccccc4)c3)n[nH]c2C1

>  <Name>  (175) 
nan

>  <Pocket>  (175) 
nan

>  <ATP_Site>  (175) 
nan

>  <Peripheral>  (175) 
nan

>  <Num_H_Atoms_ProtBoundConf>  (175) 
nan

>  <Num_Resolved_Atoms>  (175) 
nan

>  <Num_Not_Resolved_Atoms>  (175) 
nan

$$$$
CHEMBL3298287
     RDKit          3D

  0  0  0  0  0  0  0  0  0  0999 V3000
M  V30 BEGIN CTAB
M  V30 COUNTS 46 49 0 0 0
M  V30 BEGIN ATOM
M  V30 1 C -5.121764 -3.802633 -2.589616 0
M  V30 2 C -3.835056 -3.353416 -1.932775 0
M  V30 3 C -3.974407 -1.878751 -1.621139 0
M  V30 4 C -2.688345 -1.305056 -1.063406 0
M  V30 5 C -1.906078 -2.336533 -0.336715 0
M  V30 6 C -0.693109 -2.073177 0.243410 0
M  V30 7 C 0.243164 -0.971810 0.427892 0
M  V30 8 O 1.367379 -0.983113 1.039860 0
M  V30 9 N 0.032430 0.336597 -0.069222 0
M  V30 10 C 1.154318 1.174862 0.292762 0
M  V30 11 C 2.255672 1.290496 -0.543512 0
M  V30 12 N 3.141951 2.139038 0.056362 0
M  V30 13 N 2.627309 2.538040 1.210405 0
M  V30 14 C 3.182334 3.443534 2.216341 0
M  V30 15 C 3.971960 2.609577 3.187141 0
M  V30 16 C 3.318491 2.099690 4.291009 0
M  V30 17 C 3.999124 1.321166 5.222681 0
M  V30 18 C 5.349522 1.071323 5.013297 0
M  V30 19 C 6.023535 1.570829 3.916699 0
M  V30 20 C 5.313399 2.348675 2.999355 0
M  V30 21 C 1.405811 1.976330 1.407617 0
M  V30 22 N -0.320930 -3.267284 0.795426 0
M  V30 23 N -1.228943 -4.171015 0.568443 0
M  V30 24 C -2.250979 -3.656320 -0.136452 0
M  V30 25 C -3.535756 -4.158126 -0.685511 0
M  V30 26 H -5.681939 -2.913398 -2.990216 0
M  V30 27 H -4.841639 -4.429980 -3.460676 0
M  V30 28 H -5.742833 -4.414267 -1.901634 0
M  V30 29 H -2.974452 -3.495927 -2.609397 0
M  V30 30 H -4.316465 -1.372476 -2.545123 0
M  V30 31 H -4.790182 -1.777090 -0.875199 0
M  V30 32 H -2.122309 -0.918906 -1.925858 0
M  V30 33 H -2.932656 -0.503102 -0.350984 0
M  V30 34 H -0.827984 0.579110 -0.606008 0
M  V30 35 H 2.424288 0.813180 -1.505552 0
M  V30 36 H 3.944699 4.075498 1.686860 0
M  V30 37 H 2.394375 4.029848 2.695199 0
M  V30 38 H 2.279943 2.256939 4.507506 0
M  V30 39 H 3.595581 0.873979 6.114655 0
M  V30 40 H 5.951329 0.473305 5.693488 0
M  V30 41 H 7.090404 1.364234 3.765910 0
M  V30 42 H 5.835533 2.745256 2.134557 0
M  V30 43 H 0.687393 2.039336 2.186364 0
M  V30 44 H -1.195375 -5.175871 0.881427 0
M  V30 45 H -3.394693 -5.199808 -1.000635 0
M  V30 46 H -4.325752 -4.059251 0.082866 0
M  V30 END ATOM
M  V30 BEGIN BOND
M  V30 1 1 1 2
M  V30 2 1 2 3
M  V30 3 1 3 4
M  V30 4 1 4 5
M  V30 5 1 5 6
M  V30 6 1 6 7
M  V30 7 2 7 8
M  V30 8 1 7 9
M  V30 9 1 9 10
M  V30 10 1 10 11
M  V30 11 2 11 12
M  V30 12 1 12 13
M  V30 13 1 13 14
M  V30 14 1 14 15
M  V30 15 2 15 16
M  V30 16 1 16 17
M  V30 17 2 17 18
M  V30 18 1 18 19
M  V30 19 2 19 20
M  V30 20 1 13 21
M  V30 21 2 6 22
M  V30 22 1 22 23
M  V30 23 1 23 24
M  V30 24 1 24 25
M  V30 25 1 25 2
M  V30 26 2 24 5
M  V30 27 2 21 10
M  V30 28 1 20 15
M  V30 29 1 1 26
M  V30 30 1 1 27
M  V30 31 1 1 28
M  V30 32 1 2 29
M  V30 33 1 3 30
M  V30 34 1 3 31
M  V30 35 1 4 32
M  V30 36 1 4 33
M  V30 37 1 9 34
M  V30 38 1 11 35
M  V30 39 1 14 36
M  V30 40 1 14 37
M  V30 41 1 16 38
M  V30 42 1 17 39
M  V30 43 1 18 40
M  V30 44 1 19 41
M  V30 45 1 20 42
M  V30 46 1 21 43
M  V30 47 1 23 44
M  V30 48 1 25 45
M  V30 49 1 25 46
M  V30 END BOND
M  V30 END CTAB
M  END
>  <Dataset>  (176) 
ChEMBL_Kinases

>  <Ligand_Instance>  (176) 
nan

>  <PDB_ID>  (176) 
nan

>  <Standardized_SMILES>  (176) 
CC1CCc2c(C(=O)Nc3cnn(Cc4ccccc4)c3)n[nH]c2C1

>  <Name>  (176) 
nan

>  <Pocket>  (176) 
nan

>  <ATP_Site>  (176) 
nan

>  <Peripheral>  (176) 
nan

>  <Num_H_Atoms_ProtBoundConf>  (176) 
nan

>  <Num_Resolved_Atoms>  (176) 
nan

>  <Num_Not_Resolved_Atoms>  (176) 
nan

$$$$
CHEMBL3298286
     RDKit          3D

  0  0  0  0  0  0  0  0  0  0999 V3000
M  V30 BEGIN CTAB
M  V30 COUNTS 51 55 0 0 0
M  V30 BEGIN ATOM
M  V30 1 N 8.737501 -1.721882 -2.217299 0
M  V30 2 C 8.057117 -1.323554 -1.379492 0
M  V30 3 C 7.199821 -0.825511 -0.359181 0
M  V30 4 C 7.251188 -1.391645 0.911087 0
M  V30 5 C 6.423434 -0.919950 1.919511 0
M  V30 6 C 5.580268 0.106988 1.590716 0
M  V30 7 C 5.515977 0.680352 0.337140 0
M  V30 8 C 4.542091 1.805073 0.110470 0
M  V30 9 N 3.258256 1.261175 -0.318107 0
M  V30 10 C 2.315414 0.935411 0.594778 0
M  V30 11 C 1.237137 0.456847 -0.136977 0
M  V30 12 N 0.039194 0.012189 0.489836 0
M  V30 13 C -1.001202 0.919071 0.730532 0
M  V30 14 O -0.645127 2.073032 0.308180 0
M  V30 15 C -2.308616 0.769617 1.333556 0
M  V30 16 N -3.026113 1.900700 1.496293 0
M  V30 17 N -4.203568 1.591319 2.067187 0
M  V30 18 C -4.269625 0.288807 2.279393 0
M  V30 19 C -3.080892 -0.232674 1.818987 0
M  V30 20 C -2.848417 -1.665812 1.900743 0
M  V30 21 C -4.104061 -2.497328 1.683786 0
M  V30 22 C -4.168577 -2.934705 0.249406 0
M  V30 23 C -4.275018 -1.860259 -0.641963 0
M  V30 24 N -4.325666 -2.367149 -1.887013 0
M  V30 25 N -4.256322 -3.692926 -1.806018 0
M  V30 26 C -4.159115 -4.085117 -0.518792 0
M  V30 27 C -5.381706 -1.822755 1.995219 0
M  V30 28 C -5.290196 -0.610200 2.873984 0
M  V30 29 C 1.568951 0.509844 -1.487519 0
M  V30 30 N 2.829292 1.014757 -1.544452 0
M  V30 31 C 6.336028 0.215829 -0.669996 0
M  V30 32 H 7.942145 -2.205009 1.107788 0
M  V30 33 H 6.489714 -1.380372 2.888452 0
M  V30 34 H 4.939454 0.475795 2.363424 0
M  V30 35 H 4.974287 2.421919 -0.706405 0
M  V30 36 H 4.450100 2.447367 0.989530 0
M  V30 37 H 2.372289 1.022604 1.675591 0
M  V30 38 H -0.135643 -0.964042 0.803081 0
M  V30 39 H -4.943998 2.286517 2.302013 0
M  V30 40 H -2.174115 -1.977233 1.078404 0
M  V30 41 H -2.448774 -1.989513 2.901057 0
M  V30 42 H -4.008947 -3.447703 2.261735 0
M  V30 43 H -4.324410 -0.778143 -0.585576 0
M  V30 44 H -4.265370 -4.437857 -2.540078 0
M  V30 45 H -4.080350 -4.985049 0.051448 0
M  V30 46 H -6.148474 -2.518157 2.440713 0
M  V30 47 H -5.892606 -1.465424 1.052300 0
M  V30 48 H -4.969859 -0.938347 3.906496 0
M  V30 49 H -6.275756 -0.141428 2.955919 0
M  V30 50 H 0.911187 0.196429 -2.291301 0
M  V30 51 H 6.289384 0.661392 -1.653929 0
M  V30 END ATOM
M  V30 BEGIN BOND
M  V30 1 3 1 2
M  V30 2 1 2 3
M  V30 3 2 3 4
M  V30 4 1 4 5
M  V30 5 2 5 6
M  V30 6 1 6 7
M  V30 7 1 7 8
M  V30 8 1 8 9
M  V30 9 1 9 10
M  V30 10 2 10 11
M  V30 11 1 11 12
M  V30 12 1 12 13
M  V30 13 2 13 14
M  V30 14 1 13 15
M  V30 15 2 15 16
M  V30 16 1 16 17
M  V30 17 1 17 18
M  V30 18 2 18 19
M  V30 19 1 19 20
M  V30 20 1 20 21
M  V30 21 1 21 22
M  V30 22 1 22 23
M  V30 23 2 23 24
M  V30 24 1 24 25
M  V30 25 1 25 26
M  V30 26 1 21 27
M  V30 27 1 27 28
M  V30 28 1 11 29
M  V30 29 2 29 30
M  V30 30 2 7 31
M  V30 31 1 31 3
M  V30 32 1 30 9
M  V30 33 1 19 15
M  V30 34 2 26 22
M  V30 35 1 28 18
M  V30 36 1 4 32
M  V30 37 1 5 33
M  V30 38 1 6 34
M  V30 39 1 8 35
M  V30 40 1 8 36
M  V30 41 1 10 37
M  V30 42 1 12 38
M  V30 43 1 17 39
M  V30 44 1 20 40
M  V30 45 1 20 41
M  V30 46 1 21 42
M  V30 47 1 23 43
M  V30 48 1 25 44
M  V30 49 1 26 45
M  V30 50 1 27 46
M  V30 51 1 27 47
M  V30 52 1 28 48
M  V30 53 1 28 49
M  V30 54 1 29 50
M  V30 55 1 31 51
M  V30 END BOND
M  V30 END CTAB
M  END
>  <Dataset>  (177) 
ChEMBL_Kinases

>  <Ligand_Instance>  (177) 
nan

>  <PDB_ID>  (177) 
nan

>  <Standardized_SMILES>  (177) 
N#Cc1cccc(Cn2cc(NC(=O)c3n[nH]c4c3CC(c3cn[nH]c3)CC4)cn2)c1

>  <Name>  (177) 
nan

>  <Pocket>  (177) 
nan

>  <ATP_Site>  (177) 
nan

>  <Peripheral>  (177) 
nan

>  <Num_H_Atoms_ProtBoundConf>  (177) 
nan

>  <Num_Resolved_Atoms>  (177) 
nan

>  <Num_Not_Resolved_Atoms>  (177) 
nan

$$$$
CHEMBL3298285
     RDKit          3D

  0  0  0  0  0  0  0  0  0  0999 V3000
M  V30 BEGIN CTAB
M  V30 COUNTS 44 47 0 0 0
M  V30 BEGIN ATOM
M  V30 1 N -1.819392 -7.487004 0.854982 0
M  V30 2 C -1.359760 -6.649082 0.184790 0
M  V30 3 C -0.801401 -5.626709 -0.658290 0
M  V30 4 C 0.556255 -5.602539 -0.916537 0
M  V30 5 C 1.085094 -4.620332 -1.725163 0
M  V30 6 C 0.204877 -3.695488 -2.242273 0
M  V30 7 C -1.173166 -3.693843 -1.999204 0
M  V30 8 C -1.977485 -2.600914 -2.652154 0
M  V30 9 N -2.041482 -1.438087 -1.754113 0
M  V30 10 C -1.134732 -0.422461 -1.755611 0
M  V30 11 C -1.591384 0.441897 -0.754171 0
M  V30 12 N -0.961248 1.673976 -0.372428 0
M  V30 13 C -0.016401 1.427989 0.655385 0
M  V30 14 O 0.057800 0.211082 0.996637 0
M  V30 15 C 0.787025 2.515587 1.247236 0
M  V30 16 N 0.833918 3.830091 1.009737 0
M  V30 17 N 1.741049 4.379446 1.825640 0
M  V30 18 C 2.296842 3.435111 2.604086 0
M  V30 19 C 1.699673 2.245591 2.246998 0
M  V30 20 C 2.206616 1.068162 3.025740 0
M  V30 21 C 2.112116 1.408260 4.502936 0
M  V30 22 C 2.825012 2.667193 4.869421 0
M  V30 23 C 3.330098 3.440375 3.668357 0
M  V30 24 C -2.742623 -0.079041 -0.193296 0
M  V30 25 N -2.987554 -1.243059 -0.839974 0
M  V30 26 C -1.668649 -4.692213 -1.184726 0
M  V30 27 H 1.218206 -6.345243 -0.493301 0
M  V30 28 H 2.141729 -4.548225 -1.964940 0
M  V30 29 H 0.623109 -2.926082 -2.876392 0
M  V30 30 H -2.999764 -2.959108 -2.791924 0
M  V30 31 H -1.463123 -2.297098 -3.571479 0
M  V30 32 H -0.268841 -0.272960 -2.353714 0
M  V30 33 H -1.116264 2.635765 -0.741521 0
M  V30 34 H 1.979208 5.396271 1.850081 0
M  V30 35 H 1.538568 0.182592 2.890989 0
M  V30 36 H 3.219448 0.785009 2.703886 0
M  V30 37 H 1.016288 1.495982 4.714656 0
M  V30 38 H 2.469435 0.519800 5.058289 0
M  V30 39 H 3.668803 2.373133 5.545079 0
M  V30 40 H 2.159737 3.353204 5.436647 0
M  V30 41 H 3.603250 4.461785 3.971209 0
M  V30 42 H 4.192429 2.857626 3.271815 0
M  V30 43 H -3.307604 0.382123 0.603316 0
M  V30 44 H -2.737827 -4.659383 -1.019115 0
M  V30 END ATOM
M  V30 BEGIN BOND
M  V30 1 3 1 2
M  V30 2 1 2 3
M  V30 3 2 3 4
M  V30 4 1 4 5
M  V30 5 2 5 6
M  V30 6 1 6 7
M  V30 7 1 7 8
M  V30 8 1 8 9
M  V30 9 1 9 10
M  V30 10 2 10 11
M  V30 11 1 11 12
M  V30 12 1 12 13
M  V30 13 2 13 14
M  V30 14 1 13 15
M  V30 15 2 15 16
M  V30 16 1 16 17
M  V30 17 1 17 18
M  V30 18 2 18 19
M  V30 19 1 19 20
M  V30 20 1 20 21
M  V30 21 1 21 22
M  V30 22 1 22 23
M  V30 23 1 11 24
M  V30 24 2 24 25
M  V30 25 2 7 26
M  V30 26 1 26 3
M  V30 27 1 25 9
M  V30 28 1 19 15
M  V30 29 1 23 18
M  V30 30 1 4 27
M  V30 31 1 5 28
M  V30 32 1 6 29
M  V30 33 1 8 30
M  V30 34 1 8 31
M  V30 35 1 10 32
M  V30 36 1 12 33
M  V30 37 1 17 34
M  V30 38 1 20 35
M  V30 39 1 20 36
M  V30 40 1 21 37
M  V30 41 1 21 38
M  V30 42 1 22 39
M  V30 43 1 22 40
M  V30 44 1 23 41
M  V30 45 1 23 42
M  V30 46 1 24 43
M  V30 47 1 26 44
M  V30 END BOND
M  V30 END CTAB
M  END
>  <Dataset>  (178) 
ChEMBL_Kinases

>  <Ligand_Instance>  (178) 
nan

>  <PDB_ID>  (178) 
nan

>  <Standardized_SMILES>  (178) 
N#Cc1cccc(Cn2cc(NC(=O)c3n[nH]c4c3CCCC4)cn2)c1

>  <Name>  (178) 
nan

>  <Pocket>  (178) 
nan

>  <ATP_Site>  (178) 
nan

>  <Peripheral>  (178) 
nan

>  <Num_H_Atoms_ProtBoundConf>  (178) 
nan

>  <Num_Resolved_Atoms>  (178) 
nan

>  <Num_Not_Resolved_Atoms>  (178) 
nan

$$$$
CHEMBL3298192
     RDKit          3D

  0  0  0  0  0  0  0  0  0  0999 V3000
M  V30 BEGIN CTAB
M  V30 COUNTS 51 54 0 0 0
M  V30 BEGIN ATOM
M  V30 1 C 0.530962 -4.612394 5.093642 0
M  V30 2 O -0.158924 -4.906267 3.892311 0
M  V30 3 C 0.059679 -4.080454 2.785192 0
M  V30 4 C 0.938122 -3.027623 2.948583 0
M  V30 5 C 1.197559 -2.177292 1.898610 0
M  V30 6 N 2.074383 -1.031752 1.922082 0
M  V30 7 C 2.270470 -0.222639 0.770163 0
M  V30 8 N 3.108862 -0.046489 -0.268624 0
M  V30 9 C 2.650717 0.980277 -1.036860 0
M  V30 10 C 3.102890 1.566769 -2.183270 0
M  V30 11 C 2.382360 2.611729 -2.715517 0
M  V30 12 C 1.227740 3.060593 -2.109724 0
M  V30 13 C 0.770976 2.484389 -0.971957 0
M  V30 14 C -0.422117 2.869286 -0.227451 0
M  V30 15 N -0.278621 3.222411 1.082842 0
M  V30 16 C -1.478879 3.540805 1.614611 0
M  V30 17 C -1.568600 3.964324 3.039903 0
M  V30 18 N -2.373757 3.382806 0.625529 0
M  V30 19 C -1.770333 2.981305 -0.490042 0
M  V30 20 C -2.300888 2.674455 -1.825829 0
M  V30 21 C 1.504915 1.420939 -0.429387 0
M  V30 22 O 1.324408 0.676178 0.636225 0
M  V30 23 C 0.548787 -2.432418 0.712330 0
M  V30 24 C -0.324326 -3.440594 0.473407 0
M  V30 25 O -1.050951 -3.839802 -0.620201 0
M  V30 26 C -0.904158 -3.067405 -1.814630 0
M  V30 27 C -0.563265 -4.281335 1.558861 0
M  V30 28 O -1.418817 -5.387530 1.568191 0
M  V30 29 C -0.875939 -6.667823 1.219390 0
M  V30 30 H 1.604674 -4.808332 4.869172 0
M  V30 31 H 0.429610 -3.567733 5.428432 0
M  V30 32 H 0.185288 -5.241491 5.932327 0
M  V30 33 H 1.478565 -2.778691 3.865086 0
M  V30 34 H 2.520858 -0.899981 2.869882 0
M  V30 35 H 4.023059 1.148685 -2.600652 0
M  V30 36 H 2.750442 3.063439 -3.619665 0
M  V30 37 H 0.648445 3.883249 -2.512230 0
M  V30 38 H -1.286225 5.035786 3.161261 0
M  V30 39 H -0.827482 3.384550 3.664850 0
M  V30 40 H -2.550703 3.746273 3.478385 0
M  V30 41 H -3.389626 3.563812 0.762070 0
M  V30 42 H -1.887257 1.742994 -2.263923 0
M  V30 43 H -3.404008 2.512466 -1.767274 0
M  V30 44 H -2.128270 3.473113 -2.582689 0
M  V30 45 H 0.702147 -1.803384 -0.178923 0
M  V30 46 H -1.818020 -3.279315 -2.419550 0
M  V30 47 H -0.767135 -2.015125 -1.554131 0
M  V30 48 H -0.033929 -3.512866 -2.345262 0
M  V30 49 H -0.035691 -6.560684 0.500626 0
M  V30 50 H -1.659841 -7.280052 0.753985 0
M  V30 51 H -0.510450 -7.147866 2.134504 0
M  V30 END ATOM
M  V30 BEGIN BOND
M  V30 1 1 1 2
M  V30 2 1 2 3
M  V30 3 2 3 4
M  V30 4 1 4 5
M  V30 5 1 5 6
M  V30 6 1 6 7
M  V30 7 2 7 8
M  V30 8 1 8 9
M  V30 9 2 9 10
M  V30 10 1 10 11
M  V30 11 2 11 12
M  V30 12 1 12 13
M  V30 13 1 13 14
M  V30 14 1 14 15
M  V30 15 2 15 16
M  V30 16 1 16 17
M  V30 17 1 16 18
M  V30 18 1 18 19
M  V30 19 1 19 20
M  V30 20 2 13 21
M  V30 21 1 21 22
M  V30 22 2 5 23
M  V30 23 1 23 24
M  V30 24 1 24 25
M  V30 25 1 25 26
M  V30 26 2 24 27
M  V30 27 1 27 28
M  V30 28 1 28 29
M  V30 29 1 27 3
M  V30 30 1 22 7
M  V30 31 1 21 9
M  V30 32 2 19 14
M  V30 33 1 1 30
M  V30 34 1 1 31
M  V30 35 1 1 32
M  V30 36 1 4 33
M  V30 37 1 6 34
M  V30 38 1 10 35
M  V30 39 1 11 36
M  V30 40 1 12 37
M  V30 41 1 17 38
M  V30 42 1 17 39
M  V30 43 1 17 40
M  V30 44 1 18 41
M  V30 45 1 20 42
M  V30 46 1 20 43
M  V30 47 1 20 44
M  V30 48 1 23 45
M  V30 49 1 26 46
M  V30 50 1 26 47
M  V30 51 1 26 48
M  V30 52 1 29 49
M  V30 53 1 29 50
M  V30 54 1 29 51
M  V30 END BOND
M  V30 END CTAB
M  END
>  <Dataset>  (179) 
ChEMBL_Kinases

>  <Ligand_Instance>  (179) 
nan

>  <PDB_ID>  (179) 
nan

>  <Standardized_SMILES>  (179) 
COc1cc(Nc2nc3cccc(-c4nc(C)[nH]c4C)c3o2)cc(OC)c1OC

>  <Name>  (179) 
nan

>  <Pocket>  (179) 
nan

>  <ATP_Site>  (179) 
nan

>  <Peripheral>  (179) 
nan

>  <Num_H_Atoms_ProtBoundConf>  (179) 
nan

>  <Num_Resolved_Atoms>  (179) 
nan

>  <Num_Not_Resolved_Atoms>  (179) 
nan

$$$$
CHEMBL3298191
     RDKit          3D

  0  0  0  0  0  0  0  0  0  0999 V3000
M  V30 BEGIN CTAB
M  V30 COUNTS 55 59 0 0 0
M  V30 BEGIN ATOM
M  V30 1 C -0.895436 -6.329269 3.664400 0
M  V30 2 O -1.316532 -5.951960 2.377116 0
M  V30 3 C -0.943760 -4.747656 1.802817 0
M  V30 4 C -0.135742 -3.866176 2.482447 0
M  V30 5 C 0.255669 -2.652399 1.936851 0
M  V30 6 N 1.090135 -1.746749 2.644359 0
M  V30 7 C 1.554214 -0.482034 2.204944 0
M  V30 8 N 2.358489 0.330565 2.953166 0
M  V30 9 C 2.590751 1.420672 2.232396 0
M  V30 10 C 3.322148 2.566437 2.466258 0
M  V30 11 C 3.423607 3.592201 1.548710 0
M  V30 12 C 2.742913 3.429366 0.340855 0
M  V30 13 C 1.997681 2.282552 0.079922 0
M  V30 14 C 1.288832 2.117708 -1.187838 0
M  V30 15 C 1.885832 2.039904 -2.432476 0
M  V30 16 C 1.100990 1.880461 -3.568290 0
M  V30 17 C -0.283729 1.794496 -3.503957 0
M  V30 18 C -0.846565 1.876442 -2.240257 0
M  V30 19 C -0.088381 2.035234 -1.092429 0
M  V30 20 C -0.831164 2.107246 0.176312 0
M  V30 21 C -0.636027 3.338013 0.813603 0
M  V30 22 N -1.361458 3.303809 1.970369 0
M  V30 23 N -1.970723 2.140555 2.061272 0
M  V30 24 C -1.675988 1.387975 0.996020 0
M  V30 25 C 1.923688 1.269715 1.039135 0
M  V30 26 O 1.314110 0.113801 1.063370 0
M  V30 27 C -0.237546 -2.428459 0.674284 0
M  V30 28 C -1.047465 -3.283304 -0.039000 0
M  V30 29 O -1.524337 -3.018835 -1.312959 0
M  V30 30 C -1.272143 -1.874493 -2.067032 0
M  V30 31 C -1.407718 -4.477155 0.548748 0
M  V30 32 O -2.221345 -5.376178 -0.122703 0
M  V30 33 C -3.622241 -5.359899 -0.033901 0
M  V30 34 H -1.485034 -7.184940 4.062767 0
M  V30 35 H 0.191257 -6.533922 3.748089 0
M  V30 36 H -1.083715 -5.431910 4.323934 0
M  V30 37 H 0.216974 -4.112355 3.480625 0
M  V30 38 H 1.379439 -2.080273 3.599767 0
M  V30 39 H 3.847303 2.672764 3.418866 0
M  V30 40 H 4.008377 4.483503 1.762654 0
M  V30 41 H 2.805261 4.222956 -0.401282 0
M  V30 42 H 2.970933 2.109771 -2.462493 0
M  V30 43 H 1.649261 1.828982 -4.499467 0
M  V30 44 H -0.859691 1.670182 -4.414494 0
M  V30 45 H -1.916188 1.810822 -2.180018 0
M  V30 46 H -0.103404 4.271847 0.669366 0
M  V30 47 H -2.613260 1.696889 2.764599 0
M  V30 48 H -1.889528 0.395175 0.573886 0
M  V30 49 H -0.003499 -1.520050 0.143992 0
M  V30 50 H -1.133270 -0.959681 -1.454105 0
M  V30 51 H -2.209721 -1.682018 -2.666108 0
M  V30 52 H -0.397226 -1.950424 -2.748635 0
M  V30 53 H -4.011803 -6.256439 0.532262 0
M  V30 54 H -3.992218 -5.395332 -1.097224 0
M  V30 55 H -3.955923 -4.429068 0.473754 0
M  V30 END ATOM
M  V30 BEGIN BOND
M  V30 1 1 1 2
M  V30 2 1 2 3
M  V30 3 2 3 4
M  V30 4 1 4 5
M  V30 5 1 5 6
M  V30 6 1 6 7
M  V30 7 2 7 8
M  V30 8 1 8 9
M  V30 9 2 9 10
M  V30 10 1 10 11
M  V30 11 2 11 12
M  V30 12 1 12 13
M  V30 13 1 13 14
M  V30 14 2 14 15
M  V30 15 1 15 16
M  V30 16 2 16 17
M  V30 17 1 17 18
M  V30 18 2 18 19
M  V30 19 1 19 20
M  V30 20 1 20 21
M  V30 21 2 21 22
M  V30 22 1 22 23
M  V30 23 1 23 24
M  V30 24 2 13 25
M  V30 25 1 25 26
M  V30 26 2 5 27
M  V30 27 1 27 28
M  V30 28 1 28 29
M  V30 29 1 29 30
M  V30 30 2 28 31
M  V30 31 1 31 32
M  V30 32 1 32 33
M  V30 33 1 31 3
M  V30 34 1 26 7
M  V30 35 1 25 9
M  V30 36 1 19 14
M  V30 37 2 24 20
M  V30 38 1 1 34
M  V30 39 1 1 35
M  V30 40 1 1 36
M  V30 41 1 4 37
M  V30 42 1 6 38
M  V30 43 1 10 39
M  V30 44 1 11 40
M  V30 45 1 12 41
M  V30 46 1 15 42
M  V30 47 1 16 43
M  V30 48 1 17 44
M  V30 49 1 18 45
M  V30 50 1 21 46
M  V30 51 1 23 47
M  V30 52 1 24 48
M  V30 53 1 27 49
M  V30 54 1 30 50
M  V30 55 1 30 51
M  V30 56 1 30 52
M  V30 57 1 33 53
M  V30 58 1 33 54
M  V30 59 1 33 55
M  V30 END BOND
M  V30 END CTAB
M  END
>  <Dataset>  (180) 
ChEMBL_Kinases

>  <Ligand_Instance>  (180) 
nan

>  <PDB_ID>  (180) 
nan

>  <Standardized_SMILES>  (180) 
COc1cc(Nc2nc3cccc(-c4ccccc4-c4cn[nH]c4)c3o2)cc(OC)c1OC

>  <Name>  (180) 
nan

>  <Pocket>  (180) 
nan

>  <ATP_Site>  (180) 
nan

>  <Peripheral>  (180) 
nan

>  <Num_H_Atoms_ProtBoundConf>  (180) 
nan

>  <Num_Resolved_Atoms>  (180) 
nan

>  <Num_Not_Resolved_Atoms>  (180) 
nan

$$$$
CHEMBL3298047
     RDKit          3D

  0  0  0  0  0  0  0  0  0  0999 V3000
M  V30 BEGIN CTAB
M  V30 COUNTS 55 58 0 0 0
M  V30 BEGIN ATOM
M  V30 1 C 2.446617 -2.956148 -0.815720 0
M  V30 2 O 2.513390 -1.604279 -0.411352 0
M  V30 3 C 3.553853 -1.051326 0.301774 0
M  V30 4 C 4.629637 -1.814555 0.718393 0
M  V30 5 C 5.674857 -1.273580 1.446932 0
M  V30 6 C 5.628098 0.068922 1.759202 0
M  V30 7 C 6.719238 0.745373 2.548044 0
M  V30 8 C 4.571045 0.860404 1.357713 0
M  V30 9 C 3.526152 0.319941 0.627207 0
M  V30 10 C 2.450579 1.026183 0.042533 0
M  V30 11 C 2.940015 1.623994 -1.138370 0
M  V30 12 C 2.143015 2.407829 -1.990588 0
M  V30 13 C 0.819689 2.625920 -1.694032 0
M  V30 14 C 0.334020 2.045697 -0.541878 0
M  V30 15 N -0.875670 2.020791 0.087991 0
M  V30 16 C -0.742714 1.276816 1.203034 0
M  V30 17 N -1.939549 1.167095 1.953466 0
M  V30 18 C -2.790438 0.141603 1.418061 0
M  V30 19 C -3.999989 -0.219472 2.020698 0
M  V30 20 C -4.876048 -1.174743 1.575874 0
M  V30 21 O -6.064766 -1.527363 2.171471 0
M  V30 22 C -6.526729 -0.923279 3.340194 0
M  V30 23 C -4.469093 -1.800176 0.424811 0
M  V30 24 O -5.294135 -2.796160 -0.118685 0
M  V30 25 C -5.145291 -4.155496 0.221400 0
M  V30 26 C -3.328536 -1.592350 -0.312094 0
M  V30 27 O -2.886869 -2.104259 -1.348093 0
M  V30 28 C -2.409008 -2.645620 -2.453143 0
M  V30 29 C -2.533339 -0.598585 0.252725 0
M  V30 30 O 0.458060 0.858383 1.283960 0
M  V30 31 C 1.167072 1.295373 0.240675 0
M  V30 32 H 2.581577 -3.105808 -1.908779 0
M  V30 33 H 1.442897 -3.369829 -0.487399 0
M  V30 34 H 3.174466 -3.581189 -0.273440 0
M  V30 35 H 4.789705 -2.862403 0.542094 0
M  V30 36 H 6.544221 -1.827818 1.798695 0
M  V30 37 H 7.338791 1.365007 1.901641 0
M  V30 38 H 6.208217 1.361537 3.339562 0
M  V30 39 H 7.300491 -0.024967 3.085815 0
M  V30 40 H 4.482580 1.936962 1.580058 0
M  V30 41 H 3.971945 1.573814 -1.550571 0
M  V30 42 H 2.498140 2.879732 -2.903786 0
M  V30 43 H 0.121172 3.194958 -2.256255 0
M  V30 44 H -2.316943 1.662593 2.785137 0
M  V30 45 H -4.232732 0.326580 2.920486 0
M  V30 46 H -7.067342 -1.698571 3.942264 0
M  V30 47 H -5.706764 -0.535657 3.989548 0
M  V30 48 H -7.240192 -0.095153 3.138706 0
M  V30 49 H -5.684359 -4.330406 1.169146 0
M  V30 50 H -4.062328 -4.419425 0.302257 0
M  V30 51 H -5.652339 -4.808053 -0.541471 0
M  V30 52 H -2.502464 -3.770140 -2.469574 0
M  V30 53 H -2.860312 -2.252810 -3.410353 0
M  V30 54 H -1.286553 -2.482867 -2.534277 0
M  V30 55 H -1.589953 -0.323958 -0.224464 0
M  V30 END ATOM
M  V30 BEGIN BOND
M  V30 1 1 1 2
M  V30 2 1 2 3
M  V30 3 2 3 4
M  V30 4 1 4 5
M  V30 5 2 5 6
M  V30 6 1 6 7
M  V30 7 1 6 8
M  V30 8 2 8 9
M  V30 9 1 9 10
M  V30 10 2 10 11
M  V30 11 1 11 12
M  V30 12 2 12 13
M  V30 13 1 13 14
M  V30 14 1 14 15
M  V30 15 2 15 16
M  V30 16 1 16 17
M  V30 17 1 17 18
M  V30 18 2 18 19
M  V30 19 1 19 20
M  V30 20 1 20 21
M  V30 21 1 21 22
M  V30 22 2 20 23
M  V30 23 1 23 24
M  V30 24 1 24 25
M  V30 25 1 23 26
M  V30 26 1 26 27
M  V30 27 1 27 28
M  V30 28 2 26 29
M  V30 29 1 16 30
M  V30 30 1 30 31
M  V30 31 1 9 3
M  V30 32 1 31 10
M  V30 33 2 31 14
M  V30 34 1 29 18
M  V30 35 1 1 32
M  V30 36 1 1 33
M  V30 37 1 1 34
M  V30 38 1 4 35
M  V30 39 1 5 36
M  V30 40 1 7 37
M  V30 41 1 7 38
M  V30 42 1 7 39
M  V30 43 1 8 40
M  V30 44 1 11 41
M  V30 45 1 12 42
M  V30 46 1 13 43
M  V30 47 1 17 44
M  V30 48 1 19 45
M  V30 49 1 22 46
M  V30 50 1 22 47
M  V30 51 1 22 48
M  V30 52 1 25 49
M  V30 53 1 25 50
M  V30 54 1 25 51
M  V30 55 1 28 52
M  V30 56 1 28 53
M  V30 57 1 28 54
M  V30 58 1 29 55
M  V30 END BOND
M  V30 END CTAB
M  END
>  <Dataset>  (181) 
ChEMBL_Kinases

>  <Ligand_Instance>  (181) 
nan

>  <PDB_ID>  (181) 
nan

>  <Standardized_SMILES>  (181) 
COc1ccc(C)cc1-c1cccc2nc(Nc3cc(OC)c(OC)c(OC)c3)oc12

>  <Name>  (181) 
nan

>  <Pocket>  (181) 
nan

>  <ATP_Site>  (181) 
nan

>  <Peripheral>  (181) 
nan

>  <Num_H_Atoms_ProtBoundConf>  (181) 
nan

>  <Num_Resolved_Atoms>  (181) 
nan

>  <Num_Not_Resolved_Atoms>  (181) 
nan

$$$$
CHEMBL3298044
     RDKit          3D

  0  0  0  0  0  0  0  0  0  0999 V3000
M  V30 BEGIN CTAB
M  V30 COUNTS 56 59 0 0 0
M  V30 BEGIN ATOM
M  V30 1 C -2.037054 -1.646683 1.929116 0
M  V30 2 O -2.010813 -3.003008 1.519661 0
M  V30 3 C -1.037093 -3.439162 0.633617 0
M  V30 4 C -0.068972 -2.605038 0.115580 0
M  V30 5 C 0.918733 -2.984768 -0.765058 0
M  V30 6 N 1.910162 -2.114660 -1.292043 0
M  V30 7 C 2.038722 -0.723647 -1.028315 0
M  V30 8 N 2.988121 0.085360 -1.530715 0
M  V30 9 C 2.801469 1.330869 -1.068397 0
M  V30 10 C 3.499611 2.500468 -1.289003 0
M  V30 11 C 3.045276 3.655756 -0.649633 0
M  V30 12 C 1.930981 3.623378 0.177167 0
M  V30 13 C 1.256297 2.429037 0.373930 0
M  V30 14 C 0.066530 2.311210 1.233952 0
M  V30 15 C 0.080609 2.019371 2.581271 0
M  V30 16 O 1.319036 1.820925 3.172855 0
M  V30 17 C 1.471634 1.515567 4.545865 0
M  V30 18 C -1.090017 1.931830 3.295715 0
M  V30 19 C -2.310899 2.141419 2.648066 0
M  V30 20 C -2.284210 2.427258 1.317723 0
M  V30 21 C -1.128119 2.529159 0.540516 0
M  V30 22 O -1.182666 2.824281 -0.811252 0
M  V30 23 C -2.394565 3.043069 -1.505591 0
M  V30 24 C 1.703519 1.286750 -0.256757 0
M  V30 25 O 1.303553 0.056089 -0.275400 0
M  V30 26 C 0.902097 -4.312588 -1.132106 0
M  V30 27 C -0.049367 -5.178765 -0.636207 0
M  V30 28 O -0.103549 -6.517868 -0.976746 0
M  V30 29 C 0.754078 -7.193717 -1.840415 0
M  V30 30 C -1.032205 -4.779121 0.246415 0
M  V30 31 O -2.016113 -5.600988 0.779950 0
M  V30 32 C -3.280897 -5.771616 0.123805 0
M  V30 33 H -2.891837 -1.466431 2.613300 0
M  V30 34 H -1.068698 -1.393018 2.435835 0
M  V30 35 H -2.103659 -0.944926 1.069191 0
M  V30 36 H -0.126866 -1.585138 0.453334 0
M  V30 37 H 2.622497 -2.545132 -1.944678 0
M  V30 38 H 4.365005 2.507023 -1.936138 0
M  V30 39 H 3.569861 4.593782 -0.800121 0
M  V30 40 H 1.556255 4.520887 0.690807 0
M  V30 41 H 0.773006 2.180164 5.099811 0
M  V30 42 H 2.536707 1.727717 4.804755 0
M  V30 43 H 1.195832 0.469805 4.682725 0
M  V30 44 H -1.073532 1.701511 4.357336 0
M  V30 45 H -3.206435 2.067552 3.227622 0
M  V30 46 H -3.257545 2.577141 0.880795 0
M  V30 47 H -3.179544 3.525085 -0.921267 0
M  V30 48 H -2.194949 3.708530 -2.372197 0
M  V30 49 H -2.721578 2.077286 -1.961503 0
M  V30 50 H 1.649029 -4.666553 -1.818143 0
M  V30 51 H 0.354180 -7.269874 -2.881133 0
M  V30 52 H 0.909752 -8.256005 -1.518928 0
M  V30 53 H 1.727848 -6.695074 -1.894534 0
M  V30 54 H -3.141020 -5.381422 -0.918053 0
M  V30 55 H -3.578441 -6.817103 0.037475 0
M  V30 56 H -4.056256 -5.101840 0.558988 0
M  V30 END ATOM
M  V30 BEGIN BOND
M  V30 1 1 1 2
M  V30 2 1 2 3
M  V30 3 2 3 4
M  V30 4 1 4 5
M  V30 5 1 5 6
M  V30 6 1 6 7
M  V30 7 2 7 8
M  V30 8 1 8 9
M  V30 9 2 9 10
M  V30 10 1 10 11
M  V30 11 2 11 12
M  V30 12 1 12 13
M  V30 13 1 13 14
M  V30 14 2 14 15
M  V30 15 1 15 16
M  V30 16 1 16 17
M  V30 17 1 15 18
M  V30 18 2 18 19
M  V30 19 1 19 20
M  V30 20 2 20 21
M  V30 21 1 21 22
M  V30 22 1 22 23
M  V30 23 2 13 24
M  V30 24 1 24 25
M  V30 25 2 5 26
M  V30 26 1 26 27
M  V30 27 1 27 28
M  V30 28 1 28 29
M  V30 29 2 27 30
M  V30 30 1 30 31
M  V30 31 1 31 32
M  V30 32 1 30 3
M  V30 33 1 25 7
M  V30 34 1 24 9
M  V30 35 1 21 14
M  V30 36 1 1 33
M  V30 37 1 1 34
M  V30 38 1 1 35
M  V30 39 1 4 36
M  V30 40 1 6 37
M  V30 41 1 10 38
M  V30 42 1 11 39
M  V30 43 1 12 40
M  V30 44 1 17 41
M  V30 45 1 17 42
M  V30 46 1 17 43
M  V30 47 1 18 44
M  V30 48 1 19 45
M  V30 49 1 20 46
M  V30 50 1 23 47
M  V30 51 1 23 48
M  V30 52 1 23 49
M  V30 53 1 26 50
M  V30 54 1 29 51
M  V30 55 1 29 52
M  V30 56 1 29 53
M  V30 57 1 32 54
M  V30 58 1 32 55
M  V30 59 1 32 56
M  V30 END BOND
M  V30 END CTAB
M  END
>  <Dataset>  (182) 
ChEMBL_Kinases

>  <Ligand_Instance>  (182) 
nan

>  <PDB_ID>  (182) 
nan

>  <Standardized_SMILES>  (182) 
COc1cc(Nc2nc3cccc(-c4c(OC)cccc4OC)c3o2)cc(OC)c1OC

>  <Name>  (182) 
nan

>  <Pocket>  (182) 
nan

>  <ATP_Site>  (182) 
nan

>  <Peripheral>  (182) 
nan

>  <Num_H_Atoms_ProtBoundConf>  (182) 
nan

>  <Num_Resolved_Atoms>  (182) 
nan

>  <Num_Not_Resolved_Atoms>  (182) 
nan

$$$$
CHEMBL3298043
     RDKit          3D

  0  0  0  0  0  0  0  0  0  0999 V3000
M  V30 BEGIN CTAB
M  V30 COUNTS 58 61 0 0 0
M  V30 BEGIN ATOM
M  V30 1 C 4.131090 -3.248164 -0.341736 0
M  V30 2 O 3.647379 -3.928049 -1.479332 0
M  V30 3 C 2.288720 -4.035307 -1.683720 0
M  V30 4 C 1.489354 -3.457822 -0.732610 0
M  V30 5 C 0.108263 -3.537392 -0.890744 0
M  V30 6 N -0.690268 -2.893272 0.111018 0
M  V30 7 C -0.206671 -1.598478 0.467965 0
M  V30 8 N 0.711993 -0.974460 -0.292524 0
M  V30 9 C 0.992638 0.240004 0.281140 0
M  V30 10 C 1.883619 1.165436 -0.209233 0
M  V30 11 C 2.020493 2.329949 0.519283 0
M  V30 12 C 1.262304 2.459734 1.659305 0
M  V30 13 C 0.391025 1.486429 2.084386 0
M  V30 14 C -0.347478 1.678285 3.328280 0
M  V30 15 C 0.489223 1.196414 4.339757 0
M  V30 16 F 1.747732 0.646738 4.236804 0
M  V30 17 C 0.148928 1.206534 5.700176 0
M  V30 18 C -1.111600 1.741369 6.010744 0
M  V30 19 C -1.899051 2.201522 5.003859 0
M  V30 20 C -1.599790 2.207224 3.665803 0
M  V30 21 O -2.233968 2.612621 2.517434 0
M  V30 22 C -3.491354 3.214777 2.570135 0
M  V30 23 C -3.607775 4.526540 1.856538 0
M  V30 24 C -4.614472 2.301040 2.103132 0
M  V30 25 C 0.211647 0.300145 1.392450 0
M  V30 26 O -0.498166 -0.797829 1.495543 0
M  V30 27 C -0.503479 -4.155815 -1.938106 0
M  V30 28 C 0.248019 -4.731754 -2.891869 0
M  V30 29 O 0.125791 -5.444829 -4.112756 0
M  V30 30 C -1.146749 -5.729372 -4.651105 0
M  V30 31 C 1.658766 -4.671555 -2.761792 0
M  V30 32 O 2.657006 -5.193397 -3.614671 0
M  V30 33 C 3.165249 -4.445237 -4.688769 0
M  V30 34 H 3.894374 -3.837877 0.563028 0
M  V30 35 H 5.227738 -3.049400 -0.450057 0
M  V30 36 H 3.686063 -2.219332 -0.241980 0
M  V30 37 H 1.862285 -2.953116 0.132402 0
M  V30 38 H -1.482973 -3.471796 0.417133 0
M  V30 39 H 2.456279 1.017050 -1.109840 0
M  V30 40 H 2.694827 3.104192 0.206067 0
M  V30 41 H 1.360371 3.385531 2.252490 0
M  V30 42 H 0.722438 0.864885 6.543808 0
M  V30 43 H -1.488839 1.804216 7.003269 0
M  V30 44 H -2.874249 2.612961 5.219571 0
M  V30 45 H -3.721568 3.402286 3.647776 0
M  V30 46 H -4.712562 4.727667 1.753507 0
M  V30 47 H -3.202748 5.391518 2.429903 0
M  V30 48 H -3.181236 4.539188 0.854210 0
M  V30 49 H -5.522778 2.943584 2.059886 0
M  V30 50 H -4.450846 1.857977 1.119991 0
M  V30 51 H -4.844113 1.531350 2.900540 0
M  V30 52 H -1.537608 -4.283856 -2.171042 0
M  V30 53 H -1.271170 -6.799847 -4.856208 0
M  V30 54 H -1.922382 -5.418008 -3.911696 0
M  V30 55 H -1.351279 -5.099034 -5.557909 0
M  V30 56 H 2.889003 -4.878968 -5.676134 0
M  V30 57 H 2.807300 -3.407075 -4.643215 0
M  V30 58 H 4.279861 -4.473979 -4.653022 0
M  V30 END ATOM
M  V30 BEGIN BOND
M  V30 1 1 1 2
M  V30 2 1 2 3
M  V30 3 2 3 4
M  V30 4 1 4 5
M  V30 5 1 5 6
M  V30 6 1 6 7
M  V30 7 2 7 8
M  V30 8 1 8 9
M  V30 9 2 9 10
M  V30 10 1 10 11
M  V30 11 2 11 12
M  V30 12 1 12 13
M  V30 13 1 13 14
M  V30 14 2 14 15
M  V30 15 1 15 16
M  V30 16 1 15 17
M  V30 17 2 17 18
M  V30 18 1 18 19
M  V30 19 2 19 20
M  V30 20 1 20 21
M  V30 21 1 21 22
M  V30 22 1 22 23
M  V30 23 1 22 24
M  V30 24 2 13 25
M  V30 25 1 25 26
M  V30 26 2 5 27
M  V30 27 1 27 28
M  V30 28 1 28 29
M  V30 29 1 29 30
M  V30 30 2 28 31
M  V30 31 1 31 32
M  V30 32 1 32 33
M  V30 33 1 31 3
M  V30 34 1 26 7
M  V30 35 1 25 9
M  V30 36 1 20 14
M  V30 37 1 1 34
M  V30 38 1 1 35
M  V30 39 1 1 36
M  V30 40 1 4 37
M  V30 41 1 6 38
M  V30 42 1 10 39
M  V30 43 1 11 40
M  V30 44 1 12 41
M  V30 45 1 17 42
M  V30 46 1 18 43
M  V30 47 1 19 44
M  V30 48 1 22 45
M  V30 49 1 23 46
M  V30 50 1 23 47
M  V30 51 1 23 48
M  V30 52 1 24 49
M  V30 53 1 24 50
M  V30 54 1 24 51
M  V30 55 1 27 52
M  V30 56 1 30 53
M  V30 57 1 30 54
M  V30 58 1 30 55
M  V30 59 1 33 56
M  V30 60 1 33 57
M  V30 61 1 33 58
M  V30 END BOND
M  V30 END CTAB
M  END
>  <Dataset>  (183) 
ChEMBL_Kinases

>  <Ligand_Instance>  (183) 
nan

>  <PDB_ID>  (183) 
nan

>  <Standardized_SMILES>  (183) 
COc1cc(Nc2nc3cccc(-c4c(F)cccc4OC(C)C)c3o2)cc(OC)c1OC

>  <Name>  (183) 
nan

>  <Pocket>  (183) 
nan

>  <ATP_Site>  (183) 
nan

>  <Peripheral>  (183) 
nan

>  <Num_H_Atoms_ProtBoundConf>  (183) 
nan

>  <Num_Resolved_Atoms>  (183) 
nan

>  <Num_Not_Resolved_Atoms>  (183) 
nan

$$$$
CHEMBL3298042
     RDKit          3D

  0  0  0  0  0  0  0  0  0  0999 V3000
M  V30 BEGIN CTAB
M  V30 COUNTS 55 58 0 0 0
M  V30 BEGIN ATOM
M  V30 1 C 2.710666 -2.077120 3.402971 0
M  V30 2 C 2.361832 -0.796218 4.086012 0
M  V30 3 O 2.128794 0.286381 3.193095 0
M  V30 4 C 3.161717 0.672223 2.369808 0
M  V30 5 C 4.449802 0.208767 2.219192 0
M  V30 6 C 5.425918 0.657339 1.362691 0
M  V30 7 C 5.057398 1.714751 0.548203 0
M  V30 8 C 3.768624 2.254139 0.628277 0
M  V30 9 F 3.588679 3.279030 -0.238793 0
M  V30 10 C 2.837224 1.740565 1.524355 0
M  V30 11 C 1.597571 2.474915 1.402233 0
M  V30 12 C 1.296194 3.630947 2.119987 0
M  V30 13 C 0.129235 4.338877 1.991311 0
M  V30 14 C -0.755375 3.812466 1.072498 0
M  V30 15 C -0.557133 2.682705 0.315376 0
M  V30 16 N -1.272071 2.012365 -0.615462 0
M  V30 17 C -0.536162 0.965622 -0.994913 0
M  V30 18 N -0.552668 -0.169907 -1.881224 0
M  V30 19 C -1.502317 -1.201777 -1.637847 0
M  V30 20 C -2.530186 -1.062072 -0.733054 0
M  V30 21 C -3.483236 -2.007453 -0.449849 0
M  V30 22 O -4.517064 -1.881045 0.451230 0
M  V30 23 C -4.748496 -0.726522 1.229285 0
M  V30 24 C -3.386882 -3.213104 -1.150436 0
M  V30 25 O -4.321327 -4.198475 -0.903890 0
M  V30 26 C -4.210062 -5.193096 0.068144 0
M  V30 27 C -2.370873 -3.431827 -2.085389 0
M  V30 28 O -2.380709 -4.660778 -2.709101 0
M  V30 29 C -1.485812 -5.121589 -3.663632 0
M  V30 30 C -1.458665 -2.413927 -2.298654 0
M  V30 31 O 0.617422 0.966918 -0.326153 0
M  V30 32 C 0.649816 2.009241 0.494775 0
M  V30 33 H 1.879588 -2.803650 3.561934 0
M  V30 34 H 3.615969 -2.550196 3.837664 0
M  V30 35 H 2.793065 -1.975761 2.289779 0
M  V30 36 H 3.202133 -0.567376 4.806108 0
M  V30 37 H 1.482349 -0.971200 4.742544 0
M  V30 38 H 4.666494 -0.624029 2.897861 0
M  V30 39 H 6.379198 0.153100 1.400418 0
M  V30 40 H 5.823813 2.075917 -0.133900 0
M  V30 41 H 2.083241 3.920461 2.800068 0
M  V30 42 H -0.062949 5.232603 2.567881 0
M  V30 43 H -1.700815 4.299714 0.899907 0
M  V30 44 H 0.093885 -0.276503 -2.692626 0
M  V30 45 H -2.587352 -0.128304 -0.203390 0
M  V30 46 H -4.078975 -0.748617 2.121253 0
M  V30 47 H -4.666242 0.209717 0.637931 0
M  V30 48 H -5.804944 -0.805999 1.600441 0
M  V30 49 H -5.176856 -5.735192 0.183907 0
M  V30 50 H -3.951999 -4.756787 1.071190 0
M  V30 51 H -3.451595 -5.987617 -0.166846 0
M  V30 52 H -0.927619 -6.042496 -3.320547 0
M  V30 53 H -2.010273 -5.415409 -4.612542 0
M  V30 54 H -0.683281 -4.405791 -3.956630 0
M  V30 55 H -0.683606 -2.589861 -3.016206 0
M  V30 END ATOM
M  V30 BEGIN BOND
M  V30 1 1 1 2
M  V30 2 1 2 3
M  V30 3 1 3 4
M  V30 4 2 4 5
M  V30 5 1 5 6
M  V30 6 2 6 7
M  V30 7 1 7 8
M  V30 8 1 8 9
M  V30 9 2 8 10
M  V30 10 1 10 11
M  V30 11 2 11 12
M  V30 12 1 12 13
M  V30 13 2 13 14
M  V30 14 1 14 15
M  V30 15 1 15 16
M  V30 16 2 16 17
M  V30 17 1 17 18
M  V30 18 1 18 19
M  V30 19 2 19 20
M  V30 20 1 20 21
M  V30 21 1 21 22
M  V30 22 1 22 23
M  V30 23 2 21 24
M  V30 24 1 24 25
M  V30 25 1 25 26
M  V30 26 1 24 27
M  V30 27 1 27 28
M  V30 28 1 28 29
M  V30 29 2 27 30
M  V30 30 1 17 31
M  V30 31 1 31 32
M  V30 32 1 10 4
M  V30 33 1 32 11
M  V30 34 2 32 15
M  V30 35 1 30 19
M  V30 36 1 1 33
M  V30 37 1 1 34
M  V30 38 1 1 35
M  V30 39 1 2 36
M  V30 40 1 2 37
M  V30 41 1 5 38
M  V30 42 1 6 39
M  V30 43 1 7 40
M  V30 44 1 12 41
M  V30 45 1 13 42
M  V30 46 1 14 43
M  V30 47 1 18 44
M  V30 48 1 20 45
M  V30 49 1 23 46
M  V30 50 1 23 47
M  V30 51 1 23 48
M  V30 52 1 26 49
M  V30 53 1 26 50
M  V30 54 1 26 51
M  V30 55 1 29 52
M  V30 56 1 29 53
M  V30 57 1 29 54
M  V30 58 1 30 55
M  V30 END BOND
M  V30 END CTAB
M  END
>  <Dataset>  (184) 
ChEMBL_Kinases

>  <Ligand_Instance>  (184) 
nan

>  <PDB_ID>  (184) 
nan

>  <Standardized_SMILES>  (184) 
CCOc1cccc(F)c1-c1cccc2nc(Nc3cc(OC)c(OC)c(OC)c3)oc12

>  <Name>  (184) 
nan

>  <Pocket>  (184) 
nan

>  <ATP_Site>  (184) 
nan

>  <Peripheral>  (184) 
nan

>  <Num_H_Atoms_ProtBoundConf>  (184) 
nan

>  <Num_Resolved_Atoms>  (184) 
nan

>  <Num_Not_Resolved_Atoms>  (184) 
nan

$$$$
CHEMBL3297847
     RDKit          3D

  0  0  0  0  0  0  0  0  0  0999 V3000
M  V30 BEGIN CTAB
M  V30 COUNTS 47 49 0 0 0
M  V30 BEGIN ATOM
M  V30 1 C 3.684472 -5.519901 -0.497165 0
M  V30 2 C 2.438437 -4.698082 -0.800852 0
M  V30 3 C 1.879897 -5.004161 -2.152204 0
M  V30 4 N 2.751332 -3.322108 -0.565308 0
M  V30 5 C 1.760827 -2.323660 -0.783486 0
M  V30 6 N 0.527425 -2.645085 -1.218942 0
M  V30 7 C -0.440768 -1.705201 -1.436235 0
M  V30 8 C -0.172518 -0.370326 -1.209433 0
M  V30 9 C 1.097860 -0.069436 -0.763908 0
M  V30 10 N 2.039182 -1.005722 -0.555005 0
M  V30 11 C 1.446617 1.350796 -0.498825 0
M  V30 12 N 0.196205 1.955833 -0.069127 0
M  V30 13 C 0.035272 2.357690 1.285843 0
M  V30 14 O 1.058232 2.116374 1.975516 0
M  V30 15 N -1.160662 2.958442 1.758853 0
M  V30 16 C -1.339571 3.374274 3.141707 0
M  V30 17 C -1.602664 2.197647 3.990607 0
M  V30 18 C -0.737716 1.377435 4.682492 0
M  V30 19 C -1.220868 0.319332 5.420718 0
M  V30 20 C -2.590692 0.071770 5.472149 0
M  V30 21 Cl -3.168090 -1.297144 6.433187 0
M  V30 22 C -3.473501 0.866113 4.797718 0
M  V30 23 F -4.789657 0.575314 4.887059 0
M  V30 24 C -2.974420 1.929854 4.056796 0
M  V30 25 C -0.702927 2.029187 -1.207256 0
M  V30 26 C -1.234792 0.641230 -1.453724 0
M  V30 27 H 4.055244 -6.036294 -1.406211 0
M  V30 28 H 4.521624 -4.869192 -0.133929 0
M  V30 29 H 3.497177 -6.261756 0.297810 0
M  V30 30 H 1.668499 -4.981998 -0.025300 0
M  V30 31 H 2.355686 -5.927065 -2.590407 0
M  V30 32 H 0.779643 -5.252238 -2.086094 0
M  V30 33 H 1.927316 -4.163168 -2.868251 0
M  V30 34 H 3.701324 -3.007272 -0.230922 0
M  V30 35 H -1.426757 -1.974020 -1.785094 0
M  V30 36 H 2.173047 1.414825 0.321459 0
M  V30 37 H 1.829748 1.810613 -1.440083 0
M  V30 38 H -1.946813 3.108268 1.081486 0
M  V30 39 H -2.066536 4.175103 3.269725 0
M  V30 40 H -0.333000 3.764708 3.475768 0
M  V30 41 H 0.282037 1.667598 4.566340 0
M  V30 42 H -0.499034 -0.277155 5.933187 0
M  V30 43 H -3.773460 2.495327 3.560161 0
M  V30 44 H -0.215134 2.483871 -2.091318 0
M  V30 45 H -1.571009 2.673298 -0.980310 0
M  V30 46 H -1.514290 0.627582 -2.549622 0
M  V30 47 H -2.162137 0.424229 -0.887972 0
M  V30 END ATOM
M  V30 BEGIN BOND
M  V30 1 1 1 2
M  V30 2 1 2 3
M  V30 3 1 2 4
M  V30 4 1 4 5
M  V30 5 2 5 6
M  V30 6 1 6 7
M  V30 7 2 7 8
M  V30 8 1 8 9
M  V30 9 2 9 10
M  V30 10 1 9 11
M  V30 11 1 11 12
M  V30 12 1 12 13
M  V30 13 2 13 14
M  V30 14 1 13 15
M  V30 15 1 15 16
M  V30 16 1 16 17
M  V30 17 2 17 18
M  V30 18 1 18 19
M  V30 19 2 19 20
M  V30 20 1 20 21
M  V30 21 1 20 22
M  V30 22 1 22 23
M  V30 23 2 22 24
M  V30 24 1 12 25
M  V30 25 1 25 26
M  V30 26 1 10 5
M  V30 27 1 24 17
M  V30 28 1 26 8
M  V30 29 1 1 27
M  V30 30 1 1 28
M  V30 31 1 1 29
M  V30 32 1 2 30
M  V30 33 1 3 31
M  V30 34 1 3 32
M  V30 35 1 3 33
M  V30 36 1 4 34
M  V30 37 1 7 35
M  V30 38 1 11 36
M  V30 39 1 11 37
M  V30 40 1 15 38
M  V30 41 1 16 39
M  V30 42 1 16 40
M  V30 43 1 18 41
M  V30 44 1 19 42
M  V30 45 1 24 43
M  V30 46 1 25 44
M  V30 47 1 25 45
M  V30 48 1 26 46
M  V30 49 1 26 47
M  V30 END BOND
M  V30 END CTAB
M  END
>  <Dataset>  (185) 
ChEMBL_Kinases

>  <Ligand_Instance>  (185) 
nan

>  <PDB_ID>  (185) 
nan

>  <Standardized_SMILES>  (185) 
CC(C)Nc1ncc2c(n1)CN(C(=O)NCc1ccc(Cl)c(F)c1)CC2

>  <Name>  (185) 
nan

>  <Pocket>  (185) 
nan

>  <ATP_Site>  (185) 
nan

>  <Peripheral>  (185) 
nan

>  <Num_H_Atoms_ProtBoundConf>  (185) 
nan

>  <Num_Resolved_Atoms>  (185) 
nan

>  <Num_Not_Resolved_Atoms>  (185) 
nan

$$$$
CHEMBL3297848
     RDKit          3D

  0  0  0  0  0  0  0  0  0  0999 V3000
M  V30 BEGIN CTAB
M  V30 COUNTS 47 49 0 0 0
M  V30 BEGIN ATOM
M  V30 1 C 3.763173 -5.479766 -0.671450 0
M  V30 2 C 2.486191 -4.701005 -0.849840 0
M  V30 3 C 1.761854 -5.082564 -2.123461 0
M  V30 4 N 2.756929 -3.305858 -0.717765 0
M  V30 5 C 1.729456 -2.325256 -0.852527 0
M  V30 6 N 0.456453 -2.646544 -1.134716 0
M  V30 7 C -0.544470 -1.746804 -1.267184 0
M  V30 8 C -0.257790 -0.394820 -1.104100 0
M  V30 9 C 1.052995 -0.075937 -0.814101 0
M  V30 10 N 2.007778 -1.012455 -0.694095 0
M  V30 11 C 1.390712 1.370254 -0.627076 0
M  V30 12 N 0.173119 1.950140 -0.087676 0
M  V30 13 C 0.064246 2.371073 1.264219 0
M  V30 14 O 1.110226 2.185433 1.935411 0
M  V30 15 N -1.145539 2.938678 1.738809 0
M  V30 16 C -1.316236 3.387398 3.123546 0
M  V30 17 C -1.527750 2.212764 4.009832 0
M  V30 18 C -0.600628 1.460101 4.692372 0
M  V30 19 C -1.038319 0.401446 5.459973 0
M  V30 20 C -2.380419 0.085371 5.555481 0
M  V30 21 F -2.780729 -0.960007 6.317108 0
M  V30 22 C -3.320671 0.833725 4.875031 0
M  V30 23 Cl -5.028901 0.405398 5.017119 0
M  V30 24 C -2.873535 1.905171 4.098594 0
M  V30 25 C -0.823196 1.993484 -1.142654 0
M  V30 26 C -1.368338 0.582168 -1.256059 0
M  V30 27 H 4.074837 -5.996737 -1.602343 0
M  V30 28 H 4.610273 -4.794744 -0.389634 0
M  V30 29 H 3.667936 -6.217159 0.138850 0
M  V30 30 H 1.792504 -4.983877 -0.005058 0
M  V30 31 H 1.935130 -6.181471 -2.320409 0
M  V30 32 H 0.655304 -4.979008 -2.048727 0
M  V30 33 H 2.084489 -4.519508 -3.012652 0
M  V30 34 H 3.725670 -2.968494 -0.517593 0
M  V30 35 H -1.548666 -2.081291 -1.495958 0
M  V30 36 H 2.203980 1.458838 0.136763 0
M  V30 37 H 1.689194 1.824590 -1.588682 0
M  V30 38 H -1.986367 3.073721 1.136167 0
M  V30 39 H -2.070678 4.168420 3.229318 0
M  V30 40 H -0.325751 3.862539 3.396288 0
M  V30 41 H 0.413733 1.788769 4.552132 0
M  V30 42 H -0.283418 -0.169196 5.982730 0
M  V30 43 H -3.709154 2.422809 3.607208 0
M  V30 44 H -0.446496 2.360270 -2.103324 0
M  V30 45 H -1.646016 2.714770 -0.863991 0
M  V30 46 H -1.801960 0.531444 -2.296386 0
M  V30 47 H -2.191071 0.389457 -0.557896 0
M  V30 END ATOM
M  V30 BEGIN BOND
M  V30 1 1 1 2
M  V30 2 1 2 3
M  V30 3 1 2 4
M  V30 4 1 4 5
M  V30 5 2 5 6
M  V30 6 1 6 7
M  V30 7 2 7 8
M  V30 8 1 8 9
M  V30 9 2 9 10
M  V30 10 1 9 11
M  V30 11 1 11 12
M  V30 12 1 12 13
M  V30 13 2 13 14
M  V30 14 1 13 15
M  V30 15 1 15 16
M  V30 16 1 16 17
M  V30 17 2 17 18
M  V30 18 1 18 19
M  V30 19 2 19 20
M  V30 20 1 20 21
M  V30 21 1 20 22
M  V30 22 1 22 23
M  V30 23 2 22 24
M  V30 24 1 12 25
M  V30 25 1 25 26
M  V30 26 1 10 5
M  V30 27 1 24 17
M  V30 28 1 26 8
M  V30 29 1 1 27
M  V30 30 1 1 28
M  V30 31 1 1 29
M  V30 32 1 2 30
M  V30 33 1 3 31
M  V30 34 1 3 32
M  V30 35 1 3 33
M  V30 36 1 4 34
M  V30 37 1 7 35
M  V30 38 1 11 36
M  V30 39 1 11 37
M  V30 40 1 15 38
M  V30 41 1 16 39
M  V30 42 1 16 40
M  V30 43 1 18 41
M  V30 44 1 19 42
M  V30 45 1 24 43
M  V30 46 1 25 44
M  V30 47 1 25 45
M  V30 48 1 26 46
M  V30 49 1 26 47
M  V30 END BOND
M  V30 END CTAB
M  END
>  <Dataset>  (186) 
ChEMBL_Kinases

>  <Ligand_Instance>  (186) 
nan

>  <PDB_ID>  (186) 
nan

>  <Standardized_SMILES>  (186) 
CC(C)Nc1ncc2c(n1)CN(C(=O)NCc1ccc(F)c(Cl)c1)CC2

>  <Name>  (186) 
nan

>  <Pocket>  (186) 
nan

>  <ATP_Site>  (186) 
nan

>  <Peripheral>  (186) 
nan

>  <Num_H_Atoms_ProtBoundConf>  (186) 
nan

>  <Num_Resolved_Atoms>  (186) 
nan

>  <Num_Not_Resolved_Atoms>  (186) 
nan

$$$$
CHEMBL3297849
     RDKit          3D

  0  0  0  0  0  0  0  0  0  0999 V3000
M  V30 BEGIN CTAB
M  V30 COUNTS 51 53 0 0 0
M  V30 BEGIN ATOM
M  V30 1 C 3.900202 -0.944849 5.881550 0
M  V30 2 C 4.176985 -0.462882 4.453005 0
M  V30 3 C 3.613108 0.958531 4.356477 0
M  V30 4 N 3.380484 -1.274772 3.586783 0
M  V30 5 C 3.171142 -1.355705 2.184296 0
M  V30 6 N 4.018728 -2.216907 1.549763 0
M  V30 7 C 3.928807 -2.390865 0.205801 0
M  V30 8 C 2.968666 -1.677080 -0.468381 0
M  V30 9 C 2.104207 -0.803313 0.153802 0
M  V30 10 N 2.235310 -0.664130 1.505012 0
M  V30 11 C 1.057780 -0.019865 -0.559931 0
M  V30 12 N 0.485250 -0.893613 -1.565439 0
M  V30 13 C -0.861799 -0.958971 -2.047525 0
M  V30 14 O -1.504335 -1.634220 -2.887707 0
M  V30 15 N -1.731431 -0.004172 -1.414073 0
M  V30 16 C -3.142893 0.254126 -1.609282 0 CFG=2
M  V30 17 C -3.449362 1.604265 -2.113974 0
M  V30 18 O -4.822053 1.759261 -2.287257 0
M  V30 19 C -3.892223 -0.144963 -0.400589 0
M  V30 20 C -4.861171 0.472513 0.359666 0
M  V30 21 C -5.400208 -0.157137 1.459632 0
M  V30 22 C -5.008394 -1.417921 1.856007 0
M  V30 23 F -5.579906 -1.987381 2.954066 0
M  V30 24 C -4.039354 -2.057902 1.111572 0
M  V30 25 Cl -3.590086 -3.645261 1.665412 0
M  V30 26 C -3.486615 -1.423715 -0.008478 0
M  V30 27 C 1.271282 -1.886420 -2.259472 0
M  V30 28 C 2.745933 -1.761133 -1.945753 0
M  V30 29 H 4.620788 -0.546124 6.603385 0
M  V30 30 H 2.862944 -0.627275 6.103081 0
M  V30 31 H 3.906904 -2.066107 5.851133 0
M  V30 32 H 5.242101 -0.513581 4.198694 0
M  V30 33 H 3.311963 1.213919 3.334354 0
M  V30 34 H 2.706290 1.013681 5.022767 0
M  V30 35 H 4.337733 1.662747 4.819029 0
M  V30 36 H 2.734177 -2.048854 3.907924 0
M  V30 37 H 4.568775 -3.055445 -0.349744 0
M  V30 38 H 1.557221 0.804714 -1.148482 0
M  V30 39 H 0.298618 0.377096 0.117604 0
M  V30 40 H -1.545660 0.714865 -0.676464 0
M  V30 41 H -3.457712 -0.481444 -2.405291 0
M  V30 42 H -3.027180 1.694100 -3.145798 0
M  V30 43 H -3.052072 2.383499 -1.438866 0
M  V30 44 H -5.131339 1.445866 -3.152543 0
M  V30 45 H -5.096742 1.452324 -0.027065 0
M  V30 46 H -6.156176 0.419067 1.987342 0
M  V30 47 H -2.739294 -2.073341 -0.473498 0
M  V30 48 H 1.166008 -1.739256 -3.352012 0
M  V30 49 H 0.972017 -2.914612 -2.023167 0
M  V30 50 H 3.273946 -2.647039 -2.353491 0
M  V30 51 H 3.206338 -0.861027 -2.389215 0
M  V30 END ATOM
M  V30 BEGIN BOND
M  V30 1 1 1 2
M  V30 2 1 2 3
M  V30 3 1 2 4
M  V30 4 1 4 5
M  V30 5 2 5 6
M  V30 6 1 6 7
M  V30 7 2 7 8
M  V30 8 1 8 9
M  V30 9 2 9 10
M  V30 10 1 9 11
M  V30 11 1 11 12
M  V30 12 1 12 13
M  V30 13 2 13 14
M  V30 14 1 13 15
M  V30 15 1 15 16
M  V30 16 1 16 17
M  V30 17 1 17 18
M  V30 18 1 16 19
M  V30 19 2 19 20
M  V30 20 1 20 21
M  V30 21 2 21 22
M  V30 22 1 22 23
M  V30 23 1 22 24
M  V30 24 1 24 25
M  V30 25 2 24 26
M  V30 26 1 12 27
M  V30 27 1 27 28
M  V30 28 1 10 5
M  V30 29 1 26 19
M  V30 30 1 28 8
M  V30 31 1 1 29
M  V30 32 1 1 30
M  V30 33 1 1 31
M  V30 34 1 2 32
M  V30 35 1 3 33
M  V30 36 1 3 34
M  V30 37 1 3 35
M  V30 38 1 4 36
M  V30 39 1 7 37
M  V30 40 1 11 38
M  V30 41 1 11 39
M  V30 42 1 15 40
M  V30 43 1 16 41 CFG=3
M  V30 44 1 17 42
M  V30 45 1 17 43
M  V30 46 1 18 44
M  V30 47 1 20 45
M  V30 48 1 21 46
M  V30 49 1 26 47
M  V30 50 1 27 48
M  V30 51 1 27 49
M  V30 52 1 28 50
M  V30 53 1 28 51
M  V30 END BOND
M  V30 END CTAB
M  END
>  <Dataset>  (187) 
ChEMBL_Kinases

>  <Ligand_Instance>  (187) 
nan

>  <PDB_ID>  (187) 
nan

>  <Standardized_SMILES>  (187) 
CC(C)Nc1ncc2c(n1)CN(C(=O)N[C@H](CO)c1ccc(F)c(Cl)c1)CC2

>  <Name>  (187) 
nan

>  <Pocket>  (187) 
nan

>  <ATP_Site>  (187) 
nan

>  <Peripheral>  (187) 
nan

>  <Num_H_Atoms_ProtBoundConf>  (187) 
nan

>  <Num_Resolved_Atoms>  (187) 
nan

>  <Num_Not_Resolved_Atoms>  (187) 
nan

$$$$
CHEMBL3297850
     RDKit          3D

  0  0  0  0  0  0  0  0  0  0999 V3000
M  V30 BEGIN CTAB
M  V30 COUNTS 54 56 0 0 0
M  V30 BEGIN ATOM
M  V30 1 C 5.124239 -3.111222 2.247254 0
M  V30 2 C 5.652538 -2.157106 1.201962 0
M  V30 3 C 6.438878 -1.035371 1.823227 0
M  V30 4 N 4.539072 -1.548640 0.461031 0
M  V30 5 C 3.602258 -0.792282 1.216999 0
M  V30 6 N 3.724723 -0.636264 2.544134 0
M  V30 7 C 2.876162 0.063749 3.314360 0
M  V30 8 C 1.803880 0.661410 2.682459 0
M  V30 9 C 1.647858 0.522054 1.324270 0
M  V30 10 N 2.548951 -0.200069 0.624918 0
M  V30 11 C 0.458193 1.208040 0.755040 0
M  V30 12 N -0.659524 0.815393 1.611695 0
M  V30 13 C -1.827813 0.032825 1.291997 0
M  V30 14 O -2.751916 -0.258485 2.110659 0
M  V30 15 N -2.046721 -0.494390 -0.012546 0
M  V30 16 C -3.219675 -1.285772 -0.352269 0 CFG=1
M  V30 17 C -3.940875 -0.567684 -1.405899 0
M  V30 18 C -5.316837 -0.426495 -1.334735 0
M  V30 19 C -6.130960 0.218758 -2.243855 0
M  V30 20 C -5.477117 0.774846 -3.333008 0
M  V30 21 F -6.198095 1.420871 -4.264413 0
M  V30 22 C -4.106281 0.666577 -3.458763 0
M  V30 23 Cl -3.287890 1.371190 -4.836567 0
M  V30 24 C -3.334280 0.006279 -2.514668 0
M  V30 25 C -2.705831 -2.633914 -0.721741 0 CFG=1
M  V30 26 C -3.702807 -3.705202 -0.957158 0
M  V30 27 O -1.828139 -2.619070 -1.804599 0
M  V30 28 C -0.602527 1.270928 2.988062 0
M  V30 29 C 0.814451 1.449267 3.420300 0
M  V30 30 H 5.883502 -3.885909 2.423999 0
M  V30 31 H 4.190511 -3.564414 1.851460 0
M  V30 32 H 4.865908 -2.624701 3.190511 0
M  V30 33 H 6.276797 -2.757814 0.505829 0
M  V30 34 H 6.395498 -0.100798 1.227553 0
M  V30 35 H 6.083615 -0.768560 2.840911 0
M  V30 36 H 7.512797 -1.368343 1.873057 0
M  V30 37 H 4.397422 -1.637005 -0.568721 0
M  V30 38 H 3.025306 0.157886 4.393833 0
M  V30 39 H 0.533009 2.310901 0.814550 0
M  V30 40 H 0.210744 0.880845 -0.266532 0
M  V30 41 H -1.355930 -0.322802 -0.776103 0
M  V30 42 H -3.838065 -1.373924 0.542908 0
M  V30 43 H -5.818905 -0.869994 -0.470530 0
M  V30 44 H -7.199303 0.263815 -2.079316 0
M  V30 45 H -2.263636 -0.079973 -2.610079 0
M  V30 46 H -2.063346 -2.955723 0.147065 0
M  V30 47 H -3.122475 -4.663754 -0.981708 0
M  V30 48 H -4.418164 -3.852795 -0.120466 0
M  V30 49 H -4.208007 -3.650900 -1.944332 0
M  V30 50 H -0.945709 -2.224778 -1.586149 0
M  V30 51 H -1.170592 0.596018 3.679430 0
M  V30 52 H -1.116296 2.265549 3.006013 0
M  V30 53 H 0.850885 1.160100 4.508494 0
M  V30 54 H 1.091481 2.533399 3.428874 0
M  V30 END ATOM
M  V30 BEGIN BOND
M  V30 1 1 1 2
M  V30 2 1 2 3
M  V30 3 1 2 4
M  V30 4 1 4 5
M  V30 5 2 5 6
M  V30 6 1 6 7
M  V30 7 2 7 8
M  V30 8 1 8 9
M  V30 9 2 9 10
M  V30 10 1 9 11
M  V30 11 1 11 12
M  V30 12 1 12 13
M  V30 13 2 13 14
M  V30 14 1 13 15
M  V30 15 1 15 16
M  V30 16 1 16 17
M  V30 17 2 17 18
M  V30 18 1 18 19
M  V30 19 2 19 20
M  V30 20 1 20 21
M  V30 21 1 20 22
M  V30 22 1 22 23
M  V30 23 2 22 24
M  V30 24 1 16 25
M  V30 25 1 25 26
M  V30 26 1 25 27
M  V30 27 1 12 28
M  V30 28 1 28 29
M  V30 29 1 10 5
M  V30 30 1 24 17
M  V30 31 1 29 8
M  V30 32 1 1 30
M  V30 33 1 1 31
M  V30 34 1 1 32
M  V30 35 1 2 33
M  V30 36 1 3 34
M  V30 37 1 3 35
M  V30 38 1 3 36
M  V30 39 1 4 37
M  V30 40 1 7 38
M  V30 41 1 11 39
M  V30 42 1 11 40
M  V30 43 1 15 41
M  V30 44 1 16 42 CFG=1
M  V30 45 1 18 43
M  V30 46 1 19 44
M  V30 47 1 24 45
M  V30 48 1 25 46 CFG=1
M  V30 49 1 26 47
M  V30 50 1 26 48
M  V30 51 1 26 49
M  V30 52 1 27 50
M  V30 53 1 28 51
M  V30 54 1 28 52
M  V30 55 1 29 53
M  V30 56 1 29 54
M  V30 END BOND
M  V30 END CTAB
M  END
>  <Dataset>  (188) 
ChEMBL_Kinases

>  <Ligand_Instance>  (188) 
nan

>  <PDB_ID>  (188) 
nan

>  <Standardized_SMILES>  (188) 
CC(C)Nc1ncc2c(n1)CN(C(=O)N[C@@H](c1ccc(F)c(Cl)c1)[C@@H](C)O)CC2

>  <Name>  (188) 
nan

>  <Pocket>  (188) 
nan

>  <ATP_Site>  (188) 
nan

>  <Peripheral>  (188) 
nan

>  <Num_H_Atoms_ProtBoundConf>  (188) 
nan

>  <Num_Resolved_Atoms>  (188) 
nan

>  <Num_Not_Resolved_Atoms>  (188) 
nan

$$$$
CHEMBL3297851
     RDKit          3D

  0  0  0  0  0  0  0  0  0  0999 V3000
M  V30 BEGIN CTAB
M  V30 COUNTS 54 56 0 0 0
M  V30 BEGIN ATOM
M  V30 1 C 5.149202 -2.303637 3.070304 0
M  V30 2 C 5.725565 -1.520575 1.909597 0
M  V30 3 C 6.537489 -0.342696 2.380263 0
M  V30 4 N 4.648035 -1.172465 1.027547 0
M  V30 5 C 3.595645 -0.378809 1.548480 0
M  V30 6 N 3.663588 0.004561 2.838516 0
M  V30 7 C 2.665212 0.766002 3.358841 0
M  V30 8 C 1.593460 1.142192 2.573627 0
M  V30 9 C 1.537197 0.743627 1.258364 0
M  V30 10 N 2.563411 -0.020589 0.779722 0
M  V30 11 C 0.360197 1.176478 0.456216 0
M  V30 12 N -0.802426 0.865607 1.297829 0
M  V30 13 C -1.888241 -0.024484 0.965443 0
M  V30 14 O -2.863205 -0.248416 1.739644 0
M  V30 15 N -1.963229 -0.723011 -0.245342 0
M  V30 16 C -3.047253 -1.620821 -0.594372 0 CFG=1
M  V30 17 C -3.787151 -1.156192 -1.789562 0
M  V30 18 C -5.184266 -1.145091 -1.859496 0
M  V30 19 C -5.848737 -0.701909 -2.998231 0
M  V30 20 C -5.131324 -0.258941 -4.094976 0
M  V30 21 F -5.757277 0.171414 -5.200169 0
M  V30 22 C -3.753447 -0.285676 -3.986155 0
M  V30 23 Cl -2.866270 0.284558 -5.399086 0
M  V30 24 C -3.044448 -0.718700 -2.871728 0
M  V30 25 C -2.517374 -3.028418 -0.744702 0 CFG=2
M  V30 26 C -3.656164 -3.980273 -1.022018 0
M  V30 27 O -1.958824 -3.392398 0.480400 0
M  V30 28 C -0.885479 1.508429 2.597989 0
M  V30 29 C 0.472070 1.958316 3.038856 0
M  V30 30 H 5.026034 -1.695258 3.973974 0
M  V30 31 H 4.132510 -2.691687 2.823185 0
M  V30 32 H 5.801625 -3.177526 3.304936 0
M  V30 33 H 6.403427 -2.206493 1.360881 0
M  V30 34 H 6.045399 0.209889 3.205865 0
M  V30 35 H 7.472088 -0.773006 2.814150 0
M  V30 36 H 6.814808 0.271395 1.524902 0
M  V30 37 H 4.619462 -1.487110 0.017230 0
M  V30 38 H 2.688637 1.091785 4.393282 0
M  V30 39 H 0.440409 2.283739 0.384526 0
M  V30 40 H 0.285910 0.707541 -0.524895 0
M  V30 41 H -1.204547 -0.613100 -0.967703 0
M  V30 42 H -3.756737 -1.629014 0.258363 0
M  V30 43 H -5.756944 -1.487842 -1.011401 0
M  V30 44 H -6.937461 -0.720506 -2.983933 0
M  V30 45 H -1.954938 -0.694227 -2.900853 0
M  V30 46 H -1.705894 -3.117591 -1.482788 0
M  V30 47 H -4.051598 -4.364113 -0.042683 0
M  V30 48 H -4.475494 -3.494934 -1.595347 0
M  V30 49 H -3.253348 -4.825987 -1.649413 0
M  V30 50 H -2.450512 -2.916463 1.189276 0
M  V30 51 H -1.550000 2.398949 2.574632 0
M  V30 52 H -1.336368 0.764530 3.314491 0
M  V30 53 H 0.421266 2.010417 4.165724 0
M  V30 54 H 0.617268 3.035078 2.746499 0
M  V30 END ATOM
M  V30 BEGIN BOND
M  V30 1 1 1 2
M  V30 2 1 2 3
M  V30 3 1 2 4
M  V30 4 1 4 5
M  V30 5 2 5 6
M  V30 6 1 6 7
M  V30 7 2 7 8
M  V30 8 1 8 9
M  V30 9 2 9 10
M  V30 10 1 9 11
M  V30 11 1 11 12
M  V30 12 1 12 13
M  V30 13 2 13 14
M  V30 14 1 13 15
M  V30 15 1 15 16
M  V30 16 1 16 17
M  V30 17 2 17 18
M  V30 18 1 18 19
M  V30 19 2 19 20
M  V30 20 1 20 21
M  V30 21 1 20 22
M  V30 22 1 22 23
M  V30 23 2 22 24
M  V30 24 1 16 25
M  V30 25 1 25 26
M  V30 26 1 25 27
M  V30 27 1 12 28
M  V30 28 1 28 29
M  V30 29 1 10 5
M  V30 30 1 24 17
M  V30 31 1 29 8
M  V30 32 1 1 30
M  V30 33 1 1 31
M  V30 34 1 1 32
M  V30 35 1 2 33
M  V30 36 1 3 34
M  V30 37 1 3 35
M  V30 38 1 3 36
M  V30 39 1 4 37
M  V30 40 1 7 38
M  V30 41 1 11 39
M  V30 42 1 11 40
M  V30 43 1 15 41
M  V30 44 1 16 42 CFG=1
M  V30 45 1 18 43
M  V30 46 1 19 44
M  V30 47 1 24 45
M  V30 48 1 25 46 CFG=3
M  V30 49 1 26 47
M  V30 50 1 26 48
M  V30 51 1 26 49
M  V30 52 1 27 50
M  V30 53 1 28 51
M  V30 54 1 28 52
M  V30 55 1 29 53
M  V30 56 1 29 54
M  V30 END BOND
M  V30 END CTAB
M  END
>  <Dataset>  (189) 
ChEMBL_Kinases

>  <Ligand_Instance>  (189) 
nan

>  <PDB_ID>  (189) 
nan

>  <Standardized_SMILES>  (189) 
CC(C)Nc1ncc2c(n1)CN(C(=O)N[C@@H](c1ccc(F)c(Cl)c1)[C@H](C)O)CC2

>  <Name>  (189) 
nan

>  <Pocket>  (189) 
nan

>  <ATP_Site>  (189) 
nan

>  <Peripheral>  (189) 
nan

>  <Num_H_Atoms_ProtBoundConf>  (189) 
nan

>  <Num_Resolved_Atoms>  (189) 
nan

>  <Num_Not_Resolved_Atoms>  (189) 
nan

$$$$
CHEMBL3297852
     RDKit          3D

  0  0  0  0  0  0  0  0  0  0999 V3000
M  V30 BEGIN CTAB
M  V30 COUNTS 57 59 0 0 0
M  V30 BEGIN ATOM
M  V30 1 C 0.802049 -3.985038 3.983212 0
M  V30 2 C 2.053727 -3.221622 3.707163 0
M  V30 3 C 1.949880 -2.234039 2.599077 0 CFG=2
M  V30 4 O 0.957941 -1.316307 2.941991 0
M  V30 5 C 1.587304 -2.833018 1.274925 0 CFG=1
M  V30 6 N 1.519556 -1.734179 0.303377 0
M  V30 7 C 0.309609 -1.358635 -0.345632 0
M  V30 8 O -0.709508 -2.052086 -0.016159 0
M  V30 9 N 0.304218 -0.269348 -1.292188 0
M  V30 10 C 1.443723 0.537798 -1.688002 0
M  V30 11 C 1.022213 1.946073 -1.939114 0
M  V30 12 C -0.308698 2.295612 -1.378598 0
M  V30 13 C -0.577944 3.559366 -0.862109 0
M  V30 14 N -1.800461 3.861951 -0.353814 0
M  V30 15 C -2.797247 2.936917 -0.335343 0
M  V30 16 N -4.094153 3.207576 0.186860 0
M  V30 17 C -5.130113 2.189373 0.186909 0
M  V30 18 C -6.378534 2.750491 0.791283 0
M  V30 19 C -5.340380 1.828804 -1.282439 0
M  V30 20 N -2.543158 1.712253 -0.833585 0
M  V30 21 C -1.340202 1.378532 -1.345900 0
M  V30 22 C -0.986349 0.048313 -1.912651 0
M  V30 23 C 2.547630 -3.871610 0.834022 0
M  V30 24 C 2.337824 -5.234746 0.858204 0
M  V30 25 C 3.284353 -6.138182 0.429152 0
M  V30 26 C 4.514046 -5.691302 -0.054741 0
M  V30 27 F 5.350460 -6.676198 -0.442337 0
M  V30 28 C 4.728332 -4.328454 -0.080776 0
M  V30 29 Cl 6.306320 -3.852530 -0.706144 0
M  V30 30 C 3.776077 -3.440342 0.349930 0
M  V30 31 H -0.122811 -3.394871 3.795663 0
M  V30 32 H 0.735929 -4.240902 5.081112 0
M  V30 33 H 0.738705 -4.963707 3.464727 0
M  V30 34 H 2.877246 -3.952431 3.583920 0
M  V30 35 H 2.323799 -2.643654 4.628126 0
M  V30 36 H 2.891441 -1.651139 2.563753 0
M  V30 37 H 1.289871 -0.403434 3.104361 0
M  V30 38 H 0.561636 -3.247485 1.361055 0
M  V30 39 H 2.427705 -1.250635 0.126337 0
M  V30 40 H 2.303747 0.434748 -1.015332 0
M  V30 41 H 1.777300 0.097004 -2.672552 0
M  V30 42 H 0.999771 2.184039 -3.034276 0
M  V30 43 H 1.799813 2.611370 -1.493355 0
M  V30 44 H 0.213132 4.315682 -0.869275 0
M  V30 45 H -4.270750 4.167664 0.569903 0
M  V30 46 H -4.840537 1.289281 0.770611 0
M  V30 47 H -6.449900 3.852306 0.769777 0
M  V30 48 H -7.245544 2.272659 0.256480 0
M  V30 49 H -6.517927 2.422272 1.860485 0
M  V30 50 H -4.744848 0.940639 -1.543756 0
M  V30 51 H -6.410277 1.682625 -1.502214 0
M  V30 52 H -4.981106 2.642361 -1.960373 0
M  V30 53 H -1.731300 -0.732100 -1.715719 0
M  V30 54 H -0.830791 0.213482 -3.012582 0
M  V30 55 H 1.383308 -5.570982 1.234259 0
M  V30 56 H 2.993325 -7.195856 0.500488 0
M  V30 57 H 4.102565 -2.408109 0.262893 0
M  V30 END ATOM
M  V30 BEGIN BOND
M  V30 1 1 1 2
M  V30 2 1 2 3
M  V30 3 1 3 4
M  V30 4 1 3 5
M  V30 5 1 5 6
M  V30 6 1 6 7
M  V30 7 2 7 8
M  V30 8 1 7 9
M  V30 9 1 9 10
M  V30 10 1 10 11
M  V30 11 1 11 12
M  V30 12 2 12 13
M  V30 13 1 13 14
M  V30 14 2 14 15
M  V30 15 1 15 16
M  V30 16 1 16 17
M  V30 17 1 17 18
M  V30 18 1 17 19
M  V30 19 1 15 20
M  V30 20 2 20 21
M  V30 21 1 21 22
M  V30 22 1 5 23
M  V30 23 2 23 24
M  V30 24 1 24 25
M  V30 25 2 25 26
M  V30 26 1 26 27
M  V30 27 1 26 28
M  V30 28 1 28 29
M  V30 29 2 28 30
M  V30 30 1 22 9
M  V30 31 1 30 23
M  V30 32 1 21 12
M  V30 33 1 1 31
M  V30 34 1 1 32
M  V30 35 1 1 33
M  V30 36 1 2 34
M  V30 37 1 2 35
M  V30 38 1 3 36 CFG=3
M  V30 39 1 4 37
M  V30 40 1 5 38 CFG=1
M  V30 41 1 6 39
M  V30 42 1 10 40
M  V30 43 1 10 41
M  V30 44 1 11 42
M  V30 45 1 11 43
M  V30 46 1 13 44
M  V30 47 1 16 45
M  V30 48 1 17 46
M  V30 49 1 18 47
M  V30 50 1 18 48
M  V30 51 1 18 49
M  V30 52 1 19 50
M  V30 53 1 19 51
M  V30 54 1 19 52
M  V30 55 1 22 53
M  V30 56 1 22 54
M  V30 57 1 24 55
M  V30 58 1 25 56
M  V30 59 1 30 57
M  V30 END BOND
M  V30 END CTAB
M  END
>  <Dataset>  (190) 
ChEMBL_Kinases

>  <Ligand_Instance>  (190) 
nan

>  <PDB_ID>  (190) 
nan

>  <Standardized_SMILES>  (190) 
CC[C@H](O)[C@@H](NC(=O)N1CCc2cnc(NC(C)C)nc2C1)c1ccc(F)c(Cl)c1

>  <Name>  (190) 
nan

>  <Pocket>  (190) 
nan

>  <ATP_Site>  (190) 
nan

>  <Peripheral>  (190) 
nan

>  <Num_H_Atoms_ProtBoundConf>  (190) 
nan

>  <Num_Resolved_Atoms>  (190) 
nan

>  <Num_Not_Resolved_Atoms>  (190) 
nan

$$$$
CHEMBL3297853
     RDKit          3D

  0  0  0  0  0  0  0  0  0  0999 V3000
M  V30 BEGIN CTAB
M  V30 COUNTS 54 56 0 0 0
M  V30 BEGIN ATOM
M  V30 1 C -1.876595 -3.767060 -0.118186 0
M  V30 2 O -1.274644 -3.296238 1.022064 0
M  V30 3 C 0.030388 -3.743602 1.104123 0
M  V30 4 C 0.809787 -3.271159 -0.071636 0 CFG=1
M  V30 5 N 0.853032 -1.848812 -0.261987 0
M  V30 6 C 0.652569 -1.023322 -1.395974 0
M  V30 7 O 0.381058 -1.505991 -2.501129 0
M  V30 8 N 0.756841 0.391862 -1.288335 0
M  V30 9 C 0.553132 1.159300 -2.524089 0
M  V30 10 C 0.322416 2.594594 -2.088482 0
M  V30 11 C -0.620193 2.653854 -0.936271 0
M  V30 12 C -1.774469 3.424936 -1.001403 0
M  V30 13 N -2.475096 3.339989 0.110611 0
M  V30 14 C -2.201512 2.641507 1.201136 0
M  V30 15 N -3.017712 2.586127 2.349931 0
M  V30 16 C -2.740847 1.861750 3.554798 0
M  V30 17 C -3.953010 2.009059 4.477940 0
M  V30 18 C -2.624140 0.393901 3.215523 0
M  V30 19 N -1.091196 1.919541 1.219868 0
M  V30 20 C -0.262463 1.892424 0.168466 0
M  V30 21 C 1.034530 1.145616 -0.050743 0
M  V30 22 C 2.244116 -3.805744 -0.007340 0
M  V30 23 C 3.090652 -3.330370 -0.986673 0
M  V30 24 C 4.418308 -3.749876 -1.012169 0
M  V30 25 C 4.855693 -4.647012 -0.039854 0
M  V30 26 F 6.101855 -5.163223 0.095666 0
M  V30 27 C 3.986542 -5.108838 0.931063 0
M  V30 28 Cl 4.377306 -6.232301 2.222899 0
M  V30 29 C 2.656462 -4.699105 0.972176 0
M  V30 30 H -2.944139 -3.391513 -0.102988 0
M  V30 31 H -1.483816 -3.327452 -1.067756 0
M  V30 32 H -1.799522 -4.852461 -0.167654 0
M  V30 33 H 0.007459 -4.871854 1.043333 0
M  V30 34 H 0.496029 -3.504940 2.082596 0
M  V30 35 H 0.422785 -3.764320 -0.976337 0
M  V30 36 H 1.086534 -1.487843 0.691075 0
M  V30 37 H -0.339385 0.719998 -3.040904 0
M  V30 38 H 1.433925 1.107633 -3.194895 0
M  V30 39 H -0.170542 3.106409 -2.937783 0
M  V30 40 H 1.272177 3.083447 -1.887842 0
M  V30 41 H -2.024462 4.007409 -1.874623 0
M  V30 42 H -3.903979 3.147633 2.264559 0
M  V30 43 H -1.814671 2.214839 4.069699 0
M  V30 44 H -4.747953 2.616522 3.973150 0
M  V30 45 H -3.710618 2.491148 5.426694 0
M  V30 46 H -4.430634 1.027611 4.690407 0
M  V30 47 H -3.381602 -0.220267 3.763545 0
M  V30 48 H -2.792933 0.223796 2.146432 0
M  V30 49 H -1.612008 0.002321 3.464617 0
M  V30 50 H 1.803495 1.919524 -0.297081 0
M  V30 51 H 1.322501 0.522222 0.785247 0
M  V30 52 H 2.854411 -2.635469 -1.783017 0
M  V30 53 H 5.238448 -3.508370 -1.675126 0
M  V30 54 H 1.896650 -4.971284 1.651358 0
M  V30 END ATOM
M  V30 BEGIN BOND
M  V30 1 1 1 2
M  V30 2 1 2 3
M  V30 3 1 3 4
M  V30 4 1 4 5
M  V30 5 1 5 6
M  V30 6 2 6 7
M  V30 7 1 6 8
M  V30 8 1 8 9
M  V30 9 1 9 10
M  V30 10 1 10 11
M  V30 11 2 11 12
M  V30 12 1 12 13
M  V30 13 2 13 14
M  V30 14 1 14 15
M  V30 15 1 15 16
M  V30 16 1 16 17
M  V30 17 1 16 18
M  V30 18 1 14 19
M  V30 19 2 19 20
M  V30 20 1 20 21
M  V30 21 1 4 22
M  V30 22 2 22 23
M  V30 23 1 23 24
M  V30 24 2 24 25
M  V30 25 1 25 26
M  V30 26 1 25 27
M  V30 27 1 27 28
M  V30 28 2 27 29
M  V30 29 1 21 8
M  V30 30 1 29 22
M  V30 31 1 20 11
M  V30 32 1 1 30
M  V30 33 1 1 31
M  V30 34 1 1 32
M  V30 35 1 3 33
M  V30 36 1 3 34
M  V30 37 1 4 35 CFG=3
M  V30 38 1 5 36
M  V30 39 1 9 37
M  V30 40 1 9 38
M  V30 41 1 10 39
M  V30 42 1 10 40
M  V30 43 1 12 41
M  V30 44 1 15 42
M  V30 45 1 16 43
M  V30 46 1 17 44
M  V30 47 1 17 45
M  V30 48 1 17 46
M  V30 49 1 18 47
M  V30 50 1 18 48
M  V30 51 1 18 49
M  V30 52 1 21 50
M  V30 53 1 21 51
M  V30 54 1 23 52
M  V30 55 1 24 53
M  V30 56 1 29 54
M  V30 END BOND
M  V30 END CTAB
M  END
>  <Dataset>  (191) 
ChEMBL_Kinases

>  <Ligand_Instance>  (191) 
nan

>  <PDB_ID>  (191) 
nan

>  <Standardized_SMILES>  (191) 
COC[C@@H](NC(=O)N1CCc2cnc(NC(C)C)nc2C1)c1ccc(F)c(Cl)c1

>  <Name>  (191) 
nan

>  <Pocket>  (191) 
nan

>  <ATP_Site>  (191) 
nan

>  <Peripheral>  (191) 
nan

>  <Num_H_Atoms_ProtBoundConf>  (191) 
nan

>  <Num_Resolved_Atoms>  (191) 
nan

>  <Num_Not_Resolved_Atoms>  (191) 
nan

$$$$
CHEMBL3297854
     RDKit          3D

  0  0  0  0  0  0  0  0  0  0999 V3000
M  V30 BEGIN CTAB
M  V30 COUNTS 61 63 0 0 0
M  V30 BEGIN ATOM
M  V30 1 C 3.970552 0.812001 7.032896 0
M  V30 2 O 3.841087 -0.531993 7.271866 0
M  V30 3 C 2.579979 -1.037243 7.080718 0
M  V30 4 C 2.176315 -0.804545 5.618396 0
M  V30 5 O 0.922875 -1.298665 5.372769 0
M  V30 6 C 0.433493 -1.112713 4.146699 0
M  V30 7 C 1.087730 -1.724821 2.938428 0 CFG=1
M  V30 8 N 0.243351 -1.349460 1.742718 0
M  V30 9 C -0.389344 -2.392834 1.020718 0
M  V30 10 O -0.306058 -3.631139 1.296148 0
M  V30 11 N -1.212964 -2.205319 -0.121729 0
M  V30 12 C -1.768688 -3.405513 -0.719134 0
M  V30 13 C -3.276358 -3.234927 -0.959758 0
M  V30 14 C -3.353273 -2.093538 -1.921164 0
M  V30 15 C -4.285653 -2.210923 -2.915988 0
M  V30 16 N -4.342586 -1.164358 -3.782482 0
M  V30 17 C -3.536951 -0.093397 -3.664258 0
M  V30 18 N -3.745798 0.896162 -4.664110 0
M  V30 19 C -2.885532 0.620579 -5.806570 0
M  V30 20 C -3.162141 -0.729892 -6.417568 0
M  V30 21 C -2.926912 1.726847 -6.839666 0
M  V30 22 N -2.617959 -0.005578 -2.662357 0
M  V30 23 C -2.503753 -1.018832 -1.754696 0
M  V30 24 C -1.492378 -0.896040 -0.671686 0
M  V30 25 C 2.402427 -1.177034 2.561481 0
M  V30 26 C 3.653174 -1.776395 2.402593 0
M  V30 27 C 4.757635 -1.046657 2.036943 0
M  V30 28 C 4.695941 0.305639 1.807974 0
M  V30 29 F 5.829033 0.955015 1.450583 0
M  V30 30 C 3.468657 0.929541 1.957444 0
M  V30 31 Cl 3.469884 2.650536 1.649218 0
M  V30 32 C 2.335036 0.202841 2.328755 0
M  V30 33 H 3.306304 1.446746 7.664726 0
M  V30 34 H 5.015129 1.113578 7.372035 0
M  V30 35 H 3.955490 1.113687 5.971810 0
M  V30 36 H 2.540135 -2.115428 7.323287 0
M  V30 37 H 1.874692 -0.460962 7.743793 0
M  V30 38 H 2.902257 -1.266976 4.957927 0
M  V30 39 H 2.209156 0.315065 5.466451 0
M  V30 40 H -0.693349 -1.334693 4.099880 0
M  V30 41 H 0.417540 0.015042 3.905983 0
M  V30 42 H 1.015808 -2.808698 2.984505 0
M  V30 43 H 0.093429 -0.368585 1.410453 0
M  V30 44 H -1.328219 -3.631766 -1.709641 0
M  V30 45 H -1.666428 -4.285479 -0.085703 0
M  V30 46 H -3.606098 -4.183326 -1.389065 0
M  V30 47 H -3.792377 -3.016916 0.005123 0
M  V30 48 H -4.933433 -3.076353 -3.007734 0
M  V30 49 H -4.412140 1.699444 -4.595872 0
M  V30 50 H -1.837638 0.595126 -5.429937 0
M  V30 51 H -2.554747 -1.494925 -5.884522 0
M  V30 52 H -2.802633 -0.709355 -7.454012 0
M  V30 53 H -4.238880 -0.968938 -6.316709 0
M  V30 54 H -2.125634 2.472747 -6.644339 0
M  V30 55 H -2.626213 1.246556 -7.805892 0
M  V30 56 H -3.940788 2.160726 -6.892885 0
M  V30 57 H -1.961474 -0.231875 0.097984 0
M  V30 58 H -0.613340 -0.402634 -1.123544 0
M  V30 59 H 3.580933 -2.840363 2.608463 0
M  V30 60 H 5.648954 -1.642867 1.954076 0
M  V30 61 H 1.484928 0.843457 2.393607 0
M  V30 END ATOM
M  V30 BEGIN BOND
M  V30 1 1 1 2
M  V30 2 1 2 3
M  V30 3 1 3 4
M  V30 4 1 4 5
M  V30 5 1 5 6
M  V30 6 1 6 7
M  V30 7 1 7 8
M  V30 8 1 8 9
M  V30 9 2 9 10
M  V30 10 1 9 11
M  V30 11 1 11 12
M  V30 12 1 12 13
M  V30 13 1 13 14
M  V30 14 2 14 15
M  V30 15 1 15 16
M  V30 16 2 16 17
M  V30 17 1 17 18
M  V30 18 1 18 19
M  V30 19 1 19 20
M  V30 20 1 19 21
M  V30 21 1 17 22
M  V30 22 2 22 23
M  V30 23 1 23 24
M  V30 24 1 7 25
M  V30 25 2 25 26
M  V30 26 1 26 27
M  V30 27 2 27 28
M  V30 28 1 28 29
M  V30 29 1 28 30
M  V30 30 1 30 31
M  V30 31 2 30 32
M  V30 32 1 24 11
M  V30 33 1 32 25
M  V30 34 1 23 14
M  V30 35 1 1 33
M  V30 36 1 1 34
M  V30 37 1 1 35
M  V30 38 1 3 36
M  V30 39 1 3 37
M  V30 40 1 4 38
M  V30 41 1 4 39
M  V30 42 1 6 40
M  V30 43 1 6 41
M  V30 44 1 7 42 CFG=1
M  V30 45 1 8 43
M  V30 46 1 12 44
M  V30 47 1 12 45
M  V30 48 1 13 46
M  V30 49 1 13 47
M  V30 50 1 15 48
M  V30 51 1 18 49
M  V30 52 1 19 50
M  V30 53 1 20 51
M  V30 54 1 20 52
M  V30 55 1 20 53
M  V30 56 1 21 54
M  V30 57 1 21 55
M  V30 58 1 21 56
M  V30 59 1 24 57
M  V30 60 1 24 58
M  V30 61 1 26 59
M  V30 62 1 27 60
M  V30 63 1 32 61
M  V30 END BOND
M  V30 END CTAB
M  END
>  <Dataset>  (192) 
ChEMBL_Kinases

>  <Ligand_Instance>  (192) 
nan

>  <PDB_ID>  (192) 
nan

>  <Standardized_SMILES>  (192) 
COCCOC[C@@H](NC(=O)N1CCc2cnc(NC(C)C)nc2C1)c1ccc(F)c(Cl)c1

>  <Name>  (192) 
nan

>  <Pocket>  (192) 
nan

>  <ATP_Site>  (192) 
nan

>  <Peripheral>  (192) 
nan

>  <Num_H_Atoms_ProtBoundConf>  (192) 
nan

>  <Num_Resolved_Atoms>  (192) 
nan

>  <Num_Not_Resolved_Atoms>  (192) 
nan

$$$$
CHEMBL3298041
     RDKit          3D

  0  0  0  0  0  0  0  0  0  0999 V3000
M  V30 BEGIN CTAB
M  V30 COUNTS 52 55 0 0 0
M  V30 BEGIN ATOM
M  V30 1 C 4.114201 -4.155741 0.936008 0
M  V30 2 O 2.839499 -4.687060 0.780572 0
M  V30 3 C 1.647252 -4.153869 1.220485 0
M  V30 4 C 1.550962 -2.949816 1.911988 0
M  V30 5 C 0.357152 -2.379347 2.373715 0
M  V30 6 N 0.505389 -1.120820 3.053514 0
M  V30 7 C 1.157601 -0.200123 2.171285 0
M  V30 8 N 2.337723 0.096353 1.584556 0
M  V30 9 C 2.175978 1.210358 0.815295 0
M  V30 10 C 3.045645 1.916920 0.018554 0
M  V30 11 C 2.535541 3.016300 -0.631917 0
M  V30 12 C 1.219349 3.392369 -0.493298 0
M  V30 13 C 0.342944 2.664109 0.320273 0
M  V30 14 C -1.018025 3.165231 0.401448 0
M  V30 15 C -1.182119 4.143201 1.390330 0
M  V30 16 C -2.421199 4.726313 1.566803 0
M  V30 17 C -3.543349 4.389243 0.798466 0
M  V30 18 C -3.321938 3.410242 -0.170536 0
M  V30 19 C -2.099111 2.807210 -0.373497 0
M  V30 20 O -1.946618 1.917289 -1.267789 0
M  V30 21 C -1.788991 1.004677 -2.189587 0
M  V30 22 F -2.062012 -0.271610 -1.640473 0
M  V30 23 F -2.578378 1.095425 -3.332853 0
M  V30 24 F -0.458470 0.944603 -2.663171 0
M  V30 25 C 0.838501 1.569370 0.969897 0
M  V30 26 O 0.275713 0.718386 1.771821 0
M  V30 27 C -0.794168 -3.088668 2.107398 0
M  V30 28 C -0.718723 -4.292000 1.418631 0
M  V30 29 O -1.912989 -4.940903 1.187632 0
M  V30 30 C -3.172338 -4.480577 1.587640 0
M  V30 31 C 0.470744 -4.821141 0.980685 0
M  V30 32 O 0.545705 -6.018418 0.296603 0
M  V30 33 C 0.489048 -6.138637 -1.109827 0
M  V30 34 H 4.856214 -5.005204 0.881213 0
M  V30 35 H 4.265694 -3.637010 1.913559 0
M  V30 36 H 4.377542 -3.486402 0.093275 0
M  V30 37 H 2.506732 -2.440313 2.085510 0
M  V30 38 H 0.201083 -0.887344 4.017373 0
M  V30 39 H 4.056635 1.532818 -0.017712 0
M  V30 40 H 3.224750 3.573022 -1.260553 0
M  V30 41 H 0.920148 4.272157 -1.049817 0
M  V30 42 H -0.412829 4.523098 2.075534 0
M  V30 43 H -2.611201 5.485372 2.308734 0
M  V30 44 H -4.509179 4.851383 0.940082 0
M  V30 45 H -4.184537 3.147402 -0.767625 0
M  V30 46 H -1.687265 -2.608906 2.480396 0
M  V30 47 H -3.491631 -3.706911 0.852931 0
M  V30 48 H -3.139822 -4.087225 2.605053 0
M  V30 49 H -3.880875 -5.345550 1.538148 0
M  V30 50 H 0.488295 -7.222980 -1.353884 0
M  V30 51 H -0.411152 -5.694667 -1.550850 0
M  V30 52 H 1.365220 -5.648151 -1.598328 0
M  V30 END ATOM
M  V30 BEGIN BOND
M  V30 1 1 1 2
M  V30 2 1 2 3
M  V30 3 2 3 4
M  V30 4 1 4 5
M  V30 5 1 5 6
M  V30 6 1 6 7
M  V30 7 2 7 8
M  V30 8 1 8 9
M  V30 9 2 9 10
M  V30 10 1 10 11
M  V30 11 2 11 12
M  V30 12 1 12 13
M  V30 13 1 13 14
M  V30 14 2 14 15
M  V30 15 1 15 16
M  V30 16 2 16 17
M  V30 17 1 17 18
M  V30 18 2 18 19
M  V30 19 1 19 20
M  V30 20 1 20 21
M  V30 21 1 21 22
M  V30 22 1 21 23
M  V30 23 1 21 24
M  V30 24 2 13 25
M  V30 25 1 25 26
M  V30 26 2 5 27
M  V30 27 1 27 28
M  V30 28 1 28 29
M  V30 29 1 29 30
M  V30 30 2 28 31
M  V30 31 1 31 32
M  V30 32 1 32 33
M  V30 33 1 31 3
M  V30 34 1 26 7
M  V30 35 1 25 9
M  V30 36 1 19 14
M  V30 37 1 1 34
M  V30 38 1 1 35
M  V30 39 1 1 36
M  V30 40 1 4 37
M  V30 41 1 6 38
M  V30 42 1 10 39
M  V30 43 1 11 40
M  V30 44 1 12 41
M  V30 45 1 15 42
M  V30 46 1 16 43
M  V30 47 1 17 44
M  V30 48 1 18 45
M  V30 49 1 27 46
M  V30 50 1 30 47
M  V30 51 1 30 48
M  V30 52 1 30 49
M  V30 53 1 33 50
M  V30 54 1 33 51
M  V30 55 1 33 52
M  V30 END BOND
M  V30 END CTAB
M  END
>  <Dataset>  (193) 
ChEMBL_Kinases

>  <Ligand_Instance>  (193) 
nan

>  <PDB_ID>  (193) 
nan

>  <Standardized_SMILES>  (193) 
COc1cc(Nc2nc3cccc(-c4ccccc4OC(F)(F)F)c3o2)cc(OC)c1OC

>  <Name>  (193) 
nan

>  <Pocket>  (193) 
nan

>  <ATP_Site>  (193) 
nan

>  <Peripheral>  (193) 
nan

>  <Num_H_Atoms_ProtBoundConf>  (193) 
nan

>  <Num_Resolved_Atoms>  (193) 
nan

>  <Num_Not_Resolved_Atoms>  (193) 
nan

$$$$
CHEMBL3297856
     RDKit          3D

  0  0  0  0  0  0  0  0  0  0999 V3000
M  V30 BEGIN CTAB
M  V30 COUNTS 55 57 0 0 0
M  V30 BEGIN ATOM
M  V30 1 C -1.506523 -3.023403 1.282906 0
M  V30 2 N -0.901303 -4.251281 0.902525 0
M  V30 3 C -0.020620 -4.205257 -0.209340 0
M  V30 4 C 1.263299 -3.483152 -0.042394 0 CFG=1
M  V30 5 N 1.129354 -2.078433 0.289144 0
M  V30 6 C 1.579564 -1.079835 -0.611204 0
M  V30 7 O 2.130535 -1.081886 -1.761438 0
M  V30 8 N 1.536016 0.346653 -0.462830 0
M  V30 9 C 2.101485 1.042439 -1.619025 0
M  V30 10 C 1.831872 2.523094 -1.462524 0
M  V30 11 C 0.428296 2.780420 -1.046168 0
M  V30 12 C -0.369214 3.673261 -1.726723 0
M  V30 13 N -1.611723 3.801056 -1.231922 0
M  V30 14 C -2.068034 3.119813 -0.153207 0
M  V30 15 N -3.396956 3.298917 0.321783 0
M  V30 16 C -3.966823 2.645793 1.455106 0
M  V30 17 C -3.938734 1.160168 1.275098 0
M  V30 18 C -5.409047 3.057528 1.635929 0
M  V30 19 N -1.246170 2.246548 0.490683 0
M  V30 20 C 0.029532 2.054715 0.056447 0
M  V30 21 C 1.010854 1.126453 0.676049 0
M  V30 22 C 2.244533 -4.173376 0.823068 0
M  V30 23 C 3.206606 -5.049574 0.358733 0
M  V30 24 C 4.120491 -5.693060 1.169925 0
M  V30 25 C 4.093855 -5.464569 2.540828 0
M  V30 26 F 4.971138 -6.077204 3.363752 0
M  V30 27 C 3.136549 -4.591949 3.008980 0
M  V30 28 Cl 3.021684 -4.237937 4.735761 0
M  V30 29 C 2.205468 -3.933023 2.202027 0
M  V30 30 H -1.012623 -2.707853 2.248911 0
M  V30 31 H -1.527177 -2.241563 0.524452 0
M  V30 32 H -2.569411 -3.224955 1.606572 0
M  V30 33 H -1.541846 -5.045751 0.825748 0
M  V30 34 H 0.175481 -5.192379 -0.652451 0
M  V30 35 H -0.579464 -3.645310 -1.019667 0
M  V30 36 H 1.747161 -3.470518 -1.060295 0
M  V30 37 H 0.744711 -1.567261 1.113094 0
M  V30 38 H 1.747951 0.644922 -2.568794 0
M  V30 39 H 3.223259 0.939937 -1.594529 0
M  V30 40 H 2.519712 2.936625 -0.697663 0
M  V30 41 H 2.095963 3.006139 -2.425251 0
M  V30 42 H -0.011461 4.219418 -2.588766 0
M  V30 43 H -4.000352 3.976069 -0.222300 0
M  V30 44 H -3.437492 2.983314 2.372072 0
M  V30 45 H -3.087155 0.771418 0.688159 0
M  V30 46 H -4.859876 0.763816 0.784482 0
M  V30 47 H -3.848037 0.693989 2.295424 0
M  V30 48 H -5.631269 3.381391 2.678831 0
M  V30 49 H -6.090860 2.219362 1.406829 0
M  V30 50 H -5.701251 3.883582 0.952677 0
M  V30 51 H 1.867006 1.700320 1.085553 0
M  V30 52 H 0.540869 0.449803 1.391731 0
M  V30 53 H 3.243452 -5.243425 -0.718903 0
M  V30 54 H 4.864177 -6.375282 0.780988 0
M  V30 55 H 1.467628 -3.249660 2.638380 0
M  V30 END ATOM
M  V30 BEGIN BOND
M  V30 1 1 1 2
M  V30 2 1 2 3
M  V30 3 1 3 4
M  V30 4 1 4 5
M  V30 5 1 5 6
M  V30 6 2 6 7
M  V30 7 1 6 8
M  V30 8 1 8 9
M  V30 9 1 9 10
M  V30 10 1 10 11
M  V30 11 2 11 12
M  V30 12 1 12 13
M  V30 13 2 13 14
M  V30 14 1 14 15
M  V30 15 1 15 16
M  V30 16 1 16 17
M  V30 17 1 16 18
M  V30 18 1 14 19
M  V30 19 2 19 20
M  V30 20 1 20 21
M  V30 21 1 4 22
M  V30 22 2 22 23
M  V30 23 1 23 24
M  V30 24 2 24 25
M  V30 25 1 25 26
M  V30 26 1 25 27
M  V30 27 1 27 28
M  V30 28 2 27 29
M  V30 29 1 21 8
M  V30 30 1 29 22
M  V30 31 1 20 11
M  V30 32 1 1 30
M  V30 33 1 1 31
M  V30 34 1 1 32
M  V30 35 1 2 33
M  V30 36 1 3 34
M  V30 37 1 3 35
M  V30 38 1 4 36 CFG=3
M  V30 39 1 5 37
M  V30 40 1 9 38
M  V30 41 1 9 39
M  V30 42 1 10 40
M  V30 43 1 10 41
M  V30 44 1 12 42
M  V30 45 1 15 43
M  V30 46 1 16 44
M  V30 47 1 17 45
M  V30 48 1 17 46
M  V30 49 1 17 47
M  V30 50 1 18 48
M  V30 51 1 18 49
M  V30 52 1 18 50
M  V30 53 1 21 51
M  V30 54 1 21 52
M  V30 55 1 23 53
M  V30 56 1 24 54
M  V30 57 1 29 55
M  V30 END BOND
M  V30 END CTAB
M  END
>  <Dataset>  (194) 
ChEMBL_Kinases

>  <Ligand_Instance>  (194) 
nan

>  <PDB_ID>  (194) 
nan

>  <Standardized_SMILES>  (194) 
CNC[C@@H](NC(=O)N1CCc2cnc(NC(C)C)nc2C1)c1ccc(F)c(Cl)c1

>  <Name>  (194) 
nan

>  <Pocket>  (194) 
nan

>  <ATP_Site>  (194) 
nan

>  <Peripheral>  (194) 
nan

>  <Num_H_Atoms_ProtBoundConf>  (194) 
nan

>  <Num_Resolved_Atoms>  (194) 
nan

>  <Num_Not_Resolved_Atoms>  (194) 
nan

$$$$
CHEMBL3297857
     RDKit          3D

  0  0  0  0  0  0  0  0  0  0999 V3000
M  V30 BEGIN CTAB
M  V30 COUNTS 59 61 0 0 0
M  V30 BEGIN ATOM
M  V30 1 C 1.663696 0.703709 4.244785 0
M  V30 2 C 2.787550 -0.232456 4.655676 0
M  V30 3 C 2.248913 -1.619146 4.766491 0
M  V30 4 N 3.854622 -0.222266 3.671326 0
M  V30 5 C 3.904500 -0.597286 2.303409 0
M  V30 6 N 4.486535 -1.623569 1.626562 0
M  V30 7 C 4.334454 -1.712197 0.293730 0
M  V30 8 C 3.604112 -0.810060 -0.481761 0
M  V30 9 C 3.042235 0.200057 0.260560 0
M  V30 10 N 3.200692 0.277424 1.574290 0
M  V30 11 C 2.228303 1.157708 -0.572640 0
M  V30 12 N 1.650756 0.289178 -1.609827 0
M  V30 13 C 0.355946 -0.293358 -1.753605 0
M  V30 14 O -0.034796 -0.982483 -2.724376 0
M  V30 15 N -0.545656 -0.046968 -0.667047 0
M  V30 16 C -1.853595 -0.629299 -0.793125 0 CFG=2
M  V30 17 C -2.901084 0.268221 -0.231434 0
M  V30 18 N -4.233632 -0.273845 -0.332064 0
M  V30 19 C -4.763432 -0.350923 -1.657546 0
M  V30 20 C -5.047314 1.027396 -2.236048 0
M  V30 21 O -5.981163 1.681013 -1.423908 0
M  V30 22 C -1.858700 -1.937416 -0.002598 0
M  V30 23 C -2.381956 -3.096964 -0.535785 0
M  V30 24 C -2.438282 -4.295346 0.100279 0
M  V30 25 C -1.926023 -4.355736 1.395350 0
M  V30 26 F -1.969057 -5.518906 2.054756 0
M  V30 27 C -1.392695 -3.189862 1.945970 0
M  V30 28 Cl -0.751031 -3.277705 3.580794 0
M  V30 29 C -1.343526 -1.982585 1.285426 0
M  V30 30 C 2.653943 -0.042560 -2.639246 0
M  V30 31 C 3.553574 -1.070218 -1.950882 0
M  V30 32 H 1.489750 0.736726 3.167068 0
M  V30 33 H 0.772094 0.446796 4.845347 0
M  V30 34 H 1.928711 1.757293 4.536009 0
M  V30 35 H 3.180136 0.164503 5.602380 0
M  V30 36 H 2.292028 -2.108044 3.776147 0
M  V30 37 H 2.905143 -2.188903 5.460434 0
M  V30 38 H 1.198396 -1.591343 5.128259 0
M  V30 39 H 4.843962 0.094482 3.831371 0
M  V30 40 H 4.844781 -2.575130 -0.134222 0
M  V30 41 H 2.891975 1.886308 -1.071254 0
M  V30 42 H 1.441852 1.630508 0.046818 0
M  V30 43 H -0.318323 0.511650 0.186150 0
M  V30 44 H -2.083585 -0.933039 -1.809614 0
M  V30 45 H -2.813656 1.276662 -0.630896 0
M  V30 46 H -2.705294 0.354784 0.870198 0
M  V30 47 H -4.325098 -1.180098 0.147712 0
M  V30 48 H -5.752510 -0.848035 -1.571137 0
M  V30 49 H -4.191281 -0.996606 -2.355823 0
M  V30 50 H -4.156376 1.655446 -2.299226 0
M  V30 51 H -5.496554 0.967709 -3.247315 0
M  V30 52 H -5.862680 2.643004 -1.467033 0
M  V30 53 H -2.788527 -3.048297 -1.557016 0
M  V30 54 H -2.864940 -5.147630 -0.393496 0
M  V30 55 H -0.928491 -1.081057 1.709171 0
M  V30 56 H 3.237178 0.853002 -2.917049 0
M  V30 57 H 2.185484 -0.556610 -3.500618 0
M  V30 58 H 3.066559 -2.060782 -2.058491 0
M  V30 59 H 4.530248 -1.121786 -2.431839 0
M  V30 END ATOM
M  V30 BEGIN BOND
M  V30 1 1 1 2
M  V30 2 1 2 3
M  V30 3 1 2 4
M  V30 4 1 4 5
M  V30 5 2 5 6
M  V30 6 1 6 7
M  V30 7 2 7 8
M  V30 8 1 8 9
M  V30 9 2 9 10
M  V30 10 1 9 11
M  V30 11 1 11 12
M  V30 12 1 12 13
M  V30 13 2 13 14
M  V30 14 1 13 15
M  V30 15 1 15 16
M  V30 16 1 16 17
M  V30 17 1 17 18
M  V30 18 1 18 19
M  V30 19 1 19 20
M  V30 20 1 20 21
M  V30 21 1 16 22
M  V30 22 2 22 23
M  V30 23 1 23 24
M  V30 24 2 24 25
M  V30 25 1 25 26
M  V30 26 1 25 27
M  V30 27 1 27 28
M  V30 28 2 27 29
M  V30 29 1 12 30
M  V30 30 1 30 31
M  V30 31 1 10 5
M  V30 32 1 29 22
M  V30 33 1 31 8
M  V30 34 1 1 32
M  V30 35 1 1 33
M  V30 36 1 1 34
M  V30 37 1 2 35
M  V30 38 1 3 36
M  V30 39 1 3 37
M  V30 40 1 3 38
M  V30 41 1 4 39
M  V30 42 1 7 40
M  V30 43 1 11 41
M  V30 44 1 11 42
M  V30 45 1 15 43
M  V30 46 1 16 44 CFG=3
M  V30 47 1 17 45
M  V30 48 1 17 46
M  V30 49 1 18 47
M  V30 50 1 19 48
M  V30 51 1 19 49
M  V30 52 1 20 50
M  V30 53 1 20 51
M  V30 54 1 21 52
M  V30 55 1 23 53
M  V30 56 1 24 54
M  V30 57 1 29 55
M  V30 58 1 30 56
M  V30 59 1 30 57
M  V30 60 1 31 58
M  V30 61 1 31 59
M  V30 END BOND
M  V30 END CTAB
M  END
>  <Dataset>  (195) 
ChEMBL_Kinases

>  <Ligand_Instance>  (195) 
nan

>  <PDB_ID>  (195) 
nan

>  <Standardized_SMILES>  (195) 
CC(C)Nc1ncc2c(n1)CN(C(=O)N[C@H](CNCCO)c1ccc(F)c(Cl)c1)CC2

>  <Name>  (195) 
nan

>  <Pocket>  (195) 
nan

>  <ATP_Site>  (195) 
nan

>  <Peripheral>  (195) 
nan

>  <Num_H_Atoms_ProtBoundConf>  (195) 
nan

>  <Num_Resolved_Atoms>  (195) 
nan

>  <Num_Not_Resolved_Atoms>  (195) 
nan

$$$$
CHEMBL3297858
     RDKit          3D

  0  0  0  0  0  0  0  0  0  0999 V3000
M  V30 BEGIN CTAB
M  V30 COUNTS 58 60 0 0 0
M  V30 BEGIN ATOM
M  V30 1 C 1.197465 2.508990 3.611106 0
M  V30 2 C 2.560750 2.777063 4.161048 0
M  V30 3 C 2.433315 3.800643 5.269876 0
M  V30 4 N 3.501675 3.277919 3.194685 0
M  V30 5 C 3.562207 2.252031 2.221765 0
M  V30 6 N 4.510718 1.319112 2.466733 0
M  V30 7 C 4.655531 0.282855 1.590134 0
M  V30 8 C 3.832371 0.222014 0.487388 0
M  V30 9 C 2.868521 1.196937 0.265893 0
M  V30 10 N 2.730138 2.228737 1.146106 0
M  V30 11 C 2.008990 1.069156 -0.951338 0
M  V30 12 N 1.540829 -0.303668 -0.944097 0
M  V30 13 C 0.143178 -0.544712 -1.019845 0
M  V30 14 O -0.560102 0.520402 -1.087765 0
M  V30 15 N -0.472755 -1.807108 -1.024177 0
M  V30 16 C -1.908773 -1.918441 -1.105295 0 CFG=2
M  V30 17 C -2.505269 -2.598257 0.106575 0
M  V30 18 N -3.950576 -2.704089 0.012817 0
M  V30 19 S -4.623690 -3.480781 1.398405 0
M  V30 20 C -4.291686 -2.562439 2.878297 0
M  V30 21 O -4.126838 -4.877321 1.554204 0
M  V30 22 O -6.113304 -3.522329 1.207529 0
M  V30 23 C -2.389708 -2.634039 -2.297583 0
M  V30 24 C -3.442964 -2.169648 -3.061380 0
M  V30 25 C -3.903411 -2.827464 -4.177607 0
M  V30 26 C -3.244681 -3.995172 -4.497098 0
M  V30 27 F -3.645001 -4.710580 -5.597686 0
M  V30 28 C -2.175931 -4.534131 -3.783603 0
M  V30 29 Cl -1.424576 -6.032191 -4.298878 0
M  V30 30 C -1.768853 -3.810926 -2.668136 0
M  V30 31 C 2.508133 -1.380378 -0.859703 0
M  V30 32 C 3.882211 -0.856503 -0.551432 0
M  V30 33 H 0.380075 2.696064 4.353820 0
M  V30 34 H 1.112269 1.442127 3.330173 0
M  V30 35 H 0.939839 3.118708 2.731745 0
M  V30 36 H 2.975159 1.851965 4.658741 0
M  V30 37 H 2.369607 3.312801 6.268566 0
M  V30 38 H 1.500933 4.427204 5.157352 0
M  V30 39 H 3.273317 4.524798 5.261266 0
M  V30 40 H 4.066083 4.175668 3.128753 0
M  V30 41 H 5.379643 -0.515467 1.688927 0
M  V30 42 H 2.704734 1.159559 -1.816204 0
M  V30 43 H 1.200417 1.798284 -0.961666 0
M  V30 44 H 0.151168 -2.654293 -0.966393 0
M  V30 45 H -2.327133 -0.894071 -1.154684 0
M  V30 46 H -2.299116 -1.931416 0.994219 0
M  V30 47 H -2.037540 -3.554705 0.363000 0
M  V30 48 H -4.411333 -1.791476 -0.085138 0
M  V30 49 H -4.882671 -1.634447 2.951922 0
M  V30 50 H -3.205885 -2.393392 2.944124 0
M  V30 51 H -4.563711 -3.209562 3.741972 0
M  V30 52 H -3.950048 -1.235222 -2.783127 0
M  V30 53 H -4.726083 -2.469058 -4.778234 0
M  V30 54 H -0.926436 -4.252604 -2.121374 0
M  V30 55 H 2.536042 -1.873205 -1.850569 0
M  V30 56 H 2.240599 -2.123021 -0.082828 0
M  V30 57 H 4.351461 -0.481219 -1.503706 0
M  V30 58 H 4.505306 -1.717548 -0.230328 0
M  V30 END ATOM
M  V30 BEGIN BOND
M  V30 1 1 1 2
M  V30 2 1 2 3
M  V30 3 1 2 4
M  V30 4 1 4 5
M  V30 5 2 5 6
M  V30 6 1 6 7
M  V30 7 2 7 8
M  V30 8 1 8 9
M  V30 9 2 9 10
M  V30 10 1 9 11
M  V30 11 1 11 12
M  V30 12 1 12 13
M  V30 13 2 13 14
M  V30 14 1 13 15
M  V30 15 1 15 16
M  V30 16 1 16 17
M  V30 17 1 17 18
M  V30 18 1 18 19
M  V30 19 1 19 20
M  V30 20 2 19 21
M  V30 21 2 19 22
M  V30 22 1 16 23
M  V30 23 2 23 24
M  V30 24 1 24 25
M  V30 25 2 25 26
M  V30 26 1 26 27
M  V30 27 1 26 28
M  V30 28 1 28 29
M  V30 29 2 28 30
M  V30 30 1 12 31
M  V30 31 1 31 32
M  V30 32 1 10 5
M  V30 33 1 30 23
M  V30 34 1 32 8
M  V30 35 1 1 33
M  V30 36 1 1 34
M  V30 37 1 1 35
M  V30 38 1 2 36
M  V30 39 1 3 37
M  V30 40 1 3 38
M  V30 41 1 3 39
M  V30 42 1 4 40
M  V30 43 1 7 41
M  V30 44 1 11 42
M  V30 45 1 11 43
M  V30 46 1 15 44
M  V30 47 1 16 45 CFG=3
M  V30 48 1 17 46
M  V30 49 1 17 47
M  V30 50 1 18 48
M  V30 51 1 20 49
M  V30 52 1 20 50
M  V30 53 1 20 51
M  V30 54 1 24 52
M  V30 55 1 25 53
M  V30 56 1 30 54
M  V30 57 1 31 55
M  V30 58 1 31 56
M  V30 59 1 32 57
M  V30 60 1 32 58
M  V30 END BOND
M  V30 END CTAB
M  END
>  <Dataset>  (196) 
ChEMBL_Kinases

>  <Ligand_Instance>  (196) 
nan

>  <PDB_ID>  (196) 
nan

>  <Standardized_SMILES>  (196) 
CC(C)Nc1ncc2c(n1)CN(C(=O)N[C@H](CNS(C)(=O)=O)c1ccc(F)c(Cl)c1)CC2

>  <Name>  (196) 
nan

>  <Pocket>  (196) 
nan

>  <ATP_Site>  (196) 
nan

>  <Peripheral>  (196) 
nan

>  <Num_H_Atoms_ProtBoundConf>  (196) 
nan

>  <Num_Resolved_Atoms>  (196) 
nan

>  <Num_Not_Resolved_Atoms>  (196) 
nan

$$$$
CHEMBL3297946
     RDKit          3D

  0  0  0  0  0  0  0  0  0  0999 V3000
M  V30 BEGIN CTAB
M  V30 COUNTS 44 47 0 0 0
M  V30 BEGIN ATOM
M  V30 1 C -1.771044 -6.949834 -0.715254 0
M  V30 2 O -0.845066 -5.916867 -0.832395 0
M  V30 3 C -1.128304 -4.561021 -0.847796 0
M  V30 4 C -0.053878 -3.676820 -0.974072 0
M  V30 5 C -0.291653 -2.314652 -0.993866 0
M  V30 6 C -1.598798 -1.884040 -0.886399 0
M  V30 7 N -1.828823 -0.479234 -0.908191 0
M  V30 8 C -0.794003 0.493281 -1.033304 0
M  V30 9 N -0.131961 1.164679 -2.000842 0
M  V30 10 C 0.763280 1.964875 -1.367086 0
M  V30 11 C 1.708186 2.871142 -1.810412 0
M  V30 12 C 2.525420 3.585051 -0.933273 0
M  V30 13 C 2.386142 3.379784 0.424704 0
M  V30 14 C 1.441334 2.474212 0.857170 0
M  V30 15 C 1.242046 2.208238 2.300015 0
M  V30 16 C 0.317282 2.992351 2.972603 0
M  V30 17 F -0.394593 3.973725 2.363099 0
M  V30 18 C 0.091449 2.782572 4.334205 0
M  V30 19 C 0.791840 1.795001 4.999613 0
M  V30 20 C 1.711127 1.020404 4.316479 0
M  V30 21 C 1.945399 1.215156 2.972217 0
M  V30 22 O 2.834566 0.512051 2.173850 0
M  V30 23 C 3.611350 -0.525477 2.739483 0
M  V30 24 C 0.631743 1.767628 -0.023459 0
M  V30 25 O -0.325409 0.865711 0.135369 0
M  V30 26 C -2.697123 -2.694206 -0.760188 0
M  V30 27 C -2.405089 -4.059207 -0.745314 0
M  V30 28 H -1.332037 -7.750922 -0.050992 0
M  V30 29 H -2.064203 -7.414642 -1.690041 0
M  V30 30 H -2.713531 -6.671531 -0.209685 0
M  V30 31 H 0.953635 -4.053362 -1.055536 0
M  V30 32 H 0.539934 -1.644285 -1.091171 0
M  V30 33 H -2.775686 -0.046924 -0.834172 0
M  V30 34 H 1.780762 2.998014 -2.877018 0
M  V30 35 H 3.256398 4.287617 -1.302851 0
M  V30 36 H 2.999693 3.912074 1.149738 0
M  V30 37 H -0.612738 3.366500 4.885619 0
M  V30 38 H 0.644019 1.607362 6.041010 0
M  V30 39 H 2.299347 0.223046 4.779697 0
M  V30 40 H 4.530258 -0.718546 2.133386 0
M  V30 41 H 3.084070 -1.479685 2.824374 0
M  V30 42 H 4.001916 -0.240701 3.746058 0
M  V30 43 H -3.692393 -2.300203 -0.680391 0
M  V30 44 H -3.236978 -4.749138 -0.647391 0
M  V30 END ATOM
M  V30 BEGIN BOND
M  V30 1 1 1 2
M  V30 2 1 2 3
M  V30 3 2 3 4
M  V30 4 1 4 5
M  V30 5 2 5 6
M  V30 6 1 6 7
M  V30 7 1 7 8
M  V30 8 2 8 9
M  V30 9 1 9 10
M  V30 10 2 10 11
M  V30 11 1 11 12
M  V30 12 2 12 13
M  V30 13 1 13 14
M  V30 14 1 14 15
M  V30 15 2 15 16
M  V30 16 1 16 17
M  V30 17 1 16 18
M  V30 18 2 18 19
M  V30 19 1 19 20
M  V30 20 2 20 21
M  V30 21 1 21 22
M  V30 22 1 22 23
M  V30 23 2 14 24
M  V30 24 1 24 25
M  V30 25 1 6 26
M  V30 26 2 26 27
M  V30 27 1 27 3
M  V30 28 1 25 8
M  V30 29 1 24 10
M  V30 30 1 21 15
M  V30 31 1 1 28
M  V30 32 1 1 29
M  V30 33 1 1 30
M  V30 34 1 4 31
M  V30 35 1 5 32
M  V30 36 1 7 33
M  V30 37 1 11 34
M  V30 38 1 12 35
M  V30 39 1 13 36
M  V30 40 1 18 37
M  V30 41 1 19 38
M  V30 42 1 20 39
M  V30 43 1 23 40
M  V30 44 1 23 41
M  V30 45 1 23 42
M  V30 46 1 26 43
M  V30 47 1 27 44
M  V30 END BOND
M  V30 END CTAB
M  END
>  <Dataset>  (197) 
ChEMBL_Kinases

>  <Ligand_Instance>  (197) 
nan

>  <PDB_ID>  (197) 
nan

>  <Standardized_SMILES>  (197) 
COc1ccc(Nc2nc3cccc(-c4c(F)cccc4OC)c3o2)cc1

>  <Name>  (197) 
nan

>  <Pocket>  (197) 
nan

>  <ATP_Site>  (197) 
nan

>  <Peripheral>  (197) 
nan

>  <Num_H_Atoms_ProtBoundConf>  (197) 
nan

>  <Num_Resolved_Atoms>  (197) 
nan

>  <Num_Not_Resolved_Atoms>  (197) 
nan

$$$$
CHEMBL3297947
     RDKit          3D

  0  0  0  0  0  0  0  0  0  0999 V3000
M  V30 BEGIN CTAB
M  V30 COUNTS 48 51 0 0 0
M  V30 BEGIN ATOM
M  V30 1 C -3.797503 -2.007466 2.790590 0
M  V30 2 O -2.710665 -1.546433 2.024442 0
M  V30 3 C -2.597193 -1.870411 0.679022 0
M  V30 4 C -1.539072 -1.424831 -0.077984 0
M  V30 5 C -1.360699 -1.704730 -1.412920 0
M  V30 6 N -0.275280 -1.252265 -2.205421 0
M  V30 7 C 0.801873 -0.442042 -1.760218 0
M  V30 8 N 1.838948 -0.016532 -2.542137 0
M  V30 9 C 2.667176 0.725928 -1.791861 0
M  V30 10 C 3.839001 1.364065 -2.138240 0
M  V30 11 C 4.516009 2.075421 -1.168263 0
M  V30 12 C 3.977876 2.109920 0.109195 0
M  V30 13 C 2.797458 1.466998 0.457697 0
M  V30 14 C 2.249818 1.516977 1.808575 0
M  V30 15 C 1.386922 2.596466 1.972758 0
M  V30 16 F 1.069475 3.512116 1.015305 0
M  V30 17 C 0.750005 2.834910 3.189887 0
M  V30 18 C 0.999030 1.969191 4.230301 0
M  V30 19 C 1.847284 0.908403 4.068147 0
M  V30 20 C 2.483053 0.663045 2.867634 0
M  V30 21 O 3.361631 -0.371594 2.573929 0
M  V30 22 C 3.653749 -1.291312 3.606437 0
M  V30 23 C 2.136079 0.760603 -0.528992 0
M  V30 24 O 1.036496 0.054028 -0.571971 0
M  V30 25 C -2.346398 -2.487213 -1.957137 0
M  V30 26 C -3.420513 -2.956633 -1.246829 0
M  V30 27 O -4.349074 -3.735363 -1.901103 0
M  V30 28 C -5.456095 -4.223281 -1.183109 0
M  V30 29 C -3.554992 -2.647914 0.091825 0
M  V30 30 H -3.963262 -3.095892 2.692727 0
M  V30 31 H -4.743886 -1.453983 2.546221 0
M  V30 32 H -3.574437 -1.818869 3.869541 0
M  V30 33 H -0.827876 -0.823308 0.440292 0
M  V30 34 H -0.272406 -1.547469 -3.218303 0
M  V30 35 H 4.195232 1.290185 -3.158244 0
M  V30 36 H 5.440107 2.591757 -1.396720 0
M  V30 37 H 4.495845 2.668297 0.899669 0
M  V30 38 H 0.072416 3.658281 3.366474 0
M  V30 39 H 0.517707 2.129054 5.189994 0
M  V30 40 H 2.070167 0.204957 4.859244 0
M  V30 41 H 2.817976 -2.004189 3.759418 0
M  V30 42 H 4.581541 -1.855090 3.370699 0
M  V30 43 H 3.839958 -0.774850 4.590326 0
M  V30 44 H -2.268602 -2.751347 -3.022325 0
M  V30 45 H -5.098457 -5.038113 -0.520838 0
M  V30 46 H -6.192644 -4.679271 -1.899329 0
M  V30 47 H -5.955939 -3.443447 -0.555968 0
M  V30 48 H -4.393815 -3.003967 0.682292 0
M  V30 END ATOM
M  V30 BEGIN BOND
M  V30 1 1 1 2
M  V30 2 1 2 3
M  V30 3 2 3 4
M  V30 4 1 4 5
M  V30 5 1 5 6
M  V30 6 1 6 7
M  V30 7 2 7 8
M  V30 8 1 8 9
M  V30 9 2 9 10
M  V30 10 1 10 11
M  V30 11 2 11 12
M  V30 12 1 12 13
M  V30 13 1 13 14
M  V30 14 2 14 15
M  V30 15 1 15 16
M  V30 16 1 15 17
M  V30 17 2 17 18
M  V30 18 1 18 19
M  V30 19 2 19 20
M  V30 20 1 20 21
M  V30 21 1 21 22
M  V30 22 2 13 23
M  V30 23 1 23 24
M  V30 24 2 5 25
M  V30 25 1 25 26
M  V30 26 1 26 27
M  V30 27 1 27 28
M  V30 28 2 26 29
M  V30 29 1 29 3
M  V30 30 1 24 7
M  V30 31 1 23 9
M  V30 32 1 20 14
M  V30 33 1 1 30
M  V30 34 1 1 31
M  V30 35 1 1 32
M  V30 36 1 4 33
M  V30 37 1 6 34
M  V30 38 1 10 35
M  V30 39 1 11 36
M  V30 40 1 12 37
M  V30 41 1 17 38
M  V30 42 1 18 39
M  V30 43 1 19 40
M  V30 44 1 22 41
M  V30 45 1 22 42
M  V30 46 1 22 43
M  V30 47 1 25 44
M  V30 48 1 28 45
M  V30 49 1 28 46
M  V30 50 1 28 47
M  V30 51 1 29 48
M  V30 END BOND
M  V30 END CTAB
M  END
>  <Dataset>  (198) 
ChEMBL_Kinases

>  <Ligand_Instance>  (198) 
nan

>  <PDB_ID>  (198) 
nan

>  <Standardized_SMILES>  (198) 
COc1cc(Nc2nc3cccc(-c4c(F)cccc4OC)c3o2)cc(OC)c1

>  <Name>  (198) 
nan

>  <Pocket>  (198) 
nan

>  <ATP_Site>  (198) 
nan

>  <Peripheral>  (198) 
nan

>  <Num_H_Atoms_ProtBoundConf>  (198) 
nan

>  <Num_Resolved_Atoms>  (198) 
nan

>  <Num_Not_Resolved_Atoms>  (198) 
nan

$$$$
CHEMBL3297949
     RDKit          3D

  0  0  0  0  0  0  0  0  0  0999 V3000
M  V30 BEGIN CTAB
M  V30 COUNTS 45 48 0 0 0
M  V30 BEGIN ATOM
M  V30 1 C -0.331154 0.849292 -2.022769 0
M  V30 2 O 0.611614 0.966294 -1.025464 0
M  V30 3 C 1.864671 0.439609 -0.887393 0
M  V30 4 C 2.692997 -0.362365 -1.593731 0
M  V30 5 C 3.965351 -0.733562 -1.159628 0
M  V30 6 C 4.372182 -0.228485 0.075672 0
M  V30 7 C 3.566343 0.591234 0.834262 0
M  V30 8 F 4.187509 0.938435 1.974047 0
M  V30 9 C 2.309829 0.927280 0.354921 0
M  V30 10 C 1.644115 1.796651 1.358213 0
M  V30 11 C 1.655488 3.166140 1.529148 0
M  V30 12 C 0.977507 3.747217 2.562880 0
M  V30 13 C 0.250975 3.016152 3.486409 0
M  V30 14 C 0.179311 1.634361 3.401321 0
M  V30 15 N -0.397293 0.614861 4.070434 0
M  V30 16 C -0.064825 -0.537867 3.437146 0
M  V30 17 N -0.391662 -1.927334 3.708385 0
M  V30 18 C -0.764784 -2.573483 2.456687 0
M  V30 19 C 0.271348 -3.330867 1.941365 0
M  V30 20 C 0.074314 -3.975711 0.712494 0
M  V30 21 C -1.127285 -3.842074 0.056410 0
M  V30 22 C -2.157659 -3.065220 0.607783 0
M  V30 23 S -3.676114 -2.866890 -0.205885 0
M  V30 24 N -3.733289 -1.440856 -1.184242 0
M  V30 25 O -4.841590 -2.845103 0.720522 0
M  V30 26 O -3.870666 -4.031325 -1.166692 0
M  V30 27 C -1.979091 -2.424206 1.820053 0
M  V30 28 O 0.685238 -0.190958 2.430639 0
M  V30 29 C 0.892899 1.093647 2.320638 0
M  V30 30 H -0.501948 1.740199 -2.666084 0
M  V30 31 H -1.319863 0.656799 -1.495093 0
M  V30 32 H -0.089360 -0.033215 -2.668141 0
M  V30 33 H 2.211582 -0.652954 -2.512057 0
M  V30 34 H 4.519925 -1.375190 -1.815972 0
M  V30 35 H 5.368275 -0.574640 0.314926 0
M  V30 36 H 2.243863 3.662920 0.764324 0
M  V30 37 H 1.033334 4.822960 2.628085 0
M  V30 38 H -0.282742 3.464706 4.307870 0
M  V30 39 H -0.342065 -2.360502 4.665685 0
M  V30 40 H 1.238487 -3.488921 2.389791 0
M  V30 41 H 0.802413 -4.592744 0.205687 0
M  V30 42 H -1.340365 -4.303254 -0.889247 0
M  V30 43 H -3.963333 -0.577867 -0.656301 0
M  V30 44 H -2.931948 -1.357580 -1.817429 0
M  V30 45 H -2.683698 -1.808586 2.350476 0
M  V30 END ATOM
M  V30 BEGIN BOND
M  V30 1 1 1 2
M  V30 2 1 2 3
M  V30 3 2 3 4
M  V30 4 1 4 5
M  V30 5 2 5 6
M  V30 6 1 6 7
M  V30 7 1 7 8
M  V30 8 2 7 9
M  V30 9 1 9 10
M  V30 10 2 10 11
M  V30 11 1 11 12
M  V30 12 2 12 13
M  V30 13 1 13 14
M  V30 14 1 14 15
M  V30 15 2 15 16
M  V30 16 1 16 17
M  V30 17 1 17 18
M  V30 18 2 18 19
M  V30 19 1 19 20
M  V30 20 2 20 21
M  V30 21 1 21 22
M  V30 22 1 22 23
M  V30 23 1 23 24
M  V30 24 2 23 25
M  V30 25 2 23 26
M  V30 26 2 22 27
M  V30 27 1 16 28
M  V30 28 1 28 29
M  V30 29 1 9 3
M  V30 30 1 29 10
M  V30 31 2 29 14
M  V30 32 1 27 18
M  V30 33 1 1 30
M  V30 34 1 1 31
M  V30 35 1 1 32
M  V30 36 1 4 33
M  V30 37 1 5 34
M  V30 38 1 6 35
M  V30 39 1 11 36
M  V30 40 1 12 37
M  V30 41 1 13 38
M  V30 42 1 17 39
M  V30 43 1 19 40
M  V30 44 1 20 41
M  V30 45 1 21 42
M  V30 46 1 24 43
M  V30 47 1 24 44
M  V30 48 1 27 45
M  V30 END BOND
M  V30 END CTAB
M  END
>  <Dataset>  (199) 
ChEMBL_Kinases

>  <Ligand_Instance>  (199) 
nan

>  <PDB_ID>  (199) 
nan

>  <Standardized_SMILES>  (199) 
COc1cccc(F)c1-c1cccc2nc(Nc3cccc(S(N)(=O)=O)c3)oc12

>  <Name>  (199) 
nan

>  <Pocket>  (199) 
nan

>  <ATP_Site>  (199) 
nan

>  <Peripheral>  (199) 
nan

>  <Num_H_Atoms_ProtBoundConf>  (199) 
nan

>  <Num_Resolved_Atoms>  (199) 
nan

>  <Num_Not_Resolved_Atoms>  (199) 
nan

$$$$
CHEMBL3297950
     RDKit          3D

  0  0  0  0  0  0  0  0  0  0999 V3000
M  V30 BEGIN CTAB
M  V30 COUNTS 46 49 0 0 0
M  V30 BEGIN ATOM
M  V30 1 C -1.143437 -4.921340 2.320699 0
M  V30 2 O -1.757475 -4.399029 1.173680 0
M  V30 3 C -1.157843 -3.538076 0.292548 0
M  V30 4 C 0.102909 -3.022969 0.327054 0
M  V30 5 C 0.634184 -2.146254 -0.617153 0
M  V30 6 C -0.195322 -1.765385 -1.685527 0
M  V30 7 N 0.467003 -0.815717 -2.560181 0
M  V30 8 C 1.452024 0.048828 -1.969785 0
M  V30 9 N 2.690090 0.531515 -2.144636 0
M  V30 10 C 2.979667 1.357286 -1.104486 0
M  V30 11 C 4.021834 2.140267 -0.669495 0
M  V30 12 C 3.944190 2.876210 0.511763 0
M  V30 13 C 2.800525 2.850051 1.306288 0
M  V30 14 C 1.728485 2.086584 0.921177 0
M  V30 15 C 0.416790 1.929624 1.588965 0
M  V30 16 C -0.617694 2.817989 1.310308 0
M  V30 17 F -0.378746 3.853701 0.438017 0
M  V30 18 C -1.882209 2.677121 1.896184 0
M  V30 19 C -2.079899 1.608496 2.778549 0
M  V30 20 C -1.029794 0.720599 3.050287 0
M  V30 21 C 0.208832 0.874562 2.464293 0
M  V30 22 O 1.207860 -0.016468 2.758122 0
M  V30 23 C 1.158951 -1.117561 3.606811 0
M  V30 24 C 1.899611 1.377353 -0.286101 0
M  V30 25 O 1.015341 0.579053 -0.848992 0
M  V30 26 C -1.470389 -2.261646 -1.757426 0
M  V30 27 C -1.904090 -3.116967 -0.783908 0
M  V30 28 N -3.241769 -3.551418 -0.968724 0
M  V30 29 H -1.341813 -6.012756 2.435424 0
M  V30 30 H -0.061018 -4.705142 2.311221 0
M  V30 31 H -1.541026 -4.389671 3.235822 0
M  V30 32 H 0.747367 -3.311359 1.143345 0
M  V30 33 H 1.651217 -1.802538 -0.484746 0
M  V30 34 H 0.245122 -0.745553 -3.594062 0
M  V30 35 H 4.892744 2.135221 -1.315581 0
M  V30 36 H 4.781716 3.482041 0.834216 0
M  V30 37 H 2.667969 3.387806 2.222935 0
M  V30 38 H -2.685119 3.384289 1.662171 0
M  V30 39 H -3.078472 1.533952 3.220608 0
M  V30 40 H -1.322700 -0.050042 3.742344 0
M  V30 41 H 2.056758 -1.034683 4.285783 0
M  V30 42 H 0.290186 -1.154207 4.288035 0
M  V30 43 H 1.309969 -2.105049 3.108265 0
M  V30 44 H -1.942513 -1.857878 -2.629536 0
M  V30 45 H -3.781592 -3.820234 -1.796654 0
M  V30 46 H -3.870128 -3.637075 -0.130020 0
M  V30 END ATOM
M  V30 BEGIN BOND
M  V30 1 1 1 2
M  V30 2 1 2 3
M  V30 3 2 3 4
M  V30 4 1 4 5
M  V30 5 2 5 6
M  V30 6 1 6 7
M  V30 7 1 7 8
M  V30 8 2 8 9
M  V30 9 1 9 10
M  V30 10 2 10 11
M  V30 11 1 11 12
M  V30 12 2 12 13
M  V30 13 1 13 14
M  V30 14 1 14 15
M  V30 15 2 15 16
M  V30 16 1 16 17
M  V30 17 1 16 18
M  V30 18 2 18 19
M  V30 19 1 19 20
M  V30 20 2 20 21
M  V30 21 1 21 22
M  V30 22 1 22 23
M  V30 23 2 14 24
M  V30 24 1 24 25
M  V30 25 1 6 26
M  V30 26 2 26 27
M  V30 27 1 27 28
M  V30 28 1 27 3
M  V30 29 1 25 8
M  V30 30 1 24 10
M  V30 31 1 21 15
M  V30 32 1 1 29
M  V30 33 1 1 30
M  V30 34 1 1 31
M  V30 35 1 4 32
M  V30 36 1 5 33
M  V30 37 1 7 34
M  V30 38 1 11 35
M  V30 39 1 12 36
M  V30 40 1 13 37
M  V30 41 1 18 38
M  V30 42 1 19 39
M  V30 43 1 20 40
M  V30 44 1 23 41
M  V30 45 1 23 42
M  V30 46 1 23 43
M  V30 47 1 26 44
M  V30 48 1 28 45
M  V30 49 1 28 46
M  V30 END BOND
M  V30 END CTAB
M  END
>  <Dataset>  (200) 
ChEMBL_Kinases

>  <Ligand_Instance>  (200) 
nan

>  <PDB_ID>  (200) 
nan

>  <Standardized_SMILES>  (200) 
COc1ccc(Nc2nc3cccc(-c4c(F)cccc4OC)c3o2)cc1N

>  <Name>  (200) 
nan

>  <Pocket>  (200) 
nan

>  <ATP_Site>  (200) 
nan

>  <Peripheral>  (200) 
nan

>  <Num_H_Atoms_ProtBoundConf>  (200) 
nan

>  <Num_Resolved_Atoms>  (200) 
nan

>  <Num_Not_Resolved_Atoms>  (200) 
nan

$$$$
CHEMBL3298040
     RDKit          3D

  0  0  0  0  0  0  0  0  0  0999 V3000
M  V30 BEGIN CTAB
M  V30 COUNTS 48 51 0 0 0
M  V30 BEGIN ATOM
M  V30 1 C -1.492191 -4.576073 4.598005 0
M  V30 2 O -2.101817 -4.501758 3.327763 0
M  V30 3 C -1.552742 -3.751978 2.294955 0
M  V30 4 C -0.378404 -3.062288 2.512801 0
M  V30 5 C 0.151626 -2.321530 1.472789 0
M  V30 6 N 1.363529 -1.588786 1.612080 0
M  V30 7 C 1.928635 -0.739359 0.597649 0
M  V30 8 N 2.721992 -0.778464 -0.486878 0
M  V30 9 C 2.814183 0.490519 -0.962554 0
M  V30 10 C 3.486613 1.020165 -2.036546 0
M  V30 11 C 3.392056 2.359139 -2.273263 0
M  V30 12 C 2.646538 3.202262 -1.474865 0
M  V30 13 C 1.971541 2.667878 -0.395906 0
M  V30 14 C 1.147360 3.422373 0.545620 0
M  V30 15 C 1.930954 3.877477 1.597991 0
M  V30 16 C 1.368718 4.626266 2.630869 0
M  V30 17 C 0.008603 4.893794 2.562332 0
M  V30 18 C -0.791829 4.441872 1.508338 0
M  V30 19 C -0.200363 3.703566 0.504599 0
M  V30 20 F -0.822533 3.195788 -0.573337 0
M  V30 21 C 2.059077 1.303736 -0.143061 0
M  V30 22 O 1.555633 0.510770 0.769809 0
M  V30 23 C -0.474774 -2.267902 0.239561 0
M  V30 24 C -1.640634 -2.955270 0.029251 0
M  V30 25 O -2.399614 -3.018550 -1.126434 0
M  V30 26 C -2.086229 -2.359201 -2.328636 0
M  V30 27 C -2.193409 -3.711500 1.071132 0
M  V30 28 O -3.387237 -4.446270 0.939520 0
M  V30 29 C -3.350511 -5.795431 0.510477 0
M  V30 30 H -1.131633 -3.579811 4.938395 0
M  V30 31 H -2.275087 -4.889727 5.332560 0
M  V30 32 H -0.722953 -5.354911 4.568514 0
M  V30 33 H 0.167377 -3.057227 3.446818 0
M  V30 34 H 1.945804 -1.602027 2.453473 0
M  V30 35 H 4.060265 0.327342 -2.637802 0
M  V30 36 H 3.920273 2.783110 -3.118345 0
M  V30 37 H 2.545168 4.269889 -1.627720 0
M  V30 38 H 2.992577 3.729361 1.753930 0
M  V30 39 H 1.875201 5.029902 3.494459 0
M  V30 40 H -0.504175 5.478155 3.338804 0
M  V30 41 H -1.850962 4.636570 1.431251 0
M  V30 42 H -0.112434 -1.707361 -0.613271 0
M  V30 43 H -3.001960 -2.036815 -2.875667 0
M  V30 44 H -1.421982 -1.502381 -2.164761 0
M  V30 45 H -1.558005 -3.114632 -2.980142 0
M  V30 46 H -4.286146 -6.320723 0.694352 0
M  V30 47 H -2.512676 -6.278813 1.088900 0
M  V30 48 H -3.059398 -5.818358 -0.553083 0
M  V30 END ATOM
M  V30 BEGIN BOND
M  V30 1 1 1 2
M  V30 2 1 2 3
M  V30 3 2 3 4
M  V30 4 1 4 5
M  V30 5 1 5 6
M  V30 6 1 6 7
M  V30 7 2 7 8
M  V30 8 1 8 9
M  V30 9 2 9 10
M  V30 10 1 10 11
M  V30 11 2 11 12
M  V30 12 1 12 13
M  V30 13 1 13 14
M  V30 14 2 14 15
M  V30 15 1 15 16
M  V30 16 2 16 17
M  V30 17 1 17 18
M  V30 18 2 18 19
M  V30 19 1 19 20
M  V30 20 2 13 21
M  V30 21 1 21 22
M  V30 22 2 5 23
M  V30 23 1 23 24
M  V30 24 1 24 25
M  V30 25 1 25 26
M  V30 26 2 24 27
M  V30 27 1 27 28
M  V30 28 1 28 29
M  V30 29 1 27 3
M  V30 30 1 22 7
M  V30 31 1 21 9
M  V30 32 1 19 14
M  V30 33 1 1 30
M  V30 34 1 1 31
M  V30 35 1 1 32
M  V30 36 1 4 33
M  V30 37 1 6 34
M  V30 38 1 10 35
M  V30 39 1 11 36
M  V30 40 1 12 37
M  V30 41 1 15 38
M  V30 42 1 16 39
M  V30 43 1 17 40
M  V30 44 1 18 41
M  V30 45 1 23 42
M  V30 46 1 26 43
M  V30 47 1 26 44
M  V30 48 1 26 45
M  V30 49 1 29 46
M  V30 50 1 29 47
M  V30 51 1 29 48
M  V30 END BOND
M  V30 END CTAB
M  END
>  <Dataset>  (201) 
ChEMBL_Kinases

>  <Ligand_Instance>  (201) 
nan

>  <PDB_ID>  (201) 
nan

>  <Standardized_SMILES>  (201) 
COc1cc(Nc2nc3cccc(-c4ccccc4F)c3o2)cc(OC)c1OC

>  <Name>  (201) 
nan

>  <Pocket>  (201) 
nan

>  <ATP_Site>  (201) 
nan

>  <Peripheral>  (201) 
nan

>  <Num_H_Atoms_ProtBoundConf>  (201) 
nan

>  <Num_Resolved_Atoms>  (201) 
nan

>  <Num_Not_Resolved_Atoms>  (201) 
nan

$$$$
CHEMBL3297855
     RDKit          3D

  0  0  0  0  0  0  0  0  0  0999 V3000
M  V30 BEGIN CTAB
M  V30 COUNTS 52 54 0 0 0
M  V30 BEGIN ATOM
M  V30 1 C 0.452586 -2.659538 3.173663 0
M  V30 2 C 1.670031 -3.549433 3.076570 0
M  V30 3 C 2.908564 -2.764166 3.460220 0
M  V30 4 N 1.805814 -4.224547 1.825923 0
M  V30 5 C 1.929110 -3.534069 0.591058 0
M  V30 6 N 2.056506 -4.139211 -0.590354 0
M  V30 7 C 2.175812 -3.523097 -1.779970 0
M  V30 8 C 2.165100 -2.142214 -1.774182 0
M  V30 9 C 2.033777 -1.490330 -0.558250 0
M  V30 10 N 1.917548 -2.170906 0.606344 0
M  V30 11 C 2.034493 -0.008191 -0.668296 0
M  V30 12 N 1.032733 0.288391 -1.701078 0
M  V30 13 C -0.267717 0.894956 -1.570963 0
M  V30 14 O -1.185464 1.187651 -2.384136 0
M  V30 15 N -0.657830 1.266972 -0.261496 0
M  V30 16 C -1.934290 1.899683 0.113734 0 CFG=2
M  V30 17 C -1.571353 3.214195 0.749596 0
M  V30 18 N -2.707252 3.987795 1.174713 0
M  V30 19 C -2.623280 1.010628 1.049439 0
M  V30 20 C -3.255250 1.183946 2.245291 0
M  V30 21 C -3.839548 0.144589 2.929660 0
M  V30 22 C -3.828255 -1.135042 2.460157 0
M  V30 23 F -4.444509 -2.051375 3.244686 0
M  V30 24 C -3.200708 -1.367373 1.251753 0
M  V30 25 Cl -3.206118 -3.016896 0.682999 0
M  V30 26 C -2.618778 -0.311586 0.577380 0
M  V30 27 C 1.490222 -0.115134 -3.007759 0
M  V30 28 C 2.291009 -1.369727 -3.036890 0
M  V30 29 H -0.435705 -3.270817 3.496566 0
M  V30 30 H 0.641378 -1.916245 3.992482 0
M  V30 31 H 0.170614 -2.204354 2.221680 0
M  V30 32 H 1.546917 -4.314243 3.883496 0
M  V30 33 H 3.359451 -2.233169 2.601355 0
M  V30 34 H 2.573852 -1.945436 4.162263 0
M  V30 35 H 3.608492 -3.395421 4.010838 0
M  V30 36 H 1.820598 -5.285245 1.764616 0
M  V30 37 H 2.277327 -4.055591 -2.719178 0
M  V30 38 H 3.029953 0.386901 -1.024488 0
M  V30 39 H 1.765060 0.410600 0.305907 0
M  V30 40 H -0.108764 1.151497 0.624617 0
M  V30 41 H -2.558277 2.043708 -0.797261 0
M  V30 42 H -0.912958 2.963215 1.628104 0
M  V30 43 H -0.916558 3.795416 0.057905 0
M  V30 44 H -3.079635 4.456130 0.303913 0
M  V30 45 H -2.321495 4.746056 1.812651 0
M  V30 46 H -3.237931 2.207219 2.577968 0
M  V30 47 H -4.315597 0.414226 3.879468 0
M  V30 48 H -2.162865 -0.658857 -0.363259 0
M  V30 49 H 0.596530 -0.260252 -3.660191 0
M  V30 50 H 2.066330 0.711144 -3.515582 0
M  V30 51 H 1.981935 -2.023768 -3.895902 0
M  V30 52 H 3.352736 -1.125228 -3.244093 0
M  V30 END ATOM
M  V30 BEGIN BOND
M  V30 1 1 1 2
M  V30 2 1 2 3
M  V30 3 1 2 4
M  V30 4 1 4 5
M  V30 5 2 5 6
M  V30 6 1 6 7
M  V30 7 2 7 8
M  V30 8 1 8 9
M  V30 9 2 9 10
M  V30 10 1 9 11
M  V30 11 1 11 12
M  V30 12 1 12 13
M  V30 13 2 13 14
M  V30 14 1 13 15
M  V30 15 1 15 16
M  V30 16 1 16 17
M  V30 17 1 17 18
M  V30 18 1 16 19
M  V30 19 2 19 20
M  V30 20 1 20 21
M  V30 21 2 21 22
M  V30 22 1 22 23
M  V30 23 1 22 24
M  V30 24 1 24 25
M  V30 25 2 24 26
M  V30 26 1 12 27
M  V30 27 1 27 28
M  V30 28 1 10 5
M  V30 29 1 26 19
M  V30 30 1 28 8
M  V30 31 1 1 29
M  V30 32 1 1 30
M  V30 33 1 1 31
M  V30 34 1 2 32
M  V30 35 1 3 33
M  V30 36 1 3 34
M  V30 37 1 3 35
M  V30 38 1 4 36
M  V30 39 1 7 37
M  V30 40 1 11 38
M  V30 41 1 11 39
M  V30 42 1 15 40
M  V30 43 1 16 41 CFG=3
M  V30 44 1 17 42
M  V30 45 1 17 43
M  V30 46 1 18 44
M  V30 47 1 18 45
M  V30 48 1 20 46
M  V30 49 1 21 47
M  V30 50 1 26 48
M  V30 51 1 27 49
M  V30 52 1 27 50
M  V30 53 1 28 51
M  V30 54 1 28 52
M  V30 END BOND
M  V30 END CTAB
M  END
>  <Dataset>  (202) 
ChEMBL_Kinases

>  <Ligand_Instance>  (202) 
nan

>  <PDB_ID>  (202) 
nan

>  <Standardized_SMILES>  (202) 
CC(C)Nc1ncc2c(n1)CN(C(=O)N[C@H](CN)c1ccc(F)c(Cl)c1)CC2

>  <Name>  (202) 
nan

>  <Pocket>  (202) 
nan

>  <ATP_Site>  (202) 
nan

>  <Peripheral>  (202) 
nan

>  <Num_H_Atoms_ProtBoundConf>  (202) 
nan

>  <Num_Resolved_Atoms>  (202) 
nan

>  <Num_Not_Resolved_Atoms>  (202) 
nan

$$$$
CHEMBL3322590
     RDKit          3D

  0  0  0  0  0  0  0  0  0  0999 V3000
M  V30 BEGIN CTAB
M  V30 COUNTS 50 54 0 0 0
M  V30 BEGIN ATOM
M  V30 1 O -0.631315 -6.968377 1.672802 0
M  V30 2 C -0.442596 -5.789228 1.342651 0
M  V30 3 N -0.170581 -4.700481 2.210696 0
M  V30 4 C -0.026480 -3.537472 1.407584 0
M  V30 5 C 0.242177 -2.247512 1.809195 0
M  V30 6 C 0.346598 -1.242773 0.875721 0
M  V30 7 N 0.596056 0.147735 0.997688 0
M  V30 8 C 1.824490 0.838597 1.017334 0
M  V30 9 O 2.763684 0.006353 0.907347 0
M  V30 10 C 1.925782 2.285194 1.145907 0
M  V30 11 C 3.263752 2.704868 1.129416 0
M  V30 12 N 3.572142 4.009218 1.230535 0
M  V30 13 C 2.679811 5.017767 1.353462 0
M  V30 14 C 1.376320 4.580703 1.367453 0
M  V30 15 C 0.246181 5.531429 1.487635 0
M  V30 16 C -0.159733 5.803380 2.780811 0
M  V30 17 C -1.213050 6.689328 2.868983 0
M  V30 18 C -1.852334 7.288728 1.804396 0
M  V30 19 C -1.365994 6.946880 0.543369 0
M  V30 20 C -0.318524 6.071528 0.352426 0
M  V30 21 F 0.175251 5.720042 -0.846232 0
M  V30 22 C 0.983565 3.267459 1.268952 0
M  V30 23 O -0.178199 2.856249 1.279903 0
M  V30 24 C 0.180523 -1.527007 -0.485738 0
M  V30 25 C -0.093235 -2.841287 -0.891209 0
M  V30 26 C -0.193802 -3.837965 0.072569 0
M  V30 27 C -0.460420 -5.268826 0.003955 0
M  V30 28 C -0.674367 -6.000382 -1.068735 0
M  V30 29 C -0.926736 -7.418026 -1.187823 0
M  V30 30 C -0.422450 -8.587154 -0.725275 0
M  V30 31 C -1.116960 -9.685967 -1.170342 0
M  V30 32 C -2.123983 -9.157248 -1.967453 0
M  V30 33 N -1.984828 -7.822252 -1.957462 0
M  V30 34 H -0.097929 -4.783638 3.239608 0
M  V30 35 H 0.392749 -1.881867 2.803672 0
M  V30 36 H -0.327636 0.618053 1.076875 0
M  V30 37 H 4.131843 2.032697 1.037014 0
M  V30 38 H 4.589634 4.313041 1.216746 0
M  V30 39 H 2.930126 6.057983 1.433791 0
M  V30 40 H 0.306561 5.361836 3.650125 0
M  V30 41 H -1.601054 6.963557 3.846292 0
M  V30 42 H -2.675965 7.978498 1.924772 0
M  V30 43 H -1.840732 7.396684 -0.343626 0
M  V30 44 H 0.230516 -0.878637 -1.346354 0
M  V30 45 H -0.237291 -3.159523 -1.913574 0
M  V30 46 H -0.649778 -5.420417 -2.010798 0
M  V30 47 H 0.429769 -8.636831 -0.096214 0
M  V30 48 H -0.965798 -10.730743 -0.982101 0
M  V30 49 H -2.857731 -9.763484 -2.477605 0
M  V30 50 H -2.676509 -7.242146 -2.519880 0
M  V30 END ATOM
M  V30 BEGIN BOND
M  V30 1 2 1 2
M  V30 2 1 2 3
M  V30 3 1 3 4
M  V30 4 2 4 5
M  V30 5 1 5 6
M  V30 6 1 6 7
M  V30 7 1 7 8
M  V30 8 2 8 9
M  V30 9 1 8 10
M  V30 10 2 10 11
M  V30 11 1 11 12
M  V30 12 1 12 13
M  V30 13 2 13 14
M  V30 14 1 14 15
M  V30 15 2 15 16
M  V30 16 1 16 17
M  V30 17 2 17 18
M  V30 18 1 18 19
M  V30 19 2 19 20
M  V30 20 1 20 21
M  V30 21 1 14 22
M  V30 22 2 22 23
M  V30 23 2 6 24
M  V30 24 1 24 25
M  V30 25 2 25 26
M  V30 26 1 26 27
M  V30 27 2 27 28
M  V30 28 1 28 29
M  V30 29 2 29 30
M  V30 30 1 30 31
M  V30 31 2 31 32
M  V30 32 1 32 33
M  V30 33 1 27 2
M  V30 34 1 33 29
M  V30 35 1 26 4
M  V30 36 1 22 10
M  V30 37 1 20 15
M  V30 38 1 3 34
M  V30 39 1 5 35
M  V30 40 1 7 36
M  V30 41 1 11 37
M  V30 42 1 12 38
M  V30 43 1 13 39
M  V30 44 1 16 40
M  V30 45 1 17 41
M  V30 46 1 18 42
M  V30 47 1 19 43
M  V30 48 1 24 44
M  V30 49 1 25 45
M  V30 50 1 28 46
M  V30 51 1 30 47
M  V30 52 1 31 48
M  V30 53 1 32 49
M  V30 54 1 33 50
M  V30 END BOND
M  V30 END CTAB
M  END
>  <Dataset>  (203) 
ChEMBL_Kinases

>  <Ligand_Instance>  (203) 
nan

>  <PDB_ID>  (203) 
nan

>  <Standardized_SMILES>  (203) 
O=C1Nc2cc(NC(=O)c3c[nH]cc(-c4ccccc4F)c3=O)ccc2/C1=C/c1ccc[nH]1

>  <Name>  (203) 
nan

>  <Pocket>  (203) 
nan

>  <ATP_Site>  (203) 
nan

>  <Peripheral>  (203) 
nan

>  <Num_H_Atoms_ProtBoundConf>  (203) 
nan

>  <Num_Resolved_Atoms>  (203) 
nan

>  <Num_Not_Resolved_Atoms>  (203) 
nan

$$$$
CHEMBL3322589
     RDKit          3D

  0  0  0  0  0  0  0  0  0  0999 V3000
M  V30 BEGIN CTAB
M  V30 COUNTS 50 54 0 0 0
M  V30 BEGIN ATOM
M  V30 1 O -3.020016 -5.802149 -0.770293 0
M  V30 2 C -2.310510 -4.780572 -0.704374 0
M  V30 3 N -1.658544 -4.292018 0.454493 0
M  V30 4 C -0.975181 -3.132466 0.075772 0
M  V30 5 C -0.175229 -2.241709 0.754520 0
M  V30 6 C 0.477218 -1.088973 0.258700 0
M  V30 7 N 1.307199 -0.181229 1.014194 0
M  V30 8 C 2.791723 -0.325555 1.233177 0
M  V30 9 O 3.898083 -1.052069 0.997755 0
M  V30 10 C 3.172630 0.846946 2.068982 0
M  V30 11 C 4.488663 1.067398 2.496042 0
M  V30 12 N 4.970596 2.065588 3.247069 0
M  V30 13 C 4.119874 2.999744 3.668811 0
M  V30 14 C 2.801766 2.903000 3.320970 0
M  V30 15 C 1.861773 3.920090 3.775773 0
M  V30 16 C 2.025339 4.255202 5.100158 0
M  V30 17 C 1.174522 5.227973 5.634781 0
M  V30 18 C 0.185210 5.858015 4.885520 0
M  V30 19 C 0.096794 5.450303 3.550189 0
M  V30 20 Cl -1.113952 6.174000 2.499487 0
M  V30 21 C 0.901768 4.508122 2.985196 0
M  V30 22 C 2.340666 1.872060 2.553219 0
M  V30 23 O 1.142008 1.768201 2.226243 0
M  V30 24 C 0.202363 -0.932371 -1.109009 0
M  V30 25 C -0.577640 -1.738673 -1.925394 0
M  V30 26 C -1.115717 -2.800931 -1.246690 0
M  V30 27 C -1.988532 -3.862306 -1.794553 0
M  V30 28 C -2.449840 -4.035265 -3.013099 0
M  V30 29 C -3.312159 -5.063126 -3.562293 0
M  V30 30 C -4.490599 -5.610074 -3.177799 0
M  V30 31 C -4.746875 -6.573932 -4.139629 0
M  V30 32 C -3.740439 -6.627157 -5.112549 0
M  V30 33 N -2.887803 -5.662348 -4.687397 0
M  V30 34 H -1.711774 -4.745817 1.375565 0
M  V30 35 H 0.008970 -2.409872 1.830290 0
M  V30 36 H 1.857065 -0.913407 0.660964 0
M  V30 37 H 5.232642 0.345571 2.189758 0
M  V30 38 H 5.976202 2.113300 3.495614 0
M  V30 39 H 4.413257 3.828599 4.268895 0
M  V30 40 H 2.719961 3.887491 5.828791 0
M  V30 41 H 1.222530 5.563987 6.674041 0
M  V30 42 H -0.463299 6.606509 5.310644 0
M  V30 43 H 0.848127 4.184186 1.964212 0
M  V30 44 H 0.671762 -0.059748 -1.557390 0
M  V30 45 H -0.715643 -1.518136 -2.964082 0
M  V30 46 H -2.108884 -3.246262 -3.706057 0
M  V30 47 H -5.086489 -5.347143 -2.340086 0
M  V30 48 H -5.610206 -7.226699 -4.169865 0
M  V30 49 H -3.722696 -7.289827 -5.950049 0
M  V30 50 H -2.025163 -5.527886 -5.299956 0
M  V30 END ATOM
M  V30 BEGIN BOND
M  V30 1 2 1 2
M  V30 2 1 2 3
M  V30 3 1 3 4
M  V30 4 2 4 5
M  V30 5 1 5 6
M  V30 6 1 6 7
M  V30 7 1 7 8
M  V30 8 2 8 9
M  V30 9 1 8 10
M  V30 10 2 10 11
M  V30 11 1 11 12
M  V30 12 1 12 13
M  V30 13 2 13 14
M  V30 14 1 14 15
M  V30 15 2 15 16
M  V30 16 1 16 17
M  V30 17 2 17 18
M  V30 18 1 18 19
M  V30 19 1 19 20
M  V30 20 2 19 21
M  V30 21 1 14 22
M  V30 22 2 22 23
M  V30 23 2 6 24
M  V30 24 1 24 25
M  V30 25 2 25 26
M  V30 26 1 26 27
M  V30 27 2 27 28
M  V30 28 1 28 29
M  V30 29 2 29 30
M  V30 30 1 30 31
M  V30 31 2 31 32
M  V30 32 1 32 33
M  V30 33 1 27 2
M  V30 34 1 33 29
M  V30 35 1 26 4
M  V30 36 1 22 10
M  V30 37 1 21 15
M  V30 38 1 3 34
M  V30 39 1 5 35
M  V30 40 1 7 36
M  V30 41 1 11 37
M  V30 42 1 12 38
M  V30 43 1 13 39
M  V30 44 1 16 40
M  V30 45 1 17 41
M  V30 46 1 18 42
M  V30 47 1 21 43
M  V30 48 1 24 44
M  V30 49 1 25 45
M  V30 50 1 28 46
M  V30 51 1 30 47
M  V30 52 1 31 48
M  V30 53 1 32 49
M  V30 54 1 33 50
M  V30 END BOND
M  V30 END CTAB
M  END
>  <Dataset>  (204) 
ChEMBL_Kinases

>  <Ligand_Instance>  (204) 
nan

>  <PDB_ID>  (204) 
nan

>  <Standardized_SMILES>  (204) 
O=C1Nc2cc(NC(=O)c3c[nH]cc(-c4cccc(Cl)c4)c3=O)ccc2/C1=C/c1ccc[nH]1

>  <Name>  (204) 
nan

>  <Pocket>  (204) 
nan

>  <ATP_Site>  (204) 
nan

>  <Peripheral>  (204) 
nan

>  <Num_H_Atoms_ProtBoundConf>  (204) 
nan

>  <Num_Resolved_Atoms>  (204) 
nan

>  <Num_Not_Resolved_Atoms>  (204) 
nan

$$$$
CHEMBL3322588
     RDKit          3D

  0  0  0  0  0  0  0  0  0  0999 V3000
M  V30 BEGIN CTAB
M  V30 COUNTS 53 57 0 0 0
M  V30 BEGIN ATOM
M  V30 1 O -0.942701 -6.374588 -0.206374 0
M  V30 2 C -0.522831 -5.411417 0.520458 0
M  V30 3 N 0.357358 -4.522307 -0.147956 0
M  V30 4 C 0.644410 -3.591604 0.862602 0
M  V30 5 C 1.422383 -2.419246 0.902529 0
M  V30 6 C 1.523669 -1.617858 2.067378 0
M  V30 7 N 2.341863 -0.528893 1.840789 0
M  V30 8 C 3.204251 0.578189 1.617337 0
M  V30 9 O 4.227693 0.024475 2.101288 0
M  V30 10 C 2.859036 1.877344 1.007299 0
M  V30 11 C 3.938117 2.784343 0.913003 0
M  V30 12 N 3.740240 3.947942 0.364925 0
M  V30 13 C 2.598878 4.438724 -0.147531 0
M  V30 14 C 1.581810 3.492645 -0.016815 0
M  V30 15 C 0.300755 3.903889 -0.572327 0
M  V30 16 C -0.985566 3.851808 -0.196390 0
M  V30 17 C -2.218797 4.191369 -0.637624 0
M  V30 18 C -2.013989 4.782705 -1.897874 0
M  V30 19 C -3.211471 5.265098 -2.655830 0
M  V30 20 F -3.343652 6.618390 -2.672156 0
M  V30 21 F -2.998025 4.844316 -3.972688 0
M  V30 22 F -4.376106 4.661240 -2.233673 0
M  V30 23 C -0.793110 4.972947 -2.552133 0
M  V30 24 C 0.354758 4.526158 -1.871095 0
M  V30 25 C 1.568841 2.235723 0.512632 0
M  V30 26 O 0.578062 1.496258 0.560841 0
M  V30 27 C 0.868943 -1.952606 3.210457 0
M  V30 28 C 0.089019 -3.090359 3.247986 0
M  V30 29 C 0.061433 -3.788606 2.058636 0
M  V30 30 C -0.775794 -5.026493 1.947076 0
M  V30 31 C -1.570840 -5.683185 2.737874 0
M  V30 32 C -2.238985 -6.859930 2.204478 0
M  V30 33 C -3.620634 -7.199903 2.012698 0
M  V30 34 C -3.495694 -8.448609 1.526473 0
M  V30 35 C -2.274880 -9.001101 1.362858 0
M  V30 36 N -1.539165 -7.966532 1.801050 0
M  V30 37 H 0.746259 -4.474949 -1.107362 0
M  V30 38 H 1.941355 -2.160231 -0.046488 0
M  V30 39 H 1.424380 -0.005451 1.595629 0
M  V30 40 H 4.897662 2.419103 1.323836 0
M  V30 41 H 4.610983 4.562706 0.324403 0
M  V30 42 H 2.465291 5.407474 -0.584677 0
M  V30 43 H -1.023196 3.371297 0.798357 0
M  V30 44 H -3.148562 4.061278 -0.177452 0
M  V30 45 H -0.740256 5.441851 -3.524218 0
M  V30 46 H 1.259729 4.709876 -2.447281 0
M  V30 47 H 0.989399 -1.298266 4.056350 0
M  V30 48 H -0.401734 -3.330722 4.149554 0
M  V30 49 H -1.630321 -5.251130 3.727694 0
M  V30 50 H -4.409347 -6.528698 2.244142 0
M  V30 51 H -4.419824 -9.006471 1.263890 0
M  V30 52 H -1.852764 -9.922202 1.020956 0
M  V30 53 H -0.462265 -8.019772 1.850071 0
M  V30 END ATOM
M  V30 BEGIN BOND
M  V30 1 2 1 2
M  V30 2 1 2 3
M  V30 3 1 3 4
M  V30 4 2 4 5
M  V30 5 1 5 6
M  V30 6 1 6 7
M  V30 7 1 7 8
M  V30 8 2 8 9
M  V30 9 1 8 10
M  V30 10 2 10 11
M  V30 11 1 11 12
M  V30 12 1 12 13
M  V30 13 2 13 14
M  V30 14 1 14 15
M  V30 15 2 15 16
M  V30 16 1 16 17
M  V30 17 2 17 18
M  V30 18 1 18 19
M  V30 19 1 19 20
M  V30 20 1 19 21
M  V30 21 1 19 22
M  V30 22 1 18 23
M  V30 23 2 23 24
M  V30 24 1 14 25
M  V30 25 2 25 26
M  V30 26 2 6 27
M  V30 27 1 27 28
M  V30 28 2 28 29
M  V30 29 1 29 30
M  V30 30 2 30 31
M  V30 31 1 31 32
M  V30 32 2 32 33
M  V30 33 1 33 34
M  V30 34 2 34 35
M  V30 35 1 35 36
M  V30 36 1 30 2
M  V30 37 1 36 32
M  V30 38 1 29 4
M  V30 39 1 25 10
M  V30 40 1 24 15
M  V30 41 1 3 37
M  V30 42 1 5 38
M  V30 43 1 7 39
M  V30 44 1 11 40
M  V30 45 1 12 41
M  V30 46 1 13 42
M  V30 47 1 16 43
M  V30 48 1 17 44
M  V30 49 1 23 45
M  V30 50 1 24 46
M  V30 51 1 27 47
M  V30 52 1 28 48
M  V30 53 1 31 49
M  V30 54 1 33 50
M  V30 55 1 34 51
M  V30 56 1 35 52
M  V30 57 1 36 53
M  V30 END BOND
M  V30 END CTAB
M  END
>  <Dataset>  (205) 
ChEMBL_Kinases

>  <Ligand_Instance>  (205) 
nan

>  <PDB_ID>  (205) 
nan

>  <Standardized_SMILES>  (205) 
O=C1Nc2cc(NC(=O)c3c[nH]cc(-c4ccc(C(F)(F)F)cc4)c3=O)ccc2/C1=C/c1ccc[nH]1

>  <Name>  (205) 
nan

>  <Pocket>  (205) 
nan

>  <ATP_Site>  (205) 
nan

>  <Peripheral>  (205) 
nan

>  <Num_H_Atoms_ProtBoundConf>  (205) 
nan

>  <Num_Resolved_Atoms>  (205) 
nan

>  <Num_Not_Resolved_Atoms>  (205) 
nan

$$$$
CHEMBL3322587
     RDKit          3D

  0  0  0  0  0  0  0  0  0  0999 V3000
M  V30 BEGIN CTAB
M  V30 COUNTS 50 54 0 0 0
M  V30 BEGIN ATOM
M  V30 1 O -1.860242 -6.425321 2.533520 0
M  V30 2 C -1.344645 -5.388267 2.060960 0
M  V30 3 N -1.106160 -4.183432 2.749894 0
M  V30 4 C -0.512064 -3.285699 1.822953 0
M  V30 5 C -0.099195 -1.994535 2.012246 0
M  V30 6 C 0.465293 -1.256638 0.982233 0
M  V30 7 N 0.936707 0.077675 1.002051 0
M  V30 8 C 2.130639 0.766816 1.273785 0
M  V30 9 O 3.033863 -0.070449 1.593133 0
M  V30 10 C 2.258295 2.214850 1.187577 0
M  V30 11 C 3.565178 2.612800 1.510778 0
M  V30 12 N 3.898851 3.917258 1.489394 0
M  V30 13 C 3.051402 4.911998 1.171708 0
M  V30 14 C 1.766803 4.531938 0.853237 0
M  V30 15 C 0.685380 5.447672 0.478150 0
M  V30 16 C -0.620994 5.437381 0.941516 0
M  V30 17 C -1.478190 6.395898 0.448770 0
M  V30 18 C -1.075556 7.335632 -0.467052 0
M  V30 19 Cl -2.352997 8.458534 -0.950984 0
M  V30 20 C 0.221274 7.341687 -0.923094 0
M  V30 21 C 1.108548 6.384185 -0.441722 0
M  V30 22 C 1.382102 3.221889 0.861092 0
M  V30 23 O 0.256780 2.792582 0.590836 0
M  V30 24 C 0.596671 -1.872525 -0.243943 0
M  V30 25 C 0.188221 -3.190568 -0.482877 0
M  V30 26 C -0.368877 -3.869148 0.594618 0
M  V30 27 C -0.887082 -5.222487 0.688188 0
M  V30 28 C -0.955820 -6.159534 -0.218105 0
M  V30 29 C -1.457544 -7.519589 -0.135126 0
M  V30 30 C -1.342101 -8.604505 0.679610 0
M  V30 31 C -2.112917 -9.666013 0.253062 0
M  V30 32 C -2.730214 -9.196655 -0.885934 0
M  V30 33 N -2.334985 -7.938418 -1.098610 0
M  V30 34 H -1.349133 -4.050252 3.758418 0
M  V30 35 H -0.171974 -1.451255 2.944913 0
M  V30 36 H 0.053053 0.549378 0.721285 0
M  V30 37 H 4.380023 1.954732 1.790477 0
M  V30 38 H 4.868509 4.236526 1.726455 0
M  V30 39 H 3.265687 5.959209 1.139178 0
M  V30 40 H -0.795037 4.645606 1.655740 0
M  V30 41 H -2.481287 6.328466 0.854417 0
M  V30 42 H 0.419889 8.124320 -1.638719 0
M  V30 43 H 2.094690 6.491852 -0.874573 0
M  V30 44 H 1.019980 -1.404045 -1.118862 0
M  V30 45 H 0.271231 -3.708420 -1.416836 0
M  V30 46 H -0.561292 -5.839964 -1.187068 0
M  V30 47 H -0.697736 -8.592490 1.540183 0
M  V30 48 H -2.189199 -10.634257 0.733384 0
M  V30 49 H -3.406544 -9.823721 -1.444777 0
M  V30 50 H -2.725761 -7.432137 -1.946215 0
M  V30 END ATOM
M  V30 BEGIN BOND
M  V30 1 2 1 2
M  V30 2 1 2 3
M  V30 3 1 3 4
M  V30 4 2 4 5
M  V30 5 1 5 6
M  V30 6 1 6 7
M  V30 7 1 7 8
M  V30 8 2 8 9
M  V30 9 1 8 10
M  V30 10 2 10 11
M  V30 11 1 11 12
M  V30 12 1 12 13
M  V30 13 2 13 14
M  V30 14 1 14 15
M  V30 15 2 15 16
M  V30 16 1 16 17
M  V30 17 2 17 18
M  V30 18 1 18 19
M  V30 19 1 18 20
M  V30 20 2 20 21
M  V30 21 1 14 22
M  V30 22 2 22 23
M  V30 23 2 6 24
M  V30 24 1 24 25
M  V30 25 2 25 26
M  V30 26 1 26 27
M  V30 27 2 27 28
M  V30 28 1 28 29
M  V30 29 2 29 30
M  V30 30 1 30 31
M  V30 31 2 31 32
M  V30 32 1 32 33
M  V30 33 1 27 2
M  V30 34 1 33 29
M  V30 35 1 26 4
M  V30 36 1 22 10
M  V30 37 1 21 15
M  V30 38 1 3 34
M  V30 39 1 5 35
M  V30 40 1 7 36
M  V30 41 1 11 37
M  V30 42 1 12 38
M  V30 43 1 13 39
M  V30 44 1 16 40
M  V30 45 1 17 41
M  V30 46 1 20 42
M  V30 47 1 21 43
M  V30 48 1 24 44
M  V30 49 1 25 45
M  V30 50 1 28 46
M  V30 51 1 30 47
M  V30 52 1 31 48
M  V30 53 1 32 49
M  V30 54 1 33 50
M  V30 END BOND
M  V30 END CTAB
M  END
>  <Dataset>  (206) 
ChEMBL_Kinases

>  <Ligand_Instance>  (206) 
nan

>  <PDB_ID>  (206) 
nan

>  <Standardized_SMILES>  (206) 
O=C1Nc2cc(NC(=O)c3c[nH]cc(-c4ccc(Cl)cc4)c3=O)ccc2/C1=C/c1ccc[nH]1

>  <Name>  (206) 
nan

>  <Pocket>  (206) 
nan

>  <ATP_Site>  (206) 
nan

>  <Peripheral>  (206) 
nan

>  <Num_H_Atoms_ProtBoundConf>  (206) 
nan

>  <Num_Resolved_Atoms>  (206) 
nan

>  <Num_Not_Resolved_Atoms>  (206) 
nan

$$$$
CHEMBL3322586
     RDKit          3D

  0  0  0  0  0  0  0  0  0  0999 V3000
M  V30 BEGIN CTAB
M  V30 COUNTS 53 57 0 0 0
M  V30 BEGIN ATOM
M  V30 1 C 6.692847 -5.768546 2.908066 0
M  V30 2 C 6.219741 -4.407948 2.517041 0
M  V30 3 C 6.613114 -3.260977 3.175194 0
M  V30 4 C 6.097282 -2.044125 2.712631 0
M  V30 5 C 5.230373 -2.034161 1.635836 0
M  V30 6 C 4.808266 -0.674196 1.313808 0
M  V30 7 C 5.629995 0.429034 1.234177 0
M  V30 8 N 5.045084 1.593951 0.923390 0
M  V30 9 C 3.728390 1.739268 0.690477 0
M  V30 10 C 2.868585 0.635608 0.764168 0
M  V30 11 C 1.501897 1.022219 0.474580 0
M  V30 12 O 1.045552 2.157139 0.190391 0
M  V30 13 N 0.426641 0.097228 0.475383 0
M  V30 14 C -0.971811 0.190941 0.235110 0
M  V30 15 C -1.387715 0.037474 -1.085680 0
M  V30 16 C -2.740032 0.103343 -1.438564 0
M  V30 17 C -3.645639 0.327654 -0.416330 0
M  V30 18 C -3.259845 0.482898 0.899472 0
M  V30 19 C -1.907687 0.415337 1.239354 0
M  V30 20 N -4.421646 0.698376 1.731264 0
M  V30 21 C -5.528252 0.668290 0.869627 0
M  V30 22 O -6.672534 0.830151 1.318748 0
M  V30 23 C -5.091972 0.436873 -0.496136 0
M  V30 24 C -5.955206 0.399867 -1.489488 0
M  V30 25 C -7.395713 0.513066 -1.480499 0
M  V30 26 C -8.150369 1.349956 -2.309646 0
M  V30 27 C -9.501127 1.156591 -2.035487 0
M  V30 28 C -9.573771 0.201827 -1.039633 0
M  V30 29 N -8.311194 -0.140796 -0.752469 0
M  V30 30 C 3.458002 -0.565093 1.082472 0
M  V30 31 O 2.655168 -1.504890 1.134555 0
M  V30 32 C 4.835011 -3.179307 0.975403 0
M  V30 33 C 5.355317 -4.383615 1.445141 0
M  V30 34 H 7.142417 -5.795369 3.921503 0
M  V30 35 H 5.849361 -6.492897 2.920765 0
M  V30 36 H 7.437245 -6.163030 2.212542 0
M  V30 37 H 7.293482 -3.378988 4.004619 0
M  V30 38 H 6.447035 -1.201225 3.272110 0
M  V30 39 H 6.681401 0.270480 1.428638 0
M  V30 40 H 5.705069 2.402637 0.874208 0
M  V30 41 H 3.434868 2.759380 0.452456 0
M  V30 42 H 0.531453 -0.916636 0.680566 0
M  V30 43 H -0.661879 -0.140896 -1.895014 0
M  V30 44 H -3.071867 -0.015711 -2.469419 0
M  V30 45 H -1.566186 0.532039 2.259105 0
M  V30 46 H -4.377610 0.842041 2.766106 0
M  V30 47 H -5.526916 0.262917 -2.482552 0
M  V30 48 H -7.681788 2.026565 -3.038016 0
M  V30 49 H -10.213661 1.748831 -2.611750 0
M  V30 50 H -10.538261 -0.096948 -0.678077 0
M  V30 51 H -8.187463 -0.871005 -0.022293 0
M  V30 52 H 4.150978 -3.040774 0.145246 0
M  V30 53 H 5.041635 -5.268830 0.924505 0
M  V30 END ATOM
M  V30 BEGIN BOND
M  V30 1 1 1 2
M  V30 2 2 2 3
M  V30 3 1 3 4
M  V30 4 2 4 5
M  V30 5 1 5 6
M  V30 6 2 6 7
M  V30 7 1 7 8
M  V30 8 1 8 9
M  V30 9 2 9 10
M  V30 10 1 10 11
M  V30 11 2 11 12
M  V30 12 1 11 13
M  V30 13 1 13 14
M  V30 14 2 14 15
M  V30 15 1 15 16
M  V30 16 2 16 17
M  V30 17 1 17 18
M  V30 18 2 18 19
M  V30 19 1 18 20
M  V30 20 1 20 21
M  V30 21 2 21 22
M  V30 22 1 21 23
M  V30 23 2 23 24
M  V30 24 1 24 25
M  V30 25 2 25 26
M  V30 26 1 26 27
M  V30 27 2 27 28
M  V30 28 1 28 29
M  V30 29 1 10 30
M  V30 30 2 30 31
M  V30 31 1 5 32
M  V30 32 2 32 33
M  V30 33 1 33 2
M  V30 34 1 30 6
M  V30 35 1 19 14
M  V30 36 1 29 25
M  V30 37 1 23 17
M  V30 38 1 1 34
M  V30 39 1 1 35
M  V30 40 1 1 36
M  V30 41 1 3 37
M  V30 42 1 4 38
M  V30 43 1 7 39
M  V30 44 1 8 40
M  V30 45 1 9 41
M  V30 46 1 13 42
M  V30 47 1 15 43
M  V30 48 1 16 44
M  V30 49 1 19 45
M  V30 50 1 20 46
M  V30 51 1 24 47
M  V30 52 1 26 48
M  V30 53 1 27 49
M  V30 54 1 28 50
M  V30 55 1 29 51
M  V30 56 1 32 52
M  V30 57 1 33 53
M  V30 END BOND
M  V30 END CTAB
M  END
>  <Dataset>  (207) 
ChEMBL_Kinases

>  <Ligand_Instance>  (207) 
nan

>  <PDB_ID>  (207) 
nan

>  <Standardized_SMILES>  (207) 
Cc1ccc(-c2c[nH]cc(C(=O)Nc3ccc4c(c3)NC(=O)/C4=C\c3ccc[nH]3)c2=O)cc1

>  <Name>  (207) 
nan

>  <Pocket>  (207) 
nan

>  <ATP_Site>  (207) 
nan

>  <Peripheral>  (207) 
nan

>  <Num_H_Atoms_ProtBoundConf>  (207) 
nan

>  <Num_Resolved_Atoms>  (207) 
nan

>  <Num_Not_Resolved_Atoms>  (207) 
nan

$$$$
CHEMBL3322585
     RDKit          3D

  0  0  0  0  0  0  0  0  0  0999 V3000
M  V30 BEGIN CTAB
M  V30 COUNTS 50 54 0 0 0
M  V30 BEGIN ATOM
M  V30 1 O -1.576256 -6.405528 -0.368888 0
M  V30 2 C -1.136020 -5.232824 -0.482688 0
M  V30 3 N -0.185221 -4.681109 0.396859 0
M  V30 4 C 0.021797 -3.365028 -0.087361 0
M  V30 5 C 0.846037 -2.343011 0.353864 0
M  V30 6 C 0.849891 -1.127390 -0.341143 0
M  V30 7 N 1.783143 -0.099143 0.093770 0
M  V30 8 C 2.796579 0.736703 0.326297 0
M  V30 9 O 3.696460 0.273792 -0.483815 0
M  V30 10 C 2.939364 1.868060 1.214009 0
M  V30 11 C 4.207422 2.391084 1.080114 0
M  V30 12 N 4.611320 3.463412 1.804796 0
M  V30 13 C 3.798686 4.063532 2.682486 0
M  V30 14 C 2.525874 3.565456 2.839212 0
M  V30 15 C 1.507295 4.111413 3.746845 0
M  V30 16 C 1.735754 4.444875 5.079674 0
M  V30 17 C 0.705795 4.962389 5.854638 0
M  V30 18 C -0.569398 5.165392 5.344871 0
M  V30 19 C -0.748106 4.821509 4.024031 0
M  V30 20 C 0.245452 4.303846 3.214119 0
M  V30 21 C 2.105523 2.484936 2.115715 0
M  V30 22 O 0.991549 1.951346 2.171896 0
M  V30 23 C 0.065751 -0.874725 -1.461144 0
M  V30 24 C -0.771562 -1.891590 -1.921607 0
M  V30 25 C -0.726216 -3.054711 -1.199656 0
M  V30 26 C -1.488707 -4.267702 -1.471094 0
M  V30 27 C -2.337266 -4.490927 -2.449050 0
M  V30 28 C -3.084670 -5.693645 -2.766895 0
M  V30 29 C -2.643480 -6.969977 -2.884615 0
M  V30 30 C -3.719802 -7.817188 -3.187704 0
M  V30 31 C -4.819274 -6.966181 -3.241915 0
M  V30 32 N -4.424051 -5.699723 -2.988111 0
M  V30 33 H 0.255567 -5.136618 1.205963 0
M  V30 34 H 1.493789 -2.437780 1.217539 0
M  V30 35 H 0.991224 0.239255 0.745405 0
M  V30 36 H 5.008931 2.032669 0.415130 0
M  V30 37 H 5.549967 3.880252 1.731844 0
M  V30 38 H 4.025420 4.924899 3.308547 0
M  V30 39 H 2.724641 4.273177 5.433745 0
M  V30 40 H 0.910138 5.215412 6.894008 0
M  V30 41 H -1.390685 5.569156 5.933033 0
M  V30 42 H -1.727158 4.959835 3.573875 0
M  V30 43 H 0.013001 4.064470 2.187173 0
M  V30 44 H 0.105836 0.078419 -1.957829 0
M  V30 45 H -1.404762 -1.760852 -2.786117 0
M  V30 46 H -2.540655 -3.680578 -3.153233 0
M  V30 47 H -1.677344 -7.414903 -2.807365 0
M  V30 48 H -3.744283 -8.880774 -3.348773 0
M  V30 49 H -5.831812 -7.310073 -3.459095 0
M  V30 50 H -5.063956 -4.884745 -2.972094 0
M  V30 END ATOM
M  V30 BEGIN BOND
M  V30 1 2 1 2
M  V30 2 1 2 3
M  V30 3 1 3 4
M  V30 4 2 4 5
M  V30 5 1 5 6
M  V30 6 1 6 7
M  V30 7 1 7 8
M  V30 8 2 8 9
M  V30 9 1 8 10
M  V30 10 2 10 11
M  V30 11 1 11 12
M  V30 12 1 12 13
M  V30 13 2 13 14
M  V30 14 1 14 15
M  V30 15 2 15 16
M  V30 16 1 16 17
M  V30 17 2 17 18
M  V30 18 1 18 19
M  V30 19 2 19 20
M  V30 20 1 14 21
M  V30 21 2 21 22
M  V30 22 2 6 23
M  V30 23 1 23 24
M  V30 24 2 24 25
M  V30 25 1 25 26
M  V30 26 2 26 27
M  V30 27 1 27 28
M  V30 28 2 28 29
M  V30 29 1 29 30
M  V30 30 2 30 31
M  V30 31 1 31 32
M  V30 32 1 26 2
M  V30 33 1 32 28
M  V30 34 1 25 4
M  V30 35 1 21 10
M  V30 36 1 20 15
M  V30 37 1 3 33
M  V30 38 1 5 34
M  V30 39 1 7 35
M  V30 40 1 11 36
M  V30 41 1 12 37
M  V30 42 1 13 38
M  V30 43 1 16 39
M  V30 44 1 17 40
M  V30 45 1 18 41
M  V30 46 1 19 42
M  V30 47 1 20 43
M  V30 48 1 23 44
M  V30 49 1 24 45
M  V30 50 1 27 46
M  V30 51 1 29 47
M  V30 52 1 30 48
M  V30 53 1 31 49
M  V30 54 1 32 50
M  V30 END BOND
M  V30 END CTAB
M  END
>  <Dataset>  (208) 
ChEMBL_Kinases

>  <Ligand_Instance>  (208) 
nan

>  <PDB_ID>  (208) 
nan

>  <Standardized_SMILES>  (208) 
O=C1Nc2cc(NC(=O)c3c[nH]cc(-c4ccccc4)c3=O)ccc2/C1=C/c1ccc[nH]1

>  <Name>  (208) 
nan

>  <Pocket>  (208) 
nan

>  <ATP_Site>  (208) 
nan

>  <Peripheral>  (208) 
nan

>  <Num_H_Atoms_ProtBoundConf>  (208) 
nan

>  <Num_Resolved_Atoms>  (208) 
nan

>  <Num_Not_Resolved_Atoms>  (208) 
nan

$$$$
CHEMBL3322584
     RDKit          3D

  0  0  0  0  0  0  0  0  0  0999 V3000
M  V30 BEGIN CTAB
M  V30 COUNTS 54 58 0 0 0
M  V30 BEGIN ATOM
M  V30 1 C 7.286591 -0.074417 5.146259 0
M  V30 2 O 6.723593 1.218885 5.075634 0
M  V30 3 C 5.847817 1.529853 4.051261 0
M  V30 4 C 5.315771 2.820115 4.020193 0
M  V30 5 C 4.425662 3.324828 3.081189 0
M  V30 6 C 4.043669 2.460076 2.097703 0
M  V30 7 C 3.106279 2.976716 1.102378 0
M  V30 8 C 3.163698 4.200863 0.471760 0
M  V30 9 N 2.216495 4.525121 -0.423529 0
M  V30 10 C 1.208101 3.685157 -0.724119 0
M  V30 11 C 1.104411 2.428157 -0.110464 0
M  V30 12 C -0.055537 1.710282 -0.597748 0
M  V30 13 O -0.904915 2.089304 -1.446864 0
M  V30 14 N -0.402427 0.424820 -0.160415 0
M  V30 15 C -1.387700 -0.577563 -0.359736 0
M  V30 16 C -1.110311 -1.520169 -1.354614 0
M  V30 17 C -1.975526 -2.573805 -1.682288 0
M  V30 18 C -3.123050 -2.611727 -0.948842 0
M  V30 19 C -3.480689 -1.717721 0.057738 0
M  V30 20 C -2.579206 -0.703548 0.327554 0
M  V30 21 N -4.746681 -2.072083 0.599089 0
M  V30 22 C -5.222096 -3.231070 -0.078995 0
M  V30 23 O -6.305604 -3.776232 0.173320 0
M  V30 24 C -4.201070 -3.569915 -1.051162 0
M  V30 25 C -4.372666 -4.582049 -1.845430 0
M  V30 26 C -5.435084 -5.561167 -1.970375 0
M  V30 27 C -6.071183 -5.948964 -3.156415 0
M  V30 28 C -7.008121 -6.939890 -2.843728 0
M  V30 29 C -6.922996 -7.129581 -1.500702 0
M  V30 30 N -5.989268 -6.308341 -1.000113 0
M  V30 31 C 2.090074 2.127355 0.801200 0
M  V30 32 O 1.941351 0.997508 1.310993 0
M  V30 33 C 4.529973 1.168686 2.065907 0
M  V30 34 C 5.410826 0.714546 3.019675 0
M  V30 35 H 8.013162 -0.160278 4.305468 0
M  V30 36 H 6.505140 -0.843759 4.968005 0
M  V30 37 H 7.794789 -0.257499 6.109841 0
M  V30 38 H 5.623126 3.516623 4.808629 0
M  V30 39 H 4.086620 4.330148 3.159313 0
M  V30 40 H 3.999607 4.828025 0.759285 0
M  V30 41 H 2.310842 5.462813 -0.868605 0
M  V30 42 H 0.514104 4.090000 -1.470872 0
M  V30 43 H 0.138176 -0.115457 0.547369 0
M  V30 44 H -0.170393 -1.449253 -1.919603 0
M  V30 45 H -1.729208 -3.272268 -2.447813 0
M  V30 46 H -2.766227 0.035180 1.088934 0
M  V30 47 H -5.237678 -1.559225 1.367198 0
M  V30 48 H -3.581101 -4.774455 -2.589502 0
M  V30 49 H -5.794169 -5.483666 -4.101462 0
M  V30 50 H -7.566697 -7.317298 -3.714963 0
M  V30 51 H -7.591493 -7.876175 -1.084138 0
M  V30 52 H -5.824410 -6.373976 0.025115 0
M  V30 53 H 4.221090 0.487605 1.279877 0
M  V30 54 H 5.825499 -0.294565 3.040309 0
M  V30 END ATOM
M  V30 BEGIN BOND
M  V30 1 1 1 2
M  V30 2 1 2 3
M  V30 3 2 3 4
M  V30 4 1 4 5
M  V30 5 2 5 6
M  V30 6 1 6 7
M  V30 7 2 7 8
M  V30 8 1 8 9
M  V30 9 1 9 10
M  V30 10 2 10 11
M  V30 11 1 11 12
M  V30 12 2 12 13
M  V30 13 1 12 14
M  V30 14 1 14 15
M  V30 15 2 15 16
M  V30 16 1 16 17
M  V30 17 2 17 18
M  V30 18 1 18 19
M  V30 19 2 19 20
M  V30 20 1 19 21
M  V30 21 1 21 22
M  V30 22 2 22 23
M  V30 23 1 22 24
M  V30 24 2 24 25
M  V30 25 1 25 26
M  V30 26 2 26 27
M  V30 27 1 27 28
M  V30 28 2 28 29
M  V30 29 1 29 30
M  V30 30 1 11 31
M  V30 31 2 31 32
M  V30 32 1 6 33
M  V30 33 2 33 34
M  V30 34 1 34 3
M  V30 35 1 31 7
M  V30 36 1 20 15
M  V30 37 1 30 26
M  V30 38 1 24 18
M  V30 39 1 1 35
M  V30 40 1 1 36
M  V30 41 1 1 37
M  V30 42 1 4 38
M  V30 43 1 5 39
M  V30 44 1 8 40
M  V30 45 1 9 41
M  V30 46 1 10 42
M  V30 47 1 14 43
M  V30 48 1 16 44
M  V30 49 1 17 45
M  V30 50 1 20 46
M  V30 51 1 21 47
M  V30 52 1 25 48
M  V30 53 1 27 49
M  V30 54 1 28 50
M  V30 55 1 29 51
M  V30 56 1 30 52
M  V30 57 1 33 53
M  V30 58 1 34 54
M  V30 END BOND
M  V30 END CTAB
M  END
>  <Dataset>  (209) 
ChEMBL_Kinases

>  <Ligand_Instance>  (209) 
nan

>  <PDB_ID>  (209) 
nan

>  <Standardized_SMILES>  (209) 
COc1ccc(-c2c[nH]cc(C(=O)Nc3ccc4c(c3)NC(=O)/C4=C\c3ccc[nH]3)c2=O)cc1

>  <Name>  (209) 
nan

>  <Pocket>  (209) 
nan

>  <ATP_Site>  (209) 
nan

>  <Peripheral>  (209) 
nan

>  <Num_H_Atoms_ProtBoundConf>  (209) 
nan

>  <Num_Resolved_Atoms>  (209) 
nan

>  <Num_Not_Resolved_Atoms>  (209) 
nan

$$$$
CHEMBL3322583
     RDKit          3D

  0  0  0  0  0  0  0  0  0  0999 V3000
M  V30 BEGIN CTAB
M  V30 COUNTS 50 54 0 0 0
M  V30 BEGIN ATOM
M  V30 1 O -2.387178 -6.447364 0.940645 0
M  V30 2 C -1.765084 -5.394240 0.706054 0
M  V30 3 N -1.364510 -4.483621 1.701781 0
M  V30 4 C -0.693705 -3.430078 1.015368 0
M  V30 5 C -0.108327 -2.284555 1.521445 0
M  V30 6 C 0.502595 -1.362462 0.689707 0
M  V30 7 N 1.136936 -0.155396 1.059386 0
M  V30 8 C 2.413329 0.317664 1.427757 0
M  V30 9 O 3.243768 -0.624842 1.421669 0
M  V30 10 C 2.685171 1.705252 1.758191 0
M  V30 11 C 4.024714 1.932338 2.066286 0
M  V30 12 N 4.459580 3.162363 2.385475 0
M  V30 13 C 3.661234 4.244383 2.432730 0
M  V30 14 C 2.313893 4.061462 2.131771 0
M  V30 15 C 1.309793 5.122090 2.135582 0
M  V30 16 C 0.054098 5.012930 2.697773 0
M  V30 17 C -0.863870 6.044114 2.678083 0
M  V30 18 C -0.524867 7.243177 2.072984 0
M  V30 19 F -1.395650 8.299232 2.024125 0
M  V30 20 C 0.725363 7.338830 1.518332 0
M  V30 21 C 1.651648 6.323774 1.528284 0
M  V30 22 C 1.864552 2.802199 1.804300 0
M  V30 23 O 0.681127 2.589987 1.530837 0
M  V30 24 C 0.503187 -1.632874 -0.659878 0
M  V30 25 C -0.073145 -2.774594 -1.229012 0
M  V30 26 C -0.667000 -3.655488 -0.344426 0
M  V30 27 C -1.347875 -4.917060 -0.603373 0
M  V30 28 C -1.575069 -5.560038 -1.714575 0
M  V30 29 C -2.245193 -6.823104 -1.942285 0
M  V30 30 C -2.277990 -8.099081 -1.465142 0
M  V30 31 C -3.207073 -8.881097 -2.117725 0
M  V30 32 C -3.774264 -8.035804 -3.047078 0
M  V30 33 N -3.194288 -6.831747 -2.926968 0
M  V30 34 H -1.535500 -4.583459 2.721694 0
M  V30 35 H -0.089184 -2.039962 2.569052 0
M  V30 36 H 0.291878 0.445140 0.991893 0
M  V30 37 H 4.795308 1.158993 2.071970 0
M  V30 38 H 5.446307 3.345684 2.614953 0
M  V30 39 H 3.970292 5.249310 2.684239 0
M  V30 40 H -0.161031 4.059828 3.155852 0
M  V30 41 H -1.837103 5.915708 3.130324 0
M  V30 42 H 0.975870 8.287586 1.047176 0
M  V30 43 H 2.623564 6.462709 1.072140 0
M  V30 44 H 0.956246 -0.970362 -1.385925 0
M  V30 45 H -0.070884 -2.983399 -2.288414 0
M  V30 46 H -1.166464 -5.005674 -2.580264 0
M  V30 47 H -1.621939 -8.398674 -0.682987 0
M  V30 48 H -3.355084 -9.928987 -1.850445 0
M  V30 49 H -4.548791 -8.386345 -3.712371 0
M  V30 50 H -3.537866 -6.075886 -3.587726 0
M  V30 END ATOM
M  V30 BEGIN BOND
M  V30 1 2 1 2
M  V30 2 1 2 3
M  V30 3 1 3 4
M  V30 4 2 4 5
M  V30 5 1 5 6
M  V30 6 1 6 7
M  V30 7 1 7 8
M  V30 8 2 8 9
M  V30 9 1 8 10
M  V30 10 2 10 11
M  V30 11 1 11 12
M  V30 12 1 12 13
M  V30 13 2 13 14
M  V30 14 1 14 15
M  V30 15 2 15 16
M  V30 16 1 16 17
M  V30 17 2 17 18
M  V30 18 1 18 19
M  V30 19 1 18 20
M  V30 20 2 20 21
M  V30 21 1 14 22
M  V30 22 2 22 23
M  V30 23 2 6 24
M  V30 24 1 24 25
M  V30 25 2 25 26
M  V30 26 1 26 27
M  V30 27 2 27 28
M  V30 28 1 28 29
M  V30 29 2 29 30
M  V30 30 1 30 31
M  V30 31 2 31 32
M  V30 32 1 32 33
M  V30 33 1 27 2
M  V30 34 1 33 29
M  V30 35 1 26 4
M  V30 36 1 22 10
M  V30 37 1 21 15
M  V30 38 1 3 34
M  V30 39 1 5 35
M  V30 40 1 7 36
M  V30 41 1 11 37
M  V30 42 1 12 38
M  V30 43 1 13 39
M  V30 44 1 16 40
M  V30 45 1 17 41
M  V30 46 1 20 42
M  V30 47 1 21 43
M  V30 48 1 24 44
M  V30 49 1 25 45
M  V30 50 1 28 46
M  V30 51 1 30 47
M  V30 52 1 31 48
M  V30 53 1 32 49
M  V30 54 1 33 50
M  V30 END BOND
M  V30 END CTAB
M  END
>  <Dataset>  (210) 
ChEMBL_Kinases

>  <Ligand_Instance>  (210) 
nan

>  <PDB_ID>  (210) 
nan

>  <Standardized_SMILES>  (210) 
O=C1Nc2cc(NC(=O)c3c[nH]cc(-c4ccc(F)cc4)c3=O)ccc2/C1=C/c1ccc[nH]1

>  <Name>  (210) 
nan

>  <Pocket>  (210) 
nan

>  <ATP_Site>  (210) 
nan

>  <Peripheral>  (210) 
nan

>  <Num_H_Atoms_ProtBoundConf>  (210) 
nan

>  <Num_Resolved_Atoms>  (210) 
nan

>  <Num_Not_Resolved_Atoms>  (210) 
nan

$$$$
CHEMBL3322582
     RDKit          3D

  0  0  0  0  0  0  0  0  0  0999 V3000
M  V30 BEGIN CTAB
M  V30 COUNTS 52 55 0 0 0
M  V30 BEGIN ATOM
M  V30 1 C 2.140126 -8.088512 0.988261 0
M  V30 2 C 2.421117 -6.630232 1.034690 0
M  V30 3 N 1.588651 -5.616904 1.214647 0
M  V30 4 C 2.227561 -4.406685 1.194160 0
M  V30 5 C 1.453348 -3.202806 1.418036 0
M  V30 6 C 1.280003 -2.114212 0.703638 0
M  V30 7 C 1.912218 -1.925445 -0.589686 0
M  V30 8 O 2.649342 -2.729771 -1.189260 0
M  V30 9 N 1.516408 -0.639415 -1.032450 0
M  V30 10 C 0.671392 -0.073822 -0.035865 0
M  V30 11 C 0.020721 1.164386 0.016509 0
M  V30 12 C -0.775978 1.536400 1.100784 0
M  V30 13 N -1.383497 2.819216 1.037478 0
M  V30 14 C -2.658279 2.745057 0.420149 0
M  V30 15 O -2.868935 1.521362 0.106127 0
M  V30 16 C -3.590602 3.807227 0.163928 0
M  V30 17 C -4.778234 3.407055 -0.470599 0
M  V30 18 C -5.760184 4.301462 -0.780683 0
M  V30 19 C -5.622491 5.633615 -0.482121 0
M  V30 20 N -4.486983 6.020849 0.125334 0
M  V30 21 C -4.265237 7.408317 0.473502 0
M  V30 22 C -3.525897 5.132264 0.426650 0
M  V30 23 O -2.492340 5.516131 0.985183 0
M  V30 24 C -0.920839 0.634362 2.162406 0
M  V30 25 C -0.283577 -0.594350 2.125389 0
M  V30 26 C 0.497813 -0.929902 1.036023 0
M  V30 27 C 3.518564 -4.751506 0.989306 0
M  V30 28 C 4.647238 -3.794637 0.924466 0
M  V30 29 C 3.694191 -6.115565 0.882304 0
M  V30 30 C 4.952792 -6.816035 0.659281 0
M  V30 31 O 6.108246 -6.292124 0.524464 0
M  V30 32 O 4.966399 -8.199142 0.574411 0
M  V30 33 H 1.155193 -8.353741 1.458079 0
M  V30 34 H 2.042451 -8.428916 -0.063194 0
M  V30 35 H 2.899304 -8.633253 1.573774 0
M  V30 36 H 0.554134 -5.822843 1.351708 0
M  V30 37 H 0.902204 -3.196329 2.376924 0
M  V30 38 H 1.833611 -0.248652 -1.943860 0
M  V30 39 H 0.149156 1.827550 -0.803246 0
M  V30 40 H -1.059923 3.771508 1.357092 0
M  V30 41 H -4.964669 2.359273 -0.742503 0
M  V30 42 H -6.664366 3.968670 -1.268815 0
M  V30 43 H -6.362744 6.402716 -0.699354 0
M  V30 44 H -3.835152 7.960857 -0.400972 0
M  V30 45 H -5.258408 7.908086 0.658975 0
M  V30 46 H -3.609430 7.539883 1.351979 0
M  V30 47 H -1.544701 0.949426 2.990140 0
M  V30 48 H -0.396265 -1.293820 2.948794 0
M  V30 49 H 4.324403 -2.768535 1.119563 0
M  V30 50 H 5.167651 -3.787895 -0.051383 0
M  V30 51 H 5.388398 -4.032682 1.742293 0
M  V30 52 H 5.790439 -8.744478 0.321231 0
M  V30 END ATOM
M  V30 BEGIN BOND
M  V30 1 1 1 2
M  V30 2 1 2 3
M  V30 3 1 3 4
M  V30 4 1 4 5
M  V30 5 2 5 6
M  V30 6 1 6 7
M  V30 7 2 7 8
M  V30 8 1 7 9
M  V30 9 1 9 10
M  V30 10 2 10 11
M  V30 11 1 11 12
M  V30 12 1 12 13
M  V30 13 1 13 14
M  V30 14 2 14 15
M  V30 15 1 14 16
M  V30 16 2 16 17
M  V30 17 1 17 18
M  V30 18 2 18 19
M  V30 19 1 19 20
M  V30 20 1 20 21
M  V30 21 1 20 22
M  V30 22 2 22 23
M  V30 23 2 12 24
M  V30 24 1 24 25
M  V30 25 2 25 26
M  V30 26 2 4 27
M  V30 27 1 27 28
M  V30 28 1 27 29
M  V30 29 1 29 30
M  V30 30 2 30 31
M  V30 31 1 30 32
M  V30 32 2 29 2
M  V30 33 1 26 6
M  V30 34 1 26 10
M  V30 35 1 22 16
M  V30 36 1 1 33
M  V30 37 1 1 34
M  V30 38 1 1 35
M  V30 39 1 3 36
M  V30 40 1 5 37
M  V30 41 1 9 38
M  V30 42 1 11 39
M  V30 43 1 13 40
M  V30 44 1 17 41
M  V30 45 1 18 42
M  V30 46 1 19 43
M  V30 47 1 21 44
M  V30 48 1 21 45
M  V30 49 1 21 46
M  V30 50 1 24 47
M  V30 51 1 25 48
M  V30 52 1 28 49
M  V30 53 1 28 50
M  V30 54 1 28 51
M  V30 55 1 32 52
M  V30 END BOND
M  V30 END CTAB
M  END
>  <Dataset>  (211) 
ChEMBL_Kinases

>  <Ligand_Instance>  (211) 
nan

>  <PDB_ID>  (211) 
nan

>  <Standardized_SMILES>  (211) 
Cc1[nH]c(/C=C2\C(=O)Nc3cc(NC(=O)c4cccn(C)c4=O)ccc32)c(C)c1C(=O)O

>  <Name>  (211) 
nan

>  <Pocket>  (211) 
nan

>  <ATP_Site>  (211) 
nan

>  <Peripheral>  (211) 
nan

>  <Num_H_Atoms_ProtBoundConf>  (211) 
nan

>  <Num_Resolved_Atoms>  (211) 
nan

>  <Num_Not_Resolved_Atoms>  (211) 
nan

$$$$
CHEMBL3322581
     RDKit          3D

  0  0  0  0  0  0  0  0  0  0999 V3000
M  V30 BEGIN CTAB
M  V30 COUNTS 59 63 0 0 0
M  V30 BEGIN ATOM
M  V30 1 C 8.598689 1.916030 3.015159 0
M  V30 2 C 7.454088 1.042943 2.566209 0
M  V30 3 N 6.193253 1.434670 2.719531 0
M  V30 4 C 5.336349 0.515735 2.256023 0
M  V30 5 C 3.894296 0.361095 2.214801 0
M  V30 6 C 3.067948 0.211880 1.196746 0
M  V30 7 C 3.507391 0.182097 -0.191290 0
M  V30 8 O 4.673913 0.318177 -0.587347 0
M  V30 9 N 2.337378 -0.025508 -0.936204 0
M  V30 10 C 1.218572 -0.118577 -0.035676 0
M  V30 11 C -0.136377 -0.321374 -0.319793 0
M  V30 12 C -1.064286 -0.379331 0.729298 0
M  V30 13 N -2.397089 -0.593250 0.284055 0
M  V30 14 C -3.351739 0.368251 -0.061833 0
M  V30 15 O -2.833790 1.528446 0.085743 0
M  V30 16 C -4.705090 0.102390 -0.513334 0
M  V30 17 C -5.424380 1.275961 -0.785085 0
M  V30 18 C -6.729158 1.211701 -1.225584 0
M  V30 19 C -7.389997 0.017364 -1.420856 0
M  V30 20 N -6.670399 -1.085363 -1.150684 0
M  V30 21 C -7.182121 -2.414435 -1.293138 0
M  V30 22 C -7.098096 -3.320145 -0.231040 0
M  V30 23 C -7.586349 -4.608463 -0.351194 0
M  V30 24 C -8.162300 -4.988352 -1.545801 0
M  V30 25 F -8.654212 -6.240174 -1.710005 0
M  V30 26 C -8.269508 -4.129019 -2.627245 0
M  V30 27 C -7.772017 -2.849044 -2.474588 0
M  V30 28 C -5.401197 -1.068450 -0.721136 0
M  V30 29 O -4.713541 -2.086929 -0.463716 0
M  V30 30 C -0.624962 -0.234806 2.030463 0
M  V30 31 C 0.714688 -0.035107 2.300060 0
M  V30 32 C 1.625663 0.022194 1.278210 0
M  V30 33 C 6.092545 -0.552658 1.766183 0
M  V30 34 C 5.960983 -1.914143 1.144698 0
M  V30 35 C 7.434255 -0.213737 1.964228 0
M  V30 36 C 8.751349 -0.830245 1.704417 0
M  V30 37 O 9.373833 -0.655712 0.637988 0
M  V30 38 O 9.555748 -1.663437 2.470652 0
M  V30 39 H 8.794012 1.767565 4.098971 0
M  V30 40 H 9.508079 1.596873 2.433535 0
M  V30 41 H 8.349077 2.962864 2.850172 0
M  V30 42 H 5.778023 2.321407 3.132858 0
M  V30 43 H 3.505734 0.382477 3.238891 0
M  V30 44 H 2.341515 -0.093125 -1.979781 0
M  V30 45 H -0.414928 -0.427720 -1.371703 0
M  V30 46 H -2.610388 -1.607461 0.236677 0
M  V30 47 H -5.005765 2.288376 -0.667603 0
M  V30 48 H -7.272016 2.120198 -1.431298 0
M  V30 49 H -8.401459 -0.082657 -1.761089 0
M  V30 50 H -6.637053 -2.975327 0.687571 0
M  V30 51 H -7.526117 -5.325116 0.472507 0
M  V30 52 H -8.713131 -4.388060 -3.578196 0
M  V30 53 H -7.801689 -2.102860 -3.243501 0
M  V30 54 H -1.392761 -0.290242 2.782033 0
M  V30 55 H 1.043563 0.076269 3.324141 0
M  V30 56 H 6.414108 -2.678277 1.795988 0
M  V30 57 H 4.897857 -2.151663 0.939077 0
M  V30 58 H 6.485606 -1.952046 0.163615 0
M  V30 59 H 9.702269 -2.637084 2.167766 0
M  V30 END ATOM
M  V30 BEGIN BOND
M  V30 1 1 1 2
M  V30 2 1 2 3
M  V30 3 1 3 4
M  V30 4 1 4 5
M  V30 5 2 5 6
M  V30 6 1 6 7
M  V30 7 2 7 8
M  V30 8 1 7 9
M  V30 9 1 9 10
M  V30 10 2 10 11
M  V30 11 1 11 12
M  V30 12 1 12 13
M  V30 13 1 13 14
M  V30 14 2 14 15
M  V30 15 1 14 16
M  V30 16 2 16 17
M  V30 17 1 17 18
M  V30 18 2 18 19
M  V30 19 1 19 20
M  V30 20 1 20 21
M  V30 21 2 21 22
M  V30 22 1 22 23
M  V30 23 2 23 24
M  V30 24 1 24 25
M  V30 25 1 24 26
M  V30 26 2 26 27
M  V30 27 1 20 28
M  V30 28 2 28 29
M  V30 29 2 12 30
M  V30 30 1 30 31
M  V30 31 2 31 32
M  V30 32 2 4 33
M  V30 33 1 33 34
M  V30 34 1 33 35
M  V30 35 1 35 36
M  V30 36 2 36 37
M  V30 37 1 36 38
M  V30 38 2 35 2
M  V30 39 1 32 6
M  V30 40 1 32 10
M  V30 41 1 28 16
M  V30 42 1 27 21
M  V30 43 1 1 39
M  V30 44 1 1 40
M  V30 45 1 1 41
M  V30 46 1 3 42
M  V30 47 1 5 43
M  V30 48 1 9 44
M  V30 49 1 11 45
M  V30 50 1 13 46
M  V30 51 1 17 47
M  V30 52 1 18 48
M  V30 53 1 19 49
M  V30 54 1 22 50
M  V30 55 1 23 51
M  V30 56 1 26 52
M  V30 57 1 27 53
M  V30 58 1 30 54
M  V30 59 1 31 55
M  V30 60 1 34 56
M  V30 61 1 34 57
M  V30 62 1 34 58
M  V30 63 1 38 59
M  V30 END BOND
M  V30 END CTAB
M  END
>  <Dataset>  (212) 
ChEMBL_Kinases

>  <Ligand_Instance>  (212) 
nan

>  <PDB_ID>  (212) 
nan

>  <Standardized_SMILES>  (212) 
Cc1[nH]c(/C=C2\C(=O)Nc3cc(NC(=O)c4cccn(-c5ccc(F)cc5)c4=O)ccc32)c(C)c1C(=O)O

>  <Name>  (212) 
nan

>  <Pocket>  (212) 
nan

>  <ATP_Site>  (212) 
nan

>  <Peripheral>  (212) 
nan

>  <Num_H_Atoms_ProtBoundConf>  (212) 
nan

>  <Num_Resolved_Atoms>  (212) 
nan

>  <Num_Not_Resolved_Atoms>  (212) 
nan

$$$$
CHEMBL3322580
     RDKit          3D

  0  0  0  0  0  0  0  0  0  0999 V3000
M  V30 BEGIN CTAB
M  V30 COUNTS 47 50 0 0 0
M  V30 BEGIN ATOM
M  V30 1 O -3.881251 -4.443048 1.803137 0
M  V30 2 C -2.889974 -3.714874 1.686917 0
M  V30 3 N -2.650002 -2.677145 0.760157 0
M  V30 4 C -1.362967 -2.107329 0.997201 0
M  V30 5 C -0.667182 -1.060460 0.366312 0
M  V30 6 C 0.610567 -0.687083 0.814873 0
M  V30 7 N 1.256113 0.376028 0.138691 0
M  V30 8 C 2.148994 0.599613 -0.913397 0
M  V30 9 O 2.503609 -0.485224 -1.436801 0
M  V30 10 C 2.590585 1.915660 -1.324796 0
M  V30 11 C 3.468745 1.913231 -2.388930 0
M  V30 12 C 3.963062 3.103474 -2.883800 0
M  V30 13 C 3.625924 4.356962 -2.365861 0
M  V30 14 N 2.764907 4.305907 -1.326661 0
M  V30 15 C 2.315635 5.536739 -0.673029 0
M  V30 16 C 1.038141 6.037929 -1.355148 0
M  V30 17 O 0.078938 5.027457 -1.218657 0
M  V30 18 C 2.286298 3.162609 -0.846347 0
M  V30 19 O 1.488526 3.178570 0.121707 0
M  V30 20 C 1.124937 -1.388776 1.878468 0
M  V30 21 C 0.509135 -2.423409 2.548119 0
M  V30 22 C -0.752521 -2.741898 2.054312 0
M  V30 23 C -1.699503 -3.753720 2.497656 0
M  V30 24 C -1.530230 -4.602624 3.519376 0
M  V30 25 C -2.444691 -5.613102 4.025558 0
M  V30 26 C -3.772834 -5.581945 4.392337 0
M  V30 27 C -4.203193 -6.835676 4.782537 0
M  V30 28 C -3.085142 -7.649322 4.643016 0
M  V30 29 N -2.065753 -6.890310 4.193585 0
M  V30 30 H -3.351550 -2.398122 0.016881 0
M  V30 31 H -1.121316 -0.539611 -0.471353 0
M  V30 32 H 0.826066 1.118736 0.728179 0
M  V30 33 H 3.823786 1.006833 -2.897325 0
M  V30 34 H 4.650868 3.101021 -3.716787 0
M  V30 35 H 3.977862 5.298690 -2.710895 0
M  V30 36 H 2.068923 5.305037 0.388818 0
M  V30 37 H 3.105912 6.309212 -0.652511 0
M  V30 38 H 1.191859 6.224768 -2.417455 0
M  V30 39 H 0.723238 6.965347 -0.865294 0
M  V30 40 H -0.679261 5.216144 -1.852359 0
M  V30 41 H 2.110908 -1.077663 2.202639 0
M  V30 42 H 0.972271 -2.932490 3.378746 0
M  V30 43 H -0.577978 -4.541960 4.061273 0
M  V30 44 H -4.405212 -4.709141 4.397966 0
M  V30 45 H -5.194375 -7.096598 5.118755 0
M  V30 46 H -3.156320 -8.699716 4.888584 0
M  V30 47 H -1.144466 -7.352992 4.033207 0
M  V30 END ATOM
M  V30 BEGIN BOND
M  V30 1 2 1 2
M  V30 2 1 2 3
M  V30 3 1 3 4
M  V30 4 2 4 5
M  V30 5 1 5 6
M  V30 6 1 6 7
M  V30 7 1 7 8
M  V30 8 2 8 9
M  V30 9 1 8 10
M  V30 10 2 10 11
M  V30 11 1 11 12
M  V30 12 2 12 13
M  V30 13 1 13 14
M  V30 14 1 14 15
M  V30 15 1 15 16
M  V30 16 1 16 17
M  V30 17 1 14 18
M  V30 18 2 18 19
M  V30 19 2 6 20
M  V30 20 1 20 21
M  V30 21 2 21 22
M  V30 22 1 22 23
M  V30 23 2 23 24
M  V30 24 1 24 25
M  V30 25 2 25 26
M  V30 26 1 26 27
M  V30 27 2 27 28
M  V30 28 1 28 29
M  V30 29 1 23 2
M  V30 30 1 29 25
M  V30 31 1 22 4
M  V30 32 1 18 10
M  V30 33 1 3 30
M  V30 34 1 5 31
M  V30 35 1 7 32
M  V30 36 1 11 33
M  V30 37 1 12 34
M  V30 38 1 13 35
M  V30 39 1 15 36
M  V30 40 1 15 37
M  V30 41 1 16 38
M  V30 42 1 16 39
M  V30 43 1 17 40
M  V30 44 1 20 41
M  V30 45 1 21 42
M  V30 46 1 24 43
M  V30 47 1 26 44
M  V30 48 1 27 45
M  V30 49 1 28 46
M  V30 50 1 29 47
M  V30 END BOND
M  V30 END CTAB
M  END
>  <Dataset>  (213) 
ChEMBL_Kinases

>  <Ligand_Instance>  (213) 
nan

>  <PDB_ID>  (213) 
nan

>  <Standardized_SMILES>  (213) 
O=C1Nc2cc(NC(=O)c3cccn(CCO)c3=O)ccc2/C1=C/c1ccc[nH]1

>  <Name>  (213) 
nan

>  <Pocket>  (213) 
nan

>  <ATP_Site>  (213) 
nan

>  <Peripheral>  (213) 
nan

>  <Num_H_Atoms_ProtBoundConf>  (213) 
nan

>  <Num_Resolved_Atoms>  (213) 
nan

>  <Num_Not_Resolved_Atoms>  (213) 
nan

$$$$
CHEMBL3322579
     RDKit          3D

  0  0  0  0  0  0  0  0  0  0999 V3000
M  V30 BEGIN CTAB
M  V30 COUNTS 43 46 0 0 0
M  V30 BEGIN ATOM
M  V30 1 C -3.803337 -6.810495 -0.087854 0
M  V30 2 N -2.901474 -5.902882 -0.760505 0
M  V30 3 C -2.643999 -6.190364 -2.049803 0
M  V30 4 C -1.786552 -5.338094 -2.721595 0
M  V30 5 C -1.254314 -4.269269 -2.050234 0
M  V30 6 C -1.522481 -3.974017 -0.716513 0
M  V30 7 C -0.865760 -2.785388 -0.213732 0
M  V30 8 O -0.083304 -2.090711 -0.961360 0
M  V30 9 N -0.909258 -2.170008 1.044215 0
M  V30 10 C -0.120321 -0.965303 1.228997 0
M  V30 11 C -0.802195 0.150561 0.858961 0
M  V30 12 C -0.097143 1.353427 1.021086 0
M  V30 13 C 1.199817 1.329202 1.529699 0
M  V30 14 C 1.780236 0.127764 1.870504 0
M  V30 15 C 1.164167 -1.108568 1.745011 0
M  V30 16 N 3.116197 0.378363 2.376049 0
M  V30 17 C 3.419458 1.800334 2.362207 0
M  V30 18 O 4.430632 2.446942 2.699811 0
M  V30 19 C 2.193894 2.344886 1.827273 0
M  V30 20 C 1.951283 3.616245 1.565605 0
M  V30 21 C 2.812839 4.722642 1.802986 0
M  V30 22 C 3.145934 4.725807 3.181890 0
M  V30 23 C 3.984959 5.761578 3.520374 0
M  V30 24 C 4.227541 6.473778 2.374068 0
M  V30 25 N 3.530561 5.822495 1.448479 0
M  V30 26 C -2.389277 -4.881207 -0.132820 0
M  V30 27 O -2.615995 -4.591828 1.068406 0
M  V30 28 H -3.859066 -7.786381 -0.609887 0
M  V30 29 H -4.828428 -6.371163 0.012046 0
M  V30 30 H -3.463719 -7.037439 0.944911 0
M  V30 31 H -3.046734 -7.031584 -2.603700 0
M  V30 32 H -1.577653 -5.554162 -3.746174 0
M  V30 33 H -0.594664 -3.658829 -2.660270 0
M  V30 34 H -1.540288 -2.672974 1.741019 0
M  V30 35 H -1.808034 0.167036 0.470387 0
M  V30 36 H -0.547189 2.297816 0.756117 0
M  V30 37 H 1.590625 -2.055614 1.999492 0
M  V30 38 H 3.860506 -0.283089 2.734806 0
M  V30 39 H 1.031540 3.971863 1.118849 0
M  V30 40 H 2.965896 4.180193 4.132474 0
M  V30 41 H 4.510257 6.205536 4.369675 0
M  V30 42 H 4.763065 7.335401 1.999326 0
M  V30 43 H 3.356744 5.938118 0.398513 0
M  V30 END ATOM
M  V30 BEGIN BOND
M  V30 1 1 1 2
M  V30 2 1 2 3
M  V30 3 2 3 4
M  V30 4 1 4 5
M  V30 5 2 5 6
M  V30 6 1 6 7
M  V30 7 2 7 8
M  V30 8 1 7 9
M  V30 9 1 9 10
M  V30 10 2 10 11
M  V30 11 1 11 12
M  V30 12 2 12 13
M  V30 13 1 13 14
M  V30 14 2 14 15
M  V30 15 1 14 16
M  V30 16 1 16 17
M  V30 17 2 17 18
M  V30 18 1 17 19
M  V30 19 2 19 20
M  V30 20 1 20 21
M  V30 21 2 21 22
M  V30 22 1 22 23
M  V30 23 2 23 24
M  V30 24 1 24 25
M  V30 25 1 6 26
M  V30 26 2 26 27
M  V30 27 1 26 2
M  V30 28 1 15 10
M  V30 29 1 25 21
M  V30 30 1 19 13
M  V30 31 1 1 28
M  V30 32 1 1 29
M  V30 33 1 1 30
M  V30 34 1 3 31
M  V30 35 1 4 32
M  V30 36 1 5 33
M  V30 37 1 9 34
M  V30 38 1 11 35
M  V30 39 1 12 36
M  V30 40 1 15 37
M  V30 41 1 16 38
M  V30 42 1 20 39
M  V30 43 1 22 40
M  V30 44 1 23 41
M  V30 45 1 24 42
M  V30 46 1 25 43
M  V30 END BOND
M  V30 END CTAB
M  END
>  <Dataset>  (214) 
ChEMBL_Kinases

>  <Ligand_Instance>  (214) 
nan

>  <PDB_ID>  (214) 
nan

>  <Standardized_SMILES>  (214) 
Cn1cccc(C(=O)Nc2ccc3c(c2)NC(=O)/C3=C\c2ccc[nH]2)c1=O

>  <Name>  (214) 
nan

>  <Pocket>  (214) 
nan

>  <ATP_Site>  (214) 
nan

>  <Peripheral>  (214) 
nan

>  <Num_H_Atoms_ProtBoundConf>  (214) 
nan

>  <Num_Resolved_Atoms>  (214) 
nan

>  <Num_Not_Resolved_Atoms>  (214) 
nan

$$$$
CHEMBL3322578
     RDKit          3D

  0  0  0  0  0  0  0  0  0  0999 V3000
M  V30 BEGIN CTAB
M  V30 COUNTS 50 54 0 0 0
M  V30 BEGIN ATOM
M  V30 1 O -1.630063 -6.825967 0.194968 0
M  V30 2 C -1.256655 -5.629935 0.142992 0
M  V30 3 N -0.751025 -4.797699 1.166393 0
M  V30 4 C -0.475068 -3.523534 0.599988 0
M  V30 5 C 0.029380 -2.436527 1.278850 0
M  V30 6 C 0.230802 -1.274561 0.559663 0
M  V30 7 N 0.728844 -0.021876 0.999620 0
M  V30 8 C 2.052910 0.462115 1.032046 0
M  V30 9 O 2.855065 -0.396755 0.586522 0
M  V30 10 C 2.488404 1.763153 1.502243 0
M  V30 11 C 3.861941 2.015964 1.404398 0
M  V30 12 C 4.366234 3.239042 1.816094 0
M  V30 13 C 3.551567 4.217736 2.320886 0
M  V30 14 N 2.212862 3.986281 2.422152 0
M  V30 15 C 1.320553 4.966777 2.939804 0
M  V30 16 C 0.940281 4.779487 4.257879 0
M  V30 17 C 0.082439 5.665749 4.864623 0
M  V30 18 C -0.377721 6.732467 4.119982 0
M  V30 19 C 0.013618 6.903388 2.803219 0
M  V30 20 Cl -0.583177 8.273704 1.858803 0
M  V30 21 C 0.868301 6.029240 2.183236 0
M  V30 22 C 1.767386 2.804983 2.019105 0
M  V30 23 O 0.543266 2.613153 2.120223 0
M  V30 24 C -0.068088 -1.217227 -0.796930 0
M  V30 25 C -0.579192 -2.341555 -1.455301 0
M  V30 26 C -0.786376 -3.521580 -0.736964 0
M  V30 27 C -1.292515 -4.860919 -1.069591 0
M  V30 28 C -1.681349 -5.257513 -2.260180 0
M  V30 29 C -2.167890 -6.568306 -2.654076 0
M  V30 30 C -1.825842 -7.870310 -2.496241 0
M  V30 31 C -2.743921 -8.713171 -3.117640 0
M  V30 32 C -3.686653 -7.879071 -3.678518 0
M  V30 33 N -3.320247 -6.620134 -3.388427 0
M  V30 34 H -0.639968 -5.159360 2.136400 0
M  V30 35 H 0.292045 -2.366025 2.306938 0
M  V30 36 H -0.054613 0.573526 1.333058 0
M  V30 37 H 4.595382 1.297077 1.014088 0
M  V30 38 H 5.423239 3.427196 1.738751 0
M  V30 39 H 3.920029 5.179616 2.649687 0
M  V30 40 H 1.287707 3.943578 4.874605 0
M  V30 41 H -0.247863 5.564181 5.899191 0
M  V30 42 H -1.056218 7.429586 4.607195 0
M  V30 43 H 1.212061 6.100029 1.171159 0
M  V30 44 H 0.038758 -0.388881 -1.471403 0
M  V30 45 H -0.836022 -2.377718 -2.505371 0
M  V30 46 H -1.622885 -4.488551 -3.052103 0
M  V30 47 H -0.951185 -8.179305 -1.971621 0
M  V30 48 H -2.684783 -9.799761 -3.128353 0
M  V30 49 H -4.520143 -8.253909 -4.225618 0
M  V30 50 H -3.942092 -5.839317 -3.747159 0
M  V30 END ATOM
M  V30 BEGIN BOND
M  V30 1 2 1 2
M  V30 2 1 2 3
M  V30 3 1 3 4
M  V30 4 2 4 5
M  V30 5 1 5 6
M  V30 6 1 6 7
M  V30 7 1 7 8
M  V30 8 2 8 9
M  V30 9 1 8 10
M  V30 10 2 10 11
M  V30 11 1 11 12
M  V30 12 2 12 13
M  V30 13 1 13 14
M  V30 14 1 14 15
M  V30 15 2 15 16
M  V30 16 1 16 17
M  V30 17 2 17 18
M  V30 18 1 18 19
M  V30 19 1 19 20
M  V30 20 2 19 21
M  V30 21 1 14 22
M  V30 22 2 22 23
M  V30 23 2 6 24
M  V30 24 1 24 25
M  V30 25 2 25 26
M  V30 26 1 26 27
M  V30 27 2 27 28
M  V30 28 1 28 29
M  V30 29 2 29 30
M  V30 30 1 30 31
M  V30 31 2 31 32
M  V30 32 1 32 33
M  V30 33 1 27 2
M  V30 34 1 33 29
M  V30 35 1 26 4
M  V30 36 1 22 10
M  V30 37 1 21 15
M  V30 38 1 3 34
M  V30 39 1 5 35
M  V30 40 1 7 36
M  V30 41 1 11 37
M  V30 42 1 12 38
M  V30 43 1 13 39
M  V30 44 1 16 40
M  V30 45 1 17 41
M  V30 46 1 18 42
M  V30 47 1 21 43
M  V30 48 1 24 44
M  V30 49 1 25 45
M  V30 50 1 28 46
M  V30 51 1 30 47
M  V30 52 1 31 48
M  V30 53 1 32 49
M  V30 54 1 33 50
M  V30 END BOND
M  V30 END CTAB
M  END
>  <Dataset>  (215) 
ChEMBL_Kinases

>  <Ligand_Instance>  (215) 
nan

>  <PDB_ID>  (215) 
nan

>  <Standardized_SMILES>  (215) 
O=C1Nc2cc(NC(=O)c3cccn(-c4cccc(Cl)c4)c3=O)ccc2/C1=C/c1ccc[nH]1

>  <Name>  (215) 
nan

>  <Pocket>  (215) 
nan

>  <ATP_Site>  (215) 
nan

>  <Peripheral>  (215) 
nan

>  <Num_H_Atoms_ProtBoundConf>  (215) 
nan

>  <Num_Resolved_Atoms>  (215) 
nan

>  <Num_Not_Resolved_Atoms>  (215) 
nan

$$$$
CHEMBL3322575
     RDKit          3D

  0  0  0  0  0  0  0  0  0  0999 V3000
M  V30 BEGIN CTAB
M  V30 COUNTS 53 57 0 0 0
M  V30 BEGIN ATOM
M  V30 1 C 6.383307 -4.229951 2.456844 0
M  V30 2 C 5.976832 -2.886994 1.945566 0
M  V30 3 C 5.268946 -2.090698 2.841877 0
M  V30 4 C 4.859050 -0.827726 2.367947 0
M  V30 5 C 5.161448 -0.425219 1.062419 0
M  V30 6 N 4.583279 0.818762 0.898425 0
M  V30 7 C 5.289827 2.057691 0.965609 0
M  V30 8 C 4.641633 3.310868 0.814253 0
M  V30 9 C 3.231590 3.352549 0.583986 0
M  V30 10 C 2.417200 2.150038 0.496536 0
M  V30 11 C 1.035096 2.293457 0.246050 0
M  V30 12 O 0.581386 3.477733 0.156391 0
M  V30 13 N 0.227499 1.202343 0.107064 0
M  V30 14 C -1.043864 0.674962 -0.107008 0
M  V30 15 C -1.628331 0.408357 -1.316409 0
M  V30 16 C -2.882978 -0.146314 -1.468033 0
M  V30 17 C -3.518570 -0.418077 -0.269959 0
M  V30 18 C -3.063269 -0.207085 1.007131 0
M  V30 19 C -1.782212 0.359868 1.044242 0
M  V30 20 N -3.946598 -0.601132 2.041389 0
M  V30 21 C -5.080487 -1.117121 1.357865 0
M  V30 22 O -6.070885 -1.561335 2.034146 0
M  V30 23 C -4.841955 -1.016042 -0.090839 0
M  V30 24 C -5.754012 -1.465498 -0.907372 0
M  V30 25 C -7.067062 -2.059804 -0.658247 0
M  V30 26 C -7.329844 -3.243275 -1.359122 0
M  V30 27 C -8.606646 -3.695444 -1.037152 0
M  V30 28 C -9.115664 -2.762596 -0.126058 0
M  V30 29 N -8.149971 -1.844813 0.032745 0
M  V30 30 C 3.521715 1.466916 0.701619 0
M  V30 31 O 2.805911 0.260688 0.624890 0
M  V30 32 C 5.858598 -1.226206 0.206505 0
M  V30 33 C 6.271741 -2.467142 0.648052 0
M  V30 34 H 6.928813 -4.097518 3.419786 0
M  V30 35 H 5.460856 -4.838260 2.606457 0
M  V30 36 H 7.064836 -4.732649 1.746414 0
M  V30 37 H 5.064222 -2.458388 3.849968 0
M  V30 38 H 4.321160 -0.303243 3.163067 0
M  V30 39 H 6.383008 2.140207 1.145885 0
M  V30 40 H 5.182584 4.272945 0.863649 0
M  V30 41 H 2.811949 4.369778 0.472065 0
M  V30 42 H 0.659085 0.223612 0.158740 0
M  V30 43 H -1.057208 0.660570 -2.217981 0
M  V30 44 H -3.353203 -0.354837 -2.412817 0
M  V30 45 H -1.362221 0.550319 2.023339 0
M  V30 46 H -3.749911 -0.507499 3.040333 0
M  V30 47 H -5.396573 -1.343023 -1.954567 0
M  V30 48 H -6.854497 -3.931031 -2.077043 0
M  V30 49 H -9.271010 -4.522273 -1.286788 0
M  V30 50 H -10.084364 -2.746524 0.367855 0
M  V30 51 H -8.260571 -1.012925 0.650008 0
M  V30 52 H 6.037698 -0.808516 -0.768738 0
M  V30 53 H 6.828702 -3.116486 -0.023380 0
M  V30 END ATOM
M  V30 BEGIN BOND
M  V30 1 1 1 2
M  V30 2 2 2 3
M  V30 3 1 3 4
M  V30 4 2 4 5
M  V30 5 1 5 6
M  V30 6 1 6 7
M  V30 7 2 7 8
M  V30 8 1 8 9
M  V30 9 2 9 10
M  V30 10 1 10 11
M  V30 11 2 11 12
M  V30 12 1 11 13
M  V30 13 1 13 14
M  V30 14 2 14 15
M  V30 15 1 15 16
M  V30 16 2 16 17
M  V30 17 1 17 18
M  V30 18 2 18 19
M  V30 19 1 18 20
M  V30 20 1 20 21
M  V30 21 2 21 22
M  V30 22 1 21 23
M  V30 23 2 23 24
M  V30 24 1 24 25
M  V30 25 2 25 26
M  V30 26 1 26 27
M  V30 27 2 27 28
M  V30 28 1 28 29
M  V30 29 1 10 30
M  V30 30 2 30 31
M  V30 31 1 5 32
M  V30 32 2 32 33
M  V30 33 1 33 2
M  V30 34 1 30 6
M  V30 35 1 19 14
M  V30 36 1 29 25
M  V30 37 1 23 17
M  V30 38 1 1 34
M  V30 39 1 1 35
M  V30 40 1 1 36
M  V30 41 1 3 37
M  V30 42 1 4 38
M  V30 43 1 7 39
M  V30 44 1 8 40
M  V30 45 1 9 41
M  V30 46 1 13 42
M  V30 47 1 15 43
M  V30 48 1 16 44
M  V30 49 1 19 45
M  V30 50 1 20 46
M  V30 51 1 24 47
M  V30 52 1 26 48
M  V30 53 1 27 49
M  V30 54 1 28 50
M  V30 55 1 29 51
M  V30 56 1 32 52
M  V30 57 1 33 53
M  V30 END BOND
M  V30 END CTAB
M  END
>  <Dataset>  (216) 
ChEMBL_Kinases

>  <Ligand_Instance>  (216) 
nan

>  <PDB_ID>  (216) 
nan

>  <Standardized_SMILES>  (216) 
Cc1ccc(-n2cccc(C(=O)Nc3ccc4c(c3)NC(=O)/C4=C\c3ccc[nH]3)c2=O)cc1

>  <Name>  (216) 
nan

>  <Pocket>  (216) 
nan

>  <ATP_Site>  (216) 
nan

>  <Peripheral>  (216) 
nan

>  <Num_H_Atoms_ProtBoundConf>  (216) 
nan

>  <Num_Resolved_Atoms>  (216) 
nan

>  <Num_Not_Resolved_Atoms>  (216) 
nan

$$$$
CHEMBL3322574
     RDKit          3D

  0  0  0  0  0  0  0  0  0  0999 V3000
M  V30 BEGIN CTAB
M  V30 COUNTS 50 54 0 0 0
M  V30 BEGIN ATOM
M  V30 1 O -0.765477 -6.610096 -0.822455 0
M  V30 2 C -0.784609 -5.373988 -0.773039 0
M  V30 3 N -0.071749 -4.609341 0.180914 0
M  V30 4 C -0.357740 -3.242546 -0.098913 0
M  V30 5 C 0.045539 -2.040743 0.486501 0
M  V30 6 C -0.378433 -0.800168 0.021777 0
M  V30 7 N 0.177938 0.289312 0.792223 0
M  V30 8 C 1.404853 0.894644 0.430634 0
M  V30 9 O 1.908265 0.362562 -0.611437 0
M  V30 10 C 2.074983 1.980411 1.098633 0
M  V30 11 C 3.291597 2.413001 0.552835 0
M  V30 12 C 4.011912 3.444806 1.118101 0
M  V30 13 C 3.571506 4.102525 2.248608 0
M  V30 14 N 2.418375 3.684420 2.756964 0
M  V30 15 C 1.934700 4.343756 3.923244 0
M  V30 16 C 2.673462 4.461289 5.078720 0
M  V30 17 C 2.145373 5.119692 6.184914 0
M  V30 18 C 0.867488 5.658336 6.117506 0
M  V30 19 C 0.166741 5.514393 4.937171 0
M  V30 20 C 0.642138 4.870054 3.807197 0
M  V30 21 C 1.715986 2.689050 2.217932 0
M  V30 22 O 0.651407 2.359625 2.752127 0
M  V30 23 C -1.231059 -0.722809 -1.057948 0
M  V30 24 C -1.627990 -1.913138 -1.634939 0
M  V30 25 C -1.210746 -3.135695 -1.177868 0
M  V30 26 C -1.509825 -4.481951 -1.641389 0
M  V30 27 C -2.264980 -4.882900 -2.647021 0
M  V30 28 C -2.534939 -6.236143 -3.105281 0
M  V30 29 C -1.873829 -7.381944 -3.395854 0
M  V30 30 C -2.756108 -8.387073 -3.774793 0
M  V30 31 C -3.998020 -7.809310 -3.706180 0
M  V30 32 N -3.842000 -6.538410 -3.308677 0
M  V30 33 H 0.533825 -4.990287 0.930021 0
M  V30 34 H 0.723671 -2.176569 1.343052 0
M  V30 35 H -0.324332 0.639645 1.625406 0
M  V30 36 H 3.690677 1.925022 -0.348456 0
M  V30 37 H 4.940601 3.719342 0.638545 0
M  V30 38 H 4.201018 4.885626 2.606477 0
M  V30 39 H 3.668305 4.042321 5.133354 0
M  V30 40 H 2.692628 5.234905 7.113507 0
M  V30 41 H 0.413419 6.173838 6.935382 0
M  V30 42 H -0.835335 5.943285 4.900294 0
M  V30 43 H 0.046348 4.786088 2.905193 0
M  V30 44 H -1.498521 0.271113 -1.338241 0
M  V30 45 H -2.295892 -1.833283 -2.481831 0
M  V30 46 H -2.720595 -4.032529 -3.169582 0
M  V30 47 H -0.815021 -7.441117 -3.337569 0
M  V30 48 H -2.410883 -9.390590 -4.048479 0
M  V30 49 H -4.855484 -8.418111 -3.963518 0
M  V30 50 H -4.747667 -6.001758 -3.224497 0
M  V30 END ATOM
M  V30 BEGIN BOND
M  V30 1 2 1 2
M  V30 2 1 2 3
M  V30 3 1 3 4
M  V30 4 2 4 5
M  V30 5 1 5 6
M  V30 6 1 6 7
M  V30 7 1 7 8
M  V30 8 2 8 9
M  V30 9 1 8 10
M  V30 10 2 10 11
M  V30 11 1 11 12
M  V30 12 2 12 13
M  V30 13 1 13 14
M  V30 14 1 14 15
M  V30 15 2 15 16
M  V30 16 1 16 17
M  V30 17 2 17 18
M  V30 18 1 18 19
M  V30 19 2 19 20
M  V30 20 1 14 21
M  V30 21 2 21 22
M  V30 22 2 6 23
M  V30 23 1 23 24
M  V30 24 2 24 25
M  V30 25 1 25 26
M  V30 26 2 26 27
M  V30 27 1 27 28
M  V30 28 2 28 29
M  V30 29 1 29 30
M  V30 30 2 30 31
M  V30 31 1 31 32
M  V30 32 1 26 2
M  V30 33 1 32 28
M  V30 34 1 25 4
M  V30 35 1 21 10
M  V30 36 1 20 15
M  V30 37 1 3 33
M  V30 38 1 5 34
M  V30 39 1 7 35
M  V30 40 1 11 36
M  V30 41 1 12 37
M  V30 42 1 13 38
M  V30 43 1 16 39
M  V30 44 1 17 40
M  V30 45 1 18 41
M  V30 46 1 19 42
M  V30 47 1 20 43
M  V30 48 1 23 44
M  V30 49 1 24 45
M  V30 50 1 27 46
M  V30 51 1 29 47
M  V30 52 1 30 48
M  V30 53 1 31 49
M  V30 54 1 32 50
M  V30 END BOND
M  V30 END CTAB
M  END
>  <Dataset>  (217) 
ChEMBL_Kinases

>  <Ligand_Instance>  (217) 
nan

>  <PDB_ID>  (217) 
nan

>  <Standardized_SMILES>  (217) 
O=C1Nc2cc(NC(=O)c3cccn(-c4ccccc4)c3=O)ccc2/C1=C/c1ccc[nH]1

>  <Name>  (217) 
nan

>  <Pocket>  (217) 
nan

>  <ATP_Site>  (217) 
nan

>  <Peripheral>  (217) 
nan

>  <Num_H_Atoms_ProtBoundConf>  (217) 
nan

>  <Num_Resolved_Atoms>  (217) 
nan

>  <Num_Not_Resolved_Atoms>  (217) 
nan

$$$$
CHEMBL3310278
     RDKit          3D

  0  0  0  0  0  0  0  0  0  0999 V3000
M  V30 BEGIN CTAB
M  V30 COUNTS 41 44 0 0 0
M  V30 BEGIN ATOM
M  V30 1 C 1.966734 -3.710717 2.636925 0
M  V30 2 C 1.167584 -3.869561 1.367506 0
M  V30 3 C 0.526894 -2.580071 1.042428 0
M  V30 4 C 1.063806 -1.569031 0.260787 0
M  V30 5 C 0.395004 -0.357272 -0.010264 0
M  V30 6 C 1.245586 0.421171 -0.887194 0
M  V30 7 C 1.236149 -0.114288 -2.178314 0
M  V30 8 C 1.958790 0.467188 -3.214191 0
M  V30 9 N 2.678097 1.573979 -2.937073 0
M  V30 10 C 2.720765 2.120051 -1.729059 0
M  V30 11 N 3.321772 3.155495 -1.102088 0
M  V30 12 N 3.012623 3.211113 0.160709 0
M  V30 13 C 2.158237 2.193553 0.488775 0
M  V30 14 C 1.587144 1.997079 1.822538 0
M  V30 15 F 0.226953 2.214114 1.911159 0
M  V30 16 F 1.917136 0.743112 2.344884 0
M  V30 17 F 2.161833 2.888831 2.699766 0
M  V30 18 C 2.009337 1.548073 -0.712635 0
M  V30 19 C -0.849605 -0.264472 0.573770 0
M  V30 20 C -1.408445 -1.238704 1.348144 0
M  V30 21 C -2.762017 -0.846150 1.836834 0
M  V30 22 C -3.673610 -0.437451 0.776689 0
M  V30 23 N -4.403223 -0.090381 -0.076413 0
M  V30 24 C -2.887536 -0.115315 3.144101 0
M  V30 25 C -3.302207 -1.522970 3.021685 0
M  V30 26 C -0.726229 -2.410066 1.592421 0
M  V30 27 H 3.034222 -3.439854 2.426012 0
M  V30 28 H 1.969063 -4.664211 3.172571 0
M  V30 29 H 1.460530 -2.950351 3.263811 0
M  V30 30 H 0.439867 -4.669867 1.485794 0
M  V30 31 H 1.835380 -4.155873 0.526840 0
M  V30 32 H 2.061604 -1.892803 -0.082225 0
M  V30 33 H 0.695331 -1.000676 -2.518281 0
M  V30 34 H 1.980447 0.088899 -4.225651 0
M  V30 35 H 3.966364 3.833813 -1.594439 0
M  V30 36 H -1.249140 0.714159 0.274475 0
M  V30 37 H -3.646215 0.697248 3.213396 0
M  V30 38 H -1.938339 0.105728 3.646392 0
M  V30 39 H -2.740975 -2.266500 3.607684 0
M  V30 40 H -4.390032 -1.797011 2.959384 0
M  V30 41 H -1.266848 -3.106062 2.217429 0
M  V30 END ATOM
M  V30 BEGIN BOND
M  V30 1 1 1 2
M  V30 2 1 2 3
M  V30 3 2 3 4
M  V30 4 1 4 5
M  V30 5 1 5 6
M  V30 6 2 6 7
M  V30 7 1 7 8
M  V30 8 2 8 9
M  V30 9 1 9 10
M  V30 10 1 10 11
M  V30 11 1 11 12
M  V30 12 2 12 13
M  V30 13 1 13 14
M  V30 14 1 14 15
M  V30 15 1 14 16
M  V30 16 1 14 17
M  V30 17 1 13 18
M  V30 18 2 5 19
M  V30 19 1 19 20
M  V30 20 1 20 21
M  V30 21 1 21 22
M  V30 22 3 22 23
M  V30 23 1 21 24
M  V30 24 1 24 25
M  V30 25 2 20 26
M  V30 26 1 26 3
M  V30 27 1 18 6
M  V30 28 1 25 21
M  V30 29 2 18 10
M  V30 30 1 1 27
M  V30 31 1 1 28
M  V30 32 1 1 29
M  V30 33 1 2 30
M  V30 34 1 2 31
M  V30 35 1 4 32
M  V30 36 1 7 33
M  V30 37 1 8 34
M  V30 38 1 11 35
M  V30 39 1 19 36
M  V30 40 1 24 37
M  V30 41 1 24 38
M  V30 42 1 25 39
M  V30 43 1 25 40
M  V30 44 1 26 41
M  V30 END BOND
M  V30 END CTAB
M  END
>  <Dataset>  (218) 
ChEMBL_Kinases

>  <Ligand_Instance>  (218) 
nan

>  <PDB_ID>  (218) 
nan

>  <Standardized_SMILES>  (218) 
CCc1cc(-c2ccnc3[nH]nc(C(F)(F)F)c23)cc(C2(C#N)CC2)c1

>  <Name>  (218) 
nan

>  <Pocket>  (218) 
nan

>  <ATP_Site>  (218) 
nan

>  <Peripheral>  (218) 
nan

>  <Num_H_Atoms_ProtBoundConf>  (218) 
nan

>  <Num_Resolved_Atoms>  (218) 
nan

>  <Num_Not_Resolved_Atoms>  (218) 
nan

$$$$
CHEMBL3318033
     RDKit          3D

  0  0  0  0  0  0  0  0  0  0999 V3000
M  V30 BEGIN CTAB
M  V30 COUNTS 42 45 0 0 0
M  V30 BEGIN ATOM
M  V30 1 C 1.916819 -8.666986 0.833723 0
M  V30 2 N 2.039942 -7.361365 0.199245 0
M  V30 3 C 1.578074 -6.249093 0.775722 0
M  V30 4 C 1.832008 -5.151970 -0.053612 0
M  V30 5 C 1.457138 -3.771612 0.271527 0
M  V30 6 C 1.118823 -2.808317 -0.656141 0
M  V30 7 N 0.795183 -1.578091 -0.217743 0
M  V30 8 C 0.780610 -1.223218 1.086616 0
M  V30 9 C 0.436058 0.059680 1.435555 0
M  V30 10 N 0.101028 0.989555 0.423955 0
M  V30 11 C -0.281441 2.351432 0.509318 0
M  V30 12 O -0.352957 2.878946 1.641487 0
M  V30 13 N -0.592236 3.173805 -0.586207 0
M  V30 14 C -0.941612 4.505624 -0.153549 0
M  V30 15 C -0.022510 5.523343 -0.003624 0
M  V30 16 C -0.461388 6.782102 0.422439 0
M  V30 17 C -1.811157 6.936559 0.672585 0
M  V30 18 C -2.717358 5.908057 0.517609 0
M  V30 19 C -2.288565 4.656668 0.095212 0
M  V30 20 C 0.459242 0.294716 2.788658 0
M  V30 21 C 0.784629 -0.609845 3.774560 0
M  V30 22 N 1.116171 -1.859745 3.372894 0
M  V30 23 C 1.111108 -2.151764 2.046642 0
M  V30 24 C 1.442179 -3.409422 1.602706 0
M  V30 25 C 2.480003 -5.708206 -1.163491 0
M  V30 26 N 2.581472 -7.037501 -0.964863 0
M  V30 27 H 2.469139 -8.620064 1.805693 0
M  V30 28 H 2.366627 -9.462007 0.193414 0
M  V30 29 H 0.844438 -8.847775 1.048061 0
M  V30 30 H 1.077685 -6.161335 1.735088 0
M  V30 31 H 1.133319 -3.099723 -1.690028 0
M  V30 32 H 0.123848 0.668117 -0.573788 0
M  V30 33 H -0.537571 2.744165 -1.554721 0
M  V30 34 H 1.005396 5.316418 -0.219637 0
M  V30 35 H 0.242050 7.593371 0.546361 0
M  V30 36 H -2.109121 7.939151 1.004010 0
M  V30 37 H -3.768652 6.079091 0.726903 0
M  V30 38 H -3.022619 3.874210 -0.015794 0
M  V30 39 H 0.203068 1.273423 3.156349 0
M  V30 40 H 0.781497 -0.355576 4.817841 0
M  V30 41 H 1.702246 -4.141821 2.352148 0
M  V30 42 H 2.792277 -5.065540 -1.971411 0
M  V30 END ATOM
M  V30 BEGIN BOND
M  V30 1 1 1 2
M  V30 2 1 2 3
M  V30 3 2 3 4
M  V30 4 1 4 5
M  V30 5 2 5 6
M  V30 6 1 6 7
M  V30 7 2 7 8
M  V30 8 1 8 9
M  V30 9 1 9 10
M  V30 10 1 10 11
M  V30 11 2 11 12
M  V30 12 1 11 13
M  V30 13 1 13 14
M  V30 14 2 14 15
M  V30 15 1 15 16
M  V30 16 2 16 17
M  V30 17 1 17 18
M  V30 18 2 18 19
M  V30 19 2 9 20
M  V30 20 1 20 21
M  V30 21 2 21 22
M  V30 22 1 22 23
M  V30 23 2 23 24
M  V30 24 1 4 25
M  V30 25 2 25 26
M  V30 26 1 26 2
M  V30 27 1 24 5
M  V30 28 1 23 8
M  V30 29 1 19 14
M  V30 30 1 1 27
M  V30 31 1 1 28
M  V30 32 1 1 29
M  V30 33 1 3 30
M  V30 34 1 6 31
M  V30 35 1 10 32
M  V30 36 1 13 33
M  V30 37 1 15 34
M  V30 38 1 16 35
M  V30 39 1 17 36
M  V30 40 1 18 37
M  V30 41 1 19 38
M  V30 42 1 20 39
M  V30 43 1 21 40
M  V30 44 1 24 41
M  V30 45 1 25 42
M  V30 END BOND
M  V30 END CTAB
M  END
>  <Dataset>  (219) 
ChEMBL_Kinases

>  <Ligand_Instance>  (219) 
nan

>  <PDB_ID>  (219) 
nan

>  <Standardized_SMILES>  (219) 
Cn1cc(-c2cnc3c(NC(=O)Nc4ccccc4)ccnc3c2)cn1

>  <Name>  (219) 
nan

>  <Pocket>  (219) 
nan

>  <ATP_Site>  (219) 
nan

>  <Peripheral>  (219) 
nan

>  <Num_H_Atoms_ProtBoundConf>  (219) 
nan

>  <Num_Resolved_Atoms>  (219) 
nan

>  <Num_Not_Resolved_Atoms>  (219) 
nan

$$$$
CHEMBL3318034
     RDKit          3D

  0  0  0  0  0  0  0  0  0  0999 V3000
M  V30 BEGIN CTAB
M  V30 COUNTS 45 48 0 0 0
M  V30 BEGIN ATOM
M  V30 1 C -0.062404 -7.139522 1.334646 0
M  V30 2 N -0.677670 -6.062523 0.581134 0
M  V30 3 C -0.188909 -4.798124 0.549476 0
M  V30 4 C -1.075529 -4.118978 -0.278319 0
M  V30 5 C -0.873644 -2.701994 -0.557542 0
M  V30 6 C 0.388154 -2.178976 -0.605784 0
M  V30 7 N 0.658364 -0.863863 -0.860922 0
M  V30 8 C -0.339225 0.016142 -1.085956 0
M  V30 9 C -0.140099 1.355573 -1.349319 0
M  V30 10 N 1.235895 1.810848 -1.369525 0
M  V30 11 C 1.551482 2.211732 -0.023343 0
M  V30 12 O 0.515338 2.012736 0.663009 0
M  V30 13 N 2.828638 2.720582 0.338991 0
M  V30 14 C 3.188949 3.136909 1.688298 0
M  V30 15 C 2.155672 2.637472 2.660785 0
M  V30 16 C 1.017964 3.315635 3.038109 0
M  V30 17 C 0.156755 2.725720 3.945993 0
M  V30 18 C 0.364405 1.487271 4.506215 0
M  V30 19 C 1.495764 0.774442 4.153336 0
M  V30 20 C 2.360564 1.376506 3.236083 0
M  V30 21 C -1.174017 2.243557 -1.577923 0
M  V30 22 C -2.438141 1.684824 -1.522938 0
M  V30 23 N -2.658851 0.383488 -1.268192 0
M  V30 24 C -1.630954 -0.482277 -1.044256 0
M  V30 25 C -1.902772 -1.811429 -0.786221 0
M  V30 26 C -2.073442 -4.978222 -0.726525 0
M  V30 27 N -1.763164 -6.167980 -0.153291 0
M  V30 28 H 0.498864 -7.767216 0.613365 0
M  V30 29 H 0.544986 -6.746857 2.163356 0
M  V30 30 H -0.867397 -7.778533 1.780709 0
M  V30 31 H 0.685017 -4.467187 1.067284 0
M  V30 32 H 1.260460 -2.814637 -0.435887 0
M  V30 33 H 1.976726 1.891015 -2.133115 0
M  V30 34 H 3.552687 2.800882 -0.401218 0
M  V30 35 H 3.324322 4.229543 1.756979 0
M  V30 36 H 4.145969 2.636760 1.930934 0
M  V30 37 H 0.864428 4.286392 2.592028 0
M  V30 38 H -0.729008 3.281568 4.222898 0
M  V30 39 H -0.317038 1.034481 5.214671 0
M  V30 40 H 1.752808 -0.209777 4.535943 0
M  V30 41 H 3.261976 0.820308 2.948098 0
M  V30 42 H -0.987801 3.291223 -1.782712 0
M  V30 43 H -3.271489 2.358768 -1.699766 0
M  V30 44 H -2.931515 -2.170883 -0.760380 0
M  V30 45 H -2.854286 -4.638407 -1.379060 0
M  V30 END ATOM
M  V30 BEGIN BOND
M  V30 1 1 1 2
M  V30 2 1 2 3
M  V30 3 2 3 4
M  V30 4 1 4 5
M  V30 5 2 5 6
M  V30 6 1 6 7
M  V30 7 2 7 8
M  V30 8 1 8 9
M  V30 9 1 9 10
M  V30 10 1 10 11
M  V30 11 2 11 12
M  V30 12 1 11 13
M  V30 13 1 13 14
M  V30 14 1 14 15
M  V30 15 2 15 16
M  V30 16 1 16 17
M  V30 17 2 17 18
M  V30 18 1 18 19
M  V30 19 2 19 20
M  V30 20 2 9 21
M  V30 21 1 21 22
M  V30 22 2 22 23
M  V30 23 1 23 24
M  V30 24 2 24 25
M  V30 25 1 4 26
M  V30 26 2 26 27
M  V30 27 1 27 2
M  V30 28 1 25 5
M  V30 29 1 24 8
M  V30 30 1 20 15
M  V30 31 1 1 28
M  V30 32 1 1 29
M  V30 33 1 1 30
M  V30 34 1 3 31
M  V30 35 1 6 32
M  V30 36 1 10 33
M  V30 37 1 13 34
M  V30 38 1 14 35
M  V30 39 1 14 36
M  V30 40 1 16 37
M  V30 41 1 17 38
M  V30 42 1 18 39
M  V30 43 1 19 40
M  V30 44 1 20 41
M  V30 45 1 21 42
M  V30 46 1 22 43
M  V30 47 1 25 44
M  V30 48 1 26 45
M  V30 END BOND
M  V30 END CTAB
M  END
>  <Dataset>  (220) 
ChEMBL_Kinases

>  <Ligand_Instance>  (220) 
nan

>  <PDB_ID>  (220) 
nan

>  <Standardized_SMILES>  (220) 
Cn1cc(-c2cnc3c(NC(=O)NCc4ccccc4)ccnc3c2)cn1

>  <Name>  (220) 
nan

>  <Pocket>  (220) 
nan

>  <ATP_Site>  (220) 
nan

>  <Peripheral>  (220) 
nan

>  <Num_H_Atoms_ProtBoundConf>  (220) 
nan

>  <Num_Resolved_Atoms>  (220) 
nan

>  <Num_Not_Resolved_Atoms>  (220) 
nan

$$$$
CHEMBL3318035
     RDKit          3D

  0  0  0  0  0  0  0  0  0  0999 V3000
M  V30 BEGIN CTAB
M  V30 COUNTS 48 51 0 0 0
M  V30 BEGIN ATOM
M  V30 1 C -2.523840 -7.787096 0.080927 0
M  V30 2 N -1.650084 -6.674981 0.411017 0
M  V30 3 C -1.606078 -5.636823 -0.444343 0
M  V30 4 C -0.702488 -4.722099 0.105756 0
M  V30 5 C -0.273985 -3.422380 -0.403601 0
M  V30 6 C 0.082149 -2.394447 0.446521 0
M  V30 7 N 0.490031 -1.162654 0.028915 0
M  V30 8 C 0.554579 -0.917819 -1.312734 0
M  V30 9 C 0.961866 0.312934 -1.763240 0
M  V30 10 N 1.328614 1.369113 -0.884385 0
M  V30 11 C 0.559628 2.405977 -0.289963 0
M  V30 12 O -0.655680 2.409942 -0.574913 0
M  V30 13 N 1.259694 3.308017 0.551325 0
M  V30 14 C 0.502706 4.375390 1.172060 0
M  V30 15 C -0.604591 3.886141 2.070144 0
M  V30 16 C -0.023000 3.063421 3.161129 0
M  V30 17 C 0.363316 3.708221 4.341961 0
M  V30 18 C 0.916926 3.095668 5.447088 0
M  V30 19 C 1.082935 1.730581 5.326867 0
M  V30 20 C 0.732443 1.010690 4.204064 0
M  V30 21 C 0.185442 1.700837 3.144938 0
M  V30 22 C 1.043096 0.607456 -3.119005 0
M  V30 23 C 0.689090 -0.413612 -3.979686 0
M  V30 24 N 0.279091 -1.650413 -3.579896 0
M  V30 25 C 0.210906 -1.905466 -2.241620 0
M  V30 26 C -0.194248 -3.131981 -1.750499 0
M  V30 27 C -0.229859 -5.269616 1.304410 0
M  V30 28 N -0.848781 -6.480079 1.446012 0
M  V30 29 H -2.620475 -8.475208 0.958168 0
M  V30 30 H -2.223556 -8.314486 -0.847444 0
M  V30 31 H -3.571664 -7.398282 -0.070243 0
M  V30 32 H -2.115221 -5.448163 -1.379102 0
M  V30 33 H 0.042080 -2.555695 1.530108 0
M  V30 34 H 2.351456 1.206263 -0.763512 0
M  V30 35 H 2.291456 3.198464 0.713048 0
M  V30 36 H 0.134715 5.102340 0.419078 0
M  V30 37 H 1.194200 4.949237 1.823093 0
M  V30 38 H -1.302347 3.227217 1.512668 0
M  V30 39 H -1.110086 4.748859 2.530691 0
M  V30 40 H 0.220460 4.793086 4.410995 0
M  V30 41 H 1.185324 3.670034 6.315706 0
M  V30 42 H 1.510961 1.175152 6.149846 0
M  V30 43 H 0.865359 -0.054649 4.118181 0
M  V30 44 H -0.105374 1.187368 2.248159 0
M  V30 45 H 1.349832 1.538853 -3.556072 0
M  V30 46 H 0.693497 -0.357653 -5.077439 0
M  V30 47 H -0.456027 -3.883877 -2.478336 0
M  V30 48 H 0.479557 -4.890995 2.037883 0
M  V30 END ATOM
M  V30 BEGIN BOND
M  V30 1 1 1 2
M  V30 2 1 2 3
M  V30 3 2 3 4
M  V30 4 1 4 5
M  V30 5 2 5 6
M  V30 6 1 6 7
M  V30 7 2 7 8
M  V30 8 1 8 9
M  V30 9 1 9 10
M  V30 10 1 10 11
M  V30 11 2 11 12
M  V30 12 1 11 13
M  V30 13 1 13 14
M  V30 14 1 14 15
M  V30 15 1 15 16
M  V30 16 2 16 17
M  V30 17 1 17 18
M  V30 18 2 18 19
M  V30 19 1 19 20
M  V30 20 2 20 21
M  V30 21 2 9 22
M  V30 22 1 22 23
M  V30 23 2 23 24
M  V30 24 1 24 25
M  V30 25 2 25 26
M  V30 26 1 4 27
M  V30 27 2 27 28
M  V30 28 1 28 2
M  V30 29 1 26 5
M  V30 30 1 25 8
M  V30 31 1 21 16
M  V30 32 1 1 29
M  V30 33 1 1 30
M  V30 34 1 1 31
M  V30 35 1 3 32
M  V30 36 1 6 33
M  V30 37 1 10 34
M  V30 38 1 13 35
M  V30 39 1 14 36
M  V30 40 1 14 37
M  V30 41 1 15 38
M  V30 42 1 15 39
M  V30 43 1 17 40
M  V30 44 1 18 41
M  V30 45 1 19 42
M  V30 46 1 20 43
M  V30 47 1 21 44
M  V30 48 1 22 45
M  V30 49 1 23 46
M  V30 50 1 26 47
M  V30 51 1 27 48
M  V30 END BOND
M  V30 END CTAB
M  END
>  <Dataset>  (221) 
ChEMBL_Kinases

>  <Ligand_Instance>  (221) 
nan

>  <PDB_ID>  (221) 
nan

>  <Standardized_SMILES>  (221) 
Cn1cc(-c2cnc3c(NC(=O)NCCc4ccccc4)ccnc3c2)cn1

>  <Name>  (221) 
nan

>  <Pocket>  (221) 
nan

>  <ATP_Site>  (221) 
nan

>  <Peripheral>  (221) 
nan

>  <Num_H_Atoms_ProtBoundConf>  (221) 
nan

>  <Num_Resolved_Atoms>  (221) 
nan

>  <Num_Not_Resolved_Atoms>  (221) 
nan

$$$$
CHEMBL3318173
     RDKit          3D

  0  0  0  0  0  0  0  0  0  0999 V3000
M  V30 BEGIN CTAB
M  V30 COUNTS 110 115 0 0 0
M  V30 BEGIN ATOM
M  V30 1 C 0.211523 -3.685234 8.552937 0
M  V30 2 O 0.412001 -2.595673 7.702115 0
M  V30 3 C 0.836092 -1.375810 8.212843 0
M  V30 4 C 1.119467 -1.011569 9.511585 0
M  V30 5 C 1.527047 0.251119 9.812523 0
M  V30 6 C 1.671097 1.209651 8.832091 0
M  V30 7 C 1.393297 0.875545 7.510085 0
M  V30 8 C 1.550338 1.915554 6.485569 0
M  V30 9 O 1.925495 3.050851 6.874423 0
M  V30 10 O 1.275710 1.563782 5.196510 0
M  V30 11 C 1.358160 2.407077 4.058732 0 CFG=1
M  V30 12 C 2.451267 1.921322 3.182979 0
M  V30 13 C 2.087286 1.383777 1.853060 0
M  V30 14 C 0.769663 0.635930 1.901317 0 CFG=2
M  V30 15 C 0.865279 -0.465912 2.873562 0
M  V30 16 C 0.501648 0.141820 0.508278 0 CFG=1
M  V30 17 C 1.513142 -0.835720 0.023366 0
M  V30 18 C 0.891395 -1.714643 -0.995483 0
M  V30 19 C -0.219077 -1.604307 -1.673318 0
M  V30 20 C -0.792491 -2.506039 -2.672689 0 CFG=2
M  V30 21 C 0.122926 -3.554339 -3.194349 0
M  V30 22 C 0.865303 -3.229550 -4.454028 0
M  V30 23 C 2.069379 -2.377921 -4.312739 0
M  V30 24 C 1.353204 -4.566343 -5.024579 0
M  V30 25 C -0.077553 -2.682546 -5.529437 0
M  V30 26 C -0.629269 -1.391117 -4.911269 0 CFG=1
M  V30 27 O -1.256274 -0.591506 -5.852531 0
M  V30 28 C -0.887627 0.641265 -6.315809 0
M  V30 29 O 0.169919 0.910635 -5.696906 0
M  V30 30 C -1.794464 1.191397 -7.312341 0
M  V30 31 C -2.886614 0.970412 -7.987265 0
M  V30 32 C -3.684167 -0.260667 -7.844856 0
M  V30 33 C -3.349859 1.988926 -8.934425 0
M  V30 34 C -1.523730 -1.852920 -3.790666 0 CFG=1
M  V30 35 C -2.359849 -2.957815 -4.424740 0
M  V30 36 O -2.645834 -4.203116 -4.333766 0
M  V30 37 O -3.058172 -2.390734 -5.482737 0
M  V30 38 C -2.475488 -0.848029 -3.299250 0
M  V30 39 C -2.319425 -0.292074 -1.930503 0
M  V30 40 C -0.968874 -0.352076 -1.330494 0 CFG=2
M  V30 41 C -0.181137 0.791281 -1.997204 0
M  V30 42 C -0.897504 -0.255561 0.176176 0 CFG=1
M  V30 43 C -1.346868 -1.585415 0.722774 0
M  V30 44 C -1.915664 0.738228 0.716901 0
M  V30 45 C -1.585175 1.105021 2.148768 0
M  V30 46 C -0.227924 1.726443 2.214288 0 CFG=1
M  V30 47 C 0.014501 2.530224 3.416994 0
M  V30 48 C -1.038356 2.258366 4.499548 0
M  V30 49 C -0.202794 3.995748 3.080065 0
M  V30 50 C 0.980781 -0.406969 7.214859 0
M  V30 51 H 1.115027 -4.308078 8.732950 0
M  V30 52 H -0.160068 -3.375067 9.549974 0
M  V30 53 H -0.601761 -4.299966 8.096390 0
M  V30 54 H 0.980491 -1.821483 10.213522 0
M  V30 55 H 1.711086 0.379053 10.886839 0
M  V30 56 H 1.996309 2.172701 9.165784 0
M  V30 57 H 1.689063 3.388362 4.492665 0
M  V30 58 H 3.213502 2.736884 2.981620 0
M  V30 59 H 3.087022 1.150689 3.709219 0
M  V30 60 H 1.981455 2.206271 1.101517 0
M  V30 61 H 2.925389 0.769894 1.491577 0
M  V30 62 H 1.846482 -0.421706 3.396159 0
M  V30 63 H 0.799376 -1.494896 2.481996 0
M  V30 64 H 0.123095 -0.428176 3.697831 0
M  V30 65 H 0.691083 1.071868 -0.118790 0
M  V30 66 H 2.407891 -0.316951 -0.443072 0
M  V30 67 H 1.987842 -1.427620 0.839648 0
M  V30 68 H 1.496509 -2.602042 -1.189578 0
M  V30 69 H -1.611573 -3.070742 -2.114952 0
M  V30 70 H -0.512697 -4.433822 -3.481378 0
M  V30 71 H 0.842380 -3.987126 -2.494965 0
M  V30 72 H 2.923904 -3.019425 -3.971393 0
M  V30 73 H 2.356364 -2.037336 -5.329225 0
M  V30 74 H 1.999469 -1.507574 -3.664072 0
M  V30 75 H 1.899334 -5.098570 -4.205746 0
M  V30 76 H 0.504034 -5.182582 -5.369750 0
M  V30 77 H 2.081101 -4.372014 -5.814511 0
M  V30 78 H 0.573389 -2.481347 -6.400111 0
M  V30 79 H -0.844780 -3.448338 -5.678453 0
M  V30 80 H 0.265446 -0.875507 -4.526541 0
M  V30 81 H -1.245701 2.136366 -7.468687 0
M  V30 82 H -2.946675 -1.110670 -7.908813 0
M  V30 83 H -4.204415 -0.311630 -6.870627 0
M  V30 84 H -4.434369 -0.356845 -8.642967 0
M  V30 85 H -3.662556 1.469384 -9.887574 0
M  V30 86 H -4.282131 2.436401 -8.526033 0
M  V30 87 H -2.596808 2.753146 -9.189699 0
M  V30 88 H -3.762466 -2.849351 -6.033655 0
M  V30 89 H -2.419910 0.011927 -4.043573 0
M  V30 90 H -3.512956 -1.211581 -3.452638 0
M  V30 91 H -2.700455 0.762432 -1.952355 0
M  V30 92 H -3.065476 -0.799384 -1.290288 0
M  V30 93 H -0.535820 0.852196 -3.070713 0
M  V30 94 H 0.882589 0.594394 -2.078511 0
M  V30 95 H -0.474816 1.783548 -1.596268 0
M  V30 96 H -2.113688 -2.001862 0.001740 0
M  V30 97 H -0.594813 -2.364786 0.783661 0
M  V30 98 H -1.948801 -1.477440 1.657816 0
M  V30 99 H -2.002157 1.634649 0.069549 0
M  V30 100 H -2.920485 0.261377 0.813590 0
M  V30 101 H -1.698533 0.206922 2.764283 0
M  V30 102 H -2.348771 1.841330 2.489780 0
M  V30 103 H -0.173053 2.388014 1.297300 0
M  V30 104 H -0.606565 2.595971 5.472350 0
M  V30 105 H -1.401055 1.234130 4.510831 0
M  V30 106 H -1.943878 2.895538 4.366353 0
M  V30 107 H 0.384428 4.650321 3.784743 0
M  V30 108 H -1.280707 4.270141 3.067580 0
M  V30 109 H 0.189402 4.235607 2.052119 0
M  V30 110 H 0.786970 -0.578423 6.160876 0
M  V30 END ATOM
M  V30 BEGIN BOND
M  V30 1 1 1 2
M  V30 2 1 2 3
M  V30 3 2 3 4
M  V30 4 1 4 5
M  V30 5 2 5 6
M  V30 6 1 6 7
M  V30 7 1 7 8
M  V30 8 2 8 9
M  V30 9 1 8 10
M  V30 10 1 10 11
M  V30 11 1 11 12
M  V30 12 1 12 13
M  V30 13 1 13 14
M  V30 14 1 14 15 CFG=1
M  V30 15 1 14 16
M  V30 16 1 16 17
M  V30 17 1 17 18
M  V30 18 2 18 19
M  V30 19 1 19 20
M  V30 20 1 20 21
M  V30 21 1 21 22
M  V30 22 1 22 23
M  V30 23 1 22 24
M  V30 24 1 22 25
M  V30 25 1 25 26
M  V30 26 1 26 27
M  V30 27 1 27 28
M  V30 28 2 28 29
M  V30 29 1 28 30
M  V30 30 2 30 31 CFG=2
M  V30 31 1 31 32
M  V30 32 1 31 33
M  V30 33 1 26 34
M  V30 34 1 34 35 CFG=3
M  V30 35 2 35 36
M  V30 36 1 35 37
M  V30 37 1 34 38
M  V30 38 1 38 39
M  V30 39 1 39 40
M  V30 40 1 40 41 CFG=3
M  V30 41 1 40 42
M  V30 42 1 42 43 CFG=1
M  V30 43 1 42 44
M  V30 44 1 44 45
M  V30 45 1 45 46
M  V30 46 1 46 47
M  V30 47 1 47 48
M  V30 48 1 47 49
M  V30 49 2 7 50
M  V30 50 1 50 3
M  V30 51 1 47 11
M  V30 52 1 46 14
M  V30 53 1 42 16
M  V30 54 1 40 19
M  V30 55 1 34 20
M  V30 56 1 1 51
M  V30 57 1 1 52
M  V30 58 1 1 53
M  V30 59 1 4 54
M  V30 60 1 5 55
M  V30 61 1 6 56
M  V30 62 1 11 57 CFG=1
M  V30 63 1 12 58
M  V30 64 1 12 59
M  V30 65 1 13 60
M  V30 66 1 13 61
M  V30 67 1 15 62
M  V30 68 1 15 63
M  V30 69 1 15 64
M  V30 70 1 16 65 CFG=3
M  V30 71 1 17 66
M  V30 72 1 17 67
M  V30 73 1 18 68
M  V30 74 1 20 69 CFG=1
M  V30 75 1 21 70
M  V30 76 1 21 71
M  V30 77 1 23 72
M  V30 78 1 23 73
M  V30 79 1 23 74
M  V30 80 1 24 75
M  V30 81 1 24 76
M  V30 82 1 24 77
M  V30 83 1 25 78
M  V30 84 1 25 79
M  V30 85 1 26 80 CFG=1
M  V30 86 1 30 81
M  V30 87 1 32 82
M  V30 88 1 32 83
M  V30 89 1 32 84
M  V30 90 1 33 85
M  V30 91 1 33 86
M  V30 92 1 33 87
M  V30 93 1 37 88
M  V30 94 1 38 89
M  V30 95 1 38 90
M  V30 96 1 39 91
M  V30 97 1 39 92
M  V30 98 1 41 93
M  V30 99 1 41 94
M  V30 100 1 41 95
M  V30 101 1 43 96
M  V30 102 1 43 97
M  V30 103 1 43 98
M  V30 104 1 44 99
M  V30 105 1 44 100
M  V30 106 1 45 101
M  V30 107 1 45 102
M  V30 108 1 46 103 CFG=3
M  V30 109 1 48 104
M  V30 110 1 48 105
M  V30 111 1 48 106
M  V30 112 1 49 107
M  V30 113 1 49 108
M  V30 114 1 49 109
M  V30 115 1 50 110
M  V30 END BOND
M  V30 END CTAB
M  END
>  <Dataset>  (222) 
ChEMBL_Kinases

>  <Ligand_Instance>  (222) 
nan

>  <PDB_ID>  (222) 
nan

>  <Standardized_SMILES>  (222) 
COc1cccc(C(=O)O[C@H]2CC[C@]3(C)[C@H]4CC=C5[C@@H]6CC(C)(C)C[C@@H](OC(=O)C=C(C)C)[C@]6(C(=O)O)CC[C@@]5(C)[C@]4(C)CC[C@H]3C2(C)C)c1

>  <Name>  (222) 
nan

>  <Pocket>  (222) 
nan

>  <ATP_Site>  (222) 
nan

>  <Peripheral>  (222) 
nan

>  <Num_H_Atoms_ProtBoundConf>  (222) 
nan

>  <Num_Resolved_Atoms>  (222) 
nan

>  <Num_Not_Resolved_Atoms>  (222) 
nan

$$$$
CHEMBL3318175
     RDKit          3D

  0  0  0  0  0  0  0  0  0  0999 V3000
M  V30 BEGIN CTAB
M  V30 COUNTS 106 111 0 0 0
M  V30 BEGIN ATOM
M  V30 1 C 4.714762 -3.350700 6.855790 0
M  V30 2 C 4.476793 -2.420049 5.695395 0
M  V30 3 C 5.289143 -2.592044 4.456098 0
M  V30 4 C 3.562373 -1.467926 5.773901 0
M  V30 5 C 3.272486 -0.528599 4.695361 0
M  V30 6 O 3.898500 -0.581945 3.609606 0
M  V30 7 O 2.298153 0.439541 4.854921 0
M  V30 8 C 2.009890 1.354507 3.813122 0 CFG=2
M  V30 9 C 2.273653 2.787484 4.218668 0
M  V30 10 C 2.199667 3.630408 2.970762 0
M  V30 11 C 1.595207 4.989105 3.214857 0
M  V30 12 C 3.649016 3.868174 2.524992 0
M  V30 13 C 1.475677 2.975606 1.850538 0
M  V30 14 C 0.266890 2.180689 2.311800 0 CFG=1
M  V30 15 C -0.299456 1.492730 1.090248 0
M  V30 16 C -1.091597 2.247708 0.298762 0
M  V30 17 C -1.758506 1.807371 -0.943134 0
M  V30 18 C -1.178799 0.477793 -1.297694 0 CFG=2
M  V30 19 C -1.710259 -0.169665 -2.545180 0 CFG=1
M  V30 20 C -3.103286 -0.688074 -2.426291 0
M  V30 21 C -1.711599 0.795606 -3.697915 0
M  V30 22 C -2.172140 0.155319 -4.969414 0
M  V30 23 C -1.811471 -1.281815 -5.149524 0 CFG=2
M  V30 24 O -2.892740 -2.190976 -5.047422 0
M  V30 25 C -3.329354 -2.988464 -6.084979 0
M  V30 26 O -2.779508 -2.955635 -7.215643 0
M  V30 27 C -4.461379 -3.898990 -5.870507 0
M  V30 28 C -4.870649 -4.692767 -6.945305 0
M  V30 29 C -5.940113 -5.530762 -6.684483 0
M  V30 30 C -6.589340 -5.610426 -5.460926 0
M  V30 31 Cl -7.934320 -6.703824 -5.228448 0
M  V30 32 C -6.143617 -4.799635 -4.424087 0
M  V30 33 C -5.085824 -3.954645 -4.642072 0
M  V30 34 C -0.648227 -1.689312 -4.285272 0
M  V30 35 C -0.545318 -3.218265 -4.388510 0
M  V30 36 C 0.598733 -1.203375 -5.043478 0
M  V30 37 C -0.672413 -1.208277 -2.889429 0 CFG=2
M  V30 38 C -0.728555 -2.301671 -1.855164 0
M  V30 39 C -0.938112 -1.883569 -0.474714 0
M  V30 40 C -1.112735 -0.443029 -0.121404 0 CFG=2
M  V30 41 C -2.387420 -0.329165 0.720132 0
M  V30 42 C 0.005582 0.067091 0.782348 0 CFG=1
M  V30 43 C 1.348017 -0.008274 0.033543 0
M  V30 44 C 0.184917 -0.771788 2.006712 0
M  V30 45 C 0.060556 -0.124149 3.321055 0
M  V30 46 C 0.517066 1.295040 3.457443 0 CFG=1
M  V30 47 C -0.140046 1.827882 4.711020 0
M  V30 48 O -0.967414 1.102160 5.353263 0
M  V30 49 O -0.693555 2.378480 5.835118 0
M  V30 50 H 5.817079 -3.523999 6.997985 0
M  V30 51 H 4.201079 -4.325974 6.671148 0
M  V30 52 H 4.318498 -2.854668 7.769120 0
M  V30 53 H 6.029770 -3.389990 4.605567 0
M  V30 54 H 5.873117 -1.677576 4.215118 0
M  V30 55 H 4.645072 -2.790144 3.567586 0
M  V30 56 H 2.995961 -1.384794 6.698539 0
M  V30 57 H 2.653586 1.157264 2.941068 0
M  V30 58 H 1.614529 3.167144 5.007493 0
M  V30 59 H 3.308972 2.839541 4.675775 0
M  V30 60 H 0.501367 5.002973 3.019061 0
M  V30 61 H 2.041043 5.730638 2.504886 0
M  V30 62 H 1.839414 5.317067 4.259176 0
M  V30 63 H 3.896710 3.000328 1.881100 0
M  V30 64 H 4.326118 3.798167 3.404429 0
M  V30 65 H 3.750333 4.841087 2.003283 0
M  V30 66 H 1.099501 3.781448 1.164089 0
M  V30 67 H 2.194149 2.397104 1.274619 0
M  V30 68 H -0.467158 2.955319 2.622038 0
M  V30 69 H -1.299074 3.302299 0.548223 0
M  V30 70 H -1.406044 2.540759 -1.731412 0
M  V30 71 H -2.841197 1.894085 -0.965111 0
M  V30 72 H -0.109346 0.711349 -1.556342 0
M  V30 73 H -3.180494 -1.790093 -2.313091 0
M  V30 74 H -3.795979 -0.327610 -3.246324 0
M  V30 75 H -3.664650 -0.271670 -1.536558 0
M  V30 76 H -2.438036 1.635923 -3.488230 0
M  V30 77 H -0.728017 1.288187 -3.792169 0
M  V30 78 H -1.740533 0.802308 -5.781562 0
M  V30 79 H -3.285398 0.267754 -5.124965 0
M  V30 80 H -1.485209 -1.415328 -6.214520 0
M  V30 81 H -4.396164 -4.668356 -7.922280 0
M  V30 82 H -6.301695 -6.176179 -7.495684 0
M  V30 83 H -6.606465 -4.814276 -3.444229 0
M  V30 84 H -4.714651 -3.311832 -3.858017 0
M  V30 85 H -0.359940 -3.385569 -5.490772 0
M  V30 86 H 0.351120 -3.608379 -3.889691 0
M  V30 87 H -1.482015 -3.725155 -4.151760 0
M  V30 88 H 0.979274 -1.935991 -5.759145 0
M  V30 89 H 1.356104 -0.985191 -4.246659 0
M  V30 90 H 0.396070 -0.231078 -5.538501 0
M  V30 91 H 0.330018 -0.740546 -2.705711 0
M  V30 92 H -1.479789 -3.042680 -2.229289 0
M  V30 93 H 0.239151 -2.874135 -1.992763 0
M  V30 94 H -0.063081 -2.250727 0.139571 0
M  V30 95 H -1.773481 -2.514673 -0.062333 0
M  V30 96 H -3.029999 -1.246077 0.556170 0
M  V30 97 H -2.929580 0.603944 0.595301 0
M  V30 98 H -2.189541 -0.377503 1.809720 0
M  V30 99 H 2.180000 -0.160271 0.785264 0
M  V30 100 H 1.334517 -0.933291 -0.538678 0
M  V30 101 H 1.615076 0.892860 -0.497387 0
M  V30 102 H -0.581718 -1.606425 1.996329 0
M  V30 103 H 1.138178 -1.384407 1.992888 0
M  V30 104 H -0.937429 -0.216913 3.824174 0
M  V30 105 H 0.713669 -0.674015 4.070531 0
M  V30 106 H -0.523284 3.384565 6.006479 0
M  V30 END ATOM
M  V30 BEGIN BOND
M  V30 1 1 1 2
M  V30 2 1 2 3
M  V30 3 2 2 4 CFG=2
M  V30 4 1 4 5
M  V30 5 2 5 6
M  V30 6 1 5 7
M  V30 7 1 7 8
M  V30 8 1 8 9
M  V30 9 1 9 10
M  V30 10 1 10 11
M  V30 11 1 10 12
M  V30 12 1 10 13
M  V30 13 1 13 14
M  V30 14 1 14 15
M  V30 15 2 15 16
M  V30 16 1 16 17
M  V30 17 1 17 18
M  V30 18 1 18 19
M  V30 19 1 19 20 CFG=1
M  V30 20 1 19 21
M  V30 21 1 21 22
M  V30 22 1 22 23
M  V30 23 1 23 24
M  V30 24 1 24 25
M  V30 25 2 25 26
M  V30 26 1 25 27
M  V30 27 2 27 28
M  V30 28 1 28 29
M  V30 29 2 29 30
M  V30 30 1 30 31
M  V30 31 1 30 32
M  V30 32 2 32 33
M  V30 33 1 23 34
M  V30 34 1 34 35
M  V30 35 1 34 36
M  V30 36 1 34 37
M  V30 37 1 37 38
M  V30 38 1 38 39
M  V30 39 1 39 40
M  V30 40 1 40 41 CFG=1
M  V30 41 1 40 42
M  V30 42 1 42 43 CFG=3
M  V30 43 1 42 44
M  V30 44 1 44 45
M  V30 45 1 45 46
M  V30 46 1 46 47 CFG=1
M  V30 47 2 47 48
M  V30 48 1 47 49
M  V30 49 1 46 8
M  V30 50 1 46 14
M  V30 51 1 42 15
M  V30 52 1 40 18
M  V30 53 1 37 19
M  V30 54 1 33 27
M  V30 55 1 1 50
M  V30 56 1 1 51
M  V30 57 1 1 52
M  V30 58 1 3 53
M  V30 59 1 3 54
M  V30 60 1 3 55
M  V30 61 1 4 56
M  V30 62 1 8 57 CFG=3
M  V30 63 1 9 58
M  V30 64 1 9 59
M  V30 65 1 11 60
M  V30 66 1 11 61
M  V30 67 1 11 62
M  V30 68 1 12 63
M  V30 69 1 12 64
M  V30 70 1 12 65
M  V30 71 1 13 66
M  V30 72 1 13 67
M  V30 73 1 14 68 CFG=1
M  V30 74 1 16 69
M  V30 75 1 17 70
M  V30 76 1 17 71
M  V30 77 1 18 72 CFG=3
M  V30 78 1 20 73
M  V30 79 1 20 74
M  V30 80 1 20 75
M  V30 81 1 21 76
M  V30 82 1 21 77
M  V30 83 1 22 78
M  V30 84 1 22 79
M  V30 85 1 23 80 CFG=3
M  V30 86 1 28 81
M  V30 87 1 29 82
M  V30 88 1 32 83
M  V30 89 1 33 84
M  V30 90 1 35 85
M  V30 91 1 35 86
M  V30 92 1 35 87
M  V30 93 1 36 88
M  V30 94 1 36 89
M  V30 95 1 36 90
M  V30 96 1 37 91 CFG=1
M  V30 97 1 38 92
M  V30 98 1 38 93
M  V30 99 1 39 94
M  V30 100 1 39 95
M  V30 101 1 41 96
M  V30 102 1 41 97
M  V30 103 1 41 98
M  V30 104 1 43 99
M  V30 105 1 43 100
M  V30 106 1 43 101
M  V30 107 1 44 102
M  V30 108 1 44 103
M  V30 109 1 45 104
M  V30 110 1 45 105
M  V30 111 1 49 106
M  V30 END BOND
M  V30 END CTAB
M  END
>  <Dataset>  (223) 
ChEMBL_Kinases

>  <Ligand_Instance>  (223) 
nan

>  <PDB_ID>  (223) 
nan

>  <Standardized_SMILES>  (223) 
CC(C)=CC(=O)O[C@@H]1CC(C)(C)C[C@H]2C3=CC[C@@H]4[C@@]5(C)CC[C@H](OC(=O)c6ccc(Cl)cc6)C(C)(C)[C@@H]5CC[C@@]4(C)[C@]3(C)CC[C@@]12C(=O)O

>  <Name>  (223) 
nan

>  <Pocket>  (223) 
nan

>  <ATP_Site>  (223) 
nan

>  <Peripheral>  (223) 
nan

>  <Num_H_Atoms_ProtBoundConf>  (223) 
nan

>  <Num_Resolved_Atoms>  (223) 
nan

>  <Num_Not_Resolved_Atoms>  (223) 
nan

$$$$
CHEMBL331842
     RDKit          3D

  0  0  0  0  0  0  0  0  0  0999 V3000
M  V30 BEGIN CTAB
M  V30 COUNTS 44 48 0 0 0
M  V30 BEGIN ATOM
M  V30 1 O 0.647522 -4.585568 -0.194184 0
M  V30 2 C 0.591329 -3.510577 0.444370 0
M  V30 3 C 1.021228 -3.465125 1.748811 0
M  V30 4 C 0.970795 -2.293188 2.476545 0
M  V30 5 C 0.472584 -1.169346 1.844950 0
M  V30 6 C 0.312904 0.187118 2.393582 0
M  V30 7 C 0.979796 1.278767 1.876205 0
M  V30 8 C 1.925785 1.418395 0.775063 0
M  V30 9 C 3.092914 0.714410 0.969321 0
M  V30 10 C 4.095175 0.752590 -0.001579 0
M  V30 11 C 3.906077 1.497066 -1.148791 0
M  V30 12 C 2.740473 2.202339 -1.346504 0
M  V30 13 Cl 2.435061 3.169169 -2.781235 0
M  V30 14 C 1.768176 2.150297 -0.378192 0
M  V30 15 Cl 0.229240 3.004160 -0.502446 0
M  V30 16 N 0.589089 2.329952 2.621502 0
M  V30 17 C -0.288138 1.937343 3.574981 0
M  V30 18 C -0.974270 2.614551 4.578007 0
M  V30 19 C -1.792680 1.844099 5.361608 0
M  V30 20 C -1.983228 0.481670 5.234688 0
M  V30 21 C -1.268307 -0.146767 4.209897 0
M  V30 22 N -0.460514 0.606170 3.434365 0
M  V30 23 N 0.070106 -1.296721 0.560189 0
M  V30 24 N 0.105444 -2.383518 -0.148360 0
M  V30 25 C -0.352368 -2.396369 -1.508297 0
M  V30 26 C 0.365995 -2.500413 -2.680192 0
M  V30 27 Cl 2.083286 -2.633973 -2.442716 0
M  V30 28 C -0.320086 -2.488425 -3.872609 0
M  V30 29 C -1.682981 -2.377606 -3.939597 0
M  V30 30 C -2.420006 -2.271942 -2.765840 0
M  V30 31 C -1.740864 -2.282316 -1.545626 0
M  V30 32 Cl -2.803972 -2.142136 -0.164208 0
M  V30 33 H 1.419156 -4.315815 2.287552 0
M  V30 34 H 1.271783 -2.113262 3.500754 0
M  V30 35 H 3.320740 0.104056 1.843993 0
M  V30 36 H 5.019484 0.195663 0.151113 0
M  V30 37 H 4.662016 1.548903 -1.922081 0
M  V30 38 H -0.857850 3.668456 4.713710 0
M  V30 39 H -2.326846 2.397610 6.149245 0
M  V30 40 H -2.650029 -0.069751 5.892624 0
M  V30 41 H -1.403697 -1.198012 4.098081 0
M  V30 42 H 0.308043 -2.573839 -4.749782 0
M  V30 43 H -2.187323 -2.372226 -4.899160 0
M  V30 44 H -3.493154 -2.186707 -2.872171 0
M  V30 END ATOM
M  V30 BEGIN BOND
M  V30 1 2 1 2
M  V30 2 1 2 3
M  V30 3 2 3 4
M  V30 4 1 4 5
M  V30 5 1 5 6
M  V30 6 2 6 7
M  V30 7 1 7 8
M  V30 8 2 8 9
M  V30 9 1 9 10
M  V30 10 2 10 11
M  V30 11 1 11 12
M  V30 12 1 12 13
M  V30 13 2 12 14
M  V30 14 1 14 15
M  V30 15 1 7 16
M  V30 16 2 16 17
M  V30 17 1 17 18
M  V30 18 2 18 19
M  V30 19 1 19 20
M  V30 20 2 20 21
M  V30 21 1 21 22
M  V30 22 2 5 23
M  V30 23 1 23 24
M  V30 24 1 24 25
M  V30 25 2 25 26
M  V30 26 1 26 27
M  V30 27 1 26 28
M  V30 28 2 28 29
M  V30 29 1 29 30
M  V30 30 2 30 31
M  V30 31 1 31 32
M  V30 32 1 24 2
M  V30 33 1 31 25
M  V30 34 1 22 6
M  V30 35 1 14 8
M  V30 36 1 22 17
M  V30 37 1 3 33
M  V30 38 1 4 34
M  V30 39 1 9 35
M  V30 40 1 10 36
M  V30 41 1 11 37
M  V30 42 1 18 38
M  V30 43 1 19 39
M  V30 44 1 20 40
M  V30 45 1 21 41
M  V30 46 1 28 42
M  V30 47 1 29 43
M  V30 48 1 30 44
M  V30 END BOND
M  V30 END CTAB
M  END
>  <Dataset>  (224) 
ChEMBL_Kinases

>  <Ligand_Instance>  (224) 
nan

>  <PDB_ID>  (224) 
nan

>  <Standardized_SMILES>  (224) 
O=c1ccc(-c2c(-c3cccc(Cl)c3Cl)nc3ccccn23)nn1-c1c(Cl)cccc1Cl

>  <Name>  (224) 
nan

>  <Pocket>  (224) 
nan

>  <ATP_Site>  (224) 
nan

>  <Peripheral>  (224) 
nan

>  <Num_H_Atoms_ProtBoundConf>  (224) 
nan

>  <Num_Resolved_Atoms>  (224) 
nan

>  <Num_Not_Resolved_Atoms>  (224) 
nan

$$$$
CHEMBL3318854
     RDKit          3D

  0  0  0  0  0  0  0  0  0  0999 V3000
M  V30 BEGIN CTAB
M  V30 COUNTS 53 56 0 0 0
M  V30 BEGIN ATOM
M  V30 1 C -4.976397 -2.558379 1.681467 0
M  V30 2 N -4.216698 -1.717329 0.761026 0
M  V30 3 N -4.680282 -0.999182 -0.247530 0
M  V30 4 C -3.698416 -0.341810 -0.889705 0
M  V30 5 C -2.529189 -0.671994 -0.234676 0
M  V30 6 N -1.286174 -0.139515 -0.664885 0
M  V30 7 C -0.284362 -0.544667 -1.578877 0
M  V30 8 O -0.452790 -1.621708 -2.204965 0
M  V30 9 C 0.914278 0.269766 -1.787971 0
M  V30 10 N 1.181536 1.427609 -1.167492 0
M  V30 11 C 2.167083 2.072320 -1.353110 0
M  V30 12 C 2.737874 3.335911 -0.852617 0
M  V30 13 C 3.932302 3.839597 -1.262520 0
M  V30 14 F 4.667653 3.174490 -2.177314 0
M  V30 15 C 4.394421 5.046013 -0.733784 0
M  V30 16 C 3.599303 5.690841 0.204903 0
M  V30 17 C 2.401180 5.173775 0.608015 0
M  V30 18 C 1.940550 3.965949 0.077492 0
M  V30 19 F 0.731638 3.458137 0.493213 0
M  V30 20 S 3.157155 1.138366 -2.618955 0
M  V30 21 C 1.829682 -0.217348 -2.701507 0
M  V30 22 N 1.920611 -1.319832 -3.510554 0
M  V30 23 C -2.884163 -1.529395 0.787959 0
M  V30 24 C -1.878691 -2.104544 1.720833 0 CFG=2
M  V30 25 C -1.363909 -3.420015 1.167558 0
M  V30 26 C 0.125202 -3.603077 1.367177 0 CFG=1
M  V30 27 F 0.764331 -2.541548 0.736869 0
M  V30 28 C 0.520635 -3.734179 2.797397 0 CFG=2
M  V30 29 N 1.251706 -4.998955 2.962796 0
M  V30 30 C -0.613246 -3.771191 3.768838 0
M  V30 31 C -1.333450 -2.445851 3.887400 0
M  V30 32 O -2.394107 -2.323244 2.982088 0
M  V30 33 H -4.719851 -2.356268 2.740904 0
M  V30 34 H -4.983215 -3.610524 1.401667 0
M  V30 35 H -6.047110 -2.206032 1.601252 0
M  V30 36 H -3.954634 0.285201 -1.741403 0
M  V30 37 H -1.128943 0.759038 -0.153621 0
M  V30 38 H 5.339456 5.465749 -1.043579 0
M  V30 39 H 3.890091 6.629580 0.659083 0
M  V30 40 H 1.760861 5.668115 1.346844 0
M  V30 41 H 2.628620 -2.091592 -3.405880 0
M  V30 42 H 1.377877 -1.643751 -4.341191 0
M  V30 43 H -0.999179 -1.436820 1.831688 0
M  V30 44 H -1.856061 -4.306467 1.644211 0
M  V30 45 H -1.505283 -3.438206 0.058362 0
M  V30 46 H 0.382444 -4.531168 0.788249 0
M  V30 47 H 1.249591 -2.951926 3.100717 0
M  V30 48 H 0.551661 -5.749534 2.754937 0
M  V30 49 H 1.658012 -5.058617 3.909119 0
M  V30 50 H -1.314219 -4.585048 3.585371 0
M  V30 51 H -0.176519 -3.983631 4.786556 0
M  V30 52 H -1.621115 -2.204571 4.929458 0
M  V30 53 H -0.591687 -1.656521 3.596287 0
M  V30 END ATOM
M  V30 BEGIN BOND
M  V30 1 1 1 2
M  V30 2 1 2 3
M  V30 3 2 3 4
M  V30 4 1 4 5
M  V30 5 1 5 6
M  V30 6 1 6 7
M  V30 7 2 7 8
M  V30 8 1 7 9
M  V30 9 1 9 10
M  V30 10 2 10 11
M  V30 11 1 11 12
M  V30 12 2 12 13
M  V30 13 1 13 14
M  V30 14 1 13 15
M  V30 15 2 15 16
M  V30 16 1 16 17
M  V30 17 2 17 18
M  V30 18 1 18 19
M  V30 19 1 11 20
M  V30 20 1 20 21
M  V30 21 1 21 22
M  V30 22 2 5 23
M  V30 23 1 23 24
M  V30 24 1 24 25
M  V30 25 1 25 26
M  V30 26 1 26 27
M  V30 27 1 26 28
M  V30 28 1 28 29
M  V30 29 1 28 30
M  V30 30 1 30 31
M  V30 31 1 31 32
M  V30 32 1 23 2
M  V30 33 1 32 24
M  V30 34 2 21 9
M  V30 35 1 18 12
M  V30 36 1 1 33
M  V30 37 1 1 34
M  V30 38 1 1 35
M  V30 39 1 4 36
M  V30 40 1 6 37
M  V30 41 1 15 38
M  V30 42 1 16 39
M  V30 43 1 17 40
M  V30 44 1 22 41
M  V30 45 1 22 42
M  V30 46 1 24 43 CFG=1
M  V30 47 1 25 44
M  V30 48 1 25 45
M  V30 49 1 26 46 CFG=3
M  V30 50 1 28 47 CFG=1
M  V30 51 1 29 48
M  V30 52 1 29 49
M  V30 53 1 30 50
M  V30 54 1 30 51
M  V30 55 1 31 52
M  V30 56 1 31 53
M  V30 END BOND
M  V30 END CTAB
M  END
>  <Dataset>  (225) 
ChEMBL_Kinases

>  <Ligand_Instance>  (225) 
nan

>  <PDB_ID>  (225) 
nan

>  <Standardized_SMILES>  (225) 
Cn1ncc(NC(=O)c2nc(-c3c(F)cccc3F)sc2N)c1[C@@H]1C[C@@H](F)[C@H](N)CCO1

>  <Name>  (225) 
nan

>  <Pocket>  (225) 
nan

>  <ATP_Site>  (225) 
nan

>  <Peripheral>  (225) 
nan

>  <Num_H_Atoms_ProtBoundConf>  (225) 
nan

>  <Num_Resolved_Atoms>  (225) 
nan

>  <Num_Not_Resolved_Atoms>  (225) 
nan

$$$$
CHEMBL3322573
     RDKit          3D

  0  0  0  0  0  0  0  0  0  0999 V3000
M  V30 BEGIN CTAB
M  V30 COUNTS 54 58 0 0 0
M  V30 BEGIN ATOM
M  V30 1 C 7.340396 -0.104764 4.274263 0
M  V30 2 O 6.276469 0.706071 4.700860 0
M  V30 3 C 5.445276 1.258930 3.738780 0
M  V30 4 C 4.396982 2.058641 4.154504 0
M  V30 5 C 3.576709 2.604836 3.210717 0
M  V30 6 C 3.701662 2.427207 1.848522 0
M  V30 7 N 2.778203 3.056088 0.968502 0
M  V30 8 C 2.929305 4.333862 0.591869 0
M  V30 9 C 2.001935 4.883271 -0.261799 0
M  V30 10 C 0.925897 4.151477 -0.735908 0
M  V30 11 C 0.781528 2.843576 -0.343251 0
M  V30 12 C -0.371572 2.174016 -0.894762 0
M  V30 13 O -1.185146 2.792927 -1.697189 0
M  V30 14 N -0.954516 0.958510 -0.840872 0
M  V30 15 C -1.657088 -0.249062 -0.873844 0
M  V30 16 C -1.332142 -1.231676 -1.816725 0
M  V30 17 C -2.064451 -2.401508 -1.872900 0
M  V30 18 C -3.084595 -2.484672 -0.954030 0
M  V30 19 C -3.482801 -1.585000 0.006139 0
M  V30 20 C -2.717103 -0.414843 0.031117 0
M  V30 21 N -4.590345 -2.028723 0.774459 0
M  V30 22 C -4.915179 -3.309952 0.257611 0
M  V30 23 O -5.858557 -3.984712 0.722936 0
M  V30 24 C -3.999462 -3.609936 -0.808426 0
M  V30 25 C -4.035815 -4.746749 -1.460763 0
M  V30 26 C -4.958506 -5.852066 -1.301628 0
M  V30 27 C -6.339020 -6.075300 -1.226758 0
M  V30 28 C -6.613749 -7.409236 -1.029500 0
M  V30 29 C -5.402250 -8.048172 -0.978190 0
M  V30 30 N -4.463486 -7.118001 -1.139495 0
M  V30 31 C 1.736651 2.353786 0.507277 0
M  V30 32 O 1.618301 1.163205 0.873449 0
M  V30 33 C 4.757125 1.623973 1.461595 0
M  V30 34 C 5.608065 1.053736 2.384720 0
M  V30 35 H 8.042882 0.584314 3.719548 0
M  V30 36 H 7.028384 -0.872463 3.522055 0
M  V30 37 H 7.866708 -0.538233 5.125489 0
M  V30 38 H 4.203564 2.267616 5.216870 0
M  V30 39 H 2.759996 3.228456 3.549805 0
M  V30 40 H 3.762767 4.918595 0.952465 0
M  V30 41 H 2.092373 5.910080 -0.586120 0
M  V30 42 H 0.235947 4.643786 -1.403410 0
M  V30 43 H -0.250380 0.482548 -0.156797 0
M  V30 44 H -0.510133 -1.080093 -2.501903 0
M  V30 45 H -1.836624 -3.158633 -2.579084 0
M  V30 46 H -2.929642 0.370966 0.741980 0
M  V30 47 H -5.033932 -1.486112 1.546107 0
M  V30 48 H -3.272035 -4.895966 -2.239814 0
M  V30 49 H -7.001038 -5.238684 -1.335480 0
M  V30 50 H -7.611216 -7.797358 -0.943087 0
M  V30 51 H -5.354415 -9.100218 -0.831311 0
M  V30 52 H -3.469329 -7.438494 -1.126188 0
M  V30 53 H 4.890607 1.458980 0.405558 0
M  V30 54 H 6.427753 0.427721 2.060733 0
M  V30 END ATOM
M  V30 BEGIN BOND
M  V30 1 1 1 2
M  V30 2 1 2 3
M  V30 3 2 3 4
M  V30 4 1 4 5
M  V30 5 2 5 6
M  V30 6 1 6 7
M  V30 7 1 7 8
M  V30 8 2 8 9
M  V30 9 1 9 10
M  V30 10 2 10 11
M  V30 11 1 11 12
M  V30 12 2 12 13
M  V30 13 1 12 14
M  V30 14 1 14 15
M  V30 15 2 15 16
M  V30 16 1 16 17
M  V30 17 2 17 18
M  V30 18 1 18 19
M  V30 19 2 19 20
M  V30 20 1 19 21
M  V30 21 1 21 22
M  V30 22 2 22 23
M  V30 23 1 22 24
M  V30 24 2 24 25
M  V30 25 1 25 26
M  V30 26 2 26 27
M  V30 27 1 27 28
M  V30 28 2 28 29
M  V30 29 1 29 30
M  V30 30 1 11 31
M  V30 31 2 31 32
M  V30 32 1 6 33
M  V30 33 2 33 34
M  V30 34 1 34 3
M  V30 35 1 31 7
M  V30 36 1 20 15
M  V30 37 1 30 26
M  V30 38 1 24 18
M  V30 39 1 1 35
M  V30 40 1 1 36
M  V30 41 1 1 37
M  V30 42 1 4 38
M  V30 43 1 5 39
M  V30 44 1 8 40
M  V30 45 1 9 41
M  V30 46 1 10 42
M  V30 47 1 14 43
M  V30 48 1 16 44
M  V30 49 1 17 45
M  V30 50 1 20 46
M  V30 51 1 21 47
M  V30 52 1 25 48
M  V30 53 1 27 49
M  V30 54 1 28 50
M  V30 55 1 29 51
M  V30 56 1 30 52
M  V30 57 1 33 53
M  V30 58 1 34 54
M  V30 END BOND
M  V30 END CTAB
M  END
>  <Dataset>  (226) 
ChEMBL_Kinases

>  <Ligand_Instance>  (226) 
nan

>  <PDB_ID>  (226) 
nan

>  <Standardized_SMILES>  (226) 
COc1ccc(-n2cccc(C(=O)Nc3ccc4c(c3)NC(=O)/C4=C\c3ccc[nH]3)c2=O)cc1

>  <Name>  (226) 
nan

>  <Pocket>  (226) 
nan

>  <ATP_Site>  (226) 
nan

>  <Peripheral>  (226) 
nan

>  <Num_H_Atoms_ProtBoundConf>  (226) 
nan

>  <Num_Resolved_Atoms>  (226) 
nan

>  <Num_Not_Resolved_Atoms>  (226) 
nan

$$$$
CHEMBL331920
     RDKit          3D

  0  0  0  0  0  0  0  0  0  0999 V3000
M  V30 BEGIN CTAB
M  V30 COUNTS 44 47 0 0 0
M  V30 BEGIN ATOM
M  V30 1 O -2.519166 -3.954777 2.469118 0
M  V30 2 C -1.966428 -2.862388 2.262041 0
M  V30 3 N -1.807947 -1.807725 3.185538 0
M  V30 4 C -1.174452 -0.548460 2.958451 0
M  V30 5 C -0.655749 -0.421346 1.573186 0
M  V30 6 C -0.011413 0.719836 1.156006 0
M  V30 7 C 0.509565 0.953639 -0.093588 0
M  V30 8 N 1.175879 2.128313 -0.504566 0
M  V30 9 C 1.545772 3.362361 0.144111 0
M  V30 10 C 2.560449 3.149302 1.177620 0
M  V30 11 C 3.829915 3.146804 0.581878 0
M  V30 12 C 4.996957 2.975209 1.333192 0
M  V30 13 C 4.934264 2.801757 2.694531 0
M  V30 14 C 3.687232 2.805141 3.274794 0
M  V30 15 C 2.533362 2.973814 2.541456 0
M  V30 16 C 0.357470 -0.072328 -0.998562 0
M  V30 17 C -0.275739 -1.242583 -0.653721 0
M  V30 18 C -0.773375 -1.407234 0.618547 0
M  V30 19 N -1.425498 -2.622852 0.959848 0
M  V30 20 C -1.543239 -3.639335 -0.034844 0
M  V30 21 C -2.730021 -3.475375 -0.754553 0
M  V30 22 Cl -3.922020 -2.215314 -0.498071 0
M  V30 23 C -3.044557 -4.369599 -1.783670 0
M  V30 24 C -2.160018 -5.406785 -2.065323 0
M  V30 25 C -0.994438 -5.549226 -1.341859 0
M  V30 26 C -0.694558 -4.661200 -0.328968 0
M  V30 27 Cl 0.742780 -4.724173 0.663985 0
M  V30 28 H -2.189494 -1.943932 4.146972 0
M  V30 29 H -1.886320 0.305399 3.112134 0
M  V30 30 H -0.323064 -0.447530 3.659718 0
M  V30 31 H 0.075306 1.495108 1.899421 0
M  V30 32 H 1.501149 2.152949 -1.521414 0
M  V30 33 H 1.799052 4.166969 -0.567203 0
M  V30 34 H 0.644325 3.796448 0.698305 0
M  V30 35 H 4.083551 3.268498 -0.474861 0
M  V30 36 H 5.996955 2.965542 0.923057 0
M  V30 37 H 5.756009 2.661581 3.370502 0
M  V30 38 H 3.467398 2.681031 4.333874 0
M  V30 39 H 1.528176 2.999346 2.919299 0
M  V30 40 H 0.727662 -0.003443 -2.016109 0
M  V30 41 H -0.381849 -2.033133 -1.384214 0
M  V30 42 H -3.960789 -4.286574 -2.378265 0
M  V30 43 H -2.346016 -6.134111 -2.851431 0
M  V30 44 H -0.269190 -6.350442 -1.528778 0
M  V30 END ATOM
M  V30 BEGIN BOND
M  V30 1 2 1 2
M  V30 2 1 2 3
M  V30 3 1 3 4
M  V30 4 1 4 5
M  V30 5 2 5 6
M  V30 6 1 6 7
M  V30 7 1 7 8
M  V30 8 1 8 9
M  V30 9 1 9 10
M  V30 10 2 10 11
M  V30 11 1 11 12
M  V30 12 2 12 13
M  V30 13 1 13 14
M  V30 14 2 14 15
M  V30 15 2 7 16
M  V30 16 1 16 17
M  V30 17 2 17 18
M  V30 18 1 18 19
M  V30 19 1 19 20
M  V30 20 2 20 21
M  V30 21 1 21 22
M  V30 22 1 21 23
M  V30 23 2 23 24
M  V30 24 1 24 25
M  V30 25 2 25 26
M  V30 26 1 26 27
M  V30 27 1 19 2
M  V30 28 1 26 20
M  V30 29 1 18 5
M  V30 30 1 15 10
M  V30 31 1 3 28
M  V30 32 1 4 29
M  V30 33 1 4 30
M  V30 34 1 6 31
M  V30 35 1 8 32
M  V30 36 1 9 33
M  V30 37 1 9 34
M  V30 38 1 11 35
M  V30 39 1 12 36
M  V30 40 1 13 37
M  V30 41 1 14 38
M  V30 42 1 15 39
M  V30 43 1 16 40
M  V30 44 1 17 41
M  V30 45 1 23 42
M  V30 46 1 24 43
M  V30 47 1 25 44
M  V30 END BOND
M  V30 END CTAB
M  END
>  <Dataset>  (227) 
ChEMBL_Kinases

>  <Ligand_Instance>  (227) 
nan

>  <PDB_ID>  (227) 
nan

>  <Standardized_SMILES>  (227) 
O=C1NCc2cc(NCc3ccccc3)ccc2N1c1c(Cl)cccc1Cl

>  <Name>  (227) 
nan

>  <Pocket>  (227) 
nan

>  <ATP_Site>  (227) 
nan

>  <Peripheral>  (227) 
nan

>  <Num_H_Atoms_ProtBoundConf>  (227) 
nan

>  <Num_Resolved_Atoms>  (227) 
nan

>  <Num_Not_Resolved_Atoms>  (227) 
nan

$$$$
CHEMBL3321770
     RDKit          3D

  0  0  0  0  0  0  0  0  0  0999 V3000
M  V30 BEGIN CTAB
M  V30 COUNTS 52 55 0 0 0
M  V30 BEGIN ATOM
M  V30 1 C 5.463543 -3.015557 3.398821 0
M  V30 2 O 5.173845 -1.924083 2.548449 0
M  V30 3 C 6.148041 -1.318250 1.763822 0
M  V30 4 O 7.329612 -1.721280 1.781886 0
M  V30 5 C 5.788402 -0.179947 0.892666 0
M  V30 6 C 6.824800 0.359534 0.147170 0
M  V30 7 C 6.564580 1.428423 -0.692640 0
M  V30 8 C 5.276653 1.937705 -0.772176 0
M  V30 9 C 4.293567 1.351846 -0.001788 0
M  V30 10 C 2.949714 1.919608 -0.116232 0
M  V30 11 C 1.771772 1.556298 0.518387 0
M  V30 12 N 0.777678 2.383818 0.086063 0
M  V30 13 C -0.514472 2.149572 0.641586 0
M  V30 14 C -1.002647 3.014131 1.599247 0
M  V30 15 C -2.246670 2.744439 2.099620 0
M  V30 16 C -2.941631 1.649779 1.638547 0
M  V30 17 O -4.195131 1.427760 2.181766 0
M  V30 18 C -2.486539 0.771366 0.688928 0
M  V30 19 C -3.160423 -0.397973 0.157344 0
M  V30 20 O -2.597843 -1.106076 -0.720329 0
M  V30 21 N -4.430154 -0.937501 0.460990 0
M  V30 22 C -4.877453 -2.112615 -0.204732 0
M  V30 23 C -5.583304 -2.207980 -1.369893 0
M  V30 24 C -5.954312 -3.414530 -1.906576 0
M  V30 25 C -5.605477 -4.591807 -1.250515 0
M  V30 26 C -4.891685 -4.530405 -0.069974 0
M  V30 27 C -4.529883 -5.795185 0.613691 0
M  V30 28 F -5.613097 -6.660631 0.637847 0
M  V30 29 F -4.184664 -5.503280 1.924822 0
M  V30 30 F -3.493900 -6.418420 -0.042321 0
M  V30 31 C -4.525279 -3.291007 0.456882 0
M  V30 32 C -1.233190 1.062103 0.199713 0
M  V30 33 N 1.320982 3.216939 -0.774649 0
M  V30 34 N 2.613984 2.966028 -0.916772 0
M  V30 35 C 4.495373 0.286404 0.851172 0
M  V30 36 H 5.782298 -2.746282 4.405014 0
M  V30 37 H 4.639129 -3.773690 3.394640 0
M  V30 38 H 6.343783 -3.532208 2.921793 0
M  V30 39 H 7.842447 -0.016007 0.187091 0
M  V30 40 H 7.343913 1.871661 -1.285260 0
M  V30 41 H 5.087301 2.774487 -1.433636 0
M  V30 42 H 1.802246 0.721886 1.222081 0
M  V30 43 H -0.390118 3.850118 1.904579 0
M  V30 44 H -2.679779 3.388554 2.852837 0
M  V30 45 H -4.865264 2.179774 2.279068 0
M  V30 46 H -4.992016 -0.433050 1.178391 0
M  V30 47 H -5.822217 -1.265627 -1.828049 0
M  V30 48 H -6.511094 -3.464679 -2.827332 0
M  V30 49 H -5.922010 -5.509656 -1.715671 0
M  V30 50 H -3.957957 -3.304808 1.399330 0
M  V30 51 H -0.772437 0.420699 -0.567199 0
M  V30 52 H 3.711326 -0.156944 1.445189 0
M  V30 END ATOM
M  V30 BEGIN BOND
M  V30 1 1 1 2
M  V30 2 1 2 3
M  V30 3 2 3 4
M  V30 4 1 3 5
M  V30 5 2 5 6
M  V30 6 1 6 7
M  V30 7 2 7 8
M  V30 8 1 8 9
M  V30 9 1 9 10
M  V30 10 2 10 11
M  V30 11 1 11 12
M  V30 12 1 12 13
M  V30 13 2 13 14
M  V30 14 1 14 15
M  V30 15 2 15 16
M  V30 16 1 16 17
M  V30 17 1 16 18
M  V30 18 1 18 19
M  V30 19 2 19 20
M  V30 20 1 19 21
M  V30 21 1 21 22
M  V30 22 2 22 23
M  V30 23 1 23 24
M  V30 24 2 24 25
M  V30 25 1 25 26
M  V30 26 1 26 27
M  V30 27 1 27 28
M  V30 28 1 27 29
M  V30 29 1 27 30
M  V30 30 2 26 31
M  V30 31 2 18 32
M  V30 32 1 12 33
M  V30 33 2 33 34
M  V30 34 2 9 35
M  V30 35 1 35 5
M  V30 36 1 34 10
M  V30 37 1 32 13
M  V30 38 1 31 22
M  V30 39 1 1 36
M  V30 40 1 1 37
M  V30 41 1 1 38
M  V30 42 1 6 39
M  V30 43 1 7 40
M  V30 44 1 8 41
M  V30 45 1 11 42
M  V30 46 1 14 43
M  V30 47 1 15 44
M  V30 48 1 17 45
M  V30 49 1 21 46
M  V30 50 1 23 47
M  V30 51 1 24 48
M  V30 52 1 25 49
M  V30 53 1 31 50
M  V30 54 1 32 51
M  V30 55 1 35 52
M  V30 END BOND
M  V30 END CTAB
M  END
>  <Dataset>  (228) 
ChEMBL_Kinases

>  <Ligand_Instance>  (228) 
nan

>  <PDB_ID>  (228) 
nan

>  <Standardized_SMILES>  (228) 
COC(=O)c1cccc(-c2cn(-c3ccc(O)c(C(=O)Nc4cccc(C(F)(F)F)c4)c3)nn2)c1

>  <Name>  (228) 
nan

>  <Pocket>  (228) 
nan

>  <ATP_Site>  (228) 
nan

>  <Peripheral>  (228) 
nan

>  <Num_H_Atoms_ProtBoundConf>  (228) 
nan

>  <Num_Resolved_Atoms>  (228) 
nan

>  <Num_Not_Resolved_Atoms>  (228) 
nan

$$$$
CHEMBL3321807
     RDKit          3D

  0  0  0  0  0  0  0  0  0  0999 V3000
M  V30 BEGIN CTAB
M  V30 COUNTS 37 40 0 0 0
M  V30 BEGIN ATOM
M  V30 1 N 0.092467 -4.637650 2.445988 0
M  V30 2 C 1.183880 -3.746784 2.291675 0
M  V30 3 O 2.252136 -4.121233 2.791026 0
M  V30 4 C 0.993355 -2.492836 1.583581 0
M  V30 5 C 1.949689 -1.521136 1.348910 0
M  V30 6 N 3.299554 -1.686802 1.816549 0
M  V30 7 N 1.363105 -0.510045 0.657572 0
M  V30 8 C 2.093169 0.659550 0.256219 0
M  V30 9 C 3.026041 0.771542 -0.759544 0
M  V30 10 C 3.610565 2.001125 -0.974884 0
M  V30 11 C 3.276599 3.094104 -0.200090 0
M  V30 12 C 2.342547 3.006912 0.825833 0
M  V30 13 O 2.019919 4.118847 1.595494 0
M  V30 14 C 1.749660 1.764439 1.045985 0
M  V30 15 C 0.069379 -0.804495 0.444910 0
M  V30 16 N -0.916590 -0.117151 -0.190855 0
M  V30 17 C -2.168253 -0.644343 -0.270598 0
M  V30 18 C -3.199084 0.022102 -0.907066 0
M  V30 19 C -4.466403 -0.534238 -0.975010 0
M  V30 20 C -4.603576 -1.768337 -0.372719 0
M  V30 21 C -3.626573 -2.490902 0.277953 0
M  V30 22 C -2.376248 -1.884869 0.315346 0
M  V30 23 N -1.405846 -2.588407 0.955446 0
M  V30 24 C -0.178444 -2.038205 1.016280 0
M  V30 25 H -0.792269 -5.106393 2.173368 0
M  V30 26 H -0.033194 -5.265515 3.288038 0
M  V30 27 H 3.912327 -2.347182 1.253726 0
M  V30 28 H 3.323760 -1.063132 2.654123 0
M  V30 29 H 3.203938 -0.159585 -1.299890 0
M  V30 30 H 4.333006 2.034365 -1.780063 0
M  V30 31 H 3.756585 4.043400 -0.399538 0
M  V30 32 H 2.263362 5.023747 1.215466 0
M  V30 33 H 1.038121 1.761468 1.850239 0
M  V30 34 H -3.030093 0.990595 -1.362516 0
M  V30 35 H -5.306489 -0.054726 -1.460714 0
M  V30 36 H -5.588605 -2.213148 -0.418807 0
M  V30 37 H -3.863852 -3.451507 0.711535 0
M  V30 END ATOM
M  V30 BEGIN BOND
M  V30 1 1 1 2
M  V30 2 2 2 3
M  V30 3 1 2 4
M  V30 4 2 4 5
M  V30 5 1 5 6
M  V30 6 1 5 7
M  V30 7 1 7 8
M  V30 8 2 8 9
M  V30 9 1 9 10
M  V30 10 2 10 11
M  V30 11 1 11 12
M  V30 12 1 12 13
M  V30 13 2 12 14
M  V30 14 1 7 15
M  V30 15 2 15 16
M  V30 16 1 16 17
M  V30 17 2 17 18
M  V30 18 1 18 19
M  V30 19 2 19 20
M  V30 20 1 20 21
M  V30 21 2 21 22
M  V30 22 1 22 23
M  V30 23 2 23 24
M  V30 24 1 24 4
M  V30 25 1 14 8
M  V30 26 1 24 15
M  V30 27 1 22 17
M  V30 28 1 1 25
M  V30 29 1 1 26
M  V30 30 1 6 27
M  V30 31 1 6 28
M  V30 32 1 9 29
M  V30 33 1 10 30
M  V30 34 1 11 31
M  V30 35 1 13 32
M  V30 36 1 14 33
M  V30 37 1 18 34
M  V30 38 1 19 35
M  V30 39 1 20 36
M  V30 40 1 21 37
M  V30 END BOND
M  V30 END CTAB
M  END
>  <Dataset>  (229) 
ChEMBL_Kinases

>  <Ligand_Instance>  (229) 
nan

>  <PDB_ID>  (229) 
nan

>  <Standardized_SMILES>  (229) 
NC(=O)c1c(N)n(-c2cccc(O)c2)c2nc3ccccc3nc12

>  <Name>  (229) 
nan

>  <Pocket>  (229) 
nan

>  <ATP_Site>  (229) 
nan

>  <Peripheral>  (229) 
nan

>  <Num_H_Atoms_ProtBoundConf>  (229) 
nan

>  <Num_Resolved_Atoms>  (229) 
nan

>  <Num_Not_Resolved_Atoms>  (229) 
nan

$$$$
CHEMBL3322564
     RDKit          3D

  0  0  0  0  0  0  0  0  0  0999 V3000
M  V30 BEGIN CTAB
M  V30 COUNTS 51 54 0 0 0
M  V30 BEGIN ATOM
M  V30 1 C -0.899058 -1.561882 -1.183130 0
M  V30 2 O 0.294415 -1.751714 -2.023896 0
M  V30 3 C 1.421615 -1.486637 -1.332165 0
M  V30 4 C 1.350258 -1.352285 0.100590 0
M  V30 5 C 2.504540 -0.891559 0.831192 0
M  V30 6 C 3.548075 -0.624306 0.106436 0
M  V30 7 N 4.440541 0.219945 0.915081 0
M  V30 8 C 3.766717 1.633577 0.752137 0
M  V30 9 O 2.839190 1.368826 -0.128721 0
M  V30 10 C 3.771256 2.998335 1.181152 0
M  V30 11 C 2.412402 3.269772 1.852953 0
M  V30 12 O 1.617740 3.869172 2.525526 0
M  V30 13 N 1.270185 2.476962 1.820876 0
M  V30 14 C 0.039551 1.833262 1.948445 0
M  V30 15 C 0.363660 0.802514 2.871049 0
M  V30 16 C -0.514289 -0.262399 3.165280 0
M  V30 17 C -1.673585 -0.147789 2.479633 0
M  V30 18 C -2.136196 0.698490 1.634065 0
M  V30 19 C -1.222798 1.769309 1.346105 0
M  V30 20 N -3.096409 0.640861 0.568743 0
M  V30 21 C -3.426228 -0.826888 0.734642 0
M  V30 22 O -4.245800 -1.431037 0.095294 0
M  V30 23 C -2.509830 -1.294105 1.913288 0
M  V30 24 C -2.532657 -2.668724 2.267091 0
M  V30 25 C -3.370187 -3.404514 1.362604 0
M  V30 26 C -4.181113 -4.100022 0.508631 0
M  V30 27 C -3.546037 -4.734315 -0.593047 0
M  V30 28 C -2.156987 -4.445467 -0.471748 0
M  V30 29 N -2.200289 -3.740967 0.606915 0
M  V30 30 C 3.620661 -0.768752 -1.173653 0
M  V30 31 C 2.642088 -1.220146 -2.082696 0
M  V30 32 H -1.857067 -1.852112 -1.620285 0
M  V30 33 H -0.644676 -1.511473 -0.169088 0
M  V30 34 H -0.903045 -0.297077 -1.346833 0
M  V30 35 H 0.576110 -1.691811 0.821248 0
M  V30 36 H 2.522545 -0.828213 1.940004 0
M  V30 37 H 5.159514 0.520091 1.546838 0
M  V30 38 H 4.227652 3.771269 0.620738 0
M  V30 39 H 4.440682 3.030843 2.131556 0
M  V30 40 H 1.424553 1.872321 0.924215 0
M  V30 41 H 1.333139 0.608172 3.440651 0
M  V30 42 H -0.469431 -1.114186 3.775750 0
M  V30 43 H -1.215321 2.691112 0.787104 0
M  V30 44 H -3.553481 1.273883 -0.077093 0
M  V30 45 H -1.978921 -2.870708 3.146710 0
M  V30 46 H -5.120086 -3.924056 1.046640 0
M  V30 47 H -4.264146 -5.274306 -1.272879 0
M  V30 48 H -1.559696 -4.851045 -1.349525 0
M  V30 49 H -1.109081 -3.578227 0.663866 0
M  V30 50 H 4.473837 -0.578682 -1.793645 0
M  V30 51 H 2.573192 -1.390020 -3.089986 0
M  V30 END ATOM
M  V30 BEGIN BOND
M  V30 1 1 1 2
M  V30 2 1 2 3
M  V30 3 2 3 4
M  V30 4 1 4 5
M  V30 5 2 5 6
M  V30 6 1 6 7
M  V30 7 1 7 8
M  V30 8 2 8 9
M  V30 9 1 8 10
M  V30 10 1 10 11
M  V30 11 2 11 12
M  V30 12 1 11 13
M  V30 13 1 13 14
M  V30 14 2 14 15
M  V30 15 1 15 16
M  V30 16 2 16 17
M  V30 17 1 17 18
M  V30 18 2 18 19
M  V30 19 1 18 20
M  V30 20 1 20 21
M  V30 21 2 21 22
M  V30 22 1 21 23
M  V30 23 2 23 24
M  V30 24 1 24 25
M  V30 25 2 25 26
M  V30 26 1 26 27
M  V30 27 2 27 28
M  V30 28 1 28 29
M  V30 29 1 6 30
M  V30 30 2 30 31
M  V30 31 1 31 3
M  V30 32 1 19 14
M  V30 33 1 29 25
M  V30 34 1 23 17
M  V30 35 1 1 32
M  V30 36 1 1 33
M  V30 37 1 1 34
M  V30 38 1 4 35
M  V30 39 1 5 36
M  V30 40 1 7 37
M  V30 41 1 10 38
M  V30 42 1 10 39
M  V30 43 1 13 40
M  V30 44 1 15 41
M  V30 45 1 16 42
M  V30 46 1 19 43
M  V30 47 1 20 44
M  V30 48 1 24 45
M  V30 49 1 26 46
M  V30 50 1 27 47
M  V30 51 1 28 48
M  V30 52 1 29 49
M  V30 53 1 30 50
M  V30 54 1 31 51
M  V30 END BOND
M  V30 END CTAB
M  END
>  <Dataset>  (230) 
ChEMBL_Kinases

>  <Ligand_Instance>  (230) 
nan

>  <PDB_ID>  (230) 
nan

>  <Standardized_SMILES>  (230) 
COc1ccc(NC(=O)CC(=O)Nc2ccc3c(c2)NC(=O)/C3=C\c2ccc[nH]2)cc1

>  <Name>  (230) 
nan

>  <Pocket>  (230) 
nan

>  <ATP_Site>  (230) 
nan

>  <Peripheral>  (230) 
nan

>  <Num_H_Atoms_ProtBoundConf>  (230) 
nan

>  <Num_Resolved_Atoms>  (230) 
nan

>  <Num_Not_Resolved_Atoms>  (230) 
nan

$$$$
CHEMBL3322566
     RDKit          3D

  0  0  0  0  0  0  0  0  0  0999 V3000
M  V30 BEGIN CTAB
M  V30 COUNTS 79 83 0 0 0
M  V30 BEGIN ATOM
M  V30 1 C 6.841902 -2.522583 -0.799343 0
M  V30 2 O 7.100383 -1.945658 -2.060794 0
M  V30 3 C 6.312136 -2.347774 -3.135073 0
M  V30 4 C 6.665688 -1.701922 -4.325798 0
M  V30 5 C 5.965783 -2.001414 -5.473315 0
M  V30 6 C 4.963674 -2.918041 -5.372007 0
M  V30 7 N 4.122624 -3.349087 -6.449801 0
M  V30 8 C 3.031881 -2.412034 -6.379990 0
M  V30 9 O 3.048084 -1.504147 -5.477441 0
M  V30 10 C 1.756816 -2.184920 -7.149750 0
M  V30 11 C 0.607899 -2.290078 -6.202855 0
M  V30 12 O 0.796968 -1.376182 -5.329916 0
M  V30 13 N -0.538270 -3.145276 -6.116121 0
M  V30 14 C -1.217793 -2.690885 -4.957991 0
M  V30 15 C -0.780290 -3.356929 -3.806934 0
M  V30 16 C -1.319801 -3.048438 -2.557105 0
M  V30 17 C -2.291320 -2.056124 -2.580863 0
M  V30 18 C -2.751255 -1.377405 -3.682757 0
M  V30 19 C -2.186968 -1.720428 -4.882426 0
M  V30 20 N -3.739872 -0.432115 -3.304322 0
M  V30 21 C -3.894022 -0.533344 -1.905361 0
M  V30 22 O -4.700588 0.185329 -1.306434 0
M  V30 23 C -2.993296 -1.554495 -1.392287 0
M  V30 24 C -2.925696 -1.833925 -0.105547 0
M  V30 25 C -3.678513 -1.273982 1.000120 0
M  V30 26 N -4.920189 -0.985051 1.335650 0
M  V30 27 C -5.046853 -0.411381 2.553942 0
M  V30 28 C -6.360248 -0.007832 3.121048 0
M  V30 29 C -3.763805 -0.311086 3.077536 0
M  V30 30 C -3.577233 0.265169 4.399488 0
M  V30 31 O -4.580462 0.554292 5.121589 0
M  V30 32 N -2.385062 0.580486 5.061290 0
M  V30 33 C -2.449771 1.141998 6.379874 0
M  V30 34 C -1.037670 1.411943 6.910904 0
M  V30 35 N -0.315839 2.332294 6.079005 0
M  V30 36 C 1.017882 2.645283 6.538703 0
M  V30 37 C 1.346852 4.014494 5.989557 0
M  V30 38 C 0.034399 4.664555 5.718560 0
M  V30 39 C -0.994510 3.557359 5.837154 0
M  V30 40 C -2.932609 -0.844852 2.113758 0
M  V30 41 C -1.451775 -0.919514 2.346960 0
M  V30 42 C 4.610458 -3.560334 -4.201589 0
M  V30 43 C 5.298253 -3.277349 -3.028184 0
M  V30 44 H 7.337100 -1.861602 -0.032755 0
M  V30 45 H 5.730911 -2.480350 -0.607982 0
M  V30 46 H 7.172210 -3.572423 -0.701827 0
M  V30 47 H 7.451187 -0.983238 -4.400835 0
M  V30 48 H 6.163510 -1.561001 -6.423856 0
M  V30 49 H 3.906683 -3.983902 -7.242051 0
M  V30 50 H 1.804880 -1.168400 -7.584139 0
M  V30 51 H 1.712271 -2.891836 -7.980963 0
M  V30 52 H -0.507456 -3.811660 -6.912744 0
M  V30 53 H -0.007230 -4.145091 -3.802876 0
M  V30 54 H -0.997910 -3.542733 -1.679561 0
M  V30 55 H -2.460393 -1.263193 -5.822154 0
M  V30 56 H -4.227791 0.194046 -3.979781 0
M  V30 57 H -2.165839 -2.616796 0.078111 0
M  V30 58 H -5.707019 -1.210708 0.694787 0
M  V30 59 H -6.763599 -0.734805 3.848138 0
M  V30 60 H -7.113099 0.051822 2.285483 0
M  V30 61 H -6.308108 0.991912 3.623600 0
M  V30 62 H -1.490222 0.397639 4.558535 0
M  V30 63 H -3.009455 2.073177 6.482183 0
M  V30 64 H -2.901403 0.421543 7.102607 0
M  V30 65 H -0.531046 0.428747 6.986613 0
M  V30 66 H -1.162809 1.827562 7.934786 0
M  V30 67 H 1.139160 2.606549 7.635248 0
M  V30 68 H 1.704422 1.919909 6.058030 0
M  V30 69 H 1.919539 3.932957 5.035004 0
M  V30 70 H 2.022158 4.599612 6.674232 0
M  V30 71 H 0.007371 5.152939 4.728945 0
M  V30 72 H -0.188422 5.495912 6.447512 0
M  V30 73 H -1.760298 3.846675 6.571145 0
M  V30 74 H -1.501027 3.453015 4.838767 0
M  V30 75 H -0.955072 0.065741 2.283688 0
M  V30 76 H -1.207803 -1.515243 3.246069 0
M  V30 77 H -0.981750 -1.524922 1.511044 0
M  V30 78 H 3.822363 -4.294368 -4.078800 0
M  V30 79 H 5.086469 -3.732386 -2.071534 0
M  V30 END ATOM
M  V30 BEGIN BOND
M  V30 1 1 1 2
M  V30 2 1 2 3
M  V30 3 2 3 4
M  V30 4 1 4 5
M  V30 5 2 5 6
M  V30 6 1 6 7
M  V30 7 1 7 8
M  V30 8 2 8 9
M  V30 9 1 8 10
M  V30 10 1 10 11
M  V30 11 2 11 12
M  V30 12 1 11 13
M  V30 13 1 13 14
M  V30 14 2 14 15
M  V30 15 1 15 16
M  V30 16 2 16 17
M  V30 17 1 17 18
M  V30 18 2 18 19
M  V30 19 1 18 20
M  V30 20 1 20 21
M  V30 21 2 21 22
M  V30 22 1 21 23
M  V30 23 2 23 24
M  V30 24 1 24 25
M  V30 25 1 25 26
M  V30 26 1 26 27
M  V30 27 1 27 28
M  V30 28 2 27 29
M  V30 29 1 29 30
M  V30 30 2 30 31
M  V30 31 1 30 32
M  V30 32 1 32 33
M  V30 33 1 33 34
M  V30 34 1 34 35
M  V30 35 1 35 36
M  V30 36 1 36 37
M  V30 37 1 37 38
M  V30 38 1 38 39
M  V30 39 1 29 40
M  V30 40 1 40 41
M  V30 41 1 6 42
M  V30 42 2 42 43
M  V30 43 1 43 3
M  V30 44 1 19 14
M  V30 45 2 40 25
M  V30 46 1 23 17
M  V30 47 1 39 35
M  V30 48 1 1 44
M  V30 49 1 1 45
M  V30 50 1 1 46
M  V30 51 1 4 47
M  V30 52 1 5 48
M  V30 53 1 7 49
M  V30 54 1 10 50
M  V30 55 1 10 51
M  V30 56 1 13 52
M  V30 57 1 15 53
M  V30 58 1 16 54
M  V30 59 1 19 55
M  V30 60 1 20 56
M  V30 61 1 24 57
M  V30 62 1 26 58
M  V30 63 1 28 59
M  V30 64 1 28 60
M  V30 65 1 28 61
M  V30 66 1 32 62
M  V30 67 1 33 63
M  V30 68 1 33 64
M  V30 69 1 34 65
M  V30 70 1 34 66
M  V30 71 1 36 67
M  V30 72 1 36 68
M  V30 73 1 37 69
M  V30 74 1 37 70
M  V30 75 1 38 71
M  V30 76 1 38 72
M  V30 77 1 39 73
M  V30 78 1 39 74
M  V30 79 1 41 75
M  V30 80 1 41 76
M  V30 81 1 41 77
M  V30 82 1 42 78
M  V30 83 1 43 79
M  V30 END BOND
M  V30 END CTAB
M  END
>  <Dataset>  (231) 
ChEMBL_Kinases

>  <Ligand_Instance>  (231) 
nan

>  <PDB_ID>  (231) 
nan

>  <Standardized_SMILES>  (231) 
COc1ccc(NC(=O)CC(=O)Nc2ccc3c(c2)NC(=O)/C3=C\c2[nH]c(C)c(C(=O)NCCN3CCCC3)c2C)cc1

>  <Name>  (231) 
nan

>  <Pocket>  (231) 
nan

>  <ATP_Site>  (231) 
nan

>  <Peripheral>  (231) 
nan

>  <Num_H_Atoms_ProtBoundConf>  (231) 
nan

>  <Num_Resolved_Atoms>  (231) 
nan

>  <Num_Not_Resolved_Atoms>  (231) 
nan

$$$$
CHEMBL3322567
     RDKit          3D

  0  0  0  0  0  0  0  0  0  0999 V3000
M  V30 BEGIN CTAB
M  V30 COUNTS 51 55 0 0 0
M  V30 BEGIN ATOM
M  V30 1 O -3.518995 -4.844307 1.490248 0
M  V30 2 C -2.404969 -4.298499 1.360507 0
M  V30 3 N -1.861837 -3.316838 2.231216 0
M  V30 4 C -0.578964 -2.953171 1.730855 0
M  V30 5 C 0.390067 -2.063855 2.153522 0
M  V30 6 C 1.598135 -1.874750 1.480669 0
M  V30 7 N 2.504463 -0.898707 2.052244 0
M  V30 8 C 2.144423 0.335297 1.432569 0
M  V30 9 O 1.190862 0.059200 0.647978 0
M  V30 10 C 2.824886 1.620724 1.729298 0
M  V30 11 C 2.204574 2.906997 1.340495 0
M  V30 12 O 2.872214 3.952661 1.652998 0
M  V30 13 N 0.966166 3.077713 0.668665 0
M  V30 14 C 0.572774 4.421642 0.396998 0
M  V30 15 C -0.172640 4.990778 1.407970 0
M  V30 16 C -0.654181 6.295021 1.326832 0
M  V30 17 C -0.349215 7.003441 0.175710 0
M  V30 18 F -0.809686 8.273890 0.076354 0
M  V30 19 C 0.394461 6.464521 -0.854592 0
M  V30 20 C 0.847981 5.176816 -0.732748 0
M  V30 21 C 4.315627 1.539215 1.875219 0
M  V30 22 C 3.503554 1.658631 3.112619 0
M  V30 23 C 1.856011 -2.604037 0.333058 0
M  V30 24 C 0.894689 -3.495598 -0.098765 0
M  V30 25 C -0.298866 -3.667709 0.584310 0
M  V30 26 C -1.442634 -4.532910 0.323411 0
M  V30 27 C -1.606811 -5.396276 -0.663758 0
M  V30 28 C -2.738206 -6.275428 -0.924214 0
M  V30 29 C -3.564839 -7.174066 -0.283862 0
M  V30 30 C -4.514452 -7.658906 -1.159285 0
M  V30 31 C -4.276696 -7.053048 -2.367202 0
M  V30 32 N -3.232344 -6.250334 -2.198500 0
M  V30 33 H -2.348679 -2.952476 3.077845 0
M  V30 34 H 0.173832 -1.494453 3.061777 0
M  V30 35 H 3.296667 -0.941854 2.763675 0
M  V30 36 H 0.421529 2.226503 0.414606 0
M  V30 37 H -0.438360 4.478371 2.333646 0
M  V30 38 H -1.241133 6.782064 2.094709 0
M  V30 39 H 0.629754 7.015738 -1.750337 0
M  V30 40 H 1.438245 4.649764 -1.474938 0
M  V30 41 H 4.807197 0.569738 1.649632 0
M  V30 42 H 4.944345 2.404823 1.589256 0
M  V30 43 H 3.357404 0.804962 3.802088 0
M  V30 44 H 3.474312 2.624749 3.676494 0
M  V30 45 H 2.803120 -2.435339 -0.164699 0
M  V30 46 H 1.081763 -4.077144 -0.999262 0
M  V30 47 H -0.746653 -5.424707 -1.356745 0
M  V30 48 H -3.374646 -7.386779 0.751539 0
M  V30 49 H -5.231137 -8.382270 -0.767532 0
M  V30 50 H -4.913128 -7.291751 -3.206136 0
M  V30 51 H -2.942282 -5.714755 -3.071773 0
M  V30 END ATOM
M  V30 BEGIN BOND
M  V30 1 2 1 2
M  V30 2 1 2 3
M  V30 3 1 3 4
M  V30 4 2 4 5
M  V30 5 1 5 6
M  V30 6 1 6 7
M  V30 7 1 7 8
M  V30 8 2 8 9
M  V30 9 1 8 10
M  V30 10 1 10 11
M  V30 11 2 11 12
M  V30 12 1 11 13
M  V30 13 1 13 14
M  V30 14 2 14 15
M  V30 15 1 15 16
M  V30 16 2 16 17
M  V30 17 1 17 18
M  V30 18 1 17 19
M  V30 19 2 19 20
M  V30 20 1 10 21
M  V30 21 1 21 22
M  V30 22 2 6 23
M  V30 23 1 23 24
M  V30 24 2 24 25
M  V30 25 1 25 26
M  V30 26 2 26 27
M  V30 27 1 27 28
M  V30 28 2 28 29
M  V30 29 1 29 30
M  V30 30 2 30 31
M  V30 31 1 31 32
M  V30 32 1 26 2
M  V30 33 1 32 28
M  V30 34 1 25 4
M  V30 35 1 22 10
M  V30 36 1 20 14
M  V30 37 1 3 33
M  V30 38 1 5 34
M  V30 39 1 7 35
M  V30 40 1 13 36
M  V30 41 1 15 37
M  V30 42 1 16 38
M  V30 43 1 19 39
M  V30 44 1 20 40
M  V30 45 1 21 41
M  V30 46 1 21 42
M  V30 47 1 22 43
M  V30 48 1 22 44
M  V30 49 1 23 45
M  V30 50 1 24 46
M  V30 51 1 27 47
M  V30 52 1 29 48
M  V30 53 1 30 49
M  V30 54 1 31 50
M  V30 55 1 32 51
M  V30 END BOND
M  V30 END CTAB
M  END
>  <Dataset>  (232) 
ChEMBL_Kinases

>  <Ligand_Instance>  (232) 
nan

>  <PDB_ID>  (232) 
nan

>  <Standardized_SMILES>  (232) 
O=C1Nc2cc(NC(=O)C3(C(=O)Nc4ccc(F)cc4)CC3)ccc2/C1=C/c1ccc[nH]1

>  <Name>  (232) 
nan

>  <Pocket>  (232) 
nan

>  <ATP_Site>  (232) 
nan

>  <Peripheral>  (232) 
nan

>  <Num_H_Atoms_ProtBoundConf>  (232) 
nan

>  <Num_Resolved_Atoms>  (232) 
nan

>  <Num_Not_Resolved_Atoms>  (232) 
nan

$$$$
CHEMBL3322568
     RDKit          3D

  0  0  0  0  0  0  0  0  0  0999 V3000
M  V30 BEGIN CTAB
M  V30 COUNTS 55 59 0 0 0
M  V30 BEGIN ATOM
M  V30 1 C 5.037448 -3.444348 2.576918 0
M  V30 2 O 4.279676 -3.395312 1.390022 0
M  V30 3 C 3.899070 -2.194547 0.844346 0
M  V30 4 C 4.270202 -1.021699 1.456486 0
M  V30 5 C 3.884245 0.175775 0.923272 0
M  V30 6 C 3.140393 0.136961 -0.198460 0
M  V30 7 N 2.534832 1.154058 -1.026490 0
M  V30 8 C 2.229389 2.135899 -2.032298 0
M  V30 9 O 3.298734 2.072779 -2.714930 0
M  V30 10 C 0.866121 2.769034 -1.886197 0
M  V30 11 C 0.149238 2.672692 -0.597154 0
M  V30 12 O -0.702630 1.713366 -0.856517 0
M  V30 13 N -0.176762 2.994513 0.786757 0
M  V30 14 C -1.152680 1.988412 1.005032 0
M  V30 15 C -0.369962 0.985908 1.615298 0
M  V30 16 C -0.890064 -0.278071 1.958022 0
M  V30 17 C -2.226900 -0.381388 1.623576 0
M  V30 18 C -2.990324 0.602721 1.030355 0
M  V30 19 C -2.456592 1.820047 0.707199 0
M  V30 20 N -4.289812 0.087683 0.797154 0
M  V30 21 C -4.322363 -1.254852 1.257124 0
M  V30 22 O -5.266569 -2.101384 1.253302 0
M  V30 23 C -3.016706 -1.619925 1.805239 0
M  V30 24 C -2.653328 -2.757216 2.366783 0
M  V30 25 C -3.480048 -3.915976 2.488340 0
M  V30 26 C -3.455489 -4.225136 1.057379 0
M  V30 27 C -4.116906 -5.319999 0.497899 0
M  V30 28 C -4.679565 -5.847478 1.655082 0
M  V30 29 N -4.253455 -5.000614 2.599614 0
M  V30 30 C -0.040103 2.752380 -3.142244 0
M  V30 31 C 0.702336 3.960072 -2.797110 0
M  V30 32 C 2.763392 -1.092001 -0.821266 0
M  V30 33 C 3.150843 -2.338837 -0.292557 0
M  V30 34 H 4.914471 -4.428685 3.073684 0
M  V30 35 H 6.105652 -3.219519 2.364400 0
M  V30 36 H 4.691932 -2.658753 3.292305 0
M  V30 37 H 4.859788 -0.913854 2.347201 0
M  V30 38 H 4.056127 1.193167 1.204947 0
M  V30 39 H 1.730471 1.135942 -0.308565 0
M  V30 40 H 0.471610 3.755856 0.828012 0
M  V30 41 H 0.711276 0.994562 1.919105 0
M  V30 42 H -0.328743 -1.073683 2.419718 0
M  V30 43 H -2.911571 2.643367 0.276987 0
M  V30 44 H -5.083899 0.599907 0.380776 0
M  V30 45 H -1.656480 -2.851042 2.776837 0
M  V30 46 H -3.005166 -3.844041 0.049257 0
M  V30 47 H -4.381976 -5.928248 -0.352156 0
M  V30 48 H -5.292345 -6.625330 2.124421 0
M  V30 49 H -4.367756 -4.922546 3.685232 0
M  V30 50 H 0.205792 2.021812 -3.916047 0
M  V30 51 H -1.146300 2.731520 -2.929190 0
M  V30 52 H 1.520655 4.229277 -3.501982 0
M  V30 53 H 0.148809 4.856429 -2.474211 0
M  V30 54 H 2.167415 -1.207848 -1.744002 0
M  V30 55 H 2.869660 -3.262744 -0.739460 0
M  V30 END ATOM
M  V30 BEGIN BOND
M  V30 1 1 1 2
M  V30 2 1 2 3
M  V30 3 2 3 4
M  V30 4 1 4 5
M  V30 5 2 5 6
M  V30 6 1 6 7
M  V30 7 1 7 8
M  V30 8 2 8 9
M  V30 9 1 8 10
M  V30 10 1 10 11
M  V30 11 2 11 12
M  V30 12 1 11 13
M  V30 13 1 13 14
M  V30 14 2 14 15
M  V30 15 1 15 16
M  V30 16 2 16 17
M  V30 17 1 17 18
M  V30 18 2 18 19
M  V30 19 1 18 20
M  V30 20 1 20 21
M  V30 21 2 21 22
M  V30 22 1 21 23
M  V30 23 2 23 24
M  V30 24 1 24 25
M  V30 25 2 25 26
M  V30 26 1 26 27
M  V30 27 2 27 28
M  V30 28 1 28 29
M  V30 29 1 10 30
M  V30 30 1 30 31
M  V30 31 1 6 32
M  V30 32 2 32 33
M  V30 33 1 33 3
M  V30 34 1 31 10
M  V30 35 1 19 14
M  V30 36 1 29 25
M  V30 37 1 23 17
M  V30 38 1 1 34
M  V30 39 1 1 35
M  V30 40 1 1 36
M  V30 41 1 4 37
M  V30 42 1 5 38
M  V30 43 1 7 39
M  V30 44 1 13 40
M  V30 45 1 15 41
M  V30 46 1 16 42
M  V30 47 1 19 43
M  V30 48 1 20 44
M  V30 49 1 24 45
M  V30 50 1 26 46
M  V30 51 1 27 47
M  V30 52 1 28 48
M  V30 53 1 29 49
M  V30 54 1 30 50
M  V30 55 1 30 51
M  V30 56 1 31 52
M  V30 57 1 31 53
M  V30 58 1 32 54
M  V30 59 1 33 55
M  V30 END BOND
M  V30 END CTAB
M  END
>  <Dataset>  (233) 
ChEMBL_Kinases

>  <Ligand_Instance>  (233) 
nan

>  <PDB_ID>  (233) 
nan

>  <Standardized_SMILES>  (233) 
COc1ccc(NC(=O)C2(C(=O)Nc3ccc4c(c3)NC(=O)/C4=C\c3ccc[nH]3)CC2)cc1

>  <Name>  (233) 
nan

>  <Pocket>  (233) 
nan

>  <ATP_Site>  (233) 
nan

>  <Peripheral>  (233) 
nan

>  <Num_H_Atoms_ProtBoundConf>  (233) 
nan

>  <Num_Resolved_Atoms>  (233) 
nan

>  <Num_Not_Resolved_Atoms>  (233) 
nan

$$$$
CHEMBL3322572
     RDKit          3D

  0  0  0  0  0  0  0  0  0  0999 V3000
M  V30 BEGIN CTAB
M  V30 COUNTS 50 54 0 0 0
M  V30 BEGIN ATOM
M  V30 1 O -1.622548 -6.631973 1.410257 0
M  V30 2 C -1.035887 -5.545022 1.212170 0
M  V30 3 N -1.172097 -4.385063 2.011065 0
M  V30 4 C -0.330981 -3.402202 1.422783 0
M  V30 5 C -0.055424 -2.077655 1.755616 0
M  V30 6 C 0.817681 -1.311016 1.009119 0
M  V30 7 N 1.084067 0.014389 1.378975 0
M  V30 8 C 1.767188 1.028490 2.043912 0
M  V30 9 O 2.698660 0.429454 2.704028 0
M  V30 10 C 1.515442 2.466383 2.024745 0
M  V30 11 C 2.464229 3.099259 2.844157 0
M  V30 12 C 2.439480 4.472276 2.991013 0
M  V30 13 C 1.485916 5.214825 2.334896 0
M  V30 14 N 0.600400 4.569292 1.563364 0
M  V30 15 C -0.388766 5.326390 0.877095 0
M  V30 16 C -1.738518 5.030937 0.747886 0
M  V30 17 C -2.570554 5.893984 0.041155 0
M  V30 18 C -2.055667 7.046767 -0.534039 0
M  V30 19 F -2.913750 7.853518 -1.212370 0
M  V30 20 C -0.708812 7.346606 -0.408800 0
M  V30 21 C 0.110011 6.490376 0.291963 0
M  V30 22 C 0.585070 3.267847 1.393982 0
M  V30 23 O -0.187319 2.582462 0.707805 0
M  V30 24 C 1.446417 -1.835679 -0.099160 0
M  V30 25 C 1.216444 -3.165017 -0.497997 0
M  V30 26 C 0.335227 -3.849076 0.305334 0
M  V30 27 C -0.106319 -5.243887 0.146278 0
M  V30 28 C 0.233503 -6.087042 -0.783893 0
M  V30 29 C -0.199809 -7.457162 -0.990448 0
M  V30 30 C 0.659001 -8.511501 -1.211141 0
M  V30 31 C -0.023523 -9.720753 -1.414386 0
M  V30 32 C -1.349092 -9.348441 -1.307066 0
M  V30 33 N -1.427355 -8.037996 -1.063248 0
M  V30 34 H -1.769830 -4.285837 2.850986 0
M  V30 35 H -0.528359 -1.618043 2.619502 0
M  V30 36 H 0.271856 0.378916 0.778550 0
M  V30 37 H 3.272363 2.641527 3.419357 0
M  V30 38 H 3.134870 5.013568 3.599579 0
M  V30 39 H 1.408611 6.277280 2.403937 0
M  V30 40 H -2.055731 4.131402 1.217749 0
M  V30 41 H -3.605376 5.676096 -0.062855 0
M  V30 42 H -0.382726 8.277300 -0.893119 0
M  V30 43 H 1.154643 6.777166 0.356808 0
M  V30 44 H 2.127544 -1.249212 -0.690561 0
M  V30 45 H 1.681094 -3.630450 -1.355160 0
M  V30 46 H 0.949106 -5.761853 -1.551219 0
M  V30 47 H 1.743917 -8.481968 -1.237085 0
M  V30 48 H 0.423045 -10.694286 -1.606686 0
M  V30 49 H -2.156529 -10.068524 -1.416233 0
M  V30 50 H -2.339291 -7.548287 -0.959334 0
M  V30 END ATOM
M  V30 BEGIN BOND
M  V30 1 2 1 2
M  V30 2 1 2 3
M  V30 3 1 3 4
M  V30 4 2 4 5
M  V30 5 1 5 6
M  V30 6 1 6 7
M  V30 7 1 7 8
M  V30 8 2 8 9
M  V30 9 1 8 10
M  V30 10 2 10 11
M  V30 11 1 11 12
M  V30 12 2 12 13
M  V30 13 1 13 14
M  V30 14 1 14 15
M  V30 15 2 15 16
M  V30 16 1 16 17
M  V30 17 2 17 18
M  V30 18 1 18 19
M  V30 19 1 18 20
M  V30 20 2 20 21
M  V30 21 1 14 22
M  V30 22 2 22 23
M  V30 23 2 6 24
M  V30 24 1 24 25
M  V30 25 2 25 26
M  V30 26 1 26 27
M  V30 27 2 27 28
M  V30 28 1 28 29
M  V30 29 2 29 30
M  V30 30 1 30 31
M  V30 31 2 31 32
M  V30 32 1 32 33
M  V30 33 1 27 2
M  V30 34 1 33 29
M  V30 35 1 26 4
M  V30 36 1 22 10
M  V30 37 1 21 15
M  V30 38 1 3 34
M  V30 39 1 5 35
M  V30 40 1 7 36
M  V30 41 1 11 37
M  V30 42 1 12 38
M  V30 43 1 13 39
M  V30 44 1 16 40
M  V30 45 1 17 41
M  V30 46 1 20 42
M  V30 47 1 21 43
M  V30 48 1 24 44
M  V30 49 1 25 45
M  V30 50 1 28 46
M  V30 51 1 30 47
M  V30 52 1 31 48
M  V30 53 1 32 49
M  V30 54 1 33 50
M  V30 END BOND
M  V30 END CTAB
M  END
>  <Dataset>  (234) 
ChEMBL_Kinases

>  <Ligand_Instance>  (234) 
nan

>  <PDB_ID>  (234) 
nan

>  <Standardized_SMILES>  (234) 
O=C1Nc2cc(NC(=O)c3cccn(-c4ccc(F)cc4)c3=O)ccc2/C1=C/c1ccc[nH]1

>  <Name>  (234) 
nan

>  <Pocket>  (234) 
nan

>  <ATP_Site>  (234) 
nan

>  <Peripheral>  (234) 
nan

>  <Num_H_Atoms_ProtBoundConf>  (234) 
nan

>  <Num_Resolved_Atoms>  (234) 
nan

>  <Num_Not_Resolved_Atoms>  (234) 
nan

$$$$
CHEMBL3318856
     RDKit          3D

  0  0  0  0  0  0  0  0  0  0999 V3000
M  V30 BEGIN CTAB
M  V30 COUNTS 62 66 0 0 0
M  V30 BEGIN ATOM
M  V30 1 C 2.907236 -6.587148 2.515476 0
M  V30 2 N 2.746402 -5.161808 2.731985 0
M  V30 3 N 3.104810 -4.573330 3.883316 0
M  V30 4 C 2.814680 -3.250155 3.732210 0
M  V30 5 C 2.271839 -3.017874 2.475892 0
M  V30 6 N 1.834811 -1.792334 1.919676 0
M  V30 7 C 2.647974 -0.893169 1.175266 0
M  V30 8 O 3.813466 -1.291479 1.052431 0
M  V30 9 C 2.170761 0.367589 0.611269 0
M  V30 10 C 3.035536 1.208854 -0.117248 0
M  V30 11 S 1.824999 2.597880 -0.534444 0
M  V30 12 C 0.501619 1.833475 0.287592 0
M  V30 13 C -0.874085 2.437688 0.358822 0
M  V30 14 C -1.068305 3.649998 -0.262585 0
M  V30 15 F -0.127130 4.330327 -0.924096 0
M  V30 16 C -2.368490 4.122445 -0.140093 0
M  V30 17 C -3.381581 3.464821 0.530118 0
M  V30 18 C -4.754613 3.996292 0.641007 0 CFG=1
M  V30 19 C -5.424278 3.408731 1.867384 0
M  V30 20 C -6.634885 4.339348 1.960720 0
M  V30 21 C -6.137418 5.561887 1.234031 0
M  V30 22 O -4.780308 5.349003 0.964971 0
M  V30 23 C -3.100801 2.250901 1.126653 0
M  V30 24 C -1.829274 1.720163 1.045318 0
M  V30 25 F -1.508803 0.516095 1.624533 0
M  V30 26 N 0.924816 0.747970 0.769319 0
M  V30 27 C 2.243608 -4.256199 1.867982 0
M  V30 28 C 1.758718 -4.608170 0.502158 0 CFG=2
M  V30 29 C 2.901513 -4.518233 -0.445173 0
M  V30 30 C 2.533425 -4.316326 -1.882591 0
M  V30 31 C 1.777423 -3.052864 -2.148283 0 CFG=1
M  V30 32 N 2.206418 -2.398664 -3.376411 0
M  V30 33 C 0.304299 -3.405687 -2.180515 0 CFG=2
M  V30 34 F -0.492953 -2.289160 -2.328002 0
M  V30 35 C -0.002018 -4.205236 -0.939649 0
M  V30 36 O 0.696556 -3.772245 0.185559 0
M  V30 37 H 3.869570 -6.849850 2.036839 0
M  V30 38 H 2.100870 -6.991556 1.871480 0
M  V30 39 H 2.841789 -7.143340 3.484472 0
M  V30 40 H 2.948258 -2.418676 4.426996 0
M  V30 41 H 0.813186 -1.535316 2.079041 0
M  V30 42 H 4.133900 0.981912 -0.317129 0
M  V30 43 H -2.663945 5.069631 -0.582804 0
M  V30 44 H -5.409093 3.763052 -0.216828 0
M  V30 45 H -4.844487 3.578239 2.799694 0
M  V30 46 H -5.709847 2.358082 1.722958 0
M  V30 47 H -7.437365 3.891082 1.352181 0
M  V30 48 H -6.919154 4.527149 3.007593 0
M  V30 49 H -6.623160 5.709778 0.242247 0
M  V30 50 H -6.208214 6.448417 1.877427 0
M  V30 51 H -3.801826 1.639043 1.678247 0
M  V30 52 H 1.326779 -5.640299 0.546506 0
M  V30 53 H 3.449560 -5.498526 -0.409068 0
M  V30 54 H 3.653553 -3.777015 -0.106363 0
M  V30 55 H 3.489101 -4.240826 -2.443936 0
M  V30 56 H 1.961646 -5.174224 -2.263091 0
M  V30 57 H 1.897872 -2.374204 -1.273366 0
M  V30 58 H 2.435651 -1.405847 -3.140214 0
M  V30 59 H 3.152085 -2.834096 -3.596716 0
M  V30 60 H 0.164918 -4.071897 -3.060917 0
M  V30 61 H -1.090104 -4.054623 -0.695336 0
M  V30 62 H 0.131308 -5.291715 -1.120803 0
M  V30 END ATOM
M  V30 BEGIN BOND
M  V30 1 1 1 2
M  V30 2 1 2 3
M  V30 3 2 3 4
M  V30 4 1 4 5
M  V30 5 1 5 6
M  V30 6 1 6 7
M  V30 7 2 7 8
M  V30 8 1 7 9
M  V30 9 2 9 10
M  V30 10 1 10 11
M  V30 11 1 11 12
M  V30 12 1 12 13
M  V30 13 2 13 14
M  V30 14 1 14 15
M  V30 15 1 14 16
M  V30 16 2 16 17
M  V30 17 1 17 18
M  V30 18 1 18 19
M  V30 19 1 19 20
M  V30 20 1 20 21
M  V30 21 1 21 22
M  V30 22 1 17 23
M  V30 23 2 23 24
M  V30 24 1 24 25
M  V30 25 2 12 26
M  V30 26 2 5 27
M  V30 27 1 27 28
M  V30 28 1 28 29
M  V30 29 1 29 30
M  V30 30 1 30 31
M  V30 31 1 31 32
M  V30 32 1 31 33
M  V30 33 1 33 34
M  V30 34 1 33 35
M  V30 35 1 35 36
M  V30 36 1 27 2
M  V30 37 1 36 28
M  V30 38 1 26 9
M  V30 39 1 24 13
M  V30 40 1 22 18
M  V30 41 1 1 37
M  V30 42 1 1 38
M  V30 43 1 1 39
M  V30 44 1 4 40
M  V30 45 1 6 41
M  V30 46 1 10 42
M  V30 47 1 16 43
M  V30 48 1 18 44 CFG=3
M  V30 49 1 19 45
M  V30 50 1 19 46
M  V30 51 1 20 47
M  V30 52 1 20 48
M  V30 53 1 21 49
M  V30 54 1 21 50
M  V30 55 1 23 51
M  V30 56 1 28 52 CFG=1
M  V30 57 1 29 53
M  V30 58 1 29 54
M  V30 59 1 30 55
M  V30 60 1 30 56
M  V30 61 1 31 57 CFG=1
M  V30 62 1 32 58
M  V30 63 1 32 59
M  V30 64 1 33 60 CFG=3
M  V30 65 1 35 61
M  V30 66 1 35 62
M  V30 END BOND
M  V30 END CTAB
M  END
>  <Dataset>  (235) 
ChEMBL_Kinases

>  <Ligand_Instance>  (235) 
nan

>  <PDB_ID>  (235) 
nan

>  <Standardized_SMILES>  (235) 
Cn1ncc(NC(=O)c2csc(-c3c(F)cc([C@H]4CCCO4)cc3F)n2)c1[C@@H]1CC[C@@H](N)[C@H](F)CO1

>  <Name>  (235) 
nan

>  <Pocket>  (235) 
nan

>  <ATP_Site>  (235) 
nan

>  <Peripheral>  (235) 
nan

>  <Num_H_Atoms_ProtBoundConf>  (235) 
nan

>  <Num_Resolved_Atoms>  (235) 
nan

>  <Num_Not_Resolved_Atoms>  (235) 
nan

$$$$
CHEMBL3323331
     RDKit          3D

  0  0  0  0  0  0  0  0  0  0999 V3000
M  V30 BEGIN CTAB
M  V30 COUNTS 44 46 0 0 0
M  V30 BEGIN ATOM
M  V30 1 C -0.802840 -3.835011 0.620539 0
M  V30 2 C 0.536644 -3.357991 0.109303 0
M  V30 3 C 1.566451 -4.302971 0.736264 0
M  V30 4 C 0.551668 -3.503315 -1.384159 0
M  V30 5 C 0.854043 -1.969172 0.474022 0
M  V30 6 N 1.100289 -0.936775 -0.295268 0
M  V30 7 N 1.349519 0.179755 0.527458 0
M  V30 8 C 2.039763 1.355832 0.126422 0
M  V30 9 C 2.519196 1.449616 -1.163478 0
M  V30 10 C 3.198480 2.575222 -1.602578 0
M  V30 11 C 3.361646 3.591948 -0.664155 0
M  V30 12 F 4.023353 4.743625 -1.014709 0
M  V30 13 C 2.894130 3.534784 0.641648 0
M  V30 14 F 3.099039 4.575902 1.490469 0
M  V30 15 C 2.216383 2.379675 1.034929 0
M  V30 16 C 0.776835 -0.105453 1.825906 0
M  V30 17 C -0.651488 0.259764 1.783938 0
M  V30 18 C -1.156013 0.981063 2.862889 0
M  V30 19 C -2.456315 1.395262 2.975871 0
M  V30 20 C -3.364234 1.096693 1.969438 0
M  V30 21 O -4.654546 1.531893 2.126160 0
M  V30 22 C -2.861547 0.382284 0.902334 0
M  V30 23 C -1.566657 -0.024387 0.800577 0
M  V30 24 C 0.931998 -1.599462 1.905520 0
M  V30 25 H -0.899495 -3.749995 1.713286 0
M  V30 26 H -1.666758 -3.387217 0.092372 0
M  V30 27 H -0.847513 -4.921029 0.381111 0
M  V30 28 H 2.546575 -4.229116 0.227788 0
M  V30 29 H 1.671291 -4.081171 1.815577 0
M  V30 30 H 1.192107 -5.358771 0.693765 0
M  V30 31 H -0.372228 -3.159051 -1.859946 0
M  V30 32 H 0.692441 -4.570042 -1.658170 0
M  V30 33 H 1.418973 -2.939962 -1.814988 0
M  V30 34 H 2.354732 0.620517 -1.835637 0
M  V30 35 H 3.570729 2.651854 -2.598765 0
M  V30 36 H 1.843830 2.304142 2.033548 0
M  V30 37 H 1.318845 0.420728 2.640752 0
M  V30 38 H -0.486470 1.247349 3.690214 0
M  V30 39 H -2.773158 1.959960 3.859729 0
M  V30 40 H -4.945840 2.478710 1.872017 0
M  V30 41 H -3.573584 0.143051 0.103660 0
M  V30 42 H -1.212857 -0.580162 -0.046547 0
M  V30 43 H 0.120503 -2.047016 2.507923 0
M  V30 44 H 1.939964 -1.872378 2.270558 0
M  V30 END ATOM
M  V30 BEGIN BOND
M  V30 1 1 1 2
M  V30 2 1 2 3
M  V30 3 1 2 4
M  V30 4 1 2 5
M  V30 5 2 5 6
M  V30 6 1 6 7
M  V30 7 1 7 8
M  V30 8 2 8 9
M  V30 9 1 9 10
M  V30 10 2 10 11
M  V30 11 1 11 12
M  V30 12 1 11 13
M  V30 13 1 13 14
M  V30 14 2 13 15
M  V30 15 1 7 16
M  V30 16 1 16 17
M  V30 17 2 17 18
M  V30 18 1 18 19
M  V30 19 2 19 20
M  V30 20 1 20 21
M  V30 21 1 20 22
M  V30 22 2 22 23
M  V30 23 1 16 24
M  V30 24 1 24 5
M  V30 25 1 15 8
M  V30 26 1 23 17
M  V30 27 1 1 25
M  V30 28 1 1 26
M  V30 29 1 1 27
M  V30 30 1 3 28
M  V30 31 1 3 29
M  V30 32 1 3 30
M  V30 33 1 4 31
M  V30 34 1 4 32
M  V30 35 1 4 33
M  V30 36 1 9 34
M  V30 37 1 10 35
M  V30 38 1 15 36
M  V30 39 1 16 37
M  V30 40 1 18 38
M  V30 41 1 19 39
M  V30 42 1 21 40
M  V30 43 1 22 41
M  V30 44 1 23 42
M  V30 45 1 24 43
M  V30 46 1 24 44
M  V30 END BOND
M  V30 END CTAB
M  END
>  <Dataset>  (236) 
ChEMBL_Kinases

>  <Ligand_Instance>  (236) 
nan

>  <PDB_ID>  (236) 
nan

>  <Standardized_SMILES>  (236) 
CC(C)(C)C1=NN(c2ccc(F)c(F)c2)C(c2ccc(O)cc2)C1

>  <Name>  (236) 
nan

>  <Pocket>  (236) 
nan

>  <ATP_Site>  (236) 
nan

>  <Peripheral>  (236) 
nan

>  <Num_H_Atoms_ProtBoundConf>  (236) 
nan

>  <Num_Resolved_Atoms>  (236) 
nan

>  <Num_Not_Resolved_Atoms>  (236) 
nan

$$$$
CHEMBL3323330
     RDKit          3D

  0  0  0  0  0  0  0  0  0  0999 V3000
M  V30 BEGIN CTAB
M  V30 COUNTS 44 46 0 0 0
M  V30 BEGIN ATOM
M  V30 1 C 3.300262 -2.282825 1.771271 0
M  V30 2 C 3.291925 -1.313391 0.630107 0
M  V30 3 C 4.433484 -0.306073 0.799399 0
M  V30 4 C 3.449455 -2.087739 -0.656320 0
M  V30 5 C 2.037173 -0.524049 0.559712 0
M  V30 6 N 1.171520 -0.453671 -0.396110 0
M  V30 7 N 0.137065 0.420725 -0.024774 0
M  V30 8 C -0.814016 1.015533 -0.929109 0
M  V30 9 C -0.685347 0.680090 -2.267475 0
M  V30 10 C -1.629931 1.281101 -3.075115 0
M  V30 11 C -2.633179 2.138659 -2.681457 0
M  V30 12 F -3.506869 2.668975 -3.570096 0
M  V30 13 C -2.668906 2.407189 -1.309691 0
M  V30 14 Cl -3.937461 3.499872 -0.760272 0
M  V30 15 C -1.773979 1.860542 -0.413994 0
M  V30 16 C 0.199281 0.609090 1.406727 0
M  V30 17 C -0.642466 -0.425308 2.056831 0
M  V30 18 C -1.486576 0.008264 3.077073 0
M  V30 19 C -2.258722 -0.995522 3.659180 0
M  V30 20 C -2.210451 -2.304492 3.278745 0
M  V30 21 O -3.051730 -3.203887 3.961710 0
M  V30 22 C -1.371447 -2.710402 2.270932 0
M  V30 23 C -0.578867 -1.739273 1.658704 0
M  V30 24 C 1.649176 0.334668 1.699736 0
M  V30 25 H 3.745402 -1.892634 2.705695 0
M  V30 26 H 2.260703 -2.665612 1.993799 0
M  V30 27 H 3.876605 -3.187027 1.478188 0
M  V30 28 H 5.397098 -0.725125 0.509287 0
M  V30 29 H 4.394819 0.069515 1.850046 0
M  V30 30 H 4.135628 0.578339 0.167522 0
M  V30 31 H 2.902832 -1.532672 -1.472192 0
M  V30 32 H 3.005878 -3.085052 -0.615678 0
M  V30 33 H 4.506914 -2.097460 -0.987489 0
M  V30 34 H 0.070303 0.022375 -2.635157 0
M  V30 35 H -1.601614 1.072029 -4.140880 0
M  V30 36 H -1.814882 2.078171 0.642014 0
M  V30 37 H -0.103961 1.636023 1.704686 0
M  V30 38 H -1.565245 1.027172 3.417483 0
M  V30 39 H -2.915137 -0.661557 4.452026 0
M  V30 40 H -4.060456 -3.107885 3.858300 0
M  V30 41 H -1.402395 -3.764461 2.039464 0
M  V30 42 H 0.059997 -2.099063 0.879719 0
M  V30 43 H 1.799284 -0.165879 2.677521 0
M  V30 44 H 2.286719 1.251912 1.607518 0
M  V30 END ATOM
M  V30 BEGIN BOND
M  V30 1 1 1 2
M  V30 2 1 2 3
M  V30 3 1 2 4
M  V30 4 1 2 5
M  V30 5 2 5 6
M  V30 6 1 6 7
M  V30 7 1 7 8
M  V30 8 2 8 9
M  V30 9 1 9 10
M  V30 10 2 10 11
M  V30 11 1 11 12
M  V30 12 1 11 13
M  V30 13 1 13 14
M  V30 14 2 13 15
M  V30 15 1 7 16
M  V30 16 1 16 17
M  V30 17 2 17 18
M  V30 18 1 18 19
M  V30 19 2 19 20
M  V30 20 1 20 21
M  V30 21 1 20 22
M  V30 22 2 22 23
M  V30 23 1 16 24
M  V30 24 1 24 5
M  V30 25 1 15 8
M  V30 26 1 23 17
M  V30 27 1 1 25
M  V30 28 1 1 26
M  V30 29 1 1 27
M  V30 30 1 3 28
M  V30 31 1 3 29
M  V30 32 1 3 30
M  V30 33 1 4 31
M  V30 34 1 4 32
M  V30 35 1 4 33
M  V30 36 1 9 34
M  V30 37 1 10 35
M  V30 38 1 15 36
M  V30 39 1 16 37
M  V30 40 1 18 38
M  V30 41 1 19 39
M  V30 42 1 21 40
M  V30 43 1 22 41
M  V30 44 1 23 42
M  V30 45 1 24 43
M  V30 46 1 24 44
M  V30 END BOND
M  V30 END CTAB
M  END
>  <Dataset>  (237) 
ChEMBL_Kinases

>  <Ligand_Instance>  (237) 
nan

>  <PDB_ID>  (237) 
nan

>  <Standardized_SMILES>  (237) 
CC(C)(C)C1=NN(c2ccc(F)c(Cl)c2)C(c2ccc(O)cc2)C1

>  <Name>  (237) 
nan

>  <Pocket>  (237) 
nan

>  <ATP_Site>  (237) 
nan

>  <Peripheral>  (237) 
nan

>  <Num_H_Atoms_ProtBoundConf>  (237) 
nan

>  <Num_Resolved_Atoms>  (237) 
nan

>  <Num_Not_Resolved_Atoms>  (237) 
nan

$$$$
CHEMBL3323324
     RDKit          3D

  0  0  0  0  0  0  0  0  0  0999 V3000
M  V30 BEGIN CTAB
M  V30 COUNTS 47 49 0 0 0
M  V30 BEGIN ATOM
M  V30 1 C -0.716901 -4.951784 3.857957 0
M  V30 2 C -0.009199 -4.345274 2.700033 0
M  V30 3 C 0.684155 -5.163410 1.826670 0
M  V30 4 C 1.366945 -4.671675 0.726820 0
M  V30 5 C 1.378500 -3.316492 0.459265 0
M  V30 6 C 0.686831 -2.492999 1.329137 0
M  V30 7 N 0.686680 -1.090130 1.069972 0
M  V30 8 N 1.332649 -0.462354 -0.001196 0
M  V30 9 C 1.492577 0.782926 0.216102 0
M  V30 10 C 2.139935 1.749087 -0.708175 0
M  V30 11 C 2.609886 1.090800 -1.981210 0
M  V30 12 C 1.171550 2.851120 -1.073508 0
M  V30 13 C 3.364798 2.334856 -0.021447 0
M  V30 14 C 0.935213 1.149041 1.542291 0
M  V30 15 C 0.042371 -0.040668 1.828489 0
M  V30 16 C -1.331377 0.263949 1.361454 0
M  V30 17 C -1.635172 0.398221 0.018587 0
M  V30 18 C -2.939681 0.684620 -0.371087 0
M  V30 19 C -3.972730 0.844745 0.555743 0
M  V30 20 O -5.270991 1.128504 0.191374 0
M  V30 21 C -3.691449 0.714792 1.903333 0
M  V30 22 C -2.377146 0.427286 2.276686 0
M  V30 23 C 0.010145 -2.991824 2.421283 0
M  V30 24 H -0.178928 -5.798314 4.311339 0
M  V30 25 H -0.954126 -4.140070 4.578914 0
M  V30 26 H -1.697452 -5.314764 3.431981 0
M  V30 27 H 0.677837 -6.242785 2.035504 0
M  V30 28 H 1.901661 -5.360037 0.063886 0
M  V30 29 H 1.893712 -2.884436 -0.381889 0
M  V30 30 H 3.112311 0.133337 -1.715921 0
M  V30 31 H 1.792893 0.866324 -2.687953 0
M  V30 32 H 3.307893 1.787063 -2.493731 0
M  V30 33 H 1.454887 3.234098 -2.081666 0
M  V30 34 H 0.159094 2.442107 -1.081361 0
M  V30 35 H 1.300183 3.647336 -0.300997 0
M  V30 36 H 3.080427 3.023078 0.797902 0
M  V30 37 H 3.953554 2.857503 -0.802218 0
M  V30 38 H 3.965166 1.482235 0.338402 0
M  V30 39 H 0.370223 2.108240 1.508240 0
M  V30 40 H 1.758798 1.209776 2.310873 0
M  V30 41 H -0.007422 -0.271233 2.910179 0
M  V30 42 H -0.848592 0.278437 -0.726510 0
M  V30 43 H -3.201216 0.795086 -1.431800 0
M  V30 44 H -6.052702 0.487287 0.296359 0
M  V30 45 H -4.442914 0.826282 2.669983 0
M  V30 46 H -2.191051 0.331105 3.357628 0
M  V30 47 H -0.521736 -2.335260 3.085879 0
M  V30 END ATOM
M  V30 BEGIN BOND
M  V30 1 1 1 2
M  V30 2 2 2 3
M  V30 3 1 3 4
M  V30 4 2 4 5
M  V30 5 1 5 6
M  V30 6 1 6 7
M  V30 7 1 7 8
M  V30 8 2 8 9
M  V30 9 1 9 10
M  V30 10 1 10 11
M  V30 11 1 10 12
M  V30 12 1 10 13
M  V30 13 1 9 14
M  V30 14 1 14 15
M  V30 15 1 15 16
M  V30 16 2 16 17
M  V30 17 1 17 18
M  V30 18 2 18 19
M  V30 19 1 19 20
M  V30 20 1 19 21
M  V30 21 2 21 22
M  V30 22 2 6 23
M  V30 23 1 23 2
M  V30 24 1 15 7
M  V30 25 1 22 16
M  V30 26 1 1 24
M  V30 27 1 1 25
M  V30 28 1 1 26
M  V30 29 1 3 27
M  V30 30 1 4 28
M  V30 31 1 5 29
M  V30 32 1 11 30
M  V30 33 1 11 31
M  V30 34 1 11 32
M  V30 35 1 12 33
M  V30 36 1 12 34
M  V30 37 1 12 35
M  V30 38 1 13 36
M  V30 39 1 13 37
M  V30 40 1 13 38
M  V30 41 1 14 39
M  V30 42 1 14 40
M  V30 43 1 15 41
M  V30 44 1 17 42
M  V30 45 1 18 43
M  V30 46 1 20 44
M  V30 47 1 21 45
M  V30 48 1 22 46
M  V30 49 1 23 47
M  V30 END BOND
M  V30 END CTAB
M  END
>  <Dataset>  (238) 
ChEMBL_Kinases

>  <Ligand_Instance>  (238) 
nan

>  <PDB_ID>  (238) 
nan

>  <Standardized_SMILES>  (238) 
Cc1cccc(N2N=C(C(C)(C)C)CC2c2ccc(O)cc2)c1

>  <Name>  (238) 
nan

>  <Pocket>  (238) 
nan

>  <ATP_Site>  (238) 
nan

>  <Peripheral>  (238) 
nan

>  <Num_H_Atoms_ProtBoundConf>  (238) 
nan

>  <Num_Resolved_Atoms>  (238) 
nan

>  <Num_Not_Resolved_Atoms>  (238) 
nan

$$$$
CHEMBL3323323
     RDKit          3D

  0  0  0  0  0  0  0  0  0  0999 V3000
M  V30 BEGIN CTAB
M  V30 COUNTS 47 49 0 0 0
M  V30 BEGIN ATOM
M  V30 1 C 1.721161 -4.247186 1.566629 0
M  V30 2 C 0.662207 -3.933191 0.544862 0
M  V30 3 C -0.635800 -4.542454 0.975587 0
M  V30 4 C 1.055959 -4.517090 -0.797607 0
M  V30 5 C 0.515423 -2.466989 0.324715 0
M  V30 6 N 1.209792 -1.589883 0.934975 0
M  V30 7 N 0.885137 -0.303499 0.556025 0
M  V30 8 C 1.646517 0.872546 0.807528 0
M  V30 9 C 2.841188 0.766162 1.498730 0
M  V30 10 C 3.622438 1.892764 1.768955 0
M  V30 11 C 3.106438 3.082217 1.296633 0
M  V30 12 C 1.922353 3.229279 0.605230 0
M  V30 13 C 1.453412 4.566429 0.137036 0
M  V30 14 F 2.477510 5.470184 -0.002673 0
M  V30 15 F 0.455873 5.036019 0.980523 0
M  V30 16 F 0.852768 4.362432 -1.090820 0
M  V30 17 C 1.188261 2.099293 0.362166 0
M  V30 18 C -0.380662 -0.367450 -0.149532 0
M  V30 19 C -1.513756 0.031533 0.711850 0
M  V30 20 C -1.619502 -0.442466 1.998834 0
M  V30 21 C -2.702876 -0.027245 2.742760 0
M  V30 22 C -3.679042 0.832719 2.266419 0
M  V30 23 O -4.730299 1.190179 3.095565 0
M  V30 24 C -3.552982 1.288751 0.989517 0
M  V30 25 C -2.481167 0.892947 0.218160 0
M  V30 26 C -0.427327 -1.792383 -0.606775 0
M  V30 27 H 1.772775 -5.363496 1.618232 0
M  V30 28 H 2.725454 -3.925480 1.257655 0
M  V30 29 H 1.426121 -3.907179 2.564055 0
M  V30 30 H -0.844144 -5.445060 0.379077 0
M  V30 31 H -1.433194 -3.772058 0.865851 0
M  V30 32 H -0.578805 -4.839789 2.044905 0
M  V30 33 H 2.151637 -4.333620 -0.930820 0
M  V30 34 H 0.543704 -3.934503 -1.585787 0
M  V30 35 H 0.808726 -5.591812 -0.874007 0
M  V30 36 H 3.216872 -0.185440 1.855625 0
M  V30 37 H 4.560239 1.849094 2.305481 0
M  V30 38 H 3.711596 3.963808 1.504594 0
M  V30 39 H 0.268139 2.187095 -0.171074 0
M  V30 40 H -0.359563 0.291814 -1.062949 0
M  V30 41 H -0.857114 -1.112622 2.367363 0
M  V30 42 H -2.798359 -0.386792 3.743283 0
M  V30 43 H -5.275315 2.006325 2.804784 0
M  V30 44 H -4.291417 1.961676 0.576337 0
M  V30 45 H -2.407418 1.271872 -0.793518 0
M  V30 46 H -0.158276 -1.922846 -1.664503 0
M  V30 47 H -1.484596 -2.138875 -0.418280 0
M  V30 END ATOM
M  V30 BEGIN BOND
M  V30 1 1 1 2
M  V30 2 1 2 3
M  V30 3 1 2 4
M  V30 4 1 2 5
M  V30 5 2 5 6
M  V30 6 1 6 7
M  V30 7 1 7 8
M  V30 8 2 8 9
M  V30 9 1 9 10
M  V30 10 2 10 11
M  V30 11 1 11 12
M  V30 12 1 12 13
M  V30 13 1 13 14
M  V30 14 1 13 15
M  V30 15 1 13 16
M  V30 16 2 12 17
M  V30 17 1 7 18
M  V30 18 1 18 19
M  V30 19 2 19 20
M  V30 20 1 20 21
M  V30 21 2 21 22
M  V30 22 1 22 23
M  V30 23 1 22 24
M  V30 24 2 24 25
M  V30 25 1 18 26
M  V30 26 1 26 5
M  V30 27 1 17 8
M  V30 28 1 25 19
M  V30 29 1 1 27
M  V30 30 1 1 28
M  V30 31 1 1 29
M  V30 32 1 3 30
M  V30 33 1 3 31
M  V30 34 1 3 32
M  V30 35 1 4 33
M  V30 36 1 4 34
M  V30 37 1 4 35
M  V30 38 1 9 36
M  V30 39 1 10 37
M  V30 40 1 11 38
M  V30 41 1 17 39
M  V30 42 1 18 40
M  V30 43 1 20 41
M  V30 44 1 21 42
M  V30 45 1 23 43
M  V30 46 1 24 44
M  V30 47 1 25 45
M  V30 48 1 26 46
M  V30 49 1 26 47
M  V30 END BOND
M  V30 END CTAB
M  END
>  <Dataset>  (239) 
ChEMBL_Kinases

>  <Ligand_Instance>  (239) 
nan

>  <PDB_ID>  (239) 
nan

>  <Standardized_SMILES>  (239) 
CC(C)(C)C1=NN(c2cccc(C(F)(F)F)c2)C(c2ccc(O)cc2)C1

>  <Name>  (239) 
nan

>  <Pocket>  (239) 
nan

>  <ATP_Site>  (239) 
nan

>  <Peripheral>  (239) 
nan

>  <Num_H_Atoms_ProtBoundConf>  (239) 
nan

>  <Num_Resolved_Atoms>  (239) 
nan

>  <Num_Not_Resolved_Atoms>  (239) 
nan

$$$$
CHEMBL3323322
     RDKit          3D

  0  0  0  0  0  0  0  0  0  0999 V3000
M  V30 BEGIN CTAB
M  V30 COUNTS 44 46 0 0 0
M  V30 BEGIN ATOM
M  V30 1 C -0.218836 -3.838715 1.084854 0
M  V30 2 C 0.817695 -3.321671 0.143395 0
M  V30 3 C 2.227799 -3.633258 0.531571 0
M  V30 4 C 0.625768 -3.879457 -1.271086 0
M  V30 5 C 0.610303 -1.843895 -0.005666 0
M  V30 6 N 1.445304 -0.898823 0.275562 0
M  V30 7 N 0.924265 0.350581 0.015043 0
M  V30 8 C 1.671155 1.537813 -0.232465 0
M  V30 9 C 3.045496 1.455299 -0.214550 0
M  V30 10 C 3.840447 2.552870 -0.443365 0
M  V30 11 C 3.276044 3.775852 -0.699044 0
M  V30 12 C 1.894177 3.820058 -0.708958 0
M  V30 13 F 1.352316 5.052906 -0.966702 0
M  V30 14 C 1.055094 2.745861 -0.485049 0
M  V30 15 C -0.514308 0.169680 0.052707 0
M  V30 16 C -1.072740 0.260533 1.429462 0
M  V30 17 C -2.225294 1.002671 1.681415 0
M  V30 18 C -2.832838 1.159384 2.908908 0
M  V30 19 C -2.238707 0.518602 3.984486 0
M  V30 20 O -2.851115 0.676746 5.220976 0
M  V30 21 C -1.082282 -0.236104 3.778706 0
M  V30 22 C -0.517900 -0.357498 2.525497 0
M  V30 23 C -0.638868 -1.224838 -0.520702 0
M  V30 24 H 0.309692 -4.269731 1.979001 0
M  V30 25 H -0.891391 -3.060154 1.502103 0
M  V30 26 H -0.819056 -4.622197 0.570579 0
M  V30 27 H 2.448510 -4.648731 0.157448 0
M  V30 28 H 2.878166 -2.926170 -0.061886 0
M  V30 29 H 2.456144 -3.522748 1.600544 0
M  V30 30 H 1.549460 -3.609445 -1.824554 0
M  V30 31 H -0.205389 -3.392211 -1.791068 0
M  V30 32 H 0.566049 -4.974500 -1.272421 0
M  V30 33 H 3.520653 0.495088 -0.013785 0
M  V30 34 H 4.903694 2.416836 -0.414439 0
M  V30 35 H 3.868592 4.642511 -0.879741 0
M  V30 36 H -0.015910 2.835179 -0.504233 0
M  V30 37 H -1.044996 0.906296 -0.580661 0
M  V30 38 H -2.665111 1.493773 0.807034 0
M  V30 39 H -3.730197 1.768648 2.958298 0
M  V30 40 H -3.863263 0.502445 5.312018 0
M  V30 41 H -0.664014 -0.712992 4.656328 0
M  V30 42 H 0.375537 -0.947666 2.399446 0
M  V30 43 H -1.547802 -1.754950 -0.178023 0
M  V30 44 H -0.624455 -1.134696 -1.629397 0
M  V30 END ATOM
M  V30 BEGIN BOND
M  V30 1 1 1 2
M  V30 2 1 2 3
M  V30 3 1 2 4
M  V30 4 1 2 5
M  V30 5 2 5 6
M  V30 6 1 6 7
M  V30 7 1 7 8
M  V30 8 2 8 9
M  V30 9 1 9 10
M  V30 10 2 10 11
M  V30 11 1 11 12
M  V30 12 1 12 13
M  V30 13 2 12 14
M  V30 14 1 7 15
M  V30 15 1 15 16
M  V30 16 2 16 17
M  V30 17 1 17 18
M  V30 18 2 18 19
M  V30 19 1 19 20
M  V30 20 1 19 21
M  V30 21 2 21 22
M  V30 22 1 15 23
M  V30 23 1 23 5
M  V30 24 1 14 8
M  V30 25 1 22 16
M  V30 26 1 1 24
M  V30 27 1 1 25
M  V30 28 1 1 26
M  V30 29 1 3 27
M  V30 30 1 3 28
M  V30 31 1 3 29
M  V30 32 1 4 30
M  V30 33 1 4 31
M  V30 34 1 4 32
M  V30 35 1 9 33
M  V30 36 1 10 34
M  V30 37 1 11 35
M  V30 38 1 14 36
M  V30 39 1 15 37
M  V30 40 1 17 38
M  V30 41 1 18 39
M  V30 42 1 20 40
M  V30 43 1 21 41
M  V30 44 1 22 42
M  V30 45 1 23 43
M  V30 46 1 23 44
M  V30 END BOND
M  V30 END CTAB
M  END
>  <Dataset>  (240) 
ChEMBL_Kinases

>  <Ligand_Instance>  (240) 
nan

>  <PDB_ID>  (240) 
nan

>  <Standardized_SMILES>  (240) 
CC(C)(C)C1=NN(c2cccc(F)c2)C(c2ccc(O)cc2)C1

>  <Name>  (240) 
nan

>  <Pocket>  (240) 
nan

>  <ATP_Site>  (240) 
nan

>  <Peripheral>  (240) 
nan

>  <Num_H_Atoms_ProtBoundConf>  (240) 
nan

>  <Num_Resolved_Atoms>  (240) 
nan

>  <Num_Not_Resolved_Atoms>  (240) 
nan

$$$$
CHEMBL3323321
     RDKit          3D

  0  0  0  0  0  0  0  0  0  0999 V3000
M  V30 BEGIN CTAB
M  V30 COUNTS 44 46 0 0 0
M  V30 BEGIN ATOM
M  V30 1 C 0.057145 -4.301153 0.310182 0
M  V30 2 C 1.411857 -3.687382 0.665875 0
M  V30 3 C 2.013959 -4.305881 1.890061 0
M  V30 4 C 2.307788 -3.965323 -0.522868 0
M  V30 5 C 1.189531 -2.223285 0.803707 0
M  V30 6 N 1.719677 -1.250404 0.146122 0
M  V30 7 N 1.222753 -0.028333 0.605888 0
M  V30 8 C 1.471872 1.148338 -0.148641 0
M  V30 9 C 2.139028 1.118373 -1.355229 0
M  V30 10 C 2.401721 2.255092 -2.118250 0
M  V30 11 C 1.990740 3.477292 -1.676731 0
M  V30 12 C 1.313208 3.561695 -0.464809 0
M  V30 13 Cl 0.780908 5.142727 0.107555 0
M  V30 14 C 1.089204 2.398768 0.234450 0
M  V30 15 C 0.521241 -0.239252 1.824250 0
M  V30 16 C -0.717740 0.561545 1.983419 0
M  V30 17 C -1.520831 0.573661 0.846817 0
M  V30 18 C -2.735640 1.262330 0.772654 0
M  V30 19 C -3.130763 1.954807 1.898277 0
M  V30 20 O -4.334904 2.657295 1.873517 0
M  V30 21 C -2.348925 1.955404 3.035216 0
M  V30 22 C -1.150680 1.275575 3.107014 0
M  V30 23 C 0.235260 -1.719706 1.815150 0
M  V30 24 H -0.482103 -4.395608 1.274927 0
M  V30 25 H -0.453405 -3.563863 -0.346173 0
M  V30 26 H 0.141587 -5.226772 -0.262850 0
M  V30 27 H 2.683044 -5.170491 1.648878 0
M  V30 28 H 2.718744 -3.536130 2.318466 0
M  V30 29 H 1.279693 -4.540633 2.684266 0
M  V30 30 H 3.358275 -3.667613 -0.365003 0
M  V30 31 H 1.934652 -3.445522 -1.434881 0
M  V30 32 H 2.287629 -5.039082 -0.744599 0
M  V30 33 H 2.498579 0.174234 -1.772854 0
M  V30 34 H 2.925382 2.181750 -3.052855 0
M  V30 35 H 2.184693 4.366280 -2.252623 0
M  V30 36 H 0.562261 2.553642 1.158895 0
M  V30 37 H 1.181771 -0.014698 2.694822 0
M  V30 38 H -1.272482 0.052686 -0.071081 0
M  V30 39 H -3.345337 1.267434 -0.100279 0
M  V30 40 H -5.197408 2.109276 1.728027 0
M  V30 41 H -2.630335 2.488436 3.934669 0
M  V30 42 H -0.472690 1.211140 3.933545 0
M  V30 43 H 0.388571 -2.187004 2.810307 0
M  V30 44 H -0.819646 -1.910465 1.460355 0
M  V30 END ATOM
M  V30 BEGIN BOND
M  V30 1 1 1 2
M  V30 2 1 2 3
M  V30 3 1 2 4
M  V30 4 1 2 5
M  V30 5 2 5 6
M  V30 6 1 6 7
M  V30 7 1 7 8
M  V30 8 2 8 9
M  V30 9 1 9 10
M  V30 10 2 10 11
M  V30 11 1 11 12
M  V30 12 1 12 13
M  V30 13 2 12 14
M  V30 14 1 7 15
M  V30 15 1 15 16
M  V30 16 2 16 17
M  V30 17 1 17 18
M  V30 18 2 18 19
M  V30 19 1 19 20
M  V30 20 1 19 21
M  V30 21 2 21 22
M  V30 22 1 15 23
M  V30 23 1 23 5
M  V30 24 1 14 8
M  V30 25 1 22 16
M  V30 26 1 1 24
M  V30 27 1 1 25
M  V30 28 1 1 26
M  V30 29 1 3 27
M  V30 30 1 3 28
M  V30 31 1 3 29
M  V30 32 1 4 30
M  V30 33 1 4 31
M  V30 34 1 4 32
M  V30 35 1 9 33
M  V30 36 1 10 34
M  V30 37 1 11 35
M  V30 38 1 14 36
M  V30 39 1 15 37
M  V30 40 1 17 38
M  V30 41 1 18 39
M  V30 42 1 20 40
M  V30 43 1 21 41
M  V30 44 1 22 42
M  V30 45 1 23 43
M  V30 46 1 23 44
M  V30 END BOND
M  V30 END CTAB
M  END
>  <Dataset>  (241) 
ChEMBL_Kinases

>  <Ligand_Instance>  (241) 
nan

>  <PDB_ID>  (241) 
nan

>  <Standardized_SMILES>  (241) 
CC(C)(C)C1=NN(c2cccc(Cl)c2)C(c2ccc(O)cc2)C1

>  <Name>  (241) 
nan

>  <Pocket>  (241) 
nan

>  <ATP_Site>  (241) 
nan

>  <Peripheral>  (241) 
nan

>  <Num_H_Atoms_ProtBoundConf>  (241) 
nan

>  <Num_Resolved_Atoms>  (241) 
nan

>  <Num_Not_Resolved_Atoms>  (241) 
nan

$$$$
CHEMBL3323317
     RDKit          3D

  0  0  0  0  0  0  0  0  0  0999 V3000
M  V30 BEGIN CTAB
M  V30 COUNTS 47 49 0 0 0
M  V30 BEGIN ATOM
M  V30 1 C 0.063276 -2.431727 3.936682 0
M  V30 2 C -1.026307 -1.413571 3.663467 0
M  V30 3 C -2.297167 -2.198619 3.386083 0
M  V30 4 C -1.153712 -0.588644 4.924347 0
M  V30 5 C -0.645872 -0.576272 2.495944 0
M  V30 6 N 0.452025 -0.694060 1.807411 0
M  V30 7 N 0.515624 0.241221 0.771278 0
M  V30 8 C 1.651689 0.820585 0.140624 0
M  V30 9 C 1.604267 1.755308 -0.867756 0
M  V30 10 C 2.747586 2.280699 -1.440255 0
M  V30 11 C 3.967709 1.834600 -0.964849 0
M  V30 12 C 5.155379 2.454528 -1.639650 0
M  V30 13 F 5.223354 3.750265 -1.218591 0
M  V30 14 F 6.316019 1.829779 -1.269488 0
M  V30 15 F 4.969031 2.368986 -3.008185 0
M  V30 16 C 4.053943 0.895361 0.048216 0
M  V30 17 C 2.886012 0.398926 0.589589 0
M  V30 18 C -0.907282 0.500656 0.471461 0
M  V30 19 C -1.487562 -0.665075 -0.207232 0
M  V30 20 C -2.667365 -1.321324 -0.050566 0
M  V30 21 C -3.011541 -2.417887 -0.812332 0
M  V30 22 C -2.160842 -2.921299 -1.796623 0
M  V30 23 O -2.563028 -4.011213 -2.515965 0
M  V30 24 C -0.943518 -2.255076 -1.968078 0
M  V30 25 C -0.634639 -1.159879 -1.185282 0
M  V30 26 C -1.440242 0.550584 1.889207 0
M  V30 27 H -0.056233 -3.231619 3.184622 0
M  V30 28 H 1.021927 -1.900769 3.667184 0
M  V30 29 H 0.110951 -2.767130 4.975708 0
M  V30 30 H -2.083871 -2.933166 2.582764 0
M  V30 31 H -3.096667 -1.534012 3.024437 0
M  V30 32 H -2.581562 -2.733694 4.313519 0
M  V30 33 H -0.223545 0.039591 4.965399 0
M  V30 34 H -1.051186 -1.290668 5.776474 0
M  V30 35 H -2.066471 0.009296 4.979579 0
M  V30 36 H 0.595901 2.051845 -1.182819 0
M  V30 37 H 2.610982 3.011642 -2.228313 0
M  V30 38 H 5.045920 0.594306 0.368223 0
M  V30 39 H 3.043766 -0.328981 1.374254 0
M  V30 40 H -1.042370 1.458497 -0.057407 0
M  V30 41 H -3.300498 -0.903816 0.718146 0
M  V30 42 H -3.957150 -2.893143 -0.641435 0
M  V30 43 H -3.452976 -4.115883 -2.976891 0
M  V30 44 H -0.337800 -2.688242 -2.735626 0
M  V30 45 H 0.335142 -0.778522 -1.454778 0
M  V30 46 H -2.510247 0.433326 1.990217 0
M  V30 47 H -1.080763 1.530022 2.298885 0
M  V30 END ATOM
M  V30 BEGIN BOND
M  V30 1 1 1 2
M  V30 2 1 2 3
M  V30 3 1 2 4
M  V30 4 1 2 5
M  V30 5 2 5 6
M  V30 6 1 6 7
M  V30 7 1 7 8
M  V30 8 2 8 9
M  V30 9 1 9 10
M  V30 10 2 10 11
M  V30 11 1 11 12
M  V30 12 1 12 13
M  V30 13 1 12 14
M  V30 14 1 12 15
M  V30 15 1 11 16
M  V30 16 2 16 17
M  V30 17 1 7 18
M  V30 18 1 18 19
M  V30 19 2 19 20
M  V30 20 1 20 21
M  V30 21 2 21 22
M  V30 22 1 22 23
M  V30 23 1 22 24
M  V30 24 2 24 25
M  V30 25 1 18 26
M  V30 26 1 26 5
M  V30 27 1 17 8
M  V30 28 1 25 19
M  V30 29 1 1 27
M  V30 30 1 1 28
M  V30 31 1 1 29
M  V30 32 1 3 30
M  V30 33 1 3 31
M  V30 34 1 3 32
M  V30 35 1 4 33
M  V30 36 1 4 34
M  V30 37 1 4 35
M  V30 38 1 9 36
M  V30 39 1 10 37
M  V30 40 1 16 38
M  V30 41 1 17 39
M  V30 42 1 18 40
M  V30 43 1 20 41
M  V30 44 1 21 42
M  V30 45 1 23 43
M  V30 46 1 24 44
M  V30 47 1 25 45
M  V30 48 1 26 46
M  V30 49 1 26 47
M  V30 END BOND
M  V30 END CTAB
M  END
>  <Dataset>  (242) 
ChEMBL_Kinases

>  <Ligand_Instance>  (242) 
nan

>  <PDB_ID>  (242) 
nan

>  <Standardized_SMILES>  (242) 
CC(C)(C)C1=NN(c2ccc(C(F)(F)F)cc2)C(c2ccc(O)cc2)C1

>  <Name>  (242) 
nan

>  <Pocket>  (242) 
nan

>  <ATP_Site>  (242) 
nan

>  <Peripheral>  (242) 
nan

>  <Num_H_Atoms_ProtBoundConf>  (242) 
nan

>  <Num_Resolved_Atoms>  (242) 
nan

>  <Num_Not_Resolved_Atoms>  (242) 
nan

$$$$
CHEMBL3323315
     RDKit          3D

  0  0  0  0  0  0  0  0  0  0999 V3000
M  V30 BEGIN CTAB
M  V30 COUNTS 44 46 0 0 0
M  V30 BEGIN ATOM
M  V30 1 C -0.014148 -4.173090 -0.307708 0
M  V30 2 C 1.377923 -3.595255 -0.107130 0
M  V30 3 C 2.123923 -4.383790 0.932221 0
M  V30 4 C 2.054614 -3.648693 -1.454521 0
M  V30 5 C 1.175168 -2.187482 0.347406 0
M  V30 6 N 1.578930 -1.106319 -0.228143 0
M  V30 7 N 1.185757 0.010255 0.517096 0
M  V30 8 C 1.309592 1.288267 -0.061110 0
M  V30 9 C 1.754075 1.490715 -1.351901 0
M  V30 10 C 1.888467 2.746559 -1.948532 0
M  V30 11 C 1.567292 3.865225 -1.234312 0
M  V30 12 F 1.693145 5.075073 -1.798970 0
M  V30 13 C 1.119593 3.731089 0.053885 0
M  V30 14 C 1.007688 2.465047 0.588843 0
M  V30 15 C 0.714788 -0.413090 1.783487 0
M  V30 16 C -0.464964 0.312207 2.308950 0
M  V30 17 C -1.479344 0.501931 1.368304 0
M  V30 18 C -2.653796 1.155018 1.675087 0
M  V30 19 C -2.839768 1.639958 2.952376 0
M  V30 20 O -3.993803 2.313531 3.356374 0
M  V30 21 C -1.841179 1.459873 3.899902 0
M  V30 22 C -0.662183 0.807872 3.603585 0
M  V30 23 C 0.434339 -1.882476 1.591020 0
M  V30 24 H 0.053737 -5.168453 -0.828356 0
M  V30 25 H -0.537453 -4.239101 0.665107 0
M  V30 26 H -0.558272 -3.446850 -0.955158 0
M  V30 27 H 2.586507 -5.266996 0.459777 0
M  V30 28 H 2.934600 -3.731841 1.363204 0
M  V30 29 H 1.423706 -4.627562 1.746373 0
M  V30 30 H 3.048143 -3.161254 -1.463607 0
M  V30 31 H 2.105803 -4.730054 -1.727386 0
M  V30 32 H 1.392011 -3.187435 -2.206628 0
M  V30 33 H 2.027643 0.640774 -1.977978 0
M  V30 34 H 2.247206 2.815171 -2.973956 0
M  V30 35 H 0.866388 4.618769 0.615957 0
M  V30 36 H 0.650232 2.443044 1.607906 0
M  V30 37 H 1.499170 -0.333130 2.593304 0
M  V30 38 H -1.414573 0.155979 0.353150 0
M  V30 39 H -3.442906 1.305366 0.952192 0
M  V30 40 H -4.866604 1.857618 3.107149 0
M  V30 41 H -1.913712 1.813767 4.928661 0
M  V30 42 H 0.159562 0.622065 4.262205 0
M  V30 43 H 0.773040 -2.495058 2.448278 0
M  V30 44 H -0.672452 -2.028064 1.421185 0
M  V30 END ATOM
M  V30 BEGIN BOND
M  V30 1 1 1 2
M  V30 2 1 2 3
M  V30 3 1 2 4
M  V30 4 1 2 5
M  V30 5 2 5 6
M  V30 6 1 6 7
M  V30 7 1 7 8
M  V30 8 2 8 9
M  V30 9 1 9 10
M  V30 10 2 10 11
M  V30 11 1 11 12
M  V30 12 1 11 13
M  V30 13 2 13 14
M  V30 14 1 7 15
M  V30 15 1 15 16
M  V30 16 2 16 17
M  V30 17 1 17 18
M  V30 18 2 18 19
M  V30 19 1 19 20
M  V30 20 1 19 21
M  V30 21 2 21 22
M  V30 22 1 15 23
M  V30 23 1 23 5
M  V30 24 1 14 8
M  V30 25 1 22 16
M  V30 26 1 1 24
M  V30 27 1 1 25
M  V30 28 1 1 26
M  V30 29 1 3 27
M  V30 30 1 3 28
M  V30 31 1 3 29
M  V30 32 1 4 30
M  V30 33 1 4 31
M  V30 34 1 4 32
M  V30 35 1 9 33
M  V30 36 1 10 34
M  V30 37 1 13 35
M  V30 38 1 14 36
M  V30 39 1 15 37
M  V30 40 1 17 38
M  V30 41 1 18 39
M  V30 42 1 20 40
M  V30 43 1 21 41
M  V30 44 1 22 42
M  V30 45 1 23 43
M  V30 46 1 23 44
M  V30 END BOND
M  V30 END CTAB
M  END
>  <Dataset>  (243) 
ChEMBL_Kinases

>  <Ligand_Instance>  (243) 
nan

>  <PDB_ID>  (243) 
nan

>  <Standardized_SMILES>  (243) 
CC(C)(C)C1=NN(c2ccc(F)cc2)C(c2ccc(O)cc2)C1

>  <Name>  (243) 
nan

>  <Pocket>  (243) 
nan

>  <ATP_Site>  (243) 
nan

>  <Peripheral>  (243) 
nan

>  <Num_H_Atoms_ProtBoundConf>  (243) 
nan

>  <Num_Resolved_Atoms>  (243) 
nan

>  <Num_Not_Resolved_Atoms>  (243) 
nan

$$$$
CHEMBL3323314
     RDKit          3D

  0  0  0  0  0  0  0  0  0  0999 V3000
M  V30 BEGIN CTAB
M  V30 COUNTS 44 46 0 0 0
M  V30 BEGIN ATOM
M  V30 1 C 0.200895 -4.240223 -0.261444 0
M  V30 2 C 1.529874 -3.590336 0.061795 0
M  V30 3 C 2.291059 -4.326725 1.144255 0
M  V30 4 C 2.344280 -3.639223 -1.213060 0
M  V30 5 C 1.234110 -2.191021 0.468423 0
M  V30 6 N 1.655106 -1.108864 -0.093506 0
M  V30 7 N 1.157495 0.009420 0.584449 0
M  V30 8 C 1.309394 1.290912 -0.007477 0
M  V30 9 C 1.882773 1.469741 -1.249805 0
M  V30 10 C 2.048818 2.715440 -1.857946 0
M  V30 11 C 1.625246 3.838899 -1.201401 0
M  V30 12 Cl 1.838633 5.393500 -1.973425 0
M  V30 13 C 1.043568 3.719385 0.046117 0
M  V30 14 C 0.912954 2.457431 0.583248 0
M  V30 15 C 0.569252 -0.398584 1.798418 0
M  V30 16 C -0.670973 0.296201 2.191915 0
M  V30 17 C -1.652909 0.490740 1.235926 0
M  V30 18 C -2.854997 1.118510 1.458508 0
M  V30 19 C -3.128350 1.596977 2.709328 0
M  V30 20 O -4.322102 2.241920 3.007328 0
M  V30 21 C -2.181475 1.428097 3.698077 0
M  V30 22 C -0.978411 0.796347 3.462901 0
M  V30 23 C 0.370603 -1.882378 1.629147 0
M  V30 24 H 0.408456 -5.264523 -0.620513 0
M  V30 25 H -0.497848 -4.211311 0.605290 0
M  V30 26 H -0.240874 -3.632930 -1.077400 0
M  V30 27 H 2.678524 -5.273527 0.720448 0
M  V30 28 H 3.138967 -3.646548 1.417392 0
M  V30 29 H 1.690814 -4.435741 2.054315 0
M  V30 30 H 3.390534 -3.315580 -1.076098 0
M  V30 31 H 1.819922 -3.106227 -2.036294 0
M  V30 32 H 2.374813 -4.704130 -1.530941 0
M  V30 33 H 2.240284 0.616001 -1.823623 0
M  V30 34 H 2.507715 2.791165 -2.838187 0
M  V30 35 H 0.714601 4.616239 0.550969 0
M  V30 36 H 0.451365 2.446300 1.559926 0
M  V30 37 H 1.283540 -0.275943 2.647891 0
M  V30 38 H -1.475523 0.127269 0.234751 0
M  V30 39 H -3.567101 1.229408 0.657305 0
M  V30 40 H -5.139635 2.022574 2.430054 0
M  V30 41 H -2.363605 1.793749 4.698971 0
M  V30 42 H -0.206830 0.644235 4.216830 0
M  V30 43 H 0.653994 -2.456483 2.533986 0
M  V30 44 H -0.689072 -2.120985 1.330743 0
M  V30 END ATOM
M  V30 BEGIN BOND
M  V30 1 1 1 2
M  V30 2 1 2 3
M  V30 3 1 2 4
M  V30 4 1 2 5
M  V30 5 2 5 6
M  V30 6 1 6 7
M  V30 7 1 7 8
M  V30 8 2 8 9
M  V30 9 1 9 10
M  V30 10 2 10 11
M  V30 11 1 11 12
M  V30 12 1 11 13
M  V30 13 2 13 14
M  V30 14 1 7 15
M  V30 15 1 15 16
M  V30 16 2 16 17
M  V30 17 1 17 18
M  V30 18 2 18 19
M  V30 19 1 19 20
M  V30 20 1 19 21
M  V30 21 2 21 22
M  V30 22 1 15 23
M  V30 23 1 23 5
M  V30 24 1 14 8
M  V30 25 1 22 16
M  V30 26 1 1 24
M  V30 27 1 1 25
M  V30 28 1 1 26
M  V30 29 1 3 27
M  V30 30 1 3 28
M  V30 31 1 3 29
M  V30 32 1 4 30
M  V30 33 1 4 31
M  V30 34 1 4 32
M  V30 35 1 9 33
M  V30 36 1 10 34
M  V30 37 1 13 35
M  V30 38 1 14 36
M  V30 39 1 15 37
M  V30 40 1 17 38
M  V30 41 1 18 39
M  V30 42 1 20 40
M  V30 43 1 21 41
M  V30 44 1 22 42
M  V30 45 1 23 43
M  V30 46 1 23 44
M  V30 END BOND
M  V30 END CTAB
M  END
>  <Dataset>  (244) 
ChEMBL_Kinases

>  <Ligand_Instance>  (244) 
nan

>  <PDB_ID>  (244) 
nan

>  <Standardized_SMILES>  (244) 
CC(C)(C)C1=NN(c2ccc(Cl)cc2)C(c2ccc(O)cc2)C1

>  <Name>  (244) 
nan

>  <Pocket>  (244) 
nan

>  <ATP_Site>  (244) 
nan

>  <Peripheral>  (244) 
nan

>  <Num_H_Atoms_ProtBoundConf>  (244) 
nan

>  <Num_Resolved_Atoms>  (244) 
nan

>  <Num_Not_Resolved_Atoms>  (244) 
nan

$$$$
CHEMBL3323030
     RDKit          3D

  0  0  0  0  0  0  0  0  0  0999 V3000
M  V30 BEGIN CTAB
M  V30 COUNTS 53 56 0 0 0
M  V30 BEGIN ATOM
M  V30 1 C 4.450950 -2.629271 4.089994 0
M  V30 2 C 4.121136 -1.473605 3.219684 0
M  V30 3 O 2.908084 -1.335053 2.952961 0
M  V30 4 N 5.057095 -0.555879 2.694315 0
M  V30 5 C 4.851906 0.567483 1.864313 0
M  V30 6 C 5.938035 1.301974 1.490503 0
M  V30 7 C 5.831260 2.413065 0.682887 0
M  V30 8 C 4.608105 2.839452 0.209367 0
M  V30 9 C 3.514067 2.119279 0.571866 0
M  V30 10 C 2.201943 2.538858 0.090894 0
M  V30 11 C 0.964250 1.951770 0.338544 0
M  V30 12 N 0.046460 2.708989 -0.328792 0
M  V30 13 C -1.338420 2.369517 -0.278200 0
M  V30 14 C -2.297389 3.360617 -0.095709 0
M  V30 15 C -3.627511 2.987759 -0.052754 0
M  V30 16 C -4.006440 1.667420 -0.186528 0
M  V30 17 O -5.364455 1.373459 -0.132244 0
M  V30 18 C -3.077384 0.661570 -0.368817 0
M  V30 19 C -3.475041 -0.738146 -0.510910 0
M  V30 20 O -4.704172 -1.008375 -0.462307 0
M  V30 21 N -2.575047 -1.819287 -0.700316 0
M  V30 22 C -3.018090 -3.166374 -0.833091 0
M  V30 23 C -3.328538 -3.736201 -2.069733 0
M  V30 24 C -3.754426 -5.049640 -2.140619 0
M  V30 25 C -3.880505 -5.823315 -0.985029 0
M  V30 26 C -3.581087 -5.289052 0.254530 0
M  V30 27 C -3.708896 -6.096420 1.496759 0
M  V30 28 F -4.788877 -6.952221 1.465249 0
M  V30 29 F -3.886455 -5.268889 2.595829 0
M  V30 30 F -2.514114 -6.769542 1.707556 0
M  V30 31 C -3.151894 -3.959702 0.308470 0
M  V30 32 C -1.762775 1.057086 -0.408026 0
M  V30 33 N 0.693739 3.697927 -0.944892 0
M  V30 34 N 1.995005 3.605653 -0.698974 0
M  V30 35 C 3.664773 1.012621 1.382398 0
M  V30 36 H 4.227485 -3.556083 3.489526 0
M  V30 37 H 5.528768 -2.676616 4.337304 0
M  V30 38 H 3.800967 -2.669009 4.988195 0
M  V30 39 H 6.025115 -0.808764 3.008718 0
M  V30 40 H 6.935667 1.006921 1.839089 0
M  V30 41 H 6.742309 2.937905 0.434452 0
M  V30 42 H 4.604800 3.719906 -0.419352 0
M  V30 43 H 0.866718 1.080869 0.946497 0
M  V30 44 H -1.934697 4.381113 0.003083 0
M  V30 45 H -4.371939 3.759407 0.089191 0
M  V30 46 H -5.752446 0.906036 0.677295 0
M  V30 47 H -1.553621 -1.605575 -0.742008 0
M  V30 48 H -3.211982 -3.087733 -2.933877 0
M  V30 49 H -3.989865 -5.467238 -3.122973 0
M  V30 50 H -4.219504 -6.852663 -1.090775 0
M  V30 51 H -2.900465 -3.484620 1.268438 0
M  V30 52 H -0.969433 0.339158 -0.546735 0
M  V30 53 H 2.752893 0.499478 1.622358 0
M  V30 END ATOM
M  V30 BEGIN BOND
M  V30 1 1 1 2
M  V30 2 2 2 3
M  V30 3 1 2 4
M  V30 4 1 4 5
M  V30 5 2 5 6
M  V30 6 1 6 7
M  V30 7 2 7 8
M  V30 8 1 8 9
M  V30 9 1 9 10
M  V30 10 2 10 11
M  V30 11 1 11 12
M  V30 12 1 12 13
M  V30 13 2 13 14
M  V30 14 1 14 15
M  V30 15 2 15 16
M  V30 16 1 16 17
M  V30 17 1 16 18
M  V30 18 1 18 19
M  V30 19 2 19 20
M  V30 20 1 19 21
M  V30 21 1 21 22
M  V30 22 2 22 23
M  V30 23 1 23 24
M  V30 24 2 24 25
M  V30 25 1 25 26
M  V30 26 1 26 27
M  V30 27 1 27 28
M  V30 28 1 27 29
M  V30 29 1 27 30
M  V30 30 2 26 31
M  V30 31 2 18 32
M  V30 32 1 12 33
M  V30 33 2 33 34
M  V30 34 2 9 35
M  V30 35 1 35 5
M  V30 36 1 34 10
M  V30 37 1 32 13
M  V30 38 1 31 22
M  V30 39 1 1 36
M  V30 40 1 1 37
M  V30 41 1 1 38
M  V30 42 1 4 39
M  V30 43 1 6 40
M  V30 44 1 7 41
M  V30 45 1 8 42
M  V30 46 1 11 43
M  V30 47 1 14 44
M  V30 48 1 15 45
M  V30 49 1 17 46
M  V30 50 1 21 47
M  V30 51 1 23 48
M  V30 52 1 24 49
M  V30 53 1 25 50
M  V30 54 1 31 51
M  V30 55 1 32 52
M  V30 56 1 35 53
M  V30 END BOND
M  V30 END CTAB
M  END
>  <Dataset>  (245) 
ChEMBL_Kinases

>  <Ligand_Instance>  (245) 
nan

>  <PDB_ID>  (245) 
nan

>  <Standardized_SMILES>  (245) 
CC(=O)Nc1cccc(-c2cn(-c3ccc(O)c(C(=O)Nc4cccc(C(F)(F)F)c4)c3)nn2)c1

>  <Name>  (245) 
nan

>  <Pocket>  (245) 
nan

>  <ATP_Site>  (245) 
nan

>  <Peripheral>  (245) 
nan

>  <Num_H_Atoms_ProtBoundConf>  (245) 
nan

>  <Num_Resolved_Atoms>  (245) 
nan

>  <Num_Not_Resolved_Atoms>  (245) 
nan

$$$$
CHEMBL3323029
     RDKit          3D

  0  0  0  0  0  0  0  0  0  0999 V3000
M  V30 BEGIN CTAB
M  V30 COUNTS 43 46 0 0 0
M  V30 BEGIN ATOM
M  V30 1 O 3.730169 0.183499 1.310982 0
M  V30 2 C 2.559807 -0.136293 1.067635 0
M  V30 3 N 1.747796 0.846513 0.436106 0
M  V30 4 C 2.220887 2.141573 0.086721 0
M  V30 5 C 2.116703 3.188491 0.989232 0
M  V30 6 C 2.559379 4.480265 0.711903 0
M  V30 7 C 3.122863 4.662522 -0.547213 0
M  V30 8 C 3.242146 3.643428 -1.469249 0
M  V30 9 C 3.870214 4.041606 -2.751785 0
M  V30 10 F 3.140983 5.112520 -3.257752 0
M  V30 11 F 5.144746 4.510412 -2.501574 0
M  V30 12 F 3.847158 3.030105 -3.681552 0
M  V30 13 C 2.790675 2.392649 -1.145097 0
M  V30 14 C 2.093710 -1.469825 1.433987 0
M  V30 15 C 0.807182 -1.906825 1.199315 0
M  V30 16 C 0.342709 -3.160561 1.535533 0
M  V30 17 N -0.988929 -3.599192 1.287375 0
M  V30 18 C -2.124661 -3.003936 1.691368 0
M  V30 19 C -3.223405 -3.710164 1.267951 0
M  V30 20 C -4.620348 -3.409309 1.490943 0
M  V30 21 C -5.040874 -2.341322 2.178826 0
M  V30 22 C -6.378284 -2.055490 2.390926 0
M  V30 23 S -7.234022 -3.367116 1.577480 0
M  V30 24 C -5.686982 -4.253348 0.979279 0
M  V30 25 N -2.697992 -4.742268 0.600466 0
M  V30 26 N -1.383606 -4.664752 0.619665 0
M  V30 27 C 1.200979 -4.051376 2.146206 0
M  V30 28 C 2.497784 -3.650500 2.397967 0
M  V30 29 C 2.950686 -2.378755 2.051212 0
M  V30 30 O 4.267145 -2.050473 2.337005 0
M  V30 31 H 0.755244 0.610199 0.216329 0
M  V30 32 H 1.666057 2.967106 1.949351 0
M  V30 33 H 2.458628 5.267062 1.444854 0
M  V30 34 H 3.460714 5.680921 -0.738717 0
M  V30 35 H 2.899479 1.627855 -1.884025 0
M  V30 36 H 0.092782 -1.251229 0.723999 0
M  V30 37 H -2.150436 -2.089492 2.272719 0
M  V30 38 H -4.405745 -1.601266 2.634314 0
M  V30 39 H -6.941968 -1.322940 2.869048 0
M  V30 40 H -5.421345 -5.247150 0.342049 0
M  V30 41 H 0.915643 -5.049850 2.440428 0
M  V30 42 H 3.183461 -4.354063 2.882721 0
M  V30 43 H 4.587833 -1.898615 3.301860 0
M  V30 END ATOM
M  V30 BEGIN BOND
M  V30 1 2 1 2
M  V30 2 1 2 3
M  V30 3 1 3 4
M  V30 4 2 4 5
M  V30 5 1 5 6
M  V30 6 2 6 7
M  V30 7 1 7 8
M  V30 8 1 8 9
M  V30 9 1 9 10
M  V30 10 1 9 11
M  V30 11 1 9 12
M  V30 12 2 8 13
M  V30 13 1 2 14
M  V30 14 2 14 15
M  V30 15 1 15 16
M  V30 16 1 16 17
M  V30 17 1 17 18
M  V30 18 2 18 19
M  V30 19 1 19 20
M  V30 20 1 20 21
M  V30 21 2 21 22
M  V30 22 1 22 23
M  V30 23 1 23 24
M  V30 24 1 19 25
M  V30 25 2 25 26
M  V30 26 2 16 27
M  V30 27 1 27 28
M  V30 28 2 28 29
M  V30 29 1 29 30
M  V30 30 1 13 4
M  V30 31 1 29 14
M  V30 32 1 26 17
M  V30 33 2 24 20
M  V30 34 1 3 31
M  V30 35 1 5 32
M  V30 36 1 6 33
M  V30 37 1 7 34
M  V30 38 1 13 35
M  V30 39 1 15 36
M  V30 40 1 18 37
M  V30 41 1 21 38
M  V30 42 1 22 39
M  V30 43 1 24 40
M  V30 44 1 27 41
M  V30 45 1 28 42
M  V30 46 1 30 43
M  V30 END BOND
M  V30 END CTAB
M  END
>  <Dataset>  (246) 
ChEMBL_Kinases

>  <Ligand_Instance>  (246) 
nan

>  <PDB_ID>  (246) 
nan

>  <Standardized_SMILES>  (246) 
O=C(Nc1cccc(C(F)(F)F)c1)c1cc(-n2cc(-c3ccsc3)nn2)ccc1O

>  <Name>  (246) 
nan

>  <Pocket>  (246) 
nan

>  <ATP_Site>  (246) 
nan

>  <Peripheral>  (246) 
nan

>  <Num_H_Atoms_ProtBoundConf>  (246) 
nan

>  <Num_Resolved_Atoms>  (246) 
nan

>  <Num_Not_Resolved_Atoms>  (246) 
nan

$$$$
CHEMBL3323025
     RDKit          3D

  0  0  0  0  0  0  0  0  0  0999 V3000
M  V30 BEGIN CTAB
M  V30 COUNTS 49 52 0 0 0
M  V30 BEGIN ATOM
M  V30 1 C 4.755980 -5.235990 5.394850 0
M  V30 2 C 4.032470 -3.987796 4.970142 0
M  V30 3 C 3.565595 -3.137207 5.945031 0
M  V30 4 C 2.901271 -1.990862 5.562319 0
M  V30 5 C 2.680665 -1.653331 4.241977 0
M  V30 6 C 3.159995 -2.525160 3.281248 0
M  V30 7 C 3.042381 -2.372162 1.829380 0
M  V30 8 C 2.387006 -1.245582 1.325105 0
M  V30 9 N 2.408139 -1.331538 -0.030698 0
M  V30 10 C 1.927625 -0.531771 -1.115516 0
M  V30 11 C 2.792680 -0.188981 -2.136818 0
M  V30 12 C 2.312008 0.583075 -3.175704 0
M  V30 13 C 0.997493 0.998381 -3.186227 0
M  V30 14 O 0.585552 1.779951 -4.276674 0
M  V30 15 C 0.096168 0.682169 -2.190455 0
M  V30 16 C -1.286271 1.139071 -2.235551 0
M  V30 17 O -1.616929 1.836519 -3.228578 0
M  V30 18 N -2.268149 0.857408 -1.255288 0
M  V30 19 C -3.614390 1.250231 -1.212409 0
M  V30 20 C -4.306945 2.006284 -2.117566 0
M  V30 21 C -5.624284 2.357750 -2.020198 0
M  V30 22 C -6.351219 1.933969 -0.932322 0
M  V30 23 C -5.703674 1.169283 0.010711 0
M  V30 24 C -6.436200 0.682507 1.206961 0
M  V30 25 F -7.573043 1.431691 1.480206 0
M  V30 26 F -6.831746 -0.635537 0.956122 0
M  V30 27 F -5.648798 0.642707 2.325585 0
M  V30 28 C -4.374797 0.844513 -0.137376 0
M  V30 29 C 0.621433 -0.088637 -1.176791 0
M  V30 30 N 3.040871 -2.448235 -0.347218 0
M  V30 31 N 3.429456 -3.087148 0.755285 0
M  V30 32 C 3.837377 -3.695344 3.634938 0
M  V30 33 H 5.481477 -5.017504 6.191379 0
M  V30 34 H 4.037853 -6.007801 5.745699 0
M  V30 35 H 5.223323 -5.663639 4.484896 0
M  V30 36 H 3.695436 -3.325265 7.015622 0
M  V30 37 H 2.515974 -1.291449 6.297316 0
M  V30 38 H 2.175690 -0.784862 3.872984 0
M  V30 39 H 1.896622 -0.374019 1.738815 0
M  V30 40 H 3.820807 -0.523446 -2.112524 0
M  V30 41 H 2.994481 0.851447 -3.977995 0
M  V30 42 H 0.664907 2.774137 -4.320927 0
M  V30 43 H -1.873842 0.280088 -0.495765 0
M  V30 44 H -3.805405 2.368572 -2.985181 0
M  V30 45 H -6.120881 2.958965 -2.768215 0
M  V30 46 H -7.389997 2.183183 -0.808799 0
M  V30 47 H -3.915449 0.231649 0.649489 0
M  V30 48 H 0.019442 -0.392960 -0.356255 0
M  V30 49 H 4.234740 -4.414775 2.930589 0
M  V30 END ATOM
M  V30 BEGIN BOND
M  V30 1 1 1 2
M  V30 2 2 2 3
M  V30 3 1 3 4
M  V30 4 2 4 5
M  V30 5 1 5 6
M  V30 6 1 6 7
M  V30 7 2 7 8
M  V30 8 1 8 9
M  V30 9 1 9 10
M  V30 10 2 10 11
M  V30 11 1 11 12
M  V30 12 2 12 13
M  V30 13 1 13 14
M  V30 14 1 13 15
M  V30 15 1 15 16
M  V30 16 2 16 17
M  V30 17 1 16 18
M  V30 18 1 18 19
M  V30 19 2 19 20
M  V30 20 1 20 21
M  V30 21 2 21 22
M  V30 22 1 22 23
M  V30 23 1 23 24
M  V30 24 1 24 25
M  V30 25 1 24 26
M  V30 26 1 24 27
M  V30 27 2 23 28
M  V30 28 2 15 29
M  V30 29 1 9 30
M  V30 30 2 30 31
M  V30 31 2 6 32
M  V30 32 1 32 2
M  V30 33 1 31 7
M  V30 34 1 29 10
M  V30 35 1 28 19
M  V30 36 1 1 33
M  V30 37 1 1 34
M  V30 38 1 1 35
M  V30 39 1 3 36
M  V30 40 1 4 37
M  V30 41 1 5 38
M  V30 42 1 8 39
M  V30 43 1 11 40
M  V30 44 1 12 41
M  V30 45 1 14 42
M  V30 46 1 18 43
M  V30 47 1 20 44
M  V30 48 1 21 45
M  V30 49 1 22 46
M  V30 50 1 28 47
M  V30 51 1 29 48
M  V30 52 1 32 49
M  V30 END BOND
M  V30 END CTAB
M  END
>  <Dataset>  (247) 
ChEMBL_Kinases

>  <Ligand_Instance>  (247) 
nan

>  <PDB_ID>  (247) 
nan

>  <Standardized_SMILES>  (247) 
Cc1cccc(-c2cn(-c3ccc(O)c(C(=O)Nc4cccc(C(F)(F)F)c4)c3)nn2)c1

>  <Name>  (247) 
nan

>  <Pocket>  (247) 
nan

>  <ATP_Site>  (247) 
nan

>  <Peripheral>  (247) 
nan

>  <Num_H_Atoms_ProtBoundConf>  (247) 
nan

>  <Num_Resolved_Atoms>  (247) 
nan

>  <Num_Not_Resolved_Atoms>  (247) 
nan

$$$$
CHEMBL3323024
     RDKit          3D

  0  0  0  0  0  0  0  0  0  0999 V3000
M  V30 BEGIN CTAB
M  V30 COUNTS 52 55 0 0 0
M  V30 BEGIN ATOM
M  V30 1 C 6.749410 -4.866205 5.117353 0
M  V30 2 O 6.464149 -3.857490 4.165888 0
M  V30 3 C 5.153351 -3.377522 3.992883 0
M  V30 4 O 4.446533 -4.020034 4.810432 0
M  V30 5 C 4.760658 -2.343781 3.041716 0
M  V30 6 C 5.595003 -1.676744 2.168979 0
M  V30 7 C 5.036657 -0.724616 1.339792 0
M  V30 8 C 3.684716 -0.464090 1.398462 0
M  V30 9 C 3.127761 0.550301 0.506097 0
M  V30 10 C 1.812504 0.956709 0.408776 0
M  V30 11 N 1.710578 1.916103 -0.536301 0
M  V30 12 C 0.443098 2.502548 -0.826824 0
M  V30 13 C 0.352557 3.853041 -1.093591 0
M  V30 14 C -0.883643 4.397653 -1.371703 0
M  V30 15 C -2.003746 3.594763 -1.379975 0
M  V30 16 O -3.235646 4.200303 -1.668930 0
M  V30 17 C -1.979642 2.240884 -1.122014 0
M  V30 18 C -3.189249 1.434327 -1.142242 0
M  V30 19 O -4.259570 2.030134 -1.406261 0
M  V30 20 N -3.241258 0.045562 -0.888592 0
M  V30 21 C -4.348701 -0.826270 -0.881987 0
M  V30 22 C -5.663027 -0.514845 -1.127037 0
M  V30 23 C -6.718986 -1.397521 -1.111082 0
M  V30 24 C -6.453361 -2.719384 -0.825044 0
M  V30 25 C -5.149441 -3.083105 -0.571649 0
M  V30 26 C -4.817463 -4.496616 -0.258971 0
M  V30 27 F -5.450802 -5.343519 -1.164100 0
M  V30 28 F -5.227771 -4.876061 0.990751 0
M  V30 29 F -3.472984 -4.737570 -0.386461 0
M  V30 30 C -4.131889 -2.155536 -0.601486 0
M  V30 31 C -0.718151 1.758701 -0.852047 0
M  V30 32 N 2.925832 2.108162 -1.019852 0
M  V30 33 N 3.786947 1.293879 -0.402242 0
M  V30 34 C 2.828932 -1.118507 2.263555 0
M  V30 35 C 3.403979 -2.071771 3.089912 0
M  V30 36 H 6.892368 -4.403605 6.120276 0
M  V30 37 H 7.632425 -5.421681 4.750134 0
M  V30 38 H 5.918667 -5.599334 5.206265 0
M  V30 39 H 6.640925 -1.965471 2.211682 0
M  V30 40 H 5.708973 -0.213460 0.663148 0
M  V30 41 H 1.037984 0.528680 1.025751 0
M  V30 42 H 1.248377 4.452827 -1.079021 0
M  V30 43 H -0.969031 5.456670 -1.582941 0
M  V30 44 H -3.652363 4.676428 -0.856061 0
M  V30 45 H -2.296251 -0.334001 -0.683037 0
M  V30 46 H -5.924616 0.501017 -1.355018 0
M  V30 47 H -7.730248 -1.075026 -1.315187 0
M  V30 48 H -7.242181 -3.458315 -0.798169 0
M  V30 49 H -3.117253 -2.506968 -0.391449 0
M  V30 50 H -0.576495 0.710588 -0.634869 0
M  V30 51 H 1.769162 -0.895380 2.290451 0
M  V30 52 H 2.686564 -2.561391 3.755527 0
M  V30 END ATOM
M  V30 BEGIN BOND
M  V30 1 1 1 2
M  V30 2 1 2 3
M  V30 3 2 3 4
M  V30 4 1 3 5
M  V30 5 2 5 6
M  V30 6 1 6 7
M  V30 7 2 7 8
M  V30 8 1 8 9
M  V30 9 2 9 10
M  V30 10 1 10 11
M  V30 11 1 11 12
M  V30 12 2 12 13
M  V30 13 1 13 14
M  V30 14 2 14 15
M  V30 15 1 15 16
M  V30 16 1 15 17
M  V30 17 1 17 18
M  V30 18 2 18 19
M  V30 19 1 18 20
M  V30 20 1 20 21
M  V30 21 2 21 22
M  V30 22 1 22 23
M  V30 23 2 23 24
M  V30 24 1 24 25
M  V30 25 1 25 26
M  V30 26 1 26 27
M  V30 27 1 26 28
M  V30 28 1 26 29
M  V30 29 2 25 30
M  V30 30 2 17 31
M  V30 31 1 11 32
M  V30 32 2 32 33
M  V30 33 1 8 34
M  V30 34 2 34 35
M  V30 35 1 35 5
M  V30 36 1 33 9
M  V30 37 1 31 12
M  V30 38 1 30 21
M  V30 39 1 1 36
M  V30 40 1 1 37
M  V30 41 1 1 38
M  V30 42 1 6 39
M  V30 43 1 7 40
M  V30 44 1 10 41
M  V30 45 1 13 42
M  V30 46 1 14 43
M  V30 47 1 16 44
M  V30 48 1 20 45
M  V30 49 1 22 46
M  V30 50 1 23 47
M  V30 51 1 24 48
M  V30 52 1 30 49
M  V30 53 1 31 50
M  V30 54 1 34 51
M  V30 55 1 35 52
M  V30 END BOND
M  V30 END CTAB
M  END
>  <Dataset>  (248) 
ChEMBL_Kinases

>  <Ligand_Instance>  (248) 
nan

>  <PDB_ID>  (248) 
nan

>  <Standardized_SMILES>  (248) 
COC(=O)c1ccc(-c2cn(-c3ccc(O)c(C(=O)Nc4cccc(C(F)(F)F)c4)c3)nn2)cc1

>  <Name>  (248) 
nan

>  <Pocket>  (248) 
nan

>  <ATP_Site>  (248) 
nan

>  <Peripheral>  (248) 
nan

>  <Num_H_Atoms_ProtBoundConf>  (248) 
nan

>  <Num_Resolved_Atoms>  (248) 
nan

>  <Num_Not_Resolved_Atoms>  (248) 
nan

$$$$
CHEMBL3323023
     RDKit          3D

  0  0  0  0  0  0  0  0  0  0999 V3000
M  V30 BEGIN CTAB
M  V30 COUNTS 46 49 0 0 0
M  V30 BEGIN ATOM
M  V30 1 O 0.570833 2.345193 3.901457 0
M  V30 2 C 0.431489 1.644485 2.866325 0
M  V30 3 N 1.576744 1.155370 2.240193 0
M  V30 4 C 2.941809 1.317209 2.582737 0
M  V30 5 C 3.453729 2.018520 3.648003 0
M  V30 6 C 4.796259 2.135872 3.923687 0
M  V30 7 C 5.714283 1.536705 3.118646 0
M  V30 8 C 5.250121 0.828710 2.047312 0
M  V30 9 C 6.208375 0.156401 1.138412 0
M  V30 10 F 6.220836 -1.216304 1.302325 0
M  V30 11 F 5.797429 0.413701 -0.168460 0
M  V30 12 F 7.451228 0.726325 1.304716 0
M  V30 13 C 3.904844 0.727306 1.794735 0
M  V30 14 C -0.931455 1.406957 2.413334 0
M  V30 15 C -1.275042 0.678600 1.322017 0
M  V30 16 C -2.558671 0.442009 0.876587 0
M  V30 17 N -2.841136 -0.337151 -0.284223 0
M  V30 18 C -2.281552 -1.546610 -0.478064 0
M  V30 19 C -2.746670 -2.047422 -1.681022 0
M  V30 20 C -2.382272 -3.336148 -2.261123 0
M  V30 21 C -2.896823 -3.735087 -3.451453 0
M  V30 22 C -2.552034 -4.968482 -4.013040 0
M  V30 23 C -1.657288 -5.766726 -3.294454 0
M  V30 24 C -1.115409 -5.397958 -2.087422 0
M  V30 25 Cl 0.004436 -6.423733 -1.212263 0
M  V30 26 C -1.502403 -4.171715 -1.600312 0
M  V30 27 N -3.568869 -1.131625 -2.176264 0
M  V30 28 N -3.626839 -0.097693 -1.333226 0
M  V30 29 C -3.610325 0.984170 1.587481 0
M  V30 30 C -3.331884 1.736700 2.709081 0
M  V30 31 C -2.022637 1.929933 3.093118 0
M  V30 32 O -1.848285 2.703285 4.237073 0
M  V30 33 H 1.348902 0.588950 1.394478 0
M  V30 34 H 2.792088 2.511138 4.317118 0
M  V30 35 H 5.140144 2.702223 4.778566 0
M  V30 36 H 6.764482 1.624200 3.328001 0
M  V30 37 H 3.596873 0.141866 0.914719 0
M  V30 38 H -0.514949 0.219533 0.709969 0
M  V30 39 H -1.585954 -2.066666 0.171631 0
M  V30 40 H -3.585005 -3.132389 -4.014341 0
M  V30 41 H -2.919595 -5.365853 -4.965122 0
M  V30 42 H -1.377602 -6.724964 -3.711721 0
M  V30 43 H -1.062982 -3.884841 -0.632527 0
M  V30 44 H -4.621200 0.815879 1.263053 0
M  V30 45 H -4.154106 2.152426 3.252954 0
M  V30 46 H -2.505620 2.661235 5.015209 0
M  V30 END ATOM
M  V30 BEGIN BOND
M  V30 1 2 1 2
M  V30 2 1 2 3
M  V30 3 1 3 4
M  V30 4 2 4 5
M  V30 5 1 5 6
M  V30 6 2 6 7
M  V30 7 1 7 8
M  V30 8 1 8 9
M  V30 9 1 9 10
M  V30 10 1 9 11
M  V30 11 1 9 12
M  V30 12 2 8 13
M  V30 13 1 2 14
M  V30 14 2 14 15
M  V30 15 1 15 16
M  V30 16 1 16 17
M  V30 17 1 17 18
M  V30 18 2 18 19
M  V30 19 1 19 20
M  V30 20 2 20 21
M  V30 21 1 21 22
M  V30 22 2 22 23
M  V30 23 1 23 24
M  V30 24 1 24 25
M  V30 25 2 24 26
M  V30 26 1 19 27
M  V30 27 2 27 28
M  V30 28 2 16 29
M  V30 29 1 29 30
M  V30 30 2 30 31
M  V30 31 1 31 32
M  V30 32 1 13 4
M  V30 33 1 31 14
M  V30 34 1 28 17
M  V30 35 1 26 20
M  V30 36 1 3 33
M  V30 37 1 5 34
M  V30 38 1 6 35
M  V30 39 1 7 36
M  V30 40 1 13 37
M  V30 41 1 15 38
M  V30 42 1 18 39
M  V30 43 1 21 40
M  V30 44 1 22 41
M  V30 45 1 23 42
M  V30 46 1 26 43
M  V30 47 1 29 44
M  V30 48 1 30 45
M  V30 49 1 32 46
M  V30 END BOND
M  V30 END CTAB
M  END
>  <Dataset>  (249) 
ChEMBL_Kinases

>  <Ligand_Instance>  (249) 
nan

>  <PDB_ID>  (249) 
nan

>  <Standardized_SMILES>  (249) 
O=C(Nc1cccc(C(F)(F)F)c1)c1cc(-n2cc(-c3cccc(Cl)c3)nn2)ccc1O

>  <Name>  (249) 
nan

>  <Pocket>  (249) 
nan

>  <ATP_Site>  (249) 
nan

>  <Peripheral>  (249) 
nan

>  <Num_H_Atoms_ProtBoundConf>  (249) 
nan

>  <Num_Resolved_Atoms>  (249) 
nan

>  <Num_Not_Resolved_Atoms>  (249) 
nan

$$$$
CHEMBL3323022
     RDKit          3D

  0  0  0  0  0  0  0  0  0  0999 V3000
M  V30 BEGIN CTAB
M  V30 COUNTS 54 57 0 0 0
M  V30 BEGIN ATOM
M  V30 1 C 7.339454 1.118167 4.466831 0
M  V30 2 O 6.077835 0.540256 4.314926 0
M  V30 3 C 5.092365 0.973375 3.438114 0
M  V30 4 C 5.111617 2.019146 2.551721 0
M  V30 5 C 4.006599 2.278310 1.762567 0
M  V30 6 O 4.105219 3.342231 0.901463 0
M  V30 7 C 5.225064 4.174058 0.763369 0
M  V30 8 C 2.862389 1.505875 1.837443 0
M  V30 9 C 1.725674 1.830959 0.974587 0
M  V30 10 C 0.531999 1.134493 0.959622 0
M  V30 11 N -0.303587 1.686153 0.056283 0
M  V30 12 C -1.642666 1.343039 -0.338021 0
M  V30 13 C -2.558392 2.349308 -0.567836 0
M  V30 14 C -3.839980 1.993197 -0.946593 0
M  V30 15 C -4.128200 0.651631 -1.072522 0
M  V30 16 O -5.453733 0.374489 -1.461499 0
M  V30 17 C -3.247335 -0.386536 -0.853700 0
M  V30 18 C -3.663008 -1.772029 -1.018564 0
M  V30 19 O -4.849561 -1.981515 -1.366515 0
M  V30 20 N -2.830805 -2.876095 -0.815541 0
M  V30 21 C -3.101120 -4.259014 -0.938848 0
M  V30 22 C -2.109326 -5.180929 -0.682180 0
M  V30 23 C -2.290409 -6.541097 -0.779287 0
M  V30 24 C -3.495085 -7.061626 -1.145033 0
M  V30 25 C -4.517865 -6.187628 -1.412245 0
M  V30 26 C -5.841429 -6.730463 -1.813265 0
M  V30 27 F -5.648646 -7.713060 -2.786972 0
M  V30 28 F -6.422700 -7.249287 -0.679578 0
M  V30 29 F -6.663321 -5.736204 -2.286286 0
M  V30 30 C -4.295348 -4.834607 -1.303324 0
M  V30 31 C -1.985098 0.019673 -0.478875 0
M  V30 32 N 0.355225 2.709362 -0.484170 0
M  V30 33 N 1.561972 2.810259 0.049214 0
M  V30 34 C 2.833204 0.447929 2.729225 0
M  V30 35 C 3.938205 0.192468 3.515169 0
M  V30 36 Cl 3.751697 -1.185740 4.601408 0
M  V30 37 H 7.778832 0.733167 5.420150 0
M  V30 38 H 7.338743 2.214996 4.534419 0
M  V30 39 H 8.001616 0.753877 3.665462 0
M  V30 40 H 6.039847 2.570387 2.555767 0
M  V30 41 H 4.936178 5.066674 0.162919 0
M  V30 42 H 5.533241 4.582038 1.746593 0
M  V30 43 H 6.047337 3.582780 0.290100 0
M  V30 44 H 0.222010 0.269990 1.542810 0
M  V30 45 H -2.335292 3.393607 -0.470196 0
M  V30 46 H -4.576512 2.762928 -1.132352 0
M  V30 47 H -6.247554 0.532203 -0.859377 0
M  V30 48 H -1.867242 -2.602465 -0.529268 0
M  V30 49 H -1.116631 -4.817266 -0.383038 0
M  V30 50 H -1.458650 -7.184140 -0.559633 0
M  V30 51 H -3.592472 -8.126535 -1.208156 0
M  V30 52 H -5.135475 -4.221555 -1.526331 0
M  V30 53 H -1.228257 -0.705996 -0.285477 0
M  V30 54 H 1.920338 -0.126692 2.753220 0
M  V30 END ATOM
M  V30 BEGIN BOND
M  V30 1 1 1 2
M  V30 2 1 2 3
M  V30 3 2 3 4
M  V30 4 1 4 5
M  V30 5 1 5 6
M  V30 6 1 6 7
M  V30 7 2 5 8
M  V30 8 1 8 9
M  V30 9 2 9 10
M  V30 10 1 10 11
M  V30 11 1 11 12
M  V30 12 2 12 13
M  V30 13 1 13 14
M  V30 14 2 14 15
M  V30 15 1 15 16
M  V30 16 1 15 17
M  V30 17 1 17 18
M  V30 18 2 18 19
M  V30 19 1 18 20
M  V30 20 1 20 21
M  V30 21 2 21 22
M  V30 22 1 22 23
M  V30 23 2 23 24
M  V30 24 1 24 25
M  V30 25 1 25 26
M  V30 26 1 26 27
M  V30 27 1 26 28
M  V30 28 1 26 29
M  V30 29 2 25 30
M  V30 30 2 17 31
M  V30 31 1 11 32
M  V30 32 2 32 33
M  V30 33 1 8 34
M  V30 34 2 34 35
M  V30 35 1 35 36
M  V30 36 1 35 3
M  V30 37 1 33 9
M  V30 38 1 31 12
M  V30 39 1 30 21
M  V30 40 1 1 37
M  V30 41 1 1 38
M  V30 42 1 1 39
M  V30 43 1 4 40
M  V30 44 1 7 41
M  V30 45 1 7 42
M  V30 46 1 7 43
M  V30 47 1 10 44
M  V30 48 1 13 45
M  V30 49 1 14 46
M  V30 50 1 16 47
M  V30 51 1 20 48
M  V30 52 1 22 49
M  V30 53 1 23 50
M  V30 54 1 24 51
M  V30 55 1 30 52
M  V30 56 1 31 53
M  V30 57 1 34 54
M  V30 END BOND
M  V30 END CTAB
M  END
>  <Dataset>  (250) 
ChEMBL_Kinases

>  <Ligand_Instance>  (250) 
nan

>  <PDB_ID>  (250) 
nan

>  <Standardized_SMILES>  (250) 
COc1cc(OC)c(-c2cn(-c3ccc(O)c(C(=O)Nc4cccc(C(F)(F)F)c4)c3)nn2)cc1Cl

>  <Name>  (250) 
nan

>  <Pocket>  (250) 
nan

>  <ATP_Site>  (250) 
nan

>  <Peripheral>  (250) 
nan

>  <Num_H_Atoms_ProtBoundConf>  (250) 
nan

>  <Num_Resolved_Atoms>  (250) 
nan

>  <Num_Not_Resolved_Atoms>  (250) 
nan

$$$$
CHEMBL3322591
     RDKit          3D

  0  0  0  0  0  0  0  0  0  0999 V3000
M  V30 BEGIN CTAB
M  V30 COUNTS 43 46 0 0 0
M  V30 BEGIN ATOM
M  V30 1 C -1.437725 -6.617442 -1.486960 0
M  V30 2 C -0.445406 -5.741246 -2.148447 0
M  V30 3 C 0.243657 -6.310224 -3.192264 0
M  V30 4 N 1.162355 -5.542218 -3.810532 0
M  V30 5 C 1.407070 -4.263845 -3.429985 0
M  V30 6 C 0.695674 -3.751956 -2.388107 0
M  V30 7 C 1.154116 -2.408038 -2.063744 0
M  V30 8 O 2.051067 -1.750809 -2.749880 0
M  V30 9 N 0.968583 -1.464808 -1.187572 0
M  V30 10 C 0.757174 -0.389625 -0.188927 0
M  V30 11 C -0.179035 0.579023 -0.491285 0
M  V30 12 C -0.281795 1.545665 0.478778 0
M  V30 13 C 0.463114 1.552009 1.625764 0
M  V30 14 C 1.384438 0.565464 1.887086 0
M  V30 15 C 1.563630 -0.474849 0.947659 0
M  V30 16 N 2.106529 0.629667 3.103668 0
M  V30 17 C 1.573401 1.819753 3.699200 0
M  V30 18 O 1.930952 2.285483 4.817855 0
M  V30 19 C 0.574667 2.386835 2.809192 0
M  V30 20 C -0.133262 3.491748 2.928453 0
M  V30 21 C -0.035290 4.318000 4.100607 0
M  V30 22 C -0.310647 3.666522 5.319497 0
M  V30 23 C -0.166140 4.527028 6.383084 0
M  V30 24 C 0.199972 5.718361 5.818637 0
M  V30 25 N 0.281660 5.615625 4.494310 0
M  V30 26 C -0.269013 -4.442937 -1.684944 0
M  V30 27 O -0.885927 -3.927902 -0.752365 0
M  V30 28 H -2.235968 -6.965832 -2.183821 0
M  V30 29 H -1.943370 -6.111764 -0.640257 0
M  V30 30 H -0.965407 -7.532775 -1.067821 0
M  V30 31 H 0.094641 -7.319049 -3.539180 0
M  V30 32 H 1.691951 -5.969046 -4.608436 0
M  V30 33 H 2.163893 -3.765621 -4.001062 0
M  V30 34 H 0.211305 -2.019203 -0.617304 0
M  V30 35 H -0.773657 0.600627 -1.385851 0
M  V30 36 H -0.973556 2.385798 0.389665 0
M  V30 37 H 2.265577 -1.297416 1.061261 0
M  V30 38 H 2.828707 0.004517 3.484411 0
M  V30 39 H -0.834596 3.920245 2.230582 0
M  V30 40 H -0.618583 2.653046 5.645674 0
M  V30 41 H -0.246537 4.540716 7.439968 0
M  V30 42 H 0.431640 6.693923 6.208637 0
M  V30 43 H 0.505105 6.187166 3.633546 0
M  V30 END ATOM
M  V30 BEGIN BOND
M  V30 1 1 1 2
M  V30 2 2 2 3
M  V30 3 1 3 4
M  V30 4 1 4 5
M  V30 5 2 5 6
M  V30 6 1 6 7
M  V30 7 2 7 8
M  V30 8 1 7 9
M  V30 9 1 9 10
M  V30 10 2 10 11
M  V30 11 1 11 12
M  V30 12 2 12 13
M  V30 13 1 13 14
M  V30 14 2 14 15
M  V30 15 1 14 16
M  V30 16 1 16 17
M  V30 17 2 17 18
M  V30 18 1 17 19
M  V30 19 2 19 20
M  V30 20 1 20 21
M  V30 21 2 21 22
M  V30 22 1 22 23
M  V30 23 2 23 24
M  V30 24 1 24 25
M  V30 25 1 6 26
M  V30 26 2 26 27
M  V30 27 1 26 2
M  V30 28 1 15 10
M  V30 29 1 25 21
M  V30 30 1 19 13
M  V30 31 1 1 28
M  V30 32 1 1 29
M  V30 33 1 1 30
M  V30 34 1 3 31
M  V30 35 1 4 32
M  V30 36 1 5 33
M  V30 37 1 9 34
M  V30 38 1 11 35
M  V30 39 1 12 36
M  V30 40 1 15 37
M  V30 41 1 16 38
M  V30 42 1 20 39
M  V30 43 1 22 40
M  V30 44 1 23 41
M  V30 45 1 24 42
M  V30 46 1 25 43
M  V30 END BOND
M  V30 END CTAB
M  END
>  <Dataset>  (251) 
ChEMBL_Kinases

>  <Ligand_Instance>  (251) 
nan

>  <PDB_ID>  (251) 
nan

>  <Standardized_SMILES>  (251) 
Cc1c[nH]cc(C(=O)Nc2ccc3c(c2)NC(=O)/C3=C\c2ccc[nH]2)c1=O

>  <Name>  (251) 
nan

>  <Pocket>  (251) 
nan

>  <ATP_Site>  (251) 
nan

>  <Peripheral>  (251) 
nan

>  <Num_H_Atoms_ProtBoundConf>  (251) 
nan

>  <Num_Resolved_Atoms>  (251) 
nan

>  <Num_Not_Resolved_Atoms>  (251) 
nan

$$$$
CHEMBL3322592
     RDKit          3D

  0  0  0  0  0  0  0  0  0  0999 V3000
M  V30 BEGIN CTAB
M  V30 COUNTS 63 67 0 0 0
M  V30 BEGIN ATOM
M  V30 1 C 5.735071 0.019280 8.658138 0
M  V30 2 O 4.831525 1.087369 8.911122 0
M  V30 3 C 4.180314 1.673519 7.823908 0
M  V30 4 C 3.311441 2.707914 8.106289 0
M  V30 5 C 2.681545 3.269430 7.017697 0
M  V30 6 C 2.878253 2.855732 5.718375 0
M  V30 7 C 2.241137 3.417799 4.533805 0
M  V30 8 C 2.129031 4.772033 4.277096 0
M  V30 9 N 1.518541 5.199652 3.136720 0
M  V30 10 C 1.016168 4.317473 2.244073 0
M  V30 11 C 1.102291 2.949036 2.453979 0
M  V30 12 C 0.504565 2.157152 1.392149 0
M  V30 13 O -0.043850 2.628425 0.358697 0
M  V30 14 N 0.445647 0.754123 1.354509 0
M  V30 15 C -0.115282 -0.094157 0.363242 0
M  V30 16 C 0.627876 -0.574434 -0.694124 0
M  V30 17 C 0.013463 -1.396084 -1.622222 0
M  V30 18 C -1.315894 -1.682027 -1.424199 0
M  V30 19 C -2.079469 -1.214221 -0.375878 0
M  V30 20 C -1.469013 -0.381632 0.570373 0
M  V30 21 N -3.421282 -1.694656 -0.461751 0
M  V30 22 C -3.502898 -2.501946 -1.618546 0
M  V30 23 O -4.559755 -3.060173 -1.955690 0
M  V30 24 C -2.192061 -2.510709 -2.241011 0
M  V30 25 C -1.991644 -3.180597 -3.361258 0
M  V30 26 C -2.885935 -4.003195 -4.153231 0
M  V30 27 N -3.765567 -4.987814 -3.964792 0
M  V30 28 C -4.364259 -5.387957 -5.074139 0
M  V30 29 C -5.395457 -6.475138 -5.154033 0
M  V30 30 C -3.862705 -4.627839 -6.099046 0
M  V30 31 C -4.257048 -4.746532 -7.499660 0
M  V30 32 O -5.178807 -4.151551 -8.117054 0
M  V30 33 O -3.489353 -5.649638 -8.225901 0
M  V30 34 C -2.945914 -3.768249 -5.533167 0
M  V30 35 C -2.184644 -2.770114 -6.365909 0
M  V30 36 C 1.715583 2.559043 3.598179 0
M  V30 37 O 1.797599 1.344581 3.795445 0
M  V30 38 C 3.753049 1.818318 5.461458 0
M  V30 39 C 4.403312 1.231465 6.537883 0
M  V30 40 H 6.610819 0.416202 8.077413 0
M  V30 41 H 6.120104 -0.428446 9.574689 0
M  V30 42 H 5.296841 -0.791317 8.044651 0
M  V30 43 H 3.111477 3.081621 9.104413 0
M  V30 44 H 1.991985 4.079601 7.170306 0
M  V30 45 H 2.543635 5.436123 5.017016 0
M  V30 46 H 1.450215 6.215348 2.972739 0
M  V30 47 H 0.551228 4.761573 1.371034 0
M  V30 48 H 0.842991 0.169927 2.116919 0
M  V30 49 H 1.661418 -0.294668 -0.763240 0
M  V30 50 H 0.583848 -1.780356 -2.455789 0
M  V30 51 H -2.026078 0.008482 1.406654 0
M  V30 52 H -4.166318 -1.471762 0.215177 0
M  V30 53 H -0.950146 -3.068309 -3.718146 0
M  V30 54 H -3.935060 -5.390720 -3.040141 0
M  V30 55 H -4.881318 -7.415464 -5.429073 0
M  V30 56 H -6.154215 -6.253842 -5.917731 0
M  V30 57 H -5.851827 -6.612769 -4.135969 0
M  V30 58 H -3.515779 -5.711813 -9.242301 0
M  V30 59 H -1.155660 -2.669752 -5.916134 0
M  V30 60 H -2.078263 -3.110650 -7.397860 0
M  V30 61 H -2.686447 -1.801406 -6.321706 0
M  V30 62 H 4.019960 1.374081 4.497180 0
M  V30 63 H 5.095556 0.422068 6.418668 0
M  V30 END ATOM
M  V30 BEGIN BOND
M  V30 1 1 1 2
M  V30 2 1 2 3
M  V30 3 2 3 4
M  V30 4 1 4 5
M  V30 5 2 5 6
M  V30 6 1 6 7
M  V30 7 2 7 8
M  V30 8 1 8 9
M  V30 9 1 9 10
M  V30 10 2 10 11
M  V30 11 1 11 12
M  V30 12 2 12 13
M  V30 13 1 12 14
M  V30 14 1 14 15
M  V30 15 2 15 16
M  V30 16 1 16 17
M  V30 17 2 17 18
M  V30 18 1 18 19
M  V30 19 2 19 20
M  V30 20 1 19 21
M  V30 21 1 21 22
M  V30 22 2 22 23
M  V30 23 1 22 24
M  V30 24 2 24 25
M  V30 25 1 25 26
M  V30 26 1 26 27
M  V30 27 1 27 28
M  V30 28 1 28 29
M  V30 29 2 28 30
M  V30 30 1 30 31
M  V30 31 2 31 32
M  V30 32 1 31 33
M  V30 33 1 30 34
M  V30 34 1 34 35
M  V30 35 1 11 36
M  V30 36 2 36 37
M  V30 37 1 6 38
M  V30 38 2 38 39
M  V30 39 1 39 3
M  V30 40 1 36 7
M  V30 41 1 20 15
M  V30 42 2 34 26
M  V30 43 1 24 18
M  V30 44 1 1 40
M  V30 45 1 1 41
M  V30 46 1 1 42
M  V30 47 1 4 43
M  V30 48 1 5 44
M  V30 49 1 8 45
M  V30 50 1 9 46
M  V30 51 1 10 47
M  V30 52 1 14 48
M  V30 53 1 16 49
M  V30 54 1 17 50
M  V30 55 1 20 51
M  V30 56 1 21 52
M  V30 57 1 25 53
M  V30 58 1 27 54
M  V30 59 1 29 55
M  V30 60 1 29 56
M  V30 61 1 29 57
M  V30 62 1 33 58
M  V30 63 1 35 59
M  V30 64 1 35 60
M  V30 65 1 35 61
M  V30 66 1 38 62
M  V30 67 1 39 63
M  V30 END BOND
M  V30 END CTAB
M  END
>  <Dataset>  (252) 
ChEMBL_Kinases

>  <Ligand_Instance>  (252) 
nan

>  <PDB_ID>  (252) 
nan

>  <Standardized_SMILES>  (252) 
COc1ccc(-c2c[nH]cc(C(=O)Nc3ccc4c(c3)NC(=O)/C4=C\c3[nH]c(C)c(C(=O)O)c3C)c2=O)cc1

>  <Name>  (252) 
nan

>  <Pocket>  (252) 
nan

>  <ATP_Site>  (252) 
nan

>  <Peripheral>  (252) 
nan

>  <Num_H_Atoms_ProtBoundConf>  (252) 
nan

>  <Num_Resolved_Atoms>  (252) 
nan

>  <Num_Not_Resolved_Atoms>  (252) 
nan

$$$$
CHEMBL3322593
     RDKit          3D

  0  0  0  0  0  0  0  0  0  0999 V3000
M  V30 BEGIN CTAB
M  V30 COUNTS 75 80 0 0 0
M  V30 BEGIN ATOM
M  V30 1 C 5.443982 -0.844525 -1.024520 0
M  V30 2 C 4.029112 -0.338242 -1.025172 0
M  V30 3 N 3.484895 0.179894 -2.188115 0
M  V30 4 C 2.230867 0.456891 -1.871117 0
M  V30 5 C 0.973508 0.832263 -2.508217 0
M  V30 6 C 0.030454 1.758397 -2.185036 0
M  V30 7 C 0.038369 2.680803 -1.084086 0
M  V30 8 O 1.165575 3.016797 -0.671949 0
M  V30 9 N -1.308759 2.888167 -0.858265 0
M  V30 10 C -2.077620 2.119932 -1.785860 0
M  V30 11 C -3.498098 1.920499 -1.762883 0
M  V30 12 C -3.889618 0.956058 -2.724463 0
M  V30 13 N -5.223478 0.559359 -2.140881 0
M  V30 14 C -4.977171 -0.580955 -1.301650 0
M  V30 15 O -3.821448 -0.352869 -1.837161 0
M  V30 16 C -4.744389 -1.740199 -0.443220 0
M  V30 17 C -3.529917 -2.457579 -0.632991 0
M  V30 18 N -3.281704 -3.606067 -0.021737 0
M  V30 19 C -4.262514 -3.991640 0.752974 0
M  V30 20 C -5.530102 -3.386127 1.047173 0
M  V30 21 C -6.263281 -4.165485 2.004148 0
M  V30 22 C -6.377869 -5.538204 1.657021 0
M  V30 23 C -7.018602 -6.445074 2.495856 0
M  V30 24 C -7.547255 -6.027138 3.670757 0
M  V30 25 F -8.134865 -6.932222 4.461437 0
M  V30 26 C -7.478302 -4.711063 4.068877 0
M  V30 27 C -6.837537 -3.843223 3.218554 0
M  V30 28 C -5.688947 -2.238678 0.386908 0
M  V30 29 O -6.777093 -1.675501 0.613618 0
M  V30 30 C -3.220928 0.214905 -3.653257 0
M  V30 31 C -1.868812 0.480418 -3.587651 0
M  V30 32 C -1.322462 1.367764 -2.703829 0
M  V30 33 C 1.998823 0.127494 -0.509789 0
M  V30 34 C 0.864611 0.135126 0.479352 0
M  V30 35 C 3.141242 -0.392223 0.082314 0
M  V30 36 C 3.718525 -0.931426 1.352109 0
M  V30 37 O 3.285093 -2.046336 1.167235 0
M  V30 38 N 4.364506 0.271480 1.862358 0
M  V30 39 C 5.136653 0.345723 3.097444 0
M  V30 40 C 6.606524 0.602756 2.768925 0
M  V30 41 N 6.835628 1.661633 1.857563 0
M  V30 42 C 7.997884 1.339525 1.058346 0
M  V30 43 C 5.778668 1.988050 0.954906 0
M  V30 44 C 4.391090 1.604367 1.345258 0
M  V30 45 H 6.043077 -0.493046 -1.846737 0
M  V30 46 H 5.334006 -1.964500 -1.202185 0
M  V30 47 H 5.839097 -0.771829 -0.020357 0
M  V30 48 H 3.800322 0.383507 -3.133920 0
M  V30 49 H 0.945843 0.163497 -3.387890 0
M  V30 50 H -1.650614 3.526710 -0.103090 0
M  V30 51 H -4.112411 2.473868 -1.083476 0
M  V30 52 H -6.244344 0.437513 -1.858633 0
M  V30 53 H -2.717752 -2.141787 -1.308499 0
M  V30 54 H -2.423193 -4.113859 -0.178005 0
M  V30 55 H -4.020646 -4.942246 1.263455 0
M  V30 56 H -5.981879 -5.920952 0.702010 0
M  V30 57 H -7.090662 -7.487246 2.171060 0
M  V30 58 H -7.896848 -4.326425 4.985731 0
M  V30 59 H -6.708244 -2.758647 3.431924 0
M  V30 60 H -3.748610 -0.425850 -4.293576 0
M  V30 61 H -1.201963 -0.020199 -4.274404 0
M  V30 62 H 0.947487 1.050760 1.104042 0
M  V30 63 H -0.132398 0.091051 -0.018624 0
M  V30 64 H 0.850315 -0.725881 1.175925 0
M  V30 65 H 5.125769 -0.588046 3.674664 0
M  V30 66 H 4.755078 1.154474 3.743847 0
M  V30 67 H 7.122435 -0.335713 2.456761 0
M  V30 68 H 7.094417 0.875443 3.745922 0
M  V30 69 H 8.315693 2.152104 0.363231 0
M  V30 70 H 8.820422 1.027770 1.735292 0
M  V30 71 H 7.762246 0.419659 0.482113 0
M  V30 72 H 5.987711 1.741317 -0.104394 0
M  V30 73 H 5.771824 3.148497 0.929999 0
M  V30 74 H 3.770475 1.659666 0.423088 0
M  V30 75 H 3.964225 2.365751 2.044289 0
M  V30 END ATOM
M  V30 BEGIN BOND
M  V30 1 1 1 2
M  V30 2 1 2 3
M  V30 3 1 3 4
M  V30 4 1 4 5
M  V30 5 2 5 6
M  V30 6 1 6 7
M  V30 7 2 7 8
M  V30 8 1 7 9
M  V30 9 1 9 10
M  V30 10 2 10 11
M  V30 11 1 11 12
M  V30 12 1 12 13
M  V30 13 1 13 14
M  V30 14 2 14 15
M  V30 15 1 14 16
M  V30 16 2 16 17
M  V30 17 1 17 18
M  V30 18 1 18 19
M  V30 19 2 19 20
M  V30 20 1 20 21
M  V30 21 2 21 22
M  V30 22 1 22 23
M  V30 23 2 23 24
M  V30 24 1 24 25
M  V30 25 1 24 26
M  V30 26 2 26 27
M  V30 27 1 20 28
M  V30 28 2 28 29
M  V30 29 2 12 30
M  V30 30 1 30 31
M  V30 31 2 31 32
M  V30 32 2 4 33
M  V30 33 1 33 34
M  V30 34 1 33 35
M  V30 35 1 35 36
M  V30 36 2 36 37
M  V30 37 1 36 38
M  V30 38 1 38 39
M  V30 39 1 39 40
M  V30 40 1 40 41
M  V30 41 1 41 42
M  V30 42 1 41 43
M  V30 43 1 43 44
M  V30 44 2 35 2
M  V30 45 1 44 38
M  V30 46 1 32 6
M  V30 47 1 32 10
M  V30 48 1 28 16
M  V30 49 1 27 21
M  V30 50 1 1 45
M  V30 51 1 1 46
M  V30 52 1 1 47
M  V30 53 1 3 48
M  V30 54 1 5 49
M  V30 55 1 9 50
M  V30 56 1 11 51
M  V30 57 1 13 52
M  V30 58 1 17 53
M  V30 59 1 18 54
M  V30 60 1 19 55
M  V30 61 1 22 56
M  V30 62 1 23 57
M  V30 63 1 26 58
M  V30 64 1 27 59
M  V30 65 1 30 60
M  V30 66 1 31 61
M  V30 67 1 34 62
M  V30 68 1 34 63
M  V30 69 1 34 64
M  V30 70 1 39 65
M  V30 71 1 39 66
M  V30 72 1 40 67
M  V30 73 1 40 68
M  V30 74 1 42 69
M  V30 75 1 42 70
M  V30 76 1 42 71
M  V30 77 1 43 72
M  V30 78 1 43 73
M  V30 79 1 44 74
M  V30 80 1 44 75
M  V30 END BOND
M  V30 END CTAB
M  END
>  <Dataset>  (253) 
ChEMBL_Kinases

>  <Ligand_Instance>  (253) 
nan

>  <PDB_ID>  (253) 
nan

>  <Standardized_SMILES>  (253) 
Cc1[nH]c(/C=C2\C(=O)Nc3cc(NC(=O)c4c[nH]cc(-c5ccc(F)cc5)c4=O)ccc32)c(C)c1C(=O)N1CCN(C)CC1

>  <Name>  (253) 
nan

>  <Pocket>  (253) 
nan

>  <ATP_Site>  (253) 
nan

>  <Peripheral>  (253) 
nan

>  <Num_H_Atoms_ProtBoundConf>  (253) 
nan

>  <Num_Resolved_Atoms>  (253) 
nan

>  <Num_Not_Resolved_Atoms>  (253) 
nan

$$$$
CHEMBL3322594
     RDKit          3D

  0  0  0  0  0  0  0  0  0  0999 V3000
M  V30 BEGIN CTAB
M  V30 COUNTS 78 83 0 0 0
M  V30 BEGIN ATOM
M  V30 1 C 6.092783 2.564740 -1.343360 0
M  V30 2 C 4.819667 2.368232 -0.600347 0
M  V30 3 N 3.788499 1.668007 -1.096078 0
M  V30 4 C 2.742141 1.671895 -0.208090 0
M  V30 5 C 1.382598 1.150997 -0.125752 0
M  V30 6 C 0.450636 1.218438 -1.055151 0
M  V30 7 C 0.515631 1.812814 -2.369321 0
M  V30 8 O 1.536310 2.380448 -2.773306 0
M  V30 9 N -0.746963 1.582809 -2.953634 0
M  V30 10 C -1.557217 0.873074 -2.032199 0
M  V30 11 C -2.861999 0.440752 -2.186875 0
M  V30 12 C -3.394107 -0.226108 -1.105471 0
M  V30 13 N -4.716622 -0.755085 -1.097502 0
M  V30 14 C -4.868932 -2.115969 -1.459997 0
M  V30 15 O -3.551163 -2.075626 -1.603341 0
M  V30 16 C -5.191095 -3.417911 -1.782732 0
M  V30 17 C -4.434022 -4.494183 -2.132450 0
M  V30 18 N -5.042616 -5.646640 -2.383750 0
M  V30 19 C -6.363232 -5.789874 -2.306660 0
M  V30 20 C -7.248247 -4.795560 -1.968248 0
M  V30 21 C -8.688608 -5.010219 -1.902498 0
M  V30 22 C -9.526079 -4.575609 -0.891549 0
M  V30 23 C -10.852639 -4.902052 -1.040663 0
M  V30 24 C -11.418767 -5.602066 -2.068618 0
M  V30 25 F -12.744763 -5.842157 -2.071482 0
M  V30 26 C -10.525055 -6.014688 -3.059403 0
M  V30 27 C -9.187899 -5.721210 -2.972719 0
M  V30 28 C -6.599154 -3.594810 -1.708042 0
M  V30 29 O -7.439431 -2.679427 -1.394957 0
M  V30 30 C -2.767430 -0.504639 0.097336 0
M  V30 31 C -1.458478 -0.057135 0.211413 0
M  V30 32 C -0.892887 0.615321 -0.850155 0
M  V30 33 C 3.244028 2.439235 0.863270 0
M  V30 34 C 2.504349 2.769188 2.136124 0
M  V30 35 C 4.536243 2.877971 0.630484 0
M  V30 36 C 5.341595 3.691795 1.578157 0
M  V30 37 C 6.309600 2.862915 2.336704 0
M  V30 38 O 5.675128 2.089034 1.581156 0
M  V30 39 N 6.805176 1.548713 2.547868 0
M  V30 40 C 6.584017 0.195231 2.027967 0
M  V30 41 C 5.964693 -0.693278 3.066164 0
M  V30 42 N 6.168477 -0.284768 4.394242 0
M  V30 43 C 5.059412 -0.184955 5.263106 0
M  V30 44 C 7.322877 0.471308 4.690962 0
M  V30 45 C 7.816655 1.361250 3.569620 0
M  V30 46 H 6.953481 2.728266 -0.696601 0
M  V30 47 H 6.264213 1.806652 -2.128711 0
M  V30 48 H 5.965076 3.532591 -1.928716 0
M  V30 49 H 3.694105 1.149806 -1.987171 0
M  V30 50 H 1.160106 0.653245 0.838198 0
M  V30 51 H -0.935205 1.937310 -3.916868 0
M  V30 52 H -3.452001 0.590060 -3.079338 0
M  V30 53 H -5.773609 -0.684264 -0.959771 0
M  V30 54 H -3.365811 -4.334924 -2.183847 0
M  V30 55 H -4.380056 -6.421888 -2.645586 0
M  V30 56 H -6.692208 -6.777805 -2.540600 0
M  V30 57 H -9.090780 -4.032342 -0.089094 0
M  V30 58 H -11.510333 -4.554962 -0.239404 0
M  V30 59 H -11.007095 -6.573135 -3.880400 0
M  V30 60 H -8.581884 -6.086353 -3.798298 0
M  V30 61 H -3.180349 -1.019937 0.944925 0
M  V30 62 H -0.858864 -0.228814 1.119872 0
M  V30 63 H 1.660556 2.070270 2.294694 0
M  V30 64 H 3.189192 2.684828 3.001161 0
M  V30 65 H 2.101326 3.800722 2.094493 0
M  V30 66 H 5.875011 4.463570 0.947712 0
M  V30 67 H 4.702825 4.246403 2.298067 0
M  V30 68 H 5.990151 0.300865 1.103567 0
M  V30 69 H 7.548571 -0.276486 1.676704 0
M  V30 70 H 6.282761 -1.747642 2.936883 0
M  V30 71 H 4.859885 -0.685978 2.856957 0
M  V30 72 H 5.450266 -0.358679 6.307580 0
M  V30 73 H 4.630108 0.833943 5.269740 0
M  V30 74 H 4.336377 -0.989429 5.079003 0
M  V30 75 H 7.117805 1.133729 5.564136 0
M  V30 76 H 8.118792 -0.224334 5.035118 0
M  V30 77 H 8.135479 2.359668 3.918259 0
M  V30 78 H 8.743850 0.884379 3.159029 0
M  V30 END ATOM
M  V30 BEGIN BOND
M  V30 1 1 1 2
M  V30 2 1 2 3
M  V30 3 1 3 4
M  V30 4 1 4 5
M  V30 5 2 5 6
M  V30 6 1 6 7
M  V30 7 2 7 8
M  V30 8 1 7 9
M  V30 9 1 9 10
M  V30 10 2 10 11
M  V30 11 1 11 12
M  V30 12 1 12 13
M  V30 13 1 13 14
M  V30 14 2 14 15
M  V30 15 1 14 16
M  V30 16 2 16 17
M  V30 17 1 17 18
M  V30 18 1 18 19
M  V30 19 2 19 20
M  V30 20 1 20 21
M  V30 21 2 21 22
M  V30 22 1 22 23
M  V30 23 2 23 24
M  V30 24 1 24 25
M  V30 25 1 24 26
M  V30 26 2 26 27
M  V30 27 1 20 28
M  V30 28 2 28 29
M  V30 29 2 12 30
M  V30 30 1 30 31
M  V30 31 2 31 32
M  V30 32 2 4 33
M  V30 33 1 33 34
M  V30 34 1 33 35
M  V30 35 1 35 36
M  V30 36 1 36 37
M  V30 37 2 37 38
M  V30 38 1 37 39
M  V30 39 1 39 40
M  V30 40 1 40 41
M  V30 41 1 41 42
M  V30 42 1 42 43
M  V30 43 1 42 44
M  V30 44 1 44 45
M  V30 45 2 35 2
M  V30 46 1 45 39
M  V30 47 1 32 6
M  V30 48 1 32 10
M  V30 49 1 28 16
M  V30 50 1 27 21
M  V30 51 1 1 46
M  V30 52 1 1 47
M  V30 53 1 1 48
M  V30 54 1 3 49
M  V30 55 1 5 50
M  V30 56 1 9 51
M  V30 57 1 11 52
M  V30 58 1 13 53
M  V30 59 1 17 54
M  V30 60 1 18 55
M  V30 61 1 19 56
M  V30 62 1 22 57
M  V30 63 1 23 58
M  V30 64 1 26 59
M  V30 65 1 27 60
M  V30 66 1 30 61
M  V30 67 1 31 62
M  V30 68 1 34 63
M  V30 69 1 34 64
M  V30 70 1 34 65
M  V30 71 1 36 66
M  V30 72 1 36 67
M  V30 73 1 40 68
M  V30 74 1 40 69
M  V30 75 1 41 70
M  V30 76 1 41 71
M  V30 77 1 43 72
M  V30 78 1 43 73
M  V30 79 1 43 74
M  V30 80 1 44 75
M  V30 81 1 44 76
M  V30 82 1 45 77
M  V30 83 1 45 78
M  V30 END BOND
M  V30 END CTAB
M  END
>  <Dataset>  (254) 
ChEMBL_Kinases

>  <Ligand_Instance>  (254) 
nan

>  <PDB_ID>  (254) 
nan

>  <Standardized_SMILES>  (254) 
Cc1[nH]c(/C=C2\C(=O)Nc3cc(NC(=O)c4c[nH]cc(-c5ccc(F)cc5)c4=O)ccc32)c(C)c1CC(=O)N1CCN(C)CC1

>  <Name>  (254) 
nan

>  <Pocket>  (254) 
nan

>  <ATP_Site>  (254) 
nan

>  <Peripheral>  (254) 
nan

>  <Num_H_Atoms_ProtBoundConf>  (254) 
nan

>  <Num_Resolved_Atoms>  (254) 
nan

>  <Num_Not_Resolved_Atoms>  (254) 
nan

$$$$
CHEMBL3322595
     RDKit          3D

  0  0  0  0  0  0  0  0  0  0999 V3000
M  V30 BEGIN CTAB
M  V30 COUNTS 71 76 0 0 0
M  V30 BEGIN ATOM
M  V30 1 C 4.077318 -1.082830 5.475747 0
M  V30 2 C 3.657170 -0.534882 4.184505 0
M  V30 3 N 4.486669 -0.102118 3.234438 0
M  V30 4 C 3.839952 0.345139 2.152927 0
M  V30 5 C 3.739722 0.819425 0.755051 0
M  V30 6 C 3.206939 2.013073 0.335353 0
M  V30 7 C 2.642927 3.117963 1.076440 0
M  V30 8 O 3.121503 3.183341 2.225630 0
M  V30 9 N 1.734259 3.723806 0.181799 0
M  V30 10 C 1.790464 2.992156 -1.005855 0
M  V30 11 C 0.832830 3.177801 -2.048382 0
M  V30 12 C 0.898466 2.213101 -3.050804 0
M  V30 13 N -0.222211 2.029678 -4.035873 0
M  V30 14 C -0.904793 1.070453 -3.141460 0
M  V30 15 O -0.824406 0.587658 -2.133375 0
M  V30 16 C -2.003725 0.166602 -2.903240 0
M  V30 17 C -2.502892 0.439653 -4.308261 0
M  V30 18 N -3.611635 -0.033843 -5.026690 0
M  V30 19 C -4.447960 -0.919671 -4.401126 0
M  V30 20 C -4.119221 -1.265756 -3.123698 0
M  V30 21 C -4.662741 -2.153462 -2.084978 0
M  V30 22 C -5.801487 -2.034888 -1.295853 0
M  V30 23 C -6.125593 -3.067729 -0.418109 0
M  V30 24 C -5.375761 -4.213481 -0.292225 0
M  V30 25 F -5.726977 -5.206931 0.569560 0
M  V30 26 C -4.240983 -4.341299 -1.077500 0
M  V30 27 C -3.896634 -3.302340 -1.965253 0
M  V30 28 C -3.017050 -0.656768 -2.702732 0
M  V30 29 O -2.467356 -0.796786 -1.503390 0
M  V30 30 C 1.812675 1.155990 -3.102758 0
M  V30 31 C 2.748700 0.981874 -2.075201 0
M  V30 32 C 2.656805 1.905692 -1.091224 0
M  V30 33 C 2.448180 0.140470 2.547255 0
M  V30 34 C 1.191873 0.492549 1.782599 0
M  V30 35 C 2.348638 -0.435853 3.861231 0
M  V30 36 C 0.969217 -0.757235 4.342913 0
M  V30 37 O 0.439216 -0.055834 5.231761 0
M  V30 38 N 0.400460 -1.909787 3.651257 0
M  V30 39 C 1.150485 -2.767348 2.696872 0
M  V30 40 C 0.283505 -4.023981 2.514683 0
M  V30 41 O -0.853056 -3.670224 1.805239 0
M  V30 42 C -1.463971 -2.564694 2.342022 0
M  V30 43 C -1.010634 -2.265824 3.758802 0
M  V30 44 H 4.231228 -0.314556 6.267680 0
M  V30 45 H 3.330062 -1.796495 5.906202 0
M  V30 46 H 5.033612 -1.664748 5.388246 0
M  V30 47 H 5.486376 -0.005849 3.061941 0
M  V30 48 H 4.163256 0.036882 0.138493 0
M  V30 49 H 1.224604 4.541641 0.518526 0
M  V30 50 H 0.097171 3.939632 -2.147603 0
M  V30 51 H -0.773635 2.144559 -4.854185 0
M  V30 52 H -2.206857 1.062490 -5.220399 0
M  V30 53 H -4.035400 0.086639 -5.981313 0
M  V30 54 H -5.346084 -1.449117 -4.674864 0
M  V30 55 H -6.315159 -1.116094 -1.479224 0
M  V30 56 H -7.017442 -2.896930 0.155988 0
M  V30 57 H -3.672582 -5.257752 -0.938751 0
M  V30 58 H -2.994426 -3.534268 -2.540790 0
M  V30 59 H 1.801321 0.447711 -3.944348 0
M  V30 60 H 3.467108 0.198979 -2.065313 0
M  V30 61 H 0.341188 -0.142153 2.136326 0
M  V30 62 H 0.888125 1.499578 2.124636 0
M  V30 63 H 1.279429 0.327895 0.710520 0
M  V30 64 H 1.141964 -2.282793 1.722079 0
M  V30 65 H 2.155472 -2.996096 3.094049 0
M  V30 66 H 0.899417 -4.705576 1.876401 0
M  V30 67 H 0.048076 -4.497509 3.480217 0
M  V30 68 H -2.566122 -2.812709 2.445994 0
M  V30 69 H -1.376163 -1.706165 1.644311 0
M  V30 70 H -1.216645 -3.176430 4.316268 0
M  V30 71 H -1.629503 -1.453057 4.190418 0
M  V30 END ATOM
M  V30 BEGIN BOND
M  V30 1 1 1 2
M  V30 2 1 2 3
M  V30 3 1 3 4
M  V30 4 1 4 5
M  V30 5 2 5 6
M  V30 6 1 6 7
M  V30 7 2 7 8
M  V30 8 1 7 9
M  V30 9 1 9 10
M  V30 10 2 10 11
M  V30 11 1 11 12
M  V30 12 1 12 13
M  V30 13 1 13 14
M  V30 14 2 14 15
M  V30 15 1 14 16
M  V30 16 2 16 17
M  V30 17 1 17 18
M  V30 18 1 18 19
M  V30 19 2 19 20
M  V30 20 1 20 21
M  V30 21 2 21 22
M  V30 22 1 22 23
M  V30 23 2 23 24
M  V30 24 1 24 25
M  V30 25 1 24 26
M  V30 26 2 26 27
M  V30 27 1 20 28
M  V30 28 2 28 29
M  V30 29 2 12 30
M  V30 30 1 30 31
M  V30 31 2 31 32
M  V30 32 2 4 33
M  V30 33 1 33 34
M  V30 34 1 33 35
M  V30 35 1 35 36
M  V30 36 2 36 37
M  V30 37 1 36 38
M  V30 38 1 38 39
M  V30 39 1 39 40
M  V30 40 1 40 41
M  V30 41 1 41 42
M  V30 42 1 42 43
M  V30 43 2 35 2
M  V30 44 1 43 38
M  V30 45 1 32 6
M  V30 46 1 32 10
M  V30 47 1 28 16
M  V30 48 1 27 21
M  V30 49 1 1 44
M  V30 50 1 1 45
M  V30 51 1 1 46
M  V30 52 1 3 47
M  V30 53 1 5 48
M  V30 54 1 9 49
M  V30 55 1 11 50
M  V30 56 1 13 51
M  V30 57 1 17 52
M  V30 58 1 18 53
M  V30 59 1 19 54
M  V30 60 1 22 55
M  V30 61 1 23 56
M  V30 62 1 26 57
M  V30 63 1 27 58
M  V30 64 1 30 59
M  V30 65 1 31 60
M  V30 66 1 34 61
M  V30 67 1 34 62
M  V30 68 1 34 63
M  V30 69 1 39 64
M  V30 70 1 39 65
M  V30 71 1 40 66
M  V30 72 1 40 67
M  V30 73 1 42 68
M  V30 74 1 42 69
M  V30 75 1 43 70
M  V30 76 1 43 71
M  V30 END BOND
M  V30 END CTAB
M  END
>  <Dataset>  (255) 
ChEMBL_Kinases

>  <Ligand_Instance>  (255) 
nan

>  <PDB_ID>  (255) 
nan

>  <Standardized_SMILES>  (255) 
Cc1[nH]c(/C=C2\C(=O)Nc3cc(NC(=O)c4c[nH]cc(-c5ccc(F)cc5)c4=O)ccc32)c(C)c1C(=O)N1CCOCC1

>  <Name>  (255) 
nan

>  <Pocket>  (255) 
nan

>  <ATP_Site>  (255) 
nan

>  <Peripheral>  (255) 
nan

>  <Num_H_Atoms_ProtBoundConf>  (255) 
nan

>  <Num_Resolved_Atoms>  (255) 
nan

>  <Num_Not_Resolved_Atoms>  (255) 
nan

$$$$
CHEMBL3322596
     RDKit          3D

  0  0  0  0  0  0  0  0  0  0999 V3000
M  V30 BEGIN CTAB
M  V30 COUNTS 74 79 0 0 0
M  V30 BEGIN ATOM
M  V30 1 C 6.331800 1.779036 -2.998097 0
M  V30 2 C 5.266082 0.928123 -2.407119 0
M  V30 3 N 4.166902 0.655377 -3.124379 0
M  V30 4 C 3.320874 -0.120169 -2.427973 0
M  V30 5 C 2.060178 -0.843826 -2.522072 0
M  V30 6 C 1.011295 -0.533641 -1.744377 0
M  V30 7 C 1.059795 0.536906 -0.776930 0
M  V30 8 O 1.894727 1.384209 -0.420964 0
M  V30 9 N -0.194401 0.604752 -0.075107 0
M  V30 10 C -1.018446 -0.443730 -0.628866 0
M  V30 11 C -2.308311 -0.897375 -0.390201 0
M  V30 12 C -2.836583 -1.964260 -1.108813 0
M  V30 13 N -4.185231 -2.268442 -0.690065 0
M  V30 14 C -4.045995 -3.232401 0.359068 0
M  V30 15 O -2.791679 -3.439934 0.503985 0
M  V30 16 C -5.077993 -3.893098 1.153655 0
M  V30 17 C -4.538283 -4.794456 2.082987 0
M  V30 18 N -5.382095 -5.475385 2.873648 0
M  V30 19 C -6.707680 -5.350762 2.832917 0
M  V30 20 C -7.300683 -4.466047 1.925431 0
M  V30 21 C -8.728380 -4.216771 1.763842 0
M  V30 22 C -9.585685 -5.301185 1.703767 0
M  V30 23 C -10.955501 -5.080303 1.551520 0
M  V30 24 C -11.348685 -3.776385 1.472900 0
M  V30 25 F -12.675880 -3.515449 1.327525 0
M  V30 26 C -10.534142 -2.665220 1.527985 0
M  V30 27 C -9.167171 -2.905887 1.679977 0
M  V30 28 C -6.441857 -3.764664 1.111604 0
M  V30 29 O -6.858785 -2.953219 0.269637 0
M  V30 30 C -2.093414 -2.602232 -2.079571 0
M  V30 31 C -0.807110 -2.181877 -2.346881 0
M  V30 32 C -0.316762 -1.121706 -1.614971 0
M  V30 33 C 3.920848 -0.361303 -1.180665 0
M  V30 34 C 3.631371 -1.133448 0.085872 0
M  V30 35 C 5.154360 0.306510 -1.172104 0
M  V30 36 C 6.224211 0.418778 -0.124981 0
M  V30 37 C 6.197584 1.719343 0.541153 0
M  V30 38 O 5.261630 1.793183 -0.302173 0
M  V30 39 N 6.202426 2.964876 1.207697 0
M  V30 40 C 5.174633 3.845179 0.694919 0
M  V30 41 C 5.531018 5.286046 1.032469 0
M  V30 42 O 6.223646 5.407523 2.219940 0
M  V30 43 C 7.461769 4.753727 2.121245 0
M  V30 44 C 7.140556 3.273842 2.268320 0
M  V30 45 H 6.515969 1.459999 -4.053000 0
M  V30 46 H 7.323849 1.605003 -2.495032 0
M  V30 47 H 6.099189 2.857432 -2.994293 0
M  V30 48 H 3.779838 0.877801 -4.085016 0
M  V30 49 H 1.906481 -1.656973 -3.214402 0
M  V30 50 H -0.567071 1.224158 0.689363 0
M  V30 51 H -2.846956 -0.356436 0.386422 0
M  V30 52 H -5.177596 -1.998916 -0.933810 0
M  V30 53 H -3.471543 -4.986811 2.215972 0
M  V30 54 H -4.980300 -6.156411 3.575295 0
M  V30 55 H -7.408878 -5.893265 3.461562 0
M  V30 56 H -9.219304 -6.318186 1.772212 0
M  V30 57 H -11.655108 -5.888708 1.499995 0
M  V30 58 H -10.932972 -1.661191 1.456570 0
M  V30 59 H -8.476742 -2.056328 1.730808 0
M  V30 60 H -2.603894 -3.416643 -2.573760 0
M  V30 61 H -0.248906 -2.697743 -3.106235 0
M  V30 62 H 3.583806 -0.348476 0.889219 0
M  V30 63 H 2.717040 -1.726521 -0.014365 0
M  V30 64 H 4.490784 -1.789621 0.321863 0
M  V30 65 H 6.136172 -0.434507 0.600659 0
M  V30 66 H 7.202186 0.296211 -0.636190 0
M  V30 67 H 4.174741 3.656678 1.145976 0
M  V30 68 H 5.051268 3.734081 -0.420915 0
M  V30 69 H 6.155170 5.737985 0.223539 0
M  V30 70 H 4.609056 5.924067 1.087607 0
M  V30 71 H 7.872250 4.885668 1.111753 0
M  V30 72 H 8.134269 5.117303 2.924930 0
M  V30 73 H 8.074370 2.690075 2.177552 0
M  V30 74 H 6.664090 3.150836 3.271434 0
M  V30 END ATOM
M  V30 BEGIN BOND
M  V30 1 1 1 2
M  V30 2 1 2 3
M  V30 3 1 3 4
M  V30 4 1 4 5
M  V30 5 2 5 6
M  V30 6 1 6 7
M  V30 7 2 7 8
M  V30 8 1 7 9
M  V30 9 1 9 10
M  V30 10 2 10 11
M  V30 11 1 11 12
M  V30 12 1 12 13
M  V30 13 1 13 14
M  V30 14 2 14 15
M  V30 15 1 14 16
M  V30 16 2 16 17
M  V30 17 1 17 18
M  V30 18 1 18 19
M  V30 19 2 19 20
M  V30 20 1 20 21
M  V30 21 2 21 22
M  V30 22 1 22 23
M  V30 23 2 23 24
M  V30 24 1 24 25
M  V30 25 1 24 26
M  V30 26 2 26 27
M  V30 27 1 20 28
M  V30 28 2 28 29
M  V30 29 2 12 30
M  V30 30 1 30 31
M  V30 31 2 31 32
M  V30 32 2 4 33
M  V30 33 1 33 34
M  V30 34 1 33 35
M  V30 35 1 35 36
M  V30 36 1 36 37
M  V30 37 2 37 38
M  V30 38 1 37 39
M  V30 39 1 39 40
M  V30 40 1 40 41
M  V30 41 1 41 42
M  V30 42 1 42 43
M  V30 43 1 43 44
M  V30 44 2 35 2
M  V30 45 1 44 39
M  V30 46 1 32 6
M  V30 47 1 32 10
M  V30 48 1 28 16
M  V30 49 1 27 21
M  V30 50 1 1 45
M  V30 51 1 1 46
M  V30 52 1 1 47
M  V30 53 1 3 48
M  V30 54 1 5 49
M  V30 55 1 9 50
M  V30 56 1 11 51
M  V30 57 1 13 52
M  V30 58 1 17 53
M  V30 59 1 18 54
M  V30 60 1 19 55
M  V30 61 1 22 56
M  V30 62 1 23 57
M  V30 63 1 26 58
M  V30 64 1 27 59
M  V30 65 1 30 60
M  V30 66 1 31 61
M  V30 67 1 34 62
M  V30 68 1 34 63
M  V30 69 1 34 64
M  V30 70 1 36 65
M  V30 71 1 36 66
M  V30 72 1 40 67
M  V30 73 1 40 68
M  V30 74 1 41 69
M  V30 75 1 41 70
M  V30 76 1 43 71
M  V30 77 1 43 72
M  V30 78 1 44 73
M  V30 79 1 44 74
M  V30 END BOND
M  V30 END CTAB
M  END
>  <Dataset>  (256) 
ChEMBL_Kinases

>  <Ligand_Instance>  (256) 
nan

>  <PDB_ID>  (256) 
nan

>  <Standardized_SMILES>  (256) 
Cc1[nH]c(/C=C2\C(=O)Nc3cc(NC(=O)c4c[nH]cc(-c5ccc(F)cc5)c4=O)ccc32)c(C)c1CC(=O)N1CCOCC1

>  <Name>  (256) 
nan

>  <Pocket>  (256) 
nan

>  <ATP_Site>  (256) 
nan

>  <Peripheral>  (256) 
nan

>  <Num_H_Atoms_ProtBoundConf>  (256) 
nan

>  <Num_Resolved_Atoms>  (256) 
nan

>  <Num_Not_Resolved_Atoms>  (256) 
nan

$$$$
CHEMBL3322695
     RDKit          3D

  0  0  0  0  0  0  0  0  0  0999 V3000
M  V30 BEGIN CTAB
M  V30 COUNTS 24 25 0 0 0
M  V30 BEGIN ATOM
M  V30 1 C -0.418996 -3.043320 0.300570 0
M  V30 2 C -0.018676 -2.980332 1.756970 0
M  V30 3 O -0.991243 -2.324061 2.510527 0
M  V30 4 C 1.278612 -2.232352 1.951846 0
M  V30 5 N 1.160582 -0.855910 1.464769 0
M  V30 6 N 1.431282 -0.462591 0.229533 0
M  V30 7 C 1.224589 0.866930 0.092516 0
M  V30 8 C 1.371485 1.720717 -1.002223 0
M  V30 9 Br 1.965345 1.066769 -2.706745 0
M  V30 10 C 1.068544 3.050043 -0.792649 0
M  V30 11 Br 1.266059 4.240675 -2.292764 0
M  V30 12 C 0.640451 3.538158 0.425054 0
M  V30 13 Br 0.234793 5.407075 0.646678 0
M  V30 14 C 0.506087 2.650233 1.497295 0
M  V30 15 Br -0.083550 3.304515 3.186511 0
M  V30 16 C 0.800569 1.305953 1.328091 0
M  V30 17 N 0.771027 0.228290 2.148667 0
M  V30 18 H 0.323394 -3.624184 -0.259289 0
M  V30 19 H -1.416281 -3.568061 0.289531 0
M  V30 20 H -0.611303 -2.061493 -0.149362 0
M  V30 21 H 0.144889 -4.015161 2.089829 0
M  V30 22 H -1.409006 -1.588712 2.034149 0
M  V30 23 H 2.062820 -2.760488 1.393095 0
M  V30 24 H 1.550668 -2.270948 3.011412 0
M  V30 END ATOM
M  V30 BEGIN BOND
M  V30 1 1 1 2
M  V30 2 1 2 3
M  V30 3 1 2 4
M  V30 4 1 4 5
M  V30 5 1 5 6
M  V30 6 2 6 7
M  V30 7 1 7 8
M  V30 8 1 8 9
M  V30 9 2 8 10
M  V30 10 1 10 11
M  V30 11 1 10 12
M  V30 12 1 12 13
M  V30 13 2 12 14
M  V30 14 1 14 15
M  V30 15 1 14 16
M  V30 16 2 16 17
M  V30 17 1 17 5
M  V30 18 1 16 7
M  V30 19 1 1 18
M  V30 20 1 1 19
M  V30 21 1 1 20
M  V30 22 1 2 21
M  V30 23 1 3 22
M  V30 24 1 4 23
M  V30 25 1 4 24
M  V30 END BOND
M  V30 END CTAB
M  END
>  <Dataset>  (257) 
ChEMBL_Kinases

>  <Ligand_Instance>  (257) 
nan

>  <PDB_ID>  (257) 
nan

>  <Standardized_SMILES>  (257) 
CC(O)Cn1nc2c(Br)c(Br)c(Br)c(Br)c2n1

>  <Name>  (257) 
nan

>  <Pocket>  (257) 
nan

>  <ATP_Site>  (257) 
nan

>  <Peripheral>  (257) 
nan

>  <Num_H_Atoms_ProtBoundConf>  (257) 
nan

>  <Num_Resolved_Atoms>  (257) 
nan

>  <Num_Not_Resolved_Atoms>  (257) 
nan

$$$$
CHEMBL3322696
     RDKit          3D

  0  0  0  0  0  0  0  0  0  0999 V3000
M  V30 BEGIN CTAB
M  V30 COUNTS 24 25 0 0 0
M  V30 BEGIN ATOM
M  V30 1 C -0.303036 -3.147260 0.434020 0
M  V30 2 C -0.126366 -2.849268 1.906703 0 CFG=2
M  V30 3 O -1.155467 -1.943748 2.252163 0
M  V30 4 C 1.164976 -2.060127 2.143391 0
M  V30 5 N 1.129471 -0.801996 1.421993 0
M  V30 6 N 1.528807 -0.506493 0.196062 0
M  V30 7 C 1.293317 0.815623 -0.048525 0
M  V30 8 C 1.522837 1.615704 -1.160712 0
M  V30 9 Br 2.310358 0.909488 -2.744888 0
M  V30 10 C 1.146428 2.955992 -1.051951 0
M  V30 11 Br 1.436238 4.106335 -2.546948 0
M  V30 12 C 0.574665 3.474444 0.094533 0
M  V30 13 Br 0.069644 5.315996 0.212336 0
M  V30 14 C 0.357907 2.656373 1.185290 0
M  V30 15 Br -0.418314 3.268452 2.801004 0
M  V30 16 C 0.721496 1.326034 1.103298 0
M  V30 17 N 0.633991 0.298620 1.994372 0
M  V30 18 H -1.407511 -3.220523 0.274858 0
M  V30 19 H 0.100156 -2.363958 -0.213299 0
M  V30 20 H 0.177981 -4.125107 0.212260 0
M  V30 21 H -0.150524 -3.759969 2.499136 0
M  V30 22 H -1.091963 -1.694856 3.201657 0
M  V30 23 H 1.976444 -2.733090 1.766904 0
M  V30 24 H 1.360603 -1.944920 3.220354 0
M  V30 END ATOM
M  V30 BEGIN BOND
M  V30 1 1 1 2
M  V30 2 1 2 3
M  V30 3 1 2 4
M  V30 4 1 4 5
M  V30 5 1 5 6
M  V30 6 2 6 7
M  V30 7 1 7 8
M  V30 8 1 8 9
M  V30 9 2 8 10
M  V30 10 1 10 11
M  V30 11 1 10 12
M  V30 12 1 12 13
M  V30 13 2 12 14
M  V30 14 1 14 15
M  V30 15 1 14 16
M  V30 16 2 16 17
M  V30 17 1 17 5
M  V30 18 1 16 7
M  V30 19 1 1 18
M  V30 20 1 1 19
M  V30 21 1 1 20
M  V30 22 1 2 21 CFG=1
M  V30 23 1 3 22
M  V30 24 1 4 23
M  V30 25 1 4 24
M  V30 END BOND
M  V30 END CTAB
M  END
>  <Dataset>  (258) 
ChEMBL_Kinases

>  <Ligand_Instance>  (258) 
nan

>  <PDB_ID>  (258) 
nan

>  <Standardized_SMILES>  (258) 
C[C@H](O)Cn1nc2c(Br)c(Br)c(Br)c(Br)c2n1

>  <Name>  (258) 
nan

>  <Pocket>  (258) 
nan

>  <ATP_Site>  (258) 
nan

>  <Peripheral>  (258) 
nan

>  <Num_H_Atoms_ProtBoundConf>  (258) 
nan

>  <Num_Resolved_Atoms>  (258) 
nan

>  <Num_Not_Resolved_Atoms>  (258) 
nan

$$$$
CHEMBL3322940
     RDKit          3D

  0  0  0  0  0  0  0  0  0  0999 V3000
M  V30 BEGIN CTAB
M  V30 COUNTS 47 50 0 0 0
M  V30 BEGIN ATOM
M  V30 1 N 6.784294 -2.886201 6.667261 0
M  V30 2 C 6.266855 -2.266983 5.823139 0
M  V30 3 C 5.618670 -1.509174 4.772953 0
M  V30 4 C 6.417379 -0.838566 3.853237 0
M  V30 5 C 5.817877 -0.105349 2.837319 0
M  V30 6 C 4.457411 -0.058008 2.762450 0
M  V30 7 C 3.828135 0.712583 1.694750 0
M  V30 8 C 2.470926 0.876885 1.458511 0
M  V30 9 N 2.397975 1.669727 0.364005 0
M  V30 10 C 1.114243 2.029596 -0.141519 0
M  V30 11 C 0.915718 3.289476 -0.669382 0
M  V30 12 C -0.335773 3.616988 -1.153468 0
M  V30 13 C -1.378644 2.704932 -1.114357 0
M  V30 14 O -2.617048 3.098323 -1.619261 0
M  V30 15 C -1.216998 1.436304 -0.593889 0
M  V30 16 C -2.305278 0.463796 -0.545304 0
M  V30 17 O -3.421757 0.825048 -1.002910 0
M  V30 18 N -2.185903 -0.847234 -0.021246 0
M  V30 19 C -3.266345 -1.774220 0.012624 0
M  V30 20 C -4.142781 -1.877311 1.074977 0
M  V30 21 C -5.193793 -2.774273 1.115530 0
M  V30 22 C -5.334917 -3.590538 0.011192 0
M  V30 23 C -4.496562 -3.537776 -1.078128 0
M  V30 24 C -4.627839 -4.406135 -2.279340 0
M  V30 25 F -5.553947 -5.404896 -2.093323 0
M  V30 26 F -5.016720 -3.670278 -3.386814 0
M  V30 27 F -3.370467 -4.905244 -2.557334 0
M  V30 28 C -3.464813 -2.625973 -1.068049 0
M  V30 29 C 0.048524 1.152304 -0.121996 0
M  V30 30 N 3.624636 1.964442 -0.034044 0
M  V30 31 N 4.517147 1.397852 0.754028 0
M  V30 32 C 3.680900 -0.730646 3.685122 0
M  V30 33 C 4.233246 -1.470837 4.710331 0
M  V30 34 H 7.491429 -0.918133 3.970565 0
M  V30 35 H 6.484035 0.407072 2.134940 0
M  V30 36 H 1.689701 0.432340 2.066439 0
M  V30 37 H 1.679569 4.039347 -0.728590 0
M  V30 38 H -0.519692 4.597513 -1.572796 0
M  V30 39 H -2.954759 4.058774 -1.472545 0
M  V30 40 H -1.262272 -1.150337 0.358894 0
M  V30 41 H -3.985670 -1.211965 1.916229 0
M  V30 42 H -5.865545 -2.832036 1.963683 0
M  V30 43 H -6.129828 -4.325664 -0.048604 0
M  V30 44 H -2.778938 -2.539212 -1.889699 0
M  V30 45 H 0.274247 0.190277 0.302500 0
M  V30 46 H 2.595411 -0.650582 3.567030 0
M  V30 47 H 3.608048 -2.000278 5.436488 0
M  V30 END ATOM
M  V30 BEGIN BOND
M  V30 1 3 1 2
M  V30 2 1 2 3
M  V30 3 2 3 4
M  V30 4 1 4 5
M  V30 5 2 5 6
M  V30 6 1 6 7
M  V30 7 2 7 8
M  V30 8 1 8 9
M  V30 9 1 9 10
M  V30 10 2 10 11
M  V30 11 1 11 12
M  V30 12 2 12 13
M  V30 13 1 13 14
M  V30 14 1 13 15
M  V30 15 1 15 16
M  V30 16 2 16 17
M  V30 17 1 16 18
M  V30 18 1 18 19
M  V30 19 2 19 20
M  V30 20 1 20 21
M  V30 21 2 21 22
M  V30 22 1 22 23
M  V30 23 1 23 24
M  V30 24 1 24 25
M  V30 25 1 24 26
M  V30 26 1 24 27
M  V30 27 2 23 28
M  V30 28 2 15 29
M  V30 29 1 9 30
M  V30 30 2 30 31
M  V30 31 1 6 32
M  V30 32 2 32 33
M  V30 33 1 33 3
M  V30 34 1 31 7
M  V30 35 1 29 10
M  V30 36 1 28 19
M  V30 37 1 4 34
M  V30 38 1 5 35
M  V30 39 1 8 36
M  V30 40 1 11 37
M  V30 41 1 12 38
M  V30 42 1 14 39
M  V30 43 1 18 40
M  V30 44 1 20 41
M  V30 45 1 21 42
M  V30 46 1 22 43
M  V30 47 1 28 44
M  V30 48 1 29 45
M  V30 49 1 32 46
M  V30 50 1 33 47
M  V30 END BOND
M  V30 END CTAB
M  END
>  <Dataset>  (259) 
ChEMBL_Kinases

>  <Ligand_Instance>  (259) 
nan

>  <PDB_ID>  (259) 
nan

>  <Standardized_SMILES>  (259) 
N#Cc1ccc(-c2cn(-c3ccc(O)c(C(=O)Nc4cccc(C(F)(F)F)c4)c3)nn2)cc1

>  <Name>  (259) 
nan

>  <Pocket>  (259) 
nan

>  <ATP_Site>  (259) 
nan

>  <Peripheral>  (259) 
nan

>  <Num_H_Atoms_ProtBoundConf>  (259) 
nan

>  <Num_Resolved_Atoms>  (259) 
nan

>  <Num_Not_Resolved_Atoms>  (259) 
nan

$$$$
CHEMBL3322698
     RDKit          3D

  0  0  0  0  0  0  0  0  0  0999 V3000
M  V30 BEGIN CTAB
M  V30 COUNTS 27 28 0 0 0
M  V30 BEGIN ATOM
M  V30 1 C -2.228307 -2.466734 0.853628 0
M  V30 2 C -1.065031 -2.383671 1.786991 0
M  V30 3 O -1.443947 -2.996690 2.983403 0
M  V30 4 C 0.180797 -3.063083 1.303690 0
M  V30 5 C 0.693145 -2.498462 0.004515 0
M  V30 6 N 1.020979 -1.108848 0.076968 0
M  V30 7 N 0.087548 -0.211528 -0.198912 0
M  V30 8 C 0.632920 1.014390 -0.062790 0
M  V30 9 C 0.070275 2.280167 -0.239465 0
M  V30 10 Br -1.780795 2.373689 -0.762398 0
M  V30 11 C 0.848522 3.402523 -0.036237 0
M  V30 12 Br -0.012257 5.085964 -0.302889 0
M  V30 13 C 2.165774 3.235179 0.337346 0
M  V30 14 Br 3.173296 4.811021 0.598703 0
M  V30 15 C 2.703162 1.975296 0.506819 0
M  V30 16 Br 4.528072 1.782366 1.023841 0
M  V30 17 C 1.959779 0.829290 0.313755 0
M  V30 18 N 2.163264 -0.514748 0.390342 0
M  V30 19 H -1.919134 -2.971663 -0.066363 0
M  V30 20 H -3.065646 -3.095144 1.264604 0
M  V30 21 H -2.661591 -1.452215 0.689384 0
M  V30 22 H -0.785088 -1.322734 2.032725 0
M  V30 23 H -1.864026 -3.869488 2.729377 0
M  V30 24 H 0.917502 -3.026035 2.117895 0
M  V30 25 H -0.080770 -4.130530 1.153118 0
M  V30 26 H 1.632383 -3.069204 -0.227790 0
M  V30 27 H -0.025167 -2.753471 -0.792027 0
M  V30 END ATOM
M  V30 BEGIN BOND
M  V30 1 1 1 2
M  V30 2 1 2 3
M  V30 3 1 2 4
M  V30 4 1 4 5
M  V30 5 1 5 6
M  V30 6 1 6 7
M  V30 7 2 7 8
M  V30 8 1 8 9
M  V30 9 1 9 10
M  V30 10 2 9 11
M  V30 11 1 11 12
M  V30 12 1 11 13
M  V30 13 1 13 14
M  V30 14 2 13 15
M  V30 15 1 15 16
M  V30 16 1 15 17
M  V30 17 2 17 18
M  V30 18 1 18 6
M  V30 19 1 17 8
M  V30 20 1 1 19
M  V30 21 1 1 20
M  V30 22 1 1 21
M  V30 23 1 2 22
M  V30 24 1 3 23
M  V30 25 1 4 24
M  V30 26 1 4 25
M  V30 27 1 5 26
M  V30 28 1 5 27
M  V30 END BOND
M  V30 END CTAB
M  END
>  <Dataset>  (260) 
ChEMBL_Kinases

>  <Ligand_Instance>  (260) 
nan

>  <PDB_ID>  (260) 
nan

>  <Standardized_SMILES>  (260) 
CC(O)CCn1nc2c(Br)c(Br)c(Br)c(Br)c2n1

>  <Name>  (260) 
nan

>  <Pocket>  (260) 
nan

>  <ATP_Site>  (260) 
nan

>  <Peripheral>  (260) 
nan

>  <Num_H_Atoms_ProtBoundConf>  (260) 
nan

>  <Num_Resolved_Atoms>  (260) 
nan

>  <Num_Not_Resolved_Atoms>  (260) 
nan

$$$$
CHEMBL3322699
     RDKit          3D

  0  0  0  0  0  0  0  0  0  0999 V3000
M  V30 BEGIN CTAB
M  V30 COUNTS 27 28 0 0 0
M  V30 BEGIN ATOM
M  V30 1 C -1.228974 -1.467431 2.220193 0
M  V30 2 C -0.925553 -2.911286 2.005323 0 CFG=2
M  V30 3 O -0.084031 -3.353455 3.034050 0
M  V30 4 C -0.447323 -3.298180 0.660771 0
M  V30 5 C 0.808660 -2.700736 0.159002 0
M  V30 6 N 0.862373 -1.281297 0.029324 0
M  V30 7 N 0.485552 -0.628787 -1.084592 0
M  V30 8 C 0.689138 0.668312 -0.847993 0
M  V30 9 C 0.490434 1.807456 -1.611418 0
M  V30 10 Br -0.199081 1.712184 -3.364253 0
M  V30 11 C 0.786367 3.062021 -1.127853 0
M  V30 12 Br 0.525297 4.667199 -2.154995 0
M  V30 13 C 1.297705 3.228635 0.150784 0
M  V30 14 Br 1.745071 4.892222 0.933355 0
M  V30 15 C 1.490591 2.079976 0.901370 0
M  V30 16 Br 2.189734 2.176920 2.678609 0
M  V30 17 C 1.195012 0.824248 0.418967 0
M  V30 18 N 1.283830 -0.394002 0.917185 0
M  V30 19 H -1.413698 -0.888106 1.308534 0
M  V30 20 H -2.208898 -1.397605 2.788932 0
M  V30 21 H -0.513564 -0.981291 2.933696 0
M  V30 22 H -1.882437 -3.492483 2.176634 0
M  V30 23 H -0.245408 -2.775399 3.840777 0
M  V30 24 H -1.262991 -3.114488 -0.073663 0
M  V30 25 H -0.284038 -4.411290 0.685433 0
M  V30 26 H 1.696008 -3.026066 0.755445 0
M  V30 27 H 0.995882 -3.141634 -0.855385 0
M  V30 END ATOM
M  V30 BEGIN BOND
M  V30 1 1 1 2
M  V30 2 1 2 3
M  V30 3 1 2 4
M  V30 4 1 4 5
M  V30 5 1 5 6
M  V30 6 1 6 7
M  V30 7 2 7 8
M  V30 8 1 8 9
M  V30 9 1 9 10
M  V30 10 2 9 11
M  V30 11 1 11 12
M  V30 12 1 11 13
M  V30 13 1 13 14
M  V30 14 2 13 15
M  V30 15 1 15 16
M  V30 16 1 15 17
M  V30 17 2 17 18
M  V30 18 1 18 6
M  V30 19 1 17 8
M  V30 20 1 1 19
M  V30 21 1 1 20
M  V30 22 1 1 21
M  V30 23 1 2 22 CFG=1
M  V30 24 1 3 23
M  V30 25 1 4 24
M  V30 26 1 4 25
M  V30 27 1 5 26
M  V30 28 1 5 27
M  V30 END BOND
M  V30 END CTAB
M  END
>  <Dataset>  (261) 
ChEMBL_Kinases

>  <Ligand_Instance>  (261) 
nan

>  <PDB_ID>  (261) 
nan

>  <Standardized_SMILES>  (261) 
C[C@H](O)CCn1nc2c(Br)c(Br)c(Br)c(Br)c2n1

>  <Name>  (261) 
nan

>  <Pocket>  (261) 
nan

>  <ATP_Site>  (261) 
nan

>  <Peripheral>  (261) 
nan

>  <Num_H_Atoms_ProtBoundConf>  (261) 
nan

>  <Num_Resolved_Atoms>  (261) 
nan

>  <Num_Not_Resolved_Atoms>  (261) 
nan

$$$$
CHEMBL3322700
     RDKit          3D

  0  0  0  0  0  0  0  0  0  0999 V3000
M  V30 BEGIN CTAB
M  V30 COUNTS 27 28 0 0 0
M  V30 BEGIN ATOM
M  V30 1 C -1.468162 -1.558006 1.904574 0
M  V30 2 C -1.036009 -2.974958 1.744422 0 CFG=1
M  V30 3 O -1.866276 -3.614497 0.814092 0
M  V30 4 C 0.400711 -3.220086 1.508221 0
M  V30 5 C 1.032138 -2.645028 0.301251 0
M  V30 6 N 1.015559 -1.229364 0.145278 0
M  V30 7 N 0.101946 -0.473114 -0.485812 0
M  V30 8 C 0.521611 0.792355 -0.359275 0
M  V30 9 C -0.124079 1.895091 -0.862881 0
M  V30 10 Br -1.754635 1.804840 -1.843357 0
M  V30 11 C 0.427759 3.143596 -0.654443 0
M  V30 12 Br -0.430366 4.701008 -1.333065 0
M  V30 13 C 1.615573 3.228708 0.057852 0
M  V30 14 Br 2.373980 4.931731 0.345591 0
M  V30 15 C 2.230379 2.079802 0.547393 0
M  V30 16 Br 3.868697 2.191792 1.530351 0
M  V30 17 C 1.689398 0.816292 0.347067 0
M  V30 18 N 1.977877 -0.437653 0.649155 0
M  V30 19 H -0.629366 -0.859534 2.142103 0
M  V30 20 H -2.067074 -1.233354 1.029521 0
M  V30 21 H -2.209818 -1.448890 2.763000 0
M  V30 22 H -1.287157 -3.487103 2.723029 0
M  V30 23 H -2.729968 -3.135835 0.839479 0
M  V30 24 H 0.940104 -2.930581 2.451661 0
M  V30 25 H 0.537023 -4.333937 1.442775 0
M  V30 26 H 0.600667 -3.169772 -0.592119 0
M  V30 27 H 2.115148 -2.977868 0.322372 0
M  V30 END ATOM
M  V30 BEGIN BOND
M  V30 1 1 1 2
M  V30 2 1 2 3
M  V30 3 1 2 4
M  V30 4 1 4 5
M  V30 5 1 5 6
M  V30 6 1 6 7
M  V30 7 2 7 8
M  V30 8 1 8 9
M  V30 9 1 9 10
M  V30 10 2 9 11
M  V30 11 1 11 12
M  V30 12 1 11 13
M  V30 13 1 13 14
M  V30 14 2 13 15
M  V30 15 1 15 16
M  V30 16 1 15 17
M  V30 17 2 17 18
M  V30 18 1 18 6
M  V30 19 1 17 8
M  V30 20 1 1 19
M  V30 21 1 1 20
M  V30 22 1 1 21
M  V30 23 1 2 22 CFG=1
M  V30 24 1 3 23
M  V30 25 1 4 24
M  V30 26 1 4 25
M  V30 27 1 5 26
M  V30 28 1 5 27
M  V30 END BOND
M  V30 END CTAB
M  END
>  <Dataset>  (262) 
ChEMBL_Kinases

>  <Ligand_Instance>  (262) 
nan

>  <PDB_ID>  (262) 
nan

>  <Standardized_SMILES>  (262) 
C[C@@H](O)CCn1nc2c(Br)c(Br)c(Br)c(Br)c2n1

>  <Name>  (262) 
nan

>  <Pocket>  (262) 
nan

>  <ATP_Site>  (262) 
nan

>  <Peripheral>  (262) 
nan

>  <Num_H_Atoms_ProtBoundConf>  (262) 
nan

>  <Num_Resolved_Atoms>  (262) 
nan

>  <Num_Not_Resolved_Atoms>  (262) 
nan

$$$$
CHEMBL3322701
     RDKit          3D

  0  0  0  0  0  0  0  0  0  0999 V3000
M  V30 BEGIN CTAB
M  V30 COUNTS 27 28 0 0 0
M  V30 BEGIN ATOM
M  V30 1 C -2.002915 -2.352615 3.003731 0
M  V30 2 C -0.631743 -2.162291 2.397163 0
M  V30 3 C -0.653094 -2.871933 1.054709 0
M  V30 4 O -1.629309 -2.332290 0.218333 0
M  V30 5 C 0.683374 -2.677221 0.340955 0
M  V30 6 N 0.911797 -1.281516 0.133087 0
M  V30 7 N 0.512551 -0.624312 -0.958779 0
M  V30 8 C 0.916745 0.644871 -0.762659 0
M  V30 9 C 0.733554 1.712059 -1.623530 0
M  V30 10 Br -0.158597 1.536470 -3.290579 0
M  V30 11 C 1.211680 2.943748 -1.264820 0
M  V30 12 Br 0.983921 4.448493 -2.418681 0
M  V30 13 C 1.864810 3.109931 -0.062086 0
M  V30 14 Br 2.521838 4.807612 0.428453 0
M  V30 15 C 2.034330 2.014889 0.785071 0
M  V30 16 Br 2.933130 2.188021 2.466258 0
M  V30 17 C 1.559882 0.763369 0.442900 0
M  V30 18 N 1.542285 -0.462566 0.984617 0
M  V30 19 H -2.785712 -2.426933 2.221185 0
M  V30 20 H -2.005814 -3.294005 3.569159 0
M  V30 21 H -2.307744 -1.520339 3.668051 0
M  V30 22 H 0.118673 -2.655334 3.038502 0
M  V30 23 H -0.360605 -1.115104 2.256247 0
M  V30 24 H -0.881882 -3.950176 1.173079 0
M  V30 25 H -1.400350 -2.316116 -0.723740 0
M  V30 26 H 1.462323 -3.075293 1.019208 0
M  V30 27 H 0.672529 -3.195780 -0.617600 0
M  V30 END ATOM
M  V30 BEGIN BOND
M  V30 1 1 1 2
M  V30 2 1 2 3
M  V30 3 1 3 4
M  V30 4 1 3 5
M  V30 5 1 5 6
M  V30 6 1 6 7
M  V30 7 2 7 8
M  V30 8 1 8 9
M  V30 9 1 9 10
M  V30 10 2 9 11
M  V30 11 1 11 12
M  V30 12 1 11 13
M  V30 13 1 13 14
M  V30 14 2 13 15
M  V30 15 1 15 16
M  V30 16 1 15 17
M  V30 17 2 17 18
M  V30 18 1 18 6
M  V30 19 1 17 8
M  V30 20 1 1 19
M  V30 21 1 1 20
M  V30 22 1 1 21
M  V30 23 1 2 22
M  V30 24 1 2 23
M  V30 25 1 3 24
M  V30 26 1 4 25
M  V30 27 1 5 26
M  V30 28 1 5 27
M  V30 END BOND
M  V30 END CTAB
M  END
>  <Dataset>  (263) 
ChEMBL_Kinases

>  <Ligand_Instance>  (263) 
nan

>  <PDB_ID>  (263) 
nan

>  <Standardized_SMILES>  (263) 
CCC(O)Cn1nc2c(Br)c(Br)c(Br)c(Br)c2n1

>  <Name>  (263) 
nan

>  <Pocket>  (263) 
nan

>  <ATP_Site>  (263) 
nan

>  <Peripheral>  (263) 
nan

>  <Num_H_Atoms_ProtBoundConf>  (263) 
nan

>  <Num_Resolved_Atoms>  (263) 
nan

>  <Num_Not_Resolved_Atoms>  (263) 
nan

$$$$
CHEMBL3322702
     RDKit          3D

  0  0  0  0  0  0  0  0  0  0999 V3000
M  V30 BEGIN CTAB
M  V30 COUNTS 27 28 0 0 0
M  V30 BEGIN ATOM
M  V30 1 C -0.953112 -1.166950 2.617290 0
M  V30 2 C -0.599552 -2.608202 2.524823 0
M  V30 3 C -0.376209 -3.167767 1.168631 0 CFG=2
M  V30 4 O -0.076379 -4.560233 1.341447 0
M  V30 5 C 0.770006 -2.645214 0.384495 0
M  V30 6 N 0.783109 -1.242197 0.086673 0
M  V30 7 N 0.195866 -0.722951 -1.006117 0
M  V30 8 C 0.442291 0.594806 -0.948189 0
M  V30 9 C 0.130016 1.682825 -1.741110 0
M  V30 10 Br -0.890764 1.395348 -3.330209 0
M  V30 11 C 0.518256 2.985067 -1.447939 0
M  V30 12 Br 0.078067 4.466460 -2.552069 0
M  V30 13 C 1.256211 3.222215 -0.306796 0
M  V30 14 Br 1.844861 4.967573 0.197409 0
M  V30 15 C 1.581580 2.153354 0.502474 0
M  V30 16 Br 2.606366 2.459159 2.093277 0
M  V30 17 C 1.179303 0.877961 0.179418 0
M  V30 18 N 1.380307 -0.278081 0.808700 0
M  V30 19 H -1.844954 -1.005156 3.278060 0
M  V30 20 H -1.209615 -0.667120 1.667374 0
M  V30 21 H -0.118288 -0.619420 3.093995 0
M  V30 22 H -1.457462 -3.186603 2.989401 0
M  V30 23 H 0.242264 -2.821551 3.231083 0
M  V30 24 H -1.319024 -3.145135 0.610997 0
M  V30 25 H -0.849510 -4.945273 1.816587 0
M  V30 26 H 0.766492 -3.197071 -0.605245 0
M  V30 27 H 1.765534 -2.970207 0.823773 0
M  V30 END ATOM
M  V30 BEGIN BOND
M  V30 1 1 1 2
M  V30 2 1 2 3
M  V30 3 1 3 4
M  V30 4 1 3 5
M  V30 5 1 5 6
M  V30 6 1 6 7
M  V30 7 2 7 8
M  V30 8 1 8 9
M  V30 9 1 9 10
M  V30 10 2 9 11
M  V30 11 1 11 12
M  V30 12 1 11 13
M  V30 13 1 13 14
M  V30 14 2 13 15
M  V30 15 1 15 16
M  V30 16 1 15 17
M  V30 17 2 17 18
M  V30 18 1 18 6
M  V30 19 1 17 8
M  V30 20 1 1 19
M  V30 21 1 1 20
M  V30 22 1 1 21
M  V30 23 1 2 22
M  V30 24 1 2 23
M  V30 25 1 3 24 CFG=3
M  V30 26 1 4 25
M  V30 27 1 5 26
M  V30 28 1 5 27
M  V30 END BOND
M  V30 END CTAB
M  END
>  <Dataset>  (264) 
ChEMBL_Kinases

>  <Ligand_Instance>  (264) 
nan

>  <PDB_ID>  (264) 
nan

>  <Standardized_SMILES>  (264) 
CC[C@H](O)Cn1nc2c(Br)c(Br)c(Br)c(Br)c2n1

>  <Name>  (264) 
nan

>  <Pocket>  (264) 
nan

>  <ATP_Site>  (264) 
nan

>  <Peripheral>  (264) 
nan

>  <Num_H_Atoms_ProtBoundConf>  (264) 
nan

>  <Num_Resolved_Atoms>  (264) 
nan

>  <Num_Not_Resolved_Atoms>  (264) 
nan

$$$$
CHEMBL3322704
     RDKit          3D

  0  0  0  0  0  0  0  0  0  0999 V3000
M  V30 BEGIN CTAB
M  V30 COUNTS 25 26 0 0 0
M  V30 BEGIN ATOM
M  V30 1 O -2.188231 -3.358233 0.409454 0
M  V30 2 C -1.525109 -2.327745 1.072098 0
M  V30 3 C -0.276525 -2.833085 1.767356 0
M  V30 4 O 0.604398 -3.383959 0.864874 0
M  V30 5 C 0.365652 -1.787791 2.616236 0
M  V30 6 N 0.752454 -0.637362 1.803025 0
M  V30 7 N -0.090243 0.384579 1.606082 0
M  V30 8 C 0.539340 1.287471 0.823458 0
M  V30 9 C 0.034455 2.508162 0.365971 0
M  V30 10 Br -1.700630 3.098894 0.804835 0
M  V30 11 C 0.922156 3.226048 -0.427765 0
M  V30 12 Br 0.300115 4.898305 -1.085400 0
M  V30 13 C 2.198501 2.788364 -0.748867 0
M  V30 14 Br 3.323002 3.855079 -1.842171 0
M  V30 15 C 2.577991 1.571159 -0.237788 0
M  V30 16 Br 4.342013 0.952397 -0.673920 0
M  V30 17 C 1.793492 0.774284 0.554308 0
M  V30 18 N 1.895578 -0.415714 1.173046 0
M  V30 19 H -2.842287 -3.743263 1.044803 0
M  V30 20 H -1.232847 -1.612354 0.251744 0
M  V30 21 H -2.197313 -1.901719 1.817435 0
M  V30 22 H -0.609618 -3.667176 2.433202 0
M  V30 23 H 0.191878 -3.412312 -0.025731 0
M  V30 24 H -0.370838 -1.471137 3.403460 0
M  V30 25 H 1.278064 -2.197526 3.060220 0
M  V30 END ATOM
M  V30 BEGIN BOND
M  V30 1 1 1 2
M  V30 2 1 2 3
M  V30 3 1 3 4
M  V30 4 1 3 5
M  V30 5 1 5 6
M  V30 6 1 6 7
M  V30 7 2 7 8
M  V30 8 1 8 9
M  V30 9 1 9 10
M  V30 10 2 9 11
M  V30 11 1 11 12
M  V30 12 1 11 13
M  V30 13 1 13 14
M  V30 14 2 13 15
M  V30 15 1 15 16
M  V30 16 1 15 17
M  V30 17 2 17 18
M  V30 18 1 18 6
M  V30 19 1 17 8
M  V30 20 1 1 19
M  V30 21 1 2 20
M  V30 22 1 2 21
M  V30 23 1 3 22
M  V30 24 1 4 23
M  V30 25 1 5 24
M  V30 26 1 5 25
M  V30 END BOND
M  V30 END CTAB
M  END
>  <Dataset>  (265) 
ChEMBL_Kinases

>  <Ligand_Instance>  (265) 
nan

>  <PDB_ID>  (265) 
nan

>  <Standardized_SMILES>  (265) 
OCC(O)Cn1nc2c(Br)c(Br)c(Br)c(Br)c2n1

>  <Name>  (265) 
nan

>  <Pocket>  (265) 
nan

>  <ATP_Site>  (265) 
nan

>  <Peripheral>  (265) 
nan

>  <Num_H_Atoms_ProtBoundConf>  (265) 
nan

>  <Num_Resolved_Atoms>  (265) 
nan

>  <Num_Not_Resolved_Atoms>  (265) 
nan

$$$$
CHEMBL3322933
     RDKit          3D

  0  0  0  0  0  0  0  0  0  0999 V3000
M  V30 BEGIN CTAB
M  V30 COUNTS 51 54 0 0 0
M  V30 BEGIN ATOM
M  V30 1 C 5.210761 -6.696138 -1.957763 0
M  V30 2 O 4.283976 -5.662341 -2.151192 0
M  V30 3 C 4.165660 -4.661684 -1.206250 0
M  V30 4 C 4.920717 -4.618667 -0.056505 0
M  V30 5 C 4.701698 -3.554204 0.807259 0
M  V30 6 O 5.387371 -3.393066 1.988041 0
M  V30 7 C 6.373081 -4.301891 2.428029 0
M  V30 8 C 3.797640 -2.546731 0.608546 0
M  V30 9 C 3.042008 -2.595413 -0.546773 0
M  V30 10 C 2.002878 -1.675984 -1.002084 0
M  V30 11 C 1.779739 -0.610902 -0.119114 0
M  V30 12 N 0.829565 0.222500 -0.555285 0
M  V30 13 C 0.040469 1.387436 -0.349644 0
M  V30 14 C 0.423439 2.677957 -0.751384 0
M  V30 15 C -0.464081 3.694602 -0.467992 0
M  V30 16 C -1.660688 3.466427 0.171831 0
M  V30 17 O -2.389424 4.625622 0.350730 0
M  V30 18 C -2.020635 2.198372 0.557816 0
M  V30 19 C -3.288903 1.985008 1.238621 0
M  V30 20 O -3.564222 0.776623 1.552286 0
M  V30 21 N -4.330784 2.834737 1.648145 0
M  V30 22 C -5.465587 2.290725 2.299964 0
M  V30 23 C -6.498977 1.974976 1.466605 0
M  V30 24 C -7.639887 1.438821 1.993561 0
M  V30 25 C -7.762269 1.212436 3.357291 0
M  V30 26 C -6.680861 1.556747 4.121368 0
M  V30 27 Cl -6.810074 1.279784 5.858219 0
M  V30 28 C -5.491624 2.102612 3.672907 0
M  V30 29 C -1.160703 1.173273 0.289935 0
M  V30 30 N 0.436414 -0.308242 -1.727656 0
M  V30 31 N 1.123238 -1.402126 -1.969659 0
M  V30 32 C 3.225973 -3.650268 -1.451331 0
M  V30 33 H 6.153642 -6.258470 -1.541732 0
M  V30 34 H 5.542151 -7.142425 -2.931929 0
M  V30 35 H 4.872377 -7.445778 -1.226101 0
M  V30 36 H 5.646151 -5.350840 0.189228 0
M  V30 37 H 6.550114 -4.175401 3.531106 0
M  V30 38 H 5.977312 -5.321606 2.212323 0
M  V30 39 H 7.305304 -4.150262 1.880158 0
M  V30 40 H 3.597442 -1.704437 1.252110 0
M  V30 41 H 2.149124 -0.242043 0.834848 0
M  V30 42 H 1.374908 2.689443 -1.234630 0
M  V30 43 H -0.100016 4.666921 -0.808283 0
M  V30 44 H -2.100103 5.358375 1.001589 0
M  V30 45 H -4.174160 3.834236 1.429778 0
M  V30 46 H -6.482668 2.124244 0.383105 0
M  V30 47 H -8.466456 1.183453 1.344520 0
M  V30 48 H -8.648638 0.792585 3.789922 0
M  V30 49 H -4.651358 2.365272 4.298793 0
M  V30 50 H -1.470479 0.170586 0.610206 0
M  V30 51 H 2.657150 -3.741561 -2.388875 0
M  V30 END ATOM
M  V30 BEGIN BOND
M  V30 1 1 1 2
M  V30 2 1 2 3
M  V30 3 2 3 4
M  V30 4 1 4 5
M  V30 5 1 5 6
M  V30 6 1 6 7
M  V30 7 2 5 8
M  V30 8 1 8 9
M  V30 9 1 9 10
M  V30 10 2 10 11
M  V30 11 1 11 12
M  V30 12 1 12 13
M  V30 13 2 13 14
M  V30 14 1 14 15
M  V30 15 2 15 16
M  V30 16 1 16 17
M  V30 17 1 16 18
M  V30 18 1 18 19
M  V30 19 2 19 20
M  V30 20 1 19 21
M  V30 21 1 21 22
M  V30 22 2 22 23
M  V30 23 1 23 24
M  V30 24 2 24 25
M  V30 25 1 25 26
M  V30 26 1 26 27
M  V30 27 2 26 28
M  V30 28 2 18 29
M  V30 29 1 12 30
M  V30 30 2 30 31
M  V30 31 2 9 32
M  V30 32 1 32 3
M  V30 33 1 31 10
M  V30 34 1 29 13
M  V30 35 1 28 22
M  V30 36 1 1 33
M  V30 37 1 1 34
M  V30 38 1 1 35
M  V30 39 1 4 36
M  V30 40 1 7 37
M  V30 41 1 7 38
M  V30 42 1 7 39
M  V30 43 1 8 40
M  V30 44 1 11 41
M  V30 45 1 14 42
M  V30 46 1 15 43
M  V30 47 1 17 44
M  V30 48 1 21 45
M  V30 49 1 23 46
M  V30 50 1 24 47
M  V30 51 1 25 48
M  V30 52 1 28 49
M  V30 53 1 29 50
M  V30 54 1 32 51
M  V30 END BOND
M  V30 END CTAB
M  END
>  <Dataset>  (266) 
ChEMBL_Kinases

>  <Ligand_Instance>  (266) 
nan

>  <PDB_ID>  (266) 
nan

>  <Standardized_SMILES>  (266) 
COc1cc(OC)cc(-c2cn(-c3ccc(O)c(C(=O)Nc4cccc(Cl)c4)c3)nn2)c1

>  <Name>  (266) 
nan

>  <Pocket>  (266) 
nan

>  <ATP_Site>  (266) 
nan

>  <Peripheral>  (266) 
nan

>  <Num_H_Atoms_ProtBoundConf>  (266) 
nan

>  <Num_Resolved_Atoms>  (266) 
nan

>  <Num_Not_Resolved_Atoms>  (266) 
nan

$$$$
CHEMBL3322937
     RDKit          3D

  0  0  0  0  0  0  0  0  0  0999 V3000
M  V30 BEGIN CTAB
M  V30 COUNTS 52 55 0 0 0
M  V30 BEGIN ATOM
M  V30 1 O 3.217202 1.132179 4.137818 0
M  V30 2 C 2.352144 0.762682 3.303376 0
M  V30 3 N 2.666286 0.872187 1.928354 0
M  V30 4 C 3.844270 1.349563 1.311557 0
M  V30 5 C 4.979313 1.826929 1.904540 0
M  V30 6 C 6.087777 2.275063 1.250093 0
M  V30 7 C 6.091830 2.256631 -0.123638 0
M  V30 8 C 4.985983 1.790553 -0.768953 0
M  V30 9 C 4.965118 1.760282 -2.248869 0
M  V30 10 F 3.732342 2.187717 -2.691194 0
M  V30 11 F 5.905812 2.591945 -2.810325 0
M  V30 12 F 5.185015 0.471961 -2.731036 0
M  V30 13 C 3.900221 1.352546 -0.063008 0
M  V30 14 C 1.093131 0.250499 3.829139 0
M  V30 15 C 0.043686 -0.194085 3.067574 0
M  V30 16 C -1.139258 -0.675454 3.552707 0
M  V30 17 N -2.190966 -1.122356 2.697626 0
M  V30 18 C -2.013543 -1.500125 1.403295 0
M  V30 19 C -3.252865 -1.864485 0.910800 0
M  V30 20 C -3.553599 -2.340612 -0.439507 0
M  V30 21 C -4.860793 -2.659296 -0.750566 0
M  V30 22 C -5.094833 -3.102895 -2.033375 0
M  V30 23 C -6.488108 -3.465038 -2.436252 0
M  V30 24 F -7.390175 -2.447462 -2.182495 0
M  V30 25 F -6.500336 -3.842616 -3.758317 0
M  V30 26 F -6.847807 -4.551805 -1.642847 0
M  V30 27 C -4.058491 -3.219380 -2.958637 0
M  V30 28 C -2.758202 -2.898367 -2.636487 0
M  V30 29 C -1.695892 -3.040649 -3.657594 0
M  V30 30 F -0.442338 -2.915103 -3.092793 0
M  V30 31 F -1.773189 -2.027078 -4.616611 0
M  V30 32 F -1.726591 -4.248174 -4.306229 0
M  V30 33 C -2.522766 -2.453852 -1.351514 0
M  V30 34 N -4.133903 -1.696666 1.915714 0
M  V30 35 N -3.471803 -1.245380 2.993510 0
M  V30 36 C -1.328965 -0.733693 4.918850 0
M  V30 37 C -0.306257 -0.299331 5.735984 0
M  V30 38 C 0.866378 0.176874 5.189248 0
M  V30 39 O 1.865535 0.602551 6.077034 0
M  V30 40 H 1.878765 0.538259 1.335301 0
M  V30 41 H 5.022075 1.860334 2.980303 0
M  V30 42 H 6.953365 2.640259 1.781058 0
M  V30 43 H 6.926000 2.592448 -0.713323 0
M  V30 44 H 3.040471 0.988992 -0.646545 0
M  V30 45 H 0.115751 -0.180046 1.999578 0
M  V30 46 H -1.082110 -1.517539 0.848833 0
M  V30 47 H -5.679397 -2.579475 -0.058405 0
M  V30 48 H -4.253057 -3.573370 -3.978122 0
M  V30 49 H -1.506790 -2.189793 -1.057787 0
M  V30 50 H -2.262628 -1.113499 5.310188 0
M  V30 51 H -0.412067 -0.327067 6.820810 0
M  V30 52 H 2.392596 -0.152307 6.534829 0
M  V30 END ATOM
M  V30 BEGIN BOND
M  V30 1 2 1 2
M  V30 2 1 2 3
M  V30 3 1 3 4
M  V30 4 2 4 5
M  V30 5 1 5 6
M  V30 6 2 6 7
M  V30 7 1 7 8
M  V30 8 1 8 9
M  V30 9 1 9 10
M  V30 10 1 9 11
M  V30 11 1 9 12
M  V30 12 2 8 13
M  V30 13 1 2 14
M  V30 14 2 14 15
M  V30 15 1 15 16
M  V30 16 1 16 17
M  V30 17 1 17 18
M  V30 18 2 18 19
M  V30 19 1 19 20
M  V30 20 2 20 21
M  V30 21 1 21 22
M  V30 22 1 22 23
M  V30 23 1 23 24
M  V30 24 1 23 25
M  V30 25 1 23 26
M  V30 26 2 22 27
M  V30 27 1 27 28
M  V30 28 1 28 29
M  V30 29 1 29 30
M  V30 30 1 29 31
M  V30 31 1 29 32
M  V30 32 2 28 33
M  V30 33 1 19 34
M  V30 34 2 34 35
M  V30 35 2 16 36
M  V30 36 1 36 37
M  V30 37 2 37 38
M  V30 38 1 38 39
M  V30 39 1 13 4
M  V30 40 1 38 14
M  V30 41 1 35 17
M  V30 42 1 33 20
M  V30 43 1 3 40
M  V30 44 1 5 41
M  V30 45 1 6 42
M  V30 46 1 7 43
M  V30 47 1 13 44
M  V30 48 1 15 45
M  V30 49 1 18 46
M  V30 50 1 21 47
M  V30 51 1 27 48
M  V30 52 1 33 49
M  V30 53 1 36 50
M  V30 54 1 37 51
M  V30 55 1 39 52
M  V30 END BOND
M  V30 END CTAB
M  END
>  <Dataset>  (267) 
ChEMBL_Kinases

>  <Ligand_Instance>  (267) 
nan

>  <PDB_ID>  (267) 
nan

>  <Standardized_SMILES>  (267) 
O=C(Nc1cccc(C(F)(F)F)c1)c1cc(-n2cc(-c3cc(C(F)(F)F)cc(C(F)(F)F)c3)nn2)ccc1O

>  <Name>  (267) 
nan

>  <Pocket>  (267) 
nan

>  <ATP_Site>  (267) 
nan

>  <Peripheral>  (267) 
nan

>  <Num_H_Atoms_ProtBoundConf>  (267) 
nan

>  <Num_Resolved_Atoms>  (267) 
nan

>  <Num_Not_Resolved_Atoms>  (267) 
nan

$$$$
CHEMBL3322697
     RDKit          3D

  0  0  0  0  0  0  0  0  0  0999 V3000
M  V30 BEGIN CTAB
M  V30 COUNTS 24 25 0 0 0
M  V30 BEGIN ATOM
M  V30 1 C -0.557930 -2.979873 0.471853 0
M  V30 2 C -0.246795 -2.702021 1.917909 0 CFG=1
M  V30 3 O -0.319839 -3.851897 2.661517 0
M  V30 4 C 1.095677 -2.027272 2.049396 0
M  V30 5 N 1.115994 -0.770149 1.334717 0
M  V30 6 N 1.433555 -0.427172 0.096534 0
M  V30 7 C 1.275260 0.907147 -0.060739 0
M  V30 8 C 1.485205 1.693031 -1.167007 0
M  V30 9 Br 2.090411 0.975877 -2.821500 0
M  V30 10 C 1.246194 3.054327 -1.068300 0
M  V30 11 Br 1.506222 4.244867 -2.550239 0
M  V30 12 C 0.805014 3.561494 0.145798 0
M  V30 13 Br 0.457648 5.435985 0.342764 0
M  V30 14 C 0.598283 2.758920 1.249912 0
M  V30 15 Br -0.007587 3.440432 2.924953 0
M  V30 16 C 0.836704 1.402737 1.150533 0
M  V30 17 N 0.752096 0.343970 1.978150 0
M  V30 18 H 0.179153 -2.432917 -0.149428 0
M  V30 19 H -1.582101 -2.613554 0.181717 0
M  V30 20 H -0.477526 -4.082506 0.243383 0
M  V30 21 H -0.998674 -1.944546 2.253326 0
M  V30 22 H -1.067184 -3.752241 3.324801 0
M  V30 23 H 1.407004 -1.930730 3.095610 0
M  V30 24 H 1.825353 -2.712165 1.548353 0
M  V30 END ATOM
M  V30 BEGIN BOND
M  V30 1 1 1 2
M  V30 2 1 2 3
M  V30 3 1 2 4
M  V30 4 1 4 5
M  V30 5 1 5 6
M  V30 6 2 6 7
M  V30 7 1 7 8
M  V30 8 1 8 9
M  V30 9 2 8 10
M  V30 10 1 10 11
M  V30 11 1 10 12
M  V30 12 1 12 13
M  V30 13 2 12 14
M  V30 14 1 14 15
M  V30 15 1 14 16
M  V30 16 2 16 17
M  V30 17 1 17 5
M  V30 18 1 16 7
M  V30 19 1 1 18
M  V30 20 1 1 19
M  V30 21 1 1 20
M  V30 22 1 2 21 CFG=1
M  V30 23 1 3 22
M  V30 24 1 4 23
M  V30 25 1 4 24
M  V30 END BOND
M  V30 END CTAB
M  END
>  <Dataset>  (268) 
ChEMBL_Kinases

>  <Ligand_Instance>  (268) 
nan

>  <PDB_ID>  (268) 
nan

>  <Standardized_SMILES>  (268) 
C[C@@H](O)Cn1nc2c(Br)c(Br)c(Br)c(Br)c2n1

>  <Name>  (268) 
nan

>  <Pocket>  (268) 
nan

>  <ATP_Site>  (268) 
nan

>  <Peripheral>  (268) 
nan

>  <Num_H_Atoms_ProtBoundConf>  (268) 
nan

>  <Num_Resolved_Atoms>  (268) 
nan

>  <Num_Not_Resolved_Atoms>  (268) 
nan

$$$$
CHEMBL3314146
     RDKit          3D

  0  0  0  0  0  0  0  0  0  0999 V3000
M  V30 BEGIN CTAB
M  V30 COUNTS 56 61 0 0 0
M  V30 BEGIN ATOM
M  V30 1 Cl 4.284050 -6.412663 2.927139 0
M  V30 2 C 3.957426 -4.895075 2.101157 0
M  V30 3 C 4.484648 -4.664888 0.826853 0
M  V30 4 C 4.232940 -3.476400 0.171839 0
M  V30 5 C 3.459348 -2.493797 0.756836 0
M  V30 6 C 3.145597 -1.209936 0.132798 0
M  V30 7 C 3.615588 -0.881203 -1.122732 0
M  V30 8 C 3.166367 0.383082 -1.457896 0
M  V30 9 C 2.428111 0.763117 -0.357615 0
M  V30 10 C 1.682524 1.991052 -0.067381 0
M  V30 11 N 2.330948 3.190917 0.032399 0
M  V30 12 C 1.389132 4.138432 0.305253 0
M  V30 13 C 1.383837 5.502722 0.517781 0
M  V30 14 C 0.173284 6.113484 0.774151 0
M  V30 15 C -1.044004 5.465838 0.836044 0
M  V30 16 C -1.008650 4.083619 0.616725 0
M  V30 17 C 0.193933 3.447926 0.357549 0
M  V30 18 N 0.347401 2.127925 0.132077 0
M  V30 19 C -0.600936 1.092663 0.097879 0
M  V30 20 C -0.728003 0.332681 1.244162 0
M  V30 21 C -1.624337 -0.712160 1.334738 0
M  V30 22 C -2.449572 -1.054095 0.269551 0
M  V30 23 N -3.392035 -2.104691 0.276673 0
M  V30 24 C -4.246982 -2.453726 -0.858548 0
M  V30 25 C -4.601756 -3.928504 -0.710989 0
M  V30 26 N -3.497526 -4.723595 -0.235468 0
M  V30 27 C -3.106737 -4.365075 1.114607 0
M  V30 28 C -3.635949 -2.975004 1.410776 0
M  V30 29 C -2.322619 -0.299570 -0.866891 0
M  V30 30 C -1.431674 0.750179 -0.977625 0
M  V30 31 O 2.424889 -0.189728 0.575536 0
M  V30 32 C 2.975167 -2.795885 2.015326 0
M  V30 33 C 3.172334 -3.948404 2.744010 0
M  V30 34 H 5.096521 -5.397855 0.321043 0
M  V30 35 H 4.635281 -3.286647 -0.814350 0
M  V30 36 H 4.243110 -1.464661 -1.804643 0
M  V30 37 H 3.290877 1.019187 -2.324516 0
M  V30 38 H 2.318370 6.034703 0.475690 0
M  V30 39 H 0.152714 7.193330 0.944538 0
M  V30 40 H -1.950824 6.018588 1.042797 0
M  V30 41 H -1.966089 3.539981 0.660094 0
M  V30 42 H -0.117357 0.537341 2.121995 0
M  V30 43 H -1.703300 -1.283194 2.229723 0
M  V30 44 H -3.791493 -2.234508 -1.828330 0
M  V30 45 H -5.209405 -1.905167 -0.667657 0
M  V30 46 H -4.889370 -4.327986 -1.706322 0
M  V30 47 H -5.462049 -4.098325 -0.049684 0
M  V30 48 H -2.681723 -4.717873 -0.889793 0
M  V30 49 H -3.458736 -5.094245 1.845395 0
M  V30 50 H -2.002496 -4.321368 1.141018 0
M  V30 51 H -3.242544 -2.611999 2.361138 0
M  V30 52 H -4.740857 -3.083538 1.565507 0
M  V30 53 H -2.870800 -0.417192 -1.776947 0
M  V30 54 H -1.283977 1.382063 -1.844142 0
M  V30 55 H 2.356719 -2.017613 2.490062 0
M  V30 56 H 2.744189 -4.068123 3.713519 0
M  V30 END ATOM
M  V30 BEGIN BOND
M  V30 1 1 1 2
M  V30 2 2 2 3
M  V30 3 1 3 4
M  V30 4 2 4 5
M  V30 5 1 5 6
M  V30 6 2 6 7
M  V30 7 1 7 8
M  V30 8 2 8 9
M  V30 9 1 9 10
M  V30 10 2 10 11
M  V30 11 1 11 12
M  V30 12 2 12 13
M  V30 13 1 13 14
M  V30 14 2 14 15
M  V30 15 1 15 16
M  V30 16 2 16 17
M  V30 17 1 17 18
M  V30 18 1 18 19
M  V30 19 2 19 20
M  V30 20 1 20 21
M  V30 21 2 21 22
M  V30 22 1 22 23
M  V30 23 1 23 24
M  V30 24 1 24 25
M  V30 25 1 25 26
M  V30 26 1 26 27
M  V30 27 1 27 28
M  V30 28 1 22 29
M  V30 29 2 29 30
M  V30 30 1 9 31
M  V30 31 1 5 32
M  V30 32 2 32 33
M  V30 33 1 33 2
M  V30 34 1 31 6
M  V30 35 1 18 10
M  V30 36 1 30 19
M  V30 37 1 17 12
M  V30 38 1 28 23
M  V30 39 1 3 34
M  V30 40 1 4 35
M  V30 41 1 7 36
M  V30 42 1 8 37
M  V30 43 1 13 38
M  V30 44 1 14 39
M  V30 45 1 15 40
M  V30 46 1 16 41
M  V30 47 1 20 42
M  V30 48 1 21 43
M  V30 49 1 24 44
M  V30 50 1 24 45
M  V30 51 1 25 46
M  V30 52 1 25 47
M  V30 53 1 26 48
M  V30 54 1 27 49
M  V30 55 1 27 50
M  V30 56 1 28 51
M  V30 57 1 28 52
M  V30 58 1 29 53
M  V30 59 1 30 54
M  V30 60 1 32 55
M  V30 61 1 33 56
M  V30 END BOND
M  V30 END CTAB
M  END
>  <Dataset>  (269) 
ChEMBL_Kinases

>  <Ligand_Instance>  (269) 
nan

>  <PDB_ID>  (269) 
nan

>  <Standardized_SMILES>  (269) 
Clc1ccc(-c2ccc(-c3nc4ccccc4n3-c3ccc(N4CCNCC4)cc3)o2)cc1

>  <Name>  (269) 
nan

>  <Pocket>  (269) 
nan

>  <ATP_Site>  (269) 
nan

>  <Peripheral>  (269) 
nan

>  <Num_H_Atoms_ProtBoundConf>  (269) 
nan

>  <Num_Resolved_Atoms>  (269) 
nan

>  <Num_Not_Resolved_Atoms>  (269) 
nan

$$$$
CHEMBL3314145
     RDKit          3D

  0  0  0  0  0  0  0  0  0  0999 V3000
M  V30 BEGIN CTAB
M  V30 COUNTS 49 53 0 0 0
M  V30 BEGIN ATOM
M  V30 1 N 1.543397 -7.518929 -0.509520 0
M  V30 2 C 1.396594 -6.442999 -0.913270 0
M  V30 3 C 1.188275 -5.092148 -1.412850 0
M  V30 4 C 1.710540 -4.052257 -0.674511 0
M  V30 5 C 1.508271 -2.760150 -1.157351 0
M  V30 6 C 0.811751 -2.515438 -2.331579 0
M  V30 7 C 0.654027 -1.123581 -2.752752 0
M  V30 8 C 0.000067 -0.673091 -3.880942 0
M  V30 9 C 0.113702 0.703519 -3.853933 0
M  V30 10 C 0.829320 1.006359 -2.711828 0
M  V30 11 C 1.262416 2.279083 -2.147195 0
M  V30 12 N 1.870234 3.244200 -2.849229 0
M  V30 13 N 2.115656 4.238332 -2.032490 0
M  V30 14 N 1.667740 3.893473 -0.848302 0
M  V30 15 N 1.129416 2.684701 -0.870886 0
M  V30 16 C 0.539440 1.960756 0.197928 0
M  V30 17 C 1.180360 0.900298 0.778494 0
M  V30 18 C 0.642711 0.173879 1.815391 0
M  V30 19 C -0.592407 0.483098 2.332129 0
M  V30 20 N -1.230965 -0.207041 3.401557 0
M  V30 21 C -2.535942 0.071065 3.979977 0
M  V30 22 C -2.228078 0.607449 5.386204 0
M  V30 23 N -1.708258 -0.496493 6.164971 0
M  V30 24 C -0.545144 -1.093569 5.592684 0
M  V30 25 C -0.640376 -1.336171 4.096098 0
M  V30 26 C -1.240650 1.551178 1.749183 0
M  V30 27 C -0.700325 2.279900 0.708358 0
M  V30 28 O 1.127219 -0.115825 -2.091369 0
M  V30 29 C 0.303870 -3.583422 -3.042989 0
M  V30 30 C 0.486774 -4.890975 -2.590209 0
M  V30 31 H 2.257374 -4.219001 0.244422 0
M  V30 32 H 1.929773 -1.976295 -0.555026 0
M  V30 33 H -0.503270 -1.243280 -4.642756 0
M  V30 34 H -0.249826 1.453304 -4.539094 0
M  V30 35 H 2.159076 0.612909 0.408970 0
M  V30 36 H 1.188397 -0.635409 2.221424 0
M  V30 37 H -3.132349 -0.869435 4.088236 0
M  V30 38 H -3.098860 0.860602 3.487507 0
M  V30 39 H -3.120966 0.996398 5.870143 0
M  V30 40 H -1.410917 1.346892 5.226587 0
M  V30 41 H -1.411359 -0.072003 7.082704 0
M  V30 42 H 0.377882 -0.573543 5.891167 0
M  V30 43 H -0.454239 -2.117546 6.059202 0
M  V30 44 H -1.368890 -2.187790 3.998459 0
M  V30 45 H 0.334723 -1.648261 3.736836 0
M  V30 46 H -2.212566 1.928628 2.029699 0
M  V30 47 H -1.193034 3.129587 0.229558 0
M  V30 48 H -0.235088 -3.350285 -3.956673 0
M  V30 49 H 0.077406 -5.718122 -3.167535 0
M  V30 END ATOM
M  V30 BEGIN BOND
M  V30 1 3 1 2
M  V30 2 1 2 3
M  V30 3 2 3 4
M  V30 4 1 4 5
M  V30 5 2 5 6
M  V30 6 1 6 7
M  V30 7 2 7 8
M  V30 8 1 8 9
M  V30 9 2 9 10
M  V30 10 1 10 11
M  V30 11 2 11 12
M  V30 12 1 12 13
M  V30 13 2 13 14
M  V30 14 1 14 15
M  V30 15 1 15 16
M  V30 16 2 16 17
M  V30 17 1 17 18
M  V30 18 2 18 19
M  V30 19 1 19 20
M  V30 20 1 20 21
M  V30 21 1 21 22
M  V30 22 1 22 23
M  V30 23 1 23 24
M  V30 24 1 24 25
M  V30 25 1 19 26
M  V30 26 2 26 27
M  V30 27 1 10 28
M  V30 28 1 6 29
M  V30 29 2 29 30
M  V30 30 1 30 3
M  V30 31 1 28 7
M  V30 32 1 15 11
M  V30 33 1 27 16
M  V30 34 1 25 20
M  V30 35 1 4 31
M  V30 36 1 5 32
M  V30 37 1 8 33
M  V30 38 1 9 34
M  V30 39 1 17 35
M  V30 40 1 18 36
M  V30 41 1 21 37
M  V30 42 1 21 38
M  V30 43 1 22 39
M  V30 44 1 22 40
M  V30 45 1 23 41
M  V30 46 1 24 42
M  V30 47 1 24 43
M  V30 48 1 25 44
M  V30 49 1 25 45
M  V30 50 1 26 46
M  V30 51 1 27 47
M  V30 52 1 29 48
M  V30 53 1 30 49
M  V30 END BOND
M  V30 END CTAB
M  END
>  <Dataset>  (270) 
ChEMBL_Kinases

>  <Ligand_Instance>  (270) 
nan

>  <PDB_ID>  (270) 
nan

>  <Standardized_SMILES>  (270) 
N#Cc1ccc(-c2ccc(-c3nnnn3-c3ccc(N4CCNCC4)cc3)o2)cc1

>  <Name>  (270) 
nan

>  <Pocket>  (270) 
nan

>  <ATP_Site>  (270) 
nan

>  <Peripheral>  (270) 
nan

>  <Num_H_Atoms_ProtBoundConf>  (270) 
nan

>  <Num_Resolved_Atoms>  (270) 
nan

>  <Num_Not_Resolved_Atoms>  (270) 
nan

$$$$
CHEMBL3314144
     RDKit          3D

  0  0  0  0  0  0  0  0  0  0999 V3000
M  V30 BEGIN CTAB
M  V30 COUNTS 49 53 0 0 0
M  V30 BEGIN ATOM
M  V30 1 Cl 3.642019 -5.768771 2.185199 0
M  V30 2 C 3.203416 -4.552974 1.004344 0
M  V30 3 C 2.790266 -3.310320 1.471580 0
M  V30 4 C 2.425129 -2.289555 0.628146 0
M  V30 5 C 2.476187 -2.523361 -0.730535 0
M  V30 6 C 2.097544 -1.468380 -1.657399 0
M  V30 7 C 2.098392 -1.554240 -3.025167 0
M  V30 8 C 1.667541 -0.315504 -3.451195 0
M  V30 9 C 1.425804 0.461022 -2.352261 0
M  V30 10 C 0.949080 1.857547 -2.398846 0
M  V30 11 N 1.372019 2.747688 -3.309315 0
M  V30 12 C 0.765252 3.928551 -3.102003 0
M  V30 13 N -0.047256 3.761691 -2.042836 0
M  V30 14 N 0.052653 2.502080 -1.600715 0
M  V30 15 C -0.586081 1.826687 -0.524527 0
M  V30 16 C -0.653594 2.422472 0.717154 0
M  V30 17 C -1.266102 1.792870 1.779730 0
M  V30 18 C -1.839560 0.551354 1.672087 0
M  V30 19 N -2.468080 -0.092727 2.765379 0
M  V30 20 C -2.588410 0.455947 4.098178 0
M  V30 21 C -1.979170 -0.425458 5.146831 0
M  V30 22 N -1.959637 -1.806460 4.907657 0
M  V30 23 C -2.274596 -2.294079 3.629208 0
M  V30 24 C -3.090335 -1.399762 2.732724 0
M  V30 25 C -1.756983 -0.016738 0.424964 0
M  V30 26 C -1.149287 0.594931 -0.651207 0
M  V30 27 O 1.698569 -0.275617 -1.301326 0
M  V30 28 C 2.889466 -3.764852 -1.173098 0
M  V30 29 C 3.260056 -4.803986 -0.367289 0
M  V30 30 H 2.742358 -3.103945 2.531369 0
M  V30 31 H 2.102396 -1.320623 0.965754 0
M  V30 32 H 2.375906 -2.407046 -3.650933 0
M  V30 33 H 1.550711 -0.036870 -4.506739 0
M  V30 34 H 0.795470 4.908431 -3.576757 0
M  V30 35 H -0.200609 3.407365 0.809164 0
M  V30 36 H -1.254669 2.350536 2.684123 0
M  V30 37 H -3.696737 0.484392 4.323906 0
M  V30 38 H -2.220426 1.480778 4.213264 0
M  V30 39 H -2.508767 -0.218381 6.102866 0
M  V30 40 H -0.942197 -0.015744 5.331046 0
M  V30 41 H -0.996753 -2.180797 5.168404 0
M  V30 42 H -1.420893 -2.673596 3.025566 0
M  V30 43 H -2.916355 -3.213035 3.776146 0
M  V30 44 H -3.108592 -1.860155 1.746957 0
M  V30 45 H -4.114965 -1.362565 3.205290 0
M  V30 46 H -2.166551 -0.989692 0.203251 0
M  V30 47 H -1.094510 0.129812 -1.627945 0
M  V30 48 H 2.932458 -3.957230 -2.244191 0
M  V30 49 H 3.581324 -5.769146 -0.710403 0
M  V30 END ATOM
M  V30 BEGIN BOND
M  V30 1 1 1 2
M  V30 2 2 2 3
M  V30 3 1 3 4
M  V30 4 2 4 5
M  V30 5 1 5 6
M  V30 6 2 6 7
M  V30 7 1 7 8
M  V30 8 2 8 9
M  V30 9 1 9 10
M  V30 10 2 10 11
M  V30 11 1 11 12
M  V30 12 2 12 13
M  V30 13 1 13 14
M  V30 14 1 14 15
M  V30 15 2 15 16
M  V30 16 1 16 17
M  V30 17 2 17 18
M  V30 18 1 18 19
M  V30 19 1 19 20
M  V30 20 1 20 21
M  V30 21 1 21 22
M  V30 22 1 22 23
M  V30 23 1 23 24
M  V30 24 1 18 25
M  V30 25 2 25 26
M  V30 26 1 9 27
M  V30 27 1 5 28
M  V30 28 2 28 29
M  V30 29 1 29 2
M  V30 30 1 27 6
M  V30 31 1 14 10
M  V30 32 1 26 15
M  V30 33 1 24 19
M  V30 34 1 3 30
M  V30 35 1 4 31
M  V30 36 1 7 32
M  V30 37 1 8 33
M  V30 38 1 12 34
M  V30 39 1 16 35
M  V30 40 1 17 36
M  V30 41 1 20 37
M  V30 42 1 20 38
M  V30 43 1 21 39
M  V30 44 1 21 40
M  V30 45 1 22 41
M  V30 46 1 23 42
M  V30 47 1 23 43
M  V30 48 1 24 44
M  V30 49 1 24 45
M  V30 50 1 25 46
M  V30 51 1 26 47
M  V30 52 1 28 48
M  V30 53 1 29 49
M  V30 END BOND
M  V30 END CTAB
M  END
>  <Dataset>  (271) 
ChEMBL_Kinases

>  <Ligand_Instance>  (271) 
nan

>  <PDB_ID>  (271) 
nan

>  <Standardized_SMILES>  (271) 
Clc1ccc(-c2ccc(-c3ncnn3-c3ccc(N4CCNCC4)cc3)o2)cc1

>  <Name>  (271) 
nan

>  <Pocket>  (271) 
nan

>  <ATP_Site>  (271) 
nan

>  <Peripheral>  (271) 
nan

>  <Num_H_Atoms_ProtBoundConf>  (271) 
nan

>  <Num_Resolved_Atoms>  (271) 
nan

>  <Num_Not_Resolved_Atoms>  (271) 
nan

$$$$
CHEMBL3314143
     RDKit          3D

  0  0  0  0  0  0  0  0  0  0999 V3000
M  V30 BEGIN CTAB
M  V30 COUNTS 50 54 0 0 0
M  V30 BEGIN ATOM
M  V30 1 N 4.344938 -7.605289 -0.323211 0
M  V30 2 C 4.011635 -6.542608 -0.677848 0
M  V30 3 C 3.588479 -5.235535 -1.092897 0
M  V30 4 C 3.018195 -4.987861 -2.325361 0
M  V30 5 C 2.617305 -3.707869 -2.700157 0
M  V30 6 C 2.806950 -2.678739 -1.796221 0
M  V30 7 C 2.402932 -1.296821 -2.133177 0
M  V30 8 C 1.823476 -0.924673 -3.331651 0
M  V30 9 C 1.628401 0.440406 -3.184295 0
M  V30 10 C 2.086752 0.829374 -1.932695 0
M  V30 11 C 2.004548 2.222926 -1.507015 0
M  V30 12 N 2.647657 3.367347 -1.866372 0
M  V30 13 N 2.177683 4.375314 -1.148924 0
M  V30 14 C 1.238763 3.881357 -0.334047 0
M  V30 15 N 1.116224 2.538043 -0.543077 0
M  V30 16 C 0.150718 1.863868 0.253842 0
M  V30 17 C 0.559831 0.831015 1.062985 0
M  V30 18 C -0.320263 0.140808 1.855153 0
M  V30 19 C -1.665231 0.431944 1.895148 0
M  V30 20 N -2.632883 -0.238433 2.690994 0
M  V30 21 C -4.059167 0.017076 2.742186 0
M  V30 22 C -4.481514 0.501353 4.136748 0
M  V30 23 N -3.360864 0.326369 5.008123 0
M  V30 24 C -2.830134 -1.000560 5.012844 0
M  V30 25 C -2.316289 -1.318057 3.606180 0
M  V30 26 C -2.058145 1.468861 1.078994 0
M  V30 27 C -1.192290 2.178404 0.273084 0
M  V30 28 O 2.526516 -0.254571 -1.379252 0
M  V30 29 C 3.377281 -2.928450 -0.564541 0
M  V30 30 C 3.772637 -4.200768 -0.199366 0
M  V30 31 H 2.893787 -5.836534 -2.995486 0
M  V30 32 H 2.170793 -3.522712 -3.669084 0
M  V30 33 H 1.575712 -1.554220 -4.194497 0
M  V30 34 H 1.171088 1.013366 -4.006047 0
M  V30 35 H 0.735793 4.570495 0.337642 0
M  V30 36 H 1.604732 0.542912 1.085770 0
M  V30 37 H 0.055187 -0.659896 2.469688 0
M  V30 38 H -4.398035 0.706926 1.969584 0
M  V30 39 H -4.576041 -0.966444 2.536815 0
M  V30 40 H -4.671319 1.608743 4.099429 0
M  V30 41 H -5.375401 -0.055380 4.482045 0
M  V30 42 H -2.682289 1.091831 5.001239 0
M  V30 43 H -3.574436 -1.721348 5.356760 0
M  V30 44 H -1.977826 -0.994837 5.737364 0
M  V30 45 H -2.928649 -2.202838 3.256498 0
M  V30 46 H -1.276266 -1.633174 3.613547 0
M  V30 47 H -3.068847 1.837142 0.980104 0
M  V30 48 H -1.475035 2.996668 -0.376952 0
M  V30 49 H 3.500743 -2.078275 0.104052 0
M  V30 50 H 4.213689 -4.278090 0.804620 0
M  V30 END ATOM
M  V30 BEGIN BOND
M  V30 1 3 1 2
M  V30 2 1 2 3
M  V30 3 2 3 4
M  V30 4 1 4 5
M  V30 5 2 5 6
M  V30 6 1 6 7
M  V30 7 2 7 8
M  V30 8 1 8 9
M  V30 9 2 9 10
M  V30 10 1 10 11
M  V30 11 2 11 12
M  V30 12 1 12 13
M  V30 13 2 13 14
M  V30 14 1 14 15
M  V30 15 1 15 16
M  V30 16 2 16 17
M  V30 17 1 17 18
M  V30 18 2 18 19
M  V30 19 1 19 20
M  V30 20 1 20 21
M  V30 21 1 21 22
M  V30 22 1 22 23
M  V30 23 1 23 24
M  V30 24 1 24 25
M  V30 25 1 19 26
M  V30 26 2 26 27
M  V30 27 1 10 28
M  V30 28 1 6 29
M  V30 29 2 29 30
M  V30 30 1 30 3
M  V30 31 1 28 7
M  V30 32 1 15 11
M  V30 33 1 27 16
M  V30 34 1 25 20
M  V30 35 1 4 31
M  V30 36 1 5 32
M  V30 37 1 8 33
M  V30 38 1 9 34
M  V30 39 1 14 35
M  V30 40 1 17 36
M  V30 41 1 18 37
M  V30 42 1 21 38
M  V30 43 1 21 39
M  V30 44 1 22 40
M  V30 45 1 22 41
M  V30 46 1 23 42
M  V30 47 1 24 43
M  V30 48 1 24 44
M  V30 49 1 25 45
M  V30 50 1 25 46
M  V30 51 1 26 47
M  V30 52 1 27 48
M  V30 53 1 29 49
M  V30 54 1 30 50
M  V30 END BOND
M  V30 END CTAB
M  END
>  <Dataset>  (272) 
ChEMBL_Kinases

>  <Ligand_Instance>  (272) 
nan

>  <PDB_ID>  (272) 
nan

>  <Standardized_SMILES>  (272) 
N#Cc1ccc(-c2ccc(-c3nncn3-c3ccc(N4CCNCC4)cc3)o2)cc1

>  <Name>  (272) 
nan

>  <Pocket>  (272) 
nan

>  <ATP_Site>  (272) 
nan

>  <Peripheral>  (272) 
nan

>  <Num_H_Atoms_ProtBoundConf>  (272) 
nan

>  <Num_Resolved_Atoms>  (272) 
nan

>  <Num_Not_Resolved_Atoms>  (272) 
nan

$$$$
CHEMBL3314142
     RDKit          3D

  0  0  0  0  0  0  0  0  0  0999 V3000
M  V30 BEGIN CTAB
M  V30 COUNTS 49 53 0 0 0
M  V30 BEGIN ATOM
M  V30 1 Cl 4.026152 -5.862355 1.617023 0
M  V30 2 C 3.422463 -4.579088 0.596006 0
M  V30 3 C 3.027488 -3.349257 1.109877 0
M  V30 4 C 2.560009 -2.375189 0.259810 0
M  V30 5 C 2.465611 -2.574333 -1.110609 0
M  V30 6 C 1.966025 -1.518837 -1.975754 0
M  V30 7 C 1.830874 -1.606961 -3.339903 0
M  V30 8 C 1.320411 -0.360646 -3.716497 0
M  V30 9 C 1.178804 0.401385 -2.561931 0
M  V30 10 C 0.671718 1.761656 -2.566414 0
M  V30 11 N 0.948771 2.678712 -3.505084 0
M  V30 12 N 0.331163 3.813545 -3.214667 0
M  V30 13 C -0.349359 3.616611 -2.074262 0
M  V30 14 N -0.147565 2.347988 -1.660219 0
M  V30 15 C -0.693581 1.753244 -0.497551 0
M  V30 16 C -0.727646 2.434278 0.707595 0
M  V30 17 C -1.261182 1.844063 1.829372 0
M  V30 18 C -1.782929 0.581884 1.845978 0
M  V30 19 N -2.328357 -0.012031 3.011306 0
M  V30 20 C -2.381675 0.630056 4.307456 0
M  V30 21 C -1.544381 -0.192993 5.261003 0
M  V30 22 N -1.802532 -1.588610 5.243933 0
M  V30 23 C -1.979529 -2.161233 3.937191 0
M  V30 24 C -2.905312 -1.338924 3.066009 0
M  V30 25 C -1.739509 -0.076805 0.640201 0
M  V30 26 C -1.214193 0.476183 -0.508673 0
M  V30 27 O 1.581070 -0.344927 -1.552058 0
M  V30 28 C 2.856491 -3.793100 -1.624245 0
M  V30 29 C 3.326507 -4.772495 -0.769701 0
M  V30 30 H 3.110400 -3.215743 2.188314 0
M  V30 31 H 2.279958 -1.467005 0.733857 0
M  V30 32 H 2.063452 -2.448596 -3.996293 0
M  V30 33 H 1.096581 -0.094263 -4.728815 0
M  V30 34 H -0.975913 4.334983 -1.534201 0
M  V30 35 H -0.313376 3.435002 0.692104 0
M  V30 36 H -1.228548 2.466144 2.685361 0
M  V30 37 H -3.446692 0.544393 4.668070 0
M  V30 38 H -2.022232 1.654464 4.339415 0
M  V30 39 H -1.852120 0.171107 6.283318 0
M  V30 40 H -0.474493 0.101712 5.194490 0
M  V30 41 H -0.935113 -2.059270 5.642935 0
M  V30 42 H -1.060011 -2.365509 3.380043 0
M  V30 43 H -2.502002 -3.128555 4.089568 0
M  V30 44 H -3.891149 -1.291599 3.618611 0
M  V30 45 H -3.015125 -1.844137 2.111773 0
M  V30 46 H -2.107273 -1.063451 0.501390 0
M  V30 47 H -1.179691 -0.042457 -1.459350 0
M  V30 48 H 2.774592 -3.921146 -2.677517 0
M  V30 49 H 3.615847 -5.705346 -1.242666 0
M  V30 END ATOM
M  V30 BEGIN BOND
M  V30 1 1 1 2
M  V30 2 2 2 3
M  V30 3 1 3 4
M  V30 4 2 4 5
M  V30 5 1 5 6
M  V30 6 2 6 7
M  V30 7 1 7 8
M  V30 8 2 8 9
M  V30 9 1 9 10
M  V30 10 2 10 11
M  V30 11 1 11 12
M  V30 12 2 12 13
M  V30 13 1 13 14
M  V30 14 1 14 15
M  V30 15 2 15 16
M  V30 16 1 16 17
M  V30 17 2 17 18
M  V30 18 1 18 19
M  V30 19 1 19 20
M  V30 20 1 20 21
M  V30 21 1 21 22
M  V30 22 1 22 23
M  V30 23 1 23 24
M  V30 24 1 18 25
M  V30 25 2 25 26
M  V30 26 1 9 27
M  V30 27 1 5 28
M  V30 28 2 28 29
M  V30 29 1 29 2
M  V30 30 1 27 6
M  V30 31 1 14 10
M  V30 32 1 26 15
M  V30 33 1 24 19
M  V30 34 1 3 30
M  V30 35 1 4 31
M  V30 36 1 7 32
M  V30 37 1 8 33
M  V30 38 1 13 34
M  V30 39 1 16 35
M  V30 40 1 17 36
M  V30 41 1 20 37
M  V30 42 1 20 38
M  V30 43 1 21 39
M  V30 44 1 21 40
M  V30 45 1 22 41
M  V30 46 1 23 42
M  V30 47 1 23 43
M  V30 48 1 24 44
M  V30 49 1 24 45
M  V30 50 1 25 46
M  V30 51 1 26 47
M  V30 52 1 28 48
M  V30 53 1 29 49
M  V30 END BOND
M  V30 END CTAB
M  END
>  <Dataset>  (273) 
ChEMBL_Kinases

>  <Ligand_Instance>  (273) 
nan

>  <PDB_ID>  (273) 
nan

>  <Standardized_SMILES>  (273) 
Clc1ccc(-c2ccc(-c3nncn3-c3ccc(N4CCNCC4)cc3)o2)cc1

>  <Name>  (273) 
nan

>  <Pocket>  (273) 
nan

>  <ATP_Site>  (273) 
nan

>  <Peripheral>  (273) 
nan

>  <Num_H_Atoms_ProtBoundConf>  (273) 
nan

>  <Num_Resolved_Atoms>  (273) 
nan

>  <Num_Not_Resolved_Atoms>  (273) 
nan

$$$$
CHEMBL3314141
     RDKit          3D

  0  0  0  0  0  0  0  0  0  0999 V3000
M  V30 BEGIN CTAB
M  V30 COUNTS 51 55 0 0 0
M  V30 BEGIN ATOM
M  V30 1 N 3.030552 -7.177997 3.932505 0
M  V30 2 C 2.931599 -6.354175 3.106052 0
M  V30 3 C 2.826019 -5.320345 2.092306 0
M  V30 4 C 2.884358 -4.012453 2.553070 0
M  V30 5 C 2.793221 -2.953459 1.669277 0
M  V30 6 C 2.644581 -3.285100 0.336687 0
M  V30 7 C 2.543822 -2.179779 -0.636815 0
M  V30 8 C 2.393149 -2.291108 -1.999164 0
M  V30 9 C 2.351310 -0.972895 -2.448852 0
M  V30 10 C 2.477743 -0.132653 -1.345191 0
M  V30 11 C 2.475609 1.323373 -1.441605 0
M  V30 12 N 3.584881 1.851225 -2.016515 0
M  V30 13 C 3.484542 3.198761 -2.057899 0
M  V30 14 C 2.253666 3.501475 -1.479428 0
M  V30 15 N 1.651819 2.357363 -1.110096 0
M  V30 16 C 0.432466 1.964843 -0.490693 0
M  V30 17 C 0.088813 2.439327 0.751920 0
M  V30 18 C -1.071093 2.107532 1.417062 0
M  V30 19 C -1.958571 1.246949 0.818471 0
M  V30 20 N -3.162512 0.883147 1.472848 0
M  V30 21 C -3.603817 1.341878 2.772779 0
M  V30 22 C -3.529416 0.131936 3.683541 0
M  V30 23 N -4.427452 -0.913561 3.270903 0
M  V30 24 C -4.380295 -1.210131 1.878868 0
M  V30 25 C -4.183785 -0.014169 0.976783 0
M  V30 26 C -1.652852 0.748930 -0.425517 0
M  V30 27 C -0.485567 1.095360 -1.072021 0
M  V30 28 O 2.587852 -0.904979 -0.304440 0
M  V30 29 C 2.586825 -4.586738 -0.119126 0
M  V30 30 C 2.679291 -5.629587 0.775886 0
M  V30 31 H 3.002644 -3.735258 3.612824 0
M  V30 32 H 2.835425 -1.919861 1.997999 0
M  V30 33 H 2.324947 -3.218029 -2.569422 0
M  V30 34 H 2.237423 -0.731570 -3.495850 0
M  V30 35 H 4.082194 4.011440 -2.403011 0
M  V30 36 H 1.705503 4.411785 -1.273716 0
M  V30 37 H 0.805436 3.121917 1.212768 0
M  V30 38 H -1.213045 2.553748 2.387815 0
M  V30 39 H -4.653116 1.708205 2.782457 0
M  V30 40 H -2.998461 2.124605 3.224129 0
M  V30 41 H -2.487094 -0.206524 3.825928 0
M  V30 42 H -3.885211 0.486173 4.681055 0
M  V30 43 H -4.133581 -1.785509 3.783942 0
M  V30 44 H -5.375799 -1.643600 1.608395 0
M  V30 45 H -3.652835 -2.006289 1.608438 0
M  V30 46 H -4.007782 -0.393133 -0.038282 0
M  V30 47 H -5.180604 0.507562 0.955363 0
M  V30 48 H -2.281246 0.070772 -0.974707 0
M  V30 49 H -0.232454 0.709299 -2.054022 0
M  V30 50 H 2.469306 -4.779924 -1.176421 0
M  V30 51 H 2.639293 -6.665487 0.467383 0
M  V30 END ATOM
M  V30 BEGIN BOND
M  V30 1 3 1 2
M  V30 2 1 2 3
M  V30 3 2 3 4
M  V30 4 1 4 5
M  V30 5 2 5 6
M  V30 6 1 6 7
M  V30 7 2 7 8
M  V30 8 1 8 9
M  V30 9 2 9 10
M  V30 10 1 10 11
M  V30 11 2 11 12
M  V30 12 1 12 13
M  V30 13 2 13 14
M  V30 14 1 14 15
M  V30 15 1 15 16
M  V30 16 2 16 17
M  V30 17 1 17 18
M  V30 18 2 18 19
M  V30 19 1 19 20
M  V30 20 1 20 21
M  V30 21 1 21 22
M  V30 22 1 22 23
M  V30 23 1 23 24
M  V30 24 1 24 25
M  V30 25 1 19 26
M  V30 26 2 26 27
M  V30 27 1 10 28
M  V30 28 1 6 29
M  V30 29 2 29 30
M  V30 30 1 30 3
M  V30 31 1 28 7
M  V30 32 1 15 11
M  V30 33 1 27 16
M  V30 34 1 25 20
M  V30 35 1 4 31
M  V30 36 1 5 32
M  V30 37 1 8 33
M  V30 38 1 9 34
M  V30 39 1 13 35
M  V30 40 1 14 36
M  V30 41 1 17 37
M  V30 42 1 18 38
M  V30 43 1 21 39
M  V30 44 1 21 40
M  V30 45 1 22 41
M  V30 46 1 22 42
M  V30 47 1 23 43
M  V30 48 1 24 44
M  V30 49 1 24 45
M  V30 50 1 25 46
M  V30 51 1 25 47
M  V30 52 1 26 48
M  V30 53 1 27 49
M  V30 54 1 29 50
M  V30 55 1 30 51
M  V30 END BOND
M  V30 END CTAB
M  END
>  <Dataset>  (274) 
ChEMBL_Kinases

>  <Ligand_Instance>  (274) 
nan

>  <PDB_ID>  (274) 
nan

>  <Standardized_SMILES>  (274) 
N#Cc1ccc(-c2ccc(-c3nccn3-c3ccc(N4CCNCC4)cc3)o2)cc1

>  <Name>  (274) 
nan

>  <Pocket>  (274) 
nan

>  <ATP_Site>  (274) 
nan

>  <Peripheral>  (274) 
nan

>  <Num_H_Atoms_ProtBoundConf>  (274) 
nan

>  <Num_Resolved_Atoms>  (274) 
nan

>  <Num_Not_Resolved_Atoms>  (274) 
nan

$$$$
CHEMBL3314140
     RDKit          3D

  0  0  0  0  0  0  0  0  0  0999 V3000
M  V30 BEGIN CTAB
M  V30 COUNTS 50 54 0 0 0
M  V30 BEGIN ATOM
M  V30 1 Cl 3.432141 -5.874333 3.582213 0
M  V30 2 C 3.059868 -4.906135 2.171758 0
M  V30 3 C 2.638259 -5.493905 0.997142 0
M  V30 4 C 2.340448 -4.733176 -0.127714 0
M  V30 5 C 2.473803 -3.360573 -0.054042 0
M  V30 6 C 2.188847 -2.464983 -1.172447 0
M  V30 7 C 1.760585 -2.921742 -2.400942 0
M  V30 8 C 1.594906 -1.808757 -3.199809 0
M  V30 9 C 1.930577 -0.721112 -2.419989 0
M  V30 10 C 1.998167 0.750120 -2.577138 0
M  V30 11 N 2.780766 1.433006 -3.449619 0
M  V30 12 C 2.595247 2.740728 -3.327940 0
M  V30 13 C 1.662165 2.882763 -2.343094 0
M  V30 14 N 1.279202 1.668752 -1.865169 0
M  V30 15 C 0.355814 1.266728 -0.859117 0
M  V30 16 C 0.793523 0.969082 0.415221 0
M  V30 17 C -0.087844 0.577911 1.401910 0
M  V30 18 C -1.438099 0.462510 1.177900 0
M  V30 19 N -2.331219 0.059172 2.202931 0
M  V30 20 C -1.932664 -0.270073 3.555972 0
M  V30 21 C -2.482348 0.852967 4.423791 0
M  V30 22 N -3.904547 1.012273 4.229846 0
M  V30 23 C -4.319730 1.101590 2.868119 0
M  V30 24 C -3.767795 -0.082904 2.059040 0
M  V30 25 C -1.855838 0.762905 -0.096709 0
M  V30 26 C -0.998069 1.156850 -1.104489 0
M  V30 27 O 2.275729 -1.158024 -1.227907 0
M  V30 28 C 2.900710 -2.771782 1.136930 0
M  V30 29 C 3.198192 -3.536418 2.261739 0
M  V30 30 H 2.536853 -6.579107 0.951530 0
M  V30 31 H 2.004557 -5.175699 -1.069967 0
M  V30 32 H 1.554323 -3.896596 -2.803220 0
M  V30 33 H 1.288660 -1.597127 -4.213342 0
M  V30 34 H 3.046530 3.576335 -3.856653 0
M  V30 35 H 1.213377 3.777897 -1.917311 0
M  V30 36 H 1.856024 1.062193 0.583164 0
M  V30 37 H 0.374643 0.377162 2.342766 0
M  V30 38 H -0.870574 -0.382559 3.724934 0
M  V30 39 H -2.423858 -1.203976 3.906777 0
M  V30 40 H -2.336341 0.515692 5.479400 0
M  V30 41 H -1.999034 1.817766 4.266017 0
M  V30 42 H -4.172835 1.921646 4.689483 0
M  V30 43 H -5.407966 1.124958 2.837078 0
M  V30 44 H -3.940931 2.064877 2.433993 0
M  V30 45 H -4.163741 -0.979242 2.601890 0
M  V30 46 H -4.114513 -0.027033 1.028906 0
M  V30 47 H -2.892991 0.708192 -0.388290 0
M  V30 48 H -1.339146 1.388337 -2.095826 0
M  V30 49 H 3.017283 -1.704924 1.234717 0
M  V30 50 H 3.530405 -3.023671 3.174832 0
M  V30 END ATOM
M  V30 BEGIN BOND
M  V30 1 1 1 2
M  V30 2 2 2 3
M  V30 3 1 3 4
M  V30 4 2 4 5
M  V30 5 1 5 6
M  V30 6 2 6 7
M  V30 7 1 7 8
M  V30 8 2 8 9
M  V30 9 1 9 10
M  V30 10 2 10 11
M  V30 11 1 11 12
M  V30 12 2 12 13
M  V30 13 1 13 14
M  V30 14 1 14 15
M  V30 15 2 15 16
M  V30 16 1 16 17
M  V30 17 2 17 18
M  V30 18 1 18 19
M  V30 19 1 19 20
M  V30 20 1 20 21
M  V30 21 1 21 22
M  V30 22 1 22 23
M  V30 23 1 23 24
M  V30 24 1 18 25
M  V30 25 2 25 26
M  V30 26 1 9 27
M  V30 27 1 5 28
M  V30 28 2 28 29
M  V30 29 1 29 2
M  V30 30 1 27 6
M  V30 31 1 14 10
M  V30 32 1 26 15
M  V30 33 1 24 19
M  V30 34 1 3 30
M  V30 35 1 4 31
M  V30 36 1 7 32
M  V30 37 1 8 33
M  V30 38 1 12 34
M  V30 39 1 13 35
M  V30 40 1 16 36
M  V30 41 1 17 37
M  V30 42 1 20 38
M  V30 43 1 20 39
M  V30 44 1 21 40
M  V30 45 1 21 41
M  V30 46 1 22 42
M  V30 47 1 23 43
M  V30 48 1 23 44
M  V30 49 1 24 45
M  V30 50 1 24 46
M  V30 51 1 25 47
M  V30 52 1 26 48
M  V30 53 1 28 49
M  V30 54 1 29 50
M  V30 END BOND
M  V30 END CTAB
M  END
>  <Dataset>  (275) 
ChEMBL_Kinases

>  <Ligand_Instance>  (275) 
nan

>  <PDB_ID>  (275) 
nan

>  <Standardized_SMILES>  (275) 
Clc1ccc(-c2ccc(-c3nccn3-c3ccc(N4CCNCC4)cc3)o2)cc1

>  <Name>  (275) 
nan

>  <Pocket>  (275) 
nan

>  <ATP_Site>  (275) 
nan

>  <Peripheral>  (275) 
nan

>  <Num_H_Atoms_ProtBoundConf>  (275) 
nan

>  <Num_Resolved_Atoms>  (275) 
nan

>  <Num_Not_Resolved_Atoms>  (275) 
nan

$$$$
CHEMBL3314097
     RDKit          3D

  0  0  0  0  0  0  0  0  0  0999 V3000
M  V30 BEGIN CTAB
M  V30 COUNTS 488 499 0 0 0
M  V30 BEGIN ATOM
M  V30 1 C -0.398372 3.470457 -11.510396 0
M  V30 2 C -1.812940 2.949479 -11.298708 0
M  V30 3 C -1.973352 1.554525 -11.837132 0 CFG=2
M  V30 4 C -1.667455 1.484038 -13.321006 0
M  V30 5 C -3.432282 1.178918 -11.641221 0 CFG=2
M  V30 6 N -3.744424 1.190830 -10.244734 0
M  V30 7 C -4.800793 1.855444 -9.614254 0
M  V30 8 O -5.672502 2.559179 -10.133423 0
M  V30 9 C -5.098783 1.838255 -8.177777 0 CFG=2
M  V30 10 C -5.297335 0.344831 -7.789669 0
M  V30 11 C -5.599491 0.356330 -6.330432 0
M  V30 12 C -5.884607 -1.005569 -5.751931 0
M  V30 13 N -7.069131 -1.599839 -6.373470 0
M  V30 14 C -7.849280 -2.841652 -6.221281 0
M  V30 15 N -7.408231 -3.157131 -5.085824 0
M  V30 16 N -8.673513 -2.990601 -7.418875 0
M  V30 17 N -6.269360 2.550136 -7.803771 0
M  V30 18 C -7.693651 2.363997 -7.958436 0
M  V30 19 O -7.949986 1.316612 -8.600369 0
M  V30 20 C -8.837104 3.131645 -7.536623 0 CFG=2
M  V30 21 C -9.540857 3.779430 -8.739460 0
M  V30 22 C -10.024548 2.716560 -9.674533 0
M  V30 23 C -10.994502 1.772249 -9.051382 0
M  V30 24 O -11.555742 1.648658 -7.939983 0
M  V30 25 O -11.841899 0.704784 -8.936970 0
M  V30 26 N -8.471601 4.190793 -6.601775 0
M  V30 27 C -9.344991 5.050482 -5.841698 0
M  V30 28 O -10.582261 4.842076 -6.059442 0
M  V30 29 C -8.634276 6.024262 -4.951379 0 CFG=2
M  V30 30 C -8.433892 7.345888 -5.687623 0
M  V30 31 C -7.691273 8.268582 -4.794696 0
M  V30 32 C -7.936499 9.227802 -3.816634 0
M  V30 33 N -6.814319 9.758585 -3.338609 0
M  V30 34 C -5.761731 9.182591 -3.973410 0
M  V30 35 N -6.316438 8.303040 -4.829336 0
M  V30 36 N -7.341186 5.486612 -4.592890 0
M  V30 37 C -7.299738 5.414149 -3.166538 0
M  V30 38 O -8.058218 5.680978 -2.175403 0
M  V30 39 C -6.264654 4.969149 -2.151981 0 CFG=2
M  V30 40 C -6.044381 3.516104 -2.328943 0
M  V30 41 C -5.070148 2.909544 -1.390245 0
M  V30 42 C -4.921177 1.440520 -1.598935 0
M  V30 43 N -6.138399 0.669307 -1.442739 0
M  V30 44 C -5.925628 -0.736767 -1.632585 0
M  V30 45 N -4.776728 -1.191023 -1.932780 0
M  V30 46 N -6.953312 -1.700537 -1.495796 0
M  V30 47 N -6.862138 5.324432 -0.867461 0
M  V30 48 C -6.773760 6.722743 -0.479831 0
M  V30 49 O -6.212494 7.479595 -1.309967 0
M  V30 50 C -7.332642 7.162650 0.844179 0
M  V30 51 C -6.323807 8.175317 1.434086 0
M  V30 52 C -5.016778 7.547895 1.484305 0
M  V30 53 C -3.804231 8.236532 2.111135 0
M  V30 54 C -2.671091 7.287998 1.855809 0
M  V30 55 C -1.314801 7.322096 2.347952 0
M  V30 56 C -0.609732 5.985137 1.976877 0
M  V30 57 C -1.076762 4.812053 2.820338 0
M  V30 58 C -2.528950 4.747360 2.928291 0
M  V30 59 N -3.149058 3.610508 3.606751 0
M  V30 60 C -3.807387 2.604034 2.949985 0
M  V30 61 C -4.272844 1.638800 3.817121 0
M  V30 62 C -5.057008 0.483739 3.414613 0
M  V30 63 C -4.390042 -0.771079 3.041465 0
M  V30 64 C -3.509643 -0.809469 1.857352 0
M  V30 65 C -2.248702 -0.100698 1.843053 0
M  V30 66 O -1.571777 0.637178 2.648528 0
M  V30 67 N -1.662435 -0.361533 0.523411 0
M  V30 68 C -0.490933 -0.169000 -0.341780 0
M  V30 69 C 0.669146 0.310553 0.618869 0
M  V30 70 C 0.734492 -0.840685 1.584340 0
M  V30 71 C 1.663493 -0.744122 2.742571 0
M  V30 72 C 1.203643 -1.901418 3.662127 0
M  V30 73 C 2.070575 -1.964562 4.851593 0
M  V30 74 C 1.580718 -2.818995 5.949069 0
M  V30 75 C 1.267736 -4.226811 5.833452 0
M  V30 76 C 2.269954 -5.209014 5.403073 0
M  V30 77 N 2.741612 -5.221578 4.089754 0
M  V30 78 C 3.638791 -4.758637 3.213572 0
M  V30 79 C 3.598270 -5.291857 1.960235 0
M  V30 80 C 4.417157 -5.198364 0.747789 0
M  V30 81 C 5.433391 -4.127538 0.715577 0 CFG=2
M  V30 82 N 4.733651 -2.799746 0.771128 0
M  V30 83 C 5.780038 -1.854640 1.037789 0
M  V30 84 C 5.736849 -0.371412 1.183966 0
M  V30 85 O 7.012483 -2.217019 1.196060 0
M  V30 86 C 6.109646 -4.102451 -0.625866 0
M  V30 87 O 7.294132 -4.607917 -0.632218 0
M  V30 88 N 5.647630 -3.595476 -1.898123 0
M  V30 89 C 6.712294 -3.705177 -2.858358 0 CFG=1
M  V30 90 C 6.896370 -5.171872 -3.353547 0
M  V30 91 C 8.045374 -5.111522 -4.349668 0
M  V30 92 C 9.301673 -5.263965 -3.768206 0
M  V30 93 C 10.302152 -5.149764 -4.668071 0
M  V30 94 C 10.219981 -4.909375 -6.043752 0
M  V30 95 C 8.909864 -4.779008 -6.509092 0
M  V30 96 C 7.806097 -4.875812 -5.667780 0
M  V30 97 C 6.415807 -2.890851 -4.065224 0
M  V30 98 O 7.214375 -2.318861 -4.858230 0
M  V30 99 N 5.067172 -2.682158 -4.453857 0
M  V30 100 C 4.141716 -2.073402 -5.378791 0 CFG=1
M  V30 101 C 4.974385 -2.115686 -6.762395 0
M  V30 102 C 4.127129 -1.551189 -7.808087 0
M  V30 103 C 3.433571 -2.255349 -8.788700 0
M  V30 104 N 2.750249 -1.418212 -9.598484 0
M  V30 105 C 3.016436 -0.199848 -9.116892 0
M  V30 106 C 2.510142 0.970986 -9.646640 0
M  V30 107 C 2.912585 2.141319 -8.988056 0
M  V30 108 C 3.768286 2.104134 -7.876191 0
M  V30 109 C 4.250020 0.928860 -7.378467 0
M  V30 110 C 3.860770 -0.223671 -8.015813 0
M  V30 111 C 2.985422 -2.895761 -5.712980 0
M  V30 112 O 2.104489 -2.276264 -6.368661 0
M  V30 113 N 2.950810 -4.260832 -5.305136 0
M  V30 114 C 1.819330 -5.171878 -5.622241 0 CFG=1
M  V30 115 C 2.473826 -6.269071 -6.438915 0
M  V30 116 C 1.601555 -7.345789 -6.889478 0
M  V30 117 C 0.852484 -7.333776 -8.076848 0
M  V30 118 C 0.065500 -8.411168 -8.447208 0
M  V30 119 C -0.024786 -9.550398 -7.674190 0
M  V30 120 C 0.694300 -9.630757 -6.478544 0
M  V30 121 C 1.438086 -8.519614 -6.202505 0
M  V30 122 C 1.280470 -5.651840 -4.339059 0
M  V30 123 O 2.217830 -5.175845 -3.650605 0
M  V30 124 N 0.149018 -6.380459 -3.936997 0
M  V30 125 C -0.359236 -6.846762 -2.696300 0 CFG=1
M  V30 126 C 0.792994 -6.904959 -1.635248 0
M  V30 127 C 1.814770 -7.899646 -2.083577 0
M  V30 128 C 2.995512 -7.977937 -1.108532 0
M  V30 129 C 1.200243 -9.326202 -2.073457 0
M  V30 130 C -1.463521 -6.097017 -2.151852 0
M  V30 131 O -1.561184 -5.041760 -2.864367 0
M  V30 132 N -2.380337 -6.255696 -1.101567 0
M  V30 133 C -3.439585 -5.483120 -0.594389 0 CFG=1
M  V30 134 C -4.633656 -5.497060 -1.485713 0
M  V30 135 C -5.210933 -6.850221 -1.734431 0
M  V30 136 C -4.345008 -7.808537 -2.490451 0
M  V30 137 N -4.067014 -7.181656 -3.786534 0
M  V30 138 C -3.247171 -7.706748 -4.820831 0
M  V30 139 N -2.583670 -8.803452 -4.567907 0
M  V30 140 N -3.153825 -7.048428 -6.086241 0
M  V30 141 C -3.836610 -5.948474 0.753302 0
M  V30 142 O -3.472458 -6.899838 1.494635 0
M  V30 143 N -4.871660 -5.124831 1.340585 0
M  V30 144 C -5.356993 -5.489252 2.674074 0
M  V30 145 C -6.423858 -4.544731 3.056602 0
M  V30 146 N -6.972405 -4.833233 4.306599 0
M  V30 147 O -7.145444 -3.555344 2.827876 0
M  V30 148 N 2.585485 -6.143412 2.115325 0
M  V30 149 N 2.087056 -6.119505 3.306802 0
M  V30 150 C -0.655501 0.626127 -1.497743 0
M  V30 151 O -1.677801 1.151268 -1.974784 0
M  V30 152 N 0.515774 0.889461 -2.258785 0
M  V30 153 C 0.912416 1.539829 -3.459400 0 CFG=2
M  V30 154 C 1.901134 2.601042 -3.392152 0
M  V30 155 O 2.637257 3.255126 -4.165291 0
M  V30 156 N 2.326483 3.265528 -2.176487 0
M  V30 157 C 3.242461 4.284184 -1.773419 0 CFG=1
M  V30 158 C 2.664581 5.679143 -1.664610 0
M  V30 159 C 2.186897 6.039448 -3.031034 0
M  V30 160 C 3.148341 6.614115 -3.856782 0
M  V30 161 C 2.940196 6.999815 -5.154180 0
M  V30 162 C 1.673993 6.812056 -5.707589 0
M  V30 163 C 0.725093 6.243726 -4.886271 0
M  V30 164 C 0.959758 5.867662 -3.592995 0
M  V30 165 C 4.127195 3.909066 -0.654061 0
M  V30 166 O 3.666039 2.713443 -0.569227 0
M  V30 167 N 5.152907 4.505562 0.144355 0
M  V30 168 C 5.647579 3.556812 1.108743 0 CFG=1
M  V30 169 C 7.170329 3.645628 1.118366 0
M  V30 170 C 7.792987 3.353484 -0.188479 0
M  V30 171 C 8.138564 2.024316 -0.447637 0
M  V30 172 C 8.732472 1.564055 -1.586323 0
M  V30 173 C 8.996844 2.556455 -2.565071 0
M  V30 174 O 9.597726 2.305324 -3.806796 0
M  V30 175 C 8.664245 3.863207 -2.332084 0
M  V30 176 C 8.070941 4.266179 -1.168720 0
M  V30 177 C 5.194063 3.926611 2.529265 0
M  V30 178 O 4.801123 4.976106 3.074805 0
M  V30 179 N 5.241954 2.780300 3.403789 0
M  V30 180 C 4.953994 2.557558 4.830376 0 CFG=1
M  V30 181 C 3.443405 2.350662 4.962825 0
M  V30 182 C 2.953218 2.104005 6.334603 0
M  V30 183 C 1.422886 1.965811 6.247878 0
M  V30 184 N 0.915950 1.685001 7.579052 0
M  V30 185 C -0.485213 1.478786 7.781563 0
M  V30 186 N -1.312495 2.272559 7.204984 0
M  V30 187 N -0.976668 0.402243 8.605287 0
M  V30 188 C 5.736844 1.509881 5.439587 0
M  V30 189 O 5.539441 1.262872 6.682575 0
M  V30 190 N 6.726716 0.639028 4.944671 0
M  V30 191 C 7.597107 -0.482284 5.421743 0 CFG=1
M  V30 192 C 8.719813 0.093494 6.178063 0
M  V30 193 C 9.783350 -0.713371 6.792463 0
M  V30 194 C 10.837529 0.269550 7.446633 0
M  V30 195 C 9.350263 -1.514057 8.028143 0
M  V30 196 C 6.769019 -1.574799 5.900795 0
M  V30 197 O 5.590349 -1.171491 5.748715 0
M  V30 198 N 6.735141 -2.860711 6.449432 0
M  V30 199 C 6.185404 -4.038444 6.938730 0
M  V30 200 C 5.078630 -3.937396 7.933308 0
M  V30 201 O 4.982629 -2.671447 7.784453 0
M  V30 202 N 4.456832 -4.988715 8.690119 0
M  V30 203 C 3.368991 -4.345435 9.432845 0 CFG=1
M  V30 204 C 2.629881 -5.292684 10.309288 0
M  V30 205 C 2.024537 -6.389445 9.492406 0
M  V30 206 C 0.725651 -6.371466 8.989937 0
M  V30 207 C 0.323416 -7.452721 8.209691 0
M  V30 208 C 1.103466 -8.549349 7.890922 0
M  V30 209 O 0.645126 -9.587178 7.098165 0
M  V30 210 C 2.365387 -8.484960 8.437711 0
M  V30 211 C 2.872332 -7.463871 9.223694 0
M  V30 212 C 3.821138 -3.086871 10.096219 0
M  V30 213 O 4.891350 -2.539013 10.471026 0
M  V30 214 N 2.690272 -2.244559 10.370688 0
M  V30 215 C 2.982792 -0.960312 10.965011 0
M  V30 216 C 1.705625 -0.143452 11.077580 0
M  V30 217 N 1.988796 1.182840 11.579551 0
M  V30 218 C 1.055440 2.263318 11.742851 0
M  V30 219 O -0.118174 2.014332 11.406652 0
M  V30 220 C 1.763128 3.440355 12.285061 0
M  V30 221 C 1.101975 4.767017 12.086431 0
M  V30 222 C -0.239152 4.958171 12.673955 0
M  V30 223 C -0.813440 6.310723 12.512954 0
M  V30 224 C -1.062189 6.882920 11.193268 0 CFG=1
M  V30 225 S 0.362288 7.036988 10.076826 0
M  V30 226 C -0.535037 6.727631 8.495962 0
M  V30 227 C -1.957263 6.902042 8.948085 0 CFG=1
M  V30 228 N -2.784428 6.026274 8.143118 0
M  V30 229 C -2.981259 4.820948 8.940479 0
M  V30 230 O -3.900764 4.089098 8.423700 0
M  V30 231 N -2.047357 4.886986 10.058287 0
M  V30 232 C -2.096632 6.276171 10.323365 0 CFG=1
M  V30 233 C -0.336511 1.955845 -4.297746 0
M  V30 234 C -1.049466 0.633266 -4.621491 0
M  V30 235 C 0.205375 2.516984 -5.599957 0
M  V30 236 N -3.838921 2.144464 4.987137 0
M  V30 237 N -3.194886 3.279179 4.849588 0
M  V30 238 N -7.751562 6.129958 1.687572 0
M  V30 239 C -8.936715 5.637516 2.331122 0
M  V30 240 C -8.950978 4.449254 3.186054 0
M  V30 241 O -9.957848 6.329016 2.086281 0
M  V30 242 C -3.671356 -0.232734 -12.132700 0
M  V30 243 N -4.153453 -1.200995 -11.207588 0
M  V30 244 O -3.532551 -0.783984 -13.255900 0
M  V30 245 H 0.309525 2.643039 -11.567498 0
M  V30 246 H -0.154438 4.087922 -10.619909 0
M  V30 247 H -0.410461 4.139912 -12.380530 0
M  V30 248 H -2.077520 2.897926 -10.210824 0
M  V30 249 H -2.571984 3.574985 -11.791096 0
M  V30 250 H -1.357879 0.837812 -11.256281 0
M  V30 251 H -0.899197 2.240341 -13.549404 0
M  V30 252 H -1.267759 0.462891 -13.508955 0
M  V30 253 H -2.608716 1.611995 -13.862360 0
M  V30 254 H -4.107311 1.860360 -12.206389 0
M  V30 255 H -3.082899 0.625641 -9.637745 0
M  V30 256 H -4.200388 2.125734 -7.597522 0
M  V30 257 H -4.350403 -0.190500 -8.034401 0
M  V30 258 H -6.143264 -0.053184 -8.351651 0
M  V30 259 H -4.848404 0.939454 -5.769245 0
M  V30 260 H -6.560662 0.931641 -6.193880 0
M  V30 261 H -5.026891 -1.641410 -5.981710 0
M  V30 262 H -6.075941 -0.924143 -4.670519 0
M  V30 263 H -7.432082 -0.890206 -7.098317 0
M  V30 264 H -7.566318 -3.927531 -4.443567 0
M  V30 265 H -8.050075 -3.449838 -8.144673 0
M  V30 266 H -9.412701 -2.522817 -6.777423 0
M  V30 267 H -6.024770 3.439940 -7.292594 0
M  V30 268 H -9.630979 2.488842 -7.124180 0
M  V30 269 H -10.430919 4.325347 -8.358131 0
M  V30 270 H -8.871484 4.443498 -9.285003 0
M  V30 271 H -10.608546 3.216985 -10.538572 0
M  V30 272 H -9.246893 2.136492 -10.199462 0
M  V30 273 H -11.834187 -0.088903 -9.605414 0
M  V30 274 H -7.465625 4.344253 -6.455885 0
M  V30 275 H -9.243857 6.218203 -4.080374 0
M  V30 276 H -7.867419 7.236460 -6.620166 0
M  V30 277 H -9.404264 7.836722 -5.890113 0
M  V30 278 H -8.973041 9.408761 -3.576336 0
M  V30 279 H -4.723405 9.411206 -3.801557 0
M  V30 280 H -5.664869 7.719052 -5.448298 0
M  V30 281 H -6.436999 5.126702 -4.915713 0
M  V30 282 H -5.377326 5.595157 -2.317532 0
M  V30 283 H -5.683158 3.378006 -3.388907 0
M  V30 284 H -6.995703 2.921295 -2.289786 0
M  V30 285 H -5.397903 3.060927 -0.321241 0
M  V30 286 H -4.052369 3.371479 -1.430182 0
M  V30 287 H -4.484369 1.307232 -2.616517 0
M  V30 288 H -4.187292 0.979824 -0.899834 0
M  V30 289 H -7.152575 0.861346 -1.232032 0
M  V30 290 H -4.432821 -2.112816 -2.104971 0
M  V30 291 H -7.062894 -2.496444 -2.153931 0
M  V30 292 H -7.703034 -2.390941 -1.382507 0
M  V30 293 H -7.316451 4.614986 -0.285043 0
M  V30 294 H -8.216672 7.809567 0.562684 0
M  V30 295 H -6.366933 9.048915 0.778783 0
M  V30 296 H -6.762705 8.482106 2.425338 0
M  V30 297 H -5.115849 6.592001 2.107233 0
M  V30 298 H -4.751684 7.179061 0.462210 0
M  V30 299 H -3.725423 9.237698 1.688946 0
M  V30 300 H -3.918789 8.326978 3.201803 0
M  V30 301 H -2.390498 7.795889 0.702888 0
M  V30 302 H -3.039327 6.366285 1.310871 0
M  V30 303 H -1.245104 7.388300 3.480780 0
M  V30 304 H -0.620975 8.087058 1.961880 0
M  V30 305 H -0.965029 5.769803 0.945274 0
M  V30 306 H 0.460724 6.101335 1.979097 0
M  V30 307 H -0.524022 4.807084 3.797177 0
M  V30 308 H -0.739769 3.894462 2.247810 0
M  V30 309 H -2.904553 4.602932 1.862653 0
M  V30 310 H -2.962421 5.621624 3.444599 0
M  V30 311 H -3.983797 2.500532 1.863694 0
M  V30 312 H -5.735204 0.860309 2.571112 0
M  V30 313 H -5.777990 0.212905 4.275807 0
M  V30 314 H -5.159829 -1.589368 3.021778 0
M  V30 315 H -3.787837 -1.082382 3.969092 0
M  V30 316 H -3.326108 -1.928675 1.667038 0
M  V30 317 H -4.185866 -0.501601 0.980633 0
M  V30 318 H -2.208744 -0.877091 -0.242123 0
M  V30 319 H -0.068253 -1.223009 -0.547020 0
M  V30 320 H 0.391469 1.254541 1.085388 0
M  V30 321 H 1.613173 0.419136 0.089326 0
M  V30 322 H -0.213451 -1.236820 1.837648 0
M  V30 323 H 1.267831 -1.701038 0.941660 0
M  V30 324 H 2.719010 -0.839433 2.493102 0
M  V30 325 H 1.487956 0.192084 3.322943 0
M  V30 326 H 1.257815 -2.834634 3.095989 0
M  V30 327 H 0.166180 -1.607680 3.932511 0
M  V30 328 H 3.112932 -2.163237 4.530608 0
M  V30 329 H 2.137730 -0.903758 5.283208 0
M  V30 330 H 2.298508 -2.654567 6.811502 0
M  V30 331 H 0.600578 -2.297152 6.301089 0
M  V30 332 H 0.793981 -4.550014 6.822972 0
M  V30 333 H 0.352698 -4.379815 5.137475 0
M  V30 334 H 1.846893 -6.230918 5.702463 0
M  V30 335 H 3.167845 -5.156917 6.145766 0
M  V30 336 H 4.315151 -3.991629 3.596199 0
M  V30 337 H 3.701963 -5.096487 -0.114196 0
M  V30 338 H 4.883835 -6.202911 0.568111 0
M  V30 339 H 6.207736 -4.173840 1.466834 0
M  V30 340 H 3.810676 -2.339353 0.689372 0
M  V30 341 H 4.714796 -0.082349 1.427892 0
M  V30 342 H 5.935754 0.019989 0.125131 0
M  V30 343 H 6.537385 0.062168 1.788080 0
M  V30 344 H 4.643447 -3.279352 -1.767504 0
M  V30 345 H 7.693700 -3.462271 -2.443628 0
M  V30 346 H 5.984252 -5.403118 -3.913582 0
M  V30 347 H 7.071057 -5.877792 -2.569510 0
M  V30 348 H 9.544261 -5.456703 -2.733722 0
M  V30 349 H 11.324972 -5.239349 -4.303768 0
M  V30 350 H 10.997769 -4.811683 -6.752314 0
M  V30 351 H 8.765663 -4.598925 -7.589447 0
M  V30 352 H 6.818452 -4.765215 -6.079916 0
M  V30 353 H 4.377456 -3.166296 -3.807893 0
M  V30 354 H 4.032837 -0.998409 -5.222118 0
M  V30 355 H 5.886976 -1.551733 -6.540966 0
M  V30 356 H 5.210149 -3.182326 -6.866994 0
M  V30 357 H 3.474569 -3.329577 -8.843117 0
M  V30 358 H 2.158620 -1.719908 -10.410981 0
M  V30 359 H 1.840299 1.031702 -10.512463 0
M  V30 360 H 2.541905 3.086379 -9.385918 0
M  V30 361 H 3.980972 3.084891 -7.473572 0
M  V30 362 H 4.897038 0.933777 -6.548965 0
M  V30 363 H 3.693199 -4.800465 -4.756338 0
M  V30 364 H 1.107208 -4.579125 -6.197332 0
M  V30 365 H 3.004514 -5.755128 -7.291941 0
M  V30 366 H 3.308773 -6.646780 -5.788337 0
M  V30 367 H 0.932028 -6.424061 -8.695116 0
M  V30 368 H -0.498514 -8.394298 -9.361755 0
M  V30 369 H -0.621884 -10.413442 -7.937636 0
M  V30 370 H 0.707040 -10.475934 -5.789971 0
M  V30 371 H 2.022395 -8.570037 -5.258313 0
M  V30 372 H -0.420240 -6.615770 -4.805828 0
M  V30 373 H -0.583813 -7.922830 -2.788942 0
M  V30 374 H 0.298210 -7.298639 -0.728216 0
M  V30 375 H 1.155678 -5.904740 -1.407731 0
M  V30 376 H 2.193260 -7.739286 -3.086212 0
M  V30 377 H 3.673548 -7.130272 -1.267655 0
M  V30 378 H 3.555106 -8.948084 -1.297241 0
M  V30 379 H 2.640112 -8.026612 -0.084006 0
M  V30 380 H 0.630145 -9.528491 -2.973529 0
M  V30 381 H 0.593153 -9.330418 -1.141732 0
M  V30 382 H 2.027621 -10.042325 -1.878487 0
M  V30 383 H -2.106737 -7.159263 -0.617320 0
M  V30 384 H -3.121413 -4.383978 -0.499055 0
M  V30 385 H -4.327183 -5.029058 -2.468849 0
M  V30 386 H -5.431892 -4.857010 -1.003570 0
M  V30 387 H -6.169544 -6.774908 -2.313569 0
M  V30 388 H -5.507664 -7.336685 -0.748309 0
M  V30 389 H -4.951019 -8.728422 -2.805315 0
M  V30 390 H -3.490209 -8.205043 -1.977800 0
M  V30 391 H -4.489548 -6.257681 -4.046620 0
M  V30 392 H -1.986738 -9.158967 -5.370941 0
M  V30 393 H -3.514792 -7.060401 -7.047208 0
M  V30 394 H -2.562537 -6.219499 -6.354359 0
M  V30 395 H -5.304797 -4.271638 0.884063 0
M  V30 396 H -5.808892 -6.508143 2.662392 0
M  V30 397 H -4.536238 -5.457698 3.397025 0
M  V30 398 H -7.076206 -4.730467 5.333801 0
M  V30 399 H -7.761573 -5.578291 4.390507 0
M  V30 400 H 1.466414 0.542474 -1.911483 0
M  V30 401 H 1.298209 0.704729 -4.162789 0
M  V30 402 H 1.889513 2.973908 -1.240340 0
M  V30 403 H 3.950520 4.389543 -2.688103 0
M  V30 404 H 1.848233 5.749445 -0.917879 0
M  V30 405 H 3.463698 6.375071 -1.383415 0
M  V30 406 H 4.149805 6.795582 -3.483811 0
M  V30 407 H 3.688834 7.441611 -5.774547 0
M  V30 408 H 1.438778 7.084040 -6.725775 0
M  V30 409 H -0.258415 6.096586 -5.303328 0
M  V30 410 H 0.224175 5.429227 -2.948589 0
M  V30 411 H 5.156245 5.453350 -0.287163 0
M  V30 412 H 5.338711 2.548438 0.906604 0
M  V30 413 H 7.657596 3.120441 1.931562 0
M  V30 414 H 7.430729 4.737170 1.290680 0
M  V30 415 H 7.934732 1.286273 0.300160 0
M  V30 416 H 9.026105 0.565914 -1.823006 0
M  V30 417 H 10.274011 1.580480 -3.953699 0
M  V30 418 H 8.841688 4.689400 -3.043707 0
M  V30 419 H 7.808738 5.298695 -0.971626 0
M  V30 420 H 5.510186 1.840932 3.013116 0
M  V30 421 H 5.121176 3.539875 5.319234 0
M  V30 422 H 3.124712 1.546666 4.276514 0
M  V30 423 H 2.929841 3.276501 4.584817 0
M  V30 424 H 3.262983 1.125941 6.761704 0
M  V30 425 H 3.190951 2.853829 7.091659 0
M  V30 426 H 1.026489 2.947500 5.888578 0
M  V30 427 H 1.130796 1.224431 5.482208 0
M  V30 428 H 1.502122 1.634881 8.456004 0
M  V30 429 H -2.334424 2.143466 7.331362 0
M  V30 430 H -1.039055 0.191344 9.647061 0
M  V30 431 H -1.394124 -0.383084 8.077287 0
M  V30 432 H 6.852029 0.926714 3.930274 0
M  V30 433 H 8.080945 -0.818537 4.412718 0
M  V30 434 H 9.281718 0.840571 5.490945 0
M  V30 435 H 8.367521 0.815427 6.984168 0
M  V30 436 H 10.391060 -1.361537 6.177340 0
M  V30 437 H 11.531744 -0.295025 8.057026 0
M  V30 438 H 11.360055 0.669072 6.554067 0
M  V30 439 H 10.288953 1.072399 7.946553 0
M  V30 440 H 8.291238 -1.381812 8.246726 0
M  V30 441 H 10.002824 -1.313986 8.905493 0
M  V30 442 H 9.570827 -2.583752 7.786267 0
M  V30 443 H 7.810511 -2.991271 6.412361 0
M  V30 444 H 6.982499 -4.608939 7.506729 0
M  V30 445 H 5.889214 -4.747397 6.120972 0
M  V30 446 H 4.995325 -5.829433 8.444826 0
M  V30 447 H 2.679750 -4.011508 8.598864 0
M  V30 448 H 3.249436 -5.779255 11.081751 0
M  V30 449 H 1.755244 -4.759154 10.756669 0
M  V30 450 H 0.085441 -5.556035 9.230142 0
M  V30 451 H -0.702824 -7.470204 7.793513 0
M  V30 452 H 1.280652 -10.070048 6.443828 0
M  V30 453 H 3.053542 -9.327920 8.259585 0
M  V30 454 H 3.876667 -7.533970 9.609296 0
M  V30 455 H 1.695847 -2.500015 10.168923 0
M  V30 456 H 3.520780 -1.048796 11.926089 0
M  V30 457 H 3.680577 -0.446795 10.230611 0
M  V30 458 H 0.973276 -0.704950 11.692163 0
M  V30 459 H 1.302250 -0.112489 10.048343 0
M  V30 460 H 2.992235 1.271533 11.825321 0
M  V30 461 H 2.812006 3.508234 11.897747 0
M  V30 462 H 1.904707 3.282424 13.392580 0
M  V30 463 H 1.030622 4.877892 10.954205 0
M  V30 464 H 1.844898 5.533237 12.423074 0
M  V30 465 H -0.912055 4.136637 12.353970 0
M  V30 466 H -0.146393 4.782456 13.791183 0
M  V30 467 H -0.054503 7.012574 13.027331 0
M  V30 468 H -1.694787 6.413787 13.216383 0
M  V30 469 H -1.424516 7.986835 11.306191 0
M  V30 470 H -0.301358 5.736000 8.083012 0
M  V30 471 H -0.297728 7.575158 7.826502 0
M  V30 472 H -2.291183 7.943673 8.942253 0
M  V30 473 H -3.080993 6.386144 7.186386 0
M  V30 474 H -1.742449 3.868198 10.181818 0
M  V30 475 H -3.141540 6.535416 10.634150 0
M  V30 476 H -0.964343 2.649635 -3.754098 0
M  V30 477 H -0.739778 0.362773 -5.668874 0
M  V30 478 H -2.131054 0.719422 -4.545674 0
M  V30 479 H -0.694056 -0.208237 -4.004265 0
M  V30 480 H -0.323522 1.997392 -6.468244 0
M  V30 481 H 0.017716 3.585929 -5.734235 0
M  V30 482 H 1.273895 2.301455 -5.777234 0
M  V30 483 H -6.864516 5.629718 1.850721 0
M  V30 484 H -8.121092 4.392659 3.899790 0
M  V30 485 H -9.039429 3.506477 2.573899 0
M  V30 486 H -9.910786 4.499228 3.771043 0
M  V30 487 H -3.463290 -1.714893 -10.611816 0
M  V30 488 H -4.729564 -1.841950 -10.618220 0
M  V30 END ATOM
M  V30 BEGIN BOND
M  V30 1 1 1 2
M  V30 2 1 2 3
M  V30 3 1 3 4
M  V30 4 1 3 5
M  V30 5 1 5 6
M  V30 6 1 6 7
M  V30 7 2 7 8
M  V30 8 1 7 9
M  V30 9 1 9 10
M  V30 10 1 10 11
M  V30 11 1 11 12
M  V30 12 1 12 13
M  V30 13 1 13 14
M  V30 14 2 14 15 CFG=2
M  V30 15 1 14 16
M  V30 16 1 9 17
M  V30 17 1 17 18
M  V30 18 2 18 19
M  V30 19 1 18 20
M  V30 20 1 20 21
M  V30 21 1 21 22
M  V30 22 1 22 23
M  V30 23 2 23 24
M  V30 24 1 23 25
M  V30 25 1 20 26
M  V30 26 1 26 27
M  V30 27 2 27 28
M  V30 28 1 27 29
M  V30 29 1 29 30
M  V30 30 1 30 31
M  V30 31 2 31 32
M  V30 32 1 32 33
M  V30 33 2 33 34
M  V30 34 1 34 35
M  V30 35 1 29 36
M  V30 36 1 36 37
M  V30 37 2 37 38
M  V30 38 1 37 39
M  V30 39 1 39 40
M  V30 40 1 40 41
M  V30 41 1 41 42
M  V30 42 1 42 43
M  V30 43 1 43 44
M  V30 44 2 44 45 CFG=2
M  V30 45 1 44 46
M  V30 46 1 39 47
M  V30 47 1 47 48
M  V30 48 2 48 49
M  V30 49 1 48 50
M  V30 50 1 50 51
M  V30 51 1 51 52
M  V30 52 1 52 53
M  V30 53 1 53 54
M  V30 54 1 54 55
M  V30 55 1 55 56
M  V30 56 1 56 57
M  V30 57 1 57 58
M  V30 58 1 58 59
M  V30 59 1 59 60
M  V30 60 2 60 61
M  V30 61 1 61 62
M  V30 62 1 62 63
M  V30 63 1 63 64
M  V30 64 1 64 65
M  V30 65 2 65 66
M  V30 66 1 65 67
M  V30 67 1 67 68
M  V30 68 1 68 69
M  V30 69 1 69 70
M  V30 70 1 70 71
M  V30 71 1 71 72
M  V30 72 1 72 73
M  V30 73 1 73 74
M  V30 74 1 74 75
M  V30 75 1 75 76
M  V30 76 1 76 77
M  V30 77 1 77 78
M  V30 78 2 78 79
M  V30 79 1 79 80
M  V30 80 1 80 81
M  V30 81 1 81 82
M  V30 82 1 82 83
M  V30 83 1 83 84
M  V30 84 2 83 85
M  V30 85 1 81 86
M  V30 86 2 86 87
M  V30 87 1 86 88
M  V30 88 1 88 89
M  V30 89 1 89 90
M  V30 90 1 90 91
M  V30 91 2 91 92
M  V30 92 1 92 93
M  V30 93 2 93 94
M  V30 94 1 94 95
M  V30 95 2 95 96
M  V30 96 1 89 97
M  V30 97 2 97 98
M  V30 98 1 97 99
M  V30 99 1 99 100
M  V30 100 1 100 101
M  V30 101 1 101 102
M  V30 102 2 102 103
M  V30 103 1 103 104
M  V30 104 1 104 105
M  V30 105 2 105 106
M  V30 106 1 106 107
M  V30 107 2 107 108
M  V30 108 1 108 109
M  V30 109 2 109 110
M  V30 110 1 100 111
M  V30 111 2 111 112
M  V30 112 1 111 113
M  V30 113 1 113 114
M  V30 114 1 114 115
M  V30 115 1 115 116
M  V30 116 2 116 117
M  V30 117 1 117 118
M  V30 118 2 118 119
M  V30 119 1 119 120
M  V30 120 2 120 121
M  V30 121 1 114 122
M  V30 122 2 122 123
M  V30 123 1 122 124
M  V30 124 1 124 125
M  V30 125 1 125 126
M  V30 126 1 126 127
M  V30 127 1 127 128
M  V30 128 1 127 129
M  V30 129 1 125 130
M  V30 130 2 130 131
M  V30 131 1 130 132
M  V30 132 1 132 133
M  V30 133 1 133 134
M  V30 134 1 134 135
M  V30 135 1 135 136
M  V30 136 1 136 137
M  V30 137 1 137 138
M  V30 138 2 138 139 CFG=2
M  V30 139 1 138 140
M  V30 140 1 133 141
M  V30 141 2 141 142
M  V30 142 1 141 143
M  V30 143 1 143 144
M  V30 144 1 144 145
M  V30 145 1 145 146
M  V30 146 2 145 147
M  V30 147 1 79 148
M  V30 148 2 148 149
M  V30 149 1 68 150
M  V30 150 2 150 151
M  V30 151 1 150 152
M  V30 152 1 152 153
M  V30 153 1 153 154
M  V30 154 2 154 155
M  V30 155 1 154 156
M  V30 156 1 156 157
M  V30 157 1 157 158
M  V30 158 1 158 159
M  V30 159 2 159 160
M  V30 160 1 160 161
M  V30 161 2 161 162
M  V30 162 1 162 163
M  V30 163 2 163 164
M  V30 164 1 157 165
M  V30 165 2 165 166
M  V30 166 1 165 167
M  V30 167 1 167 168
M  V30 168 1 168 169
M  V30 169 1 169 170
M  V30 170 2 170 171
M  V30 171 1 171 172
M  V30 172 2 172 173
M  V30 173 1 173 174
M  V30 174 1 173 175
M  V30 175 2 175 176
M  V30 176 1 168 177
M  V30 177 2 177 178
M  V30 178 1 177 179
M  V30 179 1 179 180
M  V30 180 1 180 181
M  V30 181 1 181 182
M  V30 182 1 182 183
M  V30 183 1 183 184
M  V30 184 1 184 185
M  V30 185 2 185 186 CFG=2
M  V30 186 1 185 187
M  V30 187 1 180 188
M  V30 188 2 188 189
M  V30 189 1 188 190
M  V30 190 1 190 191
M  V30 191 1 191 192
M  V30 192 1 192 193
M  V30 193 1 193 194
M  V30 194 1 193 195
M  V30 195 1 191 196
M  V30 196 2 196 197
M  V30 197 1 196 198
M  V30 198 1 198 199
M  V30 199 1 199 200
M  V30 200 2 200 201
M  V30 201 1 200 202
M  V30 202 1 202 203
M  V30 203 1 203 204
M  V30 204 1 204 205
M  V30 205 2 205 206
M  V30 206 1 206 207
M  V30 207 2 207 208
M  V30 208 1 208 209
M  V30 209 1 208 210
M  V30 210 2 210 211
M  V30 211 1 203 212
M  V30 212 2 212 213
M  V30 213 1 212 214
M  V30 214 1 214 215
M  V30 215 1 215 216
M  V30 216 1 216 217
M  V30 217 1 217 218
M  V30 218 2 218 219
M  V30 219 1 218 220
M  V30 220 1 220 221
M  V30 221 1 221 222
M  V30 222 1 222 223
M  V30 223 1 223 224
M  V30 224 1 224 225
M  V30 225 1 225 226
M  V30 226 1 226 227
M  V30 227 1 227 228
M  V30 228 1 228 229
M  V30 229 2 229 230
M  V30 230 1 229 231
M  V30 231 1 231 232
M  V30 232 1 153 233
M  V30 233 1 233 234
M  V30 234 1 233 235
M  V30 235 1 61 236
M  V30 236 2 236 237
M  V30 237 1 50 238
M  V30 238 1 238 239
M  V30 239 1 239 240
M  V30 240 2 239 241
M  V30 241 1 5 242
M  V30 242 1 242 243
M  V30 243 2 242 244
M  V30 244 1 35 31
M  V30 245 1 237 59
M  V30 246 1 149 77
M  V30 247 1 164 159
M  V30 248 1 176 170
M  V30 249 1 211 205
M  V30 250 1 232 224
M  V30 251 1 96 91
M  V30 252 1 110 102
M  V30 253 1 121 116
M  V30 254 1 232 227
M  V30 255 1 110 105
M  V30 256 1 1 245
M  V30 257 1 1 246
M  V30 258 1 1 247
M  V30 259 1 2 248
M  V30 260 1 2 249
M  V30 261 1 3 250 CFG=1
M  V30 262 1 4 251
M  V30 263 1 4 252
M  V30 264 1 4 253
M  V30 265 1 5 254 CFG=3
M  V30 266 1 6 255
M  V30 267 1 9 256 CFG=1
M  V30 268 1 10 257
M  V30 269 1 10 258
M  V30 270 1 11 259
M  V30 271 1 11 260
M  V30 272 1 12 261
M  V30 273 1 12 262
M  V30 274 1 13 263
M  V30 275 1 15 264
M  V30 276 1 16 265
M  V30 277 1 16 266
M  V30 278 1 17 267
M  V30 279 1 20 268 CFG=1
M  V30 280 1 21 269
M  V30 281 1 21 270
M  V30 282 1 22 271
M  V30 283 1 22 272
M  V30 284 1 25 273
M  V30 285 1 26 274
M  V30 286 1 29 275 CFG=1
M  V30 287 1 30 276
M  V30 288 1 30 277
M  V30 289 1 32 278
M  V30 290 1 34 279
M  V30 291 1 35 280
M  V30 292 1 36 281
M  V30 293 1 39 282 CFG=3
M  V30 294 1 40 283
M  V30 295 1 40 284
M  V30 296 1 41 285
M  V30 297 1 41 286
M  V30 298 1 42 287
M  V30 299 1 42 288
M  V30 300 1 43 289
M  V30 301 1 45 290
M  V30 302 1 46 291
M  V30 303 1 46 292
M  V30 304 1 47 293
M  V30 305 1 50 294
M  V30 306 1 51 295
M  V30 307 1 51 296
M  V30 308 1 52 297
M  V30 309 1 52 298
M  V30 310 1 53 299
M  V30 311 1 53 300
M  V30 312 1 54 301
M  V30 313 1 54 302
M  V30 314 1 55 303
M  V30 315 1 55 304
M  V30 316 1 56 305
M  V30 317 1 56 306
M  V30 318 1 57 307
M  V30 319 1 57 308
M  V30 320 1 58 309
M  V30 321 1 58 310
M  V30 322 1 60 311
M  V30 323 1 62 312
M  V30 324 1 62 313
M  V30 325 1 63 314
M  V30 326 1 63 315
M  V30 327 1 64 316
M  V30 328 1 64 317
M  V30 329 1 67 318
M  V30 330 1 68 319
M  V30 331 1 69 320
M  V30 332 1 69 321
M  V30 333 1 70 322
M  V30 334 1 70 323
M  V30 335 1 71 324
M  V30 336 1 71 325
M  V30 337 1 72 326
M  V30 338 1 72 327
M  V30 339 1 73 328
M  V30 340 1 73 329
M  V30 341 1 74 330
M  V30 342 1 74 331
M  V30 343 1 75 332
M  V30 344 1 75 333
M  V30 345 1 76 334
M  V30 346 1 76 335
M  V30 347 1 78 336
M  V30 348 1 80 337
M  V30 349 1 80 338
M  V30 350 1 81 339 CFG=1
M  V30 351 1 82 340
M  V30 352 1 84 341
M  V30 353 1 84 342
M  V30 354 1 84 343
M  V30 355 1 88 344
M  V30 356 1 89 345 CFG=1
M  V30 357 1 90 346
M  V30 358 1 90 347
M  V30 359 1 92 348
M  V30 360 1 93 349
M  V30 361 1 94 350
M  V30 362 1 95 351
M  V30 363 1 96 352
M  V30 364 1 99 353
M  V30 365 1 100 354 CFG=1
M  V30 366 1 101 355
M  V30 367 1 101 356
M  V30 368 1 103 357
M  V30 369 1 104 358
M  V30 370 1 106 359
M  V30 371 1 107 360
M  V30 372 1 108 361
M  V30 373 1 109 362
M  V30 374 1 113 363
M  V30 375 1 114 364 CFG=3
M  V30 376 1 115 365
M  V30 377 1 115 366
M  V30 378 1 117 367
M  V30 379 1 118 368
M  V30 380 1 119 369
M  V30 381 1 120 370
M  V30 382 1 121 371
M  V30 383 1 124 372
M  V30 384 1 125 373 CFG=3
M  V30 385 1 126 374
M  V30 386 1 126 375
M  V30 387 1 127 376
M  V30 388 1 128 377
M  V30 389 1 128 378
M  V30 390 1 128 379
M  V30 391 1 129 380
M  V30 392 1 129 381
M  V30 393 1 129 382
M  V30 394 1 132 383
M  V30 395 1 133 384 CFG=1
M  V30 396 1 134 385
M  V30 397 1 134 386
M  V30 398 1 135 387
M  V30 399 1 135 388
M  V30 400 1 136 389
M  V30 401 1 136 390
M  V30 402 1 137 391
M  V30 403 1 139 392
M  V30 404 1 140 393
M  V30 405 1 140 394
M  V30 406 1 143 395
M  V30 407 1 144 396
M  V30 408 1 144 397
M  V30 409 1 146 398
M  V30 410 1 146 399
M  V30 411 1 152 400
M  V30 412 1 153 401 CFG=3
M  V30 413 1 156 402
M  V30 414 1 157 403 CFG=3
M  V30 415 1 158 404
M  V30 416 1 158 405
M  V30 417 1 160 406
M  V30 418 1 161 407
M  V30 419 1 162 408
M  V30 420 1 163 409
M  V30 421 1 164 410
M  V30 422 1 167 411
M  V30 423 1 168 412 CFG=3
M  V30 424 1 169 413
M  V30 425 1 169 414
M  V30 426 1 171 415
M  V30 427 1 172 416
M  V30 428 1 174 417
M  V30 429 1 175 418
M  V30 430 1 176 419
M  V30 431 1 179 420
M  V30 432 1 180 421 CFG=1
M  V30 433 1 181 422
M  V30 434 1 181 423
M  V30 435 1 182 424
M  V30 436 1 182 425
M  V30 437 1 183 426
M  V30 438 1 183 427
M  V30 439 1 184 428
M  V30 440 1 186 429
M  V30 441 1 187 430
M  V30 442 1 187 431
M  V30 443 1 190 432
M  V30 444 1 191 433 CFG=3
M  V30 445 1 192 434
M  V30 446 1 192 435
M  V30 447 1 193 436
M  V30 448 1 194 437
M  V30 449 1 194 438
M  V30 450 1 194 439
M  V30 451 1 195 440
M  V30 452 1 195 441
M  V30 453 1 195 442
M  V30 454 1 198 443
M  V30 455 1 199 444
M  V30 456 1 199 445
M  V30 457 1 202 446
M  V30 458 1 203 447 CFG=3
M  V30 459 1 204 448
M  V30 460 1 204 449
M  V30 461 1 206 450
M  V30 462 1 207 451
M  V30 463 1 209 452
M  V30 464 1 210 453
M  V30 465 1 211 454
M  V30 466 1 214 455
M  V30 467 1 215 456
M  V30 468 1 215 457
M  V30 469 1 216 458
M  V30 470 1 216 459
M  V30 471 1 217 460
M  V30 472 1 220 461
M  V30 473 1 220 462
M  V30 474 1 221 463
M  V30 475 1 221 464
M  V30 476 1 222 465
M  V30 477 1 222 466
M  V30 478 1 223 467
M  V30 479 1 223 468
M  V30 480 1 224 469 CFG=1
M  V30 481 1 226 470
M  V30 482 1 226 471
M  V30 483 1 227 472 CFG=1
M  V30 484 1 228 473
M  V30 485 1 231 474
M  V30 486 1 232 475 CFG=1
M  V30 487 1 233 476
M  V30 488 1 234 477
M  V30 489 1 234 478
M  V30 490 1 234 479
M  V30 491 1 235 480
M  V30 492 1 235 481
M  V30 493 1 235 482
M  V30 494 1 238 483
M  V30 495 1 240 484
M  V30 496 1 240 485
M  V30 497 1 240 486
M  V30 498 1 243 487
M  V30 499 1 243 488
M  V30 END BOND
M  V30 END CTAB
M  END
>  <Dataset>  (276) 
ChEMBL_Kinases

>  <Ligand_Instance>  (276) 
nan

>  <PDB_ID>  (276) 
nan

>  <Standardized_SMILES>  (276) 
CC[C@H](C)[C@H](NC(=O)[C@H](CCCNC(=N)N)NC(=O)[C@H](CCC(=O)O)NC(=O)[C@H](Cc1cnc[nH]1)NC(=O)[C@H](CCCNC(=N)N)NC(=O)C(CCCCCCCCn1cc(CCCC(=O)NC(CCCCCCCCn2cc(C[C@H](NC(C)=O)C(=O)N[C@@H](Cc3ccccc3)C(=O)N[C@@H](Cc3c[nH]c4ccccc34)C(=O)N[C@@H](Cc3ccccc3)C(=O)N[C@@H](CC(C)C)C(=O)N[C@@H](CCCNC(=N)N)C(=O)NCC(N)=O)nn2)C(=O)N[C@H](C(=O)N[C@@H](Cc2ccccc2)C(=O)N[C@@H](Cc2ccc(O)cc2)C(=O)N[C@@H](CCCNC(=N)N)C(=O)N[C@@H](CC(C)C)C(=O)NCC(=O)N[C@@H](Cc2ccc(O)cc2)C(=O)NCCNC(=O)CCCC[C@H]2SC[C@H]3NC(=O)N[C@H]32)C(C)C)nn1)NC(C)=O)C(N)=O

>  <Name>  (276) 
nan

>  <Pocket>  (276) 
nan

>  <ATP_Site>  (276) 
nan

>  <Peripheral>  (276) 
nan

>  <Num_H_Atoms_ProtBoundConf>  (276) 
nan

>  <Num_Resolved_Atoms>  (276) 
nan

>  <Num_Not_Resolved_Atoms>  (276) 
nan

$$$$
CHEMBL3313935
     RDKit          3D

  0  0  0  0  0  0  0  0  0  0999 V3000
M  V30 BEGIN CTAB
M  V30 COUNTS 42 45 0 0 0
M  V30 BEGIN ATOM
M  V30 1 O 5.371419 -6.343271 1.625053 0
M  V30 2 C 5.599981 -5.109484 1.455635 0
M  V30 3 O 6.979952 -4.951899 1.467552 0
M  V30 4 C 4.571307 -4.059471 1.280723 0
M  V30 5 C 4.926215 -2.735696 1.099245 0
M  V30 6 C 3.860948 -1.837221 0.946982 0
M  V30 7 C 2.556111 -2.289839 0.982993 0
M  V30 8 C 1.443413 -1.355017 0.825984 0
M  V30 9 N 1.512029 -0.025960 0.639540 0
M  V30 10 C 0.291559 0.528798 0.534663 0
M  V30 11 C -0.049373 1.933411 0.329014 0
M  V30 12 C -0.726590 2.122081 -0.871001 0
M  V30 13 C -1.140011 3.405558 -1.247957 0
M  V30 14 C -0.870734 4.477432 -0.421454 0
M  V30 15 F -1.259173 5.745616 -0.756629 0
M  V30 16 C -0.197171 4.273141 0.767123 0
M  V30 17 C 0.216147 3.006993 1.148900 0
M  V30 18 C -0.596903 -0.520711 0.663776 0
M  V30 19 C -2.064764 -0.455003 0.622997 0
M  V30 20 C -2.564123 0.320348 1.678364 0
M  V30 21 C -3.922242 0.509373 1.820351 0
M  V30 22 N -4.709365 -0.074957 0.916045 0
M  V30 23 C -4.292817 -0.820789 -0.105467 0
M  V30 24 O -5.012232 -1.380399 -0.967032 0
M  V30 25 C -2.929993 -1.028784 -0.273585 0
M  V30 26 N 0.116484 -1.642403 0.837717 0
M  V30 27 C 2.256632 -3.630910 1.168142 0
M  V30 28 C 3.280126 -4.546963 1.321742 0
M  V30 29 H 7.555344 -5.221545 2.255718 0
M  V30 30 H 5.956777 -2.432033 1.078577 0
M  V30 31 H 4.107115 -0.772666 0.799794 0
M  V30 32 H -1.011088 1.397056 -1.619344 0
M  V30 33 H -1.669767 3.652270 -2.157543 0
M  V30 34 H 0.046269 5.064886 1.458970 0
M  V30 35 H 0.747761 2.745793 2.056609 0
M  V30 36 H -1.953055 0.818872 2.445564 0
M  V30 37 H -4.351619 1.110234 2.634304 0
M  V30 38 H -5.746903 0.063712 1.015905 0
M  V30 39 H -2.421502 -1.605395 -1.044701 0
M  V30 40 H -0.292684 -2.590594 0.962838 0
M  V30 41 H 1.216939 -3.960402 1.192325 0
M  V30 42 H 3.034472 -5.576708 1.463282 0
M  V30 END ATOM
M  V30 BEGIN BOND
M  V30 1 2 1 2
M  V30 2 1 2 3
M  V30 3 1 2 4
M  V30 4 2 4 5
M  V30 5 1 5 6
M  V30 6 2 6 7
M  V30 7 1 7 8
M  V30 8 2 8 9
M  V30 9 1 9 10
M  V30 10 1 10 11
M  V30 11 2 11 12
M  V30 12 1 12 13
M  V30 13 2 13 14
M  V30 14 1 14 15
M  V30 15 1 14 16
M  V30 16 2 16 17
M  V30 17 2 10 18
M  V30 18 1 18 19
M  V30 19 1 19 20
M  V30 20 2 20 21
M  V30 21 1 21 22
M  V30 22 1 22 23
M  V30 23 2 23 24
M  V30 24 1 23 25
M  V30 25 1 18 26
M  V30 26 1 7 27
M  V30 27 2 27 28
M  V30 28 1 28 4
M  V30 29 1 26 8
M  V30 30 1 17 11
M  V30 31 2 25 19
M  V30 32 1 3 29
M  V30 33 1 5 30
M  V30 34 1 6 31
M  V30 35 1 12 32
M  V30 36 1 13 33
M  V30 37 1 16 34
M  V30 38 1 17 35
M  V30 39 1 20 36
M  V30 40 1 21 37
M  V30 41 1 22 38
M  V30 42 1 25 39
M  V30 43 1 26 40
M  V30 44 1 27 41
M  V30 45 1 28 42
M  V30 END BOND
M  V30 END CTAB
M  END
>  <Dataset>  (277) 
ChEMBL_Kinases

>  <Ligand_Instance>  (277) 
nan

>  <PDB_ID>  (277) 
nan

>  <Standardized_SMILES>  (277) 
O=C(O)c1ccc(-c2nc(-c3ccc(F)cc3)c(-c3cc[nH]c(=O)c3)[nH]2)cc1

>  <Name>  (277) 
nan

>  <Pocket>  (277) 
nan

>  <ATP_Site>  (277) 
nan

>  <Peripheral>  (277) 
nan

>  <Num_H_Atoms_ProtBoundConf>  (277) 
nan

>  <Num_Resolved_Atoms>  (277) 
nan

>  <Num_Not_Resolved_Atoms>  (277) 
nan

$$$$
CHEMBL331361
     RDKit          3D

  0  0  0  0  0  0  0  0  0  0999 V3000
M  V30 BEGIN CTAB
M  V30 COUNTS 43 46 0 0 0
M  V30 BEGIN ATOM
M  V30 1 C -1.790846 -6.367569 2.346008 0
M  V30 2 C -1.016877 -5.474944 1.435025 0
M  V30 3 C -1.621168 -5.040916 0.279534 0
M  V30 4 C -0.977682 -4.206222 -0.630645 0
M  V30 5 C 0.306820 -3.844767 -0.293926 0
M  V30 6 S 1.342793 -2.772496 -1.311142 0
M  V30 7 C 1.068322 -1.060506 -0.803862 0
M  V30 8 C 1.818617 -0.457069 0.182464 0
M  V30 9 C 1.484018 0.854685 0.452635 0
M  V30 10 C 0.456273 1.408031 -0.278641 0
M  V30 11 C 0.149378 2.729954 0.022527 0
M  V30 12 C 0.822411 3.553928 1.034216 0
M  V30 13 C 1.909568 4.358257 0.883150 0
M  V30 14 Cl 2.569249 4.397205 -0.731199 0
M  V30 15 C 2.383034 5.053627 1.987293 0
M  V30 16 C 1.760442 4.928816 3.212314 0
M  V30 17 C 0.642951 4.108623 3.389895 0
M  V30 18 C 0.193580 3.424748 2.260941 0
M  V30 19 Cl -1.220140 2.421208 2.601143 0
M  V30 20 C -0.876746 3.387416 -0.660428 0
M  V30 21 O -1.214492 4.570768 -0.450911 0
M  V30 22 N -1.530976 2.684865 -1.599692 0
M  V30 23 C -1.246316 1.400918 -1.904999 0
M  V30 24 N -0.248375 0.783143 -1.231086 0
M  V30 25 N 0.070285 -0.475691 -1.492682 0
M  V30 26 C 0.946445 -4.249131 0.838278 0
M  V30 27 C 2.316385 -3.899269 1.256208 0
M  V30 28 C 0.288661 -5.087905 1.744802 0
M  V30 29 H -1.078747 -6.906472 2.984114 0
M  V30 30 H -2.527583 -5.796439 2.950850 0
M  V30 31 H -2.391331 -7.046757 1.705394 0
M  V30 32 H -2.628418 -5.337396 0.037018 0
M  V30 33 H -1.386217 -3.829102 -1.549955 0
M  V30 34 H 2.590738 -1.001842 0.673893 0
M  V30 35 H 2.028471 1.394929 1.214340 0
M  V30 36 H 3.247014 5.672803 1.799320 0
M  V30 37 H 2.151397 5.478912 4.042369 0
M  V30 38 H 0.215947 4.064137 4.369469 0
M  V30 39 H -1.789795 0.858251 -2.666868 0
M  V30 40 H 2.827448 -4.847318 1.568454 0
M  V30 41 H 2.920525 -3.494409 0.407476 0
M  V30 42 H 2.347972 -3.231256 2.140711 0
M  V30 43 H 0.661930 -5.487130 2.674986 0
M  V30 END ATOM
M  V30 BEGIN BOND
M  V30 1 1 1 2
M  V30 2 2 2 3
M  V30 3 1 3 4
M  V30 4 2 4 5
M  V30 5 1 5 6
M  V30 6 1 6 7
M  V30 7 1 7 8
M  V30 8 2 8 9
M  V30 9 1 9 10
M  V30 10 2 10 11
M  V30 11 1 11 12
M  V30 12 2 12 13
M  V30 13 1 13 14
M  V30 14 1 13 15
M  V30 15 2 15 16
M  V30 16 1 16 17
M  V30 17 2 17 18
M  V30 18 1 18 19
M  V30 19 1 11 20
M  V30 20 2 20 21
M  V30 21 1 20 22
M  V30 22 2 22 23
M  V30 23 1 23 24
M  V30 24 1 24 25
M  V30 25 1 5 26
M  V30 26 1 26 27
M  V30 27 2 26 28
M  V30 28 1 28 2
M  V30 29 2 25 7
M  V30 30 1 24 10
M  V30 31 1 18 12
M  V30 32 1 1 29
M  V30 33 1 1 30
M  V30 34 1 1 31
M  V30 35 1 3 32
M  V30 36 1 4 33
M  V30 37 1 8 34
M  V30 38 1 9 35
M  V30 39 1 15 36
M  V30 40 1 16 37
M  V30 41 1 17 38
M  V30 42 1 23 39
M  V30 43 1 27 40
M  V30 44 1 27 41
M  V30 45 1 27 42
M  V30 46 1 28 43
M  V30 END BOND
M  V30 END CTAB
M  END
>  <Dataset>  (278) 
ChEMBL_Kinases

>  <Ligand_Instance>  (278) 
nan

>  <PDB_ID>  (278) 
nan

>  <Standardized_SMILES>  (278) 
Cc1ccc(Sc2ccc3c(-c4c(Cl)cccc4Cl)c(=O)ncn3n2)c(C)c1

>  <Name>  (278) 
nan

>  <Pocket>  (278) 
nan

>  <ATP_Site>  (278) 
nan

>  <Peripheral>  (278) 
nan

>  <Num_H_Atoms_ProtBoundConf>  (278) 
nan

>  <Num_Resolved_Atoms>  (278) 
nan

>  <Num_Not_Resolved_Atoms>  (278) 
nan

$$$$
CHEMBL331252
     RDKit          3D

  0  0  0  0  0  0  0  0  0  0999 V3000
M  V30 BEGIN CTAB
M  V30 COUNTS 52 56 0 0 0
M  V30 BEGIN ATOM
M  V30 1 C -1.944706 -3.904134 0.720435 0
M  V30 2 C -0.500779 -4.376356 0.660955 0 CFG=2
M  V30 3 N 0.195249 -4.113489 1.900318 0
M  V30 4 C 0.336577 -2.779617 2.364501 0
M  V30 5 N 0.972845 -2.537627 3.525954 0
M  V30 6 C 1.121550 -1.288568 3.985758 0
M  V30 7 C 0.636632 -0.195314 3.302274 0
M  V30 8 C -0.011428 -0.461548 2.115969 0
M  V30 9 C -0.605004 0.521597 1.220610 0
M  V30 10 C 0.280233 1.441140 0.670181 0
M  V30 11 C 1.723522 1.657498 0.787606 0
M  V30 12 C 2.030653 2.916872 1.317025 0
M  V30 13 C 3.336302 3.336660 1.516362 0
M  V30 14 C 4.344823 2.461289 1.171638 0
M  V30 15 C 4.054119 1.208991 0.645455 0
M  V30 16 C 2.752104 0.796173 0.449075 0
M  V30 17 N -0.468201 2.257343 -0.125155 0
M  V30 18 C -1.764523 1.842914 -0.056534 0
M  V30 19 N -2.928948 2.263829 -0.622942 0
M  V30 20 C -4.096964 1.641482 -0.364653 0
M  V30 21 N -5.320063 2.074994 -0.952800 0
M  V30 22 C -4.133759 0.556499 0.486358 0
M  V30 23 C -2.957565 0.098456 1.084434 0
M  V30 24 N -1.843906 0.782266 0.766543 0
M  V30 25 N -0.149033 -1.737782 1.671682 0
M  V30 26 C 0.238483 -3.634645 -0.417876 0
M  V30 27 C 1.615481 -3.693357 -0.463050 0
M  V30 28 C 2.281333 -3.003486 -1.463675 0
M  V30 29 C 1.511844 -2.279678 -2.380162 0
M  V30 30 C 0.135147 -2.207353 -2.353558 0
M  V30 31 C -0.511076 -2.913310 -1.332751 0
M  V30 32 H -2.322647 -4.267880 1.711012 0
M  V30 33 H -2.464684 -4.380101 -0.124981 0
M  V30 34 H -2.051413 -2.809910 0.739223 0
M  V30 35 H -0.531646 -5.460627 0.430244 0
M  V30 36 H 0.586293 -4.900450 2.441259 0
M  V30 37 H 1.634855 -1.069780 4.926003 0
M  V30 38 H 0.706155 0.845444 3.589165 0
M  V30 39 H 1.290497 3.655183 1.610116 0
M  V30 40 H 3.579016 4.307764 1.924907 0
M  V30 41 H 5.367851 2.769997 1.319579 0
M  V30 42 H 4.829882 0.507756 0.368952 0
M  V30 43 H 2.416686 -0.132954 0.056164 0
M  V30 44 H -5.215494 2.330199 -1.971656 0
M  V30 45 H -6.225200 2.128070 -0.408750 0
M  V30 46 H -5.076333 0.048818 0.699295 0
M  V30 47 H -2.952939 -0.748308 1.754900 0
M  V30 48 H 2.211587 -4.254839 0.247757 0
M  V30 49 H 3.356264 -2.975855 -1.598992 0
M  V30 50 H 1.943120 -1.701139 -3.207658 0
M  V30 51 H -0.450980 -1.659231 -3.047350 0
M  V30 52 H -1.597473 -2.860439 -1.305477 0
M  V30 END ATOM
M  V30 BEGIN BOND
M  V30 1 1 1 2
M  V30 2 1 2 3
M  V30 3 1 3 4
M  V30 4 2 4 5
M  V30 5 1 5 6
M  V30 6 2 6 7
M  V30 7 1 7 8
M  V30 8 1 8 9
M  V30 9 2 9 10
M  V30 10 1 10 11
M  V30 11 2 11 12
M  V30 12 1 12 13
M  V30 13 2 13 14
M  V30 14 1 14 15
M  V30 15 2 15 16
M  V30 16 1 10 17
M  V30 17 2 17 18
M  V30 18 1 18 19
M  V30 19 2 19 20
M  V30 20 1 20 21
M  V30 21 1 20 22
M  V30 22 2 22 23
M  V30 23 1 23 24
M  V30 24 2 8 25
M  V30 25 1 2 26
M  V30 26 2 26 27
M  V30 27 1 27 28
M  V30 28 2 28 29
M  V30 29 1 29 30
M  V30 30 2 30 31
M  V30 31 1 25 4
M  V30 32 1 31 26
M  V30 33 1 24 9
M  V30 34 1 16 11
M  V30 35 1 24 18
M  V30 36 1 1 32
M  V30 37 1 1 33
M  V30 38 1 1 34
M  V30 39 1 2 35 CFG=3
M  V30 40 1 3 36
M  V30 41 1 6 37
M  V30 42 1 7 38
M  V30 43 1 12 39
M  V30 44 1 13 40
M  V30 45 1 14 41
M  V30 46 1 15 42
M  V30 47 1 16 43
M  V30 48 1 21 44
M  V30 49 1 21 45
M  V30 50 1 22 46
M  V30 51 1 23 47
M  V30 52 1 27 48
M  V30 53 1 28 49
M  V30 54 1 29 50
M  V30 55 1 30 51
M  V30 56 1 31 52
M  V30 END BOND
M  V30 END CTAB
M  END
>  <Dataset>  (279) 
ChEMBL_Kinases

>  <Ligand_Instance>  (279) 
nan

>  <PDB_ID>  (279) 
nan

>  <Standardized_SMILES>  (279) 
C[C@H](Nc1nccc(-c2c(-c3ccccc3)nc3nc(N)ccn23)n1)c1ccccc1

>  <Name>  (279) 
nan

>  <Pocket>  (279) 
nan

>  <ATP_Site>  (279) 
nan

>  <Peripheral>  (279) 
nan

>  <Num_H_Atoms_ProtBoundConf>  (279) 
nan

>  <Num_Resolved_Atoms>  (279) 
nan

>  <Num_Not_Resolved_Atoms>  (279) 
nan

$$$$
CHEMBL331215
     RDKit          3D

  0  0  0  0  0  0  0  0  0  0999 V3000
M  V30 BEGIN CTAB
M  V30 COUNTS 51 56 0 0 0
M  V30 BEGIN ATOM
M  V30 1 F 1.256690 -7.627176 3.898549 0
M  V30 2 C 1.457631 -6.388820 3.417837 0
M  V30 3 C 1.643307 -5.243233 4.175322 0
M  V30 4 C 1.836177 -4.054948 3.528691 0
M  V30 5 C 1.855392 -3.938319 2.135132 0
M  V30 6 C 2.074620 -2.586431 1.687588 0
M  V30 7 N 3.138515 -1.756764 1.900715 0
M  V30 8 C 2.912404 -0.578238 1.292153 0
M  V30 9 C 3.651026 0.599151 1.190760 0
M  V30 10 C 3.176216 1.703082 0.483474 0
M  V30 11 C 1.949357 1.669475 -0.146040 0
M  V30 12 N 1.241082 2.537834 -0.877548 0
M  V30 13 C 0.080918 1.969565 -1.249906 0
M  V30 14 C -1.062874 2.496037 -2.065870 0
M  V30 15 C -2.044450 3.140398 -1.130241 0
M  V30 16 C -1.998778 4.475752 -0.775826 0
M  V30 17 C -2.946527 4.991160 0.097253 0
M  V30 18 C -3.890565 4.096313 0.556422 0
M  V30 19 C -3.978244 2.758567 0.233276 0
M  V30 20 C -3.005957 2.276841 -0.648683 0
M  V30 21 N 0.072174 0.715404 -0.734176 0
M  V30 22 C 1.216362 0.504746 -0.046992 0
M  V30 23 C 1.688346 -0.589030 0.654614 0
M  V30 24 C 1.193216 -1.851327 0.919654 0
M  V30 25 C -0.122360 -2.295468 0.414412 0
M  V30 26 C -1.007783 -2.574055 1.461762 0
M  V30 27 C -2.281023 -3.001987 1.129012 0
M  V30 28 N -2.656091 -3.145295 -0.131344 0
M  V30 29 C -1.814975 -2.880639 -1.128320 0
M  V30 30 C -0.524011 -2.448398 -0.900662 0
M  V30 31 C 1.668632 -5.090845 1.396557 0
M  V30 32 C 1.471844 -6.303169 2.024809 0
M  V30 33 H 1.625009 -5.355522 5.248867 0
M  V30 34 H 1.973032 -3.210455 4.222008 0
M  V30 35 H 3.985882 -2.027510 2.457656 0
M  V30 36 H 4.618509 0.671331 1.668103 0
M  V30 37 H 3.726880 2.616005 0.393416 0
M  V30 38 H 1.509040 3.511169 -1.140863 0
M  V30 39 H -0.727413 3.321061 -2.741046 0
M  V30 40 H -1.530300 1.720945 -2.671122 0
M  V30 41 H -1.223392 5.092639 -1.187624 0
M  V30 42 H -2.944225 6.028319 0.397712 0
M  V30 43 H -4.624582 4.538202 1.244909 0
M  V30 44 H -4.759463 2.138816 0.648589 0
M  V30 45 H -3.069458 1.225793 -0.906611 0
M  V30 46 H -0.776556 -2.481740 2.513184 0
M  V30 47 H -2.993568 -3.226855 1.926289 0
M  V30 48 H -2.070612 -2.981273 -2.192160 0
M  V30 49 H 0.249905 -2.201953 -1.616776 0
M  V30 50 H 1.696154 -4.922856 0.328671 0
M  V30 51 H 1.332591 -7.163006 1.369074 0
M  V30 END ATOM
M  V30 BEGIN BOND
M  V30 1 1 1 2
M  V30 2 2 2 3
M  V30 3 1 3 4
M  V30 4 2 4 5
M  V30 5 1 5 6
M  V30 6 1 6 7
M  V30 7 1 7 8
M  V30 8 2 8 9
M  V30 9 1 9 10
M  V30 10 2 10 11
M  V30 11 1 11 12
M  V30 12 1 12 13
M  V30 13 1 13 14
M  V30 14 1 14 15
M  V30 15 2 15 16
M  V30 16 1 16 17
M  V30 17 2 17 18
M  V30 18 1 18 19
M  V30 19 2 19 20
M  V30 20 2 13 21
M  V30 21 1 21 22
M  V30 22 2 22 23
M  V30 23 1 23 24
M  V30 24 1 24 25
M  V30 25 2 25 26
M  V30 26 1 26 27
M  V30 27 2 27 28
M  V30 28 1 28 29
M  V30 29 2 29 30
M  V30 30 1 5 31
M  V30 31 2 31 32
M  V30 32 1 32 2
M  V30 33 2 24 6
M  V30 34 1 30 25
M  V30 35 1 23 8
M  V30 36 1 22 11
M  V30 37 1 20 15
M  V30 38 1 3 33
M  V30 39 1 4 34
M  V30 40 1 7 35
M  V30 41 1 9 36
M  V30 42 1 10 37
M  V30 43 1 12 38
M  V30 44 1 14 39
M  V30 45 1 14 40
M  V30 46 1 16 41
M  V30 47 1 17 42
M  V30 48 1 18 43
M  V30 49 1 19 44
M  V30 50 1 20 45
M  V30 51 1 26 46
M  V30 52 1 27 47
M  V30 53 1 29 48
M  V30 54 1 30 49
M  V30 55 1 31 50
M  V30 56 1 32 51
M  V30 END BOND
M  V30 END CTAB
M  END
>  <Dataset>  (280) 
ChEMBL_Kinases

>  <Ligand_Instance>  (280) 
nan

>  <PDB_ID>  (280) 
nan

>  <Standardized_SMILES>  (280) 
Fc1ccc(-c2[nH]c3ccc4[nH]c(Cc5ccccc5)nc4c3c2-c2ccncc2)cc1

>  <Name>  (280) 
nan

>  <Pocket>  (280) 
nan

>  <ATP_Site>  (280) 
nan

>  <Peripheral>  (280) 
nan

>  <Num_H_Atoms_ProtBoundConf>  (280) 
nan

>  <Num_Resolved_Atoms>  (280) 
nan

>  <Num_Not_Resolved_Atoms>  (280) 
nan

$$$$
CHEMBL3311455
     RDKit          3D

  0  0  0  0  0  0  0  0  0  0999 V3000
M  V30 BEGIN CTAB
M  V30 COUNTS 46 49 0 0 0
M  V30 BEGIN ATOM
M  V30 1 C -0.322117 -3.744081 3.197403 0
M  V30 2 O -1.658335 -3.928668 2.851482 0
M  V30 3 C -2.325504 -3.264619 1.813780 0
M  V30 4 N -1.844483 -2.344029 0.952968 0
M  V30 5 C -2.661880 -1.820566 0.016500 0
M  V30 6 N -2.121931 -0.835342 -0.838839 0
M  V30 7 C -1.398361 0.326929 -1.043382 0
M  V30 8 C -1.837196 1.193664 -2.072043 0
M  V30 9 C -1.129999 2.339563 -2.353638 0
M  V30 10 C -0.001944 2.573488 -1.595780 0
M  V30 11 C 0.481016 1.765608 -0.577745 0
M  V30 12 N 1.705517 2.052933 0.162843 0
M  V30 13 C 2.808630 1.234564 -0.232426 0
M  V30 14 O 2.449026 0.470467 -1.141339 0
M  V30 15 N 4.010692 1.481259 0.483550 0
M  V30 16 C 4.366004 2.430756 1.533828 0
M  V30 17 C 4.981019 1.565412 2.625125 0
M  V30 18 C 5.806929 0.572734 1.803977 0
M  V30 19 C 5.326558 0.827364 0.409028 0
M  V30 20 C -0.249179 0.607247 -0.297819 0
M  V30 21 N -3.978110 -2.204251 -0.080361 0
M  V30 22 C -4.527575 -3.111718 0.737983 0
M  V30 23 N -5.755574 -3.611589 0.804242 0
M  V30 24 C -5.716579 -4.480544 1.815550 0
M  V30 25 C -4.448617 -4.514640 2.376682 0
M  V30 26 C -3.671705 -3.617167 1.665376 0
M  V30 27 H 0.248599 -4.664869 2.918375 0
M  V30 28 H 0.138720 -2.821126 2.763783 0
M  V30 29 H -0.242255 -3.711386 4.314274 0
M  V30 30 H -2.409863 -1.249692 -1.805997 0
M  V30 31 H -2.720646 1.021039 -2.671393 0
M  V30 32 H -1.421641 3.039155 -3.132347 0
M  V30 33 H 0.546725 3.468704 -1.802871 0
M  V30 34 H 1.650984 2.806649 0.894285 0
M  V30 35 H 3.460765 2.926054 1.955700 0
M  V30 36 H 5.114447 3.166430 1.215388 0
M  V30 37 H 5.628536 2.119052 3.317802 0
M  V30 38 H 4.226634 0.976144 3.173361 0
M  V30 39 H 5.607303 -0.467232 2.102671 0
M  V30 40 H 6.890911 0.790897 1.901730 0
M  V30 41 H 5.119322 -0.169104 -0.083459 0
M  V30 42 H 6.031798 1.382479 -0.229741 0
M  V30 43 H 0.098793 -0.052177 0.496511 0
M  V30 44 H -6.577274 -3.376656 0.188810 0
M  V30 45 H -6.598324 -5.054290 2.129565 0
M  V30 46 H -4.191537 -5.141314 3.224507 0
M  V30 END ATOM
M  V30 BEGIN BOND
M  V30 1 1 1 2
M  V30 2 1 2 3
M  V30 3 2 3 4
M  V30 4 1 4 5
M  V30 5 1 5 6
M  V30 6 1 6 7
M  V30 7 2 7 8
M  V30 8 1 8 9
M  V30 9 2 9 10
M  V30 10 1 10 11
M  V30 11 1 11 12
M  V30 12 1 12 13
M  V30 13 2 13 14
M  V30 14 1 13 15
M  V30 15 1 15 16
M  V30 16 1 16 17
M  V30 17 1 17 18
M  V30 18 1 18 19
M  V30 19 2 11 20
M  V30 20 2 5 21
M  V30 21 1 21 22
M  V30 22 1 22 23
M  V30 23 1 23 24
M  V30 24 2 24 25
M  V30 25 1 25 26
M  V30 26 1 26 3
M  V30 27 1 20 7
M  V30 28 2 26 22
M  V30 29 1 19 15
M  V30 30 1 1 27
M  V30 31 1 1 28
M  V30 32 1 1 29
M  V30 33 1 6 30
M  V30 34 1 8 31
M  V30 35 1 9 32
M  V30 36 1 10 33
M  V30 37 1 12 34
M  V30 38 1 16 35
M  V30 39 1 16 36
M  V30 40 1 17 37
M  V30 41 1 17 38
M  V30 42 1 18 39
M  V30 43 1 18 40
M  V30 44 1 19 41
M  V30 45 1 19 42
M  V30 46 1 20 43
M  V30 47 1 23 44
M  V30 48 1 24 45
M  V30 49 1 25 46
M  V30 END BOND
M  V30 END CTAB
M  END
>  <Dataset>  (281) 
ChEMBL_Kinases

>  <Ligand_Instance>  (281) 
nan

>  <PDB_ID>  (281) 
nan

>  <Standardized_SMILES>  (281) 
COc1nc(Nc2cccc(NC(=O)N3CCCC3)c2)nc2[nH]ccc12

>  <Name>  (281) 
nan

>  <Pocket>  (281) 
nan

>  <ATP_Site>  (281) 
nan

>  <Peripheral>  (281) 
nan

>  <Num_H_Atoms_ProtBoundConf>  (281) 
nan

>  <Num_Resolved_Atoms>  (281) 
nan

>  <Num_Not_Resolved_Atoms>  (281) 
nan

$$$$
CHEMBL3311451
     RDKit          3D

  0  0  0  0  0  0  0  0  0  0999 V3000
M  V30 BEGIN CTAB
M  V30 COUNTS 56 60 0 0 0
M  V30 BEGIN ATOM
M  V30 1 C 0.322469 -8.598695 5.686948 0
M  V30 2 O 1.349293 -7.849114 5.047872 0
M  V30 3 C 0.992425 -6.720440 4.322288 0
M  V30 4 C 1.949851 -5.962841 3.686397 0
M  V30 5 C 1.558507 -4.842259 2.970569 0
M  V30 6 C 0.236474 -4.439065 2.859870 0
M  V30 7 C 0.049034 -3.234519 2.063628 0
M  V30 8 N 0.886816 -2.218344 2.306057 0
M  V30 9 C 0.807292 -1.058588 1.631109 0
M  V30 10 N 1.707221 -0.012675 1.915600 0
M  V30 11 C 1.819983 1.269945 1.353123 0
M  V30 12 C 2.772939 2.169884 1.767260 0
M  V30 13 C 2.920001 3.432588 1.246861 0
M  V30 14 C 2.079494 3.863753 0.244744 0
M  V30 15 C 1.097834 3.016273 -0.223231 0
M  V30 16 N 0.228522 3.458028 -1.257389 0
M  V30 17 C 0.341580 3.365490 -2.653272 0
M  V30 18 O 1.385950 2.796365 -3.087536 0
M  V30 19 N -0.753816 3.935688 -3.364174 0
M  V30 20 C -2.029776 4.624165 -3.120765 0
M  V30 21 C -2.982390 3.654788 -3.823957 0
M  V30 22 C -2.197667 3.381964 -5.101641 0
M  V30 23 C -0.796134 3.925458 -4.824763 0
M  V30 24 C 1.018491 1.770876 0.350832 0
M  V30 25 N -0.159406 -0.987046 0.705680 0
M  V30 26 C -1.008621 -1.954903 0.427568 0
M  V30 27 N -2.016256 -2.057077 -0.446412 0
M  V30 28 C -2.572347 -3.297725 -0.314356 0
M  V30 29 C -1.914671 -4.014923 0.662756 0
M  V30 30 C -0.939427 -3.148170 1.110402 0
M  V30 31 C -0.710386 -5.209253 3.503129 0
M  V30 32 C -0.311051 -6.322252 4.212752 0
M  V30 33 H -0.277958 -9.185164 4.967261 0
M  V30 34 H -0.308397 -7.967571 6.353521 0
M  V30 35 H 0.864008 -9.319878 6.366683 0
M  V30 36 H 2.980187 -6.281863 3.775961 0
M  V30 37 H 2.400664 -4.310450 2.503000 0
M  V30 38 H 2.424536 -0.213153 2.679350 0
M  V30 39 H 3.474823 1.883389 2.565846 0
M  V30 40 H 3.698336 4.083045 1.629091 0
M  V30 41 H 2.188496 4.855681 -0.170063 0
M  V30 42 H -0.527638 3.876793 -0.652344 0
M  V30 43 H -2.246899 4.705695 -2.053299 0
M  V30 44 H -2.053974 5.568362 -3.679623 0
M  V30 45 H -3.968151 4.084972 -4.017639 0
M  V30 46 H -3.042785 2.706637 -3.250140 0
M  V30 47 H -2.720054 3.944231 -5.899499 0
M  V30 48 H -2.177857 2.310047 -5.346347 0
M  V30 49 H -0.050059 3.270504 -5.284010 0
M  V30 50 H -0.780658 4.946275 -5.253253 0
M  V30 51 H 0.227618 1.165266 -0.066517 0
M  V30 52 H -2.298245 -1.304366 -1.096354 0
M  V30 53 H -3.402342 -3.638086 -0.901396 0
M  V30 54 H -2.079367 -5.002545 1.022580 0
M  V30 55 H -1.722111 -4.846342 3.382967 0
M  V30 56 H -1.110898 -6.874722 4.689120 0
M  V30 END ATOM
M  V30 BEGIN BOND
M  V30 1 1 1 2
M  V30 2 1 2 3
M  V30 3 2 3 4
M  V30 4 1 4 5
M  V30 5 2 5 6
M  V30 6 1 6 7
M  V30 7 2 7 8
M  V30 8 1 8 9
M  V30 9 1 9 10
M  V30 10 1 10 11
M  V30 11 2 11 12
M  V30 12 1 12 13
M  V30 13 2 13 14
M  V30 14 1 14 15
M  V30 15 1 15 16
M  V30 16 1 16 17
M  V30 17 2 17 18
M  V30 18 1 17 19
M  V30 19 1 19 20
M  V30 20 1 20 21
M  V30 21 1 21 22
M  V30 22 1 22 23
M  V30 23 2 15 24
M  V30 24 2 9 25
M  V30 25 1 25 26
M  V30 26 1 26 27
M  V30 27 1 27 28
M  V30 28 2 28 29
M  V30 29 1 29 30
M  V30 30 1 6 31
M  V30 31 2 31 32
M  V30 32 1 32 3
M  V30 33 1 30 7
M  V30 34 1 24 11
M  V30 35 2 30 26
M  V30 36 1 23 19
M  V30 37 1 1 33
M  V30 38 1 1 34
M  V30 39 1 1 35
M  V30 40 1 4 36
M  V30 41 1 5 37
M  V30 42 1 10 38
M  V30 43 1 12 39
M  V30 44 1 13 40
M  V30 45 1 14 41
M  V30 46 1 16 42
M  V30 47 1 20 43
M  V30 48 1 20 44
M  V30 49 1 21 45
M  V30 50 1 21 46
M  V30 51 1 22 47
M  V30 52 1 22 48
M  V30 53 1 23 49
M  V30 54 1 23 50
M  V30 55 1 24 51
M  V30 56 1 27 52
M  V30 57 1 28 53
M  V30 58 1 29 54
M  V30 59 1 31 55
M  V30 60 1 32 56
M  V30 END BOND
M  V30 END CTAB
M  END
>  <Dataset>  (282) 
ChEMBL_Kinases

>  <Ligand_Instance>  (282) 
nan

>  <PDB_ID>  (282) 
nan

>  <Standardized_SMILES>  (282) 
COc1ccc(-c2nc(Nc3cccc(NC(=O)N4CCCC4)c3)nc3[nH]ccc23)cc1

>  <Name>  (282) 
nan

>  <Pocket>  (282) 
nan

>  <ATP_Site>  (282) 
nan

>  <Peripheral>  (282) 
nan

>  <Num_H_Atoms_ProtBoundConf>  (282) 
nan

>  <Num_Resolved_Atoms>  (282) 
nan

>  <Num_Not_Resolved_Atoms>  (282) 
nan

$$$$
CHEMBL3310296
     RDKit          3D

  0  0  0  0  0  0  0  0  0  0999 V3000
M  V30 BEGIN CTAB
M  V30 COUNTS 49 52 0 0 0
M  V30 BEGIN ATOM
M  V30 1 C 0.945050 1.239387 4.450640 0
M  V30 2 O 1.695938 0.093629 4.119996 0
M  V30 3 C 0.793321 -0.924239 3.939432 0
M  V30 4 C 1.392338 -2.253663 3.575441 0
M  V30 5 O 2.256575 -2.659112 4.590552 0
M  V30 6 C 2.120969 -2.248205 2.274549 0
M  V30 7 C 1.292372 -1.889133 1.118103 0
M  V30 8 C 1.099981 -0.594785 0.632424 0
M  V30 9 C 0.293386 -0.302401 -0.482932 0
M  V30 10 C 0.345329 1.124920 -0.733192 0
M  V30 11 C 1.605845 1.529029 -1.160377 0
M  V30 12 C 1.887092 2.852823 -1.494641 0
M  V30 13 N 0.901017 3.761049 -1.396942 0
M  V30 14 C -0.320827 3.403616 -0.988319 0
M  V30 15 N -1.486900 4.034388 -0.759737 0
M  V30 16 N -2.412066 3.197102 -0.325364 0
M  V30 17 C -1.911550 1.928611 -0.235738 0
M  V30 18 C -2.630589 0.701673 0.184101 0
M  V30 19 F -2.025605 0.014070 1.201266 0
M  V30 20 F -3.082241 -0.074521 -0.844397 0
M  V30 21 F -3.827509 1.200171 0.789495 0
M  V30 22 C -0.616407 2.106202 -0.655880 0
M  V30 23 C -0.295796 -1.403221 -1.063221 0
M  V30 24 C -0.127909 -2.678598 -0.612791 0
M  V30 25 C -0.840708 -3.710581 -1.367269 0
M  V30 26 C -0.071694 -4.952780 -1.610415 0
M  V30 27 N 0.526212 -5.930836 -1.793387 0
M  V30 28 C -2.261182 -3.983110 -0.823871 0
M  V30 29 C -2.026809 -3.442489 -2.180063 0
M  V30 30 C 0.666715 -2.940465 0.482046 0
M  V30 31 H 0.264345 1.420838 3.586257 0
M  V30 32 H 1.648765 2.097724 4.614216 0
M  V30 33 H 0.350496 1.052653 5.365093 0
M  V30 34 H 0.159751 -1.000659 4.845573 0
M  V30 35 H 0.076179 -0.605233 3.132909 0
M  V30 36 H 0.565849 -2.992889 3.580897 0
M  V30 37 H 2.624896 -1.858423 5.068404 0
M  V30 38 H 3.001987 -1.550005 2.348344 0
M  V30 39 H 2.589667 -3.246928 2.148246 0
M  V30 40 H 1.668961 0.114517 1.255074 0
M  V30 41 H 2.473400 0.888211 -1.276390 0
M  V30 42 H 2.857884 3.191063 -1.829386 0
M  V30 43 H -1.663389 5.071609 -0.903256 0
M  V30 44 H -0.883094 -1.045322 -1.924246 0
M  V30 45 H -2.697310 -3.291137 -0.104164 0
M  V30 46 H -2.586079 -5.034470 -0.721414 0
M  V30 47 H -2.316543 -2.406851 -2.426781 0
M  V30 48 H -2.141913 -4.117649 -3.077759 0
M  V30 49 H 0.714701 -3.993031 0.734474 0
M  V30 END ATOM
M  V30 BEGIN BOND
M  V30 1 1 1 2
M  V30 2 1 2 3
M  V30 3 1 3 4
M  V30 4 1 4 5
M  V30 5 1 4 6
M  V30 6 1 6 7
M  V30 7 2 7 8
M  V30 8 1 8 9
M  V30 9 1 9 10
M  V30 10 2 10 11
M  V30 11 1 11 12
M  V30 12 2 12 13
M  V30 13 1 13 14
M  V30 14 1 14 15
M  V30 15 1 15 16
M  V30 16 2 16 17
M  V30 17 1 17 18
M  V30 18 1 18 19
M  V30 19 1 18 20
M  V30 20 1 18 21
M  V30 21 1 17 22
M  V30 22 2 9 23
M  V30 23 1 23 24
M  V30 24 1 24 25
M  V30 25 1 25 26
M  V30 26 3 26 27
M  V30 27 1 25 28
M  V30 28 1 28 29
M  V30 29 2 24 30
M  V30 30 1 30 7
M  V30 31 1 22 10
M  V30 32 1 29 25
M  V30 33 2 22 14
M  V30 34 1 1 31
M  V30 35 1 1 32
M  V30 36 1 1 33
M  V30 37 1 3 34
M  V30 38 1 3 35
M  V30 39 1 4 36
M  V30 40 1 5 37
M  V30 41 1 6 38
M  V30 42 1 6 39
M  V30 43 1 8 40
M  V30 44 1 11 41
M  V30 45 1 12 42
M  V30 46 1 15 43
M  V30 47 1 23 44
M  V30 48 1 28 45
M  V30 49 1 28 46
M  V30 50 1 29 47
M  V30 51 1 29 48
M  V30 52 1 30 49
M  V30 END BOND
M  V30 END CTAB
M  END
>  <Dataset>  (283) 
ChEMBL_Kinases

>  <Ligand_Instance>  (283) 
nan

>  <PDB_ID>  (283) 
nan

>  <Standardized_SMILES>  (283) 
COCC(O)Cc1cc(-c2ccnc3[nH]nc(C(F)(F)F)c23)cc(C2(C#N)CC2)c1

>  <Name>  (283) 
nan

>  <Pocket>  (283) 
nan

>  <ATP_Site>  (283) 
nan

>  <Peripheral>  (283) 
nan

>  <Num_H_Atoms_ProtBoundConf>  (283) 
nan

>  <Num_Resolved_Atoms>  (283) 
nan

>  <Num_Not_Resolved_Atoms>  (283) 
nan

$$$$
CHEMBL3318032
     RDKit          3D

  0  0  0  0  0  0  0  0  0  0999 V3000
M  V30 BEGIN CTAB
M  V30 COUNTS 44 46 0 0 0
M  V30 BEGIN ATOM
M  V30 1 C 0.034880 -7.493085 3.425260 0
M  V30 2 N 0.747637 -6.420895 2.750202 0
M  V30 3 C 0.154788 -5.407240 2.082575 0
M  V30 4 C 1.116077 -4.556838 1.555341 0
M  V30 5 C 0.801259 -3.347928 0.770177 0
M  V30 6 C 1.644188 -2.245101 0.815770 0
M  V30 7 N 1.369668 -1.128060 0.100505 0
M  V30 8 C 0.253560 -1.146718 -0.643947 0
M  V30 9 C -0.024601 0.009576 -1.380626 0
M  V30 10 N 0.804285 1.183123 -1.377314 0
M  V30 11 C 0.466804 2.131767 -0.381566 0
M  V30 12 O -0.522604 1.777128 0.345833 0
M  V30 13 N 1.091405 3.377267 -0.127213 0
M  V30 14 C 0.608365 4.238915 0.950250 0
M  V30 15 C -0.824255 4.651550 0.767920 0
M  V30 16 C 0.841132 3.607415 2.301842 0
M  V30 17 C 1.510409 5.478940 0.911388 0
M  V30 18 C -1.177536 -0.037800 -2.135934 0
M  V30 19 C -2.043871 -1.107656 -2.212297 0
M  V30 20 N -1.732996 -2.198376 -1.484797 0
M  V30 21 C -0.621066 -2.210946 -0.728898 0
M  V30 22 C -0.350974 -3.364435 0.000600 0
M  V30 23 C 2.334364 -5.117362 1.944356 0
M  V30 24 N 2.050744 -6.223079 2.651804 0
M  V30 25 H 0.035178 -7.343067 4.523549 0
M  V30 26 H -0.988706 -7.572848 2.998829 0
M  V30 27 H 0.510490 -8.486575 3.253998 0
M  V30 28 H -0.906659 -5.273847 1.972976 0
M  V30 29 H 2.545092 -2.277416 1.438863 0
M  V30 30 H 1.623267 1.451326 -1.997174 0
M  V30 31 H 1.891462 3.535202 -0.804693 0
M  V30 32 H -1.342851 4.096025 -0.043909 0
M  V30 33 H -1.425346 4.465594 1.680977 0
M  V30 34 H -0.913440 5.729919 0.452635 0
M  V30 35 H 0.278787 4.170272 3.054332 0
M  V30 36 H 0.509590 2.552096 2.295425 0
M  V30 37 H 1.921835 3.687326 2.550694 0
M  V30 38 H 1.317695 5.944724 -0.093227 0
M  V30 39 H 1.296765 6.146470 1.743460 0
M  V30 40 H 2.547330 5.087368 0.862766 0
M  V30 41 H -1.406407 0.865412 -2.718670 0
M  V30 42 H -2.922493 -0.995772 -2.858779 0
M  V30 43 H -0.980858 -4.232607 -0.012539 0
M  V30 44 H 3.275493 -4.670584 1.676840 0
M  V30 END ATOM
M  V30 BEGIN BOND
M  V30 1 1 1 2
M  V30 2 1 2 3
M  V30 3 2 3 4
M  V30 4 1 4 5
M  V30 5 2 5 6
M  V30 6 1 6 7
M  V30 7 2 7 8
M  V30 8 1 8 9
M  V30 9 1 9 10
M  V30 10 1 10 11
M  V30 11 2 11 12
M  V30 12 1 11 13
M  V30 13 1 13 14
M  V30 14 1 14 15
M  V30 15 1 14 16
M  V30 16 1 14 17
M  V30 17 2 9 18
M  V30 18 1 18 19
M  V30 19 2 19 20
M  V30 20 1 20 21
M  V30 21 2 21 22
M  V30 22 1 4 23
M  V30 23 2 23 24
M  V30 24 1 24 2
M  V30 25 1 22 5
M  V30 26 1 21 8
M  V30 27 1 1 25
M  V30 28 1 1 26
M  V30 29 1 1 27
M  V30 30 1 3 28
M  V30 31 1 6 29
M  V30 32 1 10 30
M  V30 33 1 13 31
M  V30 34 1 15 32
M  V30 35 1 15 33
M  V30 36 1 15 34
M  V30 37 1 16 35
M  V30 38 1 16 36
M  V30 39 1 16 37
M  V30 40 1 17 38
M  V30 41 1 17 39
M  V30 42 1 17 40
M  V30 43 1 18 41
M  V30 44 1 19 42
M  V30 45 1 22 43
M  V30 46 1 23 44
M  V30 END BOND
M  V30 END CTAB
M  END
>  <Dataset>  (284) 
ChEMBL_Kinases

>  <Ligand_Instance>  (284) 
nan

>  <PDB_ID>  (284) 
nan

>  <Standardized_SMILES>  (284) 
Cn1cc(-c2cnc3c(NC(=O)NC(C)(C)C)ccnc3c2)cn1

>  <Name>  (284) 
nan

>  <Pocket>  (284) 
nan

>  <ATP_Site>  (284) 
nan

>  <Peripheral>  (284) 
nan

>  <Num_H_Atoms_ProtBoundConf>  (284) 
nan

>  <Num_Resolved_Atoms>  (284) 
nan

>  <Num_Not_Resolved_Atoms>  (284) 
nan

$$$$
CHEMBL3310279
     RDKit          3D

  0  0  0  0  0  0  0  0  0  0999 V3000
M  V30 BEGIN CTAB
M  V30 COUNTS 41 44 0 0 0
M  V30 BEGIN ATOM
M  V30 1 N -1.264059 -5.355306 -0.316205 0
M  V30 2 C -0.446159 -4.644156 0.098474 0
M  V30 3 C 0.600291 -3.745470 0.602015 0
M  V30 4 C 0.382889 -2.312182 0.377255 0
M  V30 5 C -0.346782 -2.000319 -0.771751 0
M  V30 6 C -0.637753 -0.703210 -1.126453 0
M  V30 7 C -1.398097 -0.290914 -2.318141 0
M  V30 8 C -0.514271 -0.058105 -3.524860 0
M  V30 9 F 0.394359 0.933328 -3.241685 0
M  V30 10 C -0.189921 0.308333 -0.315043 0
M  V30 11 C 0.535108 0.118266 0.838513 0
M  V30 12 C 1.106269 0.944537 1.879512 0
M  V30 13 C 2.496331 0.938818 1.790877 0
M  V30 14 C 3.299024 1.675186 2.659411 0
M  V30 15 N 2.693847 2.411608 3.611810 0
M  V30 16 C 1.355016 2.446952 3.736045 0
M  V30 17 N 0.431842 3.009544 4.536633 0
M  V30 18 N -0.792532 2.673419 4.216979 0
M  V30 19 C -0.766799 1.831412 3.138015 0
M  V30 20 C -1.948593 1.260984 2.449601 0
M  V30 21 F -3.064437 1.603255 3.243771 0
M  V30 22 F -1.949942 -0.095137 2.328122 0
M  V30 23 F -2.231056 1.947030 1.274694 0
M  V30 24 C 0.578516 1.713227 2.867582 0
M  V30 25 C 0.798928 -1.228495 1.144361 0
M  V30 26 C 1.391155 -4.192050 1.795366 0
M  V30 27 C 2.003915 -4.309187 0.421955 0
M  V30 28 H -0.723411 -2.767351 -1.446714 0
M  V30 29 H -1.945721 0.634967 -2.114074 0
M  V30 30 H -2.134783 -1.089561 -2.570549 0
M  V30 31 H -1.178828 0.334752 -4.327137 0
M  V30 32 H -0.035573 -0.993865 -3.886139 0
M  V30 33 H -0.316842 1.391138 -0.449565 0
M  V30 34 H 3.114223 0.389155 1.071206 0
M  V30 35 H 4.376165 1.702542 2.629340 0
M  V30 36 H 0.689225 3.656617 5.339592 0
M  V30 37 H 1.359254 -1.610419 2.014137 0
M  V30 38 H 1.823663 -3.496146 2.519767 0
M  V30 39 H 1.096199 -5.173102 2.271521 0
M  V30 40 H 2.118191 -5.332601 0.011823 0
M  V30 41 H 2.793986 -3.623542 0.095019 0
M  V30 END ATOM
M  V30 BEGIN BOND
M  V30 1 3 1 2
M  V30 2 1 2 3
M  V30 3 1 3 4
M  V30 4 2 4 5
M  V30 5 1 5 6
M  V30 6 1 6 7
M  V30 7 1 7 8
M  V30 8 1 8 9
M  V30 9 2 6 10
M  V30 10 1 10 11
M  V30 11 1 11 12
M  V30 12 2 12 13
M  V30 13 1 13 14
M  V30 14 2 14 15
M  V30 15 1 15 16
M  V30 16 1 16 17
M  V30 17 1 17 18
M  V30 18 2 18 19
M  V30 19 1 19 20
M  V30 20 1 20 21
M  V30 21 1 20 22
M  V30 22 1 20 23
M  V30 23 1 19 24
M  V30 24 2 11 25
M  V30 25 1 3 26
M  V30 26 1 26 27
M  V30 27 1 27 3
M  V30 28 1 25 4
M  V30 29 1 24 12
M  V30 30 2 24 16
M  V30 31 1 5 28
M  V30 32 1 7 29
M  V30 33 1 7 30
M  V30 34 1 8 31
M  V30 35 1 8 32
M  V30 36 1 10 33
M  V30 37 1 13 34
M  V30 38 1 14 35
M  V30 39 1 17 36
M  V30 40 1 25 37
M  V30 41 1 26 38
M  V30 42 1 26 39
M  V30 43 1 27 40
M  V30 44 1 27 41
M  V30 END BOND
M  V30 END CTAB
M  END
>  <Dataset>  (285) 
ChEMBL_Kinases

>  <Ligand_Instance>  (285) 
nan

>  <PDB_ID>  (285) 
nan

>  <Standardized_SMILES>  (285) 
N#CC1(c2cc(CCF)cc(-c3ccnc4[nH]nc(C(F)(F)F)c34)c2)CC1

>  <Name>  (285) 
nan

>  <Pocket>  (285) 
nan

>  <ATP_Site>  (285) 
nan

>  <Peripheral>  (285) 
nan

>  <Num_H_Atoms_ProtBoundConf>  (285) 
nan

>  <Num_Resolved_Atoms>  (285) 
nan

>  <Num_Not_Resolved_Atoms>  (285) 
nan

$$$$
CHEMBL3310280
     RDKit          3D

  0  0  0  0  0  0  0  0  0  0999 V3000
M  V30 BEGIN CTAB
M  V30 COUNTS 41 44 0 0 0
M  V30 BEGIN ATOM
M  V30 1 N -0.521037 -2.502669 4.888483 0
M  V30 2 C 0.384287 -2.046798 4.332960 0
M  V30 3 C 1.537400 -1.467552 3.613511 0
M  V30 4 C 1.264941 -1.187213 2.200883 0
M  V30 5 C 2.024337 -1.855482 1.265939 0
M  V30 6 C 1.806588 -1.624608 -0.074492 0
M  V30 7 C 2.562213 -2.284421 -1.171476 0
M  V30 8 C 3.759691 -1.360794 -1.438242 0
M  V30 9 F 3.331094 -0.111258 -1.811801 0
M  V30 10 F 4.501285 -1.241889 -0.295217 0
M  V30 11 C 0.845263 -0.739878 -0.482827 0
M  V30 12 C 0.044314 -0.033057 0.384851 0
M  V30 13 C -1.038538 0.922948 0.271237 0
M  V30 14 C -0.649963 2.178618 0.762574 0
M  V30 15 C -1.495159 3.283754 0.735399 0
M  V30 16 N -2.723189 3.121175 0.216530 0
M  V30 17 C -3.144591 1.939011 -0.266273 0
M  V30 18 N -4.264162 1.429347 -0.810916 0
M  V30 19 N -4.130741 0.156693 -1.089010 0
M  V30 20 C -2.884682 -0.299052 -0.746908 0
M  V30 21 C -2.343766 -1.662709 -0.918715 0
M  V30 22 F -1.858621 -2.216198 0.261382 0
M  V30 23 F -3.507964 -2.460857 -1.148964 0
M  V30 24 F -1.590860 -1.876164 -2.019268 0
M  V30 25 C -2.311135 0.844443 -0.241378 0
M  V30 26 C 0.294541 -0.293468 1.745530 0
M  V30 27 C 2.515426 -0.689722 4.411496 0
M  V30 28 C 2.915473 -2.019774 3.953526 0
M  V30 29 H 2.810817 -2.576024 1.443868 0
M  V30 30 H 2.926282 -3.266926 -0.804673 0
M  V30 31 H 1.940902 -2.393115 -2.070069 0
M  V30 32 H 4.341497 -1.767155 -2.304778 0
M  V30 33 H 0.569033 -0.447003 -1.506066 0
M  V30 34 H 0.326762 2.425538 1.207751 0
M  V30 35 H -1.230740 4.247862 1.098997 0
M  V30 36 H -5.142608 2.002003 -0.988068 0
M  V30 37 H -0.227909 0.161159 2.604989 0
M  V30 38 H 3.033335 0.199274 4.017849 0
M  V30 39 H 2.293982 -0.610043 5.502674 0
M  V30 40 H 3.702621 -2.068460 3.202725 0
M  V30 41 H 2.886415 -2.905586 4.621070 0
M  V30 END ATOM
M  V30 BEGIN BOND
M  V30 1 3 1 2
M  V30 2 1 2 3
M  V30 3 1 3 4
M  V30 4 2 4 5
M  V30 5 1 5 6
M  V30 6 1 6 7
M  V30 7 1 7 8
M  V30 8 1 8 9
M  V30 9 1 8 10
M  V30 10 2 6 11
M  V30 11 1 11 12
M  V30 12 1 12 13
M  V30 13 2 13 14
M  V30 14 1 14 15
M  V30 15 2 15 16
M  V30 16 1 16 17
M  V30 17 1 17 18
M  V30 18 1 18 19
M  V30 19 2 19 20
M  V30 20 1 20 21
M  V30 21 1 21 22
M  V30 22 1 21 23
M  V30 23 1 21 24
M  V30 24 1 20 25
M  V30 25 2 12 26
M  V30 26 1 3 27
M  V30 27 1 27 28
M  V30 28 1 28 3
M  V30 29 1 26 4
M  V30 30 1 25 13
M  V30 31 2 25 17
M  V30 32 1 5 29
M  V30 33 1 7 30
M  V30 34 1 7 31
M  V30 35 1 8 32
M  V30 36 1 11 33
M  V30 37 1 14 34
M  V30 38 1 15 35
M  V30 39 1 18 36
M  V30 40 1 26 37
M  V30 41 1 27 38
M  V30 42 1 27 39
M  V30 43 1 28 40
M  V30 44 1 28 41
M  V30 END BOND
M  V30 END CTAB
M  END
>  <Dataset>  (286) 
ChEMBL_Kinases

>  <Ligand_Instance>  (286) 
nan

>  <PDB_ID>  (286) 
nan

>  <Standardized_SMILES>  (286) 
N#CC1(c2cc(CC(F)F)cc(-c3ccnc4[nH]nc(C(F)(F)F)c34)c2)CC1

>  <Name>  (286) 
nan

>  <Pocket>  (286) 
nan

>  <ATP_Site>  (286) 
nan

>  <Peripheral>  (286) 
nan

>  <Num_H_Atoms_ProtBoundConf>  (286) 
nan

>  <Num_Resolved_Atoms>  (286) 
nan

>  <Num_Not_Resolved_Atoms>  (286) 
nan

$$$$
CHEMBL3310281
     RDKit          3D

  0  0  0  0  0  0  0  0  0  0999 V3000
M  V30 BEGIN CTAB
M  V30 COUNTS 45 48 0 0 0
M  V30 BEGIN ATOM
M  V30 1 C -2.485006 -2.376468 4.126992 0
M  V30 2 O -1.218223 -2.514321 3.563139 0
M  V30 3 C -0.264633 -1.748067 4.226966 0
M  V30 4 C 1.077399 -1.966262 3.539348 0
M  V30 5 C 0.995044 -1.554009 2.133889 0
M  V30 6 C 1.276524 -0.263511 1.665553 0
M  V30 7 C 1.187686 0.104519 0.305341 0
M  V30 8 C 1.589667 1.481300 0.168603 0
M  V30 9 C 2.975504 1.597654 0.369763 0
M  V30 10 C 3.613336 2.838483 0.246737 0
M  V30 11 N 2.912420 3.943825 -0.065825 0
M  V30 12 C 1.585336 3.864218 -0.262895 0
M  V30 13 N 0.555196 4.691302 -0.554263 0
M  V30 14 N -0.599854 4.051401 -0.608797 0
M  V30 15 C -0.408517 2.720865 -0.351053 0
M  V30 16 C -1.489799 1.744207 -0.343931 0
M  V30 17 F -2.739021 2.364726 -0.558629 0
M  V30 18 F -1.533324 0.821779 0.624182 0
M  V30 19 F -1.382566 1.032496 -1.559172 0
M  V30 20 C 0.948389 2.652343 -0.145377 0
M  V30 21 C 0.800660 -0.897765 -0.557052 0
M  V30 22 C 0.519060 -2.168009 -0.127732 0
M  V30 23 C 0.110713 -3.178354 -1.128649 0
M  V30 24 C 0.356707 -4.577394 -0.696515 0
M  V30 25 N 0.544647 -5.668238 -0.359090 0
M  V30 26 C -0.005044 -2.885203 -2.568058 0
M  V30 27 C -1.266070 -2.957074 -1.802926 0
M  V30 28 C 0.613667 -2.498495 1.203902 0
M  V30 29 H -2.749637 -1.307467 4.052080 0
M  V30 30 H -2.483346 -2.723947 5.182098 0
M  V30 31 H -3.173902 -3.012444 3.535846 0
M  V30 32 H -0.543041 -0.694443 4.277564 0
M  V30 33 H -0.251882 -2.125477 5.268429 0
M  V30 34 H 1.898120 -1.465989 4.093650 0
M  V30 35 H 1.295077 -3.049782 3.586767 0
M  V30 36 H 1.566244 0.382026 2.512021 0
M  V30 37 H 3.681770 0.793339 0.629134 0
M  V30 38 H 4.677384 2.963713 0.394199 0
M  V30 39 H 0.692234 5.734198 -0.715705 0
M  V30 40 H 0.774497 -0.512492 -1.564983 0
M  V30 41 H 0.195094 -3.773902 -3.233681 0
M  V30 42 H 0.288539 -1.900858 -2.939644 0
M  V30 43 H -1.928730 -3.832805 -1.824981 0
M  V30 44 H -1.766083 -1.995397 -1.537446 0
M  V30 45 H 0.386596 -3.507226 1.520346 0
M  V30 END ATOM
M  V30 BEGIN BOND
M  V30 1 1 1 2
M  V30 2 1 2 3
M  V30 3 1 3 4
M  V30 4 1 4 5
M  V30 5 2 5 6
M  V30 6 1 6 7
M  V30 7 1 7 8
M  V30 8 2 8 9
M  V30 9 1 9 10
M  V30 10 2 10 11
M  V30 11 1 11 12
M  V30 12 1 12 13
M  V30 13 1 13 14
M  V30 14 2 14 15
M  V30 15 1 15 16
M  V30 16 1 16 17
M  V30 17 1 16 18
M  V30 18 1 16 19
M  V30 19 1 15 20
M  V30 20 2 7 21
M  V30 21 1 21 22
M  V30 22 1 22 23
M  V30 23 1 23 24
M  V30 24 3 24 25
M  V30 25 1 23 26
M  V30 26 1 26 27
M  V30 27 2 22 28
M  V30 28 1 28 5
M  V30 29 1 20 8
M  V30 30 1 27 23
M  V30 31 2 20 12
M  V30 32 1 1 29
M  V30 33 1 1 30
M  V30 34 1 1 31
M  V30 35 1 3 32
M  V30 36 1 3 33
M  V30 37 1 4 34
M  V30 38 1 4 35
M  V30 39 1 6 36
M  V30 40 1 9 37
M  V30 41 1 10 38
M  V30 42 1 13 39
M  V30 43 1 21 40
M  V30 44 1 26 41
M  V30 45 1 26 42
M  V30 46 1 27 43
M  V30 47 1 27 44
M  V30 48 1 28 45
M  V30 END BOND
M  V30 END CTAB
M  END
>  <Dataset>  (287) 
ChEMBL_Kinases

>  <Ligand_Instance>  (287) 
nan

>  <PDB_ID>  (287) 
nan

>  <Standardized_SMILES>  (287) 
COCCc1cc(-c2ccnc3[nH]nc(C(F)(F)F)c23)cc(C2(C#N)CC2)c1

>  <Name>  (287) 
nan

>  <Pocket>  (287) 
nan

>  <ATP_Site>  (287) 
nan

>  <Peripheral>  (287) 
nan

>  <Num_H_Atoms_ProtBoundConf>  (287) 
nan

>  <Num_Resolved_Atoms>  (287) 
nan

>  <Num_Not_Resolved_Atoms>  (287) 
nan

$$$$
CHEMBL3310282
     RDKit          3D

  0  0  0  0  0  0  0  0  0  0999 V3000
M  V30 BEGIN CTAB
M  V30 COUNTS 47 50 0 0 0
M  V30 BEGIN ATOM
M  V30 1 C 2.316430 -5.035377 -1.405596 0
M  V30 2 C 2.797040 -4.200641 -0.256056 0
M  V30 3 O 2.855832 -4.716868 0.884317 0
M  V30 4 O 3.169875 -2.883276 -0.447273 0
M  V30 5 C 3.632567 -2.024384 0.570077 0
M  V30 6 C 2.656904 -1.799292 1.682684 0
M  V30 7 C 1.377381 -1.195104 1.265590 0
M  V30 8 C 1.143550 0.185224 1.208065 0
M  V30 9 C -0.088088 0.738677 0.808647 0
M  V30 10 C 0.023690 2.186022 0.827802 0
M  V30 11 C 0.923612 2.655677 -0.140496 0
M  V30 12 C 1.171038 4.014646 -0.335348 0
M  V30 13 N 0.508587 4.883277 0.448817 0
M  V30 14 C -0.362042 4.477995 1.390101 0
M  V30 15 N -1.136995 5.066929 2.319066 0
M  V30 16 N -1.791680 4.170191 3.013017 0
M  V30 17 C -1.501215 2.905110 2.595487 0
M  V30 18 C -2.055931 1.630146 3.118059 0
M  V30 19 F -1.097168 0.731190 3.517663 0
M  V30 20 F -3.102449 1.126441 2.412727 0
M  V30 21 F -2.655999 2.002861 4.361739 0
M  V30 22 C -0.604231 3.151575 1.580208 0
M  V30 23 C -1.056544 -0.183803 0.474249 0
M  V30 24 C -0.838841 -1.529070 0.527272 0
M  V30 25 C -2.002959 -2.344730 0.130359 0
M  V30 26 C -1.690275 -3.478032 -0.758265 0
M  V30 27 N -1.442592 -4.383373 -1.445225 0
M  V30 28 C -2.909189 -2.683519 1.334932 0
M  V30 29 C -3.371313 -1.835718 0.172556 0
M  V30 30 C 0.371025 -2.049531 0.920451 0
M  V30 31 H 2.931959 -5.930740 -1.548516 0
M  V30 32 H 2.312640 -4.387642 -2.326271 0
M  V30 33 H 1.250007 -5.301745 -1.146915 0
M  V30 34 H 3.889873 -1.060613 0.063983 0
M  V30 35 H 4.531864 -2.513817 0.994271 0
M  V30 36 H 2.455942 -2.740475 2.214675 0
M  V30 37 H 3.129459 -1.067811 2.381665 0
M  V30 38 H 2.051656 0.732748 1.516334 0
M  V30 39 H 1.500668 2.016751 -0.815946 0
M  V30 40 H 1.860489 4.373829 -1.077940 0
M  V30 41 H -1.206927 6.117503 2.467885 0
M  V30 42 H -1.948848 0.364639 0.172664 0
M  V30 43 H -2.795294 -2.114728 2.263833 0
M  V30 44 H -3.246119 -3.735603 1.413707 0
M  V30 45 H -3.631846 -0.776155 0.342289 0
M  V30 46 H -4.113293 -2.373531 -0.478455 0
M  V30 47 H 0.377836 -3.130123 0.908707 0
M  V30 END ATOM
M  V30 BEGIN BOND
M  V30 1 1 1 2
M  V30 2 2 2 3
M  V30 3 1 2 4
M  V30 4 1 4 5
M  V30 5 1 5 6
M  V30 6 1 6 7
M  V30 7 2 7 8
M  V30 8 1 8 9
M  V30 9 1 9 10
M  V30 10 2 10 11
M  V30 11 1 11 12
M  V30 12 2 12 13
M  V30 13 1 13 14
M  V30 14 1 14 15
M  V30 15 1 15 16
M  V30 16 2 16 17
M  V30 17 1 17 18
M  V30 18 1 18 19
M  V30 19 1 18 20
M  V30 20 1 18 21
M  V30 21 1 17 22
M  V30 22 2 9 23
M  V30 23 1 23 24
M  V30 24 1 24 25
M  V30 25 1 25 26
M  V30 26 3 26 27
M  V30 27 1 25 28
M  V30 28 1 28 29
M  V30 29 2 24 30
M  V30 30 1 30 7
M  V30 31 1 22 10
M  V30 32 1 29 25
M  V30 33 2 22 14
M  V30 34 1 1 31
M  V30 35 1 1 32
M  V30 36 1 1 33
M  V30 37 1 5 34
M  V30 38 1 5 35
M  V30 39 1 6 36
M  V30 40 1 6 37
M  V30 41 1 8 38
M  V30 42 1 11 39
M  V30 43 1 12 40
M  V30 44 1 15 41
M  V30 45 1 23 42
M  V30 46 1 28 43
M  V30 47 1 28 44
M  V30 48 1 29 45
M  V30 49 1 29 46
M  V30 50 1 30 47
M  V30 END BOND
M  V30 END CTAB
M  END
>  <Dataset>  (288) 
ChEMBL_Kinases

>  <Ligand_Instance>  (288) 
nan

>  <PDB_ID>  (288) 
nan

>  <Standardized_SMILES>  (288) 
CC(=O)OCCc1cc(-c2ccnc3[nH]nc(C(F)(F)F)c23)cc(C2(C#N)CC2)c1

>  <Name>  (288) 
nan

>  <Pocket>  (288) 
nan

>  <ATP_Site>  (288) 
nan

>  <Peripheral>  (288) 
nan

>  <Num_H_Atoms_ProtBoundConf>  (288) 
nan

>  <Num_Resolved_Atoms>  (288) 
nan

>  <Num_Not_Resolved_Atoms>  (288) 
nan

$$$$
CHEMBL3310283
     RDKit          3D

  0  0  0  0  0  0  0  0  0  0999 V3000
M  V30 BEGIN CTAB
M  V30 COUNTS 43 46 0 0 0
M  V30 BEGIN ATOM
M  V30 1 N 1.716292 -4.454683 3.517923 0
M  V30 2 C 1.418668 -4.189547 2.431676 0
M  V30 3 C 1.025899 -3.836863 1.066592 0
M  V30 4 C 1.203789 -2.378145 0.744035 0
M  V30 5 C 1.862315 -1.853376 -0.339274 0
M  V30 6 C 1.914402 -0.480944 -0.454983 0
M  V30 7 C 2.640553 0.027393 -1.646142 0
M  V30 8 C 1.708244 0.196819 -2.830844 0
M  V30 9 N 0.643513 1.136158 -2.537652 0
M  V30 10 C 1.308077 0.318378 0.512799 0
M  V30 11 C 0.629992 -0.211120 1.627066 0
M  V30 12 C 0.158318 0.898016 2.437000 0
M  V30 13 C 1.233983 1.554510 3.058017 0
M  V30 14 C 1.015055 2.637727 3.909620 0
M  V30 15 N -0.240071 3.049756 4.130937 0
M  V30 16 C -1.261631 2.432797 3.545056 0
M  V30 17 N -2.605511 2.616946 3.538463 0
M  V30 18 N -3.183404 1.741695 2.764026 0
M  V30 19 C -2.255448 0.905797 2.196947 0
M  V30 20 C -2.515902 -0.224265 1.298586 0
M  V30 21 F -3.892545 -0.165097 0.999253 0
M  V30 22 F -2.445431 -1.438342 2.006279 0
M  V30 23 F -1.845684 -0.233633 0.125638 0
M  V30 24 C -1.083145 1.372360 2.709365 0
M  V30 25 C 0.620572 -1.586577 1.674951 0
M  V30 26 C -0.219577 -4.425448 0.470412 0
M  V30 27 C 1.136755 -4.845325 -0.005578 0
M  V30 28 H 2.280787 -2.593423 -1.003458 0
M  V30 29 H 3.547801 -0.514592 -1.899444 0
M  V30 30 H 2.938399 1.081522 -1.370866 0
M  V30 31 H 1.293065 -0.776368 -3.154798 0
M  V30 32 H 2.311905 0.622234 -3.658188 0
M  V30 33 H 0.141469 1.357286 -3.426205 0
M  V30 34 H 0.960508 1.962498 -2.025200 0
M  V30 35 H 1.456894 1.378454 0.247398 0
M  V30 36 H 2.294188 1.303580 2.948379 0
M  V30 37 H 1.821411 3.162980 4.402473 0
M  V30 38 H -3.145484 3.350659 4.069161 0
M  V30 39 H 0.079278 -1.869915 2.590322 0
M  V30 40 H -0.809485 -3.831169 -0.254621 0
M  V30 41 H -0.780976 -5.087742 1.173256 0
M  V30 42 H 1.474070 -4.616966 -1.026595 0
M  V30 43 H 1.423058 -5.873407 0.327008 0
M  V30 END ATOM
M  V30 BEGIN BOND
M  V30 1 3 1 2
M  V30 2 1 2 3
M  V30 3 1 3 4
M  V30 4 2 4 5
M  V30 5 1 5 6
M  V30 6 1 6 7
M  V30 7 1 7 8
M  V30 8 1 8 9
M  V30 9 2 6 10
M  V30 10 1 10 11
M  V30 11 1 11 12
M  V30 12 2 12 13
M  V30 13 1 13 14
M  V30 14 2 14 15
M  V30 15 1 15 16
M  V30 16 1 16 17
M  V30 17 1 17 18
M  V30 18 2 18 19
M  V30 19 1 19 20
M  V30 20 1 20 21
M  V30 21 1 20 22
M  V30 22 1 20 23
M  V30 23 1 19 24
M  V30 24 2 11 25
M  V30 25 1 3 26
M  V30 26 1 26 27
M  V30 27 1 27 3
M  V30 28 1 25 4
M  V30 29 1 24 12
M  V30 30 2 24 16
M  V30 31 1 5 28
M  V30 32 1 7 29
M  V30 33 1 7 30
M  V30 34 1 8 31
M  V30 35 1 8 32
M  V30 36 1 9 33
M  V30 37 1 9 34
M  V30 38 1 10 35
M  V30 39 1 13 36
M  V30 40 1 14 37
M  V30 41 1 17 38
M  V30 42 1 25 39
M  V30 43 1 26 40
M  V30 44 1 26 41
M  V30 45 1 27 42
M  V30 46 1 27 43
M  V30 END BOND
M  V30 END CTAB
M  END
>  <Dataset>  (289) 
ChEMBL_Kinases

>  <Ligand_Instance>  (289) 
nan

>  <PDB_ID>  (289) 
nan

>  <Standardized_SMILES>  (289) 
N#CC1(c2cc(CCN)cc(-c3ccnc4[nH]nc(C(F)(F)F)c34)c2)CC1

>  <Name>  (289) 
nan

>  <Pocket>  (289) 
nan

>  <ATP_Site>  (289) 
nan

>  <Peripheral>  (289) 
nan

>  <Num_H_Atoms_ProtBoundConf>  (289) 
nan

>  <Num_Resolved_Atoms>  (289) 
nan

>  <Num_Not_Resolved_Atoms>  (289) 
nan

$$$$
CHEMBL3310284
     RDKit          3D

  0  0  0  0  0  0  0  0  0  0999 V3000
M  V30 BEGIN CTAB
M  V30 COUNTS 48 51 0 0 0
M  V30 BEGIN ATOM
M  V30 1 C 1.105938 -5.358628 -1.552107 0
M  V30 2 C 1.771878 -4.690732 -0.402353 0
M  V30 3 O 1.776071 -5.291354 0.693225 0
M  V30 4 N 2.383332 -3.416488 -0.536062 0
M  V30 5 C 3.042613 -2.719212 0.538292 0
M  V30 6 C 2.154200 -2.407616 1.709662 0
M  V30 7 C 1.035065 -1.543567 1.258341 0
M  V30 8 C 1.121589 -0.145180 1.245281 0
M  V30 9 C 0.083266 0.710381 0.829060 0
M  V30 10 C 0.520177 2.093389 0.906347 0
M  V30 11 C 1.546062 2.344695 -0.018027 0
M  V30 12 C 2.102998 3.621686 -0.148721 0
M  V30 13 N 1.642057 4.627002 0.631340 0
M  V30 14 C 0.660465 4.400021 1.521825 0
M  V30 15 N -0.001989 5.130623 2.447073 0
M  V30 16 N -0.873465 4.394585 3.083776 0
M  V30 17 C -0.863418 3.104112 2.630868 0
M  V30 18 C -1.722928 1.985941 3.092080 0
M  V30 19 F -1.026378 0.875360 3.494920 0
M  V30 20 F -2.834804 1.763010 2.335710 0
M  V30 21 F -2.277339 2.453383 4.325985 0
M  V30 22 C 0.107475 3.165112 1.661508 0
M  V30 23 C -1.070231 0.076653 0.417328 0
M  V30 24 C -1.190222 -1.292004 0.417263 0
M  V30 25 C -2.466273 -1.837035 -0.042579 0
M  V30 26 C -2.408455 -3.226753 -0.494386 0
M  V30 27 N -2.372109 -4.337398 -0.854490 0
M  V30 28 C -3.583859 -1.009310 -0.488206 0
M  V30 29 C -3.640062 -1.568955 0.893367 0
M  V30 30 C -0.152381 -2.093509 0.832036 0
M  V30 31 H 1.845800 -5.798195 -2.252288 0
M  V30 32 H 0.387681 -6.125237 -1.213514 0
M  V30 33 H 0.504518 -4.643105 -2.159867 0
M  V30 34 H 2.322713 -3.000489 -1.499495 0
M  V30 35 H 3.404911 -1.731413 0.160983 0
M  V30 36 H 3.983611 -3.243525 0.854741 0
M  V30 37 H 1.695332 -3.377176 2.025971 0
M  V30 38 H 2.730355 -1.940136 2.528265 0
M  V30 39 H 2.111226 0.188451 1.604744 0
M  V30 40 H 1.993716 1.625535 -0.691077 0
M  V30 41 H 2.893410 3.843599 -0.852391 0
M  V30 42 H 0.161981 6.161094 2.632366 0
M  V30 43 H -1.793221 0.819231 0.108667 0
M  V30 44 H -3.575733 0.082591 -0.558992 0
M  V30 45 H -4.288247 -1.458959 -1.241328 0
M  V30 46 H -4.370977 -2.354030 1.081856 0
M  V30 47 H -3.489414 -0.879983 1.739999 0
M  V30 48 H -0.342914 -3.143676 0.797730 0
M  V30 END ATOM
M  V30 BEGIN BOND
M  V30 1 1 1 2
M  V30 2 2 2 3
M  V30 3 1 2 4
M  V30 4 1 4 5
M  V30 5 1 5 6
M  V30 6 1 6 7
M  V30 7 2 7 8
M  V30 8 1 8 9
M  V30 9 1 9 10
M  V30 10 2 10 11
M  V30 11 1 11 12
M  V30 12 2 12 13
M  V30 13 1 13 14
M  V30 14 1 14 15
M  V30 15 1 15 16
M  V30 16 2 16 17
M  V30 17 1 17 18
M  V30 18 1 18 19
M  V30 19 1 18 20
M  V30 20 1 18 21
M  V30 21 1 17 22
M  V30 22 2 9 23
M  V30 23 1 23 24
M  V30 24 1 24 25
M  V30 25 1 25 26
M  V30 26 3 26 27
M  V30 27 1 25 28
M  V30 28 1 28 29
M  V30 29 2 24 30
M  V30 30 1 30 7
M  V30 31 1 22 10
M  V30 32 1 29 25
M  V30 33 2 22 14
M  V30 34 1 1 31
M  V30 35 1 1 32
M  V30 36 1 1 33
M  V30 37 1 4 34
M  V30 38 1 5 35
M  V30 39 1 5 36
M  V30 40 1 6 37
M  V30 41 1 6 38
M  V30 42 1 8 39
M  V30 43 1 11 40
M  V30 44 1 12 41
M  V30 45 1 15 42
M  V30 46 1 23 43
M  V30 47 1 28 44
M  V30 48 1 28 45
M  V30 49 1 29 46
M  V30 50 1 29 47
M  V30 51 1 30 48
M  V30 END BOND
M  V30 END CTAB
M  END
>  <Dataset>  (290) 
ChEMBL_Kinases

>  <Ligand_Instance>  (290) 
nan

>  <PDB_ID>  (290) 
nan

>  <Standardized_SMILES>  (290) 
CC(=O)NCCc1cc(-c2ccnc3[nH]nc(C(F)(F)F)c23)cc(C2(C#N)CC2)c1

>  <Name>  (290) 
nan

>  <Pocket>  (290) 
nan

>  <ATP_Site>  (290) 
nan

>  <Peripheral>  (290) 
nan

>  <Num_H_Atoms_ProtBoundConf>  (290) 
nan

>  <Num_Resolved_Atoms>  (290) 
nan

>  <Num_Not_Resolved_Atoms>  (290) 
nan

$$$$
CHEMBL3310285
     RDKit          3D

  0  0  0  0  0  0  0  0  0  0999 V3000
M  V30 BEGIN CTAB
M  V30 COUNTS 49 52 0 0 0
M  V30 BEGIN ATOM
M  V30 1 C -1.231221 -2.024738 5.248528 0
M  V30 2 S 0.431194 -1.400593 5.182081 0
M  V30 3 O 0.310228 0.087635 5.482755 0
M  V30 4 O 1.282205 -1.969482 6.259553 0
M  V30 5 N 1.108729 -1.521839 3.625590 0
M  V30 6 C 1.235247 -2.837987 3.098997 0
M  V30 7 C 1.836350 -2.820569 1.740948 0
M  V30 8 C 1.117126 -2.087411 0.705231 0
M  V30 9 C 1.407038 -0.766250 0.473104 0
M  V30 10 C 0.775284 -0.018928 -0.493488 0
M  V30 11 C 0.836295 1.343912 -0.966295 0
M  V30 12 C 1.349258 1.379996 -2.275870 0
M  V30 13 C 1.543924 2.577317 -2.964310 0
M  V30 14 N 1.221689 3.731281 -2.333726 0
M  V30 15 C 0.728433 3.747024 -1.085364 0
M  V30 16 N 0.301916 4.677534 -0.217832 0
M  V30 17 N -0.109661 4.108972 0.883001 0
M  V30 18 C 0.013619 2.754647 0.829692 0
M  V30 19 C -0.320572 1.762875 1.890011 0
M  V30 20 F -1.174862 0.794806 1.454035 0
M  V30 21 F -1.123370 2.514316 2.801673 0
M  V30 22 F 0.725303 1.351344 2.638781 0
M  V30 23 C 0.539489 2.561836 -0.411492 0
M  V30 24 C -0.198789 -0.723525 -1.229424 0
M  V30 25 C -0.520392 -2.071036 -1.019259 0
M  V30 26 C -1.529089 -2.816565 -1.774380 0
M  V30 27 C -1.071382 -4.167880 -2.177157 0
M  V30 28 N -0.728381 -5.237408 -2.488733 0
M  V30 29 C -2.931186 -2.736330 -1.136892 0
M  V30 30 C -2.659294 -2.199834 -2.477346 0
M  V30 31 C 0.165371 -2.746126 -0.025524 0
M  V30 32 H -1.248719 -3.144979 5.271333 0
M  V30 33 H -1.769193 -1.704194 4.336246 0
M  V30 34 H -1.798209 -1.594027 6.097176 0
M  V30 35 H 1.926192 -0.922370 3.500751 0
M  V30 36 H 1.987470 -3.364320 3.758709 0
M  V30 37 H 0.322202 -3.441601 3.192112 0
M  V30 38 H 2.852919 -2.336870 1.855099 0
M  V30 39 H 2.077653 -3.839507 1.364528 0
M  V30 40 H 2.139160 -0.165008 0.984125 0
M  V30 41 H 1.642009 0.531764 -2.882758 0
M  V30 42 H 1.932310 2.649314 -3.961775 0
M  V30 43 H 0.309660 5.714601 -0.423094 0
M  V30 44 H -0.809980 -0.326042 -2.032526 0
M  V30 45 H -3.406021 -3.719652 -0.971687 0
M  V30 46 H -3.098950 -2.017554 -0.315557 0
M  V30 47 H -2.658828 -1.113974 -2.624398 0
M  V30 48 H -3.096933 -2.773926 -3.320888 0
M  V30 49 H -0.040338 -3.786101 0.181318 0
M  V30 END ATOM
M  V30 BEGIN BOND
M  V30 1 1 1 2
M  V30 2 2 2 3
M  V30 3 2 2 4
M  V30 4 1 2 5
M  V30 5 1 5 6
M  V30 6 1 6 7
M  V30 7 1 7 8
M  V30 8 2 8 9
M  V30 9 1 9 10
M  V30 10 1 10 11
M  V30 11 2 11 12
M  V30 12 1 12 13
M  V30 13 2 13 14
M  V30 14 1 14 15
M  V30 15 1 15 16
M  V30 16 1 16 17
M  V30 17 2 17 18
M  V30 18 1 18 19
M  V30 19 1 19 20
M  V30 20 1 19 21
M  V30 21 1 19 22
M  V30 22 1 18 23
M  V30 23 2 10 24
M  V30 24 1 24 25
M  V30 25 1 25 26
M  V30 26 1 26 27
M  V30 27 3 27 28
M  V30 28 1 26 29
M  V30 29 1 29 30
M  V30 30 2 25 31
M  V30 31 1 31 8
M  V30 32 1 23 11
M  V30 33 1 30 26
M  V30 34 2 23 15
M  V30 35 1 1 32
M  V30 36 1 1 33
M  V30 37 1 1 34
M  V30 38 1 5 35
M  V30 39 1 6 36
M  V30 40 1 6 37
M  V30 41 1 7 38
M  V30 42 1 7 39
M  V30 43 1 9 40
M  V30 44 1 12 41
M  V30 45 1 13 42
M  V30 46 1 16 43
M  V30 47 1 24 44
M  V30 48 1 29 45
M  V30 49 1 29 46
M  V30 50 1 30 47
M  V30 51 1 30 48
M  V30 52 1 31 49
M  V30 END BOND
M  V30 END CTAB
M  END
>  <Dataset>  (291) 
ChEMBL_Kinases

>  <Ligand_Instance>  (291) 
nan

>  <PDB_ID>  (291) 
nan

>  <Standardized_SMILES>  (291) 
CS(=O)(=O)NCCc1cc(-c2ccnc3[nH]nc(C(F)(F)F)c23)cc(C2(C#N)CC2)c1

>  <Name>  (291) 
nan

>  <Pocket>  (291) 
nan

>  <ATP_Site>  (291) 
nan

>  <Peripheral>  (291) 
nan

>  <Num_H_Atoms_ProtBoundConf>  (291) 
nan

>  <Num_Resolved_Atoms>  (291) 
nan

>  <Num_Not_Resolved_Atoms>  (291) 
nan

$$$$
CHEMBL3310295
     RDKit          3D

  0  0  0  0  0  0  0  0  0  0999 V3000
M  V30 BEGIN CTAB
M  V30 COUNTS 46 49 0 0 0
M  V30 BEGIN ATOM
M  V30 1 N 2.645011 -3.979903 3.513487 0
M  V30 2 C 1.816737 -3.169065 3.461814 0
M  V30 3 C 0.749607 -2.145024 3.392498 0
M  V30 4 C 0.546065 -1.488879 2.097347 0
M  V30 5 C 0.812420 -2.283856 0.993402 0
M  V30 6 C 0.648960 -1.750018 -0.268401 0
M  V30 7 C 0.885036 -2.447526 -1.534927 0
M  V30 8 C 2.283500 -2.321347 -2.061365 0 CFG=1
M  V30 9 O 2.652358 -1.003090 -2.302293 0
M  V30 10 C 3.322046 -3.013257 -1.220186 0
M  V30 11 O 2.905686 -4.324624 -1.009179 0
M  V30 12 C 0.229150 -0.452429 -0.418314 0
M  V30 13 C -0.056263 0.400432 0.622332 0
M  V30 14 C -0.527351 1.759978 0.808788 0
M  V30 15 C 0.515040 2.557645 1.311307 0
M  V30 16 C 0.328230 3.922474 1.555599 0
M  V30 17 N -0.882440 4.448362 1.294799 0
M  V30 18 C -1.895071 3.705443 0.814837 0
M  V30 19 N -3.173084 3.924281 0.495441 0
M  V30 20 N -3.745613 2.807518 0.086912 0
M  V30 21 C -2.842357 1.778951 0.120492 0
M  V30 22 C -3.093206 0.392891 -0.296397 0
M  V30 23 F -4.477946 0.308081 -0.547725 0
M  V30 24 F -2.558246 0.134836 -1.560093 0
M  V30 25 F -2.791209 -0.562190 0.630506 0
M  V30 26 C -1.713298 2.380225 0.576705 0
M  V30 27 C 0.122453 -0.179259 1.893740 0
M  V30 28 C 0.504949 -1.444584 4.656758 0
M  V30 29 C -0.511992 -2.479096 4.213643 0
M  V30 30 H 1.145945 -3.311469 0.968785 0
M  V30 31 H 0.737051 -3.548593 -1.349663 0
M  V30 32 H 0.192277 -2.131260 -2.337390 0
M  V30 33 H 2.289129 -2.830804 -3.060057 0
M  V30 34 H 2.175395 -0.602835 -3.057788 0
M  V30 35 H 3.538735 -2.481780 -0.275616 0
M  V30 36 H 4.242918 -3.062912 -1.841036 0
M  V30 37 H 3.723948 -4.876959 -0.911707 0
M  V30 38 H 0.065522 0.119333 -1.347108 0
M  V30 39 H 1.521596 2.246758 1.556826 0
M  V30 40 H 1.092240 4.574392 1.938246 0
M  V30 41 H -3.680511 4.847113 0.551284 0
M  V30 42 H -0.036436 0.288139 2.868913 0
M  V30 43 H 1.037301 -1.787963 5.587787 0
M  V30 44 H 0.147396 -0.419714 4.766760 0
M  V30 45 H -1.468604 -2.065599 3.841133 0
M  V30 46 H -0.534779 -3.479287 4.667004 0
M  V30 END ATOM
M  V30 BEGIN BOND
M  V30 1 3 1 2
M  V30 2 1 2 3
M  V30 3 1 3 4
M  V30 4 2 4 5
M  V30 5 1 5 6
M  V30 6 1 6 7
M  V30 7 1 7 8
M  V30 8 1 8 9
M  V30 9 1 8 10
M  V30 10 1 10 11
M  V30 11 2 6 12
M  V30 12 1 12 13
M  V30 13 1 13 14
M  V30 14 2 14 15
M  V30 15 1 15 16
M  V30 16 2 16 17
M  V30 17 1 17 18
M  V30 18 1 18 19
M  V30 19 1 19 20
M  V30 20 2 20 21
M  V30 21 1 21 22
M  V30 22 1 22 23
M  V30 23 1 22 24
M  V30 24 1 22 25
M  V30 25 1 21 26
M  V30 26 2 13 27
M  V30 27 1 3 28
M  V30 28 1 28 29
M  V30 29 1 29 3
M  V30 30 1 27 4
M  V30 31 1 26 14
M  V30 32 2 26 18
M  V30 33 1 5 30
M  V30 34 1 7 31
M  V30 35 1 7 32
M  V30 36 1 8 33 CFG=3
M  V30 37 1 9 34
M  V30 38 1 10 35
M  V30 39 1 10 36
M  V30 40 1 11 37
M  V30 41 1 12 38
M  V30 42 1 15 39
M  V30 43 1 16 40
M  V30 44 1 19 41
M  V30 45 1 27 42
M  V30 46 1 28 43
M  V30 47 1 28 44
M  V30 48 1 29 45
M  V30 49 1 29 46
M  V30 END BOND
M  V30 END CTAB
M  END
>  <Dataset>  (292) 
ChEMBL_Kinases

>  <Ligand_Instance>  (292) 
nan

>  <PDB_ID>  (292) 
nan

>  <Standardized_SMILES>  (292) 
N#CC1(c2cc(C[C@@H](O)CO)cc(-c3ccnc4[nH]nc(C(F)(F)F)c34)c2)CC1

>  <Name>  (292) 
nan

>  <Pocket>  (292) 
nan

>  <ATP_Site>  (292) 
nan

>  <Peripheral>  (292) 
nan

>  <Num_H_Atoms_ProtBoundConf>  (292) 
nan

>  <Num_Resolved_Atoms>  (292) 
nan

>  <Num_Not_Resolved_Atoms>  (292) 
nan

$$$$
CHEMBL3310287
     RDKit          3D

  0  0  0  0  0  0  0  0  0  0999 V3000
M  V30 BEGIN CTAB
M  V30 COUNTS 45 48 0 0 0
M  V30 BEGIN ATOM
M  V30 1 C -1.493990 -1.096820 5.591412 0
M  V30 2 C -1.220052 -1.006091 4.106424 0 CFG=2
M  V30 3 O -2.080765 -1.822013 3.372809 0
M  V30 4 C 0.199164 -1.419486 3.775159 0
M  V30 5 C 0.426010 -1.317811 2.324345 0
M  V30 6 C 0.898982 -0.164848 1.690627 0
M  V30 7 C 1.114296 -0.072367 0.296671 0
M  V30 8 C 1.648434 1.230008 -0.021552 0
M  V30 9 C 2.971154 1.313260 0.442915 0
M  V30 10 C 3.742606 2.461947 0.228008 0
M  V30 11 N 3.208103 3.520269 -0.441238 0
M  V30 12 C 1.944972 3.452875 -0.888690 0
M  V30 13 N 1.075398 4.260788 -1.547699 0
M  V30 14 N -0.087742 3.689724 -1.720376 0
M  V30 15 C -0.104766 2.427502 -1.185612 0
M  V30 16 C -1.229547 1.512052 -1.204020 0
M  V30 17 F -2.308681 2.166664 -1.791121 0
M  V30 18 F -1.541106 0.813786 -0.111276 0
M  V30 19 F -0.948613 0.561108 -2.210855 0
M  V30 20 C 1.173832 2.333395 -0.686948 0
M  V30 21 C 0.824078 -1.214912 -0.421777 0
M  V30 22 C 0.359133 -2.357611 0.176223 0
M  V30 23 C 0.073241 -3.536167 -0.663354 0
M  V30 24 C 0.133395 -4.853983 -0.028664 0
M  V30 25 N 0.185450 -5.893822 0.487868 0
M  V30 26 C 0.292835 -3.500902 -2.147597 0
M  V30 27 C -1.105997 -3.334235 -1.665170 0
M  V30 28 C 0.161291 -2.410603 1.535892 0
M  V30 29 H -1.629756 -2.134080 5.937800 0
M  V30 30 H -2.449162 -0.571124 5.797821 0
M  V30 31 H -0.702866 -0.543251 6.118678 0
M  V30 32 H -1.437245 0.034718 3.816429 0
M  V30 33 H -1.977752 -1.561747 2.420681 0
M  V30 34 H 0.308721 -2.482492 4.069220 0
M  V30 35 H 0.944266 -0.858546 4.371701 0
M  V30 36 H 1.071942 0.636691 2.429486 0
M  V30 37 H 3.544094 0.551690 0.996341 0
M  V30 38 H 4.763154 2.569404 0.566794 0
M  V30 39 H 1.326031 5.238962 -1.877440 0
M  V30 40 H 1.028865 -1.044775 -1.467662 0
M  V30 41 H 0.470628 -4.485787 -2.663351 0
M  V30 42 H 0.819959 -2.676469 -2.622864 0
M  V30 43 H -1.846101 -4.140172 -1.679634 0
M  V30 44 H -1.511886 -2.317908 -1.745428 0
M  V30 45 H -0.205175 -3.329825 1.959173 0
M  V30 END ATOM
M  V30 BEGIN BOND
M  V30 1 1 1 2
M  V30 2 1 2 3
M  V30 3 1 2 4
M  V30 4 1 4 5
M  V30 5 2 5 6
M  V30 6 1 6 7
M  V30 7 1 7 8
M  V30 8 2 8 9
M  V30 9 1 9 10
M  V30 10 2 10 11
M  V30 11 1 11 12
M  V30 12 1 12 13
M  V30 13 1 13 14
M  V30 14 2 14 15
M  V30 15 1 15 16
M  V30 16 1 16 17
M  V30 17 1 16 18
M  V30 18 1 16 19
M  V30 19 1 15 20
M  V30 20 2 7 21
M  V30 21 1 21 22
M  V30 22 1 22 23
M  V30 23 1 23 24
M  V30 24 3 24 25
M  V30 25 1 23 26
M  V30 26 1 26 27
M  V30 27 2 22 28
M  V30 28 1 28 5
M  V30 29 1 20 8
M  V30 30 1 27 23
M  V30 31 2 20 12
M  V30 32 1 1 29
M  V30 33 1 1 30
M  V30 34 1 1 31
M  V30 35 1 2 32 CFG=3
M  V30 36 1 3 33
M  V30 37 1 4 34
M  V30 38 1 4 35
M  V30 39 1 6 36
M  V30 40 1 9 37
M  V30 41 1 10 38
M  V30 42 1 13 39
M  V30 43 1 21 40
M  V30 44 1 26 41
M  V30 45 1 26 42
M  V30 46 1 27 43
M  V30 47 1 27 44
M  V30 48 1 28 45
M  V30 END BOND
M  V30 END CTAB
M  END
>  <Dataset>  (293) 
ChEMBL_Kinases

>  <Ligand_Instance>  (293) 
nan

>  <PDB_ID>  (293) 
nan

>  <Standardized_SMILES>  (293) 
C[C@H](O)Cc1cc(-c2ccnc3[nH]nc(C(F)(F)F)c23)cc(C2(C#N)CC2)c1

>  <Name>  (293) 
nan

>  <Pocket>  (293) 
nan

>  <ATP_Site>  (293) 
nan

>  <Peripheral>  (293) 
nan

>  <Num_H_Atoms_ProtBoundConf>  (293) 
nan

>  <Num_Resolved_Atoms>  (293) 
nan

>  <Num_Not_Resolved_Atoms>  (293) 
nan

$$$$
CHEMBL3310288
     RDKit          3D

  0  0  0  0  0  0  0  0  0  0999 V3000
M  V30 BEGIN CTAB
M  V30 COUNTS 49 53 0 0 0
M  V30 BEGIN ATOM
M  V30 1 N 1.459300 -5.960796 1.129867 0
M  V30 2 C 0.575875 -5.224629 1.024048 0
M  V30 3 C -0.541421 -4.268793 0.906073 0
M  V30 4 C -0.148585 -2.866863 1.099615 0
M  V30 5 C 1.107247 -2.380694 0.810525 0
M  V30 6 C 1.385633 -1.046769 1.025160 0
M  V30 7 C 2.751928 -0.571696 0.698859 0
M  V30 8 C 2.846445 -0.098131 -0.740209 0
M  V30 9 O 1.942692 0.953625 -0.916320 0
M  V30 10 C 4.246677 0.415714 -0.992043 0
M  V30 11 C 4.587189 0.937932 -2.340426 0
M  V30 12 C 4.385485 1.945438 -1.259124 0
M  V30 13 C 0.365976 -0.231136 1.534583 0
M  V30 14 C -0.925462 -0.702352 1.837906 0
M  V30 15 C -1.692466 0.404037 2.372875 0
M  V30 16 C -1.230021 0.774408 3.645093 0
M  V30 17 C -1.812858 1.793901 4.388616 0
M  V30 18 N -2.870403 2.438710 3.833108 0
M  V30 19 C -3.343905 2.123950 2.629733 0
M  V30 20 N -4.320374 2.555711 1.789825 0
M  V30 21 N -4.327832 1.881490 0.676539 0
M  V30 22 C -3.348582 0.921933 0.661291 0
M  V30 23 C -3.070543 -0.050489 -0.398402 0
M  V30 24 F -3.898893 0.317220 -1.480049 0
M  V30 25 F -1.810145 -0.112610 -0.863297 0
M  V30 26 F -3.607532 -1.317538 -0.074580 0
M  V30 27 C -2.767975 1.114128 1.893476 0
M  V30 28 C -1.116548 -2.038168 1.595915 0
M  V30 29 C -1.875991 -4.795417 1.210998 0
M  V30 30 C -1.518357 -4.503136 -0.214775 0
M  V30 31 H 1.788543 -3.126257 0.424265 0
M  V30 32 H 3.452387 -1.420042 0.808855 0
M  V30 33 H 3.041254 0.264715 1.385475 0
M  V30 34 H 2.558158 -0.892013 -1.450767 0
M  V30 35 H 1.379538 0.841144 -1.704424 0
M  V30 36 H 5.078825 -0.072567 -0.442804 0
M  V30 37 H 3.786985 0.845625 -3.107978 0
M  V30 38 H 5.610114 0.896229 -2.733766 0
M  V30 39 H 5.236354 2.405691 -0.743183 0
M  V30 40 H 3.400525 2.491910 -1.269354 0
M  V30 41 H 0.751261 0.795553 1.645380 0
M  V30 42 H -0.390901 0.320184 4.175086 0
M  V30 43 H -1.486141 2.097632 5.355161 0
M  V30 44 H -4.984103 3.342464 2.024776 0
M  V30 45 H -2.147775 -2.280530 1.885007 0
M  V30 46 H -1.958777 -5.888398 1.467165 0
M  V30 47 H -2.700411 -4.226062 1.652017 0
M  V30 48 H -1.991884 -3.619507 -0.684196 0
M  V30 49 H -1.257606 -5.292199 -0.925999 0
M  V30 END ATOM
M  V30 BEGIN BOND
M  V30 1 3 1 2
M  V30 2 1 2 3
M  V30 3 1 3 4
M  V30 4 2 4 5
M  V30 5 1 5 6
M  V30 6 1 6 7
M  V30 7 1 7 8
M  V30 8 1 8 9
M  V30 9 1 8 10
M  V30 10 1 10 11
M  V30 11 1 11 12
M  V30 12 2 6 13
M  V30 13 1 13 14
M  V30 14 1 14 15
M  V30 15 2 15 16
M  V30 16 1 16 17
M  V30 17 2 17 18
M  V30 18 1 18 19
M  V30 19 1 19 20
M  V30 20 1 20 21
M  V30 21 2 21 22
M  V30 22 1 22 23
M  V30 23 1 23 24
M  V30 24 1 23 25
M  V30 25 1 23 26
M  V30 26 1 22 27
M  V30 27 2 14 28
M  V30 28 1 3 29
M  V30 29 1 29 30
M  V30 30 1 30 3
M  V30 31 1 28 4
M  V30 32 1 12 10
M  V30 33 1 27 15
M  V30 34 2 27 19
M  V30 35 1 5 31
M  V30 36 1 7 32
M  V30 37 1 7 33
M  V30 38 1 8 34
M  V30 39 1 9 35
M  V30 40 1 10 36
M  V30 41 1 11 37
M  V30 42 1 11 38
M  V30 43 1 12 39
M  V30 44 1 12 40
M  V30 45 1 13 41
M  V30 46 1 16 42
M  V30 47 1 17 43
M  V30 48 1 20 44
M  V30 49 1 28 45
M  V30 50 1 29 46
M  V30 51 1 29 47
M  V30 52 1 30 48
M  V30 53 1 30 49
M  V30 END BOND
M  V30 END CTAB
M  END
>  <Dataset>  (294) 
ChEMBL_Kinases

>  <Ligand_Instance>  (294) 
nan

>  <PDB_ID>  (294) 
nan

>  <Standardized_SMILES>  (294) 
N#CC1(c2cc(CC(O)C3CC3)cc(-c3ccnc4[nH]nc(C(F)(F)F)c34)c2)CC1

>  <Name>  (294) 
nan

>  <Pocket>  (294) 
nan

>  <ATP_Site>  (294) 
nan

>  <Peripheral>  (294) 
nan

>  <Num_H_Atoms_ProtBoundConf>  (294) 
nan

>  <Num_Resolved_Atoms>  (294) 
nan

>  <Num_Not_Resolved_Atoms>  (294) 
nan

$$$$
CHEMBL3310289
     RDKit          3D

  0  0  0  0  0  0  0  0  0  0999 V3000
M  V30 BEGIN CTAB
M  V30 COUNTS 48 51 0 0 0
M  V30 BEGIN ATOM
M  V30 1 C 0.166668 -2.750791 -1.598050 0
M  V30 2 C 1.335222 -3.642019 -1.400476 0
M  V30 3 C 2.410448 -3.010236 -0.597441 0
M  V30 4 O 3.466320 -3.994862 -0.573406 0
M  V30 5 C 2.120204 -2.751143 0.846112 0
M  V30 6 C 1.006993 -1.861230 1.111601 0
M  V30 7 C 1.171804 -0.463622 1.127211 0
M  V30 8 C 0.187044 0.502260 1.421690 0
M  V30 9 C 0.694434 1.856594 1.395269 0
M  V30 10 C 1.654453 2.010466 2.407373 0
M  V30 11 C 2.273140 3.248652 2.612074 0
M  V30 12 N 1.958370 4.320252 1.838458 0
M  V30 13 C 1.047338 4.171475 0.877279 0
M  V30 14 N 0.511757 4.956182 -0.069195 0
M  V30 15 N -0.361474 4.300889 -0.810675 0
M  V30 16 C -0.474524 3.000376 -0.401600 0
M  V30 17 C -1.353082 1.936441 -0.949519 0
M  V30 18 F -0.683214 0.793879 -1.324586 0
M  V30 19 F -2.538144 1.769050 -0.323907 0
M  V30 20 F -1.733344 2.475261 -2.221556 0
M  V30 21 C 0.417034 2.969595 0.646100 0
M  V30 22 C -1.042274 -0.048313 1.716553 0
M  V30 23 C -1.311595 -1.394877 1.729440 0
M  V30 24 C -2.695211 -1.761894 2.071306 0
M  V30 25 C -3.746462 -0.793297 1.739801 0
M  V30 26 N -4.560005 -0.034517 1.468366 0
M  V30 27 C -3.071025 -3.186317 2.113779 0
M  V30 28 C -2.870000 -2.456518 3.393597 0
M  V30 29 C -0.300512 -2.244446 1.432870 0
M  V30 30 H -0.777595 -3.159751 -1.165641 0
M  V30 31 H -0.030282 -2.664831 -2.718940 0
M  V30 32 H 0.284548 -1.713868 -1.273133 0
M  V30 33 H 0.973020 -4.606593 -0.935502 0
M  V30 34 H 1.730418 -3.971605 -2.396727 0
M  V30 35 H 2.864838 -2.129460 -1.044973 0
M  V30 36 H 3.560729 -4.243994 -1.535538 0
M  V30 37 H 3.057739 -2.448960 1.395027 0
M  V30 38 H 1.905412 -3.765712 1.288428 0
M  V30 39 H 2.202898 -0.158860 0.873317 0
M  V30 40 H 2.021059 1.267107 3.109038 0
M  V30 41 H 3.018487 3.432464 3.373265 0
M  V30 42 H 0.734495 5.978738 -0.234525 0
M  V30 43 H -1.762928 0.723069 1.951575 0
M  V30 44 H -2.349263 -3.956656 1.848258 0
M  V30 45 H -4.121660 -3.471916 1.845192 0
M  V30 46 H -1.977561 -2.656617 4.002558 0
M  V30 47 H -3.781826 -2.235698 3.997393 0
M  V30 48 H -0.488865 -3.301356 1.437187 0
M  V30 END ATOM
M  V30 BEGIN BOND
M  V30 1 1 1 2
M  V30 2 1 2 3
M  V30 3 1 3 4
M  V30 4 1 3 5
M  V30 5 1 5 6
M  V30 6 2 6 7
M  V30 7 1 7 8
M  V30 8 1 8 9
M  V30 9 2 9 10
M  V30 10 1 10 11
M  V30 11 2 11 12
M  V30 12 1 12 13
M  V30 13 1 13 14
M  V30 14 1 14 15
M  V30 15 2 15 16
M  V30 16 1 16 17
M  V30 17 1 17 18
M  V30 18 1 17 19
M  V30 19 1 17 20
M  V30 20 1 16 21
M  V30 21 2 8 22
M  V30 22 1 22 23
M  V30 23 1 23 24
M  V30 24 1 24 25
M  V30 25 3 25 26
M  V30 26 1 24 27
M  V30 27 1 27 28
M  V30 28 2 23 29
M  V30 29 1 29 6
M  V30 30 1 21 9
M  V30 31 1 28 24
M  V30 32 2 21 13
M  V30 33 1 1 30
M  V30 34 1 1 31
M  V30 35 1 1 32
M  V30 36 1 2 33
M  V30 37 1 2 34
M  V30 38 1 3 35
M  V30 39 1 4 36
M  V30 40 1 5 37
M  V30 41 1 5 38
M  V30 42 1 7 39
M  V30 43 1 10 40
M  V30 44 1 11 41
M  V30 45 1 14 42
M  V30 46 1 22 43
M  V30 47 1 27 44
M  V30 48 1 27 45
M  V30 49 1 28 46
M  V30 50 1 28 47
M  V30 51 1 29 48
M  V30 END BOND
M  V30 END CTAB
M  END
>  <Dataset>  (295) 
ChEMBL_Kinases

>  <Ligand_Instance>  (295) 
nan

>  <PDB_ID>  (295) 
nan

>  <Standardized_SMILES>  (295) 
CCC(O)Cc1cc(-c2ccnc3[nH]nc(C(F)(F)F)c23)cc(C2(C#N)CC2)c1

>  <Name>  (295) 
nan

>  <Pocket>  (295) 
nan

>  <ATP_Site>  (295) 
nan

>  <Peripheral>  (295) 
nan

>  <Num_H_Atoms_ProtBoundConf>  (295) 
nan

>  <Num_Resolved_Atoms>  (295) 
nan

>  <Num_Not_Resolved_Atoms>  (295) 
nan

$$$$
CHEMBL3310290
     RDKit          3D

  0  0  0  0  0  0  0  0  0  0999 V3000
M  V30 BEGIN CTAB
M  V30 COUNTS 51 54 0 0 0
M  V30 BEGIN ATOM
M  V30 1 C 0.610628 -1.469689 5.368224 0
M  V30 2 C 1.086224 -1.876895 3.956242 0
M  V30 3 C -0.153252 -2.129441 3.169510 0
M  V30 4 C 1.962856 -0.773670 3.484194 0
M  V30 5 O 3.013395 -0.699249 4.459574 0
M  V30 6 C 2.567888 -0.877664 2.137395 0
M  V30 7 C 1.644983 -0.973577 0.997052 0
M  V30 8 C 1.111367 0.155072 0.386879 0
M  V30 9 C 0.246102 0.196252 -0.726474 0
M  V30 10 C -0.076580 1.552291 -1.124517 0
M  V30 11 C 1.084845 2.174351 -1.606328 0
M  V30 12 C 1.039365 3.488719 -2.087468 0
M  V30 13 N -0.123592 4.176117 -2.093703 0
M  V30 14 C -1.235462 3.578149 -1.630254 0
M  V30 15 N -2.525907 3.929856 -1.452533 0
M  V30 16 N -3.228599 2.948307 -0.916918 0
M  V30 17 C -2.442984 1.851602 -0.696046 0
M  V30 18 C -2.852577 0.552716 -0.143062 0
M  V30 19 F -2.110303 0.123397 0.930038 0
M  V30 20 F -3.085845 -0.437739 -1.054517 0
M  V30 21 F -4.158746 0.804127 0.389193 0
M  V30 22 C -1.222672 2.292344 -1.153537 0
M  V30 23 C -0.065927 -1.050819 -1.216253 0
M  V30 24 C 0.412687 -2.219363 -0.678988 0
M  V30 25 C -0.021483 -3.482349 -1.325170 0
M  V30 26 C 1.030414 -4.486821 -1.605334 0
M  V30 27 N 1.845533 -5.267386 -1.841849 0
M  V30 28 C -1.331006 -4.058494 -0.699369 0
M  V30 29 C -1.254982 -3.592443 -2.101865 0
M  V30 30 C 1.252602 -2.160007 0.409027 0
M  V30 31 H -0.286798 -2.079113 5.585730 0
M  V30 32 H 1.359769 -1.743282 6.123199 0
M  V30 33 H 0.423418 -0.375341 5.365802 0
M  V30 34 H 1.616734 -2.839327 4.090845 0
M  V30 35 H -0.130779 -3.139089 2.683122 0
M  V30 36 H -0.475219 -1.313314 2.514182 0
M  V30 37 H -1.010644 -2.238889 3.905424 0
M  V30 38 H 1.461601 0.210864 3.573797 0
M  V30 39 H 2.569241 -0.340571 5.267976 0
M  V30 40 H 3.135890 0.092245 1.972416 0
M  V30 41 H 3.375135 -1.647671 2.068570 0
M  V30 42 H 1.444469 1.087019 0.881695 0
M  V30 43 H 2.101409 1.764717 -1.671689 0
M  V30 44 H 1.900564 4.017471 -2.470488 0
M  V30 45 H -2.935681 4.877532 -1.708838 0
M  V30 46 H -0.725761 -0.949838 -2.086365 0
M  V30 47 H -1.808258 -3.487693 0.098848 0
M  V30 48 H -1.314406 -5.166165 -0.540316 0
M  V30 49 H -1.317508 -4.365247 -2.897501 0
M  V30 50 H -1.777212 -2.666845 -2.387488 0
M  V30 51 H 1.622764 -3.091863 0.822598 0
M  V30 END ATOM
M  V30 BEGIN BOND
M  V30 1 1 1 2
M  V30 2 1 2 3
M  V30 3 1 2 4
M  V30 4 1 4 5
M  V30 5 1 4 6
M  V30 6 1 6 7
M  V30 7 2 7 8
M  V30 8 1 8 9
M  V30 9 1 9 10
M  V30 10 2 10 11
M  V30 11 1 11 12
M  V30 12 2 12 13
M  V30 13 1 13 14
M  V30 14 1 14 15
M  V30 15 1 15 16
M  V30 16 2 16 17
M  V30 17 1 17 18
M  V30 18 1 18 19
M  V30 19 1 18 20
M  V30 20 1 18 21
M  V30 21 1 17 22
M  V30 22 2 9 23
M  V30 23 1 23 24
M  V30 24 1 24 25
M  V30 25 1 25 26
M  V30 26 3 26 27
M  V30 27 1 25 28
M  V30 28 1 28 29
M  V30 29 2 24 30
M  V30 30 1 30 7
M  V30 31 1 22 10
M  V30 32 1 29 25
M  V30 33 2 22 14
M  V30 34 1 1 31
M  V30 35 1 1 32
M  V30 36 1 1 33
M  V30 37 1 2 34
M  V30 38 1 3 35
M  V30 39 1 3 36
M  V30 40 1 3 37
M  V30 41 1 4 38
M  V30 42 1 5 39
M  V30 43 1 6 40
M  V30 44 1 6 41
M  V30 45 1 8 42
M  V30 46 1 11 43
M  V30 47 1 12 44
M  V30 48 1 15 45
M  V30 49 1 23 46
M  V30 50 1 28 47
M  V30 51 1 28 48
M  V30 52 1 29 49
M  V30 53 1 29 50
M  V30 54 1 30 51
M  V30 END BOND
M  V30 END CTAB
M  END
>  <Dataset>  (296) 
ChEMBL_Kinases

>  <Ligand_Instance>  (296) 
nan

>  <PDB_ID>  (296) 
nan

>  <Standardized_SMILES>  (296) 
CC(C)C(O)Cc1cc(-c2ccnc3[nH]nc(C(F)(F)F)c23)cc(C2(C#N)CC2)c1

>  <Name>  (296) 
nan

>  <Pocket>  (296) 
nan

>  <ATP_Site>  (296) 
nan

>  <Peripheral>  (296) 
nan

>  <Num_H_Atoms_ProtBoundConf>  (296) 
nan

>  <Num_Resolved_Atoms>  (296) 
nan

>  <Num_Not_Resolved_Atoms>  (296) 
nan

$$$$
CHEMBL3310291
     RDKit          3D

  0  0  0  0  0  0  0  0  0  0999 V3000
M  V30 BEGIN CTAB
M  V30 COUNTS 45 48 0 0 0
M  V30 BEGIN ATOM
M  V30 1 N 4.243608 -3.819427 2.695695 0
M  V30 2 C 3.133138 -3.591493 2.380256 0
M  V30 3 C 1.745295 -3.301731 1.959589 0
M  V30 4 C 1.377923 -1.924756 1.649374 0
M  V30 5 C 2.308862 -1.033095 1.166060 0
M  V30 6 C 1.979309 0.292179 0.863255 0
M  V30 7 C 3.125601 1.086908 0.382587 0
M  V30 8 C 3.387810 1.005133 -1.092614 0
M  V30 9 O 3.651424 -0.300102 -1.507658 0
M  V30 10 C 2.328620 1.667181 -1.916011 0
M  V30 11 F 2.626719 1.571679 -3.286606 0
M  V30 12 F 2.252141 3.006638 -1.601813 0
M  V30 13 F 1.063472 1.118322 -1.713618 0
M  V30 14 C 0.653786 0.684714 1.071000 0
M  V30 15 C -0.338177 -0.186647 1.562739 0
M  V30 16 C -1.566397 0.527382 1.709708 0
M  V30 17 C -1.475602 1.443429 2.769162 0
M  V30 18 C -2.562987 2.247611 3.128369 0
M  V30 19 N -3.728285 2.164808 2.465408 0
M  V30 20 C -3.839843 1.301730 1.452746 0
M  V30 21 N -4.787967 0.942150 0.539397 0
M  V30 22 N -4.357230 0.032584 -0.284628 0
M  V30 23 C -3.061765 -0.303924 0.009402 0
M  V30 24 C -2.324209 -1.346189 -0.726383 0
M  V30 25 F -2.068729 -2.490089 -0.002111 0
M  V30 26 F -3.041988 -1.748769 -1.829291 0
M  V30 27 F -1.137726 -0.835020 -1.256625 0
M  V30 28 C -2.785417 0.502521 1.084725 0
M  V30 29 C 0.107646 -1.457552 1.822424 0
M  V30 30 C 0.694401 -4.288632 2.494867 0
M  V30 31 C 1.151470 -4.424402 1.090841 0
M  V30 32 H 3.326108 -1.436174 1.035586 0
M  V30 33 H 2.903717 2.178299 0.583118 0
M  V30 34 H 4.053740 0.842319 0.964304 0
M  V30 35 H 4.333707 1.593241 -1.287048 0
M  V30 36 H 3.427006 -0.405661 -2.472066 0
M  V30 37 H 0.532915 1.735090 0.807170 0
M  V30 38 H -0.603787 1.634609 3.407407 0
M  V30 39 H -2.528383 2.962210 3.938055 0
M  V30 40 H -5.758566 1.365588 0.518399 0
M  V30 41 H -0.713995 -2.044488 2.207303 0
M  V30 42 H 1.089277 -5.083241 3.188232 0
M  V30 43 H -0.328591 -3.941581 2.689241 0
M  V30 44 H 0.538716 -4.037598 0.243027 0
M  V30 45 H 1.802068 -5.278758 0.817171 0
M  V30 END ATOM
M  V30 BEGIN BOND
M  V30 1 3 1 2
M  V30 2 1 2 3
M  V30 3 1 3 4
M  V30 4 2 4 5
M  V30 5 1 5 6
M  V30 6 1 6 7
M  V30 7 1 7 8
M  V30 8 1 8 9
M  V30 9 1 8 10
M  V30 10 1 10 11
M  V30 11 1 10 12
M  V30 12 1 10 13
M  V30 13 2 6 14
M  V30 14 1 14 15
M  V30 15 1 15 16
M  V30 16 2 16 17
M  V30 17 1 17 18
M  V30 18 2 18 19
M  V30 19 1 19 20
M  V30 20 1 20 21
M  V30 21 1 21 22
M  V30 22 2 22 23
M  V30 23 1 23 24
M  V30 24 1 24 25
M  V30 25 1 24 26
M  V30 26 1 24 27
M  V30 27 1 23 28
M  V30 28 2 15 29
M  V30 29 1 3 30
M  V30 30 1 30 31
M  V30 31 1 31 3
M  V30 32 1 29 4
M  V30 33 1 28 16
M  V30 34 2 28 20
M  V30 35 1 5 32
M  V30 36 1 7 33
M  V30 37 1 7 34
M  V30 38 1 8 35
M  V30 39 1 9 36
M  V30 40 1 14 37
M  V30 41 1 17 38
M  V30 42 1 18 39
M  V30 43 1 21 40
M  V30 44 1 29 41
M  V30 45 1 30 42
M  V30 46 1 30 43
M  V30 47 1 31 44
M  V30 48 1 31 45
M  V30 END BOND
M  V30 END CTAB
M  END
>  <Dataset>  (297) 
ChEMBL_Kinases

>  <Ligand_Instance>  (297) 
nan

>  <PDB_ID>  (297) 
nan

>  <Standardized_SMILES>  (297) 
N#CC1(c2cc(CC(O)C(F)(F)F)cc(-c3ccnc4[nH]nc(C(F)(F)F)c34)c2)CC1

>  <Name>  (297) 
nan

>  <Pocket>  (297) 
nan

>  <ATP_Site>  (297) 
nan

>  <Peripheral>  (297) 
nan

>  <Num_H_Atoms_ProtBoundConf>  (297) 
nan

>  <Num_Resolved_Atoms>  (297) 
nan

>  <Num_Not_Resolved_Atoms>  (297) 
nan

$$$$
CHEMBL3310292
     RDKit          3D

  0  0  0  0  0  0  0  0  0  0999 V3000
M  V30 BEGIN CTAB
M  V30 COUNTS 41 44 0 0 0
M  V30 BEGIN ATOM
M  V30 1 N -0.606387 -2.694701 4.796288 0
M  V30 2 C 0.295847 -2.130175 4.317670 0
M  V30 3 C 1.427122 -1.414536 3.690835 0
M  V30 4 C 1.222112 -1.166110 2.265009 0
M  V30 5 C 2.059506 -1.762114 1.348602 0
M  V30 6 C 1.885431 -1.540326 0.000782 0
M  V30 7 C 2.768046 -2.163943 -1.017026 0
M  V30 8 C 3.888121 -1.190605 -1.228950 0
M  V30 9 O 3.571975 -0.265190 -0.434700 0
M  V30 10 O 4.982769 -0.415019 -1.543559 0
M  V30 11 C 0.890390 -0.735540 -0.429574 0
M  V30 12 C -0.002209 -0.091387 0.394138 0
M  V30 13 C -1.142227 0.782526 0.213055 0
M  V30 14 C -0.849607 2.059218 0.717664 0
M  V30 15 C -1.763793 3.104662 0.638025 0
M  V30 16 N -2.966033 2.872092 0.056054 0
M  V30 17 C -3.280879 1.661422 -0.437076 0
M  V30 18 N -4.336865 1.073714 -1.033875 0
M  V30 19 N -4.101626 -0.184791 -1.291016 0
M  V30 20 C -2.849467 -0.555339 -0.884020 0
M  V30 21 C -2.207223 -1.884226 -1.017713 0
M  V30 22 F -1.743407 -2.388791 0.190533 0
M  V30 23 F -3.300111 -2.754790 -1.322800 0
M  V30 24 F -1.379190 -2.036395 -2.074115 0
M  V30 25 C -2.380620 0.625771 -0.361136 0
M  V30 26 C 0.208273 -0.342517 1.763609 0
M  V30 27 C 2.275613 -0.584967 4.566883 0
M  V30 28 C 2.830103 -1.910637 4.074487 0
M  V30 29 H 2.886822 -2.425150 1.590922 0
M  V30 30 H 3.155168 -3.147967 -0.686965 0
M  V30 31 H 2.213890 -2.237098 -1.972109 0
M  V30 32 H 5.140997 -0.111787 -2.483371 0
M  V30 33 H 0.657372 -0.471555 -1.465223 0
M  V30 34 H 0.079361 2.383690 1.210955 0
M  V30 35 H -1.592562 4.092205 1.004274 0
M  V30 36 H -5.240083 1.585683 -1.259462 0
M  V30 37 H -0.392927 0.075483 2.578637 0
M  V30 38 H 2.761992 0.346598 4.262951 0
M  V30 39 H 1.995790 -0.578972 5.653204 0
M  V30 40 H 3.655744 -1.812037 3.367745 0
M  V30 41 H 2.835607 -2.762449 4.795449 0
M  V30 END ATOM
M  V30 BEGIN BOND
M  V30 1 3 1 2
M  V30 2 1 2 3
M  V30 3 1 3 4
M  V30 4 2 4 5
M  V30 5 1 5 6
M  V30 6 1 6 7
M  V30 7 1 7 8
M  V30 8 2 8 9
M  V30 9 1 8 10
M  V30 10 2 6 11
M  V30 11 1 11 12
M  V30 12 1 12 13
M  V30 13 2 13 14
M  V30 14 1 14 15
M  V30 15 2 15 16
M  V30 16 1 16 17
M  V30 17 1 17 18
M  V30 18 1 18 19
M  V30 19 2 19 20
M  V30 20 1 20 21
M  V30 21 1 21 22
M  V30 22 1 21 23
M  V30 23 1 21 24
M  V30 24 1 20 25
M  V30 25 2 12 26
M  V30 26 1 3 27
M  V30 27 1 27 28
M  V30 28 1 28 3
M  V30 29 1 26 4
M  V30 30 1 25 13
M  V30 31 2 25 17
M  V30 32 1 5 29
M  V30 33 1 7 30
M  V30 34 1 7 31
M  V30 35 1 10 32
M  V30 36 1 11 33
M  V30 37 1 14 34
M  V30 38 1 15 35
M  V30 39 1 18 36
M  V30 40 1 26 37
M  V30 41 1 27 38
M  V30 42 1 27 39
M  V30 43 1 28 40
M  V30 44 1 28 41
M  V30 END BOND
M  V30 END CTAB
M  END
>  <Dataset>  (298) 
ChEMBL_Kinases

>  <Ligand_Instance>  (298) 
nan

>  <PDB_ID>  (298) 
nan

>  <Standardized_SMILES>  (298) 
N#CC1(c2cc(CC(=O)O)cc(-c3ccnc4[nH]nc(C(F)(F)F)c34)c2)CC1

>  <Name>  (298) 
nan

>  <Pocket>  (298) 
nan

>  <ATP_Site>  (298) 
nan

>  <Peripheral>  (298) 
nan

>  <Num_H_Atoms_ProtBoundConf>  (298) 
nan

>  <Num_Resolved_Atoms>  (298) 
nan

>  <Num_Not_Resolved_Atoms>  (298) 
nan

$$$$
CHEMBL3310293
     RDKit          3D

  0  0  0  0  0  0  0  0  0  0999 V3000
M  V30 BEGIN CTAB
M  V30 COUNTS 46 49 0 0 0
M  V30 BEGIN ATOM
M  V30 1 N 2.725982 -2.655090 4.249765 0
M  V30 2 C 1.668454 -2.641785 3.736450 0
M  V30 3 C 0.338035 -2.599458 3.088629 0
M  V30 4 C 0.264128 -1.687083 1.919621 0
M  V30 5 C -0.199024 -2.263841 0.756560 0
M  V30 6 C -0.291557 -1.467993 -0.363673 0
M  V30 7 C -0.762868 -1.925916 -1.672875 0
M  V30 8 C 0.297371 -2.458572 -2.588018 0
M  V30 9 O 1.287115 -1.524583 -2.889896 0
M  V30 10 C 0.844953 -3.798169 -2.166744 0
M  V30 11 O -0.250841 -4.645510 -1.891650 0
M  V30 12 C 0.063992 -0.147416 -0.326053 0
M  V30 13 C 0.532406 0.486099 0.804073 0
M  V30 14 C 0.956963 1.817182 1.192382 0
M  V30 15 C 2.341507 1.841374 1.415794 0
M  V30 16 C 2.997690 3.022056 1.777742 0
M  V30 17 N 2.268510 4.142128 1.908979 0
M  V30 18 C 0.953805 4.163452 1.707674 0
M  V30 19 N -0.064910 5.054710 1.773592 0
M  V30 20 N -1.212977 4.501231 1.488220 0
M  V30 21 C -1.061518 3.170315 1.200539 0
M  V30 22 C -2.123218 2.234019 0.795777 0
M  V30 23 F -3.341580 2.927433 0.955613 0
M  V30 24 F -2.105813 1.995851 -0.575631 0
M  V30 25 F -2.206698 1.102221 1.553251 0
M  V30 26 C 0.295508 3.010212 1.350304 0
M  V30 27 C 0.621494 -0.343225 1.942405 0
M  V30 28 C -0.829517 -2.735134 4.016229 0
M  V30 29 C -0.431735 -3.841625 3.144266 0
M  V30 30 H -0.515609 -3.278433 0.564212 0
M  V30 31 H -1.469517 -2.760965 -1.488856 0
M  V30 32 H -1.318815 -1.137418 -2.227995 0
M  V30 33 H -0.231032 -2.655795 -3.563189 0
M  V30 34 H 1.213496 -1.152550 -3.795233 0
M  V30 35 H 1.377494 -4.243593 -3.039324 0
M  V30 36 H 1.486765 -3.780087 -1.285682 0
M  V30 37 H 0.041941 -5.532486 -1.604092 0
M  V30 38 H 0.057231 0.593145 -1.123698 0
M  V30 39 H 3.028116 1.007891 1.341429 0
M  V30 40 H 4.055362 3.086035 1.957765 0
M  V30 41 H 0.071116 6.070225 2.026716 0
M  V30 42 H 0.959651 -0.077301 2.942046 0
M  V30 43 H -1.777317 -2.227127 3.802111 0
M  V30 44 H -0.610134 -2.790543 5.121108 0
M  V30 45 H -1.081815 -4.167359 2.302720 0
M  V30 46 H 0.025703 -4.732989 3.654537 0
M  V30 END ATOM
M  V30 BEGIN BOND
M  V30 1 3 1 2
M  V30 2 1 2 3
M  V30 3 1 3 4
M  V30 4 2 4 5
M  V30 5 1 5 6
M  V30 6 1 6 7
M  V30 7 1 7 8
M  V30 8 1 8 9
M  V30 9 1 8 10
M  V30 10 1 10 11
M  V30 11 2 6 12
M  V30 12 1 12 13
M  V30 13 1 13 14
M  V30 14 2 14 15
M  V30 15 1 15 16
M  V30 16 2 16 17
M  V30 17 1 17 18
M  V30 18 1 18 19
M  V30 19 1 19 20
M  V30 20 2 20 21
M  V30 21 1 21 22
M  V30 22 1 22 23
M  V30 23 1 22 24
M  V30 24 1 22 25
M  V30 25 1 21 26
M  V30 26 2 13 27
M  V30 27 1 3 28
M  V30 28 1 28 29
M  V30 29 1 29 3
M  V30 30 1 27 4
M  V30 31 1 26 14
M  V30 32 2 26 18
M  V30 33 1 5 30
M  V30 34 1 7 31
M  V30 35 1 7 32
M  V30 36 1 8 33
M  V30 37 1 9 34
M  V30 38 1 10 35
M  V30 39 1 10 36
M  V30 40 1 11 37
M  V30 41 1 12 38
M  V30 42 1 15 39
M  V30 43 1 16 40
M  V30 44 1 19 41
M  V30 45 1 27 42
M  V30 46 1 28 43
M  V30 47 1 28 44
M  V30 48 1 29 45
M  V30 49 1 29 46
M  V30 END BOND
M  V30 END CTAB
M  END
>  <Dataset>  (299) 
ChEMBL_Kinases

>  <Ligand_Instance>  (299) 
nan

>  <PDB_ID>  (299) 
nan

>  <Standardized_SMILES>  (299) 
N#CC1(c2cc(CC(O)CO)cc(-c3ccnc4[nH]nc(C(F)(F)F)c34)c2)CC1

>  <Name>  (299) 
nan

>  <Pocket>  (299) 
nan

>  <ATP_Site>  (299) 
nan

>  <Peripheral>  (299) 
nan

>  <Num_H_Atoms_ProtBoundConf>  (299) 
nan

>  <Num_Resolved_Atoms>  (299) 
nan

>  <Num_Not_Resolved_Atoms>  (299) 
nan

$$$$
CHEMBL3310294
     RDKit          3D

  0  0  0  0  0  0  0  0  0  0999 V3000
M  V30 BEGIN CTAB
M  V30 COUNTS 46 49 0 0 0
M  V30 BEGIN ATOM
M  V30 1 N 0.547966 -5.231141 3.287287 0
M  V30 2 C -0.022234 -4.232721 3.111973 0
M  V30 3 C -0.745246 -2.975358 2.878184 0
M  V30 4 C -0.011405 -2.000608 2.061740 0
M  V30 5 C 0.956581 -2.347020 1.146694 0
M  V30 6 C 1.594937 -1.362202 0.423027 0
M  V30 7 C 2.630329 -1.798191 -0.548666 0
M  V30 8 C 1.931135 -2.039704 -1.885536 0 CFG=2
M  V30 9 O 0.973390 -3.023849 -1.707478 0
M  V30 10 C 2.907631 -2.407951 -2.961514 0
M  V30 11 O 3.543295 -3.586939 -2.607072 0
M  V30 12 C 1.233358 -0.044752 0.646555 0
M  V30 13 C 0.249783 0.354535 1.570982 0
M  V30 14 C 0.162744 1.802154 1.565701 0
M  V30 15 C 1.310762 2.371827 2.141729 0
M  V30 16 C 1.474372 3.733649 2.284837 0
M  V30 17 N 0.485570 4.539893 1.849693 0
M  V30 18 C -0.630143 4.040380 1.291272 0
M  V30 19 N -1.767017 4.525388 0.737663 0
M  V30 20 N -2.545860 3.552663 0.300965 0
M  V30 21 C -1.976147 2.334495 0.536730 0
M  V30 22 C -2.545270 1.002536 0.231572 0
M  V30 23 F -3.709960 1.265066 -0.516232 0
M  V30 24 F -1.764577 0.171296 -0.482245 0
M  V30 25 F -3.083922 0.417661 1.391973 0
M  V30 26 C -0.805195 2.683409 1.143966 0
M  V30 27 C -0.340215 -0.683445 2.253598 0
M  V30 28 C -1.774502 -2.614634 3.851851 0
M  V30 29 C -2.216122 -3.079242 2.473680 0
M  V30 30 H 1.146482 -3.410336 1.065808 0
M  V30 31 H 3.408299 -0.992410 -0.691122 0
M  V30 32 H 3.074658 -2.730418 -0.190430 0
M  V30 33 H 1.414686 -1.122365 -2.228192 0
M  V30 34 H 0.053398 -2.671980 -1.798291 0
M  V30 35 H 3.632480 -1.563188 -3.080600 0
M  V30 36 H 2.345679 -2.462779 -3.911396 0
M  V30 37 H 3.771139 -4.029894 -3.485913 0
M  V30 38 H 1.829235 0.617006 -0.003409 0
M  V30 39 H 2.181299 1.820457 2.531682 0
M  V30 40 H 2.320433 4.209790 2.712619 0
M  V30 41 H -1.988352 5.562481 0.671364 0
M  V30 42 H -1.073553 -0.246669 2.949949 0
M  V30 43 H -1.994059 -3.361839 4.659952 0
M  V30 44 H -2.088613 -1.587284 4.090908 0
M  V30 45 H -2.648680 -2.338463 1.787668 0
M  V30 46 H -2.560272 -4.105774 2.334377 0
M  V30 END ATOM
M  V30 BEGIN BOND
M  V30 1 3 1 2
M  V30 2 1 2 3
M  V30 3 1 3 4
M  V30 4 2 4 5
M  V30 5 1 5 6
M  V30 6 1 6 7
M  V30 7 1 7 8
M  V30 8 1 8 9
M  V30 9 1 8 10
M  V30 10 1 10 11
M  V30 11 2 6 12
M  V30 12 1 12 13
M  V30 13 1 13 14
M  V30 14 2 14 15
M  V30 15 1 15 16
M  V30 16 2 16 17
M  V30 17 1 17 18
M  V30 18 1 18 19
M  V30 19 1 19 20
M  V30 20 2 20 21
M  V30 21 1 21 22
M  V30 22 1 22 23
M  V30 23 1 22 24
M  V30 24 1 22 25
M  V30 25 1 21 26
M  V30 26 2 13 27
M  V30 27 1 3 28
M  V30 28 1 28 29
M  V30 29 1 29 3
M  V30 30 1 27 4
M  V30 31 1 26 14
M  V30 32 2 26 18
M  V30 33 1 5 30
M  V30 34 1 7 31
M  V30 35 1 7 32
M  V30 36 1 8 33 CFG=3
M  V30 37 1 9 34
M  V30 38 1 10 35
M  V30 39 1 10 36
M  V30 40 1 11 37
M  V30 41 1 12 38
M  V30 42 1 15 39
M  V30 43 1 16 40
M  V30 44 1 19 41
M  V30 45 1 27 42
M  V30 46 1 28 43
M  V30 47 1 28 44
M  V30 48 1 29 45
M  V30 49 1 29 46
M  V30 END BOND
M  V30 END CTAB
M  END
>  <Dataset>  (300) 
ChEMBL_Kinases

>  <Ligand_Instance>  (300) 
nan

>  <PDB_ID>  (300) 
nan

>  <Standardized_SMILES>  (300) 
N#CC1(c2cc(C[C@H](O)CO)cc(-c3ccnc4[nH]nc(C(F)(F)F)c34)c2)CC1

>  <Name>  (300) 
nan

>  <Pocket>  (300) 
nan

>  <ATP_Site>  (300) 
nan

>  <Peripheral>  (300) 
nan

>  <Num_H_Atoms_ProtBoundConf>  (300) 
nan

>  <Num_Resolved_Atoms>  (300) 
nan

>  <Num_Not_Resolved_Atoms>  (300) 
nan

$$$$
CHEMBL3310286
     RDKit          3D

  0  0  0  0  0  0  0  0  0  0999 V3000
M  V30 BEGIN CTAB
M  V30 COUNTS 45 48 0 0 0
M  V30 BEGIN ATOM
M  V30 1 C -2.414679 -2.383470 3.038225 0
M  V30 2 C -1.533059 -1.563257 3.943608 0 CFG=1
M  V30 3 O -1.869754 -1.879296 5.255648 0
M  V30 4 C -0.066791 -1.853504 3.727352 0
M  V30 5 C 0.342166 -1.556325 2.336504 0
M  V30 6 C 0.781107 -0.282137 2.090113 0
M  V30 7 C 1.200235 0.173739 0.864421 0
M  V30 8 C 1.687692 1.403428 0.288277 0
M  V30 9 C 3.071905 1.274723 0.078196 0
M  V30 10 C 3.820378 2.332222 -0.456513 0
M  V30 11 N 3.177369 3.488532 -0.769423 0
M  V30 12 C 1.856067 3.625751 -0.575339 0
M  V30 13 N 0.936650 4.579523 -0.792458 0
M  V30 14 N -0.262903 4.161437 -0.430646 0
M  V30 15 C -0.186611 2.881227 0.054725 0
M  V30 16 C -1.327047 2.133817 0.583116 0
M  V30 17 F -1.253239 1.921261 1.931619 0
M  V30 18 F -1.549092 0.947659 -0.111487 0
M  V30 19 F -2.473047 2.868933 0.381329 0
M  V30 20 C 1.143662 2.594646 -0.056054 0
M  V30 21 C 1.147420 -0.791312 -0.160576 0
M  V30 22 C 0.708821 -2.108109 0.029353 0
M  V30 23 C 0.630195 -3.155022 -0.999215 0
M  V30 24 C 0.813478 -4.541128 -0.502532 0
M  V30 25 N 0.947782 -5.620346 -0.121872 0
M  V30 26 C 0.997103 -2.959832 -2.403775 0
M  V30 27 C -0.455139 -3.041221 -2.094585 0
M  V30 28 C 0.302050 -2.476524 1.313843 0
M  V30 29 H -2.497594 -3.433676 3.358881 0
M  V30 30 H -2.076792 -2.280719 1.977894 0
M  V30 31 H -3.439997 -1.960871 3.042939 0
M  V30 32 H -1.767332 -0.481905 3.825139 0
M  V30 33 H -2.852134 -2.088606 5.262420 0
M  V30 34 H 0.091699 -2.923761 3.982942 0
M  V30 35 H 0.531659 -1.227153 4.404550 0
M  V30 36 H 0.877327 0.560720 2.796300 0
M  V30 37 H 3.719445 0.430566 0.272811 0
M  V30 38 H 4.883302 2.309196 -0.645567 0
M  V30 39 H 1.123555 5.527738 -1.191504 0
M  V30 40 H 1.424504 -0.675006 -1.210068 0
M  V30 41 H 1.369121 -3.836642 -2.995324 0
M  V30 42 H 1.381397 -1.983513 -2.755086 0
M  V30 43 H -1.055923 -3.936251 -2.297143 0
M  V30 44 H -1.010029 -2.072966 -2.075566 0
M  V30 45 H -0.046096 -3.475570 1.524672 0
M  V30 END ATOM
M  V30 BEGIN BOND
M  V30 1 1 1 2
M  V30 2 1 2 3
M  V30 3 1 2 4
M  V30 4 1 4 5
M  V30 5 2 5 6
M  V30 6 1 6 7
M  V30 7 1 7 8
M  V30 8 2 8 9
M  V30 9 1 9 10
M  V30 10 2 10 11
M  V30 11 1 11 12
M  V30 12 1 12 13
M  V30 13 1 13 14
M  V30 14 2 14 15
M  V30 15 1 15 16
M  V30 16 1 16 17
M  V30 17 1 16 18
M  V30 18 1 16 19
M  V30 19 1 15 20
M  V30 20 2 7 21
M  V30 21 1 21 22
M  V30 22 1 22 23
M  V30 23 1 23 24
M  V30 24 3 24 25
M  V30 25 1 23 26
M  V30 26 1 26 27
M  V30 27 2 22 28
M  V30 28 1 28 5
M  V30 29 1 20 8
M  V30 30 1 27 23
M  V30 31 2 20 12
M  V30 32 1 1 29
M  V30 33 1 1 30
M  V30 34 1 1 31
M  V30 35 1 2 32 CFG=1
M  V30 36 1 3 33
M  V30 37 1 4 34
M  V30 38 1 4 35
M  V30 39 1 6 36
M  V30 40 1 9 37
M  V30 41 1 10 38
M  V30 42 1 13 39
M  V30 43 1 21 40
M  V30 44 1 26 41
M  V30 45 1 26 42
M  V30 46 1 27 43
M  V30 47 1 27 44
M  V30 48 1 28 45
M  V30 END BOND
M  V30 END CTAB
M  END
>  <Dataset>  (301) 
ChEMBL_Kinases

>  <Ligand_Instance>  (301) 
nan

>  <PDB_ID>  (301) 
nan

>  <Standardized_SMILES>  (301) 
C[C@@H](O)Cc1cc(-c2ccnc3[nH]nc(C(F)(F)F)c23)cc(C2(C#N)CC2)c1

>  <Name>  (301) 
nan

>  <Pocket>  (301) 
nan

>  <ATP_Site>  (301) 
nan

>  <Peripheral>  (301) 
nan

>  <Num_H_Atoms_ProtBoundConf>  (301) 
nan

>  <Num_Resolved_Atoms>  (301) 
nan

>  <Num_Not_Resolved_Atoms>  (301) 
nan

$$$$
CHEMBL3318031
     RDKit          3D

  0  0  0  0  0  0  0  0  0  0999 V3000
M  V30 BEGIN CTAB
M  V30 COUNTS 49 51 0 0 0
M  V30 BEGIN ATOM
M  V30 1 C 1.220062 -5.607916 2.386315 0
M  V30 2 O 0.146368 -6.360744 1.833805 0
M  V30 3 C -0.808242 -5.791003 1.035854 0
M  V30 4 C -0.797351 -4.453514 0.712257 0
M  V30 5 C -1.746724 -3.849532 -0.090612 0
M  V30 6 C -1.594413 -2.412002 -0.340894 0
M  V30 7 C -0.332850 -1.857894 -0.392308 0
M  V30 8 N -0.100555 -0.572256 -0.612559 0
M  V30 9 C -1.156965 0.269561 -0.802076 0
M  V30 10 C -0.934160 1.616957 -1.033673 0
M  V30 11 N 0.446909 2.037963 -1.055909 0
M  V30 12 C 0.888336 2.422807 0.254177 0
M  V30 13 O -0.017400 2.309732 1.126123 0
M  V30 14 N 2.190749 2.882394 0.563107 0
M  V30 15 C 2.570555 3.256988 1.918063 0
M  V30 16 C 3.990099 3.706051 1.984629 0
M  V30 17 C 1.569583 4.295347 2.376814 0
M  V30 18 C 2.416387 2.057241 2.853560 0
M  V30 19 C -1.968483 2.514618 -1.232414 0
M  V30 20 C -3.234629 1.959951 -1.181148 0
M  V30 21 N -3.465316 0.653234 -0.957055 0
M  V30 22 C -2.452182 -0.219030 -0.763617 0
M  V30 23 C -2.667343 -1.564111 -0.532096 0
M  V30 24 C -2.752488 -4.652648 -0.583939 0
M  V30 25 C -2.771831 -6.003493 -0.262873 0
M  V30 26 C -1.816635 -6.594598 0.540791 0
M  V30 27 O -1.875794 -7.945010 0.834355 0
M  V30 28 H 1.930756 -6.253252 2.904153 0
M  V30 29 H 1.675150 -5.076348 1.504080 0
M  V30 30 H 0.802303 -4.883276 3.101165 0
M  V30 31 H 0.027702 -3.867458 1.135025 0
M  V30 32 H 0.556308 -2.465079 -0.250966 0
M  V30 33 H 1.165875 2.111403 -1.834887 0
M  V30 34 H 2.857324 2.933944 -0.243712 0
M  V30 35 H 4.046223 4.798806 1.798522 0
M  V30 36 H 4.542693 3.162243 1.179230 0
M  V30 37 H 4.432665 3.419068 2.948750 0
M  V30 38 H 0.683055 3.798766 2.828519 0
M  V30 39 H 1.304013 4.905589 1.492053 0
M  V30 40 H 1.980797 4.933766 3.194604 0
M  V30 41 H 3.067550 2.239586 3.719504 0
M  V30 42 H 2.793987 1.126345 2.345968 0
M  V30 43 H 1.358409 1.902409 3.157330 0
M  V30 44 H -1.764984 3.558656 -1.410683 0
M  V30 45 H -4.053730 2.677799 -1.339840 0
M  V30 46 H -3.662905 -1.960182 -0.498814 0
M  V30 47 H -3.490934 -4.168739 -1.210986 0
M  V30 48 H -3.586953 -6.591750 -0.678455 0
M  V30 49 H -1.018091 -8.508842 0.826363 0
M  V30 END ATOM
M  V30 BEGIN BOND
M  V30 1 1 1 2
M  V30 2 1 2 3
M  V30 3 2 3 4
M  V30 4 1 4 5
M  V30 5 1 5 6
M  V30 6 2 6 7
M  V30 7 1 7 8
M  V30 8 2 8 9
M  V30 9 1 9 10
M  V30 10 1 10 11
M  V30 11 1 11 12
M  V30 12 2 12 13
M  V30 13 1 12 14
M  V30 14 1 14 15
M  V30 15 1 15 16
M  V30 16 1 15 17
M  V30 17 1 15 18
M  V30 18 2 10 19
M  V30 19 1 19 20
M  V30 20 2 20 21
M  V30 21 1 21 22
M  V30 22 2 22 23
M  V30 23 2 5 24
M  V30 24 1 24 25
M  V30 25 2 25 26
M  V30 26 1 26 27
M  V30 27 1 26 3
M  V30 28 1 23 6
M  V30 29 1 22 9
M  V30 30 1 1 28
M  V30 31 1 1 29
M  V30 32 1 1 30
M  V30 33 1 4 31
M  V30 34 1 7 32
M  V30 35 1 11 33
M  V30 36 1 14 34
M  V30 37 1 16 35
M  V30 38 1 16 36
M  V30 39 1 16 37
M  V30 40 1 17 38
M  V30 41 1 17 39
M  V30 42 1 17 40
M  V30 43 1 18 41
M  V30 44 1 18 42
M  V30 45 1 18 43
M  V30 46 1 19 44
M  V30 47 1 20 45
M  V30 48 1 23 46
M  V30 49 1 24 47
M  V30 50 1 25 48
M  V30 51 1 27 49
M  V30 END BOND
M  V30 END CTAB
M  END
>  <Dataset>  (302) 
ChEMBL_Kinases

>  <Ligand_Instance>  (302) 
nan

>  <PDB_ID>  (302) 
nan

>  <Standardized_SMILES>  (302) 
COc1cc(-c2cnc3c(NC(=O)NC(C)(C)C)ccnc3c2)ccc1O

>  <Name>  (302) 
nan

>  <Pocket>  (302) 
nan

>  <ATP_Site>  (302) 
nan

>  <Peripheral>  (302) 
nan

>  <Num_H_Atoms_ProtBoundConf>  (302) 
nan

>  <Num_Resolved_Atoms>  (302) 
nan

>  <Num_Not_Resolved_Atoms>  (302) 
nan

$$$$
CHEMBL3318009
     RDKit          3D

  0  0  0  0  0  0  0  0  0  0999 V3000
M  V30 BEGIN CTAB
M  V30 COUNTS 52 54 0 0 0
M  V30 BEGIN ATOM
M  V30 1 C -2.859197 -8.326969 0.147274 0
M  V30 2 O -1.694433 -7.595906 -0.091569 0
M  V30 3 C -1.630349 -6.212658 -0.180339 0
M  V30 4 C -2.729252 -5.414898 -0.038781 0
M  V30 5 C -2.647026 -4.026495 -0.130905 0
M  V30 6 C -1.392749 -3.455639 -0.375889 0
M  V30 7 C -1.160062 -2.015166 -0.496512 0
M  V30 8 C 0.052050 -1.462517 -0.105219 0
M  V30 9 N 0.292469 -0.134720 -0.206357 0
M  V30 10 C -0.629743 0.721618 -0.691417 0
M  V30 11 C -0.329805 2.068673 -0.772190 0
M  V30 12 N 0.924380 2.610978 -0.362900 0
M  V30 13 C 0.934272 3.002800 1.025128 0
M  V30 14 O -0.052480 2.882356 1.797214 0
M  V30 15 N 2.166510 3.562013 1.521738 0
M  V30 16 C 2.241619 3.974820 2.905167 0
M  V30 17 C 3.598371 4.532809 3.245793 0
M  V30 18 C 2.015780 2.711594 3.741335 0
M  V30 19 C 1.173823 4.997384 3.210654 0
M  V30 20 C -1.344540 2.884016 -1.287305 0
M  V30 21 C -2.568736 2.393986 -1.692497 0
M  V30 22 N -2.797420 1.070595 -1.587424 0
M  V30 23 C -1.853120 0.220140 -1.094611 0
M  V30 24 C -2.110350 -1.142080 -0.994976 0
M  V30 25 C -0.270522 -4.277322 -0.520061 0
M  V30 26 C -0.378091 -5.655308 -0.424222 0
M  V30 27 O 0.731774 -6.492832 -0.565420 0
M  V30 28 C 1.993824 -5.949688 -0.810166 0
M  V30 29 H -3.416067 -8.041266 1.039571 0
M  V30 30 H -2.540181 -9.402127 0.265544 0
M  V30 31 H -3.569201 -8.323488 -0.707188 0
M  V30 32 H -3.716075 -5.842205 0.152748 0
M  V30 33 H -3.488511 -3.349810 -0.026193 0
M  V30 34 H 0.855291 -2.065390 0.296282 0
M  V30 35 H 1.770051 2.740549 -0.930516 0
M  V30 36 H 3.009123 3.684782 0.933735 0
M  V30 37 H 3.531384 5.068307 4.221047 0
M  V30 38 H 4.342277 3.710043 3.386160 0
M  V30 39 H 3.954729 5.271826 2.514553 0
M  V30 40 H 2.353816 1.808109 3.162531 0
M  V30 41 H 2.697165 2.729321 4.628450 0
M  V30 42 H 0.967584 2.564826 4.016495 0
M  V30 43 H 1.041840 5.667715 2.343250 0
M  V30 44 H 1.433320 5.604203 4.103763 0
M  V30 45 H 0.204550 4.495789 3.490041 0
M  V30 46 H -1.144158 3.947229 -1.365226 0
M  V30 47 H -3.283690 3.109229 -2.076080 0
M  V30 48 H -3.071649 -1.519730 -1.314211 0
M  V30 49 H 0.699140 -3.835955 -0.709472 0
M  V30 50 H 2.225445 -5.073295 -0.157229 0
M  V30 51 H 2.802582 -6.685162 -0.588275 0
M  V30 52 H 2.028578 -5.631623 -1.861636 0
M  V30 END ATOM
M  V30 BEGIN BOND
M  V30 1 1 1 2
M  V30 2 1 2 3
M  V30 3 2 3 4
M  V30 4 1 4 5
M  V30 5 2 5 6
M  V30 6 1 6 7
M  V30 7 2 7 8
M  V30 8 1 8 9
M  V30 9 2 9 10
M  V30 10 1 10 11
M  V30 11 1 11 12
M  V30 12 1 12 13
M  V30 13 2 13 14
M  V30 14 1 13 15
M  V30 15 1 15 16
M  V30 16 1 16 17
M  V30 17 1 16 18
M  V30 18 1 16 19
M  V30 19 2 11 20
M  V30 20 1 20 21
M  V30 21 2 21 22
M  V30 22 1 22 23
M  V30 23 2 23 24
M  V30 24 1 6 25
M  V30 25 2 25 26
M  V30 26 1 26 27
M  V30 27 1 27 28
M  V30 28 1 26 3
M  V30 29 1 24 7
M  V30 30 1 23 10
M  V30 31 1 1 29
M  V30 32 1 1 30
M  V30 33 1 1 31
M  V30 34 1 4 32
M  V30 35 1 5 33
M  V30 36 1 8 34
M  V30 37 1 12 35
M  V30 38 1 15 36
M  V30 39 1 17 37
M  V30 40 1 17 38
M  V30 41 1 17 39
M  V30 42 1 18 40
M  V30 43 1 18 41
M  V30 44 1 18 42
M  V30 45 1 19 43
M  V30 46 1 19 44
M  V30 47 1 19 45
M  V30 48 1 20 46
M  V30 49 1 21 47
M  V30 50 1 24 48
M  V30 51 1 25 49
M  V30 52 1 28 50
M  V30 53 1 28 51
M  V30 54 1 28 52
M  V30 END BOND
M  V30 END CTAB
M  END
>  <Dataset>  (303) 
ChEMBL_Kinases

>  <Ligand_Instance>  (303) 
nan

>  <PDB_ID>  (303) 
nan

>  <Standardized_SMILES>  (303) 
COc1ccc(-c2cnc3c(NC(=O)NC(C)(C)C)ccnc3c2)cc1OC

>  <Name>  (303) 
nan

>  <Pocket>  (303) 
nan

>  <ATP_Site>  (303) 
nan

>  <Peripheral>  (303) 
nan

>  <Num_H_Atoms_ProtBoundConf>  (303) 
nan

>  <Num_Resolved_Atoms>  (303) 
nan

>  <Num_Not_Resolved_Atoms>  (303) 
nan

$$$$
CHEMBL3318008
     RDKit          3D

  0  0  0  0  0  0  0  0  0  0999 V3000
M  V30 BEGIN CTAB
M  V30 COUNTS 46 48 0 0 0
M  V30 BEGIN ATOM
M  V30 1 C 5.167008 -5.600446 0.123652 0
M  V30 2 C 3.716522 -5.954195 0.252965 0
M  V30 3 N 2.891671 -5.339856 -0.781033 0
M  V30 4 C 2.844537 -3.945020 -0.890977 0
M  V30 5 O 3.541506 -3.268982 -0.061481 0
M  V30 6 N 2.070382 -3.224527 -1.867430 0
M  V30 7 C 2.188579 -1.793689 -1.776434 0
M  V30 8 C 3.159074 -1.092396 -2.471789 0
M  V30 9 C 3.193928 0.289819 -2.319687 0
M  V30 10 N 2.310097 0.948165 -1.517303 0
M  V30 11 C 1.359509 0.266293 -0.835537 0
M  V30 12 C 0.515692 1.032276 -0.051503 0
M  V30 13 C -0.470260 0.370079 0.661497 0
M  V30 14 C -1.439681 1.027158 1.533138 0
M  V30 15 C -1.914318 0.335555 2.645477 0
M  V30 16 C -2.831573 0.886822 3.517553 0
M  V30 17 C -3.297456 2.164937 3.284985 0
M  V30 18 O -4.211061 2.732696 4.141140 0
M  V30 19 C -4.740039 2.119007 5.274992 0
M  V30 20 C -2.845377 2.874180 2.191360 0
M  V30 21 O -3.343905 4.148935 2.005254 0
M  V30 22 C -2.962948 4.966781 0.934277 0
M  V30 23 C -1.928331 2.302150 1.333646 0
M  V30 24 C -0.532137 -1.019319 0.530489 0
M  V30 25 N 0.327922 -1.714630 -0.257495 0
M  V30 26 C 1.298325 -1.107373 -0.965122 0
M  V30 27 H 5.709489 -6.487633 -0.277864 0
M  V30 28 H 5.268274 -4.749632 -0.595102 0
M  V30 29 H 5.580326 -5.380132 1.114907 0
M  V30 30 H 3.358390 -5.658353 1.248288 0
M  V30 31 H 3.593722 -7.074613 0.228160 0
M  V30 32 H 2.322808 -5.913401 -1.457094 0
M  V30 33 H 1.548043 -3.872589 -2.483276 0
M  V30 34 H 3.858270 -1.618675 -3.107661 0
M  V30 35 H 3.967802 0.806298 -2.879273 0
M  V30 36 H 0.572531 2.089050 0.040048 0
M  V30 37 H -1.532964 -0.670173 2.808155 0
M  V30 38 H -3.193525 0.338984 4.379851 0
M  V30 39 H -5.266137 2.892648 5.869883 0
M  V30 40 H -5.527123 1.390929 4.954801 0
M  V30 41 H -3.984784 1.655188 5.942006 0
M  V30 42 H -3.371728 5.988019 1.172231 0
M  V30 43 H -3.394004 4.566258 -0.005455 0
M  V30 44 H -1.863022 5.038662 0.794917 0
M  V30 45 H -1.566929 2.856082 0.468065 0
M  V30 46 H -1.258809 -1.647805 1.037678 0
M  V30 END ATOM
M  V30 BEGIN BOND
M  V30 1 1 1 2
M  V30 2 1 2 3
M  V30 3 1 3 4
M  V30 4 2 4 5
M  V30 5 1 4 6
M  V30 6 1 6 7
M  V30 7 2 7 8
M  V30 8 1 8 9
M  V30 9 2 9 10
M  V30 10 1 10 11
M  V30 11 2 11 12
M  V30 12 1 12 13
M  V30 13 1 13 14
M  V30 14 2 14 15
M  V30 15 1 15 16
M  V30 16 2 16 17
M  V30 17 1 17 18
M  V30 18 1 18 19
M  V30 19 1 17 20
M  V30 20 1 20 21
M  V30 21 1 21 22
M  V30 22 2 20 23
M  V30 23 2 13 24
M  V30 24 1 24 25
M  V30 25 2 25 26
M  V30 26 1 26 7
M  V30 27 1 26 11
M  V30 28 1 23 14
M  V30 29 1 1 27
M  V30 30 1 1 28
M  V30 31 1 1 29
M  V30 32 1 2 30
M  V30 33 1 2 31
M  V30 34 1 3 32
M  V30 35 1 6 33
M  V30 36 1 8 34
M  V30 37 1 9 35
M  V30 38 1 12 36
M  V30 39 1 15 37
M  V30 40 1 16 38
M  V30 41 1 19 39
M  V30 42 1 19 40
M  V30 43 1 19 41
M  V30 44 1 22 42
M  V30 45 1 22 43
M  V30 46 1 22 44
M  V30 47 1 23 45
M  V30 48 1 24 46
M  V30 END BOND
M  V30 END CTAB
M  END
>  <Dataset>  (304) 
ChEMBL_Kinases

>  <Ligand_Instance>  (304) 
nan

>  <PDB_ID>  (304) 
nan

>  <Standardized_SMILES>  (304) 
CCNC(=O)Nc1ccnc2cc(-c3ccc(OC)c(OC)c3)cnc12

>  <Name>  (304) 
nan

>  <Pocket>  (304) 
nan

>  <ATP_Site>  (304) 
nan

>  <Peripheral>  (304) 
nan

>  <Num_H_Atoms_ProtBoundConf>  (304) 
nan

>  <Num_Resolved_Atoms>  (304) 
nan

>  <Num_Not_Resolved_Atoms>  (304) 
nan

$$$$
CHEMBL3318007
     RDKit          3D

  0  0  0  0  0  0  0  0  0  0999 V3000
M  V30 BEGIN CTAB
M  V30 COUNTS 48 52 0 0 0
M  V30 BEGIN ATOM
M  V30 1 O 3.777715 -3.466060 1.799441 0
M  V30 2 C 2.674437 -2.831135 1.877575 0
M  V30 3 O 1.545792 -3.593254 2.124532 0
M  V30 4 C 2.756229 -1.346609 1.690560 0 CFG=1
M  V30 5 C 4.218738 -1.038598 1.450821 0
M  V30 6 C 4.374529 0.449583 1.780704 0
M  V30 7 C 3.129025 1.108240 1.227895 0
M  V30 8 C 2.636849 0.357427 -0.017651 0
M  V30 9 C 3.869612 -0.013609 -0.815309 0
M  V30 10 C 4.530697 -1.154421 -0.045195 0
M  V30 11 C 1.999997 -0.959004 0.434151 0 CFG=2
M  V30 12 N 0.587112 -0.820280 0.625237 0
M  V30 13 C -0.497999 -0.624622 -0.268263 0
M  V30 14 N -1.776718 -0.477605 0.187839 0
M  V30 15 C -2.773928 -0.309867 -0.673012 0
M  V30 16 C -4.109982 -0.159957 -0.111409 0
M  V30 17 C -5.273211 0.023017 -0.823545 0
M  V30 18 N -6.304341 0.119980 0.038462 0
M  V30 19 C -5.874122 0.008363 1.307859 0
M  V30 20 N -6.526699 0.042062 2.486767 0
M  V30 21 C -5.856865 -0.095885 3.642718 0
M  V30 22 C -4.476440 -0.273467 3.582245 0
M  V30 23 F -3.742917 -0.418571 4.711709 0
M  V30 24 C -3.807088 -0.308078 2.374048 0
M  V30 25 C -4.517161 -0.164210 1.202866 0
M  V30 26 N -2.593747 -0.275881 -1.991207 0
M  V30 27 C -1.360185 -0.412344 -2.559865 0
M  V30 28 C -0.345082 -0.585301 -1.638408 0
M  V30 29 F 0.877296 -0.736199 -2.204582 0
M  V30 30 H 1.426105 -4.538902 1.786763 0
M  V30 31 H 2.435559 -0.807782 2.591973 0
M  V30 32 H 4.909653 -1.669654 2.010473 0
M  V30 33 H 4.446439 0.538329 2.877989 0
M  V30 34 H 5.260768 0.847056 1.245804 0
M  V30 35 H 3.420566 2.141466 0.901638 0
M  V30 36 H 2.327562 1.111146 1.964333 0
M  V30 37 H 1.941653 1.020474 -0.541290 0
M  V30 38 H 4.567380 0.845323 -0.920690 0
M  V30 39 H 3.517793 -0.385149 -1.798943 0
M  V30 40 H 5.627298 -1.014839 -0.137735 0
M  V30 41 H 4.224836 -2.153527 -0.430715 0
M  V30 42 H 2.197243 -1.710850 -0.327665 0
M  V30 43 H 0.312467 -0.877568 1.651712 0
M  V30 44 H -5.392125 0.085501 -1.898653 0
M  V30 45 H -7.300029 0.262112 -0.239437 0
M  V30 46 H -6.362239 -0.072568 4.619539 0
M  V30 47 H -2.747069 -0.445899 2.360861 0
M  V30 48 H -1.211379 -0.385593 -3.618215 0
M  V30 END ATOM
M  V30 BEGIN BOND
M  V30 1 2 1 2
M  V30 2 1 2 3
M  V30 3 1 2 4
M  V30 4 1 4 5
M  V30 5 1 5 6
M  V30 6 1 6 7
M  V30 7 1 7 8
M  V30 8 1 8 9
M  V30 9 1 9 10
M  V30 10 1 8 11
M  V30 11 1 11 12
M  V30 12 1 12 13
M  V30 13 2 13 14
M  V30 14 1 14 15
M  V30 15 1 15 16
M  V30 16 2 16 17
M  V30 17 1 17 18
M  V30 18 1 18 19
M  V30 19 2 19 20
M  V30 20 1 20 21
M  V30 21 2 21 22
M  V30 22 1 22 23
M  V30 23 1 22 24
M  V30 24 2 24 25
M  V30 25 2 15 26
M  V30 26 1 26 27
M  V30 27 2 27 28
M  V30 28 1 28 29
M  V30 29 1 11 4
M  V30 30 1 28 13
M  V30 31 1 10 5
M  V30 32 1 25 16
M  V30 33 1 25 19
M  V30 34 1 3 30
M  V30 35 1 4 31 CFG=1
M  V30 36 1 5 32
M  V30 37 1 6 33
M  V30 38 1 6 34
M  V30 39 1 7 35
M  V30 40 1 7 36
M  V30 41 1 8 37
M  V30 42 1 9 38
M  V30 43 1 9 39
M  V30 44 1 10 40
M  V30 45 1 10 41
M  V30 46 1 11 42 CFG=3
M  V30 47 1 12 43
M  V30 48 1 17 44
M  V30 49 1 18 45
M  V30 50 1 21 46
M  V30 51 1 24 47
M  V30 52 1 27 48
M  V30 END BOND
M  V30 END CTAB
M  END
>  <Dataset>  (305) 
ChEMBL_Kinases

>  <Ligand_Instance>  (305) 
nan

>  <PDB_ID>  (305) 
nan

>  <Standardized_SMILES>  (305) 
O=C(O)[C@H]1C2CCC(CC2)[C@@H]1Nc1nc(-c2c[nH]c3ncc(F)cc23)ncc1F

>  <Name>  (305) 
PIMODIVIR

>  <Pocket>  (305) 
nan

>  <ATP_Site>  (305) 
nan

>  <Peripheral>  (305) 
nan

>  <Num_H_Atoms_ProtBoundConf>  (305) 
nan

>  <Num_Resolved_Atoms>  (305) 
nan

>  <Num_Not_Resolved_Atoms>  (305) 
nan

$$$$
CHEMBL3315292
     RDKit          3D

  0  0  0  0  0  0  0  0  0  0999 V3000
M  V30 BEGIN CTAB
M  V30 COUNTS 53 57 0 0 0
M  V30 BEGIN ATOM
M  V30 1 N 1.169605 -7.465803 -1.649534 0
M  V30 2 C 1.461163 -6.348823 -1.602535 0
M  V30 3 C 1.800508 -4.951978 -1.549545 0
M  V30 4 C 2.222358 -4.237637 -2.672693 0
M  V30 5 C 2.529391 -2.888497 -2.525519 0
M  V30 6 C 2.429195 -2.252705 -1.321762 0
M  V30 7 C 2.747533 -0.840294 -1.153339 0
M  V30 8 C 3.175806 0.018431 -2.138201 0
M  V30 9 C 3.348761 1.250422 -1.506230 0
M  V30 10 C 3.019115 1.080135 -0.177381 0
M  V30 11 C 3.007092 2.003584 0.952505 0
M  V30 12 N 4.104801 2.744569 1.175574 0
M  V30 13 C 3.876971 3.520152 2.258934 0
M  V30 14 C 2.588535 3.220325 2.689827 0
M  V30 15 N 2.057310 2.285588 1.881570 0
M  V30 16 C 0.830091 1.587632 1.790747 0
M  V30 17 C -0.263007 2.301376 1.340257 0
M  V30 18 C -1.453588 1.602835 1.258076 0
M  V30 19 C -1.581176 0.251386 1.602582 0
M  V30 20 C -2.871494 -0.400965 1.484500 0
M  V30 21 O -3.602503 0.272951 0.481316 0
M  V30 22 C -3.746825 -0.338816 2.713155 0
M  V30 23 C -5.170263 -0.568415 2.237333 0
M  V30 24 N -5.219491 -1.301888 1.011917 0
M  V30 25 C -4.232271 -2.357338 0.901908 0
M  V30 26 C -2.824222 -1.835359 1.043714 0
M  V30 27 C -0.458381 -0.414286 2.046642 0
M  V30 28 C 0.758418 0.240425 2.147020 0
M  V30 29 O 2.675811 -0.162492 -0.032666 0
M  V30 30 C 2.010152 -3.007220 -0.258346 0
M  V30 31 C 1.684387 -4.346440 -0.307219 0
M  V30 32 H 2.297902 -4.751774 -3.620694 0
M  V30 33 H 2.860166 -2.307850 -3.382356 0
M  V30 34 H 3.355027 -0.166960 -3.184052 0
M  V30 35 H 3.671608 2.198236 -1.899115 0
M  V30 36 H 4.497114 4.256676 2.771379 0
M  V30 37 H 1.984151 3.594682 3.517951 0
M  V30 38 H -0.185508 3.337949 1.071310 0
M  V30 39 H -2.357758 2.116310 0.906732 0
M  V30 40 H -2.967131 0.454336 -0.232386 0
M  V30 41 H -3.432493 -1.215080 3.347107 0
M  V30 42 H -3.671620 0.606458 3.276892 0
M  V30 43 H -5.568482 0.464392 2.020469 0
M  V30 44 H -5.834408 -0.966524 3.030205 0
M  V30 45 H -6.153000 -1.754700 0.921797 0
M  V30 46 H -4.337552 -2.772511 -0.121278 0
M  V30 47 H -4.435924 -3.202420 1.592723 0
M  V30 48 H -2.280914 -1.872936 0.088043 0
M  V30 49 H -2.295486 -2.507855 1.733098 0
M  V30 50 H -0.515472 -1.456767 2.321964 0
M  V30 51 H 1.603776 -0.312075 2.495546 0
M  V30 52 H 1.922394 -2.523852 0.710466 0
M  V30 53 H 1.355894 -4.892574 0.579191 0
M  V30 END ATOM
M  V30 BEGIN BOND
M  V30 1 3 1 2
M  V30 2 1 2 3
M  V30 3 2 3 4
M  V30 4 1 4 5
M  V30 5 2 5 6
M  V30 6 1 6 7
M  V30 7 2 7 8
M  V30 8 1 8 9
M  V30 9 2 9 10
M  V30 10 1 10 11
M  V30 11 2 11 12
M  V30 12 1 12 13
M  V30 13 2 13 14
M  V30 14 1 14 15
M  V30 15 1 15 16
M  V30 16 2 16 17
M  V30 17 1 17 18
M  V30 18 2 18 19
M  V30 19 1 19 20
M  V30 20 1 20 21
M  V30 21 1 20 22
M  V30 22 1 22 23
M  V30 23 1 23 24
M  V30 24 1 24 25
M  V30 25 1 25 26
M  V30 26 1 19 27
M  V30 27 2 27 28
M  V30 28 1 10 29
M  V30 29 1 6 30
M  V30 30 2 30 31
M  V30 31 1 31 3
M  V30 32 1 29 7
M  V30 33 1 15 11
M  V30 34 1 28 16
M  V30 35 1 26 20
M  V30 36 1 4 32
M  V30 37 1 5 33
M  V30 38 1 8 34
M  V30 39 1 9 35
M  V30 40 1 13 36
M  V30 41 1 14 37
M  V30 42 1 17 38
M  V30 43 1 18 39
M  V30 44 1 21 40
M  V30 45 1 22 41
M  V30 46 1 22 42
M  V30 47 1 23 43
M  V30 48 1 23 44
M  V30 49 1 24 45
M  V30 50 1 25 46
M  V30 51 1 25 47
M  V30 52 1 26 48
M  V30 53 1 26 49
M  V30 54 1 27 50
M  V30 55 1 28 51
M  V30 56 1 30 52
M  V30 57 1 31 53
M  V30 END BOND
M  V30 END CTAB
M  END
>  <Dataset>  (306) 
ChEMBL_Kinases

>  <Ligand_Instance>  (306) 
nan

>  <PDB_ID>  (306) 
nan

>  <Standardized_SMILES>  (306) 
N#Cc1ccc(-c2ccc(-c3nccn3-c3ccc(C4(O)CCNCC4)cc3)o2)cc1

>  <Name>  (306) 
nan

>  <Pocket>  (306) 
nan

>  <ATP_Site>  (306) 
nan

>  <Peripheral>  (306) 
nan

>  <Num_H_Atoms_ProtBoundConf>  (306) 
nan

>  <Num_Resolved_Atoms>  (306) 
nan

>  <Num_Not_Resolved_Atoms>  (306) 
nan

$$$$
CHEMBL3315291
     RDKit          3D

  0  0  0  0  0  0  0  0  0  0999 V3000
M  V30 BEGIN CTAB
M  V30 COUNTS 52 56 0 0 0
M  V30 BEGIN ATOM
M  V30 1 N 2.004525 -8.790771 1.767285 0
M  V30 2 C 2.086904 -7.638810 1.782322 0
M  V30 3 C 2.177451 -6.198923 1.820492 0
M  V30 4 C 2.556638 -5.466848 0.708367 0
M  V30 5 C 2.642995 -4.088731 0.745951 0
M  V30 6 C 2.351373 -3.406996 1.900124 0
M  V30 7 C 2.450341 -1.950427 1.913818 0
M  V30 8 C 2.182998 -1.151276 3.013581 0
M  V30 9 C 2.405113 0.144689 2.570532 0
M  V30 10 C 2.791849 0.065450 1.238206 0
M  V30 11 C 3.082700 1.319804 0.551751 0
M  V30 12 N 4.351534 1.742121 0.310655 0
M  V30 13 C 4.225757 2.936121 -0.339335 0
M  V30 14 C 2.893149 3.241236 -0.494345 0
M  V30 15 N 2.193603 2.232830 0.061480 0
M  V30 16 C 0.779961 2.001329 0.199772 0
M  V30 17 C -0.139153 2.848361 0.781620 0
M  V30 18 C -1.449577 2.459491 0.823872 0
M  V30 19 C -1.922926 1.248775 0.311349 0
M  V30 20 C -3.384194 0.891763 0.396261 0
M  V30 21 F -3.885719 1.651918 1.438643 0
M  V30 22 C -4.090149 1.394731 -0.833946 0
M  V30 23 C -4.092711 0.464693 -1.981861 0
M  V30 24 N -4.249541 -0.903106 -1.707709 0
M  V30 25 C -3.912878 -1.425315 -0.456802 0
M  V30 26 C -3.583148 -0.551591 0.676690 0
M  V30 27 C -0.978069 0.418444 -0.266860 0
M  V30 28 C 0.347386 0.786024 -0.322295 0
M  V30 29 O 2.797098 -1.199897 0.916517 0
M  V30 30 C 1.969554 -4.104496 3.029484 0
M  V30 31 C 1.886111 -5.494480 2.979155 0
M  V30 32 H 2.787862 -6.002148 -0.205510 0
M  V30 33 H 2.946645 -3.558701 -0.158126 0
M  V30 34 H 1.868687 -1.467203 4.005055 0
M  V30 35 H 2.264247 0.996092 3.253376 0
M  V30 36 H 4.954824 3.657505 -0.738908 0
M  V30 37 H 2.390039 4.087318 -0.951403 0
M  V30 38 H 0.249465 3.761566 1.162558 0
M  V30 39 H -2.132328 3.158854 1.290691 0
M  V30 40 H -3.587850 2.348720 -1.131004 0
M  V30 41 H -5.125806 1.659028 -0.576415 0
M  V30 42 H -3.149731 0.614163 -2.568578 0
M  V30 43 H -4.901533 0.790711 -2.678358 0
M  V30 44 H -3.924721 -1.482288 -2.508652 0
M  V30 45 H -3.070279 -2.160755 -0.631709 0
M  V30 46 H -4.752306 -2.106419 -0.161946 0
M  V30 47 H -2.626394 -0.889954 1.177168 0
M  V30 48 H -4.327895 -0.664480 1.518631 0
M  V30 49 H -1.312834 -0.526527 -0.673077 0
M  V30 50 H 1.005159 0.088101 -0.783925 0
M  V30 51 H 1.733339 -3.622517 3.947496 0
M  V30 52 H 1.586773 -6.053722 3.861555 0
M  V30 END ATOM
M  V30 BEGIN BOND
M  V30 1 3 1 2
M  V30 2 1 2 3
M  V30 3 2 3 4
M  V30 4 1 4 5
M  V30 5 2 5 6
M  V30 6 1 6 7
M  V30 7 2 7 8
M  V30 8 1 8 9
M  V30 9 2 9 10
M  V30 10 1 10 11
M  V30 11 2 11 12
M  V30 12 1 12 13
M  V30 13 2 13 14
M  V30 14 1 14 15
M  V30 15 1 15 16
M  V30 16 2 16 17
M  V30 17 1 17 18
M  V30 18 2 18 19
M  V30 19 1 19 20
M  V30 20 1 20 21
M  V30 21 1 20 22
M  V30 22 1 22 23
M  V30 23 1 23 24
M  V30 24 1 24 25
M  V30 25 1 25 26
M  V30 26 1 19 27
M  V30 27 2 27 28
M  V30 28 1 10 29
M  V30 29 1 6 30
M  V30 30 2 30 31
M  V30 31 1 31 3
M  V30 32 1 29 7
M  V30 33 1 15 11
M  V30 34 1 28 16
M  V30 35 1 26 20
M  V30 36 1 4 32
M  V30 37 1 5 33
M  V30 38 1 8 34
M  V30 39 1 9 35
M  V30 40 1 13 36
M  V30 41 1 14 37
M  V30 42 1 17 38
M  V30 43 1 18 39
M  V30 44 1 22 40
M  V30 45 1 22 41
M  V30 46 1 23 42
M  V30 47 1 23 43
M  V30 48 1 24 44
M  V30 49 1 25 45
M  V30 50 1 25 46
M  V30 51 1 26 47
M  V30 52 1 26 48
M  V30 53 1 27 49
M  V30 54 1 28 50
M  V30 55 1 30 51
M  V30 56 1 31 52
M  V30 END BOND
M  V30 END CTAB
M  END
>  <Dataset>  (307) 
ChEMBL_Kinases

>  <Ligand_Instance>  (307) 
nan

>  <PDB_ID>  (307) 
nan

>  <Standardized_SMILES>  (307) 
N#Cc1ccc(-c2ccc(-c3nccn3-c3ccc(C4(F)CCNCC4)cc3)o2)cc1

>  <Name>  (307) 
nan

>  <Pocket>  (307) 
nan

>  <ATP_Site>  (307) 
nan

>  <Peripheral>  (307) 
nan

>  <Num_H_Atoms_ProtBoundConf>  (307) 
nan

>  <Num_Resolved_Atoms>  (307) 
nan

>  <Num_Not_Resolved_Atoms>  (307) 
nan

$$$$
CHEMBL3315290
     RDKit          3D

  0  0  0  0  0  0  0  0  0  0999 V3000
M  V30 BEGIN CTAB
M  V30 COUNTS 52 56 0 0 0
M  V30 BEGIN ATOM
M  V30 1 O -2.640295 -1.669060 0.221966 0
M  V30 2 C -1.726170 -2.687824 -0.042236 0
M  V30 3 C -0.392435 -2.072313 -0.064404 0
M  V30 4 C -0.230500 -1.010425 -0.959207 0
M  V30 5 C 0.993012 -0.367148 -1.050627 0
M  V30 6 C 2.047813 -0.796356 -0.240378 0
M  V30 7 N 3.259115 -0.038566 -0.440193 0
M  V30 8 C 4.298993 -0.197624 -1.287765 0
M  V30 9 C 5.203421 0.811403 -1.066861 0
M  V30 10 N 4.722491 1.587928 -0.087881 0
M  V30 11 C 3.527217 1.074187 0.304698 0
M  V30 12 C 2.662754 1.634753 1.366965 0
M  V30 13 C 2.960974 2.176139 2.596565 0
M  V30 14 C 1.727092 2.526197 3.135160 0
M  V30 15 C 0.750388 2.186899 2.222580 0
M  V30 16 C -0.689548 2.374367 2.370966 0
M  V30 17 C -1.255391 2.933547 3.483844 0
M  V30 18 C -2.640596 3.069407 3.529974 0
M  V30 19 C -3.456104 2.650248 2.472958 0
M  V30 20 Cl -5.200169 2.817396 2.522558 0
M  V30 21 C -2.885888 2.080536 1.337992 0
M  V30 22 C -1.529143 1.974405 1.351320 0
M  V30 23 O 1.371467 1.661363 1.192658 0
M  V30 24 C 1.900141 -1.838533 0.642325 0
M  V30 25 C 0.679911 -2.452303 0.708393 0
M  V30 26 C -1.917400 -3.812707 0.897680 0
M  V30 27 C -1.736911 -5.181837 0.275247 0
M  V30 28 N -0.751481 -5.190454 -0.760862 0
M  V30 29 C -1.080003 -4.302070 -1.836930 0
M  V30 30 C -2.024011 -3.191016 -1.444678 0
M  V30 31 H -2.642986 -1.474134 1.201693 0
M  V30 32 H -1.038780 -0.664283 -1.595678 0
M  V30 33 H 1.076788 0.458720 -1.763430 0
M  V30 34 H 4.326811 -1.029563 -2.001565 0
M  V30 35 H 6.145805 0.940784 -1.606572 0
M  V30 36 H 3.970869 2.262522 2.965745 0
M  V30 37 H 1.617371 2.980218 4.101663 0
M  V30 38 H -0.650503 3.260928 4.303659 0
M  V30 39 H -3.158329 3.503001 4.378733 0
M  V30 40 H -3.469870 1.738926 0.491030 0
M  V30 41 H -1.069668 1.531538 0.471979 0
M  V30 42 H 2.757784 -2.109379 1.230516 0
M  V30 43 H 0.549068 -3.258808 1.384858 0
M  V30 44 H -1.377128 -3.736074 1.859029 0
M  V30 45 H -3.003783 -3.787202 1.208996 0
M  V30 46 H -2.703348 -5.585757 -0.118917 0
M  V30 47 H -1.415593 -5.926855 1.036392 0
M  V30 48 H 0.204499 -5.101238 -0.378912 0
M  V30 49 H -0.119416 -3.855705 -2.189216 0
M  V30 50 H -1.546422 -4.886935 -2.668968 0
M  V30 51 H -1.950864 -2.384046 -2.207542 0
M  V30 52 H -3.086704 -3.523737 -1.471632 0
M  V30 END ATOM
M  V30 BEGIN BOND
M  V30 1 1 1 2
M  V30 2 1 2 3
M  V30 3 2 3 4
M  V30 4 1 4 5
M  V30 5 2 5 6
M  V30 6 1 6 7
M  V30 7 1 7 8
M  V30 8 2 8 9
M  V30 9 1 9 10
M  V30 10 2 10 11
M  V30 11 1 11 12
M  V30 12 2 12 13
M  V30 13 1 13 14
M  V30 14 2 14 15
M  V30 15 1 15 16
M  V30 16 2 16 17
M  V30 17 1 17 18
M  V30 18 2 18 19
M  V30 19 1 19 20
M  V30 20 1 19 21
M  V30 21 2 21 22
M  V30 22 1 15 23
M  V30 23 1 6 24
M  V30 24 2 24 25
M  V30 25 1 2 26
M  V30 26 1 26 27
M  V30 27 1 27 28
M  V30 28 1 28 29
M  V30 29 1 29 30
M  V30 30 1 30 2
M  V30 31 1 25 3
M  V30 32 1 11 7
M  V30 33 1 23 12
M  V30 34 1 22 16
M  V30 35 1 1 31
M  V30 36 1 4 32
M  V30 37 1 5 33
M  V30 38 1 8 34
M  V30 39 1 9 35
M  V30 40 1 13 36
M  V30 41 1 14 37
M  V30 42 1 17 38
M  V30 43 1 18 39
M  V30 44 1 21 40
M  V30 45 1 22 41
M  V30 46 1 24 42
M  V30 47 1 25 43
M  V30 48 1 26 44
M  V30 49 1 26 45
M  V30 50 1 27 46
M  V30 51 1 27 47
M  V30 52 1 28 48
M  V30 53 1 29 49
M  V30 54 1 29 50
M  V30 55 1 30 51
M  V30 56 1 30 52
M  V30 END BOND
M  V30 END CTAB
M  END
>  <Dataset>  (308) 
ChEMBL_Kinases

>  <Ligand_Instance>  (308) 
nan

>  <PDB_ID>  (308) 
nan

>  <Standardized_SMILES>  (308) 
OC1(c2ccc(-n3ccnc3-c3ccc(-c4ccc(Cl)cc4)o3)cc2)CCNCC1

>  <Name>  (308) 
nan

>  <Pocket>  (308) 
nan

>  <ATP_Site>  (308) 
nan

>  <Peripheral>  (308) 
nan

>  <Num_H_Atoms_ProtBoundConf>  (308) 
nan

>  <Num_Resolved_Atoms>  (308) 
nan

>  <Num_Not_Resolved_Atoms>  (308) 
nan

$$$$
CHEMBL3315289
     RDKit          3D

  0  0  0  0  0  0  0  0  0  0999 V3000
M  V30 BEGIN CTAB
M  V30 COUNTS 51 55 0 0 0
M  V30 BEGIN ATOM
M  V30 1 F -0.809414 -3.015694 2.438253 0
M  V30 2 C -1.138722 -3.152362 1.082953 0
M  V30 3 C -0.213087 -2.335958 0.250322 0
M  V30 4 C -0.558753 -1.820756 -0.981755 0
M  V30 5 C 0.364835 -1.070398 -1.691651 0
M  V30 6 C 1.632395 -0.830274 -1.180107 0
M  V30 7 N 2.650001 -0.077804 -1.822525 0
M  V30 8 C 3.287810 -0.167638 -3.014096 0
M  V30 9 C 4.213774 0.848695 -3.132687 0
M  V30 10 N 4.131969 1.568690 -1.984373 0
M  V30 11 C 3.200987 1.011904 -1.211684 0
M  V30 12 C 2.862014 1.553063 0.114904 0
M  V30 13 C 3.594482 1.947714 1.214401 0
M  V30 14 C 2.648064 2.359056 2.129921 0
M  V30 15 C 1.395426 2.202971 1.565270 0
M  V30 16 C 0.161243 2.546152 2.269156 0
M  V30 17 C 0.138016 3.053802 3.553383 0
M  V30 18 C -1.068451 3.364933 4.179687 0
M  V30 19 C -2.235299 3.144558 3.463478 0
M  V30 20 Cl -3.793384 3.507871 4.174671 0
M  V30 21 C -2.228199 2.639509 2.183671 0
M  V30 22 C -1.014129 2.329600 1.561496 0
M  V30 23 O 1.590445 1.723492 0.375680 0
M  V30 24 C 1.962392 -1.354622 0.057271 0
M  V30 25 C 1.054680 -2.105579 0.780363 0
M  V30 26 C -0.931774 -4.577184 0.697317 0
M  V30 27 C -2.133841 -5.455974 0.843121 0
M  V30 28 N -3.374099 -4.799169 1.075625 0
M  V30 29 C -3.435595 -3.622615 0.211721 0
M  V30 30 C -2.519970 -2.619882 0.925005 0
M  V30 31 H -1.546462 -2.008194 -1.379758 0
M  V30 32 H 0.139584 -0.646282 -2.660828 0
M  V30 33 H 3.030439 -0.964938 -3.704515 0
M  V30 34 H 4.864686 1.008080 -3.995969 0
M  V30 35 H 4.673887 1.879124 1.185959 0
M  V30 36 H 2.973714 2.729981 3.114429 0
M  V30 37 H 1.089636 3.206336 4.068521 0
M  V30 38 H -1.075324 3.761081 5.183373 0
M  V30 39 H -3.110622 2.452679 1.590872 0
M  V30 40 H -1.001010 1.936818 0.567208 0
M  V30 41 H 2.936855 -1.213881 0.533046 0
M  V30 42 H 1.320218 -2.510790 1.744588 0
M  V30 43 H -0.129268 -4.992051 1.343546 0
M  V30 44 H -0.512490 -4.658328 -0.348782 0
M  V30 45 H -2.006857 -6.201333 1.682306 0
M  V30 46 H -2.253527 -6.076705 -0.071110 0
M  V30 47 H -3.489587 -4.515506 2.090465 0
M  V30 48 H -4.436236 -3.180584 0.185373 0
M  V30 49 H -3.046833 -3.879509 -0.775675 0
M  V30 50 H -2.592331 -1.679196 0.340510 0
M  V30 51 H -3.014585 -2.369611 1.902314 0
M  V30 END ATOM
M  V30 BEGIN BOND
M  V30 1 1 1 2
M  V30 2 1 2 3
M  V30 3 2 3 4
M  V30 4 1 4 5
M  V30 5 2 5 6
M  V30 6 1 6 7
M  V30 7 1 7 8
M  V30 8 2 8 9
M  V30 9 1 9 10
M  V30 10 2 10 11
M  V30 11 1 11 12
M  V30 12 2 12 13
M  V30 13 1 13 14
M  V30 14 2 14 15
M  V30 15 1 15 16
M  V30 16 2 16 17
M  V30 17 1 17 18
M  V30 18 2 18 19
M  V30 19 1 19 20
M  V30 20 1 19 21
M  V30 21 2 21 22
M  V30 22 1 15 23
M  V30 23 1 6 24
M  V30 24 2 24 25
M  V30 25 1 2 26
M  V30 26 1 26 27
M  V30 27 1 27 28
M  V30 28 1 28 29
M  V30 29 1 29 30
M  V30 30 1 30 2
M  V30 31 1 25 3
M  V30 32 1 11 7
M  V30 33 1 23 12
M  V30 34 1 22 16
M  V30 35 1 4 31
M  V30 36 1 5 32
M  V30 37 1 8 33
M  V30 38 1 9 34
M  V30 39 1 13 35
M  V30 40 1 14 36
M  V30 41 1 17 37
M  V30 42 1 18 38
M  V30 43 1 21 39
M  V30 44 1 22 40
M  V30 45 1 24 41
M  V30 46 1 25 42
M  V30 47 1 26 43
M  V30 48 1 26 44
M  V30 49 1 27 45
M  V30 50 1 27 46
M  V30 51 1 28 47
M  V30 52 1 29 48
M  V30 53 1 29 49
M  V30 54 1 30 50
M  V30 55 1 30 51
M  V30 END BOND
M  V30 END CTAB
M  END
>  <Dataset>  (309) 
ChEMBL_Kinases

>  <Ligand_Instance>  (309) 
nan

>  <PDB_ID>  (309) 
nan

>  <Standardized_SMILES>  (309) 
FC1(c2ccc(-n3ccnc3-c3ccc(-c4ccc(Cl)cc4)o3)cc2)CCNCC1

>  <Name>  (309) 
nan

>  <Pocket>  (309) 
nan

>  <ATP_Site>  (309) 
nan

>  <Peripheral>  (309) 
nan

>  <Num_H_Atoms_ProtBoundConf>  (309) 
nan

>  <Num_Resolved_Atoms>  (309) 
nan

>  <Num_Not_Resolved_Atoms>  (309) 
nan

$$$$
CHEMBL3315288
     RDKit          3D

  0  0  0  0  0  0  0  0  0  0999 V3000
M  V30 BEGIN CTAB
M  V30 COUNTS 49 53 0 0 0
M  V30 BEGIN ATOM
M  V30 1 Cl 2.032470 -7.252831 1.677455 0
M  V30 2 C 1.837739 -5.794437 0.728671 0
M  V30 3 C 1.877680 -4.485534 1.178487 0
M  V30 4 C 1.701358 -3.485480 0.268460 0
M  V30 5 C 1.484677 -3.692878 -1.077816 0
M  V30 6 C 1.306880 -2.555749 -1.974707 0
M  V30 7 C 1.084172 -2.667341 -3.342780 0
M  V30 8 C 0.982773 -1.352498 -3.748212 0
M  V30 9 C 1.143279 -0.511702 -2.641125 0
M  V30 10 C 1.088402 0.936327 -2.743217 0
M  V30 11 N 1.416604 1.675245 -3.818804 0
M  V30 12 C 1.233842 2.992910 -3.530093 0
M  V30 13 C 0.773349 3.006252 -2.209366 0
M  V30 14 N 0.694873 1.730448 -1.754985 0
M  V30 15 C 0.250081 1.464750 -0.429282 0
M  V30 16 C 0.994122 0.931906 0.619354 0
M  V30 17 C 0.426746 0.731786 1.846558 0
M  V30 18 C -0.898000 1.048069 2.093195 0
M  V30 19 C -1.564735 0.849449 3.413213 0 CFG=2
M  V30 20 C -0.702412 0.043692 4.330252 0
M  V30 21 N -1.450427 -0.166964 5.567378 0
M  V30 22 C -2.613397 0.679373 5.651828 0
M  V30 23 C -3.520266 0.499777 4.467668 0
M  V30 24 O -2.814586 0.275050 3.288171 0
M  V30 25 C -1.698604 1.587151 1.079375 0
M  V30 26 C -1.078521 1.775299 -0.159688 0
M  V30 27 O 1.334679 -1.296756 -1.605662 0
M  V30 28 C 1.442848 -4.983571 -1.536205 0
M  V30 29 C 1.620882 -6.015146 -0.620787 0
M  V30 30 H 2.048965 -4.391907 2.231542 0
M  V30 31 H 1.747028 -2.482385 0.704402 0
M  V30 32 H 1.003739 -3.540957 -3.969493 0
M  V30 33 H 0.803970 -1.057230 -4.785278 0
M  V30 34 H 1.403127 3.851857 -4.170576 0
M  V30 35 H 0.541376 3.958840 -1.713741 0
M  V30 36 H 2.014225 0.704609 0.375133 0
M  V30 37 H 1.006569 0.320200 2.651519 0
M  V30 38 H -1.680411 1.858958 3.906091 0
M  V30 39 H -0.500441 -0.953816 3.892583 0
M  V30 40 H 0.214296 0.590755 4.631603 0
M  V30 41 H -0.877512 0.036920 6.425135 0
M  V30 42 H -3.169973 0.352038 6.556448 0
M  V30 43 H -2.376655 1.754250 5.839043 0
M  V30 44 H -4.164170 1.414480 4.381796 0
M  V30 45 H -4.193897 -0.359621 4.677865 0
M  V30 46 H -2.739899 1.856667 1.203302 0
M  V30 47 H -1.719980 2.198908 -0.944174 0
M  V30 48 H 1.273120 -5.178802 -2.595906 0
M  V30 49 H 1.572917 -7.007812 -1.069032 0
M  V30 END ATOM
M  V30 BEGIN BOND
M  V30 1 1 1 2
M  V30 2 2 2 3
M  V30 3 1 3 4
M  V30 4 2 4 5
M  V30 5 1 5 6
M  V30 6 2 6 7
M  V30 7 1 7 8
M  V30 8 2 8 9
M  V30 9 1 9 10
M  V30 10 2 10 11
M  V30 11 1 11 12
M  V30 12 2 12 13
M  V30 13 1 13 14
M  V30 14 1 14 15
M  V30 15 2 15 16
M  V30 16 1 16 17
M  V30 17 2 17 18
M  V30 18 1 18 19
M  V30 19 1 19 20
M  V30 20 1 20 21
M  V30 21 1 21 22
M  V30 22 1 22 23
M  V30 23 1 23 24
M  V30 24 1 18 25
M  V30 25 2 25 26
M  V30 26 1 9 27
M  V30 27 1 5 28
M  V30 28 2 28 29
M  V30 29 1 29 2
M  V30 30 1 27 6
M  V30 31 1 14 10
M  V30 32 1 26 15
M  V30 33 1 24 19
M  V30 34 1 3 30
M  V30 35 1 4 31
M  V30 36 1 7 32
M  V30 37 1 8 33
M  V30 38 1 12 34
M  V30 39 1 13 35
M  V30 40 1 16 36
M  V30 41 1 17 37
M  V30 42 1 19 38 CFG=1
M  V30 43 1 20 39
M  V30 44 1 20 40
M  V30 45 1 21 41
M  V30 46 1 22 42
M  V30 47 1 22 43
M  V30 48 1 23 44
M  V30 49 1 23 45
M  V30 50 1 25 46
M  V30 51 1 26 47
M  V30 52 1 28 48
M  V30 53 1 29 49
M  V30 END BOND
M  V30 END CTAB
M  END
>  <Dataset>  (310) 
ChEMBL_Kinases

>  <Ligand_Instance>  (310) 
nan

>  <PDB_ID>  (310) 
nan

>  <Standardized_SMILES>  (310) 
Clc1ccc(-c2ccc(-c3nccn3-c3ccc([C@@H]4CNCCO4)cc3)o2)cc1

>  <Name>  (310) 
nan

>  <Pocket>  (310) 
nan

>  <ATP_Site>  (310) 
nan

>  <Peripheral>  (310) 
nan

>  <Num_H_Atoms_ProtBoundConf>  (310) 
nan

>  <Num_Resolved_Atoms>  (310) 
nan

>  <Num_Not_Resolved_Atoms>  (310) 
nan

$$$$
CHEMBL3315287
     RDKit          3D

  0  0  0  0  0  0  0  0  0  0999 V3000
M  V30 BEGIN CTAB
M  V30 COUNTS 49 53 0 0 0
M  V30 BEGIN ATOM
M  V30 1 Cl 1.686173 -7.637110 0.533700 0
M  V30 2 C 1.619156 -6.043442 -0.163223 0
M  V30 3 C 1.058244 -5.856536 -1.397107 0
M  V30 4 C 1.021314 -4.567483 -1.924849 0
M  V30 5 C 1.542723 -3.528751 -1.201889 0
M  V30 6 C 1.544556 -2.147117 -1.681227 0
M  V30 7 C 1.018950 -1.768643 -2.908460 0
M  V30 8 C 1.197925 -0.406237 -3.012077 0
M  V30 9 C 1.814578 -0.007607 -1.866941 0
M  V30 10 C 2.295586 1.249131 -1.304449 0
M  V30 11 N 3.262413 1.880112 -1.968208 0
M  V30 12 C 3.579649 3.017524 -1.305052 0
M  V30 13 C 2.752160 3.059564 -0.185789 0
M  V30 14 N 1.969585 1.967629 -0.198854 0
M  V30 15 C 0.943175 1.411485 0.613500 0
M  V30 16 C 1.333639 0.587986 1.619273 0
M  V30 17 C 0.379724 0.027506 2.429643 0
M  V30 18 C -0.996347 0.247346 2.292358 0
M  V30 19 C -1.995779 -0.393578 3.210148 0 CFG=1
M  V30 20 C -2.272986 0.474000 4.390434 0
M  V30 21 N -3.595418 0.999533 4.485227 0
M  V30 22 C -4.295968 1.070378 3.244415 0
M  V30 23 C -4.178384 -0.146510 2.395919 0
M  V30 24 O -3.077945 -0.926139 2.573547 0
M  V30 25 C -1.321471 1.092395 1.252485 0
M  V30 26 C -0.397452 1.669202 0.424456 0
M  V30 27 O 2.004799 -1.044050 -1.108247 0
M  V30 28 C 2.105904 -3.730989 0.042087 0
M  V30 29 C 2.156971 -5.011073 0.596141 0
M  V30 30 H 0.648718 -6.675456 -1.963859 0
M  V30 31 H 0.597024 -4.344732 -2.886639 0
M  V30 32 H 0.543999 -2.355057 -3.692753 0
M  V30 33 H 0.961429 0.321661 -3.759272 0
M  V30 34 H 4.278308 3.851884 -1.426416 0
M  V30 35 H 2.625007 3.745940 0.629986 0
M  V30 36 H 2.367796 0.342142 1.824860 0
M  V30 37 H 0.682631 -0.640379 3.246770 0
M  V30 38 H -1.431594 -1.288207 3.626331 0
M  V30 39 H -1.529525 1.324097 4.390231 0
M  V30 40 H -2.068722 -0.026710 5.382112 0
M  V30 41 H -3.543718 1.961786 4.889180 0
M  V30 42 H -3.962370 1.992292 2.709874 0
M  V30 43 H -5.369577 1.300563 3.513831 0
M  V30 44 H -4.388175 0.093293 1.311835 0
M  V30 45 H -5.066582 -0.796149 2.665970 0
M  V30 46 H -2.345999 1.314611 1.076284 0
M  V30 47 H -0.687458 2.325756 -0.379622 0
M  V30 48 H 2.523068 -2.926915 0.629934 0
M  V30 49 H 2.603165 -5.166396 1.580003 0
M  V30 END ATOM
M  V30 BEGIN BOND
M  V30 1 1 1 2
M  V30 2 2 2 3
M  V30 3 1 3 4
M  V30 4 2 4 5
M  V30 5 1 5 6
M  V30 6 2 6 7
M  V30 7 1 7 8
M  V30 8 2 8 9
M  V30 9 1 9 10
M  V30 10 2 10 11
M  V30 11 1 11 12
M  V30 12 2 12 13
M  V30 13 1 13 14
M  V30 14 1 14 15
M  V30 15 2 15 16
M  V30 16 1 16 17
M  V30 17 2 17 18
M  V30 18 1 18 19
M  V30 19 1 19 20
M  V30 20 1 20 21
M  V30 21 1 21 22
M  V30 22 1 22 23
M  V30 23 1 23 24
M  V30 24 1 18 25
M  V30 25 2 25 26
M  V30 26 1 9 27
M  V30 27 1 5 28
M  V30 28 2 28 29
M  V30 29 1 29 2
M  V30 30 1 27 6
M  V30 31 1 14 10
M  V30 32 1 26 15
M  V30 33 1 24 19
M  V30 34 1 3 30
M  V30 35 1 4 31
M  V30 36 1 7 32
M  V30 37 1 8 33
M  V30 38 1 12 34
M  V30 39 1 13 35
M  V30 40 1 16 36
M  V30 41 1 17 37
M  V30 42 1 19 38 CFG=1
M  V30 43 1 20 39
M  V30 44 1 20 40
M  V30 45 1 21 41
M  V30 46 1 22 42
M  V30 47 1 22 43
M  V30 48 1 23 44
M  V30 49 1 23 45
M  V30 50 1 25 46
M  V30 51 1 26 47
M  V30 52 1 28 48
M  V30 53 1 29 49
M  V30 END BOND
M  V30 END CTAB
M  END
>  <Dataset>  (311) 
ChEMBL_Kinases

>  <Ligand_Instance>  (311) 
nan

>  <PDB_ID>  (311) 
nan

>  <Standardized_SMILES>  (311) 
Clc1ccc(-c2ccc(-c3nccn3-c3ccc([C@H]4CNCCO4)cc3)o2)cc1

>  <Name>  (311) 
nan

>  <Pocket>  (311) 
nan

>  <ATP_Site>  (311) 
nan

>  <Peripheral>  (311) 
nan

>  <Num_H_Atoms_ProtBoundConf>  (311) 
nan

>  <Num_Resolved_Atoms>  (311) 
nan

>  <Num_Not_Resolved_Atoms>  (311) 
nan

$$$$
CHEMBL3315286
     RDKit          3D

  0  0  0  0  0  0  0  0  0  0999 V3000
M  V30 BEGIN CTAB
M  V30 COUNTS 49 53 0 0 0
M  V30 BEGIN ATOM
M  V30 1 Cl 2.075596 -7.677536 0.988851 0
M  V30 2 C 1.660711 -6.233406 0.082050 0
M  V30 3 C 0.748439 -6.232076 -0.952704 0
M  V30 4 C 0.496775 -5.042876 -1.597402 0
M  V30 5 C 1.133237 -3.853412 -1.235203 0
M  V30 6 C 0.829495 -2.618271 -1.952857 0
M  V30 7 C -0.057516 -2.476936 -3.001319 0
M  V30 8 C -0.036644 -1.147146 -3.379502 0
M  V30 9 C 0.867828 -0.527264 -2.541278 0
M  V30 10 C 1.321399 0.856242 -2.445068 0
M  V30 11 N 2.125950 1.561216 -3.264272 0
M  V30 12 C 2.254117 2.808288 -2.752583 0
M  V30 13 C 1.496765 2.838301 -1.588892 0
M  V30 14 N 0.922931 1.619225 -1.409957 0
M  V30 15 C 0.085294 1.363519 -0.286404 0
M  V30 16 C 0.647749 1.572087 0.967496 0
M  V30 17 C -0.106996 1.343883 2.099788 0
M  V30 18 C -1.407252 0.913835 2.039999 0
M  V30 19 C -2.303482 0.639271 3.191594 0
M  V30 20 C -2.392190 1.920149 3.976080 0
M  V30 21 C -1.747795 2.178720 5.109862 0
M  V30 22 C -0.855203 1.180183 5.710996 0
M  V30 23 N -0.576903 0.066323 4.834217 0
M  V30 24 C -1.763448 -0.389681 4.140834 0
M  V30 25 C -1.934353 0.716416 0.758157 0
M  V30 26 C -1.219821 0.930825 -0.402969 0
M  V30 27 O 1.347008 -1.435185 -1.723590 0
M  V30 28 C 2.048339 -3.830501 -0.204562 0
M  V30 29 C 2.272964 -5.055904 0.420417 0
M  V30 30 H 0.282717 -7.169156 -1.197597 0
M  V30 31 H -0.228388 -5.061562 -2.413949 0
M  V30 32 H -0.672241 -3.213551 -3.475732 0
M  V30 33 H -0.570665 -0.603844 -4.149187 0
M  V30 34 H 2.862611 3.553059 -3.252423 0
M  V30 35 H 1.485281 3.773957 -1.042000 0
M  V30 36 H 1.684299 1.915858 1.066146 0
M  V30 37 H 0.302927 1.496975 3.072037 0
M  V30 38 H -3.307118 0.302438 2.866894 0
M  V30 39 H -3.035988 2.713958 3.595082 0
M  V30 40 H -1.870536 3.129411 5.608320 0
M  V30 41 H 0.138245 1.693861 5.855854 0
M  V30 42 H -1.219218 0.812804 6.670590 0
M  V30 43 H -0.046694 -0.686111 5.278185 0
M  V30 44 H -1.537159 -1.357394 3.674405 0
M  V30 45 H -2.544033 -0.566148 4.899504 0
M  V30 46 H -2.954694 0.378022 0.660955 0
M  V30 47 H -1.648340 0.771600 -1.375730 0
M  V30 48 H 2.547879 -2.935221 0.091280 0
M  V30 49 H 2.991021 -5.044697 1.231186 0
M  V30 END ATOM
M  V30 BEGIN BOND
M  V30 1 1 1 2
M  V30 2 2 2 3
M  V30 3 1 3 4
M  V30 4 2 4 5
M  V30 5 1 5 6
M  V30 6 2 6 7
M  V30 7 1 7 8
M  V30 8 2 8 9
M  V30 9 1 9 10
M  V30 10 2 10 11
M  V30 11 1 11 12
M  V30 12 2 12 13
M  V30 13 1 13 14
M  V30 14 1 14 15
M  V30 15 2 15 16
M  V30 16 1 16 17
M  V30 17 2 17 18
M  V30 18 1 18 19
M  V30 19 1 19 20
M  V30 20 2 20 21
M  V30 21 1 21 22
M  V30 22 1 22 23
M  V30 23 1 23 24
M  V30 24 1 18 25
M  V30 25 2 25 26
M  V30 26 1 9 27
M  V30 27 1 5 28
M  V30 28 2 28 29
M  V30 29 1 29 2
M  V30 30 1 27 6
M  V30 31 1 14 10
M  V30 32 1 26 15
M  V30 33 1 24 19
M  V30 34 1 3 30
M  V30 35 1 4 31
M  V30 36 1 7 32
M  V30 37 1 8 33
M  V30 38 1 12 34
M  V30 39 1 13 35
M  V30 40 1 16 36
M  V30 41 1 17 37
M  V30 42 1 19 38
M  V30 43 1 20 39
M  V30 44 1 21 40
M  V30 45 1 22 41
M  V30 46 1 22 42
M  V30 47 1 23 43
M  V30 48 1 24 44
M  V30 49 1 24 45
M  V30 50 1 25 46
M  V30 51 1 26 47
M  V30 52 1 28 48
M  V30 53 1 29 49
M  V30 END BOND
M  V30 END CTAB
M  END
>  <Dataset>  (312) 
ChEMBL_Kinases

>  <Ligand_Instance>  (312) 
nan

>  <PDB_ID>  (312) 
nan

>  <Standardized_SMILES>  (312) 
Clc1ccc(-c2ccc(-c3nccn3-c3ccc(C4C=CCNC4)cc3)o2)cc1

>  <Name>  (312) 
nan

>  <Pocket>  (312) 
nan

>  <ATP_Site>  (312) 
nan

>  <Peripheral>  (312) 
nan

>  <Num_H_Atoms_ProtBoundConf>  (312) 
nan

>  <Num_Resolved_Atoms>  (312) 
nan

>  <Num_Not_Resolved_Atoms>  (312) 
nan

$$$$
CHEMBL3315285
     RDKit          3D

  0  0  0  0  0  0  0  0  0  0999 V3000
M  V30 BEGIN CTAB
M  V30 COUNTS 45 49 0 0 0
M  V30 BEGIN ATOM
M  V30 1 Cl 2.948508 -5.718302 4.196921 0
M  V30 2 C 2.794106 -4.655397 2.798323 0
M  V30 3 C 2.634701 -5.263495 1.568622 0
M  V30 4 C 2.519919 -4.379434 0.507451 0
M  V30 5 C 2.558988 -3.009346 0.649401 0
M  V30 6 C 2.433559 -2.083384 -0.472101 0
M  V30 7 C 2.255760 -2.394262 -1.805048 0
M  V30 8 C 2.184691 -1.225642 -2.543320 0
M  V30 9 C 2.327660 -0.233831 -1.587337 0
M  V30 10 C 2.341473 1.226070 -1.710360 0
M  V30 11 N 3.171600 2.104548 -2.310797 0
M  V30 12 C 2.694806 3.344841 -2.100719 0
M  V30 13 C 1.543532 3.246693 -1.354797 0
M  V30 14 N 1.334340 1.933735 -1.119003 0
M  V30 15 C 0.193081 1.570286 -0.356571 0
M  V30 16 C 0.291500 1.298822 1.010357 0
M  V30 17 C -0.779973 0.941546 1.804519 0
M  V30 18 C -2.039258 0.841875 1.224483 0
M  V30 19 C -3.114841 0.460335 2.134309 0
M  V30 20 C -3.063297 0.851197 3.468886 0
M  V30 21 C -4.068939 0.510451 4.378650 0
M  V30 22 C -5.101979 -0.235261 3.850636 0
M  V30 23 N -5.171733 -0.625802 2.557798 0
M  V30 24 C -4.199023 -0.296587 1.675121 0
M  V30 25 C -2.173042 1.103117 -0.122597 0
M  V30 26 C -1.077169 1.457227 -0.882458 0
M  V30 27 O 2.468988 -0.774867 -0.403562 0
M  V30 28 C 2.721979 -2.510355 1.924247 0
M  V30 29 C 2.842836 -3.305056 3.023068 0
M  V30 30 H 2.602527 -6.335145 1.433959 0
M  V30 31 H 2.390225 -4.813578 -0.491546 0
M  V30 32 H 2.178333 -3.377314 -2.253635 0
M  V30 33 H 2.053645 -1.024473 -3.596958 0
M  V30 34 H 3.292820 4.123831 -2.544932 0
M  V30 35 H 1.077225 4.199862 -1.128779 0
M  V30 36 H 1.298349 1.387926 1.430210 0
M  V30 37 H -0.559139 0.757829 2.855073 0
M  V30 38 H -2.246378 1.440256 3.880523 0
M  V30 39 H -4.014610 0.821372 5.408418 0
M  V30 40 H -5.922874 -0.540970 4.489069 0
M  V30 41 H -4.161541 -0.556819 0.628500 0
M  V30 42 H -3.160022 1.013212 -0.516038 0
M  V30 43 H -1.196815 1.659775 -1.933664 0
M  V30 44 H 2.754779 -1.432150 2.051802 0
M  V30 45 H 2.969538 -2.876339 4.004022 0
M  V30 END ATOM
M  V30 BEGIN BOND
M  V30 1 1 1 2
M  V30 2 2 2 3
M  V30 3 1 3 4
M  V30 4 2 4 5
M  V30 5 1 5 6
M  V30 6 2 6 7
M  V30 7 1 7 8
M  V30 8 2 8 9
M  V30 9 1 9 10
M  V30 10 2 10 11
M  V30 11 1 11 12
M  V30 12 2 12 13
M  V30 13 1 13 14
M  V30 14 1 14 15
M  V30 15 2 15 16
M  V30 16 1 16 17
M  V30 17 2 17 18
M  V30 18 1 18 19
M  V30 19 2 19 20
M  V30 20 1 20 21
M  V30 21 2 21 22
M  V30 22 1 22 23
M  V30 23 2 23 24
M  V30 24 1 18 25
M  V30 25 2 25 26
M  V30 26 1 9 27
M  V30 27 1 5 28
M  V30 28 2 28 29
M  V30 29 1 29 2
M  V30 30 1 27 6
M  V30 31 1 14 10
M  V30 32 1 26 15
M  V30 33 1 24 19
M  V30 34 1 3 30
M  V30 35 1 4 31
M  V30 36 1 7 32
M  V30 37 1 8 33
M  V30 38 1 12 34
M  V30 39 1 13 35
M  V30 40 1 16 36
M  V30 41 1 17 37
M  V30 42 1 20 38
M  V30 43 1 21 39
M  V30 44 1 22 40
M  V30 45 1 24 41
M  V30 46 1 25 42
M  V30 47 1 26 43
M  V30 48 1 28 44
M  V30 49 1 29 45
M  V30 END BOND
M  V30 END CTAB
M  END
>  <Dataset>  (313) 
ChEMBL_Kinases

>  <Ligand_Instance>  (313) 
nan

>  <PDB_ID>  (313) 
nan

>  <Standardized_SMILES>  (313) 
Clc1ccc(-c2ccc(-c3nccn3-c3ccc(-c4cccnc4)cc3)o2)cc1

>  <Name>  (313) 
nan

>  <Pocket>  (313) 
nan

>  <ATP_Site>  (313) 
nan

>  <Peripheral>  (313) 
nan

>  <Num_H_Atoms_ProtBoundConf>  (313) 
nan

>  <Num_Resolved_Atoms>  (313) 
nan

>  <Num_Not_Resolved_Atoms>  (313) 
nan

$$$$
CHEMBL3314676
     RDKit          3D

  0  0  0  0  0  0  0  0  0  0999 V3000
M  V30 BEGIN CTAB
M  V30 COUNTS 38 40 0 0 0
M  V30 BEGIN ATOM
M  V30 1 O 1.293084 -0.044986 3.127002 0
M  V30 2 C 0.889657 -0.113101 1.932344 0
M  V30 3 C 1.562396 -1.030237 0.985130 0
M  V30 4 C 2.212077 -2.087552 1.417644 0
M  V30 5 C 2.874305 -2.984697 0.489257 0
M  V30 6 C 2.624974 -4.328400 0.790105 0
M  V30 7 C 3.182243 -5.359541 0.021769 0
M  V30 8 C 3.992605 -5.005898 -1.051284 0
M  V30 9 C 4.224734 -3.684344 -1.329667 0
M  V30 10 F 5.005386 -3.241582 -2.360558 0
M  V30 11 C 3.683597 -2.669422 -0.582856 0
M  V30 12 C 1.376068 -0.615302 -0.435698 0
M  V30 13 N -0.005634 -0.276869 -0.710451 0
M  V30 14 C -0.345848 0.927438 -0.006325 0
M  V30 15 C -0.240031 0.695534 1.433552 0
M  V30 16 C -1.111207 1.152122 2.318033 0
M  V30 17 C -2.263995 1.961638 1.955797 0
M  V30 18 C -2.349384 3.041712 1.139565 0
M  V30 19 C -3.607853 3.633793 0.926630 0
M  V30 20 C -4.768284 3.143691 1.529563 0
M  V30 21 C -4.637252 2.044334 2.351706 0
M  V30 22 F -5.798947 1.593039 2.924134 0
M  V30 23 C -3.415357 1.453702 2.571110 0
M  V30 24 H 2.231520 -2.264721 2.497138 0
M  V30 25 H 1.994908 -4.677562 1.618890 0
M  V30 26 H 2.987701 -6.399661 0.260179 0
M  V30 27 H 4.452094 -5.762271 -1.683821 0
M  V30 28 H 3.859767 -1.611738 -0.764844 0
M  V30 29 H 1.567236 -1.505304 -1.113884 0
M  V30 30 H 2.010600 0.242291 -0.656356 0
M  V30 31 H -0.049086 -0.149175 -1.760566 0
M  V30 32 H 0.382108 1.713694 -0.293467 0
M  V30 33 H -1.342785 1.318947 -0.315986 0
M  V30 34 H -0.940395 0.902722 3.379241 0
M  V30 35 H -1.427254 3.401180 0.703690 0
M  V30 36 H -3.515032 4.491352 0.242382 0
M  V30 37 H -5.644996 3.685575 1.282397 0
M  V30 38 H -3.468999 0.588464 3.250684 0
M  V30 END ATOM
M  V30 BEGIN BOND
M  V30 1 2 1 2
M  V30 2 1 2 3
M  V30 3 2 3 4
M  V30 4 1 4 5
M  V30 5 2 5 6
M  V30 6 1 6 7
M  V30 7 2 7 8
M  V30 8 1 8 9
M  V30 9 1 9 10
M  V30 10 2 9 11
M  V30 11 1 3 12
M  V30 12 1 12 13
M  V30 13 1 13 14
M  V30 14 1 14 15
M  V30 15 2 15 16
M  V30 16 1 16 17
M  V30 17 2 17 18
M  V30 18 1 18 19
M  V30 19 2 19 20
M  V30 20 1 20 21
M  V30 21 1 21 22
M  V30 22 2 21 23
M  V30 23 1 15 2
M  V30 24 1 23 17
M  V30 25 1 11 5
M  V30 26 1 4 24
M  V30 27 1 6 25
M  V30 28 1 7 26
M  V30 29 1 8 27
M  V30 30 1 11 28
M  V30 31 1 12 29
M  V30 32 1 12 30
M  V30 33 1 13 31
M  V30 34 1 14 32
M  V30 35 1 14 33
M  V30 36 1 16 34
M  V30 37 1 18 35
M  V30 38 1 19 36
M  V30 39 1 20 37
M  V30 40 1 23 38
M  V30 END BOND
M  V30 END CTAB
M  END
>  <Dataset>  (314) 
ChEMBL_Kinases

>  <Ligand_Instance>  (314) 
nan

>  <PDB_ID>  (314) 
nan

>  <Standardized_SMILES>  (314) 
O=C1/C(=C/c2cccc(F)c2)CNC/C1=C\c1cccc(F)c1

>  <Name>  (314) 
nan

>  <Pocket>  (314) 
nan

>  <ATP_Site>  (314) 
nan

>  <Peripheral>  (314) 
nan

>  <Num_H_Atoms_ProtBoundConf>  (314) 
nan

>  <Num_Resolved_Atoms>  (314) 
nan

>  <Num_Not_Resolved_Atoms>  (314) 
nan

$$$$
CHEMBL3314284
     RDKit          3D

  0  0  0  0  0  0  0  0  0  0999 V3000
M  V30 BEGIN CTAB
M  V30 COUNTS 44 48 0 0 0
M  V30 BEGIN ATOM
M  V30 1 O 1.453990 -5.843985 3.395204 0
M  V30 2 C 1.488177 -4.580398 3.558801 0
M  V30 3 C 0.974661 -3.872442 2.492759 0
M  V30 4 C 0.961800 -2.511265 2.560468 0
M  V30 5 C 0.484452 -1.532824 1.591720 0
M  V30 6 N 1.275557 -0.658775 0.954134 0
M  V30 7 C 0.538552 0.123462 0.115012 0
M  V30 8 C 0.992071 1.205263 -0.779807 0
M  V30 9 C 0.067570 1.894224 -1.538383 0
M  V30 10 C 0.573382 2.886526 -2.353636 0
M  V30 11 C 1.917557 3.189000 -2.422675 0
M  V30 12 C 2.457210 4.227394 -3.273932 0
M  V30 13 N 1.777493 5.046697 -4.101165 0
M  V30 14 N 2.629352 5.850943 -4.696230 0
M  V30 15 N 3.855316 5.601602 -4.298882 0
M  V30 16 N 3.752628 4.605790 -3.426233 0
M  V30 17 C 2.790452 2.448454 -1.625320 0
M  V30 18 C 2.352340 1.442325 -0.787267 0
M  V30 19 N -0.752398 -0.294923 0.250602 0
M  V30 20 C -0.798516 -1.303481 1.147082 0
M  V30 21 C -2.025436 -1.987482 1.527749 0
M  V30 22 C -2.934803 -1.147547 2.178873 0
M  V30 23 C -4.146062 -1.645747 2.595688 0
M  V30 24 C -4.514738 -2.954013 2.400576 0
M  V30 25 F -5.676716 -3.537778 2.770874 0
M  V30 26 C -3.614816 -3.784794 1.756443 0
M  V30 27 C -2.398101 -3.299961 1.333303 0
M  V30 28 C 1.483344 -1.954083 3.732376 0
M  V30 29 C 1.993107 -2.674949 4.789612 0
M  V30 30 N 1.984841 -4.025531 4.676723 0
M  V30 31 H 0.574307 -4.278797 1.588143 0
M  V30 32 H 2.312261 -0.559618 1.058021 0
M  V30 33 H -0.992481 1.681378 -1.506762 0
M  V30 34 H -0.079593 3.469064 -2.975206 0
M  V30 35 H 4.523241 4.135215 -2.897410 0
M  V30 36 H 3.876563 2.626213 -1.622387 0
M  V30 37 H 3.049205 0.885015 -0.181447 0
M  V30 38 H -2.746916 -0.084466 2.388690 0
M  V30 39 H -4.877630 -1.015583 3.106425 0
M  V30 40 H -3.804007 -4.835524 1.550869 0
M  V30 41 H -1.648624 -3.888163 0.823427 0
M  V30 42 H 1.520951 -0.875695 3.891583 0
M  V30 43 H 2.388028 -2.213875 5.680664 0
M  V30 44 H 2.360315 -4.627683 5.448510 0
M  V30 END ATOM
M  V30 BEGIN BOND
M  V30 1 2 1 2
M  V30 2 1 2 3
M  V30 3 2 3 4
M  V30 4 1 4 5
M  V30 5 1 5 6
M  V30 6 1 6 7
M  V30 7 1 7 8
M  V30 8 2 8 9
M  V30 9 1 9 10
M  V30 10 2 10 11
M  V30 11 1 11 12
M  V30 12 2 12 13
M  V30 13 1 13 14
M  V30 14 2 14 15
M  V30 15 1 15 16
M  V30 16 1 11 17
M  V30 17 2 17 18
M  V30 18 2 7 19
M  V30 19 1 19 20
M  V30 20 1 20 21
M  V30 21 2 21 22
M  V30 22 1 22 23
M  V30 23 2 23 24
M  V30 24 1 24 25
M  V30 25 1 24 26
M  V30 26 2 26 27
M  V30 27 1 4 28
M  V30 28 2 28 29
M  V30 29 1 29 30
M  V30 30 1 30 2
M  V30 31 2 20 5
M  V30 32 1 27 21
M  V30 33 1 18 8
M  V30 34 1 16 12
M  V30 35 1 3 31
M  V30 36 1 6 32
M  V30 37 1 9 33
M  V30 38 1 10 34
M  V30 39 1 16 35
M  V30 40 1 17 36
M  V30 41 1 18 37
M  V30 42 1 22 38
M  V30 43 1 23 39
M  V30 44 1 26 40
M  V30 45 1 27 41
M  V30 46 1 28 42
M  V30 47 1 29 43
M  V30 48 1 30 44
M  V30 END BOND
M  V30 END CTAB
M  END
>  <Dataset>  (315) 
ChEMBL_Kinases

>  <Ligand_Instance>  (315) 
nan

>  <PDB_ID>  (315) 
nan

>  <Standardized_SMILES>  (315) 
O=c1cc(-c2[nH]c(-c3ccc(-c4nnn[nH]4)cc3)nc2-c2ccc(F)cc2)cc[nH]1

>  <Name>  (315) 
nan

>  <Pocket>  (315) 
nan

>  <ATP_Site>  (315) 
nan

>  <Peripheral>  (315) 
nan

>  <Num_H_Atoms_ProtBoundConf>  (315) 
nan

>  <Num_Resolved_Atoms>  (315) 
nan

>  <Num_Not_Resolved_Atoms>  (315) 
nan

$$$$
CHEMBL3314283
     RDKit          3D

  0  0  0  0  0  0  0  0  0  0999 V3000
M  V30 BEGIN CTAB
M  V30 COUNTS 44 47 0 0 0
M  V30 BEGIN ATOM
M  V30 1 O -0.248073 -5.115317 4.278668 0
M  V30 2 C -0.430981 -4.711240 3.093009 0
M  V30 3 C 0.079311 -3.451878 2.861934 0
M  V30 4 C -0.052295 -2.891393 1.608377 0
M  V30 5 C 0.370398 -1.604864 1.071732 0
M  V30 6 N 1.302529 -1.477944 0.103614 0
M  V30 7 C 1.497503 -0.184276 -0.199708 0
M  V30 8 C 2.409798 0.453514 -1.188497 0
M  V30 9 C 1.532852 1.053018 -2.277054 0
M  V30 10 C 2.370812 1.920454 -3.185633 0
M  V30 11 N 2.944988 3.045832 -2.489460 0
M  V30 12 C 2.900773 2.909541 -1.057755 0
M  V30 13 C 3.260389 1.523741 -0.574118 0
M  V30 14 N 0.668756 0.504025 0.597284 0
M  V30 15 C -0.036844 -0.326451 1.388798 0
M  V30 16 C -1.035816 0.025439 2.388978 0
M  V30 17 C -2.161671 0.608809 1.817848 0
M  V30 18 C -3.234887 1.024830 2.573367 0
M  V30 19 C -3.157970 0.841713 3.940562 0
M  V30 20 F -4.147305 1.206952 4.800086 0
M  V30 21 C -2.054046 0.264243 4.552412 0
M  V30 22 C -1.008511 -0.133556 3.749011 0
M  V30 23 C -0.702997 -3.626084 0.609716 0
M  V30 24 C -1.207032 -4.903082 0.885995 0
M  V30 25 N -1.053491 -5.406294 2.126132 0
M  V30 26 H 0.598585 -2.785691 3.531076 0
M  V30 27 H 1.869858 -2.200523 -0.422062 0
M  V30 28 H 3.007035 -0.341187 -1.708145 0
M  V30 29 H 0.699850 1.656925 -1.864376 0
M  V30 30 H 1.155936 0.223043 -2.907086 0
M  V30 31 H 1.709867 2.286311 -3.996492 0
M  V30 32 H 3.210807 1.336305 -3.601078 0
M  V30 33 H 3.851840 3.364141 -2.871848 0
M  V30 34 H 1.911678 3.170399 -0.657700 0
M  V30 35 H 3.657149 3.609398 -0.632460 0
M  V30 36 H 4.336388 1.316911 -0.765764 0
M  V30 37 H 3.109694 1.545485 0.535186 0
M  V30 38 H -2.316650 0.796254 0.747874 0
M  V30 39 H -4.136443 1.483350 2.191525 0
M  V30 40 H -1.945034 0.101091 5.597884 0
M  V30 41 H -0.111776 -0.585566 4.113408 0
M  V30 42 H -0.890103 -3.334281 -0.422818 0
M  V30 43 H -1.715092 -5.504925 0.146824 0
M  V30 44 H -1.411895 -6.357994 2.388340 0
M  V30 END ATOM
M  V30 BEGIN BOND
M  V30 1 2 1 2
M  V30 2 1 2 3
M  V30 3 2 3 4
M  V30 4 1 4 5
M  V30 5 1 5 6
M  V30 6 1 6 7
M  V30 7 1 7 8
M  V30 8 1 8 9
M  V30 9 1 9 10
M  V30 10 1 10 11
M  V30 11 1 11 12
M  V30 12 1 12 13
M  V30 13 2 7 14
M  V30 14 1 14 15
M  V30 15 1 15 16
M  V30 16 2 16 17
M  V30 17 1 17 18
M  V30 18 2 18 19
M  V30 19 1 19 20
M  V30 20 1 19 21
M  V30 21 2 21 22
M  V30 22 1 4 23
M  V30 23 2 23 24
M  V30 24 1 24 25
M  V30 25 1 25 2
M  V30 26 2 15 5
M  V30 27 1 22 16
M  V30 28 1 13 8
M  V30 29 1 3 26
M  V30 30 1 6 27
M  V30 31 1 8 28
M  V30 32 1 9 29
M  V30 33 1 9 30
M  V30 34 1 10 31
M  V30 35 1 10 32
M  V30 36 1 11 33
M  V30 37 1 12 34
M  V30 38 1 12 35
M  V30 39 1 13 36
M  V30 40 1 13 37
M  V30 41 1 17 38
M  V30 42 1 18 39
M  V30 43 1 21 40
M  V30 44 1 22 41
M  V30 45 1 23 42
M  V30 46 1 24 43
M  V30 47 1 25 44
M  V30 END BOND
M  V30 END CTAB
M  END
>  <Dataset>  (316) 
ChEMBL_Kinases

>  <Ligand_Instance>  (316) 
nan

>  <PDB_ID>  (316) 
nan

>  <Standardized_SMILES>  (316) 
O=c1cc(-c2[nH]c(C3CCNCC3)nc2-c2ccc(F)cc2)cc[nH]1

>  <Name>  (316) 
nan

>  <Pocket>  (316) 
nan

>  <ATP_Site>  (316) 
nan

>  <Peripheral>  (316) 
nan

>  <Num_H_Atoms_ProtBoundConf>  (316) 
nan

>  <Num_Resolved_Atoms>  (316) 
nan

>  <Num_Not_Resolved_Atoms>  (316) 
nan

$$$$
CHEMBL3314147
     RDKit          3D

  0  0  0  0  0  0  0  0  0  0999 V3000
M  V30 BEGIN CTAB
M  V30 COUNTS 51 55 0 0 0
M  V30 BEGIN ATOM
M  V30 1 N 3.052168 -8.252478 0.632102 0
M  V30 2 C 3.020322 -7.131383 0.449480 0
M  V30 3 C 2.995894 -5.693195 0.223999 0
M  V30 4 C 2.959311 -4.895001 1.356573 0
M  V30 5 C 2.934668 -3.505495 1.201142 0
M  V30 6 C 2.946946 -2.956590 -0.067037 0
M  V30 7 C 2.920885 -1.503398 -0.209230 0
M  V30 8 C 2.928396 -0.780716 -1.383073 0
M  V30 9 C 2.894353 0.533507 -0.956836 0
M  V30 10 C 2.868176 0.555789 0.426149 0
M  V30 11 C 2.828429 1.742480 1.292793 0
M  V30 12 N 3.982381 2.349006 1.597081 0
M  V30 13 C 3.766774 3.410081 2.393101 0
M  V30 14 C 2.397194 3.457207 2.588861 0
M  V30 15 N 1.834087 2.435516 1.913382 0
M  V30 16 C 0.515322 1.915656 1.690813 0
M  V30 17 C -0.355092 2.605364 0.838119 0
M  V30 18 C -1.621675 2.045881 0.664984 0
M  V30 19 C -2.055943 0.898674 1.258272 0
M  V30 20 N -3.348164 0.362753 1.060588 0
M  V30 21 C -4.407129 0.948529 0.263453 0
M  V30 22 C -4.504241 0.077359 -0.987377 0
M  V30 23 N -4.657335 -1.315716 -0.598883 0
M  V30 24 C -4.925427 -1.421222 0.837254 0
M  V30 25 C -3.764377 -0.888030 1.661807 0
M  V30 26 C -1.192449 0.230300 2.093430 0
M  V30 27 C 0.080210 0.754215 2.293478 0
M  V30 28 F 0.985016 0.128844 3.117648 0
M  V30 29 O 2.885651 -0.705503 0.831186 0
M  V30 30 C 2.983878 -3.795759 -1.181443 0
M  V30 31 C 3.009399 -5.183885 -1.071945 0
M  V30 32 H 2.949660 -5.320598 2.338894 0
M  V30 33 H 2.906555 -2.927459 2.110846 0
M  V30 34 H 2.955257 -1.192269 -2.381730 0
M  V30 35 H 2.889328 1.396302 -1.619000 0
M  V30 36 H 4.390145 4.143307 2.852258 0
M  V30 37 H 1.704657 4.109154 3.144029 0
M  V30 38 H -0.038043 3.518241 0.353686 0
M  V30 39 H -2.246418 2.612088 0.003744 0
M  V30 40 H -5.388133 0.963280 0.823435 0
M  V30 41 H -4.174569 1.981343 0.015206 0
M  V30 42 H -5.310529 0.381692 -1.654219 0
M  V30 43 H -3.545297 0.191564 -1.515901 0
M  V30 44 H -5.479456 -1.704827 -1.076473 0
M  V30 45 H -4.940004 -2.532664 1.031061 0
M  V30 46 H -5.895434 -0.989952 1.104232 0
M  V30 47 H -2.948911 -1.632964 1.741467 0
M  V30 48 H -4.178401 -0.682958 2.682874 0
M  V30 49 H -1.391326 -0.682355 2.630878 0
M  V30 50 H 2.992779 -3.349886 -2.157035 0
M  V30 51 H 3.038213 -5.830539 -1.933461 0
M  V30 END ATOM
M  V30 BEGIN BOND
M  V30 1 3 1 2
M  V30 2 1 2 3
M  V30 3 2 3 4
M  V30 4 1 4 5
M  V30 5 2 5 6
M  V30 6 1 6 7
M  V30 7 2 7 8
M  V30 8 1 8 9
M  V30 9 2 9 10
M  V30 10 1 10 11
M  V30 11 2 11 12
M  V30 12 1 12 13
M  V30 13 2 13 14
M  V30 14 1 14 15
M  V30 15 1 15 16
M  V30 16 2 16 17
M  V30 17 1 17 18
M  V30 18 2 18 19
M  V30 19 1 19 20
M  V30 20 1 20 21
M  V30 21 1 21 22
M  V30 22 1 22 23
M  V30 23 1 23 24
M  V30 24 1 24 25
M  V30 25 1 19 26
M  V30 26 2 26 27
M  V30 27 1 27 28
M  V30 28 1 10 29
M  V30 29 1 6 30
M  V30 30 2 30 31
M  V30 31 1 31 3
M  V30 32 1 29 7
M  V30 33 1 15 11
M  V30 34 1 27 16
M  V30 35 1 25 20
M  V30 36 1 4 32
M  V30 37 1 5 33
M  V30 38 1 8 34
M  V30 39 1 9 35
M  V30 40 1 13 36
M  V30 41 1 14 37
M  V30 42 1 17 38
M  V30 43 1 18 39
M  V30 44 1 21 40
M  V30 45 1 21 41
M  V30 46 1 22 42
M  V30 47 1 22 43
M  V30 48 1 23 44
M  V30 49 1 24 45
M  V30 50 1 24 46
M  V30 51 1 25 47
M  V30 52 1 25 48
M  V30 53 1 26 49
M  V30 54 1 30 50
M  V30 55 1 31 51
M  V30 END BOND
M  V30 END CTAB
M  END
>  <Dataset>  (317) 
ChEMBL_Kinases

>  <Ligand_Instance>  (317) 
nan

>  <PDB_ID>  (317) 
nan

>  <Standardized_SMILES>  (317) 
N#Cc1ccc(-c2ccc(-c3nccn3-c3ccc(N4CCNCC4)cc3F)o2)cc1

>  <Name>  (317) 
nan

>  <Pocket>  (317) 
nan

>  <ATP_Site>  (317) 
nan

>  <Peripheral>  (317) 
nan

>  <Num_H_Atoms_ProtBoundConf>  (317) 
nan

>  <Num_Resolved_Atoms>  (317) 
nan

>  <Num_Not_Resolved_Atoms>  (317) 
nan

$$$$
CHEMBL3314148
     RDKit          3D

  0  0  0  0  0  0  0  0  0  0999 V3000
M  V30 BEGIN CTAB
M  V30 COUNTS 51 55 0 0 0
M  V30 BEGIN ATOM
M  V30 1 N 3.821310 -7.517985 -3.017915 0
M  V30 2 C 3.620456 -6.433254 -2.682126 0
M  V30 3 C 3.377716 -5.071373 -2.237441 0
M  V30 4 C 3.714100 -4.703118 -0.951608 0
M  V30 5 C 3.487395 -3.404435 -0.513165 0
M  V30 6 C 2.920585 -2.523982 -1.413495 0
M  V30 7 C 2.669571 -1.151672 -0.982729 0
M  V30 8 C 2.115601 -0.125161 -1.719996 0
M  V30 9 C 2.092715 0.968056 -0.863949 0
M  V30 10 C 2.629844 0.565291 0.350671 0
M  V30 11 C 2.841221 1.310136 1.591072 0
M  V30 12 N 4.096110 1.747448 1.867191 0
M  V30 13 C 4.092374 2.409394 3.046182 0
M  V30 14 C 2.795125 2.368413 3.492053 0
M  V30 15 N 2.018257 1.697072 2.608430 0
M  V30 16 C 0.658865 1.321157 2.483380 0
M  V30 17 C -0.294496 2.202869 2.018379 0
M  V30 18 C -1.618823 1.832906 1.897389 0
M  V30 19 C -2.042199 0.569411 2.235751 0
M  V30 20 N -3.403674 0.193773 2.110693 0
M  V30 21 C -4.518680 1.010345 1.686235 0
M  V30 22 C -4.906642 0.618746 0.256214 0
M  V30 23 N -4.536936 -0.764667 0.102904 0
M  V30 24 C -4.863074 -1.560412 1.253151 0
M  V30 25 C -3.953951 -1.114547 2.386454 0
M  V30 26 C -1.117699 -0.334200 2.702758 0
M  V30 27 C 0.195629 0.048167 2.817623 0
M  V30 28 Cl 1.416295 -1.059046 3.405564 0
M  V30 29 O 2.960096 -0.708864 0.231419 0
M  V30 30 C 2.581773 -2.897218 -2.710711 0
M  V30 31 C 2.809529 -4.179038 -3.131776 0
M  V30 32 H 4.160427 -5.408711 -0.253665 0
M  V30 33 H 3.754235 -3.112818 0.506427 0
M  V30 34 H 1.768495 -0.164468 -2.757666 0
M  V30 35 H 1.734943 1.955619 -1.065885 0
M  V30 36 H 4.844767 2.910367 3.636584 0
M  V30 37 H 2.239751 2.732009 4.361268 0
M  V30 38 H 0.047286 3.207500 1.750184 0
M  V30 39 H -2.269104 2.607017 1.522722 0
M  V30 40 H -4.203958 2.070625 1.607885 0
M  V30 41 H -5.401877 0.951781 2.356346 0
M  V30 42 H -4.327099 1.215261 -0.470794 0
M  V30 43 H -5.985708 0.805945 0.076770 0
M  V30 44 H -4.760964 -1.190403 -0.800345 0
M  V30 45 H -5.921069 -1.550662 1.551018 0
M  V30 46 H -4.591372 -2.620350 0.982521 0
M  V30 47 H -4.616925 -0.972069 3.290982 0
M  V30 48 H -3.236953 -1.877162 2.676772 0
M  V30 49 H -1.326037 -1.332386 2.993632 0
M  V30 50 H 2.134896 -2.196294 -3.415020 0
M  V30 51 H 2.545573 -4.471720 -4.143682 0
M  V30 END ATOM
M  V30 BEGIN BOND
M  V30 1 3 1 2
M  V30 2 1 2 3
M  V30 3 2 3 4
M  V30 4 1 4 5
M  V30 5 2 5 6
M  V30 6 1 6 7
M  V30 7 2 7 8
M  V30 8 1 8 9
M  V30 9 2 9 10
M  V30 10 1 10 11
M  V30 11 2 11 12
M  V30 12 1 12 13
M  V30 13 2 13 14
M  V30 14 1 14 15
M  V30 15 1 15 16
M  V30 16 2 16 17
M  V30 17 1 17 18
M  V30 18 2 18 19
M  V30 19 1 19 20
M  V30 20 1 20 21
M  V30 21 1 21 22
M  V30 22 1 22 23
M  V30 23 1 23 24
M  V30 24 1 24 25
M  V30 25 1 19 26
M  V30 26 2 26 27
M  V30 27 1 27 28
M  V30 28 1 10 29
M  V30 29 1 6 30
M  V30 30 2 30 31
M  V30 31 1 31 3
M  V30 32 1 29 7
M  V30 33 1 15 11
M  V30 34 1 27 16
M  V30 35 1 25 20
M  V30 36 1 4 32
M  V30 37 1 5 33
M  V30 38 1 8 34
M  V30 39 1 9 35
M  V30 40 1 13 36
M  V30 41 1 14 37
M  V30 42 1 17 38
M  V30 43 1 18 39
M  V30 44 1 21 40
M  V30 45 1 21 41
M  V30 46 1 22 42
M  V30 47 1 22 43
M  V30 48 1 23 44
M  V30 49 1 24 45
M  V30 50 1 24 46
M  V30 51 1 25 47
M  V30 52 1 25 48
M  V30 53 1 26 49
M  V30 54 1 30 50
M  V30 55 1 31 51
M  V30 END BOND
M  V30 END CTAB
M  END
>  <Dataset>  (318) 
ChEMBL_Kinases

>  <Ligand_Instance>  (318) 
nan

>  <PDB_ID>  (318) 
nan

>  <Standardized_SMILES>  (318) 
N#Cc1ccc(-c2ccc(-c3nccn3-c3ccc(N4CCNCC4)cc3Cl)o2)cc1

>  <Name>  (318) 
nan

>  <Pocket>  (318) 
nan

>  <ATP_Site>  (318) 
nan

>  <Peripheral>  (318) 
nan

>  <Num_H_Atoms_ProtBoundConf>  (318) 
nan

>  <Num_Resolved_Atoms>  (318) 
nan

>  <Num_Not_Resolved_Atoms>  (318) 
nan

$$$$
CHEMBL3314149
     RDKit          3D

  0  0  0  0  0  0  0  0  0  0999 V3000
M  V30 BEGIN CTAB
M  V30 COUNTS 54 58 0 0 0
M  V30 BEGIN ATOM
M  V30 1 C -0.679046 2.463996 -0.219837 0
M  V30 2 C -0.232935 1.427102 0.745815 0
M  V30 3 C 1.076527 1.017988 0.759578 0
M  V30 4 C 1.539485 0.069739 1.624868 0
M  V30 5 N 2.886748 -0.380054 1.670325 0
M  V30 6 C 3.453726 -1.378513 2.551816 0
M  V30 7 C 4.436429 -0.673720 3.454892 0
M  V30 8 N 5.494263 -0.000618 2.786844 0
M  V30 9 C 5.103211 0.719140 1.603283 0
M  V30 10 C 3.973516 0.056698 0.856126 0
M  V30 11 C 0.611764 -0.448579 2.480450 0
M  V30 12 C -0.701558 -0.068255 2.498766 0
M  V30 13 C -1.168551 0.904865 1.608136 0
M  V30 14 N -2.513759 1.362760 1.553726 0
M  V30 15 C -3.088139 2.173189 2.458085 0
M  V30 16 C -4.392217 2.404970 2.085370 0
M  V30 17 N -4.582226 1.716429 0.941468 0
M  V30 18 C -3.434948 1.066643 0.596772 0
M  V30 19 C -3.201081 0.211658 -0.563403 0
M  V30 20 C -3.255728 0.415869 -1.941615 0
M  V30 21 C -2.934626 -0.760635 -2.580341 0
M  V30 22 C -2.693683 -1.647526 -1.532009 0
M  V30 23 C -2.311751 -3.048465 -1.701776 0
M  V30 24 C -2.106194 -3.806164 -0.555942 0
M  V30 25 C -1.740978 -5.145810 -0.662953 0
M  V30 26 C -1.596608 -5.671581 -1.941586 0
M  V30 27 C -1.221586 -7.046867 -2.169011 0
M  V30 28 N -0.933606 -8.162618 -2.340986 0
M  V30 29 C -1.799277 -4.924448 -3.093876 0
M  V30 30 C -2.160565 -3.599300 -2.956575 0
M  V30 31 O -2.860263 -1.039340 -0.400340 0
M  V30 32 H -0.879579 1.966754 -1.197441 0
M  V30 33 H -1.604584 2.939513 0.134260 0
M  V30 34 H 0.113405 3.259629 -0.339462 0
M  V30 35 H 1.732202 1.485022 0.047302 0
M  V30 36 H 2.690590 -1.843113 3.213228 0
M  V30 37 H 4.023410 -2.177714 2.006247 0
M  V30 38 H 4.917989 -1.502467 4.051564 0
M  V30 39 H 3.922572 -0.066176 4.233418 0
M  V30 40 H 5.851646 0.736252 3.466374 0
M  V30 41 H 5.980316 0.722660 0.921300 0
M  V30 42 H 4.871781 1.800555 1.789808 0
M  V30 43 H 3.610852 0.793120 0.117530 0
M  V30 44 H 4.376192 -0.799996 0.243663 0
M  V30 45 H 0.794921 -1.199592 3.225571 0
M  V30 46 H -1.475031 -0.452720 3.161039 0
M  V30 47 H -2.670844 2.616295 3.357657 0
M  V30 48 H -5.118160 3.015014 2.603484 0
M  V30 49 H -3.520343 1.387891 -2.332266 0
M  V30 50 H -2.894906 -0.903518 -3.638349 0
M  V30 51 H -2.206348 -3.441766 0.460291 0
M  V30 52 H -1.552582 -5.839514 0.140469 0
M  V30 53 H -1.697011 -5.296666 -4.087877 0
M  V30 54 H -2.341875 -2.931469 -3.785180 0
M  V30 END ATOM
M  V30 BEGIN BOND
M  V30 1 1 1 2
M  V30 2 2 2 3
M  V30 3 1 3 4
M  V30 4 1 4 5
M  V30 5 1 5 6
M  V30 6 1 6 7
M  V30 7 1 7 8
M  V30 8 1 8 9
M  V30 9 1 9 10
M  V30 10 2 4 11
M  V30 11 1 11 12
M  V30 12 2 12 13
M  V30 13 1 13 14
M  V30 14 1 14 15
M  V30 15 2 15 16
M  V30 16 1 16 17
M  V30 17 2 17 18
M  V30 18 1 18 19
M  V30 19 2 19 20
M  V30 20 1 20 21
M  V30 21 2 21 22
M  V30 22 1 22 23
M  V30 23 2 23 24
M  V30 24 1 24 25
M  V30 25 2 25 26
M  V30 26 1 26 27
M  V30 27 3 27 28
M  V30 28 1 26 29
M  V30 29 2 29 30
M  V30 30 1 22 31
M  V30 31 1 13 2
M  V30 32 1 18 14
M  V30 33 1 31 19
M  V30 34 1 10 5
M  V30 35 1 30 23
M  V30 36 1 1 32
M  V30 37 1 1 33
M  V30 38 1 1 34
M  V30 39 1 3 35
M  V30 40 1 6 36
M  V30 41 1 6 37
M  V30 42 1 7 38
M  V30 43 1 7 39
M  V30 44 1 8 40
M  V30 45 1 9 41
M  V30 46 1 9 42
M  V30 47 1 10 43
M  V30 48 1 10 44
M  V30 49 1 11 45
M  V30 50 1 12 46
M  V30 51 1 15 47
M  V30 52 1 16 48
M  V30 53 1 20 49
M  V30 54 1 21 50
M  V30 55 1 24 51
M  V30 56 1 25 52
M  V30 57 1 29 53
M  V30 58 1 30 54
M  V30 END BOND
M  V30 END CTAB
M  END
>  <Dataset>  (319) 
ChEMBL_Kinases

>  <Ligand_Instance>  (319) 
nan

>  <PDB_ID>  (319) 
nan

>  <Standardized_SMILES>  (319) 
Cc1cc(N2CCNCC2)ccc1-n1ccnc1-c1ccc(-c2ccc(C#N)cc2)o1

>  <Name>  (319) 
nan

>  <Pocket>  (319) 
nan

>  <ATP_Site>  (319) 
nan

>  <Peripheral>  (319) 
nan

>  <Num_H_Atoms_ProtBoundConf>  (319) 
nan

>  <Num_Resolved_Atoms>  (319) 
nan

>  <Num_Not_Resolved_Atoms>  (319) 
nan

$$$$
CHEMBL3314150
     RDKit          3D

  0  0  0  0  0  0  0  0  0  0999 V3000
M  V30 BEGIN CTAB
M  V30 COUNTS 51 55 0 0 0
M  V30 BEGIN ATOM
M  V30 1 N 3.720791 -7.662366 -2.516127 0
M  V30 2 C 3.567827 -6.523070 -2.268759 0
M  V30 3 C 3.373948 -5.139778 -1.949198 0
M  V30 4 C 3.558921 -4.723782 -0.646494 0
M  V30 5 C 3.369159 -3.375187 -0.338988 0
M  V30 6 C 2.998699 -2.492976 -1.359569 0
M  V30 7 C 2.807552 -1.089583 -1.008051 0
M  V30 8 C 2.444380 -0.072020 -1.864185 0
M  V30 9 C 2.394890 1.057666 -1.064826 0
M  V30 10 C 2.727879 0.687516 0.240438 0
M  V30 11 C 2.838882 1.446084 1.490949 0
M  V30 12 N 4.002980 1.999354 1.873384 0
M  V30 13 C 3.886752 2.647695 3.045391 0
M  V30 14 C 2.570480 2.487421 3.413239 0
M  V30 15 N 1.948833 1.760161 2.466315 0
M  V30 16 C 0.605437 1.324708 2.374261 0
M  V30 17 C -0.389722 2.194898 1.934008 0
M  V30 18 C -1.700766 1.775816 1.842367 0
M  V30 19 C -2.100281 0.507097 2.170430 0
M  V30 20 N -3.455113 0.102719 2.068875 0
M  V30 21 C -4.571652 0.936177 1.678661 0
M  V30 22 C -4.954088 0.584794 0.244313 0
M  V30 23 N -4.553068 -0.793346 -0.017069 0
M  V30 24 C -4.797927 -1.632322 1.145009 0
M  V30 25 C -3.960941 -1.223269 2.335301 0
M  V30 26 C -1.134634 -0.367912 2.607133 0
M  V30 27 C 0.174729 0.054331 2.697488 0
M  V30 28 Br 1.538893 -1.139742 3.301153 0
M  V30 29 O 2.963168 -0.611312 0.203944 0
M  V30 30 C 2.817173 -2.928264 -2.663018 0
M  V30 31 C 3.004637 -4.264417 -2.970328 0
M  V30 32 H 3.845127 -5.386825 0.158843 0
M  V30 33 H 3.514900 -3.049900 0.684988 0
M  V30 34 H 2.238841 -0.104947 -2.911370 0
M  V30 35 H 2.155719 2.077273 -1.305982 0
M  V30 36 H 4.622830 3.191738 3.621492 0
M  V30 37 H 2.078926 2.867222 4.306876 0
M  V30 38 H -0.076454 3.204170 1.672321 0
M  V30 39 H -2.374246 2.540677 1.488308 0
M  V30 40 H -4.301544 2.009526 1.722990 0
M  V30 41 H -5.441464 0.824675 2.368287 0
M  V30 42 H -4.338129 1.216428 -0.438014 0
M  V30 43 H -6.004656 0.790275 0.024912 0
M  V30 44 H -5.205327 -1.170328 -0.756781 0
M  V30 45 H -5.865939 -1.649075 1.416593 0
M  V30 46 H -4.516042 -2.666837 0.884870 0
M  V30 47 H -4.651197 -1.112671 3.221983 0
M  V30 48 H -3.222938 -1.965474 2.622876 0
M  V30 49 H -1.316283 -1.371499 2.889700 0
M  V30 50 H 2.527978 -2.228949 -3.449711 0
M  V30 51 H 2.879779 -4.669275 -3.964563 0
M  V30 END ATOM
M  V30 BEGIN BOND
M  V30 1 3 1 2
M  V30 2 1 2 3
M  V30 3 2 3 4
M  V30 4 1 4 5
M  V30 5 2 5 6
M  V30 6 1 6 7
M  V30 7 2 7 8
M  V30 8 1 8 9
M  V30 9 2 9 10
M  V30 10 1 10 11
M  V30 11 2 11 12
M  V30 12 1 12 13
M  V30 13 2 13 14
M  V30 14 1 14 15
M  V30 15 1 15 16
M  V30 16 2 16 17
M  V30 17 1 17 18
M  V30 18 2 18 19
M  V30 19 1 19 20
M  V30 20 1 20 21
M  V30 21 1 21 22
M  V30 22 1 22 23
M  V30 23 1 23 24
M  V30 24 1 24 25
M  V30 25 1 19 26
M  V30 26 2 26 27
M  V30 27 1 27 28
M  V30 28 1 10 29
M  V30 29 1 6 30
M  V30 30 2 30 31
M  V30 31 1 31 3
M  V30 32 1 29 7
M  V30 33 1 15 11
M  V30 34 1 27 16
M  V30 35 1 25 20
M  V30 36 1 4 32
M  V30 37 1 5 33
M  V30 38 1 8 34
M  V30 39 1 9 35
M  V30 40 1 13 36
M  V30 41 1 14 37
M  V30 42 1 17 38
M  V30 43 1 18 39
M  V30 44 1 21 40
M  V30 45 1 21 41
M  V30 46 1 22 42
M  V30 47 1 22 43
M  V30 48 1 23 44
M  V30 49 1 24 45
M  V30 50 1 24 46
M  V30 51 1 25 47
M  V30 52 1 25 48
M  V30 53 1 26 49
M  V30 54 1 30 50
M  V30 55 1 31 51
M  V30 END BOND
M  V30 END CTAB
M  END
>  <Dataset>  (320) 
ChEMBL_Kinases

>  <Ligand_Instance>  (320) 
nan

>  <PDB_ID>  (320) 
nan

>  <Standardized_SMILES>  (320) 
N#Cc1ccc(-c2ccc(-c3nccn3-c3ccc(N4CCNCC4)cc3Br)o2)cc1

>  <Name>  (320) 
nan

>  <Pocket>  (320) 
nan

>  <ATP_Site>  (320) 
nan

>  <Peripheral>  (320) 
nan

>  <Num_H_Atoms_ProtBoundConf>  (320) 
nan

>  <Num_Resolved_Atoms>  (320) 
nan

>  <Num_Not_Resolved_Atoms>  (320) 
nan

$$$$
CHEMBL3314151
     RDKit          3D

  0  0  0  0  0  0  0  0  0  0999 V3000
M  V30 BEGIN CTAB
M  V30 COUNTS 54 58 0 0 0
M  V30 BEGIN ATOM
M  V30 1 N 6.962559 -5.652125 1.364174 0
M  V30 2 C 6.313696 -4.696106 1.431653 0
M  V30 3 C 5.487058 -3.502888 1.508680 0
M  V30 4 C 5.070497 -2.971022 2.713260 0
M  V30 5 C 4.284013 -1.834632 2.767461 0
M  V30 6 C 3.919040 -1.235067 1.579909 0
M  V30 7 C 3.089170 -0.029708 1.531432 0
M  V30 8 C 2.603283 0.606938 2.663842 0
M  V30 9 C 1.874736 1.689414 2.213214 0
M  V30 10 C 1.937794 1.679001 0.852958 0
M  V30 11 C 1.450965 2.452594 -0.292636 0
M  V30 12 N 2.055025 3.527200 -0.853939 0
M  V30 13 C 1.292378 3.964161 -1.893381 0
M  V30 14 C 0.210426 3.108533 -1.929977 0
M  V30 15 N 0.312228 2.182665 -0.945731 0
M  V30 16 C -0.665305 1.170442 -0.745668 0
M  V30 17 C -0.463397 -0.096725 -1.219293 0
M  V30 18 C -1.404590 -1.085794 -1.030901 0
M  V30 19 C -2.580788 -0.887527 -0.375416 0
M  V30 20 N -3.554078 -1.896090 -0.173923 0
M  V30 21 C -4.838765 -1.714432 0.472443 0
M  V30 22 C -4.787782 -2.559201 1.753207 0
M  V30 23 N -4.849995 -3.930227 1.287336 0
M  V30 24 C -3.769039 -4.286025 0.433289 0
M  V30 25 C -3.383854 -3.247708 -0.590763 0
M  V30 26 C -2.753064 0.399599 0.089013 0
M  V30 27 C -1.844318 1.431516 -0.070384 0
M  V30 28 C -2.056506 2.797957 0.437551 0
M  V30 29 F -3.304124 2.813656 1.075853 0
M  V30 30 F -2.016149 3.780082 -0.503399 0
M  V30 31 F -1.144396 3.119272 1.422657 0
M  V30 32 O 2.674616 0.633565 0.479772 0
M  V30 33 C 4.350873 -1.788818 0.371265 0
M  V30 34 C 5.138172 -2.925608 0.303969 0
M  V30 35 H 5.388120 -3.483949 3.598008 0
M  V30 36 H 3.957577 -1.417240 3.701611 0
M  V30 37 H 2.700821 0.403552 3.706323 0
M  V30 38 H 1.311933 2.478790 2.652012 0
M  V30 39 H 1.673510 4.811365 -2.412402 0
M  V30 40 H -0.530997 3.291260 -2.704580 0
M  V30 41 H 0.467500 -0.273766 -1.743946 0
M  V30 42 H -1.140038 -2.026779 -1.441771 0
M  V30 43 H -5.639574 -2.201103 -0.159307 0
M  V30 44 H -5.091700 -0.673111 0.704468 0
M  V30 45 H -5.665392 -2.366991 2.389693 0
M  V30 46 H -3.816305 -2.326911 2.225330 0
M  V30 47 H -5.799163 -4.107918 0.914793 0
M  V30 48 H -4.080753 -5.197854 -0.133183 0
M  V30 49 H -2.887547 -4.636154 1.040695 0
M  V30 50 H -4.046053 -3.388834 -1.495517 0
M  V30 51 H -2.381228 -3.528678 -0.945350 0
M  V30 52 H -3.634631 0.711969 0.629056 0
M  V30 53 H 4.063747 -1.316744 -0.569718 0
M  V30 54 H 5.430753 -3.291255 -0.675043 0
M  V30 END ATOM
M  V30 BEGIN BOND
M  V30 1 3 1 2
M  V30 2 1 2 3
M  V30 3 2 3 4
M  V30 4 1 4 5
M  V30 5 2 5 6
M  V30 6 1 6 7
M  V30 7 2 7 8
M  V30 8 1 8 9
M  V30 9 2 9 10
M  V30 10 1 10 11
M  V30 11 2 11 12
M  V30 12 1 12 13
M  V30 13 2 13 14
M  V30 14 1 14 15
M  V30 15 1 15 16
M  V30 16 2 16 17
M  V30 17 1 17 18
M  V30 18 2 18 19
M  V30 19 1 19 20
M  V30 20 1 20 21
M  V30 21 1 21 22
M  V30 22 1 22 23
M  V30 23 1 23 24
M  V30 24 1 24 25
M  V30 25 1 19 26
M  V30 26 2 26 27
M  V30 27 1 27 28
M  V30 28 1 28 29
M  V30 29 1 28 30
M  V30 30 1 28 31
M  V30 31 1 10 32
M  V30 32 1 6 33
M  V30 33 2 33 34
M  V30 34 1 34 3
M  V30 35 1 32 7
M  V30 36 1 15 11
M  V30 37 1 27 16
M  V30 38 1 25 20
M  V30 39 1 4 35
M  V30 40 1 5 36
M  V30 41 1 8 37
M  V30 42 1 9 38
M  V30 43 1 13 39
M  V30 44 1 14 40
M  V30 45 1 17 41
M  V30 46 1 18 42
M  V30 47 1 21 43
M  V30 48 1 21 44
M  V30 49 1 22 45
M  V30 50 1 22 46
M  V30 51 1 23 47
M  V30 52 1 24 48
M  V30 53 1 24 49
M  V30 54 1 25 50
M  V30 55 1 25 51
M  V30 56 1 26 52
M  V30 57 1 33 53
M  V30 58 1 34 54
M  V30 END BOND
M  V30 END CTAB
M  END
>  <Dataset>  (321) 
ChEMBL_Kinases

>  <Ligand_Instance>  (321) 
nan

>  <PDB_ID>  (321) 
nan

>  <Standardized_SMILES>  (321) 
N#Cc1ccc(-c2ccc(-c3nccn3-c3ccc(N4CCNCC4)cc3C(F)(F)F)o2)cc1

>  <Name>  (321) 
nan

>  <Pocket>  (321) 
nan

>  <ATP_Site>  (321) 
nan

>  <Peripheral>  (321) 
nan

>  <Num_H_Atoms_ProtBoundConf>  (321) 
nan

>  <Num_Resolved_Atoms>  (321) 
nan

>  <Num_Not_Resolved_Atoms>  (321) 
nan

$$$$
CHEMBL3314152
     RDKit          3D

  0  0  0  0  0  0  0  0  0  0999 V3000
M  V30 BEGIN CTAB
M  V30 COUNTS 59 64 0 0 0
M  V30 BEGIN ATOM
M  V30 1 N 3.749727 -6.284648 4.174008 0
M  V30 2 C 3.568805 -5.196424 3.814762 0
M  V30 3 C 3.326224 -3.858812 3.362527 0
M  V30 4 C 3.777467 -2.763962 4.077198 0
M  V30 5 C 3.514820 -1.500688 3.594594 0
M  V30 6 C 2.824553 -1.231354 2.433117 0
M  V30 7 C 2.555971 0.112848 1.940659 0
M  V30 8 C 2.997583 1.236023 2.648950 0
M  V30 9 C 2.570618 2.290529 1.899682 0
M  V30 10 C 1.893067 1.800104 0.775790 0
M  V30 11 C 1.301162 2.693857 -0.245005 0
M  V30 12 N 1.941324 3.823442 -0.630059 0
M  V30 13 C 1.206294 4.463137 -1.552077 0
M  V30 14 C 0.075795 3.701776 -1.741122 0
M  V30 15 N 0.122966 2.600134 -0.935303 0
M  V30 16 C -0.693309 1.471527 -0.658899 0
M  V30 17 C -1.643625 1.621568 0.328823 0
M  V30 18 C -2.452448 0.546490 0.635970 0
M  V30 19 C -2.326945 -0.645350 -0.014343 0
M  V30 20 N -3.187249 -1.691817 0.355816 0
M  V30 21 C -4.156837 -1.488031 1.386064 0
M  V30 22 C -5.068029 -2.692206 1.497465 0
M  V30 23 N -4.353705 -3.928032 1.731761 0
M  V30 24 C -3.142303 -4.003816 0.974444 0
M  V30 25 C -3.216735 -3.027848 -0.207190 0
M  V30 26 C -1.369931 -0.733845 -0.981467 0
M  V30 27 C -0.506526 0.301226 -1.359530 0
M  V30 28 C 0.456983 0.056622 -2.417999 0
M  V30 29 C 0.805440 0.734080 -3.564504 0
M  V30 30 N 1.765413 0.271892 -4.380230 0
M  V30 31 C 2.441799 -0.864348 -4.140196 0
M  V30 32 N 2.129272 -1.565776 -3.018377 0
M  V30 33 C 1.165425 -1.127881 -2.172740 0
M  V30 34 O 1.923279 0.496680 0.865706 0
M  V30 35 C 2.406995 -2.369030 1.776145 0
M  V30 36 C 2.630278 -3.664259 2.194176 0
M  V30 37 H 4.320612 -2.917457 4.989138 0
M  V30 38 H 3.889463 -0.660204 4.190270 0
M  V30 39 H 3.559688 1.297869 3.591726 0
M  V30 40 H 2.738772 3.346253 2.150470 0
M  V30 41 H 1.310829 5.374202 -2.126593 0
M  V30 42 H -0.820226 3.786521 -2.375448 0
M  V30 43 H -1.749574 2.564004 0.849692 0
M  V30 44 H -3.182243 0.682119 1.403515 0
M  V30 45 H -4.825963 -0.622091 1.197329 0
M  V30 46 H -3.636686 -1.297800 2.342838 0
M  V30 47 H -5.671003 -2.730407 0.569570 0
M  V30 48 H -5.754113 -2.451891 2.358212 0
M  V30 49 H -4.169682 -4.076564 2.751688 0
M  V30 50 H -2.934646 -5.005116 0.574365 0
M  V30 51 H -2.271846 -3.663458 1.595440 0
M  V30 52 H -4.173700 -3.131552 -0.755631 0
M  V30 53 H -2.338488 -3.272738 -0.827563 0
M  V30 54 H -1.261974 -1.679057 -1.505197 0
M  V30 55 H 0.210221 1.626332 -3.682363 0
M  V30 56 H 3.193461 -1.138542 -4.867019 0
M  V30 57 H 1.069439 -1.819354 -1.352782 0
M  V30 58 H 1.854254 -2.290178 0.851924 0
M  V30 59 H 2.278658 -4.519638 1.637348 0
M  V30 END ATOM
M  V30 BEGIN BOND
M  V30 1 3 1 2
M  V30 2 1 2 3
M  V30 3 2 3 4
M  V30 4 1 4 5
M  V30 5 2 5 6
M  V30 6 1 6 7
M  V30 7 2 7 8
M  V30 8 1 8 9
M  V30 9 2 9 10
M  V30 10 1 10 11
M  V30 11 2 11 12
M  V30 12 1 12 13
M  V30 13 2 13 14
M  V30 14 1 14 15
M  V30 15 1 15 16
M  V30 16 2 16 17
M  V30 17 1 17 18
M  V30 18 2 18 19
M  V30 19 1 19 20
M  V30 20 1 20 21
M  V30 21 1 21 22
M  V30 22 1 22 23
M  V30 23 1 23 24
M  V30 24 1 24 25
M  V30 25 1 19 26
M  V30 26 2 26 27
M  V30 27 1 27 28
M  V30 28 2 28 29
M  V30 29 1 29 30
M  V30 30 2 30 31
M  V30 31 1 31 32
M  V30 32 2 32 33
M  V30 33 1 10 34
M  V30 34 1 6 35
M  V30 35 2 35 36
M  V30 36 1 36 3
M  V30 37 1 34 7
M  V30 38 1 15 11
M  V30 39 1 27 16
M  V30 40 1 33 28
M  V30 41 1 25 20
M  V30 42 1 4 37
M  V30 43 1 5 38
M  V30 44 1 8 39
M  V30 45 1 9 40
M  V30 46 1 13 41
M  V30 47 1 14 42
M  V30 48 1 17 43
M  V30 49 1 18 44
M  V30 50 1 21 45
M  V30 51 1 21 46
M  V30 52 1 22 47
M  V30 53 1 22 48
M  V30 54 1 23 49
M  V30 55 1 24 50
M  V30 56 1 24 51
M  V30 57 1 25 52
M  V30 58 1 25 53
M  V30 59 1 26 54
M  V30 60 1 29 55
M  V30 61 1 31 56
M  V30 62 1 33 57
M  V30 63 1 35 58
M  V30 64 1 36 59
M  V30 END BOND
M  V30 END CTAB
M  END
>  <Dataset>  (322) 
ChEMBL_Kinases

>  <Ligand_Instance>  (322) 
nan

>  <PDB_ID>  (322) 
nan

>  <Standardized_SMILES>  (322) 
N#Cc1ccc(-c2ccc(-c3nccn3-c3ccc(N4CCNCC4)cc3-c3cncnc3)o2)cc1

>  <Name>  (322) 
nan

>  <Pocket>  (322) 
nan

>  <ATP_Site>  (322) 
nan

>  <Peripheral>  (322) 
nan

>  <Num_H_Atoms_ProtBoundConf>  (322) 
nan

>  <Num_Resolved_Atoms>  (322) 
nan

>  <Num_Not_Resolved_Atoms>  (322) 
nan

$$$$
CHEMBL3314153
     RDKit          3D

  0  0  0  0  0  0  0  0  0  0999 V3000
M  V30 BEGIN CTAB
M  V30 COUNTS 51 55 0 0 0
M  V30 BEGIN ATOM
M  V30 1 N 3.699272 -7.955630 -2.095329 0
M  V30 2 C 3.560912 -6.822634 -1.825669 0
M  V30 3 C 3.393377 -5.409325 -1.510227 0
M  V30 4 C 3.535022 -4.973188 -0.188305 0
M  V30 5 C 3.378665 -3.628707 0.131592 0
M  V30 6 C 3.081263 -2.715554 -0.862021 0
M  V30 7 C 2.917642 -1.302811 -0.521393 0
M  V30 8 C 2.621186 -0.292017 -1.412968 0
M  V30 9 C 2.575732 0.829534 -0.607987 0
M  V30 10 C 2.841293 0.462909 0.715743 0
M  V30 11 C 2.870561 1.418524 1.832258 0
M  V30 12 N 4.046034 1.960578 2.253316 0
M  V30 13 C 3.817157 2.797075 3.277277 0
M  V30 14 C 2.476097 2.778449 3.501050 0
M  V30 15 N 1.896141 1.945929 2.629901 0
M  V30 16 C 0.578837 1.503994 2.352319 0
M  V30 17 C -0.299953 2.297018 1.625413 0
M  V30 18 C -1.572777 1.825597 1.378888 0
M  V30 19 C -2.069722 0.609307 1.796610 0
M  V30 20 N -3.395748 0.186125 1.479774 0
M  V30 21 C -4.380142 1.108228 0.947923 0
M  V30 22 C -4.750545 0.587795 -0.444010 0
M  V30 23 N -5.248297 -0.758963 -0.370979 0
M  V30 24 C -5.214401 -1.293486 0.970333 0
M  V30 25 C -3.865762 -1.151250 1.631101 0
M  V30 26 C -1.155491 -0.134195 2.512683 0
M  V30 27 Cl -1.568600 -1.683511 3.148877 0
M  V30 28 C 0.127041 0.270194 2.795898 0
M  V30 29 O 3.034516 -0.816531 0.692081 0
M  V30 30 C 2.939306 -3.135947 -2.170652 0
M  V30 31 C 3.095403 -4.486969 -2.498582 0
M  V30 32 H 3.769686 -5.745333 0.545525 0
M  V30 33 H 3.501120 -3.356680 1.172184 0
M  V30 34 H 2.467378 -0.385473 -2.477462 0
M  V30 35 H 2.366282 1.837406 -0.951873 0
M  V30 36 H 4.421314 3.430872 3.910809 0
M  V30 37 H 1.779400 3.255194 4.188367 0
M  V30 38 H 0.093215 3.244249 1.302616 0
M  V30 39 H -2.132474 2.542840 0.804111 0
M  V30 40 H -4.041077 2.140929 0.917142 0
M  V30 41 H -5.295967 1.005176 1.576823 0
M  V30 42 H -3.776905 0.556231 -1.006124 0
M  V30 43 H -5.485596 1.239515 -0.924709 0
M  V30 44 H -6.204102 -0.791879 -0.731827 0
M  V30 45 H -6.040967 -0.838830 1.544218 0
M  V30 46 H -5.499344 -2.373083 0.860784 0
M  V30 47 H -3.151947 -1.919525 1.265435 0
M  V30 48 H -4.025514 -1.350344 2.710300 0
M  V30 49 H 0.838908 -0.310313 3.353753 0
M  V30 50 H 2.708097 -2.464345 -2.980702 0
M  V30 51 H 2.992178 -4.863857 -3.519624 0
M  V30 END ATOM
M  V30 BEGIN BOND
M  V30 1 3 1 2
M  V30 2 1 2 3
M  V30 3 2 3 4
M  V30 4 1 4 5
M  V30 5 2 5 6
M  V30 6 1 6 7
M  V30 7 2 7 8
M  V30 8 1 8 9
M  V30 9 2 9 10
M  V30 10 1 10 11
M  V30 11 2 11 12
M  V30 12 1 12 13
M  V30 13 2 13 14
M  V30 14 1 14 15
M  V30 15 1 15 16
M  V30 16 2 16 17
M  V30 17 1 17 18
M  V30 18 2 18 19
M  V30 19 1 19 20
M  V30 20 1 20 21
M  V30 21 1 21 22
M  V30 22 1 22 23
M  V30 23 1 23 24
M  V30 24 1 24 25
M  V30 25 1 19 26
M  V30 26 1 26 27
M  V30 27 2 26 28
M  V30 28 1 10 29
M  V30 29 1 6 30
M  V30 30 2 30 31
M  V30 31 1 31 3
M  V30 32 1 29 7
M  V30 33 1 15 11
M  V30 34 1 28 16
M  V30 35 1 25 20
M  V30 36 1 4 32
M  V30 37 1 5 33
M  V30 38 1 8 34
M  V30 39 1 9 35
M  V30 40 1 13 36
M  V30 41 1 14 37
M  V30 42 1 17 38
M  V30 43 1 18 39
M  V30 44 1 21 40
M  V30 45 1 21 41
M  V30 46 1 22 42
M  V30 47 1 22 43
M  V30 48 1 23 44
M  V30 49 1 24 45
M  V30 50 1 24 46
M  V30 51 1 25 47
M  V30 52 1 25 48
M  V30 53 1 28 49
M  V30 54 1 30 50
M  V30 55 1 31 51
M  V30 END BOND
M  V30 END CTAB
M  END
>  <Dataset>  (323) 
ChEMBL_Kinases

>  <Ligand_Instance>  (323) 
nan

>  <PDB_ID>  (323) 
nan

>  <Standardized_SMILES>  (323) 
N#Cc1ccc(-c2ccc(-c3nccn3-c3ccc(N4CCNCC4)c(Cl)c3)o2)cc1

>  <Name>  (323) 
nan

>  <Pocket>  (323) 
nan

>  <ATP_Site>  (323) 
nan

>  <Peripheral>  (323) 
nan

>  <Num_H_Atoms_ProtBoundConf>  (323) 
nan

>  <Num_Resolved_Atoms>  (323) 
nan

>  <Num_Not_Resolved_Atoms>  (323) 
nan

$$$$
CHEMBL3314154
     RDKit          3D

  0  0  0  0  0  0  0  0  0  0999 V3000
M  V30 BEGIN CTAB
M  V30 COUNTS 51 55 0 0 0
M  V30 BEGIN ATOM
M  V30 1 N 2.072701 -8.701864 0.022929 0
M  V30 2 C 2.206942 -7.531878 0.033040 0
M  V30 3 C 2.371788 -6.098579 0.044017 0
M  V30 4 C 2.391686 -5.409007 1.262412 0
M  V30 5 C 2.553048 -4.022251 1.249724 0
M  V30 6 C 2.691499 -3.330714 0.062081 0
M  V30 7 C 2.858321 -1.879459 0.085384 0
M  V30 8 C 3.006497 -1.052092 -1.004285 0
M  V30 9 C 3.126465 0.222740 -0.439453 0
M  V30 10 C 3.042924 0.082523 0.951767 0
M  V30 11 C 3.130648 1.231746 1.882663 0
M  V30 12 N 4.255580 1.728340 2.428992 0
M  V30 13 C 4.012837 2.763903 3.224947 0
M  V30 14 C 2.635020 2.932203 3.176741 0
M  V30 15 N 2.112246 2.003909 2.364942 0
M  V30 16 C 0.785432 1.718182 1.961185 0
M  V30 17 C 0.006611 2.618796 1.268773 0
M  V30 18 C -1.277138 2.300609 0.893026 0
M  V30 19 C -1.878924 1.091761 1.166768 0
M  V30 20 N -3.220771 0.859202 0.763899 0
M  V30 21 C -3.763438 1.810925 -0.223599 0
M  V30 22 C -4.817150 1.046914 -1.012209 0
M  V30 23 N -4.429896 -0.330106 -1.250028 0
M  V30 24 C -4.378538 -1.082226 -0.004378 0
M  V30 25 C -4.177964 -0.120828 1.150553 0
M  V30 26 C -1.072036 0.215535 1.859494 0
M  V30 27 Br -1.706067 -1.497198 2.308564 0
M  V30 28 C 0.218139 0.476424 2.262588 0
M  V30 29 O 2.885704 -1.177873 1.196448 0
M  V30 30 C 2.667901 -4.036894 -1.123574 0
M  V30 31 C 2.510533 -5.413085 -1.165904 0
M  V30 32 H 2.283946 -5.940076 2.197947 0
M  V30 33 H 2.561239 -3.539355 2.214116 0
M  V30 34 H 3.028967 -1.289641 -2.039569 0
M  V30 35 H 3.260603 1.165052 -0.965612 0
M  V30 36 H 4.622113 3.411988 3.824588 0
M  V30 37 H 1.963288 3.641949 3.654547 0
M  V30 38 H 0.498428 3.558592 1.066727 0
M  V30 39 H -1.738357 3.118205 0.368267 0
M  V30 40 H -2.937724 2.144291 -0.887185 0
M  V30 41 H -4.253801 2.636617 0.329207 0
M  V30 42 H -4.863160 1.525473 -2.016726 0
M  V30 43 H -5.811210 1.139988 -0.538343 0
M  V30 44 H -5.110545 -0.752641 -1.890369 0
M  V30 45 H -5.344581 -1.629750 0.080201 0
M  V30 46 H -3.585885 -1.837196 -0.108068 0
M  V30 47 H -4.058748 -0.590525 2.123648 0
M  V30 48 H -5.185912 0.407382 1.236531 0
M  V30 49 H 0.833455 -0.224020 2.805308 0
M  V30 50 H 2.777469 -3.496816 -2.051772 0
M  V30 51 H 2.487520 -5.995883 -2.076290 0
M  V30 END ATOM
M  V30 BEGIN BOND
M  V30 1 3 1 2
M  V30 2 1 2 3
M  V30 3 2 3 4
M  V30 4 1 4 5
M  V30 5 2 5 6
M  V30 6 1 6 7
M  V30 7 2 7 8
M  V30 8 1 8 9
M  V30 9 2 9 10
M  V30 10 1 10 11
M  V30 11 2 11 12
M  V30 12 1 12 13
M  V30 13 2 13 14
M  V30 14 1 14 15
M  V30 15 1 15 16
M  V30 16 2 16 17
M  V30 17 1 17 18
M  V30 18 2 18 19
M  V30 19 1 19 20
M  V30 20 1 20 21
M  V30 21 1 21 22
M  V30 22 1 22 23
M  V30 23 1 23 24
M  V30 24 1 24 25
M  V30 25 1 19 26
M  V30 26 1 26 27
M  V30 27 2 26 28
M  V30 28 1 10 29
M  V30 29 1 6 30
M  V30 30 2 30 31
M  V30 31 1 31 3
M  V30 32 1 29 7
M  V30 33 1 15 11
M  V30 34 1 28 16
M  V30 35 1 25 20
M  V30 36 1 4 32
M  V30 37 1 5 33
M  V30 38 1 8 34
M  V30 39 1 9 35
M  V30 40 1 13 36
M  V30 41 1 14 37
M  V30 42 1 17 38
M  V30 43 1 18 39
M  V30 44 1 21 40
M  V30 45 1 21 41
M  V30 46 1 22 42
M  V30 47 1 22 43
M  V30 48 1 23 44
M  V30 49 1 24 45
M  V30 50 1 24 46
M  V30 51 1 25 47
M  V30 52 1 25 48
M  V30 53 1 28 49
M  V30 54 1 30 50
M  V30 55 1 31 51
M  V30 END BOND
M  V30 END CTAB
M  END
>  <Dataset>  (324) 
ChEMBL_Kinases

>  <Ligand_Instance>  (324) 
nan

>  <PDB_ID>  (324) 
nan

>  <Standardized_SMILES>  (324) 
N#Cc1ccc(-c2ccc(-c3nccn3-c3ccc(N4CCNCC4)c(Br)c3)o2)cc1

>  <Name>  (324) 
nan

>  <Pocket>  (324) 
nan

>  <ATP_Site>  (324) 
nan

>  <Peripheral>  (324) 
nan

>  <Num_H_Atoms_ProtBoundConf>  (324) 
nan

>  <Num_Resolved_Atoms>  (324) 
nan

>  <Num_Not_Resolved_Atoms>  (324) 
nan

$$$$
CHEMBL3314282
     RDKit          3D

  0  0  0  0  0  0  0  0  0  0999 V3000
M  V30 BEGIN CTAB
M  V30 COUNTS 43 46 0 0 0
M  V30 BEGIN ATOM
M  V30 1 O 2.571555 -6.249476 4.106645 0
M  V30 2 C 1.838072 -5.360098 3.606780 0
M  V30 3 O 0.488089 -5.542831 3.860101 0
M  V30 4 C 2.433948 -4.267544 2.841821 0
M  V30 5 C 1.647305 -3.287042 2.289632 0
M  V30 6 C 2.233225 -2.255841 1.566277 0
M  V30 7 C 1.362316 -1.232565 0.995460 0
M  V30 8 N 1.740273 -0.162096 0.268623 0
M  V30 9 C 0.622275 0.544740 -0.074269 0
M  V30 10 C 0.624438 1.767762 -0.861976 0
M  V30 11 C 0.124670 2.056571 -2.113034 0
M  V30 12 C 0.258979 3.324350 -2.635764 0
M  V30 13 C 0.884350 4.342424 -1.950865 0
M  V30 14 F 0.953678 5.544961 -2.570553 0
M  V30 15 C 1.394590 4.065578 -0.685127 0
M  V30 16 C 1.263146 2.783970 -0.148133 0
M  V30 17 C -0.446843 -0.132767 0.469179 0
M  V30 18 C -1.859562 0.212267 0.387159 0
M  V30 19 C -2.662025 0.239128 -0.732303 0
M  V30 20 C -3.996505 0.583935 -0.719427 0
M  V30 21 N -4.552606 0.917130 0.476342 0
M  V30 22 C -3.822924 0.909595 1.605445 0
M  V30 23 O -4.368657 1.225046 2.708752 0
M  V30 24 C -2.473781 0.562317 1.596664 0
M  V30 25 N 0.029026 -1.230120 1.127923 0
M  V30 26 C 3.594619 -2.243485 1.420502 0
M  V30 27 C 4.367381 -3.254214 1.993623 0
M  V30 28 C 3.798822 -4.292789 2.720300 0
M  V30 29 O 4.609682 -5.282776 3.276662 0
M  V30 30 H 0.152615 -5.816754 4.790042 0
M  V30 31 H 0.571342 -3.388132 2.462876 0
M  V30 32 H -0.339379 1.191202 -2.558476 0
M  V30 33 H -0.171953 3.424896 -3.619453 0
M  V30 34 H 1.877557 4.890193 -0.180111 0
M  V30 35 H 1.714585 2.728003 0.850704 0
M  V30 36 H -2.173567 -0.035718 -1.653021 0
M  V30 37 H -4.526773 0.566939 -1.675836 0
M  V30 38 H -5.566010 1.169007 0.437361 0
M  V30 39 H -1.967959 0.586710 2.555703 0
M  V30 40 H -0.589231 -1.925100 1.638056 0
M  V30 41 H 4.062015 -1.442025 0.856123 0
M  V30 42 H 5.456645 -3.262121 1.888558 0
M  V30 43 H 4.817543 -5.352608 4.269823 0
M  V30 END ATOM
M  V30 BEGIN BOND
M  V30 1 2 1 2
M  V30 2 1 2 3
M  V30 3 1 2 4
M  V30 4 2 4 5
M  V30 5 1 5 6
M  V30 6 1 6 7
M  V30 7 2 7 8
M  V30 8 1 8 9
M  V30 9 1 9 10
M  V30 10 2 10 11
M  V30 11 1 11 12
M  V30 12 2 12 13
M  V30 13 1 13 14
M  V30 14 1 13 15
M  V30 15 2 15 16
M  V30 16 2 9 17
M  V30 17 1 17 18
M  V30 18 1 18 19
M  V30 19 2 19 20
M  V30 20 1 20 21
M  V30 21 1 21 22
M  V30 22 2 22 23
M  V30 23 1 22 24
M  V30 24 1 17 25
M  V30 25 2 6 26
M  V30 26 1 26 27
M  V30 27 2 27 28
M  V30 28 1 28 29
M  V30 29 1 28 4
M  V30 30 1 25 7
M  V30 31 1 16 10
M  V30 32 2 24 18
M  V30 33 1 3 30
M  V30 34 1 5 31
M  V30 35 1 11 32
M  V30 36 1 12 33
M  V30 37 1 15 34
M  V30 38 1 16 35
M  V30 39 1 19 36
M  V30 40 1 20 37
M  V30 41 1 21 38
M  V30 42 1 24 39
M  V30 43 1 25 40
M  V30 44 1 26 41
M  V30 45 1 27 42
M  V30 46 1 29 43
M  V30 END BOND
M  V30 END CTAB
M  END
>  <Dataset>  (325) 
ChEMBL_Kinases

>  <Ligand_Instance>  (325) 
nan

>  <PDB_ID>  (325) 
nan

>  <Standardized_SMILES>  (325) 
O=C(O)c1cc(-c2nc(-c3ccc(F)cc3)c(-c3cc[nH]c(=O)c3)[nH]2)ccc1O

>  <Name>  (325) 
nan

>  <Pocket>  (325) 
nan

>  <ATP_Site>  (325) 
nan

>  <Peripheral>  (325) 
nan

>  <Num_H_Atoms_ProtBoundConf>  (325) 
nan

>  <Num_Resolved_Atoms>  (325) 
nan

>  <Num_Not_Resolved_Atoms>  (325) 
nan

$$$$
CHEMBL3314156
     RDKit          3D

  0  0  0  0  0  0  0  0  0  0999 V3000
M  V30 BEGIN CTAB
M  V30 COUNTS 51 55 0 0 0
M  V30 BEGIN ATOM
M  V30 1 Cl 3.277345 -7.876321 2.026398 0
M  V30 2 C 3.097381 -6.377769 1.129253 0
M  V30 3 C 2.794172 -6.350089 -0.200714 0
M  V30 4 C 2.635027 -5.222310 -0.979723 0
M  V30 5 C 2.799797 -3.997626 -0.347130 0
M  V30 6 C 2.654480 -2.735233 -1.075335 0
M  V30 7 C 2.349491 -2.647138 -2.417989 0
M  V30 8 C 2.316361 -1.273402 -2.662761 0
M  V30 9 C 2.601524 -0.614739 -1.461110 0
M  V30 10 C 2.632300 0.844917 -1.432083 0
M  V30 11 N 3.434812 1.664902 -2.105375 0
M  V30 12 C 3.153274 2.955771 -1.808554 0
M  V30 13 C 2.117879 2.902733 -0.901290 0
M  V30 14 N 1.803369 1.595403 -0.675286 0
M  V30 15 C 0.766471 1.220200 0.220948 0
M  V30 16 C 0.889257 0.403916 1.322507 0
M  V30 17 C -0.232674 0.124758 2.114350 0
M  V30 18 C -1.507828 0.644269 1.840213 0
M  V30 19 C -2.534568 0.210991 2.812486 0
M  V30 20 C -3.090698 1.385659 3.570220 0
M  V30 21 C -4.016370 2.244658 2.816579 0
M  V30 22 C -4.949807 1.529334 1.886461 0
M  V30 23 N -4.315859 0.400510 1.240846 0
M  V30 24 C -3.690854 -0.490074 2.154046 0
M  V30 25 C -1.542060 1.442424 0.732448 0
M  V30 26 C -0.464164 1.738171 -0.066943 0
M  V30 27 O 2.791488 -1.542842 -0.561521 0
M  V30 28 C 3.107953 -3.994103 1.002237 0
M  V30 29 C 3.259933 -5.154747 1.752247 0
M  V30 30 H 2.654942 -7.297058 -0.741602 0
M  V30 31 H 2.393565 -5.258280 -2.034610 0
M  V30 32 H 2.186282 -3.498192 -3.071382 0
M  V30 33 H 2.088604 -0.938267 -3.684952 0
M  V30 34 H 3.587981 3.898244 -2.154132 0
M  V30 35 H 1.633729 3.774345 -0.442624 0
M  V30 36 H 1.876444 0.016382 1.514188 0
M  V30 37 H 0.046446 -0.539211 2.946492 0
M  V30 38 H -2.051961 -0.493052 3.570541 0
M  V30 39 H -2.213994 2.016439 3.917052 0
M  V30 40 H -3.533710 1.023586 4.544073 0
M  V30 41 H -3.466994 3.081431 2.340488 0
M  V30 42 H -4.683679 2.755977 3.571928 0
M  V30 43 H -5.867829 1.167880 2.380067 0
M  V30 44 H -5.251980 2.234155 1.091491 0
M  V30 45 H -5.032529 -0.049613 0.629322 0
M  V30 46 H -4.444732 -0.749969 2.940619 0
M  V30 47 H -3.367885 -1.391853 1.592178 0
M  V30 48 H -2.518598 1.839963 0.521625 0
M  V30 49 H -0.654867 2.382291 -0.902717 0
M  V30 50 H 3.230954 -3.006100 1.469124 0
M  V30 51 H 3.500082 -5.128029 2.802065 0
M  V30 END ATOM
M  V30 BEGIN BOND
M  V30 1 1 1 2
M  V30 2 2 2 3
M  V30 3 1 3 4
M  V30 4 2 4 5
M  V30 5 1 5 6
M  V30 6 2 6 7
M  V30 7 1 7 8
M  V30 8 2 8 9
M  V30 9 1 9 10
M  V30 10 2 10 11
M  V30 11 1 11 12
M  V30 12 2 12 13
M  V30 13 1 13 14
M  V30 14 1 14 15
M  V30 15 2 15 16
M  V30 16 1 16 17
M  V30 17 2 17 18
M  V30 18 1 18 19
M  V30 19 1 19 20
M  V30 20 1 20 21
M  V30 21 1 21 22
M  V30 22 1 22 23
M  V30 23 1 23 24
M  V30 24 1 18 25
M  V30 25 2 25 26
M  V30 26 1 9 27
M  V30 27 1 5 28
M  V30 28 2 28 29
M  V30 29 1 29 2
M  V30 30 1 27 6
M  V30 31 1 14 10
M  V30 32 1 26 15
M  V30 33 1 24 19
M  V30 34 1 3 30
M  V30 35 1 4 31
M  V30 36 1 7 32
M  V30 37 1 8 33
M  V30 38 1 12 34
M  V30 39 1 13 35
M  V30 40 1 16 36
M  V30 41 1 17 37
M  V30 42 1 19 38
M  V30 43 1 20 39
M  V30 44 1 20 40
M  V30 45 1 21 41
M  V30 46 1 21 42
M  V30 47 1 22 43
M  V30 48 1 22 44
M  V30 49 1 23 45
M  V30 50 1 24 46
M  V30 51 1 24 47
M  V30 52 1 25 48
M  V30 53 1 26 49
M  V30 54 1 28 50
M  V30 55 1 29 51
M  V30 END BOND
M  V30 END CTAB
M  END
>  <Dataset>  (326) 
ChEMBL_Kinases

>  <Ligand_Instance>  (326) 
nan

>  <PDB_ID>  (326) 
nan

>  <Standardized_SMILES>  (326) 
Clc1ccc(-c2ccc(-c3nccn3-c3ccc(C4CCCNC4)cc3)o2)cc1

>  <Name>  (326) 
nan

>  <Pocket>  (326) 
nan

>  <ATP_Site>  (326) 
nan

>  <Peripheral>  (326) 
nan

>  <Num_H_Atoms_ProtBoundConf>  (326) 
nan

>  <Num_Resolved_Atoms>  (326) 
nan

>  <Num_Not_Resolved_Atoms>  (326) 
nan

$$$$
CHEMBL3314157
     RDKit          3D

  0  0  0  0  0  0  0  0  0  0999 V3000
M  V30 BEGIN CTAB
M  V30 COUNTS 51 55 0 0 0
M  V30 BEGIN ATOM
M  V30 1 Cl 3.562919 -5.643439 3.831617 0
M  V30 2 C 3.267686 -4.714370 2.360544 0
M  V30 3 C 3.277194 -5.276389 1.102626 0
M  V30 4 C 3.038287 -4.490994 -0.005514 0
M  V30 5 C 2.791357 -3.144643 0.160538 0
M  V30 6 C 2.531076 -2.260034 -0.975523 0
M  V30 7 C 2.499687 -2.638581 -2.303203 0
M  V30 8 C 2.224292 -1.525512 -3.070604 0
M  V30 9 C 2.096546 -0.493937 -2.162205 0
M  V30 10 C 1.806432 0.947509 -2.310816 0
M  V30 11 N 2.400890 1.832099 -3.157623 0
M  V30 12 C 1.831498 3.047990 -2.965416 0
M  V30 13 C 0.869393 2.920110 -1.985996 0
M  V30 14 N 0.861953 1.619239 -1.588495 0
M  V30 15 C 0.042617 0.991192 -0.598690 0
M  V30 16 C 0.404126 1.057602 0.731500 0
M  V30 17 C -0.355750 0.466766 1.719525 0
M  V30 18 C -1.510891 -0.213436 1.393870 0
M  V30 19 C -2.482729 -0.919377 2.245172 0
M  V30 20 C -2.336430 -0.577361 3.712304 0
M  V30 21 C -2.701823 0.838894 3.951685 0
M  V30 22 C -3.321260 1.590919 2.836929 0
M  V30 23 C -4.134026 0.785171 1.877920 0
M  V30 24 N -3.859552 -0.626300 1.904918 0
M  V30 25 C -1.875434 -0.279680 0.046380 0
M  V30 26 C -1.108933 0.316095 -0.948584 0
M  V30 27 O 2.283896 -0.974529 -0.961344 0
M  V30 28 C 2.781935 -2.575440 1.437162 0
M  V30 29 C 3.021483 -3.366541 2.539433 0
M  V30 30 H 3.478968 -6.340534 1.055263 0
M  V30 31 H 3.046627 -4.935450 -0.989972 0
M  V30 32 H 2.653148 -3.613732 -2.746454 0
M  V30 33 H 2.106714 -1.349760 -4.133166 0
M  V30 34 H 2.016884 3.996475 -3.431265 0
M  V30 35 H 0.188343 3.635564 -1.534451 0
M  V30 36 H 1.289657 1.568331 1.071145 0
M  V30 37 H -0.166979 0.457123 2.782890 0
M  V30 38 H -2.392831 -2.036155 2.148509 0
M  V30 39 H -1.270629 -0.799879 3.994267 0
M  V30 40 H -2.995239 -1.282923 4.276931 0
M  V30 41 H -3.358197 0.859861 4.871548 0
M  V30 42 H -1.776110 1.375486 4.305315 0
M  V30 43 H -4.023387 2.340891 3.296910 0
M  V30 44 H -2.584180 2.227642 2.303598 0
M  V30 45 H -3.931414 1.140941 0.844337 0
M  V30 46 H -5.232444 0.910399 2.031928 0
M  V30 47 H -4.198051 -1.081186 1.041414 0
M  V30 48 H -2.752917 -0.776818 -0.365514 0
M  V30 49 H -1.350346 0.290589 -1.995026 0
M  V30 50 H 2.587173 -1.513733 1.567588 0
M  V30 51 H 3.006474 -2.892863 3.510755 0
M  V30 END ATOM
M  V30 BEGIN BOND
M  V30 1 1 1 2
M  V30 2 2 2 3
M  V30 3 1 3 4
M  V30 4 2 4 5
M  V30 5 1 5 6
M  V30 6 2 6 7
M  V30 7 1 7 8
M  V30 8 2 8 9
M  V30 9 1 9 10
M  V30 10 2 10 11
M  V30 11 1 11 12
M  V30 12 2 12 13
M  V30 13 1 13 14
M  V30 14 1 14 15
M  V30 15 2 15 16
M  V30 16 1 16 17
M  V30 17 2 17 18
M  V30 18 1 18 19
M  V30 19 1 19 20
M  V30 20 1 20 21
M  V30 21 1 21 22
M  V30 22 1 22 23
M  V30 23 1 23 24
M  V30 24 1 18 25
M  V30 25 2 25 26
M  V30 26 1 9 27
M  V30 27 1 5 28
M  V30 28 2 28 29
M  V30 29 1 29 2
M  V30 30 1 27 6
M  V30 31 1 14 10
M  V30 32 1 26 15
M  V30 33 1 24 19
M  V30 34 1 3 30
M  V30 35 1 4 31
M  V30 36 1 7 32
M  V30 37 1 8 33
M  V30 38 1 12 34
M  V30 39 1 13 35
M  V30 40 1 16 36
M  V30 41 1 17 37
M  V30 42 1 19 38
M  V30 43 1 20 39
M  V30 44 1 20 40
M  V30 45 1 21 41
M  V30 46 1 21 42
M  V30 47 1 22 43
M  V30 48 1 22 44
M  V30 49 1 23 45
M  V30 50 1 23 46
M  V30 51 1 24 47
M  V30 52 1 25 48
M  V30 53 1 26 49
M  V30 54 1 28 50
M  V30 55 1 29 51
M  V30 END BOND
M  V30 END CTAB
M  END
>  <Dataset>  (327) 
ChEMBL_Kinases

>  <Ligand_Instance>  (327) 
nan

>  <PDB_ID>  (327) 
nan

>  <Standardized_SMILES>  (327) 
Clc1ccc(-c2ccc(-c3nccn3-c3ccc(C4CCCCN4)cc3)o2)cc1

>  <Name>  (327) 
nan

>  <Pocket>  (327) 
nan

>  <ATP_Site>  (327) 
nan

>  <Peripheral>  (327) 
nan

>  <Num_H_Atoms_ProtBoundConf>  (327) 
nan

>  <Num_Resolved_Atoms>  (327) 
nan

>  <Num_Not_Resolved_Atoms>  (327) 
nan

$$$$
CHEMBL3314158
     RDKit          3D

  0  0  0  0  0  0  0  0  0  0999 V3000
M  V30 BEGIN CTAB
M  V30 COUNTS 45 49 0 0 0
M  V30 BEGIN ATOM
M  V30 1 Cl 2.304721 -6.108546 4.122936 0
M  V30 2 C 2.264090 -5.060477 2.726032 0
M  V30 3 C 2.124577 -5.631716 1.462567 0
M  V30 4 C 2.098527 -4.765882 0.387776 0
M  V30 5 C 2.209482 -3.392228 0.593768 0
M  V30 6 C 2.185331 -2.475848 -0.544707 0
M  V30 7 C 2.052908 -2.826821 -1.876383 0
M  V30 8 C 2.087667 -1.621956 -2.553583 0
M  V30 9 C 2.235792 -0.599627 -1.642686 0
M  V30 10 C 2.331825 0.847153 -1.789792 0
M  V30 11 N 3.222852 1.491968 -2.566612 0
M  V30 12 C 3.002427 2.815385 -2.437301 0
M  V30 13 C 1.952760 2.941414 -1.559928 0
M  V30 14 N 1.533744 1.721805 -1.155802 0
M  V30 15 C 0.455854 1.566489 -0.243095 0
M  V30 16 C 0.697986 1.351048 1.113486 0
M  V30 17 C -0.362351 1.210394 1.980106 0
M  V30 18 C -1.681450 1.268935 1.592905 0
M  V30 19 C -2.850657 1.126645 2.451365 0
M  V30 20 C -2.867623 0.319495 3.571645 0
M  V30 21 C -3.939134 0.147640 4.420507 0
M  V30 22 N -5.076560 0.833408 4.126729 0
M  V30 23 C -5.089558 1.628135 3.040057 0
M  V30 24 C -4.016743 1.809851 2.177311 0
M  V30 25 C -1.940922 1.484532 0.234177 0
M  V30 26 C -0.876540 1.629357 -0.659519 0
M  V30 27 O 2.288838 -1.150366 -0.470295 0
M  V30 28 C 2.346837 -2.872294 1.873031 0
M  V30 29 C 2.376054 -3.710852 2.967052 0
M  V30 30 H 2.040964 -6.701872 1.322035 0
M  V30 31 H 1.988570 -5.189140 -0.622919 0
M  V30 32 H 1.945232 -3.812795 -2.311914 0
M  V30 33 H 2.014046 -1.443215 -3.622199 0
M  V30 34 H 3.648411 3.453830 -3.006468 0
M  V30 35 H 1.599619 3.928103 -1.305343 0
M  V30 36 H 1.698549 1.291322 1.513266 0
M  V30 37 H -0.206245 1.044533 3.034817 0
M  V30 38 H -1.961735 -0.217138 3.791522 0
M  V30 39 H -3.831834 -0.523451 5.282147 0
M  V30 40 H -6.052238 2.119780 2.913587 0
M  V30 41 H -4.125063 2.459509 1.344463 0
M  V30 42 H -2.896463 1.555672 -0.229475 0
M  V30 43 H -1.019005 1.796595 -1.719020 0
M  V30 44 H 2.431228 -1.784107 2.007577 0
M  V30 45 H 2.484061 -3.327669 3.986319 0
M  V30 END ATOM
M  V30 BEGIN BOND
M  V30 1 1 1 2
M  V30 2 2 2 3
M  V30 3 1 3 4
M  V30 4 2 4 5
M  V30 5 1 5 6
M  V30 6 2 6 7
M  V30 7 1 7 8
M  V30 8 2 8 9
M  V30 9 1 9 10
M  V30 10 2 10 11
M  V30 11 1 11 12
M  V30 12 2 12 13
M  V30 13 1 13 14
M  V30 14 1 14 15
M  V30 15 2 15 16
M  V30 16 1 16 17
M  V30 17 2 17 18
M  V30 18 1 18 19
M  V30 19 2 19 20
M  V30 20 1 20 21
M  V30 21 2 21 22
M  V30 22 1 22 23
M  V30 23 2 23 24
M  V30 24 1 18 25
M  V30 25 2 25 26
M  V30 26 1 9 27
M  V30 27 1 5 28
M  V30 28 2 28 29
M  V30 29 1 29 2
M  V30 30 1 27 6
M  V30 31 1 14 10
M  V30 32 1 26 15
M  V30 33 1 24 19
M  V30 34 1 3 30
M  V30 35 1 4 31
M  V30 36 1 7 32
M  V30 37 1 8 33
M  V30 38 1 12 34
M  V30 39 1 13 35
M  V30 40 1 16 36
M  V30 41 1 17 37
M  V30 42 1 20 38
M  V30 43 1 21 39
M  V30 44 1 23 40
M  V30 45 1 24 41
M  V30 46 1 25 42
M  V30 47 1 26 43
M  V30 48 1 28 44
M  V30 49 1 29 45
M  V30 END BOND
M  V30 END CTAB
M  END
>  <Dataset>  (328) 
ChEMBL_Kinases

>  <Ligand_Instance>  (328) 
nan

>  <PDB_ID>  (328) 
nan

>  <Standardized_SMILES>  (328) 
Clc1ccc(-c2ccc(-c3nccn3-c3ccc(-c4ccncc4)cc3)o2)cc1

>  <Name>  (328) 
nan

>  <Pocket>  (328) 
nan

>  <ATP_Site>  (328) 
nan

>  <Peripheral>  (328) 
nan

>  <Num_H_Atoms_ProtBoundConf>  (328) 
nan

>  <Num_Resolved_Atoms>  (328) 
nan

>  <Num_Not_Resolved_Atoms>  (328) 
nan

$$$$
CHEMBL3314271
     RDKit          3D

  0  0  0  0  0  0  0  0  0  0999 V3000
M  V30 BEGIN CTAB
M  V30 COUNTS 38 41 0 0 0
M  V30 BEGIN ATOM
M  V30 1 C 0.933692 -5.886562 1.101765 0
M  V30 2 S 1.001136 -4.901715 -0.426281 0
M  V30 3 C 1.533664 -3.262922 0.044895 0
M  V30 4 N 2.864016 -3.066909 0.045450 0
M  V30 5 C 3.413716 -1.878451 0.380025 0
M  V30 6 C 2.573380 -0.850167 0.727273 0
M  V30 7 C 1.206112 -1.029625 0.733055 0
M  V30 8 C 0.124482 -0.107319 1.054468 0
M  V30 9 C -0.150279 1.013684 0.300752 0
M  V30 10 C 0.445599 1.589794 -0.897922 0
M  V30 11 C -0.464352 1.564576 -1.962529 0
M  V30 12 C -0.133197 2.062876 -3.225636 0
M  V30 13 C 1.119450 2.581072 -3.391505 0
M  V30 14 F 1.565327 3.100118 -4.579164 0
M  V30 15 C 2.023750 2.614455 -2.361187 0
M  V30 16 C 1.696345 2.124235 -1.120297 0
M  V30 17 N -1.211152 1.616518 0.902143 0
M  V30 18 C -1.582880 0.893718 1.993458 0
M  V30 19 N -2.554086 1.054958 2.912391 0
M  V30 20 C -2.730734 0.183183 3.929141 0
M  V30 21 N -3.808172 0.501416 4.817586 0
M  V30 22 C -1.896723 -0.918257 4.047800 0
M  V30 23 C -0.912482 -1.052032 3.088538 0
M  V30 24 N -0.758809 -0.168999 2.086540 0
M  V30 25 N 0.719332 -2.253893 0.385066 0
M  V30 26 H 1.154046 -6.951245 0.908035 0
M  V30 27 H -0.111284 -5.794621 1.474157 0
M  V30 28 H 1.601416 -5.435614 1.886052 0
M  V30 29 H 4.477752 -1.664767 0.397609 0
M  V30 30 H 2.849966 0.150591 1.019761 0
M  V30 31 H -1.489388 1.170711 -1.929936 0
M  V30 32 H -0.808534 2.055881 -4.055308 0
M  V30 33 H 3.026026 3.008085 -2.423043 0
M  V30 34 H 2.306191 2.096133 -0.247905 0
M  V30 35 H -3.457128 1.325851 5.378417 0
M  V30 36 H -4.756699 0.179212 5.046966 0
M  V30 37 H -2.080336 -1.579198 4.873439 0
M  V30 38 H -0.254445 -1.905906 3.168109 0
M  V30 END ATOM
M  V30 BEGIN BOND
M  V30 1 1 1 2
M  V30 2 1 2 3
M  V30 3 2 3 4
M  V30 4 1 4 5
M  V30 5 2 5 6
M  V30 6 1 6 7
M  V30 7 1 7 8
M  V30 8 2 8 9
M  V30 9 1 9 10
M  V30 10 2 10 11
M  V30 11 1 11 12
M  V30 12 2 12 13
M  V30 13 1 13 14
M  V30 14 1 13 15
M  V30 15 2 15 16
M  V30 16 1 9 17
M  V30 17 2 17 18
M  V30 18 1 18 19
M  V30 19 2 19 20
M  V30 20 1 20 21
M  V30 21 1 20 22
M  V30 22 2 22 23
M  V30 23 1 23 24
M  V30 24 2 7 25
M  V30 25 1 25 3
M  V30 26 1 24 8
M  V30 27 1 16 10
M  V30 28 1 24 18
M  V30 29 1 1 26
M  V30 30 1 1 27
M  V30 31 1 1 28
M  V30 32 1 5 29
M  V30 33 1 6 30
M  V30 34 1 11 31
M  V30 35 1 12 32
M  V30 36 1 15 33
M  V30 37 1 16 34
M  V30 38 1 21 35
M  V30 39 1 21 36
M  V30 40 1 22 37
M  V30 41 1 23 38
M  V30 END BOND
M  V30 END CTAB
M  END
>  <Dataset>  (329) 
ChEMBL_Kinases

>  <Ligand_Instance>  (329) 
nan

>  <PDB_ID>  (329) 
nan

>  <Standardized_SMILES>  (329) 
CSc1nccc(-c2c(-c3ccc(F)cc3)nc3nc(N)ccn23)n1

>  <Name>  (329) 
nan

>  <Pocket>  (329) 
nan

>  <ATP_Site>  (329) 
nan

>  <Peripheral>  (329) 
nan

>  <Num_H_Atoms_ProtBoundConf>  (329) 
nan

>  <Num_Resolved_Atoms>  (329) 
nan

>  <Num_Not_Resolved_Atoms>  (329) 
nan

$$$$
CHEMBL3314272
     RDKit          3D

  0  0  0  0  0  0  0  0  0  0999 V3000
M  V30 BEGIN CTAB
M  V30 COUNTS 38 41 0 0 0
M  V30 BEGIN ATOM
M  V30 1 C 3.811334 -4.766973 5.640511 0
M  V30 2 C 3.308907 -4.023889 4.835867 0
M  V30 3 C 2.702941 -3.135024 3.873630 0
M  V30 4 C 3.127009 -1.823052 3.744046 0
M  V30 5 C 2.533282 -0.984506 2.811480 0
M  V30 6 N 1.547020 -1.521835 2.066238 0
M  V30 7 C 0.833777 -0.884847 1.091906 0
M  V30 8 C 0.849250 0.447052 0.526595 0
M  V30 9 C 1.359265 0.431522 -0.779888 0
M  V30 10 C 1.487349 1.561112 -1.571934 0
M  V30 11 N 1.080627 2.733962 -1.001875 0
M  V30 12 C 0.595455 2.729190 0.249813 0
M  V30 13 S 0.083978 4.305839 0.913282 0
M  V30 14 C -1.673834 4.550987 0.477498 0
M  V30 15 N 0.466347 1.636739 1.027743 0
M  V30 16 C -0.068708 -1.812666 0.587952 0
M  V30 17 C -1.099741 -1.735572 -0.451456 0
M  V30 18 C -1.190246 -2.429661 -1.640848 0
M  V30 19 C -2.294407 -2.174748 -2.464356 0
M  V30 20 C -3.242232 -1.258250 -2.076736 0
M  V30 21 F -4.285893 -1.065091 -2.926314 0
M  V30 22 C -3.168549 -0.556169 -0.892455 0
M  V30 23 C -2.074698 -0.802588 -0.068390 0
M  V30 24 N 0.106752 -2.991255 1.255928 0
M  V30 25 C 1.104955 -2.810513 2.168774 0
M  V30 26 N 1.696733 -3.615538 3.085104 0
M  V30 27 H 4.238314 -5.422458 6.357995 0
M  V30 28 H 3.925205 -1.420242 4.361039 0
M  V30 29 H 2.846514 0.044886 2.693399 0
M  V30 30 H 1.713322 -0.460332 -1.318632 0
M  V30 31 H 1.878844 1.560839 -2.577776 0
M  V30 32 H -1.669588 5.313768 -0.352756 0
M  V30 33 H -2.272276 4.870597 1.341616 0
M  V30 34 H -2.084369 3.608526 0.051593 0
M  V30 35 H -0.362744 -3.114219 -1.793060 0
M  V30 36 H -2.287909 -2.759920 -3.374231 0
M  V30 37 H -3.950853 0.164862 -0.626586 0
M  V30 38 H -2.096413 -0.211664 0.837464 0
M  V30 END ATOM
M  V30 BEGIN BOND
M  V30 1 3 1 2
M  V30 2 1 2 3
M  V30 3 1 3 4
M  V30 4 2 4 5
M  V30 5 1 5 6
M  V30 6 1 6 7
M  V30 7 1 7 8
M  V30 8 2 8 9
M  V30 9 1 9 10
M  V30 10 2 10 11
M  V30 11 1 11 12
M  V30 12 1 12 13
M  V30 13 1 13 14
M  V30 14 2 12 15
M  V30 15 2 7 16
M  V30 16 1 16 17
M  V30 17 2 17 18
M  V30 18 1 18 19
M  V30 19 2 19 20
M  V30 20 1 20 21
M  V30 21 1 20 22
M  V30 22 2 22 23
M  V30 23 1 16 24
M  V30 24 2 24 25
M  V30 25 1 25 26
M  V30 26 2 26 3
M  V30 27 1 25 6
M  V30 28 1 15 8
M  V30 29 1 23 17
M  V30 30 1 1 27
M  V30 31 1 4 28
M  V30 32 1 5 29
M  V30 33 1 9 30
M  V30 34 1 10 31
M  V30 35 1 14 32
M  V30 36 1 14 33
M  V30 37 1 14 34
M  V30 38 1 18 35
M  V30 39 1 19 36
M  V30 40 1 22 37
M  V30 41 1 23 38
M  V30 END BOND
M  V30 END CTAB
M  END
>  <Dataset>  (330) 
ChEMBL_Kinases

>  <Ligand_Instance>  (330) 
nan

>  <PDB_ID>  (330) 
nan

>  <Standardized_SMILES>  (330) 
C#Cc1ccn2c(-c3ccnc(SC)n3)c(-c3ccc(F)cc3)nc2n1

>  <Name>  (330) 
nan

>  <Pocket>  (330) 
nan

>  <ATP_Site>  (330) 
nan

>  <Peripheral>  (330) 
nan

>  <Num_H_Atoms_ProtBoundConf>  (330) 
nan

>  <Num_Resolved_Atoms>  (330) 
nan

>  <Num_Not_Resolved_Atoms>  (330) 
nan

$$$$
CHEMBL3314273
     RDKit          3D

  0  0  0  0  0  0  0  0  0  0999 V3000
M  V30 BEGIN CTAB
M  V30 COUNTS 48 52 0 0 0
M  V30 BEGIN ATOM
M  V30 1 C 5.920203 -3.095688 -3.240470 0
M  V30 2 S 4.156003 -2.613678 -3.139864 0
M  V30 3 C 3.887300 -1.815551 -1.556335 0
M  V30 4 N 4.935748 -1.681439 -0.705077 0
M  V30 5 C 4.749653 -1.076253 0.504298 0
M  V30 6 C 3.472879 -0.631195 0.783628 0
M  V30 7 C 2.388858 -0.759262 -0.073615 0
M  V30 8 C 1.091368 -0.242362 0.348648 0
M  V30 9 C 0.872979 1.101824 0.598952 0
M  V30 10 C 1.757597 2.256190 0.526943 0
M  V30 11 C 1.954057 2.965258 1.716268 0
M  V30 12 C 2.800616 4.065357 1.639741 0
M  V30 13 C 3.438878 4.474784 0.465357 0
M  V30 14 F 4.251983 5.569927 0.495975 0
M  V30 15 C 3.206565 3.735471 -0.677332 0
M  V30 16 C 2.365534 2.621164 -0.658639 0
M  V30 17 N -0.421624 1.226442 0.964786 0
M  V30 18 C -1.015904 0.014428 0.951806 0
M  V30 19 N -2.266782 -0.466095 1.220222 0
M  V30 20 C -2.508061 -1.785445 1.097698 0
M  V30 21 C -3.855760 -2.268793 1.393534 0
M  V30 22 C -4.942590 -1.514407 1.795102 0
M  V30 23 N -6.002166 -2.325071 1.966832 0
M  V30 24 C -7.373134 -2.079083 2.373800 0
M  V30 25 C -7.462156 -2.189354 3.853479 0
M  V30 26 O -7.694508 -3.293702 4.451929 0
M  V30 27 O -7.407783 -1.583190 5.092467 0
M  V30 28 N -5.592315 -3.566579 1.679303 0
M  V30 29 N -4.312491 -3.534024 1.337331 0
M  V30 30 C -1.555740 -2.708840 0.709978 0
M  V30 31 C -0.292570 -2.195427 0.442869 0
M  V30 32 N -0.070400 -0.879373 0.570186 0
M  V30 33 N 2.653879 -1.370190 -1.253293 0
M  V30 34 H 6.168847 -3.497863 -2.219411 0
M  V30 35 H 6.098348 -3.914441 -3.942471 0
M  V30 36 H 6.548125 -2.206440 -3.376957 0
M  V30 37 H 5.555574 -0.957833 1.191324 0
M  V30 38 H 3.337501 -0.156267 1.738083 0
M  V30 39 H 1.490550 2.701260 2.657311 0
M  V30 40 H 2.989683 4.652203 2.528551 0
M  V30 41 H 3.710699 4.077502 -1.553685 0
M  V30 42 H 2.199948 2.061178 -1.562166 0
M  V30 43 H -4.985996 -0.465856 1.956133 0
M  V30 44 H -7.566472 -1.003224 2.151788 0
M  V30 45 H -8.082404 -2.751138 1.885530 0
M  V30 46 H -6.533317 -1.417023 5.601908 0
M  V30 47 H -1.791612 -3.752014 0.625019 0
M  V30 48 H 0.474436 -2.893100 0.137264 0
M  V30 END ATOM
M  V30 BEGIN BOND
M  V30 1 1 1 2
M  V30 2 1 2 3
M  V30 3 2 3 4
M  V30 4 1 4 5
M  V30 5 2 5 6
M  V30 6 1 6 7
M  V30 7 1 7 8
M  V30 8 2 8 9
M  V30 9 1 9 10
M  V30 10 2 10 11
M  V30 11 1 11 12
M  V30 12 2 12 13
M  V30 13 1 13 14
M  V30 14 1 13 15
M  V30 15 2 15 16
M  V30 16 1 9 17
M  V30 17 2 17 18
M  V30 18 1 18 19
M  V30 19 2 19 20
M  V30 20 1 20 21
M  V30 21 2 21 22
M  V30 22 1 22 23
M  V30 23 1 23 24
M  V30 24 1 24 25
M  V30 25 2 25 26
M  V30 26 1 25 27
M  V30 27 1 23 28
M  V30 28 2 28 29
M  V30 29 1 20 30
M  V30 30 2 30 31
M  V30 31 1 31 32
M  V30 32 2 7 33
M  V30 33 1 33 3
M  V30 34 1 32 8
M  V30 35 1 16 10
M  V30 36 1 32 18
M  V30 37 1 29 21
M  V30 38 1 1 34
M  V30 39 1 1 35
M  V30 40 1 1 36
M  V30 41 1 5 37
M  V30 42 1 6 38
M  V30 43 1 11 39
M  V30 44 1 12 40
M  V30 45 1 15 41
M  V30 46 1 16 42
M  V30 47 1 22 43
M  V30 48 1 24 44
M  V30 49 1 24 45
M  V30 50 1 27 46
M  V30 51 1 30 47
M  V30 52 1 31 48
M  V30 END BOND
M  V30 END CTAB
M  END
>  <Dataset>  (331) 
ChEMBL_Kinases

>  <Ligand_Instance>  (331) 
nan

>  <PDB_ID>  (331) 
nan

>  <Standardized_SMILES>  (331) 
CSc1nccc(-c2c(-c3ccc(F)cc3)nc3nc(-c4cn(CC(=O)O)nn4)ccn23)n1

>  <Name>  (331) 
nan

>  <Pocket>  (331) 
nan

>  <ATP_Site>  (331) 
nan

>  <Peripheral>  (331) 
nan

>  <Num_H_Atoms_ProtBoundConf>  (331) 
nan

>  <Num_Resolved_Atoms>  (331) 
nan

>  <Num_Not_Resolved_Atoms>  (331) 
nan

$$$$
CHEMBL3314276
     RDKit          3D

  0  0  0  0  0  0  0  0  0  0999 V3000
M  V30 BEGIN CTAB
M  V30 COUNTS 41 44 0 0 0
M  V30 BEGIN ATOM
M  V30 1 C 5.987235 -6.333890 2.557246 0
M  V30 2 C 5.153366 -5.489556 2.287528 0
M  V30 3 C 4.171888 -4.475991 1.980081 0
M  V30 4 C 4.649551 -3.256707 1.489389 0
M  V30 5 C 3.688409 -2.291624 1.199137 0
M  V30 6 C 2.338215 -2.503340 1.377303 0
M  V30 7 C 1.319411 -1.502965 1.078340 0
M  V30 8 N 1.640452 -0.271142 0.597766 0
M  V30 9 C 0.495589 0.430731 0.420440 0
M  V30 10 C 0.284670 1.790007 -0.067809 0
M  V30 11 C -0.461389 1.814631 -1.224193 0
M  V30 12 C -0.764358 3.031399 -1.837313 0
M  V30 13 C -0.302063 4.193550 -1.261211 0
M  V30 14 F -0.580512 5.375699 -1.832986 0
M  V30 15 C 0.443347 4.155130 -0.104399 0
M  V30 16 C 0.748579 2.950661 0.511057 0
M  V30 17 C -0.549049 -0.397696 0.803588 0
M  V30 18 C -1.994157 -0.145940 0.814938 0
M  V30 19 C -2.320600 0.876729 1.679369 0
M  V30 20 C -3.631895 1.295817 1.858980 0
M  V30 21 N -4.580776 0.642148 1.134926 0
M  V30 22 C -4.293546 -0.357117 0.285693 0
M  V30 23 O -5.136094 -0.982658 -0.397154 0
M  V30 24 C -2.987168 -0.789116 0.093801 0
M  V30 25 N -0.018030 -1.586430 1.206332 0
M  V30 26 C 1.905874 -3.719888 1.863658 0
M  V30 27 C 2.816524 -4.711877 2.167606 0
M  V30 28 H 6.709276 -7.080571 2.799786 0
M  V30 29 H 5.694576 -3.036017 1.329980 0
M  V30 30 H 4.027071 -1.322701 0.812001 0
M  V30 31 H -0.867332 0.947605 -1.748410 0
M  V30 32 H -1.358042 3.072263 -2.759776 0
M  V30 33 H 0.824885 5.058050 0.376884 0
M  V30 34 H 1.323698 2.818230 1.414733 0
M  V30 35 H -1.624171 1.455343 2.299057 0
M  V30 36 H -3.947166 2.091762 2.522508 0
M  V30 37 H -5.583879 0.894223 1.211007 0
M  V30 38 H -2.611854 -1.571918 -0.549624 0
M  V30 39 H -0.492712 -2.448350 1.560653 0
M  V30 40 H 0.862372 -4.010230 2.047770 0
M  V30 41 H 2.572642 -5.704302 2.556400 0
M  V30 END ATOM
M  V30 BEGIN BOND
M  V30 1 3 1 2
M  V30 2 1 2 3
M  V30 3 2 3 4
M  V30 4 1 4 5
M  V30 5 2 5 6
M  V30 6 1 6 7
M  V30 7 2 7 8
M  V30 8 1 8 9
M  V30 9 1 9 10
M  V30 10 2 10 11
M  V30 11 1 11 12
M  V30 12 2 12 13
M  V30 13 1 13 14
M  V30 14 1 13 15
M  V30 15 2 15 16
M  V30 16 2 9 17
M  V30 17 1 17 18
M  V30 18 1 18 19
M  V30 19 2 19 20
M  V30 20 1 20 21
M  V30 21 1 21 22
M  V30 22 2 22 23
M  V30 23 1 22 24
M  V30 24 1 17 25
M  V30 25 1 6 26
M  V30 26 2 26 27
M  V30 27 1 27 3
M  V30 28 1 25 7
M  V30 29 1 16 10
M  V30 30 2 24 18
M  V30 31 1 1 28
M  V30 32 1 4 29
M  V30 33 1 5 30
M  V30 34 1 11 31
M  V30 35 1 12 32
M  V30 36 1 15 33
M  V30 37 1 16 34
M  V30 38 1 19 35
M  V30 39 1 20 36
M  V30 40 1 21 37
M  V30 41 1 24 38
M  V30 42 1 25 39
M  V30 43 1 26 40
M  V30 44 1 27 41
M  V30 END BOND
M  V30 END CTAB
M  END
>  <Dataset>  (332) 
ChEMBL_Kinases

>  <Ligand_Instance>  (332) 
nan

>  <PDB_ID>  (332) 
nan

>  <Standardized_SMILES>  (332) 
C#Cc1ccc(-c2nc(-c3ccc(F)cc3)c(-c3cc[nH]c(=O)c3)[nH]2)cc1

>  <Name>  (332) 
nan

>  <Pocket>  (332) 
nan

>  <ATP_Site>  (332) 
nan

>  <Peripheral>  (332) 
nan

>  <Num_H_Atoms_ProtBoundConf>  (332) 
nan

>  <Num_Resolved_Atoms>  (332) 
nan

>  <Num_Not_Resolved_Atoms>  (332) 
nan

$$$$
CHEMBL3314281
     RDKit          3D

  0  0  0  0  0  0  0  0  0  0999 V3000
M  V30 BEGIN CTAB
M  V30 COUNTS 40 43 0 0 0
M  V30 BEGIN ATOM
M  V30 1 O 2.629888 -4.255712 3.644465 0
M  V30 2 C 1.782749 -3.328037 3.685293 0
M  V30 3 C 1.535284 -2.458734 2.623491 0
M  V30 4 C 0.576786 -1.444426 2.732867 0
M  V30 5 C 0.515886 -0.681679 1.492828 0
M  V30 6 N 1.462668 0.091615 0.975590 0
M  V30 7 C 1.054235 0.639383 -0.179806 0
M  V30 8 C 1.776874 1.558476 -1.084988 0
M  V30 9 C 1.159868 2.017788 -2.256230 0
M  V30 10 C 1.903068 2.881426 -3.056158 0
M  V30 11 C 3.182977 3.269033 -2.717856 0
M  V30 12 O 3.865635 4.140738 -3.573421 0
M  V30 13 C 3.787517 2.809663 -1.556093 0
M  V30 14 C 3.066314 1.939563 -0.729795 0
M  V30 15 N -0.196182 0.182648 -0.379841 0
M  V30 16 C -0.573751 -0.644770 0.638381 0
M  V30 17 C -1.872102 -1.300995 0.716633 0
M  V30 18 C -2.886800 -1.138901 1.633578 0
M  V30 19 C -4.066075 -1.848387 1.566648 0
M  V30 20 C -4.243779 -2.758492 0.542184 0
M  V30 21 F -5.429972 -3.422135 0.537927 0
M  V30 22 C -3.242369 -2.937339 -0.387052 0
M  V30 23 C -2.060309 -2.225313 -0.317916 0
M  V30 24 C -0.119503 -1.321356 3.914869 0
M  V30 25 C 0.141395 -2.191723 4.951450 0
M  V30 26 N 1.063249 -3.151591 4.817306 0
M  V30 27 H 2.164062 -2.685867 1.763215 0
M  V30 28 H 2.409515 0.277845 1.376672 0
M  V30 29 H 0.156553 1.711943 -2.517295 0
M  V30 30 H 1.463180 3.267040 -3.980291 0
M  V30 31 H 3.403762 5.011120 -3.875199 0
M  V30 32 H 4.788918 3.117798 -1.299192 0
M  V30 33 H 3.489944 1.559340 0.176401 0
M  V30 34 H -2.670537 -0.421712 2.384349 0
M  V30 35 H -4.805014 -1.656148 2.328201 0
M  V30 36 H -3.498751 -3.673619 -1.139556 0
M  V30 37 H -1.405278 -2.503933 -1.130963 0
M  V30 38 H -0.816644 -0.516571 3.880005 0
M  V30 39 H -0.455856 -2.010285 5.828826 0
M  V30 40 H 1.166072 -3.746139 5.676301 0
M  V30 END ATOM
M  V30 BEGIN BOND
M  V30 1 2 1 2
M  V30 2 1 2 3
M  V30 3 2 3 4
M  V30 4 1 4 5
M  V30 5 1 5 6
M  V30 6 1 6 7
M  V30 7 1 7 8
M  V30 8 2 8 9
M  V30 9 1 9 10
M  V30 10 2 10 11
M  V30 11 1 11 12
M  V30 12 1 11 13
M  V30 13 2 13 14
M  V30 14 2 7 15
M  V30 15 1 15 16
M  V30 16 1 16 17
M  V30 17 2 17 18
M  V30 18 1 18 19
M  V30 19 2 19 20
M  V30 20 1 20 21
M  V30 21 1 20 22
M  V30 22 2 22 23
M  V30 23 1 4 24
M  V30 24 2 24 25
M  V30 25 1 25 26
M  V30 26 1 26 2
M  V30 27 2 16 5
M  V30 28 1 23 17
M  V30 29 1 14 8
M  V30 30 1 3 27
M  V30 31 1 6 28
M  V30 32 1 9 29
M  V30 33 1 10 30
M  V30 34 1 12 31
M  V30 35 1 13 32
M  V30 36 1 14 33
M  V30 37 1 18 34
M  V30 38 1 19 35
M  V30 39 1 22 36
M  V30 40 1 23 37
M  V30 41 1 24 38
M  V30 42 1 25 39
M  V30 43 1 26 40
M  V30 END BOND
M  V30 END CTAB
M  END
>  <Dataset>  (333) 
ChEMBL_Kinases

>  <Ligand_Instance>  (333) 
nan

>  <PDB_ID>  (333) 
nan

>  <Standardized_SMILES>  (333) 
O=c1cc(-c2[nH]c(-c3ccc(O)cc3)nc2-c2ccc(F)cc2)cc[nH]1

>  <Name>  (333) 
nan

>  <Pocket>  (333) 
nan

>  <ATP_Site>  (333) 
nan

>  <Peripheral>  (333) 
nan

>  <Num_H_Atoms_ProtBoundConf>  (333) 
nan

>  <Num_Resolved_Atoms>  (333) 
nan

>  <Num_Not_Resolved_Atoms>  (333) 
nan

$$$$
CHEMBL3314155
     RDKit          3D

  0  0  0  0  0  0  0  0  0  0999 V3000
M  V30 BEGIN CTAB
M  V30 COUNTS 51 55 0 0 0
M  V30 BEGIN ATOM
M  V30 1 Cl 3.754556 -5.712044 3.798293 0
M  V30 2 C 3.444923 -4.628000 2.461507 0
M  V30 3 C 3.525659 -5.149320 1.183632 0
M  V30 4 C 3.297040 -4.367199 0.071672 0
M  V30 5 C 2.981935 -3.036399 0.261977 0
M  V30 6 C 2.725922 -2.144218 -0.872210 0
M  V30 7 C 2.774247 -2.538429 -2.196897 0
M  V30 8 C 2.480591 -1.441216 -2.994626 0
M  V30 9 C 2.263900 -0.413000 -2.093778 0
M  V30 10 C 1.915458 0.994942 -2.317881 0
M  V30 11 N 2.587075 1.811574 -3.133556 0
M  V30 12 C 2.049751 3.043072 -3.147053 0
M  V30 13 C 0.979378 2.951071 -2.274508 0
M  V30 14 N 0.900019 1.690619 -1.766802 0
M  V30 15 C -0.024033 1.134057 -0.844921 0
M  V30 16 C -0.106453 1.583998 0.455783 0
M  V30 17 C -1.024108 1.003854 1.304331 0
M  V30 18 C -1.888366 -0.010816 0.960062 0
M  V30 19 C -2.889124 -0.642322 1.849169 0
M  V30 20 C -2.396873 -0.975699 3.210300 0
M  V30 21 C -2.564146 0.060684 4.256716 0
M  V30 22 N -3.591040 1.014343 4.080086 0
M  V30 23 C -3.957534 1.366994 2.753389 0
M  V30 24 C -4.170712 0.120036 1.940860 0
M  V30 25 C -1.730636 -0.398899 -0.374854 0
M  V30 26 C -0.846991 0.121360 -1.284928 0
M  V30 27 O 2.418990 -0.876069 -0.879123 0
M  V30 28 C 2.898020 -2.503319 1.530395 0
M  V30 29 C 3.126865 -3.285463 2.648582 0
M  V30 30 H 3.766147 -6.177918 0.950328 0
M  V30 31 H 3.346967 -4.723734 -0.951468 0
M  V30 32 H 2.990924 -3.500117 -2.644910 0
M  V30 33 H 2.402020 -1.274830 -4.074699 0
M  V30 34 H 2.281585 3.968127 -3.655904 0
M  V30 35 H 0.269457 3.709889 -1.985513 0
M  V30 36 H 0.546075 2.379472 0.786435 0
M  V30 37 H -1.043589 1.385748 2.314267 0
M  V30 38 H -3.143232 -1.621871 1.327536 0
M  V30 39 H -2.828022 -1.961738 3.518528 0
M  V30 40 H -1.290298 -1.178963 3.103799 0
M  V30 41 H -2.800504 -0.492169 5.216191 0
M  V30 42 H -1.609153 0.591640 4.496348 0
M  V30 43 H -4.370846 1.007692 4.752690 0
M  V30 44 H -4.954770 1.876175 2.814435 0
M  V30 45 H -3.281757 2.109544 2.283027 0
M  V30 46 H -4.871073 -0.515607 2.550972 0
M  V30 47 H -4.623239 0.342960 0.954307 0
M  V30 48 H -2.381119 -1.207188 -0.741773 0
M  V30 49 H -0.815073 -0.259469 -2.291989 0
M  V30 50 H 2.656959 -1.473078 1.758781 0
M  V30 51 H 3.065934 -2.885468 3.657655 0
M  V30 END ATOM
M  V30 BEGIN BOND
M  V30 1 1 1 2
M  V30 2 2 2 3
M  V30 3 1 3 4
M  V30 4 2 4 5
M  V30 5 1 5 6
M  V30 6 2 6 7
M  V30 7 1 7 8
M  V30 8 2 8 9
M  V30 9 1 9 10
M  V30 10 2 10 11
M  V30 11 1 11 12
M  V30 12 2 12 13
M  V30 13 1 13 14
M  V30 14 1 14 15
M  V30 15 2 15 16
M  V30 16 1 16 17
M  V30 17 2 17 18
M  V30 18 1 18 19
M  V30 19 1 19 20
M  V30 20 1 20 21
M  V30 21 1 21 22
M  V30 22 1 22 23
M  V30 23 1 23 24
M  V30 24 1 18 25
M  V30 25 2 25 26
M  V30 26 1 9 27
M  V30 27 1 5 28
M  V30 28 2 28 29
M  V30 29 1 29 2
M  V30 30 1 27 6
M  V30 31 1 14 10
M  V30 32 1 26 15
M  V30 33 1 24 19
M  V30 34 1 3 30
M  V30 35 1 4 31
M  V30 36 1 7 32
M  V30 37 1 8 33
M  V30 38 1 12 34
M  V30 39 1 13 35
M  V30 40 1 16 36
M  V30 41 1 17 37
M  V30 42 1 19 38
M  V30 43 1 20 39
M  V30 44 1 20 40
M  V30 45 1 21 41
M  V30 46 1 21 42
M  V30 47 1 22 43
M  V30 48 1 23 44
M  V30 49 1 23 45
M  V30 50 1 24 46
M  V30 51 1 24 47
M  V30 52 1 25 48
M  V30 53 1 26 49
M  V30 54 1 28 50
M  V30 55 1 29 51
M  V30 END BOND
M  V30 END CTAB
M  END
>  <Dataset>  (334) 
ChEMBL_Kinases

>  <Ligand_Instance>  (334) 
nan

>  <PDB_ID>  (334) 
nan

>  <Standardized_SMILES>  (334) 
Clc1ccc(-c2ccc(-c3nccn3-c3ccc(C4CCNCC4)cc3)o2)cc1

>  <Name>  (334) 
nan

>  <Pocket>  (334) 
nan

>  <ATP_Site>  (334) 
nan

>  <Peripheral>  (334) 
nan

>  <Num_H_Atoms_ProtBoundConf>  (334) 
nan

>  <Num_Resolved_Atoms>  (334) 
nan

>  <Num_Not_Resolved_Atoms>  (334) 
nan

$$$$
CHEMBL3235555
     RDKit          3D

  0  0  0  0  0  0  0  0  0  0999 V3000
M  V30 BEGIN CTAB
M  V30 COUNTS 42 44 0 0 0
M  V30 BEGIN ATOM
M  V30 1 C 0.440796 -7.563489 1.729156 0
M  V30 2 C 1.688771 -7.519564 0.918538 0
M  V30 3 O 1.674336 -6.606049 -0.157611 0
M  V30 4 C 1.500473 -5.242374 -0.003503 0
M  V30 5 C 1.316013 -4.502249 1.143233 0
M  V30 6 C 1.151004 -3.140799 1.194820 0
M  V30 7 C 1.164363 -2.410515 0.021413 0
M  V30 8 N 1.024567 -1.102882 -0.147690 0
M  V30 9 C 1.045286 -0.522424 -1.199444 0
M  V30 10 N 0.908571 0.900855 -1.562518 0
M  V30 11 C 0.715945 1.694020 -0.427635 0
M  V30 12 O 0.664294 1.260147 0.752313 0
M  V30 13 C 0.565207 3.171118 -0.696431 0
M  V30 14 C 0.371450 3.809711 0.653316 0
M  V30 15 C 1.471910 4.474031 1.183911 0
M  V30 16 C 1.328422 5.068598 2.421157 0
M  V30 17 C 0.136002 5.024878 3.143086 0
M  V30 18 C -0.904948 4.347115 2.546632 0
M  V30 19 C -0.834428 3.731538 1.318097 0
M  V30 20 O -1.825642 3.036328 0.653719 0
M  V30 21 C -3.089688 2.912424 1.268820 0
M  V30 22 S 1.304778 -1.834584 -2.433170 0
M  V30 23 C 1.356053 -3.205367 -1.133856 0
M  V30 24 C 1.524911 -4.580200 -1.211987 0
M  V30 25 H 0.096920 -8.625456 1.799785 0
M  V30 26 H 0.591483 -7.254219 2.806713 0
M  V30 27 H -0.421677 -7.028186 1.272894 0
M  V30 28 H 1.834773 -8.524957 0.437807 0
M  V30 29 H 2.523801 -7.304313 1.630537 0
M  V30 30 H 1.311254 -5.110070 2.063578 0
M  V30 31 H 1.017718 -2.719036 2.182614 0
M  V30 32 H 0.965905 1.145823 -2.552980 0
M  V30 33 H 1.487768 3.501554 -1.169973 0
M  V30 34 H -0.263590 3.356701 -1.379163 0
M  V30 35 H 2.431015 4.578263 0.734549 0
M  V30 36 H 2.140662 5.616637 2.922925 0
M  V30 37 H -0.037350 5.461466 4.097000 0
M  V30 38 H -1.851930 4.280332 3.061411 0
M  V30 39 H -3.885248 2.658821 0.525002 0
M  V30 40 H -3.377209 3.821363 1.822826 0
M  V30 41 H -3.049556 2.077860 2.027083 0
M  V30 42 H 1.651710 -4.925395 -2.225259 0
M  V30 END ATOM
M  V30 BEGIN BOND
M  V30 1 1 1 2
M  V30 2 1 2 3
M  V30 3 1 3 4
M  V30 4 2 4 5
M  V30 5 1 5 6
M  V30 6 2 6 7
M  V30 7 1 7 8
M  V30 8 2 8 9
M  V30 9 1 9 10
M  V30 10 1 10 11
M  V30 11 2 11 12
M  V30 12 1 11 13
M  V30 13 1 13 14
M  V30 14 2 14 15
M  V30 15 1 15 16
M  V30 16 2 16 17
M  V30 17 1 17 18
M  V30 18 2 18 19
M  V30 19 1 19 20
M  V30 20 1 20 21
M  V30 21 1 9 22
M  V30 22 1 22 23
M  V30 23 2 23 24
M  V30 24 1 24 4
M  V30 25 1 23 7
M  V30 26 1 19 14
M  V30 27 1 1 25
M  V30 28 1 1 26
M  V30 29 1 1 27
M  V30 30 1 2 28
M  V30 31 1 2 29
M  V30 32 1 5 30
M  V30 33 1 6 31
M  V30 34 1 10 32
M  V30 35 1 13 33
M  V30 36 1 13 34
M  V30 37 1 15 35
M  V30 38 1 16 36
M  V30 39 1 17 37
M  V30 40 1 18 38
M  V30 41 1 21 39
M  V30 42 1 21 40
M  V30 43 1 21 41
M  V30 44 1 24 42
M  V30 END BOND
M  V30 END CTAB
M  END
>  <Dataset>  (335) 
ChEMBL_Kinases

>  <Ligand_Instance>  (335) 
nan

>  <PDB_ID>  (335) 
nan

>  <Standardized_SMILES>  (335) 
CCOc1ccc2nc(NC(=O)Cc3ccccc3OC)sc2c1

>  <Name>  (335) 
nan

>  <Pocket>  (335) 
nan

>  <ATP_Site>  (335) 
nan

>  <Peripheral>  (335) 
nan

>  <Num_H_Atoms_ProtBoundConf>  (335) 
nan

>  <Num_Resolved_Atoms>  (335) 
nan

>  <Num_Not_Resolved_Atoms>  (335) 
nan

$$$$
CHEMBL3235554
     RDKit          3D

  0  0  0  0  0  0  0  0  0  0999 V3000
M  V30 BEGIN CTAB
M  V30 COUNTS 39 41 0 0 0
M  V30 BEGIN ATOM
M  V30 1 C 4.769088 -0.930629 3.743694 0
M  V30 2 O 4.272991 -0.896661 2.432085 0
M  V30 3 C 4.235669 -2.046734 1.654139 0
M  V30 4 C 4.690390 -3.240314 2.170202 0
M  V30 5 C 4.660003 -4.378004 1.418815 0
M  V30 6 C 4.164591 -4.292966 0.141700 0
M  V30 7 C 3.711858 -3.095483 -0.365860 0
M  V30 8 C 3.728666 -1.908008 0.377480 0
M  V30 9 C 3.244300 -0.622596 -0.179374 0
M  V30 10 C 1.916140 -0.254529 0.378851 0
M  V30 11 O 1.721894 -1.238538 1.155275 0
M  V30 12 N 1.206038 0.915156 0.028645 0
M  V30 13 C -0.112853 1.302453 0.582598 0
M  V30 14 N -1.103408 1.593216 0.998470 0
M  V30 15 C -2.364270 1.542622 0.873096 0
M  V30 16 C -3.359601 2.080438 1.656692 0
M  V30 17 C -4.674232 1.879261 1.276385 0
M  V30 18 C -4.999401 1.146649 0.121586 0
M  V30 19 O -6.256272 0.993079 -0.189104 0
M  V30 20 C -7.452577 1.120589 -0.666531 0
M  V30 21 F -7.485638 1.120862 -2.061815 0
M  V30 22 F -8.066919 2.329903 -0.282196 0
M  V30 23 F -8.362437 0.145184 -0.199226 0
M  V30 24 C -4.022734 0.604507 -0.668944 0
M  V30 25 C -2.694227 0.842495 -0.230843 0
M  V30 26 S -1.028443 0.399133 -0.859088 0
M  V30 27 H 5.758018 -1.451803 3.831578 0
M  V30 28 H 4.856914 0.107136 4.150282 0
M  V30 29 H 4.071960 -1.492055 4.406116 0
M  V30 30 H 5.080554 -3.296867 3.183922 0
M  V30 31 H 5.003280 -5.322547 1.782279 0
M  V30 32 H 4.114604 -5.159747 -0.501190 0
M  V30 33 H 3.320621 -3.061852 -1.393167 0
M  V30 34 H 3.963608 0.156236 0.052324 0
M  V30 35 H 3.168908 -0.703661 -1.283253 0
M  V30 36 H 1.722081 1.487457 -0.673592 0
M  V30 37 H -3.230675 2.669634 2.578927 0
M  V30 38 H -5.476793 2.289040 1.873031 0
M  V30 39 H -4.104733 0.027138 -1.567877 0
M  V30 END ATOM
M  V30 BEGIN BOND
M  V30 1 1 1 2
M  V30 2 1 2 3
M  V30 3 2 3 4
M  V30 4 1 4 5
M  V30 5 2 5 6
M  V30 6 1 6 7
M  V30 7 2 7 8
M  V30 8 1 8 9
M  V30 9 1 9 10
M  V30 10 2 10 11
M  V30 11 1 10 12
M  V30 12 1 12 13
M  V30 13 2 13 14
M  V30 14 1 14 15
M  V30 15 2 15 16
M  V30 16 1 16 17
M  V30 17 2 17 18
M  V30 18 1 18 19
M  V30 19 1 19 20
M  V30 20 1 20 21
M  V30 21 1 20 22
M  V30 22 1 20 23
M  V30 23 1 18 24
M  V30 24 2 24 25
M  V30 25 1 25 26
M  V30 26 1 8 3
M  V30 27 1 26 13
M  V30 28 1 25 15
M  V30 29 1 1 27
M  V30 30 1 1 28
M  V30 31 1 1 29
M  V30 32 1 4 30
M  V30 33 1 5 31
M  V30 34 1 6 32
M  V30 35 1 7 33
M  V30 36 1 9 34
M  V30 37 1 9 35
M  V30 38 1 12 36
M  V30 39 1 16 37
M  V30 40 1 17 38
M  V30 41 1 24 39
M  V30 END BOND
M  V30 END CTAB
M  END
>  <Dataset>  (336) 
ChEMBL_Kinases

>  <Ligand_Instance>  (336) 
nan

>  <PDB_ID>  (336) 
nan

>  <Standardized_SMILES>  (336) 
COc1ccccc1CC(=O)Nc1nc2ccc(OC(F)(F)F)cc2s1

>  <Name>  (336) 
nan

>  <Pocket>  (336) 
nan

>  <ATP_Site>  (336) 
nan

>  <Peripheral>  (336) 
nan

>  <Num_H_Atoms_ProtBoundConf>  (336) 
nan

>  <Num_Resolved_Atoms>  (336) 
nan

>  <Num_Not_Resolved_Atoms>  (336) 
nan

$$$$
CHEMBL3235553
     RDKit          3D

  0  0  0  0  0  0  0  0  0  0999 V3000
M  V30 BEGIN CTAB
M  V30 COUNTS 39 41 0 0 0
M  V30 BEGIN ATOM
M  V30 1 C 2.720311 -6.991270 4.270999 0
M  V30 2 O 2.864674 -5.601554 4.364837 0
M  V30 3 C 2.591813 -4.682351 3.369816 0
M  V30 4 C 2.125886 -4.898642 2.082151 0
M  V30 5 C 1.886861 -3.911431 1.168321 0
M  V30 6 C 2.101596 -2.583241 1.478669 0
M  V30 7 N 1.935341 -1.502845 0.753253 0
M  V30 8 C 2.097750 -0.413140 0.968902 0
M  V30 9 N 1.893837 0.792032 0.105818 0
M  V30 10 C 0.636329 1.411086 0.130344 0
M  V30 11 O -0.507927 1.343463 0.647672 0
M  V30 12 C 0.366009 2.609923 -0.700083 0
M  V30 13 C -1.022561 3.105103 -0.522029 0
M  V30 14 C -1.318898 4.230520 0.233542 0
M  V30 15 C -2.603511 4.709918 0.413554 0
M  V30 16 C -3.605259 4.002358 -0.207037 0
M  V30 17 C -3.359227 2.877349 -0.968448 0
M  V30 18 C -2.059234 2.399617 -1.145363 0
M  V30 19 O -1.765163 1.291288 -1.889305 0
M  V30 20 C -2.649561 0.464079 -2.579839 0
M  V30 21 S 2.709336 -0.594462 2.766334 0
M  V30 22 C 2.549014 -2.358665 2.711630 0
M  V30 23 C 2.812503 -3.352300 3.697201 0
M  V30 24 H 2.471304 -7.361040 3.255610 0
M  V30 25 H 1.943884 -7.294820 5.014469 0
M  V30 26 H 3.648093 -7.531609 4.562096 0
M  V30 27 H 1.963005 -5.967124 1.862066 0
M  V30 28 H 1.521881 -4.289628 0.209584 0
M  V30 29 H 2.604869 1.200220 -0.502637 0
M  V30 30 H 0.522899 2.414180 -1.780062 0
M  V30 31 H 1.069704 3.397871 -0.411158 0
M  V30 32 H -0.513796 4.781371 0.720172 0
M  V30 33 H -2.861388 5.567451 0.985490 0
M  V30 34 H -4.671031 4.240507 -0.170047 0
M  V30 35 H -4.106902 2.283171 -1.478219 0
M  V30 36 H -3.372044 -0.057749 -1.895911 0
M  V30 37 H -3.173441 0.951964 -3.404312 0
M  V30 38 H -2.031051 -0.379749 -3.003275 0
M  V30 39 H 3.171061 -2.942654 4.631308 0
M  V30 END ATOM
M  V30 BEGIN BOND
M  V30 1 1 1 2
M  V30 2 1 2 3
M  V30 3 2 3 4
M  V30 4 1 4 5
M  V30 5 2 5 6
M  V30 6 1 6 7
M  V30 7 2 7 8
M  V30 8 1 8 9
M  V30 9 1 9 10
M  V30 10 2 10 11
M  V30 11 1 10 12
M  V30 12 1 12 13
M  V30 13 2 13 14
M  V30 14 1 14 15
M  V30 15 2 15 16
M  V30 16 1 16 17
M  V30 17 2 17 18
M  V30 18 1 18 19
M  V30 19 1 19 20
M  V30 20 1 8 21
M  V30 21 1 21 22
M  V30 22 2 22 23
M  V30 23 1 23 3
M  V30 24 1 22 6
M  V30 25 1 18 13
M  V30 26 1 1 24
M  V30 27 1 1 25
M  V30 28 1 1 26
M  V30 29 1 4 27
M  V30 30 1 5 28
M  V30 31 1 9 29
M  V30 32 1 12 30
M  V30 33 1 12 31
M  V30 34 1 14 32
M  V30 35 1 15 33
M  V30 36 1 16 34
M  V30 37 1 17 35
M  V30 38 1 20 36
M  V30 39 1 20 37
M  V30 40 1 20 38
M  V30 41 1 23 39
M  V30 END BOND
M  V30 END CTAB
M  END
>  <Dataset>  (337) 
ChEMBL_Kinases

>  <Ligand_Instance>  (337) 
nan

>  <PDB_ID>  (337) 
nan

>  <Standardized_SMILES>  (337) 
COc1ccc2nc(NC(=O)Cc3ccccc3OC)sc2c1

>  <Name>  (337) 
nan

>  <Pocket>  (337) 
nan

>  <ATP_Site>  (337) 
nan

>  <Peripheral>  (337) 
nan

>  <Num_H_Atoms_ProtBoundConf>  (337) 
nan

>  <Num_Resolved_Atoms>  (337) 
nan

>  <Num_Not_Resolved_Atoms>  (337) 
nan

$$$$
CHEMBL3235552
     RDKit          3D

  0  0  0  0  0  0  0  0  0  0999 V3000
M  V30 BEGIN CTAB
M  V30 COUNTS 38 40 0 0 0
M  V30 BEGIN ATOM
M  V30 1 C -0.097183 -3.781618 -2.792004 0
M  V30 2 O 0.580527 -2.589070 -2.478301 0
M  V30 3 C 1.926181 -2.635957 -2.160577 0
M  V30 4 C 2.634563 -3.836076 -2.141363 0
M  V30 5 C 3.956667 -3.898076 -1.831010 0
M  V30 6 C 4.633640 -2.732486 -1.521190 0
M  V30 7 C 3.930540 -1.531445 -1.538956 0
M  V30 8 C 2.583904 -1.450982 -1.852857 0
M  V30 9 C 1.859534 -0.155338 -1.863684 0
M  V30 10 C 0.999994 -0.012707 -0.651250 0
M  V30 11 O 1.104182 -1.040626 0.087250 0
M  V30 12 N 0.235787 1.161895 -0.491605 0
M  V30 13 C -0.589988 1.247328 0.716545 0
M  V30 14 N -0.277883 1.692939 1.773828 0
M  V30 15 C -1.027417 1.764623 2.852620 0
M  V30 16 C -0.699882 2.273831 4.096344 0
M  V30 17 C -1.608785 2.266636 5.108144 0
M  V30 18 C -2.890059 1.777661 5.013498 0
M  V30 19 C -3.923527 1.740979 6.076253 0
M  V30 20 F -4.799158 0.685400 5.899329 0
M  V30 21 F -4.602443 2.957822 6.184665 0
M  V30 22 F -3.293186 1.571054 7.299363 0
M  V30 23 C -3.268201 1.257322 3.791748 0
M  V30 24 C -2.298417 1.281699 2.765676 0
M  V30 25 S -2.351066 0.713219 1.023980 0
M  V30 26 H -1.116675 -3.551472 -3.170934 0
M  V30 27 H 0.481424 -4.312173 -3.575007 0
M  V30 28 H -0.208894 -4.416742 -1.870321 0
M  V30 29 H 2.127626 -4.771668 -2.381462 0
M  V30 30 H 4.547997 -4.815975 -1.804588 0
M  V30 31 H 5.688486 -2.689413 -1.262155 0
M  V30 32 H 4.404337 -0.575458 -1.304002 0
M  V30 33 H 2.641068 0.653649 -1.903538 0
M  V30 34 H 1.227032 -0.163394 -2.776842 0
M  V30 35 H 0.297306 1.894969 -1.228206 0
M  V30 36 H 0.269646 2.706929 4.367582 0
M  V30 37 H -1.380528 2.664197 6.112205 0
M  V30 38 H -4.222430 0.827389 3.513000 0
M  V30 END ATOM
M  V30 BEGIN BOND
M  V30 1 1 1 2
M  V30 2 1 2 3
M  V30 3 2 3 4
M  V30 4 1 4 5
M  V30 5 2 5 6
M  V30 6 1 6 7
M  V30 7 2 7 8
M  V30 8 1 8 9
M  V30 9 1 9 10
M  V30 10 2 10 11
M  V30 11 1 10 12
M  V30 12 1 12 13
M  V30 13 2 13 14
M  V30 14 1 14 15
M  V30 15 2 15 16
M  V30 16 1 16 17
M  V30 17 2 17 18
M  V30 18 1 18 19
M  V30 19 1 19 20
M  V30 20 1 19 21
M  V30 21 1 19 22
M  V30 22 1 18 23
M  V30 23 2 23 24
M  V30 24 1 24 25
M  V30 25 1 8 3
M  V30 26 1 25 13
M  V30 27 1 24 15
M  V30 28 1 1 26
M  V30 29 1 1 27
M  V30 30 1 1 28
M  V30 31 1 4 29
M  V30 32 1 5 30
M  V30 33 1 6 31
M  V30 34 1 7 32
M  V30 35 1 9 33
M  V30 36 1 9 34
M  V30 37 1 12 35
M  V30 38 1 16 36
M  V30 39 1 17 37
M  V30 40 1 23 38
M  V30 END BOND
M  V30 END CTAB
M  END
>  <Dataset>  (338) 
ChEMBL_Kinases

>  <Ligand_Instance>  (338) 
nan

>  <PDB_ID>  (338) 
nan

>  <Standardized_SMILES>  (338) 
COc1ccccc1CC(=O)Nc1nc2ccc(C(F)(F)F)cc2s1

>  <Name>  (338) 
nan

>  <Pocket>  (338) 
nan

>  <ATP_Site>  (338) 
nan

>  <Peripheral>  (338) 
nan

>  <Num_H_Atoms_ProtBoundConf>  (338) 
nan

>  <Num_Resolved_Atoms>  (338) 
nan

>  <Num_Not_Resolved_Atoms>  (338) 
nan

$$$$
CHEMBL3235551
     RDKit          3D

  0  0  0  0  0  0  0  0  0  0999 V3000
M  V30 BEGIN CTAB
M  V30 COUNTS 38 40 0 0 0
M  V30 BEGIN ATOM
M  V30 1 C -0.450978 -4.670597 -0.795073 0
M  V30 2 O 0.058348 -3.459745 -1.319327 0
M  V30 3 C 1.434282 -3.282508 -1.327668 0
M  V30 4 C 2.317074 -4.230276 -0.850211 0
M  V30 5 C 3.689936 -4.091809 -0.841255 0
M  V30 6 C 4.223121 -2.924611 -1.344323 0
M  V30 7 C 3.405353 -1.923152 -1.842760 0
M  V30 8 C 2.029357 -2.117902 -1.826248 0
M  V30 9 C 1.046022 -1.098568 -2.340122 0
M  V30 10 C 0.397961 -0.406446 -1.167956 0
M  V30 11 O 0.916159 -0.933877 -0.150593 0
M  V30 12 N -0.561904 0.592820 -1.351992 0
M  V30 13 C -0.968543 1.034323 0.014271 0
M  V30 14 N -0.489232 1.887459 0.657370 0
M  V30 15 C -0.811585 2.308498 1.856382 0
M  V30 16 C -0.291253 3.306991 2.672837 0
M  V30 17 C -0.816840 3.548886 3.898722 0
M  V30 18 C -1.890082 2.856385 4.456070 0
M  V30 19 C -2.510294 3.070333 5.785410 0
M  V30 20 C -2.476342 1.845794 3.723846 0
M  V30 21 C -1.888625 1.639992 2.458947 0
M  V30 22 S -2.331755 0.389900 1.108001 0
M  V30 23 H -1.548259 -4.766584 -1.043703 0
M  V30 24 H 0.118798 -5.520590 -1.265144 0
M  V30 25 H -0.348022 -4.682675 0.307523 0
M  V30 26 H 1.947713 -5.165108 -0.443905 0
M  V30 27 H 4.332205 -4.891447 -0.443742 0
M  V30 28 H 5.309907 -2.787481 -1.349645 0
M  V30 29 H 3.788417 -0.989090 -2.247676 0
M  V30 30 H 1.563617 -0.335870 -2.940172 0
M  V30 31 H 0.270436 -1.553843 -2.954033 0
M  V30 32 H -0.861064 0.893031 -2.280063 0
M  V30 33 H 0.537374 3.907794 2.350682 0
M  V30 34 H -0.409009 4.340526 4.552906 0
M  V30 35 H -3.546943 3.426790 5.713876 0
M  V30 36 H -2.554458 2.071508 6.296209 0
M  V30 37 H -1.857716 3.700889 6.411266 0
M  V30 38 H -3.298458 1.189128 3.943476 0
M  V30 END ATOM
M  V30 BEGIN BOND
M  V30 1 1 1 2
M  V30 2 1 2 3
M  V30 3 2 3 4
M  V30 4 1 4 5
M  V30 5 2 5 6
M  V30 6 1 6 7
M  V30 7 2 7 8
M  V30 8 1 8 9
M  V30 9 1 9 10
M  V30 10 2 10 11
M  V30 11 1 10 12
M  V30 12 1 12 13
M  V30 13 2 13 14
M  V30 14 1 14 15
M  V30 15 2 15 16
M  V30 16 1 16 17
M  V30 17 2 17 18
M  V30 18 1 18 19
M  V30 19 1 18 20
M  V30 20 2 20 21
M  V30 21 1 21 22
M  V30 22 1 8 3
M  V30 23 1 22 13
M  V30 24 1 21 15
M  V30 25 1 1 23
M  V30 26 1 1 24
M  V30 27 1 1 25
M  V30 28 1 4 26
M  V30 29 1 5 27
M  V30 30 1 6 28
M  V30 31 1 7 29
M  V30 32 1 9 30
M  V30 33 1 9 31
M  V30 34 1 12 32
M  V30 35 1 16 33
M  V30 36 1 17 34
M  V30 37 1 19 35
M  V30 38 1 19 36
M  V30 39 1 19 37
M  V30 40 1 20 38
M  V30 END BOND
M  V30 END CTAB
M  END
>  <Dataset>  (339) 
ChEMBL_Kinases

>  <Ligand_Instance>  (339) 
nan

>  <PDB_ID>  (339) 
nan

>  <Standardized_SMILES>  (339) 
COc1ccccc1CC(=O)Nc1nc2ccc(C)cc2s1

>  <Name>  (339) 
nan

>  <Pocket>  (339) 
nan

>  <ATP_Site>  (339) 
nan

>  <Peripheral>  (339) 
nan

>  <Num_H_Atoms_ProtBoundConf>  (339) 
nan

>  <Num_Resolved_Atoms>  (339) 
nan

>  <Num_Not_Resolved_Atoms>  (339) 
nan

$$$$
CHEMBL3235550
     RDKit          3D

  0  0  0  0  0  0  0  0  0  0999 V3000
M  V30 BEGIN CTAB
M  V30 COUNTS 35 37 0 0 0
M  V30 BEGIN ATOM
M  V30 1 C -0.125368 -4.536580 -0.763757 0
M  V30 2 O 0.570765 -3.326857 -0.835300 0
M  V30 3 C 1.753377 -3.197106 -0.120602 0
M  V30 4 C 2.279571 -4.214521 0.664368 0
M  V30 5 C 3.456594 -4.089041 1.377261 0
M  V30 6 C 4.158541 -2.889812 1.314063 0
M  V30 7 C 3.673292 -1.837269 0.540532 0
M  V30 8 C 2.490965 -2.020163 -0.150891 0
M  V30 9 C 1.969797 -0.898759 -0.977927 0
M  V30 10 C 0.827725 -0.216327 -0.314028 0
M  V30 11 O 0.463377 -0.654439 0.813287 0
M  V30 12 N 0.242113 0.876924 -1.011312 0
M  V30 13 C -0.868928 1.463030 -0.256824 0
M  V30 14 N -0.832069 2.328931 0.528658 0
M  V30 15 C -1.831166 2.858767 1.209734 0
M  V30 16 C -1.763120 3.887017 2.137785 0
M  V30 17 C -2.915252 4.317570 2.758047 0
M  V30 18 C -4.177701 3.798453 2.530509 0
M  V30 19 F -5.323667 4.198394 3.121577 0
M  V30 20 C -4.241615 2.776061 1.606996 0
M  V30 21 C -3.085602 2.345807 0.986248 0
M  V30 22 S -2.743895 1.074413 -0.244721 0
M  V30 23 H -0.649745 -4.636404 0.222245 0
M  V30 24 H -0.931670 -4.623704 -1.521114 0
M  V30 25 H 0.517040 -5.445914 -0.865588 0
M  V30 26 H 1.752920 -5.161896 0.732484 0
M  V30 27 H 3.850190 -4.891330 1.982333 0
M  V30 28 H 5.073937 -2.823095 1.881914 0
M  V30 29 H 4.228944 -0.913351 0.501506 0
M  V30 30 H 2.758986 -0.140632 -1.159030 0
M  V30 31 H 1.625471 -1.258772 -1.967929 0
M  V30 32 H 0.575028 1.193260 -1.924341 0
M  V30 33 H -0.864240 4.408591 2.438908 0
M  V30 34 H -2.893498 5.124731 3.492722 0
M  V30 35 H -5.126934 2.252571 1.301476 0
M  V30 END ATOM
M  V30 BEGIN BOND
M  V30 1 1 1 2
M  V30 2 1 2 3
M  V30 3 2 3 4
M  V30 4 1 4 5
M  V30 5 2 5 6
M  V30 6 1 6 7
M  V30 7 2 7 8
M  V30 8 1 8 9
M  V30 9 1 9 10
M  V30 10 2 10 11
M  V30 11 1 10 12
M  V30 12 1 12 13
M  V30 13 2 13 14
M  V30 14 1 14 15
M  V30 15 2 15 16
M  V30 16 1 16 17
M  V30 17 2 17 18
M  V30 18 1 18 19
M  V30 19 1 18 20
M  V30 20 2 20 21
M  V30 21 1 21 22
M  V30 22 1 8 3
M  V30 23 1 22 13
M  V30 24 1 21 15
M  V30 25 1 1 23
M  V30 26 1 1 24
M  V30 27 1 1 25
M  V30 28 1 4 26
M  V30 29 1 5 27
M  V30 30 1 6 28
M  V30 31 1 7 29
M  V30 32 1 9 30
M  V30 33 1 9 31
M  V30 34 1 12 32
M  V30 35 1 16 33
M  V30 36 1 17 34
M  V30 37 1 20 35
M  V30 END BOND
M  V30 END CTAB
M  END
>  <Dataset>  (340) 
ChEMBL_Kinases

>  <Ligand_Instance>  (340) 
nan

>  <PDB_ID>  (340) 
nan

>  <Standardized_SMILES>  (340) 
COc1ccccc1CC(=O)Nc1nc2ccc(F)cc2s1

>  <Name>  (340) 
nan

>  <Pocket>  (340) 
nan

>  <ATP_Site>  (340) 
nan

>  <Peripheral>  (340) 
nan

>  <Num_H_Atoms_ProtBoundConf>  (340) 
nan

>  <Num_Resolved_Atoms>  (340) 
nan

>  <Num_Not_Resolved_Atoms>  (340) 
nan

$$$$
CHEMBL3235549
     RDKit          3D

  0  0  0  0  0  0  0  0  0  0999 V3000
M  V30 BEGIN CTAB
M  V30 COUNTS 35 37 0 0 0
M  V30 BEGIN ATOM
M  V30 1 C 0.305538 -4.481741 0.945026 0
M  V30 2 O 0.548764 -3.400177 0.040263 0
M  V30 3 C 1.851630 -3.005836 -0.228346 0
M  V30 4 C 2.911464 -3.670167 0.387868 0
M  V30 5 C 4.222400 -3.313109 0.151352 0
M  V30 6 C 4.493555 -2.269413 -0.719409 0
M  V30 7 C 3.452945 -1.595645 -1.342683 0
M  V30 8 C 2.134777 -1.955355 -1.104247 0
M  V30 9 C 0.944731 -1.310030 -1.712512 0
M  V30 10 C 0.313569 -0.441881 -0.692758 0
M  V30 11 O 0.892503 -0.436563 0.417401 0
M  V30 12 N -0.851684 0.268011 -1.087961 0
M  V30 13 C -1.432393 1.107339 -0.041962 0
M  V30 14 N -1.369442 2.181515 0.372789 0
M  V30 15 C -2.023446 2.735645 1.373158 0
M  V30 16 C -1.911159 4.050485 1.839743 0
M  V30 17 C -2.695163 4.420447 2.904950 0
M  V30 18 C -3.597316 3.631411 3.580954 0
M  V30 19 Cl -4.576923 4.137959 4.931775 0
M  V30 20 C -3.701301 2.338447 3.114834 0
M  V30 21 C -2.921845 1.929998 2.037446 0
M  V30 22 S -2.758472 0.384689 1.149810 0
M  V30 23 H 0.747197 -4.315078 1.939752 0
M  V30 24 H -0.784030 -4.682726 0.990081 0
M  V30 25 H 0.752471 -5.427922 0.526974 0
M  V30 26 H 2.742660 -4.499773 1.082351 0
M  V30 27 H 5.037153 -3.840817 0.640099 0
M  V30 28 H 5.509835 -1.942575 -0.945397 0
M  V30 29 H 3.597290 -0.767538 -2.036961 0
M  V30 30 H 1.263500 -0.666815 -2.580684 0
M  V30 31 H 0.266731 -2.070458 -2.111849 0
M  V30 32 H -1.229558 0.170420 -2.055436 0
M  V30 33 H -1.257222 4.811080 1.435608 0
M  V30 34 H -2.627222 5.448943 3.293075 0
M  V30 35 H -4.357374 1.605774 3.534184 0
M  V30 END ATOM
M  V30 BEGIN BOND
M  V30 1 1 1 2
M  V30 2 1 2 3
M  V30 3 2 3 4
M  V30 4 1 4 5
M  V30 5 2 5 6
M  V30 6 1 6 7
M  V30 7 2 7 8
M  V30 8 1 8 9
M  V30 9 1 9 10
M  V30 10 2 10 11
M  V30 11 1 10 12
M  V30 12 1 12 13
M  V30 13 2 13 14
M  V30 14 1 14 15
M  V30 15 2 15 16
M  V30 16 1 16 17
M  V30 17 2 17 18
M  V30 18 1 18 19
M  V30 19 1 18 20
M  V30 20 2 20 21
M  V30 21 1 21 22
M  V30 22 1 8 3
M  V30 23 1 22 13
M  V30 24 1 21 15
M  V30 25 1 1 23
M  V30 26 1 1 24
M  V30 27 1 1 25
M  V30 28 1 4 26
M  V30 29 1 5 27
M  V30 30 1 6 28
M  V30 31 1 7 29
M  V30 32 1 9 30
M  V30 33 1 9 31
M  V30 34 1 12 32
M  V30 35 1 16 33
M  V30 36 1 17 34
M  V30 37 1 20 35
M  V30 END BOND
M  V30 END CTAB
M  END
>  <Dataset>  (341) 
ChEMBL_Kinases

>  <Ligand_Instance>  (341) 
nan

>  <PDB_ID>  (341) 
nan

>  <Standardized_SMILES>  (341) 
COc1ccccc1CC(=O)Nc1nc2ccc(Cl)cc2s1

>  <Name>  (341) 
nan

>  <Pocket>  (341) 
nan

>  <ATP_Site>  (341) 
nan

>  <Peripheral>  (341) 
nan

>  <Num_H_Atoms_ProtBoundConf>  (341) 
nan

>  <Num_Resolved_Atoms>  (341) 
nan

>  <Num_Not_Resolved_Atoms>  (341) 
nan

$$$$
CHEMBL3235548
     RDKit          3D

  0  0  0  0  0  0  0  0  0  0999 V3000
M  V30 BEGIN CTAB
M  V30 COUNTS 35 37 0 0 0
M  V30 BEGIN ATOM
M  V30 1 C -0.682771 -3.709460 0.307496 0
M  V30 2 O 0.182976 -2.863879 -0.410758 0
M  V30 3 C 1.553146 -2.836229 -0.208524 0
M  V30 4 C 2.108274 -3.655728 0.726152 0
M  V30 5 C 3.497133 -3.555157 0.858933 0
M  V30 6 C 4.281984 -2.698921 0.113435 0
M  V30 7 C 3.647940 -1.890804 -0.822226 0
M  V30 8 C 2.278947 -1.936962 -1.006452 0
M  V30 9 C 1.484586 -1.114852 -1.983375 0
M  V30 10 C 0.809288 -0.073260 -1.196927 0
M  V30 11 O 1.509945 0.801004 -0.615145 0
M  V30 12 N -0.594505 -0.026481 -1.073621 0
M  V30 13 C -1.182349 1.056109 -0.268507 0
M  V30 14 N -1.645321 2.088725 -0.042523 0
M  V30 15 C -2.050349 2.563473 1.126704 0
M  V30 16 C -2.602904 3.819930 1.342779 0
M  V30 17 C -2.967448 4.147600 2.630781 0
M  V30 18 C -2.839616 3.345581 3.746973 0
M  V30 19 Br -3.350782 3.826715 5.515866 0
M  V30 20 C -2.284015 2.075056 3.542437 0
M  V30 21 C -1.921110 1.761442 2.234479 0
M  V30 22 S -1.191731 0.296912 1.501857 0
M  V30 23 H -0.351584 -3.854654 1.348365 0
M  V30 24 H -1.739031 -3.314761 0.236480 0
M  V30 25 H -0.733543 -4.721519 -0.190692 0
M  V30 26 H 1.599380 -4.353577 1.351974 0
M  V30 27 H 4.022195 -4.184762 1.593258 0
M  V30 28 H 5.340234 -2.630292 0.224225 0
M  V30 29 H 4.150979 -1.180299 -1.462217 0
M  V30 30 H 2.244753 -0.677155 -2.676663 0
M  V30 31 H 0.827613 -1.722843 -2.604033 0
M  V30 32 H -1.197752 -0.736532 -1.540964 0
M  V30 33 H -2.788015 4.600751 0.592876 0
M  V30 34 H -3.404390 5.140299 2.833587 0
M  V30 35 H -2.117996 1.343074 4.303262 0
M  V30 END ATOM
M  V30 BEGIN BOND
M  V30 1 1 1 2
M  V30 2 1 2 3
M  V30 3 2 3 4
M  V30 4 1 4 5
M  V30 5 2 5 6
M  V30 6 1 6 7
M  V30 7 2 7 8
M  V30 8 1 8 9
M  V30 9 1 9 10
M  V30 10 2 10 11
M  V30 11 1 10 12
M  V30 12 1 12 13
M  V30 13 2 13 14
M  V30 14 1 14 15
M  V30 15 2 15 16
M  V30 16 1 16 17
M  V30 17 2 17 18
M  V30 18 1 18 19
M  V30 19 1 18 20
M  V30 20 2 20 21
M  V30 21 1 21 22
M  V30 22 1 8 3
M  V30 23 1 22 13
M  V30 24 1 21 15
M  V30 25 1 1 23
M  V30 26 1 1 24
M  V30 27 1 1 25
M  V30 28 1 4 26
M  V30 29 1 5 27
M  V30 30 1 6 28
M  V30 31 1 7 29
M  V30 32 1 9 30
M  V30 33 1 9 31
M  V30 34 1 12 32
M  V30 35 1 16 33
M  V30 36 1 17 34
M  V30 37 1 20 35
M  V30 END BOND
M  V30 END CTAB
M  END
>  <Dataset>  (342) 
ChEMBL_Kinases

>  <Ligand_Instance>  (342) 
nan

>  <PDB_ID>  (342) 
nan

>  <Standardized_SMILES>  (342) 
COc1ccccc1CC(=O)Nc1nc2ccc(Br)cc2s1

>  <Name>  (342) 
nan

>  <Pocket>  (342) 
nan

>  <ATP_Site>  (342) 
nan

>  <Peripheral>  (342) 
nan

>  <Num_H_Atoms_ProtBoundConf>  (342) 
nan

>  <Num_Resolved_Atoms>  (342) 
nan

>  <Num_Not_Resolved_Atoms>  (342) 
nan

$$$$
CHEMBL3235547
     RDKit          3D

  0  0  0  0  0  0  0  0  0  0999 V3000
M  V30 BEGIN CTAB
M  V30 COUNTS 38 40 0 0 0
M  V30 BEGIN ATOM
M  V30 1 C 0.095113 -3.745445 6.365022 0
M  V30 2 C 0.884105 -2.603328 6.946574 0
M  V30 3 O 0.598742 -1.374576 6.313224 0
M  V30 4 C 0.802463 -1.129674 4.968967 0
M  V30 5 C 1.300816 -1.972490 4.003521 0
M  V30 6 C 1.468527 -1.630028 2.663807 0
M  V30 7 C 1.115771 -0.360255 2.257913 0
M  V30 8 N 1.190641 0.163092 1.047100 0
M  V30 9 C 0.882576 1.250141 0.713396 0
M  V30 10 N 0.934576 1.927212 -0.595910 0
M  V30 11 C -0.225801 1.754195 -1.412057 0
M  V30 12 O -1.174619 1.040293 -0.934890 0
M  V30 13 C -0.583676 2.245406 -2.759377 0
M  V30 14 C -0.725738 1.047314 -3.661312 0
M  V30 15 C -1.841913 0.256150 -3.804415 0
M  V30 16 C -1.773463 -0.806330 -4.685500 0
M  V30 17 C -0.594531 -1.037144 -5.389493 0
M  V30 18 Cl -0.501716 -2.402494 -6.516243 0
M  V30 19 C 0.526955 -0.252297 -5.254692 0
M  V30 20 C 0.438154 0.802377 -4.370244 0
M  V30 21 S 0.274807 2.040662 2.280325 0
M  V30 22 C 0.608718 0.473493 3.279774 0
M  V30 23 C 0.433888 0.149351 4.622026 0
M  V30 24 H -0.552340 -3.401938 5.504495 0
M  V30 25 H -0.548137 -4.262747 7.133805 0
M  V30 26 H 0.736219 -4.559279 5.967362 0
M  V30 27 H 1.974660 -2.758200 6.823657 0
M  V30 28 H 0.691420 -2.510294 8.047798 0
M  V30 29 H 1.566730 -2.971493 4.382218 0
M  V30 30 H 1.872272 -2.393942 2.015902 0
M  V30 31 H 1.629550 2.521709 -1.075758 0
M  V30 32 H -1.612222 2.708583 -2.708884 0
M  V30 33 H 0.095194 2.997631 -3.151039 0
M  V30 34 H -2.693246 0.525357 -3.216379 0
M  V30 35 H -2.658216 -1.444229 -4.800515 0
M  V30 36 H 1.442565 -0.454912 -5.822177 0
M  V30 37 H 1.360115 1.402247 -4.296386 0
M  V30 38 H 0.035763 0.944749 5.200565 0
M  V30 END ATOM
M  V30 BEGIN BOND
M  V30 1 1 1 2
M  V30 2 1 2 3
M  V30 3 1 3 4
M  V30 4 2 4 5
M  V30 5 1 5 6
M  V30 6 2 6 7
M  V30 7 1 7 8
M  V30 8 2 8 9
M  V30 9 1 9 10
M  V30 10 1 10 11
M  V30 11 2 11 12
M  V30 12 1 11 13
M  V30 13 1 13 14
M  V30 14 2 14 15
M  V30 15 1 15 16
M  V30 16 2 16 17
M  V30 17 1 17 18
M  V30 18 1 17 19
M  V30 19 2 19 20
M  V30 20 1 9 21
M  V30 21 1 21 22
M  V30 22 2 22 23
M  V30 23 1 23 4
M  V30 24 1 22 7
M  V30 25 1 20 14
M  V30 26 1 1 24
M  V30 27 1 1 25
M  V30 28 1 1 26
M  V30 29 1 2 27
M  V30 30 1 2 28
M  V30 31 1 5 29
M  V30 32 1 6 30
M  V30 33 1 10 31
M  V30 34 1 13 32
M  V30 35 1 13 33
M  V30 36 1 15 34
M  V30 37 1 16 35
M  V30 38 1 19 36
M  V30 39 1 20 37
M  V30 40 1 23 38
M  V30 END BOND
M  V30 END CTAB
M  END
>  <Dataset>  (343) 
ChEMBL_Kinases

>  <Ligand_Instance>  (343) 
nan

>  <PDB_ID>  (343) 
nan

>  <Standardized_SMILES>  (343) 
CCOc1ccc2nc(NC(=O)Cc3ccc(Cl)cc3)sc2c1

>  <Name>  (343) 
nan

>  <Pocket>  (343) 
nan

>  <ATP_Site>  (343) 
nan

>  <Peripheral>  (343) 
nan

>  <Num_H_Atoms_ProtBoundConf>  (343) 
nan

>  <Num_Resolved_Atoms>  (343) 
nan

>  <Num_Not_Resolved_Atoms>  (343) 
nan

$$$$
CHEMBL3235546
     RDKit          3D

  0  0  0  0  0  0  0  0  0  0999 V3000
M  V30 BEGIN CTAB
M  V30 COUNTS 35 37 0 0 0
M  V30 BEGIN ATOM
M  V30 1 C 1.083383 -6.799740 3.774907 0
M  V30 2 O 1.154903 -5.436672 4.057844 0
M  V30 3 C 1.300333 -4.436638 3.130947 0
M  V30 4 C 1.401475 -4.611562 1.748412 0
M  V30 5 C 1.545764 -3.624503 0.824479 0
M  V30 6 C 1.602507 -2.294091 1.259922 0
M  V30 7 N 1.737916 -1.213866 0.523356 0
M  V30 8 C 1.787473 -0.094709 0.867467 0
M  V30 9 N 1.931013 1.115747 0.141884 0
M  V30 10 C 0.669776 1.648244 -0.230145 0
M  V30 11 O -0.528465 1.302190 -0.068861 0
M  V30 12 C 0.572502 2.932085 -1.009703 0
M  V30 13 C -0.868773 3.220431 -1.241417 0
M  V30 14 C -1.695174 3.953744 -0.415881 0
M  V30 15 C -2.999167 4.113028 -0.796936 0
M  V30 16 C -3.539413 3.586417 -1.954742 0
M  V30 17 Cl -5.213587 3.818313 -2.397752 0
M  V30 18 C -2.724161 2.855498 -2.781794 0
M  V30 19 C -1.405436 2.685741 -2.411069 0
M  V30 20 S 1.615752 -0.321407 2.770796 0
M  V30 21 C 1.504707 -2.091728 2.624945 0
M  V30 22 C 1.354415 -3.140078 3.570192 0
M  V30 23 H 0.245546 -7.069257 3.081426 0
M  V30 24 H 2.041585 -7.088436 3.285659 0
M  V30 25 H 0.969703 -7.366652 4.709561 0
M  V30 26 H 1.355754 -5.645840 1.429537 0
M  V30 27 H 1.610212 -3.930281 -0.221206 0
M  V30 28 H 2.763654 1.669022 -0.159174 0
M  V30 29 H 1.154836 2.914554 -1.930626 0
M  V30 30 H 0.954808 3.723180 -0.314732 0
M  V30 31 H -1.239478 4.344955 0.471326 0
M  V30 32 H -3.616643 4.693859 -0.124570 0
M  V30 33 H -3.127940 2.432764 -3.696312 0
M  V30 34 H -0.797647 2.102064 -3.093058 0
M  V30 35 H 1.292030 -2.817832 4.604610 0
M  V30 END ATOM
M  V30 BEGIN BOND
M  V30 1 1 1 2
M  V30 2 1 2 3
M  V30 3 2 3 4
M  V30 4 1 4 5
M  V30 5 2 5 6
M  V30 6 1 6 7
M  V30 7 2 7 8
M  V30 8 1 8 9
M  V30 9 1 9 10
M  V30 10 2 10 11
M  V30 11 1 10 12
M  V30 12 1 12 13
M  V30 13 2 13 14
M  V30 14 1 14 15
M  V30 15 2 15 16
M  V30 16 1 16 17
M  V30 17 1 16 18
M  V30 18 2 18 19
M  V30 19 1 8 20
M  V30 20 1 20 21
M  V30 21 2 21 22
M  V30 22 1 22 3
M  V30 23 1 21 6
M  V30 24 1 19 13
M  V30 25 1 1 23
M  V30 26 1 1 24
M  V30 27 1 1 25
M  V30 28 1 4 26
M  V30 29 1 5 27
M  V30 30 1 9 28
M  V30 31 1 12 29
M  V30 32 1 12 30
M  V30 33 1 14 31
M  V30 34 1 15 32
M  V30 35 1 18 33
M  V30 36 1 19 34
M  V30 37 1 22 35
M  V30 END BOND
M  V30 END CTAB
M  END
>  <Dataset>  (344) 
ChEMBL_Kinases

>  <Ligand_Instance>  (344) 
nan

>  <PDB_ID>  (344) 
nan

>  <Standardized_SMILES>  (344) 
COc1ccc2nc(NC(=O)Cc3ccc(Cl)cc3)sc2c1

>  <Name>  (344) 
nan

>  <Pocket>  (344) 
nan

>  <ATP_Site>  (344) 
nan

>  <Peripheral>  (344) 
nan

>  <Num_H_Atoms_ProtBoundConf>  (344) 
nan

>  <Num_Resolved_Atoms>  (344) 
nan

>  <Num_Not_Resolved_Atoms>  (344) 
nan

$$$$
CHEMBL3235545
     RDKit          3D

  0  0  0  0  0  0  0  0  0  0999 V3000
M  V30 BEGIN CTAB
M  V30 COUNTS 34 36 0 0 0
M  V30 BEGIN ATOM
M  V30 1 O 0.997598 -1.305177 0.903726 0
M  V30 2 C 1.661668 -1.039432 -0.132423 0
M  V30 3 C 2.824566 -1.861109 -0.524037 0
M  V30 4 C 3.092207 -2.967887 0.400315 0
M  V30 5 C 2.550749 -4.230618 0.279171 0
M  V30 6 C 2.849047 -5.219645 1.187288 0
M  V30 7 C 3.691936 -5.032203 2.263981 0
M  V30 8 Cl 4.114762 -6.226791 3.447664 0
M  V30 9 C 4.237052 -3.749109 2.380035 0
M  V30 10 C 3.940650 -2.745102 1.467069 0
M  V30 11 N 1.345603 0.056288 -0.990441 0
M  V30 12 C 0.161093 0.800287 -0.488791 0
M  V30 13 N -0.921710 0.601655 -0.746471 0
M  V30 14 C -2.042906 1.189940 -0.366132 0
M  V30 15 C -3.360605 0.936480 -0.689279 0
M  V30 16 C -4.366112 1.693982 -0.160778 0
M  V30 17 C -4.181389 2.747742 0.714481 0
M  V30 18 C -5.231681 3.603151 1.318828 0
M  V30 19 F -4.781545 4.889545 1.513278 0
M  V30 20 F -6.380582 3.545622 0.559021 0
M  V30 21 F -5.551662 3.064520 2.560738 0
M  V30 22 C -2.875127 3.025880 1.056730 0
M  V30 23 C -1.872802 2.232394 0.498618 0
M  V30 24 S -0.049444 2.292375 0.708787 0
M  V30 25 H 2.569838 -2.326951 -1.517478 0
M  V30 26 H 3.741654 -1.294103 -0.695165 0
M  V30 27 H 1.882608 -4.426079 -0.550890 0
M  V30 28 H 2.428330 -6.231116 1.108303 0
M  V30 29 H 4.909715 -3.557388 3.218242 0
M  V30 30 H 4.412614 -1.789890 1.645306 0
M  V30 31 H 1.827141 0.344317 -1.847177 0
M  V30 32 H -3.684935 0.149186 -1.359689 0
M  V30 33 H -5.424325 1.502871 -0.410149 0
M  V30 34 H -2.515611 3.782879 1.705560 0
M  V30 END ATOM
M  V30 BEGIN BOND
M  V30 1 2 1 2
M  V30 2 1 2 3
M  V30 3 1 3 4
M  V30 4 2 4 5
M  V30 5 1 5 6
M  V30 6 2 6 7
M  V30 7 1 7 8
M  V30 8 1 7 9
M  V30 9 2 9 10
M  V30 10 1 2 11
M  V30 11 1 11 12
M  V30 12 2 12 13
M  V30 13 1 13 14
M  V30 14 2 14 15
M  V30 15 1 15 16
M  V30 16 2 16 17
M  V30 17 1 17 18
M  V30 18 1 18 19
M  V30 19 1 18 20
M  V30 20 1 18 21
M  V30 21 1 17 22
M  V30 22 2 22 23
M  V30 23 1 23 24
M  V30 24 1 10 4
M  V30 25 1 24 12
M  V30 26 1 23 14
M  V30 27 1 3 25
M  V30 28 1 3 26
M  V30 29 1 5 27
M  V30 30 1 6 28
M  V30 31 1 9 29
M  V30 32 1 10 30
M  V30 33 1 11 31
M  V30 34 1 15 32
M  V30 35 1 16 33
M  V30 36 1 22 34
M  V30 END BOND
M  V30 END CTAB
M  END
>  <Dataset>  (345) 
ChEMBL_Kinases

>  <Ligand_Instance>  (345) 
nan

>  <PDB_ID>  (345) 
nan

>  <Standardized_SMILES>  (345) 
O=C(Cc1ccc(Cl)cc1)Nc1nc2ccc(C(F)(F)F)cc2s1

>  <Name>  (345) 
nan

>  <Pocket>  (345) 
nan

>  <ATP_Site>  (345) 
nan

>  <Peripheral>  (345) 
nan

>  <Num_H_Atoms_ProtBoundConf>  (345) 
nan

>  <Num_Resolved_Atoms>  (345) 
nan

>  <Num_Not_Resolved_Atoms>  (345) 
nan

$$$$
CHEMBL3235543
     RDKit          3D

  0  0  0  0  0  0  0  0  0  0999 V3000
M  V30 BEGIN CTAB
M  V30 COUNTS 35 37 0 0 0
M  V30 BEGIN ATOM
M  V30 1 C 1.550215 -6.208507 4.607517 0
M  V30 2 O 1.775264 -4.812182 4.724835 0
M  V30 3 C 1.709957 -4.037576 3.580150 0
M  V30 4 C 1.442279 -4.466167 2.282331 0
M  V30 5 C 1.397847 -3.618144 1.200823 0
M  V30 6 C 1.619394 -2.264206 1.334266 0
M  V30 7 N 1.608100 -1.340318 0.396987 0
M  V30 8 C 1.786949 -0.221904 0.484551 0
M  V30 9 N 1.778895 0.843823 -0.564938 0
M  V30 10 C 0.463624 1.360976 -0.687555 0
M  V30 11 O -0.525155 0.971446 -0.013201 0
M  V30 12 C 0.254704 2.439784 -1.688164 0
M  V30 13 C -1.162522 2.891821 -1.718477 0
M  V30 14 C -1.579221 4.089261 -1.136306 0
M  V30 15 C -2.890344 4.460907 -1.189122 0
M  V30 16 C -3.865803 3.691254 -1.809082 0
M  V30 17 C -3.473546 2.501439 -2.391936 0
M  V30 18 C -2.147535 2.121788 -2.340526 0
M  V30 19 Cl -1.687666 0.622248 -3.081625 0
M  V30 20 S 2.103757 -0.099993 2.380499 0
M  V30 21 C 1.877108 -1.860749 2.592402 0
M  V30 22 C 1.933404 -2.677806 3.719413 0
M  V30 23 H 1.562181 -6.710392 5.592177 0
M  V30 24 H 2.380748 -6.581123 3.957827 0
M  V30 25 H 0.591735 -6.445641 4.101449 0
M  V30 26 H 1.273721 -5.554290 2.235931 0
M  V30 27 H 1.171854 -4.165129 0.282185 0
M  V30 28 H 2.599277 1.139260 -1.098325 0
M  V30 29 H 0.458417 2.006666 -2.692883 0
M  V30 30 H 0.916525 3.305788 -1.499886 0
M  V30 31 H -0.846216 4.712780 -0.645836 0
M  V30 32 H -3.220229 5.377027 -0.745847 0
M  V30 33 H -4.913037 3.953181 -1.870426 0
M  V30 34 H -4.204960 1.853256 -2.896381 0
M  V30 35 H 2.154439 -2.150035 4.626465 0
M  V30 END ATOM
M  V30 BEGIN BOND
M  V30 1 1 1 2
M  V30 2 1 2 3
M  V30 3 2 3 4
M  V30 4 1 4 5
M  V30 5 2 5 6
M  V30 6 1 6 7
M  V30 7 2 7 8
M  V30 8 1 8 9
M  V30 9 1 9 10
M  V30 10 2 10 11
M  V30 11 1 10 12
M  V30 12 1 12 13
M  V30 13 2 13 14
M  V30 14 1 14 15
M  V30 15 2 15 16
M  V30 16 1 16 17
M  V30 17 2 17 18
M  V30 18 1 18 19
M  V30 19 1 8 20
M  V30 20 1 20 21
M  V30 21 2 21 22
M  V30 22 1 22 3
M  V30 23 1 21 6
M  V30 24 1 18 13
M  V30 25 1 1 23
M  V30 26 1 1 24
M  V30 27 1 1 25
M  V30 28 1 4 26
M  V30 29 1 5 27
M  V30 30 1 9 28
M  V30 31 1 12 29
M  V30 32 1 12 30
M  V30 33 1 14 31
M  V30 34 1 15 32
M  V30 35 1 16 33
M  V30 36 1 17 34
M  V30 37 1 22 35
M  V30 END BOND
M  V30 END CTAB
M  END
>  <Dataset>  (346) 
ChEMBL_Kinases

>  <Ligand_Instance>  (346) 
nan

>  <PDB_ID>  (346) 
nan

>  <Standardized_SMILES>  (346) 
COc1ccc2nc(NC(=O)Cc3ccccc3Cl)sc2c1

>  <Name>  (346) 
nan

>  <Pocket>  (346) 
nan

>  <ATP_Site>  (346) 
nan

>  <Peripheral>  (346) 
nan

>  <Num_H_Atoms_ProtBoundConf>  (346) 
nan

>  <Num_Resolved_Atoms>  (346) 
nan

>  <Num_Not_Resolved_Atoms>  (346) 
nan

$$$$
CHEMBL3235542
     RDKit          3D

  0  0  0  0  0  0  0  0  0  0999 V3000
M  V30 BEGIN CTAB
M  V30 COUNTS 34 36 0 0 0
M  V30 BEGIN ATOM
M  V30 1 O 1.152058 -1.783832 0.532529 0
M  V30 2 C 1.256856 -1.466653 -0.689124 0
M  V30 3 C 2.222039 -2.431206 -1.269839 0
M  V30 4 C 2.695399 -3.385083 -0.233302 0
M  V30 5 C 2.314761 -4.700175 -0.067648 0
M  V30 6 C 2.875698 -5.415086 0.961185 0
M  V30 7 C 3.794151 -4.890189 1.832312 0
M  V30 8 C 4.166430 -3.576181 1.656869 0
M  V30 9 C 3.630892 -2.808419 0.633712 0
M  V30 10 Cl 4.187148 -1.151782 0.518442 0
M  V30 11 N 0.650327 -0.449716 -1.451819 0
M  V30 12 C -0.268963 0.413675 -0.745663 0
M  V30 13 N -1.418927 0.336576 -0.564137 0
M  V30 14 C -2.213753 1.158605 0.091894 0
M  V30 15 C -3.582989 1.060020 0.303851 0
M  V30 16 C -4.209014 2.050636 1.028407 0
M  V30 17 C -3.604894 3.159900 1.580659 0
M  V30 18 C -4.298226 4.214502 2.357251 0
M  V30 19 F -3.507656 4.598712 3.440526 0
M  V30 20 F -4.456876 5.371478 1.584855 0
M  V30 21 F -5.511642 3.774420 2.851581 0
M  V30 22 C -2.244385 3.272065 1.378600 0
M  V30 23 C -1.604976 2.290524 0.656977 0
M  V30 24 S 0.133785 2.057299 0.170580 0
M  V30 25 H 3.092974 -1.904420 -1.706808 0
M  V30 26 H 1.773470 -3.043832 -2.067707 0
M  V30 27 H 1.588252 -5.055590 -0.785221 0
M  V30 28 H 2.557756 -6.458217 1.073117 0
M  V30 29 H 4.178529 -5.535768 2.612363 0
M  V30 30 H 4.896908 -3.162687 2.351582 0
M  V30 31 H 0.901162 -0.387248 -2.462509 0
M  V30 32 H -4.201024 0.253331 -0.062255 0
M  V30 33 H -5.293831 1.976548 1.199309 0
M  V30 34 H -1.653044 4.074309 1.747673 0
M  V30 END ATOM
M  V30 BEGIN BOND
M  V30 1 2 1 2
M  V30 2 1 2 3
M  V30 3 1 3 4
M  V30 4 2 4 5
M  V30 5 1 5 6
M  V30 6 2 6 7
M  V30 7 1 7 8
M  V30 8 2 8 9
M  V30 9 1 9 10
M  V30 10 1 2 11
M  V30 11 1 11 12
M  V30 12 2 12 13
M  V30 13 1 13 14
M  V30 14 2 14 15
M  V30 15 1 15 16
M  V30 16 2 16 17
M  V30 17 1 17 18
M  V30 18 1 18 19
M  V30 19 1 18 20
M  V30 20 1 18 21
M  V30 21 1 17 22
M  V30 22 2 22 23
M  V30 23 1 23 24
M  V30 24 1 9 4
M  V30 25 1 24 12
M  V30 26 1 23 14
M  V30 27 1 3 25
M  V30 28 1 3 26
M  V30 29 1 5 27
M  V30 30 1 6 28
M  V30 31 1 7 29
M  V30 32 1 8 30
M  V30 33 1 11 31
M  V30 34 1 15 32
M  V30 35 1 16 33
M  V30 36 1 22 34
M  V30 END BOND
M  V30 END CTAB
M  END
>  <Dataset>  (347) 
ChEMBL_Kinases

>  <Ligand_Instance>  (347) 
nan

>  <PDB_ID>  (347) 
nan

>  <Standardized_SMILES>  (347) 
O=C(Cc1ccccc1Cl)Nc1nc2ccc(C(F)(F)F)cc2s1

>  <Name>  (347) 
nan

>  <Pocket>  (347) 
nan

>  <ATP_Site>  (347) 
nan

>  <Peripheral>  (347) 
nan

>  <Num_H_Atoms_ProtBoundConf>  (347) 
nan

>  <Num_Resolved_Atoms>  (347) 
nan

>  <Num_Not_Resolved_Atoms>  (347) 
nan

$$$$
CHEMBL3235541
     RDKit          3D

  0  0  0  0  0  0  0  0  0  0999 V3000
M  V30 BEGIN CTAB
M  V30 COUNTS 38 40 0 0 0
M  V30 BEGIN ATOM
M  V30 1 C -0.628318 -4.452993 6.067828 0
M  V30 2 C 0.461808 -3.577171 6.587433 0
M  V30 3 O 0.355849 -2.224178 6.266958 0
M  V30 4 C 0.331811 -1.728817 4.973142 0
M  V30 5 C 0.406552 -2.465634 3.790818 0
M  V30 6 C 0.377684 -1.916618 2.534071 0
M  V30 7 C 0.268480 -0.549467 2.378771 0
M  V30 8 N 0.222371 0.184974 1.294204 0
M  V30 9 C 0.130290 1.335716 1.175843 0
M  V30 10 N 0.066361 2.298456 0.034301 0
M  V30 11 C 0.138691 1.596728 -1.171758 0
M  V30 12 O 0.241544 0.342965 -1.237224 0
M  V30 13 C 0.083051 2.470779 -2.398789 0
M  V30 14 C 0.167487 1.618402 -3.592858 0
M  V30 15 C 1.472495 1.390815 -4.040593 0
M  V30 16 C 1.666842 0.600547 -5.159334 0
M  V30 17 C 0.648262 0.010840 -5.877188 0
M  V30 18 C -0.636860 0.256550 -5.406241 0
M  V30 19 Cl -1.987801 -0.457622 -6.263804 0
M  V30 20 C -0.847539 1.042814 -4.291428 0
M  V30 21 S 0.062203 1.902424 2.930089 0
M  V30 22 C 0.197271 0.138001 3.599270 0
M  V30 23 C 0.221300 -0.359058 4.904837 0
M  V30 24 H -1.409504 -3.876250 5.496438 0
M  V30 25 H -1.193522 -4.972440 6.876501 0
M  V30 26 H -0.232376 -5.290326 5.431969 0
M  V30 27 H 1.453518 -4.026688 6.325406 0
M  V30 28 H 0.415506 -3.632311 7.712097 0
M  V30 29 H 0.493247 -3.553966 3.933821 0
M  V30 30 H 0.445352 -2.623503 1.721651 0
M  V30 31 H -0.017213 3.291164 0.254275 0
M  V30 32 H 0.891555 3.218712 -2.358176 0
M  V30 33 H -0.930597 2.942263 -2.346275 0
M  V30 34 H 2.364819 1.793958 -3.569544 0
M  V30 35 H 2.677658 0.419173 -5.513217 0
M  V30 36 H 0.794091 -0.601832 -6.744031 0
M  V30 37 H -1.848361 1.242376 -3.913253 0
M  V30 38 H 0.150713 0.390083 5.676168 0
M  V30 END ATOM
M  V30 BEGIN BOND
M  V30 1 1 1 2
M  V30 2 1 2 3
M  V30 3 1 3 4
M  V30 4 2 4 5
M  V30 5 1 5 6
M  V30 6 2 6 7
M  V30 7 1 7 8
M  V30 8 2 8 9
M  V30 9 1 9 10
M  V30 10 1 10 11
M  V30 11 2 11 12
M  V30 12 1 11 13
M  V30 13 1 13 14
M  V30 14 2 14 15
M  V30 15 1 15 16
M  V30 16 2 16 17
M  V30 17 1 17 18
M  V30 18 1 18 19
M  V30 19 2 18 20
M  V30 20 1 9 21
M  V30 21 1 21 22
M  V30 22 2 22 23
M  V30 23 1 23 4
M  V30 24 1 22 7
M  V30 25 1 20 14
M  V30 26 1 1 24
M  V30 27 1 1 25
M  V30 28 1 1 26
M  V30 29 1 2 27
M  V30 30 1 2 28
M  V30 31 1 5 29
M  V30 32 1 6 30
M  V30 33 1 10 31
M  V30 34 1 13 32
M  V30 35 1 13 33
M  V30 36 1 15 34
M  V30 37 1 16 35
M  V30 38 1 17 36
M  V30 39 1 20 37
M  V30 40 1 23 38
M  V30 END BOND
M  V30 END CTAB
M  END
>  <Dataset>  (348) 
ChEMBL_Kinases

>  <Ligand_Instance>  (348) 
nan

>  <PDB_ID>  (348) 
nan

>  <Standardized_SMILES>  (348) 
CCOc1ccc2nc(NC(=O)Cc3cccc(Cl)c3)sc2c1

>  <Name>  (348) 
nan

>  <Pocket>  (348) 
nan

>  <ATP_Site>  (348) 
nan

>  <Peripheral>  (348) 
nan

>  <Num_H_Atoms_ProtBoundConf>  (348) 
nan

>  <Num_Resolved_Atoms>  (348) 
nan

>  <Num_Not_Resolved_Atoms>  (348) 
nan

$$$$
CHEMBL3235540
     RDKit          3D

  0  0  0  0  0  0  0  0  0  0999 V3000
M  V30 BEGIN CTAB
M  V30 COUNTS 35 37 0 0 0
M  V30 BEGIN ATOM
M  V30 1 O 1.252485 -1.792912 0.645167 0
M  V30 2 C 1.160527 -1.919906 1.895765 0
M  V30 3 C 1.873720 -3.171072 2.261646 0
M  V30 4 C 2.427024 -3.806372 1.035943 0
M  V30 5 C 3.710501 -3.469644 0.613753 0
M  V30 6 C 4.283824 -4.018565 -0.510047 0
M  V30 7 C 3.567950 -4.941128 -1.257132 0
M  V30 8 C 2.290790 -5.288756 -0.853812 0
M  V30 9 Cl 1.318133 -6.445011 -1.738853 0
M  V30 10 C 1.713590 -4.737835 0.275297 0
M  V30 11 N 0.537216 -1.112705 2.864619 0
M  V30 12 C -0.112326 0.075229 2.313393 0
M  V30 13 N -1.195473 0.205117 1.935581 0
M  V30 14 C -1.794279 1.267617 1.436957 0
M  V30 15 C -3.105949 1.383272 0.991609 0
M  V30 16 C -3.555772 2.573808 0.502278 0
M  V30 17 C -2.790417 3.733979 0.403076 0
M  V30 18 O -3.211294 4.958215 -0.087030 0
M  V30 19 C -3.059888 5.233704 -1.486947 0
M  V30 20 F -3.801446 4.257462 -2.125534 0
M  V30 21 F -1.732016 5.135908 -1.876517 0
M  V30 22 F -3.483008 6.486370 -1.804469 0
M  V30 23 C -1.487091 3.627779 0.843041 0
M  V30 24 C -1.039852 2.405275 1.340912 0
M  V30 25 S 0.543655 1.858415 1.997660 0
M  V30 26 H 2.740235 -2.969935 2.942159 0
M  V30 27 H 1.173845 -3.849049 2.797054 0
M  V30 28 H 4.323752 -2.750067 1.159150 0
M  V30 29 H 5.270698 -3.767487 -0.845149 0
M  V30 30 H 3.961669 -5.413668 -2.156696 0
M  V30 31 H 0.734837 -4.936570 0.674875 0
M  V30 32 H 0.556554 -1.364641 3.855844 0
M  V30 33 H -3.846364 0.584592 0.992908 0
M  V30 34 H -4.578511 2.702732 0.143698 0
M  V30 35 H -0.753155 4.394394 0.849090 0
M  V30 END ATOM
M  V30 BEGIN BOND
M  V30 1 2 1 2
M  V30 2 1 2 3
M  V30 3 1 3 4
M  V30 4 2 4 5
M  V30 5 1 5 6
M  V30 6 2 6 7
M  V30 7 1 7 8
M  V30 8 1 8 9
M  V30 9 2 8 10
M  V30 10 1 2 11
M  V30 11 1 11 12
M  V30 12 2 12 13
M  V30 13 1 13 14
M  V30 14 2 14 15
M  V30 15 1 15 16
M  V30 16 2 16 17
M  V30 17 1 17 18
M  V30 18 1 18 19
M  V30 19 1 19 20
M  V30 20 1 19 21
M  V30 21 1 19 22
M  V30 22 1 17 23
M  V30 23 2 23 24
M  V30 24 1 24 25
M  V30 25 1 10 4
M  V30 26 1 25 12
M  V30 27 1 24 14
M  V30 28 1 3 26
M  V30 29 1 3 27
M  V30 30 1 5 28
M  V30 31 1 6 29
M  V30 32 1 7 30
M  V30 33 1 10 31
M  V30 34 1 11 32
M  V30 35 1 15 33
M  V30 36 1 16 34
M  V30 37 1 23 35
M  V30 END BOND
M  V30 END CTAB
M  END
>  <Dataset>  (349) 
ChEMBL_Kinases

>  <Ligand_Instance>  (349) 
nan

>  <PDB_ID>  (349) 
nan

>  <Standardized_SMILES>  (349) 
O=C(Cc1cccc(Cl)c1)Nc1nc2ccc(OC(F)(F)F)cc2s1

>  <Name>  (349) 
nan

>  <Pocket>  (349) 
nan

>  <ATP_Site>  (349) 
nan

>  <Peripheral>  (349) 
nan

>  <Num_H_Atoms_ProtBoundConf>  (349) 
nan

>  <Num_Resolved_Atoms>  (349) 
nan

>  <Num_Not_Resolved_Atoms>  (349) 
nan

$$$$
CHEMBL3264263
     RDKit          3D

  0  0  0  0  0  0  0  0  0  0999 V3000
M  V30 BEGIN CTAB
M  V30 COUNTS 54 56 0 0 0
M  V30 BEGIN ATOM
M  V30 1 C 4.036976 -4.520183 2.118474 0
M  V30 2 N 3.871138 -3.489552 3.140575 0
M  V30 3 C 3.663879 -3.950431 4.518297 0
M  V30 4 C 3.889229 -2.087125 2.942842 0
M  V30 5 C 4.634136 -1.057945 3.289161 0
M  V30 6 C 4.476281 0.316031 2.976945 0
M  V30 7 O 5.533492 0.625058 3.649023 0
M  V30 8 C 3.865582 1.464742 2.391312 0
M  V30 9 C 4.297858 2.762755 2.528321 0
M  V30 10 N 3.462059 3.523991 1.852429 0
M  V30 11 C 2.498700 2.797572 1.274600 0
M  V30 12 C 1.423214 3.202777 0.474879 0
M  V30 13 C 0.550745 2.252882 -0.014706 0
M  V30 14 C 0.756659 0.906990 0.295895 0
M  V30 15 C -0.175638 -0.078251 -0.234419 0
M  V30 16 C -0.026689 -1.419455 0.019735 0
M  V30 17 N -0.873459 -2.340722 -0.469447 0
M  V30 18 C -1.911899 -1.962411 -1.238311 0
M  V30 19 C -2.092300 -0.629424 -1.512622 0
M  V30 20 N -3.063401 0.127608 -2.275564 0
M  V30 21 C -4.236290 0.571153 -1.616116 0
M  V30 22 C -5.276657 -0.426122 -1.260301 0
M  V30 23 N -5.916497 -1.109761 -2.326905 0
M  V30 24 C -5.115595 -2.034684 -3.058514 0
M  V30 25 C -7.173214 -1.727758 -1.967632 0
M  V30 26 N -1.213010 0.288345 -1.000423 0
M  V30 27 C 1.833868 0.608580 1.083689 0
M  V30 28 C 2.741384 1.486628 1.607380 0
M  V30 29 H 2.986152 -4.895562 1.935429 0
M  V30 30 H 4.580203 -5.403688 2.510539 0
M  V30 31 H 4.486599 -4.128716 1.203686 0
M  V30 32 H 3.240765 -4.971597 4.500380 0
M  V30 33 H 4.605239 -3.921951 5.100889 0
M  V30 34 H 2.900815 -3.313304 5.017754 0
M  V30 35 H 3.001387 -2.041039 2.343445 0
M  V30 36 H 5.345581 -1.619868 3.850510 0
M  V30 37 H 5.157813 3.140114 3.078494 0
M  V30 38 H 3.564611 4.557250 1.794005 0
M  V30 39 H 1.320535 4.257060 0.272100 0
M  V30 40 H -0.284937 2.550034 -0.632929 0
M  V30 41 H 0.751945 -1.824629 0.610062 0
M  V30 42 H -2.671170 -2.559088 -1.704788 0
M  V30 43 H -2.635700 0.189161 -3.247951 0
M  V30 44 H -4.698050 1.380165 -2.265743 0
M  V30 45 H -3.900886 1.158644 -0.709007 0
M  V30 46 H -6.069876 0.129399 -0.665800 0
M  V30 47 H -4.904437 -1.192485 -0.537240 0
M  V30 48 H -4.124542 -1.655678 -3.365131 0
M  V30 49 H -4.904712 -2.955357 -2.433961 0
M  V30 50 H -5.685413 -2.420032 -3.943837 0
M  V30 51 H -7.033564 -2.675213 -1.451389 0
M  V30 52 H -7.728496 -1.969511 -2.920243 0
M  V30 53 H -7.856252 -1.032669 -1.433184 0
M  V30 54 H 1.986797 -0.406183 1.314013 0
M  V30 END ATOM
M  V30 BEGIN BOND
M  V30 1 1 1 2
M  V30 2 1 2 3
M  V30 3 1 2 4
M  V30 4 2 4 5
M  V30 5 1 5 6
M  V30 6 2 6 7
M  V30 7 1 6 8
M  V30 8 2 8 9
M  V30 9 1 9 10
M  V30 10 1 10 11
M  V30 11 2 11 12
M  V30 12 1 12 13
M  V30 13 2 13 14
M  V30 14 1 14 15
M  V30 15 2 15 16
M  V30 16 1 16 17
M  V30 17 2 17 18
M  V30 18 1 18 19
M  V30 19 1 19 20
M  V30 20 1 20 21
M  V30 21 1 21 22
M  V30 22 1 22 23
M  V30 23 1 23 24
M  V30 24 1 23 25
M  V30 25 2 19 26
M  V30 26 1 14 27
M  V30 27 2 27 28
M  V30 28 1 28 8
M  V30 29 1 28 11
M  V30 30 1 26 15
M  V30 31 1 1 29
M  V30 32 1 1 30
M  V30 33 1 1 31
M  V30 34 1 3 32
M  V30 35 1 3 33
M  V30 36 1 3 34
M  V30 37 1 4 35
M  V30 38 1 5 36
M  V30 39 1 9 37
M  V30 40 1 10 38
M  V30 41 1 12 39
M  V30 42 1 13 40
M  V30 43 1 16 41
M  V30 44 1 18 42
M  V30 45 1 20 43
M  V30 46 1 21 44
M  V30 47 1 21 45
M  V30 48 1 22 46
M  V30 49 1 22 47
M  V30 50 1 24 48
M  V30 51 1 24 49
M  V30 52 1 24 50
M  V30 53 1 25 51
M  V30 54 1 25 52
M  V30 55 1 25 53
M  V30 56 1 27 54
M  V30 END BOND
M  V30 END CTAB
M  END
>  <Dataset>  (350) 
ChEMBL_Kinases

>  <Ligand_Instance>  (350) 
nan

>  <PDB_ID>  (350) 
nan

>  <Standardized_SMILES>  (350) 
CN(C)/C=C/C(=O)c1c[nH]c2ccc(-c3cncc(NCCN(C)C)n3)cc12

>  <Name>  (350) 
nan

>  <Pocket>  (350) 
nan

>  <ATP_Site>  (350) 
nan

>  <Peripheral>  (350) 
nan

>  <Num_H_Atoms_ProtBoundConf>  (350) 
nan

>  <Num_Resolved_Atoms>  (350) 
nan

>  <Num_Not_Resolved_Atoms>  (350) 
nan

$$$$
CHEMBL3235182
     RDKit          3D

  0  0  0  0  0  0  0  0  0  0999 V3000
M  V30 BEGIN CTAB
M  V30 COUNTS 38 40 0 0 0
M  V30 BEGIN ATOM
M  V30 1 O -0.334718 -1.560773 -0.978733 0
M  V30 2 C 0.227050 -0.972998 -1.956977 0
M  V30 3 C 1.419748 -1.607147 -2.611636 0
M  V30 4 C 1.764768 -2.890050 -1.970562 0
M  V30 5 C 1.207194 -4.087599 -2.422307 0
M  V30 6 C 1.560887 -5.273798 -1.787928 0
M  V30 7 C 2.444402 -5.318144 -0.724999 0
M  V30 8 C 2.980519 -4.131116 -0.297014 0
M  V30 9 C 2.643405 -2.928699 -0.914481 0
M  V30 10 N -0.217370 0.274053 -2.476900 0
M  V30 11 C -1.371425 0.820513 -1.792717 0
M  V30 12 C -1.084582 1.053308 -0.345145 0
M  V30 13 O 0.037886 0.787647 0.156483 0
M  V30 14 N -2.130264 1.589074 0.452424 0
M  V30 15 C -1.676328 1.748247 1.825457 0
M  V30 16 N -0.717248 1.576679 2.497792 0
M  V30 17 C -0.595440 1.828626 3.784559 0
M  V30 18 C 0.519294 1.631031 4.574163 0
M  V30 19 C 0.465439 1.953675 5.910187 0
M  V30 20 C -0.631199 2.474202 6.564772 0
M  V30 21 C -1.749343 2.675036 5.784334 0
M  V30 22 C -1.691790 2.346118 4.426298 0
M  V30 23 S -2.872818 2.436930 3.069636 0
M  V30 24 H 2.295227 -0.925796 -2.620202 0
M  V30 25 H 1.213956 -1.850620 -3.690303 0
M  V30 26 H 0.512701 -4.098513 -3.249609 0
M  V30 27 H 1.107661 -6.160594 -2.170614 0
M  V30 28 H 2.663925 -6.295309 -0.288190 0
M  V30 29 H 3.666614 -4.194173 0.533492 0
M  V30 30 H 3.092098 -2.001003 -0.544506 0
M  V30 31 H 0.275157 0.727218 -3.287610 0
M  V30 32 H -2.226791 0.091719 -1.796135 0
M  V30 33 H -1.660777 1.772911 -2.256149 0
M  V30 34 H -3.073858 1.840046 0.151669 0
M  V30 35 H 1.465378 1.233683 4.236415 0
M  V30 36 H 1.339995 1.805713 6.560663 0
M  V30 37 H -0.706497 2.736734 7.605034 0
M  V30 38 H -2.688135 3.072037 6.131520 0
M  V30 END ATOM
M  V30 BEGIN BOND
M  V30 1 2 1 2
M  V30 2 1 2 3
M  V30 3 1 3 4
M  V30 4 2 4 5
M  V30 5 1 5 6
M  V30 6 2 6 7
M  V30 7 1 7 8
M  V30 8 2 8 9
M  V30 9 1 2 10
M  V30 10 1 10 11
M  V30 11 1 11 12
M  V30 12 2 12 13
M  V30 13 1 12 14
M  V30 14 1 14 15
M  V30 15 2 15 16
M  V30 16 1 16 17
M  V30 17 2 17 18
M  V30 18 1 18 19
M  V30 19 2 19 20
M  V30 20 1 20 21
M  V30 21 2 21 22
M  V30 22 1 22 23
M  V30 23 1 9 4
M  V30 24 1 23 15
M  V30 25 1 22 17
M  V30 26 1 3 24
M  V30 27 1 3 25
M  V30 28 1 5 26
M  V30 29 1 6 27
M  V30 30 1 7 28
M  V30 31 1 8 29
M  V30 32 1 9 30
M  V30 33 1 10 31
M  V30 34 1 11 32
M  V30 35 1 11 33
M  V30 36 1 14 34
M  V30 37 1 18 35
M  V30 38 1 19 36
M  V30 39 1 20 37
M  V30 40 1 21 38
M  V30 END BOND
M  V30 END CTAB
M  END
>  <Dataset>  (351) 
ChEMBL_Kinases

>  <Ligand_Instance>  (351) 
nan

>  <PDB_ID>  (351) 
nan

>  <Standardized_SMILES>  (351) 
O=C(Cc1ccccc1)NCC(=O)Nc1nc2ccccc2s1

>  <Name>  (351) 
nan

>  <Pocket>  (351) 
nan

>  <ATP_Site>  (351) 
nan

>  <Peripheral>  (351) 
nan

>  <Num_H_Atoms_ProtBoundConf>  (351) 
nan

>  <Num_Resolved_Atoms>  (351) 
nan

>  <Num_Not_Resolved_Atoms>  (351) 
nan

$$$$
CHEMBL3235183
     RDKit          3D

  0  0  0  0  0  0  0  0  0  0999 V3000
M  V30 BEGIN CTAB
M  V30 COUNTS 31 33 0 0 0
M  V30 BEGIN ATOM
M  V30 1 O -1.010058 -1.977596 2.442162 0
M  V30 2 C 0.043057 -2.057823 1.726785 0
M  V30 3 C 0.741633 -3.384075 1.832853 0
M  V30 4 C 1.671933 -3.580017 0.696852 0
M  V30 5 C 2.999836 -3.226973 0.814497 0
M  V30 6 C 3.862166 -3.414648 -0.270470 0
M  V30 7 C 3.404404 -3.950133 -1.463533 0
M  V30 8 C 2.052799 -4.287985 -1.522521 0
M  V30 9 Cl 1.433499 -4.976616 -3.033992 0
M  V30 10 C 1.169373 -4.112369 -0.459347 0
M  V30 11 N 0.455303 -0.956810 0.928881 0
M  V30 12 C -0.377705 0.260561 0.962601 0
M  V30 13 N -0.423914 1.226597 1.564312 0
M  V30 14 C -1.251162 2.248929 1.471889 0
M  V30 15 C -1.266974 3.406545 2.225561 0
M  V30 16 C -2.220220 4.369921 1.972526 0
M  V30 17 C -3.213041 4.284260 0.985710 0
M  V30 18 C -3.186655 3.122988 0.239683 0
M  V30 19 C -2.213040 2.163482 0.514172 0
M  V30 20 S -1.864255 0.564813 -0.225725 0
M  V30 21 H 1.271060 -3.400941 2.812087 0
M  V30 22 H -0.002738 -4.221988 1.878312 0
M  V30 23 H 3.387465 -2.801023 1.752640 0
M  V30 24 H 4.916942 -3.142623 -0.204469 0
M  V30 25 H 4.056874 -4.105035 -2.318570 0
M  V30 26 H 0.125538 -4.413950 -0.616605 0
M  V30 27 H 1.313175 -1.123437 0.391260 0
M  V30 28 H -0.588548 3.680773 3.043157 0
M  V30 29 H -2.278946 5.314496 2.541007 0
M  V30 30 H -3.955001 5.037369 0.789898 0
M  V30 31 H -3.898163 2.928997 -0.556149 0
M  V30 END ATOM
M  V30 BEGIN BOND
M  V30 1 2 1 2
M  V30 2 1 2 3
M  V30 3 1 3 4
M  V30 4 2 4 5
M  V30 5 1 5 6
M  V30 6 2 6 7
M  V30 7 1 7 8
M  V30 8 1 8 9
M  V30 9 2 8 10
M  V30 10 1 2 11
M  V30 11 1 11 12
M  V30 12 2 12 13
M  V30 13 1 13 14
M  V30 14 2 14 15
M  V30 15 1 15 16
M  V30 16 2 16 17
M  V30 17 1 17 18
M  V30 18 2 18 19
M  V30 19 1 19 20
M  V30 20 1 10 4
M  V30 21 1 20 12
M  V30 22 1 19 14
M  V30 23 1 3 21
M  V30 24 1 3 22
M  V30 25 1 5 23
M  V30 26 1 6 24
M  V30 27 1 7 25
M  V30 28 1 10 26
M  V30 29 1 11 27
M  V30 30 1 15 28
M  V30 31 1 16 29
M  V30 32 1 17 30
M  V30 33 1 18 31
M  V30 END BOND
M  V30 END CTAB
M  END
>  <Dataset>  (352) 
ChEMBL_Kinases

>  <Ligand_Instance>  (352) 
nan

>  <PDB_ID>  (352) 
nan

>  <Standardized_SMILES>  (352) 
O=C(Cc1cccc(Cl)c1)Nc1nc2ccccc2s1

>  <Name>  (352) 
nan

>  <Pocket>  (352) 
nan

>  <ATP_Site>  (352) 
nan

>  <Peripheral>  (352) 
nan

>  <Num_H_Atoms_ProtBoundConf>  (352) 
nan

>  <Num_Resolved_Atoms>  (352) 
nan

>  <Num_Not_Resolved_Atoms>  (352) 
nan

$$$$
CHEMBL3235184
     RDKit          3D

  0  0  0  0  0  0  0  0  0  0999 V3000
M  V30 BEGIN CTAB
M  V30 COUNTS 44 45 0 0 0
M  V30 BEGIN ATOM
M  V30 1 C 2.925481 -7.119267 -1.325854 0
M  V30 2 C 3.335042 -6.055589 -0.336562 0
M  V30 3 O 2.594570 -4.883343 -0.720146 0
M  V30 4 C 2.727452 -3.701458 -0.017028 0
M  V30 5 O 3.464434 -3.520273 0.978960 0
M  V30 6 C 1.921612 -2.543139 -0.488091 0
M  V30 7 S 2.084867 -0.956794 0.437363 0
M  V30 8 C 0.831302 -0.135942 -0.742745 0
M  V30 9 N 0.563016 1.298408 -0.421257 0
M  V30 10 C -0.362725 1.952862 -1.273765 0
M  V30 11 O -0.837314 1.229360 -2.202396 0
M  V30 12 C -0.790000 3.343041 -1.165188 0
M  V30 13 N -0.222042 4.082863 -0.060006 0
M  V30 14 C -0.622567 3.472702 1.154965 0
M  V30 15 O -1.336289 2.471786 1.509481 0
M  V30 16 C -0.333740 3.803587 2.563272 0
M  V30 17 C -1.037291 2.794172 3.398639 0
M  V30 18 C -0.374525 1.631900 3.740027 0
M  V30 19 C -0.913478 0.619512 4.507457 0
M  V30 20 C -2.212027 0.791530 4.962465 0
M  V30 21 C -2.896390 1.962631 4.625452 0
M  V30 22 C -2.330747 2.942774 3.864001 0
M  V30 23 N 0.580459 -0.975902 -1.436594 0
M  V30 24 C 1.015001 -2.218803 -1.464294 0
M  V30 25 C 0.666668 -3.322122 -2.398616 0
M  V30 26 H 1.832160 -6.975925 -1.540568 0
M  V30 27 H 3.472824 -7.047530 -2.275173 0
M  V30 28 H 2.966105 -8.138580 -0.855506 0
M  V30 29 H 4.424952 -5.855845 -0.411389 0
M  V30 30 H 2.999076 -6.343646 0.679082 0
M  V30 31 H 1.002293 1.804181 0.344316 0
M  V30 32 H -1.909673 3.326296 -1.021041 0
M  V30 33 H -0.650413 3.899420 -2.127643 0
M  V30 34 H 0.367818 4.888013 0.243160 0
M  V30 35 H -0.740732 4.813152 2.832052 0
M  V30 36 H 0.732558 3.752519 2.842521 0
M  V30 37 H 0.650668 1.436699 3.412558 0
M  V30 38 H -0.378737 -0.281891 4.763517 0
M  V30 39 H -2.705106 0.038143 5.572280 0
M  V30 40 H -3.905224 2.114935 4.968966 0
M  V30 41 H -2.824660 3.861630 3.581547 0
M  V30 42 H 0.031702 -2.978277 -3.233975 0
M  V30 43 H 0.061341 -4.076415 -1.815721 0
M  V30 44 H 1.530160 -3.872192 -2.770934 0
M  V30 END ATOM
M  V30 BEGIN BOND
M  V30 1 1 1 2
M  V30 2 1 2 3
M  V30 3 1 3 4
M  V30 4 2 4 5
M  V30 5 1 4 6
M  V30 6 1 6 7
M  V30 7 1 7 8
M  V30 8 1 8 9
M  V30 9 1 9 10
M  V30 10 2 10 11
M  V30 11 1 10 12
M  V30 12 1 12 13
M  V30 13 1 13 14
M  V30 14 2 14 15
M  V30 15 1 14 16
M  V30 16 1 16 17
M  V30 17 2 17 18
M  V30 18 1 18 19
M  V30 19 2 19 20
M  V30 20 1 20 21
M  V30 21 2 21 22
M  V30 22 2 8 23
M  V30 23 1 23 24
M  V30 24 1 24 25
M  V30 25 2 24 6
M  V30 26 1 22 17
M  V30 27 1 1 26
M  V30 28 1 1 27
M  V30 29 1 1 28
M  V30 30 1 2 29
M  V30 31 1 2 30
M  V30 32 1 9 31
M  V30 33 1 12 32
M  V30 34 1 12 33
M  V30 35 1 13 34
M  V30 36 1 16 35
M  V30 37 1 16 36
M  V30 38 1 18 37
M  V30 39 1 19 38
M  V30 40 1 20 39
M  V30 41 1 21 40
M  V30 42 1 22 41
M  V30 43 1 25 42
M  V30 44 1 25 43
M  V30 45 1 25 44
M  V30 END BOND
M  V30 END CTAB
M  END
>  <Dataset>  (353) 
ChEMBL_Kinases

>  <Ligand_Instance>  (353) 
nan

>  <PDB_ID>  (353) 
nan

>  <Standardized_SMILES>  (353) 
CCOC(=O)c1sc(NC(=O)CNC(=O)Cc2ccccc2)nc1C

>  <Name>  (353) 
nan

>  <Pocket>  (353) 
nan

>  <ATP_Site>  (353) 
nan

>  <Peripheral>  (353) 
nan

>  <Num_H_Atoms_ProtBoundConf>  (353) 
nan

>  <Num_Resolved_Atoms>  (353) 
nan

>  <Num_Not_Resolved_Atoms>  (353) 
nan

$$$$
CHEMBL3235185
     RDKit          3D

  0  0  0  0  0  0  0  0  0  0999 V3000
M  V30 BEGIN CTAB
M  V30 COUNTS 34 36 0 0 0
M  V30 BEGIN ATOM
M  V30 1 C 0.376334 -6.595084 2.775706 0
M  V30 2 S 1.319033 -6.005136 1.388411 0
M  V30 3 O 2.649672 -6.737707 1.430704 0
M  V30 4 O 0.672656 -6.415118 0.106789 0
M  V30 5 C 1.560868 -4.277192 1.476770 0
M  V30 6 C 2.610057 -3.623583 2.085527 0
M  V30 7 C 2.758963 -2.259044 2.130078 0
M  V30 8 C 1.816426 -1.441481 1.536981 0
M  V30 9 N 1.873555 -0.128229 1.528097 0
M  V30 10 C 1.042912 0.599980 1.005168 0
M  V30 11 N 0.744818 1.952893 0.781646 0
M  V30 12 C -0.369730 2.453560 0.095467 0
M  V30 13 O -1.261715 1.694477 -0.415640 0
M  V30 14 C -0.539220 3.935647 -0.055032 0
M  V30 15 C -1.813468 4.109184 -0.826813 0
M  V30 16 C -2.020279 4.182772 -2.137710 0
M  V30 17 C -3.279879 4.344573 -2.648429 0
M  V30 18 C -4.317446 4.423815 -1.659245 0
M  V30 19 S -3.352351 4.252881 -0.042604 0
M  V30 20 S -0.152744 -0.682209 0.329102 0
M  V30 21 C 0.765025 -2.093412 0.926840 0
M  V30 22 C 0.610482 -3.476178 0.879499 0
M  V30 23 H -0.712822 -6.441963 2.629662 0
M  V30 24 H 0.728635 -6.083791 3.704495 0
M  V30 25 H 0.617397 -7.670741 2.898117 0
M  V30 26 H 3.338523 -4.300861 2.545395 0
M  V30 27 H 3.655803 -1.927764 2.657917 0
M  V30 28 H 1.480598 2.559867 1.203858 0
M  V30 29 H -0.650370 4.454977 0.909468 0
M  V30 30 H 0.255969 4.367047 -0.692299 0
M  V30 31 H -1.168124 4.112073 -2.803600 0
M  V30 32 H -3.546809 4.414695 -3.691847 0
M  V30 33 H -5.417422 4.559217 -1.951352 0
M  V30 34 H -0.276955 -3.801650 0.357116 0
M  V30 END ATOM
M  V30 BEGIN BOND
M  V30 1 1 1 2
M  V30 2 2 2 3
M  V30 3 2 2 4
M  V30 4 1 2 5
M  V30 5 2 5 6
M  V30 6 1 6 7
M  V30 7 2 7 8
M  V30 8 1 8 9
M  V30 9 2 9 10
M  V30 10 1 10 11
M  V30 11 1 11 12
M  V30 12 2 12 13
M  V30 13 1 12 14
M  V30 14 1 14 15
M  V30 15 2 15 16
M  V30 16 1 16 17
M  V30 17 2 17 18
M  V30 18 1 18 19
M  V30 19 1 10 20
M  V30 20 1 20 21
M  V30 21 2 21 22
M  V30 22 1 22 5
M  V30 23 1 21 8
M  V30 24 1 19 15
M  V30 25 1 1 23
M  V30 26 1 1 24
M  V30 27 1 1 25
M  V30 28 1 6 26
M  V30 29 1 7 27
M  V30 30 1 11 28
M  V30 31 1 14 29
M  V30 32 1 14 30
M  V30 33 1 16 31
M  V30 34 1 17 32
M  V30 35 1 18 33
M  V30 36 1 22 34
M  V30 END BOND
M  V30 END CTAB
M  END
>  <Dataset>  (354) 
ChEMBL_Kinases

>  <Ligand_Instance>  (354) 
nan

>  <PDB_ID>  (354) 
nan

>  <Standardized_SMILES>  (354) 
CS(=O)(=O)c1ccc2nc(NC(=O)Cc3cccs3)sc2c1

>  <Name>  (354) 
nan

>  <Pocket>  (354) 
nan

>  <ATP_Site>  (354) 
nan

>  <Peripheral>  (354) 
nan

>  <Num_H_Atoms_ProtBoundConf>  (354) 
nan

>  <Num_Resolved_Atoms>  (354) 
nan

>  <Num_Not_Resolved_Atoms>  (354) 
nan

$$$$
CHEMBL3235186
     RDKit          3D

  0  0  0  0  0  0  0  0  0  0999 V3000
M  V30 BEGIN CTAB
M  V30 COUNTS 48 51 0 0 0
M  V30 BEGIN ATOM
M  V30 1 O -0.850457 -1.737840 0.687933 0
M  V30 2 C -1.262656 -1.264480 -0.403969 0
M  V30 3 C -0.811986 -0.280850 -1.433019 0
M  V30 4 N 0.463091 0.240849 -0.996178 0
M  V30 5 C 0.487044 0.907098 0.252223 0
M  V30 6 O -0.662644 0.939176 0.796355 0
M  V30 7 C 1.662166 1.541032 0.953765 0
M  V30 8 C 2.255136 2.519387 0.041732 0
M  V30 9 C 3.423267 3.171413 0.385676 0
M  V30 10 C 4.042035 4.125821 -0.416375 0
M  V30 11 C 3.490777 4.474701 -1.639863 0
M  V30 12 C 2.328038 3.850438 -2.021757 0
M  V30 13 C 1.769506 2.918092 -1.182754 0
M  V30 14 C 2.579121 0.499605 1.455331 0
M  V30 15 C 3.266074 0.847411 2.630591 0
M  V30 16 C 4.164993 0.045478 3.281050 0
M  V30 17 C 4.453116 -1.197259 2.794139 0
M  V30 18 C 3.805807 -1.588753 1.642412 0
M  V30 19 C 2.913406 -0.757416 1.021504 0
M  V30 20 N -2.526207 -1.836927 -0.754800 0
M  V30 21 C -3.259027 -2.824861 0.013011 0
M  V30 22 N -4.031400 -2.724808 0.824771 0
M  V30 23 C -4.708834 -3.598145 1.534654 0
M  V30 24 C -5.659603 -3.409711 2.534055 0
M  V30 25 C -6.219647 -4.498350 3.120132 0
M  V30 26 C -5.950056 -5.838872 2.833945 0
M  V30 27 C -5.008007 -6.023090 1.843707 0
M  V30 28 C -4.411214 -4.904232 1.219085 0
M  V30 29 S -3.200061 -4.747747 -0.053145 0
M  V30 30 H -0.668288 -0.806413 -2.384175 0
M  V30 31 H -1.502241 0.559498 -1.543704 0
M  V30 32 H 1.365351 0.181090 -1.514683 0
M  V30 33 H 1.243791 2.110137 1.846275 0
M  V30 34 H 3.969754 3.018568 1.284235 0
M  V30 35 H 4.949359 4.646482 -0.172157 0
M  V30 36 H 3.938615 5.200269 -2.277026 0
M  V30 37 H 1.888283 4.113782 -2.973571 0
M  V30 38 H 0.852347 2.484124 -1.552011 0
M  V30 39 H 3.134408 1.811149 3.143760 0
M  V30 40 H 4.687169 0.325107 4.184789 0
M  V30 41 H 5.123789 -1.930556 3.184034 0
M  V30 42 H 3.963398 -2.551488 1.176658 0
M  V30 43 H 2.403521 -1.063918 0.125711 0
M  V30 44 H -3.114475 -1.653902 -1.583795 0
M  V30 45 H -5.998383 -2.428215 2.892159 0
M  V30 46 H -6.974251 -4.364978 3.913287 0
M  V30 47 H -6.393742 -6.682181 3.298294 0
M  V30 48 H -4.666158 -6.982928 1.482433 0
M  V30 END ATOM
M  V30 BEGIN BOND
M  V30 1 2 1 2
M  V30 2 1 2 3
M  V30 3 1 3 4
M  V30 4 1 4 5
M  V30 5 2 5 6
M  V30 6 1 5 7
M  V30 7 1 7 8
M  V30 8 2 8 9
M  V30 9 1 9 10
M  V30 10 2 10 11
M  V30 11 1 11 12
M  V30 12 2 12 13
M  V30 13 1 7 14
M  V30 14 2 14 15
M  V30 15 1 15 16
M  V30 16 2 16 17
M  V30 17 1 17 18
M  V30 18 2 18 19
M  V30 19 1 2 20
M  V30 20 1 20 21
M  V30 21 2 21 22
M  V30 22 1 22 23
M  V30 23 2 23 24
M  V30 24 1 24 25
M  V30 25 2 25 26
M  V30 26 1 26 27
M  V30 27 2 27 28
M  V30 28 1 28 29
M  V30 29 1 13 8
M  V30 30 1 19 14
M  V30 31 1 29 21
M  V30 32 1 28 23
M  V30 33 1 3 30
M  V30 34 1 3 31
M  V30 35 1 4 32
M  V30 36 1 7 33
M  V30 37 1 9 34
M  V30 38 1 10 35
M  V30 39 1 11 36
M  V30 40 1 12 37
M  V30 41 1 13 38
M  V30 42 1 15 39
M  V30 43 1 16 40
M  V30 44 1 17 41
M  V30 45 1 18 42
M  V30 46 1 19 43
M  V30 47 1 20 44
M  V30 48 1 24 45
M  V30 49 1 25 46
M  V30 50 1 26 47
M  V30 51 1 27 48
M  V30 END BOND
M  V30 END CTAB
M  END
>  <Dataset>  (355) 
ChEMBL_Kinases

>  <Ligand_Instance>  (355) 
nan

>  <PDB_ID>  (355) 
nan

>  <Standardized_SMILES>  (355) 
O=C(CNC(=O)C(c1ccccc1)c1ccccc1)Nc1nc2ccccc2s1

>  <Name>  (355) 
nan

>  <Pocket>  (355) 
nan

>  <ATP_Site>  (355) 
nan

>  <Peripheral>  (355) 
nan

>  <Num_H_Atoms_ProtBoundConf>  (355) 
nan

>  <Num_Resolved_Atoms>  (355) 
nan

>  <Num_Not_Resolved_Atoms>  (355) 
nan

$$$$
CHEMBL3235187
     RDKit          3D

  0  0  0  0  0  0  0  0  0  0999 V3000
M  V30 BEGIN CTAB
M  V30 COUNTS 41 42 0 0 0
M  V30 BEGIN ATOM
M  V30 1 C 2.924415 -6.683391 3.275585 0
M  V30 2 C 3.778652 -5.509447 2.889483 0
M  V30 3 O 2.918909 -4.464817 2.439456 0
M  V30 4 C 3.390243 -3.259871 2.016481 0
M  V30 5 O 4.566504 -2.910619 1.962177 0
M  V30 6 C 2.369127 -2.268840 1.576058 0
M  V30 7 S 2.885146 -0.610946 0.985374 0
M  V30 8 C 1.108507 -0.112175 0.680801 0
M  V30 9 N 0.602058 1.126630 0.181430 0
M  V30 10 C 0.437363 1.278135 -1.223472 0
M  V30 11 O 0.863009 0.109945 -1.601325 0
M  V30 12 C 0.065993 2.011270 -2.409588 0
M  V30 13 O -0.426561 3.246215 -2.399823 0
M  V30 14 C -1.670629 3.527096 -1.953573 0
M  V30 15 C -1.944600 3.186003 -0.559753 0
M  V30 16 C -1.677142 4.105062 0.462348 0
M  V30 17 C -1.992936 3.688633 1.744014 0
M  V30 18 C -2.541260 2.432444 1.985545 0
M  V30 19 C -2.793519 1.545496 0.946680 0
M  V30 20 C -2.495083 1.916739 -0.347519 0
M  V30 21 N 0.480464 -1.079984 1.004148 0
M  V30 22 C 0.986425 -2.209795 1.463009 0
M  V30 23 C 0.227147 -3.421763 1.869807 0
M  V30 24 H 3.419504 -7.643783 3.018481 0
M  V30 25 H 2.798258 -6.705052 4.385353 0
M  V30 26 H 1.914393 -6.659765 2.810265 0
M  V30 27 H 4.310820 -5.129983 3.775444 0
M  V30 28 H 4.505033 -5.822226 2.137852 0
M  V30 29 H 0.301313 2.044306 0.579784 0
M  V30 30 H -0.698902 1.347866 -2.963380 0
M  V30 31 H 0.944551 1.967638 -3.136541 0
M  V30 32 H -1.828168 4.658056 -2.012325 0
M  V30 33 H -2.473538 3.079310 -2.619837 0
M  V30 34 H -1.251545 5.062217 0.208506 0
M  V30 35 H -1.808639 4.350827 2.555727 0
M  V30 36 H -2.788806 2.104723 2.985356 0
M  V30 37 H -3.217469 0.572544 1.127083 0
M  V30 38 H -2.684595 1.244477 -1.150026 0
M  V30 39 H 0.505291 -3.768597 2.883135 0
M  V30 40 H -0.866120 -3.243338 1.885289 0
M  V30 41 H 0.409220 -4.197291 1.097576 0
M  V30 END ATOM
M  V30 BEGIN BOND
M  V30 1 1 1 2
M  V30 2 1 2 3
M  V30 3 1 3 4
M  V30 4 2 4 5
M  V30 5 1 4 6
M  V30 6 1 6 7
M  V30 7 1 7 8
M  V30 8 1 8 9
M  V30 9 1 9 10
M  V30 10 2 10 11
M  V30 11 1 10 12
M  V30 12 1 12 13
M  V30 13 1 13 14
M  V30 14 1 14 15
M  V30 15 2 15 16
M  V30 16 1 16 17
M  V30 17 2 17 18
M  V30 18 1 18 19
M  V30 19 2 19 20
M  V30 20 2 8 21
M  V30 21 1 21 22
M  V30 22 1 22 23
M  V30 23 2 22 6
M  V30 24 1 20 15
M  V30 25 1 1 24
M  V30 26 1 1 25
M  V30 27 1 1 26
M  V30 28 1 2 27
M  V30 29 1 2 28
M  V30 30 1 9 29
M  V30 31 1 12 30
M  V30 32 1 12 31
M  V30 33 1 14 32
M  V30 34 1 14 33
M  V30 35 1 16 34
M  V30 36 1 17 35
M  V30 37 1 18 36
M  V30 38 1 19 37
M  V30 39 1 20 38
M  V30 40 1 23 39
M  V30 41 1 23 40
M  V30 42 1 23 41
M  V30 END BOND
M  V30 END CTAB
M  END
>  <Dataset>  (356) 
ChEMBL_Kinases

>  <Ligand_Instance>  (356) 
nan

>  <PDB_ID>  (356) 
nan

>  <Standardized_SMILES>  (356) 
CCOC(=O)c1sc(NC(=O)COCc2ccccc2)nc1C

>  <Name>  (356) 
nan

>  <Pocket>  (356) 
nan

>  <ATP_Site>  (356) 
nan

>  <Peripheral>  (356) 
nan

>  <Num_H_Atoms_ProtBoundConf>  (356) 
nan

>  <Num_Resolved_Atoms>  (356) 
nan

>  <Num_Not_Resolved_Atoms>  (356) 
nan

$$$$
CHEMBL3235188
     RDKit          3D

  0  0  0  0  0  0  0  0  0  0999 V3000
M  V30 BEGIN CTAB
M  V30 COUNTS 33 34 0 0 0
M  V30 BEGIN ATOM
M  V30 1 C -2.141715 -2.936838 3.544614 0
M  V30 2 C -2.444892 -3.608854 2.264226 0
M  V30 3 O -3.326143 -4.465475 2.111176 0
M  V30 4 C -1.633056 -3.219048 1.112633 0
M  V30 5 S -0.307964 -1.986803 1.099951 0
M  V30 6 C 0.047620 -2.255868 -0.745861 0
M  V30 7 N 1.141299 -1.301804 -0.956298 0
M  V30 8 C 0.739102 0.011241 -1.315499 0
M  V30 9 O -0.465012 0.344291 -1.460710 0
M  V30 10 C 1.787891 1.045363 -1.529224 0
M  V30 11 C 1.698391 2.103234 -0.479672 0
M  V30 12 C 2.365149 1.608513 0.653002 0
M  V30 13 C 2.460721 2.363198 1.829793 0
M  V30 14 C 1.874125 3.625183 1.845736 0
M  V30 15 C 1.226209 4.089309 0.722002 0
M  V30 16 Cl 0.449579 5.656889 0.630415 0
M  V30 17 C 1.128883 3.351886 -0.436532 0
M  V30 18 N -0.737213 -3.087722 -1.049883 0
M  V30 19 C -1.607951 -3.626784 -0.210588 0
M  V30 20 C -2.569210 -4.682466 -0.644608 0
M  V30 21 H -1.171988 -2.436525 3.509505 0
M  V30 22 H -2.908395 -2.212323 3.847253 0
M  V30 23 H -2.124788 -3.703025 4.379715 0
M  V30 24 H 2.167777 -1.515186 -0.858067 0
M  V30 25 H 1.527744 1.576997 -2.493380 0
M  V30 26 H 2.805733 0.650953 -1.654930 0
M  V30 27 H 2.875531 0.644727 0.804058 0
M  V30 28 H 2.952552 2.052493 2.733352 0
M  V30 29 H 1.917775 4.247655 2.716230 0
M  V30 30 H 0.671519 3.561918 -1.385860 0
M  V30 31 H -2.251349 -5.651591 -0.199785 0
M  V30 32 H -2.650391 -4.808512 -1.724204 0
M  V30 33 H -3.556554 -4.417099 -0.223452 0
M  V30 END ATOM
M  V30 BEGIN BOND
M  V30 1 1 1 2
M  V30 2 2 2 3
M  V30 3 1 2 4
M  V30 4 1 4 5
M  V30 5 1 5 6
M  V30 6 1 6 7
M  V30 7 1 7 8
M  V30 8 2 8 9
M  V30 9 1 8 10
M  V30 10 1 10 11
M  V30 11 2 11 12
M  V30 12 1 12 13
M  V30 13 2 13 14
M  V30 14 1 14 15
M  V30 15 1 15 16
M  V30 16 2 15 17
M  V30 17 2 6 18
M  V30 18 1 18 19
M  V30 19 1 19 20
M  V30 20 2 19 4
M  V30 21 1 17 11
M  V30 22 1 1 21
M  V30 23 1 1 22
M  V30 24 1 1 23
M  V30 25 1 7 24
M  V30 26 1 10 25
M  V30 27 1 10 26
M  V30 28 1 12 27
M  V30 29 1 13 28
M  V30 30 1 14 29
M  V30 31 1 17 30
M  V30 32 1 20 31
M  V30 33 1 20 32
M  V30 34 1 20 33
M  V30 END BOND
M  V30 END CTAB
M  END
>  <Dataset>  (357) 
ChEMBL_Kinases

>  <Ligand_Instance>  (357) 
nan

>  <PDB_ID>  (357) 
nan

>  <Standardized_SMILES>  (357) 
CC(=O)c1sc(NC(=O)Cc2cccc(Cl)c2)nc1C

>  <Name>  (357) 
nan

>  <Pocket>  (357) 
nan

>  <ATP_Site>  (357) 
nan

>  <Peripheral>  (357) 
nan

>  <Num_H_Atoms_ProtBoundConf>  (357) 
nan

>  <Num_Resolved_Atoms>  (357) 
nan

>  <Num_Not_Resolved_Atoms>  (357) 
nan

$$$$
CHEMBL3235539
     RDKit          3D

  0  0  0  0  0  0  0  0  0  0999 V3000
M  V30 BEGIN CTAB
M  V30 COUNTS 35 37 0 0 0
M  V30 BEGIN ATOM
M  V30 1 C 1.164194 -6.558682 4.387038 0
M  V30 2 O 1.227782 -5.169419 4.653884 0
M  V30 3 C 1.323804 -4.275727 3.600834 0
M  V30 4 C 1.368354 -4.569892 2.254982 0
M  V30 5 C 1.464435 -3.639733 1.244713 0
M  V30 6 C 1.524055 -2.294406 1.546867 0
M  V30 7 N 1.616928 -1.235669 0.763448 0
M  V30 8 C 1.667223 -0.131272 0.981441 0
M  V30 9 N 1.772359 0.976741 -0.014905 0
M  V30 10 C 0.482879 1.429196 -0.416633 0
M  V30 11 O -0.557665 0.887977 0.073859 0
M  V30 12 C 0.485719 2.531772 -1.407715 0
M  V30 13 C -0.877478 2.960601 -1.787929 0
M  V30 14 C -1.438947 3.978126 -1.011323 0
M  V30 15 C -2.705508 4.449056 -1.284124 0
M  V30 16 C -3.460484 3.933700 -2.330192 0
M  V30 17 C -2.903887 2.924327 -3.100812 0
M  V30 18 Cl -3.786969 2.212268 -4.445663 0
M  V30 19 C -1.625519 2.442461 -2.832731 0
M  V30 20 S 1.576898 -0.202116 2.903112 0
M  V30 21 C 1.480211 -2.001141 2.875947 0
M  V30 22 C 1.383167 -2.932125 3.906601 0
M  V30 23 H 0.719852 -7.125244 5.227858 0
M  V30 24 H 2.178455 -6.967701 4.146902 0
M  V30 25 H 0.529245 -6.796179 3.500252 0
M  V30 26 H 1.320788 -5.644572 2.012227 0
M  V30 27 H 1.487938 -4.052168 0.223702 0
M  V30 28 H 2.702173 1.293246 -0.302947 0
M  V30 29 H 0.986020 2.164699 -2.329679 0
M  V30 30 H 1.093550 3.396696 -1.073282 0
M  V30 31 H -0.903511 4.422590 -0.181815 0
M  V30 32 H -3.143113 5.249036 -0.671154 0
M  V30 33 H -4.467226 4.304619 -2.550819 0
M  V30 34 H -1.155202 1.654677 -3.411626 0
M  V30 35 H 1.363643 -2.487197 4.878970 0
M  V30 END ATOM
M  V30 BEGIN BOND
M  V30 1 1 1 2
M  V30 2 1 2 3
M  V30 3 2 3 4
M  V30 4 1 4 5
M  V30 5 2 5 6
M  V30 6 1 6 7
M  V30 7 2 7 8
M  V30 8 1 8 9
M  V30 9 1 9 10
M  V30 10 2 10 11
M  V30 11 1 10 12
M  V30 12 1 12 13
M  V30 13 2 13 14
M  V30 14 1 14 15
M  V30 15 2 15 16
M  V30 16 1 16 17
M  V30 17 1 17 18
M  V30 18 2 17 19
M  V30 19 1 8 20
M  V30 20 1 20 21
M  V30 21 2 21 22
M  V30 22 1 22 3
M  V30 23 1 21 6
M  V30 24 1 19 13
M  V30 25 1 1 23
M  V30 26 1 1 24
M  V30 27 1 1 25
M  V30 28 1 4 26
M  V30 29 1 5 27
M  V30 30 1 9 28
M  V30 31 1 12 29
M  V30 32 1 12 30
M  V30 33 1 14 31
M  V30 34 1 15 32
M  V30 35 1 16 33
M  V30 36 1 19 34
M  V30 37 1 22 35
M  V30 END BOND
M  V30 END CTAB
M  END
>  <Dataset>  (358) 
ChEMBL_Kinases

>  <Ligand_Instance>  (358) 
nan

>  <PDB_ID>  (358) 
nan

>  <Standardized_SMILES>  (358) 
COc1ccc2nc(NC(=O)Cc3cccc(Cl)c3)sc2c1

>  <Name>  (358) 
nan

>  <Pocket>  (358) 
nan

>  <ATP_Site>  (358) 
nan

>  <Peripheral>  (358) 
nan

>  <Num_H_Atoms_ProtBoundConf>  (358) 
nan

>  <Num_Resolved_Atoms>  (358) 
nan

>  <Num_Not_Resolved_Atoms>  (358) 
nan

$$$$
CHEMBL3235198
     RDKit          3D

  0  0  0  0  0  0  0  0  0  0999 V3000
M  V30 BEGIN CTAB
M  V30 COUNTS 41 44 0 0 0
M  V30 BEGIN ATOM
M  V30 1 O 1.002167 -1.172155 2.058858 0
M  V30 2 C 0.119352 -1.008284 1.179165 0
M  V30 3 N 0.701089 -0.916378 -0.100700 0
M  V30 4 C 2.182088 -1.013539 -0.275816 0
M  V30 5 N 2.779978 -1.963251 -0.453565 0
M  V30 6 C 4.074907 -2.158662 -0.619778 0
M  V30 7 C 4.787685 -3.319554 -0.835228 0
M  V30 8 C 6.150374 -3.279160 -0.981404 0
M  V30 9 C 6.922400 -2.115929 -0.930076 0
M  V30 10 C 6.216367 -0.951969 -0.715050 0
M  V30 11 C 4.826117 -1.029513 -0.570205 0
M  V30 12 S 3.599675 0.288395 -0.279624 0
M  V30 13 C -1.351228 -0.874660 1.009788 0
M  V30 14 C -1.673380 0.456214 0.380102 0
M  V30 15 C -2.753824 0.643534 -0.420359 0
M  V30 16 C -2.981773 1.892335 -0.959936 0
M  V30 17 C -2.163864 2.976215 -0.729679 0
M  V30 18 C -1.073077 2.805275 0.072902 0
M  V30 19 C -0.830559 1.546617 0.625481 0
M  V30 20 C -2.047955 -0.871469 2.322351 0
M  V30 21 C -3.336881 -1.354637 2.427519 0
M  V30 22 C -4.056212 -1.388271 3.604880 0
M  V30 23 C -3.414927 -0.897051 4.741476 0
M  V30 24 C -2.121150 -0.395831 4.712732 0
M  V30 25 C -1.465272 -0.398909 3.479242 0
M  V30 26 H 0.359251 -0.787084 -1.054663 0
M  V30 27 H 4.350223 -4.311897 -0.903530 0
M  V30 28 H 6.735460 -4.198410 -1.154295 0
M  V30 29 H 7.983132 -2.047969 -1.039528 0
M  V30 30 H 6.607276 0.031009 -0.642743 0
M  V30 31 H -1.751848 -1.687260 0.384881 0
M  V30 32 H -3.352062 -0.235483 -0.562243 0
M  V30 33 H -3.851992 1.997351 -1.590538 0
M  V30 34 H -2.354651 3.946168 -1.158263 0
M  V30 35 H -0.410781 3.637178 0.273448 0
M  V30 36 H 0.048292 1.473927 1.252017 0
M  V30 37 H -3.873753 -1.745510 1.572365 0
M  V30 38 H -5.062590 -1.765380 3.687260 0
M  V30 39 H -3.902336 -0.881994 5.719077 0
M  V30 40 H -1.605029 -0.012655 5.568803 0
M  V30 41 H -0.457857 -0.007404 3.459956 0
M  V30 END ATOM
M  V30 BEGIN BOND
M  V30 1 2 1 2
M  V30 2 1 2 3
M  V30 3 1 3 4
M  V30 4 2 4 5
M  V30 5 1 5 6
M  V30 6 2 6 7
M  V30 7 1 7 8
M  V30 8 2 8 9
M  V30 9 1 9 10
M  V30 10 2 10 11
M  V30 11 1 11 12
M  V30 12 1 2 13
M  V30 13 1 13 14
M  V30 14 2 14 15
M  V30 15 1 15 16
M  V30 16 2 16 17
M  V30 17 1 17 18
M  V30 18 2 18 19
M  V30 19 1 13 20
M  V30 20 2 20 21
M  V30 21 1 21 22
M  V30 22 2 22 23
M  V30 23 1 23 24
M  V30 24 2 24 25
M  V30 25 1 12 4
M  V30 26 1 19 14
M  V30 27 1 25 20
M  V30 28 1 11 6
M  V30 29 1 3 26
M  V30 30 1 7 27
M  V30 31 1 8 28
M  V30 32 1 9 29
M  V30 33 1 10 30
M  V30 34 1 13 31
M  V30 35 1 15 32
M  V30 36 1 16 33
M  V30 37 1 17 34
M  V30 38 1 18 35
M  V30 39 1 19 36
M  V30 40 1 21 37
M  V30 41 1 22 38
M  V30 42 1 23 39
M  V30 43 1 24 40
M  V30 44 1 25 41
M  V30 END BOND
M  V30 END CTAB
M  END
>  <Dataset>  (359) 
ChEMBL_Kinases

>  <Ligand_Instance>  (359) 
nan

>  <PDB_ID>  (359) 
nan

>  <Standardized_SMILES>  (359) 
O=C(Nc1nc2ccccc2s1)C(c1ccccc1)c1ccccc1

>  <Name>  (359) 
nan

>  <Pocket>  (359) 
nan

>  <ATP_Site>  (359) 
nan

>  <Peripheral>  (359) 
nan

>  <Num_H_Atoms_ProtBoundConf>  (359) 
nan

>  <Num_Resolved_Atoms>  (359) 
nan

>  <Num_Not_Resolved_Atoms>  (359) 
nan

$$$$
CHEMBL323542
     RDKit          3D

  0  0  0  0  0  0  0  0  0  0999 V3000
M  V30 BEGIN CTAB
M  V30 COUNTS 27 27 0 0 0
M  V30 BEGIN ATOM
M  V30 1 C -2.977590 -2.432179 2.986566 0
M  V30 2 C -1.808775 -3.190298 3.563691 0
M  V30 3 S -0.454936 -3.420978 2.381885 0
M  V30 4 C 0.260924 -1.808112 1.999048 0
M  V30 5 N -0.120054 -0.670255 2.451116 0
M  V30 6 N 1.376217 -1.752934 1.093998 0
M  V30 7 C 1.466323 -0.630834 0.201380 0
M  V30 8 C 2.084136 0.546650 0.568693 0
M  V30 9 C 2.145349 1.608033 -0.338484 0
M  V30 10 C 1.580584 1.440493 -1.582240 0
M  V30 11 C 1.651191 2.585251 -2.546047 0
M  V30 12 F 0.476531 3.328087 -2.451999 0
M  V30 13 F 1.740913 2.112124 -3.828961 0
M  V30 14 F 2.690907 3.422012 -2.258839 0
M  V30 15 C 0.956388 0.294797 -1.997555 0
M  V30 16 C 0.919880 -0.726484 -1.068659 0
M  V30 17 H -3.323365 -1.626621 3.674991 0
M  V30 18 H -2.670562 -1.956513 2.055282 0
M  V30 19 H -3.829878 -3.130827 2.740228 0
M  V30 20 H -1.445533 -2.601068 4.440632 0
M  V30 21 H -2.175232 -4.152198 3.969736 0
M  V30 22 H -0.878865 -0.460372 3.095600 0
M  V30 23 H 2.096101 -2.540435 1.111736 0
M  V30 24 H 2.497999 0.576064 1.573554 0
M  V30 25 H 2.642684 2.515881 -0.000929 0
M  V30 26 H 0.517320 0.191332 -2.992072 0
M  V30 27 H 0.427005 -1.664978 -1.364116 0
M  V30 END ATOM
M  V30 BEGIN BOND
M  V30 1 1 1 2
M  V30 2 1 2 3
M  V30 3 1 3 4
M  V30 4 2 4 5 CFG=2
M  V30 5 1 4 6
M  V30 6 1 6 7
M  V30 7 2 7 8
M  V30 8 1 8 9
M  V30 9 2 9 10
M  V30 10 1 10 11
M  V30 11 1 11 12
M  V30 12 1 11 13
M  V30 13 1 11 14
M  V30 14 1 10 15
M  V30 15 2 15 16
M  V30 16 1 16 7
M  V30 17 1 1 17
M  V30 18 1 1 18
M  V30 19 1 1 19
M  V30 20 1 2 20
M  V30 21 1 2 21
M  V30 22 1 5 22
M  V30 23 1 6 23
M  V30 24 1 8 24
M  V30 25 1 9 25
M  V30 26 1 15 26
M  V30 27 1 16 27
M  V30 END BOND
M  V30 END CTAB
M  END
>  <Dataset>  (360) 
ChEMBL_Kinases

>  <Ligand_Instance>  (360) 
nan

>  <PDB_ID>  (360) 
nan

>  <Standardized_SMILES>  (360) 
CCSC(=N)Nc1ccc(C(F)(F)F)cc1

>  <Name>  (360) 
nan

>  <Pocket>  (360) 
nan

>  <ATP_Site>  (360) 
nan

>  <Peripheral>  (360) 
nan

>  <Num_H_Atoms_ProtBoundConf>  (360) 
nan

>  <Num_Resolved_Atoms>  (360) 
nan

>  <Num_Not_Resolved_Atoms>  (360) 
nan

$$$$
CHEMBL3235531
     RDKit          3D

  0  0  0  0  0  0  0  0  0  0999 V3000
M  V30 BEGIN CTAB
M  V30 COUNTS 48 51 0 0 0
M  V30 BEGIN ATOM
M  V30 1 C 0.596853 -7.774661 -0.136692 0
M  V30 2 C 1.556622 -7.715516 -1.282302 0
M  V30 3 O 2.632749 -6.818332 -1.087972 0
M  V30 4 C 2.485262 -5.462436 -0.886599 0
M  V30 5 C 3.526480 -4.567377 -0.690367 0
M  V30 6 C 3.374395 -3.232842 -0.493032 0
M  V30 7 C 2.115230 -2.665021 -0.475814 0
M  V30 8 N 1.782883 -1.385222 -0.296985 0
M  V30 9 C 0.713634 -0.917565 -0.284638 0
M  V30 10 N 0.401532 0.508677 -0.082110 0
M  V30 11 C 0.185499 0.985151 1.260303 0
M  V30 12 O 0.318623 0.006004 2.046680 0
M  V30 13 C -0.109332 2.418312 1.249567 0
M  V30 14 C -0.325989 2.873594 2.647867 0
M  V30 15 C 0.072896 4.142620 3.016950 0
M  V30 16 C -0.075591 4.664619 4.268556 0
M  V30 17 C -0.668519 3.872068 5.247768 0
M  V30 18 C -1.087109 2.589066 4.928489 0
M  V30 19 C -0.908751 2.118847 3.644105 0
M  V30 20 C -1.306056 2.776811 0.453117 0
M  V30 21 C -1.499873 3.952959 -0.229622 0
M  V30 22 C -2.666994 4.141257 -0.926536 0
M  V30 23 C -3.652010 3.189979 -0.964881 0
M  V30 24 C -3.447032 1.996412 -0.267740 0
M  V30 25 C -2.279137 1.771214 0.447853 0
M  V30 26 S -0.375244 -2.471332 -0.585200 0
M  V30 27 C 1.090663 -3.552293 -0.669975 0
M  V30 28 C 1.225297 -4.909415 -0.871819 0
M  V30 29 H 0.828798 -7.041137 0.678458 0
M  V30 30 H 0.637835 -8.778347 0.339353 0
M  V30 31 H -0.464783 -7.608100 -0.408749 0
M  V30 32 H 1.923826 -8.743956 -1.502280 0
M  V30 33 H 0.964468 -7.367441 -2.174149 0
M  V30 34 H 4.526653 -5.028265 -0.705558 0
M  V30 35 H 4.306832 -2.665079 -0.353357 0
M  V30 36 H 0.369055 1.044602 -0.973513 0
M  V30 37 H 0.796518 2.958193 0.877620 0
M  V30 38 H 0.542314 4.810049 2.297537 0
M  V30 39 H 0.256871 5.681578 4.519296 0
M  V30 40 H -0.795765 4.267296 6.247601 0
M  V30 41 H -1.558841 1.939715 5.681404 0
M  V30 42 H -1.233612 1.120458 3.392541 0
M  V30 43 H -0.647956 4.599334 -0.109135 0
M  V30 44 H -2.727524 5.107343 -1.436292 0
M  V30 45 H -4.560339 3.380935 -1.529275 0
M  V30 46 H -4.236684 1.233633 -0.298406 0
M  V30 47 H -2.170449 0.814122 0.978062 0
M  V30 48 H 0.309829 -5.427723 -1.005402 0
M  V30 END ATOM
M  V30 BEGIN BOND
M  V30 1 1 1 2
M  V30 2 1 2 3
M  V30 3 1 3 4
M  V30 4 2 4 5
M  V30 5 1 5 6
M  V30 6 2 6 7
M  V30 7 1 7 8
M  V30 8 2 8 9
M  V30 9 1 9 10
M  V30 10 1 10 11
M  V30 11 2 11 12
M  V30 12 1 11 13
M  V30 13 1 13 14
M  V30 14 2 14 15
M  V30 15 1 15 16
M  V30 16 2 16 17
M  V30 17 1 17 18
M  V30 18 2 18 19
M  V30 19 1 13 20
M  V30 20 2 20 21
M  V30 21 1 21 22
M  V30 22 2 22 23
M  V30 23 1 23 24
M  V30 24 2 24 25
M  V30 25 1 9 26
M  V30 26 1 26 27
M  V30 27 2 27 28
M  V30 28 1 28 4
M  V30 29 1 27 7
M  V30 30 1 19 14
M  V30 31 1 25 20
M  V30 32 1 1 29
M  V30 33 1 1 30
M  V30 34 1 1 31
M  V30 35 1 2 32
M  V30 36 1 2 33
M  V30 37 1 5 34
M  V30 38 1 6 35
M  V30 39 1 10 36
M  V30 40 1 13 37
M  V30 41 1 15 38
M  V30 42 1 16 39
M  V30 43 1 17 40
M  V30 44 1 18 41
M  V30 45 1 19 42
M  V30 46 1 21 43
M  V30 47 1 22 44
M  V30 48 1 23 45
M  V30 49 1 24 46
M  V30 50 1 25 47
M  V30 51 1 28 48
M  V30 END BOND
M  V30 END CTAB
M  END
>  <Dataset>  (361) 
ChEMBL_Kinases

>  <Ligand_Instance>  (361) 
nan

>  <PDB_ID>  (361) 
nan

>  <Standardized_SMILES>  (361) 
CCOc1ccc2nc(NC(=O)C(c3ccccc3)c3ccccc3)sc2c1

>  <Name>  (361) 
nan

>  <Pocket>  (361) 
nan

>  <ATP_Site>  (361) 
nan

>  <Peripheral>  (361) 
nan

>  <Num_H_Atoms_ProtBoundConf>  (361) 
nan

>  <Num_Resolved_Atoms>  (361) 
nan

>  <Num_Not_Resolved_Atoms>  (361) 
nan

$$$$
CHEMBL3235532
     RDKit          3D

  0  0  0  0  0  0  0  0  0  0999 V3000
M  V30 BEGIN CTAB
M  V30 COUNTS 34 36 0 0 0
M  V30 BEGIN ATOM
M  V30 1 O -0.675690 -1.440099 0.576303 0
M  V30 2 C -0.282646 -1.406833 1.768974 0
M  V30 3 C 0.506381 -2.101747 2.793829 0
M  V30 4 C 1.142410 -3.378556 2.355117 0
M  V30 5 C 2.089335 -3.249524 1.233330 0
M  V30 6 C 3.432902 -2.992724 1.532806 0
M  V30 7 C 4.408341 -2.854591 0.567159 0
M  V30 8 C 4.077039 -2.969270 -0.764374 0
M  V30 9 C 2.762264 -3.221945 -1.090126 0
M  V30 10 Cl 2.245199 -3.383951 -2.752446 0
M  V30 11 C 1.803196 -3.356625 -0.112057 0
M  V30 12 N -0.842544 -0.199190 2.326323 0
M  V30 13 C -1.670070 0.654115 1.475219 0
M  V30 14 N -1.332824 1.538991 0.797588 0
M  V30 15 C -2.087321 2.311515 0.026129 0
M  V30 16 C -1.685048 3.359340 -0.775808 0
M  V30 17 C -2.627076 4.046089 -1.508158 0
M  V30 18 C -3.980792 3.783428 -1.521981 0
M  V30 19 C -4.390098 2.737273 -0.722635 0
M  V30 20 C -3.452501 2.038403 0.019027 0
M  V30 21 S -3.567268 0.645789 1.156813 0
M  V30 22 H 1.338790 -1.455716 3.192650 0
M  V30 23 H -0.116854 -2.324711 3.669845 0
M  V30 24 H 1.702852 -3.775753 3.231113 0
M  V30 25 H 0.372082 -4.156891 2.077145 0
M  V30 26 H 3.785521 -2.887030 2.549570 0
M  V30 27 H 5.440991 -2.656391 0.817608 0
M  V30 28 H 4.758873 -2.879164 -1.598176 0
M  V30 29 H 0.790962 -3.553099 -0.369604 0
M  V30 30 H -0.826344 0.288652 3.250075 0
M  V30 31 H -0.665882 3.710450 -0.892857 0
M  V30 32 H -2.330914 4.886313 -2.155756 0
M  V30 33 H -4.727269 4.312288 -2.089569 0
M  V30 34 H -5.397601 2.387681 -0.604833 0
M  V30 END ATOM
M  V30 BEGIN BOND
M  V30 1 2 1 2
M  V30 2 1 2 3
M  V30 3 1 3 4
M  V30 4 1 4 5
M  V30 5 2 5 6
M  V30 6 1 6 7
M  V30 7 2 7 8
M  V30 8 1 8 9
M  V30 9 1 9 10
M  V30 10 2 9 11
M  V30 11 1 2 12
M  V30 12 1 12 13
M  V30 13 2 13 14
M  V30 14 1 14 15
M  V30 15 2 15 16
M  V30 16 1 16 17
M  V30 17 2 17 18
M  V30 18 1 18 19
M  V30 19 2 19 20
M  V30 20 1 20 21
M  V30 21 1 11 5
M  V30 22 1 21 13
M  V30 23 1 20 15
M  V30 24 1 3 22
M  V30 25 1 3 23
M  V30 26 1 4 24
M  V30 27 1 4 25
M  V30 28 1 6 26
M  V30 29 1 7 27
M  V30 30 1 8 28
M  V30 31 1 11 29
M  V30 32 1 12 30
M  V30 33 1 16 31
M  V30 34 1 17 32
M  V30 35 1 18 33
M  V30 36 1 19 34
M  V30 END BOND
M  V30 END CTAB
M  END
>  <Dataset>  (362) 
ChEMBL_Kinases

>  <Ligand_Instance>  (362) 
nan

>  <PDB_ID>  (362) 
nan

>  <Standardized_SMILES>  (362) 
O=C(CCc1cccc(Cl)c1)Nc1nc2ccccc2s1

>  <Name>  (362) 
nan

>  <Pocket>  (362) 
nan

>  <ATP_Site>  (362) 
nan

>  <Peripheral>  (362) 
nan

>  <Num_H_Atoms_ProtBoundConf>  (362) 
nan

>  <Num_Resolved_Atoms>  (362) 
nan

>  <Num_Not_Resolved_Atoms>  (362) 
nan

$$$$
CHEMBL3235533
     RDKit          3D

  0  0  0  0  0  0  0  0  0  0999 V3000
M  V30 BEGIN CTAB
M  V30 COUNTS 44 47 0 0 0
M  V30 BEGIN ATOM
M  V30 1 O -0.742462 -0.655023 0.407359 0
M  V30 2 C 0.249668 -1.320815 0.886708 0
M  V30 3 C 1.598837 -1.722621 1.225806 0
M  V30 4 C 2.749959 -0.909390 0.792521 0
M  V30 5 C 2.962675 -0.706937 -0.634570 0
M  V30 6 C 2.124590 -0.732603 -1.708180 0
M  V30 7 C 2.451511 -0.510041 -3.022806 0
M  V30 8 C 3.759044 -0.228820 -3.317113 0
M  V30 9 C 4.687691 -0.178532 -2.307992 0
M  V30 10 C 4.282453 -0.412347 -1.020340 0
M  V30 11 C 2.882220 0.415189 1.490247 0
M  V30 12 C 4.092722 0.740561 2.122335 0
M  V30 13 C 4.383347 1.903747 2.797551 0
M  V30 14 C 3.380249 2.842848 2.856899 0
M  V30 15 C 2.172892 2.598403 2.264994 0
M  V30 16 C 1.954958 1.418851 1.610297 0
M  V30 17 N -0.632894 -2.336046 1.458936 0
M  V30 18 C -2.089550 -2.157852 1.251726 0
M  V30 19 N -2.826801 -1.596976 1.921678 0
M  V30 20 C -4.124773 -1.396491 1.805608 0
M  V30 21 C -4.991013 -0.712635 2.633713 0
M  V30 22 C -6.326319 -0.631278 2.308711 0
M  V30 23 C -6.908599 -1.189514 1.189572 0
M  V30 24 C -6.059011 -1.876457 0.350666 0
M  V30 25 C -4.700784 -1.950623 0.695377 0
M  V30 26 S -3.291862 -2.745634 -0.129159 0
M  V30 27 H 1.661201 -1.781442 2.355461 0
M  V30 28 H 1.776308 -2.763332 0.873703 0
M  V30 29 H 3.663307 -1.526626 1.129722 0
M  V30 30 H 1.105268 -0.957303 -1.487175 0
M  V30 31 H 1.703655 -0.557875 -3.775684 0
M  V30 32 H 4.031787 -0.051478 -4.345952 0
M  V30 33 H 5.715815 0.044156 -2.552698 0
M  V30 34 H 5.082298 -0.353955 -0.275578 0
M  V30 35 H 4.911034 0.003653 2.088520 0
M  V30 36 H 5.354237 2.049314 3.248826 0
M  V30 37 H 3.536517 3.776497 3.368735 0
M  V30 38 H 1.355981 3.318279 2.291665 0
M  V30 39 H 1.001127 1.239888 1.144442 0
M  V30 40 H -0.574881 -3.231862 2.019327 0
M  V30 41 H -4.704349 -0.208386 3.562326 0
M  V30 42 H -7.025865 -0.086775 2.964674 0
M  V30 43 H -7.943898 -1.150094 0.898597 0
M  V30 44 H -6.290405 -2.382445 -0.561866 0
M  V30 END ATOM
M  V30 BEGIN BOND
M  V30 1 2 1 2
M  V30 2 1 2 3
M  V30 3 1 3 4
M  V30 4 1 4 5
M  V30 5 2 5 6
M  V30 6 1 6 7
M  V30 7 2 7 8
M  V30 8 1 8 9
M  V30 9 2 9 10
M  V30 10 1 4 11
M  V30 11 2 11 12
M  V30 12 1 12 13
M  V30 13 2 13 14
M  V30 14 1 14 15
M  V30 15 2 15 16
M  V30 16 1 2 17
M  V30 17 1 17 18
M  V30 18 2 18 19
M  V30 19 1 19 20
M  V30 20 2 20 21
M  V30 21 1 21 22
M  V30 22 2 22 23
M  V30 23 1 23 24
M  V30 24 2 24 25
M  V30 25 1 25 26
M  V30 26 1 10 5
M  V30 27 1 16 11
M  V30 28 1 26 18
M  V30 29 1 25 20
M  V30 30 1 3 27
M  V30 31 1 3 28
M  V30 32 1 4 29
M  V30 33 1 6 30
M  V30 34 1 7 31
M  V30 35 1 8 32
M  V30 36 1 9 33
M  V30 37 1 10 34
M  V30 38 1 12 35
M  V30 39 1 13 36
M  V30 40 1 14 37
M  V30 41 1 15 38
M  V30 42 1 16 39
M  V30 43 1 17 40
M  V30 44 1 21 41
M  V30 45 1 22 42
M  V30 46 1 23 43
M  V30 47 1 24 44
M  V30 END BOND
M  V30 END CTAB
M  END
>  <Dataset>  (363) 
ChEMBL_Kinases

>  <Ligand_Instance>  (363) 
nan

>  <PDB_ID>  (363) 
nan

>  <Standardized_SMILES>  (363) 
O=C(CC(c1ccccc1)c1ccccc1)Nc1nc2ccccc2s1

>  <Name>  (363) 
nan

>  <Pocket>  (363) 
nan

>  <ATP_Site>  (363) 
nan

>  <Peripheral>  (363) 
nan

>  <Num_H_Atoms_ProtBoundConf>  (363) 
nan

>  <Num_Resolved_Atoms>  (363) 
nan

>  <Num_Not_Resolved_Atoms>  (363) 
nan

$$$$
CHEMBL3235534
     RDKit          3D

  0  0  0  0  0  0  0  0  0  0999 V3000
M  V30 BEGIN CTAB
M  V30 COUNTS 37 39 0 0 0
M  V30 BEGIN ATOM
M  V30 1 C 1.906466 -7.493206 2.659804 0
M  V30 2 O 2.849754 -6.423229 2.822342 0
M  V30 3 C 2.689775 -5.343761 1.961415 0
M  V30 4 C 1.675450 -5.344472 1.026683 0
M  V30 5 C 1.477390 -4.292660 0.148925 0
M  V30 6 C 2.328751 -3.202232 0.213201 0
M  V30 7 N 2.253740 -2.033009 -0.628670 0
M  V30 8 C 1.484407 -0.902987 -0.272849 0
M  V30 9 O 0.868158 -0.973480 0.819726 0
M  V30 10 N 1.406149 0.239998 -1.087569 0
M  V30 11 C 0.562147 1.391988 -0.624553 0
M  V30 12 N -0.589253 1.489716 -0.900659 0
M  V30 13 C -1.431067 2.437035 -0.563056 0
M  V30 14 C -2.770737 2.616045 -0.844089 0
M  V30 15 C -3.449079 3.701869 -0.373434 0
M  V30 16 C -2.886857 4.701163 0.406268 0
M  V30 17 C -3.551074 5.907364 0.955187 0
M  V30 18 F -4.021892 5.673780 2.248457 0
M  V30 19 F -2.689094 6.987034 0.974419 0
M  V30 20 F -4.645862 6.260769 0.176689 0
M  V30 21 C -1.554286 4.615832 0.742929 0
M  V30 22 C -0.903147 3.474888 0.230378 0
M  V30 23 S 0.889273 2.890387 0.393895 0
M  V30 24 C 3.375138 -3.148796 1.142648 0
M  V30 25 C 3.496727 -4.236907 1.973891 0
M  V30 26 H 2.077615 -8.325903 3.350601 0
M  V30 27 H 1.879928 -7.864933 1.613576 0
M  V30 28 H 0.878550 -7.070948 2.854708 0
M  V30 29 H 0.976759 -6.164497 0.924463 0
M  V30 30 H 0.700551 -4.239838 -0.602228 0
M  V30 31 H 2.778414 -2.007111 -1.530634 0
M  V30 32 H 1.928392 0.255093 -1.976523 0
M  V30 33 H -3.330393 1.910156 -1.442326 0
M  V30 34 H -4.520023 3.853887 -0.592604 0
M  V30 35 H -0.907687 5.235969 1.313742 0
M  V30 36 H 4.056779 -2.307734 1.215269 0
M  V30 37 H 4.307786 -4.223694 2.712948 0
M  V30 END ATOM
M  V30 BEGIN BOND
M  V30 1 1 1 2
M  V30 2 1 2 3
M  V30 3 2 3 4
M  V30 4 1 4 5
M  V30 5 2 5 6
M  V30 6 1 6 7
M  V30 7 1 7 8
M  V30 8 2 8 9
M  V30 9 1 8 10
M  V30 10 1 10 11
M  V30 11 2 11 12
M  V30 12 1 12 13
M  V30 13 2 13 14
M  V30 14 1 14 15
M  V30 15 2 15 16
M  V30 16 1 16 17
M  V30 17 1 17 18
M  V30 18 1 17 19
M  V30 19 1 17 20
M  V30 20 1 16 21
M  V30 21 2 21 22
M  V30 22 1 22 23
M  V30 23 1 6 24
M  V30 24 2 24 25
M  V30 25 1 25 3
M  V30 26 1 23 11
M  V30 27 1 22 13
M  V30 28 1 1 26
M  V30 29 1 1 27
M  V30 30 1 1 28
M  V30 31 1 4 29
M  V30 32 1 5 30
M  V30 33 1 7 31
M  V30 34 1 10 32
M  V30 35 1 14 33
M  V30 36 1 15 34
M  V30 37 1 21 35
M  V30 38 1 24 36
M  V30 39 1 25 37
M  V30 END BOND
M  V30 END CTAB
M  END
>  <Dataset>  (364) 
ChEMBL_Kinases

>  <Ligand_Instance>  (364) 
nan

>  <PDB_ID>  (364) 
nan

>  <Standardized_SMILES>  (364) 
COc1ccc(NC(=O)Nc2nc3ccc(C(F)(F)F)cc3s2)cc1

>  <Name>  (364) 
nan

>  <Pocket>  (364) 
nan

>  <ATP_Site>  (364) 
nan

>  <Peripheral>  (364) 
nan

>  <Num_H_Atoms_ProtBoundConf>  (364) 
nan

>  <Num_Resolved_Atoms>  (364) 
nan

>  <Num_Not_Resolved_Atoms>  (364) 
nan

$$$$
CHEMBL3235535
     RDKit          3D

  0  0  0  0  0  0  0  0  0  0999 V3000
M  V30 BEGIN CTAB
M  V30 COUNTS 34 36 0 0 0
M  V30 BEGIN ATOM
M  V30 1 C -0.792893 -4.887452 5.545160 0
M  V30 2 C -0.499026 -4.289291 4.250286 0
M  V30 3 C -0.994574 -4.640201 2.996532 0
M  V30 4 C -0.675909 -4.034719 1.818051 0
M  V30 5 C 0.208292 -2.975589 1.792527 0
M  V30 6 N 0.662639 -2.244220 0.801659 0
M  V30 7 C 1.384852 -1.374303 0.755664 0
M  V30 8 N 1.813924 -0.628964 -0.465567 0
M  V30 9 C 0.990026 0.481238 -0.770190 0
M  V30 10 O 0.002276 0.716655 0.006845 0
M  V30 11 C 1.370869 1.275422 -1.992437 0
M  V30 12 C 0.399080 2.412108 -2.171618 0
M  V30 13 C 0.568519 3.664711 -1.619349 0
M  V30 14 C -0.412648 4.622701 -1.868391 0
M  V30 15 C -1.507362 4.307769 -2.643215 0
M  V30 16 C -1.661709 3.065594 -3.182615 0
M  V30 17 Cl -3.075325 2.710480 -4.164645 0
M  V30 18 C -0.706015 2.091866 -2.954624 0
M  V30 19 S 1.793650 -1.245907 2.631588 0
M  V30 20 C 0.704838 -2.615481 3.004427 0
M  V30 21 C 0.386377 -3.231452 4.238979 0
M  V30 22 H -1.797861 -5.350018 5.606454 0
M  V30 23 H 0.023053 -5.588885 5.815060 0
M  V30 24 H -0.809235 -4.078235 6.327717 0
M  V30 25 H -1.700486 -5.487001 3.023316 0
M  V30 26 H -1.163959 -4.446572 0.929484 0
M  V30 27 H 2.650354 -0.964864 -0.981194 0
M  V30 28 H 2.387863 1.667989 -1.832227 0
M  V30 29 H 1.399989 0.651705 -2.893115 0
M  V30 30 H 1.468490 3.822976 -1.018503 0
M  V30 31 H -0.216180 5.591337 -1.401767 0
M  V30 32 H -2.247870 5.102340 -2.805471 0
M  V30 33 H -0.858948 1.129350 -3.392737 0
M  V30 34 H 0.903302 -2.774571 5.072158 0
M  V30 END ATOM
M  V30 BEGIN BOND
M  V30 1 1 1 2
M  V30 2 2 2 3
M  V30 3 1 3 4
M  V30 4 2 4 5
M  V30 5 1 5 6
M  V30 6 2 6 7
M  V30 7 1 7 8
M  V30 8 1 8 9
M  V30 9 2 9 10
M  V30 10 1 9 11
M  V30 11 1 11 12
M  V30 12 2 12 13
M  V30 13 1 13 14
M  V30 14 2 14 15
M  V30 15 1 15 16
M  V30 16 1 16 17
M  V30 17 2 16 18
M  V30 18 1 7 19
M  V30 19 1 19 20
M  V30 20 2 20 21
M  V30 21 1 21 2
M  V30 22 1 20 5
M  V30 23 1 18 12
M  V30 24 1 1 22
M  V30 25 1 1 23
M  V30 26 1 1 24
M  V30 27 1 3 25
M  V30 28 1 4 26
M  V30 29 1 8 27
M  V30 30 1 11 28
M  V30 31 1 11 29
M  V30 32 1 13 30
M  V30 33 1 14 31
M  V30 34 1 15 32
M  V30 35 1 18 33
M  V30 36 1 21 34
M  V30 END BOND
M  V30 END CTAB
M  END
>  <Dataset>  (365) 
ChEMBL_Kinases

>  <Ligand_Instance>  (365) 
nan

>  <PDB_ID>  (365) 
nan

>  <Standardized_SMILES>  (365) 
Cc1ccc2nc(NC(=O)Cc3cccc(Cl)c3)sc2c1

>  <Name>  (365) 
nan

>  <Pocket>  (365) 
nan

>  <ATP_Site>  (365) 
nan

>  <Peripheral>  (365) 
nan

>  <Num_H_Atoms_ProtBoundConf>  (365) 
nan

>  <Num_Resolved_Atoms>  (365) 
nan

>  <Num_Not_Resolved_Atoms>  (365) 
nan

$$$$
CHEMBL3235538
     RDKit          3D

  0  0  0  0  0  0  0  0  0  0999 V3000
M  V30 BEGIN CTAB
M  V30 COUNTS 34 36 0 0 0
M  V30 BEGIN ATOM
M  V30 1 O 1.171938 -1.673929 0.719186 0
M  V30 2 C 0.595730 -2.234483 -0.233438 0
M  V30 3 C 1.314749 -3.349980 -0.913807 0
M  V30 4 C 2.621805 -3.480913 -0.197211 0
M  V30 5 C 2.773996 -4.311396 0.896572 0
M  V30 6 C 4.003619 -4.414173 1.545433 0
M  V30 7 C 5.035029 -3.654194 1.040995 0
M  V30 8 C 4.906932 -2.828005 -0.037249 0
M  V30 9 Cl 6.267107 -1.889838 -0.623091 0
M  V30 10 C 3.680330 -2.743120 -0.662653 0
M  V30 11 N -0.681868 -1.905437 -0.726844 0
M  V30 12 C -1.427727 -0.794079 -0.068228 0
M  V30 13 N -1.404322 0.297684 -0.328104 0
M  V30 14 C -2.007014 1.355901 0.170084 0
M  V30 15 C -1.946746 2.688318 -0.185097 0
M  V30 16 C -2.666526 3.625451 0.479239 0
M  V30 17 C -3.506424 3.371742 1.540483 0
M  V30 18 C -4.331609 4.316977 2.329519 0
M  V30 19 F -3.670404 4.592713 3.516266 0
M  V30 20 F -4.514957 5.519053 1.688958 0
M  V30 21 F -5.550967 3.749576 2.679763 0
M  V30 22 C -3.575065 2.022322 1.909315 0
M  V30 23 C -2.823190 1.084142 1.206706 0
M  V30 24 S -2.669728 -0.669911 1.395065 0
M  V30 25 H 0.758189 -4.292874 -0.739527 0
M  V30 26 H 1.463571 -3.155438 -1.983983 0
M  V30 27 H 1.884831 -4.856981 1.195629 0
M  V30 28 H 4.034023 -5.077766 2.380732 0
M  V30 29 H 5.967630 -3.769815 1.579809 0
M  V30 30 H 3.596786 -2.086985 -1.511246 0
M  V30 31 H -1.173851 -2.358376 -1.513775 0
M  V30 32 H -1.334159 3.087838 -1.004664 0
M  V30 33 H -2.632819 4.694833 0.211763 0
M  V30 34 H -4.160493 1.597659 2.701643 0
M  V30 END ATOM
M  V30 BEGIN BOND
M  V30 1 2 1 2
M  V30 2 1 2 3
M  V30 3 1 3 4
M  V30 4 2 4 5
M  V30 5 1 5 6
M  V30 6 2 6 7
M  V30 7 1 7 8
M  V30 8 1 8 9
M  V30 9 2 8 10
M  V30 10 1 2 11
M  V30 11 1 11 12
M  V30 12 2 12 13
M  V30 13 1 13 14
M  V30 14 2 14 15
M  V30 15 1 15 16
M  V30 16 2 16 17
M  V30 17 1 17 18
M  V30 18 1 18 19
M  V30 19 1 18 20
M  V30 20 1 18 21
M  V30 21 1 17 22
M  V30 22 2 22 23
M  V30 23 1 23 24
M  V30 24 1 10 4
M  V30 25 1 24 12
M  V30 26 1 23 14
M  V30 27 1 3 25
M  V30 28 1 3 26
M  V30 29 1 5 27
M  V30 30 1 6 28
M  V30 31 1 7 29
M  V30 32 1 10 30
M  V30 33 1 11 31
M  V30 34 1 15 32
M  V30 35 1 16 33
M  V30 36 1 22 34
M  V30 END BOND
M  V30 END CTAB
M  END
>  <Dataset>  (366) 
ChEMBL_Kinases

>  <Ligand_Instance>  (366) 
nan

>  <PDB_ID>  (366) 
nan

>  <Standardized_SMILES>  (366) 
O=C(Cc1cccc(Cl)c1)Nc1nc2ccc(C(F)(F)F)cc2s1

>  <Name>  (366) 
nan

>  <Pocket>  (366) 
nan

>  <ATP_Site>  (366) 
nan

>  <Peripheral>  (366) 
nan

>  <Num_H_Atoms_ProtBoundConf>  (366) 
nan

>  <Num_Resolved_Atoms>  (366) 
nan

>  <Num_Not_Resolved_Atoms>  (366) 
nan

$$$$
CHEMBL3235193
     RDKit          3D

  0  0  0  0  0  0  0  0  0  0999 V3000
M  V30 BEGIN CTAB
M  V30 COUNTS 31 33 0 0 0
M  V30 BEGIN ATOM
M  V30 1 O 0.752081 -0.735428 1.322893 0
M  V30 2 C 0.692498 -1.430565 0.269137 0
M  V30 3 C 1.672741 -2.369923 -0.349124 0
M  V30 4 C 2.920742 -2.450817 0.481453 0
M  V30 5 C 3.113707 -3.340330 1.490122 0
M  V30 6 C 4.299392 -3.347530 2.209311 0
M  V30 7 C 5.327100 -2.465016 1.940640 0
M  V30 8 Cl 6.836994 -2.450288 2.832504 0
M  V30 9 C 5.156251 -1.540550 0.910171 0
M  V30 10 C 3.956211 -1.559005 0.208111 0
M  V30 11 N -0.524960 -1.311078 -0.482234 0
M  V30 12 C -1.592429 -0.464533 -0.064881 0
M  V30 13 N -1.601296 0.822795 -0.499802 0
M  V30 14 C -2.700264 1.427567 0.021206 0
M  V30 15 C -3.279730 2.684921 -0.025414 0
M  V30 16 C -4.456354 2.921769 0.673028 0
M  V30 17 C -5.086389 1.955587 1.421270 0
M  V30 18 C -4.521667 0.697614 1.477870 0
M  V30 19 C -3.344778 0.466350 0.777341 0
M  V30 20 O -2.659558 -0.639118 0.701893 0
M  V30 21 H 1.205293 -3.352659 -0.382399 0
M  V30 22 H 1.946739 -1.984542 -1.353780 0
M  V30 23 H 2.308164 -4.052652 1.721378 0
M  V30 24 H 4.422311 -4.071872 3.010140 0
M  V30 25 H 5.902879 -0.804954 0.620180 0
M  V30 26 H 3.799989 -0.844789 -0.602542 0
M  V30 27 H -0.774881 -1.795225 -1.374451 0
M  V30 28 H -2.786499 3.443966 -0.612105 0
M  V30 29 H -4.819341 3.935510 0.566393 0
M  V30 30 H -5.997014 2.192722 1.943386 0
M  V30 31 H -5.013295 -0.062241 2.063767 0
M  V30 END ATOM
M  V30 BEGIN BOND
M  V30 1 2 1 2
M  V30 2 1 2 3
M  V30 3 1 3 4
M  V30 4 2 4 5
M  V30 5 1 5 6
M  V30 6 2 6 7
M  V30 7 1 7 8
M  V30 8 1 7 9
M  V30 9 2 9 10
M  V30 10 1 2 11
M  V30 11 1 11 12
M  V30 12 2 12 13
M  V30 13 1 13 14
M  V30 14 2 14 15
M  V30 15 1 15 16
M  V30 16 2 16 17
M  V30 17 1 17 18
M  V30 18 2 18 19
M  V30 19 1 19 20
M  V30 20 1 10 4
M  V30 21 1 20 12
M  V30 22 1 19 14
M  V30 23 1 3 21
M  V30 24 1 3 22
M  V30 25 1 5 23
M  V30 26 1 6 24
M  V30 27 1 9 25
M  V30 28 1 10 26
M  V30 29 1 11 27
M  V30 30 1 15 28
M  V30 31 1 16 29
M  V30 32 1 17 30
M  V30 33 1 18 31
M  V30 END BOND
M  V30 END CTAB
M  END
>  <Dataset>  (367) 
ChEMBL_Kinases

>  <Ligand_Instance>  (367) 
nan

>  <PDB_ID>  (367) 
nan

>  <Standardized_SMILES>  (367) 
O=C(Cc1ccc(Cl)cc1)Nc1nc2ccccc2o1

>  <Name>  (367) 
nan

>  <Pocket>  (367) 
nan

>  <ATP_Site>  (367) 
nan

>  <Peripheral>  (367) 
nan

>  <Num_H_Atoms_ProtBoundConf>  (367) 
nan

>  <Num_Resolved_Atoms>  (367) 
nan

>  <Num_Not_Resolved_Atoms>  (367) 
nan

$$$$
CHEMBL3237176
     RDKit          3D

  0  0  0  0  0  0  0  0  0  0999 V3000
M  V30 BEGIN CTAB
M  V30 COUNTS 60 63 0 0 0
M  V30 BEGIN ATOM
M  V30 1 C 4.359491 -4.651949 4.912437 0
M  V30 2 O 4.073874 -3.609575 4.051036 0
M  V30 3 C 4.903081 -3.053086 3.068057 0
M  V30 4 O 5.352825 -3.972211 3.722009 0
M  V30 5 C 4.264815 -1.971722 2.356774 0
M  V30 6 C 5.112723 -1.472207 1.387607 0
M  V30 7 C 4.754236 -0.448768 0.542747 0
M  V30 8 C 3.471253 0.038355 0.745175 0
M  V30 9 N 3.049812 1.092781 -0.111731 0
M  V30 10 C 1.669283 1.395724 -0.053066 0
M  V30 11 N 0.987496 2.225526 0.750529 0
M  V30 12 C -0.344850 2.367675 0.676012 0
M  V30 13 N -1.214866 3.171120 1.445050 0
M  V30 14 C -2.098367 2.903125 2.559532 0
M  V30 15 C -3.363286 2.488004 2.063675 0
M  V30 16 C -4.074016 2.282284 3.253342 0
M  V30 17 C -5.505918 1.823209 3.301893 0
M  V30 18 N -3.347350 2.534618 4.285599 0
M  V30 19 N -2.098091 2.929736 3.955885 0
M  V30 20 C -0.972411 1.598595 -0.289683 0
M  V30 21 C -0.333494 0.717464 -1.157745 0
M  V30 22 N -1.017002 -0.086119 -2.111257 0
M  V30 23 C -2.408371 -0.511641 -1.956287 0
M  V30 24 C -2.321549 -2.031435 -1.844463 0
M  V30 25 N -1.241905 -2.494571 -2.634052 0
M  V30 26 S -1.137732 -4.167456 -2.666586 0
M  V30 27 C -2.513105 -5.021211 -3.342023 0
M  V30 28 O 0.058678 -4.528817 -3.548628 0
M  V30 29 O -0.787953 -4.756666 -1.307997 0
M  V30 30 C -0.876274 -1.756636 -3.778482 0
M  V30 31 C -0.234695 -0.453656 -3.267835 0
M  V30 32 N 0.994638 0.680829 -0.966788 0
M  V30 33 C 2.664863 -0.482589 1.715554 0
M  V30 34 C 2.994639 -1.495031 2.565822 0
M  V30 35 H 5.175060 -4.476781 5.644436 0
M  V30 36 H 3.417852 -4.767177 5.555923 0
M  V30 37 H 4.432501 -5.668461 4.426562 0
M  V30 38 H 6.135813 -1.822269 1.186470 0
M  V30 39 H 5.356837 -0.022184 -0.216944 0
M  V30 40 H 3.674432 1.604996 -0.734251 0
M  V30 41 H -1.003301 4.031751 0.940465 0
M  V30 42 H -3.816172 2.324942 1.118837 0
M  V30 43 H -5.831123 1.699607 4.335341 0
M  V30 44 H -6.082971 2.573227 2.712748 0
M  V30 45 H -5.589399 0.859731 2.752485 0
M  V30 46 H -3.676456 2.445362 5.264860 0
M  V30 47 H -2.063805 1.643043 -0.430143 0
M  V30 48 H -3.055003 -0.196094 -2.775228 0
M  V30 49 H -2.816556 -0.150188 -0.993306 0
M  V30 50 H -3.305648 -2.472187 -2.051628 0
M  V30 51 H -2.081940 -2.259067 -0.780590 0
M  V30 52 H -2.596119 -6.010645 -2.800824 0
M  V30 53 H -3.444265 -4.443424 -3.153841 0
M  V30 54 H -2.357916 -5.279869 -4.392704 0
M  V30 55 H -0.142462 -2.351822 -4.359590 0
M  V30 56 H -1.739601 -1.483681 -4.456145 0
M  V30 57 H -0.291858 0.289937 -4.084663 0
M  V30 58 H 0.769261 -0.715987 -2.933702 0
M  V30 59 H 1.672047 -0.048743 1.825167 0
M  V30 60 H 2.396997 -1.932683 3.343018 0
M  V30 END ATOM
M  V30 BEGIN BOND
M  V30 1 1 1 2
M  V30 2 1 2 3
M  V30 3 2 3 4
M  V30 4 1 3 5
M  V30 5 2 5 6
M  V30 6 1 6 7
M  V30 7 2 7 8
M  V30 8 1 8 9
M  V30 9 1 9 10
M  V30 10 2 10 11
M  V30 11 1 11 12
M  V30 12 1 12 13
M  V30 13 1 13 14
M  V30 14 1 14 15
M  V30 15 2 15 16
M  V30 16 1 16 17
M  V30 17 1 16 18
M  V30 18 1 18 19
M  V30 19 2 12 20
M  V30 20 1 20 21
M  V30 21 1 21 22
M  V30 22 1 22 23
M  V30 23 1 23 24
M  V30 24 1 24 25
M  V30 25 1 25 26
M  V30 26 1 26 27
M  V30 27 2 26 28
M  V30 28 2 26 29
M  V30 29 1 25 30
M  V30 30 1 30 31
M  V30 31 2 21 32
M  V30 32 1 8 33
M  V30 33 2 33 34
M  V30 34 1 34 5
M  V30 35 1 32 10
M  V30 36 2 19 14
M  V30 37 1 31 22
M  V30 38 1 1 35
M  V30 39 1 1 36
M  V30 40 1 1 37
M  V30 41 1 6 38
M  V30 42 1 7 39
M  V30 43 1 9 40
M  V30 44 1 13 41
M  V30 45 1 15 42
M  V30 46 1 17 43
M  V30 47 1 17 44
M  V30 48 1 17 45
M  V30 49 1 18 46
M  V30 50 1 20 47
M  V30 51 1 23 48
M  V30 52 1 23 49
M  V30 53 1 24 50
M  V30 54 1 24 51
M  V30 55 1 27 52
M  V30 56 1 27 53
M  V30 57 1 27 54
M  V30 58 1 30 55
M  V30 59 1 30 56
M  V30 60 1 31 57
M  V30 61 1 31 58
M  V30 62 1 33 59
M  V30 63 1 34 60
M  V30 END BOND
M  V30 END CTAB
M  END
>  <Dataset>  (368) 
ChEMBL_Kinases

>  <Ligand_Instance>  (368) 
nan

>  <PDB_ID>  (368) 
nan

>  <Standardized_SMILES>  (368) 
COC(=O)c1ccc(Nc2nc(Nc3cc(C)[nH]n3)cc(N3CCN(S(C)(=O)=O)CC3)n2)cc1

>  <Name>  (368) 
nan

>  <Pocket>  (368) 
nan

>  <ATP_Site>  (368) 
nan

>  <Peripheral>  (368) 
nan

>  <Num_H_Atoms_ProtBoundConf>  (368) 
nan

>  <Num_Resolved_Atoms>  (368) 
nan

>  <Num_Not_Resolved_Atoms>  (368) 
nan

$$$$
CHEMBL3237175
     RDKit          3D

  0  0  0  0  0  0  0  0  0  0999 V3000
M  V30 BEGIN CTAB
M  V30 COUNTS 59 62 0 0 0
M  V30 BEGIN ATOM
M  V30 1 C 2.682994 -4.039229 6.560932 0
M  V30 2 O 2.587110 -3.363251 5.338287 0
M  V30 3 C 3.616122 -3.016132 4.505461 0
M  V30 4 O 4.811767 -3.297118 4.794055 0
M  V30 5 C 3.334861 -2.308821 3.260378 0
M  V30 6 C 4.355815 -1.941313 2.391278 0
M  V30 7 C 3.998162 -1.273625 1.232816 0
M  V30 8 C 2.709019 -0.941484 0.867738 0
M  V30 9 N 2.410803 -0.254856 -0.337930 0
M  V30 10 C 1.049187 0.042936 -0.624563 0
M  V30 11 N 0.467068 1.191371 -0.231066 0
M  V30 12 C -0.818426 1.485221 -0.494194 0
M  V30 13 N -1.341814 2.726280 -0.035049 0
M  V30 14 C -0.521648 3.640062 0.687586 0
M  V30 15 C -0.194139 3.881494 2.005464 0
M  V30 16 C 0.677460 4.949845 1.967314 0
M  V30 17 C 1.255983 5.505185 3.220532 0
M  V30 18 N 0.866290 5.335530 0.675001 0
M  V30 19 N 0.135376 4.533294 -0.073008 0
M  V30 20 C -1.612350 0.616147 -1.187123 0
M  V30 21 C -1.016727 -0.556807 -1.588707 0
M  V30 22 N -1.729105 -1.541601 -2.313426 0
M  V30 23 C -3.111036 -1.512789 -2.741620 0
M  V30 24 C -3.859487 -2.676714 -2.078182 0 CFG=1
M  V30 25 C -5.320282 -2.508210 -2.349283 0
M  V30 26 O -3.317160 -3.828298 -2.661773 0
M  V30 27 C -2.003739 -3.940895 -2.260308 0 CFG=1
M  V30 28 C -1.393110 -5.232612 -2.761430 0
M  V30 29 C -1.128153 -2.786544 -2.747984 0
M  V30 30 N 0.266540 -0.813773 -1.307671 0
M  V30 31 C 1.711451 -1.320543 1.753677 0
M  V30 32 C 2.038801 -1.987070 2.915771 0
M  V30 33 H 3.691243 -4.426307 6.747419 0
M  V30 34 H 2.377047 -3.288908 7.347783 0
M  V30 35 H 1.943225 -4.863976 6.661571 0
M  V30 36 H 5.385982 -2.173930 2.622555 0
M  V30 37 H 4.824966 -1.007004 0.585795 0
M  V30 38 H 3.211961 -0.002829 -0.955087 0
M  V30 39 H -2.304871 3.042228 -0.182898 0
M  V30 40 H -0.628267 3.262222 2.749634 0
M  V30 41 H 0.529836 5.443434 4.056946 0
M  V30 42 H 2.139277 4.883313 3.540615 0
M  V30 43 H 1.569178 6.564050 3.092054 0
M  V30 44 H 1.490768 6.132597 0.383918 0
M  V30 45 H -2.628102 0.850552 -1.393835 0
M  V30 46 H -3.193287 -1.742057 -3.844814 0
M  V30 47 H -3.592062 -0.564534 -2.487527 0
M  V30 48 H -3.597534 -2.749201 -0.997342 0
M  V30 49 H -5.733723 -3.282020 -3.058547 0
M  V30 50 H -5.951407 -2.610583 -1.434451 0
M  V30 51 H -5.569717 -1.528430 -2.828053 0
M  V30 52 H -1.964357 -3.897090 -1.149953 0
M  V30 53 H -0.691456 -5.643271 -2.008263 0
M  V30 54 H -2.194549 -5.992563 -2.983573 0
M  V30 55 H -0.795058 -5.080512 -3.688959 0
M  V30 56 H -1.024985 -2.834382 -3.851818 0
M  V30 57 H -0.121778 -2.962788 -2.321628 0
M  V30 58 H 0.700834 -1.071090 1.487598 0
M  V30 59 H 1.188071 -2.237538 3.537438 0
M  V30 END ATOM
M  V30 BEGIN BOND
M  V30 1 1 1 2
M  V30 2 1 2 3
M  V30 3 2 3 4
M  V30 4 1 3 5
M  V30 5 2 5 6
M  V30 6 1 6 7
M  V30 7 2 7 8
M  V30 8 1 8 9
M  V30 9 1 9 10
M  V30 10 2 10 11
M  V30 11 1 11 12
M  V30 12 1 12 13
M  V30 13 1 13 14
M  V30 14 1 14 15
M  V30 15 2 15 16
M  V30 16 1 16 17
M  V30 17 1 16 18
M  V30 18 1 18 19
M  V30 19 2 12 20
M  V30 20 1 20 21
M  V30 21 1 21 22
M  V30 22 1 22 23
M  V30 23 1 23 24
M  V30 24 1 24 25
M  V30 25 1 24 26
M  V30 26 1 26 27
M  V30 27 1 27 28
M  V30 28 1 27 29
M  V30 29 2 21 30
M  V30 30 1 8 31
M  V30 31 2 31 32
M  V30 32 1 32 5
M  V30 33 1 30 10
M  V30 34 2 19 14
M  V30 35 1 29 22
M  V30 36 1 1 33
M  V30 37 1 1 34
M  V30 38 1 1 35
M  V30 39 1 6 36
M  V30 40 1 7 37
M  V30 41 1 9 38
M  V30 42 1 13 39
M  V30 43 1 15 40
M  V30 44 1 17 41
M  V30 45 1 17 42
M  V30 46 1 17 43
M  V30 47 1 18 44
M  V30 48 1 20 45
M  V30 49 1 23 46
M  V30 50 1 23 47
M  V30 51 1 24 48 CFG=1
M  V30 52 1 25 49
M  V30 53 1 25 50
M  V30 54 1 25 51
M  V30 55 1 27 52 CFG=1
M  V30 56 1 28 53
M  V30 57 1 28 54
M  V30 58 1 28 55
M  V30 59 1 29 56
M  V30 60 1 29 57
M  V30 61 1 31 58
M  V30 62 1 32 59
M  V30 END BOND
M  V30 END CTAB
M  END
>  <Dataset>  (369) 
ChEMBL_Kinases

>  <Ligand_Instance>  (369) 
nan

>  <PDB_ID>  (369) 
nan

>  <Standardized_SMILES>  (369) 
COC(=O)c1ccc(Nc2nc(Nc3cc(C)[nH]n3)cc(N3C[C@@H](C)O[C@@H](C)C3)n2)cc1

>  <Name>  (369) 
nan

>  <Pocket>  (369) 
nan

>  <ATP_Site>  (369) 
nan

>  <Peripheral>  (369) 
nan

>  <Num_H_Atoms_ProtBoundConf>  (369) 
nan

>  <Num_Resolved_Atoms>  (369) 
nan

>  <Num_Not_Resolved_Atoms>  (369) 
nan

$$$$
CHEMBL3237174
     RDKit          3D

  0  0  0  0  0  0  0  0  0  0999 V3000
M  V30 BEGIN CTAB
M  V30 COUNTS 53 56 0 0 0
M  V30 BEGIN ATOM
M  V30 1 C 1.923896 -5.318383 4.881621 0
M  V30 2 O 1.851918 -4.439464 3.801008 0
M  V30 3 C 2.778337 -4.283402 2.804361 0
M  V30 4 O 3.735866 -5.046571 2.970463 0
M  V30 5 C 2.601124 -3.313825 1.706404 0
M  V30 6 C 3.552203 -3.171971 0.723595 0
M  V30 7 C 3.352611 -2.235238 -0.278885 0
M  V30 8 C 2.227557 -1.412614 -0.353865 0
M  V30 9 N 2.059955 -0.455542 -1.392556 0
M  V30 10 C 0.861450 0.292743 -1.219944 0
M  V30 11 N 0.787035 1.470578 -0.539499 0
M  V30 12 C -0.410490 2.122713 -0.408077 0
M  V30 13 N -0.475387 3.345210 0.317203 0
M  V30 14 C 0.143956 3.012786 1.587093 0
M  V30 15 C -0.251188 2.411297 2.759560 0
M  V30 16 C 0.842257 2.371350 3.622795 0
M  V30 17 C 0.702074 1.759725 4.954714 0
M  V30 18 N 1.862458 2.945294 2.965572 0
M  V30 19 N 1.449139 3.321955 1.767432 0
M  V30 20 C -1.543948 1.548601 -0.989204 0
M  V30 21 C -1.485766 0.360160 -1.682975 0
M  V30 22 N -2.568365 -0.299850 -2.316277 0
M  V30 23 C -3.876617 0.200925 -2.643790 0
M  V30 24 C -4.906676 -0.672056 -1.946273 0
M  V30 25 O -4.627870 -2.024082 -2.044329 0
M  V30 26 C -3.692305 -2.294345 -3.042216 0
M  V30 27 C -2.361846 -1.712290 -2.696388 0
M  V30 28 N -0.278106 -0.188313 -1.749655 0
M  V30 29 C 1.333628 -1.646668 0.693832 0
M  V30 30 C 1.442403 -2.541741 1.720345 0
M  V30 31 H 3.000432 -5.491895 5.193496 0
M  V30 32 H 1.423209 -4.819119 5.757246 0
M  V30 33 H 1.441770 -6.299581 4.719163 0
M  V30 34 H 4.466247 -3.788848 0.719282 0
M  V30 35 H 4.086855 -2.101950 -1.079065 0
M  V30 36 H 2.796993 -0.408803 -2.112438 0
M  V30 37 H -0.740480 4.316639 0.375938 0
M  V30 38 H -1.279937 2.099181 2.770098 0
M  V30 39 H -0.202340 2.083387 5.505310 0
M  V30 40 H 1.558317 1.968710 5.620723 0
M  V30 41 H 0.633688 0.631223 4.908144 0
M  V30 42 H 2.815270 3.038705 3.426676 0
M  V30 43 H -2.504906 2.027416 -0.912335 0
M  V30 44 H -4.033538 1.242484 -2.250824 0
M  V30 45 H -4.041650 0.223480 -3.763766 0
M  V30 46 H -5.889039 -0.531960 -2.476905 0
M  V30 47 H -4.968556 -0.358477 -0.896415 0
M  V30 48 H -4.005307 -1.908156 -4.030124 0
M  V30 49 H -3.549367 -3.409328 -3.092748 0
M  V30 50 H -1.684236 -1.728021 -3.564079 0
M  V30 51 H -1.860888 -2.267287 -1.873838 0
M  V30 52 H 0.433904 -1.029279 0.684771 0
M  V30 53 H 0.660321 -2.609484 2.467229 0
M  V30 END ATOM
M  V30 BEGIN BOND
M  V30 1 1 1 2
M  V30 2 1 2 3
M  V30 3 2 3 4
M  V30 4 1 3 5
M  V30 5 2 5 6
M  V30 6 1 6 7
M  V30 7 2 7 8
M  V30 8 1 8 9
M  V30 9 1 9 10
M  V30 10 2 10 11
M  V30 11 1 11 12
M  V30 12 1 12 13
M  V30 13 1 13 14
M  V30 14 1 14 15
M  V30 15 2 15 16
M  V30 16 1 16 17
M  V30 17 1 16 18
M  V30 18 1 18 19
M  V30 19 2 12 20
M  V30 20 1 20 21
M  V30 21 1 21 22
M  V30 22 1 22 23
M  V30 23 1 23 24
M  V30 24 1 24 25
M  V30 25 1 25 26
M  V30 26 1 26 27
M  V30 27 2 21 28
M  V30 28 1 8 29
M  V30 29 2 29 30
M  V30 30 1 30 5
M  V30 31 1 28 10
M  V30 32 2 19 14
M  V30 33 1 27 22
M  V30 34 1 1 31
M  V30 35 1 1 32
M  V30 36 1 1 33
M  V30 37 1 6 34
M  V30 38 1 7 35
M  V30 39 1 9 36
M  V30 40 1 13 37
M  V30 41 1 15 38
M  V30 42 1 17 39
M  V30 43 1 17 40
M  V30 44 1 17 41
M  V30 45 1 18 42
M  V30 46 1 20 43
M  V30 47 1 23 44
M  V30 48 1 23 45
M  V30 49 1 24 46
M  V30 50 1 24 47
M  V30 51 1 26 48
M  V30 52 1 26 49
M  V30 53 1 27 50
M  V30 54 1 27 51
M  V30 55 1 29 52
M  V30 56 1 30 53
M  V30 END BOND
M  V30 END CTAB
M  END
>  <Dataset>  (370) 
ChEMBL_Kinases

>  <Ligand_Instance>  (370) 
nan

>  <PDB_ID>  (370) 
nan

>  <Standardized_SMILES>  (370) 
COC(=O)c1ccc(Nc2nc(Nc3cc(C)[nH]n3)cc(N3CCOCC3)n2)cc1

>  <Name>  (370) 
nan

>  <Pocket>  (370) 
nan

>  <ATP_Site>  (370) 
nan

>  <Peripheral>  (370) 
nan

>  <Num_H_Atoms_ProtBoundConf>  (370) 
nan

>  <Num_Resolved_Atoms>  (370) 
nan

>  <Num_Not_Resolved_Atoms>  (370) 
nan

$$$$
CHEMBL3237173
     RDKit          3D

  0  0  0  0  0  0  0  0  0  0999 V3000
M  V30 BEGIN CTAB
M  V30 COUNTS 54 57 0 0 0
M  V30 BEGIN ATOM
M  V30 1 C 3.140185 -6.921265 -3.519528 0
M  V30 2 O 2.667338 -5.697100 -2.936722 0
M  V30 3 C 3.535886 -4.671373 -2.614229 0
M  V30 4 O 4.673346 -5.086379 -2.943034 0
M  V30 5 C 3.168287 -3.400338 -2.022906 0
M  V30 6 C 4.089653 -2.429989 -1.742572 0
M  V30 7 C 3.661765 -1.266455 -1.187497 0
M  V30 8 C 2.357562 -0.970283 -0.875379 0
M  V30 9 N 1.989248 0.264266 -0.302676 0
M  V30 10 C 0.719995 0.697977 0.155496 0
M  V30 11 N 0.583644 1.952657 0.644691 0
M  V30 12 C -0.587819 2.412451 1.098450 0
M  V30 13 N -0.823616 3.706679 1.638639 0
M  V30 14 C -0.338441 3.526745 2.983305 0
M  V30 15 C -0.732817 2.965898 4.174280 0
M  V30 16 C 0.237338 3.164077 5.127198 0
M  V30 17 C 0.171928 2.694037 6.532320 0
M  V30 18 N 1.212629 3.845609 4.500292 0
M  V30 19 N 0.872482 4.064806 3.217648 0
M  V30 20 C -1.715854 1.625700 1.086627 0
M  V30 21 C -1.601349 0.343182 0.592813 0
M  V30 22 N -2.669398 -0.586202 0.487715 0
M  V30 23 C -4.056394 -0.213459 0.385768 0
M  V30 24 C -4.878037 -1.429023 0.103485 0
M  V30 25 N -4.351890 -2.298178 -0.924657 0
M  V30 26 C -2.950726 -2.582101 -0.802106 0
M  V30 27 C -2.382588 -2.004810 0.498670 0
M  V30 28 N -0.391106 -0.043134 0.157358 0
M  V30 29 C 1.466293 -1.985039 -1.178559 0
M  V30 30 C 1.832989 -3.217089 -1.754497 0
M  V30 31 H 4.025791 -6.754794 -4.173767 0
M  V30 32 H 3.423055 -7.621853 -2.704770 0
M  V30 33 H 2.297356 -7.319903 -4.117319 0
M  V30 34 H 5.110779 -2.642562 -1.977887 0
M  V30 35 H 4.433213 -0.527466 -0.983572 0
M  V30 36 H 2.787807 0.963017 -0.206615 0
M  V30 37 H -1.207455 4.637865 1.361322 0
M  V30 38 H -1.685232 2.478970 4.192416 0
M  V30 39 H -0.565308 1.858506 6.574910 0
M  V30 40 H -0.065278 3.513087 7.217872 0
M  V30 41 H 1.175302 2.283246 6.794226 0
M  V30 42 H 2.079906 4.111674 5.052203 0
M  V30 43 H -2.701394 1.908579 1.428497 0
M  V30 44 H -4.163033 0.570594 -0.399777 0
M  V30 45 H -4.367470 0.191154 1.381642 0
M  V30 46 H -5.887013 -1.097909 -0.256586 0
M  V30 47 H -4.995529 -2.029414 1.030947 0
M  V30 48 H -4.696175 -2.122288 -1.878140 0
M  V30 49 H -2.783744 -3.679745 -0.824102 0
M  V30 50 H -2.381384 -2.155955 -1.651347 0
M  V30 51 H -1.331780 -2.266690 0.598724 0
M  V30 52 H -3.016961 -2.432731 1.324793 0
M  V30 53 H 0.413223 -1.880062 -0.985607 0
M  V30 54 H 1.091751 -3.970640 -1.969758 0
M  V30 END ATOM
M  V30 BEGIN BOND
M  V30 1 1 1 2
M  V30 2 1 2 3
M  V30 3 2 3 4
M  V30 4 1 3 5
M  V30 5 2 5 6
M  V30 6 1 6 7
M  V30 7 2 7 8
M  V30 8 1 8 9
M  V30 9 1 9 10
M  V30 10 2 10 11
M  V30 11 1 11 12
M  V30 12 1 12 13
M  V30 13 1 13 14
M  V30 14 1 14 15
M  V30 15 2 15 16
M  V30 16 1 16 17
M  V30 17 1 16 18
M  V30 18 1 18 19
M  V30 19 2 12 20
M  V30 20 1 20 21
M  V30 21 1 21 22
M  V30 22 1 22 23
M  V30 23 1 23 24
M  V30 24 1 24 25
M  V30 25 1 25 26
M  V30 26 1 26 27
M  V30 27 2 21 28
M  V30 28 1 8 29
M  V30 29 2 29 30
M  V30 30 1 30 5
M  V30 31 1 28 10
M  V30 32 2 19 14
M  V30 33 1 27 22
M  V30 34 1 1 31
M  V30 35 1 1 32
M  V30 36 1 1 33
M  V30 37 1 6 34
M  V30 38 1 7 35
M  V30 39 1 9 36
M  V30 40 1 13 37
M  V30 41 1 15 38
M  V30 42 1 17 39
M  V30 43 1 17 40
M  V30 44 1 17 41
M  V30 45 1 18 42
M  V30 46 1 20 43
M  V30 47 1 23 44
M  V30 48 1 23 45
M  V30 49 1 24 46
M  V30 50 1 24 47
M  V30 51 1 25 48
M  V30 52 1 26 49
M  V30 53 1 26 50
M  V30 54 1 27 51
M  V30 55 1 27 52
M  V30 56 1 29 53
M  V30 57 1 30 54
M  V30 END BOND
M  V30 END CTAB
M  END
>  <Dataset>  (371) 
ChEMBL_Kinases

>  <Ligand_Instance>  (371) 
nan

>  <PDB_ID>  (371) 
nan

>  <Standardized_SMILES>  (371) 
COC(=O)c1ccc(Nc2nc(Nc3cc(C)[nH]n3)cc(N3CCNCC3)n2)cc1

>  <Name>  (371) 
nan

>  <Pocket>  (371) 
nan

>  <ATP_Site>  (371) 
nan

>  <Peripheral>  (371) 
nan

>  <Num_H_Atoms_ProtBoundConf>  (371) 
nan

>  <Num_Resolved_Atoms>  (371) 
nan

>  <Num_Not_Resolved_Atoms>  (371) 
nan

$$$$
CHEMBL3237172
     RDKit          3D

  0  0  0  0  0  0  0  0  0  0999 V3000
M  V30 BEGIN CTAB
M  V30 COUNTS 57 60 0 0 0
M  V30 BEGIN ATOM
M  V30 1 C 3.407738 -6.101041 3.342134 0
M  V30 2 O 3.057993 -5.133970 2.372691 0
M  V30 3 C 3.588845 -5.087124 1.085667 0
M  V30 4 O 4.441275 -5.909820 0.652665 0
M  V30 5 C 3.100897 -4.003869 0.220813 0
M  V30 6 C 2.152421 -3.067869 0.658374 0
M  V30 7 C 1.725118 -2.066729 -0.188730 0
M  V30 8 C 2.199778 -1.940884 -1.478411 0
M  V30 9 N 1.736998 -0.889826 -2.334063 0
M  V30 10 C 0.748330 -0.039797 -1.755968 0
M  V30 11 N 1.031551 1.054846 -1.019250 0
M  V30 12 C 0.059647 1.832977 -0.491828 0
M  V30 13 N 0.452904 2.967363 0.272110 0
M  V30 14 C 0.653152 2.861418 1.677220 0
M  V30 15 C 1.034482 3.893430 2.525812 0
M  V30 16 C 1.088305 3.278016 3.775467 0
M  V30 17 C 1.466627 4.050754 4.991244 0
M  V30 18 N 0.764886 1.982355 3.680346 0
M  V30 19 N 0.507436 1.760663 2.402143 0
M  V30 20 C -1.246189 1.466911 -0.734329 0
M  V30 21 C -1.566965 0.358992 -1.480113 0
M  V30 22 N -2.898190 -0.044718 -1.744463 0
M  V30 23 C -4.087176 0.590423 -1.227153 0
M  V30 24 C -4.784325 -0.393707 -0.270826 0
M  V30 25 N -4.582483 -1.757868 -0.749928 0
M  V30 26 C -3.480829 -2.368237 -0.037857 0
M  V30 27 C -4.442625 -1.813738 -2.175018 0
M  V30 28 C -3.157481 -1.183137 -2.601954 0
M  V30 29 N -0.547487 -0.346189 -1.958461 0
M  V30 30 C 3.130730 -2.874221 -1.882021 0
M  V30 31 C 3.596412 -3.896912 -1.082149 0
M  V30 32 H 3.620887 -7.097673 2.865332 0
M  V30 33 H 2.542871 -6.196563 4.033296 0
M  V30 34 H 4.272071 -5.768110 3.958003 0
M  V30 35 H 1.763570 -3.151221 1.679193 0
M  V30 36 H 0.987291 -1.374186 0.217925 0
M  V30 37 H 2.170758 -0.851639 -3.297754 0
M  V30 38 H 0.576215 3.845168 -0.266680 0
M  V30 39 H 1.232426 4.922097 2.232473 0
M  V30 40 H 0.878667 4.991631 5.067303 0
M  V30 41 H 1.292890 3.404444 5.879631 0
M  V30 42 H 2.554914 4.271769 4.946595 0
M  V30 43 H 0.733757 1.301257 4.497080 0
M  V30 44 H -2.001313 2.082047 -0.317459 0
M  V30 45 H -3.920722 1.503063 -0.654249 0
M  V30 46 H -4.793391 0.859786 -2.066838 0
M  V30 47 H -4.293786 -0.257935 0.711699 0
M  V30 48 H -5.859891 -0.114891 -0.266202 0
M  V30 49 H -2.839956 -2.950758 -0.730795 0
M  V30 50 H -3.859250 -3.001906 0.801279 0
M  V30 51 H -2.813582 -1.616305 0.455908 0
M  V30 52 H -4.381299 -2.887610 -2.456900 0
M  V30 53 H -5.334662 -1.343173 -2.645493 0
M  V30 54 H -3.157042 -0.887743 -3.679891 0
M  V30 55 H -2.328323 -1.927052 -2.415080 0
M  V30 56 H 3.542428 -2.821825 -2.899109 0
M  V30 57 H 4.324712 -4.624920 -1.402341 0
M  V30 END ATOM
M  V30 BEGIN BOND
M  V30 1 1 1 2
M  V30 2 1 2 3
M  V30 3 2 3 4
M  V30 4 1 3 5
M  V30 5 2 5 6
M  V30 6 1 6 7
M  V30 7 2 7 8
M  V30 8 1 8 9
M  V30 9 1 9 10
M  V30 10 2 10 11
M  V30 11 1 11 12
M  V30 12 1 12 13
M  V30 13 1 13 14
M  V30 14 1 14 15
M  V30 15 2 15 16
M  V30 16 1 16 17
M  V30 17 1 16 18
M  V30 18 1 18 19
M  V30 19 2 12 20
M  V30 20 1 20 21
M  V30 21 1 21 22
M  V30 22 1 22 23
M  V30 23 1 23 24
M  V30 24 1 24 25
M  V30 25 1 25 26
M  V30 26 1 25 27
M  V30 27 1 27 28
M  V30 28 2 21 29
M  V30 29 1 8 30
M  V30 30 2 30 31
M  V30 31 1 31 5
M  V30 32 1 29 10
M  V30 33 2 19 14
M  V30 34 1 28 22
M  V30 35 1 1 32
M  V30 36 1 1 33
M  V30 37 1 1 34
M  V30 38 1 6 35
M  V30 39 1 7 36
M  V30 40 1 9 37
M  V30 41 1 13 38
M  V30 42 1 15 39
M  V30 43 1 17 40
M  V30 44 1 17 41
M  V30 45 1 17 42
M  V30 46 1 18 43
M  V30 47 1 20 44
M  V30 48 1 23 45
M  V30 49 1 23 46
M  V30 50 1 24 47
M  V30 51 1 24 48
M  V30 52 1 26 49
M  V30 53 1 26 50
M  V30 54 1 26 51
M  V30 55 1 27 52
M  V30 56 1 27 53
M  V30 57 1 28 54
M  V30 58 1 28 55
M  V30 59 1 30 56
M  V30 60 1 31 57
M  V30 END BOND
M  V30 END CTAB
M  END
>  <Dataset>  (372) 
ChEMBL_Kinases

>  <Ligand_Instance>  (372) 
nan

>  <PDB_ID>  (372) 
nan

>  <Standardized_SMILES>  (372) 
COC(=O)c1ccc(Nc2nc(Nc3cc(C)[nH]n3)cc(N3CCN(C)CC3)n2)cc1

>  <Name>  (372) 
nan

>  <Pocket>  (372) 
nan

>  <ATP_Site>  (372) 
nan

>  <Peripheral>  (372) 
nan

>  <Num_H_Atoms_ProtBoundConf>  (372) 
nan

>  <Num_Resolved_Atoms>  (372) 
nan

>  <Num_Not_Resolved_Atoms>  (372) 
nan

$$$$
CHEMBL3237171
     RDKit          3D

  0  0  0  0  0  0  0  0  0  0999 V3000
M  V30 BEGIN CTAB
M  V30 COUNTS 56 59 0 0 0
M  V30 BEGIN ATOM
M  V30 1 C 2.435273 -5.135046 3.524396 0
M  V30 2 O 2.526899 -3.968550 2.751691 0
M  V30 3 C 3.035825 -3.857982 1.484185 0
M  V30 4 O 3.468097 -4.914735 0.955821 0
M  V30 5 C 3.010349 -2.516393 0.905432 0
M  V30 6 C 2.518527 -1.399045 1.550827 0
M  V30 7 C 2.542769 -0.177563 0.920839 0
M  V30 8 C 3.054386 -0.010520 -0.372987 0
M  V30 9 C 2.973557 1.392873 -0.802615 0
M  V30 10 N 1.760048 1.776035 -1.448456 0
M  V30 11 C 0.425053 1.644004 -0.978421 0
M  V30 12 N -0.203909 2.269212 0.003105 0
M  V30 13 C -1.488946 2.064005 0.332890 0
M  V30 14 N -1.869662 2.862710 1.446633 0
M  V30 15 C -1.699707 2.139697 2.687718 0
M  V30 16 C -1.269288 0.838137 2.838805 0
M  V30 17 C -1.231188 0.485272 4.194045 0
M  V30 18 C -0.844667 -0.788891 4.851402 0
M  V30 19 N -1.645038 1.603146 4.811916 0
M  V30 20 N -1.918894 2.567315 3.943308 0
M  V30 21 C -2.212031 1.146577 -0.390977 0
M  V30 22 C -1.603150 0.471196 -1.421753 0
M  V30 23 N -2.358351 -0.477710 -2.185830 0
M  V30 24 C -1.514702 -1.315421 -3.048653 0
M  V30 25 C -2.259250 -2.521125 -3.547399 0
M  V30 26 O -3.603391 -2.214215 -3.823389 0
M  V30 27 C -4.278426 -1.882975 -2.663514 0
M  V30 28 C -3.802399 -0.561844 -2.095903 0
M  V30 29 N -0.315726 0.756951 -1.659279 0
M  V30 30 C 3.543095 -1.129687 -1.011600 0
M  V30 31 C 3.520716 -2.366821 -0.378631 0
M  V30 32 H 1.916378 -5.974135 3.053661 0
M  V30 33 H 3.436406 -5.449315 3.942560 0
M  V30 34 H 1.833022 -4.887470 4.441787 0
M  V30 35 H 2.131779 -1.562301 2.544503 0
M  V30 36 H 2.122640 0.617123 1.546260 0
M  V30 37 H 3.280923 2.065823 0.007835 0
M  V30 38 H 3.783450 1.512629 -1.594334 0
M  V30 39 H 1.717013 2.230528 -2.408272 0
M  V30 40 H -2.229552 3.829092 1.532851 0
M  V30 41 H -0.981999 0.120162 2.074450 0
M  V30 42 H -0.573182 -1.560320 4.072479 0
M  V30 43 H 0.010004 -0.676594 5.528175 0
M  V30 44 H -1.701017 -1.239331 5.408502 0
M  V30 45 H -1.726898 1.669006 5.845869 0
M  V30 46 H -3.233728 1.037928 -0.068656 0
M  V30 47 H -0.581069 -1.603477 -2.518529 0
M  V30 48 H -1.223155 -0.705778 -3.925929 0
M  V30 49 H -2.259827 -3.313480 -2.742995 0
M  V30 50 H -1.759528 -2.974982 -4.423176 0
M  V30 51 H -4.181033 -2.687980 -1.882443 0
M  V30 52 H -5.333994 -1.729625 -2.945493 0
M  V30 53 H -4.160064 -0.475888 -1.038665 0
M  V30 54 H -4.198590 0.252946 -2.742992 0
M  V30 55 H 3.915137 -0.899844 -2.001203 0
M  V30 56 H 3.924522 -3.179188 -0.957006 0
M  V30 END ATOM
M  V30 BEGIN BOND
M  V30 1 1 1 2
M  V30 2 1 2 3
M  V30 3 2 3 4
M  V30 4 1 3 5
M  V30 5 2 5 6
M  V30 6 1 6 7
M  V30 7 2 7 8
M  V30 8 1 8 9
M  V30 9 1 9 10
M  V30 10 1 10 11
M  V30 11 2 11 12
M  V30 12 1 12 13
M  V30 13 1 13 14
M  V30 14 1 14 15
M  V30 15 1 15 16
M  V30 16 2 16 17
M  V30 17 1 17 18
M  V30 18 1 17 19
M  V30 19 1 19 20
M  V30 20 2 13 21
M  V30 21 1 21 22
M  V30 22 1 22 23
M  V30 23 1 23 24
M  V30 24 1 24 25
M  V30 25 1 25 26
M  V30 26 1 26 27
M  V30 27 1 27 28
M  V30 28 2 22 29
M  V30 29 1 8 30
M  V30 30 2 30 31
M  V30 31 1 31 5
M  V30 32 1 29 11
M  V30 33 2 20 15
M  V30 34 1 28 23
M  V30 35 1 1 32
M  V30 36 1 1 33
M  V30 37 1 1 34
M  V30 38 1 6 35
M  V30 39 1 7 36
M  V30 40 1 9 37
M  V30 41 1 9 38
M  V30 42 1 10 39
M  V30 43 1 14 40
M  V30 44 1 16 41
M  V30 45 1 18 42
M  V30 46 1 18 43
M  V30 47 1 18 44
M  V30 48 1 19 45
M  V30 49 1 21 46
M  V30 50 1 24 47
M  V30 51 1 24 48
M  V30 52 1 25 49
M  V30 53 1 25 50
M  V30 54 1 27 51
M  V30 55 1 27 52
M  V30 56 1 28 53
M  V30 57 1 28 54
M  V30 58 1 30 55
M  V30 59 1 31 56
M  V30 END BOND
M  V30 END CTAB
M  END
>  <Dataset>  (373) 
ChEMBL_Kinases

>  <Ligand_Instance>  (373) 
nan

>  <PDB_ID>  (373) 
nan

>  <Standardized_SMILES>  (373) 
COC(=O)c1ccc(CNc2nc(Nc3cc(C)[nH]n3)cc(N3CCOCC3)n2)cc1

>  <Name>  (373) 
nan

>  <Pocket>  (373) 
nan

>  <ATP_Site>  (373) 
nan

>  <Peripheral>  (373) 
nan

>  <Num_H_Atoms_ProtBoundConf>  (373) 
nan

>  <Num_Resolved_Atoms>  (373) 
nan

>  <Num_Not_Resolved_Atoms>  (373) 
nan

$$$$
CHEMBL3237170
     RDKit          3D

  0  0  0  0  0  0  0  0  0  0999 V3000
M  V30 BEGIN CTAB
M  V30 COUNTS 60 63 0 0 0
M  V30 BEGIN ATOM
M  V30 1 C 0.647219 -3.831363 5.602503 0
M  V30 2 O 1.307035 -2.965305 4.714665 0
M  V30 3 C 1.898653 -3.332756 3.521842 0
M  V30 4 O 1.780525 -4.565914 3.324042 0
M  V30 5 C 2.550141 -2.338246 2.681335 0
M  V30 6 C 2.567194 -1.012207 3.021714 0
M  V30 7 C 3.210222 -0.067080 2.247131 0
M  V30 8 C 3.855619 -0.487242 1.090553 0
M  V30 9 C 4.480923 0.676676 0.366276 0
M  V30 10 N 3.584029 1.174874 -0.654531 0
M  V30 11 C 2.216418 1.332163 -0.239852 0
M  V30 12 N 1.345015 2.286592 0.224027 0
M  V30 13 C 0.069560 1.926059 0.484970 0
M  V30 14 N -0.787974 2.970450 0.921493 0
M  V30 15 C -1.996674 2.892436 0.148006 0
M  V30 16 C -3.293437 2.577387 0.444181 0
M  V30 17 C -4.101048 2.627031 -0.657972 0
M  V30 18 C -5.516239 2.403430 -0.940572 0
M  V30 19 N -3.274755 2.983816 -1.656668 0
M  V30 20 N -2.041495 3.141226 -1.193506 0
M  V30 21 C -0.345084 0.638114 0.295769 0
M  V30 22 C 0.525468 -0.315186 -0.163859 0
M  V30 23 N -0.062601 -1.611028 -0.278544 0
M  V30 24 C -1.207683 -2.124422 0.390672 0
M  V30 25 C -2.090972 -2.896321 -0.564775 0
M  V30 26 N -1.881283 -2.541067 -1.954532 0
M  V30 27 C -2.725919 -3.439714 -2.716180 0
M  V30 28 C -0.513344 -2.752026 -2.383662 0
M  V30 29 C 0.444997 -2.642879 -1.199708 0
M  V30 30 N 1.784599 0.055842 -0.423327 0
M  V30 31 C 3.865740 -1.829954 0.696161 0
M  V30 32 C 3.206494 -2.745836 1.504837 0
M  V30 33 H 0.887396 -4.893080 5.342558 0
M  V30 34 H -0.467720 -3.666010 5.576111 0
M  V30 35 H 0.942677 -3.585396 6.656545 0
M  V30 36 H 2.064558 -0.658498 3.931358 0
M  V30 37 H 3.179291 0.966427 2.586373 0
M  V30 38 H 5.396461 0.284712 -0.137982 0
M  V30 39 H 4.785684 1.477480 1.050549 0
M  V30 40 H 3.885921 1.415540 -1.630033 0
M  V30 41 H -0.592920 3.681994 1.671284 0
M  V30 42 H -3.665328 2.318869 1.423159 0
M  V30 43 H -6.071776 1.891675 -0.110642 0
M  V30 44 H -5.988111 3.408926 -1.163807 0
M  V30 45 H -5.628848 1.772254 -1.824549 0
M  V30 46 H -3.375428 3.161974 -2.703644 0
M  V30 47 H -1.366617 0.493547 0.536159 0
M  V30 48 H -1.832737 -1.413970 0.935367 0
M  V30 49 H -0.822465 -2.883150 1.132807 0
M  V30 50 H -1.957669 -3.998266 -0.451035 0
M  V30 51 H -3.158010 -2.673811 -0.335983 0
M  V30 52 H -2.274978 -4.465318 -2.584280 0
M  V30 53 H -3.732517 -3.483428 -2.219291 0
M  V30 54 H -2.763029 -3.216035 -3.778668 0
M  V30 55 H -0.217848 -1.931803 -3.083057 0
M  V30 56 H -0.340566 -3.720388 -2.862757 0
M  V30 57 H 0.538762 -3.621251 -0.694780 0
M  V30 58 H 1.424787 -2.364231 -1.624236 0
M  V30 59 H 4.390738 -2.040883 -0.217258 0
M  V30 60 H 3.215626 -3.790394 1.192112 0
M  V30 END ATOM
M  V30 BEGIN BOND
M  V30 1 1 1 2
M  V30 2 1 2 3
M  V30 3 2 3 4
M  V30 4 1 3 5
M  V30 5 2 5 6
M  V30 6 1 6 7
M  V30 7 2 7 8
M  V30 8 1 8 9
M  V30 9 1 9 10
M  V30 10 1 10 11
M  V30 11 2 11 12
M  V30 12 1 12 13
M  V30 13 1 13 14
M  V30 14 1 14 15
M  V30 15 1 15 16
M  V30 16 2 16 17
M  V30 17 1 17 18
M  V30 18 1 17 19
M  V30 19 1 19 20
M  V30 20 2 13 21
M  V30 21 1 21 22
M  V30 22 1 22 23
M  V30 23 1 23 24
M  V30 24 1 24 25
M  V30 25 1 25 26
M  V30 26 1 26 27
M  V30 27 1 26 28
M  V30 28 1 28 29
M  V30 29 2 22 30
M  V30 30 1 8 31
M  V30 31 2 31 32
M  V30 32 1 32 5
M  V30 33 1 30 11
M  V30 34 2 20 15
M  V30 35 1 29 23
M  V30 36 1 1 33
M  V30 37 1 1 34
M  V30 38 1 1 35
M  V30 39 1 6 36
M  V30 40 1 7 37
M  V30 41 1 9 38
M  V30 42 1 9 39
M  V30 43 1 10 40
M  V30 44 1 14 41
M  V30 45 1 16 42
M  V30 46 1 18 43
M  V30 47 1 18 44
M  V30 48 1 18 45
M  V30 49 1 19 46
M  V30 50 1 21 47
M  V30 51 1 24 48
M  V30 52 1 24 49
M  V30 53 1 25 50
M  V30 54 1 25 51
M  V30 55 1 27 52
M  V30 56 1 27 53
M  V30 57 1 27 54
M  V30 58 1 28 55
M  V30 59 1 28 56
M  V30 60 1 29 57
M  V30 61 1 29 58
M  V30 62 1 31 59
M  V30 63 1 32 60
M  V30 END BOND
M  V30 END CTAB
M  END
>  <Dataset>  (374) 
ChEMBL_Kinases

>  <Ligand_Instance>  (374) 
nan

>  <PDB_ID>  (374) 
nan

>  <Standardized_SMILES>  (374) 
COC(=O)c1ccc(CNc2nc(Nc3cc(C)[nH]n3)cc(N3CCN(C)CC3)n2)cc1

>  <Name>  (374) 
nan

>  <Pocket>  (374) 
nan

>  <ATP_Site>  (374) 
nan

>  <Peripheral>  (374) 
nan

>  <Num_H_Atoms_ProtBoundConf>  (374) 
nan

>  <Num_Resolved_Atoms>  (374) 
nan

>  <Num_Not_Resolved_Atoms>  (374) 
nan

$$$$
CHEMBL3237169
     RDKit          3D

  0  0  0  0  0  0  0  0  0  0999 V3000
M  V30 BEGIN CTAB
M  V30 COUNTS 57 60 0 0 0
M  V30 BEGIN ATOM
M  V30 1 C 4.188918 -2.591210 6.887874 0
M  V30 2 O 3.680199 -2.405144 5.588346 0
M  V30 3 C 4.155493 -3.049228 4.448658 0
M  V30 4 O 5.084942 -3.884149 4.363426 0
M  V30 5 C 3.464258 -2.688654 3.193806 0
M  V30 6 C 2.413239 -1.762985 3.142989 0
M  V30 7 C 1.819708 -1.471425 1.924824 0
M  V30 8 C 2.226765 -2.062357 0.750135 0
M  V30 9 N 1.613609 -1.761896 -0.497374 0
M  V30 10 C 0.454548 -0.961223 -0.645202 0
M  V30 11 N 0.353638 0.389009 -0.641158 0
M  V30 12 C -0.859417 0.986064 -0.810831 0
M  V30 13 N -0.945656 2.400963 -0.798440 0
M  V30 14 C 0.174552 3.254343 -0.618360 0
M  V30 15 C 0.571698 3.630458 0.657988 0
M  V30 16 C 1.684712 4.461613 0.560720 0
M  V30 17 C 2.457168 5.103852 1.678901 0
M  V30 18 N 1.922656 4.560405 -0.770798 0
M  V30 19 N 1.048151 3.861875 -1.446414 0
M  V30 20 C -1.979372 0.201591 -0.987030 0
M  V30 21 C -1.874047 -1.172764 -0.991489 0
M  V30 22 N -3.039605 -1.970838 -1.178260 0
M  V30 23 C -4.329198 -1.313961 -1.252895 0
M  V30 24 C -5.326775 -2.367181 -1.686775 0
M  V30 25 N -4.869221 -3.142718 -2.794992 0
M  V30 26 C -5.055838 -2.422688 -4.038996 0
M  V30 27 C -3.600605 -3.770216 -2.645238 0
M  V30 28 C -2.948966 -3.412432 -1.299912 0
M  V30 29 N -0.650837 -1.731580 -0.819002 0
M  V30 30 C 3.251719 -2.960427 0.827717 0
M  V30 31 C 3.892117 -3.299325 2.016336 0
M  V30 32 Cl 5.207076 -4.471104 2.027775 0
M  V30 33 H 3.440241 -2.741906 7.664503 0
M  V30 34 H 4.965470 -3.391279 6.946593 0
M  V30 35 H 4.765079 -1.648387 7.110952 0
M  V30 36 H 2.099785 -1.297047 4.088476 0
M  V30 37 H 1.004419 -0.738077 1.939132 0
M  V30 38 H 2.036961 -2.156152 -1.365776 0
M  V30 39 H -1.880290 2.837348 -0.925883 0
M  V30 40 H 0.184134 3.399121 1.625577 0
M  V30 41 H 3.539324 5.182446 1.370638 0
M  V30 42 H 2.023695 6.035043 2.035338 0
M  V30 43 H 2.468388 4.397956 2.559757 0
M  V30 44 H 2.684526 5.106138 -1.225401 0
M  V30 45 H -2.923900 0.708773 -1.118546 0
M  V30 46 H -4.614900 -1.042589 -0.195246 0
M  V30 47 H -4.368817 -0.464972 -1.946677 0
M  V30 48 H -6.240131 -1.820085 -1.992079 0
M  V30 49 H -5.624431 -3.042065 -0.858533 0
M  V30 50 H -4.153868 -1.897505 -4.395416 0
M  V30 51 H -5.890927 -1.678329 -3.881755 0
M  V30 52 H -5.462806 -3.122658 -4.802732 0
M  V30 53 H -2.910152 -3.334270 -3.422313 0
M  V30 54 H -3.617953 -4.864633 -2.817504 0
M  V30 55 H -1.863990 -3.674703 -1.332348 0
M  V30 56 H -3.430745 -3.958596 -0.457972 0
M  V30 57 H 3.647273 -3.483994 -0.058027 0
M  V30 END ATOM
M  V30 BEGIN BOND
M  V30 1 1 1 2
M  V30 2 1 2 3
M  V30 3 2 3 4
M  V30 4 1 3 5
M  V30 5 2 5 6
M  V30 6 1 6 7
M  V30 7 2 7 8
M  V30 8 1 8 9
M  V30 9 1 9 10
M  V30 10 2 10 11
M  V30 11 1 11 12
M  V30 12 1 12 13
M  V30 13 1 13 14
M  V30 14 1 14 15
M  V30 15 2 15 16
M  V30 16 1 16 17
M  V30 17 1 16 18
M  V30 18 1 18 19
M  V30 19 2 12 20
M  V30 20 1 20 21
M  V30 21 1 21 22
M  V30 22 1 22 23
M  V30 23 1 23 24
M  V30 24 1 24 25
M  V30 25 1 25 26
M  V30 26 1 25 27
M  V30 27 1 27 28
M  V30 28 2 21 29
M  V30 29 1 8 30
M  V30 30 2 30 31
M  V30 31 1 31 32
M  V30 32 1 31 5
M  V30 33 1 29 10
M  V30 34 2 19 14
M  V30 35 1 28 22
M  V30 36 1 1 33
M  V30 37 1 1 34
M  V30 38 1 1 35
M  V30 39 1 6 36
M  V30 40 1 7 37
M  V30 41 1 9 38
M  V30 42 1 13 39
M  V30 43 1 15 40
M  V30 44 1 17 41
M  V30 45 1 17 42
M  V30 46 1 17 43
M  V30 47 1 18 44
M  V30 48 1 20 45
M  V30 49 1 23 46
M  V30 50 1 23 47
M  V30 51 1 24 48
M  V30 52 1 24 49
M  V30 53 1 26 50
M  V30 54 1 26 51
M  V30 55 1 26 52
M  V30 56 1 27 53
M  V30 57 1 27 54
M  V30 58 1 28 55
M  V30 59 1 28 56
M  V30 60 1 30 57
M  V30 END BOND
M  V30 END CTAB
M  END
>  <Dataset>  (375) 
ChEMBL_Kinases

>  <Ligand_Instance>  (375) 
nan

>  <PDB_ID>  (375) 
nan

>  <Standardized_SMILES>  (375) 
COC(=O)c1ccc(Nc2nc(Nc3cc(C)[nH]n3)cc(N3CCN(C)CC3)n2)cc1Cl

>  <Name>  (375) 
nan

>  <Pocket>  (375) 
nan

>  <ATP_Site>  (375) 
nan

>  <Peripheral>  (375) 
nan

>  <Num_H_Atoms_ProtBoundConf>  (375) 
nan

>  <Num_Resolved_Atoms>  (375) 
nan

>  <Num_Not_Resolved_Atoms>  (375) 
nan

$$$$
CHEMBL3237168
     RDKit          3D

  0  0  0  0  0  0  0  0  0  0999 V3000
M  V30 BEGIN CTAB
M  V30 COUNTS 49 52 0 0 0
M  V30 BEGIN ATOM
M  V30 1 C -1.364614 -4.284761 4.668094 0
M  V30 2 C -0.227401 -3.874947 3.773131 0
M  V30 3 C 0.202109 -2.564384 3.718240 0
M  V30 4 C 1.255852 -2.559570 2.797229 0
M  V30 5 N 1.944527 -1.353749 2.489923 0
M  V30 6 C 1.538554 -0.485777 1.435913 0
M  V30 7 C 2.182009 0.686751 1.112863 0
M  V30 8 C 1.681190 1.424714 0.072956 0
M  V30 9 N 2.286387 2.649768 -0.326163 0
M  V30 10 C 3.434723 3.242556 0.276806 0
M  V30 11 C 3.398490 4.736331 0.367195 0
M  V30 12 O 2.598408 5.375479 -0.527186 0
M  V30 13 C 1.389546 4.773236 -0.804188 0
M  V30 14 C 1.751802 3.422122 -1.430741 0
M  V30 15 N 0.599699 0.992696 -0.587927 0
M  V30 16 C -0.055655 -0.143323 -0.304405 0
M  V30 17 N -1.194411 -0.522243 -1.059849 0
M  V30 18 C -2.002772 -1.650564 -0.924185 0
M  V30 19 C -3.084484 -1.863160 -1.759091 0
M  V30 20 C -3.913572 -2.954999 -1.671321 0
M  V30 21 C -3.695726 -3.917902 -0.715317 0
M  V30 22 N -4.577522 -5.031265 -0.659658 0 CHG=1 VAL=4
M  V30 23 O -4.370753 -5.913449 0.222546 0
M  V30 24 O -5.647246 -5.239427 -1.486835 0 CHG=-1 VAL=1
M  V30 25 C -2.636210 -3.776413 0.154748 0
M  V30 26 C -1.849656 -2.655391 0.004747 0
M  V30 27 N 0.464801 -0.834179 0.716786 0
M  V30 28 N 1.414226 -3.829901 2.347457 0
M  V30 29 N 0.518231 -4.621652 2.937670 0
M  V30 30 H -1.350146 -5.396623 4.687166 0
M  V30 31 H -2.304785 -3.975252 4.192743 0
M  V30 32 H -1.202709 -3.860650 5.685883 0
M  V30 33 H -0.191064 -1.702634 4.273469 0
M  V30 34 H 2.764380 -1.149932 3.087747 0
M  V30 35 H 3.034546 0.977693 1.672447 0
M  V30 36 H 3.665243 2.877792 1.299603 0
M  V30 37 H 4.309862 2.923590 -0.353653 0
M  V30 38 H 3.051153 5.064436 1.391076 0
M  V30 39 H 4.431873 5.130053 0.271828 0
M  V30 40 H 0.762869 4.595465 0.107000 0
M  V30 41 H 0.847621 5.361238 -1.541520 0
M  V30 42 H 0.883190 2.971252 -1.926636 0
M  V30 43 H 2.567511 3.674057 -2.169465 0
M  V30 44 H -1.468453 0.146462 -1.835862 0
M  V30 45 H -3.332071 -1.142747 -2.552685 0
M  V30 46 H -4.748337 -3.070556 -2.353640 0
M  V30 47 H -2.462572 -4.524627 0.901593 0
M  V30 48 H -1.038409 -2.604179 0.715720 0
M  V30 49 H 0.332663 -5.628884 2.853343 0
M  V30 END ATOM
M  V30 BEGIN BOND
M  V30 1 1 1 2
M  V30 2 2 2 3
M  V30 3 1 3 4
M  V30 4 1 4 5
M  V30 5 1 5 6
M  V30 6 2 6 7
M  V30 7 1 7 8
M  V30 8 1 8 9
M  V30 9 1 9 10
M  V30 10 1 10 11
M  V30 11 1 11 12
M  V30 12 1 12 13
M  V30 13 1 13 14
M  V30 14 2 8 15
M  V30 15 1 15 16
M  V30 16 1 16 17
M  V30 17 1 17 18
M  V30 18 2 18 19
M  V30 19 1 19 20
M  V30 20 2 20 21
M  V30 21 1 21 22
M  V30 22 2 22 23
M  V30 23 1 22 24
M  V30 24 1 21 25
M  V30 25 2 25 26
M  V30 26 2 16 27
M  V30 27 2 4 28
M  V30 28 1 28 29
M  V30 29 1 29 2
M  V30 30 1 27 6
M  V30 31 1 14 9
M  V30 32 1 26 18
M  V30 33 1 1 30
M  V30 34 1 1 31
M  V30 35 1 1 32
M  V30 36 1 3 33
M  V30 37 1 5 34
M  V30 38 1 7 35
M  V30 39 1 10 36
M  V30 40 1 10 37
M  V30 41 1 11 38
M  V30 42 1 11 39
M  V30 43 1 13 40
M  V30 44 1 13 41
M  V30 45 1 14 42
M  V30 46 1 14 43
M  V30 47 1 17 44
M  V30 48 1 19 45
M  V30 49 1 20 46
M  V30 50 1 25 47
M  V30 51 1 26 48
M  V30 52 1 29 49
M  V30 END BOND
M  V30 END CTAB
M  END
>  <Dataset>  (376) 
ChEMBL_Kinases

>  <Ligand_Instance>  (376) 
nan

>  <PDB_ID>  (376) 
nan

>  <Standardized_SMILES>  (376) 
Cc1cc(Nc2cc(N3CCOCC3)nc(Nc3ccc([N+](=O)[O-])cc3)n2)n[nH]1

>  <Name>  (376) 
nan

>  <Pocket>  (376) 
nan

>  <ATP_Site>  (376) 
nan

>  <Peripheral>  (376) 
nan

>  <Num_H_Atoms_ProtBoundConf>  (376) 
nan

>  <Num_Resolved_Atoms>  (376) 
nan

>  <Num_Not_Resolved_Atoms>  (376) 
nan

$$$$
CHEMBL3237167
     RDKit          3D

  0  0  0  0  0  0  0  0  0  0999 V3000
M  V30 BEGIN CTAB
M  V30 COUNTS 56 59 0 0 0
M  V30 BEGIN ATOM
M  V30 1 C 3.643139 2.541621 -3.946342 0
M  V30 2 C 3.970000 1.269974 -3.208533 0
M  V30 3 C 3.113920 0.731304 -2.266356 0
M  V30 4 C 3.743247 -0.410796 -1.816220 0
M  V30 5 N 3.246704 -1.312713 -0.831885 0
M  V30 6 C 1.984954 -1.060764 -0.220249 0
M  V30 7 C 1.848472 -0.313253 0.930927 0
M  V30 8 C 0.606138 -0.098244 1.482996 0
M  V30 9 N 0.404530 0.661671 2.665527 0
M  V30 10 C 1.438171 1.308629 3.443644 0
M  V30 11 C 1.121638 2.771620 3.676251 0
M  V30 12 N -0.100647 3.126019 2.952895 0
M  V30 13 C -0.413832 4.510442 3.318269 0
M  V30 14 C -1.166111 2.307410 3.508257 0
M  V30 15 C -0.931854 0.846990 3.198870 0
M  V30 16 N -0.435804 -0.636970 0.862718 0
M  V30 17 C -0.355135 -1.372846 -0.260684 0
M  V30 18 N -1.506248 -1.927256 -0.886020 0
M  V30 19 C -2.210955 -3.156001 -0.752477 0
M  V30 20 C -3.322310 -3.347775 -1.548942 0
M  V30 21 C -3.955920 -4.560118 -1.367412 0
M  V30 22 C -3.520613 -5.516198 -0.461236 0
M  V30 23 S -4.461545 -7.008212 -0.369750 0
M  V30 24 N -5.704423 -6.858062 0.795463 0
M  V30 25 O -5.120599 -7.278337 -1.713782 0
M  V30 26 O -3.596204 -8.193299 -0.085039 0
M  V30 27 C -2.403873 -5.274503 0.310859 0
M  V30 28 C -1.723593 -4.065980 0.169646 0
M  V30 29 N 0.857737 -1.564553 -0.772180 0
M  V30 30 N 4.908620 -0.517406 -2.474795 0
M  V30 31 N 5.071034 0.490298 -3.326298 0
M  V30 32 H 4.467943 2.827393 -4.622128 0
M  V30 33 H 3.336221 3.327682 -3.235465 0
M  V30 34 H 2.745424 2.380994 -4.610995 0
M  V30 35 H 2.148061 1.144859 -1.962179 0
M  V30 36 H 3.809215 -2.149210 -0.566646 0
M  V30 37 H 2.732231 0.095871 1.384781 0
M  V30 38 H 2.456659 1.139410 3.105524 0
M  V30 39 H 1.365078 0.827186 4.463402 0
M  V30 40 H 1.936982 3.435555 3.336533 0
M  V30 41 H 0.933405 3.022378 4.733953 0
M  V30 42 H -0.090608 5.194192 2.523547 0
M  V30 43 H 0.118104 4.798899 4.243317 0
M  V30 44 H -1.510515 4.637282 3.416979 0
M  V30 45 H -1.245781 2.435914 4.612037 0
M  V30 46 H -2.111976 2.693043 3.029955 0
M  V30 47 H -1.692839 0.563176 2.420376 0
M  V30 48 H -1.139160 0.195157 4.069863 0
M  V30 49 H -1.794761 -1.179045 -1.557744 0
M  V30 50 H -3.658016 -2.601021 -2.253205 0
M  V30 51 H -4.837926 -4.753749 -1.975630 0
M  V30 52 H -5.793174 -7.710073 1.396222 0
M  V30 53 H -5.512521 -5.990418 1.366599 0
M  V30 54 H -2.095750 -6.042241 1.004734 0
M  V30 55 H -0.851020 -3.870375 0.769016 0
M  V30 56 H 5.879591 0.678588 -3.978123 0
M  V30 END ATOM
M  V30 BEGIN BOND
M  V30 1 1 1 2
M  V30 2 2 2 3
M  V30 3 1 3 4
M  V30 4 1 4 5
M  V30 5 1 5 6
M  V30 6 2 6 7
M  V30 7 1 7 8
M  V30 8 1 8 9
M  V30 9 1 9 10
M  V30 10 1 10 11
M  V30 11 1 11 12
M  V30 12 1 12 13
M  V30 13 1 12 14
M  V30 14 1 14 15
M  V30 15 2 8 16
M  V30 16 1 16 17
M  V30 17 1 17 18
M  V30 18 1 18 19
M  V30 19 2 19 20
M  V30 20 1 20 21
M  V30 21 2 21 22
M  V30 22 1 22 23
M  V30 23 1 23 24
M  V30 24 2 23 25
M  V30 25 2 23 26
M  V30 26 1 22 27
M  V30 27 2 27 28
M  V30 28 2 17 29
M  V30 29 2 4 30
M  V30 30 1 30 31
M  V30 31 1 31 2
M  V30 32 1 29 6
M  V30 33 1 15 9
M  V30 34 1 28 19
M  V30 35 1 1 32
M  V30 36 1 1 33
M  V30 37 1 1 34
M  V30 38 1 3 35
M  V30 39 1 5 36
M  V30 40 1 7 37
M  V30 41 1 10 38
M  V30 42 1 10 39
M  V30 43 1 11 40
M  V30 44 1 11 41
M  V30 45 1 13 42
M  V30 46 1 13 43
M  V30 47 1 13 44
M  V30 48 1 14 45
M  V30 49 1 14 46
M  V30 50 1 15 47
M  V30 51 1 15 48
M  V30 52 1 18 49
M  V30 53 1 20 50
M  V30 54 1 21 51
M  V30 55 1 24 52
M  V30 56 1 24 53
M  V30 57 1 27 54
M  V30 58 1 28 55
M  V30 59 1 31 56
M  V30 END BOND
M  V30 END CTAB
M  END
>  <Dataset>  (377) 
ChEMBL_Kinases

>  <Ligand_Instance>  (377) 
nan

>  <PDB_ID>  (377) 
nan

>  <Standardized_SMILES>  (377) 
Cc1cc(Nc2cc(N3CCN(C)CC3)nc(Nc3ccc(S(N)(=O)=O)cc3)n2)n[nH]1

>  <Name>  (377) 
nan

>  <Pocket>  (377) 
nan

>  <ATP_Site>  (377) 
nan

>  <Peripheral>  (377) 
nan

>  <Num_H_Atoms_ProtBoundConf>  (377) 
nan

>  <Num_Resolved_Atoms>  (377) 
nan

>  <Num_Not_Resolved_Atoms>  (377) 
nan

$$$$
CHEMBL3237166
     RDKit          3D

  0  0  0  0  0  0  0  0  0  0999 V3000
M  V30 BEGIN CTAB
M  V30 COUNTS 52 55 0 0 0
M  V30 BEGIN ATOM
M  V30 1 C -2.705771 -4.273542 6.382333 0
M  V30 2 C -1.485890 -3.743100 5.715369 0
M  V30 3 C -1.244481 -2.442889 5.320625 0
M  V30 4 C 0.017599 -2.412541 4.743141 0
M  V30 5 N 0.741238 -1.303107 4.172946 0
M  V30 6 C 0.548254 -1.028230 2.782462 0
M  V30 7 C 1.200804 0.009992 2.155575 0
M  V30 8 C 0.995681 0.252902 0.818297 0
M  V30 9 N 1.640072 1.309759 0.088659 0
M  V30 10 C 2.687558 2.131082 0.650000 0
M  V30 11 C 2.553700 3.568694 0.230631 0
M  V30 12 N 2.296780 3.758082 -1.159073 0
M  V30 13 C 3.455640 3.566641 -1.975255 0
M  V30 14 C 1.142336 3.023037 -1.629029 0
M  V30 15 C 1.215423 1.558879 -1.278883 0
M  V30 16 N 0.143552 -0.570206 0.199843 0
M  V30 17 C -0.518820 -1.583138 0.725669 0
M  V30 18 N -1.418270 -2.470870 0.090827 0
M  V30 19 C -1.785294 -2.506144 -1.276524 0
M  V30 20 C -1.252073 -1.723747 -2.269670 0
M  V30 21 C -1.599604 -1.739960 -3.593859 0
M  V30 22 C -2.586586 -2.627026 -3.996870 0
M  V30 23 C -2.957615 -2.651665 -5.382447 0
M  V30 24 N -3.249581 -2.688411 -6.504187 0
M  V30 25 C -3.155848 -3.436199 -3.042026 0
M  V30 26 C -2.757340 -3.365970 -1.729687 0
M  V30 27 N -0.271728 -1.762347 2.031341 0
M  V30 28 N 0.480392 -3.677345 4.811708 0
M  V30 29 N -0.388926 -4.485973 5.382566 0
M  V30 30 H -2.841027 -3.882388 7.393097 0
M  V30 31 H -3.635320 -3.991589 5.804339 0
M  V30 32 H -2.682094 -5.382336 6.349328 0
M  V30 33 H -1.886832 -1.588085 5.422902 0
M  V30 34 H 1.398019 -0.687455 4.712578 0
M  V30 35 H 1.857874 0.605566 2.734246 0
M  V30 36 H 3.699077 1.799697 0.284859 0
M  V30 37 H 2.669113 2.143041 1.768553 0
M  V30 38 H 1.785978 4.105561 0.848715 0
M  V30 39 H 3.550805 4.057281 0.436951 0
M  V30 40 H 3.626784 2.472225 -2.095391 0
M  V30 41 H 3.360890 4.082411 -2.950552 0
M  V30 42 H 4.340474 3.945449 -1.401644 0
M  V30 43 H 0.246961 3.481597 -1.198370 0
M  V30 44 H 1.121388 3.103156 -2.733703 0
M  V30 45 H 0.184789 1.162177 -1.376538 0
M  V30 46 H 1.854861 0.998946 -1.992124 0
M  V30 47 H -1.889389 -3.212393 0.692464 0
M  V30 48 H -0.478072 -1.016570 -2.022218 0
M  V30 49 H -1.138472 -1.094303 -4.328879 0
M  V30 50 H -3.931976 -4.134966 -3.354427 0
M  V30 51 H -3.267470 -4.046366 -1.051416 0
M  V30 52 H -0.323222 -5.503855 5.576433 0
M  V30 END ATOM
M  V30 BEGIN BOND
M  V30 1 1 1 2
M  V30 2 2 2 3
M  V30 3 1 3 4
M  V30 4 1 4 5
M  V30 5 1 5 6
M  V30 6 2 6 7
M  V30 7 1 7 8
M  V30 8 1 8 9
M  V30 9 1 9 10
M  V30 10 1 10 11
M  V30 11 1 11 12
M  V30 12 1 12 13
M  V30 13 1 12 14
M  V30 14 1 14 15
M  V30 15 2 8 16
M  V30 16 1 16 17
M  V30 17 1 17 18
M  V30 18 1 18 19
M  V30 19 2 19 20
M  V30 20 1 20 21
M  V30 21 2 21 22
M  V30 22 1 22 23
M  V30 23 3 23 24
M  V30 24 1 22 25
M  V30 25 2 25 26
M  V30 26 2 17 27
M  V30 27 2 4 28
M  V30 28 1 28 29
M  V30 29 1 29 2
M  V30 30 1 27 6
M  V30 31 1 15 9
M  V30 32 1 26 19
M  V30 33 1 1 30
M  V30 34 1 1 31
M  V30 35 1 1 32
M  V30 36 1 3 33
M  V30 37 1 5 34
M  V30 38 1 7 35
M  V30 39 1 10 36
M  V30 40 1 10 37
M  V30 41 1 11 38
M  V30 42 1 11 39
M  V30 43 1 13 40
M  V30 44 1 13 41
M  V30 45 1 13 42
M  V30 46 1 14 43
M  V30 47 1 14 44
M  V30 48 1 15 45
M  V30 49 1 15 46
M  V30 50 1 18 47
M  V30 51 1 20 48
M  V30 52 1 21 49
M  V30 53 1 25 50
M  V30 54 1 26 51
M  V30 55 1 29 52
M  V30 END BOND
M  V30 END CTAB
M  END
>  <Dataset>  (378) 
ChEMBL_Kinases

>  <Ligand_Instance>  (378) 
nan

>  <PDB_ID>  (378) 
nan

>  <Standardized_SMILES>  (378) 
Cc1cc(Nc2cc(N3CCN(C)CC3)nc(Nc3ccc(C#N)cc3)n2)n[nH]1

>  <Name>  (378) 
nan

>  <Pocket>  (378) 
nan

>  <ATP_Site>  (378) 
nan

>  <Peripheral>  (378) 
nan

>  <Num_H_Atoms_ProtBoundConf>  (378) 
nan

>  <Num_Resolved_Atoms>  (378) 
nan

>  <Num_Not_Resolved_Atoms>  (378) 
nan

$$$$
CHEMBL3237165
     RDKit          3D

  0  0  0  0  0  0  0  0  0  0999 V3000
M  V30 BEGIN CTAB
M  V30 COUNTS 53 56 0 0 0
M  V30 BEGIN ATOM
M  V30 1 C -4.538686 -1.598584 5.462053 0
M  V30 2 C -3.319200 -2.104545 4.776109 0
M  V30 3 C -2.183353 -1.361184 4.536497 0
M  V30 4 C -1.285645 -2.180043 3.884081 0
M  V30 5 N 0.037017 -2.010603 3.378074 0
M  V30 6 C 0.537955 -1.576707 2.116069 0
M  V30 7 C 0.827673 -0.253555 1.853901 0
M  V30 8 C 1.308260 0.225193 0.661092 0
M  V30 9 N 1.588203 1.619107 0.445354 0
M  V30 10 C 2.237923 1.981041 -0.798655 0
M  V30 11 C 1.827203 3.366362 -1.173501 0
M  V30 12 N 2.012178 4.233970 -0.040806 0
M  V30 13 C 3.340887 4.046591 0.511918 0
M  V30 14 C 0.989470 3.922637 0.940395 0
M  V30 15 C 1.179350 2.537616 1.514660 0
M  V30 16 N 1.498336 -0.696457 -0.303061 0
M  V30 17 C 1.233189 -2.002063 -0.105619 0
M  V30 18 N 1.407463 -3.011447 -1.098377 0
M  V30 19 C 0.196569 -3.315825 -1.819912 0
M  V30 20 C -0.997549 -2.700132 -1.504828 0
M  V30 21 C -2.163512 -2.996803 -2.197032 0
M  V30 22 C -2.163578 -3.913836 -3.219233 0
M  V30 23 C -0.969317 -4.527569 -3.532504 0
M  V30 24 N -1.011600 -5.469557 -4.598878 0 CHG=1 VAL=4
M  V30 25 O -0.104543 -6.147890 -5.076022 0
M  V30 26 O -2.133552 -5.782036 -5.294238 0 CHG=-1 VAL=1
M  V30 27 C 0.188979 -4.233470 -2.844663 0
M  V30 28 N 0.757157 -2.446778 1.090551 0
M  V30 29 N -1.898827 -3.375005 3.752257 0
M  V30 30 N -3.111178 -3.339014 4.280890 0
M  V30 31 H -5.432171 -1.982461 4.929399 0
M  V30 32 H -4.519514 -0.488795 5.478522 0
M  V30 33 H -4.510631 -1.976662 6.498194 0
M  V30 34 H -1.936982 -0.351111 4.763272 0
M  V30 35 H 0.893862 -2.200455 3.926239 0
M  V30 36 H 0.645882 0.411685 2.680608 0
M  V30 37 H 1.953121 1.223068 -1.568892 0
M  V30 38 H 3.335498 1.879748 -0.651724 0
M  V30 39 H 2.483294 3.680617 -2.013471 0
M  V30 40 H 0.755083 3.337980 -1.473458 0
M  V30 41 H 3.564027 4.838387 1.273155 0
M  V30 42 H 4.084023 4.167771 -0.288636 0
M  V30 43 H 3.464841 3.077881 1.029444 0
M  V30 44 H 0.020555 3.995660 0.412534 0
M  V30 45 H 1.074189 4.662059 1.757726 0
M  V30 46 H 0.198297 2.248575 1.938153 0
M  V30 47 H 1.903149 2.574377 2.341214 0
M  V30 48 H 2.265827 -3.543196 -1.364394 0
M  V30 49 H -1.057201 -1.971593 -0.713606 0
M  V30 50 H -3.076557 -2.480268 -1.903652 0
M  V30 51 H -3.118793 -4.102033 -3.726067 0
M  V30 52 H 1.078819 -4.753976 -3.147285 0
M  V30 53 H -3.769828 -4.150654 4.293754 0
M  V30 END ATOM
M  V30 BEGIN BOND
M  V30 1 1 1 2
M  V30 2 2 2 3
M  V30 3 1 3 4
M  V30 4 1 4 5
M  V30 5 1 5 6
M  V30 6 2 6 7
M  V30 7 1 7 8
M  V30 8 1 8 9
M  V30 9 1 9 10
M  V30 10 1 10 11
M  V30 11 1 11 12
M  V30 12 1 12 13
M  V30 13 1 12 14
M  V30 14 1 14 15
M  V30 15 2 8 16
M  V30 16 1 16 17
M  V30 17 1 17 18
M  V30 18 1 18 19
M  V30 19 2 19 20
M  V30 20 1 20 21
M  V30 21 2 21 22
M  V30 22 1 22 23
M  V30 23 1 23 24
M  V30 24 2 24 25
M  V30 25 1 24 26
M  V30 26 2 23 27
M  V30 27 2 17 28
M  V30 28 2 4 29
M  V30 29 1 29 30
M  V30 30 1 30 2
M  V30 31 1 28 6
M  V30 32 1 15 9
M  V30 33 1 27 19
M  V30 34 1 1 31
M  V30 35 1 1 32
M  V30 36 1 1 33
M  V30 37 1 3 34
M  V30 38 1 5 35
M  V30 39 1 7 36
M  V30 40 1 10 37
M  V30 41 1 10 38
M  V30 42 1 11 39
M  V30 43 1 11 40
M  V30 44 1 13 41
M  V30 45 1 13 42
M  V30 46 1 13 43
M  V30 47 1 14 44
M  V30 48 1 14 45
M  V30 49 1 15 46
M  V30 50 1 15 47
M  V30 51 1 18 48
M  V30 52 1 20 49
M  V30 53 1 21 50
M  V30 54 1 22 51
M  V30 55 1 27 52
M  V30 56 1 30 53
M  V30 END BOND
M  V30 END CTAB
M  END
>  <Dataset>  (379) 
ChEMBL_Kinases

>  <Ligand_Instance>  (379) 
nan

>  <PDB_ID>  (379) 
nan

>  <Standardized_SMILES>  (379) 
Cc1cc(Nc2cc(N3CCN(C)CC3)nc(Nc3cccc([N+](=O)[O-])c3)n2)n[nH]1

>  <Name>  (379) 
nan

>  <Pocket>  (379) 
nan

>  <ATP_Site>  (379) 
nan

>  <Peripheral>  (379) 
nan

>  <Num_H_Atoms_ProtBoundConf>  (379) 
nan

>  <Num_Resolved_Atoms>  (379) 
nan

>  <Num_Not_Resolved_Atoms>  (379) 
nan

$$$$
CHEMBL3237164
     RDKit          3D

  0  0  0  0  0  0  0  0  0  0999 V3000
M  V30 BEGIN CTAB
M  V30 COUNTS 53 56 0 0 0
M  V30 BEGIN ATOM
M  V30 1 C -3.513339 -1.511865 4.458241 0
M  V30 2 C -2.429048 -2.159596 3.633139 0
M  V30 3 C -1.219681 -1.506537 3.460553 0
M  V30 4 C -0.383821 -2.291278 2.665554 0
M  V30 5 N 0.964026 -2.185096 2.152467 0
M  V30 6 C 0.847804 -1.278465 1.033092 0
M  V30 7 C 1.118483 0.082950 1.017405 0
M  V30 8 C 0.912641 0.792767 -0.147905 0
M  V30 9 N 1.249951 2.151184 0.074871 0
M  V30 10 C 2.583617 2.716616 0.081155 0
M  V30 11 C 2.485022 4.209667 -0.085382 0
M  V30 12 N 1.605167 4.735699 0.905509 0
M  V30 13 C 1.992641 4.461669 2.254898 0
M  V30 14 C 0.255625 4.345943 0.677425 0
M  V30 15 C 0.044001 2.914733 0.325272 0
M  V30 16 N 0.457372 0.140552 -1.232725 0
M  V30 17 C 0.187506 -1.156992 -1.260850 0
M  V30 18 N -0.334463 -1.834160 -2.420328 0
M  V30 19 C -0.489905 -3.259813 -2.217173 0
M  V30 20 C 0.549938 -4.159903 -1.989412 0
M  V30 21 C 0.267092 -5.489439 -1.743302 0
M  V30 22 C -1.069278 -5.870316 -1.733871 0
M  V30 23 N -1.330285 -7.234778 -1.455863 0 CHG=1 VAL=4
M  V30 24 O -0.506325 -8.136091 -1.258015 0
M  V30 25 O -2.482618 -7.940437 -1.327542 0 CHG=-1 VAL=1
M  V30 26 C -2.115329 -5.009926 -1.953542 0
M  V30 27 C -1.813045 -3.684869 -2.198699 0
M  V30 28 N 0.406718 -1.809795 -0.089792 0
M  V30 29 N -1.129678 -3.394578 2.389507 0
M  V30 30 N -2.306479 -3.309853 2.950693 0
M  V30 31 H -4.479331 -1.996840 4.205524 0
M  V30 32 H -3.564481 -0.428834 4.126904 0
M  V30 33 H -3.219115 -1.568910 5.499934 0
M  V30 34 H -0.870896 -0.569880 3.816692 0
M  V30 35 H 1.766119 -2.685617 2.565680 0
M  V30 36 H 1.484209 0.451816 1.983924 0
M  V30 37 H 3.186727 2.322369 -0.766227 0
M  V30 38 H 3.162935 2.466982 1.008103 0
M  V30 39 H 3.471521 4.714821 -0.022667 0
M  V30 40 H 2.043556 4.408873 -1.078774 0
M  V30 41 H 1.259134 4.926377 2.937747 0
M  V30 42 H 1.960309 3.366019 2.439429 0
M  V30 43 H 2.997249 4.872783 2.506035 0
M  V30 44 H -0.195196 5.021263 -0.096797 0
M  V30 45 H -0.314436 4.588624 1.607993 0
M  V30 46 H -0.581813 2.830972 -0.581553 0
M  V30 47 H -0.513928 2.394193 1.153505 0
M  V30 48 H -0.532544 -1.223126 -3.247843 0
M  V30 49 H 1.538655 -3.726777 -2.025292 0
M  V30 50 H 1.098941 -6.169944 -1.576799 0
M  V30 51 H -3.149425 -5.349977 -1.933155 0
M  V30 52 H -2.635425 -3.006596 -2.370027 0
M  V30 53 H -3.131012 -3.980564 2.949885 0
M  V30 END ATOM
M  V30 BEGIN BOND
M  V30 1 1 1 2
M  V30 2 2 2 3
M  V30 3 1 3 4
M  V30 4 1 4 5
M  V30 5 1 5 6
M  V30 6 2 6 7
M  V30 7 1 7 8
M  V30 8 1 8 9
M  V30 9 1 9 10
M  V30 10 1 10 11
M  V30 11 1 11 12
M  V30 12 1 12 13
M  V30 13 1 12 14
M  V30 14 1 14 15
M  V30 15 2 8 16
M  V30 16 1 16 17
M  V30 17 1 17 18
M  V30 18 1 18 19
M  V30 19 2 19 20
M  V30 20 1 20 21
M  V30 21 2 21 22
M  V30 22 1 22 23
M  V30 23 2 23 24
M  V30 24 1 23 25
M  V30 25 1 22 26
M  V30 26 2 26 27
M  V30 27 2 17 28
M  V30 28 2 4 29
M  V30 29 1 29 30
M  V30 30 1 30 2
M  V30 31 1 28 6
M  V30 32 1 15 9
M  V30 33 1 27 19
M  V30 34 1 1 31
M  V30 35 1 1 32
M  V30 36 1 1 33
M  V30 37 1 3 34
M  V30 38 1 5 35
M  V30 39 1 7 36
M  V30 40 1 10 37
M  V30 41 1 10 38
M  V30 42 1 11 39
M  V30 43 1 11 40
M  V30 44 1 13 41
M  V30 45 1 13 42
M  V30 46 1 13 43
M  V30 47 1 14 44
M  V30 48 1 14 45
M  V30 49 1 15 46
M  V30 50 1 15 47
M  V30 51 1 18 48
M  V30 52 1 20 49
M  V30 53 1 21 50
M  V30 54 1 26 51
M  V30 55 1 27 52
M  V30 56 1 30 53
M  V30 END BOND
M  V30 END CTAB
M  END
>  <Dataset>  (380) 
ChEMBL_Kinases

>  <Ligand_Instance>  (380) 
nan

>  <PDB_ID>  (380) 
nan

>  <Standardized_SMILES>  (380) 
Cc1cc(Nc2cc(N3CCN(C)CC3)nc(Nc3ccc([N+](=O)[O-])cc3)n2)n[nH]1

>  <Name>  (380) 
nan

>  <Pocket>  (380) 
nan

>  <ATP_Site>  (380) 
nan

>  <Peripheral>  (380) 
nan

>  <Num_H_Atoms_ProtBoundConf>  (380) 
nan

>  <Num_Resolved_Atoms>  (380) 
nan

>  <Num_Not_Resolved_Atoms>  (380) 
nan

$$$$
CHEMBL3237163
     RDKit          3D

  0  0  0  0  0  0  0  0  0  0999 V3000
M  V30 BEGIN CTAB
M  V30 COUNTS 70 75 0 0 0
M  V30 BEGIN ATOM
M  V30 1 C 4.117385 -1.544212 5.033384 0
M  V30 2 C 3.722760 -1.138867 3.666590 0
M  V30 3 C 4.512206 -0.865714 2.571873 0
M  V30 4 C 3.685873 -0.524789 1.494566 0
M  V30 5 N 4.095802 -0.169158 0.156389 0
M  V30 6 C 3.054766 0.142803 -0.790971 0
M  V30 7 C 2.593187 1.422793 -1.009580 0
M  V30 8 C 1.592950 1.660850 -1.916481 0
M  V30 9 N 1.075225 2.952510 -2.187146 0
M  V30 10 C 0.070063 3.180519 -3.208093 0
M  V30 11 C -1.184468 3.624002 -2.480456 0
M  V30 12 N -0.908010 4.936126 -1.943768 0
M  V30 13 C -1.050177 6.009078 -2.875114 0
M  V30 14 C 0.251054 5.008191 -1.117413 0
M  V30 15 C 1.418942 4.173664 -1.554989 0
M  V30 16 N 1.090842 0.612242 -2.571240 0
M  V30 17 C 1.511293 -0.645829 -2.387861 0
M  V30 18 N 1.050144 -1.837299 -3.005081 0
M  V30 19 C 0.091464 -2.522294 -2.199133 0
M  V30 20 C -0.320939 -2.061092 -0.966999 0
M  V30 21 C -1.251691 -2.737906 -0.177093 0
M  V30 22 C -1.787304 -3.937049 -0.661466 0
M  V30 23 N -2.720696 -4.497372 0.274367 0
M  V30 24 C -4.154064 -4.294739 0.398731 0
M  V30 25 C -4.431259 -3.802115 1.788542 0
M  V30 26 O -5.386202 -3.049534 2.127009 0
M  V30 27 N -3.540810 -4.212126 2.849478 0
M  V30 28 C -3.300213 -3.489194 4.055780 0
M  V30 29 C -4.169364 -2.461609 4.624137 0
M  V30 30 C -2.941755 -2.020408 3.853947 0
M  V30 31 C -2.857581 -5.491974 2.591541 0
M  V30 32 C -2.169378 -5.402815 1.253338 0
M  V30 33 O -1.147561 -6.111664 1.032040 0
M  V30 34 C -1.390715 -4.418701 -1.891533 0
M  V30 35 C -0.468366 -3.713653 -2.634374 0
M  V30 36 N 2.503596 -0.879895 -1.487923 0
M  V30 37 N 2.400464 -0.595105 1.949485 0
M  V30 38 N 2.463947 -0.959911 3.233250 0
M  V30 39 H 3.319424 -1.409528 5.769348 0
M  V30 40 H 4.983361 -0.948617 5.420435 0
M  V30 41 H 4.439288 -2.611417 5.076251 0
M  V30 42 H 5.611928 -0.907795 2.547487 0
M  V30 43 H 5.122228 -0.164196 -0.026605 0
M  V30 44 H 3.038319 2.227410 -0.449686 0
M  V30 45 H -0.167277 2.266943 -3.792219 0
M  V30 46 H 0.416590 3.978513 -3.897005 0
M  V30 47 H -2.013410 3.743631 -3.218059 0
M  V30 48 H -1.420706 2.936275 -1.651342 0
M  V30 49 H -0.077453 6.368213 -3.271701 0
M  V30 50 H -1.527175 6.869604 -2.350790 0
M  V30 51 H -1.756777 5.673418 -3.678510 0
M  V30 52 H -0.059906 4.752928 -0.061709 0
M  V30 53 H 0.588338 6.065480 -1.073441 0
M  V30 54 H 2.015181 3.967478 -0.644094 0
M  V30 55 H 2.120951 4.743998 -2.229151 0
M  V30 56 H 1.317293 -2.230961 -3.910882 0
M  V30 57 H 0.088667 -1.121293 -0.570465 0
M  V30 58 H -1.507577 -2.279424 0.786967 0
M  V30 59 H -4.689705 -5.249993 0.282222 0
M  V30 60 H -4.527015 -3.546520 -0.328892 0
M  V30 61 H -2.576329 -3.982302 4.741608 0
M  V30 62 H -4.149972 -2.324937 5.748186 0
M  V30 63 H -5.100446 -2.092261 4.206275 0
M  V30 64 H -3.024713 -1.609783 2.848465 0
M  V30 65 H -2.165076 -1.551065 4.482220 0
M  V30 66 H -3.536506 -6.342877 2.585428 0
M  V30 67 H -2.089139 -5.631392 3.391777 0
M  V30 68 H -1.870608 -5.348342 -2.158063 0
M  V30 69 H -0.198317 -4.147171 -3.595704 0
M  V30 70 H 1.556901 -1.066094 3.752425 0
M  V30 END ATOM
M  V30 BEGIN BOND
M  V30 1 1 1 2
M  V30 2 2 2 3
M  V30 3 1 3 4
M  V30 4 1 4 5
M  V30 5 1 5 6
M  V30 6 2 6 7
M  V30 7 1 7 8
M  V30 8 1 8 9
M  V30 9 1 9 10
M  V30 10 1 10 11
M  V30 11 1 11 12
M  V30 12 1 12 13
M  V30 13 1 12 14
M  V30 14 1 14 15
M  V30 15 2 8 16
M  V30 16 1 16 17
M  V30 17 1 17 18
M  V30 18 1 18 19
M  V30 19 2 19 20
M  V30 20 1 20 21
M  V30 21 2 21 22
M  V30 22 1 22 23
M  V30 23 1 23 24
M  V30 24 1 24 25
M  V30 25 2 25 26
M  V30 26 1 25 27
M  V30 27 1 27 28
M  V30 28 1 28 29
M  V30 29 1 29 30
M  V30 30 1 27 31
M  V30 31 1 31 32
M  V30 32 2 32 33
M  V30 33 1 22 34
M  V30 34 2 34 35
M  V30 35 2 17 36
M  V30 36 2 4 37
M  V30 37 1 37 38
M  V30 38 1 38 2
M  V30 39 1 36 6
M  V30 40 1 15 9
M  V30 41 1 35 19
M  V30 42 1 32 23
M  V30 43 1 30 28
M  V30 44 1 1 39
M  V30 45 1 1 40
M  V30 46 1 1 41
M  V30 47 1 3 42
M  V30 48 1 5 43
M  V30 49 1 7 44
M  V30 50 1 10 45
M  V30 51 1 10 46
M  V30 52 1 11 47
M  V30 53 1 11 48
M  V30 54 1 13 49
M  V30 55 1 13 50
M  V30 56 1 13 51
M  V30 57 1 14 52
M  V30 58 1 14 53
M  V30 59 1 15 54
M  V30 60 1 15 55
M  V30 61 1 18 56
M  V30 62 1 20 57
M  V30 63 1 21 58
M  V30 64 1 24 59
M  V30 65 1 24 60
M  V30 66 1 28 61
M  V30 67 1 29 62
M  V30 68 1 29 63
M  V30 69 1 30 64
M  V30 70 1 30 65
M  V30 71 1 31 66
M  V30 72 1 31 67
M  V30 73 1 34 68
M  V30 74 1 35 69
M  V30 75 1 38 70
M  V30 END BOND
M  V30 END CTAB
M  END
>  <Dataset>  (381) 
ChEMBL_Kinases

>  <Ligand_Instance>  (381) 
nan

>  <PDB_ID>  (381) 
nan

>  <Standardized_SMILES>  (381) 
Cc1cc(Nc2cc(N3CCN(C)CC3)nc(Nc3ccc(N4CC(=O)N(C5CC5)CC4=O)cc3)n2)n[nH]1

>  <Name>  (381) 
nan

>  <Pocket>  (381) 
nan

>  <ATP_Site>  (381) 
nan

>  <Peripheral>  (381) 
nan

>  <Num_H_Atoms_ProtBoundConf>  (381) 
nan

>  <Num_Resolved_Atoms>  (381) 
nan

>  <Num_Not_Resolved_Atoms>  (381) 
nan

$$$$
CHEMBL3235574
     RDKit          3D

  0  0  0  0  0  0  0  0  0  0999 V3000
M  V30 BEGIN CTAB
M  V30 COUNTS 36 37 0 0 0
M  V30 BEGIN ATOM
M  V30 1 C 0.456747 -4.545966 1.913447 0
M  V30 2 C -0.574676 -4.483824 0.817531 0
M  V30 3 C -1.921245 -4.008280 1.311194 0
M  V30 4 C -0.727869 -5.891403 0.288452 0
M  V30 5 C -0.112662 -3.532744 -0.266121 0
M  V30 6 C 0.088899 -2.161121 0.259811 0
M  V30 7 O -0.044471 -1.646101 1.396610 0
M  V30 8 N 0.528942 -1.261430 -0.778380 0
M  V30 9 C 0.778373 0.118221 -0.459151 0
M  V30 10 N 0.058319 1.054130 -0.478465 0
M  V30 11 C 0.340158 2.302152 -0.174761 0
M  V30 12 C -0.511707 3.387552 -0.201617 0
M  V30 13 C -0.073274 4.627361 0.142125 0
M  V30 14 C 1.235111 4.911080 0.541240 0
M  V30 15 C 1.784819 6.231632 0.929300 0
M  V30 16 F 3.098754 6.290810 0.464173 0
M  V30 17 F 1.035411 7.265019 0.428086 0
M  V30 18 F 1.898534 6.336344 2.318505 0
M  V30 19 C 2.109235 3.847082 0.577927 0
M  V30 20 C 1.622201 2.582564 0.216759 0
M  V30 21 S 2.401089 0.941966 0.122408 0
M  V30 22 H 1.389525 -4.121557 1.537197 0
M  V30 23 H 0.710653 -5.598936 2.212164 0
M  V30 24 H 0.069091 -4.035761 2.815320 0
M  V30 25 H -1.848644 -3.057580 1.863270 0
M  V30 26 H -2.405368 -4.778363 1.974102 0
M  V30 27 H -2.579459 -3.928996 0.421258 0
M  V30 28 H -1.285932 -6.470209 1.075249 0
M  V30 29 H 0.251958 -6.418226 0.214671 0
M  V30 30 H -1.281292 -5.936780 -0.659449 0
M  V30 31 H -0.775228 -3.562903 -1.149646 0
M  V30 32 H 0.901746 -3.894367 -0.573120 0
M  V30 33 H 0.723599 -1.410328 -1.808389 0
M  V30 34 H -1.572079 3.347720 -0.490206 0
M  V30 35 H -0.717455 5.499968 0.131324 0
M  V30 36 H 3.161862 3.874401 0.862166 0
M  V30 END ATOM
M  V30 BEGIN BOND
M  V30 1 1 1 2
M  V30 2 1 2 3
M  V30 3 1 2 4
M  V30 4 1 2 5
M  V30 5 1 5 6
M  V30 6 2 6 7
M  V30 7 1 6 8
M  V30 8 1 8 9
M  V30 9 2 9 10
M  V30 10 1 10 11
M  V30 11 2 11 12
M  V30 12 1 12 13
M  V30 13 2 13 14
M  V30 14 1 14 15
M  V30 15 1 15 16
M  V30 16 1 15 17
M  V30 17 1 15 18
M  V30 18 1 14 19
M  V30 19 2 19 20
M  V30 20 1 20 21
M  V30 21 1 21 9
M  V30 22 1 20 11
M  V30 23 1 1 22
M  V30 24 1 1 23
M  V30 25 1 1 24
M  V30 26 1 3 25
M  V30 27 1 3 26
M  V30 28 1 3 27
M  V30 29 1 4 28
M  V30 30 1 4 29
M  V30 31 1 4 30
M  V30 32 1 5 31
M  V30 33 1 5 32
M  V30 34 1 8 33
M  V30 35 1 12 34
M  V30 36 1 13 35
M  V30 37 1 19 36
M  V30 END BOND
M  V30 END CTAB
M  END
>  <Dataset>  (382) 
ChEMBL_Kinases

>  <Ligand_Instance>  (382) 
nan

>  <PDB_ID>  (382) 
nan

>  <Standardized_SMILES>  (382) 
CC(C)(C)CC(=O)Nc1nc2ccc(C(F)(F)F)cc2s1

>  <Name>  (382) 
nan

>  <Pocket>  (382) 
nan

>  <ATP_Site>  (382) 
nan

>  <Peripheral>  (382) 
nan

>  <Num_H_Atoms_ProtBoundConf>  (382) 
nan

>  <Num_Resolved_Atoms>  (382) 
nan

>  <Num_Not_Resolved_Atoms>  (382) 
nan

$$$$
CHEMBL3235556
     RDKit          3D

  0  0  0  0  0  0  0  0  0  0999 V3000
M  V30 BEGIN CTAB
M  V30 COUNTS 38 40 0 0 0
M  V30 BEGIN ATOM
M  V30 1 C -3.327644 -5.798644 -1.599679 0
M  V30 2 O -3.201575 -4.411384 -1.557536 0
M  V30 3 C -2.062117 -3.727966 -1.954817 0
M  V30 4 C -0.964643 -4.426483 -2.426512 0
M  V30 5 C 0.134592 -3.677332 -2.803877 0
M  V30 6 C 0.174643 -2.292770 -2.728545 0
M  V30 7 C -0.948566 -1.629591 -2.249182 0
M  V30 8 C -0.949907 -0.130266 -2.150270 0
M  V30 9 C -0.430895 0.186087 -0.785941 0
M  V30 10 O -0.153801 -0.861507 -0.140834 0
M  V30 11 N -0.300834 1.521239 -0.358046 0
M  V30 12 C 0.222191 1.772987 1.012265 0
M  V30 13 N 1.323474 1.910759 1.304578 0
M  V30 14 C 1.877245 2.135681 2.480254 0
M  V30 15 C 3.214855 2.299179 2.809980 0
M  V30 16 C 3.576821 2.527169 4.113639 0
M  V30 17 C 2.698185 2.613055 5.174509 0
M  V30 18 C 3.039424 2.857048 6.595647 0
M  V30 19 F 2.953787 4.200786 6.909142 0
M  V30 20 F 4.337273 2.426721 6.869512 0
M  V30 21 F 2.167771 2.156466 7.439049 0
M  V30 22 C 1.367142 2.450884 4.849879 0
M  V30 23 C 1.014566 2.219406 3.517906 0
M  V30 24 S -0.592610 1.965598 2.742706 0
M  V30 25 C -2.070365 -2.345543 -1.860882 0
M  V30 26 H -4.418337 -6.046917 -1.697608 0
M  V30 27 H -2.826654 -6.300942 -2.441495 0
M  V30 28 H -3.011379 -6.301580 -0.648771 0
M  V30 29 H -0.948432 -5.506969 -2.503710 0
M  V30 30 H 0.988313 -4.256004 -3.173126 0
M  V30 31 H 1.064025 -1.760150 -3.038693 0
M  V30 32 H -0.202362 0.227110 -2.878901 0
M  V30 33 H -1.960940 0.282844 -2.326388 0
M  V30 34 H -0.546092 2.331285 -0.937018 0
M  V30 35 H 4.032160 2.261662 2.103211 0
M  V30 36 H 4.628905 2.658340 4.390015 0
M  V30 37 H 0.537436 2.480797 5.513336 0
M  V30 38 H -2.960937 -1.832185 -1.481619 0
M  V30 END ATOM
M  V30 BEGIN BOND
M  V30 1 1 1 2
M  V30 2 1 2 3
M  V30 3 2 3 4
M  V30 4 1 4 5
M  V30 5 2 5 6
M  V30 6 1 6 7
M  V30 7 1 7 8
M  V30 8 1 8 9
M  V30 9 2 9 10
M  V30 10 1 9 11
M  V30 11 1 11 12
M  V30 12 2 12 13
M  V30 13 1 13 14
M  V30 14 2 14 15
M  V30 15 1 15 16
M  V30 16 2 16 17
M  V30 17 1 17 18
M  V30 18 1 18 19
M  V30 19 1 18 20
M  V30 20 1 18 21
M  V30 21 1 17 22
M  V30 22 2 22 23
M  V30 23 1 23 24
M  V30 24 2 7 25
M  V30 25 1 25 3
M  V30 26 1 24 12
M  V30 27 1 23 14
M  V30 28 1 1 26
M  V30 29 1 1 27
M  V30 30 1 1 28
M  V30 31 1 4 29
M  V30 32 1 5 30
M  V30 33 1 6 31
M  V30 34 1 8 32
M  V30 35 1 8 33
M  V30 36 1 11 34
M  V30 37 1 15 35
M  V30 38 1 16 36
M  V30 39 1 22 37
M  V30 40 1 25 38
M  V30 END BOND
M  V30 END CTAB
M  END
>  <Dataset>  (383) 
ChEMBL_Kinases

>  <Ligand_Instance>  (383) 
nan

>  <PDB_ID>  (383) 
nan

>  <Standardized_SMILES>  (383) 
COc1cccc(CC(=O)Nc2nc3ccc(C(F)(F)F)cc3s2)c1

>  <Name>  (383) 
nan

>  <Pocket>  (383) 
nan

>  <ATP_Site>  (383) 
nan

>  <Peripheral>  (383) 
nan

>  <Num_H_Atoms_ProtBoundConf>  (383) 
nan

>  <Num_Resolved_Atoms>  (383) 
nan

>  <Num_Not_Resolved_Atoms>  (383) 
nan

$$$$
CHEMBL3235557
     RDKit          3D

  0  0  0  0  0  0  0  0  0  0999 V3000
M  V30 BEGIN CTAB
M  V30 COUNTS 39 41 0 0 0
M  V30 BEGIN ATOM
M  V30 1 C 1.021859 -6.122265 -1.604852 0
M  V30 2 O 2.360978 -5.687440 -1.459908 0
M  V30 3 C 2.618977 -4.330852 -1.604331 0
M  V30 4 C 3.966090 -4.001888 -1.443843 0
M  V30 5 C 4.302073 -2.660754 -1.574302 0
M  V30 6 C 3.383268 -1.663529 -1.849176 0
M  V30 7 C 2.062850 -2.022218 -2.001578 0
M  V30 8 C 1.045680 -0.981446 -2.297260 0
M  V30 9 C 0.544275 -0.497580 -0.966567 0
M  V30 10 O 1.031394 -1.013688 0.073954 0
M  V30 11 N -0.444358 0.508794 -0.995305 0
M  V30 12 C -0.938669 0.985227 0.345732 0
M  V30 13 N -0.522073 1.826252 0.959908 0
M  V30 14 C -0.834658 2.350603 2.121040 0
M  V30 15 C -0.282758 3.394976 2.836652 0
M  V30 16 C -0.807986 3.753719 4.054406 0
M  V30 17 C -1.889587 3.143179 4.668042 0
M  V30 18 O -2.431151 3.489653 5.890769 0
M  V30 19 C -3.540348 2.781458 6.404964 0
M  V30 20 C -2.439956 2.104218 3.957939 0
M  V30 21 C -1.877671 1.756926 2.705870 0
M  V30 22 S -2.352237 0.469724 1.544166 0
M  V30 23 C 1.693860 -3.347470 -1.878293 0
M  V30 24 H 0.355331 -5.454392 -1.052784 0
M  V30 25 H 0.866379 -7.135968 -1.183021 0
M  V30 26 H 0.810749 -6.132299 -2.700895 0
M  V30 27 H 4.777664 -4.690849 -1.227024 0
M  V30 28 H 5.335718 -2.355866 -1.458260 0
M  V30 29 H 3.729315 -0.632854 -1.936071 0
M  V30 30 H 0.222525 -1.332221 -2.939536 0
M  V30 31 H 1.560214 -0.106330 -2.743737 0
M  V30 32 H -0.852391 0.940235 -1.827177 0
M  V30 33 H 0.576515 3.988580 2.501526 0
M  V30 34 H -0.365193 4.588602 4.624276 0
M  V30 35 H -3.346977 1.677049 6.269094 0
M  V30 36 H -4.456794 2.967985 5.808071 0
M  V30 37 H -3.699308 2.967367 7.475930 0
M  V30 38 H -3.265125 1.504718 4.238366 0
M  V30 39 H 0.668491 -3.670158 -1.990673 0
M  V30 END ATOM
M  V30 BEGIN BOND
M  V30 1 1 1 2
M  V30 2 1 2 3
M  V30 3 2 3 4
M  V30 4 1 4 5
M  V30 5 2 5 6
M  V30 6 1 6 7
M  V30 7 1 7 8
M  V30 8 1 8 9
M  V30 9 2 9 10
M  V30 10 1 9 11
M  V30 11 1 11 12
M  V30 12 2 12 13
M  V30 13 1 13 14
M  V30 14 2 14 15
M  V30 15 1 15 16
M  V30 16 2 16 17
M  V30 17 1 17 18
M  V30 18 1 18 19
M  V30 19 1 17 20
M  V30 20 2 20 21
M  V30 21 1 21 22
M  V30 22 2 7 23
M  V30 23 1 23 3
M  V30 24 1 22 12
M  V30 25 1 21 14
M  V30 26 1 1 24
M  V30 27 1 1 25
M  V30 28 1 1 26
M  V30 29 1 4 27
M  V30 30 1 5 28
M  V30 31 1 6 29
M  V30 32 1 8 30
M  V30 33 1 8 31
M  V30 34 1 11 32
M  V30 35 1 15 33
M  V30 36 1 16 34
M  V30 37 1 19 35
M  V30 38 1 19 36
M  V30 39 1 19 37
M  V30 40 1 20 38
M  V30 41 1 23 39
M  V30 END BOND
M  V30 END CTAB
M  END
>  <Dataset>  (384) 
ChEMBL_Kinases

>  <Ligand_Instance>  (384) 
nan

>  <PDB_ID>  (384) 
nan

>  <Standardized_SMILES>  (384) 
COc1cccc(CC(=O)Nc2nc3ccc(OC)cc3s2)c1

>  <Name>  (384) 
nan

>  <Pocket>  (384) 
nan

>  <ATP_Site>  (384) 
nan

>  <Peripheral>  (384) 
nan

>  <Num_H_Atoms_ProtBoundConf>  (384) 
nan

>  <Num_Resolved_Atoms>  (384) 
nan

>  <Num_Not_Resolved_Atoms>  (384) 
nan

$$$$
CHEMBL3235558
     RDKit          3D

  0  0  0  0  0  0  0  0  0  0999 V3000
M  V30 BEGIN CTAB
M  V30 COUNTS 42 44 0 0 0
M  V30 BEGIN ATOM
M  V30 1 C 0.446847 -8.314435 0.943774 0
M  V30 2 C 1.695266 -7.804318 1.605786 0
M  V30 3 O 2.307706 -6.742332 0.907729 0
M  V30 4 C 1.624289 -5.560377 0.696012 0
M  V30 5 C 0.360843 -5.187104 1.067072 0
M  V30 6 C -0.218487 -3.969433 0.796045 0
M  V30 7 C 0.491002 -3.014609 0.096944 0
M  V30 8 N 0.106976 -1.791124 -0.258166 0
M  V30 9 C 0.778229 -1.003825 -0.870637 0
M  V30 10 N 0.358797 0.332881 -1.258680 0
M  V30 11 C 0.563742 1.481021 -0.439032 0
M  V30 12 O 1.136127 1.356708 0.685036 0
M  V30 13 C 0.058164 2.757169 -1.023915 0
M  V30 14 C 0.369420 3.827628 -0.014473 0
M  V30 15 C 1.560350 4.524814 -0.035668 0
M  V30 16 C 1.804275 5.500238 0.911475 0
M  V30 17 C 0.823749 5.745862 1.865566 0
M  V30 18 C -0.380449 5.054662 1.902714 0
M  V30 19 O -1.234119 5.436181 2.924981 0
M  V30 20 C -2.499621 4.836357 3.108644 0
M  V30 21 C -0.592931 4.085261 0.940858 0
M  V30 22 S 2.374416 -1.869420 -1.173162 0
M  V30 23 C 1.794939 -3.417941 -0.278228 0
M  V30 24 C 2.395292 -4.663143 -0.004450 0
M  V30 25 H 0.627713 -9.382405 0.639843 0
M  V30 26 H -0.425656 -8.335115 1.608028 0
M  V30 27 H 0.227734 -7.703262 0.040248 0
M  V30 28 H 1.445092 -7.379291 2.622147 0
M  V30 29 H 2.430487 -8.632971 1.764697 0
M  V30 30 H -0.178617 -5.959586 1.621756 0
M  V30 31 H -1.228159 -3.814367 1.152827 0
M  V30 32 H -0.095586 0.319616 -2.190214 0
M  V30 33 H 0.611367 3.032744 -1.938638 0
M  V30 34 H -1.047996 2.704098 -1.202663 0
M  V30 35 H 2.265236 4.279227 -0.800416 0
M  V30 36 H 2.737259 6.060674 0.911161 0
M  V30 37 H 1.074820 6.524914 2.583395 0
M  V30 38 H -2.954192 4.539089 2.139125 0
M  V30 39 H -2.418695 3.928749 3.734587 0
M  V30 40 H -3.188773 5.545895 3.635129 0
M  V30 41 H -1.539916 3.585244 1.019837 0
M  V30 42 H 3.397954 -4.706518 -0.405360 0
M  V30 END ATOM
M  V30 BEGIN BOND
M  V30 1 1 1 2
M  V30 2 1 2 3
M  V30 3 1 3 4
M  V30 4 2 4 5
M  V30 5 1 5 6
M  V30 6 2 6 7
M  V30 7 1 7 8
M  V30 8 2 8 9
M  V30 9 1 9 10
M  V30 10 1 10 11
M  V30 11 2 11 12
M  V30 12 1 11 13
M  V30 13 1 13 14
M  V30 14 2 14 15
M  V30 15 1 15 16
M  V30 16 2 16 17
M  V30 17 1 17 18
M  V30 18 1 18 19
M  V30 19 1 19 20
M  V30 20 2 18 21
M  V30 21 1 9 22
M  V30 22 1 22 23
M  V30 23 2 23 24
M  V30 24 1 24 4
M  V30 25 1 23 7
M  V30 26 1 21 14
M  V30 27 1 1 25
M  V30 28 1 1 26
M  V30 29 1 1 27
M  V30 30 1 2 28
M  V30 31 1 2 29
M  V30 32 1 5 30
M  V30 33 1 6 31
M  V30 34 1 10 32
M  V30 35 1 13 33
M  V30 36 1 13 34
M  V30 37 1 15 35
M  V30 38 1 16 36
M  V30 39 1 17 37
M  V30 40 1 20 38
M  V30 41 1 20 39
M  V30 42 1 20 40
M  V30 43 1 21 41
M  V30 44 1 24 42
M  V30 END BOND
M  V30 END CTAB
M  END
>  <Dataset>  (385) 
ChEMBL_Kinases

>  <Ligand_Instance>  (385) 
nan

>  <PDB_ID>  (385) 
nan

>  <Standardized_SMILES>  (385) 
CCOc1ccc2nc(NC(=O)Cc3cccc(OC)c3)sc2c1

>  <Name>  (385) 
nan

>  <Pocket>  (385) 
nan

>  <ATP_Site>  (385) 
nan

>  <Peripheral>  (385) 
nan

>  <Num_H_Atoms_ProtBoundConf>  (385) 
nan

>  <Num_Resolved_Atoms>  (385) 
nan

>  <Num_Not_Resolved_Atoms>  (385) 
nan

$$$$
CHEMBL3235559
     RDKit          3D

  0  0  0  0  0  0  0  0  0  0999 V3000
M  V30 BEGIN CTAB
M  V30 COUNTS 37 39 0 0 0
M  V30 BEGIN ATOM
M  V30 1 O 2.072138 -1.265593 2.559858 0
M  V30 2 C 1.748356 -0.061135 2.650242 0
M  V30 3 C 2.589750 1.152210 2.729382 0
M  V30 4 C 3.360769 1.328168 1.461674 0
M  V30 5 C 4.679777 1.139373 1.105024 0
M  V30 6 C 5.096939 1.353889 -0.192642 0
M  V30 7 C 4.178348 1.764444 -1.140437 0
M  V30 8 C 2.841426 1.977718 -0.870295 0
M  V30 9 C 1.856378 2.412829 -1.900020 0
M  V30 10 F 2.496631 2.903287 -3.001941 0
M  V30 11 F 1.063824 1.335836 -2.326061 0
M  V30 12 F 1.022685 3.399744 -1.406865 0
M  V30 13 C 2.467368 1.747223 0.456748 0
M  V30 14 N 0.363156 0.191569 2.674234 0
M  V30 15 C -0.685742 -0.897851 2.575777 0
M  V30 16 N -0.934919 -1.064738 1.427167 0
M  V30 17 C -1.792241 -1.919785 0.893586 0
M  V30 18 C -2.155243 -2.193476 -0.440321 0
M  V30 19 C -3.094081 -3.152924 -0.742615 0
M  V30 20 C -3.737336 -3.902361 0.220321 0
M  V30 21 C -4.735598 -4.935525 -0.050843 0
M  V30 22 F -5.965939 -4.342361 -0.144167 0
M  V30 23 F -4.453273 -5.445664 -1.328984 0
M  V30 24 F -4.711868 -6.000475 0.831797 0
M  V30 25 C -3.448523 -3.704380 1.543673 0
M  V30 26 C -2.476806 -2.709050 1.804271 0
M  V30 27 S -1.749653 -2.080512 3.438517 0
M  V30 28 H 3.321621 1.078607 3.548115 0
M  V30 29 H 1.961532 2.032555 2.870990 0
M  V30 30 H 5.231941 0.824942 1.975312 0
M  V30 31 H 6.140351 1.181922 -0.364849 0
M  V30 32 H 4.528381 1.936528 -2.167546 0
M  V30 33 H 1.388172 1.939632 0.595257 0
M  V30 34 H -0.053406 1.119730 2.762912 0
M  V30 35 H -1.669906 -1.620545 -1.248284 0
M  V30 36 H -3.334388 -3.323120 -1.784100 0
M  V30 37 H -3.812972 -4.157134 2.428086 0
M  V30 END ATOM
M  V30 BEGIN BOND
M  V30 1 2 1 2
M  V30 2 1 2 3
M  V30 3 1 3 4
M  V30 4 2 4 5
M  V30 5 1 5 6
M  V30 6 2 6 7
M  V30 7 1 7 8
M  V30 8 1 8 9
M  V30 9 1 9 10
M  V30 10 1 9 11
M  V30 11 1 9 12
M  V30 12 2 8 13
M  V30 13 1 2 14
M  V30 14 1 14 15
M  V30 15 2 15 16
M  V30 16 1 16 17
M  V30 17 2 17 18
M  V30 18 1 18 19
M  V30 19 2 19 20
M  V30 20 1 20 21
M  V30 21 1 21 22
M  V30 22 1 21 23
M  V30 23 1 21 24
M  V30 24 1 20 25
M  V30 25 2 25 26
M  V30 26 1 26 27
M  V30 27 1 13 4
M  V30 28 1 27 15
M  V30 29 1 26 17
M  V30 30 1 3 28
M  V30 31 1 3 29
M  V30 32 1 5 30
M  V30 33 1 6 31
M  V30 34 1 7 32
M  V30 35 1 13 33
M  V30 36 1 14 34
M  V30 37 1 18 35
M  V30 38 1 19 36
M  V30 39 1 25 37
M  V30 END BOND
M  V30 END CTAB
M  END
>  <Dataset>  (386) 
ChEMBL_Kinases

>  <Ligand_Instance>  (386) 
nan

>  <PDB_ID>  (386) 
nan

>  <Standardized_SMILES>  (386) 
O=C(Cc1cccc(C(F)(F)F)c1)Nc1nc2ccc(C(F)(F)F)cc2s1

>  <Name>  (386) 
nan

>  <Pocket>  (386) 
nan

>  <ATP_Site>  (386) 
nan

>  <Peripheral>  (386) 
nan

>  <Num_H_Atoms_ProtBoundConf>  (386) 
nan

>  <Num_Resolved_Atoms>  (386) 
nan

>  <Num_Not_Resolved_Atoms>  (386) 
nan

$$$$
CHEMBL3235560
     RDKit          3D

  0  0  0  0  0  0  0  0  0  0999 V3000
M  V30 BEGIN CTAB
M  V30 COUNTS 38 40 0 0 0
M  V30 BEGIN ATOM
M  V30 1 C 1.333298 -6.674390 2.350936 0
M  V30 2 O 0.576388 -6.248516 1.233854 0
M  V30 3 C 0.950210 -5.141692 0.499967 0
M  V30 4 C 2.081696 -4.419974 0.844079 0
M  V30 5 C 2.486940 -3.311674 0.137871 0
M  V30 6 C 1.715909 -2.938514 -0.940851 0
M  V30 7 C 2.175596 -1.724147 -1.700128 0
M  V30 8 C 1.500913 -0.573823 -1.040062 0
M  V30 9 O 0.787288 -1.028760 -0.082918 0
M  V30 10 N 1.559144 0.802591 -1.325653 0
M  V30 11 C 0.767116 1.613147 -0.467143 0
M  V30 12 N -0.358512 1.988766 -0.524269 0
M  V30 13 C -0.985378 2.749478 0.351305 0
M  V30 14 C -2.294858 3.178034 0.270993 0
M  V30 15 C -2.803090 3.973256 1.274486 0
M  V30 16 C -2.111535 4.398914 2.389558 0
M  V30 17 C -2.655264 5.253794 3.469911 0
M  V30 18 F -2.271052 4.779459 4.726745 0
M  V30 19 F -2.219528 6.561684 3.391017 0
M  V30 20 F -4.036971 5.261524 3.482527 0
M  V30 21 C -0.803159 3.970292 2.469100 0
M  V30 22 C -0.282432 3.163773 1.454513 0
M  V30 23 S 1.315782 2.415950 1.182720 0
M  V30 24 C 0.587275 -3.650482 -1.291837 0
M  V30 25 C 0.182261 -4.763088 -0.581213 0
M  V30 26 H 1.622222 -5.806831 3.002403 0
M  V30 27 H 2.235130 -7.261411 2.033093 0
M  V30 28 H 0.727146 -7.376275 2.981859 0
M  V30 29 H 2.715457 -4.687984 1.692968 0
M  V30 30 H 3.365255 -2.759457 0.412811 0
M  V30 31 H 3.264123 -1.623383 -1.710031 0
M  V30 32 H 1.792254 -1.836354 -2.746971 0
M  V30 33 H 2.184717 1.009029 -2.134919 0
M  V30 34 H -2.997717 2.946924 -0.530783 0
M  V30 35 H -3.846156 4.329568 1.235102 0
M  V30 36 H -0.119483 4.217133 3.285255 0
M  V30 37 H 0.034379 -3.293932 -2.152209 0
M  V30 38 H -0.700643 -5.313767 -0.861906 0
M  V30 END ATOM
M  V30 BEGIN BOND
M  V30 1 1 1 2
M  V30 2 1 2 3
M  V30 3 2 3 4
M  V30 4 1 4 5
M  V30 5 2 5 6
M  V30 6 1 6 7
M  V30 7 1 7 8
M  V30 8 2 8 9
M  V30 9 1 8 10
M  V30 10 1 10 11
M  V30 11 2 11 12
M  V30 12 1 12 13
M  V30 13 2 13 14
M  V30 14 1 14 15
M  V30 15 2 15 16
M  V30 16 1 16 17
M  V30 17 1 17 18
M  V30 18 1 17 19
M  V30 19 1 17 20
M  V30 20 1 16 21
M  V30 21 2 21 22
M  V30 22 1 22 23
M  V30 23 1 6 24
M  V30 24 2 24 25
M  V30 25 1 25 3
M  V30 26 1 23 11
M  V30 27 1 22 13
M  V30 28 1 1 26
M  V30 29 1 1 27
M  V30 30 1 1 28
M  V30 31 1 4 29
M  V30 32 1 5 30
M  V30 33 1 7 31
M  V30 34 1 7 32
M  V30 35 1 10 33
M  V30 36 1 14 34
M  V30 37 1 15 35
M  V30 38 1 21 36
M  V30 39 1 24 37
M  V30 40 1 25 38
M  V30 END BOND
M  V30 END CTAB
M  END
>  <Dataset>  (387) 
ChEMBL_Kinases

>  <Ligand_Instance>  (387) 
nan

>  <PDB_ID>  (387) 
nan

>  <Standardized_SMILES>  (387) 
COc1ccc(CC(=O)Nc2nc3ccc(C(F)(F)F)cc3s2)cc1

>  <Name>  (387) 
nan

>  <Pocket>  (387) 
nan

>  <ATP_Site>  (387) 
nan

>  <Peripheral>  (387) 
nan

>  <Num_H_Atoms_ProtBoundConf>  (387) 
nan

>  <Num_Resolved_Atoms>  (387) 
nan

>  <Num_Not_Resolved_Atoms>  (387) 
nan

$$$$
CHEMBL3235561
     RDKit          3D

  0  0  0  0  0  0  0  0  0  0999 V3000
M  V30 BEGIN CTAB
M  V30 COUNTS 39 41 0 0 0
M  V30 BEGIN ATOM
M  V30 1 C 2.090680 -3.308102 6.364749 0
M  V30 2 O 2.522554 -3.795711 5.113251 0
M  V30 3 C 2.790395 -3.000716 4.021291 0
M  V30 4 C 3.196277 -3.671221 2.882872 0
M  V30 5 C 3.470201 -2.889798 1.773161 0
M  V30 6 C 3.357823 -1.521869 1.758562 0
M  V30 7 C 3.650034 -0.796479 0.488544 0
M  V30 8 C 2.408135 -0.521758 -0.264246 0
M  V30 9 O 1.730449 0.264225 0.489266 0
M  V30 10 N 1.839704 -0.890391 -1.505395 0
M  V30 11 C 0.544795 -0.208478 -1.576243 0
M  V30 12 N 0.160905 0.783217 -2.038857 0
M  V30 13 C -1.066769 1.249871 -2.017368 0
M  V30 14 C -1.465729 2.463527 -2.599499 0
M  V30 15 C -2.767569 2.833084 -2.507924 0
M  V30 16 C -3.759860 2.099567 -1.875518 0
M  V30 17 O -5.087147 2.446120 -1.766132 0
M  V30 18 C -6.082252 1.701441 -1.127298 0
M  V30 19 C -3.362198 0.913143 -1.306912 0
M  V30 20 C -2.019572 0.478928 -1.371827 0
M  V30 21 S -1.056154 -0.908019 -0.821961 0
M  V30 22 C 2.947869 -0.908540 2.926344 0
M  V30 23 C 2.651539 -1.614248 4.090775 0
M  V30 24 H 2.485625 -2.306278 6.613503 0
M  V30 25 H 2.338151 -4.050692 7.182965 0
M  V30 26 H 0.965169 -3.307533 6.305464 0
M  V30 27 H 3.294162 -4.755236 2.859222 0
M  V30 28 H 3.798482 -3.402760 0.857797 0
M  V30 29 H 4.284373 -1.424079 -0.165028 0
M  V30 30 H 4.214127 0.122803 0.762198 0
M  V30 31 H 2.449543 -1.513012 -2.019842 0
M  V30 32 H -0.835409 3.184529 -3.143423 0
M  V30 33 H -3.148092 3.765124 -2.934115 0
M  V30 34 H -7.021960 2.313879 -1.178788 0
M  V30 35 H -6.288598 0.713197 -1.622311 0
M  V30 36 H -5.871058 1.557527 -0.045626 0
M  V30 37 H -3.955414 0.201376 -0.775730 0
M  V30 38 H 2.852772 0.168010 2.931728 0
M  V30 39 H 2.330982 -1.105452 4.988463 0
M  V30 END ATOM
M  V30 BEGIN BOND
M  V30 1 1 1 2
M  V30 2 1 2 3
M  V30 3 2 3 4
M  V30 4 1 4 5
M  V30 5 2 5 6
M  V30 6 1 6 7
M  V30 7 1 7 8
M  V30 8 2 8 9
M  V30 9 1 8 10
M  V30 10 1 10 11
M  V30 11 2 11 12
M  V30 12 1 12 13
M  V30 13 2 13 14
M  V30 14 1 14 15
M  V30 15 2 15 16
M  V30 16 1 16 17
M  V30 17 1 17 18
M  V30 18 1 16 19
M  V30 19 2 19 20
M  V30 20 1 20 21
M  V30 21 1 6 22
M  V30 22 2 22 23
M  V30 23 1 23 3
M  V30 24 1 21 11
M  V30 25 1 20 13
M  V30 26 1 1 24
M  V30 27 1 1 25
M  V30 28 1 1 26
M  V30 29 1 4 27
M  V30 30 1 5 28
M  V30 31 1 7 29
M  V30 32 1 7 30
M  V30 33 1 10 31
M  V30 34 1 14 32
M  V30 35 1 15 33
M  V30 36 1 18 34
M  V30 37 1 18 35
M  V30 38 1 18 36
M  V30 39 1 19 37
M  V30 40 1 22 38
M  V30 41 1 23 39
M  V30 END BOND
M  V30 END CTAB
M  END
>  <Dataset>  (388) 
ChEMBL_Kinases

>  <Ligand_Instance>  (388) 
nan

>  <PDB_ID>  (388) 
nan

>  <Standardized_SMILES>  (388) 
COc1ccc(CC(=O)Nc2nc3ccc(OC)cc3s2)cc1

>  <Name>  (388) 
nan

>  <Pocket>  (388) 
nan

>  <ATP_Site>  (388) 
nan

>  <Peripheral>  (388) 
nan

>  <Num_H_Atoms_ProtBoundConf>  (388) 
nan

>  <Num_Resolved_Atoms>  (388) 
nan

>  <Num_Not_Resolved_Atoms>  (388) 
nan

$$$$
CHEMBL3235562
     RDKit          3D

  0  0  0  0  0  0  0  0  0  0999 V3000
M  V30 BEGIN CTAB
M  V30 COUNTS 42 44 0 0 0
M  V30 BEGIN ATOM
M  V30 1 C 1.186125 -8.447142 -0.223700 0
M  V30 2 C 2.435882 -7.863488 0.346581 0
M  V30 3 O 2.860938 -6.666708 -0.265887 0
M  V30 4 C 2.045354 -5.549218 -0.259050 0
M  V30 5 C 0.790187 -5.384212 0.286516 0
M  V30 6 C 0.060733 -4.223439 0.236590 0
M  V30 7 C 0.575049 -3.107930 -0.394596 0
M  V30 8 N 0.015338 -1.909700 -0.538879 0
M  V30 9 C 0.548583 -0.975335 -1.116720 0
M  V30 10 N -0.117612 0.338702 -1.249816 0
M  V30 11 C 0.030297 1.357211 -0.302797 0
M  V30 12 O 0.749041 1.229089 0.743705 0
M  V30 13 C -0.705973 2.632560 -0.573643 0
M  V30 14 C -0.442230 3.605074 0.524263 0
M  V30 15 C 0.580988 4.531826 0.575743 0
M  V30 16 C 0.709080 5.376321 1.659234 0
M  V30 17 C -0.167720 5.335214 2.728473 0
M  V30 18 O -0.048026 6.183536 3.828445 0
M  V30 19 C -0.941922 6.141894 4.918951 0
M  V30 20 C -1.185752 4.387559 2.639406 0
M  V30 21 C -1.341697 3.537919 1.584202 0
M  V30 22 S 2.158432 -1.597530 -1.674851 0
M  V30 23 C 1.867600 -3.316281 -0.943062 0
M  V30 24 C 2.622778 -4.479566 -0.904658 0
M  V30 25 H 1.400255 -9.447365 -0.700684 0
M  V30 26 H 0.390069 -8.662792 0.508894 0
M  V30 27 H 0.752832 -7.806132 -1.030080 0
M  V30 28 H 3.255231 -8.608864 0.254834 0
M  V30 29 H 2.258205 -7.671999 1.441473 0
M  V30 30 H 0.405037 -6.286557 0.784670 0
M  V30 31 H -0.899571 -4.229895 0.699642 0
M  V30 32 H -0.693769 0.401173 -2.116952 0
M  V30 33 H -0.259587 3.086070 -1.482488 0
M  V30 34 H -1.789039 2.487540 -0.697432 0
M  V30 35 H 1.247838 4.537051 -0.275970 0
M  V30 36 H 1.515609 6.075307 1.653218 0
M  V30 37 H -1.090393 5.098040 5.269837 0
M  V30 38 H -1.928343 6.535607 4.625453 0
M  V30 39 H -0.502602 6.735738 5.749942 0
M  V30 40 H -1.882600 4.351943 3.484842 0
M  V30 41 H -2.169206 2.849908 1.633480 0
M  V30 42 H 3.569451 -4.373674 -1.395416 0
M  V30 END ATOM
M  V30 BEGIN BOND
M  V30 1 1 1 2
M  V30 2 1 2 3
M  V30 3 1 3 4
M  V30 4 2 4 5
M  V30 5 1 5 6
M  V30 6 2 6 7
M  V30 7 1 7 8
M  V30 8 2 8 9
M  V30 9 1 9 10
M  V30 10 1 10 11
M  V30 11 2 11 12
M  V30 12 1 11 13
M  V30 13 1 13 14
M  V30 14 2 14 15
M  V30 15 1 15 16
M  V30 16 2 16 17
M  V30 17 1 17 18
M  V30 18 1 18 19
M  V30 19 1 17 20
M  V30 20 2 20 21
M  V30 21 1 9 22
M  V30 22 1 22 23
M  V30 23 2 23 24
M  V30 24 1 24 4
M  V30 25 1 23 7
M  V30 26 1 21 14
M  V30 27 1 1 25
M  V30 28 1 1 26
M  V30 29 1 1 27
M  V30 30 1 2 28
M  V30 31 1 2 29
M  V30 32 1 5 30
M  V30 33 1 6 31
M  V30 34 1 10 32
M  V30 35 1 13 33
M  V30 36 1 13 34
M  V30 37 1 15 35
M  V30 38 1 16 36
M  V30 39 1 19 37
M  V30 40 1 19 38
M  V30 41 1 19 39
M  V30 42 1 20 40
M  V30 43 1 21 41
M  V30 44 1 24 42
M  V30 END BOND
M  V30 END CTAB
M  END
>  <Dataset>  (389) 
ChEMBL_Kinases

>  <Ligand_Instance>  (389) 
nan

>  <PDB_ID>  (389) 
nan

>  <Standardized_SMILES>  (389) 
CCOc1ccc2nc(NC(=O)Cc3ccc(OC)cc3)sc2c1

>  <Name>  (389) 
nan

>  <Pocket>  (389) 
nan

>  <ATP_Site>  (389) 
nan

>  <Peripheral>  (389) 
nan

>  <Num_H_Atoms_ProtBoundConf>  (389) 
nan

>  <Num_Resolved_Atoms>  (389) 
nan

>  <Num_Not_Resolved_Atoms>  (389) 
nan

$$$$
CHEMBL3235563
     RDKit          3D

  0  0  0  0  0  0  0  0  0  0999 V3000
M  V30 BEGIN CTAB
M  V30 COUNTS 34 36 0 0 0
M  V30 BEGIN ATOM
M  V30 1 O 1.078542 -0.198807 -2.221150 0
M  V30 2 C 1.454000 -1.316873 -1.720669 0
M  V30 3 C 2.105986 -2.660481 -1.809945 0
M  V30 4 C 2.487645 -3.237760 -0.516009 0
M  V30 5 C 3.624459 -2.950504 0.182687 0
M  V30 6 C 4.037312 -3.455529 1.396997 0
M  V30 7 C 3.102943 -4.345322 1.848393 0
M  V30 8 C 1.903916 -4.799839 1.347107 0
M  V30 9 C 1.647068 -4.174542 0.104681 0
M  V30 10 N 0.974064 -1.115639 -0.375857 0
M  V30 11 C 0.266835 0.083224 0.132417 0
M  V30 12 N 0.003588 1.046544 0.553083 0
M  V30 13 C -0.944195 1.825475 0.890173 0
M  V30 14 C -1.047260 3.077848 1.442827 0
M  V30 15 C -2.275247 3.622048 1.683261 0
M  V30 16 C -3.497208 2.983680 1.401473 0
M  V30 17 C -4.892077 3.432506 1.620680 0
M  V30 18 F -5.567901 2.480385 2.407948 0
M  V30 19 F -4.973784 4.597154 2.371341 0
M  V30 20 F -5.591909 3.498022 0.446481 0
M  V30 21 C -3.443540 1.726151 0.844585 0
M  V30 22 C -2.129322 1.232106 0.625994 0
M  V30 23 S -1.575121 -0.341119 -0.060239 0
M  V30 24 H 1.480406 -3.379502 -2.374762 0
M  V30 25 H 3.041578 -2.520684 -2.428503 0
M  V30 26 H 4.266952 -2.222433 -0.323606 0
M  V30 27 H 4.929992 -3.202976 1.908659 0
M  V30 28 H 3.344203 -4.803122 2.823683 0
M  V30 29 H 1.280480 -5.512894 1.831916 0
M  V30 30 H 0.706398 -4.472121 -0.386336 0
M  V30 31 H 1.066187 -1.796923 0.432118 0
M  V30 32 H -0.190697 3.709202 1.718765 0
M  V30 33 H -2.426381 4.606632 2.114093 0
M  V30 34 H -4.249519 1.042609 0.545961 0
M  V30 END ATOM
M  V30 BEGIN BOND
M  V30 1 2 1 2
M  V30 2 1 2 3
M  V30 3 1 3 4
M  V30 4 2 4 5
M  V30 5 1 5 6
M  V30 6 2 6 7
M  V30 7 1 7 8
M  V30 8 2 8 9
M  V30 9 1 2 10
M  V30 10 1 10 11
M  V30 11 2 11 12
M  V30 12 1 12 13
M  V30 13 2 13 14
M  V30 14 1 14 15
M  V30 15 2 15 16
M  V30 16 1 16 17
M  V30 17 1 17 18
M  V30 18 1 17 19
M  V30 19 1 17 20
M  V30 20 1 16 21
M  V30 21 2 21 22
M  V30 22 1 22 23
M  V30 23 1 9 4
M  V30 24 1 23 11
M  V30 25 1 22 13
M  V30 26 1 3 24
M  V30 27 1 3 25
M  V30 28 1 5 26
M  V30 29 1 6 27
M  V30 30 1 7 28
M  V30 31 1 8 29
M  V30 32 1 9 30
M  V30 33 1 10 31
M  V30 34 1 14 32
M  V30 35 1 15 33
M  V30 36 1 21 34
M  V30 END BOND
M  V30 END CTAB
M  END
>  <Dataset>  (390) 
ChEMBL_Kinases

>  <Ligand_Instance>  (390) 
nan

>  <PDB_ID>  (390) 
nan

>  <Standardized_SMILES>  (390) 
O=C(Cc1ccccc1)Nc1nc2ccc(C(F)(F)F)cc2s1

>  <Name>  (390) 
nan

>  <Pocket>  (390) 
nan

>  <ATP_Site>  (390) 
nan

>  <Peripheral>  (390) 
nan

>  <Num_H_Atoms_ProtBoundConf>  (390) 
nan

>  <Num_Resolved_Atoms>  (390) 
nan

>  <Num_Not_Resolved_Atoms>  (390) 
nan

$$$$
CHEMBL3235573
     RDKit          3D

  0  0  0  0  0  0  0  0  0  0999 V3000
M  V30 BEGIN CTAB
M  V30 COUNTS 40 42 0 0 0
M  V30 BEGIN ATOM
M  V30 1 O -0.016351 -0.831935 0.620882 0
M  V30 2 C 1.240601 -0.843578 0.632926 0
M  V30 3 C 2.386890 -1.771943 0.550259 0
M  V30 4 C 1.938069 -3.210670 0.400101 0
M  V30 5 C 3.111785 -4.157584 0.316734 0
M  V30 6 C 2.551205 -5.554355 0.198032 0
M  V30 7 C 1.563676 -5.735943 -0.902499 0
M  V30 8 C 0.519461 -4.665324 -1.011622 0
M  V30 9 C 1.187810 -3.313644 -0.903835 0
M  V30 10 N 1.680714 0.496859 0.774342 0
M  V30 11 C 0.614831 1.533147 0.868837 0
M  V30 12 N 0.117799 1.915718 1.807433 0
M  V30 13 C -0.823027 2.816907 2.011104 0
M  V30 14 C -1.413754 3.266177 3.174512 0
M  V30 15 C -2.384890 4.224057 3.138809 0
M  V30 16 C -2.862807 4.822589 1.991612 0
M  V30 17 C -3.909662 5.864744 1.867874 0
M  V30 18 F -5.096281 5.200988 1.530357 0
M  V30 19 F -4.118770 6.417587 3.112034 0
M  V30 20 F -3.650272 6.785463 0.897843 0
M  V30 21 C -2.283058 4.385224 0.818242 0
M  V30 22 C -1.286749 3.400253 0.874980 0
M  V30 23 S -0.331670 2.607531 -0.416890 0
M  V30 24 H 3.074368 -1.486731 -0.284578 0
M  V30 25 H 2.974403 -1.679302 1.483930 0
M  V30 26 H 1.286180 -3.491713 1.223189 0
M  V30 27 H 3.758282 -4.125688 1.198941 0
M  V30 28 H 3.642855 -3.947418 -0.645647 0
M  V30 29 H 2.125192 -5.912596 1.166288 0
M  V30 30 H 3.414830 -6.227232 -0.035245 0
M  V30 31 H 2.050253 -5.895975 -1.898014 0
M  V30 32 H 1.001439 -6.684993 -0.675581 0
M  V30 33 H -0.329096 -4.770742 -0.306937 0
M  V30 34 H 0.077936 -4.726440 -2.034162 0
M  V30 35 H 0.443412 -2.513461 -0.932106 0
M  V30 36 H 1.856094 -3.212531 -1.784335 0
M  V30 37 H 2.612881 0.969958 0.832445 0
M  V30 38 H -1.161681 2.906303 4.172062 0
M  V30 39 H -2.864086 4.590733 4.062701 0
M  V30 40 H -2.495331 4.707115 -0.189190 0
M  V30 END ATOM
M  V30 BEGIN BOND
M  V30 1 2 1 2
M  V30 2 1 2 3
M  V30 3 1 3 4
M  V30 4 1 4 5
M  V30 5 1 5 6
M  V30 6 1 6 7
M  V30 7 1 7 8
M  V30 8 1 8 9
M  V30 9 1 2 10
M  V30 10 1 10 11
M  V30 11 2 11 12
M  V30 12 1 12 13
M  V30 13 2 13 14
M  V30 14 1 14 15
M  V30 15 2 15 16
M  V30 16 1 16 17
M  V30 17 1 17 18
M  V30 18 1 17 19
M  V30 19 1 17 20
M  V30 20 1 16 21
M  V30 21 2 21 22
M  V30 22 1 22 23
M  V30 23 1 9 4
M  V30 24 1 23 11
M  V30 25 1 22 13
M  V30 26 1 3 24
M  V30 27 1 3 25
M  V30 28 1 4 26
M  V30 29 1 5 27
M  V30 30 1 5 28
M  V30 31 1 6 29
M  V30 32 1 6 30
M  V30 33 1 7 31
M  V30 34 1 7 32
M  V30 35 1 8 33
M  V30 36 1 8 34
M  V30 37 1 9 35
M  V30 38 1 9 36
M  V30 39 1 10 37
M  V30 40 1 14 38
M  V30 41 1 15 39
M  V30 42 1 21 40
M  V30 END BOND
M  V30 END CTAB
M  END
>  <Dataset>  (391) 
ChEMBL_Kinases

>  <Ligand_Instance>  (391) 
nan

>  <PDB_ID>  (391) 
nan

>  <Standardized_SMILES>  (391) 
O=C(CC1CCCCC1)Nc1nc2ccc(C(F)(F)F)cc2s1

>  <Name>  (391) 
nan

>  <Pocket>  (391) 
nan

>  <ATP_Site>  (391) 
nan

>  <Peripheral>  (391) 
nan

>  <Num_H_Atoms_ProtBoundConf>  (391) 
nan

>  <Num_Resolved_Atoms>  (391) 
nan

>  <Num_Not_Resolved_Atoms>  (391) 
nan

$$$$
CHEMBL3235565
     RDKit          3D

  0  0  0  0  0  0  0  0  0  0999 V3000
M  V30 BEGIN CTAB
M  V30 COUNTS 35 37 0 0 0
M  V30 BEGIN ATOM
M  V30 1 C 1.833890 -5.790533 4.703051 0
M  V30 2 O 2.702280 -5.398764 3.657269 0
M  V30 3 C 2.566534 -4.177842 3.022458 0
M  V30 4 C 3.360964 -3.692115 1.986448 0
M  V30 5 C 3.189858 -2.472703 1.385223 0
M  V30 6 C 2.180978 -1.621439 1.786826 0
M  V30 7 N 1.831192 -0.427221 1.366290 0
M  V30 8 C 1.022002 0.290851 1.666429 0
M  V30 9 N 0.700348 1.642031 1.122163 0
M  V30 10 C -0.235817 1.532000 0.043298 0
M  V30 11 O -0.661885 0.396310 -0.312043 0
M  V30 12 C -0.625693 2.826545 -0.573512 0
M  V30 13 C -1.600611 2.631328 -1.686883 0
M  V30 14 C -2.935514 2.661705 -1.275838 0
M  V30 15 C -3.954106 2.494776 -2.198345 0
M  V30 16 C -3.643162 2.297781 -3.529005 0
M  V30 17 Cl -4.968814 2.088323 -4.678947 0
M  V30 18 C -2.321002 2.267993 -3.934182 0
M  V30 19 Cl -1.921450 2.019676 -5.612909 0
M  V30 20 C -1.294057 2.434398 -3.016417 0
M  V30 21 S 0.216533 -0.761168 3.065216 0
M  V30 22 C 1.407479 -2.093452 2.794969 0
M  V30 23 C 1.553282 -3.343200 3.438447 0
M  V30 24 H 1.999958 -5.196840 5.639928 0
M  V30 25 H 0.763854 -5.554023 4.432740 0
M  V30 26 H 1.975263 -6.838400 4.960898 0
M  V30 27 H 4.153493 -4.370168 1.676775 0
M  V30 28 H 3.907931 -2.250076 0.583533 0
M  V30 29 H 1.130855 2.498597 1.517578 0
M  V30 30 H -1.027667 3.512170 0.187716 0
M  V30 31 H 0.268377 3.294564 -1.008340 0
M  V30 32 H -3.248702 2.811844 -0.249504 0
M  V30 33 H -5.005000 2.516098 -1.891639 0
M  V30 34 H -0.257437 2.422623 -3.258756 0
M  V30 35 H 0.830007 -3.523123 4.218358 0
M  V30 END ATOM
M  V30 BEGIN BOND
M  V30 1 1 1 2
M  V30 2 1 2 3
M  V30 3 2 3 4
M  V30 4 1 4 5
M  V30 5 2 5 6
M  V30 6 1 6 7
M  V30 7 2 7 8
M  V30 8 1 8 9
M  V30 9 1 9 10
M  V30 10 2 10 11
M  V30 11 1 10 12
M  V30 12 1 12 13
M  V30 13 2 13 14
M  V30 14 1 14 15
M  V30 15 2 15 16
M  V30 16 1 16 17
M  V30 17 1 16 18
M  V30 18 1 18 19
M  V30 19 2 18 20
M  V30 20 1 8 21
M  V30 21 1 21 22
M  V30 22 2 22 23
M  V30 23 1 23 3
M  V30 24 1 22 6
M  V30 25 1 20 13
M  V30 26 1 1 24
M  V30 27 1 1 25
M  V30 28 1 1 26
M  V30 29 1 4 27
M  V30 30 1 5 28
M  V30 31 1 9 29
M  V30 32 1 12 30
M  V30 33 1 12 31
M  V30 34 1 14 32
M  V30 35 1 15 33
M  V30 36 1 20 34
M  V30 37 1 23 35
M  V30 END BOND
M  V30 END CTAB
M  END
>  <Dataset>  (392) 
ChEMBL_Kinases

>  <Ligand_Instance>  (392) 
nan

>  <PDB_ID>  (392) 
nan

>  <Standardized_SMILES>  (392) 
COc1ccc2nc(NC(=O)Cc3ccc(Cl)c(Cl)c3)sc2c1

>  <Name>  (392) 
nan

>  <Pocket>  (392) 
nan

>  <ATP_Site>  (392) 
nan

>  <Peripheral>  (392) 
nan

>  <Num_H_Atoms_ProtBoundConf>  (392) 
nan

>  <Num_Resolved_Atoms>  (392) 
nan

>  <Num_Not_Resolved_Atoms>  (392) 
nan

$$$$
CHEMBL3235566
     RDKit          3D

  0  0  0  0  0  0  0  0  0  0999 V3000
M  V30 BEGIN CTAB
M  V30 COUNTS 38 40 0 0 0
M  V30 BEGIN ATOM
M  V30 1 C 1.638751 -7.033186 1.651401 0
M  V30 2 C 2.057564 -6.417346 2.941707 0
M  V30 3 O 2.945002 -5.328765 2.823011 0
M  V30 4 C 2.675048 -4.173097 2.156936 0
M  V30 5 C 3.532907 -3.089575 2.026919 0
M  V30 6 C 3.268252 -1.926202 1.359639 0
M  V30 7 C 2.025062 -1.772231 0.733671 0
M  V30 8 N 1.577814 -0.745996 0.049950 0
M  V30 9 C 0.604158 -0.541395 -0.479906 0
M  V30 10 N 0.111975 0.591194 -1.233940 0
M  V30 11 C -0.593662 1.645323 -0.571369 0
M  V30 12 O -0.757699 1.529225 0.687977 0
M  V30 13 C -1.039881 2.744716 -1.477042 0
M  V30 14 C -1.753280 3.759096 -0.648251 0
M  V30 15 C -1.029770 4.798688 -0.084832 0
M  V30 16 C -1.746749 5.705285 0.671501 0
M  V30 17 C -3.116016 5.663113 0.912067 0
M  V30 18 Cl -3.897987 6.872826 1.886998 0
M  V30 19 C -3.786434 4.610144 0.329135 0
M  V30 20 Cl -5.505127 4.478198 0.577423 0
M  V30 21 C -3.127725 3.668015 -0.439866 0
M  V30 22 S -0.210431 -2.231648 -0.044021 0
M  V30 23 C 1.142965 -2.787398 0.820643 0
M  V30 24 C 1.454020 -3.998955 1.531326 0
M  V30 25 H 2.034219 -8.065084 1.597975 0
M  V30 26 H 0.525613 -7.133069 1.546122 0
M  V30 27 H 2.074366 -6.507446 0.768359 0
M  V30 28 H 1.119688 -6.065803 3.446761 0
M  V30 29 H 2.483525 -7.194061 3.605474 0
M  V30 30 H 4.500041 -3.249863 2.533088 0
M  V30 31 H 4.073657 -1.199850 1.374957 0
M  V30 32 H 0.324004 0.538901 -2.242645 0
M  V30 33 H -0.217864 3.183864 -2.058031 0
M  V30 34 H -1.733426 2.263926 -2.219001 0
M  V30 35 H 0.034903 4.920765 -0.211293 0
M  V30 36 H -1.221288 6.548583 1.140577 0
M  V30 37 H -3.664023 2.831148 -0.902503 0
M  V30 38 H 0.672547 -4.713171 1.521261 0
M  V30 END ATOM
M  V30 BEGIN BOND
M  V30 1 1 1 2
M  V30 2 1 2 3
M  V30 3 1 3 4
M  V30 4 2 4 5
M  V30 5 1 5 6
M  V30 6 2 6 7
M  V30 7 1 7 8
M  V30 8 2 8 9
M  V30 9 1 9 10
M  V30 10 1 10 11
M  V30 11 2 11 12
M  V30 12 1 11 13
M  V30 13 1 13 14
M  V30 14 2 14 15
M  V30 15 1 15 16
M  V30 16 2 16 17
M  V30 17 1 17 18
M  V30 18 1 17 19
M  V30 19 1 19 20
M  V30 20 2 19 21
M  V30 21 1 9 22
M  V30 22 1 22 23
M  V30 23 2 23 24
M  V30 24 1 24 4
M  V30 25 1 23 7
M  V30 26 1 21 14
M  V30 27 1 1 25
M  V30 28 1 1 26
M  V30 29 1 1 27
M  V30 30 1 2 28
M  V30 31 1 2 29
M  V30 32 1 5 30
M  V30 33 1 6 31
M  V30 34 1 10 32
M  V30 35 1 13 33
M  V30 36 1 13 34
M  V30 37 1 15 35
M  V30 38 1 16 36
M  V30 39 1 21 37
M  V30 40 1 24 38
M  V30 END BOND
M  V30 END CTAB
M  END
>  <Dataset>  (393) 
ChEMBL_Kinases

>  <Ligand_Instance>  (393) 
nan

>  <PDB_ID>  (393) 
nan

>  <Standardized_SMILES>  (393) 
CCOc1ccc2nc(NC(=O)Cc3ccc(Cl)c(Cl)c3)sc2c1

>  <Name>  (393) 
nan

>  <Pocket>  (393) 
nan

>  <ATP_Site>  (393) 
nan

>  <Peripheral>  (393) 
nan

>  <Num_H_Atoms_ProtBoundConf>  (393) 
nan

>  <Num_Resolved_Atoms>  (393) 
nan

>  <Num_Not_Resolved_Atoms>  (393) 
nan

$$$$
CHEMBL3235567
     RDKit          3D

  0  0  0  0  0  0  0  0  0  0999 V3000
M  V30 BEGIN CTAB
M  V30 COUNTS 35 37 0 0 0
M  V30 BEGIN ATOM
M  V30 1 O -0.622927 -1.586224 3.180010 0
M  V30 2 C 0.475461 -0.934245 3.155253 0
M  V30 3 C 1.622644 -1.343048 4.018084 0
M  V30 4 C 2.288674 -2.516172 3.404491 0
M  V30 5 C 3.342492 -2.174736 2.543598 0
M  V30 6 C 4.165589 -2.975867 1.807636 0
M  V30 7 C 3.928483 -4.358048 1.923559 0
M  V30 8 Cl 4.883216 -5.512151 1.055506 0
M  V30 9 C 2.902771 -4.736922 2.760202 0
M  V30 10 Cl 2.562652 -6.455576 2.934200 0
M  V30 11 C 2.092185 -3.915193 3.487673 0
M  V30 12 N 0.748332 0.198641 2.344750 0
M  V30 13 C -0.056798 0.928626 1.368850 0
M  V30 14 N -0.752455 1.806223 1.067366 0
M  V30 15 C -1.301623 1.971892 -0.122416 0
M  V30 16 C -2.126753 3.053375 -0.412907 0
M  V30 17 C -2.699155 3.235214 -1.639324 0
M  V30 18 C -2.483265 2.326630 -2.688375 0
M  V30 19 O -2.859905 2.151821 -4.005706 0
M  V30 20 C -4.059954 1.378764 -4.185329 0
M  V30 21 F -5.068511 2.050825 -3.519480 0
M  V30 22 F -3.941657 0.122648 -3.625927 0
M  V30 23 F -4.340334 1.227432 -5.530971 0
M  V30 24 C -1.661360 1.269463 -2.371443 0
M  V30 25 C -1.077004 1.077945 -1.131704 0
M  V30 26 S 0.012112 -0.078979 -0.272376 0
M  V30 27 H 1.202790 -1.642737 5.029828 0
M  V30 28 H 2.329069 -0.543105 4.181171 0
M  V30 29 H 3.608517 -1.123377 2.386492 0
M  V30 30 H 4.959142 -2.657740 1.162854 0
M  V30 31 H 1.280760 -4.118029 4.154595 0
M  V30 32 H 1.658477 0.693388 2.355767 0
M  V30 33 H -2.451153 3.887520 0.202889 0
M  V30 34 H -3.342117 3.993794 -2.018863 0
M  V30 35 H -1.324234 0.426493 -2.970663 0
M  V30 END ATOM
M  V30 BEGIN BOND
M  V30 1 2 1 2
M  V30 2 1 2 3
M  V30 3 1 3 4
M  V30 4 2 4 5
M  V30 5 1 5 6
M  V30 6 2 6 7
M  V30 7 1 7 8
M  V30 8 1 7 9
M  V30 9 1 9 10
M  V30 10 2 9 11
M  V30 11 1 2 12
M  V30 12 1 12 13
M  V30 13 2 13 14
M  V30 14 1 14 15
M  V30 15 2 15 16
M  V30 16 1 16 17
M  V30 17 2 17 18
M  V30 18 1 18 19
M  V30 19 1 19 20
M  V30 20 1 20 21
M  V30 21 1 20 22
M  V30 22 1 20 23
M  V30 23 1 18 24
M  V30 24 2 24 25
M  V30 25 1 25 26
M  V30 26 1 11 4
M  V30 27 1 26 13
M  V30 28 1 25 15
M  V30 29 1 3 27
M  V30 30 1 3 28
M  V30 31 1 5 29
M  V30 32 1 6 30
M  V30 33 1 11 31
M  V30 34 1 12 32
M  V30 35 1 16 33
M  V30 36 1 17 34
M  V30 37 1 24 35
M  V30 END BOND
M  V30 END CTAB
M  END
>  <Dataset>  (394) 
ChEMBL_Kinases

>  <Ligand_Instance>  (394) 
nan

>  <PDB_ID>  (394) 
nan

>  <Standardized_SMILES>  (394) 
O=C(Cc1ccc(Cl)c(Cl)c1)Nc1nc2ccc(OC(F)(F)F)cc2s1

>  <Name>  (394) 
nan

>  <Pocket>  (394) 
nan

>  <ATP_Site>  (394) 
nan

>  <Peripheral>  (394) 
nan

>  <Num_H_Atoms_ProtBoundConf>  (394) 
nan

>  <Num_Resolved_Atoms>  (394) 
nan

>  <Num_Not_Resolved_Atoms>  (394) 
nan

$$$$
CHEMBL3235568
     RDKit          3D

  0  0  0  0  0  0  0  0  0  0999 V3000
M  V30 BEGIN CTAB
M  V30 COUNTS 42 44 0 0 0
M  V30 BEGIN ATOM
M  V30 1 C 5.658773 -4.379381 -1.444556 0
M  V30 2 O 4.772206 -3.348274 -1.810266 0
M  V30 3 C 4.393615 -2.319853 -0.959618 0
M  V30 4 C 4.829010 -2.168369 0.344957 0
M  V30 5 C 4.404315 -1.116136 1.125814 0
M  V30 6 C 3.523933 -0.194860 0.588220 0
M  V30 7 O 3.112870 0.851741 1.391784 0
M  V30 8 C 3.550235 1.009304 2.711516 0
M  V30 9 C 3.087990 -0.354284 -0.731317 0
M  V30 10 C 2.133465 0.720980 -1.179696 0
M  V30 11 C 0.777609 0.460204 -0.577205 0
M  V30 12 O 0.731853 -0.571228 0.149369 0
M  V30 13 N -0.276967 1.359650 -0.870195 0
M  V30 14 C -1.484905 0.905225 -0.181512 0
M  V30 15 N -1.890295 1.147085 0.862856 0
M  V30 16 C -2.974663 0.740171 1.484835 0
M  V30 17 C -3.452368 1.038137 2.743011 0
M  V30 18 C -4.617077 0.492175 3.187368 0
M  V30 19 C -5.418872 -0.387003 2.455647 0
M  V30 20 C -6.689079 -0.997592 2.909781 0
M  V30 21 F -7.694563 -0.748061 1.980820 0
M  V30 22 F -7.047733 -0.525857 4.168314 0
M  V30 23 F -6.605690 -2.374225 2.998995 0
M  V30 24 C -4.975007 -0.709827 1.191802 0
M  V30 25 C -3.776674 -0.139778 0.751821 0
M  V30 26 S -2.856139 -0.292400 -0.802148 0
M  V30 27 C 3.509140 -1.410255 -1.527040 0
M  V30 28 H 6.718029 -4.037339 -1.589267 0
M  V30 29 H 5.527446 -4.729521 -0.410142 0
M  V30 30 H 5.490188 -5.222163 -2.144006 0
M  V30 31 H 5.515154 -2.921247 0.703553 0
M  V30 32 H 4.807326 -1.107142 2.108723 0
M  V30 33 H 2.960073 0.394572 3.427758 0
M  V30 34 H 3.406584 2.072173 3.047828 0
M  V30 35 H 4.616916 0.775031 2.869773 0
M  V30 36 H 2.510321 1.689121 -0.802107 0
M  V30 37 H 2.071453 0.808123 -2.265972 0
M  V30 38 H -0.155827 2.180074 -1.473777 0
M  V30 39 H -2.962059 1.700938 3.449239 0
M  V30 40 H -5.022299 0.712141 4.186137 0
M  V30 41 H -5.451311 -1.364436 0.484707 0
M  V30 42 H 3.107917 -1.430160 -2.524091 0
M  V30 END ATOM
M  V30 BEGIN BOND
M  V30 1 1 1 2
M  V30 2 1 2 3
M  V30 3 2 3 4
M  V30 4 1 4 5
M  V30 5 2 5 6
M  V30 6 1 6 7
M  V30 7 1 7 8
M  V30 8 1 6 9
M  V30 9 1 9 10
M  V30 10 1 10 11
M  V30 11 2 11 12
M  V30 12 1 11 13
M  V30 13 1 13 14
M  V30 14 2 14 15
M  V30 15 1 15 16
M  V30 16 2 16 17
M  V30 17 1 17 18
M  V30 18 2 18 19
M  V30 19 1 19 20
M  V30 20 1 20 21
M  V30 21 1 20 22
M  V30 22 1 20 23
M  V30 23 1 19 24
M  V30 24 2 24 25
M  V30 25 1 25 26
M  V30 26 2 9 27
M  V30 27 1 27 3
M  V30 28 1 26 14
M  V30 29 1 25 16
M  V30 30 1 1 28
M  V30 31 1 1 29
M  V30 32 1 1 30
M  V30 33 1 4 31
M  V30 34 1 5 32
M  V30 35 1 8 33
M  V30 36 1 8 34
M  V30 37 1 8 35
M  V30 38 1 10 36
M  V30 39 1 10 37
M  V30 40 1 13 38
M  V30 41 1 17 39
M  V30 42 1 18 40
M  V30 43 1 24 41
M  V30 44 1 27 42
M  V30 END BOND
M  V30 END CTAB
M  END
>  <Dataset>  (395) 
ChEMBL_Kinases

>  <Ligand_Instance>  (395) 
nan

>  <PDB_ID>  (395) 
nan

>  <Standardized_SMILES>  (395) 
COc1ccc(OC)c(CC(=O)Nc2nc3ccc(C(F)(F)F)cc3s2)c1

>  <Name>  (395) 
nan

>  <Pocket>  (395) 
nan

>  <ATP_Site>  (395) 
nan

>  <Peripheral>  (395) 
nan

>  <Num_H_Atoms_ProtBoundConf>  (395) 
nan

>  <Num_Resolved_Atoms>  (395) 
nan

>  <Num_Not_Resolved_Atoms>  (395) 
nan

$$$$
CHEMBL3235569
     RDKit          3D

  0  0  0  0  0  0  0  0  0  0999 V3000
M  V30 BEGIN CTAB
M  V30 COUNTS 47 49 0 0 0
M  V30 BEGIN ATOM
M  V30 1 C 0.530843 -3.163516 5.262040 0
M  V30 2 O -0.119372 -3.952279 4.286138 0
M  V30 3 C 0.232415 -3.757693 2.957678 0
M  V30 4 C 1.188876 -2.818760 2.623571 0
M  V30 5 C 1.539283 -2.624333 1.304674 0
M  V30 6 C 2.523746 -1.678086 0.781833 0
M  V30 7 C 1.947587 -0.357737 0.436753 0
M  V30 8 O 0.693373 -0.360534 0.686804 0
M  V30 9 N 2.724065 0.691944 -0.083040 0
M  V30 10 C 1.820357 1.854101 -0.308979 0
M  V30 11 N 1.509687 2.729606 0.370317 0
M  V30 12 C 0.704423 3.744464 0.135005 0
M  V30 13 C 0.349055 4.783009 0.972359 0
M  V30 14 C -0.518346 5.757724 0.531668 0
M  V30 15 C -1.090512 5.793957 -0.725250 0
M  V30 16 O -1.964790 6.748090 -1.214563 0
M  V30 17 C -3.361959 6.528034 -1.023979 0
M  V30 18 F -3.641058 6.444177 0.345483 0
M  V30 19 F -4.113354 7.525102 -1.582269 0
M  V30 20 F -3.751324 5.329458 -1.571787 0
M  V30 21 C -0.740733 4.760972 -1.566459 0
M  V30 22 C 0.141233 3.784765 -1.094679 0
M  V30 23 S 0.827323 2.294306 -1.890309 0
M  V30 24 C 0.923625 -3.380404 0.306250 0
M  V30 25 C -0.041218 -4.327197 0.645339 0
M  V30 26 O -0.686764 -5.109519 -0.320948 0
M  V30 27 C -0.380396 -4.967326 -1.701707 0
M  V30 28 C -0.371044 -4.500879 1.961768 0
M  V30 29 O -1.325462 -5.438450 2.288302 0
M  V30 30 C -1.023677 -6.783907 2.576127 0
M  V30 31 H 1.626163 -3.347681 5.172304 0
M  V30 32 H 0.352273 -2.099218 5.012300 0
M  V30 33 H 0.205738 -3.415465 6.286076 0
M  V30 34 H 1.699134 -2.204646 3.350537 0
M  V30 35 H 3.266250 -1.470202 1.606845 0
M  V30 36 H 3.124918 -2.116111 -0.040565 0
M  V30 37 H 3.725252 0.603968 -0.251734 0
M  V30 38 H 0.700079 4.918205 1.993571 0
M  V30 39 H -0.812666 6.593225 1.186012 0
M  V30 40 H -1.066353 4.604970 -2.564339 0
M  V30 41 H 1.140044 -3.292162 -0.758830 0
M  V30 42 H -0.579478 -3.950003 -2.091038 0
M  V30 43 H -1.066380 -5.663779 -2.243115 0
M  V30 44 H 0.680927 -5.272300 -1.861043 0
M  V30 45 H -1.254515 -7.380971 1.674839 0
M  V30 46 H -1.712181 -7.067011 3.425526 0
M  V30 47 H 0.034998 -6.934178 2.836114 0
M  V30 END ATOM
M  V30 BEGIN BOND
M  V30 1 1 1 2
M  V30 2 1 2 3
M  V30 3 2 3 4
M  V30 4 1 4 5
M  V30 5 1 5 6
M  V30 6 1 6 7
M  V30 7 2 7 8
M  V30 8 1 7 9
M  V30 9 1 9 10
M  V30 10 2 10 11
M  V30 11 1 11 12
M  V30 12 2 12 13
M  V30 13 1 13 14
M  V30 14 2 14 15
M  V30 15 1 15 16
M  V30 16 1 16 17
M  V30 17 1 17 18
M  V30 18 1 17 19
M  V30 19 1 17 20
M  V30 20 1 15 21
M  V30 21 2 21 22
M  V30 22 1 22 23
M  V30 23 2 5 24
M  V30 24 1 24 25
M  V30 25 1 25 26
M  V30 26 1 26 27
M  V30 27 2 25 28
M  V30 28 1 28 29
M  V30 29 1 29 30
M  V30 30 1 28 3
M  V30 31 1 23 10
M  V30 32 1 22 12
M  V30 33 1 1 31
M  V30 34 1 1 32
M  V30 35 1 1 33
M  V30 36 1 4 34
M  V30 37 1 6 35
M  V30 38 1 6 36
M  V30 39 1 9 37
M  V30 40 1 13 38
M  V30 41 1 14 39
M  V30 42 1 21 40
M  V30 43 1 24 41
M  V30 44 1 27 42
M  V30 45 1 27 43
M  V30 46 1 27 44
M  V30 47 1 30 45
M  V30 48 1 30 46
M  V30 49 1 30 47
M  V30 END BOND
M  V30 END CTAB
M  END
>  <Dataset>  (396) 
ChEMBL_Kinases

>  <Ligand_Instance>  (396) 
nan

>  <PDB_ID>  (396) 
nan

>  <Standardized_SMILES>  (396) 
COc1cc(CC(=O)Nc2nc3ccc(OC(F)(F)F)cc3s2)cc(OC)c1OC

>  <Name>  (396) 
nan

>  <Pocket>  (396) 
nan

>  <ATP_Site>  (396) 
nan

>  <Peripheral>  (396) 
nan

>  <Num_H_Atoms_ProtBoundConf>  (396) 
nan

>  <Num_Resolved_Atoms>  (396) 
nan

>  <Num_Not_Resolved_Atoms>  (396) 
nan

$$$$
CHEMBL3235570
     RDKit          3D

  0  0  0  0  0  0  0  0  0  0999 V3000
M  V30 BEGIN CTAB
M  V30 COUNTS 47 49 0 0 0
M  V30 BEGIN ATOM
M  V30 1 C -2.798880 -8.463005 1.383864 0
M  V30 2 O -3.307647 -7.166504 1.334556 0
M  V30 3 C -2.717252 -6.105544 0.676063 0
M  V30 4 C -1.538519 -6.146188 -0.036493 0
M  V30 5 C -0.944228 -5.092894 -0.695345 0
M  V30 6 C -1.564221 -3.852588 -0.660539 0
M  V30 7 N -1.198276 -2.710043 -1.203812 0
M  V30 8 C -1.674978 -1.678858 -1.198516 0
M  V30 9 N -1.254344 -0.401555 -1.813609 0
M  V30 10 C -0.446624 0.280704 -0.882825 0
M  V30 11 O -0.140835 -0.135254 0.271150 0
M  V30 12 C 0.117688 1.626439 -1.264357 0
M  V30 13 C 0.935751 2.177151 -0.151463 0
M  V30 14 C 2.289864 1.997705 0.044156 0
M  V30 15 C 2.892664 2.594188 1.152068 0
M  V30 16 O 4.233401 2.404236 1.327065 0
M  V30 17 C 5.112574 1.677130 0.532040 0
M  V30 18 C 2.199088 3.359245 2.067944 0
M  V30 19 O 2.887763 3.911883 3.139534 0
M  V30 20 C 3.042865 3.227930 4.390746 0
M  V30 21 C 0.831525 3.529474 1.853693 0
M  V30 22 O 0.170512 4.297033 2.784340 0
M  V30 23 C -1.223231 4.557987 2.698539 0
M  V30 24 C 0.214521 2.937360 0.747500 0
M  V30 25 S -3.226528 -2.082090 -0.133273 0
M  V30 26 C -2.754278 -3.792047 0.053537 0
M  V30 27 C -3.333686 -4.871982 0.710562 0
M  V30 28 H -3.329937 -9.076818 0.620293 0
M  V30 29 H -3.108853 -8.905270 2.368066 0
M  V30 30 H -1.705389 -8.547410 1.260577 0
M  V30 31 H -1.052511 -7.135655 -0.058998 0
M  V30 32 H -0.006579 -5.309295 -1.210660 0
M  V30 33 H -1.498604 -0.060856 -2.744174 0
M  V30 34 H -0.665869 2.317174 -1.586131 0
M  V30 35 H 0.788200 1.448565 -2.153889 0
M  V30 36 H 2.789240 1.398742 -0.688367 0
M  V30 37 H 5.945875 1.205547 1.126421 0
M  V30 38 H 5.611414 2.265737 -0.252570 0
M  V30 39 H 4.561102 0.799437 0.119443 0
M  V30 40 H 4.138212 3.088907 4.620765 0
M  V30 41 H 2.636676 3.880486 5.175633 0
M  V30 42 H 2.619415 2.210390 4.370608 0
M  V30 43 H -1.614606 4.885447 3.692576 0
M  V30 44 H -1.456540 5.370523 1.977611 0
M  V30 45 H -1.779616 3.640329 2.450935 0
M  V30 46 H -0.842142 3.146818 0.699400 0
M  V30 47 H -4.244094 -4.646983 1.206931 0
M  V30 END ATOM
M  V30 BEGIN BOND
M  V30 1 1 1 2
M  V30 2 1 2 3
M  V30 3 2 3 4
M  V30 4 1 4 5
M  V30 5 2 5 6
M  V30 6 1 6 7
M  V30 7 2 7 8
M  V30 8 1 8 9
M  V30 9 1 9 10
M  V30 10 2 10 11
M  V30 11 1 10 12
M  V30 12 1 12 13
M  V30 13 2 13 14
M  V30 14 1 14 15
M  V30 15 1 15 16
M  V30 16 1 16 17
M  V30 17 2 15 18
M  V30 18 1 18 19
M  V30 19 1 19 20
M  V30 20 1 18 21
M  V30 21 1 21 22
M  V30 22 1 22 23
M  V30 23 2 21 24
M  V30 24 1 8 25
M  V30 25 1 25 26
M  V30 26 2 26 27
M  V30 27 1 27 3
M  V30 28 1 26 6
M  V30 29 1 24 13
M  V30 30 1 1 28
M  V30 31 1 1 29
M  V30 32 1 1 30
M  V30 33 1 4 31
M  V30 34 1 5 32
M  V30 35 1 9 33
M  V30 36 1 12 34
M  V30 37 1 12 35
M  V30 38 1 14 36
M  V30 39 1 17 37
M  V30 40 1 17 38
M  V30 41 1 17 39
M  V30 42 1 20 40
M  V30 43 1 20 41
M  V30 44 1 20 42
M  V30 45 1 23 43
M  V30 46 1 23 44
M  V30 47 1 23 45
M  V30 48 1 24 46
M  V30 49 1 27 47
M  V30 END BOND
M  V30 END CTAB
M  END
>  <Dataset>  (397) 
ChEMBL_Kinases

>  <Ligand_Instance>  (397) 
nan

>  <PDB_ID>  (397) 
nan

>  <Standardized_SMILES>  (397) 
COc1ccc2nc(NC(=O)Cc3cc(OC)c(OC)c(OC)c3)sc2c1

>  <Name>  (397) 
nan

>  <Pocket>  (397) 
nan

>  <ATP_Site>  (397) 
nan

>  <Peripheral>  (397) 
nan

>  <Num_H_Atoms_ProtBoundConf>  (397) 
nan

>  <Num_Resolved_Atoms>  (397) 
nan

>  <Num_Not_Resolved_Atoms>  (397) 
nan

$$$$
CHEMBL3235571
     RDKit          3D

  0  0  0  0  0  0  0  0  0  0999 V3000
M  V30 BEGIN CTAB
M  V30 COUNTS 50 52 0 0 0
M  V30 BEGIN ATOM
M  V30 1 C 4.703846 -5.673799 5.211252 0
M  V30 2 C 5.960699 -5.076918 4.644843 0
M  V30 3 O 5.787154 -4.409453 3.423923 0
M  V30 4 C 4.954639 -3.319974 3.234285 0
M  V30 5 C 4.159797 -2.696415 4.172896 0
M  V30 6 C 3.353702 -1.612039 3.910516 0
M  V30 7 C 3.300082 -1.073897 2.640660 0
M  V30 8 N 2.591642 -0.047871 2.213927 0
M  V30 9 C 2.529863 0.419797 1.161020 0
M  V30 10 N 1.762280 1.564333 0.613353 0
M  V30 11 C 0.487801 1.188476 0.111710 0
M  V30 12 O -0.516225 0.505363 -0.213982 0
M  V30 13 C -0.423170 2.205353 -0.478303 0
M  V30 14 C -1.687047 1.631414 -0.942693 0
M  V30 15 C -1.777669 1.171581 -2.261216 0
M  V30 16 C -2.976238 0.635827 -2.675377 0
M  V30 17 O -3.066275 0.181146 -3.978714 0
M  V30 18 C -2.037835 0.220324 -4.914223 0
M  V30 19 C -4.082610 0.532531 -1.856590 0
M  V30 20 O -5.250970 -0.034241 -2.396423 0
M  V30 21 C -6.130615 0.920518 -3.006061 0
M  V30 22 C -3.996431 0.986516 -0.551562 0
M  V30 23 O -5.126530 0.868436 0.246069 0
M  V30 24 C -4.996108 1.349815 1.590797 0
M  V30 25 C -2.797386 1.524384 -0.131462 0
M  V30 26 S 3.749566 -0.728177 0.234592 0
M  V30 27 C 4.082955 -1.692467 1.728371 0
M  V30 28 C 4.908701 -2.790174 1.962127 0
M  V30 29 H 3.819233 -5.471776 4.583478 0
M  V30 30 H 4.472023 -5.299119 6.247856 0
M  V30 31 H 4.870026 -6.773789 5.350478 0
M  V30 32 H 6.388802 -4.423706 5.436790 0
M  V30 33 H 6.731352 -5.874094 4.456847 0
M  V30 34 H 4.220743 -3.145291 5.178116 0
M  V30 35 H 2.797556 -1.254784 4.779043 0
M  V30 36 H 1.996825 2.553586 0.540296 0
M  V30 37 H -0.657055 2.940487 0.333767 0
M  V30 38 H 0.142238 2.761742 -1.244613 0
M  V30 39 H -0.900932 1.258146 -2.896280 0
M  V30 40 H -1.470857 1.184184 -4.863384 0
M  V30 41 H -1.299074 -0.580702 -4.693527 0
M  V30 42 H -2.471681 0.022194 -5.911722 0
M  V30 43 H -6.077578 1.898980 -2.494808 0
M  V30 44 H -5.749706 1.032224 -4.060594 0
M  V30 45 H -7.150500 0.510659 -3.082126 0
M  V30 46 H -4.094467 0.944175 2.065769 0
M  V30 47 H -5.904534 1.094563 2.186338 0
M  V30 48 H -4.960415 2.477235 1.594166 0
M  V30 49 H -2.721132 1.882176 0.886944 0
M  V30 50 H 5.453037 -3.128913 1.082698 0
M  V30 END ATOM
M  V30 BEGIN BOND
M  V30 1 1 1 2
M  V30 2 1 2 3
M  V30 3 1 3 4
M  V30 4 2 4 5
M  V30 5 1 5 6
M  V30 6 2 6 7
M  V30 7 1 7 8
M  V30 8 2 8 9
M  V30 9 1 9 10
M  V30 10 1 10 11
M  V30 11 2 11 12
M  V30 12 1 11 13
M  V30 13 1 13 14
M  V30 14 2 14 15
M  V30 15 1 15 16
M  V30 16 1 16 17
M  V30 17 1 17 18
M  V30 18 2 16 19
M  V30 19 1 19 20
M  V30 20 1 20 21
M  V30 21 1 19 22
M  V30 22 1 22 23
M  V30 23 1 23 24
M  V30 24 2 22 25
M  V30 25 1 9 26
M  V30 26 1 26 27
M  V30 27 2 27 28
M  V30 28 1 28 4
M  V30 29 1 27 7
M  V30 30 1 25 14
M  V30 31 1 1 29
M  V30 32 1 1 30
M  V30 33 1 1 31
M  V30 34 1 2 32
M  V30 35 1 2 33
M  V30 36 1 5 34
M  V30 37 1 6 35
M  V30 38 1 10 36
M  V30 39 1 13 37
M  V30 40 1 13 38
M  V30 41 1 15 39
M  V30 42 1 18 40
M  V30 43 1 18 41
M  V30 44 1 18 42
M  V30 45 1 21 43
M  V30 46 1 21 44
M  V30 47 1 21 45
M  V30 48 1 24 46
M  V30 49 1 24 47
M  V30 50 1 24 48
M  V30 51 1 25 49
M  V30 52 1 28 50
M  V30 END BOND
M  V30 END CTAB
M  END
>  <Dataset>  (398) 
ChEMBL_Kinases

>  <Ligand_Instance>  (398) 
nan

>  <PDB_ID>  (398) 
nan

>  <Standardized_SMILES>  (398) 
CCOc1ccc2nc(NC(=O)Cc3cc(OC)c(OC)c(OC)c3)sc2c1

>  <Name>  (398) 
nan

>  <Pocket>  (398) 
nan

>  <ATP_Site>  (398) 
nan

>  <Peripheral>  (398) 
nan

>  <Num_H_Atoms_ProtBoundConf>  (398) 
nan

>  <Num_Resolved_Atoms>  (398) 
nan

>  <Num_Not_Resolved_Atoms>  (398) 
nan

$$$$
CHEMBL3235572
     RDKit          3D

  0  0  0  0  0  0  0  0  0  0999 V3000
M  V30 BEGIN CTAB
M  V30 COUNTS 46 48 0 0 0
M  V30 BEGIN ATOM
M  V30 1 C -3.737417 -3.267747 -2.053652 0
M  V30 2 O -2.704819 -4.120482 -1.595059 0
M  V30 3 C -1.430896 -3.689530 -1.303189 0
M  V30 4 C -0.956061 -2.384661 -1.405042 0
M  V30 5 C 0.360619 -2.089285 -1.075658 0
M  V30 6 C 0.685249 -0.652930 -1.244779 0
M  V30 7 C 0.430133 0.126799 -0.006397 0
M  V30 8 O 0.002151 -0.188927 1.134766 0
M  V30 9 N 0.750396 1.501762 -0.204229 0
M  V30 10 C 0.564909 2.453395 0.917309 0
M  V30 11 N 1.344610 2.736833 1.720392 0
M  V30 12 C 1.256056 3.566465 2.739352 0
M  V30 13 C 2.197446 3.896199 3.692865 0
M  V30 14 C 1.908485 4.785925 4.676690 0
M  V30 15 C 0.694210 5.433601 4.828910 0
M  V30 16 C 0.314691 6.411698 5.875969 0
M  V30 17 F -0.381134 5.694310 6.855335 0
M  V30 18 F 1.427226 6.987875 6.455407 0
M  V30 19 F -0.509985 7.389521 5.350713 0
M  V30 20 C -0.262527 5.120047 3.887692 0
M  V30 21 C 0.055545 4.202955 2.884979 0
M  V30 22 S -0.907457 3.546371 1.498306 0
M  V30 23 C 1.224722 -3.072122 -0.642881 0
M  V30 24 C 0.734343 -4.357910 -0.549111 0
M  V30 25 O 1.593158 -5.358655 -0.114522 0
M  V30 26 C 2.940408 -5.097511 0.230163 0
M  V30 27 C -0.564675 -4.697178 -0.865244 0
M  V30 28 O -0.966441 -6.035824 -0.735965 0
M  V30 29 C -0.851353 -6.956811 -1.796433 0
M  V30 30 H -3.648704 -3.044603 -3.147430 0
M  V30 31 H -3.627394 -2.258677 -1.563189 0
M  V30 32 H -4.744604 -3.629577 -1.774151 0
M  V30 33 H -1.684829 -1.663998 -1.750082 0
M  V30 34 H 1.789613 -0.626239 -1.417912 0
M  V30 35 H 0.212927 -0.210791 -2.132923 0
M  V30 36 H 1.108063 2.065549 -0.984930 0
M  V30 37 H 3.213972 3.479709 3.727358 0
M  V30 38 H 2.652648 5.057841 5.444733 0
M  V30 39 H -1.255833 5.493930 3.811495 0
M  V30 40 H 2.232900 -2.763134 -0.405830 0
M  V30 41 H 3.332665 -6.056417 0.644048 0
M  V30 42 H 3.028963 -4.366576 1.047846 0
M  V30 43 H 3.563293 -4.762209 -0.622813 0
M  V30 44 H 0.137407 -7.479180 -1.725625 0
M  V30 45 H -0.991689 -6.448878 -2.772671 0
M  V30 46 H -1.642693 -7.717404 -1.646708 0
M  V30 END ATOM
M  V30 BEGIN BOND
M  V30 1 1 1 2
M  V30 2 1 2 3
M  V30 3 2 3 4
M  V30 4 1 4 5
M  V30 5 1 5 6
M  V30 6 1 6 7
M  V30 7 2 7 8
M  V30 8 1 7 9
M  V30 9 1 9 10
M  V30 10 2 10 11
M  V30 11 1 11 12
M  V30 12 2 12 13
M  V30 13 1 13 14
M  V30 14 2 14 15
M  V30 15 1 15 16
M  V30 16 1 16 17
M  V30 17 1 16 18
M  V30 18 1 16 19
M  V30 19 1 15 20
M  V30 20 2 20 21
M  V30 21 1 21 22
M  V30 22 2 5 23
M  V30 23 1 23 24
M  V30 24 1 24 25
M  V30 25 1 25 26
M  V30 26 2 24 27
M  V30 27 1 27 28
M  V30 28 1 28 29
M  V30 29 1 27 3
M  V30 30 1 22 10
M  V30 31 1 21 12
M  V30 32 1 1 30
M  V30 33 1 1 31
M  V30 34 1 1 32
M  V30 35 1 4 33
M  V30 36 1 6 34
M  V30 37 1 6 35
M  V30 38 1 9 36
M  V30 39 1 13 37
M  V30 40 1 14 38
M  V30 41 1 20 39
M  V30 42 1 23 40
M  V30 43 1 26 41
M  V30 44 1 26 42
M  V30 45 1 26 43
M  V30 46 1 29 44
M  V30 47 1 29 45
M  V30 48 1 29 46
M  V30 END BOND
M  V30 END CTAB
M  END
>  <Dataset>  (399) 
ChEMBL_Kinases

>  <Ligand_Instance>  (399) 
nan

>  <PDB_ID>  (399) 
nan

>  <Standardized_SMILES>  (399) 
COc1cc(CC(=O)Nc2nc3ccc(C(F)(F)F)cc3s2)cc(OC)c1OC

>  <Name>  (399) 
nan

>  <Pocket>  (399) 
nan

>  <ATP_Site>  (399) 
nan

>  <Peripheral>  (399) 
nan

>  <Num_H_Atoms_ProtBoundConf>  (399) 
nan

>  <Num_Resolved_Atoms>  (399) 
nan

>  <Num_Not_Resolved_Atoms>  (399) 
nan

$$$$
CHEMBL3235564
     RDKit          3D

  0  0  0  0  0  0  0  0  0  0999 V3000
M  V30 BEGIN CTAB
M  V30 COUNTS 34 36 0 0 0
M  V30 BEGIN ATOM
M  V30 1 O 1.076138 -1.481255 0.806229 0
M  V30 2 C 0.710116 -1.822634 1.956340 0
M  V30 3 C 1.696851 -2.649030 2.733841 0
M  V30 4 C 2.875473 -2.800701 1.807605 0
M  V30 5 C 3.885112 -1.871223 1.841585 0
M  V30 6 C 4.930073 -2.085668 0.957928 0
M  V30 7 C 5.010107 -3.159535 0.064361 0
M  V30 8 Cl 6.362870 -3.354399 -1.014956 0
M  V30 9 C 3.941613 -4.032567 0.114803 0
M  V30 10 Cl 3.977691 -5.403748 -0.980846 0
M  V30 11 C 2.863418 -3.891313 0.964074 0
M  V30 12 N -0.509734 -1.511039 2.571569 0
M  V30 13 C -1.333581 -0.696021 1.644790 0
M  V30 14 N -1.363178 0.434945 1.542532 0
M  V30 15 C -2.051653 1.234734 0.760619 0
M  V30 16 C -2.076416 2.608997 0.648274 0
M  V30 17 C -2.910370 3.191729 -0.274691 0
M  V30 18 C -3.762818 2.538156 -1.139928 0
M  V30 19 C -4.658908 3.156211 -2.131137 0
M  V30 20 F -4.064806 3.230256 -3.391606 0
M  V30 21 F -5.834090 2.445045 -2.288398 0
M  V30 22 F -4.969029 4.426745 -1.688666 0
M  V30 23 C -3.768295 1.176800 -1.060537 0
M  V30 24 C -2.910608 0.521071 -0.107774 0
M  V30 25 S -2.623672 -1.184147 0.303984 0
M  V30 26 H 1.314364 -3.652056 2.975813 0
M  V30 27 H 2.028142 -2.149713 3.661094 0
M  V30 28 H 3.889208 -1.023515 2.500856 0
M  V30 29 H 5.737414 -1.362323 0.969558 0
M  V30 30 H 2.078896 -4.635473 0.920547 0
M  V30 31 H -0.821501 -1.781922 3.507020 0
M  V30 32 H -1.464164 3.278114 1.257210 0
M  V30 33 H -2.921633 4.291462 -0.355502 0
M  V30 34 H -4.334637 0.470538 -1.618350 0
M  V30 END ATOM
M  V30 BEGIN BOND
M  V30 1 2 1 2
M  V30 2 1 2 3
M  V30 3 1 3 4
M  V30 4 2 4 5
M  V30 5 1 5 6
M  V30 6 2 6 7
M  V30 7 1 7 8
M  V30 8 1 7 9
M  V30 9 1 9 10
M  V30 10 2 9 11
M  V30 11 1 2 12
M  V30 12 1 12 13
M  V30 13 2 13 14
M  V30 14 1 14 15
M  V30 15 2 15 16
M  V30 16 1 16 17
M  V30 17 2 17 18
M  V30 18 1 18 19
M  V30 19 1 19 20
M  V30 20 1 19 21
M  V30 21 1 19 22
M  V30 22 1 18 23
M  V30 23 2 23 24
M  V30 24 1 24 25
M  V30 25 1 11 4
M  V30 26 1 25 13
M  V30 27 1 24 15
M  V30 28 1 3 26
M  V30 29 1 3 27
M  V30 30 1 5 28
M  V30 31 1 6 29
M  V30 32 1 11 30
M  V30 33 1 12 31
M  V30 34 1 16 32
M  V30 35 1 17 33
M  V30 36 1 23 34
M  V30 END BOND
M  V30 END CTAB
M  END
>  <Dataset>  (400) 
ChEMBL_Kinases

>  <Ligand_Instance>  (400) 
nan

>  <PDB_ID>  (400) 
nan

>  <Standardized_SMILES>  (400) 
O=C(Cc1ccc(Cl)c(Cl)c1)Nc1nc2ccc(C(F)(F)F)cc2s1

>  <Name>  (400) 
nan

>  <Pocket>  (400) 
nan

>  <ATP_Site>  (400) 
nan

>  <Peripheral>  (400) 
nan

>  <Num_H_Atoms_ProtBoundConf>  (400) 
nan

>  <Num_Resolved_Atoms>  (400) 
nan

>  <Num_Not_Resolved_Atoms>  (400) 
nan

$$$$
CHEMBL3218974
     RDKit          3D

  0  0  0  0  0  0  0  0  0  0999 V3000
M  V30 BEGIN CTAB
M  V30 COUNTS 49 52 0 0 0
M  V30 BEGIN ATOM
M  V30 1 C -3.185498 -0.490086 -2.944516 0
M  V30 2 S -1.500607 -0.388919 -3.627977 0
M  V30 3 C -0.346677 0.165853 -2.380492 0
M  V30 4 N 0.963621 0.313319 -2.595530 0
M  V30 5 C 1.584737 0.736949 -1.471278 0
M  V30 6 C 3.016647 1.009163 -1.369604 0
M  V30 7 C 3.642542 2.250238 -1.373176 0
M  V30 8 C 5.007759 2.295102 -1.258494 0
M  V30 9 C 5.785721 1.145591 -1.138920 0
M  V30 10 F 7.121365 1.329038 -1.034737 0
M  V30 11 C 5.133627 -0.092982 -1.137857 0
M  V30 12 C 3.746804 -0.163046 -1.253025 0
M  V30 13 C 0.590177 0.848160 -0.533148 0
M  V30 14 C 0.782188 1.243719 0.875540 0
M  V30 15 C 1.391758 2.357212 1.405739 0
M  V30 16 C 1.410704 2.440839 2.779094 0
M  V30 17 N 0.869287 1.499021 3.603639 0
M  V30 18 C 0.275505 0.416743 3.086521 0
M  V30 19 N -0.213730 -0.431138 4.095828 0
M  V30 20 C -1.005885 -1.548629 3.774801 0
M  V30 21 O -1.401765 -1.972503 2.667337 0
M  V30 22 C -1.726881 -2.689429 4.371408 0
M  V30 23 C -2.389207 -3.388586 3.207434 0
M  V30 24 C -3.662787 -2.886947 2.909087 0
M  V30 25 C -4.435656 -3.380460 1.880052 0
M  V30 26 C -3.942573 -4.424950 1.092285 0
M  V30 27 C -2.684881 -4.901025 1.408104 0
M  V30 28 C -1.903984 -4.417816 2.431332 0
M  V30 29 C 0.228924 0.283282 1.731908 0
M  V30 30 N -0.558502 0.502356 -1.097649 0
M  V30 31 H -3.681128 -1.446609 -3.204266 0
M  V30 32 H -3.074677 -0.521810 -1.835201 0
M  V30 33 H -3.720027 0.409249 -3.290739 0
M  V30 34 H 2.958254 3.066946 -1.469928 0
M  V30 35 H 5.369246 3.331624 -1.277539 0
M  V30 36 H 5.775945 -0.949213 -1.042250 0
M  V30 37 H 3.380745 -1.169284 -1.236253 0
M  V30 38 H 1.772261 3.019489 0.675382 0
M  V30 39 H 1.892558 3.316279 3.184925 0
M  V30 40 H -0.129240 -0.445468 5.118523 0
M  V30 41 H -1.003332 -3.462824 4.772851 0
M  V30 42 H -2.481716 -2.441716 5.112836 0
M  V30 43 H -4.138179 -2.066002 3.471714 0
M  V30 44 H -5.420604 -2.988643 1.653958 0
M  V30 45 H -4.528320 -4.838175 0.271806 0
M  V30 46 H -2.277683 -5.711304 0.814843 0
M  V30 47 H -0.935354 -4.744219 2.717638 0
M  V30 48 H -0.251393 -0.602037 1.362699 0
M  V30 49 H -1.507189 0.476198 -0.659104 0
M  V30 END ATOM
M  V30 BEGIN BOND
M  V30 1 1 1 2
M  V30 2 1 2 3
M  V30 3 2 3 4
M  V30 4 1 4 5
M  V30 5 1 5 6
M  V30 6 2 6 7
M  V30 7 1 7 8
M  V30 8 2 8 9
M  V30 9 1 9 10
M  V30 10 1 9 11
M  V30 11 2 11 12
M  V30 12 2 5 13
M  V30 13 1 13 14
M  V30 14 2 14 15
M  V30 15 1 15 16
M  V30 16 2 16 17
M  V30 17 1 17 18
M  V30 18 1 18 19
M  V30 19 1 19 20
M  V30 20 2 20 21
M  V30 21 1 20 22
M  V30 22 1 22 23
M  V30 23 2 23 24
M  V30 24 1 24 25
M  V30 25 2 25 26
M  V30 26 1 26 27
M  V30 27 2 27 28
M  V30 28 2 18 29
M  V30 29 1 13 30
M  V30 30 1 30 3
M  V30 31 1 12 6
M  V30 32 1 29 14
M  V30 33 1 28 23
M  V30 34 1 1 31
M  V30 35 1 1 32
M  V30 36 1 1 33
M  V30 37 1 7 34
M  V30 38 1 8 35
M  V30 39 1 11 36
M  V30 40 1 12 37
M  V30 41 1 15 38
M  V30 42 1 16 39
M  V30 43 1 19 40
M  V30 44 1 22 41
M  V30 45 1 22 42
M  V30 46 1 24 43
M  V30 47 1 25 44
M  V30 48 1 26 45
M  V30 49 1 27 46
M  V30 50 1 28 47
M  V30 51 1 29 48
M  V30 52 1 30 49
M  V30 END BOND
M  V30 END CTAB
M  END
>  <Dataset>  (401) 
ChEMBL_Kinases

>  <Ligand_Instance>  (401) 
nan

>  <PDB_ID>  (401) 
nan

>  <Standardized_SMILES>  (401) 
CSc1nc(-c2ccc(F)cc2)c(-c2ccnc(NC(=O)Cc3ccccc3)c2)[nH]1

>  <Name>  (401) 
nan

>  <Pocket>  (401) 
nan

>  <ATP_Site>  (401) 
nan

>  <Peripheral>  (401) 
nan

>  <Num_H_Atoms_ProtBoundConf>  (401) 
nan

>  <Num_Resolved_Atoms>  (401) 
nan

>  <Num_Not_Resolved_Atoms>  (401) 
nan

$$$$
CHEMBL3218973
     RDKit          3D

  0  0  0  0  0  0  0  0  0  0999 V3000
M  V30 BEGIN CTAB
M  V30 COUNTS 46 49 0 0 0
M  V30 BEGIN ATOM
M  V30 1 C 2.527747 -4.922692 4.648924 0
M  V30 2 S 2.819677 -3.259571 5.353805 0
M  V30 3 C 2.618555 -1.999018 4.103776 0
M  V30 4 N 3.477246 -1.412233 3.223146 0
M  V30 5 C 2.796332 -0.503059 2.490477 0
M  V30 6 C 3.402449 0.325635 1.434881 0
M  V30 7 C 3.116852 0.333269 0.104652 0
M  V30 8 C 3.792660 1.186548 -0.743148 0
M  V30 9 C 4.761798 2.039199 -0.257489 0
M  V30 10 F 5.430513 2.883138 -1.094040 0
M  V30 11 C 5.052046 2.030939 1.096966 0
M  V30 12 C 4.376539 1.174281 1.961463 0
M  V30 13 C 1.487414 -0.545383 2.945719 0
M  V30 14 C 0.459916 0.318723 2.369524 0
M  V30 15 C 0.488899 1.698185 2.429745 0
M  V30 16 C -0.518557 2.462421 1.861953 0
M  V30 17 N -1.522909 1.806340 1.251537 0
M  V30 18 C -1.590445 0.455750 1.169433 0
M  V30 19 N -2.709279 -0.115107 0.493959 0
M  V30 20 C -2.490351 -0.305385 -0.887614 0
M  V30 21 O -1.364254 0.045801 -1.326811 0
M  V30 22 C -3.455088 -0.868376 -1.824792 0
M  V30 23 C -3.048709 -0.976393 -3.140404 0
M  V30 24 C -3.899306 -1.503472 -4.118184 0
M  V30 25 C -5.146430 -1.890878 -3.643041 0
M  V30 26 C -5.605653 -1.807161 -2.346684 0
M  V30 27 C -4.707263 -1.273293 -1.426596 0
M  V30 28 C -0.585445 -0.320025 1.735452 0
M  V30 29 N 1.393486 -1.469319 3.937113 0
M  V30 30 H 1.922527 -4.843291 3.702365 0
M  V30 31 H 3.492549 -5.428908 4.417605 0
M  V30 32 H 1.918537 -5.550882 5.334154 0
M  V30 33 H 2.354591 -0.353477 -0.200964 0
M  V30 34 H 3.553015 1.180052 -1.800908 0
M  V30 35 H 5.829480 2.728261 1.426055 0
M  V30 36 H 4.701593 1.271333 2.989943 0
M  V30 37 H 1.321714 2.158742 2.933489 0
M  V30 38 H -0.487497 3.542910 1.914102 0
M  V30 39 H -3.642948 -0.401348 0.884017 0
M  V30 40 H -2.057216 -0.664447 -3.497146 0
M  V30 41 H -3.660437 -1.620695 -5.159054 0
M  V30 42 H -5.845069 -2.310003 -4.379174 0
M  V30 43 H -6.600106 -2.143984 -2.105926 0
M  V30 44 H -5.024043 -1.188107 -0.397713 0
M  V30 45 H -0.703826 -1.388917 1.632451 0
M  V30 46 H 0.456992 -1.622571 4.390884 0
M  V30 END ATOM
M  V30 BEGIN BOND
M  V30 1 1 1 2
M  V30 2 1 2 3
M  V30 3 2 3 4
M  V30 4 1 4 5
M  V30 5 1 5 6
M  V30 6 2 6 7
M  V30 7 1 7 8
M  V30 8 2 8 9
M  V30 9 1 9 10
M  V30 10 1 9 11
M  V30 11 2 11 12
M  V30 12 2 5 13
M  V30 13 1 13 14
M  V30 14 2 14 15
M  V30 15 1 15 16
M  V30 16 2 16 17
M  V30 17 1 17 18
M  V30 18 1 18 19
M  V30 19 1 19 20
M  V30 20 2 20 21
M  V30 21 1 20 22
M  V30 22 2 22 23
M  V30 23 1 23 24
M  V30 24 2 24 25
M  V30 25 1 25 26
M  V30 26 2 26 27
M  V30 27 2 18 28
M  V30 28 1 13 29
M  V30 29 1 29 3
M  V30 30 1 12 6
M  V30 31 1 28 14
M  V30 32 1 27 22
M  V30 33 1 1 30
M  V30 34 1 1 31
M  V30 35 1 1 32
M  V30 36 1 7 33
M  V30 37 1 8 34
M  V30 38 1 11 35
M  V30 39 1 12 36
M  V30 40 1 15 37
M  V30 41 1 16 38
M  V30 42 1 19 39
M  V30 43 1 23 40
M  V30 44 1 24 41
M  V30 45 1 25 42
M  V30 46 1 26 43
M  V30 47 1 27 44
M  V30 48 1 28 45
M  V30 49 1 29 46
M  V30 END BOND
M  V30 END CTAB
M  END
>  <Dataset>  (402) 
ChEMBL_Kinases

>  <Ligand_Instance>  (402) 
nan

>  <PDB_ID>  (402) 
nan

>  <Standardized_SMILES>  (402) 
CSc1nc(-c2ccc(F)cc2)c(-c2ccnc(NC(=O)c3ccccc3)c2)[nH]1

>  <Name>  (402) 
nan

>  <Pocket>  (402) 
nan

>  <ATP_Site>  (402) 
nan

>  <Peripheral>  (402) 
nan

>  <Num_H_Atoms_ProtBoundConf>  (402) 
nan

>  <Num_Resolved_Atoms>  (402) 
nan

>  <Num_Not_Resolved_Atoms>  (402) 
nan

$$$$
CHEMBL3218972
     RDKit          3D

  0  0  0  0  0  0  0  0  0  0999 V3000
M  V30 BEGIN CTAB
M  V30 COUNTS 49 52 0 0 0
M  V30 BEGIN ATOM
M  V30 1 C -3.126093 1.570493 -4.194525 0
M  V30 2 S -2.185642 2.883781 -3.343446 0
M  V30 3 C -0.926248 2.137525 -2.284407 0
M  V30 4 N 0.341987 1.822439 -2.628285 0
M  V30 5 C 0.920300 1.284261 -1.516923 0
M  V30 6 C 2.293304 0.802830 -1.432785 0
M  V30 7 C 2.815405 -0.448470 -1.217490 0
M  V30 8 C 4.163894 -0.640427 -1.180904 0
M  V30 9 C 5.076105 0.394720 -1.355389 0
M  V30 10 F 6.416893 0.184630 -1.314868 0
M  V30 11 C 4.557440 1.654823 -1.572569 0
M  V30 12 C 3.182598 1.870199 -1.612992 0
M  V30 13 C 0.000498 1.271972 -0.492997 0
M  V30 14 C 0.118066 0.801942 0.884358 0
M  V30 15 C 0.023793 1.831163 1.807158 0
M  V30 16 C 0.104843 1.623701 3.189319 0
M  V30 17 N 0.281778 0.355509 3.591443 0
M  V30 18 C 0.378658 -0.677250 2.734641 0
M  V30 19 N 0.564771 -2.047851 3.131061 0
M  V30 20 C -0.762065 -2.586592 3.293159 0
M  V30 21 O -1.628321 -1.681484 3.035098 0
M  V30 22 C -1.061138 -3.974796 3.696124 0
M  V30 23 C -0.115220 -4.937829 3.964745 0
M  V30 24 C -0.538856 -6.198379 4.331820 0
M  V30 25 C -1.881898 -6.441957 4.414457 0
M  V30 26 F -2.291480 -7.683855 4.777027 0
M  V30 27 C -2.850838 -5.505933 4.153784 0
M  V30 28 C -2.411132 -4.235963 3.783875 0
M  V30 29 C 0.299147 -0.474829 1.372382 0
M  V30 30 N -1.135167 1.806305 -0.994997 0
M  V30 31 C -2.389523 1.996798 -0.263461 0
M  V30 32 H -4.088413 1.984478 -4.559102 0
M  V30 33 H -2.585522 1.176835 -5.078433 0
M  V30 34 H -3.361494 0.732535 -3.506246 0
M  V30 35 H 2.046924 -1.179915 -1.096071 0
M  V30 36 H 4.524153 -1.642733 -1.008068 0
M  V30 37 H 5.286997 2.431101 -1.704833 0
M  V30 38 H 2.937566 2.921213 -1.793249 0
M  V30 39 H -0.120621 2.888327 1.545684 0
M  V30 40 H 0.029718 2.438330 3.899362 0
M  V30 41 H 1.367146 -2.714356 3.321105 0
M  V30 42 H 0.923664 -4.635267 3.868142 0
M  V30 43 H 0.228763 -6.933306 4.536233 0
M  V30 44 H -3.898392 -5.781501 4.243153 0
M  V30 45 H -3.195425 -3.520424 3.585651 0
M  V30 46 H 0.360531 -1.218944 0.592779 0
M  V30 47 H -2.427841 3.090405 -0.043435 0
M  V30 48 H -2.432467 1.360467 0.631078 0
M  V30 49 H -3.238248 1.737828 -0.942564 0
M  V30 END ATOM
M  V30 BEGIN BOND
M  V30 1 1 1 2
M  V30 2 1 2 3
M  V30 3 2 3 4
M  V30 4 1 4 5
M  V30 5 1 5 6
M  V30 6 2 6 7
M  V30 7 1 7 8
M  V30 8 2 8 9
M  V30 9 1 9 10
M  V30 10 1 9 11
M  V30 11 2 11 12
M  V30 12 2 5 13
M  V30 13 1 13 14
M  V30 14 2 14 15
M  V30 15 1 15 16
M  V30 16 2 16 17
M  V30 17 1 17 18
M  V30 18 1 18 19
M  V30 19 1 19 20
M  V30 20 2 20 21
M  V30 21 1 20 22
M  V30 22 2 22 23
M  V30 23 1 23 24
M  V30 24 2 24 25
M  V30 25 1 25 26
M  V30 26 1 25 27
M  V30 27 2 27 28
M  V30 28 2 18 29
M  V30 29 1 13 30
M  V30 30 1 30 31
M  V30 31 1 30 3
M  V30 32 1 12 6
M  V30 33 1 29 14
M  V30 34 1 28 22
M  V30 35 1 1 32
M  V30 36 1 1 33
M  V30 37 1 1 34
M  V30 38 1 7 35
M  V30 39 1 8 36
M  V30 40 1 11 37
M  V30 41 1 12 38
M  V30 42 1 15 39
M  V30 43 1 16 40
M  V30 44 1 19 41
M  V30 45 1 23 42
M  V30 46 1 24 43
M  V30 47 1 27 44
M  V30 48 1 28 45
M  V30 49 1 29 46
M  V30 50 1 31 47
M  V30 51 1 31 48
M  V30 52 1 31 49
M  V30 END BOND
M  V30 END CTAB
M  END
>  <Dataset>  (403) 
ChEMBL_Kinases

>  <Ligand_Instance>  (403) 
nan

>  <PDB_ID>  (403) 
nan

>  <Standardized_SMILES>  (403) 
CSc1nc(-c2ccc(F)cc2)c(-c2ccnc(NC(=O)c3ccc(F)cc3)c2)n1C

>  <Name>  (403) 
nan

>  <Pocket>  (403) 
nan

>  <ATP_Site>  (403) 
nan

>  <Peripheral>  (403) 
nan

>  <Num_H_Atoms_ProtBoundConf>  (403) 
nan

>  <Num_Resolved_Atoms>  (403) 
nan

>  <Num_Not_Resolved_Atoms>  (403) 
nan

$$$$
CHEMBL3218971
     RDKit          3D

  0  0  0  0  0  0  0  0  0  0999 V3000
M  V30 BEGIN CTAB
M  V30 COUNTS 52 56 0 0 0
M  V30 BEGIN ATOM
M  V30 1 C 6.387677 -1.791970 -2.378427 0
M  V30 2 S 4.575384 -1.849322 -2.560993 0
M  V30 3 C 3.784447 -0.802897 -1.347808 0
M  V30 4 N 4.421630 -0.066963 -0.419187 0
M  V30 5 C 3.443636 0.564141 0.278902 0
M  V30 6 C 3.684569 1.470479 1.387198 0
M  V30 7 C 3.274197 1.323047 2.704258 0
M  V30 8 C 3.609550 2.303966 3.612335 0
M  V30 9 C 4.334246 3.433358 3.290442 0
M  V30 10 F 4.643613 4.374929 4.215093 0
M  V30 11 C 4.754298 3.594342 1.965679 0
M  V30 12 C 4.407807 2.601804 1.075301 0
M  V30 13 C 2.187973 0.213168 -0.225175 0
M  V30 14 C 0.875424 0.659667 0.225076 0
M  V30 15 C 0.555052 2.006915 0.114700 0
M  V30 16 C -0.679800 2.460874 0.532403 0
M  V30 17 N -1.552179 1.574617 1.042436 0
M  V30 18 C -1.252437 0.267722 1.153856 0
M  V30 19 N -2.211626 -0.665371 1.704109 0
M  V30 20 C -3.002489 -1.147081 0.631777 0
M  V30 21 O -2.683535 -0.658115 -0.494536 0
M  V30 22 C -4.085696 -2.108482 0.755450 0
M  V30 23 C -4.969377 -2.692518 -0.113045 0
M  V30 24 C -5.816204 -3.560613 0.552615 0
M  V30 25 C -6.840336 -4.347976 0.078779 0
M  V30 26 C -7.468703 -5.092402 1.056797 0
M  V30 27 C -7.110231 -5.060687 2.407135 0
M  V30 28 C -6.063854 -4.236465 2.795566 0
M  V30 29 C -5.387479 -3.459797 1.861029 0
M  V30 30 O -4.388904 -2.615818 1.948623 0
M  V30 31 C -0.025191 -0.269654 0.754117 0
M  V30 32 N 2.462311 -0.648112 -1.246102 0
M  V30 33 C 1.463621 -1.282019 -2.073574 0
M  V30 34 H 6.890993 -2.137218 -3.299715 0
M  V30 35 H 6.662810 -0.740910 -2.186518 0
M  V30 36 H 6.691991 -2.420721 -1.523789 0
M  V30 37 H 2.714166 0.431433 2.908668 0
M  V30 38 H 3.273700 2.157858 4.632258 0
M  V30 39 H 5.311148 4.471342 1.740186 0
M  V30 40 H 4.773494 2.803214 0.066060 0
M  V30 41 H 1.207110 2.753095 -0.281725 0
M  V30 42 H -0.982188 3.514354 0.466457 0
M  V30 43 H -2.458100 -1.057648 2.662985 0
M  V30 44 H -4.927970 -2.440168 -1.164442 0
M  V30 45 H -7.095120 -4.356397 -0.951421 0
M  V30 46 H -8.297409 -5.749281 0.773229 0
M  V30 47 H -7.664148 -5.679237 3.087135 0
M  V30 48 H -5.791064 -4.214991 3.834700 0
M  V30 49 H 0.220922 -1.318028 0.840872 0
M  V30 50 H 1.231036 -2.316502 -1.719345 0
M  V30 51 H 1.790155 -1.356491 -3.137950 0
M  V30 52 H 0.485422 -0.733013 -2.048782 0
M  V30 END ATOM
M  V30 BEGIN BOND
M  V30 1 1 1 2
M  V30 2 1 2 3
M  V30 3 2 3 4
M  V30 4 1 4 5
M  V30 5 1 5 6
M  V30 6 2 6 7
M  V30 7 1 7 8
M  V30 8 2 8 9
M  V30 9 1 9 10
M  V30 10 1 9 11
M  V30 11 2 11 12
M  V30 12 2 5 13
M  V30 13 1 13 14
M  V30 14 2 14 15
M  V30 15 1 15 16
M  V30 16 2 16 17
M  V30 17 1 17 18
M  V30 18 1 18 19
M  V30 19 1 19 20
M  V30 20 2 20 21
M  V30 21 1 20 22
M  V30 22 2 22 23
M  V30 23 1 23 24
M  V30 24 2 24 25
M  V30 25 1 25 26
M  V30 26 2 26 27
M  V30 27 1 27 28
M  V30 28 2 28 29
M  V30 29 1 29 30
M  V30 30 2 18 31
M  V30 31 1 13 32
M  V30 32 1 32 33
M  V30 33 1 32 3
M  V30 34 1 12 6
M  V30 35 1 31 14
M  V30 36 1 30 22
M  V30 37 1 29 24
M  V30 38 1 1 34
M  V30 39 1 1 35
M  V30 40 1 1 36
M  V30 41 1 7 37
M  V30 42 1 8 38
M  V30 43 1 11 39
M  V30 44 1 12 40
M  V30 45 1 15 41
M  V30 46 1 16 42
M  V30 47 1 19 43
M  V30 48 1 23 44
M  V30 49 1 25 45
M  V30 50 1 26 46
M  V30 51 1 27 47
M  V30 52 1 28 48
M  V30 53 1 31 49
M  V30 54 1 33 50
M  V30 55 1 33 51
M  V30 56 1 33 52
M  V30 END BOND
M  V30 END CTAB
M  END
>  <Dataset>  (404) 
ChEMBL_Kinases

>  <Ligand_Instance>  (404) 
nan

>  <PDB_ID>  (404) 
nan

>  <Standardized_SMILES>  (404) 
CSc1nc(-c2ccc(F)cc2)c(-c2ccnc(NC(=O)c3cc4ccccc4o3)c2)n1C

>  <Name>  (404) 
nan

>  <Pocket>  (404) 
nan

>  <ATP_Site>  (404) 
nan

>  <Peripheral>  (404) 
nan

>  <Num_H_Atoms_ProtBoundConf>  (404) 
nan

>  <Num_Resolved_Atoms>  (404) 
nan

>  <Num_Not_Resolved_Atoms>  (404) 
nan

$$$$
CHEMBL3218970
     RDKit          3D

  0  0  0  0  0  0  0  0  0  0999 V3000
M  V30 BEGIN CTAB
M  V30 COUNTS 56 60 0 0 0
M  V30 BEGIN ATOM
M  V30 1 C 5.794660 -2.557499 1.071319 0
M  V30 2 S 4.534701 -2.548275 -0.206513 0
M  V30 3 C 3.580252 -1.055552 -0.081404 0
M  V30 4 N 3.869263 0.085361 -0.704785 0
M  V30 5 C 2.892686 0.965357 -0.338700 0
M  V30 6 C 2.730947 2.359581 -0.734938 0
M  V30 7 C 3.820918 3.104487 -0.331424 0
M  V30 8 C 3.898612 4.476836 -0.596812 0
M  V30 9 C 2.850855 5.077668 -1.278390 0
M  V30 10 F 2.882628 6.412713 -1.559165 0
M  V30 11 C 1.768351 4.324872 -1.676258 0
M  V30 12 C 1.697873 2.973284 -1.411683 0
M  V30 13 C 2.003413 0.327019 0.523761 0
M  V30 14 C 0.809472 0.776468 1.198799 0
M  V30 15 C 0.933776 1.823945 2.095392 0
M  V30 16 C -0.228813 2.220368 2.719266 0
M  V30 17 N -1.416812 1.647507 2.492203 0
M  V30 18 C -1.597746 0.628046 1.633519 0
M  V30 19 N -2.876883 0.054154 1.425081 0
M  V30 20 C -3.337679 -1.008669 0.604154 0
M  V30 21 O -2.437355 -1.542097 -0.064478 0
M  V30 22 C -4.767631 -1.379813 0.605117 0
M  V30 23 C -5.460611 -1.783151 -0.646422 0
M  V30 24 C -5.186720 -2.796773 0.454901 0
M  V30 25 C -4.241327 -3.896800 0.199799 0
M  V30 26 C -3.450680 -4.078404 -0.915498 0
M  V30 27 C -2.592249 -5.135410 -1.037236 0
M  V30 28 C -2.456835 -6.089914 -0.059795 0
M  V30 29 C -3.233980 -5.943305 1.075647 0
M  V30 30 C -4.086731 -4.868537 1.165878 0
M  V30 31 C -0.440931 0.229396 1.009129 0
M  V30 32 N 2.459599 -0.942158 0.668158 0
M  V30 33 C 1.870173 -2.008265 1.476273 0
M  V30 34 H 5.474828 -3.305520 1.829544 0
M  V30 35 H 5.820570 -1.583423 1.596735 0
M  V30 36 H 6.815695 -2.750410 0.690267 0
M  V30 37 H 4.705948 2.764870 0.206952 0
M  V30 38 H 4.723166 5.111924 -0.307461 0
M  V30 39 H 0.922069 4.746640 -2.212643 0
M  V30 40 H 0.907455 2.283979 -1.670956 0
M  V30 41 H 1.845963 2.347961 2.343760 0
M  V30 42 H -0.270757 3.025070 3.440531 0
M  V30 43 H -3.644034 0.518776 2.004806 0
M  V30 44 H -5.447193 -0.775715 1.285937 0
M  V30 45 H -6.514658 -1.491053 -0.837230 0
M  V30 46 H -4.881798 -1.829095 -1.593476 0
M  V30 47 H -6.080844 -3.133525 1.030828 0
M  V30 48 H -3.537990 -3.354297 -1.712749 0
M  V30 49 H -1.975491 -5.262473 -1.925292 0
M  V30 50 H -1.808170 -6.951694 -0.072872 0
M  V30 51 H -3.179367 -6.669068 1.900764 0
M  V30 52 H -4.674441 -4.798369 2.076277 0
M  V30 53 H -0.436992 -0.564180 0.306338 0
M  V30 54 H 2.681096 -2.708748 1.776480 0
M  V30 55 H 1.209249 -2.631925 0.810166 0
M  V30 56 H 1.384004 -1.648031 2.381244 0
M  V30 END ATOM
M  V30 BEGIN BOND
M  V30 1 1 1 2
M  V30 2 1 2 3
M  V30 3 2 3 4
M  V30 4 1 4 5
M  V30 5 1 5 6
M  V30 6 2 6 7
M  V30 7 1 7 8
M  V30 8 2 8 9
M  V30 9 1 9 10
M  V30 10 1 9 11
M  V30 11 2 11 12
M  V30 12 2 5 13
M  V30 13 1 13 14
M  V30 14 2 14 15
M  V30 15 1 15 16
M  V30 16 2 16 17
M  V30 17 1 17 18
M  V30 18 1 18 19
M  V30 19 1 19 20
M  V30 20 2 20 21
M  V30 21 1 20 22
M  V30 22 1 22 23
M  V30 23 1 23 24
M  V30 24 1 24 25
M  V30 25 2 25 26
M  V30 26 1 26 27
M  V30 27 2 27 28
M  V30 28 1 28 29
M  V30 29 2 29 30
M  V30 30 2 18 31
M  V30 31 1 13 32
M  V30 32 1 32 33
M  V30 33 1 32 3
M  V30 34 1 12 6
M  V30 35 1 31 14
M  V30 36 1 24 22
M  V30 37 1 30 25
M  V30 38 1 1 34
M  V30 39 1 1 35
M  V30 40 1 1 36
M  V30 41 1 7 37
M  V30 42 1 8 38
M  V30 43 1 11 39
M  V30 44 1 12 40
M  V30 45 1 15 41
M  V30 46 1 16 42
M  V30 47 1 19 43
M  V30 48 1 22 44
M  V30 49 1 23 45
M  V30 50 1 23 46
M  V30 51 1 24 47
M  V30 52 1 26 48
M  V30 53 1 27 49
M  V30 54 1 28 50
M  V30 55 1 29 51
M  V30 56 1 30 52
M  V30 57 1 31 53
M  V30 58 1 33 54
M  V30 59 1 33 55
M  V30 60 1 33 56
M  V30 END BOND
M  V30 END CTAB
M  END
>  <Dataset>  (405) 
ChEMBL_Kinases

>  <Ligand_Instance>  (405) 
nan

>  <PDB_ID>  (405) 
nan

>  <Standardized_SMILES>  (405) 
CSc1nc(-c2ccc(F)cc2)c(-c2ccnc(NC(=O)C3CC3c3ccccc3)c2)n1C

>  <Name>  (405) 
nan

>  <Pocket>  (405) 
nan

>  <ATP_Site>  (405) 
nan

>  <Peripheral>  (405) 
nan

>  <Num_H_Atoms_ProtBoundConf>  (405) 
nan

>  <Num_Resolved_Atoms>  (405) 
nan

>  <Num_Not_Resolved_Atoms>  (405) 
nan

$$$$
CHEMBL3218969
     RDKit          3D

  0  0  0  0  0  0  0  0  0  0999 V3000
M  V30 BEGIN CTAB
M  V30 COUNTS 52 55 0 0 0
M  V30 BEGIN ATOM
M  V30 1 C 2.960565 -5.308252 0.237037 0
M  V30 2 S 3.436039 -4.258319 -1.171432 0
M  V30 3 C 3.302010 -2.538288 -0.633028 0
M  V30 4 N 4.276820 -1.804357 -0.057452 0
M  V30 5 C 3.763678 -0.582197 0.185576 0
M  V30 6 C 4.353018 0.611611 0.787708 0
M  V30 7 C 5.447500 1.100588 0.086293 0
M  V30 8 C 6.117024 2.227333 0.527987 0
M  V30 9 C 5.683845 2.867290 1.682509 0
M  V30 10 F 6.296196 3.974294 2.167192 0
M  V30 11 C 4.594958 2.379443 2.378857 0
M  V30 12 C 3.927346 1.251470 1.933766 0
M  V30 13 C 2.453012 -0.557078 -0.244802 0
M  V30 14 C 1.384231 0.452538 -0.259178 0
M  V30 15 C 1.364449 1.661958 -0.919883 0
M  V30 16 C 0.257152 2.476707 -0.807234 0
M  V30 17 N -0.799736 2.099214 -0.058997 0
M  V30 18 C -0.833516 0.930548 0.606433 0
M  V30 19 N -1.957575 0.517767 1.407687 0
M  V30 20 C -2.853001 -0.208697 0.571420 0
M  V30 21 O -2.416691 -0.286314 -0.621495 0
M  V30 22 C -4.120777 -0.789264 1.048728 0
M  V30 23 C -4.617301 -0.725237 2.325557 0
M  V30 24 C -5.832242 -1.331692 2.595277 0
M  V30 25 C -6.538846 -1.989720 1.610248 0
M  V30 26 C -7.844300 -2.626021 1.957543 0
M  V30 27 C -6.049589 -2.057840 0.333369 0
M  V30 28 F -6.767465 -2.709948 -0.606729 0
M  V30 29 C -4.843300 -1.458374 0.055375 0
M  V30 30 C 0.280524 0.100883 0.498630 0
M  V30 31 N 2.166027 -1.789645 -0.759274 0
M  V30 32 C 0.917655 -2.296137 -1.349480 0
M  V30 33 H 2.714362 -6.342197 -0.123952 0
M  V30 34 H 3.790880 -5.374384 0.982068 0
M  V30 35 H 2.071628 -4.881676 0.770198 0
M  V30 36 H 5.845595 0.657643 -0.821840 0
M  V30 37 H 6.978597 2.680304 0.047398 0
M  V30 38 H 4.214696 2.841428 3.287400 0
M  V30 39 H 3.057953 0.795035 2.419561 0
M  V30 40 H 2.265831 1.863778 -1.491461 0
M  V30 41 H 0.284819 3.415816 -1.342328 0
M  V30 42 H -2.213657 0.649223 2.425706 0
M  V30 43 H -4.002633 -0.191404 3.038654 0
M  V30 44 H -6.207500 -1.269821 3.610958 0
M  V30 45 H -7.699075 -3.404828 2.753788 0
M  V30 46 H -8.304407 -3.061924 1.045526 0
M  V30 47 H -8.540035 -1.882606 2.403438 0
M  V30 48 H -4.507746 -1.545103 -0.969377 0
M  V30 49 H 0.212309 -0.845638 1.058492 0
M  V30 50 H 0.405386 -1.485847 -1.918546 0
M  V30 51 H 0.283720 -2.784833 -0.602723 0
M  V30 52 H 1.205905 -3.063770 -2.097481 0
M  V30 END ATOM
M  V30 BEGIN BOND
M  V30 1 1 1 2
M  V30 2 1 2 3
M  V30 3 2 3 4
M  V30 4 1 4 5
M  V30 5 1 5 6
M  V30 6 2 6 7
M  V30 7 1 7 8
M  V30 8 2 8 9
M  V30 9 1 9 10
M  V30 10 1 9 11
M  V30 11 2 11 12
M  V30 12 2 5 13
M  V30 13 1 13 14
M  V30 14 2 14 15
M  V30 15 1 15 16
M  V30 16 2 16 17
M  V30 17 1 17 18
M  V30 18 1 18 19
M  V30 19 1 19 20
M  V30 20 2 20 21
M  V30 21 1 20 22
M  V30 22 2 22 23
M  V30 23 1 23 24
M  V30 24 2 24 25
M  V30 25 1 25 26
M  V30 26 1 25 27
M  V30 27 1 27 28
M  V30 28 2 27 29
M  V30 29 2 18 30
M  V30 30 1 13 31
M  V30 31 1 31 32
M  V30 32 1 31 3
M  V30 33 1 12 6
M  V30 34 1 30 14
M  V30 35 1 29 22
M  V30 36 1 1 33
M  V30 37 1 1 34
M  V30 38 1 1 35
M  V30 39 1 7 36
M  V30 40 1 8 37
M  V30 41 1 11 38
M  V30 42 1 12 39
M  V30 43 1 15 40
M  V30 44 1 16 41
M  V30 45 1 19 42
M  V30 46 1 23 43
M  V30 47 1 24 44
M  V30 48 1 26 45
M  V30 49 1 26 46
M  V30 50 1 26 47
M  V30 51 1 29 48
M  V30 52 1 30 49
M  V30 53 1 32 50
M  V30 54 1 32 51
M  V30 55 1 32 52
M  V30 END BOND
M  V30 END CTAB
M  END
>  <Dataset>  (406) 
ChEMBL_Kinases

>  <Ligand_Instance>  (406) 
nan

>  <PDB_ID>  (406) 
nan

>  <Standardized_SMILES>  (406) 
CSc1nc(-c2ccc(F)cc2)c(-c2ccnc(NC(=O)c3ccc(C)c(F)c3)c2)n1C

>  <Name>  (406) 
nan

>  <Pocket>  (406) 
nan

>  <ATP_Site>  (406) 
nan

>  <Peripheral>  (406) 
nan

>  <Num_H_Atoms_ProtBoundConf>  (406) 
nan

>  <Num_Resolved_Atoms>  (406) 
nan

>  <Num_Not_Resolved_Atoms>  (406) 
nan

$$$$
CHEMBL3218968
     RDKit          3D

  0  0  0  0  0  0  0  0  0  0999 V3000
M  V30 BEGIN CTAB
M  V30 COUNTS 46 49 0 0 0
M  V30 BEGIN ATOM
M  V30 1 C 1.229353 -2.561793 6.449994 0
M  V30 2 S 2.576762 -1.764889 5.546935 0
M  V30 3 C 2.003220 -0.947533 4.069131 0
M  V30 4 N 2.976542 -0.335362 3.361850 0
M  V30 5 C 2.383981 0.233538 2.278882 0
M  V30 6 C 2.954259 1.019159 1.177690 0
M  V30 7 C 3.539631 2.176560 1.657287 0
M  V30 8 C 4.144996 3.071647 0.769131 0
M  V30 9 C 4.139977 2.766081 -0.590099 0
M  V30 10 F 4.703430 3.578875 -1.513442 0
M  V30 11 C 3.550589 1.605843 -1.049180 0
M  V30 12 C 2.966718 0.747387 -0.171037 0
M  V30 13 C 1.027401 -0.026105 2.310329 0
M  V30 14 C -0.072100 0.334950 1.418157 0
M  V30 15 C -0.329355 1.704220 1.283725 0
M  V30 16 C -1.372586 2.022587 0.436375 0
M  V30 17 N -2.095068 1.093943 -0.216881 0
M  V30 18 C -1.850937 -0.227457 -0.090660 0
M  V30 19 N -2.633559 -1.200227 -0.797041 0
M  V30 20 C -2.159918 -1.566981 -2.093863 0
M  V30 21 O -1.117380 -1.066886 -2.590072 0
M  V30 22 C -2.889206 -2.552282 -2.892639 0
M  V30 23 C -2.459411 -2.934391 -4.171171 0
M  V30 24 C -3.338909 -3.874883 -4.683654 0
M  V30 25 C -4.274182 -4.021539 -3.678301 0
M  V30 26 O -3.961302 -3.236715 -2.678229 0
M  V30 27 C -0.822430 -0.586811 0.742175 0
M  V30 28 N 0.846975 -0.752885 3.427335 0
M  V30 29 C -0.348365 -1.322217 4.000333 0
M  V30 30 H 0.656258 -1.821609 7.075212 0
M  V30 31 H 0.565893 -3.154900 5.803930 0
M  V30 32 H 1.700982 -3.232081 7.211856 0
M  V30 33 H 3.607167 2.521167 2.682869 0
M  V30 34 H 4.620019 3.993676 1.078742 0
M  V30 35 H 3.527274 1.335207 -2.096175 0
M  V30 36 H 2.469776 -0.195790 -0.401749 0
M  V30 37 H 0.266737 2.420201 1.819633 0
M  V30 38 H -1.591400 3.081849 0.315561 0
M  V30 39 H -3.511978 -1.673019 -0.472673 0
M  V30 40 H -1.596051 -2.609652 -4.755535 0
M  V30 41 H -3.349505 -4.402478 -5.627182 0
M  V30 42 H -5.158356 -4.653246 -3.623565 0
M  V30 43 H -0.608205 -1.654548 0.858135 0
M  V30 44 H -0.438753 -1.109978 5.067944 0
M  V30 45 H -1.241889 -0.867585 3.510639 0
M  V30 46 H -0.348800 -2.399519 3.727202 0
M  V30 END ATOM
M  V30 BEGIN BOND
M  V30 1 1 1 2
M  V30 2 1 2 3
M  V30 3 2 3 4
M  V30 4 1 4 5
M  V30 5 1 5 6
M  V30 6 2 6 7
M  V30 7 1 7 8
M  V30 8 2 8 9
M  V30 9 1 9 10
M  V30 10 1 9 11
M  V30 11 2 11 12
M  V30 12 2 5 13
M  V30 13 1 13 14
M  V30 14 2 14 15
M  V30 15 1 15 16
M  V30 16 2 16 17
M  V30 17 1 17 18
M  V30 18 1 18 19
M  V30 19 1 19 20
M  V30 20 2 20 21
M  V30 21 1 20 22
M  V30 22 2 22 23
M  V30 23 1 23 24
M  V30 24 2 24 25
M  V30 25 1 25 26
M  V30 26 2 18 27
M  V30 27 1 13 28
M  V30 28 1 28 29
M  V30 29 1 28 3
M  V30 30 1 12 6
M  V30 31 1 27 14
M  V30 32 1 26 22
M  V30 33 1 1 30
M  V30 34 1 1 31
M  V30 35 1 1 32
M  V30 36 1 7 33
M  V30 37 1 8 34
M  V30 38 1 11 35
M  V30 39 1 12 36
M  V30 40 1 15 37
M  V30 41 1 16 38
M  V30 42 1 19 39
M  V30 43 1 23 40
M  V30 44 1 24 41
M  V30 45 1 25 42
M  V30 46 1 27 43
M  V30 47 1 29 44
M  V30 48 1 29 45
M  V30 49 1 29 46
M  V30 END BOND
M  V30 END CTAB
M  END
>  <Dataset>  (407) 
ChEMBL_Kinases

>  <Ligand_Instance>  (407) 
nan

>  <PDB_ID>  (407) 
nan

>  <Standardized_SMILES>  (407) 
CSc1nc(-c2ccc(F)cc2)c(-c2ccnc(NC(=O)c3ccco3)c2)n1C

>  <Name>  (407) 
nan

>  <Pocket>  (407) 
nan

>  <ATP_Site>  (407) 
nan

>  <Peripheral>  (407) 
nan

>  <Num_H_Atoms_ProtBoundConf>  (407) 
nan

>  <Num_Resolved_Atoms>  (407) 
nan

>  <Num_Not_Resolved_Atoms>  (407) 
nan

$$$$
CHEMBL3218967
     RDKit          3D

  0  0  0  0  0  0  0  0  0  0999 V3000
M  V30 BEGIN CTAB
M  V30 COUNTS 52 55 0 0 0
M  V30 BEGIN ATOM
M  V30 1 C -1.943550 0.185092 -3.921878 0
M  V30 2 S -0.948062 1.690130 -3.604579 0
M  V30 3 C 0.254550 1.370584 -2.307327 0
M  V30 4 N 1.509743 0.925966 -2.370827 0
M  V30 5 C 2.022098 0.828981 -1.131090 0
M  V30 6 C 3.315497 0.413517 -0.606208 0
M  V30 7 C 3.474706 -0.970570 -0.782564 0
M  V30 8 C 4.620320 -1.625467 -0.368142 0
M  V30 9 C 5.633779 -0.890035 0.236870 0
M  V30 10 F 6.804877 -1.419410 0.685727 0
M  V30 11 C 5.470541 0.464903 0.406775 0
M  V30 12 C 4.321423 1.137359 -0.006547 0
M  V30 13 C 0.993453 1.245287 -0.286533 0
M  V30 14 C 0.978097 1.338072 1.192033 0
M  V30 15 C 1.647339 2.217873 2.014609 0
M  V30 16 C 1.460454 2.074456 3.381389 0
M  V30 17 N 0.663282 1.123035 3.902345 0
M  V30 18 C 0.002764 0.256043 3.125494 0
M  V30 19 N -0.769410 -0.652283 3.877127 0
M  V30 20 C -1.520441 -1.681265 3.305916 0
M  V30 21 O -1.618282 -1.945998 2.086271 0
M  V30 22 C -2.419364 -2.795404 3.645030 0
M  V30 23 C -2.817703 -3.483883 2.371404 0
M  V30 24 C -3.926564 -2.962579 1.729987 0
M  V30 25 C -4.426891 -3.475378 0.536052 0
M  V30 26 C -3.773690 -4.556118 -0.020799 0
M  V30 27 C -2.649886 -5.096279 0.615730 0
M  V30 28 C -2.179967 -4.562301 1.799558 0
M  V30 29 C 0.163847 0.368940 1.781247 0
M  V30 30 N -0.112968 1.586150 -1.009415 0
M  V30 31 C -1.379533 2.072395 -0.471521 0
M  V30 32 H -2.988539 0.451200 -4.229157 0
M  V30 33 H -1.467180 -0.487788 -4.654713 0
M  V30 34 H -2.059566 -0.368456 -2.943590 0
M  V30 35 H 2.769431 -1.665021 -1.236626 0
M  V30 36 H 4.804606 -2.681235 -0.472870 0
M  V30 37 H 6.200975 1.122656 0.865192 0
M  V30 38 H 4.081182 2.167001 0.066558 0
M  V30 39 H 2.244932 2.920349 1.483013 0
M  V30 40 H 1.997672 2.777812 3.995534 0
M  V30 41 H -0.913912 -0.724674 4.881073 0
M  V30 42 H -3.339163 -2.458777 4.184301 0
M  V30 43 H -1.948982 -3.566090 4.285670 0
M  V30 44 H -4.467577 -2.101026 2.150308 0
M  V30 45 H -5.297075 -3.031611 0.070766 0
M  V30 46 H -4.164668 -4.955027 -0.951365 0
M  V30 47 H -2.142028 -5.932641 0.189568 0
M  V30 48 H -1.323913 -4.941998 2.325506 0
M  V30 49 H -0.367502 -0.325794 1.182343 0
M  V30 50 H -1.244607 3.099249 -0.061170 0
M  V30 51 H -1.753595 1.442595 0.346941 0
M  V30 52 H -2.106607 2.180920 -1.299729 0
M  V30 END ATOM
M  V30 BEGIN BOND
M  V30 1 1 1 2
M  V30 2 1 2 3
M  V30 3 2 3 4
M  V30 4 1 4 5
M  V30 5 1 5 6
M  V30 6 2 6 7
M  V30 7 1 7 8
M  V30 8 2 8 9
M  V30 9 1 9 10
M  V30 10 1 9 11
M  V30 11 2 11 12
M  V30 12 2 5 13
M  V30 13 1 13 14
M  V30 14 2 14 15
M  V30 15 1 15 16
M  V30 16 2 16 17
M  V30 17 1 17 18
M  V30 18 1 18 19
M  V30 19 1 19 20
M  V30 20 2 20 21
M  V30 21 1 20 22
M  V30 22 1 22 23
M  V30 23 2 23 24
M  V30 24 1 24 25
M  V30 25 2 25 26
M  V30 26 1 26 27
M  V30 27 2 27 28
M  V30 28 2 18 29
M  V30 29 1 13 30
M  V30 30 1 30 31
M  V30 31 1 30 3
M  V30 32 1 12 6
M  V30 33 1 29 14
M  V30 34 1 28 23
M  V30 35 1 1 32
M  V30 36 1 1 33
M  V30 37 1 1 34
M  V30 38 1 7 35
M  V30 39 1 8 36
M  V30 40 1 11 37
M  V30 41 1 12 38
M  V30 42 1 15 39
M  V30 43 1 16 40
M  V30 44 1 19 41
M  V30 45 1 22 42
M  V30 46 1 22 43
M  V30 47 1 24 44
M  V30 48 1 25 45
M  V30 49 1 26 46
M  V30 50 1 27 47
M  V30 51 1 28 48
M  V30 52 1 29 49
M  V30 53 1 31 50
M  V30 54 1 31 51
M  V30 55 1 31 52
M  V30 END BOND
M  V30 END CTAB
M  END
>  <Dataset>  (408) 
ChEMBL_Kinases

>  <Ligand_Instance>  (408) 
nan

>  <PDB_ID>  (408) 
nan

>  <Standardized_SMILES>  (408) 
CSc1nc(-c2ccc(F)cc2)c(-c2ccnc(NC(=O)Cc3ccccc3)c2)n1C

>  <Name>  (408) 
nan

>  <Pocket>  (408) 
nan

>  <ATP_Site>  (408) 
nan

>  <Peripheral>  (408) 
nan

>  <Num_H_Atoms_ProtBoundConf>  (408) 
nan

>  <Num_Resolved_Atoms>  (408) 
nan

>  <Num_Not_Resolved_Atoms>  (408) 
nan

$$$$
CHEMBL3218966
     RDKit          3D

  0  0  0  0  0  0  0  0  0  0999 V3000
M  V30 BEGIN CTAB
M  V30 COUNTS 49 52 0 0 0
M  V30 BEGIN ATOM
M  V30 1 C -1.247469 2.639207 -4.252406 0
M  V30 2 S 0.523011 2.536279 -3.951147 0
M  V30 3 C 0.934343 1.990001 -2.321214 0
M  V30 4 N 2.222885 1.859940 -1.938577 0
M  V30 5 C 2.238453 1.433139 -0.664069 0
M  V30 6 C 3.367297 1.134937 0.232985 0
M  V30 7 C 3.799010 2.244746 0.917237 0
M  V30 8 C 4.870934 2.058598 1.797749 0
M  V30 9 C 5.464246 0.804838 1.965034 0
M  V30 10 F 6.500999 0.598671 2.809844 0
M  V30 11 C 4.931794 -0.243657 1.210029 0
M  V30 12 C 3.887576 -0.135391 0.331873 0
M  V30 13 C 0.924917 1.284818 -0.216284 0
M  V30 14 C 0.414611 0.847246 1.079958 0
M  V30 15 C 0.631489 1.455972 2.296988 0
M  V30 16 C 0.040526 0.855061 3.388505 0
M  V30 17 N -0.707508 -0.261506 3.286612 0
M  V30 18 C -0.929317 -0.869928 2.100619 0
M  V30 19 N -1.732439 -2.042120 2.099712 0
M  V30 20 C -1.399571 -3.396457 2.231732 0
M  V30 21 O -0.188623 -3.744693 2.383206 0
M  V30 22 C -2.406785 -4.450818 2.201787 0
M  V30 23 C -1.994495 -5.759111 2.323199 0
M  V30 24 C -2.921073 -6.763985 2.299174 0
M  V30 25 C -4.249277 -6.505602 2.157560 0
M  V30 26 C -4.718476 -5.201932 2.031083 0
M  V30 27 C -3.755827 -4.207989 2.059215 0
M  V30 28 C -0.345859 -0.287567 0.977966 0
M  V30 29 N 0.187100 1.643674 -1.284366 0
M  V30 30 C -1.258827 1.645631 -1.285260 0
M  V30 31 H -1.809187 1.729023 -3.941796 0
M  V30 32 H -1.383044 2.677568 -5.365989 0
M  V30 33 H -1.711221 3.588116 -3.891451 0
M  V30 34 H 3.397925 3.227182 0.841960 0
M  V30 35 H 5.290075 2.862647 2.385690 0
M  V30 36 H 5.425491 -1.211516 1.370200 0
M  V30 37 H 3.497604 -0.953266 -0.234790 0
M  V30 38 H 1.238531 2.337887 2.277790 0
M  V30 39 H 0.217804 1.344280 4.347383 0
M  V30 40 H -2.714926 -1.713924 1.972583 0
M  V30 41 H -0.945938 -6.014061 2.438250 0
M  V30 42 H -2.556450 -7.798524 2.398764 0
M  V30 43 H -4.977246 -7.324285 2.140229 0
M  V30 44 H -5.773026 -4.973808 1.917281 0
M  V30 45 H -4.112724 -3.192658 1.961401 0
M  V30 46 H -0.568485 -0.834313 0.054672 0
M  V30 47 H -1.661477 1.631746 -0.229219 0
M  V30 48 H -1.638032 2.596769 -1.711891 0
M  V30 49 H -1.706420 0.751685 -1.754212 0
M  V30 END ATOM
M  V30 BEGIN BOND
M  V30 1 1 1 2
M  V30 2 1 2 3
M  V30 3 2 3 4
M  V30 4 1 4 5
M  V30 5 1 5 6
M  V30 6 2 6 7
M  V30 7 1 7 8
M  V30 8 2 8 9
M  V30 9 1 9 10
M  V30 10 1 9 11
M  V30 11 2 11 12
M  V30 12 2 5 13
M  V30 13 1 13 14
M  V30 14 2 14 15
M  V30 15 1 15 16
M  V30 16 2 16 17
M  V30 17 1 17 18
M  V30 18 1 18 19
M  V30 19 1 19 20
M  V30 20 2 20 21
M  V30 21 1 20 22
M  V30 22 2 22 23
M  V30 23 1 23 24
M  V30 24 2 24 25
M  V30 25 1 25 26
M  V30 26 2 26 27
M  V30 27 2 18 28
M  V30 28 1 13 29
M  V30 29 1 29 30
M  V30 30 1 29 3
M  V30 31 1 12 6
M  V30 32 1 28 14
M  V30 33 1 27 22
M  V30 34 1 1 31
M  V30 35 1 1 32
M  V30 36 1 1 33
M  V30 37 1 7 34
M  V30 38 1 8 35
M  V30 39 1 11 36
M  V30 40 1 12 37
M  V30 41 1 15 38
M  V30 42 1 16 39
M  V30 43 1 19 40
M  V30 44 1 23 41
M  V30 45 1 24 42
M  V30 46 1 25 43
M  V30 47 1 26 44
M  V30 48 1 27 45
M  V30 49 1 28 46
M  V30 50 1 30 47
M  V30 51 1 30 48
M  V30 52 1 30 49
M  V30 END BOND
M  V30 END CTAB
M  END
>  <Dataset>  (409) 
ChEMBL_Kinases

>  <Ligand_Instance>  (409) 
nan

>  <PDB_ID>  (409) 
nan

>  <Standardized_SMILES>  (409) 
CSc1nc(-c2ccc(F)cc2)c(-c2ccnc(NC(=O)c3ccccc3)c2)n1C

>  <Name>  (409) 
nan

>  <Pocket>  (409) 
nan

>  <ATP_Site>  (409) 
nan

>  <Peripheral>  (409) 
nan

>  <Num_H_Atoms_ProtBoundConf>  (409) 
nan

>  <Num_Resolved_Atoms>  (409) 
nan

>  <Num_Not_Resolved_Atoms>  (409) 
nan

$$$$
CHEMBL3218965
     RDKit          3D

  0  0  0  0  0  0  0  0  0  0999 V3000
M  V30 BEGIN CTAB
M  V30 COUNTS 47 51 0 0 0
M  V30 BEGIN ATOM
M  V30 1 O -1.516516 -2.698014 1.660290 0
M  V30 2 C -1.477987 -3.213137 0.494701 0
M  V30 3 N -0.279972 -2.828439 -0.191886 0
M  V30 4 C 0.460710 -1.979624 0.708955 0
M  V30 5 C 0.203274 -0.624064 0.644768 0
M  V30 6 C 0.946225 0.157002 1.538069 0
M  V30 7 C 0.678633 1.611626 1.479273 0
M  V30 8 C 1.677300 2.476756 1.158536 0
M  V30 9 C 3.087450 2.325412 0.823217 0
M  V30 10 C 3.330721 1.602696 -0.329954 0
M  V30 11 C 4.630394 1.394058 -0.749078 0
M  V30 12 C 5.686607 1.912168 -0.008610 0
M  V30 13 F 6.991108 1.757880 -0.342264 0
M  V30 14 C 5.439395 2.633145 1.142218 0
M  V30 15 C 4.128429 2.848450 1.572551 0
M  V30 16 N 1.095501 3.688405 1.198324 0
M  V30 17 C -0.202804 3.569055 1.529201 0
M  V30 18 N -0.501352 2.260071 1.715047 0
M  V30 19 C -1.832864 1.904498 2.072190 0
M  V30 20 C -2.452362 3.038257 2.864558 0
M  V30 21 S -1.773742 4.413034 1.846052 0
M  V30 22 C 1.858083 -0.411953 2.403904 0
M  V30 23 C 2.070585 -1.775476 2.419905 0
M  V30 24 N 1.356115 -2.555060 1.556587 0
M  V30 25 C -2.519121 -4.089872 -0.084769 0
M  V30 26 C -2.447596 -4.632374 -1.348361 0
M  V30 27 C -3.506275 -5.435849 -1.747177 0
M  V30 28 C -4.604448 -5.700753 -0.931616 0
M  V30 29 F -5.624090 -6.492220 -1.354782 0
M  V30 30 C -4.614070 -5.127138 0.320995 0
M  V30 31 C -3.584163 -4.321472 0.761015 0
M  V30 32 H -0.145197 -3.203697 -1.177609 0
M  V30 33 H -0.522577 -0.226487 -0.052793 0
M  V30 34 H 2.556902 1.168207 -0.958235 0
M  V30 35 H 4.890123 0.836604 -1.643363 0
M  V30 36 H 6.161720 3.083892 1.800531 0
M  V30 37 H 3.869677 3.404112 2.464850 0
M  V30 38 H -2.480879 1.651039 1.208126 0
M  V30 39 H -1.837393 1.044610 2.765012 0
M  V30 40 H -3.548583 3.009537 2.790925 0
M  V30 41 H -2.057732 3.091349 3.889558 0
M  V30 42 H 2.404528 0.225098 3.070457 0
M  V30 43 H 2.782229 -2.227246 3.094877 0
M  V30 44 H -1.591829 -4.411573 -1.952707 0
M  V30 45 H -3.456022 -5.860578 -2.729048 0
M  V30 46 H -5.471787 -5.328195 0.970319 0
M  V30 47 H -3.666263 -3.908011 1.758837 0
M  V30 END ATOM
M  V30 BEGIN BOND
M  V30 1 2 1 2
M  V30 2 1 2 3
M  V30 3 1 3 4
M  V30 4 2 4 5
M  V30 5 1 5 6
M  V30 6 1 6 7
M  V30 7 2 7 8
M  V30 8 1 8 9
M  V30 9 2 9 10
M  V30 10 1 10 11
M  V30 11 2 11 12
M  V30 12 1 12 13
M  V30 13 1 12 14
M  V30 14 2 14 15
M  V30 15 1 8 16
M  V30 16 2 16 17
M  V30 17 1 17 18
M  V30 18 1 18 19
M  V30 19 1 19 20
M  V30 20 1 20 21
M  V30 21 2 6 22
M  V30 22 1 22 23
M  V30 23 2 23 24
M  V30 24 1 2 25
M  V30 25 2 25 26
M  V30 26 1 26 27
M  V30 27 2 27 28
M  V30 28 1 28 29
M  V30 29 1 28 30
M  V30 30 2 30 31
M  V30 31 1 24 4
M  V30 32 1 31 25
M  V30 33 1 18 7
M  V30 34 1 15 9
M  V30 35 1 21 17
M  V30 36 1 3 32
M  V30 37 1 5 33
M  V30 38 1 10 34
M  V30 39 1 11 35
M  V30 40 1 14 36
M  V30 41 1 15 37
M  V30 42 1 19 38
M  V30 43 1 19 39
M  V30 44 1 20 40
M  V30 45 1 20 41
M  V30 46 1 22 42
M  V30 47 1 23 43
M  V30 48 1 26 44
M  V30 49 1 27 45
M  V30 50 1 30 46
M  V30 51 1 31 47
M  V30 END BOND
M  V30 END CTAB
M  END
>  <Dataset>  (410) 
ChEMBL_Kinases

>  <Ligand_Instance>  (410) 
nan

>  <PDB_ID>  (410) 
nan

>  <Standardized_SMILES>  (410) 
O=C(Nc1cc(-c2c(-c3ccc(F)cc3)nc3n2CCS3)ccn1)c1ccc(F)cc1

>  <Name>  (410) 
nan

>  <Pocket>  (410) 
nan

>  <ATP_Site>  (410) 
nan

>  <Peripheral>  (410) 
nan

>  <Num_H_Atoms_ProtBoundConf>  (410) 
nan

>  <Num_Resolved_Atoms>  (410) 
nan

>  <Num_Not_Resolved_Atoms>  (410) 
nan

$$$$
CHEMBL3218964
     RDKit          3D

  0  0  0  0  0  0  0  0  0  0999 V3000
M  V30 BEGIN CTAB
M  V30 COUNTS 50 55 0 0 0
M  V30 BEGIN ATOM
M  V30 1 O -1.938853 -1.210605 -0.568019 0
M  V30 2 C -2.151652 -1.879881 0.496169 0
M  V30 3 N -1.574954 -1.265003 1.616480 0
M  V30 4 C -0.915304 -0.051767 1.199765 0
M  V30 5 C 0.397654 -0.144058 0.818006 0
M  V30 6 C 1.000345 1.054462 0.417870 0
M  V30 7 C 2.415836 1.010442 -0.007133 0
M  V30 8 C 3.355297 1.760042 0.662544 0
M  V30 9 C 3.282403 2.673385 1.797241 0
M  V30 10 C 3.674661 3.961888 1.481388 0
M  V30 11 C 3.661876 4.943142 2.448855 0
M  V30 12 C 3.259961 4.668499 3.750308 0
M  V30 13 F 3.230497 5.604328 4.741040 0
M  V30 14 C 2.872879 3.377428 4.043424 0
M  V30 15 C 2.879127 2.375713 3.082250 0
M  V30 16 N 4.501544 1.482749 0.023239 0
M  V30 17 C 4.283242 0.615925 -0.979073 0
M  V30 18 N 2.976964 0.297427 -1.025621 0
M  V30 19 C 2.495412 -0.624464 -2.020329 0
M  V30 20 C 3.400880 -0.539500 -3.230435 0
M  V30 21 S 4.999305 -0.341715 -2.339945 0
M  V30 22 C 0.297046 2.240099 0.416729 0
M  V30 23 C -1.041389 2.250995 0.821116 0
M  V30 24 N -1.647589 1.101160 1.213327 0
M  V30 25 C -2.904502 -3.134676 0.544796 0
M  V30 26 C -3.222210 -3.978666 1.605794 0
M  V30 27 C -3.953795 -5.024299 1.079123 0
M  V30 28 C -4.518109 -6.134675 1.678933 0
M  V30 29 C -5.208276 -7.023628 0.859814 0
M  V30 30 C -5.301531 -6.764213 -0.506716 0
M  V30 31 C -4.732848 -5.651221 -1.090728 0
M  V30 32 C -4.046199 -4.767735 -0.273127 0
M  V30 33 O -3.420176 -3.653317 -0.549108 0
M  V30 34 H -1.680481 -1.718971 2.571822 0
M  V30 35 H 0.911667 -1.094631 0.834340 0
M  V30 36 H 4.008873 4.278998 0.482155 0
M  V30 37 H 3.952632 5.969924 2.281186 0
M  V30 38 H 2.543046 3.091757 5.054742 0
M  V30 39 H 2.589339 1.343091 3.239095 0
M  V30 40 H 2.521359 -1.678223 -1.677235 0
M  V30 41 H 1.500625 -0.320617 -2.384420 0
M  V30 42 H 3.186278 0.297192 -3.891749 0
M  V30 43 H 3.398551 -1.516319 -3.770198 0
M  V30 44 H 0.790043 3.141302 0.103928 0
M  V30 45 H -1.600214 3.176137 0.823337 0
M  V30 46 H -2.913992 -3.778195 2.620569 0
M  V30 47 H -4.413218 -6.283785 2.745014 0
M  V30 48 H -5.666651 -7.904144 1.275464 0
M  V30 49 H -5.826782 -7.421879 -1.193062 0
M  V30 50 H -4.807099 -5.451335 -2.153703 0
M  V30 END ATOM
M  V30 BEGIN BOND
M  V30 1 2 1 2
M  V30 2 1 2 3
M  V30 3 1 3 4
M  V30 4 2 4 5
M  V30 5 1 5 6
M  V30 6 1 6 7
M  V30 7 2 7 8
M  V30 8 1 8 9
M  V30 9 2 9 10
M  V30 10 1 10 11
M  V30 11 2 11 12
M  V30 12 1 12 13
M  V30 13 1 12 14
M  V30 14 2 14 15
M  V30 15 1 8 16
M  V30 16 2 16 17
M  V30 17 1 17 18
M  V30 18 1 18 19
M  V30 19 1 19 20
M  V30 20 1 20 21
M  V30 21 2 6 22
M  V30 22 1 22 23
M  V30 23 2 23 24
M  V30 24 1 2 25
M  V30 25 2 25 26
M  V30 26 1 26 27
M  V30 27 2 27 28
M  V30 28 1 28 29
M  V30 29 2 29 30
M  V30 30 1 30 31
M  V30 31 2 31 32
M  V30 32 1 32 33
M  V30 33 1 24 4
M  V30 34 1 33 25
M  V30 35 1 18 7
M  V30 36 1 32 27
M  V30 37 1 15 9
M  V30 38 1 21 17
M  V30 39 1 3 34
M  V30 40 1 5 35
M  V30 41 1 10 36
M  V30 42 1 11 37
M  V30 43 1 14 38
M  V30 44 1 15 39
M  V30 45 1 19 40
M  V30 46 1 19 41
M  V30 47 1 20 42
M  V30 48 1 20 43
M  V30 49 1 22 44
M  V30 50 1 23 45
M  V30 51 1 26 46
M  V30 52 1 28 47
M  V30 53 1 29 48
M  V30 54 1 30 49
M  V30 55 1 31 50
M  V30 END BOND
M  V30 END CTAB
M  END
>  <Dataset>  (411) 
ChEMBL_Kinases

>  <Ligand_Instance>  (411) 
nan

>  <PDB_ID>  (411) 
nan

>  <Standardized_SMILES>  (411) 
O=C(Nc1cc(-c2c(-c3ccc(F)cc3)nc3n2CCS3)ccn1)c1cc2ccccc2o1

>  <Name>  (411) 
nan

>  <Pocket>  (411) 
nan

>  <ATP_Site>  (411) 
nan

>  <Peripheral>  (411) 
nan

>  <Num_H_Atoms_ProtBoundConf>  (411) 
nan

>  <Num_Resolved_Atoms>  (411) 
nan

>  <Num_Not_Resolved_Atoms>  (411) 
nan

$$$$
CHEMBL3218963
     RDKit          3D

  0  0  0  0  0  0  0  0  0  0999 V3000
M  V30 BEGIN CTAB
M  V30 COUNTS 54 59 0 0 0
M  V30 BEGIN ATOM
M  V30 1 O -2.001465 -1.818638 1.113119 0
M  V30 2 C -1.603627 -2.860296 1.750959 0
M  V30 3 N -0.694792 -2.235871 2.695264 0
M  V30 4 C -0.676765 -0.811231 2.472088 0
M  V30 5 C 0.298370 -0.464133 1.541522 0
M  V30 6 C 0.467984 0.881012 1.192340 0
M  V30 7 C 1.508015 1.236695 0.196616 0
M  V30 8 C 2.533985 2.082100 0.556525 0
M  V30 9 C 2.810900 2.740567 1.826039 0
M  V30 10 C 2.826561 4.127578 1.895406 0
M  V30 11 C 3.074055 4.895537 3.024645 0
M  V30 12 C 3.322590 4.166637 4.161135 0
M  V30 13 F 3.576194 4.859335 5.317093 0
M  V30 14 C 3.327334 2.791337 4.184877 0
M  V30 15 C 3.071467 2.095564 3.017410 0
M  V30 16 N 3.266694 2.178596 -0.566150 0
M  V30 17 C 2.719115 1.439201 -1.541678 0
M  V30 18 N 1.604731 0.825911 -1.102874 0
M  V30 19 C 0.850081 -0.021741 -1.970537 0
M  V30 20 C 1.103404 0.382419 -3.403170 0
M  V30 21 S 2.858852 0.908486 -3.252291 0
M  V30 22 C -0.326689 1.851503 1.768334 0
M  V30 23 C -1.271383 1.412203 2.684940 0
M  V30 24 N -1.443879 0.126554 3.027811 0
M  V30 25 C -1.815947 -4.320602 1.754555 0
M  V30 26 C -3.171903 -4.876333 1.659365 0
M  V30 27 C -2.102638 -5.143642 0.586215 0
M  V30 28 C -2.472956 -4.746598 -0.748315 0
M  V30 29 C -3.343566 -3.743379 -1.116510 0
M  V30 30 C -3.681045 -3.366197 -2.399263 0
M  V30 31 C -3.092840 -4.057751 -3.437291 0
M  V30 32 C -2.217571 -5.068229 -3.192039 0
M  V30 33 C -1.933687 -5.382679 -1.878310 0
M  V30 34 H -0.153992 -2.808639 3.419323 0
M  V30 35 H 0.970241 -1.166559 1.037750 0
M  V30 36 H 2.620688 4.658988 0.954045 0
M  V30 37 H 3.067098 5.957019 2.990827 0
M  V30 38 H 3.527736 2.262454 5.100595 0
M  V30 39 H 3.069184 1.007312 3.007521 0
M  V30 40 H 1.020738 -1.102691 -1.801544 0
M  V30 41 H -0.235002 0.132520 -1.813205 0
M  V30 42 H 1.037143 -0.525668 -4.056750 0
M  V30 43 H 0.453237 1.193676 -3.752783 0
M  V30 44 H -0.196048 2.892418 1.499054 0
M  V30 45 H -1.906137 2.159301 3.149337 0
M  V30 46 H -1.188947 -4.810322 2.563592 0
M  V30 47 H -3.473559 -5.735409 2.292012 0
M  V30 48 H -3.964412 -4.142741 1.456755 0
M  V30 49 H -1.648865 -6.177849 0.628268 0
M  V30 50 H -3.833658 -3.181034 -0.334761 0
M  V30 51 H -4.373414 -2.566903 -2.595597 0
M  V30 52 H -3.306939 -3.820659 -4.452350 0
M  V30 53 H -1.743739 -5.625348 -3.984621 0
M  V30 54 H -1.219972 -6.207235 -1.716597 0
M  V30 END ATOM
M  V30 BEGIN BOND
M  V30 1 2 1 2
M  V30 2 1 2 3
M  V30 3 1 3 4
M  V30 4 2 4 5
M  V30 5 1 5 6
M  V30 6 1 6 7
M  V30 7 2 7 8
M  V30 8 1 8 9
M  V30 9 2 9 10
M  V30 10 1 10 11
M  V30 11 2 11 12
M  V30 12 1 12 13
M  V30 13 1 12 14
M  V30 14 2 14 15
M  V30 15 1 8 16
M  V30 16 2 16 17
M  V30 17 1 17 18
M  V30 18 1 18 19
M  V30 19 1 19 20
M  V30 20 1 20 21
M  V30 21 2 6 22
M  V30 22 1 22 23
M  V30 23 2 23 24
M  V30 24 1 2 25
M  V30 25 1 25 26
M  V30 26 1 26 27
M  V30 27 1 27 28
M  V30 28 2 28 29
M  V30 29 1 29 30
M  V30 30 2 30 31
M  V30 31 1 31 32
M  V30 32 2 32 33
M  V30 33 1 24 4
M  V30 34 1 27 25
M  V30 35 1 33 28
M  V30 36 1 18 7
M  V30 37 1 15 9
M  V30 38 1 21 17
M  V30 39 1 3 34
M  V30 40 1 5 35
M  V30 41 1 10 36
M  V30 42 1 11 37
M  V30 43 1 14 38
M  V30 44 1 15 39
M  V30 45 1 19 40
M  V30 46 1 19 41
M  V30 47 1 20 42
M  V30 48 1 20 43
M  V30 49 1 22 44
M  V30 50 1 23 45
M  V30 51 1 25 46
M  V30 52 1 26 47
M  V30 53 1 26 48
M  V30 54 1 27 49
M  V30 55 1 29 50
M  V30 56 1 30 51
M  V30 57 1 31 52
M  V30 58 1 32 53
M  V30 59 1 33 54
M  V30 END BOND
M  V30 END CTAB
M  END
>  <Dataset>  (412) 
ChEMBL_Kinases

>  <Ligand_Instance>  (412) 
nan

>  <PDB_ID>  (412) 
nan

>  <Standardized_SMILES>  (412) 
O=C(Nc1cc(-c2c(-c3ccc(F)cc3)nc3n2CCS3)ccn1)C1CC1c1ccccc1

>  <Name>  (412) 
nan

>  <Pocket>  (412) 
nan

>  <ATP_Site>  (412) 
nan

>  <Peripheral>  (412) 
nan

>  <Num_H_Atoms_ProtBoundConf>  (412) 
nan

>  <Num_Resolved_Atoms>  (412) 
nan

>  <Num_Not_Resolved_Atoms>  (412) 
nan

$$$$
CHEMBL3218962
     RDKit          3D

  0  0  0  0  0  0  0  0  0  0999 V3000
M  V30 BEGIN CTAB
M  V30 COUNTS 50 54 0 0 0
M  V30 BEGIN ATOM
M  V30 1 C 4.967911 -6.356737 3.062078 0
M  V30 2 C 4.207928 -5.301509 2.309418 0
M  V30 3 C 2.819626 -5.400037 2.178259 0
M  V30 4 C 2.074938 -4.459163 1.497870 0
M  V30 5 C 2.699734 -3.374833 0.918350 0
M  V30 6 C 2.100610 -2.279234 0.162665 0
M  V30 7 O 2.692784 -1.299187 -0.355441 0
M  V30 8 N 0.690147 -2.308462 -0.016746 0
M  V30 9 C -0.284678 -1.497679 -0.650347 0
M  V30 10 C -0.912785 -0.470436 0.051365 0
M  V30 11 C -1.860164 0.313648 -0.573538 0
M  V30 12 C -2.571551 1.422961 0.100376 0
M  V30 13 C -1.850195 2.492656 0.556411 0
M  V30 14 C -0.451622 2.862902 0.556145 0
M  V30 15 C 0.313720 3.075740 1.701902 0
M  V30 16 C 1.659109 3.431623 1.617204 0
M  V30 17 C 2.215295 3.567931 0.356376 0
M  V30 18 F 3.509541 3.910041 0.249918 0
M  V30 19 C 1.491262 3.365812 -0.813555 0
M  V30 20 C 0.144997 3.010050 -0.693747 0
M  V30 21 N -2.776359 3.300238 1.103077 0
M  V30 22 C -3.987845 2.752369 0.985520 0
M  V30 23 N -3.906989 1.562576 0.356593 0
M  V30 24 C -5.080764 0.793078 0.115694 0
M  V30 25 C -6.106534 1.120618 1.200826 0
M  V30 26 S -5.762082 2.925233 1.321259 0
M  V30 27 C -2.186017 0.075767 -1.904681 0
M  V30 28 C -1.554058 -0.945872 -2.584476 0
M  V30 29 N -0.645129 -1.680121 -1.945410 0
M  V30 30 C 4.079264 -3.260536 1.038629 0
M  V30 31 C 4.818576 -4.209464 1.723267 0
M  V30 32 F 6.159933 -4.139300 1.865535 0
M  V30 33 H 5.851532 -6.626255 2.446687 0
M  V30 34 H 5.217252 -5.981429 4.073394 0
M  V30 35 H 4.295082 -7.228592 3.175167 0
M  V30 36 H 2.302095 -6.228824 2.615838 0
M  V30 37 H 1.019605 -4.479717 1.364973 0
M  V30 38 H 0.025117 -3.031553 0.333408 0
M  V30 39 H -0.679445 -0.260959 1.090827 0
M  V30 40 H -0.202770 2.947133 2.643576 0
M  V30 41 H 2.203780 3.583799 2.524851 0
M  V30 42 H 1.973978 3.485333 -1.774341 0
M  V30 43 H -0.364009 2.866866 -1.652945 0
M  V30 44 H -4.892640 -0.272223 0.191843 0
M  V30 45 H -5.578951 1.018899 -0.848200 0
M  V30 46 H -5.868769 0.604719 2.145806 0
M  V30 47 H -7.122139 0.992771 0.824531 0
M  V30 48 H -2.909776 0.634262 -2.470584 0
M  V30 49 H -1.738253 -1.213587 -3.629730 0
M  V30 50 H 4.661229 -2.452754 0.623368 0
M  V30 END ATOM
M  V30 BEGIN BOND
M  V30 1 1 1 2
M  V30 2 2 2 3
M  V30 3 1 3 4
M  V30 4 2 4 5
M  V30 5 1 5 6
M  V30 6 2 6 7
M  V30 7 1 6 8
M  V30 8 1 8 9
M  V30 9 2 9 10
M  V30 10 1 10 11
M  V30 11 1 11 12
M  V30 12 2 12 13
M  V30 13 1 13 14
M  V30 14 2 14 15
M  V30 15 1 15 16
M  V30 16 2 16 17
M  V30 17 1 17 18
M  V30 18 1 17 19
M  V30 19 2 19 20
M  V30 20 1 13 21
M  V30 21 2 21 22
M  V30 22 1 22 23
M  V30 23 1 23 24
M  V30 24 1 24 25
M  V30 25 1 25 26
M  V30 26 2 11 27
M  V30 27 1 27 28
M  V30 28 2 28 29
M  V30 29 1 5 30
M  V30 30 2 30 31
M  V30 31 1 31 32
M  V30 32 1 31 2
M  V30 33 1 29 9
M  V30 34 1 23 12
M  V30 35 1 20 14
M  V30 36 1 26 22
M  V30 37 1 1 33
M  V30 38 1 1 34
M  V30 39 1 1 35
M  V30 40 1 3 36
M  V30 41 1 4 37
M  V30 42 1 8 38
M  V30 43 1 10 39
M  V30 44 1 15 40
M  V30 45 1 16 41
M  V30 46 1 19 42
M  V30 47 1 20 43
M  V30 48 1 24 44
M  V30 49 1 24 45
M  V30 50 1 25 46
M  V30 51 1 25 47
M  V30 52 1 27 48
M  V30 53 1 28 49
M  V30 54 1 30 50
M  V30 END BOND
M  V30 END CTAB
M  END
>  <Dataset>  (413) 
ChEMBL_Kinases

>  <Ligand_Instance>  (413) 
nan

>  <PDB_ID>  (413) 
nan

>  <Standardized_SMILES>  (413) 
Cc1ccc(C(=O)Nc2cc(-c3c(-c4ccc(F)cc4)nc4n3CCS4)ccn2)cc1F

>  <Name>  (413) 
nan

>  <Pocket>  (413) 
nan

>  <ATP_Site>  (413) 
nan

>  <Peripheral>  (413) 
nan

>  <Num_H_Atoms_ProtBoundConf>  (413) 
nan

>  <Num_Resolved_Atoms>  (413) 
nan

>  <Num_Not_Resolved_Atoms>  (413) 
nan

$$$$
CHEMBL3218961
     RDKit          3D

  0  0  0  0  0  0  0  0  0  0999 V3000
M  V30 BEGIN CTAB
M  V30 COUNTS 44 48 0 0 0
M  V30 BEGIN ATOM
M  V30 1 O -1.073198 -3.643979 0.891920 0
M  V30 2 C -1.367181 -3.422899 -0.330225 0
M  V30 3 N -0.385657 -2.614716 -0.977303 0
M  V30 4 C 0.681516 -2.252868 -0.100074 0
M  V30 5 C 0.464833 -1.082170 0.576382 0
M  V30 6 C 1.381480 -0.586221 1.457075 0
M  V30 7 C 1.373464 0.626068 2.281908 0
M  V30 8 C 1.390781 1.836613 1.664874 0
M  V30 9 C 1.414669 2.370679 0.311415 0
M  V30 10 C 0.458909 2.297508 -0.703038 0
M  V30 11 C 0.721963 2.883523 -1.900075 0
M  V30 12 C 1.875019 3.547027 -2.176548 0
M  V30 13 F 2.122801 4.130902 -3.387042 0
M  V30 14 C 2.844011 3.646018 -1.212650 0
M  V30 15 C 2.601165 3.058466 0.013687 0
M  V30 16 N 1.377956 2.736885 2.694156 0
M  V30 17 C 1.353977 2.068981 3.859397 0
M  V30 18 N 1.350578 0.751718 3.644525 0
M  V30 19 C 1.329850 -0.154443 4.750316 0
M  V30 20 C 0.572106 0.517238 5.894567 0
M  V30 21 S 1.320541 2.184163 5.670395 0
M  V30 22 C 2.567410 -1.300779 1.665282 0
M  V30 23 C 2.755724 -2.491931 0.958199 0
M  V30 24 N 1.835080 -2.947143 0.103060 0
M  V30 25 C -2.549026 -3.897231 -1.075454 0
M  V30 26 C -3.010624 -3.748428 -2.386692 0
M  V30 27 C -4.210295 -4.460426 -2.439171 0
M  V30 28 C -4.404059 -4.993045 -1.172268 0
M  V30 29 O -3.412547 -4.638036 -0.416085 0
M  V30 30 H -0.518612 -2.367032 -1.982184 0
M  V30 31 H -0.405943 -0.445835 0.502690 0
M  V30 32 H -0.406988 1.764506 -0.399972 0
M  V30 33 H -0.040432 2.803344 -2.652383 0
M  V30 34 H 3.763075 4.171221 -1.423637 0
M  V30 35 H 3.423983 3.179661 0.735225 0
M  V30 36 H 0.765853 -1.059436 4.530118 0
M  V30 37 H 2.368706 -0.386832 5.094225 0
M  V30 38 H -0.484541 0.506806 5.593632 0
M  V30 39 H 0.819543 0.066143 6.848129 0
M  V30 40 H 3.404778 -1.058144 2.325667 0
M  V30 41 H 3.637543 -3.136781 1.034919 0
M  V30 42 H -2.329532 -3.138571 -2.984454 0
M  V30 43 H -4.673339 -4.415453 -3.435570 0
M  V30 44 H -5.307453 -5.575889 -1.069348 0
M  V30 END ATOM
M  V30 BEGIN BOND
M  V30 1 2 1 2
M  V30 2 1 2 3
M  V30 3 1 3 4
M  V30 4 2 4 5
M  V30 5 1 5 6
M  V30 6 1 6 7
M  V30 7 2 7 8
M  V30 8 1 8 9
M  V30 9 2 9 10
M  V30 10 1 10 11
M  V30 11 2 11 12
M  V30 12 1 12 13
M  V30 13 1 12 14
M  V30 14 2 14 15
M  V30 15 1 8 16
M  V30 16 2 16 17
M  V30 17 1 17 18
M  V30 18 1 18 19
M  V30 19 1 19 20
M  V30 20 1 20 21
M  V30 21 2 6 22
M  V30 22 1 22 23
M  V30 23 2 23 24
M  V30 24 1 2 25
M  V30 25 2 25 26
M  V30 26 1 26 27
M  V30 27 2 27 28
M  V30 28 1 28 29
M  V30 29 1 24 4
M  V30 30 1 29 25
M  V30 31 1 18 7
M  V30 32 1 15 9
M  V30 33 1 21 17
M  V30 34 1 3 30
M  V30 35 1 5 31
M  V30 36 1 10 32
M  V30 37 1 11 33
M  V30 38 1 14 34
M  V30 39 1 15 35
M  V30 40 1 19 36
M  V30 41 1 19 37
M  V30 42 1 20 38
M  V30 43 1 20 39
M  V30 44 1 22 40
M  V30 45 1 23 41
M  V30 46 1 26 42
M  V30 47 1 27 43
M  V30 48 1 28 44
M  V30 END BOND
M  V30 END CTAB
M  END
>  <Dataset>  (414) 
ChEMBL_Kinases

>  <Ligand_Instance>  (414) 
nan

>  <PDB_ID>  (414) 
nan

>  <Standardized_SMILES>  (414) 
O=C(Nc1cc(-c2c(-c3ccc(F)cc3)nc3n2CCS3)ccn1)c1ccco1

>  <Name>  (414) 
nan

>  <Pocket>  (414) 
nan

>  <ATP_Site>  (414) 
nan

>  <Peripheral>  (414) 
nan

>  <Num_H_Atoms_ProtBoundConf>  (414) 
nan

>  <Num_Resolved_Atoms>  (414) 
nan

>  <Num_Not_Resolved_Atoms>  (414) 
nan

$$$$
CHEMBL3218960
     RDKit          3D

  0  0  0  0  0  0  0  0  0  0999 V3000
M  V30 BEGIN CTAB
M  V30 COUNTS 50 54 0 0 0
M  V30 BEGIN ATOM
M  V30 1 O 2.850192 -1.454268 1.503471 0
M  V30 2 C 2.905971 -0.250996 1.103368 0
M  V30 3 C 3.796611 0.866671 1.513179 0
M  V30 4 C 4.757257 0.447688 2.564094 0
M  V30 5 C 5.966553 -0.065322 2.081363 0
M  V30 6 C 6.978914 -0.503569 2.917508 0
M  V30 7 C 6.787688 -0.431340 4.290154 0
M  V30 8 C 5.599753 0.072580 4.779079 0
M  V30 9 C 4.593825 0.507982 3.930271 0
M  V30 10 N 2.003454 0.169253 0.104743 0
M  V30 11 C 1.014891 -0.647685 -0.510378 0
M  V30 12 C -0.249539 -0.751713 0.002712 0
M  V30 13 C -1.209584 -1.541820 -0.592756 0
M  V30 14 C -2.599950 -1.711314 -0.120269 0
M  V30 15 C -3.492835 -0.666755 -0.205404 0
M  V30 16 C -3.429053 0.703255 -0.687343 0
M  V30 17 C -2.718475 1.792473 -0.230455 0
M  V30 18 C -2.801728 3.017034 -0.850329 0
M  V30 19 C -3.624974 3.158737 -1.966844 0
M  V30 20 F -3.677909 4.378506 -2.544455 0
M  V30 21 C -4.341627 2.092503 -2.440534 0
M  V30 22 C -4.243896 0.890103 -1.811750 0
M  V30 23 N -4.624704 -1.178298 0.306884 0
M  V30 24 C -4.439480 -2.446657 0.679687 0
M  V30 25 N -3.175170 -2.823907 0.427868 0
M  V30 26 C -2.743575 -4.165889 0.750072 0
M  V30 27 C -3.564178 -4.634253 1.952755 0
M  V30 28 S -5.178513 -3.936518 1.406824 0
M  V30 29 C -0.920066 -2.269362 -1.750785 0
M  V30 30 C 0.376202 -2.141633 -2.247488 0
M  V30 31 N 1.269862 -1.356118 -1.624119 0
M  V30 32 H 4.336633 1.238657 0.629612 0
M  V30 33 H 3.152842 1.714301 1.868822 0
M  V30 34 H 6.170357 -0.144914 1.014304 0
M  V30 35 H 7.908471 -0.897913 2.501742 0
M  V30 36 H 7.582976 -0.775652 4.934837 0
M  V30 37 H 5.421752 0.141971 5.842961 0
M  V30 38 H 3.639758 0.912562 4.230466 0
M  V30 39 H 1.811420 1.052416 -0.404987 0
M  V30 40 H -0.546310 -0.221523 0.895178 0
M  V30 41 H -2.126534 1.544200 0.636445 0
M  V30 42 H -2.195561 3.788451 -0.394527 0
M  V30 43 H -4.964225 2.287431 -3.321926 0
M  V30 44 H -4.861249 0.119679 -2.281759 0
M  V30 45 H -2.988982 -4.881692 -0.083879 0
M  V30 46 H -1.682229 -4.207117 0.962797 0
M  V30 47 H -3.593991 -5.730085 1.971605 0
M  V30 48 H -3.231512 -4.150538 2.882967 0
M  V30 49 H -1.574189 -2.916395 -2.308688 0
M  V30 50 H 0.776177 -2.634641 -3.137829 0
M  V30 END ATOM
M  V30 BEGIN BOND
M  V30 1 2 1 2
M  V30 2 1 2 3
M  V30 3 1 3 4
M  V30 4 2 4 5
M  V30 5 1 5 6
M  V30 6 2 6 7
M  V30 7 1 7 8
M  V30 8 2 8 9
M  V30 9 1 2 10
M  V30 10 1 10 11
M  V30 11 2 11 12
M  V30 12 1 12 13
M  V30 13 1 13 14
M  V30 14 2 14 15
M  V30 15 1 15 16
M  V30 16 2 16 17
M  V30 17 1 17 18
M  V30 18 2 18 19
M  V30 19 1 19 20
M  V30 20 1 19 21
M  V30 21 2 21 22
M  V30 22 1 15 23
M  V30 23 2 23 24
M  V30 24 1 24 25
M  V30 25 1 25 26
M  V30 26 1 26 27
M  V30 27 1 27 28
M  V30 28 2 13 29
M  V30 29 1 29 30
M  V30 30 2 30 31
M  V30 31 1 9 4
M  V30 32 1 31 11
M  V30 33 1 25 14
M  V30 34 1 22 16
M  V30 35 1 28 24
M  V30 36 1 3 32
M  V30 37 1 3 33
M  V30 38 1 5 34
M  V30 39 1 6 35
M  V30 40 1 7 36
M  V30 41 1 8 37
M  V30 42 1 9 38
M  V30 43 1 10 39
M  V30 44 1 12 40
M  V30 45 1 17 41
M  V30 46 1 18 42
M  V30 47 1 21 43
M  V30 48 1 22 44
M  V30 49 1 26 45
M  V30 50 1 26 46
M  V30 51 1 27 47
M  V30 52 1 27 48
M  V30 53 1 29 49
M  V30 54 1 30 50
M  V30 END BOND
M  V30 END CTAB
M  END
>  <Dataset>  (415) 
ChEMBL_Kinases

>  <Ligand_Instance>  (415) 
nan

>  <PDB_ID>  (415) 
nan

>  <Standardized_SMILES>  (415) 
O=C(Cc1ccccc1)Nc1cc(-c2c(-c3ccc(F)cc3)nc3n2CCS3)ccn1

>  <Name>  (415) 
nan

>  <Pocket>  (415) 
nan

>  <ATP_Site>  (415) 
nan

>  <Peripheral>  (415) 
nan

>  <Num_H_Atoms_ProtBoundConf>  (415) 
nan

>  <Num_Resolved_Atoms>  (415) 
nan

>  <Num_Not_Resolved_Atoms>  (415) 
nan

$$$$
CHEMBL3235181
     RDKit          3D

  0  0  0  0  0  0  0  0  0  0999 V3000
M  V30 BEGIN CTAB
M  V30 COUNTS 57 59 0 0 0
M  V30 BEGIN ATOM
M  V30 1 C 6.944728 -2.622725 -1.158171 0
M  V30 2 C 5.801877 -2.499266 -2.169177 0
M  V30 3 O 4.956145 -1.463594 -1.709927 0
M  V30 4 C 3.796698 -1.098125 -2.418351 0
M  V30 5 O 3.591028 -1.748003 -3.451963 0
M  V30 6 C 3.122102 -0.004420 -1.711979 0
M  V30 7 S 3.531145 0.899690 -0.150845 0
M  V30 8 C 2.040758 1.964729 -0.308199 0
M  V30 9 N 1.687432 3.016562 0.643006 0
M  V30 10 C 0.926894 2.956301 1.804972 0
M  V30 11 O 0.542202 1.726272 1.930933 0
M  V30 12 C 0.147276 2.977598 3.027881 0
M  V30 13 N -0.440131 1.682676 3.284507 0
M  V30 14 C -1.410750 1.001099 2.512832 0
M  V30 15 O -1.901862 1.500545 1.445388 0
M  V30 16 C -1.968726 -0.318632 2.815256 0
M  V30 17 C -3.007691 -0.769370 1.846915 0
M  V30 18 C -2.540321 -0.887083 0.443299 0
M  V30 19 C -3.403877 -0.581468 -0.609800 0
M  V30 20 C -3.038329 -0.672189 -1.934702 0
M  V30 21 C -1.745378 -1.089262 -2.215934 0
M  V30 22 C -0.866548 -1.398562 -1.216896 0
M  V30 23 C -1.267623 -1.296238 0.101086 0
M  V30 24 C -3.556087 -2.074277 2.287116 0
M  V30 25 C -4.906806 -2.342298 2.154570 0
M  V30 26 C -5.552489 -3.522022 2.521590 0
M  V30 27 C -4.759863 -4.502341 3.064419 0
M  V30 28 C -3.408964 -4.292816 3.220567 0
M  V30 29 C -2.814710 -3.097339 2.838191 0
M  V30 30 N 1.493549 1.615848 -1.303060 0
M  V30 31 C 1.935265 0.648910 -2.083001 0
M  V30 32 C 1.222746 0.230658 -3.346194 0
M  V30 33 H 6.687581 -2.101907 -0.196857 0
M  V30 34 H 7.094667 -3.681416 -0.882642 0
M  V30 35 H 7.876792 -2.180112 -1.527490 0
M  V30 36 H 5.179663 -3.434989 -2.129771 0
M  V30 37 H 6.258406 -2.321569 -3.146796 0
M  V30 38 H 1.843657 4.042467 0.774584 0
M  V30 39 H -0.663865 3.772804 2.997302 0
M  V30 40 H 0.818404 3.220445 3.897754 0
M  V30 41 H -0.171087 1.113567 4.121251 0
M  V30 42 H -1.102403 -1.040786 2.779684 0
M  V30 43 H -2.375752 -0.436903 3.836121 0
M  V30 44 H -3.870816 -0.043263 1.847289 0
M  V30 45 H -4.400927 -0.260383 -0.341222 0
M  V30 46 H -3.770031 -0.415749 -2.698870 0
M  V30 47 H -1.461338 -1.161118 -3.248517 0
M  V30 48 H 0.162301 -1.730134 -1.408745 0
M  V30 49 H -0.550744 -1.547832 0.882552 0
M  V30 50 H -5.512607 -1.554413 1.722500 0
M  V30 51 H -6.602212 -3.591475 2.362781 0
M  V30 52 H -5.217245 -5.431398 3.362451 0
M  V30 53 H -2.835125 -5.105054 3.654217 0
M  V30 54 H -1.760792 -2.952571 2.969041 0
M  V30 55 H 1.813357 0.610641 -4.228049 0
M  V30 56 H 0.224581 0.648952 -3.433569 0
M  V30 57 H 1.247861 -0.872415 -3.428240 0
M  V30 END ATOM
M  V30 BEGIN BOND
M  V30 1 1 1 2
M  V30 2 1 2 3
M  V30 3 1 3 4
M  V30 4 2 4 5
M  V30 5 1 4 6
M  V30 6 1 6 7
M  V30 7 1 7 8
M  V30 8 1 8 9
M  V30 9 1 9 10
M  V30 10 2 10 11
M  V30 11 1 10 12
M  V30 12 1 12 13
M  V30 13 1 13 14
M  V30 14 2 14 15
M  V30 15 1 14 16
M  V30 16 1 16 17
M  V30 17 1 17 18
M  V30 18 2 18 19
M  V30 19 1 19 20
M  V30 20 2 20 21
M  V30 21 1 21 22
M  V30 22 2 22 23
M  V30 23 1 17 24
M  V30 24 2 24 25
M  V30 25 1 25 26
M  V30 26 2 26 27
M  V30 27 1 27 28
M  V30 28 2 28 29
M  V30 29 2 8 30
M  V30 30 1 30 31
M  V30 31 1 31 32
M  V30 32 2 31 6
M  V30 33 1 23 18
M  V30 34 1 29 24
M  V30 35 1 1 33
M  V30 36 1 1 34
M  V30 37 1 1 35
M  V30 38 1 2 36
M  V30 39 1 2 37
M  V30 40 1 9 38
M  V30 41 1 12 39
M  V30 42 1 12 40
M  V30 43 1 13 41
M  V30 44 1 16 42
M  V30 45 1 16 43
M  V30 46 1 17 44
M  V30 47 1 19 45
M  V30 48 1 20 46
M  V30 49 1 21 47
M  V30 50 1 22 48
M  V30 51 1 23 49
M  V30 52 1 25 50
M  V30 53 1 26 51
M  V30 54 1 27 52
M  V30 55 1 28 53
M  V30 56 1 29 54
M  V30 57 1 32 55
M  V30 58 1 32 56
M  V30 59 1 32 57
M  V30 END BOND
M  V30 END CTAB
M  END
>  <Dataset>  (416) 
ChEMBL_Kinases

>  <Ligand_Instance>  (416) 
nan

>  <PDB_ID>  (416) 
nan

>  <Standardized_SMILES>  (416) 
CCOC(=O)c1sc(NC(=O)CNC(=O)CC(c2ccccc2)c2ccccc2)nc1C

>  <Name>  (416) 
nan

>  <Pocket>  (416) 
nan

>  <ATP_Site>  (416) 
nan

>  <Peripheral>  (416) 
nan

>  <Num_H_Atoms_ProtBoundConf>  (416) 
nan

>  <Num_Resolved_Atoms>  (416) 
nan

>  <Num_Not_Resolved_Atoms>  (416) 
nan

$$$$
CHEMBL321665
     RDKit          3D

  0  0  0  0  0  0  0  0  0  0999 V3000
M  V30 BEGIN CTAB
M  V30 COUNTS 63 64 0 0 0
M  V30 BEGIN ATOM
M  V30 1 C -0.416631 1.046300 4.894051 0
M  V30 2 C 0.893202 0.472690 4.335653 0
M  V30 3 C 1.347001 -0.718166 5.115194 0
M  V30 4 C 2.638208 -1.319270 4.599940 0
M  V30 5 C 2.446375 -1.769173 3.135962 0
M  V30 6 C 3.666827 -2.363424 2.576774 0
M  V30 7 C 3.731352 -2.953979 1.246850 0
M  V30 8 C 3.417034 -2.222728 0.007887 0
M  V30 9 C 2.005396 -1.823456 -0.126775 0
M  V30 10 C 1.735139 -1.085442 -1.415119 0
M  V30 11 C 1.286358 0.125507 -1.657138 0
M  V30 12 C 0.970431 0.984518 -2.824500 0
M  V30 13 C -0.259191 1.706366 -2.260487 0
M  V30 14 C -0.593221 2.930826 -3.035428 0
M  V30 15 O 0.571044 3.684535 -3.180740 0
M  V30 16 C -1.390627 0.782838 -2.012566 0
M  V30 17 O -1.996755 0.317221 -3.204196 0
M  V30 18 C -3.054751 -0.551983 -3.037074 0
M  V30 19 O -3.121421 -0.638199 -1.765469 0
M  V30 20 C -4.190472 -1.478375 -3.125846 0
M  V30 21 C -4.580652 -1.832528 -1.716472 0
M  V30 22 C -3.960356 -2.945753 -1.140449 0
M  V30 23 C -4.190866 -3.417890 0.134025 0
M  V30 24 C -5.114046 -2.712687 0.875814 0
M  V30 25 C -5.748203 -1.611374 0.348738 0
M  V30 26 C -5.493565 -1.165682 -0.931678 0
M  V30 27 O 0.243285 2.086812 -0.991289 0
M  V30 28 C 0.964221 0.995507 -0.532010 0
M  V30 29 O 1.249365 0.862045 0.685433 0
M  V30 30 H -0.190341 1.711911 5.751843 0
M  V30 31 H -0.880493 1.701962 4.115471 0
M  V30 32 H -1.126450 0.258921 5.151296 0
M  V30 33 H 0.618422 0.193002 3.276922 0
M  V30 34 H 1.600342 1.305079 4.293083 0
M  V30 35 H 0.542706 -1.497068 4.983041 0
M  V30 36 H 1.479065 -0.436830 6.161892 0
M  V30 37 H 2.918934 -2.153209 5.251392 0
M  V30 38 H 3.405698 -0.519029 4.628091 0
M  V30 39 H 2.284084 -0.772681 2.603896 0
M  V30 40 H 1.537775 -2.326054 3.096034 0
M  V30 41 H 4.013882 -3.136407 3.356962 0
M  V30 42 H 4.546719 -1.619363 2.636104 0
M  V30 43 H 3.155003 -3.957397 1.277710 0
M  V30 44 H 4.803563 -3.383659 1.155365 0
M  V30 45 H 3.626074 -2.922345 -0.874124 0
M  V30 46 H 4.139744 -1.388279 -0.205414 0
M  V30 47 H 1.497260 -1.413687 0.709128 0
M  V30 48 H 1.444651 -2.815714 -0.322041 0
M  V30 49 H 1.940835 -1.632329 -2.353323 0
M  V30 50 H 0.771691 0.454095 -3.753561 0
M  V30 51 H 1.763365 1.766889 -2.884647 0
M  V30 52 H -1.019143 2.720455 -4.028565 0
M  V30 53 H -1.307830 3.521064 -2.437036 0
M  V30 54 H 0.532282 4.522358 -2.655820 0
M  V30 55 H -2.159512 1.306182 -1.397332 0
M  V30 56 H -1.024160 -0.070076 -1.399401 0
M  V30 57 H -3.931472 -2.435871 -3.640391 0
M  V30 58 H -5.054032 -1.063490 -3.679492 0
M  V30 59 H -3.226138 -3.504849 -1.733342 0
M  V30 60 H -3.664941 -4.285878 0.494927 0
M  V30 61 H -5.317127 -3.062752 1.887925 0
M  V30 62 H -6.470893 -1.071749 0.950305 0
M  V30 63 H -5.959509 -0.310826 -1.395688 0
M  V30 END ATOM
M  V30 BEGIN BOND
M  V30 1 1 1 2
M  V30 2 1 2 3
M  V30 3 1 3 4
M  V30 4 1 4 5
M  V30 5 1 5 6
M  V30 6 1 6 7
M  V30 7 1 7 8
M  V30 8 1 8 9
M  V30 9 1 9 10
M  V30 10 2 10 11
M  V30 11 1 11 12
M  V30 12 1 12 13
M  V30 13 1 13 14
M  V30 14 1 14 15
M  V30 15 1 13 16
M  V30 16 1 16 17
M  V30 17 1 17 18
M  V30 18 2 18 19
M  V30 19 1 18 20
M  V30 20 1 20 21
M  V30 21 2 21 22
M  V30 22 1 22 23
M  V30 23 2 23 24
M  V30 24 1 24 25
M  V30 25 2 25 26
M  V30 26 1 13 27
M  V30 27 1 27 28
M  V30 28 2 28 29
M  V30 29 1 28 11
M  V30 30 1 26 21
M  V30 31 1 1 30
M  V30 32 1 1 31
M  V30 33 1 1 32
M  V30 34 1 2 33
M  V30 35 1 2 34
M  V30 36 1 3 35
M  V30 37 1 3 36
M  V30 38 1 4 37
M  V30 39 1 4 38
M  V30 40 1 5 39
M  V30 41 1 5 40
M  V30 42 1 6 41
M  V30 43 1 6 42
M  V30 44 1 7 43
M  V30 45 1 7 44
M  V30 46 1 8 45
M  V30 47 1 8 46
M  V30 48 1 9 47
M  V30 49 1 9 48
M  V30 50 1 10 49
M  V30 51 1 12 50
M  V30 52 1 12 51
M  V30 53 1 14 52
M  V30 54 1 14 53
M  V30 55 1 15 54
M  V30 56 1 16 55
M  V30 57 1 16 56
M  V30 58 1 20 57
M  V30 59 1 20 58
M  V30 60 1 22 59
M  V30 61 1 23 60
M  V30 62 1 24 61
M  V30 63 1 25 62
M  V30 64 1 26 63
M  V30 END BOND
M  V30 END CTAB
M  END
>  <Dataset>  (417) 
ChEMBL_Kinases

>  <Ligand_Instance>  (417) 
nan

>  <PDB_ID>  (417) 
nan

>  <Standardized_SMILES>  (417) 
CCCCCCCCC/C=C1/CC(CO)(COC(=O)Cc2ccccc2)OC1=O

>  <Name>  (417) 
nan

>  <Pocket>  (417) 
nan

>  <ATP_Site>  (417) 
nan

>  <Peripheral>  (417) 
nan

>  <Num_H_Atoms_ProtBoundConf>  (417) 
nan

>  <Num_Resolved_Atoms>  (417) 
nan

>  <Num_Not_Resolved_Atoms>  (417) 
nan

$$$$
CHEMBL3216659
     RDKit          3D

  0  0  0  0  0  0  0  0  0  0999 V3000
M  V30 BEGIN CTAB
M  V30 COUNTS 52 56 0 0 0
M  V30 BEGIN ATOM
M  V30 1 O 4.843643 2.632771 2.181791 0
M  V30 2 C 4.712764 1.794059 1.271534 0
M  V30 3 N 5.811303 1.352224 0.483602 0
M  V30 4 C 5.234460 0.403151 -0.433584 0
M  V30 5 C 5.988792 -0.269451 -1.393176 0
M  V30 6 C 5.364878 -1.153925 -2.227442 0
M  V30 7 Br 6.344745 -2.097362 -3.558021 0
M  V30 8 C 3.984983 -1.338353 -2.070435 0
M  V30 9 C 3.322932 -0.632004 -1.097186 0
M  V30 10 C 3.884779 0.248309 -0.251802 0
M  V30 11 C 3.509834 1.113679 0.822195 0
M  V30 12 C 2.328683 1.268692 1.300188 0
M  V30 13 N 1.952717 2.128286 2.357634 0
M  V30 14 C 0.555114 2.078659 2.655054 0
M  V30 15 C -0.145656 2.784592 3.620383 0
M  V30 16 C -1.491559 2.507382 3.648265 0
M  V30 17 C -2.120480 1.614562 2.807399 0
M  V30 18 C -1.325705 0.986621 1.905298 0
M  V30 19 C 0.054173 1.161199 1.754725 0
M  V30 20 C 1.103828 0.640853 0.907483 0
M  V30 21 N 0.779379 -0.195062 0.057292 0
M  V30 22 O -0.420416 -0.736782 -0.245678 0
M  V30 23 C -0.673599 -2.093639 0.090279 0
M  V30 24 C -1.957549 -2.618716 -0.459750 0
M  V30 25 N -3.140261 -1.926886 -0.022793 0
M  V30 26 C -3.470295 -2.089653 1.354911 0
M  V30 27 C -4.657525 -2.987082 1.608261 0
M  V30 28 N -4.719714 -4.106270 0.714716 0
M  V30 29 C -4.536038 -3.773448 -0.665087 0
M  V30 30 C -4.202981 -2.329338 -0.924585 0
M  V30 31 H 6.800050 1.672201 0.583019 0
M  V30 32 H 7.046107 -0.146833 -1.535284 0
M  V30 33 H 3.557509 -2.063435 -2.776458 0
M  V30 34 H 2.317498 -0.895816 -1.127793 0
M  V30 35 H 2.641613 2.731389 2.859792 0
M  V30 36 H 0.345575 3.484055 4.278991 0
M  V30 37 H -2.083001 3.034970 4.386775 0
M  V30 38 H -3.179123 1.435734 2.873859 0
M  V30 39 H -1.840862 0.289080 1.249857 0
M  V30 40 H 0.129289 -2.783088 -0.294503 0
M  V30 41 H -0.626640 -2.167924 1.202793 0
M  V30 42 H -1.876045 -2.593542 -1.572029 0
M  V30 43 H -2.050427 -3.673546 -0.093142 0
M  V30 44 H -3.760070 -1.079159 1.767397 0
M  V30 45 H -2.576042 -2.377206 1.942447 0
M  V30 46 H -5.617590 -2.443929 1.554837 0
M  V30 47 H -4.560256 -3.376624 2.643564 0
M  V30 48 H -4.195560 -4.938929 1.039973 0
M  V30 49 H -3.755487 -4.432324 -1.087183 0
M  V30 50 H -5.475913 -3.989254 -1.223048 0
M  V30 51 H -5.062801 -1.648470 -0.934046 0
M  V30 52 H -3.728712 -2.300959 -1.947598 0
M  V30 END ATOM
M  V30 BEGIN BOND
M  V30 1 2 1 2
M  V30 2 1 2 3
M  V30 3 1 3 4
M  V30 4 2 4 5
M  V30 5 1 5 6
M  V30 6 1 6 7
M  V30 7 2 6 8
M  V30 8 1 8 9
M  V30 9 2 9 10
M  V30 10 1 10 11
M  V30 11 2 11 12
M  V30 12 1 12 13
M  V30 13 1 13 14
M  V30 14 2 14 15
M  V30 15 1 15 16
M  V30 16 2 16 17
M  V30 17 1 17 18
M  V30 18 2 18 19
M  V30 19 1 19 20
M  V30 20 2 20 21
M  V30 21 1 21 22
M  V30 22 1 22 23
M  V30 23 1 23 24
M  V30 24 1 24 25
M  V30 25 1 25 26
M  V30 26 1 26 27
M  V30 27 1 27 28
M  V30 28 1 28 29
M  V30 29 1 29 30
M  V30 30 1 11 2
M  V30 31 1 20 12
M  V30 32 1 30 25
M  V30 33 1 10 4
M  V30 34 1 19 14
M  V30 35 1 3 31
M  V30 36 1 5 32
M  V30 37 1 8 33
M  V30 38 1 9 34
M  V30 39 1 13 35
M  V30 40 1 15 36
M  V30 41 1 16 37
M  V30 42 1 17 38
M  V30 43 1 18 39
M  V30 44 1 23 40
M  V30 45 1 23 41
M  V30 46 1 24 42
M  V30 47 1 24 43
M  V30 48 1 26 44
M  V30 49 1 26 45
M  V30 50 1 27 46
M  V30 51 1 27 47
M  V30 52 1 28 48
M  V30 53 1 29 49
M  V30 54 1 29 50
M  V30 55 1 30 51
M  V30 56 1 30 52
M  V30 END BOND
M  V30 END CTAB
M  END
>  <Dataset>  (418) 
ChEMBL_Kinases

>  <Ligand_Instance>  (418) 
nan

>  <PDB_ID>  (418) 
nan

>  <Standardized_SMILES>  (418) 
O=C1Nc2cc(Br)ccc2/C1=C1/Nc2ccccc2/C1=N\OCCN1CCNCC1

>  <Name>  (418) 
nan

>  <Pocket>  (418) 
nan

>  <ATP_Site>  (418) 
nan

>  <Peripheral>  (418) 
nan

>  <Num_H_Atoms_ProtBoundConf>  (418) 
nan

>  <Num_Resolved_Atoms>  (418) 
nan

>  <Num_Not_Resolved_Atoms>  (418) 
nan

$$$$
CHEMBL3216928
     RDKit          3D

  0  0  0  0  0  0  0  0  0  0999 V3000
M  V30 BEGIN CTAB
M  V30 COUNTS 57 60 0 0 0
M  V30 BEGIN ATOM
M  V30 1 C 2.799794 2.908550 1.829628 0
M  V30 2 C 4.166260 2.265804 1.847123 0
M  V30 3 C 4.305788 1.072171 2.696508 0
M  V30 4 C 3.570450 -0.176775 2.388842 0
M  V30 5 N 2.163292 -0.014739 2.278374 0
M  V30 6 C 1.508252 -1.294258 2.510215 0 CFG=2
M  V30 7 C 2.204477 -2.203226 1.529210 0
M  V30 8 C 2.112380 -1.347529 0.284161 0
M  V30 9 C 1.910509 0.064066 0.810687 0 CFG=1
M  V30 10 C 0.504512 0.536993 0.677139 0
M  V30 11 C -0.470597 -0.509294 1.168667 0 CFG=1
M  V30 12 O -0.971982 -1.275424 0.120324 0
M  V30 13 C -2.289531 -1.075390 -0.181402 0
M  V30 14 C -2.450130 -0.578812 -1.595622 0
M  V30 15 C -1.641399 -1.325328 -2.452898 0
M  V30 16 C -1.625472 -1.044589 -3.821693 0
M  V30 17 C -2.435794 -0.007075 -4.290633 0
M  V30 18 F -2.463181 0.314432 -5.618310 0
M  V30 19 C -3.223403 0.711286 -3.417303 0
M  V30 20 C -3.248201 0.444854 -2.064551 0
M  V30 21 C -3.074096 -2.325783 -0.083636 0
M  V30 22 C -3.076445 -3.224574 0.959181 0
M  V30 23 C -3.817494 -4.374047 0.997937 0
M  V30 24 C -4.633034 -4.685579 -0.069686 0
M  V30 25 F -5.369172 -5.820454 -0.040720 0
M  V30 26 C -4.699513 -3.857411 -1.150669 0
M  V30 27 C -3.931323 -2.731792 -1.114241 0
M  V30 28 C 0.053095 -1.333488 2.276538 0
M  V30 29 H 2.155293 2.353670 2.570150 0
M  V30 30 H 2.330784 2.935745 0.829056 0
M  V30 31 H 2.837655 4.001082 2.131242 0
M  V30 32 H 4.867299 3.061032 2.246293 0
M  V30 33 H 4.537922 2.115526 0.801114 0
M  V30 34 H 5.418071 0.824594 2.771296 0
M  V30 35 H 4.043877 1.320020 3.781713 0
M  V30 36 H 4.027072 -0.576744 1.426005 0
M  V30 37 H 3.851119 -0.982128 3.126439 0
M  V30 38 H 1.698229 -1.664433 3.544795 0
M  V30 39 H 3.250610 -2.413387 1.812555 0
M  V30 40 H 1.618695 -3.151125 1.408442 0
M  V30 41 H 1.277169 -1.693955 -0.356792 0
M  V30 42 H 3.039141 -1.465446 -0.304273 0
M  V30 43 H 2.672103 0.658446 0.295699 0
M  V30 44 H 0.378488 1.456548 1.279009 0
M  V30 45 H 0.226535 0.828286 -0.353936 0
M  V30 46 H -1.347931 0.077237 1.535076 0
M  V30 47 H -2.788144 -0.322549 0.465031 0
M  V30 48 H -0.988987 -2.133897 -2.204542 0
M  V30 49 H -1.036404 -1.566538 -4.543319 0
M  V30 50 H -3.866401 1.521741 -3.734421 0
M  V30 51 H -3.814867 0.927011 -1.284334 0
M  V30 52 H -2.458573 -3.008427 1.802877 0
M  V30 53 H -3.763201 -5.033894 1.861131 0
M  V30 54 H -5.324641 -4.067055 -2.003239 0
M  V30 55 H -3.993157 -2.071640 -1.993931 0
M  V30 56 H -0.190550 -2.418533 2.057501 0
M  V30 57 H -0.473236 -1.137528 3.251285 0
M  V30 END ATOM
M  V30 BEGIN BOND
M  V30 1 1 1 2
M  V30 2 1 2 3
M  V30 3 1 3 4
M  V30 4 1 4 5
M  V30 5 1 5 6
M  V30 6 1 6 7
M  V30 7 1 7 8
M  V30 8 1 8 9
M  V30 9 1 9 10
M  V30 10 1 10 11
M  V30 11 1 11 12
M  V30 12 1 12 13
M  V30 13 1 13 14
M  V30 14 2 14 15
M  V30 15 1 15 16
M  V30 16 2 16 17
M  V30 17 1 17 18
M  V30 18 1 17 19
M  V30 19 2 19 20
M  V30 20 1 13 21
M  V30 21 2 21 22
M  V30 22 1 22 23
M  V30 23 2 23 24
M  V30 24 1 24 25
M  V30 25 1 24 26
M  V30 26 2 26 27
M  V30 27 1 11 28
M  V30 28 1 9 5
M  V30 29 1 20 14
M  V30 30 1 27 21
M  V30 31 1 28 6
M  V30 32 1 1 29
M  V30 33 1 1 30
M  V30 34 1 1 31
M  V30 35 1 2 32
M  V30 36 1 2 33
M  V30 37 1 3 34
M  V30 38 1 3 35
M  V30 39 1 4 36
M  V30 40 1 4 37
M  V30 41 1 6 38 CFG=1
M  V30 42 1 7 39
M  V30 43 1 7 40
M  V30 44 1 8 41
M  V30 45 1 8 42
M  V30 46 1 9 43 CFG=3
M  V30 47 1 10 44
M  V30 48 1 10 45
M  V30 49 1 11 46 CFG=1
M  V30 50 1 13 47
M  V30 51 1 15 48
M  V30 52 1 16 49
M  V30 53 1 19 50
M  V30 54 1 20 51
M  V30 55 1 22 52
M  V30 56 1 23 53
M  V30 57 1 26 54
M  V30 58 1 27 55
M  V30 59 1 28 56
M  V30 60 1 28 57
M  V30 END BOND
M  V30 END CTAB
M  END
>  <Dataset>  (419) 
ChEMBL_Kinases

>  <Ligand_Instance>  (419) 
nan

>  <PDB_ID>  (419) 
nan

>  <Standardized_SMILES>  (419) 
CCCCN1[C@@H]2CC[C@H]1C[C@@H](OC(c1ccc(F)cc1)c1ccc(F)cc1)C2

>  <Name>  (419) 
nan

>  <Pocket>  (419) 
nan

>  <ATP_Site>  (419) 
nan

>  <Peripheral>  (419) 
nan

>  <Num_H_Atoms_ProtBoundConf>  (419) 
nan

>  <Num_Resolved_Atoms>  (419) 
nan

>  <Num_Not_Resolved_Atoms>  (419) 
nan

$$$$
CHEMBL3217206
     RDKit          3D

  0  0  0  0  0  0  0  0  0  0999 V3000
M  V30 BEGIN CTAB
M  V30 COUNTS 52 54 0 0 0
M  V30 BEGIN ATOM
M  V30 1 C 3.643166 -3.855506 2.598092 0
M  V30 2 C 4.401687 -2.604738 2.867305 0
M  V30 3 C 5.460245 -2.508780 3.744504 0
M  V30 4 C 6.120292 -1.310671 3.945424 0
M  V30 5 C 7.262507 -1.204021 4.891030 0
M  V30 6 N 5.682785 -0.265954 3.253214 0
M  V30 7 C 4.655393 -0.306922 2.385982 0
M  V30 8 N 4.183784 0.817225 1.640438 0
M  V30 9 C 3.093197 0.701671 0.741712 0
M  V30 10 N 2.702926 -0.442780 0.301879 0
M  V30 11 N 2.393474 1.853094 0.295029 0
M  V30 12 C 0.973970 1.947429 0.233036 0
M  V30 13 C 0.083174 1.044136 0.762215 0
M  V30 14 C -1.283791 1.195040 0.653149 0
M  V30 15 C -1.826266 2.280284 -0.004125 0
M  V30 16 S -3.569082 2.399907 -0.099569 0
M  V30 17 O -3.953581 3.868692 -0.168519 0
M  V30 18 O -4.254001 1.814648 1.076948 0
M  V30 19 N -4.161310 1.603131 -1.532887 0
M  V30 20 C -4.485177 0.221567 -1.392558 0
M  V30 21 O -4.303386 -0.260999 -0.241972 0
M  V30 22 N -4.984718 -0.662075 -2.394958 0
M  V30 23 C -5.243479 -2.030165 -2.024388 0
M  V30 24 C -6.431625 -2.518178 -1.538612 0
M  V30 25 C -6.517681 -3.860140 -1.229231 0
M  V30 26 C -5.466831 -4.734110 -1.384892 0
M  V30 27 C -4.276730 -4.250276 -1.870427 0
M  V30 28 C -4.168494 -2.902691 -2.188143 0
M  V30 29 C -0.957351 3.205431 -0.546210 0
M  V30 30 C 0.404672 3.022590 -0.418311 0
M  V30 31 N 4.035669 -1.487856 2.214361 0
M  V30 32 H 4.324836 -4.698672 2.900900 0
M  V30 33 H 2.761674 -3.891574 3.275063 0
M  V30 34 H 3.320236 -3.928333 1.544473 0
M  V30 35 H 5.759334 -3.418443 4.277149 0
M  V30 36 H 8.178168 -1.616526 4.431580 0
M  V30 37 H 7.031982 -1.739827 5.832126 0
M  V30 38 H 7.431143 -0.123150 5.095745 0
M  V30 39 H 4.648136 1.768127 1.746217 0
M  V30 40 H 1.926271 -0.624559 -0.349852 0
M  V30 41 H 2.986914 2.683652 0.004306 0
M  V30 42 H 0.460208 0.193470 1.287357 0
M  V30 43 H -1.945087 0.438481 1.097138 0
M  V30 44 H -4.322464 1.987922 -2.510723 0
M  V30 45 H -5.120037 -0.222426 -3.330156 0
M  V30 46 H -7.223362 -1.789645 -1.436053 0
M  V30 47 H -7.466478 -4.206932 -0.850310 0
M  V30 48 H -5.577747 -5.779354 -1.129764 0
M  V30 49 H -3.466526 -4.942624 -1.986573 0
M  V30 50 H -3.202841 -2.577999 -2.567863 0
M  V30 51 H -1.406757 4.048297 -1.056902 0
M  V30 52 H 1.053301 3.774591 -0.859690 0
M  V30 END ATOM
M  V30 BEGIN BOND
M  V30 1 1 1 2
M  V30 2 2 2 3
M  V30 3 1 3 4
M  V30 4 1 4 5
M  V30 5 2 4 6
M  V30 6 1 6 7
M  V30 7 1 7 8
M  V30 8 1 8 9
M  V30 9 2 9 10 CFG=2
M  V30 10 1 9 11
M  V30 11 1 11 12
M  V30 12 2 12 13
M  V30 13 1 13 14
M  V30 14 2 14 15
M  V30 15 1 15 16
M  V30 16 2 16 17
M  V30 17 2 16 18
M  V30 18 1 16 19
M  V30 19 1 19 20
M  V30 20 2 20 21
M  V30 21 1 20 22
M  V30 22 1 22 23
M  V30 23 2 23 24
M  V30 24 1 24 25
M  V30 25 2 25 26
M  V30 26 1 26 27
M  V30 27 2 27 28
M  V30 28 1 15 29
M  V30 29 2 29 30
M  V30 30 2 7 31
M  V30 31 1 31 2
M  V30 32 1 30 12
M  V30 33 1 28 23
M  V30 34 1 1 32
M  V30 35 1 1 33
M  V30 36 1 1 34
M  V30 37 1 3 35
M  V30 38 1 5 36
M  V30 39 1 5 37
M  V30 40 1 5 38
M  V30 41 1 8 39
M  V30 42 1 10 40
M  V30 43 1 11 41
M  V30 44 1 13 42
M  V30 45 1 14 43
M  V30 46 1 19 44
M  V30 47 1 22 45
M  V30 48 1 24 46
M  V30 49 1 25 47
M  V30 50 1 26 48
M  V30 51 1 27 49
M  V30 52 1 28 50
M  V30 53 1 29 51
M  V30 54 1 30 52
M  V30 END BOND
M  V30 END CTAB
M  END
>  <Dataset>  (420) 
ChEMBL_Kinases

>  <Ligand_Instance>  (420) 
nan

>  <PDB_ID>  (420) 
nan

>  <Standardized_SMILES>  (420) 
Cc1cc(C)nc(NC(=N)Nc2ccc(S(=O)(=O)NC(=O)Nc3ccccc3)cc2)n1

>  <Name>  (420) 
nan

>  <Pocket>  (420) 
nan

>  <ATP_Site>  (420) 
nan

>  <Peripheral>  (420) 
nan

>  <Num_H_Atoms_ProtBoundConf>  (420) 
nan

>  <Num_Resolved_Atoms>  (420) 
nan

>  <Num_Not_Resolved_Atoms>  (420) 
nan

$$$$
CHEMBL3217793
     RDKit          3D

  0  0  0  0  0  0  0  0  0  0999 V3000
M  V30 BEGIN CTAB
M  V30 COUNTS 53 57 0 0 0
M  V30 BEGIN ATOM
M  V30 1 C 3.144447 -6.039405 4.170547 0
M  V30 2 O 1.818439 -5.755756 3.828969 0
M  V30 3 C 1.442707 -4.692284 3.025235 0
M  V30 4 C 2.506306 -3.934959 2.590172 0
M  V30 5 C 2.266783 -2.851112 1.782851 0
M  V30 6 O 3.052857 -1.968805 1.221160 0
M  V30 7 C 2.361745 -1.114314 0.521302 0
M  V30 8 N 2.677909 -0.050729 -0.233671 0
M  V30 9 C 1.734068 0.662047 -0.869733 0
M  V30 10 C 0.372335 0.340117 -0.783782 0
M  V30 11 O -0.499927 1.115249 -1.462677 0
M  V30 12 C -0.481838 2.203995 -2.266388 0
M  V30 13 C 0.028306 3.474972 -1.754100 0
M  V30 14 C 1.241584 4.126156 -1.810878 0
M  V30 15 C 1.471264 5.341622 -1.210423 0
M  V30 16 C 0.490151 5.989145 -0.508065 0
M  V30 17 C -0.741039 5.386692 -0.418423 0
M  V30 18 C -0.951851 4.170134 -1.025746 0
M  V30 19 C 0.026863 -0.777165 0.010954 0
M  V30 20 C -1.370353 -0.938221 -0.104721 0
M  V30 21 C -2.472847 -0.350601 0.527935 0
M  V30 22 C -3.770754 -0.653355 0.176642 0
M  V30 23 C -4.043336 -1.560061 -0.825548 0
M  V30 24 C -2.990501 -2.166087 -1.478333 0
M  V30 25 C -1.669743 -1.860900 -1.124440 0
M  V30 26 C 1.033640 -1.446299 0.625449 0
M  V30 27 C 0.982542 -2.538764 1.425012 0
M  V30 28 C -0.081541 -3.264598 1.842276 0
M  V30 29 O -1.421576 -3.209791 1.691489 0
M  V30 30 C -2.283666 -2.648874 2.687209 0
M  V30 31 C 0.132822 -4.378625 2.664541 0
M  V30 32 O -0.755478 -5.293688 3.229898 0
M  V30 33 H 3.802469 -6.236468 3.313792 0
M  V30 34 H 3.548241 -5.086632 4.624616 0
M  V30 35 H 3.182524 -6.839172 4.932330 0
M  V30 36 H 3.543197 -4.119665 2.831800 0
M  V30 37 H 2.189258 1.450625 -1.411374 0
M  V30 38 H 0.145764 1.964967 -3.189975 0
M  V30 39 H -1.513016 2.373020 -2.695149 0
M  V30 40 H 1.959368 3.562721 -2.387315 0
M  V30 41 H 2.486222 5.693743 -1.365201 0
M  V30 42 H 0.819334 6.931894 -0.094669 0
M  V30 43 H -1.482085 5.929360 0.141813 0
M  V30 44 H -1.984773 3.820256 -0.863571 0
M  V30 45 H -2.118236 0.337929 1.291546 0
M  V30 46 H -4.521365 -0.118464 0.755283 0
M  V30 47 H -5.095450 -1.720052 -1.016257 0
M  V30 48 H -3.261944 -2.867098 -2.253657 0
M  V30 49 H -0.963620 -2.429247 -1.740421 0
M  V30 50 H -1.959977 -1.651793 3.018798 0
M  V30 51 H -2.405479 -3.345229 3.542309 0
M  V30 52 H -3.282109 -2.565496 2.236661 0
M  V30 53 H -0.752573 -5.414918 4.251532 0
M  V30 END ATOM
M  V30 BEGIN BOND
M  V30 1 1 1 2
M  V30 2 1 2 3
M  V30 3 2 3 4
M  V30 4 1 4 5
M  V30 5 1 5 6
M  V30 6 1 6 7
M  V30 7 2 7 8
M  V30 8 1 8 9
M  V30 9 2 9 10
M  V30 10 1 10 11
M  V30 11 1 11 12
M  V30 12 1 12 13
M  V30 13 2 13 14
M  V30 14 1 14 15
M  V30 15 2 15 16
M  V30 16 1 16 17
M  V30 17 2 17 18
M  V30 18 1 10 19
M  V30 19 1 19 20
M  V30 20 2 20 21
M  V30 21 1 21 22
M  V30 22 2 22 23
M  V30 23 1 23 24
M  V30 24 2 24 25
M  V30 25 2 19 26
M  V30 26 1 26 27
M  V30 27 1 27 28
M  V30 28 1 28 29
M  V30 29 1 29 30
M  V30 30 2 28 31
M  V30 31 1 31 32
M  V30 32 1 31 3
M  V30 33 2 27 5
M  V30 34 1 26 7
M  V30 35 1 18 13
M  V30 36 1 25 20
M  V30 37 1 1 33
M  V30 38 1 1 34
M  V30 39 1 1 35
M  V30 40 1 4 36
M  V30 41 1 9 37
M  V30 42 1 12 38
M  V30 43 1 12 39
M  V30 44 1 14 40
M  V30 45 1 15 41
M  V30 46 1 16 42
M  V30 47 1 17 43
M  V30 48 1 18 44
M  V30 49 1 21 45
M  V30 50 1 22 46
M  V30 51 1 23 47
M  V30 52 1 24 48
M  V30 53 1 25 49
M  V30 54 1 30 50
M  V30 55 1 30 51
M  V30 56 1 30 52
M  V30 57 1 32 53
M  V30 END BOND
M  V30 END CTAB
M  END
>  <Dataset>  (421) 
ChEMBL_Kinases

>  <Ligand_Instance>  (421) 
nan

>  <PDB_ID>  (421) 
nan

>  <Standardized_SMILES>  (421) 
COc1cc2oc3ncc(OCc4ccccc4)c(-c4ccccc4)c3c2c(OC)c1O

>  <Name>  (421) 
nan

>  <Pocket>  (421) 
nan

>  <ATP_Site>  (421) 
nan

>  <Peripheral>  (421) 
nan

>  <Num_H_Atoms_ProtBoundConf>  (421) 
nan

>  <Num_Resolved_Atoms>  (421) 
nan

>  <Num_Not_Resolved_Atoms>  (421) 
nan

$$$$
CHEMBL3218020
     RDKit          3D

  0  0  0  0  0  0  0  0  0  0999 V3000
M  V30 BEGIN CTAB
M  V30 COUNTS 46 48 0 0 0
M  V30 BEGIN ATOM
M  V30 1 C 1.200588 -4.964108 0.249424 0
M  V30 2 C 2.103543 -4.295162 -0.766665 0
M  V30 3 C 1.861890 -5.028139 -2.078282 0
M  V30 4 O 1.887501 -2.927931 -0.871673 0
M  V30 5 C 2.802522 -1.936036 -0.591090 0
M  V30 6 C 4.099558 -2.050907 -0.155190 0
M  V30 7 C 4.936293 -0.987756 0.097376 0
M  V30 8 C 4.405497 0.277272 -0.111304 0
M  V30 9 C 3.086969 0.445448 -0.555416 0
M  V30 10 C 2.771279 1.890006 -0.695517 0
M  V30 11 N 2.249286 2.306395 0.615242 0
M  V30 12 C 0.938230 2.052924 1.075734 0
M  V30 13 O 0.075759 1.457102 0.412585 0
M  V30 14 N 0.672281 2.537706 2.377551 0
M  V30 15 C -0.706113 2.291017 2.860690 0
M  V30 16 N -1.687855 1.820330 2.443408 0
M  V30 17 C -2.841292 1.688718 3.064769 0
M  V30 18 C -4.016449 1.078242 2.436254 0
M  V30 19 C -4.025686 0.585963 1.145149 0
M  V30 20 C -5.124814 0.011617 0.542601 0
M  V30 21 N -6.292302 -0.091636 1.240378 0
M  V30 22 C -6.280657 0.386156 2.491079 0
M  V30 23 C -5.207203 0.960194 3.113692 0
M  V30 24 C -2.881157 2.171990 4.372478 0
M  V30 25 S -1.114513 2.808207 4.566592 0
M  V30 26 C 2.319141 -0.668358 -0.783953 0
M  V30 27 H 0.296289 -5.389345 -0.229748 0
M  V30 28 H 1.724608 -5.836194 0.729917 0
M  V30 29 H 0.855959 -4.214940 0.983444 0
M  V30 30 H 3.134919 -4.488446 -0.428545 0
M  V30 31 H 1.997639 -4.365526 -2.955723 0
M  V30 32 H 0.830197 -5.487900 -2.086182 0
M  V30 33 H 2.574055 -5.879370 -2.099552 0
M  V30 34 H 4.467565 -3.047760 -0.006617 0
M  V30 35 H 5.945019 -1.173764 0.438215 0
M  V30 36 H 5.130327 1.078441 0.109704 0
M  V30 37 H 3.610098 2.499582 -1.025391 0
M  V30 38 H 1.915997 1.930805 -1.431302 0
M  V30 39 H 2.968732 2.825526 1.190760 0
M  V30 40 H 1.361447 3.038962 2.970864 0
M  V30 41 H -3.109438 0.658544 0.576074 0
M  V30 42 H -5.113578 -0.367852 -0.467733 0
M  V30 43 H -7.210554 0.299503 3.034354 0
M  V30 44 H -5.312930 1.312194 4.128583 0
M  V30 45 H -3.742786 2.167199 5.083151 0
M  V30 46 H 1.332435 -0.425380 -1.122286 0
M  V30 END ATOM
M  V30 BEGIN BOND
M  V30 1 1 1 2
M  V30 2 1 2 3
M  V30 3 1 2 4
M  V30 4 1 4 5
M  V30 5 2 5 6
M  V30 6 1 6 7
M  V30 7 2 7 8
M  V30 8 1 8 9
M  V30 9 1 9 10
M  V30 10 1 10 11
M  V30 11 1 11 12
M  V30 12 2 12 13
M  V30 13 1 12 14
M  V30 14 1 14 15
M  V30 15 2 15 16
M  V30 16 1 16 17
M  V30 17 1 17 18
M  V30 18 2 18 19
M  V30 19 1 19 20
M  V30 20 2 20 21
M  V30 21 1 21 22
M  V30 22 2 22 23
M  V30 23 2 17 24
M  V30 24 1 24 25
M  V30 25 2 9 26
M  V30 26 1 26 5
M  V30 27 1 25 15
M  V30 28 1 23 18
M  V30 29 1 1 27
M  V30 30 1 1 28
M  V30 31 1 1 29
M  V30 32 1 2 30
M  V30 33 1 3 31
M  V30 34 1 3 32
M  V30 35 1 3 33
M  V30 36 1 6 34
M  V30 37 1 7 35
M  V30 38 1 8 36
M  V30 39 1 10 37
M  V30 40 1 10 38
M  V30 41 1 11 39
M  V30 42 1 14 40
M  V30 43 1 19 41
M  V30 44 1 20 42
M  V30 45 1 22 43
M  V30 46 1 23 44
M  V30 47 1 24 45
M  V30 48 1 26 46
M  V30 END BOND
M  V30 END CTAB
M  END
>  <Dataset>  (422) 
ChEMBL_Kinases

>  <Ligand_Instance>  (422) 
nan

>  <PDB_ID>  (422) 
nan

>  <Standardized_SMILES>  (422) 
CC(C)Oc1cccc(CNC(=O)Nc2nc(-c3ccncc3)cs2)c1

>  <Name>  (422) 
nan

>  <Pocket>  (422) 
nan

>  <ATP_Site>  (422) 
nan

>  <Peripheral>  (422) 
nan

>  <Num_H_Atoms_ProtBoundConf>  (422) 
nan

>  <Num_Resolved_Atoms>  (422) 
nan

>  <Num_Not_Resolved_Atoms>  (422) 
nan

$$$$
CHEMBL321823
     RDKit          3D

  0  0  0  0  0  0  0  0  0  0999 V3000
M  V30 BEGIN CTAB
M  V30 COUNTS 75 75 0 0 0
M  V30 BEGIN ATOM
M  V30 1 C 0.024926 -0.277989 2.968841 0
M  V30 2 C 0.540737 -1.580920 3.465064 0
M  V30 3 C 1.319058 -2.379932 2.435556 0
M  V30 4 C 2.482229 -1.536454 1.970798 0
M  V30 5 C 3.404213 -2.166579 1.024939 0
M  V30 6 C 3.010558 -2.648315 -0.283861 0
M  V30 7 C 2.469122 -1.802466 -1.356950 0
M  V30 8 C 3.330392 -0.643194 -1.788495 0
M  V30 9 C 3.390401 0.434174 -0.778304 0
M  V30 10 C 3.056596 1.680404 -1.188583 0
M  V30 11 C 2.635701 2.352424 -2.393543 0
M  V30 12 C 1.370854 3.054860 -2.577988 0
M  V30 13 C 0.929312 4.131888 -1.683762 0
M  V30 14 C 0.449248 3.797289 -0.314215 0
M  V30 15 C -0.852709 2.970048 -0.418468 0
M  V30 16 C -1.359703 2.646000 0.919745 0
M  V30 17 C -2.710882 1.904817 0.876724 0
M  V30 18 C -2.550769 0.689119 0.118407 0
M  V30 19 C -2.764650 -0.608579 0.349638 0
M  V30 20 C -2.610198 -1.892792 -0.411032 0
M  V30 21 C -3.592810 -2.760916 0.332242 0
M  V30 22 C -4.930013 -2.592223 -0.339868 0
M  V30 23 O -4.831650 -3.082996 -1.633039 0
M  V30 24 C -3.160441 -4.199062 0.281368 0
M  V30 25 O -1.858915 -4.367589 0.825086 0
M  V30 26 C -1.357524 -5.670009 0.824703 0
M  V30 27 C 0.005717 -5.917292 1.382964 0
M  V30 28 O -2.170966 -6.474866 0.328437 0
M  V30 29 O -3.611253 -2.286528 1.666105 0
M  V30 30 C -3.300361 -0.927008 1.693206 0
M  V30 31 O -3.482425 -0.215537 2.713528 0
M  V30 32 H 0.810258 0.506644 2.884342 0
M  V30 33 H -0.475076 -0.384012 1.986910 0
M  V30 34 H -0.712623 0.117257 3.699938 0
M  V30 35 H 1.164673 -1.421230 4.349625 0
M  V30 36 H -0.348677 -2.177727 3.801119 0
M  V30 37 H 0.657065 -2.736743 1.648511 0
M  V30 38 H 1.738597 -3.252610 2.974987 0
M  V30 39 H 3.071925 -1.326631 2.913459 0
M  V30 40 H 2.099945 -0.523495 1.690292 0
M  V30 41 H 3.808528 -3.115806 1.574259 0
M  V30 42 H 4.361461 -1.582725 0.954051 0
M  V30 43 H 2.375616 -3.605963 -0.192426 0
M  V30 44 H 3.964945 -3.119427 -0.737383 0
M  V30 45 H 1.456841 -1.390671 -1.168992 0
M  V30 46 H 2.351878 -2.452451 -2.268676 0
M  V30 47 H 4.348886 -0.989096 -2.089824 0
M  V30 48 H 2.874403 -0.253704 -2.711324 0
M  V30 49 H 3.651975 0.492430 0.265403 0
M  V30 50 H 3.090682 2.523710 -0.484164 0
M  V30 51 H 3.524451 3.063224 -2.680577 0
M  V30 52 H 2.679502 1.583792 -3.257359 0
M  V30 53 H 1.414894 3.502033 -3.641089 0
M  V30 54 H 0.569965 2.266673 -2.685575 0
M  V30 55 H 0.111637 4.719723 -2.170145 0
M  V30 56 H 1.760724 4.890251 -1.537040 0
M  V30 57 H 0.156279 4.787571 0.152739 0
M  V30 58 H 1.150583 3.360118 0.389151 0
M  V30 59 H -0.582145 2.103904 -1.048674 0
M  V30 60 H -1.596174 3.556389 -0.990071 0
M  V30 61 H -0.692450 2.120778 1.590073 0
M  V30 62 H -1.608415 3.617802 1.438372 0
M  V30 63 H -2.995868 1.871247 1.915466 0
M  V30 64 H -3.362389 2.620455 0.281894 0
M  V30 65 H -2.161469 0.850993 -0.896092 0
M  V30 66 H -2.814306 -1.773515 -1.479281 0
M  V30 67 H -1.593014 -2.301242 -0.283781 0
M  V30 68 H -5.717337 -3.152738 0.189769 0
M  V30 69 H -5.171511 -1.509479 -0.432272 0
M  V30 70 H -5.582925 -2.825133 -2.214047 0
M  V30 71 H -3.853976 -4.836010 0.866452 0
M  V30 72 H -3.116130 -4.564098 -0.746391 0
M  V30 73 H 0.142702 -5.323910 2.337671 0
M  V30 74 H 0.808090 -5.653566 0.673479 0
M  V30 75 H 0.120302 -6.993904 1.628823 0
M  V30 END ATOM
M  V30 BEGIN BOND
M  V30 1 1 1 2
M  V30 2 1 2 3
M  V30 3 1 3 4
M  V30 4 1 4 5
M  V30 5 1 5 6
M  V30 6 1 6 7
M  V30 7 1 7 8
M  V30 8 1 8 9
M  V30 9 2 9 10
M  V30 10 1 10 11
M  V30 11 1 11 12
M  V30 12 1 12 13
M  V30 13 1 13 14
M  V30 14 1 14 15
M  V30 15 1 15 16
M  V30 16 1 16 17
M  V30 17 1 17 18
M  V30 18 2 18 19
M  V30 19 1 19 20
M  V30 20 1 20 21
M  V30 21 1 21 22
M  V30 22 1 22 23
M  V30 23 1 21 24
M  V30 24 1 24 25
M  V30 25 1 25 26
M  V30 26 1 26 27
M  V30 27 2 26 28
M  V30 28 1 21 29
M  V30 29 1 29 30
M  V30 30 2 30 31
M  V30 31 1 30 19
M  V30 32 1 1 32
M  V30 33 1 1 33
M  V30 34 1 1 34
M  V30 35 1 2 35
M  V30 36 1 2 36
M  V30 37 1 3 37
M  V30 38 1 3 38
M  V30 39 1 4 39
M  V30 40 1 4 40
M  V30 41 1 5 41
M  V30 42 1 5 42
M  V30 43 1 6 43
M  V30 44 1 6 44
M  V30 45 1 7 45
M  V30 46 1 7 46
M  V30 47 1 8 47
M  V30 48 1 8 48
M  V30 49 1 9 49
M  V30 50 1 10 50
M  V30 51 1 11 51
M  V30 52 1 11 52
M  V30 53 1 12 53
M  V30 54 1 12 54
M  V30 55 1 13 55
M  V30 56 1 13 56
M  V30 57 1 14 57
M  V30 58 1 14 58
M  V30 59 1 15 59
M  V30 60 1 15 60
M  V30 61 1 16 61
M  V30 62 1 16 62
M  V30 63 1 17 63
M  V30 64 1 17 64
M  V30 65 1 18 65
M  V30 66 1 20 66
M  V30 67 1 20 67
M  V30 68 1 22 68
M  V30 69 1 22 69
M  V30 70 1 23 70
M  V30 71 1 24 71
M  V30 72 1 24 72
M  V30 73 1 27 73
M  V30 74 1 27 74
M  V30 75 1 27 75
M  V30 END BOND
M  V30 END CTAB
M  END
>  <Dataset>  (423) 
ChEMBL_Kinases

>  <Ligand_Instance>  (423) 
nan

>  <PDB_ID>  (423) 
nan

>  <Standardized_SMILES>  (423) 
CCCCCCCC/C=C\CCCCCCC/C=C1/CC(CO)(COC(C)=O)OC1=O

>  <Name>  (423) 
nan

>  <Pocket>  (423) 
nan

>  <ATP_Site>  (423) 
nan

>  <Peripheral>  (423) 
nan

>  <Num_H_Atoms_ProtBoundConf>  (423) 
nan

>  <Num_Resolved_Atoms>  (423) 
nan

>  <Num_Not_Resolved_Atoms>  (423) 
nan

$$$$
CHEMBL3218959
     RDKit          3D

  0  0  0  0  0  0  0  0  0  0999 V3000
M  V30 BEGIN CTAB
M  V30 COUNTS 50 54 0 0 0
M  V30 BEGIN ATOM
M  V30 1 O 2.175465 -0.298927 1.801964 0
M  V30 2 C 2.769024 0.626584 1.237248 0
M  V30 3 C 3.968616 1.129532 1.946767 0
M  V30 4 C 4.166879 0.366031 3.206589 0
M  V30 5 C 4.948287 -0.782506 3.169389 0
M  V30 6 C 5.236834 -1.609609 4.238131 0
M  V30 7 C 4.685281 -1.238698 5.445681 0
M  V30 8 F 4.930326 -2.011213 6.541415 0
M  V30 9 C 3.896790 -0.098428 5.533273 0
M  V30 10 C 3.631666 0.699371 4.449651 0
M  V30 11 N 2.300790 1.132199 0.010106 0
M  V30 12 C 1.177438 0.725886 -0.742218 0
M  V30 13 C 0.279090 -0.264633 -0.437134 0
M  V30 14 C -0.802747 -0.620596 -1.212954 0
M  V30 15 C -1.695681 -1.713554 -0.762295 0
M  V30 16 C -3.029086 -1.474586 -0.521883 0
M  V30 17 C -3.763019 -0.221980 -0.650756 0
M  V30 18 C -4.784385 -0.340687 -1.597412 0
M  V30 19 C -5.622256 0.728246 -1.892832 0
M  V30 20 C -5.418842 1.906701 -1.227870 0
M  V30 21 F -6.173102 3.012252 -1.434769 0
M  V30 22 C -4.407505 2.042579 -0.282935 0
M  V30 23 C -3.588283 0.981488 -0.000638 0
M  V30 24 N -3.484295 -2.663061 -0.144598 0
M  V30 25 C -2.510929 -3.584871 -0.146438 0
M  V30 26 N -1.353513 -3.021570 -0.534340 0
M  V30 27 C -0.150564 -3.819947 -0.620082 0
M  V30 28 C -0.259230 -4.878841 0.469511 0
M  V30 29 S -2.023696 -5.309387 0.149604 0
M  V30 30 C -1.032392 0.049685 -2.396407 0
M  V30 31 C -0.120180 1.041580 -2.687184 0
M  V30 32 N 0.921441 1.353320 -1.897951 0
M  V30 33 H 4.894658 0.995731 1.343472 0
M  V30 34 H 3.914502 2.210582 2.196849 0
M  V30 35 H 5.384318 -1.071681 2.204116 0
M  V30 36 H 5.853874 -2.480835 4.112804 0
M  V30 37 H 3.462844 0.187223 6.500340 0
M  V30 38 H 3.027805 1.595669 4.455231 0
M  V30 39 H 2.901958 1.908072 -0.343004 0
M  V30 40 H 0.411091 -0.817747 0.472778 0
M  V30 41 H -5.026431 -1.241076 -2.181622 0
M  V30 42 H -6.424857 0.658591 -2.627061 0
M  V30 43 H -4.206261 2.952557 0.269122 0
M  V30 44 H -2.760632 0.937510 0.708717 0
M  V30 45 H 0.740104 -3.206514 -0.515086 0
M  V30 46 H -0.209523 -4.362907 -1.588297 0
M  V30 47 H -0.249070 -4.450238 1.478922 0
M  V30 48 H 0.390652 -5.727767 0.290358 0
M  V30 49 H -1.860506 -0.196638 -3.025949 0
M  V30 50 H -0.211230 1.625670 -3.591058 0
M  V30 END ATOM
M  V30 BEGIN BOND
M  V30 1 2 1 2
M  V30 2 1 2 3
M  V30 3 1 3 4
M  V30 4 2 4 5
M  V30 5 1 5 6
M  V30 6 2 6 7
M  V30 7 1 7 8
M  V30 8 1 7 9
M  V30 9 2 9 10
M  V30 10 1 2 11
M  V30 11 1 11 12
M  V30 12 2 12 13
M  V30 13 1 13 14
M  V30 14 1 14 15
M  V30 15 2 15 16
M  V30 16 1 16 17
M  V30 17 2 17 18
M  V30 18 1 18 19
M  V30 19 2 19 20
M  V30 20 1 20 21
M  V30 21 1 20 22
M  V30 22 2 22 23
M  V30 23 1 16 24
M  V30 24 2 24 25
M  V30 25 1 25 26
M  V30 26 1 26 27
M  V30 27 1 27 28
M  V30 28 1 28 29
M  V30 29 2 14 30
M  V30 30 1 30 31
M  V30 31 2 31 32
M  V30 32 1 10 4
M  V30 33 1 32 12
M  V30 34 1 26 15
M  V30 35 1 23 17
M  V30 36 1 29 25
M  V30 37 1 3 33
M  V30 38 1 3 34
M  V30 39 1 5 35
M  V30 40 1 6 36
M  V30 41 1 9 37
M  V30 42 1 10 38
M  V30 43 1 11 39
M  V30 44 1 13 40
M  V30 45 1 18 41
M  V30 46 1 19 42
M  V30 47 1 22 43
M  V30 48 1 23 44
M  V30 49 1 27 45
M  V30 50 1 27 46
M  V30 51 1 28 47
M  V30 52 1 28 48
M  V30 53 1 30 49
M  V30 54 1 31 50
M  V30 END BOND
M  V30 END CTAB
M  END
>  <Dataset>  (424) 
ChEMBL_Kinases

>  <Ligand_Instance>  (424) 
nan

>  <PDB_ID>  (424) 
nan

>  <Standardized_SMILES>  (424) 
O=C(Cc1ccc(F)cc1)Nc1cc(-c2c(-c3ccc(F)cc3)nc3n2CCS3)ccn1

>  <Name>  (424) 
nan

>  <Pocket>  (424) 
nan

>  <ATP_Site>  (424) 
nan

>  <Peripheral>  (424) 
nan

>  <Num_H_Atoms_ProtBoundConf>  (424) 
nan

>  <Num_Resolved_Atoms>  (424) 
nan

>  <Num_Not_Resolved_Atoms>  (424) 
nan

$$$$
CHEMBL3218291
     RDKit          3D

  0  0  0  0  0  0  0  0  0  0999 V3000
M  V30 BEGIN CTAB
M  V30 COUNTS 39 41 0 0 0
M  V30 BEGIN ATOM
M  V30 1 C -1.562235 -4.073384 1.341175 0
M  V30 2 C -1.358869 -2.617869 1.669193 0 CFG=2
M  V30 3 N 0.058440 -2.354537 1.919070 0
M  V30 4 C 0.784004 -1.412669 1.114898 0
M  V30 5 O 0.190341 -0.807746 0.184478 0
M  V30 6 N 2.138869 -1.252414 1.459074 0
M  V30 7 C 2.813872 -0.270323 0.588887 0
M  V30 8 N 2.422770 0.388818 -0.323599 0
M  V30 9 C 3.184939 1.240094 -1.009428 0
M  V30 10 C 2.619038 2.016066 -2.124616 0
M  V30 11 C 1.314499 1.947909 -2.553175 0
M  V30 12 C 0.844182 2.701160 -3.605079 0
M  V30 13 N 1.645974 3.545929 -4.267993 0
M  V30 14 C 2.930335 3.664257 -3.905183 0
M  V30 15 C 3.384345 2.903564 -2.851018 0
M  V30 16 C 4.505094 1.354618 -0.628331 0
M  V30 17 S 4.562289 0.138772 0.796620 0
M  V30 18 C -2.083761 -2.212728 2.901950 0
M  V30 19 C -3.255779 -1.460474 2.758464 0
M  V30 20 C -3.966979 -1.058100 3.861741 0
M  V30 21 C -3.544260 -1.385163 5.139381 0
M  V30 22 C -2.380786 -2.132307 5.289994 0
M  V30 23 F -1.986125 -2.440945 6.554361 0
M  V30 24 C -1.664888 -2.537138 4.175094 0
M  V30 25 H -1.682551 -4.692620 2.276927 0
M  V30 26 H -2.497018 -4.158297 0.747936 0
M  V30 27 H -0.722249 -4.481052 0.742710 0
M  V30 28 H -1.671186 -1.997297 0.830254 0
M  V30 29 H 0.524104 -2.885150 2.713920 0
M  V30 30 H 2.701649 -1.710395 2.207681 0
M  V30 31 H 0.647125 1.270062 -2.030562 0
M  V30 32 H -0.210548 2.585575 -3.881772 0
M  V30 33 H 3.569199 4.345819 -4.443200 0
M  V30 34 H 4.429022 3.051127 -2.615171 0
M  V30 35 H 5.248423 1.999988 -1.083913 0
M  V30 36 H -3.612912 -1.187773 1.759169 0
M  V30 37 H -4.875992 -0.473408 3.724642 0
M  V30 38 H -4.104035 -1.068760 6.013524 0
M  V30 39 H -0.751375 -3.124013 4.298009 0
M  V30 END ATOM
M  V30 BEGIN BOND
M  V30 1 1 1 2
M  V30 2 1 2 3
M  V30 3 1 3 4
M  V30 4 2 4 5
M  V30 5 1 4 6
M  V30 6 1 6 7
M  V30 7 2 7 8
M  V30 8 1 8 9
M  V30 9 1 9 10
M  V30 10 2 10 11
M  V30 11 1 11 12
M  V30 12 2 12 13
M  V30 13 1 13 14
M  V30 14 2 14 15
M  V30 15 2 9 16
M  V30 16 1 16 17
M  V30 17 1 2 18
M  V30 18 2 18 19
M  V30 19 1 19 20
M  V30 20 2 20 21
M  V30 21 1 21 22
M  V30 22 1 22 23
M  V30 23 2 22 24
M  V30 24 1 17 7
M  V30 25 1 24 18
M  V30 26 1 15 10
M  V30 27 1 1 25
M  V30 28 1 1 26
M  V30 29 1 1 27
M  V30 30 1 2 28 CFG=3
M  V30 31 1 3 29
M  V30 32 1 6 30
M  V30 33 1 11 31
M  V30 34 1 12 32
M  V30 35 1 14 33
M  V30 36 1 15 34
M  V30 37 1 16 35
M  V30 38 1 19 36
M  V30 39 1 20 37
M  V30 40 1 21 38
M  V30 41 1 24 39
M  V30 END BOND
M  V30 END CTAB
M  END
>  <Dataset>  (425) 
ChEMBL_Kinases

>  <Ligand_Instance>  (425) 
nan

>  <PDB_ID>  (425) 
nan

>  <Standardized_SMILES>  (425) 
C[C@H](NC(=O)Nc1nc(-c2ccncc2)cs1)c1cccc(F)c1

>  <Name>  (425) 
nan

>  <Pocket>  (425) 
nan

>  <ATP_Site>  (425) 
nan

>  <Peripheral>  (425) 
nan

>  <Num_H_Atoms_ProtBoundConf>  (425) 
nan

>  <Num_Resolved_Atoms>  (425) 
nan

>  <Num_Not_Resolved_Atoms>  (425) 
nan

$$$$
CHEMBL3218296
     RDKit          3D

  0  0  0  0  0  0  0  0  0  0999 V3000
M  V30 BEGIN CTAB
M  V30 COUNTS 39 41 0 0 0
M  V30 BEGIN ATOM
M  V30 1 C 0.856377 -4.635422 2.798973 0
M  V30 2 C 0.083882 -3.412949 2.412702 0
M  V30 3 N 0.547739 -2.771269 1.202868 0
M  V30 4 C 1.079203 -1.441268 1.053962 0
M  V30 5 O 1.156389 -0.733121 2.103619 0
M  V30 6 N 1.455118 -1.073968 -0.244091 0
M  V30 7 C 2.000298 0.293249 -0.390594 0
M  V30 8 N 1.653957 1.386598 -0.604110 0
M  V30 9 C 2.358610 2.478132 -0.687919 0
M  V30 10 C 1.819834 3.796677 -0.960487 0
M  V30 11 C 0.481620 4.038156 -1.163058 0
M  V30 12 C -0.039471 5.300645 -1.424812 0
M  V30 13 N 0.807249 6.331095 -1.481819 0
M  V30 14 C 2.130088 6.180657 -1.295376 0
M  V30 15 C 2.615594 4.914629 -1.037458 0
M  V30 16 C 3.766599 2.250439 -0.478937 0
M  V30 17 S 3.795968 0.377071 -0.182553 0
M  V30 18 C -1.377849 -3.652432 2.296058 0
M  V30 19 C -1.908794 -4.172692 1.127369 0
M  V30 20 C -3.284406 -4.375430 1.076260 0
M  V30 21 C -4.148428 -4.090216 2.116548 0
M  V30 22 C -3.586104 -3.573525 3.265109 0
M  V30 23 F -4.376525 -3.270923 4.325093 0
M  V30 24 C -2.240619 -3.366892 3.336728 0
M  V30 25 H 0.247257 -5.187732 3.544578 0
M  V30 26 H 1.109244 -5.286984 1.943392 0
M  V30 27 H 1.794662 -4.308126 3.276214 0
M  V30 28 H 0.211587 -2.672980 3.249391 0
M  V30 29 H 0.455920 -3.416865 0.363471 0
M  V30 30 H 1.359482 -1.716885 -1.056939 0
M  V30 31 H -0.203547 3.196838 -1.115747 0
M  V30 32 H -1.109615 5.373724 -1.568045 0
M  V30 33 H 2.773341 7.033889 -1.349716 0
M  V30 34 H 3.682547 4.858629 -0.897338 0
M  V30 35 H 4.645043 3.139807 -0.509768 0
M  V30 36 H -1.318997 -4.419435 0.282031 0
M  V30 37 H -3.689586 -4.784068 0.154339 0
M  V30 38 H -5.211108 -4.266319 2.026364 0
M  V30 39 H -1.805596 -2.961540 4.239814 0
M  V30 END ATOM
M  V30 BEGIN BOND
M  V30 1 1 1 2
M  V30 2 1 2 3
M  V30 3 1 3 4
M  V30 4 2 4 5
M  V30 5 1 4 6
M  V30 6 1 6 7
M  V30 7 2 7 8
M  V30 8 1 8 9
M  V30 9 1 9 10
M  V30 10 2 10 11
M  V30 11 1 11 12
M  V30 12 2 12 13
M  V30 13 1 13 14
M  V30 14 2 14 15
M  V30 15 2 9 16
M  V30 16 1 16 17
M  V30 17 1 2 18
M  V30 18 2 18 19
M  V30 19 1 19 20
M  V30 20 2 20 21
M  V30 21 1 21 22
M  V30 22 1 22 23
M  V30 23 2 22 24
M  V30 24 1 17 7
M  V30 25 1 24 18
M  V30 26 1 15 10
M  V30 27 1 1 25
M  V30 28 1 1 26
M  V30 29 1 1 27
M  V30 30 1 2 28
M  V30 31 1 3 29
M  V30 32 1 6 30
M  V30 33 1 11 31
M  V30 34 1 12 32
M  V30 35 1 14 33
M  V30 36 1 15 34
M  V30 37 1 16 35
M  V30 38 1 19 36
M  V30 39 1 20 37
M  V30 40 1 21 38
M  V30 41 1 24 39
M  V30 END BOND
M  V30 END CTAB
M  END
>  <Dataset>  (426) 
ChEMBL_Kinases

>  <Ligand_Instance>  (426) 
nan

>  <PDB_ID>  (426) 
nan

>  <Standardized_SMILES>  (426) 
CC(NC(=O)Nc1nc(-c2ccncc2)cs1)c1cccc(F)c1

>  <Name>  (426) 
nan

>  <Pocket>  (426) 
nan

>  <ATP_Site>  (426) 
nan

>  <Peripheral>  (426) 
nan

>  <Num_H_Atoms_ProtBoundConf>  (426) 
nan

>  <Num_Resolved_Atoms>  (426) 
nan

>  <Num_Not_Resolved_Atoms>  (426) 
nan

$$$$
CHEMBL3218299
     RDKit          3D

  0  0  0  0  0  0  0  0  0  0999 V3000
M  V30 BEGIN CTAB
M  V30 COUNTS 39 41 0 0 0
M  V30 BEGIN ATOM
M  V30 1 O 0.584828 -1.749546 2.339362 0
M  V30 2 C 1.406449 -0.969920 1.782632 0
M  V30 3 N 2.339938 -1.512383 0.864912 0
M  V30 4 C 2.200128 -2.948359 0.699434 0
M  V30 5 C 3.208428 -3.519047 -0.289000 0
M  V30 6 C 3.062766 -2.924434 -1.627300 0
M  V30 7 C 3.695247 -1.802570 -2.113790 0
M  V30 8 C 3.496875 -1.315408 -3.385933 0
M  V30 9 C 2.613716 -2.003398 -4.198443 0
M  V30 10 C 1.951447 -3.126526 -3.776690 0
M  V30 11 C 2.183901 -3.571306 -2.500055 0
M  V30 12 N 1.358372 0.411186 2.100081 0
M  V30 13 C 0.316758 0.851391 3.091187 0
M  V30 14 N -0.769888 1.189790 2.803768 0
M  V30 15 C -1.723316 1.586259 3.640061 0
M  V30 16 C -3.057454 1.994362 3.206737 0
M  V30 17 C -3.468099 2.011701 1.890030 0
M  V30 18 C -4.728148 2.397902 1.488538 0
M  V30 19 N -5.638677 2.786722 2.397749 0
M  V30 20 C -5.306936 2.794147 3.695672 0
M  V30 21 C -4.041184 2.404571 4.081192 0
M  V30 22 C -1.381292 1.595828 4.999679 0
M  V30 23 S 0.414380 0.983943 4.898605 0
M  V30 24 H 2.981937 -0.802295 0.450226 0
M  V30 25 H 2.188440 -3.494314 1.642111 0
M  V30 26 H 1.201558 -3.142605 0.226432 0
M  V30 27 H 3.033665 -4.599147 -0.326807 0
M  V30 28 H 4.249537 -3.326555 0.039598 0
M  V30 29 H 4.370450 -1.310051 -1.437080 0
M  V30 30 H 4.038319 -0.422348 -3.687958 0
M  V30 31 H 2.485648 -1.588323 -5.190472 0
M  V30 32 H 1.264433 -3.632820 -4.457890 0
M  V30 33 H 1.635300 -4.464109 -2.214459 0
M  V30 34 H 2.026902 1.070085 1.651971 0
M  V30 35 H -2.751738 1.700415 1.115853 0
M  V30 36 H -5.000537 2.393582 0.442178 0
M  V30 37 H -6.028485 3.104513 4.440671 0
M  V30 38 H -3.833925 2.432274 5.144165 0
M  V30 39 H -1.992779 1.875988 5.819147 0
M  V30 END ATOM
M  V30 BEGIN BOND
M  V30 1 2 1 2
M  V30 2 1 2 3
M  V30 3 1 3 4
M  V30 4 1 4 5
M  V30 5 1 5 6
M  V30 6 2 6 7
M  V30 7 1 7 8
M  V30 8 2 8 9
M  V30 9 1 9 10
M  V30 10 2 10 11
M  V30 11 1 2 12
M  V30 12 1 12 13
M  V30 13 2 13 14
M  V30 14 1 14 15
M  V30 15 1 15 16
M  V30 16 2 16 17
M  V30 17 1 17 18
M  V30 18 2 18 19
M  V30 19 1 19 20
M  V30 20 2 20 21
M  V30 21 2 15 22
M  V30 22 1 22 23
M  V30 23 1 11 6
M  V30 24 1 23 13
M  V30 25 1 21 16
M  V30 26 1 3 24
M  V30 27 1 4 25
M  V30 28 1 4 26
M  V30 29 1 5 27
M  V30 30 1 5 28
M  V30 31 1 7 29
M  V30 32 1 8 30
M  V30 33 1 9 31
M  V30 34 1 10 32
M  V30 35 1 11 33
M  V30 36 1 12 34
M  V30 37 1 17 35
M  V30 38 1 18 36
M  V30 39 1 20 37
M  V30 40 1 21 38
M  V30 41 1 22 39
M  V30 END BOND
M  V30 END CTAB
M  END
>  <Dataset>  (427) 
ChEMBL_Kinases

>  <Ligand_Instance>  (427) 
nan

>  <PDB_ID>  (427) 
nan

>  <Standardized_SMILES>  (427) 
O=C(NCCc1ccccc1)Nc1nc(-c2ccncc2)cs1

>  <Name>  (427) 
nan

>  <Pocket>  (427) 
nan

>  <ATP_Site>  (427) 
nan

>  <Peripheral>  (427) 
nan

>  <Num_H_Atoms_ProtBoundConf>  (427) 
nan

>  <Num_Resolved_Atoms>  (427) 
nan

>  <Num_Not_Resolved_Atoms>  (427) 
nan

$$$$
CHEMBL3218362
     RDKit          3D

  0  0  0  0  0  0  0  0  0  0999 V3000
M  V30 BEGIN CTAB
M  V30 COUNTS 52 55 0 0 0
M  V30 BEGIN ATOM
M  V30 1 C 4.264457 -2.352540 4.083589 0
M  V30 2 C 4.850124 -1.498327 2.982631 0
M  V30 3 O 5.528181 -2.342046 2.107631 0
M  V30 4 C 3.744270 -0.743580 2.263621 0
M  V30 5 N 3.214501 0.229855 2.084119 0
M  V30 6 C 2.191279 0.501510 1.301148 0
M  V30 7 C 1.600999 1.854798 1.170264 0
M  V30 8 C 0.326712 2.216745 1.500649 0
M  V30 9 C -0.087678 3.522659 1.322495 0
M  V30 10 C 0.761920 4.500939 0.809079 0
M  V30 11 C 2.067384 4.175226 0.459842 0
M  V30 12 C 3.056023 5.143468 -0.097090 0
M  V30 13 O 3.004095 5.186464 -1.498188 0
M  V30 14 C 2.417960 2.869894 0.658719 0
M  V30 15 C 1.671280 -0.486112 0.597888 0
M  V30 16 C 0.592999 -0.687649 -0.355816 0
M  V30 17 C 0.508295 -0.057257 -1.582132 0
M  V30 18 C -0.528869 -0.269465 -2.473298 0
M  V30 19 N -1.486352 -1.148368 -2.080103 0
M  V30 20 C -1.453477 -1.791664 -0.894493 0
M  V30 21 N -2.536910 -2.678065 -0.646326 0
M  V30 22 C -3.808513 -2.570136 -0.053101 0
M  V30 23 O -4.244731 -1.513502 0.419071 0
M  V30 24 C -4.646872 -3.754755 0.007067 0
M  V30 25 C -5.880783 -3.619260 0.602341 0
M  V30 26 C -6.754273 -4.706281 0.703122 0
M  V30 27 C -6.399451 -5.946375 0.206287 0
M  V30 28 C -5.151480 -6.098642 -0.399913 0
M  V30 29 C -4.320310 -5.002797 -0.479093 0
M  V30 30 C -0.412845 -1.571758 -0.012333 0
M  V30 31 S 2.739755 -1.877409 1.114906 0
M  V30 32 H 4.999475 -2.565497 4.870533 0
M  V30 33 H 3.818556 -3.283071 3.676124 0
M  V30 34 H 3.416256 -1.783780 4.532146 0
M  V30 35 H 5.565388 -0.762200 3.334746 0
M  V30 36 H 4.941631 -2.666404 1.372161 0
M  V30 37 H -0.303793 1.431869 1.895722 0
M  V30 38 H -1.105421 3.799899 1.588915 0
M  V30 39 H 0.444691 5.527590 0.665909 0
M  V30 40 H 2.869289 6.180588 0.250467 0
M  V30 41 H 4.051442 4.818338 0.208006 0
M  V30 42 H 3.483013 4.404245 -1.895377 0
M  V30 43 H 3.436925 2.597617 0.390412 0
M  V30 44 H 1.295997 0.640164 -1.860138 0
M  V30 45 H -0.600468 0.215629 -3.424272 0
M  V30 46 H -2.106271 -3.533240 -1.062500 0
M  V30 47 H -6.234182 -2.699549 1.011714 0
M  V30 48 H -7.720036 -4.616954 1.164515 0
M  V30 49 H -7.079548 -6.799669 0.282797 0
M  V30 50 H -4.822242 -7.053416 -0.807673 0
M  V30 51 H -3.366675 -5.120954 -0.943068 0
M  V30 52 H -0.447380 -2.113320 0.909966 0
M  V30 END ATOM
M  V30 BEGIN BOND
M  V30 1 1 1 2
M  V30 2 1 2 3
M  V30 3 1 2 4
M  V30 4 2 4 5
M  V30 5 1 5 6
M  V30 6 1 6 7
M  V30 7 2 7 8
M  V30 8 1 8 9
M  V30 9 2 9 10
M  V30 10 1 10 11
M  V30 11 1 11 12
M  V30 12 1 12 13
M  V30 13 2 11 14
M  V30 14 2 6 15
M  V30 15 1 15 16
M  V30 16 2 16 17
M  V30 17 1 17 18
M  V30 18 2 18 19
M  V30 19 1 19 20
M  V30 20 1 20 21
M  V30 21 1 21 22
M  V30 22 2 22 23
M  V30 23 1 22 24
M  V30 24 2 24 25
M  V30 25 1 25 26
M  V30 26 2 26 27
M  V30 27 1 27 28
M  V30 28 2 28 29
M  V30 29 2 20 30
M  V30 30 1 15 31
M  V30 31 1 31 4
M  V30 32 1 14 7
M  V30 33 1 30 16
M  V30 34 1 29 24
M  V30 35 1 1 32
M  V30 36 1 1 33
M  V30 37 1 1 34
M  V30 38 1 2 35
M  V30 39 1 3 36
M  V30 40 1 8 37
M  V30 41 1 9 38
M  V30 42 1 10 39
M  V30 43 1 12 40
M  V30 44 1 12 41
M  V30 45 1 13 42
M  V30 46 1 14 43
M  V30 47 1 17 44
M  V30 48 1 18 45
M  V30 49 1 21 46
M  V30 50 1 25 47
M  V30 51 1 26 48
M  V30 52 1 27 49
M  V30 53 1 28 50
M  V30 54 1 29 51
M  V30 55 1 30 52
M  V30 END BOND
M  V30 END CTAB
M  END
>  <Dataset>  (428) 
ChEMBL_Kinases

>  <Ligand_Instance>  (428) 
nan

>  <PDB_ID>  (428) 
nan

>  <Standardized_SMILES>  (428) 
CC(O)c1nc(-c2cccc(CO)c2)c(-c2ccnc(NC(=O)c3ccccc3)c2)s1

>  <Name>  (428) 
nan

>  <Pocket>  (428) 
nan

>  <ATP_Site>  (428) 
nan

>  <Peripheral>  (428) 
nan

>  <Num_H_Atoms_ProtBoundConf>  (428) 
nan

>  <Num_Resolved_Atoms>  (428) 
nan

>  <Num_Not_Resolved_Atoms>  (428) 
nan

$$$$
CHEMBL3218363
     RDKit          3D

  0  0  0  0  0  0  0  0  0  0999 V3000
M  V30 BEGIN CTAB
M  V30 COUNTS 51 54 0 0 0
M  V30 BEGIN ATOM
M  V30 1 C 1.681876 2.089871 -4.733096 0
M  V30 2 C 1.890442 0.682910 -4.243143 0
M  V30 3 C 1.695218 0.547499 -2.766275 0
M  V30 4 N 2.347958 0.624655 -1.818494 0
M  V30 5 C 1.962379 0.460078 -0.548956 0
M  V30 6 C 2.853623 0.573764 0.625184 0
M  V30 7 C 3.162599 -0.420867 1.526954 0
M  V30 8 C 4.016762 -0.142579 2.570887 0
M  V30 9 C 4.573766 1.106665 2.740759 0
M  V30 10 C 4.273660 2.122187 1.841284 0
M  V30 11 C 4.905818 3.435385 2.083094 0
M  V30 12 O 4.094368 4.237536 2.910483 0
M  V30 13 C 3.417276 1.817263 0.807028 0
M  V30 14 C 0.659671 0.169639 -0.343555 0
M  V30 15 C -0.131839 -0.080619 0.896383 0
M  V30 16 C -0.320810 0.844791 1.897258 0
M  V30 17 C -1.086477 0.439721 2.977519 0
M  V30 18 N -1.609817 -0.800473 3.026131 0
M  V30 19 C -1.416549 -1.689668 2.043427 0
M  V30 20 N -2.045599 -2.973721 2.245783 0
M  V30 21 C -3.356505 -2.871187 1.667854 0
M  V30 22 O -3.553147 -1.710742 1.169452 0
M  V30 23 C -4.333177 -3.985313 1.665590 0
M  V30 24 C -4.148956 -5.244142 2.189938 0
M  V30 25 C -5.183977 -6.154773 2.091618 0
M  V30 26 C -6.382954 -5.836093 1.487730 0
M  V30 27 C -6.568649 -4.568186 0.959635 0
M  V30 28 C -5.535986 -3.650482 1.054465 0
M  V30 29 C -0.660929 -1.338480 0.942834 0
M  V30 30 S -0.026790 0.138760 -2.108657 0
M  V30 31 H 0.665803 2.199908 -5.147504 0
M  V30 32 H 2.394809 2.256637 -5.570540 0
M  V30 33 H 1.884304 2.863349 -3.963267 0
M  V30 34 H 2.906943 0.344647 -4.444192 0
M  V30 35 H 1.140804 0.022380 -4.751925 0
M  V30 36 H 2.691457 -1.375549 1.334542 0
M  V30 37 H 4.246303 -0.946106 3.271670 0
M  V30 38 H 5.247704 1.273392 3.589532 0
M  V30 39 H 5.887305 3.286197 2.559139 0
M  V30 40 H 5.026321 3.951953 1.109837 0
M  V30 41 H 3.832994 3.643079 3.663311 0
M  V30 42 H 3.216840 2.656606 0.130424 0
M  V30 43 H 0.143107 1.822646 1.765651 0
M  V30 44 H -1.229850 1.185990 3.768174 0
M  V30 45 H -1.770766 -3.880106 2.686052 0
M  V30 46 H -3.182059 -5.407847 2.644252 0
M  V30 47 H -4.984460 -7.135742 2.522367 0
M  V30 48 H -7.180312 -6.572895 1.424660 0
M  V30 49 H -7.532256 -4.347589 0.487529 0
M  V30 50 H -5.794549 -2.696705 0.608609 0
M  V30 51 H -0.535998 -2.094355 0.177227 0
M  V30 END ATOM
M  V30 BEGIN BOND
M  V30 1 1 1 2
M  V30 2 1 2 3
M  V30 3 2 3 4
M  V30 4 1 4 5
M  V30 5 1 5 6
M  V30 6 2 6 7
M  V30 7 1 7 8
M  V30 8 2 8 9
M  V30 9 1 9 10
M  V30 10 1 10 11
M  V30 11 1 11 12
M  V30 12 2 10 13
M  V30 13 2 5 14
M  V30 14 1 14 15
M  V30 15 2 15 16
M  V30 16 1 16 17
M  V30 17 2 17 18
M  V30 18 1 18 19
M  V30 19 1 19 20
M  V30 20 1 20 21
M  V30 21 2 21 22
M  V30 22 1 21 23
M  V30 23 2 23 24
M  V30 24 1 24 25
M  V30 25 2 25 26
M  V30 26 1 26 27
M  V30 27 2 27 28
M  V30 28 2 19 29
M  V30 29 1 14 30
M  V30 30 1 30 3
M  V30 31 1 13 6
M  V30 32 1 29 15
M  V30 33 1 28 23
M  V30 34 1 1 31
M  V30 35 1 1 32
M  V30 36 1 1 33
M  V30 37 1 2 34
M  V30 38 1 2 35
M  V30 39 1 7 36
M  V30 40 1 8 37
M  V30 41 1 9 38
M  V30 42 1 11 39
M  V30 43 1 11 40
M  V30 44 1 12 41
M  V30 45 1 13 42
M  V30 46 1 16 43
M  V30 47 1 17 44
M  V30 48 1 20 45
M  V30 49 1 24 46
M  V30 50 1 25 47
M  V30 51 1 26 48
M  V30 52 1 27 49
M  V30 53 1 28 50
M  V30 54 1 29 51
M  V30 END BOND
M  V30 END CTAB
M  END
>  <Dataset>  (429) 
ChEMBL_Kinases

>  <Ligand_Instance>  (429) 
nan

>  <PDB_ID>  (429) 
nan

>  <Standardized_SMILES>  (429) 
CCc1nc(-c2cccc(CO)c2)c(-c2ccnc(NC(=O)c3ccccc3)c2)s1

>  <Name>  (429) 
nan

>  <Pocket>  (429) 
nan

>  <ATP_Site>  (429) 
nan

>  <Peripheral>  (429) 
nan

>  <Num_H_Atoms_ProtBoundConf>  (429) 
nan

>  <Num_Resolved_Atoms>  (429) 
nan

>  <Num_Not_Resolved_Atoms>  (429) 
nan

$$$$
CHEMBL3218364
     RDKit          3D

  0  0  0  0  0  0  0  0  0  0999 V3000
M  V30 BEGIN CTAB
M  V30 COUNTS 51 54 0 0 0
M  V30 BEGIN ATOM
M  V30 1 C -1.388009 -1.869194 3.956624 0
M  V30 2 C -0.119695 -1.726711 3.160560 0
M  V30 3 C 0.586353 -2.872337 2.883848 0
M  V30 4 C 1.752177 -2.758977 2.154433 0
M  V30 5 C 2.147954 -1.503538 1.741404 0
M  V30 6 C 1.439797 -0.352405 2.018625 0
M  V30 7 C 1.977919 0.915746 1.516113 0
M  V30 8 N 3.177499 1.386856 1.882565 0
M  V30 9 C 3.675758 2.368330 1.538141 0
M  V30 10 C 4.987860 3.049495 1.835004 0
M  V30 11 C 4.887437 4.528865 1.459704 0
M  V30 12 O 5.185764 2.994825 3.213330 0
M  V30 13 S 2.411267 3.145202 0.347040 0
M  V30 14 C 1.232826 1.683804 0.618161 0
M  V30 15 C -0.075072 1.407137 0.068653 0
M  V30 16 C -1.048499 2.342604 0.375660 0
M  V30 17 C -2.327318 2.154463 -0.112858 0
M  V30 18 N -2.557637 1.062488 -0.866801 0
M  V30 19 C -1.588794 0.162209 -1.152946 0
M  V30 20 N -1.901902 -0.985000 -1.967003 0
M  V30 21 C -2.328351 -2.047131 -1.118436 0
M  V30 22 O -2.333669 -1.746870 0.111578 0
M  V30 23 C -2.735392 -3.378216 -1.543295 0
M  V30 24 C -3.110233 -4.231252 -0.526044 0
M  V30 25 C -3.516436 -5.531621 -0.836781 0
M  V30 26 C -3.524767 -5.909372 -2.163078 0
M  V30 27 C -3.144544 -5.028822 -3.137515 0
M  V30 28 C -2.731882 -3.720884 -2.870984 0
M  V30 29 C -0.285747 0.281931 -0.700345 0
M  V30 30 C 0.254989 -0.456161 2.758399 0
M  V30 31 H -2.111554 -1.168272 3.496550 0
M  V30 32 H -1.813941 -2.896051 3.849683 0
M  V30 33 H -1.233881 -1.634051 5.032164 0
M  V30 34 H 0.213986 -3.822733 3.240961 0
M  V30 35 H 2.343209 -3.654663 1.914228 0
M  V30 36 H 3.080329 -1.443923 1.162274 0
M  V30 37 H 5.812360 2.558074 1.286922 0
M  V30 38 H 4.389079 5.086544 2.293155 0
M  V30 39 H 5.893887 4.951386 1.274659 0
M  V30 40 H 4.240933 4.668632 0.566573 0
M  V30 41 H 4.430457 3.497560 3.636565 0
M  V30 42 H -0.849618 3.214835 0.982106 0
M  V30 43 H -3.091442 2.880002 0.122678 0
M  V30 44 H -1.883948 -1.196330 -3.001814 0
M  V30 45 H -3.119401 -3.978874 0.524430 0
M  V30 46 H -3.811367 -6.211419 -0.071210 0
M  V30 47 H -3.835817 -6.916583 -2.442729 0
M  V30 48 H -3.173380 -5.390694 -4.171924 0
M  V30 49 H -2.437132 -3.046266 -3.656337 0
M  V30 50 H 0.491091 -0.432986 -0.924994 0
M  V30 51 H -0.285800 0.443639 2.966964 0
M  V30 END ATOM
M  V30 BEGIN BOND
M  V30 1 1 1 2
M  V30 2 2 2 3
M  V30 3 1 3 4
M  V30 4 2 4 5
M  V30 5 1 5 6
M  V30 6 1 6 7
M  V30 7 1 7 8
M  V30 8 2 8 9
M  V30 9 1 9 10
M  V30 10 1 10 11
M  V30 11 1 10 12
M  V30 12 1 9 13
M  V30 13 1 13 14
M  V30 14 1 14 15
M  V30 15 2 15 16
M  V30 16 1 16 17
M  V30 17 2 17 18
M  V30 18 1 18 19
M  V30 19 1 19 20
M  V30 20 1 20 21
M  V30 21 2 21 22
M  V30 22 1 21 23
M  V30 23 2 23 24
M  V30 24 1 24 25
M  V30 25 2 25 26
M  V30 26 1 26 27
M  V30 27 2 27 28
M  V30 28 2 19 29
M  V30 29 2 6 30
M  V30 30 1 30 2
M  V30 31 2 14 7
M  V30 32 1 29 15
M  V30 33 1 28 23
M  V30 34 1 1 31
M  V30 35 1 1 32
M  V30 36 1 1 33
M  V30 37 1 3 34
M  V30 38 1 4 35
M  V30 39 1 5 36
M  V30 40 1 10 37
M  V30 41 1 11 38
M  V30 42 1 11 39
M  V30 43 1 11 40
M  V30 44 1 12 41
M  V30 45 1 16 42
M  V30 46 1 17 43
M  V30 47 1 20 44
M  V30 48 1 24 45
M  V30 49 1 25 46
M  V30 50 1 26 47
M  V30 51 1 27 48
M  V30 52 1 28 49
M  V30 53 1 29 50
M  V30 54 1 30 51
M  V30 END BOND
M  V30 END CTAB
M  END
>  <Dataset>  (430) 
ChEMBL_Kinases

>  <Ligand_Instance>  (430) 
nan

>  <PDB_ID>  (430) 
nan

>  <Standardized_SMILES>  (430) 
Cc1cccc(-c2nc(C(C)O)sc2-c2ccnc(NC(=O)c3ccccc3)c2)c1

>  <Name>  (430) 
nan

>  <Pocket>  (430) 
nan

>  <ATP_Site>  (430) 
nan

>  <Peripheral>  (430) 
nan

>  <Num_H_Atoms_ProtBoundConf>  (430) 
nan

>  <Num_Resolved_Atoms>  (430) 
nan

>  <Num_Not_Resolved_Atoms>  (430) 
nan

$$$$
CHEMBL3218365
     RDKit          3D

  0  0  0  0  0  0  0  0  0  0999 V3000
M  V30 BEGIN CTAB
M  V30 COUNTS 50 53 0 0 0
M  V30 BEGIN ATOM
M  V30 1 C 2.384530 -1.497063 6.907834 0
M  V30 2 C 2.737351 -2.183500 5.618513 0
M  V30 3 C 2.262733 -1.312121 4.437419 0
M  V30 4 N 2.624951 -0.488307 3.767606 0
M  V30 5 C 2.051085 0.154128 2.773640 0
M  V30 6 C 2.513171 1.226439 1.897943 0
M  V30 7 C 2.835314 2.389299 2.602911 0
M  V30 8 C 3.288947 3.518075 1.987021 0
M  V30 9 C 3.435889 3.515091 0.622412 0
M  V30 10 C 3.123209 2.373921 -0.101837 0
M  V30 11 C 3.254265 2.297177 -1.552279 0
M  V30 12 O 2.980020 1.276544 -2.247392 0
M  V30 13 O 3.715874 3.438210 -2.204001 0
M  V30 14 C 2.664499 1.234456 0.527193 0
M  V30 15 C 0.790709 -0.235962 2.490980 0
M  V30 16 C -0.381904 -0.000391 1.595276 0
M  V30 17 C -1.010128 1.226715 1.593487 0
M  V30 18 C -2.100433 1.530037 0.802127 0
M  V30 19 N -2.533020 0.520187 0.000364 0
M  V30 20 C -1.931047 -0.692013 -0.013670 0
M  V30 21 N -2.516356 -1.631224 -0.911966 0
M  V30 22 C -2.314895 -1.971311 -2.262786 0
M  V30 23 O -1.416957 -1.302985 -2.818862 0
M  V30 24 C -3.146126 -3.025801 -2.838659 0
M  V30 25 C -4.121718 -3.771062 -2.244698 0
M  V30 26 C -4.808781 -4.729182 -2.947303 0
M  V30 27 C -4.558270 -4.991579 -4.273968 0
M  V30 28 C -3.566158 -4.234027 -4.878815 0
M  V30 29 C -2.867095 -3.265683 -4.180720 0
M  V30 30 C -0.839385 -0.993296 0.779640 0
M  V30 31 S 0.512923 -1.570788 3.746377 0
M  V30 32 H 1.398701 -1.824736 7.301056 0
M  V30 33 H 2.301028 -0.395530 6.695995 0
M  V30 34 H 3.137398 -1.611931 7.711189 0
M  V30 35 H 3.804911 -2.282061 5.438231 0
M  V30 36 H 2.198628 -3.157062 5.561772 0
M  V30 37 H 2.751272 2.490261 3.696862 0
M  V30 38 H 3.542419 4.425905 2.519536 0
M  V30 39 H 3.794216 4.390587 0.087393 0
M  V30 40 H 3.804707 3.492060 -3.209124 0
M  V30 41 H 2.390723 0.295347 0.080566 0
M  V30 42 H -0.606499 1.987435 2.263351 0
M  V30 43 H -2.568902 2.509185 0.828316 0
M  V30 44 H -3.226414 -2.075484 -0.261516 0
M  V30 45 H -4.288332 -3.536646 -1.206777 0
M  V30 46 H -5.562313 -5.252088 -2.350963 0
M  V30 47 H -5.153037 -5.759297 -4.723151 0
M  V30 48 H -3.370480 -4.441260 -5.921835 0
M  V30 49 H -2.116182 -2.736925 -4.753714 0
M  V30 50 H -0.393521 -1.963181 0.738287 0
M  V30 END ATOM
M  V30 BEGIN BOND
M  V30 1 1 1 2
M  V30 2 1 2 3
M  V30 3 2 3 4
M  V30 4 1 4 5
M  V30 5 1 5 6
M  V30 6 2 6 7
M  V30 7 1 7 8
M  V30 8 2 8 9
M  V30 9 1 9 10
M  V30 10 1 10 11
M  V30 11 2 11 12
M  V30 12 1 11 13
M  V30 13 2 10 14
M  V30 14 2 5 15
M  V30 15 1 15 16
M  V30 16 2 16 17
M  V30 17 1 17 18
M  V30 18 2 18 19
M  V30 19 1 19 20
M  V30 20 1 20 21
M  V30 21 1 21 22
M  V30 22 2 22 23
M  V30 23 1 22 24
M  V30 24 2 24 25
M  V30 25 1 25 26
M  V30 26 2 26 27
M  V30 27 1 27 28
M  V30 28 2 28 29
M  V30 29 2 20 30
M  V30 30 1 15 31
M  V30 31 1 31 3
M  V30 32 1 14 6
M  V30 33 1 30 16
M  V30 34 1 29 24
M  V30 35 1 1 32
M  V30 36 1 1 33
M  V30 37 1 1 34
M  V30 38 1 2 35
M  V30 39 1 2 36
M  V30 40 1 7 37
M  V30 41 1 8 38
M  V30 42 1 9 39
M  V30 43 1 13 40
M  V30 44 1 14 41
M  V30 45 1 17 42
M  V30 46 1 18 43
M  V30 47 1 21 44
M  V30 48 1 25 45
M  V30 49 1 26 46
M  V30 50 1 27 47
M  V30 51 1 28 48
M  V30 52 1 29 49
M  V30 53 1 30 50
M  V30 END BOND
M  V30 END CTAB
M  END
>  <Dataset>  (431) 
ChEMBL_Kinases

>  <Ligand_Instance>  (431) 
nan

>  <PDB_ID>  (431) 
nan

>  <Standardized_SMILES>  (431) 
CCc1nc(-c2cccc(C(=O)O)c2)c(-c2ccnc(NC(=O)c3ccccc3)c2)s1

>  <Name>  (431) 
nan

>  <Pocket>  (431) 
nan

>  <ATP_Site>  (431) 
nan

>  <Peripheral>  (431) 
nan

>  <Num_H_Atoms_ProtBoundConf>  (431) 
nan

>  <Num_Resolved_Atoms>  (431) 
nan

>  <Num_Not_Resolved_Atoms>  (431) 
nan

$$$$
CHEMBL3218958
     RDKit          3D

  0  0  0  0  0  0  0  0  0  0999 V3000
M  V30 BEGIN CTAB
M  V30 COUNTS 47 51 0 0 0
M  V30 BEGIN ATOM
M  V30 1 O -1.787514 -3.524941 2.237072 0
M  V30 2 C -2.109709 -3.202787 1.068661 0
M  V30 3 N -1.145648 -2.473663 0.348427 0
M  V30 4 C 0.162337 -1.983621 0.614150 0
M  V30 5 C 0.326703 -0.717976 1.156380 0
M  V30 6 C 1.638568 -0.292908 1.394895 0
M  V30 7 C 1.670773 1.066199 1.971907 0
M  V30 8 C 2.301683 2.085234 1.288403 0
M  V30 9 C 3.010531 2.158429 0.017428 0
M  V30 10 C 2.235831 1.869851 -1.089417 0
M  V30 11 C 2.830305 1.916723 -2.338698 0
M  V30 12 C 4.168522 2.243337 -2.492552 0
M  V30 13 F 4.790016 2.300556 -3.700722 0
M  V30 14 C 4.938123 2.531265 -1.377466 0
M  V30 15 C 4.359279 2.488293 -0.129091 0
M  V30 16 N 2.139071 3.156936 2.089625 0
M  V30 17 C 1.449152 2.797652 3.190730 0
M  V30 18 N 1.144417 1.472130 3.130537 0
M  V30 19 C 0.416798 0.951511 4.227328 0
M  V30 20 C -0.448268 2.016387 4.848618 0
M  V30 21 S 0.754596 3.403480 4.751095 0
M  V30 22 C 2.719370 -1.087348 1.107673 0
M  V30 23 C 2.493478 -2.350018 0.563938 0
M  V30 24 N 1.217233 -2.777730 0.325897 0
M  V30 25 C -3.371058 -3.508219 0.395818 0
M  V30 26 C -3.754869 -3.172025 -0.874377 0
M  V30 27 C -4.991889 -3.541274 -1.361534 0
M  V30 28 C -5.846303 -4.257923 -0.552153 0
M  V30 29 C -5.526095 -4.634830 0.746821 0
M  V30 30 C -4.261892 -4.235800 1.191005 0
M  V30 31 H -1.221435 -2.115060 -0.630162 0
M  V30 32 H -0.555732 -0.159052 1.353048 0
M  V30 33 H 1.199382 1.611193 -1.039226 0
M  V30 34 H 2.330963 1.710758 -3.290631 0
M  V30 35 H 5.986220 2.797114 -1.376511 0
M  V30 36 H 4.841847 2.687940 0.799469 0
M  V30 37 H 1.087614 0.477298 4.985615 0
M  V30 38 H -0.328604 0.190468 3.882382 0
M  V30 39 H -0.660092 1.730030 5.896108 0
M  V30 40 H -1.342046 2.201447 4.249588 0
M  V30 41 H 3.666891 -0.663447 1.329365 0
M  V30 42 H 3.368690 -2.958673 0.345849 0
M  V30 43 H -3.025943 -2.612780 -1.435508 0
M  V30 44 H -5.248451 -3.252013 -2.370453 0
M  V30 45 H -6.821627 -4.548256 -0.938576 0
M  V30 46 H -6.184630 -5.194937 1.389306 0
M  V30 47 H -4.026502 -4.543219 2.221537 0
M  V30 END ATOM
M  V30 BEGIN BOND
M  V30 1 2 1 2
M  V30 2 1 2 3
M  V30 3 1 3 4
M  V30 4 2 4 5
M  V30 5 1 5 6
M  V30 6 1 6 7
M  V30 7 2 7 8
M  V30 8 1 8 9
M  V30 9 2 9 10
M  V30 10 1 10 11
M  V30 11 2 11 12
M  V30 12 1 12 13
M  V30 13 1 12 14
M  V30 14 2 14 15
M  V30 15 1 8 16
M  V30 16 2 16 17
M  V30 17 1 17 18
M  V30 18 1 18 19
M  V30 19 1 19 20
M  V30 20 1 20 21
M  V30 21 2 6 22
M  V30 22 1 22 23
M  V30 23 2 23 24
M  V30 24 1 2 25
M  V30 25 2 25 26
M  V30 26 1 26 27
M  V30 27 2 27 28
M  V30 28 1 28 29
M  V30 29 2 29 30
M  V30 30 1 24 4
M  V30 31 1 30 25
M  V30 32 1 18 7
M  V30 33 1 15 9
M  V30 34 1 21 17
M  V30 35 1 3 31
M  V30 36 1 5 32
M  V30 37 1 10 33
M  V30 38 1 11 34
M  V30 39 1 14 35
M  V30 40 1 15 36
M  V30 41 1 19 37
M  V30 42 1 19 38
M  V30 43 1 20 39
M  V30 44 1 20 40
M  V30 45 1 22 41
M  V30 46 1 23 42
M  V30 47 1 26 43
M  V30 48 1 27 44
M  V30 49 1 28 45
M  V30 50 1 29 46
M  V30 51 1 30 47
M  V30 END BOND
M  V30 END CTAB
M  END
>  <Dataset>  (432) 
ChEMBL_Kinases

>  <Ligand_Instance>  (432) 
nan

>  <PDB_ID>  (432) 
nan

>  <Standardized_SMILES>  (432) 
O=C(Nc1cc(-c2c(-c3ccc(F)cc3)nc3n2CCS3)ccn1)c1ccccc1

>  <Name>  (432) 
nan

>  <Pocket>  (432) 
nan

>  <ATP_Site>  (432) 
nan

>  <Peripheral>  (432) 
nan

>  <Num_H_Atoms_ProtBoundConf>  (432) 
nan

>  <Num_Resolved_Atoms>  (432) 
nan

>  <Num_Not_Resolved_Atoms>  (432) 
nan

$$$$
CHEMBL3218290
     RDKit          3D

  0  0  0  0  0  0  0  0  0  0999 V3000
M  V30 BEGIN CTAB
M  V30 COUNTS 43 45 0 0 0
M  V30 BEGIN ATOM
M  V30 1 C -2.817849 -6.602546 -0.548552 0
M  V30 2 O -2.672466 -5.217260 -0.657243 0
M  V30 3 C -1.512061 -4.593596 -1.091000 0
M  V30 4 C -0.393499 -5.312595 -1.454205 0
M  V30 5 C 0.721070 -4.625598 -1.874688 0
M  V30 6 C 0.669814 -3.251739 -1.914037 0
M  V30 7 C -0.422991 -2.478450 -1.562061 0
M  V30 8 C -0.434868 -1.001262 -1.620364 0 CFG=2
M  V30 9 C -0.752486 -0.462919 -2.987017 0
M  V30 10 N 0.789351 -0.466006 -1.060745 0
M  V30 11 C 1.041929 0.344032 0.103706 0
M  V30 12 O 0.104698 0.720047 0.852242 0
M  V30 13 N 2.394868 0.644566 0.287214 0
M  V30 14 C 2.595714 1.476741 1.494065 0
M  V30 15 N 2.012934 1.962768 2.334441 0
M  V30 16 C 2.493628 2.695061 3.339431 0
M  V30 17 C 1.659933 3.283110 4.380868 0
M  V30 18 C 0.290254 3.156294 4.453298 0
M  V30 19 C -0.510108 3.701074 5.424888 0
M  V30 20 N 0.084651 4.432934 6.409477 0
M  V30 21 C 1.430211 4.606513 6.411788 0
M  V30 22 C 2.182822 4.034844 5.409195 0
M  V30 23 C 3.905281 2.873181 3.335153 0
M  V30 24 S 4.400903 1.934900 1.834043 0
M  V30 25 C -1.535727 -3.206747 -1.140427 0
M  V30 26 H -3.024431 -7.015741 -1.556356 0
M  V30 27 H -1.933428 -7.124098 -0.099143 0
M  V30 28 H -3.709312 -6.766346 0.116641 0
M  V30 29 H -0.457770 -6.380687 -1.386960 0
M  V30 30 H 1.615241 -5.169352 -2.166024 0
M  V30 31 H 1.575364 -2.765165 -2.252456 0
M  V30 32 H -1.248384 -0.659539 -0.943522 0
M  V30 33 H -0.675286 0.632940 -2.943260 0
M  V30 34 H -1.814384 -0.727515 -3.205939 0
M  V30 35 H -0.153336 -0.911918 -3.792739 0
M  V30 36 H 1.533403 -0.800849 -1.711751 0
M  V30 37 H 3.153030 0.338368 -0.321438 0
M  V30 38 H -0.202086 2.566855 3.662756 0
M  V30 39 H -1.584366 3.549709 5.402981 0
M  V30 40 H 1.873327 5.189277 7.201588 0
M  V30 41 H 3.239335 4.219101 5.483382 0
M  V30 42 H 4.486450 3.453415 4.092676 0
M  V30 43 H -2.424404 -2.655184 -0.851116 0
M  V30 END ATOM
M  V30 BEGIN BOND
M  V30 1 1 1 2
M  V30 2 1 2 3
M  V30 3 2 3 4
M  V30 4 1 4 5
M  V30 5 2 5 6
M  V30 6 1 6 7
M  V30 7 1 7 8
M  V30 8 1 8 9
M  V30 9 1 8 10
M  V30 10 1 10 11
M  V30 11 2 11 12
M  V30 12 1 11 13
M  V30 13 1 13 14
M  V30 14 2 14 15
M  V30 15 1 15 16
M  V30 16 1 16 17
M  V30 17 2 17 18
M  V30 18 1 18 19
M  V30 19 2 19 20
M  V30 20 1 20 21
M  V30 21 2 21 22
M  V30 22 2 16 23
M  V30 23 1 23 24
M  V30 24 2 7 25
M  V30 25 1 25 3
M  V30 26 1 24 14
M  V30 27 1 22 17
M  V30 28 1 1 26
M  V30 29 1 1 27
M  V30 30 1 1 28
M  V30 31 1 4 29
M  V30 32 1 5 30
M  V30 33 1 6 31
M  V30 34 1 8 32 CFG=1
M  V30 35 1 9 33
M  V30 36 1 9 34
M  V30 37 1 9 35
M  V30 38 1 10 36
M  V30 39 1 13 37
M  V30 40 1 18 38
M  V30 41 1 19 39
M  V30 42 1 21 40
M  V30 43 1 22 41
M  V30 44 1 23 42
M  V30 45 1 25 43
M  V30 END BOND
M  V30 END CTAB
M  END
>  <Dataset>  (433) 
ChEMBL_Kinases

>  <Ligand_Instance>  (433) 
nan

>  <PDB_ID>  (433) 
nan

>  <Standardized_SMILES>  (433) 
COc1cccc([C@H](C)NC(=O)Nc2nc(-c3ccncc3)cs2)c1

>  <Name>  (433) 
nan

>  <Pocket>  (433) 
nan

>  <ATP_Site>  (433) 
nan

>  <Peripheral>  (433) 
nan

>  <Num_H_Atoms_ProtBoundConf>  (433) 
nan

>  <Num_Resolved_Atoms>  (433) 
nan

>  <Num_Not_Resolved_Atoms>  (433) 
nan

$$$$
CHEMBL3235180
     RDKit          3D

  0  0  0  0  0  0  0  0  0  0999 V3000
M  V30 BEGIN CTAB
M  V30 COUNTS 35 37 0 0 0
M  V30 BEGIN ATOM
M  V30 1 O 1.300775 0.456362 1.397947 0
M  V30 2 C 1.614633 1.235039 2.380273 0
M  V30 3 C 2.582841 0.258662 2.857920 0
M  V30 4 O 2.586562 -0.872218 2.064829 0
M  V30 5 C 1.562581 -1.742442 2.188745 0
M  V30 6 C 1.633334 -2.902141 1.252718 0
M  V30 7 C 2.371680 -4.038725 1.604240 0
M  V30 8 C 2.436246 -5.129040 0.758054 0
M  V30 9 C 1.776355 -5.150863 -0.476400 0
M  V30 10 C 1.094116 -3.984908 -0.700261 0
M  V30 11 C 0.939188 -2.845497 0.025039 0
M  V30 12 N 0.783719 2.339922 2.176825 0
M  V30 13 C -0.148514 2.416717 1.078997 0
M  V30 14 N -1.311706 2.040272 1.141161 0
M  V30 15 C -2.151163 2.114062 0.112576 0
M  V30 16 C -3.475097 1.704303 0.110385 0
M  V30 17 C -4.213667 1.842805 -1.035151 0
M  V30 18 C -3.752742 2.368744 -2.228102 0
M  V30 19 C -2.438262 2.779172 -2.236749 0
M  V30 20 C -1.662939 2.648023 -1.079223 0
M  V30 21 S 0.034126 3.015214 -0.599940 0
M  V30 22 H 3.632076 0.687832 2.860522 0
M  V30 23 H 2.347318 -0.022631 3.926141 0
M  V30 24 H 0.568398 -1.318785 2.084887 0
M  V30 25 H 1.567831 -2.144646 3.262480 0
M  V30 26 H 2.904978 -4.052782 2.559582 0
M  V30 27 H 3.003485 -6.044155 0.993825 0
M  V30 28 H 1.769744 -5.950135 -1.195563 0
M  V30 29 H 0.546713 -3.947457 -1.659432 0
M  V30 30 H 0.368483 -1.994415 -0.271112 0
M  V30 31 H 1.135634 2.872907 3.006310 0
M  V30 32 H -4.031012 1.261336 0.953866 0
M  V30 33 H -5.264558 1.527352 -1.070796 0
M  V30 34 H -4.306764 2.490278 -3.141229 0
M  V30 35 H -1.910228 3.210386 -3.074074 0
M  V30 END ATOM
M  V30 BEGIN BOND
M  V30 1 2 1 2
M  V30 2 1 2 3
M  V30 3 1 3 4
M  V30 4 1 4 5
M  V30 5 1 5 6
M  V30 6 2 6 7
M  V30 7 1 7 8
M  V30 8 2 8 9
M  V30 9 1 9 10
M  V30 10 2 10 11
M  V30 11 1 2 12
M  V30 12 1 12 13
M  V30 13 2 13 14
M  V30 14 1 14 15
M  V30 15 2 15 16
M  V30 16 1 16 17
M  V30 17 2 17 18
M  V30 18 1 18 19
M  V30 19 2 19 20
M  V30 20 1 20 21
M  V30 21 1 11 6
M  V30 22 1 21 13
M  V30 23 1 20 15
M  V30 24 1 3 22
M  V30 25 1 3 23
M  V30 26 1 5 24
M  V30 27 1 5 25
M  V30 28 1 7 26
M  V30 29 1 8 27
M  V30 30 1 9 28
M  V30 31 1 10 29
M  V30 32 1 11 30
M  V30 33 1 12 31
M  V30 34 1 16 32
M  V30 35 1 17 33
M  V30 36 1 18 34
M  V30 37 1 19 35
M  V30 END BOND
M  V30 END CTAB
M  END
>  <Dataset>  (434) 
ChEMBL_Kinases

>  <Ligand_Instance>  (434) 
nan

>  <PDB_ID>  (434) 
nan

>  <Standardized_SMILES>  (434) 
O=C(COCc1ccccc1)Nc1nc2ccccc2s1

>  <Name>  (434) 
nan

>  <Pocket>  (434) 
nan

>  <ATP_Site>  (434) 
nan

>  <Peripheral>  (434) 
nan

>  <Num_H_Atoms_ProtBoundConf>  (434) 
nan

>  <Num_Resolved_Atoms>  (434) 
nan

>  <Num_Not_Resolved_Atoms>  (434) 
nan

$$$$
CHEMBL3235179
     RDKit          3D

  0  0  0  0  0  0  0  0  0  0999 V3000
M  V30 BEGIN CTAB
M  V30 COUNTS 41 42 0 0 0
M  V30 BEGIN ATOM
M  V30 1 C 0.060524 -7.469929 1.421457 0
M  V30 2 C 1.519335 -7.080296 1.231449 0
M  V30 3 O 1.551451 -5.682168 1.022114 0
M  V30 4 C 2.666708 -4.920079 0.808070 0
M  V30 5 O 3.710071 -5.588512 0.811628 0
M  V30 6 C 2.330240 -3.483788 0.626829 0
M  V30 7 S 0.729030 -2.658348 0.651015 0
M  V30 8 C 1.499388 -0.992772 0.335224 0
M  V30 9 N 0.834025 0.292896 0.206748 0
M  V30 10 C 0.440078 0.644469 -1.104377 0
M  V30 11 O 0.697387 -0.170936 -2.045572 0
M  V30 12 C -0.246772 1.804059 -1.721204 0
M  V30 13 N -0.630439 2.815101 -0.755162 0
M  V30 14 C -1.544696 2.506699 0.287804 0
M  V30 15 O -2.072019 1.373027 0.438259 0
M  V30 16 C -1.925637 3.528615 1.265292 0
M  V30 17 C -1.458521 4.807299 1.261004 0
M  V30 18 C -1.803211 5.777511 2.166654 0
M  V30 19 C -2.690923 5.466221 3.173931 0
M  V30 20 C -3.207453 4.189427 3.243372 0
M  V30 21 C -2.809324 3.273213 2.293719 0
M  V30 22 N 2.605088 -1.279717 0.276781 0
M  V30 23 C 3.189414 -2.447365 0.395704 0
M  V30 24 C 4.674946 -2.684410 0.295293 0
M  V30 25 H -0.069292 -8.320654 2.123066 0
M  V30 26 H -0.473039 -6.600153 1.852169 0
M  V30 27 H -0.448050 -7.670969 0.439648 0
M  V30 28 H 1.912149 -7.647617 0.364829 0
M  V30 29 H 2.047879 -7.398168 2.143606 0
M  V30 30 H 0.571646 1.051883 0.872352 0
M  V30 31 H -1.172862 1.450761 -2.256854 0
M  V30 32 H 0.387317 2.237274 -2.525835 0
M  V30 33 H -0.204700 3.761589 -0.868417 0
M  V30 34 H -0.760478 5.134453 0.507841 0
M  V30 35 H -1.425041 6.785060 2.150064 0
M  V30 36 H -3.011280 6.175414 3.924720 0
M  V30 37 H -3.904189 3.945987 4.034357 0
M  V30 38 H -3.254836 2.276697 2.403084 0
M  V30 39 H 5.169717 -2.644361 1.284274 0
M  V30 40 H 4.887785 -3.687768 -0.128345 0
M  V30 41 H 5.181419 -1.965695 -0.351509 0
M  V30 END ATOM
M  V30 BEGIN BOND
M  V30 1 1 1 2
M  V30 2 1 2 3
M  V30 3 1 3 4
M  V30 4 2 4 5
M  V30 5 1 4 6
M  V30 6 1 6 7
M  V30 7 1 7 8
M  V30 8 1 8 9
M  V30 9 1 9 10
M  V30 10 2 10 11
M  V30 11 1 10 12
M  V30 12 1 12 13
M  V30 13 1 13 14
M  V30 14 2 14 15
M  V30 15 1 14 16
M  V30 16 2 16 17
M  V30 17 1 17 18
M  V30 18 2 18 19
M  V30 19 1 19 20
M  V30 20 2 20 21
M  V30 21 2 8 22
M  V30 22 1 22 23
M  V30 23 1 23 24
M  V30 24 2 23 6
M  V30 25 1 21 16
M  V30 26 1 1 25
M  V30 27 1 1 26
M  V30 28 1 1 27
M  V30 29 1 2 28
M  V30 30 1 2 29
M  V30 31 1 9 30
M  V30 32 1 12 31
M  V30 33 1 12 32
M  V30 34 1 13 33
M  V30 35 1 17 34
M  V30 36 1 18 35
M  V30 37 1 19 36
M  V30 38 1 20 37
M  V30 39 1 21 38
M  V30 40 1 24 39
M  V30 41 1 24 40
M  V30 42 1 24 41
M  V30 END BOND
M  V30 END CTAB
M  END
>  <Dataset>  (435) 
ChEMBL_Kinases

>  <Ligand_Instance>  (435) 
nan

>  <PDB_ID>  (435) 
nan

>  <Standardized_SMILES>  (435) 
CCOC(=O)c1sc(NC(=O)CNC(=O)c2ccccc2)nc1C

>  <Name>  (435) 
nan

>  <Pocket>  (435) 
nan

>  <ATP_Site>  (435) 
nan

>  <Peripheral>  (435) 
nan

>  <Num_H_Atoms_ProtBoundConf>  (435) 
nan

>  <Num_Resolved_Atoms>  (435) 
nan

>  <Num_Not_Resolved_Atoms>  (435) 
nan

$$$$
CHEMBL3235178
     RDKit          3D

  0  0  0  0  0  0  0  0  0  0999 V3000
M  V30 BEGIN CTAB
M  V30 COUNTS 35 37 0 0 0
M  V30 BEGIN ATOM
M  V30 1 O 0.209758 -0.019528 0.701334 0
M  V30 2 C 0.184201 -0.549740 1.845526 0
M  V30 3 C 0.783106 -1.927537 1.770659 0
M  V30 4 N 1.182618 -2.158729 0.388055 0
M  V30 5 C 1.779664 -3.414909 0.086111 0
M  V30 6 O 1.917265 -4.225023 1.025098 0
M  V30 7 C 2.233851 -3.802128 -1.244759 0
M  V30 8 C 2.791371 -5.058524 -1.365298 0
M  V30 9 C 3.226145 -5.426938 -2.643681 0
M  V30 10 C 3.116361 -4.599147 -3.744304 0
M  V30 11 C 2.554438 -3.342193 -3.604664 0
M  V30 12 C 2.120729 -2.969558 -2.339341 0
M  V30 13 N -0.303407 -0.022651 3.058418 0
M  V30 14 C -0.850531 1.336804 2.931552 0
M  V30 15 N -1.949060 1.640028 2.688151 0
M  V30 16 C -2.475998 2.841716 2.566470 0
M  V30 17 C -3.780995 3.188809 2.277378 0
M  V30 18 C -4.132517 4.510744 2.193769 0
M  V30 19 C -3.281015 5.574090 2.376379 0
M  V30 20 C -1.973436 5.256274 2.665906 0
M  V30 21 C -1.621089 3.906372 2.749825 0
M  V30 22 S -0.040897 3.072795 3.101806 0
M  V30 23 H 1.616814 -2.031079 2.484907 0
M  V30 24 H 0.007410 -2.690759 2.017863 0
M  V30 25 H 1.056339 -1.463312 -0.380596 0
M  V30 26 H 2.903180 -5.740104 -0.557200 0
M  V30 27 H 3.670130 -6.419333 -2.755432 0
M  V30 28 H 3.458136 -4.904123 -4.719472 0
M  V30 29 H 2.480503 -2.720913 -4.469473 0
M  V30 30 H 1.688886 -1.997131 -2.244525 0
M  V30 31 H -0.272065 -0.548849 3.934159 0
M  V30 32 H -4.586970 2.482242 2.103128 0
M  V30 33 H -5.170881 4.804060 1.963657 0
M  V30 34 H -3.507460 6.625967 2.321578 0
M  V30 35 H -1.140422 5.920853 2.846307 0
M  V30 END ATOM
M  V30 BEGIN BOND
M  V30 1 2 1 2
M  V30 2 1 2 3
M  V30 3 1 3 4
M  V30 4 1 4 5
M  V30 5 2 5 6
M  V30 6 1 5 7
M  V30 7 2 7 8
M  V30 8 1 8 9
M  V30 9 2 9 10
M  V30 10 1 10 11
M  V30 11 2 11 12
M  V30 12 1 2 13
M  V30 13 1 13 14
M  V30 14 2 14 15
M  V30 15 1 15 16
M  V30 16 2 16 17
M  V30 17 1 17 18
M  V30 18 2 18 19
M  V30 19 1 19 20
M  V30 20 2 20 21
M  V30 21 1 21 22
M  V30 22 1 12 7
M  V30 23 1 22 14
M  V30 24 1 21 16
M  V30 25 1 3 23
M  V30 26 1 3 24
M  V30 27 1 4 25
M  V30 28 1 8 26
M  V30 29 1 9 27
M  V30 30 1 10 28
M  V30 31 1 11 29
M  V30 32 1 12 30
M  V30 33 1 13 31
M  V30 34 1 17 32
M  V30 35 1 18 33
M  V30 36 1 19 34
M  V30 37 1 20 35
M  V30 END BOND
M  V30 END CTAB
M  END
>  <Dataset>  (436) 
ChEMBL_Kinases

>  <Ligand_Instance>  (436) 
nan

>  <PDB_ID>  (436) 
nan

>  <Standardized_SMILES>  (436) 
O=C(CNC(=O)c1ccccc1)Nc1nc2ccccc2s1

>  <Name>  (436) 
nan

>  <Pocket>  (436) 
nan

>  <ATP_Site>  (436) 
nan

>  <Peripheral>  (436) 
nan

>  <Num_H_Atoms_ProtBoundConf>  (436) 
nan

>  <Num_Resolved_Atoms>  (436) 
nan

>  <Num_Not_Resolved_Atoms>  (436) 
nan

$$$$
CHEMBL323405
     RDKit          3D

  0  0  0  0  0  0  0  0  0  0999 V3000
M  V30 BEGIN CTAB
M  V30 COUNTS 42 45 0 0 0
M  V30 BEGIN ATOM
M  V30 1 C 0.348090 0.293328 3.649650 0
M  V30 2 N 0.987736 0.263095 2.359046 0
M  V30 3 C 1.694913 1.369332 2.019324 0
M  V30 4 O 1.807302 2.371731 2.766505 0
M  V30 5 C 2.341493 1.443938 0.803085 0
M  V30 6 C 3.140209 2.580259 0.325412 0
M  V30 7 C 2.486237 3.572878 -0.374652 0
M  V30 8 Cl 0.773795 3.492170 -0.675134 0
M  V30 9 C 3.267157 4.619803 -0.814588 0
M  V30 10 C 4.624984 4.748654 -0.612276 0
M  V30 11 C 5.206913 3.703897 0.103175 0
M  V30 12 C 4.499503 2.620464 0.578603 0
M  V30 13 Cl 5.279162 1.333957 1.469848 0
M  V30 14 C 2.304183 0.400904 -0.131897 0
M  V30 15 C 1.566926 -0.716556 0.256395 0
M  V30 16 C 1.463491 -1.801341 -0.590683 0
M  V30 17 N 0.736681 -2.846002 -0.154331 0
M  V30 18 C 0.113261 -2.901918 1.036712 0
M  V30 19 N -0.567889 -4.137657 1.185789 0
M  V30 20 C -1.950727 -4.255781 0.878788 0
M  V30 21 C -2.606545 -3.080140 0.529384 0
M  V30 22 C -3.955390 -3.122844 0.215909 0
M  V30 23 C -4.621086 -4.326090 0.255382 0
M  V30 24 O -5.968488 -4.290595 -0.071075 0
M  V30 25 C -3.943732 -5.473816 0.605162 0
M  V30 26 C -2.600457 -5.480217 0.925760 0
M  V30 27 N 0.220807 -1.822176 1.869879 0
M  V30 28 C 0.936256 -0.752011 1.480269 0
M  V30 29 H -0.197251 1.260430 3.816106 0
M  V30 30 H 1.076269 0.202245 4.477549 0
M  V30 31 H -0.408129 -0.504051 3.748625 0
M  V30 32 H 2.776304 5.413079 -1.366469 0
M  V30 33 H 5.189432 5.593681 -0.981316 0
M  V30 34 H 6.274755 3.769867 0.282122 0
M  V30 35 H 2.797433 0.424712 -1.092052 0
M  V30 36 H 1.969193 -1.740089 -1.541108 0
M  V30 37 H 0.056979 -4.896264 1.528410 0
M  V30 38 H -2.065858 -2.123106 0.501120 0
M  V30 39 H -4.400663 -2.167176 -0.046952 0
M  V30 40 H -6.259498 -4.039717 -1.017718 0
M  V30 41 H -4.479838 -6.419015 0.631067 0
M  V30 42 H -2.049022 -6.374407 1.202885 0
M  V30 END ATOM
M  V30 BEGIN BOND
M  V30 1 1 1 2
M  V30 2 1 2 3
M  V30 3 2 3 4
M  V30 4 1 3 5
M  V30 5 1 5 6
M  V30 6 2 6 7
M  V30 7 1 7 8
M  V30 8 1 7 9
M  V30 9 2 9 10
M  V30 10 1 10 11
M  V30 11 2 11 12
M  V30 12 1 12 13
M  V30 13 2 5 14
M  V30 14 1 14 15
M  V30 15 2 15 16
M  V30 16 1 16 17
M  V30 17 2 17 18
M  V30 18 1 18 19
M  V30 19 1 19 20
M  V30 20 2 20 21
M  V30 21 1 21 22
M  V30 22 2 22 23
M  V30 23 1 23 24
M  V30 24 1 23 25
M  V30 25 2 25 26
M  V30 26 1 18 27
M  V30 27 2 27 28
M  V30 28 1 28 2
M  V30 29 1 12 6
M  V30 30 1 28 15
M  V30 31 1 26 20
M  V30 32 1 1 29
M  V30 33 1 1 30
M  V30 34 1 1 31
M  V30 35 1 9 32
M  V30 36 1 10 33
M  V30 37 1 11 34
M  V30 38 1 14 35
M  V30 39 1 16 36
M  V30 40 1 19 37
M  V30 41 1 21 38
M  V30 42 1 22 39
M  V30 43 1 24 40
M  V30 44 1 25 41
M  V30 45 1 26 42
M  V30 END BOND
M  V30 END CTAB
M  END
>  <Dataset>  (437) 
ChEMBL_Kinases

>  <Ligand_Instance>  (437) 
nan

>  <PDB_ID>  (437) 
nan

>  <Standardized_SMILES>  (437) 
Cn1c(=O)c(-c2c(Cl)cccc2Cl)cc2cnc(Nc3ccc(O)cc3)nc21

>  <Name>  (437) 
nan

>  <Pocket>  (437) 
nan

>  <ATP_Site>  (437) 
nan

>  <Peripheral>  (437) 
nan

>  <Num_H_Atoms_ProtBoundConf>  (437) 
nan

>  <Num_Resolved_Atoms>  (437) 
nan

>  <Num_Not_Resolved_Atoms>  (437) 
nan

$$$$
CHEMBL3233034
     RDKit          3D

  0  0  0  0  0  0  0  0  0  0999 V3000
M  V30 BEGIN CTAB
M  V30 COUNTS 54 56 0 0 0
M  V30 BEGIN ATOM
M  V30 1 C 3.111253 -4.645838 5.310233 0
M  V30 2 C 4.544453 -4.492766 4.791056 0
M  V30 3 O 4.483831 -3.518761 3.744369 0
M  V30 4 C 5.579191 -3.113037 3.035182 0
M  V30 5 O 6.615742 -3.726904 3.451705 0
M  V30 6 C 5.442434 -2.107023 1.972375 0
M  V30 7 S 3.912375 -1.281616 1.444108 0
M  V30 8 C 4.855501 -0.286503 0.131086 0
M  V30 9 N 4.026335 0.655639 -0.693169 0
M  V30 10 C 2.632682 0.808055 -0.519933 0
M  V30 11 O 2.029361 0.122663 0.372816 0
M  V30 12 C 2.109700 1.810899 -1.483286 0
M  V30 13 N 0.679544 1.924029 -1.271322 0
M  V30 14 C -0.048581 0.740455 -1.468298 0
M  V30 15 O 0.634392 -0.285417 -1.808351 0
M  V30 16 C -1.482795 0.614508 -1.314599 0
M  V30 17 C -2.307130 1.657255 -0.960988 0
M  V30 18 C -3.693248 1.531801 -0.814180 0
M  V30 19 C -4.237122 0.287060 -1.041461 0
M  V30 20 N -5.644994 0.177142 -0.889089 0
M  V30 21 C -6.409473 1.350442 -0.534840 0
M  V30 22 C -7.865869 1.029759 -0.476343 0
M  V30 23 O -8.169759 -0.014619 0.387514 0
M  V30 24 C -7.320557 -1.100315 0.224879 0
M  V30 25 C -6.483704 -0.973286 -1.037224 0
M  V30 26 C -3.461242 -0.804194 -1.400527 0
M  V30 27 C -2.104737 -0.587906 -1.521883 0
M  V30 28 N 5.900317 -0.664980 0.290185 0
M  V30 29 C 6.369999 -1.549334 1.139863 0
M  V30 30 C 7.808447 -1.977983 1.259952 0
M  V30 31 H 2.409306 -4.525176 4.474522 0
M  V30 32 H 3.008017 -5.653236 5.745105 0
M  V30 33 H 2.903696 -3.849990 6.063288 0
M  V30 34 H 5.130126 -4.107782 5.650140 0
M  V30 35 H 4.980142 -5.441007 4.483123 0
M  V30 36 H 4.660219 1.114577 -1.348317 0
M  V30 37 H 2.570521 2.809101 -1.333451 0
M  V30 38 H 2.308833 1.538395 -2.535064 0
M  V30 39 H 0.156524 2.797323 -0.989518 0
M  V30 40 H -1.889651 2.635564 -0.780951 0
M  V30 41 H -4.277490 2.400154 -0.531590 0
M  V30 42 H -6.014329 1.805134 0.389022 0
M  V30 43 H -6.303033 2.153608 -1.319131 0
M  V30 44 H -8.437893 1.924718 -0.166309 0
M  V30 45 H -8.210686 0.817921 -1.523628 0
M  V30 46 H -7.970987 -2.007185 0.107394 0
M  V30 47 H -6.692796 -1.173092 1.134511 0
M  V30 48 H -7.202180 -0.917153 -1.879875 0
M  V30 49 H -5.866262 -1.874098 -1.086003 0
M  V30 50 H -3.894425 -1.777895 -1.577476 0
M  V30 51 H -1.467461 -1.431243 -1.804016 0
M  V30 52 H 8.230852 -1.413911 2.107132 0
M  V30 53 H 7.881364 -3.068356 1.494589 0
M  V30 54 H 8.372208 -1.859047 0.315371 0
M  V30 END ATOM
M  V30 BEGIN BOND
M  V30 1 1 1 2
M  V30 2 1 2 3
M  V30 3 1 3 4
M  V30 4 2 4 5
M  V30 5 1 4 6
M  V30 6 1 6 7
M  V30 7 1 7 8
M  V30 8 1 8 9
M  V30 9 1 9 10
M  V30 10 2 10 11
M  V30 11 1 10 12
M  V30 12 1 12 13
M  V30 13 1 13 14
M  V30 14 2 14 15
M  V30 15 1 14 16
M  V30 16 2 16 17
M  V30 17 1 17 18
M  V30 18 2 18 19
M  V30 19 1 19 20
M  V30 20 1 20 21
M  V30 21 1 21 22
M  V30 22 1 22 23
M  V30 23 1 23 24
M  V30 24 1 24 25
M  V30 25 1 19 26
M  V30 26 2 26 27
M  V30 27 2 8 28
M  V30 28 1 28 29
M  V30 29 1 29 30
M  V30 30 2 29 6
M  V30 31 1 27 16
M  V30 32 1 25 20
M  V30 33 1 1 31
M  V30 34 1 1 32
M  V30 35 1 1 33
M  V30 36 1 2 34
M  V30 37 1 2 35
M  V30 38 1 9 36
M  V30 39 1 12 37
M  V30 40 1 12 38
M  V30 41 1 13 39
M  V30 42 1 17 40
M  V30 43 1 18 41
M  V30 44 1 21 42
M  V30 45 1 21 43
M  V30 46 1 22 44
M  V30 47 1 22 45
M  V30 48 1 24 46
M  V30 49 1 24 47
M  V30 50 1 25 48
M  V30 51 1 25 49
M  V30 52 1 26 50
M  V30 53 1 27 51
M  V30 54 1 30 52
M  V30 55 1 30 53
M  V30 56 1 30 54
M  V30 END BOND
M  V30 END CTAB
M  END
>  <Dataset>  (438) 
ChEMBL_Kinases

>  <Ligand_Instance>  (438) 
nan

>  <PDB_ID>  (438) 
nan

>  <Standardized_SMILES>  (438) 
CCOC(=O)c1sc(NC(=O)CNC(=O)c2ccc(N3CCOCC3)cc2)nc1C

>  <Name>  (438) 
nan

>  <Pocket>  (438) 
nan

>  <ATP_Site>  (438) 
nan

>  <Peripheral>  (438) 
nan

>  <Num_H_Atoms_ProtBoundConf>  (438) 
nan

>  <Num_Resolved_Atoms>  (438) 
nan

>  <Num_Not_Resolved_Atoms>  (438) 
nan

$$$$
CHEMBL323197
     RDKit          3D

  0  0  0  0  0  0  0  0  0  0999 V3000
M  V30 BEGIN CTAB
M  V30 COUNTS 56 58 0 0 0
M  V30 BEGIN ATOM
M  V30 1 C 0.306809 -6.519224 1.341312 0
M  V30 2 O 0.812677 -5.768895 0.261396 0
M  V30 3 C 1.208050 -4.434004 0.395240 0
M  V30 4 C 2.519968 -4.261471 0.736879 0
M  V30 5 O 3.387268 -5.325830 0.935043 0
M  V30 6 C 2.996216 -2.980521 0.889434 0
M  V30 7 C 2.147554 -1.909628 0.696171 0
M  V30 8 O 2.573874 -0.675720 0.833426 0
M  V30 9 C 1.812343 0.378438 0.660161 0
M  V30 10 C 2.356644 1.634526 0.827871 0
M  V30 11 C 1.535357 2.735779 0.639748 0
M  V30 12 O 2.095171 3.993763 0.811153 0
M  V30 13 C 0.214006 2.537108 0.294408 0
M  V30 14 C -0.588523 3.801601 0.111111 0
M  V30 15 C -0.933184 4.406502 1.414909 0
M  V30 16 C -0.857704 4.342362 2.721848 0
M  V30 17 C -1.455441 5.335486 3.690871 0
M  V30 18 C -0.126406 3.205936 3.378058 0
M  V30 19 C -0.336123 1.282412 0.125541 0
M  V30 20 O -1.656238 1.148273 -0.217656 0
M  V30 21 C 0.489690 0.190759 0.314761 0
M  V30 22 C 0.005894 -1.091102 0.161911 0
M  V30 23 O -1.175231 -1.192940 -0.146002 0
M  V30 24 C 0.840156 -2.170040 0.353618 0
M  V30 25 C 0.269754 -3.409661 0.177832 0
M  V30 26 C -1.093020 -3.776134 -0.191245 0
M  V30 27 C -1.210800 -4.169772 -1.635137 0
M  V30 28 C -1.997010 -3.675450 -2.583534 0
M  V30 29 C -3.000300 -2.586629 -2.509156 0
M  V30 30 C -1.896969 -4.259419 -3.966549 0
M  V30 31 H -0.129851 -5.886359 2.150960 0
M  V30 32 H -0.555218 -7.126938 0.941660 0
M  V30 33 H 1.031646 -7.271788 1.736015 0
M  V30 34 H 3.988705 -5.261964 1.758623 0
M  V30 35 H 4.010473 -2.737000 1.155905 0
M  V30 36 H 3.386547 1.699756 1.095083 0
M  V30 37 H 2.639685 4.144982 1.658128 0
M  V30 38 H -1.482750 3.476870 -0.458465 0
M  V30 39 H 0.032720 4.471383 -0.513770 0
M  V30 40 H -1.504765 5.298029 1.091188 0
M  V30 41 H -1.607763 6.316366 3.198268 0
M  V30 42 H -2.340638 4.922466 4.172688 0
M  V30 43 H -0.681362 5.507558 4.464131 0
M  V30 44 H -0.445908 3.047530 4.428759 0
M  V30 45 H 0.930824 3.473536 3.410985 0
M  V30 46 H -0.381345 2.289987 2.844454 0
M  V30 47 H -2.426174 1.220620 0.418705 0
M  V30 48 H -1.925543 -3.217655 0.210504 0
M  V30 49 H -1.265811 -4.792435 0.315024 0
M  V30 50 H -0.536935 -4.974420 -1.906382 0
M  V30 51 H -3.263064 -2.338858 -1.447067 0
M  V30 52 H -3.907495 -2.936624 -3.062316 0
M  V30 53 H -2.622657 -1.699673 -3.051450 0
M  V30 54 H -0.921457 -4.764604 -4.105913 0
M  V30 55 H -1.946576 -3.464466 -4.747900 0
M  V30 56 H -2.696269 -4.988669 -4.158398 0
M  V30 END ATOM
M  V30 BEGIN BOND
M  V30 1 1 1 2
M  V30 2 1 2 3
M  V30 3 2 3 4
M  V30 4 1 4 5
M  V30 5 1 4 6
M  V30 6 2 6 7
M  V30 7 1 7 8
M  V30 8 1 8 9
M  V30 9 2 9 10
M  V30 10 1 10 11
M  V30 11 1 11 12
M  V30 12 2 11 13
M  V30 13 1 13 14
M  V30 14 1 14 15
M  V30 15 2 15 16 CFG=2
M  V30 16 1 16 17
M  V30 17 1 16 18
M  V30 18 1 13 19
M  V30 19 1 19 20
M  V30 20 2 19 21
M  V30 21 1 21 22
M  V30 22 2 22 23
M  V30 23 1 22 24
M  V30 24 2 24 25
M  V30 25 1 25 26
M  V30 26 1 26 27
M  V30 27 2 27 28 CFG=2
M  V30 28 1 28 29
M  V30 29 1 28 30
M  V30 30 1 25 3
M  V30 31 1 24 7
M  V30 32 1 21 9
M  V30 33 1 1 31
M  V30 34 1 1 32
M  V30 35 1 1 33
M  V30 36 1 5 34
M  V30 37 1 6 35
M  V30 38 1 10 36
M  V30 39 1 12 37
M  V30 40 1 14 38
M  V30 41 1 14 39
M  V30 42 1 15 40
M  V30 43 1 17 41
M  V30 44 1 17 42
M  V30 45 1 17 43
M  V30 46 1 18 44
M  V30 47 1 18 45
M  V30 48 1 18 46
M  V30 49 1 20 47
M  V30 50 1 26 48
M  V30 51 1 26 49
M  V30 52 1 27 50
M  V30 53 1 29 51
M  V30 54 1 29 52
M  V30 55 1 29 53
M  V30 56 1 30 54
M  V30 57 1 30 55
M  V30 58 1 30 56
M  V30 END BOND
M  V30 END CTAB
M  END
>  <Dataset>  (439) 
ChEMBL_Kinases

>  <Ligand_Instance>  (439) 
nan

>  <PDB_ID>  (439) 
nan

>  <Standardized_SMILES>  (439) 
COc1c(O)cc2oc3cc(O)c(CC=C(C)C)c(O)c3c(=O)c2c1CC=C(C)C

>  <Name>  (439) 
MANGOSTIN

>  <Pocket>  (439) 
nan

>  <ATP_Site>  (439) 
nan

>  <Peripheral>  (439) 
nan

>  <Num_H_Atoms_ProtBoundConf>  (439) 
nan

>  <Num_Resolved_Atoms>  (439) 
nan

>  <Num_Not_Resolved_Atoms>  (439) 
nan

$$$$
CHEMBL322865
     RDKit          3D

  0  0  0  0  0  0  0  0  0  0999 V3000
M  V30 BEGIN CTAB
M  V30 COUNTS 43 45 0 0 0
M  V30 BEGIN ATOM
M  V30 1 C -1.740384 -5.660924 -0.686310 0
M  V30 2 C -1.673958 -4.358305 -1.394818 0
M  V30 3 O -2.489271 -3.736833 -2.100455 0
M  V30 4 O -0.503680 -3.598041 -1.317244 0
M  V30 5 C -0.390533 -2.351418 -1.973783 0
M  V30 6 C 0.982622 -1.776247 -1.703426 0 CFG=1
M  V30 7 C 2.040629 -2.748149 -2.139205 0
M  V30 8 O 3.307142 -2.303406 -1.814030 0
M  V30 9 O 1.173464 -0.536976 -2.322174 0
M  V30 10 C 1.361065 0.469626 -1.393173 0
M  V30 11 O 1.556785 1.684352 -1.615308 0
M  V30 12 C 1.299740 -0.090085 -0.027152 0
M  V30 13 C 1.408057 0.383134 1.288793 0
M  V30 14 O 1.627931 1.710420 1.300079 0
M  V30 15 C 1.803635 2.651369 2.278192 0
M  V30 16 C 0.712569 2.858184 3.240780 0
M  V30 17 C 0.492495 2.307379 4.486619 0
M  V30 18 C -0.613108 2.629735 5.234753 0
M  V30 19 C -1.567943 3.508948 4.809926 0
M  V30 20 C -1.396169 4.087656 3.572916 0
M  V30 21 C -0.288539 3.756847 2.837062 0
M  V30 22 C 1.272707 -0.572219 2.270029 0
M  V30 23 C 1.046250 -1.915642 2.079864 0
M  V30 24 C 0.943799 -2.354833 0.777305 0
M  V30 25 C 1.069270 -1.452545 -0.257247 0
M  V30 26 H -2.784842 -5.887353 -0.335707 0
M  V30 27 H -1.432644 -6.484234 -1.355846 0
M  V30 28 H -1.059813 -5.609941 0.176266 0
M  V30 29 H -0.507248 -2.466927 -3.079083 0
M  V30 30 H -1.182719 -1.646356 -1.648537 0
M  V30 31 H 1.990393 -2.758983 -3.262717 0
M  V30 32 H 1.822160 -3.777232 -1.826403 0
M  V30 33 H 3.997311 -2.829089 -2.293200 0
M  V30 34 H 2.725295 2.485260 2.899903 0
M  V30 35 H 2.001804 3.642098 1.763543 0
M  V30 36 H 1.257823 1.626656 4.799939 0
M  V30 37 H -0.635246 2.103673 6.198935 0
M  V30 38 H -2.391155 3.687928 5.475750 0
M  V30 39 H -2.132963 4.781029 3.218787 0
M  V30 40 H -0.225164 4.262362 1.860225 0
M  V30 41 H 1.366435 -0.159009 3.259951 0
M  V30 42 H 0.965177 -2.529161 2.968475 0
M  V30 43 H 0.765787 -3.412128 0.636516 0
M  V30 END ATOM
M  V30 BEGIN BOND
M  V30 1 1 1 2
M  V30 2 2 2 3
M  V30 3 1 2 4
M  V30 4 1 4 5
M  V30 5 1 6 5 CFG=1
M  V30 6 1 6 7
M  V30 7 1 7 8
M  V30 8 1 6 9
M  V30 9 1 9 10
M  V30 10 2 10 11
M  V30 11 1 10 12
M  V30 12 2 12 13
M  V30 13 1 13 14
M  V30 14 1 14 15
M  V30 15 1 15 16
M  V30 16 2 16 17
M  V30 17 1 17 18
M  V30 18 2 18 19
M  V30 19 1 19 20
M  V30 20 2 20 21
M  V30 21 1 13 22
M  V30 22 2 22 23
M  V30 23 1 23 24
M  V30 24 2 24 25
M  V30 25 1 25 6
M  V30 26 1 25 12
M  V30 27 1 21 16
M  V30 28 1 1 26
M  V30 29 1 1 27
M  V30 30 1 1 28
M  V30 31 1 5 29
M  V30 32 1 5 30
M  V30 33 1 7 31
M  V30 34 1 7 32
M  V30 35 1 8 33
M  V30 36 1 15 34
M  V30 37 1 15 35
M  V30 38 1 17 36
M  V30 39 1 18 37
M  V30 40 1 19 38
M  V30 41 1 20 39
M  V30 42 1 21 40
M  V30 43 1 22 41
M  V30 44 1 23 42
M  V30 45 1 24 43
M  V30 END BOND
M  V30 END CTAB
M  END
>  <Dataset>  (440) 
ChEMBL_Kinases

>  <Ligand_Instance>  (440) 
nan

>  <PDB_ID>  (440) 
nan

>  <Standardized_SMILES>  (440) 
CC(=O)OC[C@@]1(CO)OC(=O)c2c(OCc3ccccc3)cccc21

>  <Name>  (440) 
nan

>  <Pocket>  (440) 
nan

>  <ATP_Site>  (440) 
nan

>  <Peripheral>  (440) 
nan

>  <Num_H_Atoms_ProtBoundConf>  (440) 
nan

>  <Num_Resolved_Atoms>  (440) 
nan

>  <Num_Not_Resolved_Atoms>  (440) 
nan

$$$$
CHEMBL3221815
     RDKit          3D

  0  0  0  0  0  0  0  0  0  0999 V3000
M  V30 BEGIN CTAB
M  V30 COUNTS 56 59 0 0 0
M  V30 BEGIN ATOM
M  V30 1 C 0.878847 -2.097659 5.451591 0
M  V30 2 O 1.855522 -2.498089 4.536267 0
M  V30 3 C 2.482522 -1.683803 3.613164 0
M  V30 4 C 3.402017 -2.361463 2.845223 0
M  V30 5 C 4.134210 -1.717027 1.863007 0
M  V30 6 C 3.916160 -0.366184 1.672435 0
M  V30 7 C 2.997490 0.321862 2.436477 0
M  V30 8 C 2.262294 -0.337421 3.426502 0
M  V30 9 C 2.751900 1.779842 2.247134 0
M  V30 10 C 2.809562 2.227101 0.830297 0 CFG=2
M  V30 11 C 1.465953 2.241124 0.172058 0
M  V30 12 O 1.000383 3.310742 -0.299507 0
M  V30 13 N 0.650394 1.106189 0.033956 0
M  V30 14 C -0.619388 0.893285 -0.537085 0
M  V30 15 C -1.350176 1.895593 -1.130218 0
M  V30 16 C -2.611457 1.736251 -1.709175 0
M  V30 17 C -3.158622 0.464247 -1.676939 0
M  V30 18 C -4.478740 0.235493 -2.268915 0
M  V30 19 C -5.072040 0.857490 -3.347266 0
M  V30 20 N -6.290350 0.316083 -3.523556 0
M  V30 21 N -6.519332 -0.631551 -2.608822 0
M  V30 22 C -5.414363 -0.702996 -1.818599 0
M  V30 23 C -2.423189 -0.540800 -1.080675 0
M  V30 24 C -1.184733 -0.387272 -0.512017 0
M  V30 25 O -0.445890 -1.366130 0.081388 0
M  V30 26 C -0.660786 -2.701727 0.277341 0
M  V30 27 C -0.797087 -3.579535 -0.919460 0
M  V30 28 C -1.035654 -5.040547 -0.528344 0
M  V30 29 O -1.157796 -5.829836 -1.671159 0
M  V30 30 C 3.828797 1.480454 0.041184 0
M  V30 31 O 4.517295 0.487525 0.763756 0
M  V30 32 H -0.111014 -2.294175 4.992421 0
M  V30 33 H 0.951212 -2.698317 6.383330 0
M  V30 34 H 1.016233 -1.026079 5.693379 0
M  V30 35 H 3.633102 -3.428602 2.933119 0
M  V30 36 H 4.872402 -2.145802 1.211007 0
M  V30 37 H 1.525610 0.127683 4.066138 0
M  V30 38 H 1.846348 2.093638 2.778636 0
M  V30 39 H 3.605767 2.276878 2.795392 0
M  V30 40 H 3.153735 3.296023 0.848228 0
M  V30 41 H 1.144271 0.267917 0.467034 0
M  V30 42 H -1.009840 2.915667 -1.204199 0
M  V30 43 H -3.165708 2.540826 -2.169520 0
M  V30 44 H -4.633138 1.632072 -3.933468 0
M  V30 45 H -7.339732 -1.253254 -2.439404 0
M  V30 46 H -5.258421 -1.353588 -0.989216 0
M  V30 47 H -2.923015 -1.486635 -1.087886 0
M  V30 48 H -1.492039 -2.922965 1.015911 0
M  V30 49 H 0.247286 -3.097001 0.837835 0
M  V30 50 H -1.585156 -3.290309 -1.612168 0
M  V30 51 H 0.163788 -3.626710 -1.515449 0
M  V30 52 H -0.170676 -5.444761 0.045484 0
M  V30 53 H -1.960255 -5.159836 0.046839 0
M  V30 54 H -1.460027 -5.296511 -2.451577 0
M  V30 55 H 3.287955 0.932004 -0.776271 0
M  V30 56 H 4.551072 2.124731 -0.472794 0
M  V30 END ATOM
M  V30 BEGIN BOND
M  V30 1 1 1 2
M  V30 2 1 2 3
M  V30 3 2 3 4
M  V30 4 1 4 5
M  V30 5 2 5 6
M  V30 6 1 6 7
M  V30 7 2 7 8
M  V30 8 1 7 9
M  V30 9 1 9 10
M  V30 10 1 10 11
M  V30 11 2 11 12
M  V30 12 1 11 13
M  V30 13 1 13 14
M  V30 14 2 14 15
M  V30 15 1 15 16
M  V30 16 2 16 17
M  V30 17 1 17 18
M  V30 18 1 18 19
M  V30 19 2 19 20
M  V30 20 1 20 21
M  V30 21 1 21 22
M  V30 22 1 17 23
M  V30 23 2 23 24
M  V30 24 1 24 25
M  V30 25 1 25 26
M  V30 26 1 26 27
M  V30 27 1 27 28
M  V30 28 1 28 29
M  V30 29 1 10 30
M  V30 30 1 30 31
M  V30 31 1 8 3
M  V30 32 1 24 14
M  V30 33 1 31 6
M  V30 34 2 22 18
M  V30 35 1 1 32
M  V30 36 1 1 33
M  V30 37 1 1 34
M  V30 38 1 4 35
M  V30 39 1 5 36
M  V30 40 1 8 37
M  V30 41 1 9 38
M  V30 42 1 9 39
M  V30 43 1 10 40 CFG=1
M  V30 44 1 13 41
M  V30 45 1 15 42
M  V30 46 1 16 43
M  V30 47 1 19 44
M  V30 48 1 21 45
M  V30 49 1 22 46
M  V30 50 1 23 47
M  V30 51 1 26 48
M  V30 52 1 26 49
M  V30 53 1 27 50
M  V30 54 1 27 51
M  V30 55 1 28 52
M  V30 56 1 28 53
M  V30 57 1 29 54
M  V30 58 1 30 55
M  V30 59 1 30 56
M  V30 END BOND
M  V30 END CTAB
M  END
>  <Dataset>  (441) 
ChEMBL_Kinases

>  <Ligand_Instance>  (441) 
nan

>  <PDB_ID>  (441) 
nan

>  <Standardized_SMILES>  (441) 
COc1ccc2c(c1)C[C@H](C(=O)Nc1ccc(-c3cn[nH]c3)cc1OCCCO)CO2

>  <Name>  (441) 
nan

>  <Pocket>  (441) 
nan

>  <ATP_Site>  (441) 
nan

>  <Peripheral>  (441) 
nan

>  <Num_H_Atoms_ProtBoundConf>  (441) 
nan

>  <Num_Resolved_Atoms>  (441) 
nan

>  <Num_Not_Resolved_Atoms>  (441) 
nan

$$$$
CHEMBL3221813
     RDKit          3D

  0  0  0  0  0  0  0  0  0  0999 V3000
M  V30 BEGIN CTAB
M  V30 COUNTS 61 65 0 0 0
M  V30 BEGIN ATOM
M  V30 1 C 6.409474 -2.671172 1.421244 0
M  V30 2 O 6.644342 -1.323523 1.696300 0
M  V30 3 C 5.728532 -0.292113 1.534513 0
M  V30 4 C 6.109893 0.997349 1.850651 0
M  V30 5 C 5.212884 2.047765 1.697919 0
M  V30 6 C 3.943354 1.780835 1.228031 0
M  V30 7 C 3.602229 0.478842 0.923834 0
M  V30 8 C 4.470743 -0.582874 1.065211 0
M  V30 9 C 2.187740 0.320329 0.421665 0
M  V30 10 C 1.342105 1.035891 1.415512 0 CFG=2
M  V30 11 C -0.108024 0.731409 1.345602 0
M  V30 12 O -0.719963 0.229303 2.348074 0
M  V30 13 N -0.879628 0.982820 0.168134 0
M  V30 14 C -2.226199 0.596356 0.398778 0
M  V30 15 C -3.089384 1.481999 0.965363 0
M  V30 16 C -4.390958 1.135377 1.205587 0
M  V30 17 C -4.798507 -0.137754 0.855636 0
M  V30 18 C -6.192248 -0.442391 1.139189 0
M  V30 19 C -6.999333 -1.311682 0.401535 0
M  V30 20 N -8.197799 -1.308578 0.993400 0
M  V30 21 N -8.193596 -0.502544 2.042382 0
M  V30 22 C -6.962868 0.054597 2.165245 0
M  V30 23 C -3.881072 -1.019752 0.274647 0
M  V30 24 C -2.541181 -0.681753 0.019965 0
M  V30 25 O -1.941636 -1.754499 -0.542595 0
M  V30 26 C -0.654560 -1.854549 -0.984868 0 CFG=1
M  V30 27 C 0.108449 -2.906213 -0.152141 0
M  V30 28 C -0.557876 -4.167431 -0.703675 0
M  V30 29 N -0.829692 -3.915174 -2.095994 0
M  V30 30 C -0.099655 -4.780152 -2.999719 0
M  V30 31 C -0.535638 -2.518887 -2.354233 0
M  V30 32 C 1.574341 2.523444 1.242442 0
M  V30 33 O 2.956566 2.723464 1.029074 0
M  V30 34 H 7.057712 -3.268205 2.112611 0
M  V30 35 H 6.731797 -2.878471 0.372554 0
M  V30 36 H 5.365709 -2.977601 1.598478 0
M  V30 37 H 7.119571 1.211160 2.224670 0
M  V30 38 H 5.459566 3.080329 1.930879 0
M  V30 39 H 4.121544 -1.571290 0.803558 0
M  V30 40 H 2.165308 0.915955 -0.528005 0
M  V30 41 H 1.973720 -0.738233 0.302111 0
M  V30 42 H 1.747353 0.795708 2.422796 0
M  V30 43 H -0.421308 1.401021 -0.695939 0
M  V30 44 H -2.712568 2.458989 1.215843 0
M  V30 45 H -5.004666 1.897033 1.656396 0
M  V30 46 H -6.682453 -1.854690 -0.462022 0
M  V30 47 H -8.969095 -0.269857 2.726083 0
M  V30 48 H -6.562128 0.764835 2.894944 0
M  V30 49 H -4.393233 -1.964197 0.074249 0
M  V30 50 H -0.072556 -0.942290 -0.932197 0
M  V30 51 H -0.138989 -2.830283 0.912187 0
M  V30 52 H 1.182855 -2.895357 -0.384167 0
M  V30 53 H -1.439110 -4.456235 -0.106773 0
M  V30 54 H 0.234292 -4.969272 -0.685112 0
M  V30 55 H 0.334931 -4.126134 -3.804431 0
M  V30 56 H -0.784808 -5.468167 -3.542580 0
M  V30 57 H 0.729208 -5.324814 -2.546515 0
M  V30 58 H 0.498105 -2.448955 -2.745063 0
M  V30 59 H -1.258297 -2.033353 -3.020500 0
M  V30 60 H 1.256664 2.999555 2.213980 0
M  V30 61 H 0.942226 2.883463 0.410687 0
M  V30 END ATOM
M  V30 BEGIN BOND
M  V30 1 1 1 2
M  V30 2 1 2 3
M  V30 3 2 3 4
M  V30 4 1 4 5
M  V30 5 2 5 6
M  V30 6 1 6 7
M  V30 7 2 7 8
M  V30 8 1 7 9
M  V30 9 1 9 10
M  V30 10 1 10 11
M  V30 11 2 11 12
M  V30 12 1 11 13
M  V30 13 1 13 14
M  V30 14 2 14 15
M  V30 15 1 15 16
M  V30 16 2 16 17
M  V30 17 1 17 18
M  V30 18 1 18 19
M  V30 19 2 19 20
M  V30 20 1 20 21
M  V30 21 1 21 22
M  V30 22 1 17 23
M  V30 23 2 23 24
M  V30 24 1 24 25
M  V30 25 1 25 26
M  V30 26 1 26 27
M  V30 27 1 27 28
M  V30 28 1 28 29
M  V30 29 1 29 30
M  V30 30 1 29 31
M  V30 31 1 10 32
M  V30 32 1 32 33
M  V30 33 1 8 3
M  V30 34 1 24 14
M  V30 35 1 31 26
M  V30 36 1 33 6
M  V30 37 2 22 18
M  V30 38 1 1 34
M  V30 39 1 1 35
M  V30 40 1 1 36
M  V30 41 1 4 37
M  V30 42 1 5 38
M  V30 43 1 8 39
M  V30 44 1 9 40
M  V30 45 1 9 41
M  V30 46 1 10 42 CFG=1
M  V30 47 1 13 43
M  V30 48 1 15 44
M  V30 49 1 16 45
M  V30 50 1 19 46
M  V30 51 1 21 47
M  V30 52 1 22 48
M  V30 53 1 23 49
M  V30 54 1 26 50 CFG=3
M  V30 55 1 27 51
M  V30 56 1 27 52
M  V30 57 1 28 53
M  V30 58 1 28 54
M  V30 59 1 30 55
M  V30 60 1 30 56
M  V30 61 1 30 57
M  V30 62 1 31 58
M  V30 63 1 31 59
M  V30 64 1 32 60
M  V30 65 1 32 61
M  V30 END BOND
M  V30 END CTAB
M  END
>  <Dataset>  (442) 
ChEMBL_Kinases

>  <Ligand_Instance>  (442) 
nan

>  <PDB_ID>  (442) 
nan

>  <Standardized_SMILES>  (442) 
COc1ccc2c(c1)C[C@H](C(=O)Nc1ccc(-c3cn[nH]c3)cc1O[C@H]1CCN(C)C1)CO2

>  <Name>  (442) 
nan

>  <Pocket>  (442) 
nan

>  <ATP_Site>  (442) 
nan

>  <Peripheral>  (442) 
nan

>  <Num_H_Atoms_ProtBoundConf>  (442) 
nan

>  <Num_Resolved_Atoms>  (442) 
nan

>  <Num_Not_Resolved_Atoms>  (442) 
nan

$$$$
CHEMBL3221811
     RDKit          3D

  0  0  0  0  0  0  0  0  0  0999 V3000
M  V30 BEGIN CTAB
M  V30 COUNTS 61 65 0 0 0
M  V30 BEGIN ATOM
M  V30 1 C 8.385695 0.648146 -1.422599 0
M  V30 2 O 7.021411 0.417232 -1.778004 0
M  V30 3 C 5.976400 0.948909 -1.005296 0
M  V30 4 C 6.284883 1.702686 0.107639 0
M  V30 5 C 5.207469 2.194042 0.820773 0
M  V30 6 C 3.902928 1.967207 0.474116 0
M  V30 7 C 3.695506 1.200935 -0.656211 0
M  V30 8 C 4.696178 0.660895 -1.441815 0
M  V30 9 C 2.285647 0.938679 -1.054058 0
M  V30 10 C 1.431615 0.676086 0.163545 0 CFG=2
M  V30 11 C 0.027973 0.446135 -0.287117 0
M  V30 12 O -0.628071 0.408180 -1.359692 0
M  V30 13 N -0.754355 0.206063 0.847111 0
M  V30 14 C -2.165891 -0.071570 0.964252 0
M  V30 15 C -3.001012 1.021705 1.116185 0
M  V30 16 C -4.388815 0.930155 1.242633 0
M  V30 17 C -4.938299 -0.348496 1.210666 0
M  V30 18 C -6.397614 -0.469107 1.342570 0
M  V30 19 C -7.121250 -1.465873 0.750327 0
M  V30 20 N -8.411039 -1.213710 1.118767 0
M  V30 21 N -8.450782 -0.132292 1.883778 0
M  V30 22 C -7.219212 0.379256 2.060009 0
M  V30 23 C -4.113109 -1.445240 1.059490 0
M  V30 24 C -2.741658 -1.330404 0.936064 0
M  V30 25 O -1.905142 -2.396876 0.785691 0
M  V30 26 C -2.205398 -3.743960 0.725811 0 CFG=2
M  V30 27 C -1.460396 -4.435657 1.877176 0
M  V30 28 C -0.218774 -5.003828 1.277675 0
M  V30 29 N -0.286400 -4.827654 -0.137026 0
M  V30 30 C 0.734628 -3.983323 -0.676327 0
M  V30 31 C -1.630245 -4.455064 -0.474720 0
M  V30 32 C 1.571861 1.710211 1.222618 0
M  V30 33 O 2.791356 2.431306 1.146702 0
M  V30 34 H 9.008926 0.052769 -2.106519 0
M  V30 35 H 8.542761 1.743484 -1.499876 0
M  V30 36 H 8.522690 0.363287 -0.363928 0
M  V30 37 H 7.307034 1.896316 0.402836 0
M  V30 38 H 5.382614 2.804161 1.721153 0
M  V30 39 H 4.492213 0.065623 -2.320822 0
M  V30 40 H 1.886143 1.805257 -1.619314 0
M  V30 41 H 2.237793 0.047821 -1.719110 0
M  V30 42 H 1.785483 -0.298300 0.581919 0
M  V30 43 H -0.546849 0.161431 1.889899 0
M  V30 44 H -2.596469 2.026302 1.144121 0
M  V30 45 H -4.992677 1.822772 1.358792 0
M  V30 46 H -6.806449 -2.302662 0.115836 0
M  V30 47 H -9.322951 0.292722 2.311539 0
M  V30 48 H -6.922820 1.261992 2.635999 0
M  V30 49 H -4.536708 -2.438956 1.034230 0
M  V30 50 H -3.251255 -4.033186 0.808979 0
M  V30 51 H -2.080790 -5.249530 2.304290 0
M  V30 52 H -1.195646 -3.752453 2.687077 0
M  V30 53 H -0.027472 -6.057845 1.599468 0
M  V30 54 H 0.708432 -4.454687 1.616316 0
M  V30 55 H 1.135411 -3.349037 0.115711 0
M  V30 56 H 0.290216 -3.435940 -1.536589 0
M  V30 57 H 1.563005 -4.655541 -1.005675 0
M  V30 58 H -1.697353 -3.853338 -1.399697 0
M  V30 59 H -2.197755 -5.386106 -0.680305 0
M  V30 60 H 1.566317 1.242864 2.249003 0
M  V30 61 H 0.742251 2.455388 1.269366 0
M  V30 END ATOM
M  V30 BEGIN BOND
M  V30 1 1 1 2
M  V30 2 1 2 3
M  V30 3 2 3 4
M  V30 4 1 4 5
M  V30 5 2 5 6
M  V30 6 1 6 7
M  V30 7 2 7 8
M  V30 8 1 7 9
M  V30 9 1 9 10
M  V30 10 1 10 11
M  V30 11 2 11 12
M  V30 12 1 11 13
M  V30 13 1 13 14
M  V30 14 2 14 15
M  V30 15 1 15 16
M  V30 16 2 16 17
M  V30 17 1 17 18
M  V30 18 1 18 19
M  V30 19 2 19 20
M  V30 20 1 20 21
M  V30 21 1 21 22
M  V30 22 1 17 23
M  V30 23 2 23 24
M  V30 24 1 24 25
M  V30 25 1 25 26
M  V30 26 1 26 27
M  V30 27 1 27 28
M  V30 28 1 28 29
M  V30 29 1 29 30
M  V30 30 1 29 31
M  V30 31 1 10 32
M  V30 32 1 32 33
M  V30 33 1 8 3
M  V30 34 1 24 14
M  V30 35 1 31 26
M  V30 36 1 33 6
M  V30 37 2 22 18
M  V30 38 1 1 34
M  V30 39 1 1 35
M  V30 40 1 1 36
M  V30 41 1 4 37
M  V30 42 1 5 38
M  V30 43 1 8 39
M  V30 44 1 9 40
M  V30 45 1 9 41
M  V30 46 1 10 42 CFG=1
M  V30 47 1 13 43
M  V30 48 1 15 44
M  V30 49 1 16 45
M  V30 50 1 19 46
M  V30 51 1 21 47
M  V30 52 1 22 48
M  V30 53 1 23 49
M  V30 54 1 26 50 CFG=1
M  V30 55 1 27 51
M  V30 56 1 27 52
M  V30 57 1 28 53
M  V30 58 1 28 54
M  V30 59 1 30 55
M  V30 60 1 30 56
M  V30 61 1 30 57
M  V30 62 1 31 58
M  V30 63 1 31 59
M  V30 64 1 32 60
M  V30 65 1 32 61
M  V30 END BOND
M  V30 END CTAB
M  END
>  <Dataset>  (443) 
ChEMBL_Kinases

>  <Ligand_Instance>  (443) 
nan

>  <PDB_ID>  (443) 
nan

>  <Standardized_SMILES>  (443) 
COc1ccc2c(c1)C[C@H](C(=O)Nc1ccc(-c3cn[nH]c3)cc1O[C@@H]1CCN(C)C1)CO2

>  <Name>  (443) 
nan

>  <Pocket>  (443) 
nan

>  <ATP_Site>  (443) 
nan

>  <Peripheral>  (443) 
nan

>  <Num_H_Atoms_ProtBoundConf>  (443) 
nan

>  <Num_Resolved_Atoms>  (443) 
nan

>  <Num_Not_Resolved_Atoms>  (443) 
nan

$$$$
CHEMBL3221809
     RDKit          3D

  0  0  0  0  0  0  0  0  0  0999 V3000
M  V30 BEGIN CTAB
M  V30 COUNTS 64 68 0 0 0
M  V30 BEGIN ATOM
M  V30 1 C 7.948839 0.394362 4.476441 0
M  V30 2 O 6.877697 0.836423 3.649551 0
M  V30 3 C 5.624044 0.242693 3.694489 0
M  V30 4 C 5.331686 -0.814160 4.541554 0
M  V30 5 C 4.072357 -1.381401 4.560216 0
M  V30 6 C 3.124469 -0.840757 3.692737 0
M  V30 7 C 3.384076 0.209995 2.838237 0
M  V30 8 C 4.666240 0.769101 2.836069 0
M  V30 9 C 2.315542 0.712574 1.957473 0
M  V30 10 C 1.430875 -0.395012 1.433864 0 CFG=2
M  V30 11 C 0.122169 0.137177 0.948409 0
M  V30 12 O -0.979010 -0.239866 1.463614 0
M  V30 13 N -0.046739 1.089733 -0.103971 0
M  V30 14 C -1.465837 1.319463 -0.240099 0
M  V30 15 C -1.920740 2.353108 0.552527 0
M  V30 16 C -3.288345 2.645812 0.484647 0
M  V30 17 C -4.111415 1.914609 -0.346096 0
M  V30 18 C -5.530388 2.236020 -0.400669 0
M  V30 19 C -6.145037 3.474912 -0.241718 0
M  V30 20 N -7.462814 3.286809 -0.373716 0
M  V30 21 N -7.762187 2.025865 -0.606188 0
M  V30 22 C -6.591603 1.356844 -0.627956 0
M  V30 23 C -3.638605 0.884916 -1.130991 0
M  V30 24 C -2.292286 0.580436 -1.078525 0
M  V30 25 O -1.720287 -0.437800 -1.830116 0
M  V30 26 C -2.425545 -1.257717 -2.710669 0
M  V30 27 C -1.475855 -2.266783 -3.363312 0
M  V30 28 N -0.848953 -3.099801 -2.359758 0
M  V30 29 C 0.051018 -4.057041 -3.000408 0
M  V30 30 C 0.197986 -5.176557 -2.016270 0
M  V30 31 C -1.124607 -5.199999 -1.308124 0
M  V30 32 C -1.811012 -3.893632 -1.632519 0
M  V30 33 C 1.149424 -1.482321 2.414593 0
M  V30 34 O 1.841707 -1.348340 3.647821 0
M  V30 35 H 7.808596 0.651588 5.545075 0
M  V30 36 H 7.912321 -0.732982 4.421423 0
M  V30 37 H 8.926281 0.669789 4.076310 0
M  V30 38 H 6.090306 -1.210854 5.202937 0
M  V30 39 H 3.842720 -2.206473 5.221071 0
M  V30 40 H 4.836345 1.586694 2.158079 0
M  V30 41 H 1.662097 1.395608 2.548510 0
M  V30 42 H 2.770228 1.275761 1.118284 0
M  V30 43 H 2.011128 -0.848444 0.582915 0
M  V30 44 H 0.860345 1.419509 -0.551351 0
M  V30 45 H -1.300720 2.934164 1.205020 0
M  V30 46 H -3.715312 3.458680 1.091497 0
M  V30 47 H -5.622776 4.407162 -0.046516 0
M  V30 48 H -8.732874 1.673166 -0.738785 0
M  V30 49 H -6.528461 0.289910 -0.800137 0
M  V30 50 H -4.250878 0.287626 -1.795249 0
M  V30 51 H -3.227675 -1.844715 -2.240112 0
M  V30 52 H -2.883652 -0.635278 -3.499429 0
M  V30 53 H -2.046601 -2.954949 -4.017778 0
M  V30 54 H -0.714229 -1.763577 -3.991069 0
M  V30 55 H -0.392933 -4.430260 -3.957687 0
M  V30 56 H 1.036684 -3.594974 -3.200368 0
M  V30 57 H 0.391247 -6.164107 -2.522126 0
M  V30 58 H 1.055548 -4.956926 -1.346323 0
M  V30 59 H -1.752464 -6.060135 -1.636950 0
M  V30 60 H -0.940490 -5.305736 -0.213317 0
M  V30 61 H -2.173157 -3.434313 -0.703825 0
M  V30 62 H -2.690937 -4.088141 -2.274470 0
M  V30 63 H 0.060499 -1.500883 2.687783 0
M  V30 64 H 1.422417 -2.481954 1.989166 0
M  V30 END ATOM
M  V30 BEGIN BOND
M  V30 1 1 1 2
M  V30 2 1 2 3
M  V30 3 2 3 4
M  V30 4 1 4 5
M  V30 5 2 5 6
M  V30 6 1 6 7
M  V30 7 2 7 8
M  V30 8 1 7 9
M  V30 9 1 9 10
M  V30 10 1 10 11
M  V30 11 2 11 12
M  V30 12 1 11 13
M  V30 13 1 13 14
M  V30 14 2 14 15
M  V30 15 1 15 16
M  V30 16 2 16 17
M  V30 17 1 17 18
M  V30 18 1 18 19
M  V30 19 2 19 20
M  V30 20 1 20 21
M  V30 21 1 21 22
M  V30 22 1 17 23
M  V30 23 2 23 24
M  V30 24 1 24 25
M  V30 25 1 25 26
M  V30 26 1 26 27
M  V30 27 1 27 28
M  V30 28 1 28 29
M  V30 29 1 29 30
M  V30 30 1 30 31
M  V30 31 1 31 32
M  V30 32 1 10 33
M  V30 33 1 33 34
M  V30 34 1 8 3
M  V30 35 1 24 14
M  V30 36 1 32 28
M  V30 37 1 34 6
M  V30 38 2 22 18
M  V30 39 1 1 35
M  V30 40 1 1 36
M  V30 41 1 1 37
M  V30 42 1 4 38
M  V30 43 1 5 39
M  V30 44 1 8 40
M  V30 45 1 9 41
M  V30 46 1 9 42
M  V30 47 1 10 43 CFG=3
M  V30 48 1 13 44
M  V30 49 1 15 45
M  V30 50 1 16 46
M  V30 51 1 19 47
M  V30 52 1 21 48
M  V30 53 1 22 49
M  V30 54 1 23 50
M  V30 55 1 26 51
M  V30 56 1 26 52
M  V30 57 1 27 53
M  V30 58 1 27 54
M  V30 59 1 29 55
M  V30 60 1 29 56
M  V30 61 1 30 57
M  V30 62 1 30 58
M  V30 63 1 31 59
M  V30 64 1 31 60
M  V30 65 1 32 61
M  V30 66 1 32 62
M  V30 67 1 33 63
M  V30 68 1 33 64
M  V30 END BOND
M  V30 END CTAB
M  END
>  <Dataset>  (444) 
ChEMBL_Kinases

>  <Ligand_Instance>  (444) 
nan

>  <PDB_ID>  (444) 
nan

>  <Standardized_SMILES>  (444) 
COc1ccc2c(c1)C[C@H](C(=O)Nc1ccc(-c3cn[nH]c3)cc1OCCN1CCCC1)CO2

>  <Name>  (444) 
nan

>  <Pocket>  (444) 
nan

>  <ATP_Site>  (444) 
nan

>  <Peripheral>  (444) 
nan

>  <Num_H_Atoms_ProtBoundConf>  (444) 
nan

>  <Num_Resolved_Atoms>  (444) 
nan

>  <Num_Not_Resolved_Atoms>  (444) 
nan

$$$$
CHEMBL3221807
     RDKit          3D

  0  0  0  0  0  0  0  0  0  0999 V3000
M  V30 BEGIN CTAB
M  V30 COUNTS 60 63 0 0 0
M  V30 BEGIN ATOM
M  V30 1 C 1.497573 0.864831 5.929422 0
M  V30 2 O 2.087598 -0.347750 5.516302 0
M  V30 3 C 2.658015 -0.507911 4.258869 0
M  V30 4 C 3.186338 -1.761513 4.031847 0
M  V30 5 C 3.773014 -2.009530 2.808832 0
M  V30 6 C 3.840134 -1.028416 1.812085 0
M  V30 7 C 3.311384 0.203219 2.059460 0
M  V30 8 C 2.710955 0.474587 3.296156 0
M  V30 9 C 3.373053 1.249637 1.040299 0
M  V30 10 C 3.323007 0.758728 -0.384369 0 CFG=2
M  V30 11 C 1.894993 0.953842 -0.836574 0
M  V30 12 O 1.599007 1.696366 -1.828864 0
M  V30 13 N 0.897189 0.265885 -0.097286 0
M  V30 14 C -0.518452 0.325662 -0.373465 0
M  V30 15 C -1.091781 1.372880 0.341457 0
M  V30 16 C -2.446238 1.619292 0.230325 0
M  V30 17 C -3.201974 0.822463 -0.586990 0
M  V30 18 C -4.629598 0.977673 -0.788700 0
M  V30 19 C -5.417791 0.707397 -1.901878 0
M  V30 20 N -6.694221 1.013949 -1.610022 0
M  V30 21 N -6.781854 1.472943 -0.357507 0
M  V30 22 C -5.516423 1.450836 0.146293 0
M  V30 23 C -2.629826 -0.204899 -1.286377 0
M  V30 24 C -1.287388 -0.499023 -1.215972 0
M  V30 25 O -0.432057 -1.416466 -1.762351 0
M  V30 26 C -0.676374 -2.457395 -2.648946 0
M  V30 27 C -1.617088 -3.524607 -2.151290 0
M  V30 28 N -1.034349 -4.098690 -0.951815 0
M  V30 29 C -1.826370 -5.142018 -0.365886 0
M  V30 30 C 0.350389 -4.423335 -1.103895 0
M  V30 31 C 3.722077 -0.661033 -0.577920 0
M  V30 32 O 4.393209 -1.151197 0.563827 0
M  V30 33 H 0.995879 1.414048 5.107993 0
M  V30 34 H 2.269571 1.537908 6.394063 0
M  V30 35 H 0.724018 0.709308 6.705955 0
M  V30 36 H 3.194141 -2.589814 4.716016 0
M  V30 37 H 4.207443 -2.971309 2.567045 0
M  V30 38 H 2.281893 1.442747 3.523052 0
M  V30 39 H 2.520436 1.964463 1.242559 0
M  V30 40 H 4.283402 1.905699 1.193948 0
M  V30 41 H 3.986958 1.412566 -0.992592 0
M  V30 42 H 1.166151 -0.339556 0.715068 0
M  V30 43 H -0.588778 2.056646 1.009256 0
M  V30 44 H -3.002506 2.409016 0.741192 0
M  V30 45 H -4.976641 0.312366 -2.816206 0
M  V30 46 H -7.695524 1.765414 0.057136 0
M  V30 47 H -5.362005 1.788840 1.166588 0
M  V30 48 H -3.125509 -0.876777 -1.954108 0
M  V30 49 H -1.023522 -2.054662 -3.629739 0
M  V30 50 H 0.305271 -2.965812 -2.828738 0
M  V30 51 H -2.621535 -3.147881 -1.964393 0
M  V30 52 H -1.700817 -4.278351 -2.965260 0
M  V30 53 H -2.661118 -5.504269 -0.989207 0
M  V30 54 H -2.258257 -4.727642 0.590331 0
M  V30 55 H -1.195184 -6.034790 -0.095073 0
M  V30 56 H 0.931921 -3.477701 -0.956902 0
M  V30 57 H 0.610074 -4.971590 -2.010619 0
M  V30 58 H 0.621550 -5.065313 -0.219255 0
M  V30 59 H 4.390276 -0.713763 -1.477130 0
M  V30 60 H 2.862934 -1.341163 -0.771178 0
M  V30 END ATOM
M  V30 BEGIN BOND
M  V30 1 1 1 2
M  V30 2 1 2 3
M  V30 3 2 3 4
M  V30 4 1 4 5
M  V30 5 2 5 6
M  V30 6 1 6 7
M  V30 7 2 7 8
M  V30 8 1 7 9
M  V30 9 1 9 10
M  V30 10 1 10 11
M  V30 11 2 11 12
M  V30 12 1 11 13
M  V30 13 1 13 14
M  V30 14 2 14 15
M  V30 15 1 15 16
M  V30 16 2 16 17
M  V30 17 1 17 18
M  V30 18 1 18 19
M  V30 19 2 19 20
M  V30 20 1 20 21
M  V30 21 1 21 22
M  V30 22 1 17 23
M  V30 23 2 23 24
M  V30 24 1 24 25
M  V30 25 1 25 26
M  V30 26 1 26 27
M  V30 27 1 27 28
M  V30 28 1 28 29
M  V30 29 1 28 30
M  V30 30 1 10 31
M  V30 31 1 31 32
M  V30 32 1 8 3
M  V30 33 1 24 14
M  V30 34 1 32 6
M  V30 35 2 22 18
M  V30 36 1 1 33
M  V30 37 1 1 34
M  V30 38 1 1 35
M  V30 39 1 4 36
M  V30 40 1 5 37
M  V30 41 1 8 38
M  V30 42 1 9 39
M  V30 43 1 9 40
M  V30 44 1 10 41 CFG=3
M  V30 45 1 13 42
M  V30 46 1 15 43
M  V30 47 1 16 44
M  V30 48 1 19 45
M  V30 49 1 21 46
M  V30 50 1 22 47
M  V30 51 1 23 48
M  V30 52 1 26 49
M  V30 53 1 26 50
M  V30 54 1 27 51
M  V30 55 1 27 52
M  V30 56 1 29 53
M  V30 57 1 29 54
M  V30 58 1 29 55
M  V30 59 1 30 56
M  V30 60 1 30 57
M  V30 61 1 30 58
M  V30 62 1 31 59
M  V30 63 1 31 60
M  V30 END BOND
M  V30 END CTAB
M  END
>  <Dataset>  (445) 
ChEMBL_Kinases

>  <Ligand_Instance>  (445) 
nan

>  <PDB_ID>  (445) 
nan

>  <Standardized_SMILES>  (445) 
COc1ccc2c(c1)C[C@H](C(=O)Nc1ccc(-c3cn[nH]c3)cc1OCCN(C)C)CO2

>  <Name>  (445) 
nan

>  <Pocket>  (445) 
nan

>  <ATP_Site>  (445) 
nan

>  <Peripheral>  (445) 
nan

>  <Num_H_Atoms_ProtBoundConf>  (445) 
nan

>  <Num_Resolved_Atoms>  (445) 
nan

>  <Num_Not_Resolved_Atoms>  (445) 
nan

$$$$
CHEMBL3221395
     RDKit          3D

  0  0  0  0  0  0  0  0  0  0999 V3000
M  V30 BEGIN CTAB
M  V30 COUNTS 43 46 0 0 0
M  V30 BEGIN ATOM
M  V30 1 N -1.686837 -4.380094 2.137819 0
M  V30 2 C -2.614976 -4.603138 1.029989 0
M  V30 3 C -1.968111 -4.099269 -0.265638 0
M  V30 4 N -1.711044 -2.686265 -0.130366 0
M  V30 5 C -1.102461 -1.794324 -1.063094 0
M  V30 6 O -0.735282 -2.322589 -2.169974 0
M  V30 7 C -0.841551 -0.386576 -0.951137 0
M  V30 8 C -1.504879 0.600816 -1.712326 0
M  V30 9 N -1.260418 1.940828 -1.606144 0
M  V30 10 C -0.323423 2.378086 -0.715771 0
M  V30 11 O 0.054776 3.639869 -0.472032 0
M  V30 12 C 1.004208 3.619630 0.477257 0
M  V30 13 C 1.668554 4.696099 1.026260 0
M  V30 14 C 2.602555 4.356228 2.001020 0
M  V30 15 C 2.810964 3.042821 2.355734 0
M  V30 16 O 3.749669 2.748937 3.335920 0
M  V30 17 C 2.121768 1.965856 1.780869 0
M  V30 18 C 1.186874 2.314589 0.803704 0
M  V30 19 C 0.383799 1.508808 0.083169 0
M  V30 20 C 0.067655 0.195774 -0.100403 0
M  V30 21 C 0.869931 -0.776529 0.681492 0
M  V30 22 C 0.546472 -1.421409 1.898878 0
M  V30 23 C 1.526519 -2.254820 2.366138 0
M  V30 24 C 2.753906 -2.555707 1.836461 0
M  V30 25 C 3.098838 -1.925337 0.615785 0
M  V30 26 C 2.099478 -1.104144 0.184467 0
M  V30 27 H -1.558756 -5.295608 2.622586 0
M  V30 28 H -2.039037 -3.682299 2.808214 0
M  V30 29 H -3.537760 -4.042868 1.217360 0
M  V30 30 H -2.839927 -5.660284 0.883660 0
M  V30 31 H -2.677123 -4.266373 -1.101155 0
M  V30 32 H -1.019611 -4.663634 -0.394908 0
M  V30 33 H -1.984467 -2.177159 0.741450 0
M  V30 34 H -2.254211 0.282393 -2.421741 0
M  V30 35 H 1.529404 5.725046 0.774087 0
M  V30 36 H 3.215426 5.109247 2.528347 0
M  V30 37 H 3.389176 2.623491 4.297029 0
M  V30 38 H 2.273636 0.941500 2.069459 0
M  V30 39 H -0.409429 -1.141857 2.251138 0
M  V30 40 H 1.224568 -2.732965 3.319909 0
M  V30 41 H 3.378588 -3.254191 2.379363 0
M  V30 42 H 4.063815 -2.211351 0.260158 0
M  V30 43 H 2.423689 -0.630609 -0.774242 0
M  V30 END ATOM
M  V30 BEGIN BOND
M  V30 1 1 1 2
M  V30 2 1 2 3
M  V30 3 1 3 4
M  V30 4 1 4 5
M  V30 5 2 5 6
M  V30 6 1 5 7
M  V30 7 2 7 8
M  V30 8 1 8 9
M  V30 9 2 9 10
M  V30 10 1 10 11
M  V30 11 1 11 12
M  V30 12 2 12 13
M  V30 13 1 13 14
M  V30 14 2 14 15
M  V30 15 1 15 16
M  V30 16 1 15 17
M  V30 17 2 17 18
M  V30 18 1 18 19
M  V30 19 2 19 20
M  V30 20 1 20 21
M  V30 21 2 21 22
M  V30 22 1 22 23
M  V30 23 2 23 24
M  V30 24 1 24 25
M  V30 25 2 25 26
M  V30 26 1 20 7
M  V30 27 1 26 21
M  V30 28 1 19 10
M  V30 29 1 18 12
M  V30 30 1 1 27
M  V30 31 1 1 28
M  V30 32 1 2 29
M  V30 33 1 2 30
M  V30 34 1 3 31
M  V30 35 1 3 32
M  V30 36 1 4 33
M  V30 37 1 8 34
M  V30 38 1 13 35
M  V30 39 1 14 36
M  V30 40 1 16 37
M  V30 41 1 17 38
M  V30 42 1 22 39
M  V30 43 1 23 40
M  V30 44 1 24 41
M  V30 45 1 25 42
M  V30 46 1 26 43
M  V30 END BOND
M  V30 END CTAB
M  END
>  <Dataset>  (446) 
ChEMBL_Kinases

>  <Ligand_Instance>  (446) 
nan

>  <PDB_ID>  (446) 
nan

>  <Standardized_SMILES>  (446) 
NCCNC(=O)c1cnc2oc3ccc(O)cc3c2c1-c1ccccc1

>  <Name>  (446) 
nan

>  <Pocket>  (446) 
nan

>  <ATP_Site>  (446) 
nan

>  <Peripheral>  (446) 
nan

>  <Num_H_Atoms_ProtBoundConf>  (446) 
nan

>  <Num_Resolved_Atoms>  (446) 
nan

>  <Num_Not_Resolved_Atoms>  (446) 
nan

$$$$
CHEMBL3221394
     RDKit          3D

  0  0  0  0  0  0  0  0  0  0999 V3000
M  V30 BEGIN CTAB
M  V30 COUNTS 44 47 0 0 0
M  V30 BEGIN ATOM
M  V30 1 C 2.803099 -3.977062 2.851069 0
M  V30 2 C 1.873052 -4.596071 1.831365 0
M  V30 3 C 2.192802 -4.150946 0.417655 0
M  V30 4 N 2.062680 -2.703934 0.370708 0
M  V30 5 C 2.214899 -1.751902 -0.689649 0
M  V30 6 O 2.525022 -2.345206 -1.783973 0
M  V30 7 C 2.000744 -0.324192 -0.358913 0
M  V30 8 C 3.209706 0.358260 -0.403970 0
M  V30 9 N 3.222131 1.680954 -0.099742 0
M  V30 10 C 2.093634 2.332207 0.241739 0
M  V30 11 O 1.822092 3.572114 0.578035 0
M  V30 12 C 0.525798 3.726320 0.833872 0
M  V30 13 C -0.144706 4.861753 1.215407 0
M  V30 14 C -1.503504 4.713882 1.413427 0
M  V30 15 C -2.143027 3.498071 1.236292 0
M  V30 16 O -3.534662 3.458855 1.467699 0
M  V30 17 C -1.461907 2.360798 0.851447 0
M  V30 18 C -0.083813 2.507956 0.651445 0
M  V30 19 C 0.904773 1.624766 0.276457 0
M  V30 20 C 0.798449 0.284799 -0.016852 0
M  V30 21 C -0.380071 -0.535837 -0.015337 0
M  V30 22 C -0.830996 -1.214885 1.097017 0
M  V30 23 C -1.927719 -2.034557 1.208030 0
M  V30 24 C -2.691043 -2.218821 0.080434 0
M  V30 25 C -2.281185 -1.555899 -1.073733 0
M  V30 26 C -1.160172 -0.719936 -1.181802 0
M  V30 27 H 3.096125 -4.753572 3.582879 0
M  V30 28 H 3.686391 -3.499435 2.365515 0
M  V30 29 H 2.278889 -3.152336 3.419931 0
M  V30 30 H 1.876822 -5.702429 1.870565 0
M  V30 31 H 0.829558 -4.286602 2.128809 0
M  V30 32 H 3.279446 -4.420256 0.258395 0
M  V30 33 H 1.632923 -4.689782 -0.337245 0
M  V30 34 H 1.811082 -2.241959 1.304095 0
M  V30 35 H 4.174570 -0.030282 -0.655348 0
M  V30 36 H 0.387859 5.784509 1.342026 0
M  V30 37 H -2.014383 5.633231 1.720469 0
M  V30 38 H -3.959591 2.811291 2.117370 0
M  V30 39 H -1.964054 1.416873 0.712935 0
M  V30 40 H -0.259734 -1.113845 2.036157 0
M  V30 41 H -2.213205 -2.530830 2.121479 0
M  V30 42 H -3.574147 -2.827527 0.001001 0
M  V30 43 H -2.869048 -1.682880 -1.996158 0
M  V30 44 H -0.907692 -0.236475 -2.113414 0
M  V30 END ATOM
M  V30 BEGIN BOND
M  V30 1 1 1 2
M  V30 2 1 2 3
M  V30 3 1 3 4
M  V30 4 1 4 5
M  V30 5 2 5 6
M  V30 6 1 5 7
M  V30 7 2 7 8
M  V30 8 1 8 9
M  V30 9 2 9 10
M  V30 10 1 10 11
M  V30 11 1 11 12
M  V30 12 2 12 13
M  V30 13 1 13 14
M  V30 14 2 14 15
M  V30 15 1 15 16
M  V30 16 1 15 17
M  V30 17 2 17 18
M  V30 18 1 18 19
M  V30 19 2 19 20
M  V30 20 1 20 21
M  V30 21 2 21 22
M  V30 22 1 22 23
M  V30 23 2 23 24
M  V30 24 1 24 25
M  V30 25 2 25 26
M  V30 26 1 20 7
M  V30 27 1 26 21
M  V30 28 1 19 10
M  V30 29 1 18 12
M  V30 30 1 1 27
M  V30 31 1 1 28
M  V30 32 1 1 29
M  V30 33 1 2 30
M  V30 34 1 2 31
M  V30 35 1 3 32
M  V30 36 1 3 33
M  V30 37 1 4 34
M  V30 38 1 8 35
M  V30 39 1 13 36
M  V30 40 1 14 37
M  V30 41 1 16 38
M  V30 42 1 17 39
M  V30 43 1 22 40
M  V30 44 1 23 41
M  V30 45 1 24 42
M  V30 46 1 25 43
M  V30 47 1 26 44
M  V30 END BOND
M  V30 END CTAB
M  END
>  <Dataset>  (447) 
ChEMBL_Kinases

>  <Ligand_Instance>  (447) 
nan

>  <PDB_ID>  (447) 
nan

>  <Standardized_SMILES>  (447) 
CCCNC(=O)c1cnc2oc3ccc(O)cc3c2c1-c1ccccc1

>  <Name>  (447) 
nan

>  <Pocket>  (447) 
nan

>  <ATP_Site>  (447) 
nan

>  <Peripheral>  (447) 
nan

>  <Num_H_Atoms_ProtBoundConf>  (447) 
nan

>  <Num_Resolved_Atoms>  (447) 
nan

>  <Num_Not_Resolved_Atoms>  (447) 
nan

$$$$
CHEMBL3221392
     RDKit          3D

  0  0  0  0  0  0  0  0  0  0999 V3000
M  V30 BEGIN CTAB
M  V30 COUNTS 38 41 0 0 0
M  V30 BEGIN ATOM
M  V30 1 C 1.049597 -4.612364 3.209376 0
M  V30 2 N 1.510409 -3.279391 2.804523 0
M  V30 3 C 1.383651 -3.180263 1.416925 0
M  V30 4 O 0.943276 -4.090826 0.636155 0
M  V30 5 C 1.669619 -2.129801 0.448647 0
M  V30 6 C 2.783869 -2.197388 -0.394394 0
M  V30 7 N 3.065805 -1.222507 -1.307543 0
M  V30 8 C 2.263918 -0.142693 -1.428626 0
M  V30 9 O 2.290619 0.930308 -2.207624 0
M  V30 10 C 1.277606 1.713450 -1.950842 0
M  V30 11 C 0.881178 2.938253 -2.499025 0
M  V30 12 C -0.257544 3.570058 -2.034904 0
M  V30 13 C -0.995051 2.975295 -1.024876 0
M  V30 14 O -2.143255 3.597876 -0.546643 0
M  V30 15 C -0.602133 1.753442 -0.476003 0
M  V30 16 C 0.534161 1.130506 -0.944746 0
M  V30 17 C 1.155938 -0.051230 -0.607284 0
M  V30 18 C 0.837365 -1.014859 0.327423 0
M  V30 19 C -0.317506 -0.944566 1.200693 0
M  V30 20 C -0.013841 -0.287263 2.398808 0
M  V30 21 C -0.952030 -0.098933 3.390225 0
M  V30 22 C -2.234206 -0.580387 3.182436 0
M  V30 23 C -2.539344 -1.230285 2.000705 0
M  V30 24 C -1.599964 -1.418984 1.008057 0
M  V30 25 H 1.093947 -4.722890 4.310388 0
M  V30 26 H 0.016723 -4.788167 2.817073 0
M  V30 27 H 1.714883 -5.341471 2.700349 0
M  V30 28 H 1.888229 -2.407503 3.183373 0
M  V30 29 H 3.402923 -3.081013 -0.265500 0
M  V30 30 H 1.505571 3.366692 -3.299830 0
M  V30 31 H -0.562928 4.519632 -2.461332 0
M  V30 32 H -2.300601 4.595961 -0.587854 0
M  V30 33 H -1.220555 1.359695 0.297840 0
M  V30 34 H 0.962699 0.130949 2.668236 0
M  V30 35 H -0.762058 0.399462 4.323252 0
M  V30 36 H -2.998593 -0.450056 3.939791 0
M  V30 37 H -3.528992 -1.624256 1.794997 0
M  V30 38 H -1.728665 -1.905617 0.059935 0
M  V30 END ATOM
M  V30 BEGIN BOND
M  V30 1 1 1 2
M  V30 2 1 2 3
M  V30 3 2 3 4
M  V30 4 1 3 5
M  V30 5 2 5 6
M  V30 6 1 6 7
M  V30 7 2 7 8
M  V30 8 1 8 9
M  V30 9 1 9 10
M  V30 10 2 10 11
M  V30 11 1 11 12
M  V30 12 2 12 13
M  V30 13 1 13 14
M  V30 14 1 13 15
M  V30 15 2 15 16
M  V30 16 1 16 17
M  V30 17 2 17 18
M  V30 18 1 18 19
M  V30 19 2 19 20
M  V30 20 1 20 21
M  V30 21 2 21 22
M  V30 22 1 22 23
M  V30 23 2 23 24
M  V30 24 1 18 5
M  V30 25 1 24 19
M  V30 26 1 17 8
M  V30 27 1 16 10
M  V30 28 1 1 25
M  V30 29 1 1 26
M  V30 30 1 1 27
M  V30 31 1 2 28
M  V30 32 1 6 29
M  V30 33 1 11 30
M  V30 34 1 12 31
M  V30 35 1 14 32
M  V30 36 1 15 33
M  V30 37 1 20 34
M  V30 38 1 21 35
M  V30 39 1 22 36
M  V30 40 1 23 37
M  V30 41 1 24 38
M  V30 END BOND
M  V30 END CTAB
M  END
>  <Dataset>  (448) 
ChEMBL_Kinases

>  <Ligand_Instance>  (448) 
nan

>  <PDB_ID>  (448) 
nan

>  <Standardized_SMILES>  (448) 
CNC(=O)c1cnc2oc3ccc(O)cc3c2c1-c1ccccc1

>  <Name>  (448) 
nan

>  <Pocket>  (448) 
nan

>  <ATP_Site>  (448) 
nan

>  <Peripheral>  (448) 
nan

>  <Num_H_Atoms_ProtBoundConf>  (448) 
nan

>  <Num_Resolved_Atoms>  (448) 
nan

>  <Num_Not_Resolved_Atoms>  (448) 
nan

$$$$
CHEMBL3219062
     RDKit          3D

  0  0  0  0  0  0  0  0  0  0999 V3000
M  V30 BEGIN CTAB
M  V30 COUNTS 45 49 0 0 0
M  V30 BEGIN ATOM
M  V30 1 C -1.845073 -6.234444 2.232060 0
M  V30 2 O -0.440208 -6.238468 2.520915 0
M  V30 3 C 0.278856 -5.091966 2.185480 0
M  V30 4 C 1.629182 -5.117890 2.472733 0
M  V30 5 C 2.401967 -3.998975 2.160602 0
M  V30 6 C 1.722497 -2.948847 1.579704 0
M  V30 7 N 2.257345 -1.757357 1.189601 0
M  V30 8 C 1.279561 -0.978378 0.662304 0
M  V30 9 C 1.315790 0.368919 0.105787 0
M  V30 10 C 1.147668 0.801165 -1.192116 0
M  V30 11 C 1.204007 2.142964 -1.501883 0
M  V30 12 C 1.430040 3.112704 -0.536980 0
M  V30 13 C 1.475208 4.447505 -0.905162 0
M  V30 14 C 1.702515 5.367035 0.098019 0
M  V30 15 O 1.745265 6.702169 -0.297809 0
M  V30 16 C 1.878263 4.981984 1.411071 0
M  V30 17 C 1.831073 3.650277 1.771661 0
M  V30 18 C 1.605077 2.703292 0.791087 0
M  V30 19 C 1.542428 1.348555 1.068833 0
M  V30 20 C 0.063910 -1.677803 0.707527 0
M  V30 21 C -1.281692 -1.368920 0.301990 0
M  V30 22 C -2.243728 -1.250369 1.297124 0
M  V30 23 C -3.580078 -0.951560 1.025776 0
M  V30 24 N -3.971578 -0.766150 -0.264189 0
M  V30 25 C -3.064453 -0.872689 -1.277513 0
M  V30 26 C -1.752141 -1.168379 -0.979404 0
M  V30 27 C 0.372506 -2.905051 1.285143 0
M  V30 28 N -0.321843 -4.010900 1.608115 0
M  V30 29 H -2.321159 -6.856518 2.996779 0
M  V30 30 H -2.254177 -5.200433 2.292726 0
M  V30 31 H -2.037247 -6.693036 1.244810 0
M  V30 32 H 2.092600 -5.994284 2.936873 0
M  V30 33 H 3.458536 -3.954949 2.359393 0
M  V30 34 H 3.257162 -1.432391 1.256656 0
M  V30 35 H 0.977907 -0.011081 -1.884269 0
M  V30 36 H 1.062168 2.394480 -2.554835 0
M  V30 37 H 1.325549 4.652890 -1.955702 0
M  V30 38 H 1.989211 7.454212 0.312319 0
M  V30 39 H 2.053402 5.737220 2.159160 0
M  V30 40 H 1.966151 3.322661 2.803224 0
M  V30 41 H 1.691000 1.131403 2.121326 0
M  V30 42 H -2.048153 -1.376459 2.352285 0
M  V30 43 H -4.328077 -0.856508 1.803916 0
M  V30 44 H -3.398117 -0.721800 -2.272344 0
M  V30 45 H -1.040286 -1.256834 -1.772646 0
M  V30 END ATOM
M  V30 BEGIN BOND
M  V30 1 1 1 2
M  V30 2 1 2 3
M  V30 3 2 3 4
M  V30 4 1 4 5
M  V30 5 2 5 6
M  V30 6 1 6 7
M  V30 7 1 7 8
M  V30 8 1 8 9
M  V30 9 2 9 10
M  V30 10 1 10 11
M  V30 11 2 11 12
M  V30 12 1 12 13
M  V30 13 2 13 14
M  V30 14 1 14 15
M  V30 15 1 14 16
M  V30 16 2 16 17
M  V30 17 1 17 18
M  V30 18 2 18 19
M  V30 19 2 8 20
M  V30 20 1 20 21
M  V30 21 2 21 22
M  V30 22 1 22 23
M  V30 23 2 23 24
M  V30 24 1 24 25
M  V30 25 2 25 26
M  V30 26 1 20 27
M  V30 27 2 27 28
M  V30 28 1 28 3
M  V30 29 1 27 6
M  V30 30 1 19 9
M  V30 31 1 26 21
M  V30 32 1 18 12
M  V30 33 1 1 29
M  V30 34 1 1 30
M  V30 35 1 1 31
M  V30 36 1 4 32
M  V30 37 1 5 33
M  V30 38 1 7 34
M  V30 39 1 10 35
M  V30 40 1 11 36
M  V30 41 1 13 37
M  V30 42 1 15 38
M  V30 43 1 16 39
M  V30 44 1 17 40
M  V30 45 1 19 41
M  V30 46 1 22 42
M  V30 47 1 23 43
M  V30 48 1 25 44
M  V30 49 1 26 45
M  V30 END BOND
M  V30 END CTAB
M  END
>  <Dataset>  (449) 
ChEMBL_Kinases

>  <Ligand_Instance>  (449) 
nan

>  <PDB_ID>  (449) 
nan

>  <Standardized_SMILES>  (449) 
COc1ccc2[nH]c(-c3ccc4cc(O)ccc4c3)c(-c3ccncc3)c2n1

>  <Name>  (449) 
nan

>  <Pocket>  (449) 
nan

>  <ATP_Site>  (449) 
nan

>  <Peripheral>  (449) 
nan

>  <Num_H_Atoms_ProtBoundConf>  (449) 
nan

>  <Num_Resolved_Atoms>  (449) 
nan

>  <Num_Not_Resolved_Atoms>  (449) 
nan

$$$$
CHEMBL3219065
     RDKit          3D

  0  0  0  0  0  0  0  0  0  0999 V3000
M  V30 BEGIN CTAB
M  V30 COUNTS 39 42 0 0 0
M  V30 BEGIN ATOM
M  V30 1 C -0.039888 -5.594492 2.677633 0
M  V30 2 O 1.339523 -5.272129 2.596089 0
M  V30 3 C 1.714314 -4.020760 2.136382 0
M  V30 4 C 3.041443 -3.667955 2.041868 0
M  V30 5 C 3.453953 -2.431931 1.589032 0
M  V30 6 C 2.521383 -1.471856 1.201297 0
M  V30 7 N 2.601976 -0.227938 0.736036 0
M  V30 8 C 1.339715 0.226924 0.528821 0
M  V30 9 C 1.015588 1.555541 0.020043 0
M  V30 10 C 0.354167 1.463192 -1.206709 0
M  V30 11 C -0.044438 2.632552 -1.863708 0
M  V30 12 C 0.218203 3.865892 -1.296115 0
M  V30 13 C 0.880319 3.935431 -0.069592 0
M  V30 14 O 1.162352 5.136330 0.531603 0
M  V30 15 C 1.276964 2.787609 0.585204 0
M  V30 16 C 0.467294 -0.785116 0.884192 0
M  V30 17 C -0.982220 -0.636546 0.786839 0
M  V30 18 C -1.828457 -1.405320 -0.003959 0
M  V30 19 C -3.174344 -1.137333 0.017199 0
M  V30 20 C -3.682027 -0.130002 0.802699 0
M  V30 21 C -2.832324 0.628603 1.585311 0
M  V30 22 N -1.529949 0.347499 1.546110 0
M  V30 23 C 1.189330 -1.880186 1.316542 0
M  V30 24 N 0.828029 -3.079633 1.757104 0
M  V30 25 H -0.430792 -5.987151 1.696908 0
M  V30 26 H -0.587798 -4.641802 2.833699 0
M  V30 27 H -0.276258 -6.285876 3.509202 0
M  V30 28 H 3.762953 -4.436231 2.351433 0
M  V30 29 H 4.517884 -2.212989 1.537264 0
M  V30 30 H 3.520363 0.275071 0.573369 0
M  V30 31 H 0.093655 0.569514 -1.747386 0
M  V30 32 H -0.560021 2.650952 -2.813907 0
M  V30 33 H -0.087578 4.782408 -1.798596 0
M  V30 34 H 0.632639 5.485225 1.324321 0
M  V30 35 H 1.790717 2.724895 1.529208 0
M  V30 36 H -1.341782 -2.188446 -0.600271 0
M  V30 37 H -3.824430 -1.753932 -0.612786 0
M  V30 38 H -4.747063 0.090799 0.826943 0
M  V30 39 H -3.166429 1.448383 2.236792 0
M  V30 END ATOM
M  V30 BEGIN BOND
M  V30 1 1 1 2
M  V30 2 1 2 3
M  V30 3 2 3 4
M  V30 4 1 4 5
M  V30 5 2 5 6
M  V30 6 1 6 7
M  V30 7 1 7 8
M  V30 8 1 8 9
M  V30 9 2 9 10
M  V30 10 1 10 11
M  V30 11 2 11 12
M  V30 12 1 12 13
M  V30 13 1 13 14
M  V30 14 2 13 15
M  V30 15 2 8 16
M  V30 16 1 16 17
M  V30 17 2 17 18
M  V30 18 1 18 19
M  V30 19 2 19 20
M  V30 20 1 20 21
M  V30 21 2 21 22
M  V30 22 1 16 23
M  V30 23 2 23 24
M  V30 24 1 24 3
M  V30 25 1 23 6
M  V30 26 1 15 9
M  V30 27 1 22 17
M  V30 28 1 1 25
M  V30 29 1 1 26
M  V30 30 1 1 27
M  V30 31 1 4 28
M  V30 32 1 5 29
M  V30 33 1 7 30
M  V30 34 1 10 31
M  V30 35 1 11 32
M  V30 36 1 12 33
M  V30 37 1 14 34
M  V30 38 1 15 35
M  V30 39 1 18 36
M  V30 40 1 19 37
M  V30 41 1 20 38
M  V30 42 1 21 39
M  V30 END BOND
M  V30 END CTAB
M  END
>  <Dataset>  (450) 
ChEMBL_Kinases

>  <Ligand_Instance>  (450) 
nan

>  <PDB_ID>  (450) 
nan

>  <Standardized_SMILES>  (450) 
COc1ccc2[nH]c(-c3cccc(O)c3)c(-c3ccccn3)c2n1

>  <Name>  (450) 
nan

>  <Pocket>  (450) 
nan

>  <ATP_Site>  (450) 
nan

>  <Peripheral>  (450) 
nan

>  <Num_H_Atoms_ProtBoundConf>  (450) 
nan

>  <Num_Resolved_Atoms>  (450) 
nan

>  <Num_Not_Resolved_Atoms>  (450) 
nan

$$$$
CHEMBL3219237
     RDKit          3D

  0  0  0  0  0  0  0  0  0  0999 V3000
M  V30 BEGIN CTAB
M  V30 COUNTS 53 57 0 0 0
M  V30 BEGIN ATOM
M  V30 1 C 0.156945 0.982573 6.553943 0
M  V30 2 S 1.931092 0.960044 6.133366 0
M  V30 3 C 2.094946 1.052264 4.356474 0
M  V30 4 N 3.282404 1.056297 3.696515 0
M  V30 5 C 3.021476 1.135075 2.368130 0
M  V30 6 C 4.029483 1.164827 1.316092 0
M  V30 7 C 3.911644 0.049939 0.483652 0
M  V30 8 C 4.766251 -0.149803 -0.601698 0
M  V30 9 C 5.739302 0.800792 -0.824724 0
M  V30 10 F 6.584590 0.632377 -1.873338 0
M  V30 11 C 5.861578 1.899987 -0.010529 0
M  V30 12 C 5.017009 2.096109 1.060937 0
M  V30 13 C 1.655927 1.181743 2.179163 0
M  V30 14 C 0.994378 1.269220 0.881274 0
M  V30 15 C 1.161173 2.340748 0.028987 0
M  V30 16 C 0.548746 2.456045 -1.208807 0
M  V30 17 N -0.265793 1.435760 -1.589344 0
M  V30 18 C -0.448984 0.370898 -0.774044 0
M  V30 19 N -1.294044 -0.715642 -1.139264 0
M  V30 20 C -2.665082 -0.694437 -0.799529 0
M  V30 21 O -3.456734 0.119846 -0.184033 0
M  V30 22 C -4.056212 -1.069574 -0.662148 0
M  V30 23 C -4.833927 -1.631217 -1.845853 0
M  V30 24 C -4.609537 -2.416571 -0.550115 0
M  V30 25 C -3.911490 -3.680894 -0.697247 0
M  V30 26 C -3.014636 -4.033127 -1.697250 0
M  V30 27 C -2.360760 -5.242522 -1.798826 0
M  V30 28 C -2.606692 -6.192250 -0.836111 0
M  V30 29 C -3.477048 -5.963076 0.207839 0
M  V30 30 C -4.083004 -4.724598 0.224815 0
M  V30 31 C 0.162668 0.245537 0.473151 0
M  V30 32 N 1.128245 1.128548 3.423696 0
M  V30 33 H 0.000637 0.654864 7.607140 0
M  V30 34 H -0.435758 0.285687 5.920677 0
M  V30 35 H -0.300240 1.973454 6.429579 0
M  V30 36 H 3.176911 -0.754854 0.577433 0
M  V30 37 H 4.708140 -0.984440 -1.257335 0
M  V30 38 H 6.610024 2.664036 -0.153868 0
M  V30 39 H 5.002262 2.902048 1.769366 0
M  V30 40 H 1.809614 3.158484 0.325864 0
M  V30 41 H 0.707189 3.319796 -1.852190 0
M  V30 42 H -1.379183 -1.647587 -1.605325 0
M  V30 43 H -4.645774 -0.268018 -0.100932 0
M  V30 44 H -4.258833 -1.893668 -2.747154 0
M  V30 45 H -5.855385 -1.238144 -2.029949 0
M  V30 46 H -5.529901 -2.516248 0.101359 0
M  V30 47 H -2.818010 -3.300458 -2.465793 0
M  V30 48 H -1.682476 -5.413221 -2.617533 0
M  V30 49 H -2.119705 -7.152315 -0.872772 0
M  V30 50 H -3.702115 -6.675025 0.985028 0
M  V30 51 H -4.771193 -4.532966 1.043502 0
M  V30 52 H 0.006640 -0.606542 1.108447 0
M  V30 53 H 0.099307 1.146213 3.606885 0
M  V30 END ATOM
M  V30 BEGIN BOND
M  V30 1 1 1 2
M  V30 2 1 2 3
M  V30 3 2 3 4
M  V30 4 1 4 5
M  V30 5 1 5 6
M  V30 6 2 6 7
M  V30 7 1 7 8
M  V30 8 2 8 9
M  V30 9 1 9 10
M  V30 10 1 9 11
M  V30 11 2 11 12
M  V30 12 2 5 13
M  V30 13 1 13 14
M  V30 14 2 14 15
M  V30 15 1 15 16
M  V30 16 2 16 17
M  V30 17 1 17 18
M  V30 18 1 18 19
M  V30 19 1 19 20
M  V30 20 2 20 21
M  V30 21 1 20 22
M  V30 22 1 22 23
M  V30 23 1 23 24
M  V30 24 1 24 25
M  V30 25 2 25 26
M  V30 26 1 26 27
M  V30 27 2 27 28
M  V30 28 1 28 29
M  V30 29 2 29 30
M  V30 30 2 18 31
M  V30 31 1 13 32
M  V30 32 1 32 3
M  V30 33 1 12 6
M  V30 34 1 31 14
M  V30 35 1 24 22
M  V30 36 1 30 25
M  V30 37 1 1 33
M  V30 38 1 1 34
M  V30 39 1 1 35
M  V30 40 1 7 36
M  V30 41 1 8 37
M  V30 42 1 11 38
M  V30 43 1 12 39
M  V30 44 1 15 40
M  V30 45 1 16 41
M  V30 46 1 19 42
M  V30 47 1 22 43
M  V30 48 1 23 44
M  V30 49 1 23 45
M  V30 50 1 24 46
M  V30 51 1 26 47
M  V30 52 1 27 48
M  V30 53 1 28 49
M  V30 54 1 29 50
M  V30 55 1 30 51
M  V30 56 1 31 52
M  V30 57 1 32 53
M  V30 END BOND
M  V30 END CTAB
M  END
>  <Dataset>  (451) 
ChEMBL_Kinases

>  <Ligand_Instance>  (451) 
nan

>  <PDB_ID>  (451) 
nan

>  <Standardized_SMILES>  (451) 
CSc1nc(-c2ccc(F)cc2)c(-c2ccnc(NC(=O)C3CC3c3ccccc3)c2)[nH]1

>  <Name>  (451) 
nan

>  <Pocket>  (451) 
nan

>  <ATP_Site>  (451) 
nan

>  <Peripheral>  (451) 
nan

>  <Num_H_Atoms_ProtBoundConf>  (451) 
nan

>  <Num_Resolved_Atoms>  (451) 
nan

>  <Num_Not_Resolved_Atoms>  (451) 
nan

$$$$
CHEMBL3219238
     RDKit          3D

  0  0  0  0  0  0  0  0  0  0999 V3000
M  V30 BEGIN CTAB
M  V30 COUNTS 46 49 0 0 0
M  V30 BEGIN ATOM
M  V30 1 C -2.988874 -2.266907 6.034274 0
M  V30 2 S -2.432658 -0.540817 6.270111 0
M  V30 3 C -1.247134 -0.155888 4.964181 0
M  V30 4 N 0.096015 -0.359536 5.094540 0
M  V30 5 C 0.697558 0.028400 3.946679 0
M  V30 6 C 2.078814 0.055822 3.480582 0
M  V30 7 C 2.853155 1.132394 3.108344 0
M  V30 8 C 4.150384 0.942106 2.693880 0
M  V30 9 C 4.716206 -0.330575 2.638015 0
M  V30 10 F 6.002779 -0.468723 2.222503 0
M  V30 11 C 3.934393 -1.406698 3.012816 0
M  V30 12 C 2.613424 -1.220921 3.435629 0
M  V30 13 C -0.297013 0.477022 3.100479 0
M  V30 14 C -0.354188 1.029497 1.729319 0
M  V30 15 C -0.888508 2.315957 1.608926 0
M  V30 16 C -0.964569 2.881510 0.350493 0
M  V30 17 N -0.530127 2.196369 -0.723778 0
M  V30 18 C -0.014447 0.952279 -0.600566 0
M  V30 19 N 0.450577 0.216564 -1.746316 0
M  V30 20 C -0.617173 -0.545257 -2.279462 0
M  V30 21 O -1.688048 -0.371297 -1.604027 0
M  V30 22 C -0.510571 -1.419846 -3.451997 0
M  V30 23 C 0.646085 -1.603815 -4.176450 0
M  V30 24 C 0.554454 -2.470850 -5.254819 0
M  V30 25 C -0.602471 -3.129147 -5.615356 0
M  V30 26 F -0.658877 -3.969756 -6.675818 0
M  V30 27 C -1.758779 -2.927300 -4.867992 0
M  V30 28 C -1.672421 -2.073621 -3.804738 0
M  V30 29 C 0.091303 0.322877 0.640557 0
M  V30 30 N -1.485397 0.362157 3.728438 0
M  V30 31 H -2.701269 -2.912912 6.887883 0
M  V30 32 H -4.103348 -2.236278 5.891810 0
M  V30 33 H -2.552662 -2.685607 5.089918 0
M  V30 34 H 2.331067 2.076423 3.184523 0
M  V30 35 H 4.702816 1.830815 2.414280 0
M  V30 36 H 4.414276 -2.379768 2.954810 0
M  V30 37 H 2.131757 -2.146225 3.694440 0
M  V30 38 H -1.251425 2.908633 2.441923 0
M  V30 39 H -1.362391 3.875947 0.144710 0
M  V30 40 H 1.396481 0.151187 -2.229560 0
M  V30 41 H 1.523456 -1.083679 -3.876129 0
M  V30 42 H 1.446545 -2.636137 -5.843405 0
M  V30 43 H -2.681559 -3.426920 -5.122228 0
M  V30 44 H -2.603769 -1.938794 -3.237131 0
M  V30 45 H 0.499974 -0.669411 0.754977 0
M  V30 46 H -2.475547 0.574252 3.478634 0
M  V30 END ATOM
M  V30 BEGIN BOND
M  V30 1 1 1 2
M  V30 2 1 2 3
M  V30 3 2 3 4
M  V30 4 1 4 5
M  V30 5 1 5 6
M  V30 6 2 6 7
M  V30 7 1 7 8
M  V30 8 2 8 9
M  V30 9 1 9 10
M  V30 10 1 9 11
M  V30 11 2 11 12
M  V30 12 2 5 13
M  V30 13 1 13 14
M  V30 14 2 14 15
M  V30 15 1 15 16
M  V30 16 2 16 17
M  V30 17 1 17 18
M  V30 18 1 18 19
M  V30 19 1 19 20
M  V30 20 2 20 21
M  V30 21 1 20 22
M  V30 22 2 22 23
M  V30 23 1 23 24
M  V30 24 2 24 25
M  V30 25 1 25 26
M  V30 26 1 25 27
M  V30 27 2 27 28
M  V30 28 2 18 29
M  V30 29 1 13 30
M  V30 30 1 30 3
M  V30 31 1 12 6
M  V30 32 1 29 14
M  V30 33 1 28 22
M  V30 34 1 1 31
M  V30 35 1 1 32
M  V30 36 1 1 33
M  V30 37 1 7 34
M  V30 38 1 8 35
M  V30 39 1 11 36
M  V30 40 1 12 37
M  V30 41 1 15 38
M  V30 42 1 16 39
M  V30 43 1 19 40
M  V30 44 1 23 41
M  V30 45 1 24 42
M  V30 46 1 27 43
M  V30 47 1 28 44
M  V30 48 1 29 45
M  V30 49 1 30 46
M  V30 END BOND
M  V30 END CTAB
M  END
>  <Dataset>  (452) 
ChEMBL_Kinases

>  <Ligand_Instance>  (452) 
nan

>  <PDB_ID>  (452) 
nan

>  <Standardized_SMILES>  (452) 
CSc1nc(-c2ccc(F)cc2)c(-c2ccnc(NC(=O)c3ccc(F)cc3)c2)[nH]1

>  <Name>  (452) 
nan

>  <Pocket>  (452) 
nan

>  <ATP_Site>  (452) 
nan

>  <Peripheral>  (452) 
nan

>  <Num_H_Atoms_ProtBoundConf>  (452) 
nan

>  <Num_Resolved_Atoms>  (452) 
nan

>  <Num_Not_Resolved_Atoms>  (452) 
nan

$$$$
CHEMBL3219382
     RDKit          3D

  0  0  0  0  0  0  0  0  0  0999 V3000
M  V30 BEGIN CTAB
M  V30 COUNTS 34 36 0 0 0
M  V30 BEGIN ATOM
M  V30 1 C -0.342695 -4.946096 1.198743 0
M  V30 2 C 0.775799 -4.034161 1.440925 0
M  V30 3 C 2.049887 -4.487708 1.698107 0
M  V30 4 C 2.753387 -3.328085 1.774118 0
M  V30 5 O 1.955560 -2.345949 1.581482 0
M  V30 6 C 0.699056 -2.679679 1.366564 0
M  V30 7 C -0.261696 -1.641634 1.135887 0
M  V30 8 C 0.197681 -0.438727 0.580911 0
M  V30 9 C -0.517303 0.699723 0.305237 0
M  V30 10 C 0.082686 1.869076 -0.275843 0
M  V30 11 C 1.407558 2.035092 -0.616350 0
M  V30 12 C 1.960561 3.161698 -1.174998 0
M  V30 13 C 1.146786 4.247522 -1.433762 0
M  V30 14 Br 1.880806 5.824692 -2.207490 0
M  V30 15 C -0.208001 4.126444 -1.104738 0
M  V30 16 C -0.701087 2.970332 -0.546898 0
M  V30 17 N -1.820913 0.633054 0.614210 0
M  V30 18 C -2.389516 -0.456851 1.152343 0
M  V30 19 N -3.637296 -0.469350 1.428411 0
M  V30 20 C -1.600644 -1.560624 1.400057 0
M  V30 21 C -2.246191 -2.653569 2.057748 0
M  V30 22 N -2.766050 -3.512458 2.596978 0
M  V30 23 H -1.078759 -4.608185 0.439967 0
M  V30 24 H -0.798969 -5.330216 2.132959 0
M  V30 25 H 0.047538 -5.914755 0.717843 0
M  V30 26 H 2.392115 -5.504430 1.809047 0
M  V30 27 H 3.832148 -3.206799 1.967445 0
M  V30 28 H 1.260681 -0.363344 0.316507 0
M  V30 29 H 2.097699 1.245980 -0.448472 0
M  V30 30 H 3.010007 3.236941 -1.422561 0
M  V30 31 H -0.773243 5.012965 -1.336994 0
M  V30 32 H -1.741697 3.066529 -0.369169 0
M  V30 33 H -2.462340 1.430961 0.450438 0
M  V30 34 H -4.205163 0.378127 1.229589 0
M  V30 END ATOM
M  V30 BEGIN BOND
M  V30 1 1 1 2
M  V30 2 1 2 3
M  V30 3 2 3 4
M  V30 4 1 4 5
M  V30 5 1 5 6
M  V30 6 1 6 7
M  V30 7 1 7 8
M  V30 8 2 8 9
M  V30 9 1 9 10
M  V30 10 2 10 11
M  V30 11 1 11 12
M  V30 12 2 12 13
M  V30 13 1 13 14
M  V30 14 1 13 15
M  V30 15 2 15 16
M  V30 16 1 9 17
M  V30 17 1 17 18
M  V30 18 2 18 19 CFG=2
M  V30 19 1 18 20
M  V30 20 1 20 21
M  V30 21 3 21 22
M  V30 22 2 6 2
M  V30 23 2 20 7
M  V30 24 1 16 10
M  V30 25 1 1 23
M  V30 26 1 1 24
M  V30 27 1 1 25
M  V30 28 1 3 26
M  V30 29 1 4 27
M  V30 30 1 8 28
M  V30 31 1 11 29
M  V30 32 1 12 30
M  V30 33 1 15 31
M  V30 34 1 16 32
M  V30 35 1 17 33
M  V30 36 1 19 34
M  V30 END BOND
M  V30 END CTAB
M  END
>  <Dataset>  (453) 
ChEMBL_Kinases

>  <Ligand_Instance>  (453) 
nan

>  <PDB_ID>  (453) 
nan

>  <Standardized_SMILES>  (453) 
Cc1ccoc1-c1cc(-c2ccc(Br)cc2)[nH]c(=N)c1C#N

>  <Name>  (453) 
nan

>  <Pocket>  (453) 
nan

>  <ATP_Site>  (453) 
nan

>  <Peripheral>  (453) 
nan

>  <Num_H_Atoms_ProtBoundConf>  (453) 
nan

>  <Num_Resolved_Atoms>  (453) 
nan

>  <Num_Not_Resolved_Atoms>  (453) 
nan

$$$$
CHEMBL3219383
     RDKit          3D

  0  0  0  0  0  0  0  0  0  0999 V3000
M  V30 BEGIN CTAB
M  V30 COUNTS 34 36 0 0 0
M  V30 BEGIN ATOM
M  V30 1 N 4.259035 -1.823947 2.218983 0
M  V30 2 C 3.178293 -1.425333 2.058969 0
M  V30 3 C 1.847980 -0.926077 1.840399 0
M  V30 4 C 1.215954 -0.937844 0.614363 0
M  V30 5 C 1.952266 -1.491952 -0.517922 0
M  V30 6 C 1.135934 -2.345265 -1.269256 0
M  V30 7 C 1.642438 -2.985465 -2.402547 0
M  V30 8 C 2.959550 -2.781623 -2.794266 0
M  V30 9 Cl 3.658532 -3.558588 -4.212598 0
M  V30 10 C 3.734121 -1.933149 -2.028286 0
M  V30 11 Cl 5.391406 -1.625659 -2.451458 0
M  V30 12 C 3.245501 -1.296714 -0.909251 0
M  V30 13 C -0.062765 -0.438992 0.490035 0
M  V30 14 C -0.773131 0.083156 1.525516 0
M  V30 15 C -2.122534 0.605692 1.376480 0
M  V30 16 C -2.847744 1.135860 2.419834 0
M  V30 17 C -4.128128 1.639823 2.315151 0
M  V30 18 C -4.741641 1.614412 1.062464 0
M  V30 19 Br -6.504379 2.297481 0.869861 0
M  V30 20 C -4.068850 1.096278 -0.023910 0
M  V30 21 C -2.782522 0.609276 0.168212 0
M  V30 22 N -0.135756 0.082817 2.706886 0
M  V30 23 C 1.124039 -0.394493 2.893214 0
M  V30 24 N 1.699228 -0.377184 4.038807 0
M  V30 25 H 0.083946 -2.587414 -1.064879 0
M  V30 26 H 1.040657 -3.652449 -3.008318 0
M  V30 27 H 3.780370 -0.627584 -0.266566 0
M  V30 28 H -0.456314 -0.497166 -0.502562 0
M  V30 29 H -2.443327 1.188205 3.405992 0
M  V30 30 H -4.671129 2.048190 3.147717 0
M  V30 31 H -4.561276 1.086283 -0.982531 0
M  V30 32 H -2.332503 0.224602 -0.730155 0
M  V30 33 H -0.566591 0.451797 3.570685 0
M  V30 34 H 1.247734 -0.000457 4.899176 0
M  V30 END ATOM
M  V30 BEGIN BOND
M  V30 1 3 1 2
M  V30 2 1 2 3
M  V30 3 2 3 4
M  V30 4 1 4 5
M  V30 5 2 5 6
M  V30 6 1 6 7
M  V30 7 2 7 8
M  V30 8 1 8 9
M  V30 9 1 8 10
M  V30 10 1 10 11
M  V30 11 2 10 12
M  V30 12 1 4 13
M  V30 13 2 13 14
M  V30 14 1 14 15
M  V30 15 2 15 16
M  V30 16 1 16 17
M  V30 17 2 17 18
M  V30 18 1 18 19
M  V30 19 1 18 20
M  V30 20 2 20 21
M  V30 21 1 14 22
M  V30 22 1 22 23
M  V30 23 2 23 24 CFG=2
M  V30 24 1 23 3
M  V30 25 1 12 5
M  V30 26 1 21 15
M  V30 27 1 6 25
M  V30 28 1 7 26
M  V30 29 1 12 27
M  V30 30 1 13 28
M  V30 31 1 16 29
M  V30 32 1 17 30
M  V30 33 1 20 31
M  V30 34 1 21 32
M  V30 35 1 22 33
M  V30 36 1 24 34
M  V30 END BOND
M  V30 END CTAB
M  END
>  <Dataset>  (454) 
ChEMBL_Kinases

>  <Ligand_Instance>  (454) 
nan

>  <PDB_ID>  (454) 
nan

>  <Standardized_SMILES>  (454) 
N#Cc1c(-c2ccc(Cl)c(Cl)c2)cc(-c2ccc(Br)cc2)[nH]c1=N

>  <Name>  (454) 
nan

>  <Pocket>  (454) 
nan

>  <ATP_Site>  (454) 
nan

>  <Peripheral>  (454) 
nan

>  <Num_H_Atoms_ProtBoundConf>  (454) 
nan

>  <Num_Resolved_Atoms>  (454) 
nan

>  <Num_Not_Resolved_Atoms>  (454) 
nan

$$$$
CHEMBL321939
     RDKit          3D

  0  0  0  0  0  0  0  0  0  0999 V3000
M  V30 BEGIN CTAB
M  V30 COUNTS 55 58 0 0 0
M  V30 BEGIN ATOM
M  V30 1 N 5.074216 -1.870236 5.230533 0
M  V30 2 S 5.264205 -2.417860 3.614411 0
M  V30 3 O 4.431323 -3.610244 3.310125 0
M  V30 4 O 6.726461 -2.814918 3.455742 0
M  V30 5 C 4.955053 -1.081883 2.515695 0
M  V30 6 C 5.936957 -0.289364 1.959942 0
M  V30 7 C 5.630392 0.739264 1.114259 0
M  V30 8 C 4.312425 1.001539 0.803677 0
M  V30 9 N 3.867934 2.040702 -0.090177 0
M  V30 10 C 2.493388 2.375250 -0.172315 0
M  V30 11 C 1.330738 1.885802 -0.725197 0
M  V30 12 C 0.285242 2.736436 -0.441643 0
M  V30 13 C -1.098631 2.552314 -0.862559 0
M  V30 14 C -1.984564 3.544253 -0.527897 0
M  V30 15 C -3.326595 3.395670 -0.898747 0
M  V30 16 C -3.752456 2.278585 -1.584905 0
M  V30 17 C -2.812709 1.312796 -1.893251 0
M  V30 18 N -3.082705 0.076489 -2.593246 0
M  V30 19 C -3.407793 -0.914194 -1.634646 0
M  V30 20 O -3.398776 -0.547147 -0.424302 0
M  V30 21 N -3.748707 -2.292923 -1.875063 0
M  V30 22 C -4.060772 -3.188354 -0.786395 0
M  V30 23 C -2.985699 -3.887124 -0.256973 0
M  V30 24 C -3.155576 -4.776662 0.795883 0
M  V30 25 C -2.022471 -5.547099 1.391284 0
M  V30 26 F -2.064398 -6.804370 0.778058 0
M  V30 27 F -0.827925 -4.961683 0.991921 0
M  V30 28 F -2.101910 -5.646918 2.750421 0
M  V30 29 C -4.407319 -4.979793 1.335043 0
M  V30 30 C -5.466227 -4.278713 0.799979 0
M  V30 31 C -5.314227 -3.388335 -0.249638 0
M  V30 32 F -6.328598 -2.675425 -0.809186 0
M  V30 33 C -1.471800 1.425757 -1.542117 0
M  V30 34 N 0.830306 3.731467 0.280535 0
M  V30 35 N 2.139279 3.534763 0.450695 0
M  V30 36 C 3.365798 0.184966 1.383622 0
M  V30 37 C 3.616251 -0.874785 2.247680 0
M  V30 38 H 4.637003 -0.923102 5.311817 0
M  V30 39 H 4.388701 -2.536438 5.696436 0
M  V30 40 H 6.973157 -0.512618 2.219935 0
M  V30 41 H 6.376835 1.377463 0.663355 0
M  V30 42 H 4.627737 2.506611 -0.647661 0
M  V30 43 H 1.383981 0.968740 -1.267000 0
M  V30 44 H -1.759730 4.472026 0.014595 0
M  V30 45 H -4.103741 4.138540 -0.673143 0
M  V30 46 H -4.754098 2.060768 -1.917648 0
M  V30 47 H -3.097262 -0.257095 -3.585784 0
M  V30 48 H -3.740414 -2.550518 -2.890333 0
M  V30 49 H -1.946867 -3.801920 -0.609895 0
M  V30 50 H -4.613328 -5.654590 2.150283 0
M  V30 51 H -6.477247 -4.382240 1.167520 0
M  V30 52 H -0.710472 0.698341 -1.763670 0
M  V30 53 H 0.245539 4.521916 0.626884 0
M  V30 54 H 2.313375 0.391881 1.144714 0
M  V30 55 H 2.761800 -1.426721 2.625594 0
M  V30 END ATOM
M  V30 BEGIN BOND
M  V30 1 1 1 2
M  V30 2 2 2 3
M  V30 3 2 2 4
M  V30 4 1 2 5
M  V30 5 2 5 6
M  V30 6 1 6 7
M  V30 7 2 7 8
M  V30 8 1 8 9
M  V30 9 1 9 10
M  V30 10 1 10 11
M  V30 11 2 11 12
M  V30 12 1 12 13
M  V30 13 2 13 14
M  V30 14 1 14 15
M  V30 15 2 15 16
M  V30 16 1 16 17
M  V30 17 1 17 18
M  V30 18 1 18 19
M  V30 19 2 19 20
M  V30 20 1 19 21
M  V30 21 1 21 22
M  V30 22 2 22 23
M  V30 23 1 23 24
M  V30 24 1 24 25
M  V30 25 1 25 26
M  V30 26 1 25 27
M  V30 27 1 25 28
M  V30 28 2 24 29
M  V30 29 1 29 30
M  V30 30 2 30 31
M  V30 31 1 31 32
M  V30 32 2 17 33
M  V30 33 1 12 34
M  V30 34 1 34 35
M  V30 35 1 8 36
M  V30 36 2 36 37
M  V30 37 1 37 5
M  V30 38 2 35 10
M  V30 39 1 33 13
M  V30 40 1 31 22
M  V30 41 1 1 38
M  V30 42 1 1 39
M  V30 43 1 6 40
M  V30 44 1 7 41
M  V30 45 1 9 42
M  V30 46 1 11 43
M  V30 47 1 14 44
M  V30 48 1 15 45
M  V30 49 1 16 46
M  V30 50 1 18 47
M  V30 51 1 21 48
M  V30 52 1 23 49
M  V30 53 1 29 50
M  V30 54 1 30 51
M  V30 55 1 33 52
M  V30 56 1 34 53
M  V30 57 1 36 54
M  V30 58 1 37 55
M  V30 END BOND
M  V30 END CTAB
M  END
>  <Dataset>  (455) 
ChEMBL_Kinases

>  <Ligand_Instance>  (455) 
nan

>  <PDB_ID>  (455) 
nan

>  <Standardized_SMILES>  (455) 
NS(=O)(=O)c1ccc(Nc2cc(-c3cccc(NC(=O)Nc4cc(C(F)(F)F)ccc4F)c3)[nH]n2)cc1

>  <Name>  (455) 
nan

>  <Pocket>  (455) 
nan

>  <ATP_Site>  (455) 
nan

>  <Peripheral>  (455) 
nan

>  <Num_H_Atoms_ProtBoundConf>  (455) 
nan

>  <Num_Resolved_Atoms>  (455) 
nan

>  <Num_Not_Resolved_Atoms>  (455) 
nan

$$$$
CHEMBL3220468
     RDKit          3D

  0  0  0  0  0  0  0  0  0  0999 V3000
M  V30 BEGIN CTAB
M  V30 COUNTS 60 63 0 0 0
M  V30 BEGIN ATOM
M  V30 1 C 1.277864 0.177743 6.614716 0
M  V30 2 N 2.317078 0.184843 5.628814 0
M  V30 3 C 2.411619 0.956310 4.439176 0
M  V30 4 O 1.369571 1.656168 4.420962 0
M  V30 5 C 3.543787 0.839519 3.540607 0
M  V30 6 C 4.576897 0.014855 3.900408 0
M  V30 7 C 5.675598 -0.090944 3.093431 0
M  V30 8 C 5.812987 0.601310 1.905121 0
M  V30 9 C 4.723541 1.420022 1.603037 0
M  V30 10 C 3.567671 1.575419 2.382253 0
M  V30 11 N 2.568507 2.452846 1.918852 0
M  V30 12 C 1.228411 2.393362 1.493575 0
M  V30 13 C 0.479484 1.251002 1.409860 0
M  V30 14 C -0.813126 1.264254 0.980891 0
M  V30 15 N -1.709476 0.177062 0.854114 0
M  V30 16 C -2.066935 -0.850507 -0.062493 0
M  V30 17 C -3.386209 -0.752365 -0.478763 0
M  V30 18 C -3.895717 -1.691701 -1.378796 0
M  V30 19 C -3.067319 -2.693947 -1.828518 0
M  V30 20 N -3.519974 -3.674483 -2.754624 0
M  V30 21 C -4.736522 -3.631250 -3.558978 0
M  V30 22 C -4.285220 -3.459110 -4.997390 0
M  V30 23 O -2.983037 -3.859371 -5.221336 0
M  V30 24 C -2.613853 -4.996398 -4.542136 0
M  V30 25 C -2.839275 -4.917178 -3.053088 0
M  V30 26 C -1.758184 -2.791727 -1.415420 0
M  V30 27 C -1.254735 -1.865374 -0.527680 0
M  V30 28 O 0.045449 -1.861802 -0.042085 0
M  V30 29 C 0.936656 -2.881715 -0.480435 0
M  V30 30 N -1.381464 2.438950 0.624525 0
M  V30 31 C -0.667801 3.600891 0.694202 0
M  V30 32 C 0.615713 3.562855 1.123828 0
M  V30 33 C 1.312465 4.818978 1.175271 0
M  V30 34 N 1.891136 5.822720 1.223907 0
M  V30 35 H 0.478033 0.943405 6.399468 0
M  V30 36 H 1.645557 0.367786 7.624751 0
M  V30 37 H 0.815045 -0.851396 6.609797 0
M  V30 38 H 3.035993 -0.507585 5.941868 0
M  V30 39 H 4.653807 -0.590936 4.770435 0
M  V30 40 H 6.536687 -0.727623 3.317810 0
M  V30 41 H 6.642767 0.574405 1.216572 0
M  V30 42 H 4.782606 1.988046 0.675796 0
M  V30 43 H 3.057636 3.396901 1.933982 0
M  V30 44 H 0.893367 0.315924 1.679468 0
M  V30 45 H -2.254467 0.193038 1.756803 0
M  V30 46 H -4.088198 0.029711 -0.147212 0
M  V30 47 H -4.924485 -1.600128 -1.691101 0
M  V30 48 H -5.385722 -2.820016 -3.225070 0
M  V30 49 H -5.325898 -4.577021 -3.472966 0
M  V30 50 H -4.313173 -2.352242 -5.214249 0
M  V30 51 H -5.025862 -3.908199 -5.687004 0
M  V30 52 H -1.510725 -5.116813 -4.673430 0
M  V30 53 H -3.037861 -5.936145 -4.996830 0
M  V30 54 H -3.567485 -5.752052 -2.812195 0
M  V30 55 H -1.944450 -5.110833 -2.453624 0
M  V30 56 H -1.013369 -3.514523 -1.688626 0
M  V30 57 H 1.083128 -2.860298 -1.575621 0
M  V30 58 H 0.566505 -3.888051 -0.143188 0
M  V30 59 H 1.922367 -2.764533 0.028751 0
M  V30 60 H -1.140711 4.532978 0.404679 0
M  V30 END ATOM
M  V30 BEGIN BOND
M  V30 1 1 1 2
M  V30 2 1 2 3
M  V30 3 2 3 4
M  V30 4 1 3 5
M  V30 5 2 5 6
M  V30 6 1 6 7
M  V30 7 2 7 8
M  V30 8 1 8 9
M  V30 9 2 9 10
M  V30 10 1 10 11
M  V30 11 1 11 12
M  V30 12 2 12 13
M  V30 13 1 13 14
M  V30 14 1 14 15
M  V30 15 1 15 16
M  V30 16 2 16 17
M  V30 17 1 17 18
M  V30 18 2 18 19
M  V30 19 1 19 20
M  V30 20 1 20 21
M  V30 21 1 21 22
M  V30 22 1 22 23
M  V30 23 1 23 24
M  V30 24 1 24 25
M  V30 25 1 19 26
M  V30 26 2 26 27
M  V30 27 1 27 28
M  V30 28 1 28 29
M  V30 29 2 14 30
M  V30 30 1 30 31
M  V30 31 2 31 32
M  V30 32 1 32 33
M  V30 33 3 33 34
M  V30 34 1 10 5
M  V30 35 1 32 12
M  V30 36 1 27 16
M  V30 37 1 25 20
M  V30 38 1 1 35
M  V30 39 1 1 36
M  V30 40 1 1 37
M  V30 41 1 2 38
M  V30 42 1 6 39
M  V30 43 1 7 40
M  V30 44 1 8 41
M  V30 45 1 9 42
M  V30 46 1 11 43
M  V30 47 1 13 44
M  V30 48 1 15 45
M  V30 49 1 17 46
M  V30 50 1 18 47
M  V30 51 1 21 48
M  V30 52 1 21 49
M  V30 53 1 22 50
M  V30 54 1 22 51
M  V30 55 1 24 52
M  V30 56 1 24 53
M  V30 57 1 25 54
M  V30 58 1 25 55
M  V30 59 1 26 56
M  V30 60 1 29 57
M  V30 61 1 29 58
M  V30 62 1 29 59
M  V30 63 1 31 60
M  V30 END BOND
M  V30 END CTAB
M  END
>  <Dataset>  (456) 
ChEMBL_Kinases

>  <Ligand_Instance>  (456) 
nan

>  <PDB_ID>  (456) 
nan

>  <Standardized_SMILES>  (456) 
CNC(=O)c1ccccc1Nc1cc(Nc2ccc(N3CCOCC3)cc2OC)ncc1C#N

>  <Name>  (456) 
nan

>  <Pocket>  (456) 
nan

>  <ATP_Site>  (456) 
nan

>  <Peripheral>  (456) 
nan

>  <Num_H_Atoms_ProtBoundConf>  (456) 
nan

>  <Num_Resolved_Atoms>  (456) 
nan

>  <Num_Not_Resolved_Atoms>  (456) 
nan

$$$$
CHEMBL3220552
     RDKit          3D

  0  0  0  0  0  0  0  0  0  0999 V3000
M  V30 BEGIN CTAB
M  V30 COUNTS 54 56 0 0 0
M  V30 BEGIN ATOM
M  V30 1 N 1.854209 -0.311522 0.354728 0
M  V30 2 C 1.516885 0.869148 1.075767 0
M  V30 3 C 2.384938 1.907435 1.341042 0
M  V30 4 C 3.732692 1.722103 0.820610 0
M  V30 5 O 4.022464 0.684524 0.205652 0
M  V30 6 C 4.916397 2.567823 0.872169 0
M  V30 7 C 4.899647 3.920335 0.601621 0
M  V30 8 C 5.988907 4.758245 0.634779 0
M  V30 9 C 7.210439 4.213285 0.965461 0
M  V30 10 F 8.337808 4.959971 1.023604 0
M  V30 11 C 7.290343 2.876276 1.244351 0
M  V30 12 C 6.159637 2.072004 1.197022 0
M  V30 13 F 6.277695 0.738506 1.482177 0
M  V30 14 C 1.957890 3.008980 2.049444 0
M  V30 15 C 0.669926 3.142051 2.526488 0
M  V30 16 C -0.186120 2.093012 2.251758 0
M  V30 17 O -1.379465 2.139511 2.653785 0
M  V30 18 N 0.243657 1.018790 1.556806 0
M  V30 19 C -0.685335 -0.013306 1.314147 0
M  V30 20 C -1.238323 -0.841613 2.287359 0
M  V30 21 F -0.835814 -0.618455 3.564568 0
M  V30 22 C -2.144477 -1.833256 1.969996 0
M  V30 23 C -2.518957 -2.016181 0.652442 0
M  V30 24 O -3.428030 -2.998841 0.270319 0
M  V30 25 C -4.037507 -3.876463 1.159287 0
M  V30 26 C -4.961201 -4.823779 0.501680 0
M  V30 27 C -4.426493 -5.782053 -0.482943 0
M  V30 28 C -3.756231 -5.301578 -1.706768 0 CFG=2
M  V30 29 N -2.576561 -4.521494 -1.523936 0
M  V30 30 C -4.704095 -4.589666 -2.634747 0
M  V30 31 O -5.809149 -5.116593 -2.926035 0
M  V30 32 O -4.799799 -3.409565 -3.374131 0
M  V30 33 C -1.985190 -1.207341 -0.335671 0
M  V30 34 C -1.066567 -0.203305 -0.007371 0
M  V30 35 F -0.604844 0.533815 -1.057899 0
M  V30 36 H 1.849736 -0.519877 -0.669840 0
M  V30 37 H 2.156154 -1.088742 1.000877 0
M  V30 38 H 3.969668 4.402978 0.334111 0
M  V30 39 H 5.912411 5.811053 0.412632 0
M  V30 40 H 8.255824 2.440120 1.506755 0
M  V30 41 H 2.664236 3.804106 2.241487 0
M  V30 42 H 0.356286 4.016667 3.080805 0
M  V30 43 H -2.555197 -2.459285 2.749161 0
M  V30 44 H -4.510263 -3.354408 2.024861 0
M  V30 45 H -3.218991 -4.492692 1.632080 0
M  V30 46 H -5.427891 -5.437874 1.331661 0
M  V30 47 H -5.853783 -4.272409 0.089712 0
M  V30 48 H -5.196148 -6.594460 -0.719025 0
M  V30 49 H -3.642148 -6.409400 0.068783 0
M  V30 50 H -3.454530 -6.217128 -2.301878 0
M  V30 51 H -1.748985 -5.083766 -1.228757 0
M  V30 52 H -2.389375 -3.838932 -2.274422 0
M  V30 53 H -5.310925 -2.635078 -3.017379 0
M  V30 54 H -2.284496 -1.355128 -1.380487 0
M  V30 END ATOM
M  V30 BEGIN BOND
M  V30 1 1 1 2
M  V30 2 2 2 3
M  V30 3 1 3 4
M  V30 4 2 4 5
M  V30 5 1 4 6
M  V30 6 2 6 7
M  V30 7 1 7 8
M  V30 8 2 8 9
M  V30 9 1 9 10
M  V30 10 1 9 11
M  V30 11 2 11 12
M  V30 12 1 12 13
M  V30 13 1 3 14
M  V30 14 2 14 15
M  V30 15 1 15 16
M  V30 16 2 16 17
M  V30 17 1 16 18
M  V30 18 1 18 19
M  V30 19 2 19 20
M  V30 20 1 20 21
M  V30 21 1 20 22
M  V30 22 2 22 23
M  V30 23 1 23 24
M  V30 24 1 24 25
M  V30 25 1 25 26
M  V30 26 1 26 27
M  V30 27 1 27 28
M  V30 28 1 28 29
M  V30 29 1 28 30
M  V30 30 2 30 31
M  V30 31 1 30 32
M  V30 32 1 23 33
M  V30 33 2 33 34
M  V30 34 1 34 35
M  V30 35 1 18 2
M  V30 36 1 34 19
M  V30 37 1 12 6
M  V30 38 1 1 36
M  V30 39 1 1 37
M  V30 40 1 7 38
M  V30 41 1 8 39
M  V30 42 1 11 40
M  V30 43 1 14 41
M  V30 44 1 15 42
M  V30 45 1 22 43
M  V30 46 1 25 44
M  V30 47 1 25 45
M  V30 48 1 26 46
M  V30 49 1 26 47
M  V30 50 1 27 48
M  V30 51 1 27 49
M  V30 52 1 28 50 CFG=3
M  V30 53 1 29 51
M  V30 54 1 29 52
M  V30 55 1 32 53
M  V30 56 1 33 54
M  V30 END BOND
M  V30 END CTAB
M  END
>  <Dataset>  (457) 
ChEMBL_Kinases

>  <Ligand_Instance>  (457) 
nan

>  <PDB_ID>  (457) 
nan

>  <Standardized_SMILES>  (457) 
Nc1c(C(=O)c2ccc(F)cc2F)ccc(=O)n1-c1c(F)cc(OCCC[C@H](N)C(=O)O)cc1F

>  <Name>  (457) 
nan

>  <Pocket>  (457) 
nan

>  <ATP_Site>  (457) 
nan

>  <Peripheral>  (457) 
nan

>  <Num_H_Atoms_ProtBoundConf>  (457) 
nan

>  <Num_Resolved_Atoms>  (457) 
nan

>  <Num_Not_Resolved_Atoms>  (457) 
nan

$$$$
CHEMBL3220483
     RDKit          3D

  0  0  0  0  0  0  0  0  0  0999 V3000
M  V30 BEGIN CTAB
M  V30 COUNTS 56 59 0 0 0
M  V30 BEGIN ATOM
M  V30 1 C -2.700593 -0.554610 -0.612801 0
M  V30 2 O -2.070592 -1.734623 -1.065749 0
M  V30 3 C -1.089773 -2.424104 -0.396483 0
M  V30 4 C -0.712536 -1.895373 0.812209 0
M  V30 5 C 0.265888 -2.535661 1.540161 0
M  V30 6 N 0.684676 -2.022283 2.797500 0
M  V30 7 C 0.124835 -0.837215 3.337142 0
M  V30 8 C 0.655421 0.415877 3.125151 0
M  V30 9 C 0.124706 1.576640 3.641067 0
M  V30 10 N 0.668192 2.869198 3.425810 0
M  V30 11 C 1.691569 3.415831 2.617971 0
M  V30 12 C 2.809361 4.041269 3.183272 0
M  V30 13 C 3.843236 4.600632 2.471954 0
M  V30 14 C 3.757815 4.532326 1.106537 0
M  V30 15 C 2.703060 3.940743 0.448007 0
M  V30 16 C 1.718062 3.410069 1.242067 0
M  V30 17 C 0.601446 2.810315 0.526114 0
M  V30 18 N 0.511729 2.726469 -0.886656 0
M  V30 19 O -0.492545 2.247340 0.762799 0
M  V30 20 C -1.006224 1.500123 4.419347 0
M  V30 21 C -1.528982 0.241574 4.625269 0
M  V30 22 N -0.976797 -0.869798 4.100642 0
M  V30 23 C 0.811301 -3.680191 1.002670 0
M  V30 24 C 0.396205 -4.178096 -0.227551 0
M  V30 25 C -0.578280 -3.560269 -0.976196 0
M  V30 26 N -0.927841 -4.118573 -2.220378 0
M  V30 27 C -0.481394 -5.434790 -2.656997 0
M  V30 28 C -1.653583 -6.280710 -3.168993 0
M  V30 29 O -2.460118 -5.605474 -4.056393 0
M  V30 30 C -2.951864 -4.435301 -3.431402 0
M  V30 31 C -1.732498 -3.552821 -3.278809 0
M  V30 32 H -3.388520 -0.217242 -1.423060 0
M  V30 33 H -3.272043 -0.824663 0.303247 0
M  V30 34 H -1.960211 0.241535 -0.404089 0
M  V30 35 H -1.152615 -0.999613 1.212485 0
M  V30 36 H 1.416284 -2.514026 3.346441 0
M  V30 37 H 1.558645 0.500081 2.506238 0
M  V30 38 H 0.302813 3.702502 3.932590 0
M  V30 39 H 2.874209 4.093312 4.263574 0
M  V30 40 H 4.675019 5.067474 2.981834 0
M  V30 41 H 4.575654 4.974528 0.546034 0
M  V30 42 H 2.672483 3.907910 -0.627853 0
M  V30 43 H -0.111189 3.163518 -1.591325 0
M  V30 44 H 1.307653 2.049432 -1.064224 0
M  V30 45 H -1.470081 2.390196 4.854299 0
M  V30 46 H -2.429182 0.194476 5.246592 0
M  V30 47 H 1.578666 -4.136611 1.627984 0
M  V30 48 H 0.951181 -5.072940 -0.462030 0
M  V30 49 H 0.028655 -6.026367 -1.904791 0
M  V30 50 H 0.159755 -5.246012 -3.567656 0
M  V30 51 H -1.213559 -7.135109 -3.726422 0
M  V30 52 H -2.232637 -6.621982 -2.259155 0
M  V30 53 H -3.375053 -4.776491 -2.462833 0
M  V30 54 H -3.762773 -3.967946 -4.001565 0
M  V30 55 H -1.980878 -2.493531 -3.175258 0
M  V30 56 H -1.132650 -3.666811 -4.235495 0
M  V30 END ATOM
M  V30 BEGIN BOND
M  V30 1 1 1 2
M  V30 2 1 2 3
M  V30 3 2 3 4
M  V30 4 1 4 5
M  V30 5 1 5 6
M  V30 6 1 6 7
M  V30 7 2 7 8
M  V30 8 1 8 9
M  V30 9 1 9 10
M  V30 10 1 10 11
M  V30 11 2 11 12
M  V30 12 1 12 13
M  V30 13 2 13 14
M  V30 14 1 14 15
M  V30 15 2 15 16
M  V30 16 1 16 17
M  V30 17 1 17 18
M  V30 18 2 17 19
M  V30 19 2 9 20
M  V30 20 1 20 21
M  V30 21 2 21 22
M  V30 22 2 5 23
M  V30 23 1 23 24
M  V30 24 2 24 25
M  V30 25 1 25 26
M  V30 26 1 26 27
M  V30 27 1 27 28
M  V30 28 1 28 29
M  V30 29 1 29 30
M  V30 30 1 30 31
M  V30 31 1 25 3
M  V30 32 1 31 26
M  V30 33 1 22 7
M  V30 34 1 16 11
M  V30 35 1 1 32
M  V30 36 1 1 33
M  V30 37 1 1 34
M  V30 38 1 4 35
M  V30 39 1 6 36
M  V30 40 1 8 37
M  V30 41 1 10 38
M  V30 42 1 12 39
M  V30 43 1 13 40
M  V30 44 1 14 41
M  V30 45 1 15 42
M  V30 46 1 18 43
M  V30 47 1 18 44
M  V30 48 1 20 45
M  V30 49 1 21 46
M  V30 50 1 23 47
M  V30 51 1 24 48
M  V30 52 1 27 49
M  V30 53 1 27 50
M  V30 54 1 28 51
M  V30 55 1 28 52
M  V30 56 1 30 53
M  V30 57 1 30 54
M  V30 58 1 31 55
M  V30 59 1 31 56
M  V30 END BOND
M  V30 END CTAB
M  END
>  <Dataset>  (458) 
ChEMBL_Kinases

>  <Ligand_Instance>  (458) 
nan

>  <PDB_ID>  (458) 
nan

>  <Standardized_SMILES>  (458) 
COc1cc(Nc2cc(Nc3ccccc3C(N)=O)ccn2)ccc1N1CCOCC1

>  <Name>  (458) 
nan

>  <Pocket>  (458) 
nan

>  <ATP_Site>  (458) 
nan

>  <Peripheral>  (458) 
nan

>  <Num_H_Atoms_ProtBoundConf>  (458) 
nan

>  <Num_Resolved_Atoms>  (458) 
nan

>  <Num_Not_Resolved_Atoms>  (458) 
nan

$$$$
CHEMBL3220484
     RDKit          3D

  0  0  0  0  0  0  0  0  0  0999 V3000
M  V30 BEGIN CTAB
M  V30 COUNTS 56 59 0 0 0
M  V30 BEGIN ATOM
M  V30 1 C -0.144448 -1.190731 2.536670 0
M  V30 2 O -0.501660 -0.172902 1.656770 0
M  V30 3 C 0.221043 0.918172 1.279726 0
M  V30 4 C 1.484672 1.030947 1.852670 0
M  V30 5 C 2.290835 2.101713 1.531665 0
M  V30 6 N 3.563043 2.165850 2.170812 0
M  V30 7 C 3.977033 1.734012 3.485763 0
M  V30 8 C 4.885958 0.541297 3.272222 0
M  V30 9 O 5.282298 0.416433 1.955127 0
M  V30 10 C 5.721074 1.579366 1.355770 0
M  V30 11 C 4.713640 2.718141 1.425853 0
M  V30 12 C 1.859307 3.064237 0.648347 0
M  V30 13 C 0.584222 2.933798 0.082701 0
M  V30 14 C -0.238377 1.870286 0.390466 0
M  V30 15 N -1.558697 1.771140 -0.185835 0
M  V30 16 C -2.213746 0.845067 -1.063495 0
M  V30 17 C -2.735890 -0.402135 -0.832603 0
M  V30 18 C -3.325585 -1.060438 -1.873256 0
M  V30 19 N -3.817872 -2.368911 -1.624439 0
M  V30 20 C -3.028095 -3.393784 -1.041435 0
M  V30 21 C -1.717192 -3.168809 -0.725934 0
M  V30 22 C -0.943146 -4.179410 -0.154715 0
M  V30 23 C -1.440606 -5.432286 0.118133 0
M  V30 24 C -2.759336 -5.676517 -0.193442 0
M  V30 25 C -3.483551 -4.653272 -0.753888 0
M  V30 26 C -4.877656 -4.996656 -1.051149 0
M  V30 27 N -5.482747 -6.254184 -0.793929 0
M  V30 28 O -5.882909 -4.442525 -1.544322 0
M  V30 29 C -3.432172 -0.535154 -3.165329 0
M  V30 30 C -2.879118 0.740596 -3.330916 0
M  V30 31 N -2.297243 1.376725 -2.290548 0
M  V30 32 H -0.817923 -2.071885 2.483865 0
M  V30 33 H 0.894366 -1.570129 2.428637 0
M  V30 34 H -0.227990 -0.811260 3.573235 0
M  V30 35 H 1.848161 0.275144 2.559407 0
M  V30 36 H 4.599934 2.540031 3.928871 0
M  V30 37 H 3.120961 1.433159 4.123214 0
M  V30 38 H 4.342000 -0.417361 3.523055 0
M  V30 39 H 5.727309 0.600659 3.993013 0
M  V30 40 H 5.828502 1.335683 0.260353 0
M  V30 41 H 6.730105 1.913065 1.662289 0
M  V30 42 H 4.394752 3.070719 0.441719 0
M  V30 43 H 5.147638 3.511069 2.058152 0
M  V30 44 H 2.505615 3.907513 0.397705 0
M  V30 45 H 0.267166 3.718514 -0.619754 0
M  V30 46 H -2.031586 2.614030 0.206910 0
M  V30 47 H -2.642891 -0.742904 0.164520 0
M  V30 48 H -4.800030 -2.422815 -1.931841 0
M  V30 49 H -1.177796 -2.269366 -0.877333 0
M  V30 50 H 0.116587 -4.018712 0.106535 0
M  V30 51 H -0.830129 -6.198372 0.558348 0
M  V30 52 H -3.174660 -6.658723 0.013842 0
M  V30 53 H -5.043558 -7.185418 -0.920908 0
M  V30 54 H -5.085569 -7.224880 -0.903659 0
M  V30 55 H -3.919065 -1.151660 -3.899113 0
M  V30 56 H -2.971472 1.137963 -4.345676 0
M  V30 END ATOM
M  V30 BEGIN BOND
M  V30 1 1 1 2
M  V30 2 1 2 3
M  V30 3 2 3 4
M  V30 4 1 4 5
M  V30 5 1 5 6
M  V30 6 1 6 7
M  V30 7 1 7 8
M  V30 8 1 8 9
M  V30 9 1 9 10
M  V30 10 1 10 11
M  V30 11 2 5 12
M  V30 12 1 12 13
M  V30 13 2 13 14
M  V30 14 1 14 15
M  V30 15 1 15 16
M  V30 16 2 16 17
M  V30 17 1 17 18
M  V30 18 1 18 19
M  V30 19 1 19 20
M  V30 20 2 20 21
M  V30 21 1 21 22
M  V30 22 2 22 23
M  V30 23 1 23 24
M  V30 24 2 24 25
M  V30 25 1 25 26
M  V30 26 1 26 27
M  V30 27 2 26 28
M  V30 28 2 18 29
M  V30 29 1 29 30
M  V30 30 2 30 31
M  V30 31 1 14 3
M  V30 32 1 31 16
M  V30 33 1 11 6
M  V30 34 1 25 20
M  V30 35 1 1 32
M  V30 36 1 1 33
M  V30 37 1 1 34
M  V30 38 1 4 35
M  V30 39 1 7 36
M  V30 40 1 7 37
M  V30 41 1 8 38
M  V30 42 1 8 39
M  V30 43 1 10 40
M  V30 44 1 10 41
M  V30 45 1 11 42
M  V30 46 1 11 43
M  V30 47 1 12 44
M  V30 48 1 13 45
M  V30 49 1 15 46
M  V30 50 1 17 47
M  V30 51 1 19 48
M  V30 52 1 21 49
M  V30 53 1 22 50
M  V30 54 1 23 51
M  V30 55 1 24 52
M  V30 56 1 27 53
M  V30 57 1 27 54
M  V30 58 1 29 55
M  V30 59 1 30 56
M  V30 END BOND
M  V30 END CTAB
M  END
>  <Dataset>  (459) 
ChEMBL_Kinases

>  <Ligand_Instance>  (459) 
nan

>  <PDB_ID>  (459) 
nan

>  <Standardized_SMILES>  (459) 
COc1cc(N2CCOCC2)ccc1Nc1cc(Nc2ccccc2C(N)=O)ccn1

>  <Name>  (459) 
nan

>  <Pocket>  (459) 
nan

>  <ATP_Site>  (459) 
nan

>  <Peripheral>  (459) 
nan

>  <Num_H_Atoms_ProtBoundConf>  (459) 
nan

>  <Num_Resolved_Atoms>  (459) 
nan

>  <Num_Not_Resolved_Atoms>  (459) 
nan

$$$$
CHEMBL3220503
     RDKit          3D

  0  0  0  0  0  0  0  0  0  0999 V3000
M  V30 BEGIN CTAB
M  V30 COUNTS 65 68 0 0 0
M  V30 BEGIN ATOM
M  V30 1 C 1.098903 -2.036703 2.270362 0
M  V30 2 O 0.941627 -0.674080 1.915412 0
M  V30 3 C 2.016655 0.037760 1.358949 0
M  V30 4 C 3.220517 -0.606842 1.163731 0
M  V30 5 C 4.283273 0.080761 0.620034 0
M  V30 6 N 5.532825 -0.563261 0.412562 0
M  V30 7 C 5.895419 -1.923106 0.753556 0
M  V30 8 C 6.011138 -2.670493 -0.583093 0
M  V30 9 O 6.820651 -1.959743 -1.447207 0
M  V30 10 C 7.545932 -0.948811 -0.814992 0
M  V30 11 C 6.653989 0.117469 -0.207109 0
M  V30 12 C 4.179119 1.405807 0.261300 0
M  V30 13 C 2.962481 2.070614 0.454084 0
M  V30 14 C 1.910420 1.364982 0.999857 0
M  V30 15 N 0.690165 2.072124 1.187481 0
M  V30 16 C -0.668530 2.057543 0.779100 0
M  V30 17 C -1.685489 1.335218 1.352425 0
M  V30 18 C -2.970358 1.421996 0.855450 0
M  V30 19 N -4.049602 0.686466 1.404461 0
M  V30 20 C -5.056609 -0.253748 1.098424 0
M  V30 21 C -6.324977 0.245542 1.345976 0
M  V30 22 C -7.480277 -0.469716 1.118229 0
M  V30 23 C -7.290642 -1.739299 0.618915 0
M  V30 24 C -6.068538 -2.305060 0.348136 0
M  V30 25 C -4.988154 -1.511672 0.609721 0
M  V30 26 C -3.662909 -2.020913 0.363400 0
M  V30 27 O -2.498051 -1.597746 0.499380 0
M  V30 28 N -2.993400 -3.158350 -0.117666 0
M  V30 29 C -1.547533 -3.121791 -0.148732 0
M  V30 30 C -3.710630 -4.357200 -0.574661 0
M  V30 31 C -3.196621 2.263537 -0.240208 0
M  V30 32 C -4.533444 2.437909 -0.858241 0
M  V30 33 F -4.469444 3.327755 -1.919429 0
M  V30 34 F -5.381280 3.010974 0.064806 0
M  V30 35 F -5.038230 1.265454 -1.381455 0
M  V30 36 C -2.147891 2.986165 -0.804255 0
M  V30 37 N -0.939896 2.849100 -0.270627 0
M  V30 38 H 0.154025 -2.329158 2.799451 0
M  V30 39 H 1.209708 -2.686421 1.401871 0
M  V30 40 H 1.962015 -2.110339 2.972433 0
M  V30 41 H 3.268414 -1.644637 1.455408 0
M  V30 42 H 5.120683 -2.441377 1.339393 0
M  V30 43 H 6.865274 -1.991856 1.305660 0
M  V30 44 H 4.976656 -2.715521 -0.995164 0
M  V30 45 H 6.314140 -3.711965 -0.426811 0
M  V30 46 H 8.185118 -0.500568 -1.604574 0
M  V30 47 H 8.234343 -1.374432 -0.064992 0
M  V30 48 H 7.272262 0.686805 0.517527 0
M  V30 49 H 6.310278 0.767817 -1.041369 0
M  V30 50 H 4.956567 2.017927 -0.167882 0
M  V30 51 H 2.849232 3.108531 0.183418 0
M  V30 52 H 0.719334 2.911947 1.840667 0
M  V30 53 H -1.445423 0.709207 2.188358 0
M  V30 54 H -4.063482 0.990985 2.425842 0
M  V30 55 H -6.521641 1.243152 1.741969 0
M  V30 56 H -8.484232 -0.112514 1.298570 0
M  V30 57 H -8.186663 -2.332468 0.430104 0
M  V30 58 H -6.049641 -3.289767 -0.036227 0
M  V30 59 H -1.236893 -3.974207 -0.823772 0
M  V30 60 H -1.097962 -3.250233 0.850668 0
M  V30 61 H -1.148114 -2.207334 -0.651254 0
M  V30 62 H -4.344923 -4.156319 -1.460129 0
M  V30 63 H -4.280034 -4.850326 0.213090 0
M  V30 64 H -2.959357 -5.115830 -0.929504 0
M  V30 65 H -2.321358 3.632457 -1.646038 0
M  V30 END ATOM
M  V30 BEGIN BOND
M  V30 1 1 1 2
M  V30 2 1 2 3
M  V30 3 2 3 4
M  V30 4 1 4 5
M  V30 5 1 5 6
M  V30 6 1 6 7
M  V30 7 1 7 8
M  V30 8 1 8 9
M  V30 9 1 9 10
M  V30 10 1 10 11
M  V30 11 2 5 12
M  V30 12 1 12 13
M  V30 13 2 13 14
M  V30 14 1 14 15
M  V30 15 1 15 16
M  V30 16 2 16 17
M  V30 17 1 17 18
M  V30 18 1 18 19
M  V30 19 1 19 20
M  V30 20 2 20 21
M  V30 21 1 21 22
M  V30 22 2 22 23
M  V30 23 1 23 24
M  V30 24 2 24 25
M  V30 25 1 25 26
M  V30 26 2 26 27
M  V30 27 1 26 28
M  V30 28 1 28 29
M  V30 29 1 28 30
M  V30 30 2 18 31
M  V30 31 1 31 32
M  V30 32 1 32 33
M  V30 33 1 32 34
M  V30 34 1 32 35
M  V30 35 1 31 36
M  V30 36 2 36 37
M  V30 37 1 14 3
M  V30 38 1 37 16
M  V30 39 1 11 6
M  V30 40 1 25 20
M  V30 41 1 1 38
M  V30 42 1 1 39
M  V30 43 1 1 40
M  V30 44 1 4 41
M  V30 45 1 7 42
M  V30 46 1 7 43
M  V30 47 1 8 44
M  V30 48 1 8 45
M  V30 49 1 10 46
M  V30 50 1 10 47
M  V30 51 1 11 48
M  V30 52 1 11 49
M  V30 53 1 12 50
M  V30 54 1 13 51
M  V30 55 1 15 52
M  V30 56 1 17 53
M  V30 57 1 19 54
M  V30 58 1 21 55
M  V30 59 1 22 56
M  V30 60 1 23 57
M  V30 61 1 24 58
M  V30 62 1 29 59
M  V30 63 1 29 60
M  V30 64 1 29 61
M  V30 65 1 30 62
M  V30 66 1 30 63
M  V30 67 1 30 64
M  V30 68 1 36 65
M  V30 END BOND
M  V30 END CTAB
M  END
>  <Dataset>  (460) 
ChEMBL_Kinases

>  <Ligand_Instance>  (460) 
nan

>  <PDB_ID>  (460) 
nan

>  <Standardized_SMILES>  (460) 
COc1cc(N2CCOCC2)ccc1Nc1cc(Nc2ccccc2C(=O)N(C)C)c(C(F)(F)F)cn1

>  <Name>  (460) 
nan

>  <Pocket>  (460) 
nan

>  <ATP_Site>  (460) 
nan

>  <Peripheral>  (460) 
nan

>  <Num_H_Atoms_ProtBoundConf>  (460) 
nan

>  <Num_Resolved_Atoms>  (460) 
nan

>  <Num_Not_Resolved_Atoms>  (460) 
nan

$$$$
CHEMBL3220504
     RDKit          3D

  0  0  0  0  0  0  0  0  0  0999 V3000
M  V30 BEGIN CTAB
M  V30 COUNTS 53 57 0 0 0
M  V30 BEGIN ATOM
M  V30 1 O 3.257588 -0.563253 3.576754 0
M  V30 2 C 4.360876 -0.693146 3.003189 0
M  V30 3 N 5.125191 -1.889647 3.077861 0
M  V30 4 C 6.316885 -1.701358 2.309791 0
M  V30 5 C 6.233436 -0.316964 1.776959 0
M  V30 6 C 7.076289 0.432408 0.986584 0
M  V30 7 C 6.834323 1.726875 0.581041 0
M  V30 8 C 5.641222 2.241033 1.039775 0
M  V30 9 C 4.718721 1.572880 1.840889 0
M  V30 10 N 3.523395 2.229352 2.244503 0
M  V30 11 C 2.130947 2.004019 2.056742 0
M  V30 12 C 1.225811 2.828108 2.684986 0
M  V30 13 C -0.094717 2.544373 2.444080 0
M  V30 14 N -0.508356 1.547247 1.661187 0
M  V30 15 C 0.312846 0.725511 1.033521 0
M  V30 16 N -0.022448 -0.362852 0.180920 0
M  V30 17 C -1.314630 -0.790259 -0.171194 0
M  V30 18 C -1.484641 -1.876499 -1.017836 0
M  V30 19 C -2.712717 -2.353081 -1.407189 0
M  V30 20 C -3.878440 -1.766277 -0.969336 0
M  V30 21 N -5.158081 -2.243258 -1.359975 0
M  V30 22 C -6.460389 -1.733145 -0.978430 0
M  V30 23 C -7.117738 -2.825966 -0.124276 0
M  V30 24 O -7.334880 -3.953638 -0.912300 0
M  V30 25 C -6.172599 -4.436236 -1.464385 0
M  V30 26 C -5.395721 -3.365359 -2.241112 0
M  V30 27 C -3.763148 -0.684002 -0.126624 0
M  V30 28 C -2.509385 -0.240018 0.237798 0
M  V30 29 C 1.640471 0.995040 1.263457 0
M  V30 30 C 5.062367 0.283834 2.187195 0
M  V30 31 H 4.950324 -2.780371 3.562241 0
M  V30 32 H 6.296989 -2.461481 1.482502 0
M  V30 33 H 7.257123 -1.894707 2.861763 0
M  V30 34 H 7.996535 -0.053874 0.670146 0
M  V30 35 H 7.494552 2.308374 -0.035588 0
M  V30 36 H 5.375854 3.261374 0.762284 0
M  V30 37 H 3.847312 3.048074 2.798401 0
M  V30 38 H 1.515041 3.637396 3.319700 0
M  V30 39 H -0.843600 3.183515 2.930592 0
M  V30 40 H 0.772938 -0.903988 -0.228639 0
M  V30 41 H -0.584021 -2.382936 -1.397350 0
M  V30 42 H -2.709730 -3.199072 -2.064228 0
M  V30 43 H -6.382598 -0.864818 -0.328681 0
M  V30 44 H -7.102537 -1.532771 -1.878347 0
M  V30 45 H -8.092812 -2.421939 0.169726 0
M  V30 46 H -6.472574 -3.021155 0.734147 0
M  V30 47 H -6.463185 -5.212404 -2.215993 0
M  V30 48 H -5.518698 -4.977645 -0.742272 0
M  V30 49 H -4.506488 -3.842676 -2.646149 0
M  V30 50 H -6.104726 -3.088977 -3.079361 0
M  V30 51 H -4.621188 -0.149114 0.275781 0
M  V30 52 H -2.477023 0.609124 0.898048 0
M  V30 53 H 2.426097 0.390365 0.804305 0
M  V30 END ATOM
M  V30 BEGIN BOND
M  V30 1 2 1 2
M  V30 2 1 2 3
M  V30 3 1 3 4
M  V30 4 1 4 5
M  V30 5 2 5 6
M  V30 6 1 6 7
M  V30 7 2 7 8
M  V30 8 1 8 9
M  V30 9 1 9 10
M  V30 10 1 10 11
M  V30 11 2 11 12
M  V30 12 1 12 13
M  V30 13 2 13 14
M  V30 14 1 14 15
M  V30 15 1 15 16
M  V30 16 1 16 17
M  V30 17 2 17 18
M  V30 18 1 18 19
M  V30 19 2 19 20
M  V30 20 1 20 21
M  V30 21 1 21 22
M  V30 22 1 22 23
M  V30 23 1 23 24
M  V30 24 1 24 25
M  V30 25 1 25 26
M  V30 26 1 20 27
M  V30 27 2 27 28
M  V30 28 2 15 29
M  V30 29 2 9 30
M  V30 30 1 30 2
M  V30 31 1 30 5
M  V30 32 1 29 11
M  V30 33 1 28 17
M  V30 34 1 26 21
M  V30 35 1 3 31
M  V30 36 1 4 32
M  V30 37 1 4 33
M  V30 38 1 6 34
M  V30 39 1 7 35
M  V30 40 1 8 36
M  V30 41 1 10 37
M  V30 42 1 12 38
M  V30 43 1 13 39
M  V30 44 1 16 40
M  V30 45 1 18 41
M  V30 46 1 19 42
M  V30 47 1 22 43
M  V30 48 1 22 44
M  V30 49 1 23 45
M  V30 50 1 23 46
M  V30 51 1 25 47
M  V30 52 1 25 48
M  V30 53 1 26 49
M  V30 54 1 26 50
M  V30 55 1 27 51
M  V30 56 1 28 52
M  V30 57 1 29 53
M  V30 END BOND
M  V30 END CTAB
M  END
>  <Dataset>  (461) 
ChEMBL_Kinases

>  <Ligand_Instance>  (461) 
nan

>  <PDB_ID>  (461) 
nan

>  <Standardized_SMILES>  (461) 
O=C1NCc2cccc(Nc3ccnc(Nc4ccc(N5CCOCC5)cc4)c3)c21

>  <Name>  (461) 
nan

>  <Pocket>  (461) 
nan

>  <ATP_Site>  (461) 
nan

>  <Peripheral>  (461) 
nan

>  <Num_H_Atoms_ProtBoundConf>  (461) 
nan

>  <Num_Resolved_Atoms>  (461) 
nan

>  <Num_Not_Resolved_Atoms>  (461) 
nan

$$$$
CHEMBL3220548
     RDKit          3D

  0  0  0  0  0  0  0  0  0  0999 V3000
M  V30 BEGIN CTAB
M  V30 COUNTS 36 38 0 0 0
M  V30 BEGIN ATOM
M  V30 1 N 0.550137 -2.162300 0.403589 0
M  V30 2 C -0.153728 -0.961985 0.663263 0
M  V30 3 C 0.400340 0.249933 0.452522 0
M  V30 4 C 1.754727 0.271551 -0.068693 0
M  V30 5 O 2.328803 -0.800619 -0.361191 0
M  V30 6 C 2.678159 1.351696 -0.354098 0
M  V30 7 C 3.362679 1.448973 -1.566045 0
M  V30 8 C 4.235152 2.457087 -1.900769 0
M  V30 9 C 4.469948 3.457155 -0.993278 0
M  V30 10 F 5.329150 4.432742 -1.347156 0
M  V30 11 C 3.829702 3.427972 0.225770 0
M  V30 12 C 2.964914 2.390388 0.505593 0
M  V30 13 F 2.403056 2.438201 1.716650 0
M  V30 14 C -0.369364 1.332276 0.737833 0
M  V30 15 C -1.642820 1.113221 1.215884 0
M  V30 16 C -2.200523 -0.130292 1.428257 0
M  V30 17 O -3.389452 -0.214123 1.874195 0
M  V30 18 N -1.394031 -1.165687 1.128610 0
M  V30 19 C -1.955501 -2.462800 1.342128 0
M  V30 20 C -2.469318 -3.153102 0.250612 0
M  V30 21 F -2.442196 -2.609922 -1.007970 0
M  V30 22 C -3.031721 -4.408316 0.352772 0
M  V30 23 C -3.074302 -4.983937 1.608034 0
M  V30 24 C -2.565277 -4.303765 2.698984 0
M  V30 25 C -1.997737 -3.040620 2.605054 0
M  V30 26 F -1.496006 -2.364144 3.664891 0
M  V30 27 H 1.070837 -3.043850 0.263159 0
M  V30 28 H 0.813028 -2.706977 -0.472486 0
M  V30 29 H 3.190507 0.661500 -2.305492 0
M  V30 30 H 4.710837 2.446698 -2.849922 0
M  V30 31 H 4.036152 4.227792 0.914859 0
M  V30 32 H 0.018057 2.327245 0.581446 0
M  V30 33 H -2.237880 1.978292 1.436846 0
M  V30 34 H -3.423514 -4.925421 -0.503652 0
M  V30 35 H -3.503992 -5.968880 1.753469 0
M  V30 36 H -2.585158 -4.732853 3.701317 0
M  V30 END ATOM
M  V30 BEGIN BOND
M  V30 1 1 1 2
M  V30 2 2 2 3
M  V30 3 1 3 4
M  V30 4 2 4 5
M  V30 5 1 4 6
M  V30 6 2 6 7
M  V30 7 1 7 8
M  V30 8 2 8 9
M  V30 9 1 9 10
M  V30 10 1 9 11
M  V30 11 2 11 12
M  V30 12 1 12 13
M  V30 13 1 3 14
M  V30 14 2 14 15
M  V30 15 1 15 16
M  V30 16 2 16 17
M  V30 17 1 16 18
M  V30 18 1 18 19
M  V30 19 2 19 20
M  V30 20 1 20 21
M  V30 21 1 20 22
M  V30 22 2 22 23
M  V30 23 1 23 24
M  V30 24 2 24 25
M  V30 25 1 25 26
M  V30 26 1 18 2
M  V30 27 1 25 19
M  V30 28 1 12 6
M  V30 29 1 1 27
M  V30 30 1 1 28
M  V30 31 1 7 29
M  V30 32 1 8 30
M  V30 33 1 11 31
M  V30 34 1 14 32
M  V30 35 1 15 33
M  V30 36 1 22 34
M  V30 37 1 23 35
M  V30 38 1 24 36
M  V30 END BOND
M  V30 END CTAB
M  END
>  <Dataset>  (462) 
ChEMBL_Kinases

>  <Ligand_Instance>  (462) 
nan

>  <PDB_ID>  (462) 
nan

>  <Standardized_SMILES>  (462) 
Nc1c(C(=O)c2ccc(F)cc2F)ccc(=O)n1-c1c(F)cccc1F

>  <Name>  (462) 
nan

>  <Pocket>  (462) 
nan

>  <ATP_Site>  (462) 
nan

>  <Peripheral>  (462) 
nan

>  <Num_H_Atoms_ProtBoundConf>  (462) 
nan

>  <Num_Resolved_Atoms>  (462) 
nan

>  <Num_Not_Resolved_Atoms>  (462) 
nan

$$$$
CHEMBL3220549
     RDKit          3D

  0  0  0  0  0  0  0  0  0  0999 V3000
M  V30 BEGIN CTAB
M  V30 COUNTS 75 78 0 0 0
M  V30 BEGIN ATOM
M  V30 1 C 1.191449 -5.980567 4.376347 0
M  V30 2 C 0.457725 -6.563643 3.210852 0
M  V30 3 C -1.019600 -6.756997 3.566223 0
M  V30 4 C 0.631989 -5.928186 1.892289 0
M  V30 5 C 0.222418 -4.532185 1.649806 0 CFG=2
M  V30 6 N 0.494042 -4.144732 0.262161 0
M  V30 7 C 1.856896 -4.181186 -0.126151 0
M  V30 8 C 1.900977 -3.807162 -1.610202 0
M  V30 9 C 1.352014 -2.481310 -1.896355 0
M  V30 10 C 2.014210 -1.275922 -1.947950 0
M  V30 11 C 1.398498 -0.073872 -2.228883 0
M  V30 12 F 2.143895 1.072196 -2.255197 0
M  V30 13 C 0.031601 -0.070137 -2.474955 0
M  V30 14 N -0.634463 1.163707 -2.771256 0
M  V30 15 C -1.256472 1.911789 -1.844600 0
M  V30 16 N -1.191084 1.368957 -0.547818 0
M  V30 17 C -1.883475 3.079294 -2.146278 0
M  V30 18 C -2.516147 3.765608 -1.027666 0
M  V30 19 O -2.496042 3.275927 0.112614 0
M  V30 20 C -3.231142 5.032154 -0.996961 0
M  V30 21 C -2.686273 6.146357 -1.621302 0
M  V30 22 C -3.371154 7.366674 -1.584271 0
M  V30 23 C -4.566947 7.370785 -0.912086 0
M  V30 24 F -5.216568 8.571398 -0.888039 0
M  V30 25 C -5.166978 6.318795 -0.274176 0
M  V30 26 C -4.454242 5.130888 -0.336528 0
M  V30 27 F -4.947643 4.022608 0.256516 0
M  V30 28 C -1.896346 3.535531 -3.445600 0
M  V30 29 C -1.241849 2.722970 -4.343869 0
M  V30 30 C -0.601570 1.536788 -4.053550 0
M  V30 31 O -0.038853 0.889630 -4.979912 0
M  V30 32 C -0.711023 -1.238501 -2.442196 0
M  V30 33 F -2.032442 -1.251372 -2.677506 0
M  V30 34 C -0.020911 -2.398442 -2.154375 0
M  V30 35 C 0.622763 -3.502158 2.601746 0
M  V30 36 O 0.566107 -3.223397 3.822485 0
M  V30 37 O 1.305678 -2.420806 2.074955 0
M  V30 38 C 1.759937 -1.352707 2.833207 0
M  V30 39 C 1.135021 -0.056347 2.388519 0
M  V30 40 C 2.174467 0.708290 1.650671 0
M  V30 41 C 3.367596 -0.231689 1.500287 0
M  V30 42 C 3.241244 -1.114361 2.713107 0
M  V30 43 H 2.065463 -5.383621 4.111934 0
M  V30 44 H 0.498277 -5.516683 5.122331 0
M  V30 45 H 1.632215 -6.847427 4.992603 0
M  V30 46 H 0.839725 -7.628905 3.095308 0
M  V30 47 H -1.208139 -7.754337 4.001750 0
M  V30 48 H -1.270496 -6.025565 4.388249 0
M  V30 49 H -1.683238 -6.642923 2.704408 0
M  V30 50 H 1.741371 -6.033420 1.651396 0
M  V30 51 H 0.174705 -6.637399 1.121548 0
M  V30 52 H -0.920092 -4.542255 1.675439 0
M  V30 53 H -0.023517 -4.845539 -0.309866 0
M  V30 54 H 2.301105 -5.216527 -0.095113 0
M  V30 55 H 2.531074 -3.518419 0.415539 0
M  V30 56 H 1.279110 -4.572065 -2.115584 0
M  V30 57 H 2.939666 -3.907446 -1.987273 0
M  V30 58 H 3.092918 -1.358551 -1.743451 0
M  V30 59 H -1.156695 1.253046 0.470060 0
M  V30 60 H -1.137691 0.348788 -0.333923 0
M  V30 61 H -1.747297 6.145989 -2.145557 0
M  V30 62 H -2.969505 8.244438 -2.062758 0
M  V30 63 H -6.116191 6.420966 0.232880 0
M  V30 64 H -2.395026 4.456465 -3.683736 0
M  V30 65 H -1.226377 3.039806 -5.378319 0
M  V30 66 H -0.627349 -3.310830 -2.133065 0
M  V30 67 H 1.503298 -1.454843 3.924498 0
M  V30 68 H 0.256764 -0.327514 1.757562 0
M  V30 69 H 0.698502 0.518767 3.245395 0
M  V30 70 H 2.505090 1.556188 2.295323 0
M  V30 71 H 1.903204 1.063909 0.655814 0
M  V30 72 H 4.304617 0.377020 1.490991 0
M  V30 73 H 3.309520 -0.849455 0.590657 0
M  V30 74 H 3.536441 -0.495843 3.592142 0
M  V30 75 H 3.837362 -2.041596 2.629564 0
M  V30 END ATOM
M  V30 BEGIN BOND
M  V30 1 1 1 2
M  V30 2 1 2 3
M  V30 3 1 2 4
M  V30 4 1 4 5
M  V30 5 1 5 6
M  V30 6 1 6 7
M  V30 7 1 7 8
M  V30 8 1 8 9
M  V30 9 2 9 10
M  V30 10 1 10 11
M  V30 11 1 11 12
M  V30 12 2 11 13
M  V30 13 1 13 14
M  V30 14 1 14 15
M  V30 15 1 15 16
M  V30 16 2 15 17
M  V30 17 1 17 18
M  V30 18 2 18 19
M  V30 19 1 18 20
M  V30 20 2 20 21
M  V30 21 1 21 22
M  V30 22 2 22 23
M  V30 23 1 23 24
M  V30 24 1 23 25
M  V30 25 2 25 26
M  V30 26 1 26 27
M  V30 27 1 17 28
M  V30 28 2 28 29
M  V30 29 1 29 30
M  V30 30 2 30 31
M  V30 31 1 13 32
M  V30 32 1 32 33
M  V30 33 2 32 34
M  V30 34 1 5 35
M  V30 35 2 35 36
M  V30 36 1 35 37
M  V30 37 1 37 38
M  V30 38 1 38 39
M  V30 39 1 39 40
M  V30 40 1 40 41
M  V30 41 1 41 42
M  V30 42 1 34 9
M  V30 43 1 42 38
M  V30 44 1 30 14
M  V30 45 1 26 20
M  V30 46 1 1 43
M  V30 47 1 1 44
M  V30 48 1 1 45
M  V30 49 1 2 46
M  V30 50 1 3 47
M  V30 51 1 3 48
M  V30 52 1 3 49
M  V30 53 1 4 50
M  V30 54 1 4 51
M  V30 55 1 5 52 CFG=3
M  V30 56 1 6 53
M  V30 57 1 7 54
M  V30 58 1 7 55
M  V30 59 1 8 56
M  V30 60 1 8 57
M  V30 61 1 10 58
M  V30 62 1 16 59
M  V30 63 1 16 60
M  V30 64 1 21 61
M  V30 65 1 22 62
M  V30 66 1 25 63
M  V30 67 1 28 64
M  V30 68 1 29 65
M  V30 69 1 34 66
M  V30 70 1 38 67
M  V30 71 1 39 68
M  V30 72 1 39 69
M  V30 73 1 40 70
M  V30 74 1 40 71
M  V30 75 1 41 72
M  V30 76 1 41 73
M  V30 77 1 42 74
M  V30 78 1 42 75
M  V30 END BOND
M  V30 END CTAB
M  END
>  <Dataset>  (463) 
ChEMBL_Kinases

>  <Ligand_Instance>  (463) 
nan

>  <PDB_ID>  (463) 
nan

>  <Standardized_SMILES>  (463) 
CC(C)C[C@H](NCCc1cc(F)c(-n2c(N)c(C(=O)c3ccc(F)cc3F)ccc2=O)c(F)c1)C(=O)OC1CCCC1

>  <Name>  (463) 
nan

>  <Pocket>  (463) 
nan

>  <ATP_Site>  (463) 
nan

>  <Peripheral>  (463) 
nan

>  <Num_H_Atoms_ProtBoundConf>  (463) 
nan

>  <Num_Resolved_Atoms>  (463) 
nan

>  <Num_Not_Resolved_Atoms>  (463) 
nan

$$$$
CHEMBL3220550
     RDKit          3D

  0  0  0  0  0  0  0  0  0  0999 V3000
M  V30 BEGIN CTAB
M  V30 COUNTS 67 70 0 0 0
M  V30 BEGIN ATOM
M  V30 1 N 2.892771 -0.264110 1.184237 0
M  V30 2 C 2.672502 0.012203 2.580196 0
M  V30 3 C 3.484940 0.761560 3.384048 0
M  V30 4 C 4.651584 1.323320 2.761970 0
M  V30 5 O 4.807239 1.126789 1.512391 0
M  V30 6 C 5.778727 2.112514 3.216517 0
M  V30 7 C 6.191623 3.268922 2.543767 0
M  V30 8 C 7.246012 4.053206 2.955548 0
M  V30 9 C 7.944744 3.696407 4.089201 0
M  V30 10 F 8.983950 4.476681 4.488430 0
M  V30 11 C 7.594640 2.570943 4.801464 0
M  V30 12 C 6.530447 1.828224 4.337513 0
M  V30 13 F 6.246935 0.729232 5.074663 0
M  V30 14 C 3.107384 0.914689 4.699431 0
M  V30 15 C 1.971151 0.366032 5.259133 0
M  V30 16 C 1.183579 -0.384671 4.398553 0
M  V30 17 O 0.140862 -0.899256 4.874110 0
M  V30 18 N 1.542274 -0.540031 3.114391 0
M  V30 19 C 0.663393 -1.325490 2.327431 0
M  V30 20 C 0.050494 -0.698537 1.262381 0
M  V30 21 F 0.300766 0.621442 1.002953 0
M  V30 22 C -0.820271 -1.405740 0.453185 0
M  V30 23 C -1.073384 -2.741910 0.716062 0
M  V30 24 O -1.955526 -3.321556 -0.163548 0
M  V30 25 C -2.369832 -4.642385 -0.114981 0
M  V30 26 C -3.331508 -4.985642 -1.199936 0
M  V30 27 C -2.905021 -4.894994 -2.601254 0
M  V30 28 C -2.460531 -3.599452 -3.144526 0 CFG=2
M  V30 29 N -1.324300 -2.973220 -2.566023 0
M  V30 30 C -3.642424 -2.695339 -3.233855 0
M  V30 31 O -4.784822 -2.957536 -3.699381 0
M  V30 32 O -3.484065 -1.415833 -2.754203 0
M  V30 33 C -4.568787 -0.517000 -2.812993 0
M  V30 34 C -4.912848 0.074685 -1.468639 0
M  V30 35 C -5.717336 1.287557 -1.892627 0
M  V30 36 C -5.171046 1.687599 -3.256417 0
M  V30 37 C -4.048015 0.720580 -3.519363 0
M  V30 38 C -0.461269 -3.369986 1.780463 0
M  V30 39 C 0.407835 -2.672483 2.591788 0
M  V30 40 F 1.019502 -3.269917 3.641729 0
M  V30 41 H 2.936564 0.336435 0.352813 0
M  V30 42 H 3.047426 -1.274851 0.896240 0
M  V30 43 H 5.628446 3.543369 1.642808 0
M  V30 44 H 7.464489 4.927109 2.342190 0
M  V30 45 H 8.151069 2.305084 5.686273 0
M  V30 46 H 3.724878 1.504490 5.348382 0
M  V30 47 H 1.748131 0.537856 6.310816 0
M  V30 48 H -1.277910 -0.850640 -0.380153 0
M  V30 49 H -2.840700 -4.904754 0.879939 0
M  V30 50 H -1.457702 -5.295342 -0.140178 0
M  V30 51 H -4.294626 -4.415290 -1.074334 0
M  V30 52 H -3.632704 -6.064862 -1.014493 0
M  V30 53 H -3.806391 -5.199329 -3.234924 0
M  V30 54 H -2.146657 -5.682595 -2.885506 0
M  V30 55 H -2.182467 -3.782625 -4.232310 0
M  V30 56 H -0.506247 -3.596411 -2.681934 0
M  V30 57 H -1.142699 -2.101390 -3.111362 0
M  V30 58 H -5.479991 -0.935290 -3.255576 0
M  V30 59 H -4.004826 0.446636 -0.957500 0
M  V30 60 H -5.511446 -0.615569 -0.843855 0
M  V30 61 H -5.555953 2.149068 -1.215897 0
M  V30 62 H -6.781584 1.018274 -1.999527 0
M  V30 63 H -5.924520 1.534990 -4.070683 0
M  V30 64 H -4.832944 2.742015 -3.273097 0
M  V30 65 H -3.129526 1.025718 -2.970491 0
M  V30 66 H -3.871905 0.503942 -4.579786 0
M  V30 67 H -0.691813 -4.413752 1.943114 0
M  V30 END ATOM
M  V30 BEGIN BOND
M  V30 1 1 1 2
M  V30 2 2 2 3
M  V30 3 1 3 4
M  V30 4 2 4 5
M  V30 5 1 4 6
M  V30 6 2 6 7
M  V30 7 1 7 8
M  V30 8 2 8 9
M  V30 9 1 9 10
M  V30 10 1 9 11
M  V30 11 2 11 12
M  V30 12 1 12 13
M  V30 13 1 3 14
M  V30 14 2 14 15
M  V30 15 1 15 16
M  V30 16 2 16 17
M  V30 17 1 16 18
M  V30 18 1 18 19
M  V30 19 2 19 20
M  V30 20 1 20 21
M  V30 21 1 20 22
M  V30 22 2 22 23
M  V30 23 1 23 24
M  V30 24 1 24 25
M  V30 25 1 25 26
M  V30 26 1 26 27
M  V30 27 1 27 28
M  V30 28 1 28 29
M  V30 29 1 28 30
M  V30 30 2 30 31
M  V30 31 1 30 32
M  V30 32 1 32 33
M  V30 33 1 33 34
M  V30 34 1 34 35
M  V30 35 1 35 36
M  V30 36 1 36 37
M  V30 37 1 23 38
M  V30 38 2 38 39
M  V30 39 1 39 40
M  V30 40 1 18 2
M  V30 41 1 39 19
M  V30 42 1 12 6
M  V30 43 1 37 33
M  V30 44 1 1 41
M  V30 45 1 1 42
M  V30 46 1 7 43
M  V30 47 1 8 44
M  V30 48 1 11 45
M  V30 49 1 14 46
M  V30 50 1 15 47
M  V30 51 1 22 48
M  V30 52 1 25 49
M  V30 53 1 25 50
M  V30 54 1 26 51
M  V30 55 1 26 52
M  V30 56 1 27 53
M  V30 57 1 27 54
M  V30 58 1 28 55 CFG=3
M  V30 59 1 29 56
M  V30 60 1 29 57
M  V30 61 1 33 58
M  V30 62 1 34 59
M  V30 63 1 34 60
M  V30 64 1 35 61
M  V30 65 1 35 62
M  V30 66 1 36 63
M  V30 67 1 36 64
M  V30 68 1 37 65
M  V30 69 1 37 66
M  V30 70 1 38 67
M  V30 END BOND
M  V30 END CTAB
M  END
>  <Dataset>  (464) 
ChEMBL_Kinases

>  <Ligand_Instance>  (464) 
nan

>  <PDB_ID>  (464) 
nan

>  <Standardized_SMILES>  (464) 
Nc1c(C(=O)c2ccc(F)cc2F)ccc(=O)n1-c1c(F)cc(OCCC[C@H](N)C(=O)OC2CCCC2)cc1F

>  <Name>  (464) 
nan

>  <Pocket>  (464) 
nan

>  <ATP_Site>  (464) 
nan

>  <Peripheral>  (464) 
nan

>  <Num_H_Atoms_ProtBoundConf>  (464) 
nan

>  <Num_Resolved_Atoms>  (464) 
nan

>  <Num_Not_Resolved_Atoms>  (464) 
nan

$$$$
CHEMBL3220551
     RDKit          3D

  0  0  0  0  0  0  0  0  0  0999 V3000
M  V30 BEGIN CTAB
M  V30 COUNTS 62 64 0 0 0
M  V30 BEGIN ATOM
M  V30 1 C 3.002205 -0.458701 1.637371 0
M  V30 2 C 4.164320 -1.326078 1.228943 0
M  V30 3 C 5.444352 -0.786164 1.830168 0
M  V30 4 C 4.230893 -1.658478 -0.187560 0
M  V30 5 C 4.382124 -0.687053 -1.263387 0 CFG=2
M  V30 6 N 3.460797 0.349858 -1.479028 0
M  V30 7 C 3.682652 1.610039 -0.880874 0
M  V30 8 C 2.572517 2.613338 -1.133258 0
M  V30 9 C 1.266057 2.168501 -0.624496 0
M  V30 10 C 0.869641 2.456294 0.670045 0
M  V30 11 C -0.366294 2.019063 1.109655 0
M  V30 12 F -0.816438 2.259724 2.348228 0
M  V30 13 C -1.202214 1.297903 0.259568 0
M  V30 14 N -2.501412 0.812674 0.658845 0
M  V30 15 C -2.694233 -0.535756 0.779337 0
M  V30 16 N -1.555392 -1.372413 0.488950 0
M  V30 17 C -3.921738 -0.984869 1.156452 0
M  V30 18 C -4.052200 -2.427894 1.274155 0
M  V30 19 O -3.026901 -3.141442 1.082320 0
M  V30 20 C -5.162030 -3.313733 1.583132 0
M  V30 21 C -5.042676 -4.319393 2.532911 0
M  V30 22 C -6.034996 -5.195981 2.909601 0
M  V30 23 C -7.245461 -5.038283 2.270335 0
M  V30 24 F -8.264325 -5.865527 2.593364 0
M  V30 25 C -7.472354 -4.074175 1.312976 0
M  V30 26 C -6.421102 -3.245889 1.003457 0
M  V30 27 F -6.650108 -2.315209 0.054690 0
M  V30 28 C -4.890545 -0.059663 1.393353 0
M  V30 29 C -4.690696 1.299412 1.270330 0
M  V30 30 C -3.442996 1.745712 0.887088 0
M  V30 31 O -3.181752 2.954859 0.753416 0
M  V30 32 C -0.798963 1.008937 -1.048296 0
M  V30 33 F -1.631185 0.306268 -1.854851 0
M  V30 34 C 0.438333 1.452164 -1.473142 0
M  V30 35 C 4.395697 -1.489770 -2.560101 0
M  V30 36 O 3.568873 -0.869990 -3.274263 0
M  V30 37 O 4.998112 -2.587807 -3.107126 0
M  V30 38 H 2.279872 -0.266588 0.810581 0
M  V30 39 H 2.352777 -0.945314 2.429646 0
M  V30 40 H 3.346845 0.488874 2.118451 0
M  V30 41 H 3.996670 -2.304054 1.782247 0
M  V30 42 H 5.377112 -0.819420 2.948006 0
M  V30 43 H 6.327850 -1.355986 1.555609 0
M  V30 44 H 5.617305 0.285033 1.579683 0
M  V30 45 H 3.288532 -2.275468 -0.414923 0
M  V30 46 H 5.029437 -2.458489 -0.380272 0
M  V30 47 H 5.458908 -0.316209 -1.239008 0
M  V30 48 H 2.508257 -0.004588 -1.550650 0
M  V30 49 H 4.568374 2.060907 -1.463918 0
M  V30 50 H 3.994186 1.653783 0.149228 0
M  V30 51 H 2.559061 2.783593 -2.248458 0
M  V30 52 H 2.910726 3.574752 -0.693282 0
M  V30 53 H 1.520847 3.014667 1.323864 0
M  V30 54 H -0.853083 -1.891562 1.061010 0
M  V30 55 H -0.874465 -1.876199 1.134624 0
M  V30 56 H -4.057452 -4.397256 3.008057 0
M  V30 57 H -5.830808 -5.936312 3.656603 0
M  V30 58 H -8.433767 -3.962702 0.817221 0
M  V30 59 H -5.867997 -0.395001 1.700638 0
M  V30 60 H -5.483288 2.018962 1.465840 0
M  V30 61 H 0.668916 1.182921 -2.508858 0
M  V30 62 H 4.383443 -3.281063 -3.560540 0
M  V30 END ATOM
M  V30 BEGIN BOND
M  V30 1 1 1 2
M  V30 2 1 2 3
M  V30 3 1 2 4
M  V30 4 1 4 5
M  V30 5 1 5 6
M  V30 6 1 6 7
M  V30 7 1 7 8
M  V30 8 1 8 9
M  V30 9 2 9 10
M  V30 10 1 10 11
M  V30 11 1 11 12
M  V30 12 2 11 13
M  V30 13 1 13 14
M  V30 14 1 14 15
M  V30 15 1 15 16
M  V30 16 2 15 17
M  V30 17 1 17 18
M  V30 18 2 18 19
M  V30 19 1 18 20
M  V30 20 2 20 21
M  V30 21 1 21 22
M  V30 22 2 22 23
M  V30 23 1 23 24
M  V30 24 1 23 25
M  V30 25 2 25 26
M  V30 26 1 26 27
M  V30 27 1 17 28
M  V30 28 2 28 29
M  V30 29 1 29 30
M  V30 30 2 30 31
M  V30 31 1 13 32
M  V30 32 1 32 33
M  V30 33 2 32 34
M  V30 34 1 5 35
M  V30 35 2 35 36
M  V30 36 1 35 37
M  V30 37 1 34 9
M  V30 38 1 30 14
M  V30 39 1 26 20
M  V30 40 1 1 38
M  V30 41 1 1 39
M  V30 42 1 1 40
M  V30 43 1 2 41
M  V30 44 1 3 42
M  V30 45 1 3 43
M  V30 46 1 3 44
M  V30 47 1 4 45
M  V30 48 1 4 46
M  V30 49 1 5 47 CFG=1
M  V30 50 1 6 48
M  V30 51 1 7 49
M  V30 52 1 7 50
M  V30 53 1 8 51
M  V30 54 1 8 52
M  V30 55 1 10 53
M  V30 56 1 16 54
M  V30 57 1 16 55
M  V30 58 1 21 56
M  V30 59 1 22 57
M  V30 60 1 25 58
M  V30 61 1 28 59
M  V30 62 1 29 60
M  V30 63 1 34 61
M  V30 64 1 37 62
M  V30 END BOND
M  V30 END CTAB
M  END
>  <Dataset>  (465) 
ChEMBL_Kinases

>  <Ligand_Instance>  (465) 
nan

>  <PDB_ID>  (465) 
nan

>  <Standardized_SMILES>  (465) 
CC(C)C[C@H](NCCc1cc(F)c(-n2c(N)c(C(=O)c3ccc(F)cc3F)ccc2=O)c(F)c1)C(=O)O

>  <Name>  (465) 
nan

>  <Pocket>  (465) 
nan

>  <ATP_Site>  (465) 
nan

>  <Peripheral>  (465) 
nan

>  <Num_H_Atoms_ProtBoundConf>  (465) 
nan

>  <Num_Resolved_Atoms>  (465) 
nan

>  <Num_Not_Resolved_Atoms>  (465) 
nan

$$$$
CHEMBL3220478
     RDKit          3D

  0  0  0  0  0  0  0  0  0  0999 V3000
M  V30 BEGIN CTAB
M  V30 COUNTS 55 58 0 0 0
M  V30 BEGIN ATOM
M  V30 1 C 1.102269 -1.478370 4.930420 0
M  V30 2 N 2.347104 -0.721441 5.015416 0
M  V30 3 C 2.781185 -0.181648 3.747861 0
M  V30 4 O 1.872668 -0.580926 2.992440 0
M  V30 5 C 4.008694 0.580470 3.726034 0
M  V30 6 C 4.758566 0.760865 4.851142 0
M  V30 7 C 5.911447 1.476907 4.676887 0
M  V30 8 C 6.382834 2.024826 3.497838 0
M  V30 9 C 5.574858 1.808264 2.385376 0
M  V30 10 C 4.384215 1.084181 2.502341 0
M  V30 11 N 3.672064 0.939942 1.287704 0
M  V30 12 C 2.399291 1.392264 0.897739 0
M  V30 13 C 1.643174 2.307528 1.595885 0
M  V30 14 C 0.384494 2.774328 1.221654 0
M  V30 15 N -0.120838 2.264671 0.058990 0
M  V30 16 C 0.587669 1.369948 -0.647231 0
M  V30 17 N 0.092452 0.845281 -1.853149 0
M  V30 18 C -0.919750 -0.149913 -1.889439 0
M  V30 19 C -1.617369 -0.510292 -0.763722 0
M  V30 20 C -2.601597 -1.475282 -0.828506 0
M  V30 21 C -2.923328 -2.109628 -2.003945 0
M  V30 22 N -3.960157 -3.079647 -2.029717 0
M  V30 23 C -4.994698 -3.155628 -0.984467 0
M  V30 24 C -6.294131 -2.913637 -1.771422 0
M  V30 25 O -6.442665 -4.072061 -2.546905 0
M  V30 26 C -5.524697 -4.099902 -3.574123 0
M  V30 27 C -4.113440 -4.099094 -3.063521 0
M  V30 28 C -2.244676 -1.782144 -3.177696 0
M  V30 29 C -1.257410 -0.796854 -3.050451 0
M  V30 30 C 1.833956 0.916011 -0.264886 0
M  V30 31 H 1.330621 -2.325350 4.234294 0
M  V30 32 H 0.301549 -0.852684 4.533654 0
M  V30 33 H 0.867288 -1.957405 5.912792 0
M  V30 34 H 2.820505 -0.629323 5.963534 0
M  V30 35 H 4.516331 0.393272 5.831332 0
M  V30 36 H 6.545795 1.648384 5.554438 0
M  V30 37 H 7.320887 2.577425 3.478469 0
M  V30 38 H 5.908955 2.220334 1.436134 0
M  V30 39 H 4.251709 0.392657 0.611094 0
M  V30 40 H 2.023752 2.712220 2.504717 0
M  V30 41 H -0.138564 3.505228 1.847384 0
M  V30 42 H 0.483577 1.201478 -2.751490 0
M  V30 43 H -1.327491 0.020975 0.155465 0
M  V30 44 H -3.052624 -1.650767 0.128302 0
M  V30 45 H -4.869781 -2.416957 -0.196839 0
M  V30 46 H -5.042177 -4.202830 -0.631902 0
M  V30 47 H -6.059996 -2.065788 -2.468458 0
M  V30 48 H -7.157887 -2.740757 -1.137965 0
M  V30 49 H -5.690824 -5.090094 -4.091030 0
M  V30 50 H -5.718087 -3.317568 -4.348665 0
M  V30 51 H -3.394094 -4.014991 -3.884596 0
M  V30 52 H -3.933091 -5.106860 -2.592527 0
M  V30 53 H -2.447406 -2.241487 -4.132227 0
M  V30 54 H -0.720004 -0.528752 -3.946280 0
M  V30 55 H 2.403957 0.189689 -0.840930 0
M  V30 END ATOM
M  V30 BEGIN BOND
M  V30 1 1 1 2
M  V30 2 1 2 3
M  V30 3 2 3 4
M  V30 4 1 3 5
M  V30 5 2 5 6
M  V30 6 1 6 7
M  V30 7 2 7 8
M  V30 8 1 8 9
M  V30 9 2 9 10
M  V30 10 1 10 11
M  V30 11 1 11 12
M  V30 12 2 12 13
M  V30 13 1 13 14
M  V30 14 2 14 15
M  V30 15 1 15 16
M  V30 16 1 16 17
M  V30 17 1 17 18
M  V30 18 2 18 19
M  V30 19 1 19 20
M  V30 20 2 20 21
M  V30 21 1 21 22
M  V30 22 1 22 23
M  V30 23 1 23 24
M  V30 24 1 24 25
M  V30 25 1 25 26
M  V30 26 1 26 27
M  V30 27 1 21 28
M  V30 28 2 28 29
M  V30 29 2 16 30
M  V30 30 1 10 5
M  V30 31 1 30 12
M  V30 32 1 29 18
M  V30 33 1 27 22
M  V30 34 1 1 31
M  V30 35 1 1 32
M  V30 36 1 1 33
M  V30 37 1 2 34
M  V30 38 1 6 35
M  V30 39 1 7 36
M  V30 40 1 8 37
M  V30 41 1 9 38
M  V30 42 1 11 39
M  V30 43 1 13 40
M  V30 44 1 14 41
M  V30 45 1 17 42
M  V30 46 1 19 43
M  V30 47 1 20 44
M  V30 48 1 23 45
M  V30 49 1 23 46
M  V30 50 1 24 47
M  V30 51 1 24 48
M  V30 52 1 26 49
M  V30 53 1 26 50
M  V30 54 1 27 51
M  V30 55 1 27 52
M  V30 56 1 28 53
M  V30 57 1 29 54
M  V30 58 1 30 55
M  V30 END BOND
M  V30 END CTAB
M  END
>  <Dataset>  (466) 
ChEMBL_Kinases

>  <Ligand_Instance>  (466) 
nan

>  <PDB_ID>  (466) 
nan

>  <Standardized_SMILES>  (466) 
CNC(=O)c1ccccc1Nc1ccnc(Nc2ccc(N3CCOCC3)cc2)c1

>  <Name>  (466) 
nan

>  <Pocket>  (466) 
nan

>  <ATP_Site>  (466) 
nan

>  <Peripheral>  (466) 
nan

>  <Num_H_Atoms_ProtBoundConf>  (466) 
nan

>  <Num_Resolved_Atoms>  (466) 
nan

>  <Num_Not_Resolved_Atoms>  (466) 
nan

$$$$
CHEMBL3262571
     RDKit          3D

  0  0  0  0  0  0  0  0  0  0999 V3000
M  V30 BEGIN CTAB
M  V30 COUNTS 32 34 0 0 0
M  V30 BEGIN ATOM
M  V30 1 C -0.360810 -1.336007 3.964407 0
M  V30 2 O 0.017212 -1.238426 2.603920 0
M  V30 3 C 0.162137 -2.393933 1.857795 0
M  V30 4 C -0.014306 -3.711077 2.253471 0
M  V30 5 C 0.187598 -4.708637 1.329246 0
M  V30 6 C 0.556758 -4.478104 0.026097 0
M  V30 7 C 0.737032 -3.156339 -0.382679 0
M  V30 8 C 0.537974 -2.152169 0.532404 0
M  V30 9 C 0.766780 -0.813389 -0.050170 0
M  V30 10 C 1.854951 -0.521723 -0.851823 0
M  V30 11 C 1.976033 0.763769 -1.347130 0
M  V30 12 C 1.025652 1.716228 -1.038232 0
M  V30 13 N 1.102844 2.985895 -1.499886 0
M  V30 14 C 0.179555 3.924612 -1.204138 0
M  V30 15 N -0.895579 3.638964 -0.412907 0
M  V30 16 C -1.038158 2.380147 0.087722 0
M  V30 17 N -2.138635 1.997552 0.926837 0
M  V30 18 C -0.070383 1.452117 -0.240399 0
M  V30 19 C -0.197995 0.152218 0.263818 0
M  V30 20 H -1.439532 -1.549446 4.098071 0
M  V30 21 H -0.186151 -0.382517 4.507409 0
M  V30 22 H 0.182412 -2.204099 4.427097 0
M  V30 23 H -0.299468 -3.816415 3.273781 0
M  V30 24 H 0.029063 -5.707708 1.719470 0
M  V30 25 H 0.682351 -5.354551 -0.597007 0
M  V30 26 H 1.022387 -3.031313 -1.399997 0
M  V30 27 H 2.560792 -1.302240 -1.057543 0
M  V30 28 H 2.815163 1.028638 -1.978268 0
M  V30 29 H 0.229100 4.946056 -1.567362 0
M  V30 30 H -2.387742 2.092339 1.945126 0
M  V30 31 H -2.854359 1.499395 0.334029 0
M  V30 32 H -1.044790 -0.064138 0.884219 0
M  V30 END ATOM
M  V30 BEGIN BOND
M  V30 1 1 1 2
M  V30 2 1 2 3
M  V30 3 2 3 4
M  V30 4 1 4 5
M  V30 5 2 5 6
M  V30 6 1 6 7
M  V30 7 2 7 8
M  V30 8 1 8 9
M  V30 9 2 9 10
M  V30 10 1 10 11
M  V30 11 2 11 12
M  V30 12 1 12 13
M  V30 13 2 13 14
M  V30 14 1 14 15
M  V30 15 2 15 16
M  V30 16 1 16 17
M  V30 17 1 16 18
M  V30 18 2 18 19
M  V30 19 1 8 3
M  V30 20 1 19 9
M  V30 21 1 18 12
M  V30 22 1 1 20
M  V30 23 1 1 21
M  V30 24 1 1 22
M  V30 25 1 4 23
M  V30 26 1 5 24
M  V30 27 1 6 25
M  V30 28 1 7 26
M  V30 29 1 10 27
M  V30 30 1 11 28
M  V30 31 1 14 29
M  V30 32 1 17 30
M  V30 33 1 17 31
M  V30 34 1 19 32
M  V30 END BOND
M  V30 END CTAB
M  END
>  <Dataset>  (467) 
ChEMBL_Kinases

>  <Ligand_Instance>  (467) 
nan

>  <PDB_ID>  (467) 
nan

>  <Standardized_SMILES>  (467) 
COc1ccccc1-c1ccc2ncnc(N)c2c1

>  <Name>  (467) 
nan

>  <Pocket>  (467) 
nan

>  <ATP_Site>  (467) 
nan

>  <Peripheral>  (467) 
nan

>  <Num_H_Atoms_ProtBoundConf>  (467) 
nan

>  <Num_Resolved_Atoms>  (467) 
nan

>  <Num_Not_Resolved_Atoms>  (467) 
nan

$$$$
CHEMBL3262570
     RDKit          3D

  0  0  0  0  0  0  0  0  0  0999 V3000
M  V30 BEGIN CTAB
M  V30 COUNTS 28 30 0 0 0
M  V30 BEGIN ATOM
M  V30 1 N 0.161541 -3.546454 2.714665 0
M  V30 2 C 1.466606 -3.015607 2.478473 0
M  V30 3 N 2.618821 -3.560466 2.961387 0
M  V30 4 C 3.804095 -2.955958 2.662902 0
M  V30 5 N 3.918419 -1.847807 1.917473 0
M  V30 6 C 2.804915 -1.248840 1.401243 0
M  V30 7 C 2.851589 -0.108206 0.627293 0
M  V30 8 C 1.680079 0.425605 0.150229 0
M  V30 9 C 0.450456 -0.163926 0.434134 0
M  V30 10 C -0.765315 0.440572 -0.095341 0
M  V30 11 C -1.868435 -0.322811 -0.419529 0
M  V30 12 C -2.979490 0.353123 -0.917823 0
M  V30 13 C -2.991558 1.716839 -1.084432 0
M  V30 14 C -1.884785 2.468791 -0.757495 0
M  V30 15 C -0.763534 1.815616 -0.258125 0
M  V30 16 C 0.448747 -1.299401 1.208889 0
M  V30 17 C 1.616754 -1.877688 1.716042 0
M  V30 18 H -0.262022 -3.679156 3.660252 0
M  V30 19 H -0.561637 -3.877182 2.040572 0
M  V30 20 H 4.681282 -3.458835 3.090536 0
M  V30 21 H 3.816659 0.346013 0.410413 0
M  V30 22 H 1.777625 1.311987 -0.445003 0
M  V30 23 H -1.856843 -1.413593 -0.286062 0
M  V30 24 H -3.855822 -0.228308 -1.178411 0
M  V30 25 H -3.852227 2.232326 -1.469146 0
M  V30 26 H -1.826522 3.552826 -0.864562 0
M  V30 27 H 0.103126 2.415126 -0.003139 0
M  V30 28 H -0.526920 -1.727571 1.407174 0
M  V30 END ATOM
M  V30 BEGIN BOND
M  V30 1 1 1 2
M  V30 2 2 2 3
M  V30 3 1 3 4
M  V30 4 2 4 5
M  V30 5 1 5 6
M  V30 6 2 6 7
M  V30 7 1 7 8
M  V30 8 2 8 9
M  V30 9 1 9 10
M  V30 10 2 10 11
M  V30 11 1 11 12
M  V30 12 2 12 13
M  V30 13 1 13 14
M  V30 14 2 14 15
M  V30 15 1 9 16
M  V30 16 2 16 17
M  V30 17 1 17 2
M  V30 18 1 17 6
M  V30 19 1 15 10
M  V30 20 1 1 18
M  V30 21 1 1 19
M  V30 22 1 4 20
M  V30 23 1 7 21
M  V30 24 1 8 22
M  V30 25 1 11 23
M  V30 26 1 12 24
M  V30 27 1 13 25
M  V30 28 1 14 26
M  V30 29 1 15 27
M  V30 30 1 16 28
M  V30 END BOND
M  V30 END CTAB
M  END
>  <Dataset>  (468) 
ChEMBL_Kinases

>  <Ligand_Instance>  (468) 
nan

>  <PDB_ID>  (468) 
nan

>  <Standardized_SMILES>  (468) 
Nc1ncnc2ccc(-c3ccccc3)cc12

>  <Name>  (468) 
nan

>  <Pocket>  (468) 
nan

>  <ATP_Site>  (468) 
nan

>  <Peripheral>  (468) 
nan

>  <Num_H_Atoms_ProtBoundConf>  (468) 
nan

>  <Num_Resolved_Atoms>  (468) 
nan

>  <Num_Not_Resolved_Atoms>  (468) 
nan

$$$$
CHEMBL3262569
     RDKit          3D

  0  0  0  0  0  0  0  0  0  0999 V3000
M  V30 BEGIN CTAB
M  V30 COUNTS 30 32 0 0 0
M  V30 BEGIN ATOM
M  V30 1 N -0.535813 -5.419501 1.997138 0
M  V30 2 C -0.352217 -4.035659 2.267740 0
M  V30 3 C -0.233526 -3.591959 3.567750 0
M  V30 4 C -0.054096 -2.282339 3.941014 0
M  V30 5 C 0.003109 -1.386684 2.874070 0
M  V30 6 C -0.109138 -1.761286 1.532790 0
M  V30 7 C -0.036524 -0.745847 0.479920 0
M  V30 8 C -0.735820 -0.906349 -0.702406 0
M  V30 9 C -0.708916 0.011790 -1.729338 0
M  V30 10 C 0.060836 1.170761 -1.583464 0
M  V30 11 N 0.094267 2.073205 -2.579541 0
M  V30 12 C 0.833239 3.195631 -2.451033 0
M  V30 13 N 1.513713 3.371631 -1.323680 0
M  V30 14 C 1.510377 2.497592 -0.302146 0
M  V30 15 N 2.259861 2.740937 0.880875 0
M  V30 16 C 0.770147 1.335236 -0.386069 0
M  V30 17 C 0.720755 0.392804 0.625799 0
M  V30 18 C -0.288738 -3.108875 1.247665 0
M  V30 19 H -0.003866 -6.291922 1.869547 0
M  V30 20 H -1.592012 -5.450583 1.920856 0
M  V30 21 H -0.287918 -4.348965 4.343376 0
M  V30 22 H 0.038952 -1.931399 4.955494 0
M  V30 23 H 0.139726 -0.341962 3.051844 0
M  V30 24 H -1.348967 -1.796278 -0.857644 0
M  V30 25 H -1.282289 -0.173827 -2.636458 0
M  V30 26 H 0.947669 3.992364 -3.166068 0
M  V30 27 H 1.759050 2.549225 1.795573 0
M  V30 28 H 3.200005 3.066410 1.174384 0
M  V30 29 H 1.297778 0.577161 1.540314 0
M  V30 30 H -0.376770 -3.418453 0.234603 0
M  V30 END ATOM
M  V30 BEGIN BOND
M  V30 1 1 1 2
M  V30 2 2 2 3
M  V30 3 1 3 4
M  V30 4 2 4 5
M  V30 5 1 5 6
M  V30 6 1 6 7
M  V30 7 2 7 8
M  V30 8 1 8 9
M  V30 9 2 9 10
M  V30 10 1 10 11
M  V30 11 2 11 12
M  V30 12 1 12 13
M  V30 13 2 13 14
M  V30 14 1 14 15
M  V30 15 1 14 16
M  V30 16 2 16 17
M  V30 17 2 6 18
M  V30 18 1 18 2
M  V30 19 1 17 7
M  V30 20 1 16 10
M  V30 21 1 1 19
M  V30 22 1 1 20
M  V30 23 1 3 21
M  V30 24 1 4 22
M  V30 25 1 5 23
M  V30 26 1 8 24
M  V30 27 1 9 25
M  V30 28 1 12 26
M  V30 29 1 15 27
M  V30 30 1 15 28
M  V30 31 1 17 29
M  V30 32 1 18 30
M  V30 END BOND
M  V30 END CTAB
M  END
>  <Dataset>  (469) 
ChEMBL_Kinases

>  <Ligand_Instance>  (469) 
nan

>  <PDB_ID>  (469) 
nan

>  <Standardized_SMILES>  (469) 
Nc1cccc(-c2ccc3ncnc(N)c3c2)c1

>  <Name>  (469) 
nan

>  <Pocket>  (469) 
nan

>  <ATP_Site>  (469) 
nan

>  <Peripheral>  (469) 
nan

>  <Num_H_Atoms_ProtBoundConf>  (469) 
nan

>  <Num_Resolved_Atoms>  (469) 
nan

>  <Num_Not_Resolved_Atoms>  (469) 
nan

$$$$
CHEMBL3262568
     RDKit          3D

  0  0  0  0  0  0  0  0  0  0999 V3000
M  V30 BEGIN CTAB
M  V30 COUNTS 25 26 0 0 0
M  V30 BEGIN ATOM
M  V30 1 N 0.289769 -0.118186 4.886923 0
M  V30 2 C 0.336831 -0.879652 3.682920 0
M  V30 3 C 0.364960 -2.255867 3.680155 0
M  V30 4 C 0.411101 -3.021060 2.535718 0
M  V30 5 C 0.429940 -2.346073 1.309800 0
M  V30 6 C 0.400847 -0.968175 1.346138 0
M  V30 7 C 0.421817 -0.288940 0.034000 0
M  V30 8 C -0.234825 0.932354 -0.082813 0
M  V30 9 C -0.302695 1.684985 -1.239097 0
M  V30 10 C 0.357488 1.119257 -2.331469 0
M  V30 11 N 0.321426 1.850360 -3.551468 0
M  V30 12 N 1.007311 -0.073404 -2.245549 0
M  V30 13 C 1.044932 -0.767144 -1.099458 0
M  V30 14 C 0.354657 -0.185026 2.479282 0
M  V30 15 H -0.477849 0.324122 5.439581 0
M  V30 16 H 1.165693 0.107884 5.420497 0
M  V30 17 H 0.351143 -2.809267 4.624856 0
M  V30 18 H 0.433546 -4.095154 2.499734 0
M  V30 19 H 0.465801 -2.891029 0.389914 0
M  V30 20 H -0.737378 1.335969 0.796990 0
M  V30 21 H -0.821394 2.611759 -1.259369 0
M  V30 22 H 0.397647 2.911142 -3.563926 0
M  V30 23 H 0.216313 1.257474 -4.403374 0
M  V30 24 H 1.554273 -1.723042 -0.990679 0
M  V30 25 H 0.334094 0.882077 2.470657 0
M  V30 END ATOM
M  V30 BEGIN BOND
M  V30 1 1 1 2
M  V30 2 2 2 3
M  V30 3 1 3 4
M  V30 4 2 4 5
M  V30 5 1 5 6
M  V30 6 1 6 7
M  V30 7 2 7 8
M  V30 8 1 8 9
M  V30 9 2 9 10
M  V30 10 1 10 11
M  V30 11 1 10 12
M  V30 12 2 12 13
M  V30 13 2 6 14
M  V30 14 1 14 2
M  V30 15 1 13 7
M  V30 16 1 1 15
M  V30 17 1 1 16
M  V30 18 1 3 17
M  V30 19 1 4 18
M  V30 20 1 5 19
M  V30 21 1 8 20
M  V30 22 1 9 21
M  V30 23 1 11 22
M  V30 24 1 11 23
M  V30 25 1 13 24
M  V30 26 1 14 25
M  V30 END BOND
M  V30 END CTAB
M  END
>  <Dataset>  (470) 
ChEMBL_Kinases

>  <Ligand_Instance>  (470) 
nan

>  <PDB_ID>  (470) 
nan

>  <Standardized_SMILES>  (470) 
Nc1cccc(-c2ccc(N)nc2)c1

>  <Name>  (470) 
nan

>  <Pocket>  (470) 
nan

>  <ATP_Site>  (470) 
nan

>  <Peripheral>  (470) 
nan

>  <Num_H_Atoms_ProtBoundConf>  (470) 
nan

>  <Num_Resolved_Atoms>  (470) 
nan

>  <Num_Not_Resolved_Atoms>  (470) 
nan

$$$$
CHEMBL3262567
     RDKit          3D

  0  0  0  0  0  0  0  0  0  0999 V3000
M  V30 BEGIN CTAB
M  V30 COUNTS 28 29 0 0 0
M  V30 BEGIN ATOM
M  V30 1 C -0.517608 -1.981789 4.092188 0
M  V30 2 C -0.539464 -0.851333 3.107339 0
M  V30 3 C -0.058735 -1.116385 1.866803 0
M  V30 4 C -0.038709 -0.109438 0.888726 0
M  V30 5 C 0.473206 -0.178999 -0.466188 0
M  V30 6 C 0.402623 0.786618 -1.479956 0
M  V30 7 C 0.962528 0.626818 -2.697478 0
M  V30 8 C 1.652342 -0.508527 -3.057667 0
M  V30 9 C 1.675646 -1.396702 -2.031113 0
M  V30 10 N 2.373089 -2.633703 -2.316816 0
M  V30 11 C 1.156208 -1.418230 -0.693742 0
M  V30 12 C -0.544357 1.153151 1.251263 0
M  V30 13 N -0.978846 1.225503 2.505954 0
M  V30 14 C -1.043107 0.410131 3.479755 0
M  V30 15 N -1.517941 0.649330 4.834028 0
M  V30 16 H 0.413325 -1.942767 4.703187 0
M  V30 17 H -0.493280 -2.936843 3.526956 0
M  V30 18 H -1.442907 -1.976506 4.739941 0
M  V30 19 H 0.307714 -2.084538 1.570979 0
M  V30 20 H -0.150726 1.643739 -1.138883 0
M  V30 21 H 0.836484 1.472182 -3.374342 0
M  V30 22 H 2.116508 -0.669267 -4.013779 0
M  V30 23 H 2.823930 -3.551725 -2.378612 0
M  V30 24 H 2.942242 -3.220124 -2.964473 0
M  V30 25 H 1.311720 -2.280994 -0.072482 0
M  V30 26 H -0.642426 2.056405 0.717969 0
M  V30 27 H -1.962270 -0.069775 5.431407 0
M  V30 28 H -1.311582 1.650784 5.071646 0
M  V30 END ATOM
M  V30 BEGIN BOND
M  V30 1 1 1 2
M  V30 2 2 2 3
M  V30 3 1 3 4
M  V30 4 1 4 5
M  V30 5 2 5 6
M  V30 6 1 6 7
M  V30 7 2 7 8
M  V30 8 1 8 9
M  V30 9 1 9 10
M  V30 10 2 9 11
M  V30 11 2 4 12
M  V30 12 1 12 13
M  V30 13 2 13 14
M  V30 14 1 14 15
M  V30 15 1 14 2
M  V30 16 1 11 5
M  V30 17 1 1 16
M  V30 18 1 1 17
M  V30 19 1 1 18
M  V30 20 1 3 19
M  V30 21 1 6 20
M  V30 22 1 7 21
M  V30 23 1 8 22
M  V30 24 1 10 23
M  V30 25 1 10 24
M  V30 26 1 11 25
M  V30 27 1 12 26
M  V30 28 1 15 27
M  V30 29 1 15 28
M  V30 END BOND
M  V30 END CTAB
M  END
>  <Dataset>  (471) 
ChEMBL_Kinases

>  <Ligand_Instance>  (471) 
nan

>  <PDB_ID>  (471) 
nan

>  <Standardized_SMILES>  (471) 
Cc1cc(-c2cccc(N)c2)cnc1N

>  <Name>  (471) 
nan

>  <Pocket>  (471) 
nan

>  <ATP_Site>  (471) 
nan

>  <Peripheral>  (471) 
nan

>  <Num_H_Atoms_ProtBoundConf>  (471) 
nan

>  <Num_Resolved_Atoms>  (471) 
nan

>  <Num_Not_Resolved_Atoms>  (471) 
nan

$$$$
CHEMBL3262566
     RDKit          3D

  0  0  0  0  0  0  0  0  0  0999 V3000
M  V30 BEGIN CTAB
M  V30 COUNTS 24 25 0 0 0
M  V30 BEGIN ATOM
M  V30 1 N 2.273498 -1.360071 4.242608 0
M  V30 2 C 1.626022 -1.589821 2.997288 0
M  V30 3 C 1.360807 -2.858682 2.531109 0
M  V30 4 C 0.742531 -3.192562 1.346051 0
M  V30 5 C 0.356115 -2.106523 0.557269 0
M  V30 6 C 0.583788 -0.784967 0.948800 0
M  V30 7 C 0.154236 0.312774 0.074903 0
M  V30 8 C -0.969104 0.165934 -0.717381 0
M  V30 9 N -1.285401 1.241521 -1.494327 0
M  V30 10 C -0.514369 2.347223 -1.448865 0
M  V30 11 N -0.814454 3.498005 -2.250665 0
M  V30 12 N 0.570397 2.483838 -0.681260 0
M  V30 13 C 0.959134 1.454864 0.128378 0
M  V30 14 C 1.213108 -0.580506 2.159847 0
M  V30 15 H 3.199048 -1.703369 4.628324 0
M  V30 16 H 1.653296 -0.726773 4.821693 0
M  V30 17 H 1.665143 -3.715016 3.151882 0
M  V30 18 H 0.571430 -4.217970 1.053350 0
M  V30 19 H -0.132625 -2.270980 -0.383061 0
M  V30 20 H -1.541195 -0.736218 -0.710368 0
M  V30 21 H -0.406003 3.903973 -3.142396 0
M  V30 22 H -1.616808 4.073084 -1.879068 0
M  V30 23 H 1.817951 1.506617 0.763981 0
M  V30 24 H 1.385594 0.447370 2.455916 0
M  V30 END ATOM
M  V30 BEGIN BOND
M  V30 1 1 1 2
M  V30 2 2 2 3
M  V30 3 1 3 4
M  V30 4 2 4 5
M  V30 5 1 5 6
M  V30 6 1 6 7
M  V30 7 2 7 8
M  V30 8 1 8 9
M  V30 9 2 9 10
M  V30 10 1 10 11
M  V30 11 1 10 12
M  V30 12 2 12 13
M  V30 13 2 6 14
M  V30 14 1 14 2
M  V30 15 1 13 7
M  V30 16 1 1 15
M  V30 17 1 1 16
M  V30 18 1 3 17
M  V30 19 1 4 18
M  V30 20 1 5 19
M  V30 21 1 8 20
M  V30 22 1 11 21
M  V30 23 1 11 22
M  V30 24 1 13 23
M  V30 25 1 14 24
M  V30 END BOND
M  V30 END CTAB
M  END
>  <Dataset>  (472) 
ChEMBL_Kinases

>  <Ligand_Instance>  (472) 
nan

>  <PDB_ID>  (472) 
nan

>  <Standardized_SMILES>  (472) 
Nc1cccc(-c2cnc(N)nc2)c1

>  <Name>  (472) 
nan

>  <Pocket>  (472) 
nan

>  <ATP_Site>  (472) 
nan

>  <Peripheral>  (472) 
nan

>  <Num_H_Atoms_ProtBoundConf>  (472) 
nan

>  <Num_Resolved_Atoms>  (472) 
nan

>  <Num_Not_Resolved_Atoms>  (472) 
nan

$$$$
CHEMBL3262565
     RDKit          3D

  0  0  0  0  0  0  0  0  0  0999 V3000
M  V30 BEGIN CTAB
M  V30 COUNTS 27 28 0 0 0
M  V30 BEGIN ATOM
M  V30 1 C 0.283252 -3.393587 4.484963 0
M  V30 2 N 1.585150 -2.800341 4.179760 0
M  V30 3 C 1.270969 -1.965448 3.050864 0
M  V30 4 N 1.219099 -2.485119 1.813735 0
M  V30 5 C 0.934064 -1.763121 0.716432 0
M  V30 6 C 0.684462 -0.398798 0.919916 0
M  V30 7 C 0.345728 0.514383 -0.169830 0
M  V30 8 C 0.636047 1.856540 -0.290380 0
M  V30 9 C 0.209039 2.571939 -1.421275 0
M  V30 10 C -0.498702 1.877203 -2.377446 0
M  V30 11 C -0.812760 0.537908 -2.299945 0
M  V30 12 N -1.549897 -0.097704 -3.340265 0
M  V30 13 C -0.377739 -0.124892 -1.183339 0
M  V30 14 C 0.732795 0.154307 2.181839 0
M  V30 15 N 1.028520 -0.639101 3.251496 0
M  V30 16 H -0.497540 -2.645502 4.698105 0
M  V30 17 H -0.075578 -4.041441 3.648244 0
M  V30 18 H 0.393819 -4.053587 5.387151 0
M  V30 19 H 2.517838 -2.950590 4.670854 0
M  V30 20 H 0.887425 -2.166281 -0.293052 0
M  V30 21 H 1.196736 2.245804 0.548951 0
M  V30 22 H 0.476071 3.617043 -1.440682 0
M  V30 23 H -0.820996 2.461372 -3.254199 0
M  V30 24 H -2.522352 0.234396 -3.069711 0
M  V30 25 H -1.290017 -0.706249 -4.144759 0
M  V30 26 H -0.655519 -1.190458 -1.175741 0
M  V30 27 H 0.545749 1.206962 2.386544 0
M  V30 END ATOM
M  V30 BEGIN BOND
M  V30 1 1 1 2
M  V30 2 1 2 3
M  V30 3 2 3 4
M  V30 4 1 4 5
M  V30 5 2 5 6
M  V30 6 1 6 7
M  V30 7 2 7 8
M  V30 8 1 8 9
M  V30 9 2 9 10
M  V30 10 1 10 11
M  V30 11 1 11 12
M  V30 12 2 11 13
M  V30 13 1 6 14
M  V30 14 2 14 15
M  V30 15 1 15 3
M  V30 16 1 13 7
M  V30 17 1 1 16
M  V30 18 1 1 17
M  V30 19 1 1 18
M  V30 20 1 2 19
M  V30 21 1 5 20
M  V30 22 1 8 21
M  V30 23 1 9 22
M  V30 24 1 10 23
M  V30 25 1 12 24
M  V30 26 1 12 25
M  V30 27 1 13 26
M  V30 28 1 14 27
M  V30 END BOND
M  V30 END CTAB
M  END
>  <Dataset>  (473) 
ChEMBL_Kinases

>  <Ligand_Instance>  (473) 
nan

>  <PDB_ID>  (473) 
nan

>  <Standardized_SMILES>  (473) 
CNc1ncc(-c2cccc(N)c2)cn1

>  <Name>  (473) 
nan

>  <Pocket>  (473) 
nan

>  <ATP_Site>  (473) 
nan

>  <Peripheral>  (473) 
nan

>  <Num_H_Atoms_ProtBoundConf>  (473) 
nan

>  <Num_Resolved_Atoms>  (473) 
nan

>  <Num_Not_Resolved_Atoms>  (473) 
nan

$$$$
CHEMBL3262564
     RDKit          3D

  0  0  0  0  0  0  0  0  0  0999 V3000
M  V30 BEGIN CTAB
M  V30 COUNTS 25 26 0 0 0
M  V30 BEGIN ATOM
M  V30 1 N 0.687229 -0.548288 4.610268 0
M  V30 2 C 0.492881 -1.057190 3.295030 0
M  V30 3 C 0.446097 -2.428763 3.153481 0
M  V30 4 C 0.256226 -2.928044 1.868768 0
M  V30 5 C 0.118767 -2.102334 0.772281 0
M  V30 6 C 0.168880 -0.732962 0.937882 0
M  V30 7 C 0.047018 0.309758 -0.077804 0
M  V30 8 C -0.734639 1.434496 0.092228 0
M  V30 9 C -0.768515 2.348279 -0.939850 0
M  V30 10 C -0.087463 2.238660 -2.133846 0
M  V30 11 N 0.659545 1.120916 -2.244843 0
M  V30 12 C 0.728393 0.199821 -1.272042 0
M  V30 13 N 1.564451 -0.902081 -1.575364 0
M  V30 14 C 0.359293 -0.209880 2.223128 0
M  V30 15 H 0.939325 -1.130461 5.409821 0
M  V30 16 H 0.600249 0.440409 4.909205 0
M  V30 17 H 0.549163 -3.110182 3.984361 0
M  V30 18 H 0.208634 -4.004051 1.680060 0
M  V30 19 H -0.029280 -2.413236 -0.240295 0
M  V30 20 H -1.289829 1.572069 1.007628 0
M  V30 21 H -1.394772 3.225734 -0.775156 0
M  V30 22 H -0.160270 2.997442 -2.903898 0
M  V30 23 H 1.711256 -1.907277 -1.813273 0
M  V30 24 H 2.601101 -0.664900 -1.586723 0
M  V30 25 H 0.411706 0.847428 2.448915 0
M  V30 END ATOM
M  V30 BEGIN BOND
M  V30 1 1 1 2
M  V30 2 2 2 3
M  V30 3 1 3 4
M  V30 4 2 4 5
M  V30 5 1 5 6
M  V30 6 1 6 7
M  V30 7 2 7 8
M  V30 8 1 8 9
M  V30 9 2 9 10
M  V30 10 1 10 11
M  V30 11 2 11 12
M  V30 12 1 12 13
M  V30 13 2 6 14
M  V30 14 1 14 2
M  V30 15 1 12 7
M  V30 16 1 1 15
M  V30 17 1 1 16
M  V30 18 1 3 17
M  V30 19 1 4 18
M  V30 20 1 5 19
M  V30 21 1 8 20
M  V30 22 1 9 21
M  V30 23 1 10 22
M  V30 24 1 13 23
M  V30 25 1 13 24
M  V30 26 1 14 25
M  V30 END BOND
M  V30 END CTAB
M  END
>  <Dataset>  (474) 
ChEMBL_Kinases

>  <Ligand_Instance>  (474) 
nan

>  <PDB_ID>  (474) 
nan

>  <Standardized_SMILES>  (474) 
Nc1cccc(-c2cccnc2N)c1

>  <Name>  (474) 
nan

>  <Pocket>  (474) 
nan

>  <ATP_Site>  (474) 
nan

>  <Peripheral>  (474) 
nan

>  <Num_H_Atoms_ProtBoundConf>  (474) 
nan

>  <Num_Resolved_Atoms>  (474) 
nan

>  <Num_Not_Resolved_Atoms>  (474) 
nan

$$$$
CHEMBL3262563
     RDKit          3D

  0  0  0  0  0  0  0  0  0  0999 V3000
M  V30 BEGIN CTAB
M  V30 COUNTS 25 26 0 0 0
M  V30 BEGIN ATOM
M  V30 1 C 0.660122 -0.016975 3.902828 0
M  V30 2 C 0.705040 -1.300043 3.159373 0
M  V30 3 O 0.982995 -2.543424 3.486986 0
M  V30 4 N 0.880939 -3.309756 2.466728 0
M  V30 5 C 0.516184 -2.587892 1.367231 0
M  V30 6 N 0.362949 -3.314058 0.147661 0
M  V30 7 C 0.403220 -1.272058 1.830603 0
M  V30 8 C 0.012738 -0.282876 0.812884 0
M  V30 9 C -1.319524 -0.000238 0.584335 0
M  V30 10 C -1.573126 0.941928 -0.391043 0
M  V30 11 C -0.576702 1.575988 -1.106965 0
M  V30 12 C 0.752866 1.267375 -0.851033 0
M  V30 13 N 1.753174 1.942186 -1.609902 0
M  V30 14 C 1.050161 0.327860 0.119338 0
M  V30 15 H -0.332536 0.431472 3.771593 0
M  V30 16 H 1.515264 0.617672 3.669549 0
M  V30 17 H 0.752913 -0.278235 4.997282 0
M  V30 18 H 1.255866 -3.620958 -0.300741 0
M  V30 19 H -0.539615 -3.538895 -0.289797 0
M  V30 20 H -2.097311 -0.498869 1.147052 0
M  V30 21 H -2.588354 1.199881 -0.609860 0
M  V30 22 H -0.820675 2.315153 -1.869890 0
M  V30 23 H 1.537455 2.151538 -2.619186 0
M  V30 24 H 2.701454 2.257795 -1.258099 0
M  V30 25 H 2.089950 0.130792 0.273037 0
M  V30 END ATOM
M  V30 BEGIN BOND
M  V30 1 1 1 2
M  V30 2 1 2 3
M  V30 3 1 3 4
M  V30 4 2 4 5
M  V30 5 1 5 6
M  V30 6 1 5 7
M  V30 7 1 7 8
M  V30 8 2 8 9
M  V30 9 1 9 10
M  V30 10 2 10 11
M  V30 11 1 11 12
M  V30 12 1 12 13
M  V30 13 2 12 14
M  V30 14 2 7 2
M  V30 15 1 14 8
M  V30 16 1 1 15
M  V30 17 1 1 16
M  V30 18 1 1 17
M  V30 19 1 6 18
M  V30 20 1 6 19
M  V30 21 1 9 20
M  V30 22 1 10 21
M  V30 23 1 11 22
M  V30 24 1 13 23
M  V30 25 1 13 24
M  V30 26 1 14 25
M  V30 END BOND
M  V30 END CTAB
M  END
>  <Dataset>  (475) 
ChEMBL_Kinases

>  <Ligand_Instance>  (475) 
nan

>  <PDB_ID>  (475) 
nan

>  <Standardized_SMILES>  (475) 
Cc1onc(N)c1-c1cccc(N)c1

>  <Name>  (475) 
nan

>  <Pocket>  (475) 
nan

>  <ATP_Site>  (475) 
nan

>  <Peripheral>  (475) 
nan

>  <Num_H_Atoms_ProtBoundConf>  (475) 
nan

>  <Num_Resolved_Atoms>  (475) 
nan

>  <Num_Not_Resolved_Atoms>  (475) 
nan

$$$$
CHEMBL3262562
     RDKit          3D

  0  0  0  0  0  0  0  0  0  0999 V3000
M  V30 BEGIN CTAB
M  V30 COUNTS 20 21 0 0 0
M  V30 BEGIN ATOM
M  V30 1 N -0.907075 2.139531 2.562806 0
M  V30 2 C -0.100586 1.037220 2.145707 0
M  V30 3 C 0.573975 0.369204 3.131908 0
M  V30 4 C 1.358273 -0.695933 2.762253 0
M  V30 5 C 1.489660 -1.111557 1.453490 0
M  V30 6 C 0.802497 -0.426730 0.471637 0
M  V30 7 C 0.796108 -0.691558 -0.963034 0
M  V30 8 C 1.564812 -1.756272 -1.434145 0
M  V30 9 N 1.409760 -1.813262 -2.767562 0
M  V30 10 C 0.559685 -0.794434 -3.080206 0
M  V30 11 O 0.207472 -0.141808 -1.998169 0
M  V30 12 C 0.003060 0.653854 0.821549 0
M  V30 13 H -1.852281 1.791001 2.855123 0
M  V30 14 H -0.750575 3.162364 2.630025 0
M  V30 15 H 0.537441 0.613862 4.174430 0
M  V30 16 H 1.937749 -1.298725 3.457337 0
M  V30 17 H 2.082909 -1.933659 1.087559 0
M  V30 18 H 2.202122 -2.472015 -0.946992 0
M  V30 19 H 0.217896 -0.552239 -4.086081 0
M  V30 20 H -0.572805 1.250036 0.115801 0
M  V30 END ATOM
M  V30 BEGIN BOND
M  V30 1 1 1 2
M  V30 2 2 2 3
M  V30 3 1 3 4
M  V30 4 2 4 5
M  V30 5 1 5 6
M  V30 6 1 6 7
M  V30 7 2 7 8
M  V30 8 1 8 9
M  V30 9 2 9 10
M  V30 10 1 10 11
M  V30 11 2 6 12
M  V30 12 1 12 2
M  V30 13 1 11 7
M  V30 14 1 1 13
M  V30 15 1 1 14
M  V30 16 1 3 15
M  V30 17 1 4 16
M  V30 18 1 5 17
M  V30 19 1 8 18
M  V30 20 1 10 19
M  V30 21 1 12 20
M  V30 END BOND
M  V30 END CTAB
M  END
>  <Dataset>  (476) 
ChEMBL_Kinases

>  <Ligand_Instance>  (476) 
nan

>  <PDB_ID>  (476) 
nan

>  <Standardized_SMILES>  (476) 
Nc1cccc(-c2cnco2)c1

>  <Name>  (476) 
nan

>  <Pocket>  (476) 
nan

>  <ATP_Site>  (476) 
nan

>  <Peripheral>  (476) 
nan

>  <Num_H_Atoms_ProtBoundConf>  (476) 
nan

>  <Num_Resolved_Atoms>  (476) 
nan

>  <Num_Not_Resolved_Atoms>  (476) 
nan

$$$$
CHEMBL3261343
     RDKit          3D

  0  0  0  0  0  0  0  0  0  0999 V3000
M  V30 BEGIN CTAB
M  V30 COUNTS 47 51 0 0 0
M  V30 BEGIN ATOM
M  V30 1 C 5.408233 -5.885870 1.359508 0
M  V30 2 C 6.466373 -4.923072 0.976608 0
M  V30 3 O 7.642667 -5.257342 0.667459 0
M  V30 4 C 6.181943 -3.490604 0.939251 0
M  V30 5 C 7.170558 -2.601534 0.582444 0
M  V30 6 C 6.960338 -1.232531 0.529085 0
M  V30 7 C 5.712315 -0.738609 0.845456 0
M  V30 8 C 4.694099 -1.601672 1.208581 0
M  V30 9 N 3.408576 -1.053799 1.531191 0
M  V30 10 C 2.501771 -0.915916 0.459531 0
M  V30 11 O 2.801397 -1.249121 -0.689719 0
M  V30 12 C 1.144607 -0.353470 0.716675 0
M  V30 13 S 0.596415 0.153767 2.283714 0
M  V30 14 C -1.068963 0.677450 1.729209 0
M  V30 15 N -2.115306 1.201790 2.401263 0
M  V30 16 C -3.265331 1.519693 1.789854 0
M  V30 17 C -4.296722 2.050109 2.523156 0
M  V30 18 C -5.439069 2.338751 1.773938 0
M  V30 19 C -5.494837 2.101459 0.423928 0
M  V30 20 C -4.426383 1.566013 -0.262376 0
M  V30 21 C -3.253110 1.256409 0.438395 0
M  V30 22 C -2.206872 0.725381 -0.268806 0
M  V30 23 C -1.028879 0.404458 0.382079 0
M  V30 24 C 0.116646 -0.124990 -0.120719 0
M  V30 25 N 0.312941 -0.465722 -1.513094 0
M  V30 26 O -6.691973 2.438402 -0.181262 0
M  V30 27 C -7.946441 2.364622 0.469130 0
M  V30 28 C -7.867138 2.612465 1.955567 0
M  V30 29 O -6.547054 2.876533 2.394184 0
M  V30 30 C 4.933840 -2.974495 1.253804 0
M  V30 31 H 5.748472 -6.925139 1.096126 0
M  V30 32 H 4.436128 -5.659511 0.880862 0
M  V30 33 H 5.185922 -5.871060 2.464866 0
M  V30 34 H 8.175831 -2.956208 0.324034 0
M  V30 35 H 7.729878 -0.539297 0.251251 0
M  V30 36 H 5.559014 0.335198 0.800288 0
M  V30 37 H 3.174970 -0.774286 2.530343 0
M  V30 38 H -4.224676 2.226480 3.587068 0
M  V30 39 H -4.534152 1.403231 -1.325805 0
M  V30 40 H -2.343534 0.570201 -1.349639 0
M  V30 41 H 0.117084 -1.337439 -2.052639 0
M  V30 42 H 0.724262 0.204244 -2.227680 0
M  V30 43 H -8.331150 1.314300 0.312314 0
M  V30 44 H -8.603738 3.104056 -0.025789 0
M  V30 45 H -8.523846 3.472208 2.190889 0
M  V30 46 H -8.255586 1.726457 2.532453 0
M  V30 47 H 4.150566 -3.656261 1.534618 0
M  V30 END ATOM
M  V30 BEGIN BOND
M  V30 1 1 1 2
M  V30 2 2 2 3
M  V30 3 1 2 4
M  V30 4 2 4 5
M  V30 5 1 5 6
M  V30 6 2 6 7
M  V30 7 1 7 8
M  V30 8 1 8 9
M  V30 9 1 9 10
M  V30 10 2 10 11
M  V30 11 1 10 12
M  V30 12 1 12 13
M  V30 13 1 13 14
M  V30 14 2 14 15
M  V30 15 1 15 16
M  V30 16 2 16 17
M  V30 17 1 17 18
M  V30 18 2 18 19
M  V30 19 1 19 20
M  V30 20 2 20 21
M  V30 21 1 21 22
M  V30 22 2 22 23
M  V30 23 1 23 24
M  V30 24 1 24 25
M  V30 25 1 19 26
M  V30 26 1 26 27
M  V30 27 1 27 28
M  V30 28 1 28 29
M  V30 29 2 8 30
M  V30 30 1 30 4
M  V30 31 2 24 12
M  V30 32 1 23 14
M  V30 33 1 21 16
M  V30 34 1 29 18
M  V30 35 1 1 31
M  V30 36 1 1 32
M  V30 37 1 1 33
M  V30 38 1 5 34
M  V30 39 1 6 35
M  V30 40 1 7 36
M  V30 41 1 9 37
M  V30 42 1 17 38
M  V30 43 1 20 39
M  V30 44 1 22 40
M  V30 45 1 25 41
M  V30 46 1 25 42
M  V30 47 1 27 43
M  V30 48 1 27 44
M  V30 49 1 28 45
M  V30 50 1 28 46
M  V30 51 1 30 47
M  V30 END BOND
M  V30 END CTAB
M  END
>  <Dataset>  (477) 
ChEMBL_Kinases

>  <Ligand_Instance>  (477) 
nan

>  <PDB_ID>  (477) 
nan

>  <Standardized_SMILES>  (477) 
CC(=O)c1cccc(NC(=O)c2sc3nc4cc5c(cc4cc3c2N)OCCO5)c1

>  <Name>  (477) 
nan

>  <Pocket>  (477) 
nan

>  <ATP_Site>  (477) 
nan

>  <Peripheral>  (477) 
nan

>  <Num_H_Atoms_ProtBoundConf>  (477) 
nan

>  <Num_Resolved_Atoms>  (477) 
nan

>  <Num_Not_Resolved_Atoms>  (477) 
nan

$$$$
CHEMBL3261164
     RDKit          3D

  0  0  0  0  0  0  0  0  0  0999 V3000
M  V30 BEGIN CTAB
M  V30 COUNTS 39 41 0 0 0
M  V30 BEGIN ATOM
M  V30 1 O 0.314700 -1.137475 0.969191 0
M  V30 2 C -0.665034 -0.421618 0.779096 0
M  V30 3 C -0.586881 0.894541 0.402351 0
M  V30 4 C 0.693744 1.358409 0.256182 0
M  V30 5 N 1.951645 0.738173 0.411315 0
M  V30 6 C 2.804367 -0.299857 -0.040363 0
M  V30 7 C 3.420010 -1.380524 0.548928 0
M  V30 8 C 4.186256 -2.198486 -0.207645 0
M  V30 9 C 4.399408 -2.024130 -1.553501 0
M  V30 10 I 5.632652 -3.428048 -2.524314 0
M  V30 11 C 3.799728 -0.956117 -2.170017 0
M  V30 12 C 2.998993 -0.089271 -1.413860 0
M  V30 13 F 2.499707 0.901442 -2.213694 0
M  V30 14 C 0.870376 2.679505 -0.119993 0
M  V30 15 N -0.216837 3.453356 -0.327176 0
M  V30 16 C -1.469430 2.936476 -0.166861 0
M  V30 17 C -1.700128 1.649454 0.200617 0
M  V30 18 C -2.907876 1.037410 0.390006 0
M  V30 19 I -4.623353 2.219933 0.072831 0
M  V30 20 N -2.946924 -0.250719 0.758470 0
M  V30 21 N -1.857417 -1.001347 0.959847 0
M  V30 22 C -2.216177 -2.335301 1.370098 0
M  V30 23 C -2.425848 -2.359253 2.859093 0 CFG=2
M  V30 24 O -3.469955 -1.429141 3.097760 0
M  V30 25 C -1.236013 -1.924844 3.629199 0
M  V30 26 O -0.121352 -2.740762 3.517717 0
M  V30 27 H 2.593731 1.134364 1.135654 0
M  V30 28 H 3.166286 -1.392748 1.599670 0
M  V30 29 H 4.629882 -3.022194 0.343508 0
M  V30 30 H 4.005395 -0.873260 -3.227012 0
M  V30 31 H 1.783269 3.229499 -0.285885 0
M  V30 32 H -2.335952 3.563435 -0.335788 0
M  V30 33 H -3.100359 -2.723326 0.824040 0
M  V30 34 H -1.385509 -3.033418 1.126122 0
M  V30 35 H -2.831412 -3.341572 3.202984 0
M  V30 36 H -3.109126 -0.599141 3.495301 0
M  V30 37 H -0.934197 -0.892995 3.364421 0
M  V30 38 H -1.497347 -1.945471 4.723739 0
M  V30 39 H 0.473944 -2.635781 4.294079 0
M  V30 END ATOM
M  V30 BEGIN BOND
M  V30 1 2 1 2
M  V30 2 1 2 3
M  V30 3 2 3 4
M  V30 4 1 4 5
M  V30 5 1 5 6
M  V30 6 2 6 7
M  V30 7 1 7 8
M  V30 8 2 8 9
M  V30 9 1 9 10
M  V30 10 1 9 11
M  V30 11 2 11 12
M  V30 12 1 12 13
M  V30 13 1 4 14
M  V30 14 2 14 15
M  V30 15 1 15 16
M  V30 16 2 16 17
M  V30 17 1 17 18
M  V30 18 1 18 19
M  V30 19 2 18 20
M  V30 20 1 20 21
M  V30 21 1 21 22
M  V30 22 1 22 23
M  V30 23 1 23 24
M  V30 24 1 23 25
M  V30 25 1 25 26
M  V30 26 1 21 2
M  V30 27 1 17 3
M  V30 28 1 12 6
M  V30 29 1 5 27
M  V30 30 1 7 28
M  V30 31 1 8 29
M  V30 32 1 11 30
M  V30 33 1 14 31
M  V30 34 1 16 32
M  V30 35 1 22 33
M  V30 36 1 22 34
M  V30 37 1 23 35 CFG=1
M  V30 38 1 24 36
M  V30 39 1 25 37
M  V30 40 1 25 38
M  V30 41 1 26 39
M  V30 END BOND
M  V30 END CTAB
M  END
>  <Dataset>  (478) 
ChEMBL_Kinases

>  <Ligand_Instance>  (478) 
nan

>  <PDB_ID>  (478) 
nan

>  <Standardized_SMILES>  (478) 
O=c1c2c(Nc3ccc(I)cc3F)cncc2c(I)nn1C[C@H](O)CO

>  <Name>  (478) 
nan

>  <Pocket>  (478) 
nan

>  <ATP_Site>  (478) 
nan

>  <Peripheral>  (478) 
nan

>  <Num_H_Atoms_ProtBoundConf>  (478) 
nan

>  <Num_Resolved_Atoms>  (478) 
nan

>  <Num_Not_Resolved_Atoms>  (478) 
nan

$$$$
CHEMBL3261163
     RDKit          3D

  0  0  0  0  0  0  0  0  0  0999 V3000
M  V30 BEGIN CTAB
M  V30 COUNTS 42 44 0 0 0
M  V30 BEGIN ATOM
M  V30 1 C 0.764236 -5.058049 -0.967950 0
M  V30 2 C 0.610582 -3.596846 -0.638845 0
M  V30 3 N 0.296739 -2.688507 -1.578016 0
M  V30 4 N 0.159233 -1.385105 -1.292324 0
M  V30 5 C -0.183639 -0.458091 -2.373452 0
M  V30 6 C 1.010401 0.111182 -3.062934 0 CFG=1
M  V30 7 O 0.531100 0.968783 -4.060122 0
M  V30 8 C 1.925738 0.905220 -2.179280 0
M  V30 9 O 2.965304 1.378564 -3.007544 0
M  V30 10 C 0.348714 -1.019591 -0.017459 0
M  V30 11 O 0.217219 0.194599 0.183019 0
M  V30 12 C 0.666121 -1.927959 0.955632 0
M  V30 13 C 0.834095 -1.318610 2.166758 0
M  V30 14 N 0.757071 -0.050146 2.755897 0
M  V30 15 C -0.190083 0.897819 3.187595 0
M  V30 16 C 0.114730 1.004633 4.573836 0
M  V30 17 C -0.543336 1.812330 5.509153 0
M  V30 18 C -1.586307 2.577144 5.040766 0
M  V30 19 I -2.711762 3.853837 6.267672 0
M  V30 20 C -1.920453 2.514548 3.725241 0
M  V30 21 C -1.237256 1.709193 2.881178 0
M  V30 22 F -1.599489 1.658450 1.594129 0
M  V30 23 C 1.203476 -2.259251 3.156541 0
M  V30 24 N 1.371679 -3.599655 2.960683 0
M  V30 25 C 1.171440 -4.095456 1.710669 0
M  V30 26 C 0.812351 -3.257451 0.681286 0
M  V30 27 H 1.843774 -5.332488 -1.016263 0
M  V30 28 H 0.275437 -5.707958 -0.222194 0
M  V30 29 H 0.261343 -5.275643 -1.946548 0
M  V30 30 H -0.777584 0.410578 -1.984859 0
M  V30 31 H -0.801718 -0.971333 -3.109035 0
M  V30 32 H 1.620692 -0.653918 -3.585448 0
M  V30 33 H 0.461233 1.865205 -3.645376 0
M  V30 34 H 1.441950 1.805422 -1.754043 0
M  V30 35 H 2.446439 0.280974 -1.424690 0
M  V30 36 H 3.021435 2.365703 -3.017363 0
M  V30 37 H 1.794034 0.219977 2.840883 0
M  V30 38 H 0.897745 0.496429 5.173190 0
M  V30 39 H -0.368383 1.941874 6.563656 0
M  V30 40 H -2.726091 3.091436 3.309159 0
M  V30 41 H 1.409788 -2.068995 4.216626 0
M  V30 42 H 1.276893 -5.131395 1.461888 0
M  V30 END ATOM
M  V30 BEGIN BOND
M  V30 1 1 1 2
M  V30 2 2 2 3
M  V30 3 1 3 4
M  V30 4 1 4 5
M  V30 5 1 5 6
M  V30 6 1 6 7
M  V30 7 1 6 8
M  V30 8 1 8 9
M  V30 9 1 4 10
M  V30 10 2 10 11
M  V30 11 1 10 12
M  V30 12 2 12 13
M  V30 13 1 13 14
M  V30 14 1 14 15
M  V30 15 2 15 16
M  V30 16 1 16 17
M  V30 17 2 17 18
M  V30 18 1 18 19
M  V30 19 1 18 20
M  V30 20 2 20 21
M  V30 21 1 21 22
M  V30 22 1 13 23
M  V30 23 2 23 24
M  V30 24 1 24 25
M  V30 25 2 25 26
M  V30 26 1 26 2
M  V30 27 1 26 12
M  V30 28 1 21 15
M  V30 29 1 1 27
M  V30 30 1 1 28
M  V30 31 1 1 29
M  V30 32 1 5 30
M  V30 33 1 5 31
M  V30 34 1 6 32 CFG=3
M  V30 35 1 7 33
M  V30 36 1 8 34
M  V30 37 1 8 35
M  V30 38 1 9 36
M  V30 39 1 14 37
M  V30 40 1 16 38
M  V30 41 1 17 39
M  V30 42 1 20 40
M  V30 43 1 23 41
M  V30 44 1 25 42
M  V30 END BOND
M  V30 END CTAB
M  END
>  <Dataset>  (479) 
ChEMBL_Kinases

>  <Ligand_Instance>  (479) 
nan

>  <PDB_ID>  (479) 
nan

>  <Standardized_SMILES>  (479) 
Cc1nn(C[C@@H](O)CO)c(=O)c2c(Nc3ccc(I)cc3F)cncc12

>  <Name>  (479) 
nan

>  <Pocket>  (479) 
nan

>  <ATP_Site>  (479) 
nan

>  <Peripheral>  (479) 
nan

>  <Num_H_Atoms_ProtBoundConf>  (479) 
nan

>  <Num_Resolved_Atoms>  (479) 
nan

>  <Num_Not_Resolved_Atoms>  (479) 
nan

$$$$
CHEMBL3261162
     RDKit          3D

  0  0  0  0  0  0  0  0  0  0999 V3000
M  V30 BEGIN CTAB
M  V30 COUNTS 42 44 0 0 0
M  V30 BEGIN ATOM
M  V30 1 C 3.065039 -4.581712 1.135721 0
M  V30 2 C 2.518911 -3.184852 0.998727 0
M  V30 3 N 2.928382 -2.364799 0.019298 0
M  V30 4 N 2.460912 -1.113466 -0.128704 0
M  V30 5 C 3.021256 -0.403895 -1.246289 0
M  V30 6 C 2.313629 -0.596820 -2.544818 0 CFG=2
M  V30 7 O 2.920114 0.114963 -3.598949 0
M  V30 8 C 0.874665 -0.104670 -2.520858 0
M  V30 9 O 0.807362 1.263449 -2.321301 0
M  V30 10 C 1.547575 -0.719248 0.768100 0
M  V30 11 O 1.150699 0.432551 0.606849 0
M  V30 12 C 1.112071 -1.538140 1.774295 0
M  V30 13 C 0.202488 -0.899583 2.570719 0
M  V30 14 N -0.456296 0.320653 2.678399 0
M  V30 15 C -1.499952 1.064970 2.092859 0
M  V30 16 C -2.382730 1.238698 3.199539 0
M  V30 17 C -3.615303 1.906334 3.181189 0
M  V30 18 C -4.009064 2.443889 1.983622 0
M  V30 19 I -5.813404 3.482983 1.710390 0
M  V30 20 C -3.205065 2.312317 0.879392 0
M  V30 21 C -2.021131 1.647842 0.981064 0
M  V30 22 F -1.256470 1.514880 -0.104466 0
M  V30 23 C -0.208345 -1.744658 3.634741 0
M  V30 24 N 0.220685 -3.028027 3.861000 0
M  V30 25 C 1.127874 -3.548706 2.985569 0
M  V30 26 C 1.581192 -2.814039 1.938584 0
M  V30 27 H 2.282443 -5.338050 1.203259 0
M  V30 28 H 3.780755 -4.724035 0.320854 0
M  V30 29 H 3.651895 -4.651644 2.097956 0
M  V30 30 H 4.070848 -0.737393 -1.392600 0
M  V30 31 H 3.100900 0.701948 -1.030092 0
M  V30 32 H 2.341500 -1.661168 -2.877477 0
M  V30 33 H 2.287632 0.283795 -4.333821 0
M  V30 34 H 0.391498 -0.293644 -3.501929 0
M  V30 35 H 0.252451 -0.615996 -1.764447 0
M  V30 36 H 1.712789 1.705932 -2.357542 0
M  V30 37 H 0.098583 0.795010 3.468794 0
M  V30 38 H -2.288650 0.902406 4.251347 0
M  V30 39 H -4.330116 2.078014 3.962680 0
M  V30 40 H -3.457073 2.707193 -0.072517 0
M  V30 41 H -0.927040 -1.506634 4.436261 0
M  V30 42 H 1.511388 -4.539196 3.086312 0
M  V30 END ATOM
M  V30 BEGIN BOND
M  V30 1 1 1 2
M  V30 2 2 2 3
M  V30 3 1 3 4
M  V30 4 1 4 5
M  V30 5 1 5 6
M  V30 6 1 6 7
M  V30 7 1 6 8
M  V30 8 1 8 9
M  V30 9 1 4 10
M  V30 10 2 10 11
M  V30 11 1 10 12
M  V30 12 2 12 13
M  V30 13 1 13 14
M  V30 14 1 14 15
M  V30 15 2 15 16
M  V30 16 1 16 17
M  V30 17 2 17 18
M  V30 18 1 18 19
M  V30 19 1 18 20
M  V30 20 2 20 21
M  V30 21 1 21 22
M  V30 22 1 13 23
M  V30 23 2 23 24
M  V30 24 1 24 25
M  V30 25 2 25 26
M  V30 26 1 26 2
M  V30 27 1 26 12
M  V30 28 1 21 15
M  V30 29 1 1 27
M  V30 30 1 1 28
M  V30 31 1 1 29
M  V30 32 1 5 30
M  V30 33 1 5 31
M  V30 34 1 6 32 CFG=3
M  V30 35 1 7 33
M  V30 36 1 8 34
M  V30 37 1 8 35
M  V30 38 1 9 36
M  V30 39 1 14 37
M  V30 40 1 16 38
M  V30 41 1 17 39
M  V30 42 1 20 40
M  V30 43 1 23 41
M  V30 44 1 25 42
M  V30 END BOND
M  V30 END CTAB
M  END
>  <Dataset>  (480) 
ChEMBL_Kinases

>  <Ligand_Instance>  (480) 
nan

>  <PDB_ID>  (480) 
nan

>  <Standardized_SMILES>  (480) 
Cc1nn(C[C@H](O)CO)c(=O)c2c(Nc3ccc(I)cc3F)cncc12

>  <Name>  (480) 
nan

>  <Pocket>  (480) 
nan

>  <ATP_Site>  (480) 
nan

>  <Peripheral>  (480) 
nan

>  <Num_H_Atoms_ProtBoundConf>  (480) 
nan

>  <Num_Resolved_Atoms>  (480) 
nan

>  <Num_Not_Resolved_Atoms>  (480) 
nan

$$$$
CHEMBL3261161
     RDKit          3D

  0  0  0  0  0  0  0  0  0  0999 V3000
M  V30 BEGIN CTAB
M  V30 COUNTS 39 41 0 0 0
M  V30 BEGIN ATOM
M  V30 1 O 0.496582 -1.078579 0.473322 0
M  V30 2 C -0.397902 -0.416164 1.026693 0
M  V30 3 C -0.178761 0.819653 1.586282 0
M  V30 4 C 1.121178 1.254792 1.478192 0
M  V30 5 N 2.266030 0.705692 0.912891 0
M  V30 6 C 2.887190 0.230790 -0.267112 0
M  V30 7 C 3.439745 -0.970865 -0.651523 0
M  V30 8 C 3.963759 -1.082048 -1.915916 0
M  V30 9 C 3.972221 -0.056407 -2.834832 0
M  V30 10 I 4.829562 -0.469072 -4.701774 0
M  V30 11 C 3.421983 1.151388 -2.461222 0
M  V30 12 C 2.877734 1.300019 -1.177244 0
M  V30 13 F 2.396115 2.558289 -1.025932 0
M  V30 14 C 1.415346 2.502844 2.027859 0
M  V30 15 N 0.437592 3.234672 2.637610 0
M  V30 16 C -0.803251 2.731523 2.696490 0
M  V30 17 C -1.185473 1.519402 2.187063 0
M  V30 18 C -2.441348 0.971604 2.229674 0
M  V30 19 N -2.613122 -0.222662 1.678688 0
M  V30 20 N -1.637601 -0.916300 1.088930 0
M  V30 21 C -1.945366 -2.216880 0.519220 0
M  V30 22 C -1.762936 -3.347385 1.510739 0 CFG=2
M  V30 23 O -2.097076 -4.528632 0.812849 0
M  V30 24 C -2.754883 -3.131562 2.632450 0
M  V30 25 O -2.759098 -4.185587 3.540281 0
M  V30 26 H 3.073079 0.525593 1.550279 0
M  V30 27 H 3.364249 -1.667552 0.154231 0
M  V30 28 H 4.374052 -2.087760 -2.102552 0
M  V30 29 H 3.465191 1.905565 -3.232753 0
M  V30 30 H 2.376591 3.024782 2.048271 0
M  V30 31 H -1.569743 3.329189 3.185646 0
M  V30 32 H -3.210821 1.554658 2.712779 0
M  V30 33 H -3.035158 -2.220027 0.261783 0
M  V30 34 H -1.411857 -2.397980 -0.436152 0
M  V30 35 H -0.738872 -3.409987 1.879728 0
M  V30 36 H -2.860344 -4.289805 0.223011 0
M  V30 37 H -2.462523 -2.220603 3.168564 0
M  V30 38 H -3.752918 -2.948230 2.191829 0
M  V30 39 H -1.972183 -4.097170 4.137772 0
M  V30 END ATOM
M  V30 BEGIN BOND
M  V30 1 2 1 2
M  V30 2 1 2 3
M  V30 3 2 3 4
M  V30 4 1 4 5
M  V30 5 1 5 6
M  V30 6 2 6 7
M  V30 7 1 7 8
M  V30 8 2 8 9
M  V30 9 1 9 10
M  V30 10 1 9 11
M  V30 11 2 11 12
M  V30 12 1 12 13
M  V30 13 1 4 14
M  V30 14 2 14 15
M  V30 15 1 15 16
M  V30 16 2 16 17
M  V30 17 1 17 18
M  V30 18 2 18 19
M  V30 19 1 19 20
M  V30 20 1 20 21
M  V30 21 1 21 22
M  V30 22 1 22 23
M  V30 23 1 22 24
M  V30 24 1 24 25
M  V30 25 1 20 2
M  V30 26 1 17 3
M  V30 27 1 12 6
M  V30 28 1 5 26
M  V30 29 1 7 27
M  V30 30 1 8 28
M  V30 31 1 11 29
M  V30 32 1 14 30
M  V30 33 1 16 31
M  V30 34 1 18 32
M  V30 35 1 21 33
M  V30 36 1 21 34
M  V30 37 1 22 35 CFG=1
M  V30 38 1 23 36
M  V30 39 1 24 37
M  V30 40 1 24 38
M  V30 41 1 25 39
M  V30 END BOND
M  V30 END CTAB
M  END
>  <Dataset>  (481) 
ChEMBL_Kinases

>  <Ligand_Instance>  (481) 
nan

>  <PDB_ID>  (481) 
nan

>  <Standardized_SMILES>  (481) 
O=c1c2c(Nc3ccc(I)cc3F)cncc2cnn1C[C@H](O)CO

>  <Name>  (481) 
nan

>  <Pocket>  (481) 
nan

>  <ATP_Site>  (481) 
nan

>  <Peripheral>  (481) 
nan

>  <Num_H_Atoms_ProtBoundConf>  (481) 
nan

>  <Num_Resolved_Atoms>  (481) 
nan

>  <Num_Not_Resolved_Atoms>  (481) 
nan

$$$$
CHEMBL3237177
     RDKit          3D

  0  0  0  0  0  0  0  0  0  0999 V3000
M  V30 BEGIN CTAB
M  V30 COUNTS 70 74 0 0 0
M  V30 BEGIN ATOM
M  V30 1 C 5.730324 1.348613 4.033764 0
M  V30 2 O 4.761634 1.162166 2.990704 0
M  V30 3 C 5.092513 1.495338 1.683146 0
M  V30 4 O 6.247337 1.939186 1.561856 0
M  V30 5 C 4.193087 1.348058 0.544916 0
M  V30 6 C 4.690122 1.726343 -0.689553 0
M  V30 7 C 3.813178 1.567341 -1.767937 0
M  V30 8 C 2.523229 1.069394 -1.664630 0
M  V30 9 N 1.722910 0.931586 -2.835249 0
M  V30 10 C 0.380352 0.464286 -2.697754 0
M  V30 11 N -0.753378 1.204871 -2.695308 0
M  V30 12 C -1.965282 0.638010 -2.543777 0
M  V30 13 N -3.093652 1.502711 -2.560988 0
M  V30 14 C -3.490501 2.038834 -1.303500 0
M  V30 15 C -4.394304 1.384097 -0.477586 0
M  V30 16 C -4.528317 2.207416 0.645618 0
M  V30 17 C -5.400498 1.931520 1.831335 0
M  V30 18 N -3.734483 3.307958 0.490457 0
M  V30 19 N -3.130401 3.180738 -0.675763 0
M  V30 20 C -2.079522 -0.726227 -2.385221 0
M  V30 21 C -0.932519 -1.491876 -2.385485 0
M  V30 22 N -0.920488 -2.907491 -2.221719 0
M  V30 23 C 0.323877 -3.688053 -2.256687 0
M  V30 24 C 0.511119 -4.250542 -0.858409 0
M  V30 25 N -0.610927 -4.847330 -0.315207 0
M  V30 26 S -0.723786 -4.815535 1.367783 0
M  V30 27 O 0.499708 -5.497385 1.977141 0
M  V30 28 O -1.892649 -5.653169 1.878135 0
M  V30 29 C -0.799331 -3.235308 2.077836 0
M  V30 30 C -2.014102 -2.599677 2.349763 0
M  V30 31 C -2.028567 -1.328601 2.930552 0
M  V30 32 C -0.806312 -0.729736 3.223318 0
M  V30 33 C -0.800672 0.632917 3.852626 0
M  V30 34 C 0.398016 -1.344850 2.960383 0
M  V30 35 C 0.409069 -2.597769 2.387897 0
M  V30 36 C -1.815825 -4.866025 -1.028704 0
M  V30 37 C -2.039961 -3.757164 -2.009501 0
M  V30 38 N 0.261148 -0.882387 -2.540764 0
M  V30 39 C 2.084012 0.713638 -0.428935 0
M  V30 40 C 2.917790 0.851902 0.680340 0
M  V30 41 H 6.400669 0.447278 4.085366 0
M  V30 42 H 6.335429 2.267471 3.870497 0
M  V30 43 H 5.202471 1.370710 5.013195 0
M  V30 44 H 5.684922 2.119006 -0.823669 0
M  V30 45 H 4.228572 1.874136 -2.726640 0
M  V30 46 H 2.122070 1.168964 -3.767473 0
M  V30 47 H -3.760072 1.882823 -3.286181 0
M  V30 48 H -4.871733 0.455994 -0.674391 0
M  V30 49 H -5.364816 0.805885 1.935249 0
M  V30 50 H -6.426878 2.265875 1.620753 0
M  V30 51 H -4.957463 2.406296 2.726341 0
M  V30 52 H -3.636162 4.090110 1.172177 0
M  V30 53 H -3.026523 -1.197499 -2.262753 0
M  V30 54 H 0.192959 -4.460723 -3.029442 0
M  V30 55 H 1.163771 -3.039339 -2.552044 0
M  V30 56 H 1.409974 -4.927792 -0.933286 0
M  V30 57 H 0.853308 -3.379263 -0.231077 0
M  V30 58 H -2.937370 -3.124038 2.096824 0
M  V30 59 H -2.992162 -0.849799 3.136960 0
M  V30 60 H -0.312375 1.381531 3.179056 0
M  V30 61 H -1.837994 0.993677 4.001592 0
M  V30 62 H -0.250065 0.642692 4.808641 0
M  V30 63 H 1.328274 -0.830898 3.209727 0
M  V30 64 H 1.383103 -3.067741 2.188298 0
M  V30 65 H -1.917021 -5.876346 -1.556168 0
M  V30 66 H -2.714792 -4.902491 -0.318799 0
M  V30 67 H -2.957847 -3.197935 -1.692165 0
M  V30 68 H -2.258828 -4.254200 -3.014300 0
M  V30 69 H 1.068212 0.319918 -0.335006 0
M  V30 70 H 2.526190 0.553581 1.652331 0
M  V30 END ATOM
M  V30 BEGIN BOND
M  V30 1 1 1 2
M  V30 2 1 2 3
M  V30 3 2 3 4
M  V30 4 1 3 5
M  V30 5 2 5 6
M  V30 6 1 6 7
M  V30 7 2 7 8
M  V30 8 1 8 9
M  V30 9 1 9 10
M  V30 10 2 10 11
M  V30 11 1 11 12
M  V30 12 1 12 13
M  V30 13 1 13 14
M  V30 14 1 14 15
M  V30 15 2 15 16
M  V30 16 1 16 17
M  V30 17 1 16 18
M  V30 18 1 18 19
M  V30 19 2 12 20
M  V30 20 1 20 21
M  V30 21 1 21 22
M  V30 22 1 22 23
M  V30 23 1 23 24
M  V30 24 1 24 25
M  V30 25 1 25 26
M  V30 26 2 26 27
M  V30 27 2 26 28
M  V30 28 1 26 29
M  V30 29 2 29 30
M  V30 30 1 30 31
M  V30 31 2 31 32
M  V30 32 1 32 33
M  V30 33 1 32 34
M  V30 34 2 34 35
M  V30 35 1 25 36
M  V30 36 1 36 37
M  V30 37 2 21 38
M  V30 38 1 8 39
M  V30 39 2 39 40
M  V30 40 1 40 5
M  V30 41 1 38 10
M  V30 42 2 19 14
M  V30 43 1 37 22
M  V30 44 1 35 29
M  V30 45 1 1 41
M  V30 46 1 1 42
M  V30 47 1 1 43
M  V30 48 1 6 44
M  V30 49 1 7 45
M  V30 50 1 9 46
M  V30 51 1 13 47
M  V30 52 1 15 48
M  V30 53 1 17 49
M  V30 54 1 17 50
M  V30 55 1 17 51
M  V30 56 1 18 52
M  V30 57 1 20 53
M  V30 58 1 23 54
M  V30 59 1 23 55
M  V30 60 1 24 56
M  V30 61 1 24 57
M  V30 62 1 30 58
M  V30 63 1 31 59
M  V30 64 1 33 60
M  V30 65 1 33 61
M  V30 66 1 33 62
M  V30 67 1 34 63
M  V30 68 1 35 64
M  V30 69 1 36 65
M  V30 70 1 36 66
M  V30 71 1 37 67
M  V30 72 1 37 68
M  V30 73 1 39 69
M  V30 74 1 40 70
M  V30 END BOND
M  V30 END CTAB
M  END
>  <Dataset>  (482) 
ChEMBL_Kinases

>  <Ligand_Instance>  (482) 
nan

>  <PDB_ID>  (482) 
nan

>  <Standardized_SMILES>  (482) 
COC(=O)c1ccc(Nc2nc(Nc3cc(C)[nH]n3)cc(N3CCN(S(=O)(=O)c4ccc(C)cc4)CC3)n2)cc1

>  <Name>  (482) 
nan

>  <Pocket>  (482) 
nan

>  <ATP_Site>  (482) 
nan

>  <Peripheral>  (482) 
nan

>  <Num_H_Atoms_ProtBoundConf>  (482) 
nan

>  <Num_Resolved_Atoms>  (482) 
nan

>  <Num_Not_Resolved_Atoms>  (482) 
nan

$$$$
CHEMBL3261093
     RDKit          3D

  0  0  0  0  0  0  0  0  0  0999 V3000
M  V30 BEGIN CTAB
M  V30 COUNTS 51 55 0 0 0
M  V30 BEGIN ATOM
M  V30 1 C 4.744927 -2.211689 3.937884 0
M  V30 2 C 3.275418 -2.041190 3.699595 0
M  V30 3 C 2.430620 -2.353849 4.730799 0
M  V30 4 C 1.086430 -2.184783 4.477591 0
M  V30 5 C 0.600399 -1.730945 3.270015 0
M  V30 6 C 1.487800 -1.427941 2.258506 0
M  V30 7 C 1.261586 -0.941643 0.904104 0
M  V30 8 N 1.716437 0.293162 0.592484 0
M  V30 9 N 1.433123 0.591641 -0.677075 0
M  V30 10 C 1.754657 1.823268 -1.389539 0
M  V30 11 C 0.671616 2.833476 -1.261138 0
M  V30 12 O 0.572071 4.016236 -1.731327 0
M  V30 13 N -0.460352 2.482779 -0.504899 0
M  V30 14 C -1.696977 3.058030 -0.102489 0
M  V30 15 C -1.674393 3.753778 1.088142 0
M  V30 16 C -2.855560 4.345060 1.543686 0
M  V30 17 C -3.997851 4.208052 0.781715 0
M  V30 18 C -4.026690 3.524097 -0.392089 0
M  V30 19 C -5.218647 3.376946 -1.194115 0
M  V30 20 N -6.188227 3.259674 -1.829380 0
M  V30 21 C -2.867092 2.933491 -0.856418 0
M  V30 22 C 0.781172 -0.445632 -1.234361 0
M  V30 23 C 0.673883 -1.406632 -0.242820 0
M  V30 24 C 0.065269 -2.730580 -0.276468 0
M  V30 25 C -1.046630 -3.159521 0.421421 0
M  V30 26 C -1.486966 -4.457406 0.270673 0
M  V30 27 C -0.865642 -5.369747 -0.555687 0
M  V30 28 N -1.069837 -6.659094 -0.887068 0
M  V30 29 C -0.115897 -7.028180 -1.765734 0
M  V30 30 N 0.687488 -5.956420 -1.980899 0
M  V30 31 N 0.218541 -4.942872 -1.232893 0
M  V30 32 C 0.655903 -3.683021 -1.094119 0
M  V30 33 N 2.817054 -1.602436 2.529996 0
M  V30 34 H 5.190509 -1.215166 3.658604 0
M  V30 35 H 4.963739 -2.413051 4.993572 0
M  V30 36 H 5.117566 -2.981701 3.241333 0
M  V30 37 H 2.769429 -2.713009 5.694400 0
M  V30 38 H 0.316334 -2.395441 5.207471 0
M  V30 39 H -0.414142 -1.568369 2.985828 0
M  V30 40 H 1.973886 1.578715 -2.462265 0
M  V30 41 H 2.718323 2.199007 -0.977258 0
M  V30 42 H -0.548348 1.544918 -0.043533 0
M  V30 43 H -0.790047 3.870792 1.696306 0
M  V30 44 H -2.891553 4.898368 2.465532 0
M  V30 45 H -4.932851 4.645254 1.090163 0
M  V30 46 H -2.797678 2.371969 -1.777071 0
M  V30 47 H 0.394514 -0.568303 -2.239625 0
M  V30 48 H -1.512489 -2.427045 1.055446 0
M  V30 49 H -2.356540 -4.792044 0.817022 0
M  V30 50 H 0.152946 -7.920992 -2.313247 0
M  V30 51 H 1.530474 -3.406719 -1.666114 0
M  V30 END ATOM
M  V30 BEGIN BOND
M  V30 1 1 1 2
M  V30 2 2 2 3
M  V30 3 1 3 4
M  V30 4 2 4 5
M  V30 5 1 5 6
M  V30 6 1 6 7
M  V30 7 2 7 8
M  V30 8 1 8 9
M  V30 9 1 9 10
M  V30 10 1 10 11
M  V30 11 2 11 12
M  V30 12 1 11 13
M  V30 13 1 13 14
M  V30 14 2 14 15
M  V30 15 1 15 16
M  V30 16 2 16 17
M  V30 17 1 17 18
M  V30 18 1 18 19
M  V30 19 3 19 20
M  V30 20 2 18 21
M  V30 21 1 9 22
M  V30 22 2 22 23
M  V30 23 1 23 24
M  V30 24 1 24 25
M  V30 25 2 25 26
M  V30 26 1 26 27
M  V30 27 2 27 28
M  V30 28 1 28 29
M  V30 29 2 29 30
M  V30 30 1 30 31
M  V30 31 1 31 32
M  V30 32 2 6 33
M  V30 33 1 33 2
M  V30 34 1 23 7
M  V30 35 2 32 24
M  V30 36 1 21 14
M  V30 37 1 31 27
M  V30 38 1 1 34
M  V30 39 1 1 35
M  V30 40 1 1 36
M  V30 41 1 3 37
M  V30 42 1 4 38
M  V30 43 1 5 39
M  V30 44 1 10 40
M  V30 45 1 10 41
M  V30 46 1 13 42
M  V30 47 1 15 43
M  V30 48 1 16 44
M  V30 49 1 17 45
M  V30 50 1 21 46
M  V30 51 1 22 47
M  V30 52 1 25 48
M  V30 53 1 26 49
M  V30 54 1 29 50
M  V30 55 1 32 51
M  V30 END BOND
M  V30 END CTAB
M  END
>  <Dataset>  (483) 
ChEMBL_Kinases

>  <Ligand_Instance>  (483) 
nan

>  <PDB_ID>  (483) 
nan

>  <Standardized_SMILES>  (483) 
Cc1cccc(-c2nn(CC(=O)Nc3cccc(C#N)c3)cc2-c2ccc3ncnn3c2)n1

>  <Name>  (483) 
nan

>  <Pocket>  (483) 
nan

>  <ATP_Site>  (483) 
nan

>  <Peripheral>  (483) 
nan

>  <Num_H_Atoms_ProtBoundConf>  (483) 
nan

>  <Num_Resolved_Atoms>  (483) 
nan

>  <Num_Not_Resolved_Atoms>  (483) 
nan

$$$$
CHEMBL3261094
     RDKit          3D

  0  0  0  0  0  0  0  0  0  0999 V3000
M  V30 BEGIN CTAB
M  V30 COUNTS 54 58 0 0 0
M  V30 BEGIN ATOM
M  V30 1 C 3.464670 -5.091538 3.301251 0
M  V30 2 C 2.847727 -3.753327 3.126218 0
M  V30 3 C 2.387452 -3.151068 4.296278 0
M  V30 4 C 1.805366 -1.892267 4.141271 0
M  V30 5 C 1.732340 -1.349598 2.856986 0
M  V30 6 C 2.219352 -2.027374 1.752642 0
M  V30 7 C 2.014173 -1.233361 0.543122 0
M  V30 8 N 2.460727 -0.016892 0.182871 0
M  V30 9 N 2.017705 0.308101 -1.013002 0
M  V30 10 C 2.301341 1.547460 -1.714422 0
M  V30 11 C 1.288780 2.589398 -1.403885 0
M  V30 12 O 1.345118 3.750608 -1.910139 0
M  V30 13 N 0.239969 2.249314 -0.512995 0
M  V30 14 C -0.908201 2.848066 0.072854 0
M  V30 15 C -0.680964 3.486891 1.292211 0
M  V30 16 C -1.757569 4.095701 1.925450 0
M  V30 17 C -3.010084 4.055174 1.341817 0
M  V30 18 C -3.241631 3.425964 0.137675 0
M  V30 19 C -4.576253 3.401698 -0.450179 0
M  V30 20 N -5.648032 4.036730 0.238176 0
M  V30 21 O -4.835270 2.837544 -1.556210 0
M  V30 22 C -2.172947 2.826449 -0.482414 0
M  V30 23 C 1.257606 -0.711494 -1.465694 0
M  V30 24 C 1.226353 -1.721277 -0.502891 0
M  V30 25 C 0.482761 -2.961397 -0.700470 0
M  V30 26 C 1.089903 -4.192140 -0.750803 0
M  V30 27 C 0.435911 -5.377831 -0.933355 0
M  V30 28 C -0.936122 -5.362720 -1.080460 0
M  V30 29 N -1.823675 -6.336415 -1.268212 0
M  V30 30 C -3.037425 -5.749912 -1.344320 0
M  V30 31 N -2.844109 -4.415002 -1.197601 0
M  V30 32 N -1.557399 -4.173885 -1.035653 0
M  V30 33 C -0.894370 -3.005501 -0.853726 0
M  V30 34 N 2.784611 -3.243575 1.882528 0
M  V30 35 H 4.070164 -5.070895 4.235643 0
M  V30 36 H 4.044728 -5.374214 2.417145 0
M  V30 37 H 2.652649 -5.872045 3.385174 0
M  V30 38 H 2.474769 -3.621857 5.246428 0
M  V30 39 H 1.446179 -1.417314 5.039024 0
M  V30 40 H 1.260135 -0.374739 2.885235 0
M  V30 41 H 3.335158 1.886031 -1.503451 0
M  V30 42 H 2.303343 1.275829 -2.805814 0
M  V30 43 H 0.199686 1.294322 -0.101126 0
M  V30 44 H 0.301372 3.519396 1.751637 0
M  V30 45 H -1.597879 4.592319 2.866102 0
M  V30 46 H -3.882871 4.526986 1.816877 0
M  V30 47 H -5.679257 4.957819 0.730461 0
M  V30 48 H -6.573641 3.565000 0.299012 0
M  V30 49 H -2.286474 2.315591 -1.428919 0
M  V30 50 H 0.771254 -0.709101 -2.419056 0
M  V30 51 H 2.163467 -4.280564 -0.642926 0
M  V30 52 H 0.945036 -6.327266 -0.967686 0
M  V30 53 H -4.073986 -6.028797 -1.482644 0
M  V30 54 H -1.460689 -2.072477 -0.827336 0
M  V30 END ATOM
M  V30 BEGIN BOND
M  V30 1 1 1 2
M  V30 2 2 2 3
M  V30 3 1 3 4
M  V30 4 2 4 5
M  V30 5 1 5 6
M  V30 6 1 6 7
M  V30 7 2 7 8
M  V30 8 1 8 9
M  V30 9 1 9 10
M  V30 10 1 10 11
M  V30 11 2 11 12
M  V30 12 1 11 13
M  V30 13 1 13 14
M  V30 14 2 14 15
M  V30 15 1 15 16
M  V30 16 2 16 17
M  V30 17 1 17 18
M  V30 18 1 18 19
M  V30 19 1 19 20
M  V30 20 2 19 21
M  V30 21 2 18 22
M  V30 22 1 9 23
M  V30 23 2 23 24
M  V30 24 1 24 25
M  V30 25 1 25 26
M  V30 26 2 26 27
M  V30 27 1 27 28
M  V30 28 2 28 29
M  V30 29 1 29 30
M  V30 30 2 30 31
M  V30 31 1 31 32
M  V30 32 1 32 33
M  V30 33 2 6 34
M  V30 34 1 34 2
M  V30 35 1 24 7
M  V30 36 2 33 25
M  V30 37 1 22 14
M  V30 38 1 32 28
M  V30 39 1 1 35
M  V30 40 1 1 36
M  V30 41 1 1 37
M  V30 42 1 3 38
M  V30 43 1 4 39
M  V30 44 1 5 40
M  V30 45 1 10 41
M  V30 46 1 10 42
M  V30 47 1 13 43
M  V30 48 1 15 44
M  V30 49 1 16 45
M  V30 50 1 17 46
M  V30 51 1 20 47
M  V30 52 1 20 48
M  V30 53 1 22 49
M  V30 54 1 23 50
M  V30 55 1 26 51
M  V30 56 1 27 52
M  V30 57 1 30 53
M  V30 58 1 33 54
M  V30 END BOND
M  V30 END CTAB
M  END
>  <Dataset>  (484) 
ChEMBL_Kinases

>  <Ligand_Instance>  (484) 
nan

>  <PDB_ID>  (484) 
nan

>  <Standardized_SMILES>  (484) 
Cc1cccc(-c2nn(CC(=O)Nc3cccc(C(N)=O)c3)cc2-c2ccc3ncnn3c2)n1

>  <Name>  (484) 
nan

>  <Pocket>  (484) 
nan

>  <ATP_Site>  (484) 
nan

>  <Peripheral>  (484) 
nan

>  <Num_H_Atoms_ProtBoundConf>  (484) 
nan

>  <Num_Resolved_Atoms>  (484) 
nan

>  <Num_Not_Resolved_Atoms>  (484) 
nan

$$$$
CHEMBL3261144
     RDKit          3D

  0  0  0  0  0  0  0  0  0  0999 V3000
M  V30 BEGIN CTAB
M  V30 COUNTS 37 38 0 0 0
M  V30 BEGIN ATOM
M  V30 1 O 0.459737 -1.041469 0.936273 0
M  V30 2 C 0.576559 -0.573488 -0.225688 0
M  V30 3 N 0.738546 -1.547211 -1.234021 0
M  V30 4 C 0.803543 -2.969958 -1.217663 0
M  V30 5 C 1.926355 -3.572586 -0.441059 0 CFG=2
M  V30 6 O 1.836995 -3.197676 0.887401 0
M  V30 7 C 3.280695 -3.228444 -1.017721 0
M  V30 8 O 3.376036 -3.606936 -2.365348 0
M  V30 9 C 0.546482 0.848471 -0.502904 0
M  V30 10 N 0.818165 1.273746 -1.748849 0
M  V30 11 C 0.865488 2.576159 -2.075297 0
M  V30 12 N 0.634719 3.534887 -1.134135 0
M  V30 13 C 0.360617 3.074320 0.120890 0
M  V30 14 C 0.302541 1.728194 0.493829 0
M  V30 15 N 0.006343 1.416629 1.835951 0
M  V30 16 C -1.070860 0.761409 2.491470 0
M  V30 17 C -2.216818 0.255814 1.920051 0
M  V30 18 C -3.230505 -0.372113 2.608542 0
M  V30 19 C -3.073288 -0.496703 3.968566 0
M  V30 20 I -4.629467 -1.458737 5.012659 0
M  V30 21 C -1.946571 -0.004500 4.562794 0
M  V30 22 C -0.945833 0.619500 3.856030 0
M  V30 23 F 0.132958 1.070598 4.558267 0
M  V30 24 H 0.828032 -1.108528 -2.185255 0
M  V30 25 H -0.198623 -3.328836 -0.843788 0
M  V30 26 H 0.862371 -3.373684 -2.246886 0
M  V30 27 H 1.888362 -4.693796 -0.440539 0
M  V30 28 H 2.397687 -3.734594 1.505666 0
M  V30 29 H 4.038502 -3.785804 -0.424566 0
M  V30 30 H 3.538711 -2.166771 -0.968084 0
M  V30 31 H 2.809976 -2.960287 -2.864301 0
M  V30 32 H 1.085756 2.896334 -3.083620 0
M  V30 33 H 0.179472 3.864775 0.856479 0
M  V30 34 H 0.820692 1.793671 2.360579 0
M  V30 35 H -2.276351 0.389258 0.834991 0
M  V30 36 H -4.079016 -0.720608 2.014492 0
M  V30 37 H -1.850363 -0.117464 5.637768 0
M  V30 END ATOM
M  V30 BEGIN BOND
M  V30 1 2 1 2
M  V30 2 1 2 3
M  V30 3 1 3 4
M  V30 4 1 4 5
M  V30 5 1 5 6
M  V30 6 1 5 7
M  V30 7 1 7 8
M  V30 8 1 2 9
M  V30 9 2 9 10
M  V30 10 1 10 11
M  V30 11 2 11 12
M  V30 12 1 12 13
M  V30 13 2 13 14
M  V30 14 1 14 15
M  V30 15 1 15 16
M  V30 16 2 16 17
M  V30 17 1 17 18
M  V30 18 2 18 19
M  V30 19 1 19 20
M  V30 20 1 19 21
M  V30 21 2 21 22
M  V30 22 1 22 23
M  V30 23 1 14 9
M  V30 24 1 22 16
M  V30 25 1 3 24
M  V30 26 1 4 25
M  V30 27 1 4 26
M  V30 28 1 5 27 CFG=1
M  V30 29 1 6 28
M  V30 30 1 7 29
M  V30 31 1 7 30
M  V30 32 1 8 31
M  V30 33 1 11 32
M  V30 34 1 13 33
M  V30 35 1 15 34
M  V30 36 1 17 35
M  V30 37 1 18 36
M  V30 38 1 21 37
M  V30 END BOND
M  V30 END CTAB
M  END
>  <Dataset>  (485) 
ChEMBL_Kinases

>  <Ligand_Instance>  (485) 
nan

>  <PDB_ID>  (485) 
nan

>  <Standardized_SMILES>  (485) 
O=C(NC[C@H](O)CO)c1ncncc1Nc1ccc(I)cc1F

>  <Name>  (485) 
nan

>  <Pocket>  (485) 
nan

>  <ATP_Site>  (485) 
nan

>  <Peripheral>  (485) 
nan

>  <Num_H_Atoms_ProtBoundConf>  (485) 
nan

>  <Num_Resolved_Atoms>  (485) 
nan

>  <Num_Not_Resolved_Atoms>  (485) 
nan

$$$$
CHEMBL3261145
     RDKit          3D

  0  0  0  0  0  0  0  0  0  0999 V3000
M  V30 BEGIN CTAB
M  V30 COUNTS 33 34 0 0 0
M  V30 BEGIN ATOM
M  V30 1 O 0.214678 -1.248598 1.519444 0
M  V30 2 C 1.326328 -1.266309 0.953871 0
M  V30 3 N 1.961941 -2.532143 0.984825 0
M  V30 4 C 1.379326 -3.694877 1.609740 0
M  V30 5 C 0.064662 -4.123419 1.028400 0
M  V30 6 O -0.398145 -5.268005 1.722841 0
M  V30 7 C 1.998548 -0.164333 0.297845 0
M  V30 8 N 3.205175 -0.243965 -0.280887 0
M  V30 9 C 3.750162 0.865334 -0.867274 0
M  V30 10 N 3.158837 2.094292 -0.921218 0
M  V30 11 C 1.931151 2.153086 -0.326244 0
M  V30 12 C 1.344020 1.036532 0.282894 0
M  V30 13 N 0.086220 1.410202 0.797398 0
M  V30 14 C -1.306794 1.159443 0.725755 0
M  V30 15 C -2.239784 0.760249 1.654572 0
M  V30 16 C -3.537645 0.604948 1.233342 0
M  V30 17 C -3.970900 0.820913 -0.053801 0
M  V30 18 I -6.015250 0.522493 -0.487089 0
M  V30 19 C -3.042644 1.221175 -0.990501 0
M  V30 20 C -1.709932 1.389507 -0.596169 0
M  V30 21 F -0.945329 1.787637 -1.660592 0
M  V30 22 H 2.907314 -2.601399 0.520913 0
M  V30 23 H 2.086368 -4.538254 1.475794 0
M  V30 24 H 1.285401 -3.564611 2.708779 0
M  V30 25 H 0.121362 -4.413969 -0.024929 0
M  V30 26 H -0.701995 -3.349533 1.230928 0
M  V30 27 H 0.113479 -6.064938 1.396601 0
M  V30 28 H 4.719452 0.634928 -1.285396 0
M  V30 29 H 1.526127 3.170288 -0.412904 0
M  V30 30 H 0.060394 2.172519 1.537584 0
M  V30 31 H -1.784427 0.626217 2.609797 0
M  V30 32 H -4.215631 0.284866 2.036283 0
M  V30 33 H -3.431489 1.377651 -1.985496 0
M  V30 END ATOM
M  V30 BEGIN BOND
M  V30 1 2 1 2
M  V30 2 1 2 3
M  V30 3 1 3 4
M  V30 4 1 4 5
M  V30 5 1 5 6
M  V30 6 1 2 7
M  V30 7 2 7 8
M  V30 8 1 8 9
M  V30 9 2 9 10
M  V30 10 1 10 11
M  V30 11 2 11 12
M  V30 12 1 12 13
M  V30 13 1 13 14
M  V30 14 2 14 15
M  V30 15 1 15 16
M  V30 16 2 16 17
M  V30 17 1 17 18
M  V30 18 1 17 19
M  V30 19 2 19 20
M  V30 20 1 20 21
M  V30 21 1 12 7
M  V30 22 1 20 14
M  V30 23 1 3 22
M  V30 24 1 4 23
M  V30 25 1 4 24
M  V30 26 1 5 25
M  V30 27 1 5 26
M  V30 28 1 6 27
M  V30 29 1 9 28
M  V30 30 1 11 29
M  V30 31 1 13 30
M  V30 32 1 15 31
M  V30 33 1 16 32
M  V30 34 1 19 33
M  V30 END BOND
M  V30 END CTAB
M  END
>  <Dataset>  (486) 
ChEMBL_Kinases

>  <Ligand_Instance>  (486) 
nan

>  <PDB_ID>  (486) 
nan

>  <Standardized_SMILES>  (486) 
O=C(NCCO)c1ncncc1Nc1ccc(I)cc1F

>  <Name>  (486) 
nan

>  <Pocket>  (486) 
nan

>  <ATP_Site>  (486) 
nan

>  <Peripheral>  (486) 
nan

>  <Num_H_Atoms_ProtBoundConf>  (486) 
nan

>  <Num_Resolved_Atoms>  (486) 
nan

>  <Num_Not_Resolved_Atoms>  (486) 
nan

$$$$
CHEMBL3261146
     RDKit          3D

  0  0  0  0  0  0  0  0  0  0999 V3000
M  V30 BEGIN CTAB
M  V30 COUNTS 36 37 0 0 0
M  V30 BEGIN ATOM
M  V30 1 O -0.039936 -0.916387 1.315871 0
M  V30 2 C 0.936886 -0.464653 0.676500 0
M  V30 3 N 1.851357 -1.568423 0.579350 0
M  V30 4 C 1.277229 -2.734027 1.250747 0
M  V30 5 C 2.275811 -3.858670 1.122965 0
M  V30 6 C 3.550331 -3.443988 1.786052 0
M  V30 7 O 4.509874 -4.457827 1.694420 0
M  V30 8 C 1.259166 0.821633 0.091898 0
M  V30 9 N 2.470123 0.956924 -0.463748 0
M  V30 10 C 2.922975 2.082224 -1.007428 0
M  V30 11 N 2.138685 3.182559 -1.018784 0
M  V30 12 C 0.896973 3.076449 -0.459982 0
M  V30 13 C 0.412462 1.896338 0.113404 0
M  V30 14 N -0.876924 1.832122 0.685023 0
M  V30 15 C -2.069765 1.115038 0.409844 0
M  V30 16 C -2.275873 0.229004 -0.620046 0
M  V30 17 C -3.438659 -0.445175 -0.855709 0
M  V30 18 C -4.476680 -0.210232 0.012585 0
M  V30 19 I -6.295085 -1.224372 -0.304181 0
M  V30 20 C -4.296076 0.673737 1.053699 0
M  V30 21 C -3.119636 1.336728 1.267503 0
M  V30 22 F -3.036610 2.189711 2.321831 0
M  V30 23 H 2.787768 -1.474654 0.075647 0
M  V30 24 H 1.136279 -2.559819 2.331184 0
M  V30 25 H 0.303766 -3.041375 0.813767 0
M  V30 26 H 1.885280 -4.819295 1.465364 0
M  V30 27 H 2.511977 -3.919114 0.018912 0
M  V30 28 H 3.378359 -3.301461 2.878291 0
M  V30 29 H 3.951043 -2.499687 1.371928 0
M  V30 30 H 4.386945 -4.979021 0.872241 0
M  V30 31 H 3.900434 2.147997 -1.442409 0
M  V30 32 H 0.275278 3.954399 -0.470758 0
M  V30 33 H -0.797420 2.503796 1.468913 0
M  V30 34 H -1.430779 0.065649 -1.290961 0
M  V30 35 H -3.515130 -1.123619 -1.688608 0
M  V30 36 H -5.136761 0.850621 1.739659 0
M  V30 END ATOM
M  V30 BEGIN BOND
M  V30 1 2 1 2
M  V30 2 1 2 3
M  V30 3 1 3 4
M  V30 4 1 4 5
M  V30 5 1 5 6
M  V30 6 1 6 7
M  V30 7 1 2 8
M  V30 8 2 8 9
M  V30 9 1 9 10
M  V30 10 2 10 11
M  V30 11 1 11 12
M  V30 12 2 12 13
M  V30 13 1 13 14
M  V30 14 1 14 15
M  V30 15 2 15 16
M  V30 16 1 16 17
M  V30 17 2 17 18
M  V30 18 1 18 19
M  V30 19 1 18 20
M  V30 20 2 20 21
M  V30 21 1 21 22
M  V30 22 1 13 8
M  V30 23 1 21 15
M  V30 24 1 3 23
M  V30 25 1 4 24
M  V30 26 1 4 25
M  V30 27 1 5 26
M  V30 28 1 5 27
M  V30 29 1 6 28
M  V30 30 1 6 29
M  V30 31 1 7 30
M  V30 32 1 10 31
M  V30 33 1 12 32
M  V30 34 1 14 33
M  V30 35 1 16 34
M  V30 36 1 17 35
M  V30 37 1 20 36
M  V30 END BOND
M  V30 END CTAB
M  END
>  <Dataset>  (487) 
ChEMBL_Kinases

>  <Ligand_Instance>  (487) 
nan

>  <PDB_ID>  (487) 
nan

>  <Standardized_SMILES>  (487) 
O=C(NCCCO)c1ncncc1Nc1ccc(I)cc1F

>  <Name>  (487) 
nan

>  <Pocket>  (487) 
nan

>  <ATP_Site>  (487) 
nan

>  <Peripheral>  (487) 
nan

>  <Num_H_Atoms_ProtBoundConf>  (487) 
nan

>  <Num_Resolved_Atoms>  (487) 
nan

>  <Num_Not_Resolved_Atoms>  (487) 
nan

$$$$
CHEMBL3261147
     RDKit          3D

  0  0  0  0  0  0  0  0  0  0999 V3000
M  V30 BEGIN CTAB
M  V30 COUNTS 34 35 0 0 0
M  V30 BEGIN ATOM
M  V30 1 O 0.057241 -1.263775 0.818587 0
M  V30 2 C 0.927065 -0.556554 0.273487 0
M  V30 3 N 1.684780 -1.447030 -0.542523 0
M  V30 4 O 1.501278 -2.761331 -0.691365 0
M  V30 5 C 2.201270 -3.534193 0.204555 0
M  V30 6 C 1.969814 -5.016568 0.007570 0
M  V30 7 O 2.369526 -5.411386 -1.284271 0
M  V30 8 C 1.264433 0.855083 0.319447 0
M  V30 9 N 2.351728 1.256183 -0.357461 0
M  V30 10 C 2.783289 2.526923 -0.358163 0
M  V30 11 N 2.098975 3.461045 0.353979 0
M  V30 12 C 0.988972 3.079812 1.050966 0
M  V30 13 C 0.532704 1.755992 1.055468 0
M  V30 14 N -0.621210 1.410869 1.798205 0
M  V30 15 C -1.902285 0.919261 1.446004 0
M  V30 16 C -2.374502 0.666919 0.187408 0
M  V30 17 C -3.633036 0.187174 -0.102141 0
M  V30 18 C -4.475903 -0.055813 0.948798 0
M  V30 19 I -6.399021 -0.787132 0.534399 0
M  V30 20 C -4.019486 0.191649 2.221920 0
M  V30 21 C -2.762119 0.669250 2.484217 0
M  V30 22 F -2.426508 0.873935 3.781477 0
M  V30 23 H 2.506192 -1.148081 -1.140831 0
M  V30 24 H 1.793563 -3.300248 1.218171 0
M  V30 25 H 3.295903 -3.365824 0.173395 0
M  V30 26 H 0.922975 -5.302099 0.191865 0
M  V30 27 H 2.655105 -5.561694 0.691676 0
M  V30 28 H 3.212837 -4.943207 -1.516386 0
M  V30 29 H 3.677485 2.726056 -0.946418 0
M  V30 30 H 0.466691 3.856372 1.609882 0
M  V30 31 H -0.342406 1.597635 2.765030 0
M  V30 32 H -1.679105 0.870183 -0.635277 0
M  V30 33 H -3.909375 0.019905 -1.150268 0
M  V30 34 H -4.718477 -0.012797 3.046842 0
M  V30 END ATOM
M  V30 BEGIN BOND
M  V30 1 2 1 2
M  V30 2 1 2 3
M  V30 3 1 3 4
M  V30 4 1 4 5
M  V30 5 1 5 6
M  V30 6 1 6 7
M  V30 7 1 2 8
M  V30 8 2 8 9
M  V30 9 1 9 10
M  V30 10 2 10 11
M  V30 11 1 11 12
M  V30 12 2 12 13
M  V30 13 1 13 14
M  V30 14 1 14 15
M  V30 15 2 15 16
M  V30 16 1 16 17
M  V30 17 2 17 18
M  V30 18 1 18 19
M  V30 19 1 18 20
M  V30 20 2 20 21
M  V30 21 1 21 22
M  V30 22 1 13 8
M  V30 23 1 21 15
M  V30 24 1 3 23
M  V30 25 1 5 24
M  V30 26 1 5 25
M  V30 27 1 6 26
M  V30 28 1 6 27
M  V30 29 1 7 28
M  V30 30 1 10 29
M  V30 31 1 12 30
M  V30 32 1 14 31
M  V30 33 1 16 32
M  V30 34 1 17 33
M  V30 35 1 20 34
M  V30 END BOND
M  V30 END CTAB
M  END
>  <Dataset>  (488) 
ChEMBL_Kinases

>  <Ligand_Instance>  (488) 
nan

>  <PDB_ID>  (488) 
nan

>  <Standardized_SMILES>  (488) 
O=C(NOCCO)c1ncncc1Nc1ccc(I)cc1F

>  <Name>  (488) 
nan

>  <Pocket>  (488) 
nan

>  <ATP_Site>  (488) 
nan

>  <Peripheral>  (488) 
nan

>  <Num_H_Atoms_ProtBoundConf>  (488) 
nan

>  <Num_Resolved_Atoms>  (488) 
nan

>  <Num_Not_Resolved_Atoms>  (488) 
nan

$$$$
CHEMBL3261148
     RDKit          3D

  0  0  0  0  0  0  0  0  0  0999 V3000
M  V30 BEGIN CTAB
M  V30 COUNTS 38 39 0 0 0
M  V30 BEGIN ATOM
M  V30 1 O 0.807453 -0.923916 1.279083 0
M  V30 2 C 1.312606 0.065755 0.700243 0
M  V30 3 N 1.756545 -0.422489 -0.560184 0
M  V30 4 O 1.641485 -1.679378 -0.999300 0
M  V30 5 C 0.457294 -1.869369 -1.676157 0
M  V30 6 C 0.302713 -3.286904 -2.183901 0 CFG=2
M  V30 7 O 0.330374 -4.151602 -1.115770 0
M  V30 8 C 1.325618 -3.648021 -3.208916 0
M  V30 9 O 2.627267 -3.624573 -2.720542 0
M  V30 10 C 1.499624 1.459805 1.054490 0
M  V30 11 N 2.175119 2.232297 0.192615 0
M  V30 12 C 2.439725 3.526868 0.435025 0
M  V30 13 N 2.017812 4.109834 1.596435 0
M  V30 14 C 1.327094 3.335383 2.485178 0
M  V30 15 C 1.044519 1.983773 2.242626 0
M  V30 16 N 0.328118 1.231865 3.204787 0
M  V30 17 C -0.930943 0.576215 3.217006 0
M  V30 18 C -1.847438 0.547408 2.190481 0
M  V30 19 C -3.055590 -0.102188 2.248550 0
M  V30 20 C -3.370849 -0.762059 3.395184 0
M  V30 21 I -5.220095 -1.754030 3.478667 0
M  V30 22 C -2.465494 -0.742277 4.429258 0
M  V30 23 C -1.252129 -0.092285 4.376492 0
M  V30 24 F -0.406668 -0.118235 5.444660 0
M  V30 25 H 2.233842 0.179097 -1.291708 0
M  V30 26 H -0.374811 -1.560054 -1.043730 0
M  V30 27 H 0.496580 -1.181920 -2.561362 0
M  V30 28 H -0.692292 -3.363115 -2.685121 0
M  V30 29 H 0.900527 -4.923888 -1.316684 0
M  V30 30 H 1.072105 -4.644747 -3.600324 0
M  V30 31 H 1.277299 -2.936997 -4.069037 0
M  V30 32 H 2.723320 -4.185457 -1.912517 0
M  V30 33 H 2.995461 4.058581 -0.334837 0
M  V30 34 H 1.017529 3.843496 3.384443 0
M  V30 35 H 0.961066 1.233555 4.019188 0
M  V30 36 H -1.565167 1.090327 1.274368 0
M  V30 37 H -3.692299 -0.045926 1.359413 0
M  V30 38 H -2.722600 -1.275958 5.354078 0
M  V30 END ATOM
M  V30 BEGIN BOND
M  V30 1 2 1 2
M  V30 2 1 2 3
M  V30 3 1 3 4
M  V30 4 1 4 5
M  V30 5 1 5 6
M  V30 6 1 6 7
M  V30 7 1 6 8
M  V30 8 1 8 9
M  V30 9 1 2 10
M  V30 10 2 10 11
M  V30 11 1 11 12
M  V30 12 2 12 13
M  V30 13 1 13 14
M  V30 14 2 14 15
M  V30 15 1 15 16
M  V30 16 1 16 17
M  V30 17 2 17 18
M  V30 18 1 18 19
M  V30 19 2 19 20
M  V30 20 1 20 21
M  V30 21 1 20 22
M  V30 22 2 22 23
M  V30 23 1 23 24
M  V30 24 1 15 10
M  V30 25 1 23 17
M  V30 26 1 3 25
M  V30 27 1 5 26
M  V30 28 1 5 27
M  V30 29 1 6 28 CFG=3
M  V30 30 1 7 29
M  V30 31 1 8 30
M  V30 32 1 8 31
M  V30 33 1 9 32
M  V30 34 1 12 33
M  V30 35 1 14 34
M  V30 36 1 16 35
M  V30 37 1 18 36
M  V30 38 1 19 37
M  V30 39 1 22 38
M  V30 END BOND
M  V30 END CTAB
M  END
>  <Dataset>  (489) 
ChEMBL_Kinases

>  <Ligand_Instance>  (489) 
nan

>  <PDB_ID>  (489) 
nan

>  <Standardized_SMILES>  (489) 
O=C(NOC[C@H](O)CO)c1ncncc1Nc1ccc(I)cc1F

>  <Name>  (489) 
nan

>  <Pocket>  (489) 
nan

>  <ATP_Site>  (489) 
nan

>  <Peripheral>  (489) 
nan

>  <Num_H_Atoms_ProtBoundConf>  (489) 
nan

>  <Num_Resolved_Atoms>  (489) 
nan

>  <Num_Not_Resolved_Atoms>  (489) 
nan

$$$$
CHEMBL3261160
     RDKit          3D

  0  0  0  0  0  0  0  0  0  0999 V3000
M  V30 BEGIN CTAB
M  V30 COUNTS 42 44 0 0 0
M  V30 BEGIN ATOM
M  V30 1 C 1.167676 -4.044967 3.390654 0
M  V30 2 C 1.313067 -2.577332 3.082537 0
M  V30 3 N 2.367225 -2.118300 3.818552 0
M  V30 4 C 2.740496 -0.816933 3.770748 0
M  V30 5 C 2.078082 0.098919 2.982597 0
M  V30 6 N 2.357997 1.395746 2.865449 0
M  V30 7 C 1.639461 2.202885 2.066297 0
M  V30 8 N 0.595521 1.720948 1.345387 0
M  V30 9 C -0.143248 2.615495 0.506974 0
M  V30 10 C 0.325069 2.766574 -0.883775 0 CFG=2
M  V30 11 O 0.335863 1.610248 -1.640433 0
M  V30 12 C 1.623893 3.561057 -0.993954 0
M  V30 13 O 1.556290 4.729531 -0.202349 0
M  V30 14 C 0.299155 0.416472 1.451034 0
M  V30 15 O -0.661195 0.036861 0.772224 0
M  V30 16 C 1.029593 -0.415279 2.265768 0
M  V30 17 C 0.592950 -1.719078 2.261262 0
M  V30 18 N -0.422552 -2.382128 1.586471 0
M  V30 19 C -0.775401 -2.949460 0.355693 0
M  V30 20 C -1.879057 -2.601899 -0.392123 0
M  V30 21 C -2.259132 -3.108900 -1.608050 0
M  V30 22 C -1.424494 -4.075962 -2.119006 0
M  V30 23 I -1.966966 -4.887861 -3.994286 0
M  V30 24 C -0.293965 -4.502145 -1.459787 0
M  V30 25 C 0.001999 -3.929059 -0.240832 0
M  V30 26 F 1.127346 -4.423772 0.286956 0
M  V30 27 H 2.073353 -4.527154 2.969173 0
M  V30 28 H 1.106806 -4.203277 4.474034 0
M  V30 29 H 0.273952 -4.406680 2.844679 0
M  V30 30 H 3.582617 -0.416366 4.348510 0
M  V30 31 H 1.967268 3.224351 2.061281 0
M  V30 32 H -1.238207 2.353852 0.465717 0
M  V30 33 H -0.120497 3.620683 0.975163 0
M  V30 34 H -0.436225 3.421416 -1.389439 0
M  V30 35 H 1.086814 1.052130 -1.279142 0
M  V30 36 H 2.418634 2.932436 -0.553210 0
M  V30 37 H 1.857403 3.817911 -2.026264 0
M  V30 38 H 0.641979 5.083866 -0.340755 0
M  V30 39 H -1.247217 -2.515022 2.237655 0
M  V30 40 H -2.537115 -1.826667 0.032186 0
M  V30 41 H -3.158768 -2.748892 -2.100684 0
M  V30 42 H 0.268424 -5.256795 -1.961197 0
M  V30 END ATOM
M  V30 BEGIN BOND
M  V30 1 1 1 2
M  V30 2 2 2 3
M  V30 3 1 3 4
M  V30 4 2 4 5
M  V30 5 1 5 6
M  V30 6 2 6 7
M  V30 7 1 7 8
M  V30 8 1 8 9
M  V30 9 1 9 10
M  V30 10 1 10 11
M  V30 11 1 10 12
M  V30 12 1 12 13
M  V30 13 1 8 14
M  V30 14 2 14 15
M  V30 15 1 14 16
M  V30 16 2 16 17
M  V30 17 1 17 18
M  V30 18 1 18 19
M  V30 19 2 19 20
M  V30 20 1 20 21
M  V30 21 2 21 22
M  V30 22 1 22 23
M  V30 23 1 22 24
M  V30 24 2 24 25
M  V30 25 1 25 26
M  V30 26 1 17 2
M  V30 27 1 25 19
M  V30 28 1 16 5
M  V30 29 1 1 27
M  V30 30 1 1 28
M  V30 31 1 1 29
M  V30 32 1 4 30
M  V30 33 1 7 31
M  V30 34 1 9 32
M  V30 35 1 9 33
M  V30 36 1 10 34 CFG=3
M  V30 37 1 11 35
M  V30 38 1 12 36
M  V30 39 1 12 37
M  V30 40 1 13 38
M  V30 41 1 18 39
M  V30 42 1 20 40
M  V30 43 1 21 41
M  V30 44 1 24 42
M  V30 END BOND
M  V30 END CTAB
M  END
>  <Dataset>  (490) 
ChEMBL_Kinases

>  <Ligand_Instance>  (490) 
nan

>  <PDB_ID>  (490) 
nan

>  <Standardized_SMILES>  (490) 
Cc1ncc2ncn(C[C@H](O)CO)c(=O)c2c1Nc1ccc(I)cc1F

>  <Name>  (490) 
nan

>  <Pocket>  (490) 
nan

>  <ATP_Site>  (490) 
nan

>  <Peripheral>  (490) 
nan

>  <Num_H_Atoms_ProtBoundConf>  (490) 
nan

>  <Num_Resolved_Atoms>  (490) 
nan

>  <Num_Not_Resolved_Atoms>  (490) 
nan

$$$$
CHEMBL3261150
     RDKit          3D

  0  0  0  0  0  0  0  0  0  0999 V3000
M  V30 BEGIN CTAB
M  V30 COUNTS 37 38 0 0 0
M  V30 BEGIN ATOM
M  V30 1 O 0.196949 -1.060714 1.468298 0
M  V30 2 C 1.046760 -0.681822 0.658021 0
M  V30 3 N 1.699163 -1.856602 0.192180 0
M  V30 4 C 1.420289 -3.222290 0.590349 0
M  V30 5 C 2.656284 -3.913384 1.124910 0
M  V30 6 O 3.197961 -3.298755 2.227277 0
M  V30 7 C 1.016783 -4.045219 -0.637883 0
M  V30 8 O 2.057355 -4.035774 -1.562038 0
M  V30 9 C 1.464748 0.607589 0.141769 0
M  V30 10 N 2.506918 0.665865 -0.701060 0
M  V30 11 C 3.003079 1.778562 -1.211826 0
M  V30 12 N 2.453834 2.980759 -0.892018 0
M  V30 13 C 1.392138 2.953924 -0.037554 0
M  V30 14 C 0.856335 1.783229 0.509960 0
M  V30 15 N -0.243776 1.847872 1.392409 0
M  V30 16 C -1.583884 1.382375 1.368127 0
M  V30 17 C -2.182521 0.703628 0.333665 0
M  V30 18 C -3.489241 0.264026 0.341799 0
M  V30 19 C -4.229914 0.533096 1.473534 0
M  V30 20 I -6.234674 -0.121549 1.529083 0
M  V30 21 C -3.641000 1.206181 2.502852 0
M  V30 22 C -2.339608 1.639662 2.485328 0
M  V30 23 F -1.849052 2.304857 3.570081 0
M  V30 24 H 2.491300 -1.877790 -0.523169 0
M  V30 25 H 0.612457 -3.222589 1.322022 0
M  V30 26 H 3.379495 -3.999924 0.285329 0
M  V30 27 H 2.332545 -4.957062 1.349368 0
M  V30 28 H 3.467722 -4.022621 2.856875 0
M  V30 29 H 0.160636 -3.541096 -1.092012 0
M  V30 30 H 0.804802 -5.077267 -0.299365 0
M  V30 31 H 1.916604 -3.334200 -2.223689 0
M  V30 32 H 3.850103 1.730936 -1.887302 0
M  V30 33 H 0.895794 3.882378 0.267341 0
M  V30 34 H 0.143535 2.376890 2.201143 0
M  V30 35 H -1.541128 0.518415 -0.542448 0
M  V30 36 H -3.859949 -0.264834 -0.534860 0
M  V30 37 H -4.231193 1.416825 3.396473 0
M  V30 END ATOM
M  V30 BEGIN BOND
M  V30 1 2 1 2
M  V30 2 1 2 3
M  V30 3 1 3 4
M  V30 4 1 4 5
M  V30 5 1 5 6
M  V30 6 1 4 7
M  V30 7 1 7 8
M  V30 8 1 2 9
M  V30 9 2 9 10
M  V30 10 1 10 11
M  V30 11 2 11 12
M  V30 12 1 12 13
M  V30 13 2 13 14
M  V30 14 1 14 15
M  V30 15 1 15 16
M  V30 16 2 16 17
M  V30 17 1 17 18
M  V30 18 2 18 19
M  V30 19 1 19 20
M  V30 20 1 19 21
M  V30 21 2 21 22
M  V30 22 1 22 23
M  V30 23 1 14 9
M  V30 24 1 22 16
M  V30 25 1 3 24
M  V30 26 1 4 25
M  V30 27 1 5 26
M  V30 28 1 5 27
M  V30 29 1 6 28
M  V30 30 1 7 29
M  V30 31 1 7 30
M  V30 32 1 8 31
M  V30 33 1 11 32
M  V30 34 1 13 33
M  V30 35 1 15 34
M  V30 36 1 17 35
M  V30 37 1 18 36
M  V30 38 1 21 37
M  V30 END BOND
M  V30 END CTAB
M  END
>  <Dataset>  (491) 
ChEMBL_Kinases

>  <Ligand_Instance>  (491) 
nan

>  <PDB_ID>  (491) 
nan

>  <Standardized_SMILES>  (491) 
O=C(NC(CO)CO)c1ncncc1Nc1ccc(I)cc1F

>  <Name>  (491) 
nan

>  <Pocket>  (491) 
nan

>  <ATP_Site>  (491) 
nan

>  <Peripheral>  (491) 
nan

>  <Num_H_Atoms_ProtBoundConf>  (491) 
nan

>  <Num_Resolved_Atoms>  (491) 
nan

>  <Num_Not_Resolved_Atoms>  (491) 
nan

$$$$
CHEMBL3261151
     RDKit          3D

  0  0  0  0  0  0  0  0  0  0999 V3000
M  V30 BEGIN CTAB
M  V30 COUNTS 40 41 0 0 0
M  V30 BEGIN ATOM
M  V30 1 C 0.984277 -4.347826 3.848260 0
M  V30 2 C 1.230526 -2.918153 3.521063 0
M  V30 3 N 2.142267 -2.138307 4.171849 0
M  V30 4 C 2.298041 -0.842321 3.802210 0
M  V30 5 C 1.560770 -0.268742 2.777926 0
M  V30 6 N 1.766536 1.091570 2.441594 0
M  V30 7 C 2.234001 1.753279 1.293131 0
M  V30 8 C 2.664477 1.184280 0.135167 0
M  V30 9 C 3.115518 1.874477 -0.969232 0
M  V30 10 C 3.132772 3.244495 -0.897746 0
M  V30 11 I 3.822598 4.317101 -2.585371 0
M  V30 12 C 2.701482 3.847022 0.265160 0
M  V30 13 C 2.262293 3.120154 1.335899 0
M  V30 14 F 1.856833 3.815191 2.440039 0
M  V30 15 C 0.651802 -1.087712 2.148436 0
M  V30 16 C -0.208826 -0.587424 1.087278 0
M  V30 17 O -0.403282 0.496386 0.540270 0
M  V30 18 N -1.106701 -1.498190 0.433377 0
M  V30 19 C -1.899023 -0.827427 -0.610255 0
M  V30 20 C -2.786875 -1.917453 -1.196871 0 CFG=2
M  V30 21 O -1.926146 -2.909544 -1.717423 0
M  V30 22 C -3.598935 -1.401557 -2.355316 0
M  V30 23 O -4.465527 -0.421357 -1.904661 0
M  V30 24 N 0.519820 -2.356130 2.531072 0
M  V30 25 H 0.069459 -4.480009 4.440978 0
M  V30 26 H 0.848942 -4.892047 2.879936 0
M  V30 27 H 1.881740 -4.785690 4.343190 0
M  V30 28 H 3.045902 -0.293487 4.373626 0
M  V30 29 H 1.473628 1.603610 3.300919 0
M  V30 30 H 2.652334 0.102763 0.074918 0
M  V30 31 H 3.439504 1.338843 -1.849858 0
M  V30 32 H 2.723553 4.939950 0.300772 0
M  V30 33 H -1.193577 -2.536543 0.670808 0
M  V30 34 H -2.578090 -0.071873 -0.166851 0
M  V30 35 H -1.264454 -0.355198 -1.370315 0
M  V30 36 H -3.420749 -2.307437 -0.374716 0
M  V30 37 H -1.792163 -3.654959 -1.062076 0
M  V30 38 H -2.857775 -1.001369 -3.088706 0
M  V30 39 H -4.111250 -2.269678 -2.797771 0
M  V30 40 H -5.262224 -0.407135 -2.504886 0
M  V30 END ATOM
M  V30 BEGIN BOND
M  V30 1 1 1 2
M  V30 2 2 2 3
M  V30 3 1 3 4
M  V30 4 2 4 5
M  V30 5 1 5 6
M  V30 6 1 6 7
M  V30 7 2 7 8
M  V30 8 1 8 9
M  V30 9 2 9 10
M  V30 10 1 10 11
M  V30 11 1 10 12
M  V30 12 2 12 13
M  V30 13 1 13 14
M  V30 14 1 5 15
M  V30 15 1 15 16
M  V30 16 2 16 17
M  V30 17 1 16 18
M  V30 18 1 18 19
M  V30 19 1 19 20
M  V30 20 1 20 21
M  V30 21 1 20 22
M  V30 22 1 22 23
M  V30 23 2 15 24
M  V30 24 1 24 2
M  V30 25 1 13 7
M  V30 26 1 1 25
M  V30 27 1 1 26
M  V30 28 1 1 27
M  V30 29 1 4 28
M  V30 30 1 6 29
M  V30 31 1 8 30
M  V30 32 1 9 31
M  V30 33 1 12 32
M  V30 34 1 18 33
M  V30 35 1 19 34
M  V30 36 1 19 35
M  V30 37 1 20 36 CFG=1
M  V30 38 1 21 37
M  V30 39 1 22 38
M  V30 40 1 22 39
M  V30 41 1 23 40
M  V30 END BOND
M  V30 END CTAB
M  END
>  <Dataset>  (492) 
ChEMBL_Kinases

>  <Ligand_Instance>  (492) 
nan

>  <PDB_ID>  (492) 
nan

>  <Standardized_SMILES>  (492) 
Cc1ncc(Nc2ccc(I)cc2F)c(C(=O)NC[C@H](O)CO)n1

>  <Name>  (492) 
nan

>  <Pocket>  (492) 
nan

>  <ATP_Site>  (492) 
nan

>  <Peripheral>  (492) 
nan

>  <Num_H_Atoms_ProtBoundConf>  (492) 
nan

>  <Num_Resolved_Atoms>  (492) 
nan

>  <Num_Not_Resolved_Atoms>  (492) 
nan

$$$$
CHEMBL3261153
     RDKit          3D

  0  0  0  0  0  0  0  0  0  0999 V3000
M  V30 BEGIN CTAB
M  V30 COUNTS 37 38 0 0 0
M  V30 BEGIN ATOM
M  V30 1 O 1.377336 -0.505345 0.418591 0
M  V30 2 C 0.439305 -1.207184 -0.008210 0
M  V30 3 N 0.653647 -2.529217 0.463685 0
M  V30 4 C 1.836935 -2.722061 1.274371 0
M  V30 5 C 2.017463 -4.122798 1.744363 0 CFG=2
M  V30 6 O 2.138210 -5.074115 0.756515 0
M  V30 7 C 0.979333 -4.533998 2.774066 0
M  V30 8 O -0.250886 -4.692522 2.172686 0
M  V30 9 C -0.721135 -0.931148 -0.825162 0
M  V30 10 N -1.577942 -1.914549 -1.141815 0
M  V30 11 C -2.672319 -1.664049 -1.915770 0
M  V30 12 Cl -3.675118 -3.065026 -2.224252 0
M  V30 13 N -2.952475 -0.419565 -2.403503 0
M  V30 14 C -2.110813 0.616776 -2.109585 0
M  V30 15 C -0.998667 0.320231 -1.312503 0
M  V30 16 N -0.211170 1.466782 -1.074937 0
M  V30 17 C 0.310227 2.328409 -0.077856 0
M  V30 18 C 1.597535 2.674740 0.263376 0
M  V30 19 C 1.760033 3.547167 1.299987 0
M  V30 20 C 0.730592 4.102132 2.024352 0
M  V30 21 I 1.158370 5.433812 3.596384 0
M  V30 22 C -0.558388 3.763339 1.692069 0
M  V30 23 C -0.762221 2.870098 0.632948 0
M  V30 24 F -2.100529 2.645119 0.439891 0
M  V30 25 H 0.017955 -3.361862 0.264612 0
M  V30 26 H 1.841824 -2.064967 2.147633 0
M  V30 27 H 2.710638 -2.473272 0.635318 0
M  V30 28 H 2.999398 -4.132726 2.296026 0
M  V30 29 H 2.730328 -5.825764 0.963659 0
M  V30 30 H 1.251592 -5.495383 3.254362 0
M  V30 31 H 0.967884 -3.792599 3.601153 0
M  V30 32 H -0.948240 -4.898695 2.818847 0
M  V30 33 H -2.353514 1.591423 -2.506774 0
M  V30 34 H 0.185348 1.924966 -1.930128 0
M  V30 35 H 2.311113 2.184116 -0.365842 0
M  V30 36 H 2.813577 3.781270 1.520217 0
M  V30 37 H -1.337577 4.220038 2.284196 0
M  V30 END ATOM
M  V30 BEGIN BOND
M  V30 1 2 1 2
M  V30 2 1 2 3
M  V30 3 1 3 4
M  V30 4 1 4 5
M  V30 5 1 5 6
M  V30 6 1 5 7
M  V30 7 1 7 8
M  V30 8 1 2 9
M  V30 9 2 9 10
M  V30 10 1 10 11
M  V30 11 1 11 12
M  V30 12 2 11 13
M  V30 13 1 13 14
M  V30 14 2 14 15
M  V30 15 1 15 16
M  V30 16 1 16 17
M  V30 17 2 17 18
M  V30 18 1 18 19
M  V30 19 2 19 20
M  V30 20 1 20 21
M  V30 21 1 20 22
M  V30 22 2 22 23
M  V30 23 1 23 24
M  V30 24 1 15 9
M  V30 25 1 23 17
M  V30 26 1 3 25
M  V30 27 1 4 26
M  V30 28 1 4 27
M  V30 29 1 5 28 CFG=1
M  V30 30 1 6 29
M  V30 31 1 7 30
M  V30 32 1 7 31
M  V30 33 1 8 32
M  V30 34 1 14 33
M  V30 35 1 16 34
M  V30 36 1 18 35
M  V30 37 1 19 36
M  V30 38 1 22 37
M  V30 END BOND
M  V30 END CTAB
M  END
>  <Dataset>  (493) 
ChEMBL_Kinases

>  <Ligand_Instance>  (493) 
nan

>  <PDB_ID>  (493) 
nan

>  <Standardized_SMILES>  (493) 
O=C(NC[C@H](O)CO)c1nc(Cl)ncc1Nc1ccc(I)cc1F

>  <Name>  (493) 
nan

>  <Pocket>  (493) 
nan

>  <ATP_Site>  (493) 
nan

>  <Peripheral>  (493) 
nan

>  <Num_H_Atoms_ProtBoundConf>  (493) 
nan

>  <Num_Resolved_Atoms>  (493) 
nan

>  <Num_Not_Resolved_Atoms>  (493) 
nan

$$$$
CHEMBL3261154
     RDKit          3D

  0  0  0  0  0  0  0  0  0  0999 V3000
M  V30 BEGIN CTAB
M  V30 COUNTS 40 41 0 0 0
M  V30 BEGIN ATOM
M  V30 1 C 0.432454 -2.876444 4.230190 0
M  V30 2 C 0.673750 -1.500088 3.716703 0
M  V30 3 N 0.864763 -0.489457 4.605793 0
M  V30 4 C 1.086813 0.776513 4.147907 0
M  V30 5 N 1.114431 1.012486 2.805940 0
M  V30 6 C 0.922111 -0.008015 1.959419 0
M  V30 7 C 0.950199 0.237385 0.503841 0
M  V30 8 O 0.763383 -0.757294 -0.278330 0
M  V30 9 N 1.173533 1.521116 -0.115119 0
M  V30 10 C 1.120615 1.312778 -1.546729 0
M  V30 11 C 1.357443 2.630602 -2.240706 0 CFG=2
M  V30 12 O 1.282742 2.418104 -3.643995 0
M  V30 13 C 2.742282 3.100980 -1.927313 0
M  V30 14 O 2.899028 3.340230 -0.577298 0
M  V30 15 C 0.693091 -1.308805 2.351388 0
M  V30 16 N 0.488346 -2.396009 1.459554 0
M  V30 17 C -0.863747 -2.643548 1.084753 0
M  V30 18 C -1.891956 -1.856623 1.575400 0
M  V30 19 C -3.231434 -2.014429 1.273707 0
M  V30 20 C -3.579484 -3.043091 0.409773 0
M  V30 21 I -5.596847 -3.356642 -0.104945 0
M  V30 22 C -2.572077 -3.834216 -0.086954 0
M  V30 23 C -1.240027 -3.665220 0.222664 0
M  V30 24 F -0.264660 -4.468422 -0.287876 0
M  V30 25 H -0.021027 -2.834068 5.253177 0
M  V30 26 H -0.286531 -3.407658 3.550715 0
M  V30 27 H 1.387567 -3.425876 4.326998 0
M  V30 28 H 1.250973 1.655934 4.734196 0
M  V30 29 H 1.306470 2.227862 0.649601 0
M  V30 30 H 1.850877 0.542757 -1.858567 0
M  V30 31 H 0.107469 0.899040 -1.775385 0
M  V30 32 H 0.602585 3.384300 -1.961106 0
M  V30 33 H 1.685295 1.521497 -3.870137 0
M  V30 34 H 3.454137 2.317011 -2.258056 0
M  V30 35 H 2.971035 3.997009 -2.550003 0
M  V30 36 H 3.826184 3.247373 -0.285135 0
M  V30 37 H 1.206543 -3.044993 1.037751 0
M  V30 38 H -1.679023 -1.033995 2.257675 0
M  V30 39 H -3.988267 -1.367500 1.688699 0
M  V30 40 H -2.795562 -4.659029 -0.772365 0
M  V30 END ATOM
M  V30 BEGIN BOND
M  V30 1 1 1 2
M  V30 2 2 2 3
M  V30 3 1 3 4
M  V30 4 2 4 5
M  V30 5 1 5 6
M  V30 6 1 6 7
M  V30 7 2 7 8
M  V30 8 1 7 9
M  V30 9 1 9 10
M  V30 10 1 10 11
M  V30 11 1 11 12
M  V30 12 1 11 13
M  V30 13 1 13 14
M  V30 14 2 6 15
M  V30 15 1 15 16
M  V30 16 1 16 17
M  V30 17 2 17 18
M  V30 18 1 18 19
M  V30 19 2 19 20
M  V30 20 1 20 21
M  V30 21 1 20 22
M  V30 22 2 22 23
M  V30 23 1 23 24
M  V30 24 1 15 2
M  V30 25 1 23 17
M  V30 26 1 1 25
M  V30 27 1 1 26
M  V30 28 1 1 27
M  V30 29 1 4 28
M  V30 30 1 9 29
M  V30 31 1 10 30
M  V30 32 1 10 31
M  V30 33 1 11 32 CFG=1
M  V30 34 1 12 33
M  V30 35 1 13 34
M  V30 36 1 13 35
M  V30 37 1 14 36
M  V30 38 1 16 37
M  V30 39 1 18 38
M  V30 40 1 19 39
M  V30 41 1 22 40
M  V30 END BOND
M  V30 END CTAB
M  END
>  <Dataset>  (494) 
ChEMBL_Kinases

>  <Ligand_Instance>  (494) 
nan

>  <PDB_ID>  (494) 
nan

>  <Standardized_SMILES>  (494) 
Cc1ncnc(C(=O)NC[C@H](O)CO)c1Nc1ccc(I)cc1F

>  <Name>  (494) 
nan

>  <Pocket>  (494) 
nan

>  <ATP_Site>  (494) 
nan

>  <Peripheral>  (494) 
nan

>  <Num_H_Atoms_ProtBoundConf>  (494) 
nan

>  <Num_Resolved_Atoms>  (494) 
nan

>  <Num_Not_Resolved_Atoms>  (494) 
nan

$$$$
CHEMBL3261155
     RDKit          3D

  0  0  0  0  0  0  0  0  0  0999 V3000
M  V30 BEGIN CTAB
M  V30 COUNTS 47 49 0 0 0
M  V30 BEGIN ATOM
M  V30 1 C 2.610039 -4.638533 1.044427 0
M  V30 2 C 2.586328 -3.243450 0.539391 0
M  V30 3 N 3.698187 -2.766875 -0.080194 0
M  V30 4 C 3.609093 -1.476123 -0.520025 0
M  V30 5 C 2.441930 -0.725662 -0.330277 0
M  V30 6 N 2.619617 0.561250 -0.871122 0
M  V30 7 C 2.637805 1.943468 -0.561398 0
M  V30 8 C 1.895576 3.005404 -1.023936 0
M  V30 9 C 2.162474 4.249194 -0.507125 0
M  V30 10 C 3.119279 4.501145 0.438453 0
M  V30 11 I 3.339371 6.497095 1.073898 0
M  V30 12 C 3.877051 3.437188 0.914879 0
M  V30 13 C 3.623561 2.172698 0.406161 0
M  V30 14 F 4.452829 1.251277 0.979834 0
M  V30 15 C 1.364826 -1.253323 0.293942 0
M  V30 16 C 0.191840 -0.452218 0.461749 0
M  V30 17 O -0.035084 0.724626 0.108245 0
M  V30 18 N -0.923661 -1.022156 1.124364 0
M  V30 19 C -2.158228 -0.324483 1.356048 0 CFG=2
M  V30 20 C -2.559644 -0.256123 2.813291 0
M  V30 21 C -3.516777 -1.361496 3.183632 0
M  V30 22 C -3.313282 -2.610982 2.397830 0
M  V30 23 C -3.253185 -2.458206 0.915594 0 CFG=1
M  V30 24 O -4.308820 -3.132425 0.282184 0
M  V30 25 C -3.254948 -0.995031 0.568658 0 CFG=1
M  V30 26 O -4.505253 -0.435859 0.878454 0
M  V30 27 N 1.447380 -2.520066 0.727649 0
M  V30 28 H 3.620627 -4.822107 1.473098 0
M  V30 29 H 1.802634 -4.803049 1.758852 0
M  V30 30 H 2.527449 -5.346742 0.177388 0
M  V30 31 H 4.541054 -1.161008 -1.008323 0
M  V30 32 H 2.824816 0.629970 -1.912529 0
M  V30 33 H 1.179401 2.683741 -1.760501 0
M  V30 34 H 1.526116 5.038425 -0.929645 0
M  V30 35 H 4.605875 3.698831 1.650153 0
M  V30 36 H -0.845693 -2.022414 1.478410 0
M  V30 37 H -2.051004 0.741429 0.987207 0
M  V30 38 H -1.625294 -0.271707 3.410149 0
M  V30 39 H -3.065522 0.704754 3.039914 0
M  V30 40 H -4.565302 -1.006311 3.143326 0
M  V30 41 H -3.300817 -1.598738 4.246273 0
M  V30 42 H -2.456568 -3.225797 2.783029 0
M  V30 43 H -4.207714 -3.266078 2.626734 0
M  V30 44 H -2.339208 -2.978642 0.552597 0
M  V30 45 H -4.070687 -3.297990 -0.683918 0
M  V30 46 H -3.037848 -0.853604 -0.526225 0
M  V30 47 H -4.320535 0.542435 1.001000 0
M  V30 END ATOM
M  V30 BEGIN BOND
M  V30 1 1 1 2
M  V30 2 2 2 3
M  V30 3 1 3 4
M  V30 4 2 4 5
M  V30 5 1 5 6
M  V30 6 1 6 7
M  V30 7 2 7 8
M  V30 8 1 8 9
M  V30 9 2 9 10
M  V30 10 1 10 11
M  V30 11 1 10 12
M  V30 12 2 12 13
M  V30 13 1 13 14
M  V30 14 1 5 15
M  V30 15 1 15 16
M  V30 16 2 16 17
M  V30 17 1 16 18
M  V30 18 1 18 19
M  V30 19 1 19 20
M  V30 20 1 20 21
M  V30 21 1 21 22
M  V30 22 1 22 23
M  V30 23 1 23 24
M  V30 24 1 23 25
M  V30 25 1 25 26
M  V30 26 2 15 27
M  V30 27 1 27 2
M  V30 28 1 13 7
M  V30 29 1 25 19
M  V30 30 1 1 28
M  V30 31 1 1 29
M  V30 32 1 1 30
M  V30 33 1 4 31
M  V30 34 1 6 32
M  V30 35 1 8 33
M  V30 36 1 9 34
M  V30 37 1 12 35
M  V30 38 1 18 36
M  V30 39 1 19 37 CFG=3
M  V30 40 1 20 38
M  V30 41 1 20 39
M  V30 42 1 21 40
M  V30 43 1 21 41
M  V30 44 1 22 42
M  V30 45 1 22 43
M  V30 46 1 23 44 CFG=3
M  V30 47 1 24 45
M  V30 48 1 25 46 CFG=3
M  V30 49 1 26 47
M  V30 END BOND
M  V30 END CTAB
M  END
>  <Dataset>  (495) 
ChEMBL_Kinases

>  <Ligand_Instance>  (495) 
nan

>  <PDB_ID>  (495) 
nan

>  <Standardized_SMILES>  (495) 
Cc1ncc(Nc2ccc(I)cc2F)c(C(=O)N[C@@H]2CCC[C@@H](O)[C@H]2O)n1

>  <Name>  (495) 
nan

>  <Pocket>  (495) 
nan

>  <ATP_Site>  (495) 
nan

>  <Peripheral>  (495) 
nan

>  <Num_H_Atoms_ProtBoundConf>  (495) 
nan

>  <Num_Resolved_Atoms>  (495) 
nan

>  <Num_Not_Resolved_Atoms>  (495) 
nan

$$$$
CHEMBL3261157
     RDKit          3D

  0  0  0  0  0  0  0  0  0  0999 V3000
M  V30 BEGIN CTAB
M  V30 COUNTS 39 41 0 0 0
M  V30 BEGIN ATOM
M  V30 1 O 0.472638 -0.998746 0.518977 0
M  V30 2 C -0.387088 -0.290939 1.087966 0
M  V30 3 C -0.099264 0.880261 1.741032 0
M  V30 4 C 1.234302 1.201049 1.709441 0
M  V30 5 N 2.357674 0.603092 1.155306 0
M  V30 6 C 2.982670 0.167611 -0.041587 0
M  V30 7 C 3.451978 -1.041364 -0.504193 0
M  V30 8 C 4.011771 -1.102851 -1.756385 0
M  V30 9 C 4.135629 -0.015515 -2.591540 0
M  V30 10 I 5.021397 -0.366135 -4.444598 0
M  V30 11 C 3.670044 1.202479 -2.141557 0
M  V30 12 C 3.093641 1.295590 -0.867534 0
M  V30 13 F 2.705998 2.581134 -0.630379 0
M  V30 14 C 1.626813 2.384271 2.355125 0
M  V30 15 N 0.690109 3.160568 2.979274 0
M  V30 16 C -0.605078 2.776139 2.965589 0
M  V30 17 C -1.059745 1.646169 2.362696 0
M  V30 18 N -2.316109 1.193134 2.303727 0
M  V30 19 C -2.604453 0.026784 1.653450 0
M  V30 20 N -1.653793 -0.735450 1.035834 0
M  V30 21 C -2.017253 -1.959349 0.363818 0
M  V30 22 C -1.971456 -3.177583 1.255328 0 CFG=2
M  V30 23 O -2.349972 -4.269924 0.448296 0
M  V30 24 C -3.079647 -3.022728 2.284133 0
M  V30 25 O -3.141601 -4.212850 2.999675 0
M  V30 26 H 3.128725 0.307648 1.796043 0
M  V30 27 H 3.289570 -1.791010 0.248420 0
M  V30 28 H 4.348126 -2.118976 -2.012397 0
M  V30 29 H 3.799782 2.008791 -2.847530 0
M  V30 30 H 2.618938 2.825764 2.454052 0
M  V30 31 H -1.339504 3.391163 3.458084 0
M  V30 32 H -3.662098 -0.268215 1.655523 0
M  V30 33 H -3.090518 -1.843680 0.071988 0
M  V30 34 H -1.479105 -2.097869 -0.594688 0
M  V30 35 H -0.996207 -3.351671 1.710962 0
M  V30 36 H -3.033952 -3.992282 -0.209019 0
M  V30 37 H -2.907680 -2.179114 2.953177 0
M  V30 38 H -4.025437 -2.831597 1.736839 0
M  V30 39 H -2.232881 -4.624600 3.082765 0
M  V30 END ATOM
M  V30 BEGIN BOND
M  V30 1 2 1 2
M  V30 2 1 2 3
M  V30 3 2 3 4
M  V30 4 1 4 5
M  V30 5 1 5 6
M  V30 6 2 6 7
M  V30 7 1 7 8
M  V30 8 2 8 9
M  V30 9 1 9 10
M  V30 10 1 9 11
M  V30 11 2 11 12
M  V30 12 1 12 13
M  V30 13 1 4 14
M  V30 14 2 14 15
M  V30 15 1 15 16
M  V30 16 2 16 17
M  V30 17 1 17 18
M  V30 18 2 18 19
M  V30 19 1 19 20
M  V30 20 1 20 21
M  V30 21 1 21 22
M  V30 22 1 22 23
M  V30 23 1 22 24
M  V30 24 1 24 25
M  V30 25 1 20 2
M  V30 26 1 17 3
M  V30 27 1 12 6
M  V30 28 1 5 26
M  V30 29 1 7 27
M  V30 30 1 8 28
M  V30 31 1 11 29
M  V30 32 1 14 30
M  V30 33 1 16 31
M  V30 34 1 19 32
M  V30 35 1 21 33
M  V30 36 1 21 34
M  V30 37 1 22 35 CFG=1
M  V30 38 1 23 36
M  V30 39 1 24 37
M  V30 40 1 24 38
M  V30 41 1 25 39
M  V30 END BOND
M  V30 END CTAB
M  END
>  <Dataset>  (496) 
ChEMBL_Kinases

>  <Ligand_Instance>  (496) 
nan

>  <PDB_ID>  (496) 
nan

>  <Standardized_SMILES>  (496) 
O=c1c2c(Nc3ccc(I)cc3F)cncc2ncn1C[C@H](O)CO

>  <Name>  (496) 
nan

>  <Pocket>  (496) 
nan

>  <ATP_Site>  (496) 
nan

>  <Peripheral>  (496) 
nan

>  <Num_H_Atoms_ProtBoundConf>  (496) 
nan

>  <Num_Resolved_Atoms>  (496) 
nan

>  <Num_Not_Resolved_Atoms>  (496) 
nan

$$$$
CHEMBL3261158
     RDKit          3D

  0  0  0  0  0  0  0  0  0  0999 V3000
M  V30 BEGIN CTAB
M  V30 COUNTS 39 41 0 0 0
M  V30 BEGIN ATOM
M  V30 1 O 0.348518 -1.150383 0.524657 0
M  V30 2 C -0.459770 -0.292855 0.921420 0
M  V30 3 C -0.110122 0.991574 1.244313 0
M  V30 4 C 1.230377 1.248911 1.089141 0
M  V30 5 N 2.320733 0.464489 0.658869 0
M  V30 6 C 2.862942 -0.287483 -0.413395 0
M  V30 7 C 3.262571 -1.593119 -0.578212 0
M  V30 8 C 3.748277 -1.986994 -1.798026 0
M  V30 9 C 3.863175 -1.149908 -2.880955 0
M  V30 10 I 4.630403 -1.935537 -4.668340 0
M  V30 11 C 3.468925 0.162916 -2.738785 0
M  V30 12 C 2.968820 0.590381 -1.501829 0
M  V30 13 F 2.637204 1.922492 -1.576664 0
M  V30 14 C 1.709150 2.520807 1.388722 0
M  V30 15 N 0.821822 3.467067 1.826814 0
M  V30 16 C -0.483721 3.158711 1.960071 0
M  V30 17 C -1.006241 1.926561 1.680316 0
M  V30 18 N -2.291365 1.549034 1.791599 0
M  V30 19 C -2.628377 0.265668 1.466623 0
M  V30 20 N -1.740835 -0.667813 1.032735 0
M  V30 21 C -2.188800 -2.007310 0.710029 0
M  V30 22 C -2.099491 -2.853963 1.957459 0 CFG=1
M  V30 23 O -0.788892 -2.906097 2.426450 0
M  V30 24 C -3.005700 -2.302890 3.055020 0
M  V30 25 O -2.970831 -3.102537 4.182048 0
M  V30 26 H 3.123718 0.302557 1.333713 0
M  V30 27 H 3.115065 -2.125298 0.349228 0
M  V30 28 H 4.034289 -3.038375 -1.816565 0
M  V30 29 H 3.585916 0.765133 -3.627565 0
M  V30 30 H 2.714877 2.929765 1.337626 0
M  V30 31 H -1.168925 3.915822 2.305682 0
M  V30 32 H -3.676175 0.009339 1.572690 0
M  V30 33 H -3.178869 -2.025038 0.249976 0
M  V30 34 H -1.415283 -2.406396 0.000654 0
M  V30 35 H -2.428734 -3.894754 1.782882 0
M  V30 36 H -0.778046 -2.916694 3.424541 0
M  V30 37 H -4.030606 -2.296241 2.680880 0
M  V30 38 H -2.706308 -1.284414 3.380429 0
M  V30 39 H -2.702725 -2.607931 5.011861 0
M  V30 END ATOM
M  V30 BEGIN BOND
M  V30 1 2 1 2
M  V30 2 1 2 3
M  V30 3 2 3 4
M  V30 4 1 4 5
M  V30 5 1 5 6
M  V30 6 2 6 7
M  V30 7 1 7 8
M  V30 8 2 8 9
M  V30 9 1 9 10
M  V30 10 1 9 11
M  V30 11 2 11 12
M  V30 12 1 12 13
M  V30 13 1 4 14
M  V30 14 2 14 15
M  V30 15 1 15 16
M  V30 16 2 16 17
M  V30 17 1 17 18
M  V30 18 2 18 19
M  V30 19 1 19 20
M  V30 20 1 20 21
M  V30 21 1 21 22
M  V30 22 1 22 23
M  V30 23 1 22 24
M  V30 24 1 24 25
M  V30 25 1 20 2
M  V30 26 1 17 3
M  V30 27 1 12 6
M  V30 28 1 5 26
M  V30 29 1 7 27
M  V30 30 1 8 28
M  V30 31 1 11 29
M  V30 32 1 14 30
M  V30 33 1 16 31
M  V30 34 1 19 32
M  V30 35 1 21 33
M  V30 36 1 21 34
M  V30 37 1 22 35 CFG=3
M  V30 38 1 23 36
M  V30 39 1 24 37
M  V30 40 1 24 38
M  V30 41 1 25 39
M  V30 END BOND
M  V30 END CTAB
M  END
>  <Dataset>  (497) 
ChEMBL_Kinases

>  <Ligand_Instance>  (497) 
nan

>  <PDB_ID>  (497) 
nan

>  <Standardized_SMILES>  (497) 
O=c1c2c(Nc3ccc(I)cc3F)cncc2ncn1C[C@@H](O)CO

>  <Name>  (497) 
nan

>  <Pocket>  (497) 
nan

>  <ATP_Site>  (497) 
nan

>  <Peripheral>  (497) 
nan

>  <Num_H_Atoms_ProtBoundConf>  (497) 
nan

>  <Num_Resolved_Atoms>  (497) 
nan

>  <Num_Not_Resolved_Atoms>  (497) 
nan

$$$$
CHEMBL3261159
     RDKit          3D

  0  0  0  0  0  0  0  0  0  0999 V3000
M  V30 BEGIN CTAB
M  V30 COUNTS 39 41 0 0 0
M  V30 BEGIN ATOM
M  V30 1 O 0.424889 -1.096435 0.684217 0
M  V30 2 C -0.645517 -0.494332 0.928623 0
M  V30 3 C -0.744049 0.867310 1.085305 0
M  V30 4 C 0.461139 1.510684 0.947221 0
M  V30 5 N 1.772639 1.071845 0.671785 0
M  V30 6 C 2.604931 0.412063 -0.267921 0
M  V30 7 C 3.403252 -0.707624 -0.238254 0
M  V30 8 C 4.081477 -1.064396 -1.375981 0
M  V30 9 C 4.013774 -0.365859 -2.558639 0
M  V30 10 I 5.159873 -1.150161 -4.126648 0
M  V30 11 C 3.219833 0.759154 -2.609863 0
M  V30 12 C 2.516147 1.145423 -1.461216 0
M  V30 13 F 1.792999 2.282258 -1.726975 0
M  V30 14 C 0.507974 2.905485 1.085568 0
M  V30 15 N -0.661824 3.566820 1.353904 0
M  V30 16 C -1.815857 2.887851 1.478994 0
M  V30 17 Cl -3.302601 3.744235 1.820279 0
M  V30 18 C -1.920832 1.521637 1.353865 0
M  V30 19 N -3.026317 0.773838 1.465928 0
M  V30 20 C -2.929281 -0.579658 1.310161 0
M  V30 21 N -1.761222 -1.236633 1.043020 0
M  V30 22 C -1.849693 -2.654169 0.913883 0
M  V30 23 C -1.663082 -3.389386 2.208804 0 CFG=2
M  V30 24 O -2.659915 -2.969346 3.087239 0
M  V30 25 C -0.347657 -3.068930 2.873331 0
M  V30 26 O -0.242614 -3.746407 4.095084 0
M  V30 27 H 2.532756 1.253907 1.392375 0
M  V30 28 H 3.356211 -1.145363 0.745347 0
M  V30 29 H 4.683499 -1.969845 -1.234651 0
M  V30 30 H 3.212868 1.257515 -3.565175 0
M  V30 31 H 1.337594 3.596206 1.016918 0
M  V30 32 H -3.872138 -1.115256 1.416187 0
M  V30 33 H -2.767639 -2.965910 0.381875 0
M  V30 34 H -1.010774 -2.973682 0.230040 0
M  V30 35 H -1.807307 -4.481511 2.092823 0
M  V30 36 H -2.491173 -2.011293 3.288079 0
M  V30 37 H -0.344609 -1.983418 3.165174 0
M  V30 38 H 0.532943 -3.341908 2.273347 0
M  V30 39 H -1.163733 -3.685510 4.502062 0
M  V30 END ATOM
M  V30 BEGIN BOND
M  V30 1 2 1 2
M  V30 2 1 2 3
M  V30 3 2 3 4
M  V30 4 1 4 5
M  V30 5 1 5 6
M  V30 6 2 6 7
M  V30 7 1 7 8
M  V30 8 2 8 9
M  V30 9 1 9 10
M  V30 10 1 9 11
M  V30 11 2 11 12
M  V30 12 1 12 13
M  V30 13 1 4 14
M  V30 14 2 14 15
M  V30 15 1 15 16
M  V30 16 1 16 17
M  V30 17 2 16 18
M  V30 18 1 18 19
M  V30 19 2 19 20
M  V30 20 1 20 21
M  V30 21 1 21 22
M  V30 22 1 22 23
M  V30 23 1 23 24
M  V30 24 1 23 25
M  V30 25 1 25 26
M  V30 26 1 21 2
M  V30 27 1 18 3
M  V30 28 1 12 6
M  V30 29 1 5 27
M  V30 30 1 7 28
M  V30 31 1 8 29
M  V30 32 1 11 30
M  V30 33 1 14 31
M  V30 34 1 20 32
M  V30 35 1 22 33
M  V30 36 1 22 34
M  V30 37 1 23 35 CFG=3
M  V30 38 1 24 36
M  V30 39 1 25 37
M  V30 40 1 25 38
M  V30 41 1 26 39
M  V30 END BOND
M  V30 END CTAB
M  END
>  <Dataset>  (498) 
ChEMBL_Kinases

>  <Ligand_Instance>  (498) 
nan

>  <PDB_ID>  (498) 
nan

>  <Standardized_SMILES>  (498) 
O=c1c2c(Nc3ccc(I)cc3F)cnc(Cl)c2ncn1C[C@H](O)CO

>  <Name>  (498) 
nan

>  <Pocket>  (498) 
nan

>  <ATP_Site>  (498) 
nan

>  <Peripheral>  (498) 
nan

>  <Num_H_Atoms_ProtBoundConf>  (498) 
nan

>  <Num_Resolved_Atoms>  (498) 
nan

>  <Num_Not_Resolved_Atoms>  (498) 
nan

$$$$
CHEMBL3261149
     RDKit          3D

  0  0  0  0  0  0  0  0  0  0999 V3000
M  V30 BEGIN CTAB
M  V30 COUNTS 38 39 0 0 0
M  V30 BEGIN ATOM
M  V30 1 O 0.689128 -0.151252 0.182084 0
M  V30 2 C -0.443674 0.379501 0.144704 0
M  V30 3 N -1.190189 -0.383731 -0.793877 0
M  V30 4 O -0.460647 -1.399454 -1.323205 0
M  V30 5 C -1.168082 -2.151555 -2.229430 0
M  V30 6 C -0.341352 -3.278802 -2.817228 0 CFG=1
M  V30 7 O 0.740257 -2.694562 -3.452690 0
M  V30 8 C 0.087350 -4.262164 -1.759009 0
M  V30 9 O 0.846178 -3.646647 -0.794924 0
M  V30 10 C -1.044245 1.509827 0.822758 0
M  V30 11 N -2.286454 1.864194 0.466638 0
M  V30 12 C -2.924328 2.920110 1.001746 0
M  V30 13 N -2.288213 3.658792 1.939813 0
M  V30 14 C -1.040056 3.329675 2.320575 0
M  V30 15 C -0.365282 2.233436 1.772784 0
M  V30 16 N 0.947266 1.935524 2.207633 0
M  V30 17 C 1.516558 0.829211 2.885391 0
M  V30 18 C 0.874518 -0.291459 3.341316 0
M  V30 19 C 1.491853 -1.324662 3.990303 0
M  V30 20 C 2.843221 -1.263617 4.214345 0
M  V30 21 I 3.705071 -2.897268 5.219607 0
M  V30 22 C 3.498646 -0.140882 3.759846 0
M  V30 23 C 2.872370 0.877469 3.116829 0
M  V30 24 F 3.651380 1.930521 2.721804 0
M  V30 25 H -2.204163 -0.176496 -1.047121 0
M  V30 26 H -1.559842 -1.582889 -3.090661 0
M  V30 27 H -2.019938 -2.636017 -1.720294 0
M  V30 28 H -0.983365 -3.823935 -3.531271 0
M  V30 29 H 0.524848 -1.854182 -3.894699 0
M  V30 30 H -0.798344 -4.711108 -1.294261 0
M  V30 31 H 0.713507 -5.022309 -2.270516 0
M  V30 32 H 1.389018 -2.885181 -1.096449 0
M  V30 33 H -3.926772 3.171734 0.686103 0
M  V30 34 H -0.607558 3.973563 3.074773 0
M  V30 35 H 1.504851 2.753646 1.918047 0
M  V30 36 H -0.205471 -0.327694 3.155656 0
M  V30 37 H 0.861309 -2.152111 4.297280 0
M  V30 38 H 4.575367 -0.130357 3.957779 0
M  V30 END ATOM
M  V30 BEGIN BOND
M  V30 1 2 1 2
M  V30 2 1 2 3
M  V30 3 1 3 4
M  V30 4 1 4 5
M  V30 5 1 5 6
M  V30 6 1 6 7
M  V30 7 1 6 8
M  V30 8 1 8 9
M  V30 9 1 2 10
M  V30 10 2 10 11
M  V30 11 1 11 12
M  V30 12 2 12 13
M  V30 13 1 13 14
M  V30 14 2 14 15
M  V30 15 1 15 16
M  V30 16 1 16 17
M  V30 17 2 17 18
M  V30 18 1 18 19
M  V30 19 2 19 20
M  V30 20 1 20 21
M  V30 21 1 20 22
M  V30 22 2 22 23
M  V30 23 1 23 24
M  V30 24 1 15 10
M  V30 25 1 23 17
M  V30 26 1 3 25
M  V30 27 1 5 26
M  V30 28 1 5 27
M  V30 29 1 6 28 CFG=3
M  V30 30 1 7 29
M  V30 31 1 8 30
M  V30 32 1 8 31
M  V30 33 1 9 32
M  V30 34 1 12 33
M  V30 35 1 14 34
M  V30 36 1 16 35
M  V30 37 1 18 36
M  V30 38 1 19 37
M  V30 39 1 22 38
M  V30 END BOND
M  V30 END CTAB
M  END
>  <Dataset>  (499) 
ChEMBL_Kinases

>  <Ligand_Instance>  (499) 
nan

>  <PDB_ID>  (499) 
nan

>  <Standardized_SMILES>  (499) 
O=C(NOC[C@@H](O)CO)c1ncncc1Nc1ccc(I)cc1F

>  <Name>  (499) 
nan

>  <Pocket>  (499) 
nan

>  <ATP_Site>  (499) 
nan

>  <Peripheral>  (499) 
nan

>  <Num_H_Atoms_ProtBoundConf>  (499) 
nan

>  <Num_Resolved_Atoms>  (499) 
nan

>  <Num_Not_Resolved_Atoms>  (499) 
nan

$$$$
CHEMBL3264262
     RDKit          3D

  0  0  0  0  0  0  0  0  0  0999 V3000
M  V30 BEGIN CTAB
M  V30 COUNTS 53 55 0 0 0
M  V30 BEGIN ATOM
M  V30 1 C 5.242998 -3.788076 0.062970 0
M  V30 2 N 5.335112 -3.840048 1.528613 0
M  V30 3 C 5.690225 -5.086843 2.164206 0
M  V30 4 C 5.053949 -2.605883 2.210460 0
M  V30 5 C 3.996730 -1.805906 1.993187 0
M  V30 6 C 3.950788 -0.614998 2.820953 0
M  V30 7 O 4.928277 -0.507558 3.635321 0
M  V30 8 C 2.955886 0.439386 2.834784 0
M  V30 9 C 3.025251 1.537825 3.682678 0
M  V30 10 N 1.965115 2.319708 3.449974 0
M  V30 11 C 1.168763 1.823601 2.490429 0
M  V30 12 C -0.008402 2.238852 1.903904 0
M  V30 13 C -0.572048 1.455998 0.911992 0
M  V30 14 C 0.037124 0.282819 0.521390 0
M  V30 15 C -0.604416 -0.497562 -0.527471 0
M  V30 16 C -0.148640 -1.688450 -1.046479 0
M  V30 17 N -0.800013 -2.352251 -2.018384 0
M  V30 18 C -1.930712 -1.883000 -2.530948 0
M  V30 19 C -2.419078 -0.679126 -2.027122 0
M  V30 20 O -3.600922 -0.221886 -2.586961 0
M  V30 21 C -4.265742 0.951817 -2.238037 0
M  V30 22 C -4.683841 0.985463 -0.785309 0
M  V30 23 N -5.570006 -0.082348 -0.439277 0
M  V30 24 C -5.927094 0.018587 0.974855 0
M  V30 25 C -6.842782 0.057737 -1.162170 0
M  V30 26 N -1.749840 -0.033488 -1.054883 0
M  V30 27 C 1.210228 -0.089687 1.135813 0
M  V30 28 C 1.798501 0.661747 2.123527 0
M  V30 29 H 4.161328 -3.869496 -0.249019 0
M  V30 30 H 5.752113 -4.661998 -0.398903 0
M  V30 31 H 5.620000 -2.813729 -0.302022 0
M  V30 32 H 5.218116 -5.952700 1.615628 0
M  V30 33 H 6.785610 -5.266806 2.176891 0
M  V30 34 H 5.243132 -5.119010 3.183410 0
M  V30 35 H 5.875024 -2.492255 2.911304 0
M  V30 36 H 3.456141 -2.318298 1.214866 0
M  V30 37 H 3.776326 1.773822 4.419675 0
M  V30 38 H 1.762263 3.218726 3.948281 0
M  V30 39 H -0.491523 3.156777 2.204644 0
M  V30 40 H -1.487584 1.798747 0.470154 0
M  V30 41 H 0.769015 -2.086910 -0.643276 0
M  V30 42 H -2.454132 -2.404970 -3.303668 0
M  V30 43 H -3.649388 1.838385 -2.474102 0
M  V30 44 H -5.170283 1.028669 -2.876654 0
M  V30 45 H -3.768983 0.872233 -0.158800 0
M  V30 46 H -5.149567 1.948436 -0.544432 0
M  V30 47 H -6.517042 0.935401 1.177008 0
M  V30 48 H -6.508133 -0.862867 1.307766 0
M  V30 49 H -4.997791 0.063192 1.565484 0
M  V30 50 H -7.285787 1.069640 -1.026995 0
M  V30 51 H -6.657587 -0.205852 -2.224084 0
M  V30 52 H -7.582443 -0.670421 -0.770755 0
M  V30 53 H 1.651833 -0.989129 0.817186 0
M  V30 END ATOM
M  V30 BEGIN BOND
M  V30 1 1 1 2
M  V30 2 1 2 3
M  V30 3 1 2 4
M  V30 4 2 4 5
M  V30 5 1 5 6
M  V30 6 2 6 7
M  V30 7 1 6 8
M  V30 8 2 8 9
M  V30 9 1 9 10
M  V30 10 1 10 11
M  V30 11 2 11 12
M  V30 12 1 12 13
M  V30 13 2 13 14
M  V30 14 1 14 15
M  V30 15 2 15 16
M  V30 16 1 16 17
M  V30 17 2 17 18
M  V30 18 1 18 19
M  V30 19 1 19 20
M  V30 20 1 20 21
M  V30 21 1 21 22
M  V30 22 1 22 23
M  V30 23 1 23 24
M  V30 24 1 23 25
M  V30 25 2 19 26
M  V30 26 1 14 27
M  V30 27 2 27 28
M  V30 28 1 28 8
M  V30 29 1 28 11
M  V30 30 1 26 15
M  V30 31 1 1 29
M  V30 32 1 1 30
M  V30 33 1 1 31
M  V30 34 1 3 32
M  V30 35 1 3 33
M  V30 36 1 3 34
M  V30 37 1 4 35
M  V30 38 1 5 36
M  V30 39 1 9 37
M  V30 40 1 10 38
M  V30 41 1 12 39
M  V30 42 1 13 40
M  V30 43 1 16 41
M  V30 44 1 18 42
M  V30 45 1 21 43
M  V30 46 1 21 44
M  V30 47 1 22 45
M  V30 48 1 22 46
M  V30 49 1 24 47
M  V30 50 1 24 48
M  V30 51 1 24 49
M  V30 52 1 25 50
M  V30 53 1 25 51
M  V30 54 1 25 52
M  V30 55 1 27 53
M  V30 END BOND
M  V30 END CTAB
M  END
>  <Dataset>  (500) 
ChEMBL_Kinases

>  <Ligand_Instance>  (500) 
nan

>  <PDB_ID>  (500) 
nan

>  <Standardized_SMILES>  (500) 
CN(C)/C=C/C(=O)c1c[nH]c2ccc(-c3cncc(OCCN(C)C)n3)cc12

>  <Name>  (500) 
nan

>  <Pocket>  (500) 
nan

>  <ATP_Site>  (500) 
nan

>  <Peripheral>  (500) 
nan

>  <Num_H_Atoms_ProtBoundConf>  (500) 
nan

>  <Num_Resolved_Atoms>  (500) 
nan

>  <Num_Not_Resolved_Atoms>  (500) 
nan

$$$$
CHEMBL3263773
     RDKit          3D

  0  0  0  0  0  0  0  0  0  0999 V3000
M  V30 BEGIN CTAB
M  V30 COUNTS 44 46 0 0 0
M  V30 BEGIN ATOM
M  V30 1 C 0.440994 -3.128509 1.672432 0
M  V30 2 O 0.467652 -2.573827 0.394379 0
M  V30 3 C 0.173647 -3.234164 -0.782833 0
M  V30 4 C -0.172107 -4.554687 -0.643239 0
M  V30 5 C -0.470469 -5.233630 -1.805497 0
M  V30 6 C -0.411954 -4.588617 -3.007804 0
M  V30 7 C -0.057193 -3.264422 -3.065528 0
M  V30 8 C 0.259291 -2.504868 -1.938675 0
M  V30 9 C 0.616405 -1.122118 -2.133522 0
M  V30 10 C 0.986081 -0.187186 -1.208399 0
M  V30 11 C 1.318184 1.114268 -1.464783 0
M  V30 12 N 1.683613 2.077883 -0.498859 0
M  V30 13 C 1.704266 2.091138 0.903020 0
M  V30 14 C 2.670048 2.767077 1.638672 0
M  V30 15 C 2.742024 2.834891 2.992028 0
M  V30 16 C 1.778374 2.180424 3.711591 0
M  V30 17 C 0.764055 1.472960 3.099742 0
M  V30 18 C -0.278845 0.764397 3.885156 0
M  V30 19 S -1.665654 1.818881 4.216729 0
M  V30 20 N -2.856424 0.986545 5.118336 0
M  V30 21 O -2.263977 2.358108 2.969689 0
M  V30 22 O -1.248921 3.008716 5.066363 0
M  V30 23 C 0.779488 1.465695 1.719783 0
M  V30 24 N 1.268204 1.480561 -2.759059 0
M  V30 25 C 0.913533 0.612948 -3.715804 0
M  V30 26 N 0.598271 -0.651679 -3.400957 0
M  V30 27 H 1.055973 -4.055172 1.670835 0
M  V30 28 H 0.940390 -2.455013 2.406704 0
M  V30 29 H -0.580072 -3.360745 2.035288 0
M  V30 30 H -0.208756 -5.036628 0.315456 0
M  V30 31 H -0.751078 -6.278215 -1.782747 0
M  V30 32 H -0.651885 -5.146736 -3.902927 0
M  V30 33 H -0.042865 -2.846715 -4.083883 0
M  V30 34 H 1.030331 -0.509542 -0.193024 0
M  V30 35 H 2.022397 3.012225 -0.868502 0
M  V30 36 H 3.447749 3.294643 1.064207 0
M  V30 37 H 3.513268 3.372581 3.526917 0
M  V30 38 H 1.811296 2.218014 4.792353 0
M  V30 39 H 0.106805 0.348214 4.828707 0
M  V30 40 H -0.664726 -0.057033 3.236942 0
M  V30 41 H -3.706045 0.728971 4.571754 0
M  V30 42 H -2.500404 0.263354 5.761458 0
M  V30 43 H -0.043920 0.910709 1.282476 0
M  V30 44 H 0.880842 0.935483 -4.747388 0
M  V30 END ATOM
M  V30 BEGIN BOND
M  V30 1 1 1 2
M  V30 2 1 2 3
M  V30 3 2 3 4
M  V30 4 1 4 5
M  V30 5 2 5 6
M  V30 6 1 6 7
M  V30 7 2 7 8
M  V30 8 1 8 9
M  V30 9 2 9 10
M  V30 10 1 10 11
M  V30 11 1 11 12
M  V30 12 1 12 13
M  V30 13 2 13 14
M  V30 14 1 14 15
M  V30 15 2 15 16
M  V30 16 1 16 17
M  V30 17 1 17 18
M  V30 18 1 18 19
M  V30 19 1 19 20
M  V30 20 2 19 21
M  V30 21 2 19 22
M  V30 22 2 17 23
M  V30 23 2 11 24
M  V30 24 1 24 25
M  V30 25 2 25 26
M  V30 26 1 8 3
M  V30 27 1 26 9
M  V30 28 1 23 13
M  V30 29 1 1 27
M  V30 30 1 1 28
M  V30 31 1 1 29
M  V30 32 1 4 30
M  V30 33 1 5 31
M  V30 34 1 6 32
M  V30 35 1 7 33
M  V30 36 1 10 34
M  V30 37 1 12 35
M  V30 38 1 14 36
M  V30 39 1 15 37
M  V30 40 1 16 38
M  V30 41 1 18 39
M  V30 42 1 18 40
M  V30 43 1 20 41
M  V30 44 1 20 42
M  V30 45 1 23 43
M  V30 46 1 25 44
M  V30 END BOND
M  V30 END CTAB
M  END
>  <Dataset>  (501) 
ChEMBL_Kinases

>  <Ligand_Instance>  (501) 
nan

>  <PDB_ID>  (501) 
nan

>  <Standardized_SMILES>  (501) 
COc1ccccc1-c1cc(Nc2cccc(CS(N)(=O)=O)c2)ncn1

>  <Name>  (501) 
nan

>  <Pocket>  (501) 
nan

>  <ATP_Site>  (501) 
nan

>  <Peripheral>  (501) 
nan

>  <Num_H_Atoms_ProtBoundConf>  (501) 
nan

>  <Num_Resolved_Atoms>  (501) 
nan

>  <Num_Not_Resolved_Atoms>  (501) 
nan

$$$$
CHEMBL3263640
     RDKit          3D

  0  0  0  0  0  0  0  0  0  0999 V3000
M  V30 BEGIN CTAB
M  V30 COUNTS 79 84 0 0 0
M  V30 BEGIN ATOM
M  V30 1 C -1.379008 -1.367378 2.652824 0
M  V30 2 C -2.520228 -0.680064 3.256732 0
M  V30 3 C -3.784202 -1.038320 2.850285 0
M  V30 4 N -4.019349 -2.054549 1.846775 0
M  V30 5 C -3.803982 -1.274429 0.675333 0
M  V30 6 O -3.505294 -0.085222 1.046600 0
M  V30 7 C -3.874703 -1.638977 -0.751817 0
M  V30 8 C -3.303443 -0.649346 -1.523537 0
M  V30 9 C -3.277290 -0.809031 -2.921319 0
M  V30 10 C -3.833731 -1.963745 -3.459259 0
M  V30 11 C -3.741657 -2.050982 -4.956729 0
M  V30 12 C -4.728189 -3.122949 -5.403825 0
M  V30 13 C -2.330735 -2.412418 -5.379200 0
M  V30 14 C -4.141207 -0.760962 -5.635083 0
M  V30 15 C -4.396488 -2.930307 -2.652795 0
M  V30 16 C -4.424324 -2.779224 -1.283136 0
M  V30 17 C -4.945330 -0.464674 3.353154 0
M  V30 18 C -4.806772 0.500998 4.295566 0
M  V30 19 C -3.546446 0.853339 4.693919 0
M  V30 20 C -2.370743 0.296086 4.206929 0
M  V30 21 C -1.057566 0.754138 4.646776 0
M  V30 22 N 0.101484 0.230916 4.240586 0
M  V30 23 C 1.262991 0.718389 4.655841 0
M  V30 24 N 2.376309 0.041647 4.133245 0
M  V30 25 C 2.914959 0.151716 2.829128 0
M  V30 26 C 2.328579 0.954245 1.880276 0
M  V30 27 C 2.946592 0.948659 0.640242 0
M  V30 28 C 4.065634 0.198814 0.369938 0
M  V30 29 C 4.577879 0.290480 -0.972974 0
M  V30 30 O 4.239690 1.285095 -1.693722 0
M  V30 31 N 5.443951 -0.563136 -1.713203 0
M  V30 32 C 5.739079 -0.142536 -3.077767 0
M  V30 33 C 5.361939 -1.236106 -4.074135 0
M  V30 34 O 5.317555 -2.476778 -3.421624 0
M  V30 35 C 6.481451 -2.510938 -2.629621 0
M  V30 36 C 6.093569 -1.814643 -1.318114 0
M  V30 37 C 4.641511 -0.604720 1.347220 0
M  V30 38 C 4.042909 -0.616166 2.590509 0
M  V30 39 C 1.299715 1.787135 5.527214 0
M  V30 40 N 2.335272 2.432461 6.070548 0
M  V30 41 C 1.847929 3.424812 6.872904 0
M  V30 42 N 0.483988 3.350737 6.791679 0
M  V30 43 C 0.120141 2.330253 5.951139 0
M  V30 44 N -1.019940 1.804737 5.504147 0
M  V30 45 H -1.698650 -2.274207 2.058290 0
M  V30 46 H -0.709127 -1.821157 3.434516 0
M  V30 47 H -0.694514 -0.705930 2.054684 0
M  V30 48 H -4.263623 -3.070393 1.648832 0
M  V30 49 H -2.851712 0.283644 -1.190608 0
M  V30 50 H -2.828978 -0.037065 -3.555583 0
M  V30 51 H -5.645248 -2.950664 -4.756486 0
M  V30 52 H -4.340155 -4.142141 -5.331160 0
M  V30 53 H -5.060347 -2.859133 -6.452399 0
M  V30 54 H -1.652088 -1.548296 -5.236784 0
M  V30 55 H -2.368998 -2.629833 -6.474441 0
M  V30 56 H -1.903330 -3.247888 -4.802715 0
M  V30 57 H -4.442513 -0.064856 -4.799913 0
M  V30 58 H -5.002545 -0.844283 -6.304133 0
M  V30 59 H -3.262173 -0.263081 -6.093267 0
M  V30 60 H -4.812058 -3.804476 -3.102738 0
M  V30 61 H -4.844226 -3.484858 -0.585722 0
M  V30 62 H -5.939243 -0.773812 3.009804 0
M  V30 63 H -5.670389 0.998181 4.738301 0
M  V30 64 H -3.463975 1.634024 5.454988 0
M  V30 65 H 2.745737 -0.567723 4.890303 0
M  V30 66 H 1.453948 1.537668 2.101705 0
M  V30 67 H 2.438429 1.605908 -0.080043 0
M  V30 68 H 5.175345 0.775756 -3.335682 0
M  V30 69 H 6.821484 0.121296 -3.141349 0
M  V30 70 H 6.244839 -1.319313 -4.776422 0
M  V30 71 H 4.447952 -0.987459 -4.624731 0
M  V30 72 H 7.262151 -1.876062 -3.092789 0
M  V30 73 H 6.856068 -3.521617 -2.476121 0
M  V30 74 H 6.960910 -1.651529 -0.683080 0
M  V30 75 H 5.321300 -2.473963 -0.865040 0
M  V30 76 H 5.519553 -1.188523 1.140143 0
M  V30 77 H 4.509426 -1.245034 3.312029 0
M  V30 78 H 2.416818 4.136076 7.465384 0
M  V30 79 H -0.212114 3.977405 7.294383 0
M  V30 END ATOM
M  V30 BEGIN BOND
M  V30 1 1 1 2
M  V30 2 2 2 3
M  V30 3 1 3 4
M  V30 4 1 4 5
M  V30 5 2 5 6
M  V30 6 1 5 7
M  V30 7 2 7 8
M  V30 8 1 8 9
M  V30 9 2 9 10
M  V30 10 1 10 11
M  V30 11 1 11 12
M  V30 12 1 11 13
M  V30 13 1 11 14
M  V30 14 1 10 15
M  V30 15 2 15 16
M  V30 16 1 3 17
M  V30 17 2 17 18
M  V30 18 1 18 19
M  V30 19 2 19 20
M  V30 20 1 20 21
M  V30 21 2 21 22
M  V30 22 1 22 23
M  V30 23 1 23 24
M  V30 24 1 24 25
M  V30 25 2 25 26
M  V30 26 1 26 27
M  V30 27 2 27 28
M  V30 28 1 28 29
M  V30 29 2 29 30
M  V30 30 1 29 31
M  V30 31 1 31 32
M  V30 32 1 32 33
M  V30 33 1 33 34
M  V30 34 1 34 35
M  V30 35 1 35 36
M  V30 36 1 28 37
M  V30 37 2 37 38
M  V30 38 2 23 39
M  V30 39 1 39 40
M  V30 40 2 40 41
M  V30 41 1 41 42
M  V30 42 1 42 43
M  V30 43 2 43 44
M  V30 44 1 20 2
M  V30 45 1 44 21
M  V30 46 1 16 7
M  V30 47 1 38 25
M  V30 48 1 43 39
M  V30 49 1 36 31
M  V30 50 1 1 45
M  V30 51 1 1 46
M  V30 52 1 1 47
M  V30 53 1 4 48
M  V30 54 1 8 49
M  V30 55 1 9 50
M  V30 56 1 12 51
M  V30 57 1 12 52
M  V30 58 1 12 53
M  V30 59 1 13 54
M  V30 60 1 13 55
M  V30 61 1 13 56
M  V30 62 1 14 57
M  V30 63 1 14 58
M  V30 64 1 14 59
M  V30 65 1 15 60
M  V30 66 1 16 61
M  V30 67 1 17 62
M  V30 68 1 18 63
M  V30 69 1 19 64
M  V30 70 1 24 65
M  V30 71 1 26 66
M  V30 72 1 27 67
M  V30 73 1 32 68
M  V30 74 1 32 69
M  V30 75 1 33 70
M  V30 76 1 33 71
M  V30 77 1 35 72
M  V30 78 1 35 73
M  V30 79 1 36 74
M  V30 80 1 36 75
M  V30 81 1 37 76
M  V30 82 1 38 77
M  V30 83 1 41 78
M  V30 84 1 42 79
M  V30 END BOND
M  V30 END CTAB
M  END
>  <Dataset>  (502) 
ChEMBL_Kinases

>  <Ligand_Instance>  (502) 
nan

>  <PDB_ID>  (502) 
nan

>  <Standardized_SMILES>  (502) 
Cc1c(NC(=O)c2ccc(C(C)(C)C)cc2)cccc1-c1nc(Nc2ccc(C(=O)N3CCOCC3)cc2)c2nc[nH]c2n1

>  <Name>  (502) 
nan

>  <Pocket>  (502) 
nan

>  <ATP_Site>  (502) 
nan

>  <Peripheral>  (502) 
nan

>  <Num_H_Atoms_ProtBoundConf>  (502) 
nan

>  <Num_Resolved_Atoms>  (502) 
nan

>  <Num_Not_Resolved_Atoms>  (502) 
nan

$$$$
CHEMBL3263053
     RDKit          3D

  0  0  0  0  0  0  0  0  0  0999 V3000
M  V30 BEGIN CTAB
M  V30 COUNTS 60 64 0 0 0
M  V30 BEGIN ATOM
M  V30 1 C -0.834697 5.376111 3.781073 0
M  V30 2 N -0.213574 4.104172 3.437700 0
M  V30 3 C -0.507830 3.104597 4.455452 0
M  V30 4 C 1.216612 4.250989 3.246884 0
M  V30 5 C 1.769567 2.905943 2.836570 0
M  V30 6 C 1.161846 2.424714 1.540311 0 CFG=1
M  V30 7 C 1.431024 3.358376 0.420892 0
M  V30 8 C 0.454751 3.655509 -0.535722 0
M  V30 9 C 0.712460 4.538466 -1.590245 0
M  V30 10 C 1.954487 5.127987 -1.688745 0
M  V30 11 C 2.946178 4.869276 -0.775749 0
M  V30 12 C 2.656644 3.995964 0.247500 0
M  V30 13 N 1.510746 1.059694 1.214112 0
M  V30 14 C 0.680400 -0.020622 1.107048 0
M  V30 15 C 1.459459 -1.116200 0.775677 0
M  V30 16 N 0.795274 -2.368535 0.611114 0
M  V30 17 C 0.386913 -2.532926 -0.722816 0
M  V30 18 O 0.777792 -1.460603 -1.308114 0
M  V30 19 C -0.303576 -3.537369 -1.500977 0
M  V30 20 N -0.474156 -3.263004 -2.805483 0
M  V30 21 N -1.120472 -4.286866 -3.357481 0
M  V30 22 C -1.397298 -5.253993 -2.468972 0
M  V30 23 C -2.023408 -6.481172 -2.494892 0
M  V30 24 C -2.114887 -7.217503 -1.308358 0
M  V30 25 C -2.792070 -8.504946 -1.432316 0
M  V30 26 C -3.826799 -8.765314 -2.323848 0
M  V30 27 N -4.196539 -10.064061 -2.145851 0
M  V30 28 N -3.460263 -10.626827 -1.203076 0
M  V30 29 C -2.592149 -9.706764 -0.744388 0
M  V30 30 C -1.575873 -6.688679 -0.158161 0
M  V30 31 C -0.953224 -5.458807 -0.151022 0
M  V30 32 C -0.866779 -4.748906 -1.301807 0
M  V30 33 C 2.764196 -0.678406 0.685853 0
M  V30 34 N 2.750775 0.640810 0.957882 0
M  V30 35 H -0.674896 5.643579 4.826772 0
M  V30 36 H -0.546178 6.123383 3.036950 0
M  V30 37 H -1.938365 5.202002 3.636798 0
M  V30 38 H -1.538169 3.228909 4.834589 0
M  V30 39 H -0.386517 2.113049 3.981470 0
M  V30 40 H 0.264098 3.162594 5.265491 0
M  V30 41 H 1.739232 4.534032 4.188096 0
M  V30 42 H 1.378750 5.011260 2.471056 0
M  V30 43 H 1.616587 2.171645 3.632588 0
M  V30 44 H 2.863733 3.040321 2.730250 0
M  V30 45 H 0.048293 2.445218 1.673769 0
M  V30 46 H -0.479132 3.156572 -0.385849 0
M  V30 47 H -0.138164 4.656386 -2.233712 0
M  V30 48 H 2.087505 5.799337 -2.528864 0
M  V30 49 H 3.915352 5.341088 -0.871110 0
M  V30 50 H 3.457455 3.814057 0.945987 0
M  V30 51 H -0.384485 0.084282 1.273962 0
M  V30 52 H 0.540682 -3.175741 1.204431 0
M  V30 53 H -1.379763 -4.328695 -4.368377 0
M  V30 54 H -2.424990 -6.840416 -3.432879 0
M  V30 55 H -4.249051 -8.050651 -3.026508 0
M  V30 56 H -3.482803 -11.604223 -0.823171 0
M  V30 57 H -1.809497 -9.729974 0.021214 0
M  V30 58 H -1.681690 -7.307462 0.710779 0
M  V30 59 H -0.552318 -5.091204 0.764663 0
M  V30 60 H 3.535474 -1.375414 0.436426 0
M  V30 END ATOM
M  V30 BEGIN BOND
M  V30 1 1 1 2
M  V30 2 1 2 3
M  V30 3 1 2 4
M  V30 4 1 4 5
M  V30 5 1 5 6
M  V30 6 1 6 7
M  V30 7 2 7 8
M  V30 8 1 8 9
M  V30 9 2 9 10
M  V30 10 1 10 11
M  V30 11 2 11 12
M  V30 12 1 6 13
M  V30 13 1 13 14
M  V30 14 2 14 15
M  V30 15 1 15 16
M  V30 16 1 16 17
M  V30 17 2 17 18
M  V30 18 1 17 19
M  V30 19 2 19 20
M  V30 20 1 20 21
M  V30 21 1 21 22
M  V30 22 2 22 23
M  V30 23 1 23 24
M  V30 24 1 24 25
M  V30 25 1 25 26
M  V30 26 2 26 27
M  V30 27 1 27 28
M  V30 28 1 28 29
M  V30 29 2 24 30
M  V30 30 1 30 31
M  V30 31 2 31 32
M  V30 32 1 15 33
M  V30 33 2 33 34
M  V30 34 1 12 7
M  V30 35 1 34 13
M  V30 36 1 32 19
M  V30 37 1 32 22
M  V30 38 2 29 25
M  V30 39 1 1 35
M  V30 40 1 1 36
M  V30 41 1 1 37
M  V30 42 1 3 38
M  V30 43 1 3 39
M  V30 44 1 3 40
M  V30 45 1 4 41
M  V30 46 1 4 42
M  V30 47 1 5 43
M  V30 48 1 5 44
M  V30 49 1 6 45 CFG=1
M  V30 50 1 8 46
M  V30 51 1 9 47
M  V30 52 1 10 48
M  V30 53 1 11 49
M  V30 54 1 12 50
M  V30 55 1 14 51
M  V30 56 1 16 52
M  V30 57 1 21 53
M  V30 58 1 23 54
M  V30 59 1 26 55
M  V30 60 1 28 56
M  V30 61 1 29 57
M  V30 62 1 30 58
M  V30 63 1 31 59
M  V30 64 1 33 60
M  V30 END BOND
M  V30 END CTAB
M  END
>  <Dataset>  (503) 
ChEMBL_Kinases

>  <Ligand_Instance>  (503) 
nan

>  <PDB_ID>  (503) 
nan

>  <Standardized_SMILES>  (503) 
CN(C)CC[C@@H](c1ccccc1)n1cc(NC(=O)c2n[nH]c3cc(-c4cn[nH]c4)ccc23)cn1

>  <Name>  (503) 
nan

>  <Pocket>  (503) 
nan

>  <ATP_Site>  (503) 
nan

>  <Peripheral>  (503) 
nan

>  <Num_H_Atoms_ProtBoundConf>  (503) 
nan

>  <Num_Resolved_Atoms>  (503) 
nan

>  <Num_Not_Resolved_Atoms>  (503) 
nan

$$$$
CHEMBL3263036
     RDKit          3D

  0  0  0  0  0  0  0  0  0  0999 V3000
M  V30 BEGIN CTAB
M  V30 COUNTS 47 51 0 0 0
M  V30 BEGIN ATOM
M  V30 1 N 8.731735 -0.736543 -3.086462 0
M  V30 2 C 8.046349 -0.258792 -2.255408 0
M  V30 3 C 7.194515 0.324370 -1.259175 0
M  V30 4 C 7.484576 0.073776 0.079258 0
M  V30 5 C 6.655908 0.642197 1.005273 0
M  V30 6 C 5.563526 1.437665 0.745855 0
M  V30 7 C 5.318109 1.656577 -0.612057 0
M  V30 8 C 4.132398 2.520081 -0.927396 0
M  V30 9 N 2.941422 1.702299 -1.070225 0
M  V30 10 C 2.084298 1.361587 -0.084056 0
M  V30 11 C 1.096786 0.581074 -0.649951 0
M  V30 12 N -0.020788 -0.008685 0.004359 0
M  V30 13 C -1.236524 0.656364 0.125121 0
M  V30 14 O -1.064180 1.789822 -0.447299 0
M  V30 15 C -2.532589 0.386108 0.696636 0
M  V30 16 N -3.477879 1.360572 0.580272 0
M  V30 17 N -4.594635 0.945116 1.157472 0
M  V30 18 C -4.483389 -0.286559 1.680547 0
M  V30 19 C -5.288442 -1.171088 2.364099 0
M  V30 20 C -4.755457 -2.387629 2.734431 0
M  V30 21 C -5.558977 -3.362170 3.462326 0
M  V30 22 C -6.590712 -3.223112 4.390340 0
M  V30 23 N -7.010812 -4.456913 4.774981 0
M  V30 24 N -6.300065 -5.372679 4.139977 0
M  V30 25 C -5.423933 -4.729362 3.347912 0
M  V30 26 C -3.431304 -2.718433 2.425189 0
M  V30 27 C -2.649791 -1.817301 1.742371 0
M  V30 28 C -3.182118 -0.607575 1.375116 0
M  V30 29 C 1.394897 0.469570 -2.001675 0
M  V30 30 N 2.532929 1.170021 -2.223148 0
M  V30 31 C 6.105950 1.119963 -1.613300 0
M  V30 32 H 8.333337 -0.547216 0.394152 0
M  V30 33 H 6.877964 0.449801 2.049134 0
M  V30 34 H 4.978093 1.833745 1.553726 0
M  V30 35 H 4.014792 3.360664 -0.223892 0
M  V30 36 H 4.389040 2.993388 -1.913802 0
M  V30 37 H 2.164584 1.646758 0.934303 0
M  V30 38 H -0.038769 -0.953752 0.438321 0
M  V30 39 H -5.461016 1.529107 1.191534 0
M  V30 40 H -6.302441 -0.880477 2.583490 0
M  V30 41 H -6.944130 -2.242893 4.703374 0
M  V30 42 H -6.380373 -6.424693 4.217700 0
M  V30 43 H -4.698920 -5.215439 2.696983 0
M  V30 44 H -3.058848 -3.687345 2.737955 0
M  V30 45 H -1.641074 -2.090769 1.517256 0
M  V30 46 H 0.792617 -0.088353 -2.703443 0
M  V30 47 H 5.883427 1.312882 -2.656578 0
M  V30 END ATOM
M  V30 BEGIN BOND
M  V30 1 3 1 2
M  V30 2 1 2 3
M  V30 3 2 3 4
M  V30 4 1 4 5
M  V30 5 2 5 6
M  V30 6 1 6 7
M  V30 7 1 7 8
M  V30 8 1 8 9
M  V30 9 1 9 10
M  V30 10 2 10 11
M  V30 11 1 11 12
M  V30 12 1 12 13
M  V30 13 2 13 14
M  V30 14 1 13 15
M  V30 15 2 15 16
M  V30 16 1 16 17
M  V30 17 1 17 18
M  V30 18 2 18 19
M  V30 19 1 19 20
M  V30 20 1 20 21
M  V30 21 1 21 22
M  V30 22 2 22 23
M  V30 23 1 23 24
M  V30 24 1 24 25
M  V30 25 2 20 26
M  V30 26 1 26 27
M  V30 27 2 27 28
M  V30 28 1 11 29
M  V30 29 2 29 30
M  V30 30 2 7 31
M  V30 31 1 31 3
M  V30 32 1 30 9
M  V30 33 1 28 15
M  V30 34 1 28 18
M  V30 35 2 25 21
M  V30 36 1 4 32
M  V30 37 1 5 33
M  V30 38 1 6 34
M  V30 39 1 8 35
M  V30 40 1 8 36
M  V30 41 1 10 37
M  V30 42 1 12 38
M  V30 43 1 17 39
M  V30 44 1 19 40
M  V30 45 1 22 41
M  V30 46 1 24 42
M  V30 47 1 25 43
M  V30 48 1 26 44
M  V30 49 1 27 45
M  V30 50 1 29 46
M  V30 51 1 31 47
M  V30 END BOND
M  V30 END CTAB
M  END
>  <Dataset>  (504) 
ChEMBL_Kinases

>  <Ligand_Instance>  (504) 
nan

>  <PDB_ID>  (504) 
nan

>  <Standardized_SMILES>  (504) 
N#Cc1cccc(Cn2cc(NC(=O)c3n[nH]c4cc(-c5cn[nH]c5)ccc34)cn2)c1

>  <Name>  (504) 
nan

>  <Pocket>  (504) 
nan

>  <ATP_Site>  (504) 
nan

>  <Peripheral>  (504) 
nan

>  <Num_H_Atoms_ProtBoundConf>  (504) 
nan

>  <Num_Resolved_Atoms>  (504) 
nan

>  <Num_Not_Resolved_Atoms>  (504) 
nan

$$$$
CHEMBL3262943
     RDKit          3D

  0  0  0  0  0  0  0  0  0  0999 V3000
M  V30 BEGIN CTAB
M  V30 COUNTS 67 67 0 0 0
M  V30 BEGIN ATOM
M  V30 1 C 2.163451 -0.139950 5.064598 0
M  V30 2 C 3.522908 -0.452262 4.452264 0
M  V30 3 C 4.440513 0.730604 4.834114 0
M  V30 4 C 3.474098 -0.515039 2.967619 0
M  V30 5 C 2.475693 -1.618659 2.458851 0
M  V30 6 C 2.577806 -1.504620 0.968252 0
M  V30 7 C 1.652218 -2.425206 0.291872 0
M  V30 8 C 0.669882 -1.842068 -0.444309 0
M  V30 9 C 0.503969 -0.349565 -0.583328 0
M  V30 10 C -0.937701 -0.213835 -1.162285 0
M  V30 11 C -1.821214 -0.224496 0.025612 0
M  V30 12 O -1.735674 0.950250 0.795382 0
M  V30 13 C -0.986107 0.950102 -2.084086 0
M  V30 14 O -2.091432 1.098923 -2.911088 0
M  V30 15 C -3.342902 1.367495 -2.462614 0
M  V30 16 O -3.833517 1.550989 -1.332482 0
M  V30 17 C -4.293438 1.448282 -3.625862 0
M  V30 18 C -4.339659 0.151347 -4.402453 0
M  V30 19 C -3.739826 2.521694 -4.565414 0
M  V30 20 O -3.699843 3.708857 -3.829963 0
M  V30 21 C -5.673506 1.784888 -3.172762 0
M  V30 22 O -6.601064 1.874276 -4.205226 0
M  V30 23 O -1.040667 -1.400311 -1.970188 0
M  V30 24 C -0.416148 -2.441375 -1.252810 0
M  V30 25 O -0.694934 -3.661706 -1.266087 0
M  V30 26 C 2.865374 -2.908999 3.044059 0
M  V30 27 C 2.138370 -4.152744 2.767517 0
M  V30 28 C 0.686151 -4.159670 3.119677 0
M  V30 29 C 2.745623 -5.193688 3.785962 0
M  V30 30 H 1.478198 0.313313 4.309101 0
M  V30 31 H 1.645766 -1.065293 5.432886 0
M  V30 32 H 2.243029 0.525499 5.953188 0
M  V30 33 H 3.946475 -1.296826 4.981542 0
M  V30 34 H 4.383372 1.488327 4.039306 0
M  V30 35 H 4.107126 1.117692 5.813011 0
M  V30 36 H 5.490331 0.387093 4.935423 0
M  V30 37 H 4.472947 -0.683245 2.519878 0
M  V30 38 H 3.091710 0.436748 2.574769 0
M  V30 39 H 1.498408 -1.226860 2.750911 0
M  V30 40 H 2.448881 -0.459690 0.616535 0
M  V30 41 H 3.648540 -1.738277 0.631350 0
M  V30 42 H 1.496017 -3.478194 0.171718 0
M  V30 43 H 1.169421 0.055637 -1.367466 0
M  V30 44 H 0.566343 0.170726 0.370354 0
M  V30 45 H -1.431007 -1.015558 0.774843 0
M  V30 46 H -2.858070 -0.570403 -0.130910 0
M  V30 47 H -0.951145 1.505158 0.570609 0
M  V30 48 H -0.088212 1.015069 -2.743095 0
M  V30 49 H -0.874077 1.879738 -1.419575 0
M  V30 50 H -3.508168 0.021139 -5.097549 0
M  V30 51 H -4.486485 -0.729042 -3.735392 0
M  V30 52 H -5.285564 0.204013 -5.011445 0
M  V30 53 H -4.495176 2.602749 -5.396235 0
M  V30 54 H -2.753606 2.224293 -4.948042 0
M  V30 55 H -3.551678 3.495181 -2.880625 0
M  V30 56 H -5.620106 2.730235 -2.583105 0
M  V30 57 H -6.012844 0.984399 -2.483889 0
M  V30 58 H -7.172887 1.066740 -4.251973 0
M  V30 59 H 3.942987 -3.096652 2.713547 0
M  V30 60 H 3.016611 -2.839285 4.175563 0
M  V30 61 H 2.342488 -4.632145 1.816598 0
M  V30 62 H 0.465568 -4.476071 4.159779 0
M  V30 63 H 0.148618 -4.898988 2.458787 0
M  V30 64 H 0.174580 -3.193985 2.958436 0
M  V30 65 H 3.841936 -5.050329 3.843855 0
M  V30 66 H 2.473213 -6.213519 3.480268 0
M  V30 67 H 2.338802 -4.993117 4.796996 0
M  V30 END ATOM
M  V30 BEGIN BOND
M  V30 1 1 1 2
M  V30 2 1 2 3
M  V30 3 1 2 4
M  V30 4 1 4 5
M  V30 5 1 5 6
M  V30 6 1 6 7
M  V30 7 2 7 8
M  V30 8 1 8 9
M  V30 9 1 9 10
M  V30 10 1 10 11
M  V30 11 1 11 12
M  V30 12 1 10 13
M  V30 13 1 13 14
M  V30 14 1 14 15
M  V30 15 2 15 16
M  V30 16 1 15 17
M  V30 17 1 17 18
M  V30 18 1 17 19
M  V30 19 1 19 20
M  V30 20 1 17 21
M  V30 21 1 21 22
M  V30 22 1 10 23
M  V30 23 1 23 24
M  V30 24 2 24 25
M  V30 25 1 5 26
M  V30 26 1 26 27
M  V30 27 1 27 28
M  V30 28 1 27 29
M  V30 29 1 24 8
M  V30 30 1 1 30
M  V30 31 1 1 31
M  V30 32 1 1 32
M  V30 33 1 2 33
M  V30 34 1 3 34
M  V30 35 1 3 35
M  V30 36 1 3 36
M  V30 37 1 4 37
M  V30 38 1 4 38
M  V30 39 1 5 39
M  V30 40 1 6 40
M  V30 41 1 6 41
M  V30 42 1 7 42
M  V30 43 1 9 43
M  V30 44 1 9 44
M  V30 45 1 11 45
M  V30 46 1 11 46
M  V30 47 1 12 47
M  V30 48 1 13 48
M  V30 49 1 13 49
M  V30 50 1 18 50
M  V30 51 1 18 51
M  V30 52 1 18 52
M  V30 53 1 19 53
M  V30 54 1 19 54
M  V30 55 1 20 55
M  V30 56 1 21 56
M  V30 57 1 21 57
M  V30 58 1 22 58
M  V30 59 1 26 59
M  V30 60 1 26 60
M  V30 61 1 27 61
M  V30 62 1 28 62
M  V30 63 1 28 63
M  V30 64 1 28 64
M  V30 65 1 29 65
M  V30 66 1 29 66
M  V30 67 1 29 67
M  V30 END BOND
M  V30 END CTAB
M  END
>  <Dataset>  (505) 
ChEMBL_Kinases

>  <Ligand_Instance>  (505) 
nan

>  <PDB_ID>  (505) 
nan

>  <Standardized_SMILES>  (505) 
CC(C)CC(C/C=C1\CC(CO)(COC(=O)C(C)(CO)CO)OC1=O)CC(C)C

>  <Name>  (505) 
nan

>  <Pocket>  (505) 
nan

>  <ATP_Site>  (505) 
nan

>  <Peripheral>  (505) 
nan

>  <Num_H_Atoms_ProtBoundConf>  (505) 
nan

>  <Num_Resolved_Atoms>  (505) 
nan

>  <Num_Not_Resolved_Atoms>  (505) 
nan

$$$$
CHEMBL3262942
     RDKit          3D

  0  0  0  0  0  0  0  0  0  0999 V3000
M  V30 BEGIN CTAB
M  V30 COUNTS 96 97 0 0 0
M  V30 BEGIN ATOM
M  V30 1 C -0.794125 -3.663476 -1.872037 0
M  V30 2 C -0.776560 -2.896384 -3.205806 0
M  V30 3 C -1.199399 -3.873727 -4.276733 0
M  V30 4 C 0.558473 -2.273768 -3.446670 0
M  V30 5 C 0.602157 -1.494510 -4.797300 0
M  V30 6 C 1.995828 -0.926459 -4.901526 0
M  V30 7 C 2.369873 -0.035561 -3.831594 0
M  V30 8 O 3.554158 0.408416 -4.048282 0
M  V30 9 O 2.404640 0.729034 -2.695176 0
M  V30 10 C 3.521010 1.523803 -2.327147 0
M  V30 11 C 3.255479 2.215865 -1.039116 0
M  V30 12 C 2.047615 3.088525 -1.002987 0
M  V30 13 O 2.144843 4.141160 -1.890175 0
M  V30 14 C 3.214078 1.258612 0.139897 0
M  V30 15 C 3.172083 2.257487 1.241342 0
M  V30 16 C 2.544589 2.554139 2.363717 0
M  V30 17 C 1.471416 1.690978 2.839018 0
M  V30 18 C 0.463770 1.170174 2.047984 0
M  V30 19 C -0.505740 0.337163 2.587269 0
M  V30 20 C -0.509686 -0.010905 3.941491 0
M  V30 21 C -1.545608 -0.907583 4.509997 0
M  V30 22 C -1.410929 -2.293743 3.935781 0
M  V30 23 O -1.836556 -3.306144 3.312228 0
M  V30 24 O -0.159403 -2.768746 4.206086 0
M  V30 25 C 0.366767 -4.020340 3.840738 0
M  V30 26 C 0.373181 -4.202615 2.326421 0
M  V30 27 C -0.322995 -5.197255 4.441663 0
M  V30 28 C 1.841265 -4.001920 4.267479 0
M  V30 29 C -2.900805 -0.369113 4.275420 0
M  V30 30 O -3.653407 -0.105037 5.274745 0
M  V30 31 O -3.366253 -0.146999 2.996767 0
M  V30 32 C -4.663726 0.369117 2.746277 0
M  V30 33 C -4.931034 0.527098 1.283066 0
M  V30 34 C -4.828090 1.726134 3.421979 0
M  V30 35 C -5.730800 -0.548275 3.331282 0
M  V30 36 C 0.511371 0.527765 4.702402 0
M  V30 37 C 1.497737 1.368636 4.178602 0
M  V30 38 C 4.250012 3.136402 0.711458 0
M  V30 39 O 5.034500 3.961765 1.306202 0
M  V30 40 O 4.385815 2.995516 -0.691434 0
M  V30 41 C -0.539500 -0.580139 -4.890606 0
M  V30 42 C -0.727798 0.243276 -6.121385 0
M  V30 43 C -2.010372 1.091252 -5.955080 0
M  V30 44 C 0.383773 1.095469 -6.591782 0
M  V30 45 H -0.706967 -3.002489 -1.008402 0
M  V30 46 H -1.653349 -4.353089 -1.828597 0
M  V30 47 H 0.104103 -4.332915 -1.912203 0
M  V30 48 H -1.600692 -2.160897 -3.086640 0
M  V30 49 H -2.124061 -3.532578 -4.829824 0
M  V30 50 H -0.357917 -4.026744 -4.975555 0
M  V30 51 H -1.436790 -4.890978 -3.843825 0
M  V30 52 H 1.279461 -3.118319 -3.593589 0
M  V30 53 H 0.897531 -1.643792 -2.624763 0
M  V30 54 H 0.515824 -2.285811 -5.565382 0
M  V30 55 H 2.223604 -0.497823 -5.881727 0
M  V30 56 H 2.657148 -1.867854 -4.884085 0
M  V30 57 H 4.420415 0.866781 -2.151628 0
M  V30 58 H 3.797637 2.285754 -3.066327 0
M  V30 59 H 1.103671 2.518972 -1.067398 0
M  V30 60 H 2.025861 3.546404 0.026199 0
M  V30 61 H 1.396800 4.118335 -2.568487 0
M  V30 62 H 4.228950 0.756478 0.188660 0
M  V30 63 H 2.403521 0.542058 0.123206 0
M  V30 64 H 2.821312 3.429934 2.930526 0
M  V30 65 H 0.425848 1.420373 1.016479 0
M  V30 66 H -1.279930 -0.042446 1.900484 0
M  V30 67 H -1.345340 -1.005272 5.594069 0
M  V30 68 H 1.256129 -4.831082 2.089688 0
M  V30 69 H -0.526169 -4.754006 1.972757 0
M  V30 70 H 0.513099 -3.220991 1.819157 0
M  V30 71 H -0.807323 -5.834847 3.656918 0
M  V30 72 H -1.067295 -4.960189 5.230188 0
M  V30 73 H 0.436020 -5.859428 4.905842 0
M  V30 74 H 2.273021 -4.963949 3.933328 0
M  V30 75 H 1.964997 -3.921766 5.345695 0
M  V30 76 H 2.371726 -3.176075 3.732391 0
M  V30 77 H -5.353642 1.520065 1.020156 0
M  V30 78 H -5.644819 -0.234404 0.949499 0
M  V30 79 H -4.008538 0.417821 0.677974 0
M  V30 80 H -3.887678 2.283018 3.522033 0
M  V30 81 H -5.640515 2.281177 2.907132 0
M  V30 82 H -5.171443 1.495743 4.474849 0
M  V30 83 H -6.288092 -1.066343 2.514052 0
M  V30 84 H -5.280593 -1.282880 4.040699 0
M  V30 85 H -6.476684 0.030419 3.912044 0
M  V30 86 H 0.574788 0.303893 5.761307 0
M  V30 87 H 2.265354 1.753753 4.818960 0
M  V30 88 H -1.473572 -1.240205 -4.863166 0
M  V30 89 H -0.693280 0.047865 -3.968948 0
M  V30 90 H -0.996159 -0.442918 -6.969648 0
M  V30 91 H -1.753235 1.834194 -5.198704 0
M  V30 92 H -2.193403 1.527940 -6.956613 0
M  V30 93 H -2.807643 0.402028 -5.678261 0
M  V30 94 H -0.126785 1.954872 -7.162799 0
M  V30 95 H 0.941514 0.582674 -7.401508 0
M  V30 96 H 0.961005 1.495296 -5.767009 0
M  V30 END ATOM
M  V30 BEGIN BOND
M  V30 1 1 1 2
M  V30 2 1 2 3
M  V30 3 1 2 4
M  V30 4 1 4 5
M  V30 5 1 5 6
M  V30 6 1 6 7
M  V30 7 2 7 8
M  V30 8 1 7 9
M  V30 9 1 9 10
M  V30 10 1 10 11
M  V30 11 1 11 12
M  V30 12 1 12 13
M  V30 13 1 11 14
M  V30 14 1 14 15
M  V30 15 2 15 16
M  V30 16 1 16 17
M  V30 17 2 17 18
M  V30 18 1 18 19
M  V30 19 2 19 20
M  V30 20 1 20 21
M  V30 21 1 21 22
M  V30 22 2 22 23
M  V30 23 1 22 24
M  V30 24 1 24 25
M  V30 25 1 25 26
M  V30 26 1 25 27
M  V30 27 1 25 28
M  V30 28 1 21 29
M  V30 29 2 29 30
M  V30 30 1 29 31
M  V30 31 1 31 32
M  V30 32 1 32 33
M  V30 33 1 32 34
M  V30 34 1 32 35
M  V30 35 1 20 36
M  V30 36 2 36 37
M  V30 37 1 15 38
M  V30 38 2 38 39
M  V30 39 1 38 40
M  V30 40 1 5 41
M  V30 41 1 41 42
M  V30 42 1 42 43
M  V30 43 1 42 44
M  V30 44 1 40 11
M  V30 45 1 37 17
M  V30 46 1 1 45
M  V30 47 1 1 46
M  V30 48 1 1 47
M  V30 49 1 2 48
M  V30 50 1 3 49
M  V30 51 1 3 50
M  V30 52 1 3 51
M  V30 53 1 4 52
M  V30 54 1 4 53
M  V30 55 1 5 54
M  V30 56 1 6 55
M  V30 57 1 6 56
M  V30 58 1 10 57
M  V30 59 1 10 58
M  V30 60 1 12 59
M  V30 61 1 12 60
M  V30 62 1 13 61
M  V30 63 1 14 62
M  V30 64 1 14 63
M  V30 65 1 16 64
M  V30 66 1 18 65
M  V30 67 1 19 66
M  V30 68 1 21 67
M  V30 69 1 26 68
M  V30 70 1 26 69
M  V30 71 1 26 70
M  V30 72 1 27 71
M  V30 73 1 27 72
M  V30 74 1 27 73
M  V30 75 1 28 74
M  V30 76 1 28 75
M  V30 77 1 28 76
M  V30 78 1 33 77
M  V30 79 1 33 78
M  V30 80 1 33 79
M  V30 81 1 34 80
M  V30 82 1 34 81
M  V30 83 1 34 82
M  V30 84 1 35 83
M  V30 85 1 35 84
M  V30 86 1 35 85
M  V30 87 1 36 86
M  V30 88 1 37 87
M  V30 89 1 41 88
M  V30 90 1 41 89
M  V30 91 1 42 90
M  V30 92 1 43 91
M  V30 93 1 43 92
M  V30 94 1 43 93
M  V30 95 1 44 94
M  V30 96 1 44 95
M  V30 97 1 44 96
M  V30 END BOND
M  V30 END CTAB
M  END
>  <Dataset>  (506) 
ChEMBL_Kinases

>  <Ligand_Instance>  (506) 
nan

>  <PDB_ID>  (506) 
nan

>  <Standardized_SMILES>  (506) 
CC(C)CC(CC(=O)OCC1(CO)C/C(=C\c2ccc(C(C(=O)OC(C)(C)C)C(=O)OC(C)(C)C)cc2)C(=O)O1)CC(C)C

>  <Name>  (506) 
nan

>  <Pocket>  (506) 
nan

>  <ATP_Site>  (506) 
nan

>  <Peripheral>  (506) 
nan

>  <Num_H_Atoms_ProtBoundConf>  (506) 
nan

>  <Num_Resolved_Atoms>  (506) 
nan

>  <Num_Not_Resolved_Atoms>  (506) 
nan

$$$$
CHEMBL3262941
     RDKit          3D

  0  0  0  0  0  0  0  0  0  0999 V3000
M  V30 BEGIN CTAB
M  V30 COUNTS 96 97 0 0 0
M  V30 BEGIN ATOM
M  V30 1 C 2.172297 -3.747907 1.628064 0
M  V30 2 C 3.408823 -3.498082 2.453019 0
M  V30 3 C 2.988807 -3.277610 3.863323 0
M  V30 4 C 4.383373 -2.543061 1.905155 0
M  V30 5 C 4.013862 -1.143536 1.629394 0
M  V30 6 C 3.522291 -0.347251 2.815345 0
M  V30 7 C 3.226130 1.038443 2.295266 0
M  V30 8 O 4.019432 1.768362 1.608278 0
M  V30 9 O 2.018599 1.639385 2.535128 0
M  V30 10 C 1.596231 2.906673 2.121071 0
M  V30 11 C 0.158508 3.137501 2.598492 0
M  V30 12 C -0.310123 4.448736 2.078204 0
M  V30 13 O 0.570040 5.426520 2.532429 0
M  V30 14 C -0.722527 1.980719 2.159590 0
M  V30 15 C -0.658904 1.086595 3.337020 0
M  V30 16 C -1.387534 -0.009319 3.575969 0
M  V30 17 C -2.421360 -0.580341 2.729546 0
M  V30 18 C -3.547689 -1.094303 3.392555 0
M  V30 19 C -4.642182 -1.687483 2.803156 0
M  V30 20 C -4.589139 -1.766530 1.405943 0
M  V30 21 C -3.508055 -1.278813 0.695513 0
M  V30 22 C -3.593341 -1.439292 -0.752335 0
M  V30 23 C -2.377753 -1.974622 -1.384468 0
M  V30 24 O -1.283044 -2.217557 -0.841462 0
M  V30 25 O -2.573564 -2.202410 -2.734264 0
M  V30 26 C -1.591833 -2.708888 -3.603776 0
M  V30 27 C -2.085355 -2.892396 -5.018015 0
M  V30 28 C -0.895895 -3.940699 -3.152681 0
M  V30 29 C -0.517798 -1.607102 -3.690653 0
M  V30 30 C -3.869277 -0.124614 -1.437311 0
M  V30 31 O -4.050639 1.090739 -1.198764 0
M  V30 32 O -3.955454 -0.306804 -2.816759 0
M  V30 33 C -4.203887 0.716037 -3.744724 0
M  V30 34 C -4.203791 0.036795 -5.121805 0
M  V30 35 C -3.158450 1.783092 -3.760808 0
M  V30 36 C -5.569199 1.358471 -3.582285 0
M  V30 37 C -2.474503 -0.709739 1.374143 0
M  V30 38 C 0.376366 1.648441 4.225624 0
M  V30 39 O 1.135271 0.902484 4.944558 0
M  V30 40 O 0.219850 3.038620 4.005265 0
M  V30 41 C 3.100431 -0.896571 0.481463 0
M  V30 42 C 3.620993 -1.353607 -0.863520 0
M  V30 43 C 2.591975 -1.046693 -1.961487 0
M  V30 44 C 4.884979 -0.657226 -1.259773 0
M  V30 45 H 1.769950 -4.796051 1.791360 0
M  V30 46 H 2.336496 -3.692172 0.550370 0
M  V30 47 H 1.315747 -3.107612 1.995184 0
M  V30 48 H 3.949637 -4.495365 2.426178 0
M  V30 49 H 2.990006 -4.241084 4.426689 0
M  V30 50 H 3.676202 -2.633388 4.461257 0
M  V30 51 H 1.929319 -2.916414 3.932652 0
M  V30 52 H 5.289416 -2.557585 2.543314 0
M  V30 53 H 4.720345 -2.965952 0.911133 0
M  V30 54 H 4.989246 -0.642332 1.366322 0
M  V30 55 H 2.594864 -0.716029 3.239740 0
M  V30 56 H 4.355487 -0.196920 3.538696 0
M  V30 57 H 2.197545 3.662443 2.653047 0
M  V30 58 H 1.697392 3.084118 1.031947 0
M  V30 59 H -0.225143 4.413845 0.971299 0
M  V30 60 H -1.346349 4.693498 2.390374 0
M  V30 61 H 1.280055 5.598650 1.874684 0
M  V30 62 H -1.724373 2.338048 1.911719 0
M  V30 63 H -0.281098 1.520137 1.239105 0
M  V30 64 H -1.206117 -0.570787 4.510575 0
M  V30 65 H -3.595006 -1.035000 4.489531 0
M  V30 66 H -5.464974 -2.053884 3.399910 0
M  V30 67 H -5.453525 -2.234694 0.946611 0
M  V30 68 H -4.466344 -2.068933 -1.005731 0
M  V30 69 H -1.529984 -2.293143 -5.769050 0
M  V30 70 H -3.183299 -2.742103 -5.096741 0
M  V30 71 H -1.940009 -3.971359 -5.319252 0
M  V30 72 H -0.495260 -4.463724 -4.055183 0
M  V30 73 H -1.512475 -4.685542 -2.628857 0
M  V30 74 H 0.037347 -3.686232 -2.571604 0
M  V30 75 H -0.544146 -0.974367 -2.785713 0
M  V30 76 H -0.713309 -0.930290 -4.558933 0
M  V30 77 H 0.484421 -2.050212 -3.753371 0
M  V30 78 H -4.717598 0.746164 -5.801976 0
M  V30 79 H -4.749658 -0.910437 -5.112666 0
M  V30 80 H -3.137726 -0.074214 -5.475368 0
M  V30 81 H -2.135026 1.362569 -3.744260 0
M  V30 82 H -3.305966 2.490765 -2.904554 0
M  V30 83 H -3.241544 2.348798 -4.720675 0
M  V30 84 H -6.208480 0.610770 -3.048424 0
M  V30 85 H -6.014544 1.554141 -4.581846 0
M  V30 86 H -5.451426 2.246749 -2.959278 0
M  V30 87 H -1.644824 -0.340991 0.829626 0
M  V30 88 H 2.084124 -1.314269 0.614082 0
M  V30 89 H 2.941870 0.194596 0.373593 0
M  V30 90 H 3.773874 -2.429080 -0.873396 0
M  V30 91 H 2.928376 -1.599941 -2.872436 0
M  V30 92 H 1.599815 -1.409712 -1.700861 0
M  V30 93 H 2.622010 0.035724 -2.250938 0
M  V30 94 H 4.924441 -0.616470 -2.365823 0
M  V30 95 H 5.790271 -1.205594 -0.925448 0
M  V30 96 H 4.902056 0.426556 -0.951550 0
M  V30 END ATOM
M  V30 BEGIN BOND
M  V30 1 1 1 2
M  V30 2 1 2 3
M  V30 3 1 2 4
M  V30 4 1 4 5
M  V30 5 1 5 6
M  V30 6 1 6 7
M  V30 7 2 7 8
M  V30 8 1 7 9
M  V30 9 1 9 10
M  V30 10 1 10 11
M  V30 11 1 11 12
M  V30 12 1 12 13
M  V30 13 1 11 14
M  V30 14 1 14 15
M  V30 15 2 15 16
M  V30 16 1 16 17
M  V30 17 2 17 18
M  V30 18 1 18 19
M  V30 19 2 19 20
M  V30 20 1 20 21
M  V30 21 1 21 22
M  V30 22 1 22 23
M  V30 23 2 23 24
M  V30 24 1 23 25
M  V30 25 1 25 26
M  V30 26 1 26 27
M  V30 27 1 26 28
M  V30 28 1 26 29
M  V30 29 1 22 30
M  V30 30 2 30 31
M  V30 31 1 30 32
M  V30 32 1 32 33
M  V30 33 1 33 34
M  V30 34 1 33 35
M  V30 35 1 33 36
M  V30 36 2 21 37
M  V30 37 1 15 38
M  V30 38 2 38 39
M  V30 39 1 38 40
M  V30 40 1 5 41
M  V30 41 1 41 42
M  V30 42 1 42 43
M  V30 43 1 42 44
M  V30 44 1 40 11
M  V30 45 1 37 17
M  V30 46 1 1 45
M  V30 47 1 1 46
M  V30 48 1 1 47
M  V30 49 1 2 48
M  V30 50 1 3 49
M  V30 51 1 3 50
M  V30 52 1 3 51
M  V30 53 1 4 52
M  V30 54 1 4 53
M  V30 55 1 5 54
M  V30 56 1 6 55
M  V30 57 1 6 56
M  V30 58 1 10 57
M  V30 59 1 10 58
M  V30 60 1 12 59
M  V30 61 1 12 60
M  V30 62 1 13 61
M  V30 63 1 14 62
M  V30 64 1 14 63
M  V30 65 1 16 64
M  V30 66 1 18 65
M  V30 67 1 19 66
M  V30 68 1 20 67
M  V30 69 1 22 68
M  V30 70 1 27 69
M  V30 71 1 27 70
M  V30 72 1 27 71
M  V30 73 1 28 72
M  V30 74 1 28 73
M  V30 75 1 28 74
M  V30 76 1 29 75
M  V30 77 1 29 76
M  V30 78 1 29 77
M  V30 79 1 34 78
M  V30 80 1 34 79
M  V30 81 1 34 80
M  V30 82 1 35 81
M  V30 83 1 35 82
M  V30 84 1 35 83
M  V30 85 1 36 84
M  V30 86 1 36 85
M  V30 87 1 36 86
M  V30 88 1 37 87
M  V30 89 1 41 88
M  V30 90 1 41 89
M  V30 91 1 42 90
M  V30 92 1 43 91
M  V30 93 1 43 92
M  V30 94 1 43 93
M  V30 95 1 44 94
M  V30 96 1 44 95
M  V30 97 1 44 96
M  V30 END BOND
M  V30 END CTAB
M  END
>  <Dataset>  (507) 
ChEMBL_Kinases

>  <Ligand_Instance>  (507) 
nan

>  <PDB_ID>  (507) 
nan

>  <Standardized_SMILES>  (507) 
CC(C)CC(CC(=O)OCC1(CO)C/C(=C\c2cccc(C(C(=O)OC(C)(C)C)C(=O)OC(C)(C)C)c2)C(=O)O1)CC(C)C

>  <Name>  (507) 
nan

>  <Pocket>  (507) 
nan

>  <ATP_Site>  (507) 
nan

>  <Peripheral>  (507) 
nan

>  <Num_H_Atoms_ProtBoundConf>  (507) 
nan

>  <Num_Resolved_Atoms>  (507) 
nan

>  <Num_Not_Resolved_Atoms>  (507) 
nan

$$$$
CHEMBL3262940
     RDKit          3D

  0  0  0  0  0  0  0  0  0  0999 V3000
M  V30 BEGIN CTAB
M  V30 COUNTS 96 97 0 0 0
M  V30 BEGIN ATOM
M  V30 1 C -0.823395 -3.782148 4.433032 0
M  V30 2 C 0.514882 -4.182448 5.003320 0
M  V30 3 C 1.033900 -3.129263 5.896337 0
M  V30 4 C 1.459297 -4.780439 4.005103 0
M  V30 5 C 1.818602 -3.946003 2.827574 0
M  V30 6 C 2.494985 -2.627851 3.148439 0
M  V30 7 C 2.832410 -1.882765 1.894515 0
M  V30 8 O 3.756370 -1.961516 1.048696 0
M  V30 9 O 2.098121 -0.832412 1.360924 0
M  V30 10 C 2.477080 -0.171589 0.167335 0
M  V30 11 C 1.514219 0.935367 -0.192198 0
M  V30 12 C 2.113981 1.660342 -1.382588 0
M  V30 13 O 1.266477 2.725105 -1.696304 0
M  V30 14 C 0.129460 0.442763 -0.435639 0
M  V30 15 C -0.710965 1.416528 0.284138 0
M  V30 16 C -2.021755 1.451404 0.515768 0
M  V30 17 C -2.891400 0.393213 0.020792 0
M  V30 18 C -3.089735 -0.715692 0.816285 0
M  V30 19 C -3.887935 -1.730240 0.394074 0
M  V30 20 C -4.469247 -1.598175 -0.829310 0
M  V30 21 C -4.265183 -0.487990 -1.615917 0
M  V30 22 C -3.446272 0.572418 -1.202617 0
M  V30 23 C -3.350013 1.667235 -2.169436 0
M  V30 24 C -3.113060 0.984708 -3.504230 0
M  V30 25 O -3.880251 1.012904 -4.475559 0
M  V30 26 O -1.929112 0.281984 -3.605504 0
M  V30 27 C -1.483526 -0.436458 -4.717096 0
M  V30 28 C -2.439808 -1.563809 -5.068296 0
M  V30 29 C -0.137130 -1.025572 -4.427904 0
M  V30 30 C -1.327682 0.423422 -5.962902 0
M  V30 31 C -2.372729 2.699466 -1.911440 0
M  V30 32 O -2.796172 3.874922 -1.803979 0
M  V30 33 O -1.632133 3.809784 -1.672327 0
M  V30 34 C -1.998334 5.141710 -1.548659 0
M  V30 35 C -2.981797 5.442834 -0.455874 0
M  V30 36 C -0.730959 5.960437 -1.324828 0
M  V30 37 C -2.571274 5.636144 -2.857739 0
M  V30 38 C 0.157586 2.494711 0.800532 0
M  V30 39 O -0.206675 3.652754 1.120018 0
M  V30 40 O 1.449556 1.918997 0.842649 0
M  V30 41 C 2.483701 -4.662696 1.710411 0
M  V30 42 C 3.783218 -5.321374 1.922629 0
M  V30 43 C 4.256481 -5.966701 0.592724 0
M  V30 44 C 3.780126 -6.450919 2.908437 0
M  V30 45 H -0.742462 -2.730062 4.093910 0
M  V30 46 H -1.545061 -3.757881 5.292769 0
M  V30 47 H -1.243892 -4.478826 3.705656 0
M  V30 48 H 0.240753 -5.066888 5.694702 0
M  V30 49 H 2.139782 -3.031987 5.833083 0
M  V30 50 H 0.519534 -2.154253 5.648017 0
M  V30 51 H 0.763711 -3.394754 6.967945 0
M  V30 52 H 2.307370 -5.201998 4.576834 0
M  V30 53 H 0.903503 -5.674582 3.572102 0
M  V30 54 H 0.807598 -3.620387 2.392212 0
M  V30 55 H 1.871347 -1.968656 3.780265 0
M  V30 56 H 3.411520 -2.862668 3.716181 0
M  V30 57 H 2.516040 -0.935555 -0.637105 0
M  V30 58 H 3.504834 0.187156 0.304484 0
M  V30 59 H 2.245662 0.981933 -2.250585 0
M  V30 60 H 3.079299 2.097769 -1.055729 0
M  V30 61 H 1.463632 3.484184 -1.072565 0
M  V30 62 H -0.059698 0.515996 -1.521699 0
M  V30 63 H -0.037765 -0.613183 -0.160833 0
M  V30 64 H -2.538696 2.235491 1.070580 0
M  V30 65 H -2.596278 -0.755033 1.778417 0
M  V30 66 H -3.998547 -2.567805 1.067992 0
M  V30 67 H -5.116037 -2.409345 -1.186736 0
M  V30 68 H -4.749335 -0.432833 -2.581373 0
M  V30 69 H -4.403889 2.064088 -2.288811 0
M  V30 70 H -3.207808 -1.264123 -5.792638 0
M  V30 71 H -2.904096 -1.895774 -4.114217 0
M  V30 72 H -1.886318 -2.456357 -5.450261 0
M  V30 73 H -0.166671 -2.080630 -4.101868 0
M  V30 74 H 0.431640 -0.483217 -3.642323 0
M  V30 75 H 0.540035 -0.992744 -5.323260 0
M  V30 76 H -1.034648 -0.298298 -6.780109 0
M  V30 77 H -0.511936 1.154305 -5.876348 0
M  V30 78 H -2.266871 0.903839 -6.246981 0
M  V30 79 H -2.657501 6.393293 0.038708 0
M  V30 80 H -4.020758 5.634638 -0.821330 0
M  V30 81 H -3.023796 4.704656 0.358080 0
M  V30 82 H -0.411326 6.008128 -0.284271 0
M  V30 83 H -0.927872 6.982252 -1.744609 0
M  V30 84 H 0.056195 5.531727 -1.985712 0
M  V30 85 H -2.357504 4.991582 -3.726618 0
M  V30 86 H -3.688701 5.766511 -2.821871 0
M  V30 87 H -2.175151 6.658749 -3.107096 0
M  V30 88 H 1.743024 -5.470658 1.388107 0
M  V30 89 H 2.468915 -3.974413 0.831319 0
M  V30 90 H 4.599290 -4.631853 2.238492 0
M  V30 91 H 5.017355 -6.706178 0.827119 0
M  V30 92 H 3.377561 -6.474379 0.128957 0
M  V30 93 H 4.605398 -5.207944 -0.123131 0
M  V30 94 H 4.436258 -7.313698 2.543672 0
M  V30 95 H 4.275714 -6.179566 3.866196 0
M  V30 96 H 2.791810 -6.892013 2.982578 0
M  V30 END ATOM
M  V30 BEGIN BOND
M  V30 1 1 1 2
M  V30 2 1 2 3
M  V30 3 1 2 4
M  V30 4 1 4 5
M  V30 5 1 5 6
M  V30 6 1 6 7
M  V30 7 2 7 8
M  V30 8 1 7 9
M  V30 9 1 9 10
M  V30 10 1 10 11
M  V30 11 1 11 12
M  V30 12 1 12 13
M  V30 13 1 11 14
M  V30 14 1 14 15
M  V30 15 2 15 16
M  V30 16 1 16 17
M  V30 17 2 17 18
M  V30 18 1 18 19
M  V30 19 2 19 20
M  V30 20 1 20 21
M  V30 21 2 21 22
M  V30 22 1 22 23
M  V30 23 1 23 24
M  V30 24 2 24 25
M  V30 25 1 24 26
M  V30 26 1 26 27
M  V30 27 1 27 28
M  V30 28 1 27 29
M  V30 29 1 27 30
M  V30 30 1 23 31
M  V30 31 2 31 32
M  V30 32 1 31 33
M  V30 33 1 33 34
M  V30 34 1 34 35
M  V30 35 1 34 36
M  V30 36 1 34 37
M  V30 37 1 15 38
M  V30 38 2 38 39
M  V30 39 1 38 40
M  V30 40 1 5 41
M  V30 41 1 41 42
M  V30 42 1 42 43
M  V30 43 1 42 44
M  V30 44 1 40 11
M  V30 45 1 22 17
M  V30 46 1 1 45
M  V30 47 1 1 46
M  V30 48 1 1 47
M  V30 49 1 2 48
M  V30 50 1 3 49
M  V30 51 1 3 50
M  V30 52 1 3 51
M  V30 53 1 4 52
M  V30 54 1 4 53
M  V30 55 1 5 54
M  V30 56 1 6 55
M  V30 57 1 6 56
M  V30 58 1 10 57
M  V30 59 1 10 58
M  V30 60 1 12 59
M  V30 61 1 12 60
M  V30 62 1 13 61
M  V30 63 1 14 62
M  V30 64 1 14 63
M  V30 65 1 16 64
M  V30 66 1 18 65
M  V30 67 1 19 66
M  V30 68 1 20 67
M  V30 69 1 21 68
M  V30 70 1 23 69
M  V30 71 1 28 70
M  V30 72 1 28 71
M  V30 73 1 28 72
M  V30 74 1 29 73
M  V30 75 1 29 74
M  V30 76 1 29 75
M  V30 77 1 30 76
M  V30 78 1 30 77
M  V30 79 1 30 78
M  V30 80 1 35 79
M  V30 81 1 35 80
M  V30 82 1 35 81
M  V30 83 1 36 82
M  V30 84 1 36 83
M  V30 85 1 36 84
M  V30 86 1 37 85
M  V30 87 1 37 86
M  V30 88 1 37 87
M  V30 89 1 41 88
M  V30 90 1 41 89
M  V30 91 1 42 90
M  V30 92 1 43 91
M  V30 93 1 43 92
M  V30 94 1 43 93
M  V30 95 1 44 94
M  V30 96 1 44 95
M  V30 97 1 44 96
M  V30 END BOND
M  V30 END CTAB
M  END
>  <Dataset>  (508) 
ChEMBL_Kinases

>  <Ligand_Instance>  (508) 
nan

>  <PDB_ID>  (508) 
nan

>  <Standardized_SMILES>  (508) 
CC(C)CC(CC(=O)OCC1(CO)C/C(=C\c2ccccc2C(C(=O)OC(C)(C)C)C(=O)OC(C)(C)C)C(=O)O1)CC(C)C

>  <Name>  (508) 
nan

>  <Pocket>  (508) 
nan

>  <ATP_Site>  (508) 
nan

>  <Peripheral>  (508) 
nan

>  <Num_H_Atoms_ProtBoundConf>  (508) 
nan

>  <Num_Resolved_Atoms>  (508) 
nan

>  <Num_Not_Resolved_Atoms>  (508) 
nan

$$$$
CHEMBL3262939
     RDKit          3D

  0  0  0  0  0  0  0  0  0  0999 V3000
M  V30 BEGIN CTAB
M  V30 COUNTS 66 67 0 0 0
M  V30 BEGIN ATOM
M  V30 1 C 2.599592 -1.096288 5.092863 0
M  V30 2 C 2.538761 -0.687672 3.580987 0
M  V30 3 C 2.835127 -2.046794 2.894024 0
M  V30 4 C 3.585214 0.305069 3.316157 0
M  V30 5 C 3.819796 1.001736 2.059937 0
M  V30 6 C 4.081900 0.279671 0.795574 0
M  V30 7 C 3.123897 -0.600025 0.186812 0
M  V30 8 O 2.147674 -0.032658 -0.325447 0
M  V30 9 O 2.261878 -1.436467 -0.364234 0
M  V30 10 C 1.126014 -1.644533 -1.014407 0
M  V30 11 C -0.206760 -1.403970 -0.411911 0
M  V30 12 C -0.583453 -0.042854 0.028542 0
M  V30 13 O -0.586296 0.937293 -0.960372 0
M  V30 14 C -1.325837 -1.926515 -1.338744 0
M  V30 15 C -1.819795 -3.116553 -0.649240 0
M  V30 16 C -3.006053 -3.717748 -0.851804 0
M  V30 17 C -4.017136 -3.279973 -1.804119 0
M  V30 18 C -3.859381 -2.769496 -3.055404 0
M  V30 19 C -4.922329 -2.383004 -3.841185 0
M  V30 20 C -6.220692 -2.492964 -3.399180 0
M  V30 21 C -7.406546 -2.106065 -4.151825 0
M  V30 22 O -8.591961 -2.195986 -3.797400 0
M  V30 23 O -7.462196 -1.557381 -5.415659 0
M  V30 24 C -6.441163 -3.003681 -2.137757 0
M  V30 25 C -5.345758 -3.383499 -1.372920 0
M  V30 26 C -0.773061 -3.489066 0.295294 0
M  V30 27 O -0.505572 -4.721769 0.535258 0
M  V30 28 O -0.271627 -2.253687 0.750201 0
M  V30 29 C 3.208094 2.357528 1.854338 0
M  V30 30 C 1.774299 2.599751 1.878524 0
M  V30 31 C 0.995326 2.321613 3.123264 0
M  V30 32 C 1.599008 4.127291 1.630922 0
M  V30 33 H 2.676019 -2.165058 5.229342 0
M  V30 34 H 3.437363 -0.556847 5.553317 0
M  V30 35 H 1.659162 -0.760736 5.601332 0
M  V30 36 H 1.524250 -0.427514 3.390282 0
M  V30 37 H 2.052077 -2.301837 2.177735 0
M  V30 38 H 2.889487 -2.853181 3.696534 0
M  V30 39 H 3.819414 -2.079652 2.433782 0
M  V30 40 H 4.563368 -0.265214 3.650828 0
M  V30 41 H 3.551363 1.032845 4.210506 0
M  V30 42 H 4.957209 1.395423 2.266534 0
M  V30 43 H 4.378918 1.030003 -0.023380 0
M  V30 44 H 5.098460 -0.251001 0.919558 0
M  V30 45 H 1.174591 -2.707835 -1.448034 0
M  V30 46 H 1.157403 -0.993050 -1.978652 0
M  V30 47 H -0.118948 0.230033 0.971303 0
M  V30 48 H -1.699335 -0.151978 0.335652 0
M  V30 49 H -0.513987 0.533157 -1.867052 0
M  V30 50 H -2.053607 -1.126334 -1.479732 0
M  V30 51 H -0.806486 -2.162642 -2.313377 0
M  V30 52 H -3.233840 -4.616427 -0.255774 0
M  V30 53 H -2.845507 -2.686550 -3.401316 0
M  V30 54 H -4.762620 -1.981846 -4.830777 0
M  V30 55 H -7.967995 -0.732047 -5.683434 0
M  V30 56 H -7.442151 -3.112690 -1.736746 0
M  V30 57 H -5.577212 -3.784164 -0.379424 0
M  V30 58 H 3.648980 3.026612 2.676858 0
M  V30 59 H 3.717002 2.773234 0.942135 0
M  V30 60 H 1.239623 2.167924 0.989135 0
M  V30 61 H 0.244164 1.489513 2.952201 0
M  V30 62 H 1.563957 2.204472 4.044157 0
M  V30 63 H 0.283532 3.185196 3.365863 0
M  V30 64 H 0.602541 4.319677 1.147944 0
M  V30 65 H 1.578389 4.676756 2.595794 0
M  V30 66 H 2.410233 4.536155 1.033054 0
M  V30 END ATOM
M  V30 BEGIN BOND
M  V30 1 1 1 2
M  V30 2 1 2 3
M  V30 3 1 2 4
M  V30 4 1 4 5
M  V30 5 1 5 6
M  V30 6 1 6 7
M  V30 7 2 7 8
M  V30 8 1 7 9
M  V30 9 1 9 10
M  V30 10 1 10 11
M  V30 11 1 11 12
M  V30 12 1 12 13
M  V30 13 1 11 14
M  V30 14 1 14 15
M  V30 15 2 15 16
M  V30 16 1 16 17
M  V30 17 2 17 18
M  V30 18 1 18 19
M  V30 19 2 19 20
M  V30 20 1 20 21
M  V30 21 2 21 22
M  V30 22 1 21 23
M  V30 23 1 20 24
M  V30 24 2 24 25
M  V30 25 1 15 26
M  V30 26 2 26 27
M  V30 27 1 26 28
M  V30 28 1 5 29
M  V30 29 1 29 30
M  V30 30 1 30 31
M  V30 31 1 30 32
M  V30 32 1 28 11
M  V30 33 1 25 17
M  V30 34 1 1 33
M  V30 35 1 1 34
M  V30 36 1 1 35
M  V30 37 1 2 36
M  V30 38 1 3 37
M  V30 39 1 3 38
M  V30 40 1 3 39
M  V30 41 1 4 40
M  V30 42 1 4 41
M  V30 43 1 5 42
M  V30 44 1 6 43
M  V30 45 1 6 44
M  V30 46 1 10 45
M  V30 47 1 10 46
M  V30 48 1 12 47
M  V30 49 1 12 48
M  V30 50 1 13 49
M  V30 51 1 14 50
M  V30 52 1 14 51
M  V30 53 1 16 52
M  V30 54 1 18 53
M  V30 55 1 19 54
M  V30 56 1 23 55
M  V30 57 1 24 56
M  V30 58 1 25 57
M  V30 59 1 29 58
M  V30 60 1 29 59
M  V30 61 1 30 60
M  V30 62 1 31 61
M  V30 63 1 31 62
M  V30 64 1 31 63
M  V30 65 1 32 64
M  V30 66 1 32 65
M  V30 67 1 32 66
M  V30 END BOND
M  V30 END CTAB
M  END
>  <Dataset>  (509) 
ChEMBL_Kinases

>  <Ligand_Instance>  (509) 
nan

>  <PDB_ID>  (509) 
nan

>  <Standardized_SMILES>  (509) 
CC(C)CC(CC(=O)OCC1(CO)C/C(=C\c2ccc(C(=O)O)cc2)C(=O)O1)CC(C)C

>  <Name>  (509) 
nan

>  <Pocket>  (509) 
nan

>  <ATP_Site>  (509) 
nan

>  <Peripheral>  (509) 
nan

>  <Num_H_Atoms_ProtBoundConf>  (509) 
nan

>  <Num_Resolved_Atoms>  (509) 
nan

>  <Num_Not_Resolved_Atoms>  (509) 
nan

$$$$
CHEMBL3262938
     RDKit          3D

  0  0  0  0  0  0  0  0  0  0999 V3000
M  V30 BEGIN CTAB
M  V30 COUNTS 66 67 0 0 0
M  V30 BEGIN ATOM
M  V30 1 C 4.609398 -0.467041 4.147964 0
M  V30 2 C 3.297522 -0.695337 3.462967 0
M  V30 3 C 2.823142 -2.089813 3.907175 0
M  V30 4 C 3.397413 -0.773337 1.965529 0
M  V30 5 C 3.935752 0.413410 1.251322 0
M  V30 6 C 3.993717 0.200682 -0.229615 0
M  V30 7 C 2.793462 -0.111219 -0.972838 0
M  V30 8 O 2.188056 -0.238417 -2.063573 0
M  V30 9 O 1.543074 -0.491173 -0.436396 0
M  V30 10 C 0.413199 -0.783069 -1.211490 0
M  V30 11 C -0.794954 -1.192374 -0.349647 0
M  V30 12 C -1.188091 -0.082343 0.596840 0
M  V30 13 O -0.068875 0.237687 1.373396 0
M  V30 14 C -1.960973 -1.555778 -1.234747 0
M  V30 15 C -2.267924 -2.940995 -0.869968 0
M  V30 16 C -3.415690 -3.497173 -1.176698 0
M  V30 17 C -4.559337 -2.945637 -1.882895 0
M  V30 18 C -4.561549 -2.133253 -2.962610 0
M  V30 19 C -5.626209 -1.595986 -3.647701 0
M  V30 20 C -6.887431 -1.949075 -3.145378 0
M  V30 21 C -6.921951 -2.762095 -2.064634 0
M  V30 22 C -8.193205 -3.147496 -1.515221 0
M  V30 23 O -9.200314 -2.670923 -2.117345 0
M  V30 24 O -9.408129 -3.511574 -0.995799 0
M  V30 25 C -5.824252 -3.298754 -1.381709 0
M  V30 26 C -1.090064 -3.409383 -0.165703 0
M  V30 27 O -0.879986 -4.659695 -0.092359 0
M  V30 28 O -0.364590 -2.344624 0.330671 0
M  V30 29 C 3.758308 1.754483 1.787593 0
M  V30 30 C 2.470433 2.410752 2.037424 0
M  V30 31 C 2.854481 3.793359 2.677532 0
M  V30 32 C 1.720868 2.865337 0.798332 0
M  V30 33 H 5.419617 -0.163251 3.432598 0
M  V30 34 H 5.037679 -1.413117 4.597535 0
M  V30 35 H 4.538462 0.235403 5.006328 0
M  V30 36 H 2.496441 -0.034892 3.773428 0
M  V30 37 H 3.555230 -2.869991 3.674620 0
M  V30 38 H 1.877623 -2.384657 3.426243 0
M  V30 39 H 2.626683 -2.119325 4.995671 0
M  V30 40 H 2.382021 -1.002334 1.607198 0
M  V30 41 H 4.001268 -1.694139 1.776170 0
M  V30 42 H 5.096162 0.263441 1.487870 0
M  V30 43 H 4.553140 1.083621 -0.645358 0
M  V30 44 H 4.738439 -0.650098 -0.413117 0
M  V30 45 H 0.675814 -1.623796 -1.897179 0
M  V30 46 H 0.108329 0.087563 -1.810387 0
M  V30 47 H -2.038332 -0.365765 1.219015 0
M  V30 48 H -1.413193 0.842356 0.031174 0
M  V30 49 H -0.303962 0.772538 2.172124 0
M  V30 50 H -2.826034 -0.870800 -1.145791 0
M  V30 51 H -1.545408 -1.559088 -2.289529 0
M  V30 52 H -3.506081 -4.545902 -0.844605 0
M  V30 53 H -3.603267 -1.848737 -3.375331 0
M  V30 54 H -5.523117 -0.958803 -4.493847 0
M  V30 55 H -7.761390 -1.559208 -3.640346 0
M  V30 56 H -9.529612 -4.404024 -0.490273 0
M  V30 57 H -5.900000 -3.943571 -0.518681 0
M  V30 58 H 4.440593 1.896930 2.683839 0
M  V30 59 H 4.302112 2.438336 1.040293 0
M  V30 60 H 1.746326 1.925593 2.683790 0
M  V30 61 H 1.947345 4.191216 3.176347 0
M  V30 62 H 3.618039 3.645832 3.463440 0
M  V30 63 H 3.178823 4.497747 1.918498 0
M  V30 64 H 0.670178 3.090351 1.096552 0
M  V30 65 H 1.812392 2.249006 -0.075063 0
M  V30 66 H 2.099157 3.888113 0.473595 0
M  V30 END ATOM
M  V30 BEGIN BOND
M  V30 1 1 1 2
M  V30 2 1 2 3
M  V30 3 1 2 4
M  V30 4 1 4 5
M  V30 5 1 5 6
M  V30 6 1 6 7
M  V30 7 2 7 8
M  V30 8 1 7 9
M  V30 9 1 9 10
M  V30 10 1 10 11
M  V30 11 1 11 12
M  V30 12 1 12 13
M  V30 13 1 11 14
M  V30 14 1 14 15
M  V30 15 2 15 16
M  V30 16 1 16 17
M  V30 17 2 17 18
M  V30 18 1 18 19
M  V30 19 2 19 20
M  V30 20 1 20 21
M  V30 21 1 21 22
M  V30 22 2 22 23
M  V30 23 1 22 24
M  V30 24 2 21 25
M  V30 25 1 15 26
M  V30 26 2 26 27
M  V30 27 1 26 28
M  V30 28 1 5 29
M  V30 29 1 29 30
M  V30 30 1 30 31
M  V30 31 1 30 32
M  V30 32 1 28 11
M  V30 33 1 25 17
M  V30 34 1 1 33
M  V30 35 1 1 34
M  V30 36 1 1 35
M  V30 37 1 2 36
M  V30 38 1 3 37
M  V30 39 1 3 38
M  V30 40 1 3 39
M  V30 41 1 4 40
M  V30 42 1 4 41
M  V30 43 1 5 42
M  V30 44 1 6 43
M  V30 45 1 6 44
M  V30 46 1 10 45
M  V30 47 1 10 46
M  V30 48 1 12 47
M  V30 49 1 12 48
M  V30 50 1 13 49
M  V30 51 1 14 50
M  V30 52 1 14 51
M  V30 53 1 16 52
M  V30 54 1 18 53
M  V30 55 1 19 54
M  V30 56 1 20 55
M  V30 57 1 24 56
M  V30 58 1 25 57
M  V30 59 1 29 58
M  V30 60 1 29 59
M  V30 61 1 30 60
M  V30 62 1 31 61
M  V30 63 1 31 62
M  V30 64 1 31 63
M  V30 65 1 32 64
M  V30 66 1 32 65
M  V30 67 1 32 66
M  V30 END BOND
M  V30 END CTAB
M  END
>  <Dataset>  (510) 
ChEMBL_Kinases

>  <Ligand_Instance>  (510) 
nan

>  <PDB_ID>  (510) 
nan

>  <Standardized_SMILES>  (510) 
CC(C)CC(CC(=O)OCC1(CO)C/C(=C\c2cccc(C(=O)O)c2)C(=O)O1)CC(C)C

>  <Name>  (510) 
nan

>  <Pocket>  (510) 
nan

>  <ATP_Site>  (510) 
nan

>  <Peripheral>  (510) 
nan

>  <Num_H_Atoms_ProtBoundConf>  (510) 
nan

>  <Num_Resolved_Atoms>  (510) 
nan

>  <Num_Not_Resolved_Atoms>  (510) 
nan

$$$$
CHEMBL3262937
     RDKit          3D

  0  0  0  0  0  0  0  0  0  0999 V3000
M  V30 BEGIN CTAB
M  V30 COUNTS 48 49 0 0 0
M  V30 BEGIN ATOM
M  V30 1 C 0.632157 -4.981460 1.581863 0
M  V30 2 C 0.535490 -3.900227 0.500218 0
M  V30 3 C -0.924594 -3.495628 0.476509 0
M  V30 4 C 0.880449 -4.534272 -0.814641 0
M  V30 5 C 1.420971 -2.805248 0.910039 0
M  V30 6 O 2.191252 -2.522882 1.870942 0
M  V30 7 O 1.609197 -1.642497 0.158064 0
M  V30 8 C 2.486759 -0.642211 0.641585 0
M  V30 9 C 2.615335 0.546963 -0.244166 0
M  V30 10 C 3.106225 0.211328 -1.619143 0
M  V30 11 O 3.095490 1.419791 -2.355827 0
M  V30 12 C 1.352883 1.397069 -0.291754 0
M  V30 13 C 1.330937 1.905441 1.083503 0
M  V30 14 C 0.454830 2.088171 2.049735 0
M  V30 15 C -0.946235 1.738169 1.879434 0
M  V30 16 C -1.838247 2.688892 2.343566 0
M  V30 17 C -3.207664 2.537451 2.285665 0
M  V30 18 C -3.738666 1.381698 1.738426 0
M  V30 19 C -5.149901 1.042610 1.590813 0
M  V30 20 O -5.607947 -0.016363 1.090246 0
M  V30 21 O -6.173011 1.912077 2.015614 0
M  V30 22 C -2.875320 0.416314 1.268073 0
M  V30 23 C -1.514920 0.604081 1.343825 0
M  V30 24 C 2.765259 2.240384 1.261084 0
M  V30 25 O 3.359061 3.008868 2.068775 0
M  V30 26 O 3.519720 1.518930 0.308266 0
M  V30 27 H 1.440003 -5.674698 1.319428 0
M  V30 28 H 0.845662 -4.475942 2.539994 0
M  V30 29 H -0.361199 -5.480028 1.736101 0
M  V30 30 H -1.129475 -2.633392 1.139104 0
M  V30 31 H -1.265516 -3.340229 -0.571711 0
M  V30 32 H -1.583249 -4.320953 0.880284 0
M  V30 33 H 1.919415 -4.339528 -1.138703 0
M  V30 34 H 0.208209 -4.187122 -1.649524 0
M  V30 35 H 0.720816 -5.638568 -0.788935 0
M  V30 36 H 3.463891 -1.035580 0.982770 0
M  V30 37 H 1.998660 -0.273791 1.591866 0
M  V30 38 H 4.148071 -0.180534 -1.569243 0
M  V30 39 H 2.416250 -0.536549 -2.060275 0
M  V30 40 H 2.258119 1.421216 -2.891155 0
M  V30 41 H 0.475692 0.896664 -0.663572 0
M  V30 42 H 1.592791 2.211956 -1.034884 0
M  V30 43 H 0.762379 2.505817 2.998734 0
M  V30 44 H -1.507240 3.637263 2.793525 0
M  V30 45 H -3.940838 3.250624 2.634831 0
M  V30 46 H -7.103351 1.564479 2.285805 0
M  V30 47 H -3.183047 -0.519785 0.823952 0
M  V30 48 H -0.811528 -0.135980 0.995617 0
M  V30 END ATOM
M  V30 BEGIN BOND
M  V30 1 1 1 2
M  V30 2 1 2 3
M  V30 3 1 2 4
M  V30 4 1 2 5
M  V30 5 2 5 6
M  V30 6 1 5 7
M  V30 7 1 7 8
M  V30 8 1 8 9
M  V30 9 1 9 10
M  V30 10 1 10 11
M  V30 11 1 9 12
M  V30 12 1 12 13
M  V30 13 2 13 14
M  V30 14 1 14 15
M  V30 15 2 15 16
M  V30 16 1 16 17
M  V30 17 2 17 18
M  V30 18 1 18 19
M  V30 19 2 19 20
M  V30 20 1 19 21
M  V30 21 1 18 22
M  V30 22 2 22 23
M  V30 23 1 13 24
M  V30 24 2 24 25
M  V30 25 1 24 26
M  V30 26 1 26 9
M  V30 27 1 23 15
M  V30 28 1 1 27
M  V30 29 1 1 28
M  V30 30 1 1 29
M  V30 31 1 3 30
M  V30 32 1 3 31
M  V30 33 1 3 32
M  V30 34 1 4 33
M  V30 35 1 4 34
M  V30 36 1 4 35
M  V30 37 1 8 36
M  V30 38 1 8 37
M  V30 39 1 10 38
M  V30 40 1 10 39
M  V30 41 1 11 40
M  V30 42 1 12 41
M  V30 43 1 12 42
M  V30 44 1 14 43
M  V30 45 1 16 44
M  V30 46 1 17 45
M  V30 47 1 21 46
M  V30 48 1 22 47
M  V30 49 1 23 48
M  V30 END BOND
M  V30 END CTAB
M  END
>  <Dataset>  (511) 
ChEMBL_Kinases

>  <Ligand_Instance>  (511) 
nan

>  <PDB_ID>  (511) 
nan

>  <Standardized_SMILES>  (511) 
CC(C)(C)C(=O)OCC1(CO)C/C(=C\c2ccc(C(=O)O)cc2)C(=O)O1

>  <Name>  (511) 
nan

>  <Pocket>  (511) 
nan

>  <ATP_Site>  (511) 
nan

>  <Peripheral>  (511) 
nan

>  <Num_H_Atoms_ProtBoundConf>  (511) 
nan

>  <Num_Resolved_Atoms>  (511) 
nan

>  <Num_Not_Resolved_Atoms>  (511) 
nan

$$$$
CHEMBL3262936
     RDKit          3D

  0  0  0  0  0  0  0  0  0  0999 V3000
M  V30 BEGIN CTAB
M  V30 COUNTS 48 49 0 0 0
M  V30 BEGIN ATOM
M  V30 1 C 2.299139 -3.986945 3.381212 0
M  V30 2 C 1.565788 -3.306037 2.250207 0
M  V30 3 C 0.202828 -2.875801 2.733538 0
M  V30 4 C 1.363646 -4.369474 1.167532 0
M  V30 5 C 2.361857 -2.178856 1.718147 0
M  V30 6 O 3.459457 -2.106144 2.353038 0
M  V30 7 O 1.919946 -1.365403 0.684972 0
M  V30 8 C 2.795725 -0.331646 0.290844 0
M  V30 9 C 2.265770 0.517890 -0.813590 0
M  V30 10 C 3.234904 1.636962 -1.112100 0
M  V30 11 O 2.758149 2.483069 -2.114917 0
M  V30 12 C 0.882765 1.093343 -0.487569 0
M  V30 13 C 0.041888 -0.083842 -0.779687 0
M  V30 14 C -1.178725 -0.267477 -0.336280 0
M  V30 15 C -1.989320 0.579753 0.513466 0
M  V30 16 C -1.750052 1.257671 1.683028 0
M  V30 17 C -2.659330 2.050325 2.339815 0
M  V30 18 C -3.925180 2.190727 1.794946 0
M  V30 19 C -4.211078 1.533223 0.629342 0
M  V30 20 C -5.572879 1.759293 0.157465 0
M  V30 21 O -6.385698 2.472123 0.750662 0
M  V30 22 O -5.916154 1.105260 -1.035675 0
M  V30 23 C -3.288775 0.761037 0.011732 0
M  V30 24 C 0.829197 -0.973536 -1.645170 0
M  V30 25 O 0.475840 -2.131532 -2.034516 0
M  V30 26 O 2.020058 -0.292570 -1.943037 0
M  V30 27 H 2.090800 -5.080701 3.360601 0
M  V30 28 H 3.393161 -3.863836 3.329984 0
M  V30 29 H 1.952546 -3.629746 4.374114 0
M  V30 30 H -0.134679 -3.564575 3.551571 0
M  V30 31 H -0.573635 -2.983854 1.941980 0
M  V30 32 H 0.173318 -1.834851 3.101386 0
M  V30 33 H 2.326362 -4.884919 0.971570 0
M  V30 34 H 0.991083 -3.893399 0.255125 0
M  V30 35 H 0.581516 -5.051819 1.534321 0
M  V30 36 H 2.924253 0.315114 1.179698 0
M  V30 37 H 3.752138 -0.759906 -0.053670 0
M  V30 38 H 4.137494 1.151857 -1.537356 0
M  V30 39 H 3.538916 2.150816 -0.200784 0
M  V30 40 H 2.193112 1.883000 -2.698552 0
M  V30 41 H 0.696165 1.921015 -1.205033 0
M  V30 42 H 0.930947 1.408901 0.550719 0
M  V30 43 H -1.625410 -1.217474 -0.679463 0
M  V30 44 H -0.757595 1.102577 2.072159 0
M  V30 45 H -2.302278 2.507900 3.247691 0
M  V30 46 H -4.591686 2.827283 2.360877 0
M  V30 47 H -6.899306 0.862388 -1.215261 0
M  V30 48 H -3.652960 0.295606 -0.904357 0
M  V30 END ATOM
M  V30 BEGIN BOND
M  V30 1 1 1 2
M  V30 2 1 2 3
M  V30 3 1 2 4
M  V30 4 1 2 5
M  V30 5 2 5 6
M  V30 6 1 5 7
M  V30 7 1 7 8
M  V30 8 1 8 9
M  V30 9 1 9 10
M  V30 10 1 10 11
M  V30 11 1 9 12
M  V30 12 1 12 13
M  V30 13 2 13 14
M  V30 14 1 14 15
M  V30 15 2 15 16
M  V30 16 1 16 17
M  V30 17 2 17 18
M  V30 18 1 18 19
M  V30 19 1 19 20
M  V30 20 2 20 21
M  V30 21 1 20 22
M  V30 22 2 19 23
M  V30 23 1 13 24
M  V30 24 2 24 25
M  V30 25 1 24 26
M  V30 26 1 26 9
M  V30 27 1 23 15
M  V30 28 1 1 27
M  V30 29 1 1 28
M  V30 30 1 1 29
M  V30 31 1 3 30
M  V30 32 1 3 31
M  V30 33 1 3 32
M  V30 34 1 4 33
M  V30 35 1 4 34
M  V30 36 1 4 35
M  V30 37 1 8 36
M  V30 38 1 8 37
M  V30 39 1 10 38
M  V30 40 1 10 39
M  V30 41 1 11 40
M  V30 42 1 12 41
M  V30 43 1 12 42
M  V30 44 1 14 43
M  V30 45 1 16 44
M  V30 46 1 17 45
M  V30 47 1 18 46
M  V30 48 1 22 47
M  V30 49 1 23 48
M  V30 END BOND
M  V30 END CTAB
M  END
>  <Dataset>  (512) 
ChEMBL_Kinases

>  <Ligand_Instance>  (512) 
nan

>  <PDB_ID>  (512) 
nan

>  <Standardized_SMILES>  (512) 
CC(C)(C)C(=O)OCC1(CO)C/C(=C\c2cccc(C(=O)O)c2)C(=O)O1

>  <Name>  (512) 
nan

>  <Pocket>  (512) 
nan

>  <ATP_Site>  (512) 
nan

>  <Peripheral>  (512) 
nan

>  <Num_H_Atoms_ProtBoundConf>  (512) 
nan

>  <Num_Resolved_Atoms>  (512) 
nan

>  <Num_Not_Resolved_Atoms>  (512) 
nan

$$$$
CHEMBL3262935
     RDKit          3D

  0  0  0  0  0  0  0  0  0  0999 V3000
M  V30 BEGIN CTAB
M  V30 COUNTS 60 61 0 0 0
M  V30 BEGIN ATOM
M  V30 1 C -3.697314 0.596305 1.588309 0
M  V30 2 C -2.901664 -0.454759 0.843832 0
M  V30 3 C -2.528956 -1.499352 1.885858 0
M  V30 4 C -3.676042 -1.116786 -0.237309 0
M  V30 5 C -2.901146 -2.156441 -0.974186 0
M  V30 6 C -1.674187 -1.712391 -1.636905 0
M  V30 7 O -0.579888 -2.163665 -1.192792 0
M  V30 8 O -1.088482 -0.952607 -2.621884 0
M  V30 9 C 0.331615 -0.977422 -2.753983 0
M  V30 10 C 0.703169 -0.030680 -3.832882 0
M  V30 11 C 0.179201 -0.339720 -5.191188 0
M  V30 12 O 0.584936 -1.566416 -5.641813 0
M  V30 13 C 2.205191 0.219357 -3.790055 0
M  V30 14 C 2.302474 0.773007 -2.391986 0
M  V30 15 C 3.180254 0.744008 -1.428004 0
M  V30 16 C 3.164531 1.329314 -0.101881 0
M  V30 17 C 2.925837 2.586480 0.342807 0
M  V30 18 C 2.910809 2.934871 1.670636 0
M  V30 19 C 3.151774 1.950491 2.586703 0
M  V30 20 C 3.137428 2.277126 4.027332 0
M  V30 21 O 3.360348 1.337339 4.869767 0
M  V30 22 O 2.935405 3.394046 4.797148 0
M  V30 23 C 3.404540 0.649077 2.223743 0
M  V30 24 C 3.405145 0.370280 0.892983 0
M  V30 25 C 1.000799 1.442376 -2.199278 0
M  V30 26 O 0.571081 2.075028 -1.169730 0
M  V30 27 O 0.261012 1.264818 -3.384492 0
M  V30 28 C -4.467553 -0.205886 -1.135093 0
M  V30 29 C -3.695621 0.804583 -1.892388 0
M  V30 30 C -5.231496 -1.086861 -2.121882 0
M  V30 31 H -3.553230 1.581176 1.094979 0
M  V30 32 H -3.365631 0.718186 2.639406 0
M  V30 33 H -4.779325 0.367998 1.655262 0
M  V30 34 H -1.967945 0.003496 0.442503 0
M  V30 35 H -3.210156 -2.382881 1.839941 0
M  V30 36 H -1.453013 -1.774149 1.808063 0
M  V30 37 H -2.628319 -1.112462 2.932191 0
M  V30 38 H -4.487310 -1.700355 0.313498 0
M  V30 39 H -2.705972 -3.043765 -0.299136 0
M  V30 40 H -3.537956 -2.623981 -1.785997 0
M  V30 41 H 0.745381 -0.581723 -1.801874 0
M  V30 42 H 0.723869 -2.000086 -2.888368 0
M  V30 43 H -0.943503 -0.290349 -5.113639 0
M  V30 44 H 0.503739 0.460026 -5.888064 0
M  V30 45 H 0.945911 -2.183871 -4.971098 0
M  V30 46 H 2.785212 -0.684568 -3.946503 0
M  V30 47 H 2.469074 1.006852 -4.514369 0
M  V30 48 H 4.078997 0.163646 -1.702676 0
M  V30 49 H 2.765022 3.315678 -0.419001 0
M  V30 50 H 2.714520 3.951210 1.911503 0
M  V30 51 H 2.134296 3.443259 5.419913 0
M  V30 52 H 3.590903 -0.103244 2.981185 0
M  V30 53 H 3.615664 -0.693467 0.670787 0
M  V30 54 H -5.269217 0.312943 -0.566465 0
M  V30 55 H -4.215250 1.779698 -2.020520 0
M  V30 56 H -3.544069 0.437648 -2.934177 0
M  V30 57 H -2.680811 1.029909 -1.520608 0
M  V30 58 H -4.637716 -1.348658 -3.012694 0
M  V30 59 H -6.128951 -0.535492 -2.498062 0
M  V30 60 H -5.648926 -1.989862 -1.611375 0
M  V30 END ATOM
M  V30 BEGIN BOND
M  V30 1 1 1 2
M  V30 2 1 2 3
M  V30 3 1 2 4
M  V30 4 1 4 5
M  V30 5 1 5 6
M  V30 6 2 6 7
M  V30 7 1 6 8
M  V30 8 1 8 9
M  V30 9 1 9 10
M  V30 10 1 10 11
M  V30 11 1 11 12
M  V30 12 1 10 13
M  V30 13 1 13 14
M  V30 14 2 14 15
M  V30 15 1 15 16
M  V30 16 2 16 17
M  V30 17 1 17 18
M  V30 18 2 18 19
M  V30 19 1 19 20
M  V30 20 2 20 21
M  V30 21 1 20 22
M  V30 22 1 19 23
M  V30 23 2 23 24
M  V30 24 1 14 25
M  V30 25 2 25 26
M  V30 26 1 25 27
M  V30 27 1 4 28
M  V30 28 1 28 29
M  V30 29 1 28 30
M  V30 30 1 27 10
M  V30 31 1 24 16
M  V30 32 1 1 31
M  V30 33 1 1 32
M  V30 34 1 1 33
M  V30 35 1 2 34
M  V30 36 1 3 35
M  V30 37 1 3 36
M  V30 38 1 3 37
M  V30 39 1 4 38
M  V30 40 1 5 39
M  V30 41 1 5 40
M  V30 42 1 9 41
M  V30 43 1 9 42
M  V30 44 1 11 43
M  V30 45 1 11 44
M  V30 46 1 12 45
M  V30 47 1 13 46
M  V30 48 1 13 47
M  V30 49 1 15 48
M  V30 50 1 17 49
M  V30 51 1 18 50
M  V30 52 1 22 51
M  V30 53 1 23 52
M  V30 54 1 24 53
M  V30 55 1 28 54
M  V30 56 1 29 55
M  V30 57 1 29 56
M  V30 58 1 29 57
M  V30 59 1 30 58
M  V30 60 1 30 59
M  V30 61 1 30 60
M  V30 END BOND
M  V30 END CTAB
M  END
>  <Dataset>  (513) 
ChEMBL_Kinases

>  <Ligand_Instance>  (513) 
nan

>  <PDB_ID>  (513) 
nan

>  <Standardized_SMILES>  (513) 
CC(C)C(CC(=O)OCC1(CO)C/C(=C/c2ccc(C(=O)O)cc2)C(=O)O1)C(C)C

>  <Name>  (513) 
nan

>  <Pocket>  (513) 
nan

>  <ATP_Site>  (513) 
nan

>  <Peripheral>  (513) 
nan

>  <Num_H_Atoms_ProtBoundConf>  (513) 
nan

>  <Num_Resolved_Atoms>  (513) 
nan

>  <Num_Not_Resolved_Atoms>  (513) 
nan

$$$$
CHEMBL3262934
     RDKit          3D

  0  0  0  0  0  0  0  0  0  0999 V3000
M  V30 BEGIN CTAB
M  V30 COUNTS 60 61 0 0 0
M  V30 BEGIN ATOM
M  V30 1 C 0.961929 -4.023001 3.072362 0
M  V30 2 C 1.893187 -2.876746 2.990585 0
M  V30 3 C 3.280379 -3.321564 3.418686 0
M  V30 4 C 1.937358 -2.087584 1.691317 0
M  V30 5 C 2.957125 -0.980444 2.005912 0
M  V30 6 C 3.120382 -0.026898 0.915712 0
M  V30 7 O 3.479061 0.670177 -0.055783 0
M  V30 8 O 2.004225 0.773914 0.906553 0
M  V30 9 C 1.826189 1.814382 -0.024483 0
M  V30 10 C 0.461505 2.457350 0.229976 0
M  V30 11 C 0.292427 2.961469 1.620098 0
M  V30 12 O 1.266835 3.939943 1.870248 0
M  V30 13 C -0.637764 1.490729 -0.210589 0
M  V30 14 C -1.619971 2.439435 -0.782019 0
M  V30 15 C -2.790796 2.074516 -1.319645 0
M  V30 16 C -3.366528 0.753301 -1.479618 0
M  V30 17 C -2.702504 -0.353129 -1.983685 0
M  V30 18 C -3.272133 -1.598488 -2.106998 0
M  V30 19 C -4.573491 -1.810141 -1.721880 0
M  V30 20 C -5.142549 -3.136780 -1.869204 0
M  V30 21 O -4.430255 -4.082396 -2.347519 0
M  V30 22 O -6.421302 -3.536284 -1.543969 0
M  V30 23 C -5.279077 -0.740978 -1.212977 0
M  V30 24 C -4.680880 0.496738 -1.101284 0
M  V30 25 C -1.078555 3.793437 -0.661047 0
M  V30 26 O -1.921924 4.749523 -0.559497 0
M  V30 27 O 0.302980 3.503261 -0.706666 0
M  V30 28 C 2.361231 -2.919766 0.509804 0
M  V30 29 C 2.408552 -2.047176 -0.742972 0
M  V30 30 C 1.360834 -4.001340 0.191604 0
M  V30 31 H -0.115008 -3.771430 2.870948 0
M  V30 32 H 1.318509 -4.930835 2.567269 0
M  V30 33 H 0.891663 -4.383514 4.172890 0
M  V30 34 H 1.556218 -2.144381 3.796456 0
M  V30 35 H 3.134721 -4.138730 4.179050 0
M  V30 36 H 3.890408 -3.740750 2.621732 0
M  V30 37 H 3.755493 -2.499224 4.006641 0
M  V30 38 H 0.935399 -1.685310 1.499367 0
M  V30 39 H 3.946612 -1.484305 2.263504 0
M  V30 40 H 2.688159 -0.469112 2.946965 0
M  V30 41 H 1.897243 1.491753 -1.078546 0
M  V30 42 H 2.580330 2.594616 0.191330 0
M  V30 43 H -0.698768 3.499100 1.655599 0
M  V30 44 H 0.382304 2.182223 2.391081 0
M  V30 45 H 1.407763 4.119512 2.826907 0
M  V30 46 H -0.169583 0.814569 -0.935324 0
M  V30 47 H -1.048218 0.930614 0.655807 0
M  V30 48 H -3.476225 2.830310 -1.723593 0
M  V30 49 H -1.692166 -0.272004 -2.314474 0
M  V30 50 H -2.689826 -2.440719 -2.517838 0
M  V30 51 H -6.734441 -4.510228 -1.571749 0
M  V30 52 H -6.310619 -0.937150 -0.916471 0
M  V30 53 H -5.289036 1.310348 -0.685371 0
M  V30 54 H 3.376084 -3.372566 0.640411 0
M  V30 55 H 3.430877 -1.757512 -0.993389 0
M  V30 56 H 1.638114 -1.292537 -0.722187 0
M  V30 57 H 2.103996 -2.739164 -1.600992 0
M  V30 58 H 1.111435 -4.005259 -0.934501 0
M  V30 59 H 1.761324 -5.029005 0.330859 0
M  V30 60 H 0.377443 -3.889733 0.649464 0
M  V30 END ATOM
M  V30 BEGIN BOND
M  V30 1 1 1 2
M  V30 2 1 2 3
M  V30 3 1 2 4
M  V30 4 1 4 5
M  V30 5 1 5 6
M  V30 6 2 6 7
M  V30 7 1 6 8
M  V30 8 1 8 9
M  V30 9 1 9 10
M  V30 10 1 10 11
M  V30 11 1 11 12
M  V30 12 1 10 13
M  V30 13 1 13 14
M  V30 14 2 14 15
M  V30 15 1 15 16
M  V30 16 2 16 17
M  V30 17 1 17 18
M  V30 18 2 18 19
M  V30 19 1 19 20
M  V30 20 2 20 21
M  V30 21 1 20 22
M  V30 22 1 19 23
M  V30 23 2 23 24
M  V30 24 1 14 25
M  V30 25 2 25 26
M  V30 26 1 25 27
M  V30 27 1 4 28
M  V30 28 1 28 29
M  V30 29 1 28 30
M  V30 30 1 27 10
M  V30 31 1 24 16
M  V30 32 1 1 31
M  V30 33 1 1 32
M  V30 34 1 1 33
M  V30 35 1 2 34
M  V30 36 1 3 35
M  V30 37 1 3 36
M  V30 38 1 3 37
M  V30 39 1 4 38
M  V30 40 1 5 39
M  V30 41 1 5 40
M  V30 42 1 9 41
M  V30 43 1 9 42
M  V30 44 1 11 43
M  V30 45 1 11 44
M  V30 46 1 12 45
M  V30 47 1 13 46
M  V30 48 1 13 47
M  V30 49 1 15 48
M  V30 50 1 17 49
M  V30 51 1 18 50
M  V30 52 1 22 51
M  V30 53 1 23 52
M  V30 54 1 24 53
M  V30 55 1 28 54
M  V30 56 1 29 55
M  V30 57 1 29 56
M  V30 58 1 29 57
M  V30 59 1 30 58
M  V30 60 1 30 59
M  V30 61 1 30 60
M  V30 END BOND
M  V30 END CTAB
M  END
>  <Dataset>  (514) 
ChEMBL_Kinases

>  <Ligand_Instance>  (514) 
nan

>  <PDB_ID>  (514) 
nan

>  <Standardized_SMILES>  (514) 
CC(C)C(CC(=O)OCC1(CO)C/C(=C\c2ccc(C(=O)O)cc2)C(=O)O1)C(C)C

>  <Name>  (514) 
nan

>  <Pocket>  (514) 
nan

>  <ATP_Site>  (514) 
nan

>  <Peripheral>  (514) 
nan

>  <Num_H_Atoms_ProtBoundConf>  (514) 
nan

>  <Num_Resolved_Atoms>  (514) 
nan

>  <Num_Not_Resolved_Atoms>  (514) 
nan

$$$$
CHEMBL3262572
     RDKit          3D

  0  0  0  0  0  0  0  0  0  0999 V3000
M  V30 BEGIN CTAB
M  V30 COUNTS 32 34 0 0 0
M  V30 BEGIN ATOM
M  V30 1 C -2.041381 -2.406787 4.033715 0
M  V30 2 O -1.179708 -3.406099 3.557749 0
M  V30 3 C -0.383416 -3.227713 2.440391 0
M  V30 4 C 0.430934 -4.300774 2.068550 0
M  V30 5 C 1.261151 -4.216675 0.965364 0
M  V30 6 C 1.314343 -3.063481 0.189545 0
M  V30 7 C 0.489863 -2.040261 0.604674 0
M  V30 8 C 0.553270 -0.819996 -0.230254 0
M  V30 9 C 0.807553 -0.970854 -1.585233 0
M  V30 10 C 0.876506 0.163161 -2.405101 0
M  V30 11 C 0.679416 1.372039 -1.775104 0
M  V30 12 N 0.726066 2.519709 -2.478459 0
M  V30 13 C 0.534844 3.731190 -1.884107 0
M  V30 14 N 0.290622 3.830746 -0.564578 0
M  V30 15 C 0.223336 2.726035 0.236444 0
M  V30 16 N -0.031477 2.778607 1.634104 0
M  V30 17 C 0.426117 1.540695 -0.433835 0
M  V30 18 C 0.359244 0.402388 0.376735 0
M  V30 19 C -0.360016 -2.048934 1.686639 0
M  V30 20 H -1.457109 -1.657215 4.635661 0
M  V30 21 H -2.810523 -2.813968 4.724989 0
M  V30 22 H -2.505498 -1.841719 3.208081 0
M  V30 23 H 0.409702 -5.215511 2.657778 0
M  V30 24 H 1.866585 -5.082130 0.730831 0
M  V30 25 H 1.959099 -2.988590 -0.672363 0
M  V30 26 H 0.961201 -1.905724 -2.079475 0
M  V30 27 H 1.067069 0.154770 -3.458935 0
M  V30 28 H 0.574659 4.649431 -2.459391 0
M  V30 29 H 0.555383 2.832222 2.494328 0
M  V30 30 H -1.078016 2.754328 1.774592 0
M  V30 31 H 0.166570 0.438414 1.432997 0
M  V30 32 H -0.988505 -1.231601 1.981043 0
M  V30 END ATOM
M  V30 BEGIN BOND
M  V30 1 1 1 2
M  V30 2 1 2 3
M  V30 3 2 3 4
M  V30 4 1 4 5
M  V30 5 2 5 6
M  V30 6 1 6 7
M  V30 7 1 7 8
M  V30 8 2 8 9
M  V30 9 1 9 10
M  V30 10 2 10 11
M  V30 11 1 11 12
M  V30 12 2 12 13
M  V30 13 1 13 14
M  V30 14 2 14 15
M  V30 15 1 15 16
M  V30 16 1 15 17
M  V30 17 2 17 18
M  V30 18 2 7 19
M  V30 19 1 19 3
M  V30 20 1 18 8
M  V30 21 1 17 11
M  V30 22 1 1 20
M  V30 23 1 1 21
M  V30 24 1 1 22
M  V30 25 1 4 23
M  V30 26 1 5 24
M  V30 27 1 6 25
M  V30 28 1 9 26
M  V30 29 1 10 27
M  V30 30 1 13 28
M  V30 31 1 16 29
M  V30 32 1 16 30
M  V30 33 1 18 31
M  V30 34 1 19 32
M  V30 END BOND
M  V30 END CTAB
M  END
>  <Dataset>  (515) 
ChEMBL_Kinases

>  <Ligand_Instance>  (515) 
nan

>  <PDB_ID>  (515) 
nan

>  <Standardized_SMILES>  (515) 
COc1cccc(-c2ccc3ncnc(N)c3c2)c1

>  <Name>  (515) 
nan

>  <Pocket>  (515) 
nan

>  <ATP_Site>  (515) 
nan

>  <Peripheral>  (515) 
nan

>  <Num_H_Atoms_ProtBoundConf>  (515) 
nan

>  <Num_Resolved_Atoms>  (515) 
nan

>  <Num_Not_Resolved_Atoms>  (515) 
nan

$$$$
CHEMBL3262573
     RDKit          3D

  0  0  0  0  0  0  0  0  0  0999 V3000
M  V30 BEGIN CTAB
M  V30 COUNTS 32 34 0 0 0
M  V30 BEGIN ATOM
M  V30 1 C -2.368694 -4.671441 4.117254 0
M  V30 2 O -1.067315 -4.158408 3.899721 0
M  V30 3 C -0.911344 -3.224398 2.883653 0
M  V30 4 C 0.412015 -2.788657 2.760281 0
M  V30 5 C 0.789826 -1.854508 1.806298 0
M  V30 6 C -0.172518 -1.344155 0.957283 0
M  V30 7 C 0.068994 -0.358499 -0.093899 0
M  V30 8 C -0.671776 -0.339338 -1.254356 0
M  V30 9 C -0.408881 0.621124 -2.236308 0
M  V30 10 C 0.617337 1.535590 -1.984846 0
M  V30 11 N 0.898798 2.470231 -2.901761 0
M  V30 12 C 1.865940 3.396430 -2.757684 0
M  V30 13 N 2.595616 3.373898 -1.609073 0
M  V30 14 C 2.315813 2.437544 -0.687220 0
M  V30 15 N 3.096558 2.439485 0.503722 0
M  V30 16 C 1.342205 1.489973 -0.810701 0
M  V30 17 C 1.079832 0.544944 0.149945 0
M  V30 18 C -1.480345 -1.772443 1.076469 0
M  V30 19 C -1.856286 -2.701248 2.025024 0
M  V30 20 H -2.806706 -4.929799 3.122619 0
M  V30 21 H -2.994281 -3.843587 4.545436 0
M  V30 22 H -2.371199 -5.573346 4.759268 0
M  V30 23 H 1.257716 -3.121580 3.375105 0
M  V30 24 H 1.794426 -1.499436 1.684569 0
M  V30 25 H -1.462735 -1.074484 -1.404224 0
M  V30 26 H -0.992572 0.632139 -3.144357 0
M  V30 27 H 2.080195 4.144830 -3.509668 0
M  V30 28 H 4.002854 2.486240 0.995743 0
M  V30 29 H 2.528959 2.350333 1.396102 0
M  V30 30 H 1.668007 0.527186 1.076545 0
M  V30 31 H -2.306226 -1.440214 0.468214 0
M  V30 32 H -2.846327 -3.098704 2.198220 0
M  V30 END ATOM
M  V30 BEGIN BOND
M  V30 1 1 1 2
M  V30 2 1 2 3
M  V30 3 2 3 4
M  V30 4 1 4 5
M  V30 5 2 5 6
M  V30 6 1 6 7
M  V30 7 2 7 8
M  V30 8 1 8 9
M  V30 9 2 9 10
M  V30 10 1 10 11
M  V30 11 2 11 12
M  V30 12 1 12 13
M  V30 13 2 13 14
M  V30 14 1 14 15
M  V30 15 1 14 16
M  V30 16 2 16 17
M  V30 17 1 6 18
M  V30 18 2 18 19
M  V30 19 1 19 3
M  V30 20 1 17 7
M  V30 21 1 16 10
M  V30 22 1 1 20
M  V30 23 1 1 21
M  V30 24 1 1 22
M  V30 25 1 4 23
M  V30 26 1 5 24
M  V30 27 1 8 25
M  V30 28 1 9 26
M  V30 29 1 12 27
M  V30 30 1 15 28
M  V30 31 1 15 29
M  V30 32 1 17 30
M  V30 33 1 18 31
M  V30 34 1 19 32
M  V30 END BOND
M  V30 END CTAB
M  END
>  <Dataset>  (516) 
ChEMBL_Kinases

>  <Ligand_Instance>  (516) 
nan

>  <PDB_ID>  (516) 
nan

>  <Standardized_SMILES>  (516) 
COc1ccc(-c2ccc3ncnc(N)c3c2)cc1

>  <Name>  (516) 
nan

>  <Pocket>  (516) 
nan

>  <ATP_Site>  (516) 
nan

>  <Peripheral>  (516) 
nan

>  <Num_H_Atoms_ProtBoundConf>  (516) 
nan

>  <Num_Resolved_Atoms>  (516) 
nan

>  <Num_Not_Resolved_Atoms>  (516) 
nan

$$$$
CHEMBL3262574
     RDKit          3D

  0  0  0  0  0  0  0  0  0  0999 V3000
M  V30 BEGIN CTAB
M  V30 COUNTS 31 33 0 0 0
M  V30 BEGIN ATOM
M  V30 1 C -3.173034 -3.760194 2.237843 0
M  V30 2 C -1.771785 -3.210127 2.181560 0
M  V30 3 C -0.808588 -3.641771 3.068627 0
M  V30 4 C 0.475160 -3.159168 3.051020 0
M  V30 5 C 0.844012 -2.193894 2.108450 0
M  V30 6 C -0.110270 -1.742093 1.202069 0
M  V30 7 C 0.128472 -0.732314 0.161786 0
M  V30 8 C -0.513349 -0.706592 -1.069936 0
M  V30 9 C -0.182621 0.316889 -1.962263 0
M  V30 10 C 0.756400 1.274402 -1.625286 0
M  V30 11 N 1.092896 2.264113 -2.458065 0
M  V30 12 C 1.994088 3.223718 -2.195510 0
M  V30 13 N 2.608079 3.180969 -0.990620 0
M  V30 14 C 2.345246 2.226491 -0.072693 0
M  V30 15 N 2.999507 2.206374 1.179566 0
M  V30 16 C 1.404254 1.255551 -0.392231 0
M  V30 17 C 1.075138 0.244983 0.483906 0
M  V30 18 C -1.411427 -2.254219 1.245649 0
M  V30 19 H -3.810771 -2.826736 2.266453 0
M  V30 20 H -3.414209 -4.382395 1.364983 0
M  V30 21 H -3.342854 -4.235429 3.218653 0
M  V30 22 H -1.049288 -4.401903 3.829649 0
M  V30 23 H 1.280352 -3.448494 3.712334 0
M  V30 24 H 1.815970 -1.725185 1.979775 0
M  V30 25 H -1.231267 -1.477321 -1.271336 0
M  V30 26 H -0.686302 0.339874 -2.931400 0
M  V30 27 H 2.253381 4.020081 -2.886018 0
M  V30 28 H 3.936748 1.991750 1.629685 0
M  V30 29 H 2.246576 2.521215 1.841476 0
M  V30 30 H 1.589631 0.248077 1.436868 0
M  V30 31 H -2.185505 -1.940966 0.570471 0
M  V30 END ATOM
M  V30 BEGIN BOND
M  V30 1 1 1 2
M  V30 2 2 2 3
M  V30 3 1 3 4
M  V30 4 2 4 5
M  V30 5 1 5 6
M  V30 6 1 6 7
M  V30 7 2 7 8
M  V30 8 1 8 9
M  V30 9 2 9 10
M  V30 10 1 10 11
M  V30 11 2 11 12
M  V30 12 1 12 13
M  V30 13 2 13 14
M  V30 14 1 14 15
M  V30 15 1 14 16
M  V30 16 2 16 17
M  V30 17 2 6 18
M  V30 18 1 18 2
M  V30 19 1 17 7
M  V30 20 1 16 10
M  V30 21 1 1 19
M  V30 22 1 1 20
M  V30 23 1 1 21
M  V30 24 1 3 22
M  V30 25 1 4 23
M  V30 26 1 5 24
M  V30 27 1 8 25
M  V30 28 1 9 26
M  V30 29 1 12 27
M  V30 30 1 15 28
M  V30 31 1 15 29
M  V30 32 1 17 30
M  V30 33 1 18 31
M  V30 END BOND
M  V30 END CTAB
M  END
>  <Dataset>  (517) 
ChEMBL_Kinases

>  <Ligand_Instance>  (517) 
nan

>  <PDB_ID>  (517) 
nan

>  <Standardized_SMILES>  (517) 
Cc1cccc(-c2ccc3ncnc(N)c3c2)c1

>  <Name>  (517) 
nan

>  <Pocket>  (517) 
nan

>  <ATP_Site>  (517) 
nan

>  <Peripheral>  (517) 
nan

>  <Num_H_Atoms_ProtBoundConf>  (517) 
nan

>  <Num_Resolved_Atoms>  (517) 
nan

>  <Num_Not_Resolved_Atoms>  (517) 
nan

$$$$
CHEMBL3262575
     RDKit          3D

  0  0  0  0  0  0  0  0  0  0999 V3000
M  V30 BEGIN CTAB
M  V30 COUNTS 29 31 0 0 0
M  V30 BEGIN ATOM
M  V30 1 N -1.092200 -5.742816 2.581486 0
M  V30 2 C -0.629720 -4.712650 2.766766 0
M  V30 3 C -0.035599 -3.419739 2.982831 0
M  V30 4 C 0.442984 -3.060293 4.245680 0
M  V30 5 C 1.016402 -1.849211 4.511539 0
M  V30 6 C 1.107330 -0.957911 3.436516 0
M  V30 7 C 0.642163 -1.288554 2.178784 0
M  V30 8 C 0.744567 -0.348813 1.062330 0
M  V30 9 C 1.848904 0.491528 1.105193 0
M  V30 10 C 2.014760 1.406058 0.084829 0
M  V30 11 C 1.110236 1.487818 -0.953108 0
M  V30 12 N 1.191199 2.358090 -2.002859 0
M  V30 13 C 0.256551 2.363539 -2.971416 0
M  V30 14 N -0.821649 1.524401 -2.988197 0
M  V30 15 C -0.974937 0.622427 -1.971627 0
M  V30 16 N -2.062570 -0.279414 -1.916852 0
M  V30 17 C 0.009240 0.657396 -1.004936 0
M  V30 18 C -0.161612 -0.266723 0.022698 0
M  V30 19 C 0.066231 -2.522660 1.939888 0
M  V30 20 H 0.332466 -3.805067 5.010549 0
M  V30 21 H 1.382785 -1.589836 5.502378 0
M  V30 22 H 1.563196 0.014499 3.634431 0
M  V30 23 H 2.601816 0.490386 1.881982 0
M  V30 24 H 2.825662 2.121798 -0.012442 0
M  V30 25 H 0.402066 3.097086 -3.776174 0
M  V30 26 H -2.213922 -0.894734 -2.768007 0
M  V30 27 H -2.595746 -0.220454 -1.011311 0
M  V30 28 H -0.963209 -0.984281 0.132407 0
M  V30 29 H -0.284499 -2.744271 0.945336 0
M  V30 END ATOM
M  V30 BEGIN BOND
M  V30 1 3 1 2
M  V30 2 1 2 3
M  V30 3 2 3 4
M  V30 4 1 4 5
M  V30 5 2 5 6
M  V30 6 1 6 7
M  V30 7 1 7 8
M  V30 8 2 8 9
M  V30 9 1 9 10
M  V30 10 2 10 11
M  V30 11 1 11 12
M  V30 12 2 12 13
M  V30 13 1 13 14
M  V30 14 2 14 15
M  V30 15 1 15 16
M  V30 16 1 15 17
M  V30 17 2 17 18
M  V30 18 2 7 19
M  V30 19 1 19 3
M  V30 20 1 18 8
M  V30 21 1 17 11
M  V30 22 1 4 20
M  V30 23 1 5 21
M  V30 24 1 6 22
M  V30 25 1 9 23
M  V30 26 1 10 24
M  V30 27 1 13 25
M  V30 28 1 16 26
M  V30 29 1 16 27
M  V30 30 1 18 28
M  V30 31 1 19 29
M  V30 END BOND
M  V30 END CTAB
M  END
>  <Dataset>  (518) 
ChEMBL_Kinases

>  <Ligand_Instance>  (518) 
nan

>  <PDB_ID>  (518) 
nan

>  <Standardized_SMILES>  (518) 
N#Cc1cccc(-c2ccc3ncnc(N)c3c2)c1

>  <Name>  (518) 
nan

>  <Pocket>  (518) 
nan

>  <ATP_Site>  (518) 
nan

>  <Peripheral>  (518) 
nan

>  <Num_H_Atoms_ProtBoundConf>  (518) 
nan

>  <Num_Resolved_Atoms>  (518) 
nan

>  <Num_Not_Resolved_Atoms>  (518) 
nan

$$$$
CHEMBL3262576
     RDKit          3D

  0  0  0  0  0  0  0  0  0  0999 V3000
M  V30 BEGIN CTAB
M  V30 COUNTS 29 31 0 0 0
M  V30 BEGIN ATOM
M  V30 1 N -1.517130 -5.138999 5.508300 0
M  V30 2 C -1.136372 -4.475553 4.643385 0
M  V30 3 C -0.681108 -3.643165 3.546502 0
M  V30 4 C -1.301911 -2.432014 3.328729 0
M  V30 5 C -0.957084 -1.544216 2.309364 0
M  V30 6 C 0.093075 -1.972578 1.494450 0
M  V30 7 C 0.465686 -1.049603 0.420682 0
M  V30 8 C 0.971251 -1.525132 -0.792002 0
M  V30 9 C 1.329754 -0.660688 -1.818053 0
M  V30 10 C 1.185008 0.713992 -1.642020 0
M  V30 11 N 1.535488 1.542176 -2.642503 0
M  V30 12 C 1.417295 2.870875 -2.525887 0
M  V30 13 N 0.935432 3.370006 -1.375352 0
M  V30 14 C 0.579430 2.545924 -0.362064 0
M  V30 15 N 0.074324 3.137889 0.836750 0
M  V30 16 C 0.687249 1.173104 -0.447028 0
M  V30 17 C 0.329239 0.319437 0.576755 0
M  V30 18 C 0.739433 -3.184813 1.685602 0
M  V30 19 C 0.354687 -4.023437 2.711571 0
M  V30 20 H -2.126677 -2.111231 3.981674 0
M  V30 21 H -1.471269 -0.620601 2.187088 0
M  V30 22 H 1.098098 -2.601747 -0.963409 0
M  V30 23 H 1.715469 -1.099649 -2.733359 0
M  V30 24 H 1.733206 3.419014 -3.400791 0
M  V30 25 H 0.266210 3.774482 1.633456 0
M  V30 26 H -0.901601 2.841757 1.059331 0
M  V30 27 H -0.061956 0.749951 1.508112 0
M  V30 28 H 1.533552 -3.452061 1.027232 0
M  V30 29 H 0.834119 -4.975518 2.892179 0
M  V30 END ATOM
M  V30 BEGIN BOND
M  V30 1 3 1 2
M  V30 2 1 2 3
M  V30 3 2 3 4
M  V30 4 1 4 5
M  V30 5 2 5 6
M  V30 6 1 6 7
M  V30 7 2 7 8
M  V30 8 1 8 9
M  V30 9 2 9 10
M  V30 10 1 10 11
M  V30 11 2 11 12
M  V30 12 1 12 13
M  V30 13 2 13 14
M  V30 14 1 14 15
M  V30 15 1 14 16
M  V30 16 2 16 17
M  V30 17 1 6 18
M  V30 18 2 18 19
M  V30 19 1 19 3
M  V30 20 1 17 7
M  V30 21 1 16 10
M  V30 22 1 4 20
M  V30 23 1 5 21
M  V30 24 1 8 22
M  V30 25 1 9 23
M  V30 26 1 12 24
M  V30 27 1 15 25
M  V30 28 1 15 26
M  V30 29 1 17 27
M  V30 30 1 18 28
M  V30 31 1 19 29
M  V30 END BOND
M  V30 END CTAB
M  END
>  <Dataset>  (519) 
ChEMBL_Kinases

>  <Ligand_Instance>  (519) 
nan

>  <PDB_ID>  (519) 
nan

>  <Standardized_SMILES>  (519) 
N#Cc1ccc(-c2ccc3ncnc(N)c3c2)cc1

>  <Name>  (519) 
nan

>  <Pocket>  (519) 
nan

>  <ATP_Site>  (519) 
nan

>  <Peripheral>  (519) 
nan

>  <Num_H_Atoms_ProtBoundConf>  (519) 
nan

>  <Num_Resolved_Atoms>  (519) 
nan

>  <Num_Not_Resolved_Atoms>  (519) 
nan

$$$$
CHEMBL3262577
     RDKit          3D

  0  0  0  0  0  0  0  0  0  0999 V3000
M  V30 BEGIN CTAB
M  V30 COUNTS 30 32 0 0 0
M  V30 BEGIN ATOM
M  V30 1 N -3.110542 -0.883375 3.663363 0
M  V30 2 C -2.179747 -1.707793 2.972971 0
M  V30 3 C -1.181790 -1.065592 2.230507 0
M  V30 4 C -0.255760 -1.836490 1.543002 0
M  V30 5 C 0.823925 -1.219323 0.738548 0
M  V30 6 C 2.071438 -1.829678 0.578413 0
M  V30 7 C 3.045822 -1.208391 -0.185037 0
M  V30 8 C 2.751751 0.001271 -0.766979 0
M  V30 9 N 3.654041 0.652932 -1.518091 0
M  V30 10 C 3.406667 1.841218 -2.106929 0
M  V30 11 N 2.185528 2.418555 -1.939093 0
M  V30 12 C 1.221245 1.839368 -1.204283 0
M  V30 13 N -0.022536 2.506879 -1.079951 0
M  V30 14 C 1.533272 0.626922 -0.627612 0
M  V30 15 C 0.567763 0.011844 0.128572 0
M  V30 16 C -0.308586 -3.222131 1.583619 0
M  V30 17 C -1.295987 -3.890560 2.318257 0
M  V30 18 C -2.198753 -3.085573 2.988474 0
M  V30 19 F -3.180735 -3.709522 3.719095 0
M  V30 20 H -3.001305 -0.530336 4.654326 0
M  V30 21 H -3.996103 -0.562352 3.214982 0
M  V30 22 H -1.123378 0.018201 2.185717 0
M  V30 23 H 2.254104 -2.798835 1.067212 0
M  V30 24 H 3.993879 -1.688794 -0.296566 0
M  V30 25 H 4.151191 2.356735 -2.714367 0
M  V30 26 H -0.471674 3.291877 -0.572129 0
M  V30 27 H -0.735496 2.058510 -1.717248 0
M  V30 28 H -0.393988 0.456023 0.267581 0
M  V30 29 H 0.373433 -3.890247 1.078494 0
M  V30 30 H -1.374806 -4.968486 2.378055 0
M  V30 END ATOM
M  V30 BEGIN BOND
M  V30 1 1 1 2
M  V30 2 2 2 3
M  V30 3 1 3 4
M  V30 4 1 4 5
M  V30 5 2 5 6
M  V30 6 1 6 7
M  V30 7 2 7 8
M  V30 8 1 8 9
M  V30 9 2 9 10
M  V30 10 1 10 11
M  V30 11 2 11 12
M  V30 12 1 12 13
M  V30 13 1 12 14
M  V30 14 2 14 15
M  V30 15 2 4 16
M  V30 16 1 16 17
M  V30 17 2 17 18
M  V30 18 1 18 19
M  V30 19 1 18 2
M  V30 20 1 15 5
M  V30 21 1 14 8
M  V30 22 1 1 20
M  V30 23 1 1 21
M  V30 24 1 3 22
M  V30 25 1 6 23
M  V30 26 1 7 24
M  V30 27 1 10 25
M  V30 28 1 13 26
M  V30 29 1 13 27
M  V30 30 1 15 28
M  V30 31 1 16 29
M  V30 32 1 17 30
M  V30 END BOND
M  V30 END CTAB
M  END
>  <Dataset>  (520) 
ChEMBL_Kinases

>  <Ligand_Instance>  (520) 
nan

>  <PDB_ID>  (520) 
nan

>  <Standardized_SMILES>  (520) 
Nc1cc(-c2ccc3ncnc(N)c3c2)ccc1F

>  <Name>  (520) 
nan

>  <Pocket>  (520) 
nan

>  <ATP_Site>  (520) 
nan

>  <Peripheral>  (520) 
nan

>  <Num_H_Atoms_ProtBoundConf>  (520) 
nan

>  <Num_Resolved_Atoms>  (520) 
nan

>  <Num_Not_Resolved_Atoms>  (520) 
nan

$$$$
CHEMBL3262578
     RDKit          3D

  0  0  0  0  0  0  0  0  0  0999 V3000
M  V30 BEGIN CTAB
M  V30 COUNTS 30 32 0 0 0
M  V30 BEGIN ATOM
M  V30 1 N -2.671553 -3.902942 3.071358 0
M  V30 2 C -1.392207 -3.471554 2.609381 0
M  V30 3 C -0.174273 -4.056412 2.963895 0
M  V30 4 C 1.012492 -3.562980 2.460935 0
M  V30 5 C 0.998442 -2.480677 1.598683 0
M  V30 6 F 2.229429 -2.096028 1.178448 0
M  V30 7 C -0.199302 -1.895821 1.242309 0
M  V30 8 C -0.047366 -0.768453 0.328791 0
M  V30 9 C -0.862884 -0.634402 -0.775499 0
M  V30 10 C -0.766643 0.414049 -1.678925 0
M  V30 11 C 0.217172 1.355338 -1.418123 0
M  V30 12 N 0.411475 2.414048 -2.214393 0
M  V30 13 C 1.364341 3.349118 -1.984516 0
M  V30 14 N 2.187776 3.250321 -0.905017 0
M  V30 15 C 2.042676 2.194274 -0.052565 0
M  V30 16 N 2.904358 2.092067 1.075921 0
M  V30 17 C 1.058076 1.264868 -0.325847 0
M  V30 18 C 0.934338 0.201633 0.559103 0
M  V30 19 C -1.381436 -2.394367 1.748925 0
M  V30 20 H -2.765423 -3.485853 4.024968 0
M  V30 21 H -3.432151 -4.496448 2.655261 0
M  V30 22 H -0.296909 -4.894345 3.643748 0
M  V30 23 H 1.844190 -4.135260 2.840982 0
M  V30 24 H -1.639601 -1.386753 -0.972462 0
M  V30 25 H -1.416213 0.506945 -2.545010 0
M  V30 26 H 1.472034 4.183228 -2.666098 0
M  V30 27 H 3.879341 1.865013 1.322909 0
M  V30 28 H 2.397874 2.320515 1.968978 0
M  V30 29 H 1.568528 0.090000 1.425023 0
M  V30 30 H -2.273707 -1.856263 1.401738 0
M  V30 END ATOM
M  V30 BEGIN BOND
M  V30 1 1 1 2
M  V30 2 2 2 3
M  V30 3 1 3 4
M  V30 4 2 4 5
M  V30 5 1 5 6
M  V30 6 1 5 7
M  V30 7 1 7 8
M  V30 8 2 8 9
M  V30 9 1 9 10
M  V30 10 2 10 11
M  V30 11 1 11 12
M  V30 12 2 12 13
M  V30 13 1 13 14
M  V30 14 2 14 15
M  V30 15 1 15 16
M  V30 16 1 15 17
M  V30 17 2 17 18
M  V30 18 2 7 19
M  V30 19 1 19 2
M  V30 20 1 18 8
M  V30 21 1 17 11
M  V30 22 1 1 20
M  V30 23 1 1 21
M  V30 24 1 3 22
M  V30 25 1 4 23
M  V30 26 1 9 24
M  V30 27 1 10 25
M  V30 28 1 13 26
M  V30 29 1 16 27
M  V30 30 1 16 28
M  V30 31 1 18 29
M  V30 32 1 19 30
M  V30 END BOND
M  V30 END CTAB
M  END
>  <Dataset>  (521) 
ChEMBL_Kinases

>  <Ligand_Instance>  (521) 
nan

>  <PDB_ID>  (521) 
nan

>  <Standardized_SMILES>  (521) 
Nc1ccc(F)c(-c2ccc3ncnc(N)c3c2)c1

>  <Name>  (521) 
nan

>  <Pocket>  (521) 
nan

>  <ATP_Site>  (521) 
nan

>  <Peripheral>  (521) 
nan

>  <Num_H_Atoms_ProtBoundConf>  (521) 
nan

>  <Num_Resolved_Atoms>  (521) 
nan

>  <Num_Not_Resolved_Atoms>  (521) 
nan

$$$$
CHEMBL3262579
     RDKit          3D

  0  0  0  0  0  0  0  0  0  0999 V3000
M  V30 BEGIN CTAB
M  V30 COUNTS 30 32 0 0 0
M  V30 BEGIN ATOM
M  V30 1 N -2.467298 -3.686760 3.528903 0
M  V30 2 C -1.250549 -3.199025 2.978719 0
M  V30 3 C -0.064787 -3.731274 3.469238 0
M  V30 4 C 1.159549 -3.312008 2.988167 0
M  V30 5 F 2.337582 -3.806103 3.440061 0
M  V30 6 C 1.136015 -2.345253 2.003557 0
M  V30 7 C -0.010069 -1.789990 1.487792 0
M  V30 8 C -0.020529 -0.767786 0.446035 0
M  V30 9 C -1.088235 -0.726509 -0.449984 0
M  V30 10 C -1.112307 0.248343 -1.455326 0
M  V30 11 C -0.045456 1.121117 -1.484595 0
M  V30 12 N -0.068549 2.069978 -2.464075 0
M  V30 13 C 0.931063 2.966104 -2.571808 0
M  V30 14 N 1.996713 2.963609 -1.716523 0
M  V30 15 C 2.059740 2.030831 -0.721410 0
M  V30 16 N 3.150575 1.990554 0.192960 0
M  V30 17 C 1.029233 1.118665 -0.622190 0
M  V30 18 C 1.037766 0.140315 0.374215 0
M  V30 19 C -1.227462 -2.221276 1.981035 0
M  V30 20 H -3.132608 -4.484008 3.490540 0
M  V30 21 H -2.675157 -2.882132 4.190927 0
M  V30 22 H -0.076690 -4.488727 4.241922 0
M  V30 23 H 2.089791 -2.001583 1.611606 0
M  V30 24 H -1.908268 -1.445667 -0.378343 0
M  V30 25 H -1.920914 0.318326 -2.173823 0
M  V30 26 H 0.870697 3.714465 -3.378460 0
M  V30 27 H 2.762207 2.037456 1.161391 0
M  V30 28 H 4.056397 1.925170 -0.326428 0
M  V30 29 H 1.854357 0.096030 1.072537 0
M  V30 30 H -2.199934 -1.870002 1.666263 0
M  V30 END ATOM
M  V30 BEGIN BOND
M  V30 1 1 1 2
M  V30 2 2 2 3
M  V30 3 1 3 4
M  V30 4 1 4 5
M  V30 5 2 4 6
M  V30 6 1 6 7
M  V30 7 1 7 8
M  V30 8 2 8 9
M  V30 9 1 9 10
M  V30 10 2 10 11
M  V30 11 1 11 12
M  V30 12 2 12 13
M  V30 13 1 13 14
M  V30 14 2 14 15
M  V30 15 1 15 16
M  V30 16 1 15 17
M  V30 17 2 17 18
M  V30 18 2 7 19
M  V30 19 1 19 2
M  V30 20 1 18 8
M  V30 21 1 17 11
M  V30 22 1 1 20
M  V30 23 1 1 21
M  V30 24 1 3 22
M  V30 25 1 6 23
M  V30 26 1 9 24
M  V30 27 1 10 25
M  V30 28 1 13 26
M  V30 29 1 16 27
M  V30 30 1 16 28
M  V30 31 1 18 29
M  V30 32 1 19 30
M  V30 END BOND
M  V30 END CTAB
M  END
>  <Dataset>  (522) 
ChEMBL_Kinases

>  <Ligand_Instance>  (522) 
nan

>  <PDB_ID>  (522) 
nan

>  <Standardized_SMILES>  (522) 
Nc1cc(F)cc(-c2ccc3ncnc(N)c3c2)c1

>  <Name>  (522) 
nan

>  <Pocket>  (522) 
nan

>  <ATP_Site>  (522) 
nan

>  <Peripheral>  (522) 
nan

>  <Num_H_Atoms_ProtBoundConf>  (522) 
nan

>  <Num_Resolved_Atoms>  (522) 
nan

>  <Num_Not_Resolved_Atoms>  (522) 
nan

$$$$
CHEMBL3262933
     RDKit          3D

  0  0  0  0  0  0  0  0  0  0999 V3000
M  V30 BEGIN CTAB
M  V30 COUNTS 60 61 0 0 0
M  V30 BEGIN ATOM
M  V30 1 C -4.196678 1.437906 1.454616 0
M  V30 2 C -3.093657 0.532740 0.958588 0
M  V30 3 C -2.567517 -0.185769 2.200459 0
M  V30 4 C -3.553430 -0.498592 -0.004798 0
M  V30 5 C -2.396836 -1.350790 -0.451461 0
M  V30 6 C -1.312539 -0.600322 -1.125395 0
M  V30 7 O -0.477825 -0.072699 -0.368572 0
M  V30 8 O -1.308424 -0.544618 -2.477344 0
M  V30 9 C -0.426414 0.061132 -3.353436 0
M  V30 10 C 0.949596 -0.453728 -3.483322 0
M  V30 11 C 0.938980 -1.876646 -3.970393 0
M  V30 12 O 2.214419 -2.370828 -4.216507 0
M  V30 13 C 1.927706 -0.218346 -2.380557 0
M  V30 14 C 1.891989 1.272270 -2.304728 0
M  V30 15 C 1.983642 2.160147 -1.332762 0
M  V30 16 C 2.166406 1.740459 0.040653 0
M  V30 17 C 1.495087 2.323448 1.110427 0
M  V30 18 C 1.700287 1.908378 2.403439 0
M  V30 19 C 2.591961 0.881472 2.712718 0
M  V30 20 C 3.249335 0.312942 1.653018 0
M  V30 21 C 4.176771 -0.759274 1.993259 0
M  V30 22 O 4.366148 -1.140535 3.163305 0
M  V30 23 O 4.971738 -1.509581 1.141356 0
M  V30 24 C 3.054249 0.715611 0.368265 0
M  V30 25 C 1.726138 1.599124 -3.746247 0
M  V30 26 O 1.723642 2.791184 -4.212983 0
M  V30 27 O 1.575631 0.402504 -4.495957 0
M  V30 28 C -4.435804 -0.017429 -1.116126 0
M  V30 29 C -3.855395 1.011058 -2.013643 0
M  V30 30 C -4.756674 -1.247795 -1.974750 0
M  V30 31 H -3.961284 2.486737 1.107445 0
M  V30 32 H -4.227138 1.533341 2.559833 0
M  V30 33 H -5.202635 1.157407 1.141919 0
M  V30 34 H -2.248331 1.122549 0.556609 0
M  V30 35 H -3.348883 -0.955220 2.435035 0
M  V30 36 H -1.604183 -0.675825 2.049673 0
M  V30 37 H -2.583492 0.503817 3.074596 0
M  V30 38 H -4.218014 -1.206003 0.590945 0
M  V30 39 H -2.003455 -1.890122 0.461133 0
M  V30 40 H -2.716795 -2.178224 -1.121710 0
M  V30 41 H -0.939683 0.007679 -4.369268 0
M  V30 42 H -0.417363 1.194628 -3.191739 0
M  V30 43 H 0.479425 -2.529727 -3.202606 0
M  V30 44 H 0.302933 -1.966903 -4.871674 0
M  V30 45 H 2.353286 -3.284166 -3.883578 0
M  V30 46 H 2.942156 -0.474622 -2.830948 0
M  V30 47 H 1.770651 -0.745777 -1.452285 0
M  V30 48 H 1.919196 3.224574 -1.584087 0
M  V30 49 H 0.800306 3.118694 0.907673 0
M  V30 50 H 1.169213 2.374472 3.215897 0
M  V30 51 H 2.741862 0.567009 3.731416 0
M  V30 52 H 5.986663 -1.528959 1.196347 0
M  V30 53 H 3.639368 0.192097 -0.371771 0
M  V30 54 H -5.423372 0.260018 -0.676641 0
M  V30 55 H -2.944361 1.504986 -1.675740 0
M  V30 56 H -4.650030 1.805676 -2.142704 0
M  V30 57 H -3.708731 0.644661 -3.070642 0
M  V30 58 H -3.971631 -1.454533 -2.700460 0
M  V30 59 H -5.693944 -1.031609 -2.537698 0
M  V30 60 H -4.975775 -2.071746 -1.270099 0
M  V30 END ATOM
M  V30 BEGIN BOND
M  V30 1 1 1 2
M  V30 2 1 2 3
M  V30 3 1 2 4
M  V30 4 1 4 5
M  V30 5 1 5 6
M  V30 6 2 6 7
M  V30 7 1 6 8
M  V30 8 1 8 9
M  V30 9 1 9 10
M  V30 10 1 10 11
M  V30 11 1 11 12
M  V30 12 1 10 13
M  V30 13 1 13 14
M  V30 14 2 14 15
M  V30 15 1 15 16
M  V30 16 2 16 17
M  V30 17 1 17 18
M  V30 18 2 18 19
M  V30 19 1 19 20
M  V30 20 1 20 21
M  V30 21 2 21 22
M  V30 22 1 21 23
M  V30 23 2 20 24
M  V30 24 1 14 25
M  V30 25 2 25 26
M  V30 26 1 25 27
M  V30 27 1 4 28
M  V30 28 1 28 29
M  V30 29 1 28 30
M  V30 30 1 27 10
M  V30 31 1 24 16
M  V30 32 1 1 31
M  V30 33 1 1 32
M  V30 34 1 1 33
M  V30 35 1 2 34
M  V30 36 1 3 35
M  V30 37 1 3 36
M  V30 38 1 3 37
M  V30 39 1 4 38
M  V30 40 1 5 39
M  V30 41 1 5 40
M  V30 42 1 9 41
M  V30 43 1 9 42
M  V30 44 1 11 43
M  V30 45 1 11 44
M  V30 46 1 12 45
M  V30 47 1 13 46
M  V30 48 1 13 47
M  V30 49 1 15 48
M  V30 50 1 17 49
M  V30 51 1 18 50
M  V30 52 1 19 51
M  V30 53 1 23 52
M  V30 54 1 24 53
M  V30 55 1 28 54
M  V30 56 1 29 55
M  V30 57 1 29 56
M  V30 58 1 29 57
M  V30 59 1 30 58
M  V30 60 1 30 59
M  V30 61 1 30 60
M  V30 END BOND
M  V30 END CTAB
M  END
>  <Dataset>  (523) 
ChEMBL_Kinases

>  <Ligand_Instance>  (523) 
nan

>  <PDB_ID>  (523) 
nan

>  <Standardized_SMILES>  (523) 
CC(C)C(CC(=O)OCC1(CO)C/C(=C\c2cccc(C(=O)O)c2)C(=O)O1)C(C)C

>  <Name>  (523) 
nan

>  <Pocket>  (523) 
nan

>  <ATP_Site>  (523) 
nan

>  <Peripheral>  (523) 
nan

>  <Num_H_Atoms_ProtBoundConf>  (523) 
nan

>  <Num_Resolved_Atoms>  (523) 
nan

>  <Num_Not_Resolved_Atoms>  (523) 
nan

$$$$
CHEMBL3262581
     RDKit          3D

  0  0  0  0  0  0  0  0  0  0999 V3000
M  V30 BEGIN CTAB
M  V30 COUNTS 28 30 0 0 0
M  V30 BEGIN ATOM
M  V30 1 N -1.070374 -3.199765 2.671278 0
M  V30 2 C -0.070122 -2.378259 3.264965 0
M  V30 3 N 0.298220 -2.624231 4.555571 0
M  V30 4 C 1.236838 -1.880931 5.166640 0
M  V30 5 N 1.803825 -0.885996 4.468803 0
M  V30 6 C 1.488621 -0.585894 3.189245 0
M  V30 7 C 2.084825 0.444250 2.486830 0
M  V30 8 C 1.683866 0.658697 1.186117 0
M  V30 9 C 0.730341 -0.085606 0.544233 0
M  V30 10 C 0.290920 0.122657 -0.828975 0
M  V30 11 C -1.074362 0.102929 -1.113040 0
M  V30 12 C -1.614593 0.289115 -2.384062 0
M  V30 13 C -0.735129 0.505884 -3.419842 0
M  V30 14 C 0.623828 0.533850 -3.186838 0
M  V30 15 C 1.120118 0.343602 -1.904485 0
M  V30 16 F 2.457796 0.369229 -1.663769 0
M  V30 17 C 0.117746 -1.131871 1.242110 0
M  V30 18 C 0.521843 -1.348757 2.554490 0
M  V30 19 H -1.247215 -4.179301 2.302220 0
M  V30 20 H -1.908910 -2.553771 2.596080 0
M  V30 21 H 1.538399 -2.066406 6.192188 0
M  V30 22 H 2.840637 1.046620 2.971351 0
M  V30 23 H 2.116475 1.449484 0.591826 0
M  V30 24 H -1.749492 -0.069101 -0.284246 0
M  V30 25 H -2.705095 0.248680 -2.463515 0
M  V30 26 H -1.210690 0.642852 -4.377808 0
M  V30 27 H 1.262852 0.705669 -4.024902 0
M  V30 28 H -0.625564 -1.726615 0.770146 0
M  V30 END ATOM
M  V30 BEGIN BOND
M  V30 1 1 1 2
M  V30 2 2 2 3
M  V30 3 1 3 4
M  V30 4 2 4 5
M  V30 5 1 5 6
M  V30 6 2 6 7
M  V30 7 1 7 8
M  V30 8 2 8 9
M  V30 9 1 9 10
M  V30 10 2 10 11
M  V30 11 1 11 12
M  V30 12 2 12 13
M  V30 13 1 13 14
M  V30 14 2 14 15
M  V30 15 1 15 16
M  V30 16 1 9 17
M  V30 17 2 17 18
M  V30 18 1 18 2
M  V30 19 1 18 6
M  V30 20 1 15 10
M  V30 21 1 1 19
M  V30 22 1 1 20
M  V30 23 1 4 21
M  V30 24 1 7 22
M  V30 25 1 8 23
M  V30 26 1 11 24
M  V30 27 1 12 25
M  V30 28 1 13 26
M  V30 29 1 14 27
M  V30 30 1 17 28
M  V30 END BOND
M  V30 END CTAB
M  END
>  <Dataset>  (524) 
ChEMBL_Kinases

>  <Ligand_Instance>  (524) 
nan

>  <PDB_ID>  (524) 
nan

>  <Standardized_SMILES>  (524) 
Nc1ncnc2ccc(-c3ccccc3F)cc12

>  <Name>  (524) 
nan

>  <Pocket>  (524) 
nan

>  <ATP_Site>  (524) 
nan

>  <Peripheral>  (524) 
nan

>  <Num_H_Atoms_ProtBoundConf>  (524) 
nan

>  <Num_Resolved_Atoms>  (524) 
nan

>  <Num_Not_Resolved_Atoms>  (524) 
nan

$$$$
CHEMBL3262582
     RDKit          3D

  0  0  0  0  0  0  0  0  0  0999 V3000
M  V30 BEGIN CTAB
M  V30 COUNTS 28 30 0 0 0
M  V30 BEGIN ATOM
M  V30 1 N -1.832251 -1.434429 3.459389 0
M  V30 2 C -0.494437 -1.912982 3.537198 0
M  V30 3 N -0.021611 -2.647463 4.587929 0
M  V30 4 C 1.279600 -3.058447 4.565676 0
M  V30 5 N 2.133708 -2.782287 3.563052 0
M  V30 6 C 1.733228 -2.053602 2.479859 0
M  V30 7 C 2.547023 -1.729611 1.414313 0
M  V30 8 C 2.070327 -0.986804 0.351141 0
M  V30 9 C 0.747909 -0.590443 0.412744 0
M  V30 10 C 0.304147 0.196183 -0.749896 0
M  V30 11 C -0.673346 1.141250 -0.504238 0
M  V30 12 C -1.110507 1.899308 -1.590855 0
M  V30 13 C -0.625248 1.758593 -2.883697 0
M  V30 14 F -1.096140 2.528749 -3.891878 0
M  V30 15 C 0.353988 0.788679 -3.046850 0
M  V30 16 C 0.822467 0.012287 -2.011300 0
M  V30 17 C -0.071724 -0.901338 1.457944 0
M  V30 18 C 0.414097 -1.652351 2.530590 0
M  V30 19 H -2.357094 -2.321029 3.334028 0
M  V30 20 H -2.131023 -0.421989 3.521926 0
M  V30 21 H 1.678936 -3.644760 5.391743 0
M  V30 22 H 3.541816 -2.102654 1.503143 0
M  V30 23 H 2.763961 -0.778660 -0.433586 0
M  V30 24 H -1.150602 1.372880 0.437818 0
M  V30 25 H -1.882570 2.666590 -1.470848 0
M  V30 26 H 0.757878 0.651675 -4.047244 0
M  V30 27 H 1.587966 -0.741558 -2.159490 0
M  V30 28 H -1.084893 -0.508773 1.343999 0
M  V30 END ATOM
M  V30 BEGIN BOND
M  V30 1 1 1 2
M  V30 2 2 2 3
M  V30 3 1 3 4
M  V30 4 2 4 5
M  V30 5 1 5 6
M  V30 6 2 6 7
M  V30 7 1 7 8
M  V30 8 2 8 9
M  V30 9 1 9 10
M  V30 10 2 10 11
M  V30 11 1 11 12
M  V30 12 2 12 13
M  V30 13 1 13 14
M  V30 14 1 13 15
M  V30 15 2 15 16
M  V30 16 1 9 17
M  V30 17 2 17 18
M  V30 18 1 18 2
M  V30 19 1 18 6
M  V30 20 1 16 10
M  V30 21 1 1 19
M  V30 22 1 1 20
M  V30 23 1 4 21
M  V30 24 1 7 22
M  V30 25 1 8 23
M  V30 26 1 11 24
M  V30 27 1 12 25
M  V30 28 1 15 26
M  V30 29 1 16 27
M  V30 30 1 17 28
M  V30 END BOND
M  V30 END CTAB
M  END
>  <Dataset>  (525) 
ChEMBL_Kinases

>  <Ligand_Instance>  (525) 
nan

>  <PDB_ID>  (525) 
nan

>  <Standardized_SMILES>  (525) 
Nc1ncnc2ccc(-c3ccc(F)cc3)cc12

>  <Name>  (525) 
nan

>  <Pocket>  (525) 
nan

>  <ATP_Site>  (525) 
nan

>  <Peripheral>  (525) 
nan

>  <Num_H_Atoms_ProtBoundConf>  (525) 
nan

>  <Num_Resolved_Atoms>  (525) 
nan

>  <Num_Not_Resolved_Atoms>  (525) 
nan

$$$$
CHEMBL3262583
     RDKit          3D

  0  0  0  0  0  0  0  0  0  0999 V3000
M  V30 BEGIN CTAB
M  V30 COUNTS 28 30 0 0 0
M  V30 BEGIN ATOM
M  V30 1 N -1.392058 -1.337004 3.869208 0
M  V30 2 C -0.051362 -1.758275 3.656132 0
M  V30 3 N 0.508302 -2.424514 4.686633 0
M  V30 4 C 1.777521 -2.853466 4.553931 0
M  V30 5 N 2.476865 -2.627932 3.426518 0
M  V30 6 C 1.907498 -1.963710 2.409089 0
M  V30 7 C 2.605960 -1.719401 1.239745 0
M  V30 8 C 2.021283 -1.037087 0.194597 0
M  V30 9 C 0.708203 -0.570262 0.279178 0
M  V30 10 C 0.099799 0.157404 -0.848249 0
M  V30 11 C -1.274247 -0.014246 -0.977390 0
M  V30 12 C -1.830421 0.680159 -2.046898 0
M  V30 13 C -1.105205 1.472446 -2.913143 0
M  V30 14 C 0.255988 1.601187 -2.730192 0
M  V30 15 Cl 1.132802 2.617494 -3.855214 0
M  V30 16 C 0.867402 0.937629 -1.687334 0
M  V30 17 C -0.001067 -0.815389 1.459875 0
M  V30 18 C 0.615797 -1.501327 2.485201 0
M  V30 19 H -1.749952 -1.000229 4.811641 0
M  V30 20 H -2.299793 -1.214299 3.371628 0
M  V30 21 H 2.208593 -3.391675 5.405078 0
M  V30 22 H 3.636147 -2.099057 1.203949 0
M  V30 23 H 2.610081 -0.877199 -0.686160 0
M  V30 24 H -1.862799 -0.618702 -0.325714 0
M  V30 25 H -2.910332 0.573091 -2.185583 0
M  V30 26 H -1.670323 1.960440 -3.710116 0
M  V30 27 H 1.939103 1.040448 -1.545062 0
M  V30 28 H -1.018181 -0.469508 1.561261 0
M  V30 END ATOM
M  V30 BEGIN BOND
M  V30 1 1 1 2
M  V30 2 2 2 3
M  V30 3 1 3 4
M  V30 4 2 4 5
M  V30 5 1 5 6
M  V30 6 2 6 7
M  V30 7 1 7 8
M  V30 8 2 8 9
M  V30 9 1 9 10
M  V30 10 2 10 11
M  V30 11 1 11 12
M  V30 12 2 12 13
M  V30 13 1 13 14
M  V30 14 1 14 15
M  V30 15 2 14 16
M  V30 16 1 9 17
M  V30 17 2 17 18
M  V30 18 1 18 2
M  V30 19 1 18 6
M  V30 20 1 16 10
M  V30 21 1 1 19
M  V30 22 1 1 20
M  V30 23 1 4 21
M  V30 24 1 7 22
M  V30 25 1 8 23
M  V30 26 1 11 24
M  V30 27 1 12 25
M  V30 28 1 13 26
M  V30 29 1 16 27
M  V30 30 1 17 28
M  V30 END BOND
M  V30 END CTAB
M  END
>  <Dataset>  (526) 
ChEMBL_Kinases

>  <Ligand_Instance>  (526) 
nan

>  <PDB_ID>  (526) 
nan

>  <Standardized_SMILES>  (526) 
Nc1ncnc2ccc(-c3cccc(Cl)c3)cc12

>  <Name>  (526) 
nan

>  <Pocket>  (526) 
nan

>  <ATP_Site>  (526) 
nan

>  <Peripheral>  (526) 
nan

>  <Num_H_Atoms_ProtBoundConf>  (526) 
nan

>  <Num_Resolved_Atoms>  (526) 
nan

>  <Num_Not_Resolved_Atoms>  (526) 
nan

$$$$
CHEMBL3262584
     RDKit          3D

  0  0  0  0  0  0  0  0  0  0999 V3000
M  V30 BEGIN CTAB
M  V30 COUNTS 28 30 0 0 0
M  V30 BEGIN ATOM
M  V30 1 N -1.801511 -2.122798 3.158238 0
M  V30 2 C -0.489339 -2.662146 3.062306 0
M  V30 3 N -0.014467 -3.687842 3.817962 0
M  V30 4 C 1.262359 -4.130417 3.646384 0
M  V30 5 N 2.100431 -3.590217 2.743265 0
M  V30 6 C 1.703155 -2.558185 1.945550 0
M  V30 7 C 2.515464 -1.963403 1.002519 0
M  V30 8 C 2.070252 -0.919442 0.215816 0
M  V30 9 C 0.773109 -0.484527 0.404051 0
M  V30 10 C 0.302066 0.620454 -0.428762 0
M  V30 11 C -1.035855 0.685978 -0.777729 0
M  V30 12 C -1.526373 1.722789 -1.570083 0
M  V30 13 F -2.832440 1.828294 -1.938341 0
M  V30 14 C -0.598949 2.661161 -1.973561 0
M  V30 15 C 0.744724 2.670548 -1.672415 0
M  V30 16 F 1.574621 3.639126 -2.118012 0
M  V30 17 C 1.176620 1.605409 -0.874906 0
M  V30 18 C -0.036158 -1.085529 1.351571 0
M  V30 19 C 0.404617 -2.140472 2.150804 0
M  V30 20 H -2.664719 -2.628272 2.914589 0
M  V30 21 H -1.693091 -1.132672 3.519206 0
M  V30 22 H 1.599436 -4.961848 4.280966 0
M  V30 23 H 3.508933 -2.391506 0.948392 0
M  V30 24 H 2.748422 -0.496825 -0.501011 0
M  V30 25 H -1.769456 -0.048404 -0.463463 0
M  V30 26 H -0.986039 3.466077 -2.590176 0
M  V30 27 H 2.216810 1.543755 -0.596702 0
M  V30 28 H -1.047018 -0.692071 1.446152 0
M  V30 END ATOM
M  V30 BEGIN BOND
M  V30 1 1 1 2
M  V30 2 2 2 3
M  V30 3 1 3 4
M  V30 4 2 4 5
M  V30 5 1 5 6
M  V30 6 2 6 7
M  V30 7 1 7 8
M  V30 8 2 8 9
M  V30 9 1 9 10
M  V30 10 2 10 11
M  V30 11 1 11 12
M  V30 12 1 12 13
M  V30 13 2 12 14
M  V30 14 1 14 15
M  V30 15 1 15 16
M  V30 16 2 15 17
M  V30 17 1 9 18
M  V30 18 2 18 19
M  V30 19 1 19 2
M  V30 20 1 19 6
M  V30 21 1 17 10
M  V30 22 1 1 20
M  V30 23 1 1 21
M  V30 24 1 4 22
M  V30 25 1 7 23
M  V30 26 1 8 24
M  V30 27 1 11 25
M  V30 28 1 14 26
M  V30 29 1 17 27
M  V30 30 1 18 28
M  V30 END BOND
M  V30 END CTAB
M  END
>  <Dataset>  (527) 
ChEMBL_Kinases

>  <Ligand_Instance>  (527) 
nan

>  <PDB_ID>  (527) 
nan

>  <Standardized_SMILES>  (527) 
Nc1ncnc2ccc(-c3cc(F)cc(F)c3)cc12

>  <Name>  (527) 
nan

>  <Pocket>  (527) 
nan

>  <ATP_Site>  (527) 
nan

>  <Peripheral>  (527) 
nan

>  <Num_H_Atoms_ProtBoundConf>  (527) 
nan

>  <Num_Resolved_Atoms>  (527) 
nan

>  <Num_Not_Resolved_Atoms>  (527) 
nan

$$$$
CHEMBL3262585
     RDKit          3D

  0  0  0  0  0  0  0  0  0  0999 V3000
M  V30 BEGIN CTAB
M  V30 COUNTS 27 29 0 0 0
M  V30 BEGIN ATOM
M  V30 1 N -0.591924 -3.870946 1.775452 0
M  V30 2 C 0.492422 -3.207661 2.436535 0
M  V30 3 N 1.168845 -3.793965 3.442017 0
M  V30 4 C 2.190782 -3.187284 4.076932 0
M  V30 5 N 2.524805 -1.961926 3.676099 0
M  V30 6 C 1.905669 -1.288213 2.674673 0
M  V30 7 N 2.281819 -0.049289 2.306854 0
M  V30 8 C 1.661840 0.611687 1.312030 0
M  V30 9 C 0.613642 0.003921 0.652163 0
M  V30 10 C -0.081248 0.690417 -0.431195 0
M  V30 11 C -0.643549 0.048234 -1.484815 0
M  V30 12 C -1.286993 0.769529 -2.475587 0
M  V30 13 C -1.367887 2.143594 -2.410810 0
M  V30 14 C -0.810384 2.859834 -1.354432 0
M  V30 15 Cl -0.870090 4.602093 -1.199566 0
M  V30 16 C -0.190834 2.065231 -0.415124 0
M  V30 17 C 0.193349 -1.275050 1.000847 0
M  V30 18 C 0.849783 -1.933830 2.029731 0
M  V30 19 H -1.542060 -3.482090 1.975431 0
M  V30 20 H -0.792535 -4.657874 1.119744 0
M  V30 21 H 2.729321 -3.667179 4.885023 0
M  V30 22 H 1.991331 1.607412 1.043102 0
M  V30 23 H -0.597286 -1.022812 -1.563929 0
M  V30 24 H -1.758842 0.304417 -3.349253 0
M  V30 25 H -1.873463 2.726092 -3.186251 0
M  V30 26 H 0.266401 2.583801 0.441240 0
M  V30 27 H -0.617255 -1.762505 0.501326 0
M  V30 END ATOM
M  V30 BEGIN BOND
M  V30 1 1 1 2
M  V30 2 2 2 3
M  V30 3 1 3 4
M  V30 4 2 4 5
M  V30 5 1 5 6
M  V30 6 2 6 7
M  V30 7 1 7 8
M  V30 8 2 8 9
M  V30 9 1 9 10
M  V30 10 2 10 11
M  V30 11 1 11 12
M  V30 12 2 12 13
M  V30 13 1 13 14
M  V30 14 1 14 15
M  V30 15 2 14 16
M  V30 16 1 9 17
M  V30 17 2 17 18
M  V30 18 1 18 2
M  V30 19 1 18 6
M  V30 20 1 16 10
M  V30 21 1 1 19
M  V30 22 1 1 20
M  V30 23 1 4 21
M  V30 24 1 8 22
M  V30 25 1 11 23
M  V30 26 1 12 24
M  V30 27 1 13 25
M  V30 28 1 16 26
M  V30 29 1 17 27
M  V30 END BOND
M  V30 END CTAB
M  END
>  <Dataset>  (528) 
ChEMBL_Kinases

>  <Ligand_Instance>  (528) 
nan

>  <PDB_ID>  (528) 
nan

>  <Standardized_SMILES>  (528) 
Nc1ncnc2ncc(-c3cccc(Cl)c3)cc12

>  <Name>  (528) 
nan

>  <Pocket>  (528) 
nan

>  <ATP_Site>  (528) 
nan

>  <Peripheral>  (528) 
nan

>  <Num_H_Atoms_ProtBoundConf>  (528) 
nan

>  <Num_Resolved_Atoms>  (528) 
nan

>  <Num_Not_Resolved_Atoms>  (528) 
nan

$$$$
CHEMBL3262586
     RDKit          3D

  0  0  0  0  0  0  0  0  0  0999 V3000
M  V30 BEGIN CTAB
M  V30 COUNTS 27 29 0 0 0
M  V30 BEGIN ATOM
M  V30 1 N -0.880222 -3.599222 1.949821 0
M  V30 2 C 0.230079 -3.010808 2.623177 0
M  V30 3 N 0.826979 -3.599250 3.702055 0
M  V30 4 C 1.887728 -2.991185 4.308976 0
M  V30 5 N 2.347989 -1.795862 3.834275 0
M  V30 6 C 1.768749 -1.206327 2.772656 0
M  V30 7 C 2.184941 -0.002340 2.245840 0
M  V30 8 N 1.616622 0.599901 1.185345 0
M  V30 9 C 0.568833 0.045865 0.548916 0
M  V30 10 C -0.060846 0.683426 -0.602577 0
M  V30 11 C -1.135213 0.185660 -1.310855 0
M  V30 12 C -1.660228 0.872898 -2.394312 0
M  V30 13 C -1.116271 2.078984 -2.791732 0
M  V30 14 C -0.036717 2.610057 -2.104520 0
M  V30 15 F 0.518844 3.778782 -2.460437 0
M  V30 16 C 0.450962 1.890190 -1.033528 0
M  V30 17 C 0.130137 -1.160857 1.054801 0
M  V30 18 C 0.695760 -1.803820 2.144794 0
M  V30 19 H -0.993615 -4.316727 1.203518 0
M  V30 20 H -1.890515 -3.348851 2.146947 0
M  V30 21 H 2.352651 -3.465894 5.162288 0
M  V30 22 H 3.031011 0.506766 2.710836 0
M  V30 23 H -1.543411 -0.749319 -0.988917 0
M  V30 24 H -2.498969 0.410637 -2.888878 0
M  V30 25 H -1.550619 2.600022 -3.650417 0
M  V30 26 H 1.296569 2.319313 -0.505652 0
M  V30 27 H -0.695567 -1.676400 0.615816 0
M  V30 END ATOM
M  V30 BEGIN BOND
M  V30 1 1 1 2
M  V30 2 2 2 3
M  V30 3 1 3 4
M  V30 4 2 4 5
M  V30 5 1 5 6
M  V30 6 2 6 7
M  V30 7 1 7 8
M  V30 8 2 8 9
M  V30 9 1 9 10
M  V30 10 2 10 11
M  V30 11 1 11 12
M  V30 12 2 12 13
M  V30 13 1 13 14
M  V30 14 1 14 15
M  V30 15 2 14 16
M  V30 16 1 9 17
M  V30 17 2 17 18
M  V30 18 1 18 2
M  V30 19 1 18 6
M  V30 20 1 16 10
M  V30 21 1 1 19
M  V30 22 1 1 20
M  V30 23 1 4 21
M  V30 24 1 7 22
M  V30 25 1 11 23
M  V30 26 1 12 24
M  V30 27 1 13 25
M  V30 28 1 16 26
M  V30 29 1 17 27
M  V30 END BOND
M  V30 END CTAB
M  END
>  <Dataset>  (529) 
ChEMBL_Kinases

>  <Ligand_Instance>  (529) 
nan

>  <PDB_ID>  (529) 
nan

>  <Standardized_SMILES>  (529) 
Nc1ncnc2cnc(-c3cccc(F)c3)cc12

>  <Name>  (529) 
nan

>  <Pocket>  (529) 
nan

>  <ATP_Site>  (529) 
nan

>  <Peripheral>  (529) 
nan

>  <Num_H_Atoms_ProtBoundConf>  (529) 
nan

>  <Num_Resolved_Atoms>  (529) 
nan

>  <Num_Not_Resolved_Atoms>  (529) 
nan

$$$$
CHEMBL3262587
     RDKit          3D

  0  0  0  0  0  0  0  0  0  0999 V3000
M  V30 BEGIN CTAB
M  V30 COUNTS 27 29 0 0 0
M  V30 BEGIN ATOM
M  V30 1 N -2.061951 -2.253520 2.667602 0
M  V30 2 C -0.697859 -2.099160 3.109520 0
M  V30 3 N -0.332763 -2.621337 4.283158 0
M  V30 4 C 0.916990 -2.525935 4.774179 0
M  V30 5 N 1.868524 -1.876589 4.067897 0
M  V30 6 C 1.562883 -1.320879 2.863319 0
M  V30 7 C 2.487709 -0.646321 2.095523 0
M  V30 8 C 2.069434 -0.121007 0.887535 0
M  V30 9 C 0.773885 -0.258329 0.450496 0
M  V30 10 C 0.310890 0.287625 -0.819984 0
M  V30 11 C -1.007141 0.105471 -1.185036 0
M  V30 12 C -1.551671 0.586262 -2.377156 0
M  V30 13 C -0.738968 1.285505 -3.251200 0
M  V30 14 C 0.582751 1.477765 -2.903101 0
M  V30 15 F 1.381968 2.168050 -3.767626 0
M  V30 16 C 1.090491 0.989292 -1.716305 0
M  V30 17 N -0.138819 -0.913990 1.189389 0
M  V30 18 C 0.266219 -1.431687 2.376018 0
M  V30 19 H -2.440389 -3.222253 2.787552 0
M  V30 20 H -2.578800 -1.418128 2.265990 0
M  V30 21 H 1.178565 -2.964453 5.735687 0
M  V30 22 H 3.507517 -0.542724 2.447970 0
M  V30 23 H 2.799560 0.400449 0.302160 0
M  V30 24 H -1.722739 -0.436047 -0.554356 0
M  V30 25 H -2.598709 0.418047 -2.623110 0
M  V30 26 H -1.201815 1.639685 -4.162442 0
M  V30 27 H 2.119897 1.149847 -1.465445 0
M  V30 END ATOM
M  V30 BEGIN BOND
M  V30 1 1 1 2
M  V30 2 2 2 3
M  V30 3 1 3 4
M  V30 4 2 4 5
M  V30 5 1 5 6
M  V30 6 2 6 7
M  V30 7 1 7 8
M  V30 8 2 8 9
M  V30 9 1 9 10
M  V30 10 2 10 11
M  V30 11 1 11 12
M  V30 12 2 12 13
M  V30 13 1 13 14
M  V30 14 1 14 15
M  V30 15 2 14 16
M  V30 16 1 9 17
M  V30 17 2 17 18
M  V30 18 1 18 2
M  V30 19 1 18 6
M  V30 20 1 16 10
M  V30 21 1 1 19
M  V30 22 1 1 20
M  V30 23 1 4 21
M  V30 24 1 7 22
M  V30 25 1 8 23
M  V30 26 1 11 24
M  V30 27 1 12 25
M  V30 28 1 13 26
M  V30 29 1 16 27
M  V30 END BOND
M  V30 END CTAB
M  END
>  <Dataset>  (530) 
ChEMBL_Kinases

>  <Ligand_Instance>  (530) 
nan

>  <PDB_ID>  (530) 
nan

>  <Standardized_SMILES>  (530) 
Nc1ncnc2ccc(-c3cccc(F)c3)nc12

>  <Name>  (530) 
nan

>  <Pocket>  (530) 
nan

>  <ATP_Site>  (530) 
nan

>  <Peripheral>  (530) 
nan

>  <Num_H_Atoms_ProtBoundConf>  (530) 
nan

>  <Num_Resolved_Atoms>  (530) 
nan

>  <Num_Not_Resolved_Atoms>  (530) 
nan

$$$$
CHEMBL3262780
     RDKit          3D

  0  0  0  0  0  0  0  0  0  0999 V3000
M  V30 BEGIN CTAB
M  V30 COUNTS 40 43 0 0 0
M  V30 BEGIN ATOM
M  V30 1 N -0.706590 -6.912221 -0.459755 0
M  V30 2 C 0.027300 -6.210936 -1.044185 0
M  V30 3 C 0.935388 -5.365715 -1.772238 0
M  V30 4 C 2.156628 -5.795612 -2.235753 0
M  V30 5 C 2.980373 -4.922544 -2.931188 0
M  V30 6 C 2.521855 -3.617145 -3.133677 0
M  V30 7 C 1.297337 -3.174887 -2.672605 0
M  V30 8 C 0.815130 -1.789441 -2.889691 0
M  V30 9 N 1.210302 -0.900948 -1.814535 0
M  V30 10 C 0.463820 -0.685150 -0.705591 0
M  V30 11 C 1.133358 0.212121 0.108034 0
M  V30 12 N 0.625896 0.660244 1.361560 0
M  V30 13 C -0.174682 1.799758 1.378961 0
M  V30 14 O -0.250282 2.177526 0.156289 0
M  V30 15 C -0.880282 2.591001 2.359946 0
M  V30 16 N -1.562099 3.663321 1.913711 0
M  V30 17 N -2.147050 4.270347 2.948598 0
M  V30 18 C -1.892320 3.649902 4.111144 0
M  V30 19 C -2.220426 3.825771 5.437381 0
M  V30 20 C -1.733674 2.922289 6.380893 0
M  V30 21 C -0.939143 1.882306 5.951322 0
M  V30 22 C -0.607173 1.700525 4.626867 0
M  V30 23 C -1.096145 2.600335 3.714376 0
M  V30 24 C 2.303092 0.522462 -0.554662 0
M  V30 25 N 2.319011 -0.166612 -1.712961 0
M  V30 26 C 0.481389 -4.066025 -1.975086 0
M  V30 27 H 2.459032 -6.831545 -2.044610 0
M  V30 28 H 3.942775 -5.253281 -3.299111 0
M  V30 29 H 3.158049 -2.943866 -3.670442 0
M  V30 30 H -0.292933 -1.814369 -2.936799 0
M  V30 31 H 1.205498 -1.445917 -3.876960 0
M  V30 32 H -0.490881 -1.143414 -0.504507 0
M  V30 33 H 0.758746 0.260876 2.311585 0
M  V30 34 H -2.729166 5.126893 2.834745 0
M  V30 35 H -2.850335 4.672096 5.679084 0
M  V30 36 H -2.019462 3.101007 7.420399 0
M  V30 37 H -0.567366 1.188660 6.688150 0
M  V30 38 H 0.014376 0.877268 4.334742 0
M  V30 39 H 3.035829 1.202661 -0.164483 0
M  V30 40 H -0.481693 -3.716184 -1.613119 0
M  V30 END ATOM
M  V30 BEGIN BOND
M  V30 1 3 1 2
M  V30 2 1 2 3
M  V30 3 2 3 4
M  V30 4 1 4 5
M  V30 5 2 5 6
M  V30 6 1 6 7
M  V30 7 1 7 8
M  V30 8 1 8 9
M  V30 9 1 9 10
M  V30 10 2 10 11
M  V30 11 1 11 12
M  V30 12 1 12 13
M  V30 13 2 13 14
M  V30 14 1 13 15
M  V30 15 2 15 16
M  V30 16 1 16 17
M  V30 17 1 17 18
M  V30 18 2 18 19
M  V30 19 1 19 20
M  V30 20 2 20 21
M  V30 21 1 21 22
M  V30 22 2 22 23
M  V30 23 1 11 24
M  V30 24 2 24 25
M  V30 25 2 7 26
M  V30 26 1 26 3
M  V30 27 1 25 9
M  V30 28 1 23 15
M  V30 29 1 23 18
M  V30 30 1 4 27
M  V30 31 1 5 28
M  V30 32 1 6 29
M  V30 33 1 8 30
M  V30 34 1 8 31
M  V30 35 1 10 32
M  V30 36 1 12 33
M  V30 37 1 17 34
M  V30 38 1 19 35
M  V30 39 1 20 36
M  V30 40 1 21 37
M  V30 41 1 22 38
M  V30 42 1 24 39
M  V30 43 1 26 40
M  V30 END BOND
M  V30 END CTAB
M  END
>  <Dataset>  (531) 
ChEMBL_Kinases

>  <Ligand_Instance>  (531) 
nan

>  <PDB_ID>  (531) 
nan

>  <Standardized_SMILES>  (531) 
N#Cc1cccc(Cn2cc(NC(=O)c3n[nH]c4ccccc34)cn2)c1

>  <Name>  (531) 
nan

>  <Pocket>  (531) 
nan

>  <ATP_Site>  (531) 
nan

>  <Peripheral>  (531) 
nan

>  <Num_H_Atoms_ProtBoundConf>  (531) 
nan

>  <Num_Resolved_Atoms>  (531) 
nan

>  <Num_Not_Resolved_Atoms>  (531) 
nan

$$$$
CHEMBL3262580
     RDKit          3D

  0  0  0  0  0  0  0  0  0  0999 V3000
M  V30 BEGIN CTAB
M  V30 COUNTS 28 30 0 0 0
M  V30 BEGIN ATOM
M  V30 1 N -1.759464 -1.707661 3.399492 0
M  V30 2 C -0.349460 -1.880233 3.555874 0
M  V30 3 N 0.147630 -2.424676 4.680247 0
M  V30 4 C 1.498967 -2.566694 4.777444 0
M  V30 5 N 2.362228 -2.183594 3.791439 0
M  V30 6 C 1.855017 -1.646543 2.684651 0
M  V30 7 C 2.749881 -1.260067 1.687180 0
M  V30 8 C 2.267783 -0.689373 0.503699 0
M  V30 9 C 0.917364 -0.524612 0.356304 0
M  V30 10 C 0.229898 0.048786 -0.796615 0
M  V30 11 C -1.029273 -0.283705 -1.252328 0
M  V30 12 C -1.611666 0.306428 -2.353310 0
M  V30 13 C -0.920911 1.291905 -3.064446 0
M  V30 14 C 0.339291 1.617032 -2.599399 0
M  V30 15 F 1.006152 2.586336 -3.307557 0
M  V30 16 C 0.950210 1.032829 -1.486117 0
M  V30 17 C 0.021572 -0.903145 1.336237 0
M  V30 18 C 0.489721 -1.474384 2.523249 0
M  V30 19 H -2.534598 -2.159717 2.848103 0
M  V30 20 H -2.392353 -0.993742 3.871397 0
M  V30 21 H 1.863887 -3.007905 5.694744 0
M  V30 22 H 3.810556 -1.379903 1.781747 0
M  V30 23 H 2.887229 -0.360086 -0.324113 0
M  V30 24 H -1.525947 -1.055758 -0.665186 0
M  V30 25 H -2.602836 0.009885 -2.669409 0
M  V30 26 H -1.332706 1.784769 -3.933205 0
M  V30 27 H 1.923912 1.383336 -1.245664 0
M  V30 28 H -1.056478 -0.812493 1.308152 0
M  V30 END ATOM
M  V30 BEGIN BOND
M  V30 1 1 1 2
M  V30 2 2 2 3
M  V30 3 1 3 4
M  V30 4 2 4 5
M  V30 5 1 5 6
M  V30 6 2 6 7
M  V30 7 1 7 8
M  V30 8 2 8 9
M  V30 9 1 9 10
M  V30 10 2 10 11
M  V30 11 1 11 12
M  V30 12 2 12 13
M  V30 13 1 13 14
M  V30 14 1 14 15
M  V30 15 2 14 16
M  V30 16 1 9 17
M  V30 17 2 17 18
M  V30 18 1 18 2
M  V30 19 1 18 6
M  V30 20 1 16 10
M  V30 21 1 1 19
M  V30 22 1 1 20
M  V30 23 1 4 21
M  V30 24 1 7 22
M  V30 25 1 8 23
M  V30 26 1 11 24
M  V30 27 1 12 25
M  V30 28 1 13 26
M  V30 29 1 16 27
M  V30 30 1 17 28
M  V30 END BOND
M  V30 END CTAB
M  END
>  <Dataset>  (532) 
ChEMBL_Kinases

>  <Ligand_Instance>  (532) 
nan

>  <PDB_ID>  (532) 
nan

>  <Standardized_SMILES>  (532) 
Nc1ncnc2ccc(-c3cccc(F)c3)cc12

>  <Name>  (532) 
nan

>  <Pocket>  (532) 
nan

>  <ATP_Site>  (532) 
nan

>  <Peripheral>  (532) 
nan

>  <Num_H_Atoms_ProtBoundConf>  (532) 
nan

>  <Num_Resolved_Atoms>  (532) 
nan

>  <Num_Not_Resolved_Atoms>  (532) 
nan

$$$$
CHEMBL3260248
     RDKit          3D

  0  0  0  0  0  0  0  0  0  0999 V3000
M  V30 BEGIN CTAB
M  V30 COUNTS 42 44 0 0 0
M  V30 BEGIN ATOM
M  V30 1 O 1.458923 -1.520047 0.131960 0
M  V30 2 C 1.567685 -0.278887 0.303045 0
M  V30 3 C 2.417432 0.559159 -0.533249 0
M  V30 4 C 2.576101 1.844563 -0.412513 0
M  V30 5 C 3.422432 2.693906 -1.241851 0
M  V30 6 C 3.524249 4.046810 -1.034778 0
M  V30 7 C 4.314690 4.870505 -1.801897 0
M  V30 8 C 5.056822 4.347305 -2.840226 0
M  V30 9 N 5.878232 5.186908 -3.641411 0 CHG=1 VAL=4
M  V30 10 O 5.952902 6.404081 -3.434337 0
M  V30 11 O 6.600212 4.617622 -4.666343 0 CHG=-1 VAL=1
M  V30 12 C 4.988755 3.006152 -3.085801 0
M  V30 13 C 4.176821 2.206450 -2.286441 0
M  V30 14 N 0.786395 0.216796 1.382546 0
M  V30 15 N 0.081921 -0.857537 1.982769 0
M  V30 16 C -1.203104 -1.115282 1.432376 0
M  V30 17 O -1.660914 -0.430333 0.485390 0
M  V30 18 C -2.061486 -2.185947 1.933289 0
M  V30 19 C -3.295361 -2.365792 1.339555 0
M  V30 20 C -4.176618 -3.370646 1.762612 0
M  V30 21 C -3.828912 -4.216720 2.796707 0
M  V30 22 C -2.577961 -4.036682 3.400873 0
M  V30 23 C -1.728810 -3.039338 2.965102 0
M  V30 24 O -2.205316 -4.875295 4.443266 0
M  V30 25 C -3.046850 -5.906766 4.886463 0
M  V30 26 C -3.984247 -6.405433 3.800788 0
M  V30 27 O -4.636492 -5.237883 3.281365 0
M  V30 28 H 2.962612 0.061518 -1.323733 0
M  V30 29 H 2.021078 2.320765 0.384779 0
M  V30 30 H 2.964037 4.527393 -0.229964 0
M  V30 31 H 4.362075 5.937015 -1.598345 0
M  V30 32 H 5.574155 2.604280 -3.902187 0
M  V30 33 H 4.168909 1.169942 -2.531037 0
M  V30 34 H 0.807430 1.235639 1.606659 0
M  V30 35 H 0.456734 -1.430802 2.770168 0
M  V30 36 H -3.647752 -1.751915 0.526982 0
M  V30 37 H -5.152876 -3.534223 1.313420 0
M  V30 38 H -0.769287 -2.914063 3.440911 0
M  V30 39 H -2.456346 -6.745664 5.310131 0
M  V30 40 H -3.714474 -5.463502 5.676119 0
M  V30 41 H -4.698206 -7.093832 4.266955 0
M  V30 42 H -3.410697 -6.872768 2.971597 0
M  V30 END ATOM
M  V30 BEGIN BOND
M  V30 1 2 1 2
M  V30 2 1 2 3
M  V30 3 2 3 4
M  V30 4 1 4 5
M  V30 5 2 5 6
M  V30 6 1 6 7
M  V30 7 2 7 8
M  V30 8 1 8 9
M  V30 9 2 9 10
M  V30 10 1 9 11
M  V30 11 1 8 12
M  V30 12 2 12 13
M  V30 13 1 2 14
M  V30 14 1 14 15
M  V30 15 1 15 16
M  V30 16 2 16 17
M  V30 17 1 16 18
M  V30 18 2 18 19
M  V30 19 1 19 20
M  V30 20 2 20 21
M  V30 21 1 21 22
M  V30 22 2 22 23
M  V30 23 1 22 24
M  V30 24 1 24 25
M  V30 25 1 25 26
M  V30 26 1 26 27
M  V30 27 1 13 5
M  V30 28 1 23 18
M  V30 29 1 27 21
M  V30 30 1 3 28
M  V30 31 1 4 29
M  V30 32 1 6 30
M  V30 33 1 7 31
M  V30 34 1 12 32
M  V30 35 1 13 33
M  V30 36 1 14 34
M  V30 37 1 15 35
M  V30 38 1 19 36
M  V30 39 1 20 37
M  V30 40 1 23 38
M  V30 41 1 25 39
M  V30 42 1 25 40
M  V30 43 1 26 41
M  V30 44 1 26 42
M  V30 END BOND
M  V30 END CTAB
M  END
>  <Dataset>  (533) 
ChEMBL_Kinases

>  <Ligand_Instance>  (533) 
nan

>  <PDB_ID>  (533) 
nan

>  <Standardized_SMILES>  (533) 
O=C(/C=C/c1ccc([N+](=O)[O-])cc1)NNC(=O)c1ccc2c(c1)OCCO2

>  <Name>  (533) 
nan

>  <Pocket>  (533) 
nan

>  <ATP_Site>  (533) 
nan

>  <Peripheral>  (533) 
nan

>  <Num_H_Atoms_ProtBoundConf>  (533) 
nan

>  <Num_Resolved_Atoms>  (533) 
nan

>  <Num_Not_Resolved_Atoms>  (533) 
nan

$$$$
CHEMBL3260247
     RDKit          3D

  0  0  0  0  0  0  0  0  0  0999 V3000
M  V30 BEGIN CTAB
M  V30 COUNTS 44 46 0 0 0
M  V30 BEGIN ATOM
M  V30 1 C -6.735856 -5.660387 -1.842476 0
M  V30 2 O -5.592271 -5.479348 -2.666774 0
M  V30 3 C -4.598404 -4.558950 -2.386210 0
M  V30 4 C -4.670924 -3.752990 -1.263391 0
M  V30 5 C -3.606873 -2.875168 -1.102571 0
M  V30 6 C -2.524567 -2.747521 -1.942076 0
M  V30 7 C -1.447038 -1.802342 -1.690716 0
M  V30 8 C -1.413812 -0.999381 -0.642723 0
M  V30 9 C -0.276111 -0.091419 -0.497220 0
M  V30 10 O 0.666681 -0.016348 -1.319015 0
M  V30 11 N -0.170700 0.781054 0.619676 0
M  V30 12 N 0.859126 1.702587 0.880757 0
M  V30 13 C 1.830763 0.927414 1.565696 0
M  V30 14 O 1.627645 -0.293374 1.790816 0
M  V30 15 C 3.159952 1.298410 2.112185 0
M  V30 16 C 4.157469 0.403123 2.245940 0
M  V30 17 C 5.339072 0.872563 2.835815 0
M  V30 18 C 5.384005 2.165661 3.218347 0
M  V30 19 C 4.366357 3.094843 3.087479 0
M  V30 20 C 3.173787 2.617092 2.488643 0
M  V30 21 O 4.676289 4.383273 3.584714 0
M  V30 22 C 5.330235 4.426297 4.860111 0
M  V30 23 C 6.596987 3.603269 4.817839 0
M  V30 24 O 6.566400 2.631136 3.803039 0
M  V30 25 C -2.528781 -3.567380 -3.013590 0
M  V30 26 C -3.539019 -4.500590 -3.295946 0
M  V30 27 H -6.439536 -5.584031 -0.775423 0
M  V30 28 H -7.216334 -6.629013 -2.071487 0
M  V30 29 H -7.438695 -4.840697 -2.144670 0
M  V30 30 H -5.493811 -3.802532 -0.560089 0
M  V30 31 H -3.712608 -2.266692 -0.205379 0
M  V30 32 H -0.624615 -1.747392 -2.387645 0
M  V30 33 H -2.182313 -0.996717 0.095842 0
M  V30 34 H -0.917247 0.774067 1.365723 0
M  V30 35 H 1.170701 2.691804 0.783380 0
M  V30 36 H 3.993655 -0.590263 1.897720 0
M  V30 37 H 6.157069 0.177394 2.952782 0
M  V30 38 H 2.423164 3.394067 2.410156 0
M  V30 39 H 4.633139 3.987801 5.619411 0
M  V30 40 H 5.496529 5.479762 5.113354 0
M  V30 41 H 6.765084 3.129239 5.822743 0
M  V30 42 H 7.425046 4.308659 4.616065 0
M  V30 43 H -1.735717 -3.563256 -3.747370 0
M  V30 44 H -3.536039 -5.154545 -4.155874 0
M  V30 END ATOM
M  V30 BEGIN BOND
M  V30 1 1 1 2
M  V30 2 1 2 3
M  V30 3 2 3 4
M  V30 4 1 4 5
M  V30 5 2 5 6
M  V30 6 1 6 7
M  V30 7 2 7 8
M  V30 8 1 8 9
M  V30 9 2 9 10
M  V30 10 1 9 11
M  V30 11 1 11 12
M  V30 12 1 12 13
M  V30 13 2 13 14
M  V30 14 1 13 15
M  V30 15 2 15 16
M  V30 16 1 16 17
M  V30 17 2 17 18
M  V30 18 1 18 19
M  V30 19 2 19 20
M  V30 20 1 19 21
M  V30 21 1 21 22
M  V30 22 1 22 23
M  V30 23 1 23 24
M  V30 24 1 6 25
M  V30 25 2 25 26
M  V30 26 1 26 3
M  V30 27 1 20 15
M  V30 28 1 24 18
M  V30 29 1 1 27
M  V30 30 1 1 28
M  V30 31 1 1 29
M  V30 32 1 4 30
M  V30 33 1 5 31
M  V30 34 1 7 32
M  V30 35 1 8 33
M  V30 36 1 11 34
M  V30 37 1 12 35
M  V30 38 1 16 36
M  V30 39 1 17 37
M  V30 40 1 20 38
M  V30 41 1 22 39
M  V30 42 1 22 40
M  V30 43 1 23 41
M  V30 44 1 23 42
M  V30 45 1 25 43
M  V30 46 1 26 44
M  V30 END BOND
M  V30 END CTAB
M  END
>  <Dataset>  (534) 
ChEMBL_Kinases

>  <Ligand_Instance>  (534) 
nan

>  <PDB_ID>  (534) 
nan

>  <Standardized_SMILES>  (534) 
COc1ccc(/C=C/C(=O)NNC(=O)c2ccc3c(c2)OCCO3)cc1

>  <Name>  (534) 
nan

>  <Pocket>  (534) 
nan

>  <ATP_Site>  (534) 
nan

>  <Peripheral>  (534) 
nan

>  <Num_H_Atoms_ProtBoundConf>  (534) 
nan

>  <Num_Resolved_Atoms>  (534) 
nan

>  <Num_Not_Resolved_Atoms>  (534) 
nan

$$$$
CHEMBL3260246
     RDKit          3D

  0  0  0  0  0  0  0  0  0  0999 V3000
M  V30 BEGIN CTAB
M  V30 COUNTS 43 45 0 0 0
M  V30 BEGIN ATOM
M  V30 1 C 0.019602 -7.834795 -4.244309 0
M  V30 2 C 0.283010 -6.632394 -3.432464 0
M  V30 3 C -0.271953 -5.423222 -3.802325 0
M  V30 4 C -0.068845 -4.257924 -3.093993 0
M  V30 5 C 0.718316 -4.266576 -1.961349 0
M  V30 6 C 0.955397 -3.052281 -1.190065 0
M  V30 7 C 1.674858 -2.907720 -0.101282 0
M  V30 8 C 1.897833 -1.681996 0.653455 0
M  V30 9 O 2.607816 -1.676753 1.679788 0
M  V30 10 N 1.320986 -0.455261 0.253989 0
M  V30 11 N 1.430720 0.803978 0.856597 0
M  V30 12 C 0.461017 1.161274 1.856421 0
M  V30 13 O -0.395020 0.242824 2.060091 0
M  V30 14 C 0.472030 2.438840 2.550244 0
M  V30 15 C 1.377968 3.478515 2.371169 0
M  V30 16 C 1.265334 4.644557 3.105531 0
M  V30 17 C 0.248701 4.791651 4.028733 0
M  V30 18 C -0.668726 3.777141 4.231156 0
M  V30 19 C -0.527824 2.627098 3.482188 0
M  V30 20 O -1.660177 3.984727 5.166807 0
M  V30 21 C -1.867729 5.213007 5.816837 0
M  V30 22 C -0.567709 5.973833 5.999120 0
M  V30 23 O 0.153394 5.983241 4.762796 0
M  V30 24 C 1.267739 -5.476318 -1.599514 0
M  V30 25 C 1.078258 -6.653880 -2.292508 0
M  V30 26 H -0.925897 -8.333319 -4.015634 0
M  V30 27 H 0.054526 -7.497639 -5.314182 0
M  V30 28 H 0.871041 -8.545379 -4.143639 0
M  V30 29 H -0.893878 -5.395464 -4.689856 0
M  V30 30 H -0.521309 -3.321483 -3.413026 0
M  V30 31 H 0.481210 -2.130456 -1.548037 0
M  V30 32 H 2.147072 -3.828383 0.253866 0
M  V30 33 H 0.713907 -0.357639 -0.587552 0
M  V30 34 H 2.166163 1.515721 0.639797 0
M  V30 35 H 2.142104 3.294554 1.636867 0
M  V30 36 H 2.008738 5.403184 2.906592 0
M  V30 37 H -1.304809 1.882985 3.717393 0
M  V30 38 H -2.312333 4.988328 6.801363 0
M  V30 39 H -2.543337 5.876803 5.214478 0
M  V30 40 H 0.086235 5.445595 6.716654 0
M  V30 41 H -0.804025 7.007885 6.297424 0
M  V30 42 H 1.893105 -5.584568 -0.735663 0
M  V30 43 H 1.511459 -7.601670 -2.005168 0
M  V30 END ATOM
M  V30 BEGIN BOND
M  V30 1 1 1 2
M  V30 2 2 2 3
M  V30 3 1 3 4
M  V30 4 2 4 5
M  V30 5 1 5 6
M  V30 6 2 6 7
M  V30 7 1 7 8
M  V30 8 2 8 9
M  V30 9 1 8 10
M  V30 10 1 10 11
M  V30 11 1 11 12
M  V30 12 2 12 13
M  V30 13 1 12 14
M  V30 14 2 14 15
M  V30 15 1 15 16
M  V30 16 2 16 17
M  V30 17 1 17 18
M  V30 18 2 18 19
M  V30 19 1 18 20
M  V30 20 1 20 21
M  V30 21 1 21 22
M  V30 22 1 22 23
M  V30 23 1 5 24
M  V30 24 2 24 25
M  V30 25 1 25 2
M  V30 26 1 19 14
M  V30 27 1 23 17
M  V30 28 1 1 26
M  V30 29 1 1 27
M  V30 30 1 1 28
M  V30 31 1 3 29
M  V30 32 1 4 30
M  V30 33 1 6 31
M  V30 34 1 7 32
M  V30 35 1 10 33
M  V30 36 1 11 34
M  V30 37 1 15 35
M  V30 38 1 16 36
M  V30 39 1 19 37
M  V30 40 1 21 38
M  V30 41 1 21 39
M  V30 42 1 22 40
M  V30 43 1 22 41
M  V30 44 1 24 42
M  V30 45 1 25 43
M  V30 END BOND
M  V30 END CTAB
M  END
>  <Dataset>  (535) 
ChEMBL_Kinases

>  <Ligand_Instance>  (535) 
nan

>  <PDB_ID>  (535) 
nan

>  <Standardized_SMILES>  (535) 
Cc1ccc(/C=C/C(=O)NNC(=O)c2ccc3c(c2)OCCO3)cc1

>  <Name>  (535) 
nan

>  <Pocket>  (535) 
nan

>  <ATP_Site>  (535) 
nan

>  <Peripheral>  (535) 
nan

>  <Num_H_Atoms_ProtBoundConf>  (535) 
nan

>  <Num_Resolved_Atoms>  (535) 
nan

>  <Num_Not_Resolved_Atoms>  (535) 
nan

$$$$
CHEMBL3260244
     RDKit          3D

  0  0  0  0  0  0  0  0  0  0999 V3000
M  V30 BEGIN CTAB
M  V30 COUNTS 40 42 0 0 0
M  V30 BEGIN ATOM
M  V30 1 O 2.355991 -2.171146 -0.054649 0
M  V30 2 C 1.129345 -2.113772 -0.368170 0
M  V30 3 C 0.605372 -3.295069 -1.052454 0
M  V30 4 C 1.311041 -4.365920 -1.351750 0
M  V30 5 C 0.792052 -5.551027 -2.034560 0
M  V30 6 C 1.622096 -6.600346 -2.308610 0
M  V30 7 C 1.167630 -7.758935 -2.951915 0
M  V30 8 C -0.176354 -7.703699 -3.262200 0
M  V30 9 Cl -0.828730 -9.136951 -4.072932 0
M  V30 10 C -1.014759 -6.652192 -2.989932 0
M  V30 11 C -0.538775 -5.525456 -2.355572 0
M  V30 12 N 0.350515 -0.977546 -0.057091 0
M  V30 13 N 0.811269 0.157258 0.604787 0
M  V30 14 C -0.116925 1.173535 0.967288 0
M  V30 15 O -1.299626 0.873508 0.602991 0
M  V30 16 C 0.325510 2.396088 1.685174 0
M  V30 17 C 1.570729 2.969480 1.882158 0
M  V30 18 C 1.653481 4.098282 2.669154 0
M  V30 19 C 0.561314 4.657873 3.251869 0
M  V30 20 C -0.713905 4.101371 3.073145 0
M  V30 21 C -0.819574 2.968561 2.284333 0
M  V30 22 O -1.678428 4.841240 3.769834 0
M  V30 23 C -1.363391 5.343782 5.070042 0
M  V30 24 C -0.162447 6.261192 5.004591 0
M  V30 25 O 0.778154 5.811817 4.033498 0
M  V30 26 H -0.416540 -3.267866 -1.316999 0
M  V30 27 H 2.347986 -4.323394 -1.047013 0
M  V30 28 H 2.676283 -6.518341 -2.010172 0
M  V30 29 H 1.854604 -8.555199 -3.144001 0
M  V30 30 H -2.066713 -6.763456 -3.298885 0
M  V30 31 H -1.291069 -4.779601 -2.200574 0
M  V30 32 H -0.633349 -1.099445 -0.386529 0
M  V30 33 H 1.827362 0.245941 0.827857 0
M  V30 34 H 2.308409 2.392315 1.345782 0
M  V30 35 H 2.687964 4.441699 2.736470 0
M  V30 36 H -1.845254 2.643956 2.225869 0
M  V30 37 H -2.214268 5.867641 5.521768 0
M  V30 38 H -1.139792 4.451993 5.705166 0
M  V30 39 H -0.476588 7.277354 4.693053 0
M  V30 40 H 0.262860 6.336027 6.015007 0
M  V30 END ATOM
M  V30 BEGIN BOND
M  V30 1 2 1 2
M  V30 2 1 2 3
M  V30 3 2 3 4
M  V30 4 1 4 5
M  V30 5 2 5 6
M  V30 6 1 6 7
M  V30 7 2 7 8
M  V30 8 1 8 9
M  V30 9 1 8 10
M  V30 10 2 10 11
M  V30 11 1 2 12
M  V30 12 1 12 13
M  V30 13 1 13 14
M  V30 14 2 14 15
M  V30 15 1 14 16
M  V30 16 2 16 17
M  V30 17 1 17 18
M  V30 18 2 18 19
M  V30 19 1 19 20
M  V30 20 2 20 21
M  V30 21 1 20 22
M  V30 22 1 22 23
M  V30 23 1 23 24
M  V30 24 1 24 25
M  V30 25 1 11 5
M  V30 26 1 21 16
M  V30 27 1 25 19
M  V30 28 1 3 26
M  V30 29 1 4 27
M  V30 30 1 6 28
M  V30 31 1 7 29
M  V30 32 1 10 30
M  V30 33 1 11 31
M  V30 34 1 12 32
M  V30 35 1 13 33
M  V30 36 1 17 34
M  V30 37 1 18 35
M  V30 38 1 21 36
M  V30 39 1 23 37
M  V30 40 1 23 38
M  V30 41 1 24 39
M  V30 42 1 24 40
M  V30 END BOND
M  V30 END CTAB
M  END
>  <Dataset>  (536) 
ChEMBL_Kinases

>  <Ligand_Instance>  (536) 
nan

>  <PDB_ID>  (536) 
nan

>  <Standardized_SMILES>  (536) 
O=C(/C=C/c1ccc(Cl)cc1)NNC(=O)c1ccc2c(c1)OCCO2

>  <Name>  (536) 
nan

>  <Pocket>  (536) 
nan

>  <ATP_Site>  (536) 
nan

>  <Peripheral>  (536) 
nan

>  <Num_H_Atoms_ProtBoundConf>  (536) 
nan

>  <Num_Resolved_Atoms>  (536) 
nan

>  <Num_Not_Resolved_Atoms>  (536) 
nan

$$$$
CHEMBL3260243
     RDKit          3D

  0  0  0  0  0  0  0  0  0  0999 V3000
M  V30 BEGIN CTAB
M  V30 COUNTS 40 42 0 0 0
M  V30 BEGIN ATOM
M  V30 1 O 2.281378 0.425843 1.400947 0
M  V30 2 C 1.723745 -0.641927 1.748350 0
M  V30 3 C 2.656639 -1.680871 2.166854 0
M  V30 4 C 3.949564 -1.724304 2.275881 0
M  V30 5 C 5.156580 -2.401074 2.589282 0
M  V30 6 C 6.464506 -1.981419 2.556489 0
M  V30 7 C 7.406514 -2.903542 2.940455 0
M  V30 8 C 7.120195 -4.173442 3.338631 0
M  V30 9 F 8.134859 -5.007532 3.704081 0
M  V30 10 C 5.828300 -4.642191 3.388189 0
M  V30 11 C 4.855566 -3.702447 2.997098 0
M  V30 12 N 0.393374 -1.054690 1.823049 0
M  V30 13 N -0.645909 -0.189409 1.456198 0
M  V30 14 C -1.026963 -0.390413 0.113002 0
M  V30 15 O -0.359566 -1.304209 -0.468421 0
M  V30 16 C -2.059826 0.319237 -0.612947 0
M  V30 17 C -2.364144 -0.103007 -1.896257 0
M  V30 18 C -3.355712 0.549073 -2.637947 0
M  V30 19 C -4.037402 1.635645 -2.065156 0
M  V30 20 C -3.701578 2.033267 -0.765727 0
M  V30 21 C -2.722796 1.373139 -0.061270 0
M  V30 22 O -4.475358 3.108636 -0.384147 0
M  V30 23 C -5.827808 3.300078 -0.727496 0
M  V30 24 C -6.158340 2.921293 -2.147678 0
M  V30 25 O -5.027040 2.308334 -2.761635 0
M  V30 26 H 2.446992 -2.722359 2.507340 0
M  V30 27 H 4.254713 -0.692224 1.956318 0
M  V30 28 H 6.582364 -0.966753 2.227251 0
M  V30 29 H 8.419393 -2.542657 2.907541 0
M  V30 30 H 5.598544 -5.647586 3.701740 0
M  V30 31 H 3.852471 -4.160681 3.064976 0
M  V30 32 H 0.059560 -1.985816 2.135426 0
M  V30 33 H -1.185674 0.562214 1.977218 0
M  V30 34 H -1.897294 -0.934899 -2.422072 0
M  V30 35 H -3.596123 0.223201 -3.641909 0
M  V30 36 H -2.541167 1.746624 0.919142 0
M  V30 37 H -6.062132 4.405334 -0.627868 0
M  V30 38 H -6.502155 2.725928 -0.030882 0
M  V30 39 H -7.044419 2.232721 -2.197271 0
M  V30 40 H -6.390369 3.834438 -2.740947 0
M  V30 END ATOM
M  V30 BEGIN BOND
M  V30 1 2 1 2
M  V30 2 1 2 3
M  V30 3 2 3 4
M  V30 4 1 4 5
M  V30 5 2 5 6
M  V30 6 1 6 7
M  V30 7 2 7 8
M  V30 8 1 8 9
M  V30 9 1 8 10
M  V30 10 2 10 11
M  V30 11 1 2 12
M  V30 12 1 12 13
M  V30 13 1 13 14
M  V30 14 2 14 15
M  V30 15 1 14 16
M  V30 16 2 16 17
M  V30 17 1 17 18
M  V30 18 2 18 19
M  V30 19 1 19 20
M  V30 20 2 20 21
M  V30 21 1 20 22
M  V30 22 1 22 23
M  V30 23 1 23 24
M  V30 24 1 24 25
M  V30 25 1 11 5
M  V30 26 1 21 16
M  V30 27 1 25 19
M  V30 28 1 3 26
M  V30 29 1 4 27
M  V30 30 1 6 28
M  V30 31 1 7 29
M  V30 32 1 10 30
M  V30 33 1 11 31
M  V30 34 1 12 32
M  V30 35 1 13 33
M  V30 36 1 17 34
M  V30 37 1 18 35
M  V30 38 1 21 36
M  V30 39 1 23 37
M  V30 40 1 23 38
M  V30 41 1 24 39
M  V30 42 1 24 40
M  V30 END BOND
M  V30 END CTAB
M  END
>  <Dataset>  (537) 
ChEMBL_Kinases

>  <Ligand_Instance>  (537) 
nan

>  <PDB_ID>  (537) 
nan

>  <Standardized_SMILES>  (537) 
O=C(/C=C/c1ccc(F)cc1)NNC(=O)c1ccc2c(c1)OCCO2

>  <Name>  (537) 
nan

>  <Pocket>  (537) 
nan

>  <ATP_Site>  (537) 
nan

>  <Peripheral>  (537) 
nan

>  <Num_H_Atoms_ProtBoundConf>  (537) 
nan

>  <Num_Resolved_Atoms>  (537) 
nan

>  <Num_Not_Resolved_Atoms>  (537) 
nan

$$$$
CHEMBL3260242
     RDKit          3D

  0  0  0  0  0  0  0  0  0  0999 V3000
M  V30 BEGIN CTAB
M  V30 COUNTS 42 44 0 0 0
M  V30 BEGIN ATOM
M  V30 1 O 1.600267 0.082725 2.085393 0
M  V30 2 C 1.243174 0.696535 1.048573 0
M  V30 3 C 2.135606 1.615964 0.350313 0
M  V30 4 C 1.838068 2.295032 -0.737401 0
M  V30 5 C 2.721219 3.215800 -1.443270 0
M  V30 6 C 2.297218 3.876421 -2.578193 0
M  V30 7 C 3.076956 4.748383 -3.281338 0
M  V30 8 C 4.366299 4.989052 -2.838203 0
M  V30 9 C 4.847851 4.358675 -1.709610 0
M  V30 10 N 6.182309 4.602000 -1.244736 0 CHG=1 VAL=4
M  V30 11 O 6.897809 5.393612 -1.878541 0
M  V30 12 O 6.622144 3.956550 -0.122221 0 CHG=-1 VAL=1
M  V30 13 C 4.011761 3.487724 -1.041073 0
M  V30 14 N -0.081363 0.411908 0.636843 0
M  V30 15 N -0.771572 -0.514029 1.465612 0
M  V30 16 C -0.541112 -1.826890 0.980121 0
M  V30 17 O 0.195418 -1.899547 -0.040699 0
M  V30 18 C -1.075091 -3.045213 1.556840 0
M  V30 19 C -0.740114 -4.233530 0.942433 0
M  V30 20 C -1.228156 -5.412914 1.461944 0
M  V30 21 C -2.045611 -5.364567 2.593295 0
M  V30 22 C -2.381149 -4.180952 3.207772 0
M  V30 23 C -1.885082 -2.996390 2.677927 0
M  V30 24 O -3.189582 -4.304755 4.304413 0
M  V30 25 C -4.235102 -5.259353 4.293583 0
M  V30 26 C -3.742452 -6.626145 3.884900 0
M  V30 27 O -2.560950 -6.511405 3.154805 0
M  V30 28 H 3.127402 1.752727 0.759922 0
M  V30 29 H 0.842291 2.141768 -1.127093 0
M  V30 30 H 1.280417 3.688303 -2.929547 0
M  V30 31 H 2.727929 5.257311 -4.168724 0
M  V30 32 H 4.975949 5.684864 -3.407319 0
M  V30 33 H 4.417050 3.016271 -0.169396 0
M  V30 34 H -0.465218 0.876285 -0.215996 0
M  V30 35 H -1.378257 -0.411290 2.311316 0
M  V30 36 H -0.103914 -4.281138 0.060436 0
M  V30 37 H -0.987549 -6.386769 1.004562 0
M  V30 38 H -2.158262 -2.085324 3.171240 0
M  V30 39 H -4.687737 -5.313089 5.321918 0
M  V30 40 H -5.086819 -4.927715 3.641980 0
M  V30 41 H -4.553343 -7.087456 3.266922 0
M  V30 42 H -3.643810 -7.271980 4.782006 0
M  V30 END ATOM
M  V30 BEGIN BOND
M  V30 1 2 1 2
M  V30 2 1 2 3
M  V30 3 2 3 4
M  V30 4 1 4 5
M  V30 5 2 5 6
M  V30 6 1 6 7
M  V30 7 2 7 8
M  V30 8 1 8 9
M  V30 9 1 9 10
M  V30 10 2 10 11
M  V30 11 1 10 12
M  V30 12 2 9 13
M  V30 13 1 2 14
M  V30 14 1 14 15
M  V30 15 1 15 16
M  V30 16 2 16 17
M  V30 17 1 16 18
M  V30 18 2 18 19
M  V30 19 1 19 20
M  V30 20 2 20 21
M  V30 21 1 21 22
M  V30 22 2 22 23
M  V30 23 1 22 24
M  V30 24 1 24 25
M  V30 25 1 25 26
M  V30 26 1 26 27
M  V30 27 1 13 5
M  V30 28 1 23 18
M  V30 29 1 27 21
M  V30 30 1 3 28
M  V30 31 1 4 29
M  V30 32 1 6 30
M  V30 33 1 7 31
M  V30 34 1 8 32
M  V30 35 1 13 33
M  V30 36 1 14 34
M  V30 37 1 15 35
M  V30 38 1 19 36
M  V30 39 1 20 37
M  V30 40 1 23 38
M  V30 41 1 25 39
M  V30 42 1 25 40
M  V30 43 1 26 41
M  V30 44 1 26 42
M  V30 END BOND
M  V30 END CTAB
M  END
>  <Dataset>  (538) 
ChEMBL_Kinases

>  <Ligand_Instance>  (538) 
nan

>  <PDB_ID>  (538) 
nan

>  <Standardized_SMILES>  (538) 
O=C(/C=C/c1cccc([N+](=O)[O-])c1)NNC(=O)c1ccc2c(c1)OCCO2

>  <Name>  (538) 
nan

>  <Pocket>  (538) 
nan

>  <ATP_Site>  (538) 
nan

>  <Peripheral>  (538) 
nan

>  <Num_H_Atoms_ProtBoundConf>  (538) 
nan

>  <Num_Resolved_Atoms>  (538) 
nan

>  <Num_Not_Resolved_Atoms>  (538) 
nan

$$$$
CHEMBL3260241
     RDKit          3D

  0  0  0  0  0  0  0  0  0  0999 V3000
M  V30 BEGIN CTAB
M  V30 COUNTS 44 46 0 0 0
M  V30 BEGIN ATOM
M  V30 1 C 1.437043 -2.443822 -7.560293 0
M  V30 2 O 1.296499 -2.250235 -6.192268 0
M  V30 3 C 2.106659 -1.392561 -5.466233 0
M  V30 4 C 3.138436 -0.623775 -5.953025 0
M  V30 5 C 3.896736 0.204844 -5.163288 0
M  V30 6 C 3.637624 0.293764 -3.813558 0
M  V30 7 C 2.598235 -0.468711 -3.270080 0
M  V30 8 C 2.370751 -0.328493 -1.837143 0
M  V30 9 C 1.443541 -0.976348 -1.177718 0
M  V30 10 C 1.174945 -0.866356 0.273309 0
M  V30 11 O 0.254309 -1.528201 0.856386 0
M  V30 12 N 1.879303 -0.035285 1.196014 0
M  V30 13 N 1.249402 -0.284199 2.443009 0
M  V30 14 C 0.195828 0.493651 2.963772 0
M  V30 15 O -0.141894 1.443402 2.214204 0
M  V30 16 C -0.415295 0.191117 4.254773 0
M  V30 17 C -0.041116 -0.863336 5.059054 0
M  V30 18 C -0.645498 -1.111090 6.272051 0
M  V30 19 C -1.648611 -0.244716 6.639855 0
M  V30 20 C -2.042699 0.816687 5.856072 0
M  V30 21 C -1.436085 1.059919 4.645769 0
M  V30 22 O -3.078319 1.590995 6.390124 0
M  V30 23 C -4.192460 0.958824 7.033831 0
M  V30 24 C -3.733157 -0.154389 7.941565 0
M  V30 25 O -2.333543 -0.381981 7.829447 0
M  V30 26 C 1.870882 -1.278142 -4.091148 0
M  V30 27 H 2.132420 -3.287099 -7.796782 0
M  V30 28 H 1.787782 -1.507164 -8.035966 0
M  V30 29 H 0.407395 -2.709383 -7.946016 0
M  V30 30 H 3.339931 -0.693735 -7.008585 0
M  V30 31 H 4.692850 0.770318 -5.659846 0
M  V30 32 H 4.276827 0.966204 -3.263310 0
M  V30 33 H 2.958188 0.325276 -1.223179 0
M  V30 34 H 0.788326 -1.666749 -1.690390 0
M  V30 35 H 2.651906 0.561706 0.771978 0
M  V30 36 H 1.641271 -1.107601 2.949607 0
M  V30 37 H 0.750540 -1.518291 4.730947 0
M  V30 38 H -0.349906 -1.933925 6.894637 0
M  V30 39 H -1.767967 1.900999 4.054893 0
M  V30 40 H -4.751808 1.727935 7.602160 0
M  V30 41 H -4.858744 0.564569 6.216115 0
M  V30 42 H -4.200505 -1.125987 7.634639 0
M  V30 43 H -4.019059 0.101766 8.982617 0
M  V30 44 H 1.076923 -1.861222 -3.680412 0
M  V30 END ATOM
M  V30 BEGIN BOND
M  V30 1 1 1 2
M  V30 2 1 2 3
M  V30 3 2 3 4
M  V30 4 1 4 5
M  V30 5 2 5 6
M  V30 6 1 6 7
M  V30 7 1 7 8
M  V30 8 2 8 9
M  V30 9 1 9 10
M  V30 10 2 10 11
M  V30 11 1 10 12
M  V30 12 1 12 13
M  V30 13 1 13 14
M  V30 14 2 14 15
M  V30 15 1 14 16
M  V30 16 2 16 17
M  V30 17 1 17 18
M  V30 18 2 18 19
M  V30 19 1 19 20
M  V30 20 2 20 21
M  V30 21 1 20 22
M  V30 22 1 22 23
M  V30 23 1 23 24
M  V30 24 1 24 25
M  V30 25 2 7 26
M  V30 26 1 26 3
M  V30 27 1 21 16
M  V30 28 1 25 19
M  V30 29 1 1 27
M  V30 30 1 1 28
M  V30 31 1 1 29
M  V30 32 1 4 30
M  V30 33 1 5 31
M  V30 34 1 6 32
M  V30 35 1 8 33
M  V30 36 1 9 34
M  V30 37 1 12 35
M  V30 38 1 13 36
M  V30 39 1 17 37
M  V30 40 1 18 38
M  V30 41 1 21 39
M  V30 42 1 23 40
M  V30 43 1 23 41
M  V30 44 1 24 42
M  V30 45 1 24 43
M  V30 46 1 26 44
M  V30 END BOND
M  V30 END CTAB
M  END
>  <Dataset>  (539) 
ChEMBL_Kinases

>  <Ligand_Instance>  (539) 
nan

>  <PDB_ID>  (539) 
nan

>  <Standardized_SMILES>  (539) 
COc1cccc(/C=C/C(=O)NNC(=O)c2ccc3c(c2)OCCO3)c1

>  <Name>  (539) 
nan

>  <Pocket>  (539) 
nan

>  <ATP_Site>  (539) 
nan

>  <Peripheral>  (539) 
nan

>  <Num_H_Atoms_ProtBoundConf>  (539) 
nan

>  <Num_Resolved_Atoms>  (539) 
nan

>  <Num_Not_Resolved_Atoms>  (539) 
nan

$$$$
CHEMBL3260236
     RDKit          3D

  0  0  0  0  0  0  0  0  0  0999 V3000
M  V30 BEGIN CTAB
M  V30 COUNTS 42 44 0 0 0
M  V30 BEGIN ATOM
M  V30 1 O 1.205134 -1.330494 -0.305633 0
M  V30 2 C 1.433273 -0.108986 -0.117451 0
M  V30 3 C 2.281274 0.703189 -1.005321 0
M  V30 4 C 2.553992 1.973660 -0.860877 0
M  V30 5 C 3.396706 2.750797 -1.755987 0
M  V30 6 C 4.005399 2.217833 -2.869987 0
M  V30 7 C 4.794484 2.999532 -3.685744 0
M  V30 8 C 5.013898 4.335824 -3.435147 0
M  V30 9 C 4.403907 4.878770 -2.315090 0
M  V30 10 C 3.618843 4.077609 -1.513392 0
M  V30 11 N 3.071549 4.777960 -0.415708 0 CHG=1 VAL=4
M  V30 12 O 2.824843 5.982796 -0.372194 0
M  V30 13 O 2.638463 4.531735 0.858675 0 CHG=-1 VAL=1
M  V30 14 N 0.783479 0.397144 1.043711 0
M  V30 15 N 0.067191 -0.681052 1.628260 0
M  V30 16 C -1.278657 -1.000684 1.295935 0
M  V30 17 O -1.912861 -0.324108 0.445790 0
M  V30 18 C -1.981257 -2.119744 1.920552 0
M  V30 19 C -3.285810 -2.367961 1.542304 0
M  V30 20 C -4.008188 -3.408045 2.091058 0
M  V30 21 C -3.454138 -4.241701 3.040577 0
M  V30 22 C -2.131487 -4.003871 3.435618 0
M  V30 23 C -1.412565 -2.943978 2.868660 0
M  V30 24 O -1.554125 -4.831867 4.390811 0
M  V30 25 C -1.973228 -6.147466 4.671913 0
M  V30 26 C -3.320469 -6.468593 4.076136 0
M  V30 27 O -4.028055 -5.316389 3.685026 0
M  V30 28 H 2.701826 0.165755 -1.846153 0
M  V30 29 H 2.103557 2.435425 -0.009585 0
M  V30 30 H 3.883775 1.196213 -3.129159 0
M  V30 31 H 5.266802 2.558054 -4.562019 0
M  V30 32 H 5.643889 4.905928 -4.109534 0
M  V30 33 H 4.600241 5.923155 -2.155638 0
M  V30 34 H 0.913115 1.417374 1.288287 0
M  V30 35 H 0.604515 -1.234228 2.331514 0
M  V30 36 H -3.827041 -1.784783 0.808822 0
M  V30 37 H -5.030941 -3.655109 1.838572 0
M  V30 38 H -0.407500 -2.779139 3.182433 0
M  V30 39 H -1.197069 -6.852941 4.328690 0
M  V30 40 H -2.055303 -6.273984 5.779499 0
M  V30 41 H -3.148507 -7.080120 3.166822 0
M  V30 42 H -3.938065 -7.066055 4.776670 0
M  V30 END ATOM
M  V30 BEGIN BOND
M  V30 1 2 1 2
M  V30 2 1 2 3
M  V30 3 2 3 4
M  V30 4 1 4 5
M  V30 5 2 5 6
M  V30 6 1 6 7
M  V30 7 2 7 8
M  V30 8 1 8 9
M  V30 9 2 9 10
M  V30 10 1 10 11
M  V30 11 2 11 12
M  V30 12 1 11 13
M  V30 13 1 2 14
M  V30 14 1 14 15
M  V30 15 1 15 16
M  V30 16 2 16 17
M  V30 17 1 16 18
M  V30 18 2 18 19
M  V30 19 1 19 20
M  V30 20 2 20 21
M  V30 21 1 21 22
M  V30 22 2 22 23
M  V30 23 1 22 24
M  V30 24 1 24 25
M  V30 25 1 25 26
M  V30 26 1 26 27
M  V30 27 1 10 5
M  V30 28 1 23 18
M  V30 29 1 27 21
M  V30 30 1 3 28
M  V30 31 1 4 29
M  V30 32 1 6 30
M  V30 33 1 7 31
M  V30 34 1 8 32
M  V30 35 1 9 33
M  V30 36 1 14 34
M  V30 37 1 15 35
M  V30 38 1 19 36
M  V30 39 1 20 37
M  V30 40 1 23 38
M  V30 41 1 25 39
M  V30 42 1 25 40
M  V30 43 1 26 41
M  V30 44 1 26 42
M  V30 END BOND
M  V30 END CTAB
M  END
>  <Dataset>  (540) 
ChEMBL_Kinases

>  <Ligand_Instance>  (540) 
nan

>  <PDB_ID>  (540) 
nan

>  <Standardized_SMILES>  (540) 
O=C(/C=C/c1ccccc1[N+](=O)[O-])NNC(=O)c1ccc2c(c1)OCCO2

>  <Name>  (540) 
nan

>  <Pocket>  (540) 
nan

>  <ATP_Site>  (540) 
nan

>  <Peripheral>  (540) 
nan

>  <Num_H_Atoms_ProtBoundConf>  (540) 
nan

>  <Num_Resolved_Atoms>  (540) 
nan

>  <Num_Not_Resolved_Atoms>  (540) 
nan

$$$$
CHEMBL3259833
     RDKit          3D

  0  0  0  0  0  0  0  0  0  0999 V3000
M  V30 BEGIN CTAB
M  V30 COUNTS 37 38 0 0 0
M  V30 BEGIN ATOM
M  V30 1 O 0.453419 -1.072098 0.832565 0
M  V30 2 C 0.386795 -0.574289 -0.319637 0
M  V30 3 N 0.495929 -1.597985 -1.300388 0
M  V30 4 C 0.662557 -3.010510 -1.059880 0
M  V30 5 C 1.925559 -3.355557 -0.302478 0 CFG=1
M  V30 6 O 1.964114 -4.740525 -0.142643 0
M  V30 7 C 3.144092 -2.876073 -1.034940 0
M  V30 8 O 4.278714 -3.218852 -0.306761 0
M  V30 9 C 0.224991 0.809176 -0.691445 0
M  V30 10 N 0.286801 1.136510 -1.993308 0
M  V30 11 C 0.193674 2.395577 -2.437730 0
M  V30 12 N 0.029502 3.415659 -1.573335 0
M  V30 13 C -0.033630 3.080093 -0.253765 0
M  V30 14 C 0.059517 1.772930 0.243546 0
M  V30 15 N -0.017823 1.558944 1.639860 0
M  V30 16 C -0.934852 0.885254 2.491967 0
M  V30 17 C -2.099130 0.243037 2.134772 0
M  V30 18 C -2.947627 -0.389909 2.984408 0
M  V30 19 C -2.616762 -0.389346 4.310468 0
M  V30 20 I -3.884342 -1.350843 5.686865 0
M  V30 21 C -1.458797 0.242473 4.712282 0
M  V30 22 C -0.612690 0.878696 3.831001 0
M  V30 23 F 0.520931 1.485139 4.305801 0
M  V30 24 H 0.445577 -1.254954 -2.311601 0
M  V30 25 H -0.217603 -3.389098 -0.493880 0
M  V30 26 H 0.741767 -3.524093 -2.032851 0
M  V30 27 H 1.918540 -2.838173 0.672754 0
M  V30 28 H 2.359490 -5.131137 -0.962552 0
M  V30 29 H 3.125065 -1.775180 -1.091450 0
M  V30 30 H 3.226069 -3.331384 -2.053652 0
M  V30 31 H 4.456383 -4.186625 -0.452174 0
M  V30 32 H 0.250879 2.593979 -3.499995 0
M  V30 33 H -0.166717 3.885678 0.475991 0
M  V30 34 H 0.818770 2.036144 1.996697 0
M  V30 35 H -2.326117 0.267090 1.060733 0
M  V30 36 H -3.851600 -0.871690 2.593646 0
M  V30 37 H -1.203798 0.235516 5.784082 0
M  V30 END ATOM
M  V30 BEGIN BOND
M  V30 1 2 1 2
M  V30 2 1 2 3
M  V30 3 1 3 4
M  V30 4 1 4 5
M  V30 5 1 5 6
M  V30 6 1 5 7
M  V30 7 1 7 8
M  V30 8 1 2 9
M  V30 9 2 9 10
M  V30 10 1 10 11
M  V30 11 2 11 12
M  V30 12 1 12 13
M  V30 13 2 13 14
M  V30 14 1 14 15
M  V30 15 1 15 16
M  V30 16 2 16 17
M  V30 17 1 17 18
M  V30 18 2 18 19
M  V30 19 1 19 20
M  V30 20 1 19 21
M  V30 21 2 21 22
M  V30 22 1 22 23
M  V30 23 1 14 9
M  V30 24 1 22 16
M  V30 25 1 3 24
M  V30 26 1 4 25
M  V30 27 1 4 26
M  V30 28 1 5 27 CFG=1
M  V30 29 1 6 28
M  V30 30 1 7 29
M  V30 31 1 7 30
M  V30 32 1 8 31
M  V30 33 1 11 32
M  V30 34 1 13 33
M  V30 35 1 15 34
M  V30 36 1 17 35
M  V30 37 1 18 36
M  V30 38 1 21 37
M  V30 END BOND
M  V30 END CTAB
M  END
>  <Dataset>  (541) 
ChEMBL_Kinases

>  <Ligand_Instance>  (541) 
nan

>  <PDB_ID>  (541) 
nan

>  <Standardized_SMILES>  (541) 
O=C(NC[C@@H](O)CO)c1ncncc1Nc1ccc(I)cc1F

>  <Name>  (541) 
nan

>  <Pocket>  (541) 
nan

>  <ATP_Site>  (541) 
nan

>  <Peripheral>  (541) 
nan

>  <Num_H_Atoms_ProtBoundConf>  (541) 
nan

>  <Num_Resolved_Atoms>  (541) 
nan

>  <Num_Not_Resolved_Atoms>  (541) 
nan

$$$$
CHEMBL325854
     RDKit          3D

  0  0  0  0  0  0  0  0  0  0999 V3000
M  V30 BEGIN CTAB
M  V30 COUNTS 49 53 0 0 0
M  V30 BEGIN ATOM
M  V30 1 C 0.502780 -1.785552 5.119912 0
M  V30 2 C 1.591895 -1.966806 4.164150 0
M  V30 3 C 2.858372 -1.997393 4.743628 0
M  V30 4 C 4.006948 -2.125794 3.994128 0
M  V30 5 C 3.869124 -2.225251 2.632222 0
M  V30 6 C 2.623236 -2.192972 2.100389 0
M  V30 7 C 1.437709 -2.065377 2.820997 0
M  V30 8 N 0.204910 -2.022412 2.132439 0
M  V30 9 N 0.273034 -1.386291 0.860473 0
M  V30 10 C -0.807347 -1.260641 0.177280 0
M  V30 11 C -0.720372 -0.598312 -1.143032 0
M  V30 12 C -0.451525 0.766531 -1.309591 0
M  V30 13 C -0.203822 1.824239 -0.340004 0
M  V30 14 C 0.754697 1.944551 0.642874 0
M  V30 15 C 0.808864 3.039599 1.449560 0
M  V30 16 C -0.094226 4.083607 1.321805 0
M  V30 17 F 0.117026 5.077752 2.208913 0
M  V30 18 C -1.069363 4.004948 0.351365 0
M  V30 19 C -1.106181 2.887998 -0.453869 0
M  V30 20 F -2.117581 2.928254 -1.375687 0
M  V30 21 N -0.463425 1.010681 -2.637131 0
M  V30 22 C -0.726058 -0.139375 -3.290059 0
M  V30 23 C -0.849849 -0.440770 -4.632319 0
M  V30 24 C -1.130966 -1.725895 -5.054751 0
M  V30 25 C -1.288070 -2.714206 -4.106381 0
M  V30 26 C -1.153147 -2.355479 -2.780584 0
M  V30 27 N -0.878871 -1.098690 -2.388034 0
M  V30 28 C -2.217878 -1.662602 0.478978 0
M  V30 29 C -2.352781 -1.868879 1.985037 0
M  V30 30 C -1.094673 -2.455031 2.492161 0
M  V30 31 O -1.067168 -3.432218 3.320097 0
M  V30 32 H -0.391832 -1.265376 4.742516 0
M  V30 33 H 0.176827 -2.721016 5.610266 0
M  V30 34 H 0.832689 -1.143538 6.004833 0
M  V30 35 H 3.023864 -1.920601 5.824407 0
M  V30 36 H 4.995743 -2.149590 4.461468 0
M  V30 37 H 4.750608 -2.327739 2.013184 0
M  V30 38 H 2.568113 -2.275987 1.006923 0
M  V30 39 H 1.422473 1.110143 0.682188 0
M  V30 40 H 1.626478 2.977130 2.174739 0
M  V30 41 H -1.733806 4.831140 0.298522 0
M  V30 42 H -0.721271 0.354397 -5.354942 0
M  V30 43 H -1.223119 -1.934236 -6.120632 0
M  V30 44 H -1.508618 -3.732966 -4.373059 0
M  V30 45 H -1.277213 -3.134581 -2.061410 0
M  V30 46 H -2.575437 -2.503944 -0.108974 0
M  V30 47 H -2.852332 -0.784773 0.255987 0
M  V30 48 H -2.625506 -0.927224 2.491607 0
M  V30 49 H -3.150049 -2.606905 2.213010 0
M  V30 END ATOM
M  V30 BEGIN BOND
M  V30 1 1 1 2
M  V30 2 2 2 3
M  V30 3 1 3 4
M  V30 4 2 4 5
M  V30 5 1 5 6
M  V30 6 2 6 7
M  V30 7 1 7 8
M  V30 8 1 8 9
M  V30 9 2 9 10
M  V30 10 1 10 11
M  V30 11 2 11 12
M  V30 12 1 12 13
M  V30 13 2 13 14
M  V30 14 1 14 15
M  V30 15 2 15 16
M  V30 16 1 16 17
M  V30 17 1 16 18
M  V30 18 2 18 19
M  V30 19 1 19 20
M  V30 20 1 12 21
M  V30 21 2 21 22
M  V30 22 1 22 23
M  V30 23 2 23 24
M  V30 24 1 24 25
M  V30 25 2 25 26
M  V30 26 1 26 27
M  V30 27 1 10 28
M  V30 28 1 28 29
M  V30 29 1 29 30
M  V30 30 2 30 31
M  V30 31 1 7 2
M  V30 32 1 30 8
M  V30 33 1 27 11
M  V30 34 1 19 13
M  V30 35 1 27 22
M  V30 36 1 1 32
M  V30 37 1 1 33
M  V30 38 1 1 34
M  V30 39 1 3 35
M  V30 40 1 4 36
M  V30 41 1 5 37
M  V30 42 1 6 38
M  V30 43 1 14 39
M  V30 44 1 15 40
M  V30 45 1 18 41
M  V30 46 1 23 42
M  V30 47 1 24 43
M  V30 48 1 25 44
M  V30 49 1 26 45
M  V30 50 1 28 46
M  V30 51 1 28 47
M  V30 52 1 29 48
M  V30 53 1 29 49
M  V30 END BOND
M  V30 END CTAB
M  END
>  <Dataset>  (542) 
ChEMBL_Kinases

>  <Ligand_Instance>  (542) 
nan

>  <PDB_ID>  (542) 
nan

>  <Standardized_SMILES>  (542) 
Cc1ccccc1N1N=C(c2c(-c3ccc(F)cc3F)nc3ccccn23)CCC1=O

>  <Name>  (542) 
nan

>  <Pocket>  (542) 
nan

>  <ATP_Site>  (542) 
nan

>  <Peripheral>  (542) 
nan

>  <Num_H_Atoms_ProtBoundConf>  (542) 
nan

>  <Num_Resolved_Atoms>  (542) 
nan

>  <Num_Not_Resolved_Atoms>  (542) 
nan

$$$$
CHEMBL325817
     RDKit          3D

  0  0  0  0  0  0  0  0  0  0999 V3000
M  V30 BEGIN CTAB
M  V30 COUNTS 46 49 0 0 0
M  V30 BEGIN ATOM
M  V30 1 O -0.938244 -4.764422 3.163231 0
M  V30 2 C -0.023886 -4.045442 2.696211 0
M  V30 3 N 1.357137 -4.377381 2.761472 0
M  V30 4 C 2.031670 -3.292573 2.121372 0
M  V30 5 O 3.292441 -3.388854 2.069018 0
M  V30 6 C 0.990922 -2.333685 1.689656 0
M  V30 7 C 1.451805 -1.152796 0.964983 0
M  V30 8 C 0.914600 -0.684761 -0.235494 0
M  V30 9 N 1.558340 0.441141 -0.660157 0
M  V30 10 C 1.332926 1.236751 -1.849210 0
M  V30 11 C 0.349155 2.340951 -1.626719 0
M  V30 12 C -1.008171 1.808823 -1.200156 0
M  V30 13 O -1.939707 2.820734 -0.984631 0
M  V30 14 C 2.512829 0.718839 0.249989 0
M  V30 15 N 3.418489 1.712623 0.314302 0
M  V30 16 C 4.310806 1.822966 1.340710 0
M  V30 17 C 4.253362 0.859661 2.334435 0
M  V30 18 C 3.330460 -0.170587 2.287469 0
M  V30 19 C 2.449118 -0.244070 1.233346 0
M  V30 20 C -0.235988 -2.773190 2.027048 0
M  V30 21 C -1.341644 -1.900730 1.704886 0
M  V30 22 C -1.268325 -0.646508 2.327383 0
M  V30 23 C -2.176186 0.389326 2.168012 0
M  V30 24 C -3.233152 0.179305 1.336866 0
M  V30 25 C -3.335532 -1.025858 0.715628 0
M  V30 26 C -2.419007 -2.073297 0.875291 0
M  V30 27 C -2.578932 -3.336319 0.157126 0
M  V30 28 F -2.751835 -4.431528 0.941485 0
M  V30 29 F -1.508801 -3.592312 -0.697331 0
M  V30 30 F -3.707314 -3.227149 -0.635965 0
M  V30 31 H 1.718606 -5.270418 3.212919 0
M  V30 32 H 0.096266 -1.148424 -0.765178 0
M  V30 33 H 2.292400 1.695631 -2.156662 0
M  V30 34 H 0.934678 0.534417 -2.614610 0
M  V30 35 H 0.189038 2.869708 -2.581079 0
M  V30 36 H 0.745633 3.071575 -0.901611 0
M  V30 37 H -1.431601 1.146209 -1.970535 0
M  V30 38 H -0.892755 1.249649 -0.250909 0
M  V30 39 H -2.487443 2.611058 -0.201820 0
M  V30 40 H 5.047536 2.613018 1.413028 0
M  V30 41 H 4.954564 0.944334 3.144011 0
M  V30 42 H 3.317141 -0.893314 3.085160 0
M  V30 43 H -0.447684 -0.384939 3.016349 0
M  V30 44 H -2.070078 1.334734 2.672311 0
M  V30 45 H -3.984627 0.930227 1.157541 0
M  V30 46 H -4.180715 -1.219594 0.038730 0
M  V30 END ATOM
M  V30 BEGIN BOND
M  V30 1 2 1 2
M  V30 2 1 2 3
M  V30 3 1 3 4
M  V30 4 2 4 5
M  V30 5 1 4 6
M  V30 6 1 6 7
M  V30 7 2 7 8
M  V30 8 1 8 9
M  V30 9 1 9 10
M  V30 10 1 10 11
M  V30 11 1 11 12
M  V30 12 1 12 13
M  V30 13 1 9 14
M  V30 14 2 14 15
M  V30 15 1 15 16
M  V30 16 2 16 17
M  V30 17 1 17 18
M  V30 18 2 18 19
M  V30 19 2 6 20
M  V30 20 1 20 21
M  V30 21 2 21 22
M  V30 22 1 22 23
M  V30 23 2 23 24
M  V30 24 1 24 25
M  V30 25 2 25 26
M  V30 26 1 26 27
M  V30 27 1 27 28
M  V30 28 1 27 29
M  V30 29 1 27 30
M  V30 30 1 20 2
M  V30 31 1 26 21
M  V30 32 1 19 7
M  V30 33 1 19 14
M  V30 34 1 3 31
M  V30 35 1 8 32
M  V30 36 1 10 33
M  V30 37 1 10 34
M  V30 38 1 11 35
M  V30 39 1 11 36
M  V30 40 1 12 37
M  V30 41 1 12 38
M  V30 42 1 13 39
M  V30 43 1 16 40
M  V30 44 1 17 41
M  V30 45 1 18 42
M  V30 46 1 22 43
M  V30 47 1 23 44
M  V30 48 1 24 45
M  V30 49 1 25 46
M  V30 END BOND
M  V30 END CTAB
M  END
>  <Dataset>  (543) 
ChEMBL_Kinases

>  <Ligand_Instance>  (543) 
nan

>  <PDB_ID>  (543) 
nan

>  <Standardized_SMILES>  (543) 
O=C1NC(=O)C(c2cn(CCCO)c3ncccc23)=C1c1ccccc1C(F)(F)F

>  <Name>  (543) 
nan

>  <Pocket>  (543) 
nan

>  <ATP_Site>  (543) 
nan

>  <Peripheral>  (543) 
nan

>  <Num_H_Atoms_ProtBoundConf>  (543) 
nan

>  <Num_Resolved_Atoms>  (543) 
nan

>  <Num_Not_Resolved_Atoms>  (543) 
nan

$$$$
CHEMBL325706
     RDKit          3D

  0  0  0  0  0  0  0  0  0  0999 V3000
M  V30 BEGIN CTAB
M  V30 COUNTS 47 51 0 0 0
M  V30 BEGIN ATOM
M  V30 1 C -1.073484 0.894555 4.412882 0
M  V30 2 C 0.418137 0.832622 4.411364 0
M  V30 3 C 0.943976 0.808862 5.687635 0
M  V30 4 C 2.338001 0.754493 5.829178 0
M  V30 5 C 3.132323 0.727030 4.703172 0
M  V30 6 C 2.610360 0.750671 3.424858 0
M  V30 7 C 1.242358 0.803725 3.289703 0
M  V30 8 N 0.427562 0.834622 2.101430 0
M  V30 9 N 0.313998 -0.268024 1.364187 0
M  V30 10 C -0.466993 -0.232200 0.242586 0
M  V30 11 C -0.491710 -1.527593 -0.445541 0
M  V30 12 C -0.092620 -1.923781 -1.728653 0
M  V30 13 C 0.463484 -0.868478 -2.573346 0
M  V30 14 C 1.692862 -0.292536 -2.230229 0
M  V30 15 C 2.126109 0.684807 -3.075084 0
M  V30 16 C 1.481638 1.144389 -4.204168 0
M  V30 17 C 0.253547 0.550532 -4.523749 0
M  V30 18 Cl -0.607287 1.094055 -5.941701 0
M  V30 19 C -0.226562 -0.454389 -3.685207 0
M  V30 20 Cl -1.777447 -1.198500 -4.088140 0
M  V30 21 N -0.335881 -3.241179 -1.852870 0
M  V30 22 C -0.878118 -3.715757 -0.697576 0
M  V30 23 C -1.292232 -4.985021 -0.343766 0
M  V30 24 C -1.819504 -5.187272 0.927390 0
M  V30 25 C -1.898667 -4.098320 1.769236 0
M  V30 26 C -1.476886 -2.837526 1.390573 0
M  V30 27 N -0.962850 -2.674327 0.130532 0
M  V30 28 C -1.141742 0.926814 -0.142124 0
M  V30 29 C -0.993498 2.048686 0.655222 0
M  V30 30 C -0.192178 1.983446 1.791801 0
M  V30 31 O -0.056086 2.996875 2.517015 0
M  V30 32 H -1.523830 0.196020 5.140064 0
M  V30 33 H -1.475171 0.603106 3.410847 0
M  V30 34 H -1.384546 1.929774 4.679923 0
M  V30 35 H 0.368403 0.828582 6.602822 0
M  V30 36 H 2.864458 0.731815 6.796921 0
M  V30 37 H 4.208207 0.686462 4.746969 0
M  V30 38 H 3.115259 0.734355 2.474928 0
M  V30 39 H 2.242920 -0.611492 -1.356273 0
M  V30 40 H 3.075319 1.199597 -2.900917 0
M  V30 41 H 1.872726 1.929762 -4.843639 0
M  V30 42 H -1.184477 -5.778493 -1.088558 0
M  V30 43 H -2.133564 -6.194478 1.168777 0
M  V30 44 H -2.310474 -4.280155 2.750826 0
M  V30 45 H -1.568988 -2.028360 2.102029 0
M  V30 46 H -1.725981 0.847787 -1.037191 0
M  V30 47 H -1.510786 2.930172 0.357457 0
M  V30 END ATOM
M  V30 BEGIN BOND
M  V30 1 1 1 2
M  V30 2 2 2 3
M  V30 3 1 3 4
M  V30 4 2 4 5
M  V30 5 1 5 6
M  V30 6 2 6 7
M  V30 7 1 7 8
M  V30 8 1 8 9
M  V30 9 2 9 10
M  V30 10 1 10 11
M  V30 11 2 11 12
M  V30 12 1 12 13
M  V30 13 2 13 14
M  V30 14 1 14 15
M  V30 15 2 15 16
M  V30 16 1 16 17
M  V30 17 1 17 18
M  V30 18 2 17 19
M  V30 19 1 19 20
M  V30 20 1 12 21
M  V30 21 2 21 22
M  V30 22 1 22 23
M  V30 23 2 23 24
M  V30 24 1 24 25
M  V30 25 2 25 26
M  V30 26 1 26 27
M  V30 27 1 10 28
M  V30 28 2 28 29
M  V30 29 1 29 30
M  V30 30 2 30 31
M  V30 31 1 7 2
M  V30 32 1 30 8
M  V30 33 1 27 11
M  V30 34 1 19 13
M  V30 35 1 27 22
M  V30 36 1 1 32
M  V30 37 1 1 33
M  V30 38 1 1 34
M  V30 39 1 3 35
M  V30 40 1 4 36
M  V30 41 1 5 37
M  V30 42 1 6 38
M  V30 43 1 14 39
M  V30 44 1 15 40
M  V30 45 1 16 41
M  V30 46 1 23 42
M  V30 47 1 24 43
M  V30 48 1 25 44
M  V30 49 1 26 45
M  V30 50 1 28 46
M  V30 51 1 29 47
M  V30 END BOND
M  V30 END CTAB
M  END
>  <Dataset>  (544) 
ChEMBL_Kinases

>  <Ligand_Instance>  (544) 
nan

>  <PDB_ID>  (544) 
nan

>  <Standardized_SMILES>  (544) 
Cc1ccccc1-n1nc(-c2c(-c3cccc(Cl)c3Cl)nc3ccccn23)ccc1=O

>  <Name>  (544) 
nan

>  <Pocket>  (544) 
nan

>  <ATP_Site>  (544) 
nan

>  <Peripheral>  (544) 
nan

>  <Num_H_Atoms_ProtBoundConf>  (544) 
nan

>  <Num_Resolved_Atoms>  (544) 
nan

>  <Num_Not_Resolved_Atoms>  (544) 
nan

$$$$
CHEMBL325353
     RDKit          3D

  0  0  0  0  0  0  0  0  0  0999 V3000
M  V30 BEGIN CTAB
M  V30 COUNTS 49 52 0 0 0
M  V30 BEGIN ATOM
M  V30 1 N 0.787881 -5.895622 1.440249 0
M  V30 2 C 2.086606 -5.569709 1.733023 0
M  V30 3 N 2.896871 -6.608128 1.966954 0
M  V30 4 O 4.090081 -6.134798 2.223295 0
M  V30 5 N 3.990781 -4.863009 2.144566 0
M  V30 6 C 2.768878 -4.400352 1.840481 0
M  V30 7 N 2.415113 -3.047386 1.697414 0
M  V30 8 N 3.364276 -2.151621 1.872044 0
M  V30 9 N 2.932777 -0.935340 1.699279 0
M  V30 10 C 1.626582 -0.956579 1.389878 0
M  V30 11 C 0.819265 0.224851 1.151652 0
M  V30 12 O -0.405579 0.308196 0.909742 0
M  V30 13 N 1.422729 1.494583 1.177459 0
M  V30 14 N 0.845875 2.723371 0.977727 0
M  V30 15 C 0.133585 3.416961 1.764321 0
M  V30 16 C -0.487127 4.717588 1.581517 0
M  V30 17 C -0.339947 5.384173 0.383207 0
M  V30 18 C -0.956889 6.631581 0.287081 0
M  V30 19 N -1.668197 7.169129 1.317446 0
M  V30 20 C -1.773471 6.472487 2.452637 0
M  V30 21 C -1.204893 5.254520 2.627375 0
M  V30 22 C 1.337806 -2.326830 1.399653 0
M  V30 23 C 0.012507 -2.875974 1.061113 0
M  V30 24 N -0.086463 -3.180135 -0.309558 0
M  V30 25 C 0.225669 -2.186879 -1.247783 0
M  V30 26 C -0.916732 -1.400598 -1.825195 0
M  V30 27 C -2.234707 -1.573678 -1.168127 0
M  V30 28 C -2.451870 -2.878713 -0.487432 0
M  V30 29 C -1.316694 -3.856674 -0.678109 0
M  V30 30 H 0.016005 -6.192297 2.096442 0
M  V30 31 H -0.185143 -6.138579 1.211247 0
M  V30 32 H 2.459891 1.624262 1.369902 0
M  V30 33 H 0.029610 2.859702 2.697794 0
M  V30 34 H 0.209203 5.002247 -0.454346 0
M  V30 35 H -0.914728 7.260407 -0.607662 0
M  V30 36 H -2.346186 6.902477 3.286117 0
M  V30 37 H -1.330624 4.737471 3.587097 0
M  V30 38 H -0.743328 -2.010775 1.311954 0
M  V30 39 H -0.354458 -3.669975 1.722708 0
M  V30 40 H 1.080003 -1.573471 -0.923456 0
M  V30 41 H 0.653510 -2.757709 -2.157172 0
M  V30 42 H -1.024875 -1.580687 -2.941302 0
M  V30 43 H -0.634279 -0.321432 -1.773875 0
M  V30 44 H -3.030328 -1.517940 -1.978017 0
M  V30 45 H -2.488413 -0.678388 -0.531717 0
M  V30 46 H -2.575956 -2.721127 0.607791 0
M  V30 47 H -3.373050 -3.405520 -0.817009 0
M  V30 48 H -1.545173 -4.744404 -0.098379 0
M  V30 49 H -1.223494 -4.137126 -1.744427 0
M  V30 END ATOM
M  V30 BEGIN BOND
M  V30 1 1 1 2
M  V30 2 2 2 3
M  V30 3 1 3 4
M  V30 4 1 4 5
M  V30 5 2 5 6
M  V30 6 1 6 7
M  V30 7 1 7 8
M  V30 8 2 8 9
M  V30 9 1 9 10
M  V30 10 1 10 11
M  V30 11 2 11 12
M  V30 12 1 11 13
M  V30 13 1 13 14
M  V30 14 2 14 15
M  V30 15 1 15 16
M  V30 16 2 16 17
M  V30 17 1 17 18
M  V30 18 2 18 19
M  V30 19 1 19 20
M  V30 20 2 20 21
M  V30 21 2 10 22
M  V30 22 1 22 23
M  V30 23 1 23 24
M  V30 24 1 24 25
M  V30 25 1 25 26
M  V30 26 1 26 27
M  V30 27 1 27 28
M  V30 28 1 28 29
M  V30 29 1 6 2
M  V30 30 1 22 7
M  V30 31 1 29 24
M  V30 32 1 21 16
M  V30 33 1 1 30
M  V30 34 1 1 31
M  V30 35 1 13 32
M  V30 36 1 15 33
M  V30 37 1 17 34
M  V30 38 1 18 35
M  V30 39 1 20 36
M  V30 40 1 21 37
M  V30 41 1 23 38
M  V30 42 1 23 39
M  V30 43 1 25 40
M  V30 44 1 25 41
M  V30 45 1 26 42
M  V30 46 1 26 43
M  V30 47 1 27 44
M  V30 48 1 27 45
M  V30 49 1 28 46
M  V30 50 1 28 47
M  V30 51 1 29 48
M  V30 52 1 29 49
M  V30 END BOND
M  V30 END CTAB
M  END
>  <Dataset>  (545) 
ChEMBL_Kinases

>  <Ligand_Instance>  (545) 
nan

>  <PDB_ID>  (545) 
nan

>  <Standardized_SMILES>  (545) 
Nc1nonc1-n1nnc(C(=O)N/N=C/c2ccncc2)c1CN1CCCCC1

>  <Name>  (545) 
nan

>  <Pocket>  (545) 
nan

>  <ATP_Site>  (545) 
nan

>  <Peripheral>  (545) 
nan

>  <Num_H_Atoms_ProtBoundConf>  (545) 
nan

>  <Num_Resolved_Atoms>  (545) 
nan

>  <Num_Not_Resolved_Atoms>  (545) 
nan

$$$$
CHEMBL325351
     RDKit          3D

  0  0  0  0  0  0  0  0  0  0999 V3000
M  V30 BEGIN CTAB
M  V30 COUNTS 40 42 0 0 0
M  V30 BEGIN ATOM
M  V30 1 C -1.225893 -3.714421 2.358234 0
M  V30 2 C -0.322301 -3.360172 1.201013 0
M  V30 3 C -0.900064 -2.436439 0.222060 0
M  V30 4 C -1.251255 -1.036992 0.571897 0
M  V30 5 N -0.180610 -0.180000 0.970090 0
M  V30 6 C 0.598041 0.406553 -0.011981 0
M  V30 7 C 0.585539 0.336447 -1.412094 0
M  V30 8 C 1.458504 1.003634 -2.234628 0
M  V30 9 O 1.398642 0.896279 -3.615310 0
M  V30 10 C 0.426244 0.086268 -4.263864 0
M  V30 11 C 2.416808 1.799781 -1.651275 0
M  V30 12 C 2.490305 1.917656 -0.281181 0
M  V30 13 C 1.578282 1.215919 0.468949 0
M  V30 14 C 1.446506 1.167953 1.838904 0
M  V30 15 C 2.132484 1.776698 2.856223 0
M  V30 16 C 1.751338 1.542245 4.153356 0
M  V30 17 N 0.722331 0.725245 4.335183 0
M  V30 18 C 0.015847 0.102129 3.362797 0
M  V30 19 C -1.101343 -0.732916 3.817378 0
M  V30 20 C 0.386603 0.325447 2.074236 0
M  V30 21 H -0.676629 -3.790276 3.315217 0
M  V30 22 H -1.677563 -4.732506 2.223280 0
M  V30 23 H -2.097696 -3.040323 2.429119 0
M  V30 24 H 0.632702 -3.016192 1.659294 0
M  V30 25 H -0.029539 -4.357427 0.748629 0
M  V30 26 H -1.827383 -2.898870 -0.263914 0
M  V30 27 H -0.192273 -2.468732 -0.680014 0
M  V30 28 H -1.628605 -0.615129 -0.439047 0
M  V30 29 H -2.207086 -0.935134 1.118142 0
M  V30 30 H -0.146509 -0.274614 -1.921367 0
M  V30 31 H -0.556160 0.398736 -3.801516 0
M  V30 32 H 0.546925 -0.963014 -3.994516 0
M  V30 33 H 0.325283 0.319323 -5.325235 0
M  V30 34 H 3.145735 2.362060 -2.217817 0
M  V30 35 H 3.230464 2.533328 0.187374 0
M  V30 36 H 2.965837 2.435400 2.641591 0
M  V30 37 H 2.247825 1.988845 5.011036 0
M  V30 38 H -1.527001 -0.169036 4.730610 0
M  V30 39 H -0.766734 -1.666795 4.321991 0
M  V30 40 H -1.984124 -0.799403 3.202983 0
M  V30 END ATOM
M  V30 BEGIN BOND
M  V30 1 1 1 2
M  V30 2 1 2 3
M  V30 3 1 3 4
M  V30 4 1 4 5
M  V30 5 1 5 6
M  V30 6 2 6 7
M  V30 7 1 7 8
M  V30 8 1 8 9
M  V30 9 1 9 10
M  V30 10 2 8 11
M  V30 11 1 11 12
M  V30 12 2 12 13
M  V30 13 1 13 14
M  V30 14 2 14 15
M  V30 15 1 15 16
M  V30 16 2 16 17
M  V30 17 1 17 18
M  V30 18 1 18 19
M  V30 19 2 18 20
M  V30 20 1 20 5
M  V30 21 1 13 6
M  V30 22 1 20 14
M  V30 23 1 1 21
M  V30 24 1 1 22
M  V30 25 1 1 23
M  V30 26 1 2 24
M  V30 27 1 2 25
M  V30 28 1 3 26
M  V30 29 1 3 27
M  V30 30 1 4 28
M  V30 31 1 4 29
M  V30 32 1 7 30
M  V30 33 1 10 31
M  V30 34 1 10 32
M  V30 35 1 10 33
M  V30 36 1 11 34
M  V30 37 1 12 35
M  V30 38 1 15 36
M  V30 39 1 16 37
M  V30 40 1 19 38
M  V30 41 1 19 39
M  V30 42 1 19 40
M  V30 END BOND
M  V30 END CTAB
M  END
>  <Dataset>  (546) 
ChEMBL_Kinases

>  <Ligand_Instance>  (546) 
nan

>  <PDB_ID>  (546) 
nan

>  <Standardized_SMILES>  (546) 
CCCCn1c2cc(OC)ccc2c2ccnc(C)c21

>  <Name>  (546) 
nan

>  <Pocket>  (546) 
nan

>  <ATP_Site>  (546) 
nan

>  <Peripheral>  (546) 
nan

>  <Num_H_Atoms_ProtBoundConf>  (546) 
nan

>  <Num_Resolved_Atoms>  (546) 
nan

>  <Num_Not_Resolved_Atoms>  (546) 
nan

$$$$
CHEMBL324172
     RDKit          3D

  0  0  0  0  0  0  0  0  0  0999 V3000
M  V30 BEGIN CTAB
M  V30 COUNTS 66 66 0 0 0
M  V30 BEGIN ATOM
M  V30 1 C 3.687927 -4.577647 3.810722 0
M  V30 2 C 3.535904 -3.507503 2.733742 0
M  V30 3 C 2.136771 -2.971360 2.820051 0
M  V30 4 C 1.892672 -1.897288 1.780792 0
M  V30 5 C 2.814795 -0.728752 1.934985 0
M  V30 6 C 2.540717 0.320443 0.886327 0
M  V30 7 C 2.712634 -0.169992 -0.522140 0
M  V30 8 C 2.398075 1.016245 -1.422126 0
M  V30 9 C 2.541845 0.630167 -2.899218 0
M  V30 10 C 1.620426 -0.474166 -3.271695 0
M  V30 11 C 0.183672 -0.300224 -3.127579 0
M  V30 12 C -0.536891 0.754102 -3.843395 0
M  V30 13 C -2.044887 0.707913 -3.505442 0
M  V30 14 C -2.102068 0.909759 -2.059405 0
M  V30 15 C -2.591028 0.098975 -1.132383 0
M  V30 16 C -2.653743 0.301433 0.363521 0
M  V30 17 C -3.475008 -0.847938 0.845292 0
M  V30 18 C -2.651732 -1.975201 1.415841 0
M  V30 19 O -1.991412 -1.667945 2.581731 0
M  V30 20 C -4.553056 -0.360749 1.764037 0
M  V30 21 O -4.219465 0.120405 2.981115 0
M  V30 22 C -3.424858 1.198147 3.123796 0
M  V30 23 C -3.285019 1.519578 4.621966 0
M  V30 24 O -4.073327 -1.391465 -0.361189 0
M  V30 25 C -3.173669 -1.191404 -1.428328 0
M  V30 26 O -2.863503 -1.875113 -2.435819 0
M  V30 27 H 4.179192 -5.480278 3.360857 0
M  V30 28 H 4.295130 -4.183806 4.656031 0
M  V30 29 H 2.712581 -4.870191 4.204587 0
M  V30 30 H 3.684628 -3.990209 1.738403 0
M  V30 31 H 4.288293 -2.716908 2.933569 0
M  V30 32 H 1.939880 -2.592472 3.847925 0
M  V30 33 H 1.430922 -3.801890 2.617131 0
M  V30 34 H 0.832826 -1.603247 1.726721 0
M  V30 35 H 2.134957 -2.388885 0.795069 0
M  V30 36 H 3.867827 -1.008482 1.909041 0
M  V30 37 H 2.592564 -0.219672 2.917035 0
M  V30 38 H 3.163606 1.211576 1.105264 0
M  V30 39 H 1.482117 0.672010 1.059048 0
M  V30 40 H 3.753184 -0.517184 -0.637741 0
M  V30 41 H 1.994697 -1.001102 -0.686176 0
M  V30 42 H 1.401240 1.373722 -1.164935 0
M  V30 43 H 3.170867 1.786115 -1.230770 0
M  V30 44 H 3.603793 0.309019 -2.965063 0
M  V30 45 H 2.460064 1.557652 -3.447841 0
M  V30 46 H 1.935610 -1.370354 -2.690744 0
M  V30 47 H 1.896229 -0.761009 -4.319724 0
M  V30 48 H -0.062077 -0.167086 -2.028600 0
M  V30 49 H -0.316216 -1.272814 -3.336781 0
M  V30 50 H -0.539458 0.634081 -4.955838 0
M  V30 51 H -0.238768 1.784456 -3.687311 0
M  V30 52 H -2.367248 -0.236921 -3.912086 0
M  V30 53 H -2.540849 1.556031 -4.060190 0
M  V30 54 H -1.673572 1.863103 -1.771508 0
M  V30 55 H -3.013657 1.298183 0.589196 0
M  V30 56 H -1.614233 0.195063 0.781207 0
M  V30 57 H -3.266518 -2.878106 1.619381 0
M  V30 58 H -1.939613 -2.293330 0.604226 0
M  V30 59 H -1.887745 -2.457238 3.173527 0
M  V30 60 H -5.078951 0.475466 1.211357 0
M  V30 61 H -5.377098 -1.146602 1.857793 0
M  V30 62 H -3.785712 2.137479 2.673646 0
M  V30 63 H -2.350534 1.033556 2.816190 0
M  V30 64 H -2.969888 2.574370 4.725405 0
M  V30 65 H -2.448343 0.912678 5.068064 0
M  V30 66 H -4.218718 1.368501 5.166673 0
M  V30 END ATOM
M  V30 BEGIN BOND
M  V30 1 1 1 2
M  V30 2 1 2 3
M  V30 3 1 3 4
M  V30 4 1 4 5
M  V30 5 1 5 6
M  V30 6 1 6 7
M  V30 7 1 7 8
M  V30 8 1 8 9
M  V30 9 1 9 10
M  V30 10 1 10 11
M  V30 11 1 11 12
M  V30 12 1 12 13
M  V30 13 1 13 14
M  V30 14 2 14 15
M  V30 15 1 15 16
M  V30 16 1 16 17
M  V30 17 1 17 18
M  V30 18 1 18 19
M  V30 19 1 17 20
M  V30 20 1 20 21
M  V30 21 1 21 22
M  V30 22 1 22 23
M  V30 23 1 17 24
M  V30 24 1 24 25
M  V30 25 2 25 26
M  V30 26 1 25 15
M  V30 27 1 1 27
M  V30 28 1 1 28
M  V30 29 1 1 29
M  V30 30 1 2 30
M  V30 31 1 2 31
M  V30 32 1 3 32
M  V30 33 1 3 33
M  V30 34 1 4 34
M  V30 35 1 4 35
M  V30 36 1 5 36
M  V30 37 1 5 37
M  V30 38 1 6 38
M  V30 39 1 6 39
M  V30 40 1 7 40
M  V30 41 1 7 41
M  V30 42 1 8 42
M  V30 43 1 8 43
M  V30 44 1 9 44
M  V30 45 1 9 45
M  V30 46 1 10 46
M  V30 47 1 10 47
M  V30 48 1 11 48
M  V30 49 1 11 49
M  V30 50 1 12 50
M  V30 51 1 12 51
M  V30 52 1 13 52
M  V30 53 1 13 53
M  V30 54 1 14 54
M  V30 55 1 16 55
M  V30 56 1 16 56
M  V30 57 1 18 57
M  V30 58 1 18 58
M  V30 59 1 19 59
M  V30 60 1 20 60
M  V30 61 1 20 61
M  V30 62 1 22 62
M  V30 63 1 22 63
M  V30 64 1 23 64
M  V30 65 1 23 65
M  V30 66 1 23 66
M  V30 END BOND
M  V30 END CTAB
M  END
>  <Dataset>  (547) 
ChEMBL_Kinases

>  <Ligand_Instance>  (547) 
nan

>  <PDB_ID>  (547) 
nan

>  <Standardized_SMILES>  (547) 
CCCCCCCCCCCCC/C=C1/CC(CO)(COCC)OC1=O

>  <Name>  (547) 
nan

>  <Pocket>  (547) 
nan

>  <ATP_Site>  (547) 
nan

>  <Peripheral>  (547) 
nan

>  <Num_H_Atoms_ProtBoundConf>  (547) 
nan

>  <Num_Resolved_Atoms>  (547) 
nan

>  <Num_Not_Resolved_Atoms>  (547) 
nan

$$$$
CHEMBL3261092
     RDKit          3D

  0  0  0  0  0  0  0  0  0  0999 V3000
M  V30 BEGIN CTAB
M  V30 COUNTS 50 54 0 0 0
M  V30 BEGIN ATOM
M  V30 1 C 3.560912 -4.201401 1.072733 0
M  V30 2 C 3.323725 -3.112247 2.055500 0
M  V30 3 C 4.025515 -2.915170 3.225082 0
M  V30 4 C 3.702133 -1.850858 4.065706 0
M  V30 5 C 2.654633 -1.035432 3.645132 0
M  V30 6 C 1.954789 -1.234722 2.475508 0
M  V30 7 C 0.887221 -0.282900 2.194739 0
M  V30 8 N 0.878957 1.045422 2.019538 0
M  V30 9 N -0.331683 1.489686 1.786976 0
M  V30 10 C -0.817620 2.835623 1.541697 0
M  V30 11 C -0.790205 3.134339 0.076859 0
M  V30 12 O -1.176363 4.274780 -0.345468 0
M  V30 13 N -0.360373 2.250802 -0.973430 0
M  V30 14 C -0.404431 2.710017 -2.317887 0
M  V30 15 C -1.580929 2.493187 -3.043350 0
M  V30 16 C -1.589154 2.950908 -4.342967 0
M  V30 17 C -0.549561 3.595291 -4.978492 0
M  V30 18 C 0.603588 3.799096 -4.243132 0
M  V30 19 C 0.676703 3.358555 -2.918038 0
M  V30 20 F 1.810575 3.549147 -2.167656 0
M  V30 21 C -1.182504 0.421668 1.804377 0
M  V30 22 C -0.415157 -0.720074 2.064389 0
M  V30 23 C -1.005699 -2.064261 2.153260 0
M  V30 24 C -0.985277 -2.867309 3.276631 0
M  V30 25 C -1.598516 -4.093216 3.147216 0
M  V30 26 C -2.207428 -4.550026 2.010160 0
M  V30 27 N -2.849469 -5.718178 1.721506 0
M  V30 28 C -3.251935 -5.605542 0.420754 0
M  V30 29 N -2.856056 -4.402674 -0.041019 0
M  V30 30 N -2.222945 -3.752487 0.908213 0
M  V30 31 C -1.628501 -2.557679 1.024921 0
M  V30 32 N 2.303134 -2.287987 1.681335 0
M  V30 33 H 2.605531 -4.748358 0.862166 0
M  V30 34 H 4.287664 -4.932411 1.480021 0
M  V30 35 H 3.981230 -3.808488 0.123666 0
M  V30 36 H 4.823861 -3.623383 3.441644 0
M  V30 37 H 4.248689 -1.702902 4.970416 0
M  V30 38 H 2.417393 -0.212024 4.312246 0
M  V30 39 H -0.195516 3.597509 2.055012 0
M  V30 40 H -1.858656 2.968457 1.899309 0
M  V30 41 H -0.038375 1.303953 -0.637023 0
M  V30 42 H -2.392647 1.994845 -2.560597 0
M  V30 43 H -2.541314 2.749132 -4.855101 0
M  V30 44 H -0.654369 3.917671 -6.007265 0
M  V30 45 H 1.451421 4.300534 -4.693147 0
M  V30 46 H -2.249675 0.426827 1.650055 0
M  V30 47 H -0.496667 -2.476046 4.155991 0
M  V30 48 H -1.591702 -4.738444 4.020765 0
M  V30 49 H -3.800580 -6.352208 -0.158788 0
M  V30 50 H -1.672848 -1.962454 0.109101 0
M  V30 END ATOM
M  V30 BEGIN BOND
M  V30 1 1 1 2
M  V30 2 2 2 3
M  V30 3 1 3 4
M  V30 4 2 4 5
M  V30 5 1 5 6
M  V30 6 1 6 7
M  V30 7 2 7 8
M  V30 8 1 8 9
M  V30 9 1 9 10
M  V30 10 1 10 11
M  V30 11 2 11 12
M  V30 12 1 11 13
M  V30 13 1 13 14
M  V30 14 2 14 15
M  V30 15 1 15 16
M  V30 16 2 16 17
M  V30 17 1 17 18
M  V30 18 2 18 19
M  V30 19 1 19 20
M  V30 20 1 9 21
M  V30 21 2 21 22
M  V30 22 1 22 23
M  V30 23 1 23 24
M  V30 24 2 24 25
M  V30 25 1 25 26
M  V30 26 2 26 27
M  V30 27 1 27 28
M  V30 28 2 28 29
M  V30 29 1 29 30
M  V30 30 1 30 31
M  V30 31 2 6 32
M  V30 32 1 32 2
M  V30 33 1 22 7
M  V30 34 2 31 23
M  V30 35 1 19 14
M  V30 36 1 30 26
M  V30 37 1 1 33
M  V30 38 1 1 34
M  V30 39 1 1 35
M  V30 40 1 3 36
M  V30 41 1 4 37
M  V30 42 1 5 38
M  V30 43 1 10 39
M  V30 44 1 10 40
M  V30 45 1 13 41
M  V30 46 1 15 42
M  V30 47 1 16 43
M  V30 48 1 17 44
M  V30 49 1 18 45
M  V30 50 1 21 46
M  V30 51 1 24 47
M  V30 52 1 25 48
M  V30 53 1 28 49
M  V30 54 1 31 50
M  V30 END BOND
M  V30 END CTAB
M  END
>  <Dataset>  (548) 
ChEMBL_Kinases

>  <Ligand_Instance>  (548) 
nan

>  <PDB_ID>  (548) 
nan

>  <Standardized_SMILES>  (548) 
Cc1cccc(-c2nn(CC(=O)Nc3ccccc3F)cc2-c2ccc3ncnn3c2)n1

>  <Name>  (548) 
nan

>  <Pocket>  (548) 
nan

>  <ATP_Site>  (548) 
nan

>  <Peripheral>  (548) 
nan

>  <Num_H_Atoms_ProtBoundConf>  (548) 
nan

>  <Num_Resolved_Atoms>  (548) 
nan

>  <Num_Not_Resolved_Atoms>  (548) 
nan

$$$$
CHEMBL3237178
     RDKit          3D

  0  0  0  0  0  0  0  0  0  0999 V3000
M  V30 BEGIN CTAB
M  V30 COUNTS 63 66 0 0 0
M  V30 BEGIN ATOM
M  V30 1 C 5.327151 -1.678190 7.886161 0
M  V30 2 O 4.522362 -0.999989 6.915209 0
M  V30 3 C 4.320263 -1.485009 5.651295 0
M  V30 4 O 4.956972 -2.574827 5.557157 0
M  V30 5 C 3.519589 -0.863861 4.601924 0
M  V30 6 C 2.848175 0.328435 4.760932 0
M  V30 7 C 2.106290 0.861968 3.733627 0
M  V30 8 C 1.986880 0.251534 2.499172 0
M  V30 9 N 1.208928 0.843410 1.473955 0
M  V30 10 C 0.967811 0.349549 0.165768 0
M  V30 11 N 0.200724 1.062602 -0.673891 0
M  V30 12 C -0.099429 0.705967 -1.924478 0
M  V30 13 N -0.918356 1.516485 -2.753710 0
M  V30 14 C -1.494408 2.761063 -2.292486 0
M  V30 15 C -2.445436 2.520631 -1.118369 0
M  V30 16 N -3.484655 1.644842 -1.575714 0
M  V30 17 C -4.429372 1.375846 -0.534512 0
M  V30 18 C -5.359043 0.238057 -0.901143 0
M  V30 19 C -5.433279 0.160506 -2.413283 0
M  V30 20 C -5.444666 1.529988 -3.014400 0
M  V30 21 C -4.076199 2.157144 -2.771520 0
M  V30 22 C 0.406933 -0.479915 -2.406650 0
M  V30 23 C 1.200142 -1.251865 -1.588184 0
M  V30 24 N 1.761103 -2.497352 -2.010041 0
M  V30 25 C 1.036046 -3.695774 -1.742380 0
M  V30 26 C 1.405592 -4.265925 -0.517355 0
M  V30 27 C 0.644664 -5.421688 -0.350464 0
M  V30 28 C 0.593500 -6.437623 0.740533 0
M  V30 29 N -0.134873 -5.516351 -1.436837 0
M  V30 30 N 0.077380 -4.512413 -2.270042 0
M  V30 31 N 1.431679 -0.791130 -0.355428 0
M  V30 32 C 2.678876 -0.935174 2.399263 0
M  V30 33 C 3.437690 -1.519500 3.391094 0
M  V30 34 H 5.781177 -0.993217 8.619758 0
M  V30 35 H 6.161359 -2.138781 7.292509 0
M  V30 36 H 4.757350 -2.445451 8.447718 0
M  V30 37 H 2.927570 0.819886 5.711357 0
M  V30 38 H 1.594659 1.805054 3.906622 0
M  V30 39 H 0.759221 1.757482 1.719283 0
M  V30 40 H -1.120478 1.216964 -3.732556 0
M  V30 41 H -2.067358 3.260649 -3.095954 0
M  V30 42 H -0.697506 3.469266 -1.935366 0
M  V30 43 H -1.887029 2.096460 -0.247436 0
M  V30 44 H -2.830039 3.497389 -0.756376 0
M  V30 45 H -3.902302 1.151434 0.392573 0
M  V30 46 H -5.092250 2.269743 -0.363281 0
M  V30 47 H -6.378330 0.426351 -0.491065 0
M  V30 48 H -5.010393 -0.716701 -0.500583 0
M  V30 49 H -6.348064 -0.402165 -2.688419 0
M  V30 50 H -4.534572 -0.363117 -2.807473 0
M  V30 51 H -6.229862 2.177890 -2.532307 0
M  V30 52 H -5.610423 1.449769 -4.102616 0
M  V30 53 H -4.161580 3.274239 -2.773215 0
M  V30 54 H -3.454145 1.892416 -3.667225 0
M  V30 55 H 0.184129 -0.792774 -3.403816 0
M  V30 56 H 2.680024 -2.646580 -2.514359 0
M  V30 57 H 2.094694 -4.052775 0.293128 0
M  V30 58 H 1.304635 -6.186428 1.556706 0
M  V30 59 H 0.771454 -7.463319 0.329964 0
M  V30 60 H -0.416270 -6.492749 1.208758 0
M  V30 61 H -0.858855 -6.244798 -1.706375 0
M  V30 62 H 2.652409 -1.490410 1.482019 0
M  V30 63 H 3.956279 -2.449736 3.253118 0
M  V30 END ATOM
M  V30 BEGIN BOND
M  V30 1 1 1 2
M  V30 2 1 2 3
M  V30 3 2 3 4
M  V30 4 1 3 5
M  V30 5 2 5 6
M  V30 6 1 6 7
M  V30 7 2 7 8
M  V30 8 1 8 9
M  V30 9 1 9 10
M  V30 10 2 10 11
M  V30 11 1 11 12
M  V30 12 1 12 13
M  V30 13 1 13 14
M  V30 14 1 14 15
M  V30 15 1 15 16
M  V30 16 1 16 17
M  V30 17 1 17 18
M  V30 18 1 18 19
M  V30 19 1 19 20
M  V30 20 1 20 21
M  V30 21 2 12 22
M  V30 22 1 22 23
M  V30 23 1 23 24
M  V30 24 1 24 25
M  V30 25 1 25 26
M  V30 26 2 26 27
M  V30 27 1 27 28
M  V30 28 1 27 29
M  V30 29 1 29 30
M  V30 30 2 23 31
M  V30 31 1 8 32
M  V30 32 2 32 33
M  V30 33 1 33 5
M  V30 34 1 31 10
M  V30 35 1 21 16
M  V30 36 2 30 25
M  V30 37 1 1 34
M  V30 38 1 1 35
M  V30 39 1 1 36
M  V30 40 1 6 37
M  V30 41 1 7 38
M  V30 42 1 9 39
M  V30 43 1 13 40
M  V30 44 1 14 41
M  V30 45 1 14 42
M  V30 46 1 15 43
M  V30 47 1 15 44
M  V30 48 1 17 45
M  V30 49 1 17 46
M  V30 50 1 18 47
M  V30 51 1 18 48
M  V30 52 1 19 49
M  V30 53 1 19 50
M  V30 54 1 20 51
M  V30 55 1 20 52
M  V30 56 1 21 53
M  V30 57 1 21 54
M  V30 58 1 22 55
M  V30 59 1 24 56
M  V30 60 1 26 57
M  V30 61 1 28 58
M  V30 62 1 28 59
M  V30 63 1 28 60
M  V30 64 1 29 61
M  V30 65 1 32 62
M  V30 66 1 33 63
M  V30 END BOND
M  V30 END CTAB
M  END
>  <Dataset>  (549) 
ChEMBL_Kinases

>  <Ligand_Instance>  (549) 
nan

>  <PDB_ID>  (549) 
nan

>  <Standardized_SMILES>  (549) 
COC(=O)c1ccc(Nc2nc(NCCN3CCCCC3)cc(Nc3cc(C)[nH]n3)n2)cc1

>  <Name>  (549) 
nan

>  <Pocket>  (549) 
nan

>  <ATP_Site>  (549) 
nan

>  <Peripheral>  (549) 
nan

>  <Num_H_Atoms_ProtBoundConf>  (549) 
nan

>  <Num_Resolved_Atoms>  (549) 
nan

>  <Num_Not_Resolved_Atoms>  (549) 
nan

$$$$
CHEMBL3237179
     RDKit          3D

  0  0  0  0  0  0  0  0  0  0999 V3000
M  V30 BEGIN CTAB
M  V30 COUNTS 61 64 0 0 0
M  V30 BEGIN ATOM
M  V30 1 C 4.509234 -3.083982 6.277936 0
M  V30 2 O 4.260590 -2.204637 5.210922 0
M  V30 3 C 3.088591 -2.221575 4.453924 0
M  V30 4 O 2.356208 -3.131939 4.907425 0
M  V30 5 C 2.816774 -1.310225 3.334538 0
M  V30 6 C 3.786423 -0.353883 3.035291 0
M  V30 7 C 3.489003 0.470672 1.945629 0
M  V30 8 C 2.290254 0.287821 1.259498 0
M  V30 9 N 1.992572 1.115381 0.146858 0
M  V30 10 C 0.860183 1.037389 -0.706353 0
M  V30 11 N -0.107393 1.956775 -0.964045 0
M  V30 12 C -1.100906 1.664594 -1.851721 0
M  V30 13 N -2.105488 2.693722 -2.045608 0
M  V30 14 C -2.530854 3.236493 -0.780902 0
M  V30 15 C -3.618762 2.492822 -0.063021 0
M  V30 16 N -3.365897 1.097651 0.192544 0
M  V30 17 C -4.311031 0.700313 1.285105 0
M  V30 18 C -4.279315 -0.820615 1.387006 0
M  V30 19 O -3.383362 -1.396449 0.493494 0
M  V30 20 C -3.782687 -1.074865 -0.829015 0
M  V30 21 C -4.044145 0.390410 -0.954883 0
M  V30 22 C -1.022446 0.416348 -2.421734 0
M  V30 23 C -0.078220 -0.534588 -2.192876 0
M  V30 24 N -0.189001 -1.771374 -2.874800 0
M  V30 25 C 0.727382 -2.760212 -2.384798 0
M  V30 26 C 1.952939 -3.357066 -2.411182 0
M  V30 27 C 1.945141 -4.359935 -1.476280 0
M  V30 28 C 3.183263 -5.162149 -1.315276 0
M  V30 29 N 0.740612 -4.385009 -0.883429 0
M  V30 30 N -0.004024 -3.414607 -1.432553 0
M  V30 31 N 0.868422 -0.177864 -1.310533 0
M  V30 32 C 1.375511 -0.680698 1.613185 0
M  V30 33 C 1.621028 -1.519382 2.680738 0
M  V30 34 H 4.622407 -2.536392 7.246462 0
M  V30 35 H 5.474777 -3.593012 6.093012 0
M  V30 36 H 3.702870 -3.824371 6.425146 0
M  V30 37 H 4.703438 -0.244593 3.594239 0
M  V30 38 H 4.208268 1.239753 1.659267 0
M  V30 39 H 2.586563 1.903800 -0.185045 0
M  V30 40 H -2.493546 3.030882 -2.949161 0
M  V30 41 H -2.944699 4.285419 -0.913540 0
M  V30 42 H -1.659695 3.377779 -0.080056 0
M  V30 43 H -3.790070 3.051132 0.909178 0
M  V30 44 H -4.606942 2.633041 -0.590568 0
M  V30 45 H -5.298066 1.074983 0.939050 0
M  V30 46 H -3.955391 1.194339 2.200892 0
M  V30 47 H -3.940897 -1.116358 2.408560 0
M  V30 48 H -5.302624 -1.199057 1.256604 0
M  V30 49 H -4.705739 -1.677262 -1.028589 0
M  V30 50 H -2.994975 -1.465575 -1.479988 0
M  V30 51 H -3.765855 0.777730 -1.919164 0
M  V30 52 H -5.139694 0.548454 -0.754091 0
M  V30 53 H -1.819462 0.216244 -3.132928 0
M  V30 54 H -0.876760 -1.905018 -3.643131 0
M  V30 55 H 2.558816 -2.866946 -3.151503 0
M  V30 56 H 2.872260 -6.134519 -0.842170 0
M  V30 57 H 3.709375 -5.344561 -2.261187 0
M  V30 58 H 3.892921 -4.726412 -0.572095 0
M  V30 59 H 0.629479 -5.126711 -0.139158 0
M  V30 60 H 0.439509 -0.787538 1.038692 0
M  V30 61 H 0.925318 -2.285184 2.981619 0
M  V30 END ATOM
M  V30 BEGIN BOND
M  V30 1 1 1 2
M  V30 2 1 2 3
M  V30 3 2 3 4
M  V30 4 1 3 5
M  V30 5 2 5 6
M  V30 6 1 6 7
M  V30 7 2 7 8
M  V30 8 1 8 9
M  V30 9 1 9 10
M  V30 10 2 10 11
M  V30 11 1 11 12
M  V30 12 1 12 13
M  V30 13 1 13 14
M  V30 14 1 14 15
M  V30 15 1 15 16
M  V30 16 1 16 17
M  V30 17 1 17 18
M  V30 18 1 18 19
M  V30 19 1 19 20
M  V30 20 1 20 21
M  V30 21 2 12 22
M  V30 22 1 22 23
M  V30 23 1 23 24
M  V30 24 1 24 25
M  V30 25 1 25 26
M  V30 26 2 26 27
M  V30 27 1 27 28
M  V30 28 1 27 29
M  V30 29 1 29 30
M  V30 30 2 23 31
M  V30 31 1 8 32
M  V30 32 2 32 33
M  V30 33 1 33 5
M  V30 34 1 31 10
M  V30 35 1 21 16
M  V30 36 2 30 25
M  V30 37 1 1 34
M  V30 38 1 1 35
M  V30 39 1 1 36
M  V30 40 1 6 37
M  V30 41 1 7 38
M  V30 42 1 9 39
M  V30 43 1 13 40
M  V30 44 1 14 41
M  V30 45 1 14 42
M  V30 46 1 15 43
M  V30 47 1 15 44
M  V30 48 1 17 45
M  V30 49 1 17 46
M  V30 50 1 18 47
M  V30 51 1 18 48
M  V30 52 1 20 49
M  V30 53 1 20 50
M  V30 54 1 21 51
M  V30 55 1 21 52
M  V30 56 1 22 53
M  V30 57 1 24 54
M  V30 58 1 26 55
M  V30 59 1 28 56
M  V30 60 1 28 57
M  V30 61 1 28 58
M  V30 62 1 29 59
M  V30 63 1 32 60
M  V30 64 1 33 61
M  V30 END BOND
M  V30 END CTAB
M  END
>  <Dataset>  (550) 
ChEMBL_Kinases

>  <Ligand_Instance>  (550) 
nan

>  <PDB_ID>  (550) 
nan

>  <Standardized_SMILES>  (550) 
COC(=O)c1ccc(Nc2nc(NCCN3CCOCC3)cc(Nc3cc(C)[nH]n3)n2)cc1

>  <Name>  (550) 
nan

>  <Pocket>  (550) 
nan

>  <ATP_Site>  (550) 
nan

>  <Peripheral>  (550) 
nan

>  <Num_H_Atoms_ProtBoundConf>  (550) 
nan

>  <Num_Resolved_Atoms>  (550) 
nan

>  <Num_Not_Resolved_Atoms>  (550) 
nan

$$$$
CHEMBL3237180
     RDKit          3D

  0  0  0  0  0  0  0  0  0  0999 V3000
M  V30 BEGIN CTAB
M  V30 COUNTS 54 57 0 0 0
M  V30 BEGIN ATOM
M  V30 1 C -2.611973 -2.476988 3.607190 0
M  V30 2 C -1.410324 -3.178357 3.046635 0
M  V30 3 C -0.296854 -2.337523 2.927408 0
M  V30 4 C 0.759689 -3.049586 2.396453 0
M  V30 5 N 2.142542 -2.828655 2.037423 0
M  V30 6 C 1.919765 -1.889250 0.969776 0
M  V30 7 C 1.990443 -0.538522 1.216108 0
M  V30 8 C 1.743197 0.370132 0.211447 0
M  V30 9 N 1.797602 1.762146 0.515758 0
M  V30 10 C 2.946534 2.679117 0.480289 0
M  V30 11 C 2.374628 4.078308 0.427798 0
M  V30 12 N 1.477394 4.212643 1.560097 0
M  V30 13 C 1.136071 5.582023 1.848907 0
M  V30 14 C 0.235086 3.497391 1.311394 0
M  V30 15 C 0.422212 2.083146 0.887206 0
M  V30 16 N 1.431750 -0.043673 -1.014757 0
M  V30 17 C 1.355359 -1.373157 -1.286788 0
M  V30 18 N 1.018575 -2.108507 -2.453049 0
M  V30 19 C -0.250688 -2.772862 -2.345371 0
M  V30 20 C -0.748945 -3.619284 -3.334177 0
M  V30 21 C -1.980912 -4.261883 -3.188197 0
M  V30 22 C -2.759715 -4.094202 -2.070127 0
M  V30 23 C -4.028351 -4.742450 -1.864427 0
M  V30 24 O -4.630947 -5.541198 -2.623512 0
M  V30 25 O -4.847944 -4.605834 -0.766587 0
M  V30 26 C -2.294866 -3.266362 -1.081756 0
M  V30 27 C -1.096383 -2.653793 -1.247149 0
M  V30 28 N 1.601681 -2.245196 -0.290465 0
M  V30 29 N 0.253505 -4.301190 2.210666 0
M  V30 30 N -1.003880 -4.371769 2.588354 0
M  V30 31 H -2.853884 -1.559896 2.995212 0
M  V30 32 H -3.499021 -3.135013 3.535857 0
M  V30 33 H -2.363595 -2.131629 4.621765 0
M  V30 34 H -0.030092 -1.293108 3.129304 0
M  V30 35 H 2.983436 -3.262780 2.471172 0
M  V30 36 H 2.246045 -0.218637 2.239148 0
M  V30 37 H 3.450965 2.530350 1.480946 0
M  V30 38 H 3.601118 2.462112 -0.373592 0
M  V30 39 H 3.158897 4.858809 0.524193 0
M  V30 40 H 1.839441 4.150183 -0.541471 0
M  V30 41 H 1.109383 5.718015 2.954299 0
M  V30 42 H 0.156693 5.864854 1.414613 0
M  V30 43 H 1.940425 6.217779 1.445181 0
M  V30 44 H -0.411274 4.050865 0.591267 0
M  V30 45 H -0.325529 3.524973 2.271959 0
M  V30 46 H -0.284524 1.876804 0.044924 0
M  V30 47 H 0.124754 1.413760 1.729349 0
M  V30 48 H 1.509391 -2.263345 -3.370864 0
M  V30 49 H -0.148363 -3.762011 -4.207497 0
M  V30 50 H -2.322639 -4.910377 -3.985447 0
M  V30 51 H -5.229345 -5.410661 -0.240477 0
M  V30 52 H -2.881002 -3.110143 -0.188994 0
M  V30 53 H -0.768982 -2.004504 -0.435139 0
M  V30 54 H -1.755592 -5.094521 2.626442 0
M  V30 END ATOM
M  V30 BEGIN BOND
M  V30 1 1 1 2
M  V30 2 2 2 3
M  V30 3 1 3 4
M  V30 4 1 4 5
M  V30 5 1 5 6
M  V30 6 2 6 7
M  V30 7 1 7 8
M  V30 8 1 8 9
M  V30 9 1 9 10
M  V30 10 1 10 11
M  V30 11 1 11 12
M  V30 12 1 12 13
M  V30 13 1 12 14
M  V30 14 1 14 15
M  V30 15 2 8 16
M  V30 16 1 16 17
M  V30 17 1 17 18
M  V30 18 1 18 19
M  V30 19 2 19 20
M  V30 20 1 20 21
M  V30 21 2 21 22
M  V30 22 1 22 23
M  V30 23 2 23 24
M  V30 24 1 23 25
M  V30 25 1 22 26
M  V30 26 2 26 27
M  V30 27 2 17 28
M  V30 28 2 4 29
M  V30 29 1 29 30
M  V30 30 1 30 2
M  V30 31 1 28 6
M  V30 32 1 15 9
M  V30 33 1 27 19
M  V30 34 1 1 31
M  V30 35 1 1 32
M  V30 36 1 1 33
M  V30 37 1 3 34
M  V30 38 1 5 35
M  V30 39 1 7 36
M  V30 40 1 10 37
M  V30 41 1 10 38
M  V30 42 1 11 39
M  V30 43 1 11 40
M  V30 44 1 13 41
M  V30 45 1 13 42
M  V30 46 1 13 43
M  V30 47 1 14 44
M  V30 48 1 14 45
M  V30 49 1 15 46
M  V30 50 1 15 47
M  V30 51 1 18 48
M  V30 52 1 20 49
M  V30 53 1 21 50
M  V30 54 1 25 51
M  V30 55 1 26 52
M  V30 56 1 27 53
M  V30 57 1 30 54
M  V30 END BOND
M  V30 END CTAB
M  END
>  <Dataset>  (551) 
ChEMBL_Kinases

>  <Ligand_Instance>  (551) 
nan

>  <PDB_ID>  (551) 
nan

>  <Standardized_SMILES>  (551) 
Cc1cc(Nc2cc(N3CCN(C)CC3)nc(Nc3ccc(C(=O)O)cc3)n2)n[nH]1

>  <Name>  (551) 
nan

>  <Pocket>  (551) 
nan

>  <ATP_Site>  (551) 
nan

>  <Peripheral>  (551) 
nan

>  <Num_H_Atoms_ProtBoundConf>  (551) 
nan

>  <Num_Resolved_Atoms>  (551) 
nan

>  <Num_Not_Resolved_Atoms>  (551) 
nan

$$$$
CHEMBL3237181
     RDKit          3D

  0  0  0  0  0  0  0  0  0  0999 V3000
M  V30 BEGIN CTAB
M  V30 COUNTS 63 66 0 0 0
M  V30 BEGIN ATOM
M  V30 1 C 5.323862 -3.482109 3.599599 0
M  V30 2 C 4.252625 -2.506154 3.197681 0
M  V30 3 C 3.855546 -1.435382 3.973604 0
M  V30 4 C 2.874071 -0.851958 3.197075 0
M  V30 5 N 2.112593 0.322175 3.531991 0
M  V30 6 C 1.082247 0.974738 2.780575 0
M  V30 7 C 1.373921 1.958559 1.861003 0
M  V30 8 C 0.293214 2.505039 1.207554 0
M  V30 9 N 0.471913 3.525233 0.237557 0
M  V30 10 C 1.721181 4.056149 -0.260616 0
M  V30 11 C 1.760054 4.090031 -1.765807 0
M  V30 12 N 0.620511 3.485807 -2.383518 0
M  V30 13 C 0.774547 2.106134 -2.753046 0
M  V30 14 C -0.651673 3.764725 -1.844602 0
M  V30 15 C -0.623215 4.212229 -0.412048 0
M  V30 16 N -0.970419 2.111106 1.444344 0
M  V30 17 C -1.234105 1.133219 2.360596 0
M  V30 18 N -2.554186 0.681470 2.631064 0
M  V30 19 C -2.933514 -0.501113 1.902063 0
M  V30 20 C -2.027660 -1.114801 1.056790 0
M  V30 21 C -2.314951 -2.268462 0.321181 0
M  V30 22 C -3.571382 -2.821690 0.448128 0
M  V30 23 C -3.922930 -4.033699 -0.293756 0
M  V30 24 O -5.039758 -4.599348 -0.245311 0
M  V30 25 O -2.978660 -4.619369 -1.112741 0
M  V30 26 C -3.176095 -5.782696 -1.880835 0
M  V30 27 C -2.834664 -5.494025 -3.325585 0
M  V30 28 C -2.240640 -6.853394 -1.344099 0
M  V30 29 C -4.514687 -2.230121 1.292194 0
M  V30 30 C -4.194911 -1.090844 2.003204 0
M  V30 31 N -0.204446 0.583072 3.011959 0
M  V30 32 N 2.720577 -1.550412 2.045021 0
M  V30 33 N 3.573330 -2.578569 2.038739 0
M  V30 34 H 5.579075 -3.394375 4.656975 0
M  V30 35 H 6.217813 -3.253136 2.956873 0
M  V30 36 H 4.956573 -4.487364 3.325249 0
M  V30 37 H 4.186173 -1.096820 4.932602 0
M  V30 38 H 2.308052 0.799921 4.448995 0
M  V30 39 H 2.396102 2.259183 1.687870 0
M  V30 40 H 2.621957 3.559831 0.150979 0
M  V30 41 H 1.768569 5.119258 0.088306 0
M  V30 42 H 2.657769 3.524992 -2.100266 0
M  V30 43 H 1.871692 5.122108 -2.152256 0
M  V30 44 H -0.259301 1.655047 -2.808139 0
M  V30 45 H 1.276627 1.931553 -3.710480 0
M  V30 46 H 1.278432 1.543084 -1.947642 0
M  V30 47 H -1.296421 2.858905 -1.961665 0
M  V30 48 H -1.150513 4.534432 -2.506123 0
M  V30 49 H -1.580279 3.973557 0.110473 0
M  V30 50 H -0.476491 5.329671 -0.432945 0
M  V30 51 H -3.291195 1.078847 3.280338 0
M  V30 52 H -1.008160 -0.726362 0.908247 0
M  V30 53 H -1.559932 -2.712115 -0.332928 0
M  V30 54 H -4.214719 -6.191067 -1.752425 0
M  V30 55 H -2.647148 -4.403615 -3.506256 0
M  V30 56 H -3.616147 -5.811674 -4.025247 0
M  V30 57 H -1.857414 -5.978564 -3.609429 0
M  V30 58 H -1.208110 -6.602583 -1.659533 0
M  V30 59 H -2.500419 -7.871983 -1.682718 0
M  V30 60 H -2.223365 -6.827311 -0.214764 0
M  V30 61 H -5.501659 -2.657781 1.396583 0
M  V30 62 H -4.902806 -0.600960 2.671309 0
M  V30 63 H 3.697482 -3.302787 1.288355 0
M  V30 END ATOM
M  V30 BEGIN BOND
M  V30 1 1 1 2
M  V30 2 2 2 3
M  V30 3 1 3 4
M  V30 4 1 4 5
M  V30 5 1 5 6
M  V30 6 2 6 7
M  V30 7 1 7 8
M  V30 8 1 8 9
M  V30 9 1 9 10
M  V30 10 1 10 11
M  V30 11 1 11 12
M  V30 12 1 12 13
M  V30 13 1 12 14
M  V30 14 1 14 15
M  V30 15 2 8 16
M  V30 16 1 16 17
M  V30 17 1 17 18
M  V30 18 1 18 19
M  V30 19 2 19 20
M  V30 20 1 20 21
M  V30 21 2 21 22
M  V30 22 1 22 23
M  V30 23 2 23 24
M  V30 24 1 23 25
M  V30 25 1 25 26
M  V30 26 1 26 27
M  V30 27 1 26 28
M  V30 28 1 22 29
M  V30 29 2 29 30
M  V30 30 2 17 31
M  V30 31 2 4 32
M  V30 32 1 32 33
M  V30 33 1 33 2
M  V30 34 1 31 6
M  V30 35 1 15 9
M  V30 36 1 30 19
M  V30 37 1 1 34
M  V30 38 1 1 35
M  V30 39 1 1 36
M  V30 40 1 3 37
M  V30 41 1 5 38
M  V30 42 1 7 39
M  V30 43 1 10 40
M  V30 44 1 10 41
M  V30 45 1 11 42
M  V30 46 1 11 43
M  V30 47 1 13 44
M  V30 48 1 13 45
M  V30 49 1 13 46
M  V30 50 1 14 47
M  V30 51 1 14 48
M  V30 52 1 15 49
M  V30 53 1 15 50
M  V30 54 1 18 51
M  V30 55 1 20 52
M  V30 56 1 21 53
M  V30 57 1 26 54
M  V30 58 1 27 55
M  V30 59 1 27 56
M  V30 60 1 27 57
M  V30 61 1 28 58
M  V30 62 1 28 59
M  V30 63 1 28 60
M  V30 64 1 29 61
M  V30 65 1 30 62
M  V30 66 1 33 63
M  V30 END BOND
M  V30 END CTAB
M  END
>  <Dataset>  (552) 
ChEMBL_Kinases

>  <Ligand_Instance>  (552) 
nan

>  <PDB_ID>  (552) 
nan

>  <Standardized_SMILES>  (552) 
Cc1cc(Nc2cc(N3CCN(C)CC3)nc(Nc3ccc(C(=O)OC(C)C)cc3)n2)n[nH]1

>  <Name>  (552) 
nan

>  <Pocket>  (552) 
nan

>  <ATP_Site>  (552) 
nan

>  <Peripheral>  (552) 
nan

>  <Num_H_Atoms_ProtBoundConf>  (552) 
nan

>  <Num_Resolved_Atoms>  (552) 
nan

>  <Num_Not_Resolved_Atoms>  (552) 
nan

$$$$
CHEMBL3237182
     RDKit          3D

  0  0  0  0  0  0  0  0  0  0999 V3000
M  V30 BEGIN CTAB
M  V30 COUNTS 58 61 0 0 0
M  V30 BEGIN ATOM
M  V30 1 C 2.654392 -4.656679 7.075005 0
M  V30 2 N 2.241565 -3.956147 5.860174 0
M  V30 3 C 3.029355 -4.040641 4.678573 0
M  V30 4 O 4.071200 -4.762868 4.827422 0
M  V30 5 C 2.649025 -3.355505 3.441925 0
M  V30 6 C 1.525414 -2.563415 3.264293 0
M  V30 7 C 1.294553 -1.983652 2.031630 0
M  V30 8 C 2.135038 -2.153614 0.951756 0
M  V30 9 N 1.889936 -1.557875 -0.316860 0
M  V30 10 C 0.755379 -0.734197 -0.530592 0
M  V30 11 N 0.718883 0.627012 -0.424350 0
M  V30 12 C -0.405622 1.314973 -0.644124 0
M  V30 13 N -0.430602 2.727147 -0.531816 0
M  V30 14 C 0.546161 3.704855 -0.212040 0
M  V30 15 C 0.918235 4.249562 1.001008 0
M  V30 16 C 1.927763 5.175780 0.808911 0
M  V30 17 C 2.661272 6.024519 1.785849 0
M  V30 18 N 2.156189 5.179635 -0.531874 0
M  V30 19 N 1.346215 4.316327 -1.134104 0
M  V30 20 C -1.570724 0.686779 -0.985258 0
M  V30 21 C -1.527761 -0.681798 -1.090566 0
M  V30 22 N -2.687024 -1.411705 -1.439374 0
M  V30 23 C -3.967591 -0.807844 -1.755307 0
M  V30 24 C -4.822292 -1.843660 -2.446629 0
M  V30 25 N -4.128413 -2.641144 -3.407715 0
M  V30 26 C -4.125921 -2.007573 -4.687823 0
M  V30 27 C -2.880234 -3.189214 -2.987922 0
M  V30 28 C -2.670995 -2.870585 -1.504586 0
M  V30 29 N -0.399092 -1.339371 -0.867270 0
M  V30 30 C 3.237720 -2.948112 1.174983 0
M  V30 31 C 3.539939 -3.564824 2.381023 0
M  V30 32 H 3.477068 -5.354750 6.877761 0
M  V30 33 H 1.799262 -5.158934 7.550890 0
M  V30 34 H 3.041086 -3.892280 7.783487 0
M  V30 35 H 1.359975 -3.396443 5.881998 0
M  V30 36 H 0.889393 -2.450290 4.128756 0
M  V30 37 H 0.413195 -1.372636 1.923290 0
M  V30 38 H 2.570131 -1.744318 -1.084858 0
M  V30 39 H -1.277769 3.289072 -0.692426 0
M  V30 40 H 0.496213 3.998665 1.941489 0
M  V30 41 H 2.203729 7.031412 1.880753 0
M  V30 42 H 3.719880 6.121037 1.405547 0
M  V30 43 H 2.739764 5.522880 2.766522 0
M  V30 44 H 2.865685 5.767970 -1.059957 0
M  V30 45 H -2.516635 1.163827 -1.180028 0
M  V30 46 H -4.525256 -0.507647 -0.828175 0
M  V30 47 H -3.860465 0.073078 -2.416881 0
M  V30 48 H -5.404433 -2.433897 -1.707441 0
M  V30 49 H -5.594746 -1.263774 -3.026257 0
M  V30 50 H -4.055246 -0.911169 -4.595478 0
M  V30 51 H -3.386193 -2.427931 -5.397960 0
M  V30 52 H -5.126537 -2.206649 -5.145027 0
M  V30 53 H -2.022982 -2.681615 -3.505572 0
M  V30 54 H -2.798679 -4.276869 -3.147122 0
M  V30 55 H -1.748983 -3.295606 -1.117186 0
M  V30 56 H -3.555730 -3.289875 -0.943699 0
M  V30 57 H 3.940183 -3.115776 0.351871 0
M  V30 58 H 4.420738 -4.161499 2.458627 0
M  V30 END ATOM
M  V30 BEGIN BOND
M  V30 1 1 1 2
M  V30 2 1 2 3
M  V30 3 2 3 4
M  V30 4 1 3 5
M  V30 5 2 5 6
M  V30 6 1 6 7
M  V30 7 2 7 8
M  V30 8 1 8 9
M  V30 9 1 9 10
M  V30 10 2 10 11
M  V30 11 1 11 12
M  V30 12 1 12 13
M  V30 13 1 13 14
M  V30 14 1 14 15
M  V30 15 2 15 16
M  V30 16 1 16 17
M  V30 17 1 16 18
M  V30 18 1 18 19
M  V30 19 2 12 20
M  V30 20 1 20 21
M  V30 21 1 21 22
M  V30 22 1 22 23
M  V30 23 1 23 24
M  V30 24 1 24 25
M  V30 25 1 25 26
M  V30 26 1 25 27
M  V30 27 1 27 28
M  V30 28 2 21 29
M  V30 29 1 8 30
M  V30 30 2 30 31
M  V30 31 1 31 5
M  V30 32 1 29 10
M  V30 33 2 19 14
M  V30 34 1 28 22
M  V30 35 1 1 32
M  V30 36 1 1 33
M  V30 37 1 1 34
M  V30 38 1 2 35
M  V30 39 1 6 36
M  V30 40 1 7 37
M  V30 41 1 9 38
M  V30 42 1 13 39
M  V30 43 1 15 40
M  V30 44 1 17 41
M  V30 45 1 17 42
M  V30 46 1 17 43
M  V30 47 1 18 44
M  V30 48 1 20 45
M  V30 49 1 23 46
M  V30 50 1 23 47
M  V30 51 1 24 48
M  V30 52 1 24 49
M  V30 53 1 26 50
M  V30 54 1 26 51
M  V30 55 1 26 52
M  V30 56 1 27 53
M  V30 57 1 27 54
M  V30 58 1 28 55
M  V30 59 1 28 56
M  V30 60 1 30 57
M  V30 61 1 31 58
M  V30 END BOND
M  V30 END CTAB
M  END
>  <Dataset>  (553) 
ChEMBL_Kinases

>  <Ligand_Instance>  (553) 
nan

>  <PDB_ID>  (553) 
nan

>  <Standardized_SMILES>  (553) 
CNC(=O)c1ccc(Nc2nc(Nc3cc(C)[nH]n3)cc(N3CCN(C)CC3)n2)cc1

>  <Name>  (553) 
nan

>  <Pocket>  (553) 
nan

>  <ATP_Site>  (553) 
nan

>  <Peripheral>  (553) 
nan

>  <Num_H_Atoms_ProtBoundConf>  (553) 
nan

>  <Num_Resolved_Atoms>  (553) 
nan

>  <Num_Not_Resolved_Atoms>  (553) 
nan

$$$$
CHEMBL3237183
     RDKit          3D

  0  0  0  0  0  0  0  0  0  0999 V3000
M  V30 BEGIN CTAB
M  V30 COUNTS 55 58 0 0 0
M  V30 BEGIN ATOM
M  V30 1 C 4.412662 -5.098281 -1.121341 0
M  V30 2 O 3.581266 -3.999306 -0.877449 0
M  V30 3 C 3.982127 -2.796491 -0.336794 0
M  V30 4 C 5.303349 -2.664138 -0.010500 0
M  V30 5 C 5.784382 -1.494872 0.534160 0
M  V30 6 C 4.895366 -0.461045 0.741161 0
M  V30 7 C 3.580052 -0.655784 0.392420 0
M  V30 8 C 3.046836 -1.794920 -0.151691 0
M  V30 9 N 1.693328 -1.980690 -0.504815 0
M  V30 10 C 0.620617 -1.061627 -0.378777 0
M  V30 11 N 0.682529 0.178728 0.105685 0
M  V30 12 C -0.347948 1.021127 0.211717 0
M  V30 13 N -0.151231 2.311887 0.743268 0
M  V30 14 C -0.163944 3.028648 1.970825 0
M  V30 15 C 0.845217 3.270446 2.877727 0
M  V30 16 C 0.224049 4.013792 3.855193 0
M  V30 17 C 0.904775 4.531928 5.077944 0
M  V30 18 N -1.074073 4.208234 3.558682 0
M  V30 19 N -1.295527 3.599214 2.402682 0
M  V30 20 C -1.581817 0.584291 -0.210898 0
M  V30 21 C -1.692571 -0.686216 -0.716992 0
M  V30 22 N -2.916078 -1.237161 -1.180928 0
M  V30 23 C -4.200570 -0.571292 -1.196766 0
M  V30 24 C -5.094424 -1.303507 -0.216620 0
M  V30 25 N -4.877954 -2.733780 -0.216874 0
M  V30 26 C -4.046795 -3.094328 0.901207 0
M  V30 27 C -4.345766 -3.203693 -1.478667 0
M  V30 28 C -2.985013 -2.587412 -1.706434 0
M  V30 29 N -0.601147 -1.440905 -0.777022 0
M  V30 30 H 4.610917 -5.742471 -0.252297 0
M  V30 31 H 3.985501 -5.783581 -1.903308 0
M  V30 32 H 5.411235 -4.812789 -1.544447 0
M  V30 33 H 6.018434 -3.450605 -0.159563 0
M  V30 34 H 6.821349 -1.385656 0.792303 0
M  V30 35 H 5.269163 0.458240 1.168505 0
M  V30 36 H 2.953858 0.198683 0.586189 0
M  V30 37 H 1.468280 -2.934771 -0.914998 0
M  V30 38 H 0.072761 2.832143 -0.147626 0
M  V30 39 H 1.860994 2.923874 2.775044 0
M  V30 40 H 0.497517 5.547442 5.349164 0
M  V30 41 H 0.688536 3.856842 5.928168 0
M  V30 42 H 1.985617 4.578637 4.946480 0
M  V30 43 H -1.757597 4.744241 4.148902 0
M  V30 44 H -2.435781 1.232970 -0.141608 0
M  V30 45 H -4.657854 -0.727719 -2.195463 0
M  V30 46 H -4.155741 0.471191 -0.890836 0
M  V30 47 H -5.040238 -0.874165 0.801121 0
M  V30 48 H -6.140319 -1.151333 -0.553693 0
M  V30 49 H -3.290297 -3.860841 0.645467 0
M  V30 50 H -4.677893 -3.542683 1.699579 0
M  V30 51 H -3.499803 -2.253815 1.351010 0
M  V30 52 H -4.227195 -4.291163 -1.434310 0
M  V30 53 H -5.063528 -2.969200 -2.278393 0
M  V30 54 H -2.245497 -3.252918 -1.182932 0
M  V30 55 H -2.689036 -2.634339 -2.775316 0
M  V30 END ATOM
M  V30 BEGIN BOND
M  V30 1 1 1 2
M  V30 2 1 2 3
M  V30 3 2 3 4
M  V30 4 1 4 5
M  V30 5 2 5 6
M  V30 6 1 6 7
M  V30 7 2 7 8
M  V30 8 1 8 9
M  V30 9 1 9 10
M  V30 10 2 10 11
M  V30 11 1 11 12
M  V30 12 1 12 13
M  V30 13 1 13 14
M  V30 14 1 14 15
M  V30 15 2 15 16
M  V30 16 1 16 17
M  V30 17 1 16 18
M  V30 18 1 18 19
M  V30 19 2 12 20
M  V30 20 1 20 21
M  V30 21 1 21 22
M  V30 22 1 22 23
M  V30 23 1 23 24
M  V30 24 1 24 25
M  V30 25 1 25 26
M  V30 26 1 25 27
M  V30 27 1 27 28
M  V30 28 2 21 29
M  V30 29 1 8 3
M  V30 30 1 29 10
M  V30 31 2 19 14
M  V30 32 1 28 22
M  V30 33 1 1 30
M  V30 34 1 1 31
M  V30 35 1 1 32
M  V30 36 1 4 33
M  V30 37 1 5 34
M  V30 38 1 6 35
M  V30 39 1 7 36
M  V30 40 1 9 37
M  V30 41 1 13 38
M  V30 42 1 15 39
M  V30 43 1 17 40
M  V30 44 1 17 41
M  V30 45 1 17 42
M  V30 46 1 18 43
M  V30 47 1 20 44
M  V30 48 1 23 45
M  V30 49 1 23 46
M  V30 50 1 24 47
M  V30 51 1 24 48
M  V30 52 1 26 49
M  V30 53 1 26 50
M  V30 54 1 26 51
M  V30 55 1 27 52
M  V30 56 1 27 53
M  V30 57 1 28 54
M  V30 58 1 28 55
M  V30 END BOND
M  V30 END CTAB
M  END
>  <Dataset>  (554) 
ChEMBL_Kinases

>  <Ligand_Instance>  (554) 
nan

>  <PDB_ID>  (554) 
nan

>  <Standardized_SMILES>  (554) 
COc1ccccc1Nc1nc(Nc2cc(C)[nH]n2)cc(N2CCN(C)CC2)n1

>  <Name>  (554) 
nan

>  <Pocket>  (554) 
nan

>  <ATP_Site>  (554) 
nan

>  <Peripheral>  (554) 
nan

>  <Num_H_Atoms_ProtBoundConf>  (554) 
nan

>  <Num_Resolved_Atoms>  (554) 
nan

>  <Num_Not_Resolved_Atoms>  (554) 
nan

$$$$
CHEMBL3237184
     RDKit          3D

  0  0  0  0  0  0  0  0  0  0999 V3000
M  V30 BEGIN CTAB
M  V30 COUNTS 55 58 0 0 0
M  V30 BEGIN ATOM
M  V30 1 C 2.392960 -3.162696 3.756598 0
M  V30 2 O 2.029316 -2.486108 2.585868 0
M  V30 3 C 2.879929 -2.176750 1.552949 0
M  V30 4 C 4.223705 -2.442378 1.419418 0
M  V30 5 C 4.946772 -2.065634 0.309480 0
M  V30 6 C 4.363078 -1.395500 -0.741699 0
M  V30 7 C 3.012633 -1.105784 -0.652648 0
M  V30 8 N 2.251503 -0.410485 -1.673233 0
M  V30 9 C 0.888090 -0.077183 -1.462413 0
M  V30 10 N 0.784559 1.166695 -0.959838 0
M  V30 11 C -0.404507 1.736424 -0.639439 0
M  V30 12 N -0.549668 3.052153 -0.124078 0
M  V30 13 C -0.119955 3.091751 1.250805 0
M  V30 14 C -0.446281 2.877175 2.580061 0
M  V30 15 C 0.682247 3.219005 3.319545 0
M  V30 16 C 0.527554 3.048463 4.780543 0
M  V30 17 N 1.621893 3.614398 2.456422 0
M  V30 18 N 1.166309 3.548562 1.195564 0
M  V30 19 C -1.497474 0.928966 -0.872944 0
M  V30 20 C -1.441759 -0.348335 -1.385153 0
M  V30 21 N -2.578099 -1.158009 -1.607705 0
M  V30 22 C -3.895190 -0.940889 -1.056527 0
M  V30 23 C -4.061946 -2.050170 -0.006704 0
M  V30 24 N -3.879320 -3.347144 -0.621639 0
M  V30 25 C -2.591914 -3.924008 -0.197384 0
M  V30 26 C -3.757374 -3.236871 -2.071591 0
M  V30 27 C -2.594583 -2.336311 -2.449432 0
M  V30 28 N -0.218334 -0.848196 -1.681056 0
M  V30 29 C 2.277882 -1.492737 0.484143 0
M  V30 30 H 3.401148 -3.571742 3.685502 0
M  V30 31 H 2.288947 -2.521802 4.667455 0
M  V30 32 H 1.671893 -3.996856 3.930923 0
M  V30 33 H 4.678207 -2.967831 2.245407 0
M  V30 34 H 5.998931 -2.283363 0.227139 0
M  V30 35 H 4.816926 -1.049823 -1.647371 0
M  V30 36 H 2.814863 -0.191817 -2.550836 0
M  V30 37 H -0.911867 3.859331 -0.662864 0
M  V30 38 H -1.460581 2.515990 2.629374 0
M  V30 39 H -0.308612 3.650955 5.198551 0
M  V30 40 H 1.477036 3.416970 5.253543 0
M  V30 41 H 0.403537 1.998466 5.065471 0
M  V30 42 H 2.553742 3.911986 2.876330 0
M  V30 43 H -2.466087 1.359756 -0.625276 0
M  V30 44 H -3.988842 0.006844 -0.489576 0
M  V30 45 H -4.703135 -1.018774 -1.813250 0
M  V30 46 H -4.983697 -1.944425 0.579741 0
M  V30 47 H -3.206252 -1.865207 0.702139 0
M  V30 48 H -2.192788 -4.595984 -1.005449 0
M  V30 49 H -2.638780 -4.399617 0.786963 0
M  V30 50 H -1.890075 -3.079664 -0.144979 0
M  V30 51 H -3.476820 -4.267421 -2.430548 0
M  V30 52 H -4.720129 -2.928114 -2.507085 0
M  V30 53 H -2.777903 -2.070650 -3.519777 0
M  V30 54 H -1.669884 -2.930060 -2.365667 0
M  V30 55 H 1.223279 -1.256484 0.533474 0
M  V30 END ATOM
M  V30 BEGIN BOND
M  V30 1 1 1 2
M  V30 2 1 2 3
M  V30 3 2 3 4
M  V30 4 1 4 5
M  V30 5 2 5 6
M  V30 6 1 6 7
M  V30 7 1 7 8
M  V30 8 1 8 9
M  V30 9 2 9 10
M  V30 10 1 10 11
M  V30 11 1 11 12
M  V30 12 1 12 13
M  V30 13 1 13 14
M  V30 14 2 14 15
M  V30 15 1 15 16
M  V30 16 1 15 17
M  V30 17 1 17 18
M  V30 18 2 11 19
M  V30 19 1 19 20
M  V30 20 1 20 21
M  V30 21 1 21 22
M  V30 22 1 22 23
M  V30 23 1 23 24
M  V30 24 1 24 25
M  V30 25 1 24 26
M  V30 26 1 26 27
M  V30 27 2 20 28
M  V30 28 2 7 29
M  V30 29 1 29 3
M  V30 30 1 28 9
M  V30 31 2 18 13
M  V30 32 1 27 21
M  V30 33 1 1 30
M  V30 34 1 1 31
M  V30 35 1 1 32
M  V30 36 1 4 33
M  V30 37 1 5 34
M  V30 38 1 6 35
M  V30 39 1 8 36
M  V30 40 1 12 37
M  V30 41 1 14 38
M  V30 42 1 16 39
M  V30 43 1 16 40
M  V30 44 1 16 41
M  V30 45 1 17 42
M  V30 46 1 19 43
M  V30 47 1 22 44
M  V30 48 1 22 45
M  V30 49 1 23 46
M  V30 50 1 23 47
M  V30 51 1 25 48
M  V30 52 1 25 49
M  V30 53 1 25 50
M  V30 54 1 26 51
M  V30 55 1 26 52
M  V30 56 1 27 53
M  V30 57 1 27 54
M  V30 58 1 29 55
M  V30 END BOND
M  V30 END CTAB
M  END
>  <Dataset>  (555) 
ChEMBL_Kinases

>  <Ligand_Instance>  (555) 
nan

>  <PDB_ID>  (555) 
nan

>  <Standardized_SMILES>  (555) 
COc1cccc(Nc2nc(Nc3cc(C)[nH]n3)cc(N3CCN(C)CC3)n2)c1

>  <Name>  (555) 
nan

>  <Pocket>  (555) 
nan

>  <ATP_Site>  (555) 
nan

>  <Peripheral>  (555) 
nan

>  <Num_H_Atoms_ProtBoundConf>  (555) 
nan

>  <Num_Resolved_Atoms>  (555) 
nan

>  <Num_Not_Resolved_Atoms>  (555) 
nan

$$$$
CHEMBL324091
     RDKit          3D

  0  0  0  0  0  0  0  0  0  0999 V3000
M  V30 BEGIN CTAB
M  V30 COUNTS 39 42 0 0 0
M  V30 BEGIN ATOM
M  V30 1 N 3.696118 0.437856 2.918719 0
M  V30 2 C 4.328633 -0.398938 1.966769 0
M  V30 3 C 5.115728 -1.427312 2.452256 0
M  V30 4 C 5.770395 -2.292343 1.605502 0
M  V30 5 F 6.541406 -3.299696 2.081058 0
M  V30 6 C 5.611329 -2.094290 0.244991 0
M  V30 7 C 4.836346 -1.082327 -0.308760 0
M  V30 8 C 4.207165 -0.250278 0.594476 0
M  V30 9 S 3.168545 1.107779 0.088578 0
M  V30 10 C 1.458679 0.624504 -0.096778 0
M  V30 11 C 0.629184 0.725745 1.001973 0
M  V30 12 C -0.681543 0.337759 0.797789 0
M  V30 13 C -1.158946 -0.129793 -0.431810 0
M  V30 14 C -2.476133 -0.505359 -0.586278 0
M  V30 15 C -3.324403 -0.380935 0.611288 0
M  V30 16 C -3.380360 -1.496652 1.435143 0
M  V30 17 Cl -2.468653 -2.956429 1.026827 0
M  V30 18 C -4.162256 -1.440181 2.577588 0
M  V30 19 C -4.877014 -0.304662 2.903602 0
M  V30 20 C -4.779730 0.763754 2.048731 0
M  V30 21 C -4.025841 0.792327 0.892190 0
M  V30 22 Cl -3.910737 2.152486 -0.182924 0
M  V30 23 C -2.924035 -0.965885 -1.817353 0
M  V30 24 O -4.120227 -1.287314 -1.888085 0
M  V30 25 N -2.010786 -1.019127 -2.820873 0
M  V30 26 C -0.722585 -0.637356 -2.618567 0
M  V30 27 N -0.254617 -0.182599 -1.425829 0
M  V30 28 N 1.015885 0.173292 -1.299402 0
M  V30 29 H 4.076512 1.334325 3.276677 0
M  V30 30 H 2.812200 0.475142 3.496465 0
M  V30 31 H 5.229932 -1.568715 3.531958 0
M  V30 32 H 6.124022 -2.771762 -0.422408 0
M  V30 33 H 4.713281 -0.929059 -1.356738 0
M  V30 34 H 0.973400 1.080902 1.952426 0
M  V30 35 H -1.370192 0.405770 1.653140 0
M  V30 36 H -4.206431 -2.302710 3.215866 0
M  V30 37 H -5.481972 -0.284158 3.802883 0
M  V30 38 H -5.336361 1.662857 2.292813 0
M  V30 39 H -0.048976 -0.707423 -3.467787 0
M  V30 END ATOM
M  V30 BEGIN BOND
M  V30 1 1 1 2
M  V30 2 2 2 3
M  V30 3 1 3 4
M  V30 4 1 4 5
M  V30 5 2 4 6
M  V30 6 1 6 7
M  V30 7 2 7 8
M  V30 8 1 8 9
M  V30 9 1 9 10
M  V30 10 1 10 11
M  V30 11 2 11 12
M  V30 12 1 12 13
M  V30 13 2 13 14
M  V30 14 1 14 15
M  V30 15 2 15 16
M  V30 16 1 16 17
M  V30 17 1 16 18
M  V30 18 2 18 19
M  V30 19 1 19 20
M  V30 20 2 20 21
M  V30 21 1 21 22
M  V30 22 1 14 23
M  V30 23 2 23 24
M  V30 24 1 23 25
M  V30 25 2 25 26
M  V30 26 1 26 27
M  V30 27 1 27 28
M  V30 28 1 8 2
M  V30 29 2 28 10
M  V30 30 1 27 13
M  V30 31 1 21 15
M  V30 32 1 1 29
M  V30 33 1 1 30
M  V30 34 1 3 31
M  V30 35 1 6 32
M  V30 36 1 7 33
M  V30 37 1 11 34
M  V30 38 1 12 35
M  V30 39 1 18 36
M  V30 40 1 19 37
M  V30 41 1 20 38
M  V30 42 1 26 39
M  V30 END BOND
M  V30 END CTAB
M  END
>  <Dataset>  (556) 
ChEMBL_Kinases

>  <Ligand_Instance>  (556) 
nan

>  <PDB_ID>  (556) 
nan

>  <Standardized_SMILES>  (556) 
Nc1cc(F)ccc1Sc1ccc2c(-c3c(Cl)cccc3Cl)c(=O)ncn2n1

>  <Name>  (556) 
nan

>  <Pocket>  (556) 
nan

>  <ATP_Site>  (556) 
nan

>  <Peripheral>  (556) 
nan

>  <Num_H_Atoms_ProtBoundConf>  (556) 
nan

>  <Num_Resolved_Atoms>  (556) 
nan

>  <Num_Not_Resolved_Atoms>  (556) 
nan

$$$$
CHEMBL3237186
     RDKit          3D

  0  0  0  0  0  0  0  0  0  0999 V3000
M  V30 BEGIN CTAB
M  V30 COUNTS 51 54 0 0 0
M  V30 BEGIN ATOM
M  V30 1 C 0.101173 -4.031508 5.293941 0
M  V30 2 C 0.978769 -4.283153 4.120357 0
M  V30 3 C 1.010903 -3.614201 2.897626 0
M  V30 4 C 1.973774 -4.150662 2.066831 0
M  V30 5 N 2.303365 -3.732362 0.738351 0
M  V30 6 C 1.493614 -2.634820 0.284758 0
M  V30 7 C 1.795640 -1.321914 0.499791 0
M  V30 8 C 0.957591 -0.349671 0.028147 0
M  V30 9 N 1.253858 1.022916 0.240805 0
M  V30 10 C 2.457485 1.496602 0.833097 0
M  V30 11 C 2.078173 2.130463 2.155344 0
M  V30 12 N 1.252227 3.255018 1.893003 0
M  V30 13 C 1.886298 4.528795 1.976753 0
M  V30 14 C 0.191167 3.112578 0.979281 0
M  V30 15 C 0.352134 2.101670 -0.115795 0
M  V30 16 N -0.133592 -0.752499 -0.631545 0
M  V30 17 C -0.478075 -2.024440 -0.871083 0
M  V30 18 N -1.626994 -2.468800 -1.568613 0
M  V30 19 C -2.647445 -1.689544 -2.161665 0
M  V30 20 C -2.724089 -0.326160 -2.182910 0
M  V30 21 C -3.700058 0.451437 -2.749685 0
M  V30 22 C -4.739816 -0.211008 -3.379832 0
M  V30 23 C -4.740185 -1.588138 -3.404457 0
M  V30 24 C -3.724600 -2.296124 -2.813000 0
M  V30 25 Cl -3.803144 -4.044029 -2.891808 0
M  V30 26 N 0.374761 -2.942583 -0.388916 0
M  V30 27 N 2.514070 -5.145533 2.807280 0
M  V30 28 N 1.932359 -5.217446 3.998291 0
M  V30 29 H 0.708615 -3.629216 6.150996 0
M  V30 30 H -0.625340 -3.224229 5.064823 0
M  V30 31 H -0.496959 -4.922698 5.594384 0
M  V30 32 H 0.338467 -2.790159 2.695848 0
M  V30 33 H 3.053582 -4.216219 0.225275 0
M  V30 34 H 2.690869 -1.138927 1.038390 0
M  V30 35 H 2.849892 2.340418 0.192630 0
M  V30 36 H 3.290844 0.789000 0.906295 0
M  V30 37 H 2.998066 2.504498 2.678518 0
M  V30 38 H 1.594495 1.381871 2.832107 0
M  V30 39 H 2.961117 4.498020 1.697873 0
M  V30 40 H 1.890130 4.882736 3.044708 0
M  V30 41 H 1.390311 5.312954 1.386957 0
M  V30 42 H 0.003270 4.097656 0.493926 0
M  V30 43 H -0.738829 2.890484 1.575743 0
M  V30 44 H 0.735647 2.565026 -1.045822 0
M  V30 45 H -0.664106 1.722124 -0.342753 0
M  V30 46 H -1.756424 -3.519324 -1.669622 0
M  V30 47 H -1.943037 0.244104 -1.709217 0
M  V30 48 H -3.698813 1.519926 -2.730134 0
M  V30 49 H -5.556135 0.310319 -3.855967 0
M  V30 50 H -5.550876 -2.110860 -3.895412 0
M  V30 51 H 2.183555 -5.909096 4.740768 0
M  V30 END ATOM
M  V30 BEGIN BOND
M  V30 1 1 1 2
M  V30 2 2 2 3
M  V30 3 1 3 4
M  V30 4 1 4 5
M  V30 5 1 5 6
M  V30 6 2 6 7
M  V30 7 1 7 8
M  V30 8 1 8 9
M  V30 9 1 9 10
M  V30 10 1 10 11
M  V30 11 1 11 12
M  V30 12 1 12 13
M  V30 13 1 12 14
M  V30 14 1 14 15
M  V30 15 2 8 16
M  V30 16 1 16 17
M  V30 17 1 17 18
M  V30 18 1 18 19
M  V30 19 2 19 20
M  V30 20 1 20 21
M  V30 21 2 21 22
M  V30 22 1 22 23
M  V30 23 2 23 24
M  V30 24 1 24 25
M  V30 25 2 17 26
M  V30 26 2 4 27
M  V30 27 1 27 28
M  V30 28 1 28 2
M  V30 29 1 26 6
M  V30 30 1 15 9
M  V30 31 1 24 19
M  V30 32 1 1 29
M  V30 33 1 1 30
M  V30 34 1 1 31
M  V30 35 1 3 32
M  V30 36 1 5 33
M  V30 37 1 7 34
M  V30 38 1 10 35
M  V30 39 1 10 36
M  V30 40 1 11 37
M  V30 41 1 11 38
M  V30 42 1 13 39
M  V30 43 1 13 40
M  V30 44 1 13 41
M  V30 45 1 14 42
M  V30 46 1 14 43
M  V30 47 1 15 44
M  V30 48 1 15 45
M  V30 49 1 18 46
M  V30 50 1 20 47
M  V30 51 1 21 48
M  V30 52 1 22 49
M  V30 53 1 23 50
M  V30 54 1 28 51
M  V30 END BOND
M  V30 END CTAB
M  END
>  <Dataset>  (557) 
ChEMBL_Kinases

>  <Ligand_Instance>  (557) 
nan

>  <PDB_ID>  (557) 
nan

>  <Standardized_SMILES>  (557) 
Cc1cc(Nc2cc(N3CCN(C)CC3)nc(Nc3ccccc3Cl)n2)n[nH]1

>  <Name>  (557) 
nan

>  <Pocket>  (557) 
nan

>  <ATP_Site>  (557) 
nan

>  <Peripheral>  (557) 
nan

>  <Num_H_Atoms_ProtBoundConf>  (557) 
nan

>  <Num_Resolved_Atoms>  (557) 
nan

>  <Num_Not_Resolved_Atoms>  (557) 
nan

$$$$
CHEMBL3237187
     RDKit          3D

  0  0  0  0  0  0  0  0  0  0999 V3000
M  V30 BEGIN CTAB
M  V30 COUNTS 51 54 0 0 0
M  V30 BEGIN ATOM
M  V30 1 C 0.054531 -4.504300 4.182977 0
M  V30 2 C 1.031648 -4.495698 3.057854 0
M  V30 3 C 1.078802 -3.609388 1.976833 0
M  V30 4 C 2.149041 -3.943235 1.143129 0
M  V30 5 N 2.499423 -3.249553 -0.060026 0
M  V30 6 C 1.639015 -2.135565 -0.374308 0
M  V30 7 C 1.974439 -0.908045 0.131682 0
M  V30 8 C 1.114499 0.109229 -0.204906 0
M  V30 9 N 1.358977 1.429462 0.263264 0
M  V30 10 C 2.462517 1.856154 1.079896 0
M  V30 11 C 1.816345 2.288145 2.377069 0
M  V30 12 N 1.173779 3.540609 2.114202 0
M  V30 13 C 2.031028 4.647414 2.475391 0
M  V30 14 C 0.591628 3.702669 0.836878 0
M  V30 15 C 0.471639 2.532710 -0.051308 0
M  V30 16 N 0.027661 -0.088745 -0.972712 0
M  V30 17 C -0.272098 -1.329939 -1.458231 0
M  V30 18 N -1.444009 -1.412097 -2.257906 0
M  V30 19 C -2.774237 -1.658372 -1.836655 0
M  V30 20 C -3.043530 -1.844715 -0.499747 0
M  V30 21 C -4.344480 -2.082640 -0.110531 0
M  V30 22 C -5.307850 -2.121035 -1.085186 0
M  V30 23 C -5.044524 -1.934356 -2.433115 0
M  V30 24 Cl -6.285061 -1.985238 -3.678651 0
M  V30 25 C -3.731179 -1.694644 -2.821876 0
M  V30 26 N 0.556311 -2.345144 -1.141973 0
M  V30 27 N 2.708830 -5.008423 1.739082 0
M  V30 28 N 2.058707 -5.325064 2.847593 0
M  V30 29 H 0.588448 -4.657120 5.144831 0
M  V30 30 H -0.492903 -3.552127 4.231086 0
M  V30 31 H -0.641105 -5.342763 4.023703 0
M  V30 32 H 0.353283 -2.812280 1.880483 0
M  V30 33 H 3.318503 -3.599550 -0.585280 0
M  V30 34 H 2.837748 -0.796194 0.731440 0
M  V30 35 H 2.934218 2.743497 0.567819 0
M  V30 36 H 3.283522 1.135462 1.190531 0
M  V30 37 H 2.541893 2.388436 3.203507 0
M  V30 38 H 1.002420 1.556940 2.649434 0
M  V30 39 H 1.542734 5.241532 3.297303 0
M  V30 40 H 2.170872 5.364582 1.642484 0
M  V30 41 H 3.033480 4.305158 2.767798 0
M  V30 42 H 1.112334 4.558663 0.316747 0
M  V30 43 H -0.441746 4.121857 1.013754 0
M  V30 44 H 0.755596 2.837145 -1.093158 0
M  V30 45 H -0.586280 2.198768 -0.149982 0
M  V30 46 H -1.156936 -1.256427 -3.243046 0
M  V30 47 H -2.238200 -1.804082 0.235834 0
M  V30 48 H -4.623843 -2.237331 0.924977 0
M  V30 49 H -6.359896 -2.298819 -0.903233 0
M  V30 50 H -3.509390 -1.546791 -3.870917 0
M  V30 51 H 2.271097 -6.105457 3.509827 0
M  V30 END ATOM
M  V30 BEGIN BOND
M  V30 1 1 1 2
M  V30 2 2 2 3
M  V30 3 1 3 4
M  V30 4 1 4 5
M  V30 5 1 5 6
M  V30 6 2 6 7
M  V30 7 1 7 8
M  V30 8 1 8 9
M  V30 9 1 9 10
M  V30 10 1 10 11
M  V30 11 1 11 12
M  V30 12 1 12 13
M  V30 13 1 12 14
M  V30 14 1 14 15
M  V30 15 2 8 16
M  V30 16 1 16 17
M  V30 17 1 17 18
M  V30 18 1 18 19
M  V30 19 2 19 20
M  V30 20 1 20 21
M  V30 21 2 21 22
M  V30 22 1 22 23
M  V30 23 1 23 24
M  V30 24 2 23 25
M  V30 25 2 17 26
M  V30 26 2 4 27
M  V30 27 1 27 28
M  V30 28 1 28 2
M  V30 29 1 26 6
M  V30 30 1 15 9
M  V30 31 1 25 19
M  V30 32 1 1 29
M  V30 33 1 1 30
M  V30 34 1 1 31
M  V30 35 1 3 32
M  V30 36 1 5 33
M  V30 37 1 7 34
M  V30 38 1 10 35
M  V30 39 1 10 36
M  V30 40 1 11 37
M  V30 41 1 11 38
M  V30 42 1 13 39
M  V30 43 1 13 40
M  V30 44 1 13 41
M  V30 45 1 14 42
M  V30 46 1 14 43
M  V30 47 1 15 44
M  V30 48 1 15 45
M  V30 49 1 18 46
M  V30 50 1 20 47
M  V30 51 1 21 48
M  V30 52 1 22 49
M  V30 53 1 25 50
M  V30 54 1 28 51
M  V30 END BOND
M  V30 END CTAB
M  END
>  <Dataset>  (558) 
ChEMBL_Kinases

>  <Ligand_Instance>  (558) 
nan

>  <PDB_ID>  (558) 
nan

>  <Standardized_SMILES>  (558) 
Cc1cc(Nc2cc(N3CCN(C)CC3)nc(Nc3cccc(Cl)c3)n2)n[nH]1

>  <Name>  (558) 
nan

>  <Pocket>  (558) 
nan

>  <ATP_Site>  (558) 
nan

>  <Peripheral>  (558) 
nan

>  <Num_H_Atoms_ProtBoundConf>  (558) 
nan

>  <Num_Resolved_Atoms>  (558) 
nan

>  <Num_Not_Resolved_Atoms>  (558) 
nan

$$$$
CHEMBL3237188
     RDKit          3D

  0  0  0  0  0  0  0  0  0  0999 V3000
M  V30 BEGIN CTAB
M  V30 COUNTS 51 54 0 0 0
M  V30 BEGIN ATOM
M  V30 1 C 0.436362 -3.671810 5.238752 0
M  V30 2 C 1.059468 -4.016219 3.937484 0
M  V30 3 C 0.814718 -3.297996 2.758920 0
M  V30 4 C 1.531929 -3.859821 1.701463 0
M  V30 5 N 1.536924 -3.406495 0.345988 0
M  V30 6 C 0.729677 -2.250480 0.085134 0
M  V30 7 C 1.363398 -1.014309 0.183324 0
M  V30 8 C 0.726966 0.166730 -0.037568 0
M  V30 9 N 1.443819 1.381424 0.080789 0
M  V30 10 C 2.869193 1.515368 0.190987 0
M  V30 11 C 3.199664 1.999704 1.556475 0
M  V30 12 N 2.185901 2.760880 2.180741 0
M  V30 13 C 2.712046 3.675107 3.182021 0
M  V30 14 C 1.257585 3.458718 1.365197 0
M  V30 15 C 0.829068 2.716331 0.127270 0
M  V30 16 N -0.566492 0.121048 -0.363223 0
M  V30 17 C -1.234122 -1.061071 -0.473051 0
M  V30 18 N -2.596128 -1.225045 -0.816238 0
M  V30 19 C -3.469564 -1.530970 -1.878919 0
M  V30 20 C -4.813845 -1.480725 -1.602235 0
M  V30 21 C -5.730272 -1.778110 -2.577572 0
M  V30 22 C -5.244756 -2.121480 -3.824663 0
M  V30 23 Cl -6.478505 -2.491986 -5.020734 0
M  V30 24 C -3.901218 -2.190203 -4.169704 0
M  V30 25 C -3.043435 -1.878501 -3.135913 0
M  V30 26 N -0.582316 -2.231217 -0.248797 0
M  V30 27 N 2.190139 -4.896283 2.258886 0
M  V30 28 N 1.911814 -4.977779 3.541812 0
M  V30 29 H 1.134530 -3.931212 6.042044 0
M  V30 30 H 0.273757 -2.590608 5.271874 0
M  V30 31 H -0.539458 -4.184774 5.367515 0
M  V30 32 H 0.151784 -2.426671 2.703043 0
M  V30 33 H 2.107106 -3.923057 -0.334468 0
M  V30 34 H 2.398054 -1.004046 0.446375 0
M  V30 35 H 3.231922 2.307159 -0.528990 0
M  V30 36 H 3.447594 0.615681 -0.094868 0
M  V30 37 H 4.133626 2.625690 1.491320 0
M  V30 38 H 3.473269 1.137990 2.208660 0
M  V30 39 H 3.831015 3.606774 3.163974 0
M  V30 40 H 2.476181 4.743631 2.953859 0
M  V30 41 H 2.314331 3.470665 4.192473 0
M  V30 42 H 1.609769 4.485069 1.138978 0
M  V30 43 H 0.330243 3.591370 1.975168 0
M  V30 44 H 1.255449 3.258849 -0.738828 0
M  V30 45 H -0.255724 2.694420 -0.014077 0
M  V30 46 H -2.947580 -1.018260 0.147699 0
M  V30 47 H -5.183048 -1.205820 -0.604183 0
M  V30 48 H -6.779644 -1.735189 -2.350416 0
M  V30 49 H -3.640880 -2.466594 -5.170767 0
M  V30 50 H -1.981508 -1.919094 -3.366049 0
M  V30 51 H 2.268899 -5.673491 4.237698 0
M  V30 END ATOM
M  V30 BEGIN BOND
M  V30 1 1 1 2
M  V30 2 2 2 3
M  V30 3 1 3 4
M  V30 4 1 4 5
M  V30 5 1 5 6
M  V30 6 2 6 7
M  V30 7 1 7 8
M  V30 8 1 8 9
M  V30 9 1 9 10
M  V30 10 1 10 11
M  V30 11 1 11 12
M  V30 12 1 12 13
M  V30 13 1 12 14
M  V30 14 1 14 15
M  V30 15 2 8 16
M  V30 16 1 16 17
M  V30 17 1 17 18
M  V30 18 1 18 19
M  V30 19 2 19 20
M  V30 20 1 20 21
M  V30 21 2 21 22
M  V30 22 1 22 23
M  V30 23 1 22 24
M  V30 24 2 24 25
M  V30 25 2 17 26
M  V30 26 2 4 27
M  V30 27 1 27 28
M  V30 28 1 28 2
M  V30 29 1 26 6
M  V30 30 1 15 9
M  V30 31 1 25 19
M  V30 32 1 1 29
M  V30 33 1 1 30
M  V30 34 1 1 31
M  V30 35 1 3 32
M  V30 36 1 5 33
M  V30 37 1 7 34
M  V30 38 1 10 35
M  V30 39 1 10 36
M  V30 40 1 11 37
M  V30 41 1 11 38
M  V30 42 1 13 39
M  V30 43 1 13 40
M  V30 44 1 13 41
M  V30 45 1 14 42
M  V30 46 1 14 43
M  V30 47 1 15 44
M  V30 48 1 15 45
M  V30 49 1 18 46
M  V30 50 1 20 47
M  V30 51 1 21 48
M  V30 52 1 24 49
M  V30 53 1 25 50
M  V30 54 1 28 51
M  V30 END BOND
M  V30 END CTAB
M  END
>  <Dataset>  (559) 
ChEMBL_Kinases

>  <Ligand_Instance>  (559) 
nan

>  <PDB_ID>  (559) 
nan

>  <Standardized_SMILES>  (559) 
Cc1cc(Nc2cc(N3CCN(C)CC3)nc(Nc3ccc(Cl)cc3)n2)n[nH]1

>  <Name>  (559) 
nan

>  <Pocket>  (559) 
nan

>  <ATP_Site>  (559) 
nan

>  <Peripheral>  (559) 
nan

>  <Num_H_Atoms_ProtBoundConf>  (559) 
nan

>  <Num_Resolved_Atoms>  (559) 
nan

>  <Num_Not_Resolved_Atoms>  (559) 
nan

$$$$
CHEMBL3237189
     RDKit          3D

  0  0  0  0  0  0  0  0  0  0999 V3000
M  V30 BEGIN CTAB
M  V30 COUNTS 58 61 0 0 0
M  V30 BEGIN ATOM
M  V30 1 C 3.930781 -4.294591 4.594014 0
M  V30 2 C 3.590438 -3.605535 3.314060 0
M  V30 3 O 2.469338 -3.771109 2.765455 0
M  V30 4 N 4.462005 -2.721456 2.609703 0
M  V30 5 C 3.737929 -2.282295 1.437948 0
M  V30 6 C 3.840873 -2.867028 0.206263 0
M  V30 7 C 3.063117 -2.383551 -0.843855 0
M  V30 8 C 2.217703 -1.316829 -0.560907 0
M  V30 9 N 1.451126 -0.919111 -1.684662 0
M  V30 10 C 0.318121 -0.070259 -1.506963 0
M  V30 11 N -0.083290 1.198341 -1.760870 0
M  V30 12 C -1.315020 1.606115 -1.387108 0
M  V30 13 N -1.571618 2.968296 -1.722671 0
M  V30 14 C -0.849797 3.735685 -0.731286 0
M  V30 15 C -0.896503 4.262428 0.542035 0
M  V30 16 C 0.305123 4.903163 0.710618 0
M  V30 17 C 0.513348 5.561514 2.048923 0
M  V30 18 N 1.068440 4.788279 -0.400609 0
M  V30 19 N 0.345393 4.073617 -1.264175 0
M  V30 20 C -2.236323 0.803499 -0.740719 0
M  V30 21 C -1.806702 -0.477819 -0.493366 0
M  V30 22 N -2.686918 -1.415266 0.166102 0
M  V30 23 C -4.124792 -1.515723 0.076628 0
M  V30 24 C -4.424516 -2.858114 -0.574084 0
M  V30 25 N -3.265424 -3.655952 -0.712258 0
M  V30 26 C -2.780075 -3.953923 -1.999881 0
M  V30 27 C -2.372152 -3.771667 0.379886 0
M  V30 28 C -2.164003 -2.456062 1.070366 0
M  V30 29 N -0.565350 -0.860880 -0.879470 0
M  V30 30 C 2.105461 -0.717286 0.671100 0
M  V30 31 C 2.892706 -1.222451 1.690020 0
M  V30 32 H 4.679412 -5.073655 4.461236 0
M  V30 33 H 2.976420 -4.658920 5.029361 0
M  V30 34 H 4.345358 -3.552422 5.334903 0
M  V30 35 H 5.419077 -2.546322 3.018998 0
M  V30 36 H 4.516744 -3.684622 0.077476 0
M  V30 37 H 3.146139 -2.847843 -1.810286 0
M  V30 38 H 1.553324 -1.142537 -2.697452 0
M  V30 39 H -2.146746 3.384737 -2.506143 0
M  V30 40 H -1.831546 4.028681 1.026537 0
M  V30 41 H 1.432373 6.177153 1.957786 0
M  V30 42 H 0.662353 4.692392 2.753872 0
M  V30 43 H -0.368173 6.121907 2.373123 0
M  V30 44 H 2.030019 5.230764 -0.436422 0
M  V30 45 H -3.191000 1.169794 -0.474755 0
M  V30 46 H -4.612508 -0.665512 -0.436800 0
M  V30 47 H -4.521315 -1.582471 1.120112 0
M  V30 48 H -5.256408 -3.377999 -0.052486 0
M  V30 49 H -4.800180 -2.608265 -1.590919 0
M  V30 50 H -1.873832 -3.319621 -2.225008 0
M  V30 51 H -2.442190 -5.008074 -2.108585 0
M  V30 52 H -3.528311 -3.699945 -2.774582 0
M  V30 53 H -1.369552 -4.071320 -0.048553 0
M  V30 54 H -2.647920 -4.533682 1.139487 0
M  V30 55 H -1.093726 -2.201168 1.220227 0
M  V30 56 H -2.748371 -2.389722 2.012613 0
M  V30 57 H 1.428612 0.115950 0.835814 0
M  V30 58 H 2.817133 -0.759158 2.667480 0
M  V30 END ATOM
M  V30 BEGIN BOND
M  V30 1 1 1 2
M  V30 2 2 2 3
M  V30 3 1 2 4
M  V30 4 1 4 5
M  V30 5 2 5 6
M  V30 6 1 6 7
M  V30 7 2 7 8
M  V30 8 1 8 9
M  V30 9 1 9 10
M  V30 10 2 10 11
M  V30 11 1 11 12
M  V30 12 1 12 13
M  V30 13 1 13 14
M  V30 14 1 14 15
M  V30 15 2 15 16
M  V30 16 1 16 17
M  V30 17 1 16 18
M  V30 18 1 18 19
M  V30 19 2 12 20
M  V30 20 1 20 21
M  V30 21 1 21 22
M  V30 22 1 22 23
M  V30 23 1 23 24
M  V30 24 1 24 25
M  V30 25 1 25 26
M  V30 26 1 25 27
M  V30 27 1 27 28
M  V30 28 2 21 29
M  V30 29 1 8 30
M  V30 30 2 30 31
M  V30 31 1 31 5
M  V30 32 1 29 10
M  V30 33 2 19 14
M  V30 34 1 28 22
M  V30 35 1 1 32
M  V30 36 1 1 33
M  V30 37 1 1 34
M  V30 38 1 4 35
M  V30 39 1 6 36
M  V30 40 1 7 37
M  V30 41 1 9 38
M  V30 42 1 13 39
M  V30 43 1 15 40
M  V30 44 1 17 41
M  V30 45 1 17 42
M  V30 46 1 17 43
M  V30 47 1 18 44
M  V30 48 1 20 45
M  V30 49 1 23 46
M  V30 50 1 23 47
M  V30 51 1 24 48
M  V30 52 1 24 49
M  V30 53 1 26 50
M  V30 54 1 26 51
M  V30 55 1 26 52
M  V30 56 1 27 53
M  V30 57 1 27 54
M  V30 58 1 28 55
M  V30 59 1 28 56
M  V30 60 1 30 57
M  V30 61 1 31 58
M  V30 END BOND
M  V30 END CTAB
M  END
>  <Dataset>  (560) 
ChEMBL_Kinases

>  <Ligand_Instance>  (560) 
nan

>  <PDB_ID>  (560) 
nan

>  <Standardized_SMILES>  (560) 
CC(=O)Nc1ccc(Nc2nc(Nc3cc(C)[nH]n3)cc(N3CCN(C)CC3)n2)cc1

>  <Name>  (560) 
nan

>  <Pocket>  (560) 
nan

>  <ATP_Site>  (560) 
nan

>  <Peripheral>  (560) 
nan

>  <Num_H_Atoms_ProtBoundConf>  (560) 
nan

>  <Num_Resolved_Atoms>  (560) 
nan

>  <Num_Not_Resolved_Atoms>  (560) 
nan

$$$$
CHEMBL3237190
     RDKit          3D

  0  0  0  0  0  0  0  0  0  0999 V3000
M  V30 BEGIN CTAB
M  V30 COUNTS 64 68 0 0 0
M  V30 BEGIN ATOM
M  V30 1 C 5.976130 -3.205763 1.749351 0
M  V30 2 C 4.809999 -2.545397 2.373475 0
M  V30 3 C 4.613402 -1.169367 2.327885 0
M  V30 4 C 3.429226 -0.929338 3.013058 0
M  V30 5 N 2.679988 0.240176 3.324959 0
M  V30 6 C 1.637813 0.894284 2.610915 0
M  V30 7 C 1.797613 1.884020 1.688583 0
M  V30 8 C 0.722612 2.454159 1.050473 0
M  V30 9 N 0.855870 3.487136 0.084898 0
M  V30 10 C 2.112173 4.074406 -0.334004 0
M  V30 11 C 2.329448 3.600092 -1.774212 0
M  V30 12 N 1.076836 3.310911 -2.377719 0
M  V30 13 C 0.707175 1.949431 -2.471308 0
M  V30 14 C 0.014208 4.209105 -2.021068 0
M  V30 15 C -0.326918 4.028008 -0.561613 0
M  V30 16 N -0.481027 1.996328 1.373605 0
M  V30 17 C -0.695745 1.022654 2.275716 0
M  V30 18 N -1.995926 0.549347 2.604038 0
M  V30 19 C -2.456649 -0.530772 1.803076 0
M  V30 20 C -1.727206 -1.084025 0.773349 0
M  V30 21 C -2.152804 -2.132212 -0.015706 0
M  V30 22 C -3.389871 -2.684220 0.219830 0
M  V30 23 N -3.884623 -3.751779 -0.546196 0
M  V30 24 C -3.263803 -4.409363 -1.674499 0
M  V30 25 C -3.066603 -5.892529 -1.461045 0
M  V30 26 O -4.231527 -6.539524 -1.111881 0
M  V30 27 C -4.786185 -5.897637 -0.033617 0
M  V30 28 C -5.127460 -4.441221 -0.381346 0
M  V30 29 C -4.154371 -2.164740 1.237699 0
M  V30 30 C -3.708196 -1.114782 2.015322 0
M  V30 31 N 0.378559 0.484339 2.883702 0
M  V30 32 N 2.955863 -2.132994 3.441980 0
M  V30 33 N 3.798438 -3.096718 3.048988 0
M  V30 34 H 6.730755 -3.487978 2.506440 0
M  V30 35 H 6.431726 -2.570726 0.964575 0
M  V30 36 H 5.637667 -4.136405 1.245551 0
M  V30 37 H 5.164199 -0.354781 1.898635 0
M  V30 38 H 2.777077 0.845884 4.178320 0
M  V30 39 H 2.806346 2.207004 1.474920 0
M  V30 40 H 2.964806 3.857238 0.301930 0
M  V30 41 H 1.933886 5.186883 -0.392582 0
M  V30 42 H 2.873966 2.630294 -1.676274 0
M  V30 43 H 2.972672 4.286360 -2.329019 0
M  V30 44 H -0.051991 1.729057 -1.686865 0
M  V30 45 H 0.350646 1.615482 -3.448571 0
M  V30 46 H 1.602134 1.335538 -2.161975 0
M  V30 47 H 0.176908 5.243054 -2.324768 0
M  V30 48 H -0.900273 3.869739 -2.577219 0
M  V30 49 H -1.218570 3.404771 -0.388812 0
M  V30 50 H -0.517022 5.067916 -0.166048 0
M  V30 51 H -2.616179 0.903232 3.343601 0
M  V30 52 H -0.746765 -0.643458 0.589923 0
M  V30 53 H -1.478551 -2.465494 -0.786489 0
M  V30 54 H -3.879571 -4.264321 -2.593439 0
M  V30 55 H -2.304277 -3.937050 -1.873342 0
M  V30 56 H -2.667893 -6.332820 -2.375611 0
M  V30 57 H -2.313036 -6.010322 -0.666290 0
M  V30 58 H -4.031749 -5.803264 0.793543 0
M  V30 59 H -5.662486 -6.430914 0.365858 0
M  V30 60 H -5.768189 -4.403919 -1.310239 0
M  V30 61 H -5.742493 -4.104903 0.481700 0
M  V30 62 H -5.132602 -2.498453 1.527634 0
M  V30 63 H -4.280076 -0.678748 2.824920 0
M  V30 64 H 3.652959 -4.106290 3.257018 0
M  V30 END ATOM
M  V30 BEGIN BOND
M  V30 1 1 1 2
M  V30 2 2 2 3
M  V30 3 1 3 4
M  V30 4 1 4 5
M  V30 5 1 5 6
M  V30 6 2 6 7
M  V30 7 1 7 8
M  V30 8 1 8 9
M  V30 9 1 9 10
M  V30 10 1 10 11
M  V30 11 1 11 12
M  V30 12 1 12 13
M  V30 13 1 12 14
M  V30 14 1 14 15
M  V30 15 2 8 16
M  V30 16 1 16 17
M  V30 17 1 17 18
M  V30 18 1 18 19
M  V30 19 2 19 20
M  V30 20 1 20 21
M  V30 21 2 21 22
M  V30 22 1 22 23
M  V30 23 1 23 24
M  V30 24 1 24 25
M  V30 25 1 25 26
M  V30 26 1 26 27
M  V30 27 1 27 28
M  V30 28 1 22 29
M  V30 29 2 29 30
M  V30 30 2 17 31
M  V30 31 2 4 32
M  V30 32 1 32 33
M  V30 33 1 33 2
M  V30 34 1 31 6
M  V30 35 1 15 9
M  V30 36 1 30 19
M  V30 37 1 28 23
M  V30 38 1 1 34
M  V30 39 1 1 35
M  V30 40 1 1 36
M  V30 41 1 3 37
M  V30 42 1 5 38
M  V30 43 1 7 39
M  V30 44 1 10 40
M  V30 45 1 10 41
M  V30 46 1 11 42
M  V30 47 1 11 43
M  V30 48 1 13 44
M  V30 49 1 13 45
M  V30 50 1 13 46
M  V30 51 1 14 47
M  V30 52 1 14 48
M  V30 53 1 15 49
M  V30 54 1 15 50
M  V30 55 1 18 51
M  V30 56 1 20 52
M  V30 57 1 21 53
M  V30 58 1 24 54
M  V30 59 1 24 55
M  V30 60 1 25 56
M  V30 61 1 25 57
M  V30 62 1 27 58
M  V30 63 1 27 59
M  V30 64 1 28 60
M  V30 65 1 28 61
M  V30 66 1 29 62
M  V30 67 1 30 63
M  V30 68 1 33 64
M  V30 END BOND
M  V30 END CTAB
M  END
>  <Dataset>  (561) 
ChEMBL_Kinases

>  <Ligand_Instance>  (561) 
nan

>  <PDB_ID>  (561) 
nan

>  <Standardized_SMILES>  (561) 
Cc1cc(Nc2cc(N3CCN(C)CC3)nc(Nc3ccc(N4CCOCC4)cc3)n2)n[nH]1

>  <Name>  (561) 
nan

>  <Pocket>  (561) 
nan

>  <ATP_Site>  (561) 
nan

>  <Peripheral>  (561) 
nan

>  <Num_H_Atoms_ProtBoundConf>  (561) 
nan

>  <Num_Resolved_Atoms>  (561) 
nan

>  <Num_Not_Resolved_Atoms>  (561) 
nan

$$$$
CHEMBL3237710
     RDKit          3D

  0  0  0  0  0  0  0  0  0  0999 V3000
M  V30 BEGIN CTAB
M  V30 COUNTS 71 76 0 0 0
M  V30 BEGIN ATOM
M  V30 1 C 1.462473 1.431693 4.640071 0
M  V30 2 N 2.344149 1.818267 3.578331 0
M  V30 3 C 3.460433 0.919520 3.451704 0
M  V30 4 C 2.812390 3.191510 3.803709 0
M  V30 5 C 1.608320 4.115924 3.832327 0
M  V30 6 C 0.847482 4.041135 2.518296 0
M  V30 7 N 1.768552 3.685953 1.431678 0
M  V30 8 C 1.443558 2.850553 0.329428 0
M  V30 9 C 0.168338 2.346814 0.199077 0
M  V30 10 C -0.063481 1.529179 -0.913076 0
M  V30 11 C 0.977647 1.269519 -1.812463 0
M  V30 12 N 0.697318 0.426955 -2.934638 0
M  V30 13 C -0.629697 -0.073804 -3.039142 0
M  V30 14 N -1.626989 0.548400 -3.727540 0
M  V30 15 C -2.871705 -0.001728 -3.773772 0
M  V30 16 C -3.112717 -1.194029 -3.117347 0
M  V30 17 C -4.205033 -2.018498 -2.948441 0
M  V30 18 C -5.490474 -1.864764 -3.438950 0
M  V30 19 C -6.423816 -2.857401 -3.118231 0
M  V30 20 N -6.078666 -3.919431 -2.360834 0
M  V30 21 C -4.829519 -4.067470 -1.884982 0
M  V30 22 C -3.868335 -3.120239 -2.169349 0
M  V30 23 N -2.567541 -2.948710 -1.873752 0
M  V30 24 C -1.787116 -3.845299 -1.080389 0 CFG=1
M  V30 25 C -1.477007 -5.164043 -1.749201 0
M  V30 26 C -1.050996 -6.129192 -0.683127 0
M  V30 27 C -0.329355 -5.546321 0.476134 0 CFG=2
M  V30 28 C -1.138207 -5.682308 1.773396 0
M  V30 29 C 0.204294 -4.173605 0.331807 0
M  V30 30 C -0.474684 -3.272899 -0.639443 0
M  V30 31 C -2.088578 -1.817062 -2.420093 0
M  V30 32 N -0.876820 -1.230612 -2.406319 0
M  V30 33 N 2.202125 1.807019 -1.606870 0
M  V30 34 N 2.429239 2.589293 -0.545403 0
M  V30 35 C 3.077394 4.287776 1.596745 0
M  V30 36 C 3.779416 3.553696 2.718057 0
M  V30 37 H 1.406388 0.316770 4.717578 0
M  V30 38 H 0.436824 1.774718 4.462953 0
M  V30 39 H 1.896603 1.815951 5.588505 0
M  V30 40 H 4.357614 1.318311 3.973034 0
M  V30 41 H 3.694688 0.659089 2.389966 0
M  V30 42 H 3.259153 -0.074459 3.930480 0
M  V30 43 H 3.335767 3.257660 4.778274 0
M  V30 44 H 0.920884 3.765431 4.626135 0
M  V30 45 H 1.939327 5.153054 3.989144 0
M  V30 46 H 0.054146 3.276027 2.630305 0
M  V30 47 H 0.383331 5.030084 2.340512 0
M  V30 48 H -0.629861 2.534661 0.870650 0
M  V30 49 H -1.039331 1.129988 -1.033198 0
M  V30 50 H 1.474747 0.232177 -3.602710 0
M  V30 51 H -3.670256 0.483990 -4.317202 0
M  V30 52 H -5.759428 -1.009473 -4.046279 0
M  V30 53 H -7.414354 -2.687026 -3.527843 0
M  V30 54 H -4.548546 -4.927706 -1.270785 0
M  V30 55 H -2.344034 -4.109661 -0.142686 0
M  V30 56 H -2.343252 -5.560797 -2.315538 0
M  V30 57 H -0.641558 -5.063703 -2.473480 0
M  V30 58 H -1.984098 -6.620117 -0.288933 0
M  V30 59 H -0.514107 -6.971171 -1.196304 0
M  V30 60 H 0.557832 -6.229297 0.641363 0
M  V30 61 H -2.225912 -5.775408 1.578559 0
M  V30 62 H -0.870074 -6.597326 2.341505 0
M  V30 63 H -0.911108 -4.839180 2.478923 0
M  V30 64 H 1.319473 -4.167355 0.156719 0
M  V30 65 H 0.115825 -3.661641 1.335738 0
M  V30 66 H -0.556304 -2.220709 -0.266716 0
M  V30 67 H 0.164066 -3.222303 -1.548203 0
M  V30 68 H 2.951231 5.347247 1.932584 0
M  V30 69 H 3.661760 4.238517 0.650652 0
M  V30 70 H 4.246289 2.621438 2.343614 0
M  V30 71 H 4.621158 4.166999 3.104887 0
M  V30 END ATOM
M  V30 BEGIN BOND
M  V30 1 1 1 2
M  V30 2 1 2 3
M  V30 3 1 2 4
M  V30 4 1 4 5
M  V30 5 1 5 6
M  V30 6 1 6 7
M  V30 7 1 7 8
M  V30 8 2 8 9
M  V30 9 1 9 10
M  V30 10 2 10 11
M  V30 11 1 11 12
M  V30 12 1 12 13
M  V30 13 2 13 14
M  V30 14 1 14 15
M  V30 15 2 15 16
M  V30 16 1 16 17
M  V30 17 2 17 18
M  V30 18 1 18 19
M  V30 19 2 19 20
M  V30 20 1 20 21
M  V30 21 2 21 22
M  V30 22 1 22 23
M  V30 23 1 23 24
M  V30 24 1 24 25
M  V30 25 1 25 26
M  V30 26 1 26 27
M  V30 27 1 27 28
M  V30 28 1 27 29
M  V30 29 1 29 30
M  V30 30 1 23 31
M  V30 31 2 31 32
M  V30 32 1 11 33
M  V30 33 2 33 34
M  V30 34 1 7 35
M  V30 35 1 35 36
M  V30 36 1 36 4
M  V30 37 1 34 8
M  V30 38 1 32 13
M  V30 39 1 31 16
M  V30 40 1 22 17
M  V30 41 1 30 24
M  V30 42 1 1 37
M  V30 43 1 1 38
M  V30 44 1 1 39
M  V30 45 1 3 40
M  V30 46 1 3 41
M  V30 47 1 3 42
M  V30 48 1 4 43
M  V30 49 1 5 44
M  V30 50 1 5 45
M  V30 51 1 6 46
M  V30 52 1 6 47
M  V30 53 1 9 48
M  V30 54 1 10 49
M  V30 55 1 12 50
M  V30 56 1 15 51
M  V30 57 1 18 52
M  V30 58 1 19 53
M  V30 59 1 21 54
M  V30 60 1 24 55 CFG=1
M  V30 61 1 25 56
M  V30 62 1 25 57
M  V30 63 1 26 58
M  V30 64 1 26 59
M  V30 65 1 27 60 CFG=1
M  V30 66 1 28 61
M  V30 67 1 28 62
M  V30 68 1 28 63
M  V30 69 1 29 64
M  V30 70 1 29 65
M  V30 71 1 30 66
M  V30 72 1 30 67
M  V30 73 1 35 68
M  V30 74 1 35 69
M  V30 75 1 36 70
M  V30 76 1 36 71
M  V30 END BOND
M  V30 END CTAB
M  END
>  <Dataset>  (562) 
ChEMBL_Kinases

>  <Ligand_Instance>  (562) 
nan

>  <PDB_ID>  (562) 
nan

>  <Standardized_SMILES>  (562) 
CN(C)C1CCN(c2ccc(Nc3ncc4c5ccncc5n([C@H]5CC[C@H](C)CC5)c4n3)nn2)CC1

>  <Name>  (562) 
nan

>  <Pocket>  (562) 
nan

>  <ATP_Site>  (562) 
nan

>  <Peripheral>  (562) 
nan

>  <Num_H_Atoms_ProtBoundConf>  (562) 
nan

>  <Num_Resolved_Atoms>  (562) 
nan

>  <Num_Not_Resolved_Atoms>  (562) 
nan

$$$$
CHEMBL3237719
     RDKit          3D

  0  0  0  0  0  0  0  0  0  0999 V3000
M  V30 BEGIN CTAB
M  V30 COUNTS 64 69 0 0 0
M  V30 BEGIN ATOM
M  V30 1 C 3.006959 -0.478976 2.544051 0
M  V30 2 C 4.022682 0.484997 1.953812 0 CFG=1
M  V30 3 C 4.172903 0.320315 0.469473 0
M  V30 4 C 3.567673 1.575648 -0.197358 0
M  V30 5 C 2.199090 1.697791 0.354896 0 CFG=2
M  V30 6 N 1.246992 2.463317 -0.380950 0
M  V30 7 C 1.273300 3.455389 -1.279529 0
M  V30 8 C 2.378379 4.087197 -1.799144 0
M  V30 9 N 2.245901 5.074342 -2.700306 0
M  V30 10 C 1.058662 5.517990 -3.159441 0
M  V30 11 C -0.053681 4.886232 -2.640150 0
M  V30 12 C 0.031994 3.867318 -1.712439 0
M  V30 13 C -0.822142 3.045574 -1.007685 0
M  V30 14 C -2.216234 3.007635 -1.039972 0
M  V30 15 N -2.869048 2.107643 -0.254669 0
M  V30 16 C -2.141861 1.283937 0.527512 0
M  V30 17 N -2.677269 0.294929 1.398455 0
M  V30 18 C -2.863314 -1.006860 0.859258 0
M  V30 19 C -2.534393 -1.283769 -0.453434 0
M  V30 20 C -2.712233 -2.548913 -0.983743 0
M  V30 21 C -3.221223 -3.536836 -0.193607 0
M  V30 22 C -3.546746 -3.252001 1.114822 0
M  V30 23 N -3.371414 -2.011886 1.631167 0
M  V30 24 C -4.102453 -4.318994 1.986727 0
M  V30 25 C -3.170315 -5.508656 1.901523 0
M  V30 26 N -2.930946 -5.790895 0.502812 0
M  V30 27 C -2.133657 -6.887911 0.074240 0
M  V30 28 O -1.905905 -7.162420 -1.132718 0
M  V30 29 C -1.430899 -7.897452 0.890645 0
M  V30 30 O -1.652617 -7.632132 2.221191 0
M  V30 31 C -3.498171 -4.959523 -0.536266 0
M  V30 32 N -0.804827 1.325063 0.554191 0
M  V30 33 C -0.086789 2.202724 -0.207804 0
M  V30 34 C 2.383112 2.389831 1.718261 0
M  V30 35 C 3.645508 1.878401 2.384900 0
M  V30 36 H 2.661055 -1.232628 1.791768 0
M  V30 37 H 3.436642 -1.006340 3.438174 0
M  V30 38 H 2.088429 0.028195 2.900716 0
M  V30 39 H 5.023000 0.298148 2.432889 0
M  V30 40 H 3.498380 -0.521495 0.151216 0
M  V30 41 H 5.199523 0.133648 0.127604 0
M  V30 42 H 3.683225 1.477378 -1.269162 0
M  V30 43 H 4.199829 2.429247 0.164171 0
M  V30 44 H 1.789548 0.664314 0.605902 0
M  V30 45 H 3.381225 3.824478 -1.511574 0
M  V30 46 H 0.976405 6.320335 -3.890784 0
M  V30 47 H -1.053384 5.184200 -2.958279 0
M  V30 48 H -2.748780 3.690067 -1.684758 0
M  V30 49 H -2.938087 0.464493 2.395292 0
M  V30 50 H -2.126090 -0.526752 -1.118586 0
M  V30 51 H -2.486051 -2.862938 -1.994592 0
M  V30 52 H -5.084228 -4.685448 1.577267 0
M  V30 53 H -4.260215 -3.974106 3.012127 0
M  V30 54 H -2.215413 -5.209721 2.419974 0
M  V30 55 H -3.628568 -6.404117 2.402104 0
M  V30 56 H -0.336133 -7.844166 0.706728 0
M  V30 57 H -1.790976 -8.938383 0.714679 0
M  V30 58 H -0.861129 -7.395789 2.750791 0
M  V30 59 H -4.601975 -5.168748 -0.511425 0
M  V30 60 H -3.091168 -5.193347 -1.538809 0
M  V30 61 H 1.491749 2.307266 2.352670 0
M  V30 62 H 2.546359 3.472250 1.535440 0
M  V30 63 H 4.491736 2.579563 2.236225 0
M  V30 64 H 3.478542 1.815964 3.487227 0
M  V30 END ATOM
M  V30 BEGIN BOND
M  V30 1 1 1 2
M  V30 2 1 2 3
M  V30 3 1 3 4
M  V30 4 1 4 5
M  V30 5 1 5 6
M  V30 6 1 6 7
M  V30 7 2 7 8
M  V30 8 1 8 9
M  V30 9 2 9 10
M  V30 10 1 10 11
M  V30 11 2 11 12
M  V30 12 1 12 13
M  V30 13 2 13 14
M  V30 14 1 14 15
M  V30 15 2 15 16
M  V30 16 1 16 17
M  V30 17 1 17 18
M  V30 18 2 18 19
M  V30 19 1 19 20
M  V30 20 2 20 21
M  V30 21 1 21 22
M  V30 22 2 22 23
M  V30 23 1 22 24
M  V30 24 1 24 25
M  V30 25 1 25 26
M  V30 26 1 26 27
M  V30 27 2 27 28
M  V30 28 1 27 29
M  V30 29 1 29 30
M  V30 30 1 26 31
M  V30 31 1 16 32
M  V30 32 2 32 33
M  V30 33 1 5 34
M  V30 34 1 34 35
M  V30 35 1 35 2
M  V30 36 1 33 6
M  V30 37 1 12 7
M  V30 38 1 33 13
M  V30 39 1 23 18
M  V30 40 1 31 21
M  V30 41 1 1 36
M  V30 42 1 1 37
M  V30 43 1 1 38
M  V30 44 1 2 39 CFG=1
M  V30 45 1 3 40
M  V30 46 1 3 41
M  V30 47 1 4 42
M  V30 48 1 4 43
M  V30 49 1 5 44 CFG=1
M  V30 50 1 8 45
M  V30 51 1 10 46
M  V30 52 1 11 47
M  V30 53 1 14 48
M  V30 54 1 17 49
M  V30 55 1 19 50
M  V30 56 1 20 51
M  V30 57 1 24 52
M  V30 58 1 24 53
M  V30 59 1 25 54
M  V30 60 1 25 55
M  V30 61 1 29 56
M  V30 62 1 29 57
M  V30 63 1 30 58
M  V30 64 1 31 59
M  V30 65 1 31 60
M  V30 66 1 34 61
M  V30 67 1 34 62
M  V30 68 1 35 63
M  V30 69 1 35 64
M  V30 END BOND
M  V30 END CTAB
M  END
>  <Dataset>  (563) 
ChEMBL_Kinases

>  <Ligand_Instance>  (563) 
nan

>  <PDB_ID>  (563) 
nan

>  <Standardized_SMILES>  (563) 
C[C@H]1CC[C@H](n2c3cnccc3c3cnc(Nc4ccc5c(n4)CCN(C(=O)CO)C5)nc32)CC1

>  <Name>  (563) 
nan

>  <Pocket>  (563) 
nan

>  <ATP_Site>  (563) 
nan

>  <Peripheral>  (563) 
nan

>  <Num_H_Atoms_ProtBoundConf>  (563) 
nan

>  <Num_Resolved_Atoms>  (563) 
nan

>  <Num_Not_Resolved_Atoms>  (563) 
nan

$$$$
CHEMBL324089
     RDKit          3D

  0  0  0  0  0  0  0  0  0  0999 V3000
M  V30 BEGIN CTAB
M  V30 COUNTS 40 43 0 0 0
M  V30 BEGIN ATOM
M  V30 1 C 2.590040 -5.496069 0.900792 0
M  V30 2 C 1.704042 -4.991115 -0.182530 0
M  V30 3 C 0.678740 -5.780663 -0.684025 0
M  V30 4 C -0.171662 -5.363743 -1.686730 0
M  V30 5 C -0.003715 -4.108513 -2.220965 0
M  V30 6 C 1.013211 -3.281071 -1.747847 0
M  V30 7 S 1.380167 -1.627111 -2.319125 0
M  V30 8 C 0.466364 -0.421874 -1.374532 0
M  V30 9 C 1.174237 0.006052 -0.252718 0
M  V30 10 C 0.625699 0.950868 0.615620 0
M  V30 11 C -0.648498 1.453051 0.328571 0
M  V30 12 C -1.238658 2.387470 1.151049 0
M  V30 13 C -0.460771 2.805943 2.313324 0
M  V30 14 C 0.428750 3.866668 2.334039 0
M  V30 15 Cl 0.607492 4.748637 0.835114 0
M  V30 16 C 1.131977 4.205917 3.472576 0
M  V30 17 C 0.952897 3.475393 4.630233 0
M  V30 18 C 0.065257 2.400776 4.645817 0
M  V30 19 C -0.625528 2.084679 3.488882 0
M  V30 20 Cl -1.717083 0.723629 3.596949 0
M  V30 21 C -2.511129 2.853904 0.816655 0
M  V30 22 O -3.010142 3.708344 1.599695 0
M  V30 23 N -3.099262 2.361914 -0.301154 0
M  V30 24 C -2.475894 1.452388 -1.064451 0
M  V30 25 N -1.247642 0.983690 -0.766824 0
M  V30 26 N -0.761950 0.088107 -1.616013 0
M  V30 27 C 1.838003 -3.741377 -0.744711 0
M  V30 28 H 3.465183 -6.025270 0.518579 0
M  V30 29 H 2.952258 -4.672587 1.550589 0
M  V30 30 H 2.005769 -6.230694 1.527632 0
M  V30 31 H 0.541997 -6.767802 -0.268124 0
M  V30 32 H -0.973750 -5.943657 -2.099700 0
M  V30 33 H -0.607293 -3.679430 -3.005534 0
M  V30 34 H 2.165932 -0.323322 0.054379 0
M  V30 35 H 1.144487 1.310288 1.500099 0
M  V30 36 H 1.796334 5.059535 3.350012 0
M  V30 37 H 1.535213 3.795497 5.484938 0
M  V30 38 H -0.053873 1.853456 5.553791 0
M  V30 39 H -3.114842 1.186370 -1.913355 0
M  V30 40 H 2.661123 -3.156725 -0.315170 0
M  V30 END ATOM
M  V30 BEGIN BOND
M  V30 1 1 1 2
M  V30 2 2 2 3
M  V30 3 1 3 4
M  V30 4 2 4 5
M  V30 5 1 5 6
M  V30 6 1 6 7
M  V30 7 1 7 8
M  V30 8 1 8 9
M  V30 9 2 9 10
M  V30 10 1 10 11
M  V30 11 2 11 12
M  V30 12 1 12 13
M  V30 13 2 13 14
M  V30 14 1 14 15
M  V30 15 1 14 16
M  V30 16 2 16 17
M  V30 17 1 17 18
M  V30 18 2 18 19
M  V30 19 1 19 20
M  V30 20 1 12 21
M  V30 21 2 21 22
M  V30 22 1 21 23
M  V30 23 2 23 24
M  V30 24 1 24 25
M  V30 25 1 25 26
M  V30 26 2 6 27
M  V30 27 1 27 2
M  V30 28 2 26 8
M  V30 29 1 25 11
M  V30 30 1 19 13
M  V30 31 1 1 28
M  V30 32 1 1 29
M  V30 33 1 1 30
M  V30 34 1 3 31
M  V30 35 1 4 32
M  V30 36 1 5 33
M  V30 37 1 9 34
M  V30 38 1 10 35
M  V30 39 1 16 36
M  V30 40 1 17 37
M  V30 41 1 18 38
M  V30 42 1 24 39
M  V30 43 1 27 40
M  V30 END BOND
M  V30 END CTAB
M  END
>  <Dataset>  (564) 
ChEMBL_Kinases

>  <Ligand_Instance>  (564) 
nan

>  <PDB_ID>  (564) 
nan

>  <Standardized_SMILES>  (564) 
Cc1cccc(Sc2ccc3c(-c4c(Cl)cccc4Cl)c(=O)ncn3n2)c1

>  <Name>  (564) 
nan

>  <Pocket>  (564) 
nan

>  <ATP_Site>  (564) 
nan

>  <Peripheral>  (564) 
nan

>  <Num_H_Atoms_ProtBoundConf>  (564) 
nan

>  <Num_Resolved_Atoms>  (564) 
nan

>  <Num_Not_Resolved_Atoms>  (564) 
nan

$$$$
CHEMBL3237185
     RDKit          3D

  0  0  0  0  0  0  0  0  0  0999 V3000
M  V30 BEGIN CTAB
M  V30 COUNTS 55 58 0 0 0
M  V30 BEGIN ATOM
M  V30 1 C 0.513051 -1.605176 6.107433 0
M  V30 2 O 1.243034 -2.644861 5.484971 0
M  V30 3 C 1.569073 -2.671422 4.151203 0
M  V30 4 C 1.159491 -1.618018 3.351762 0
M  V30 5 C 1.510350 -1.684450 1.997168 0
M  V30 6 C 2.221107 -2.691419 1.383400 0
M  V30 7 N 2.537710 -2.720571 -0.018369 0
M  V30 8 C 1.930176 -1.600602 -0.632987 0
M  V30 9 N 2.474175 -0.380017 -0.923421 0
M  V30 10 C 1.732585 0.586310 -1.472142 0
M  V30 11 N 2.118028 1.892491 -1.847613 0
M  V30 12 C 1.999962 2.730305 -0.677804 0
M  V30 13 C 0.833585 3.274223 -0.160704 0
M  V30 14 C 1.091566 4.020955 0.954219 0
M  V30 15 C 0.160952 4.778591 1.842299 0
M  V30 16 N 2.421735 3.925632 1.107881 0
M  V30 17 N 2.971987 3.180147 0.170568 0
M  V30 18 C 0.397189 0.336417 -1.744804 0
M  V30 19 C -0.187366 -0.887335 -1.464943 0
M  V30 20 N -1.570719 -1.239523 -1.690498 0
M  V30 21 C -2.598938 -0.686904 -0.819218 0
M  V30 22 C -3.726362 -1.651189 -0.574661 0
M  V30 23 N -3.934030 -2.621938 -1.594000 0
M  V30 24 C -3.502745 -3.918641 -1.139151 0
M  V30 25 C -3.417121 -2.232982 -2.874178 0
M  V30 26 C -1.917053 -2.124886 -2.779040 0
M  V30 27 N 0.631639 -1.797605 -0.916003 0
M  V30 28 C 2.603141 -3.721696 2.248928 0
M  V30 29 C 2.282312 -3.709974 3.606140 0
M  V30 30 H -0.354713 -1.288623 5.498484 0
M  V30 31 H 1.211958 -0.723042 6.192262 0
M  V30 32 H 0.233966 -1.974995 7.120167 0
M  V30 33 H 0.598116 -0.777528 3.732994 0
M  V30 34 H 1.165017 -0.833328 1.417222 0
M  V30 35 H 3.129157 -3.517863 -0.328525 0
M  V30 36 H 2.434308 2.221984 -2.784274 0
M  V30 37 H -0.175138 3.133025 -0.576822 0
M  V30 38 H 0.331464 5.870163 1.833635 0
M  V30 39 H 0.285653 4.456927 2.918185 0
M  V30 40 H -0.896276 4.593620 1.551551 0
M  V30 41 H 2.933005 4.404062 1.888935 0
M  V30 42 H -0.288545 1.065088 -2.193841 0
M  V30 43 H -2.136407 -0.432976 0.183589 0
M  V30 44 H -2.924484 0.269715 -1.249225 0
M  V30 45 H -4.672134 -1.058703 -0.459485 0
M  V30 46 H -3.580066 -2.169754 0.412587 0
M  V30 47 H -4.138971 -4.229400 -0.295850 0
M  V30 48 H -3.640292 -4.691139 -1.926272 0
M  V30 49 H -2.422541 -3.816542 -0.861258 0
M  V30 50 H -3.730115 -2.927679 -3.682420 0
M  V30 51 H -3.820350 -1.213585 -3.096787 0
M  V30 52 H -1.422555 -3.107177 -2.631981 0
M  V30 53 H -1.491537 -1.627418 -3.702195 0
M  V30 54 H 3.167086 -4.540530 1.818864 0
M  V30 55 H 2.600959 -4.541100 4.251272 0
M  V30 END ATOM
M  V30 BEGIN BOND
M  V30 1 1 1 2
M  V30 2 1 2 3
M  V30 3 2 3 4
M  V30 4 1 4 5
M  V30 5 2 5 6
M  V30 6 1 6 7
M  V30 7 1 7 8
M  V30 8 2 8 9
M  V30 9 1 9 10
M  V30 10 1 10 11
M  V30 11 1 11 12
M  V30 12 1 12 13
M  V30 13 2 13 14
M  V30 14 1 14 15
M  V30 15 1 14 16
M  V30 16 1 16 17
M  V30 17 2 10 18
M  V30 18 1 18 19
M  V30 19 1 19 20
M  V30 20 1 20 21
M  V30 21 1 21 22
M  V30 22 1 22 23
M  V30 23 1 23 24
M  V30 24 1 23 25
M  V30 25 1 25 26
M  V30 26 2 19 27
M  V30 27 1 6 28
M  V30 28 2 28 29
M  V30 29 1 29 3
M  V30 30 1 27 8
M  V30 31 2 17 12
M  V30 32 1 26 20
M  V30 33 1 1 30
M  V30 34 1 1 31
M  V30 35 1 1 32
M  V30 36 1 4 33
M  V30 37 1 5 34
M  V30 38 1 7 35
M  V30 39 1 11 36
M  V30 40 1 13 37
M  V30 41 1 15 38
M  V30 42 1 15 39
M  V30 43 1 15 40
M  V30 44 1 16 41
M  V30 45 1 18 42
M  V30 46 1 21 43
M  V30 47 1 21 44
M  V30 48 1 22 45
M  V30 49 1 22 46
M  V30 50 1 24 47
M  V30 51 1 24 48
M  V30 52 1 24 49
M  V30 53 1 25 50
M  V30 54 1 25 51
M  V30 55 1 26 52
M  V30 56 1 26 53
M  V30 57 1 28 54
M  V30 58 1 29 55
M  V30 END BOND
M  V30 END CTAB
M  END
>  <Dataset>  (565) 
ChEMBL_Kinases

>  <Ligand_Instance>  (565) 
nan

>  <PDB_ID>  (565) 
nan

>  <Standardized_SMILES>  (565) 
COc1ccc(Nc2nc(Nc3cc(C)[nH]n3)cc(N3CCN(C)CC3)n2)cc1

>  <Name>  (565) 
nan

>  <Pocket>  (565) 
nan

>  <ATP_Site>  (565) 
nan

>  <Peripheral>  (565) 
nan

>  <Num_H_Atoms_ProtBoundConf>  (565) 
nan

>  <Num_Resolved_Atoms>  (565) 
nan

>  <Num_Not_Resolved_Atoms>  (565) 
nan

$$$$
CHEMBL3261091
     RDKit          3D

  0  0  0  0  0  0  0  0  0  0999 V3000
M  V30 BEGIN CTAB
M  V30 COUNTS 50 54 0 0 0
M  V30 BEGIN ATOM
M  V30 1 C 0.314207 -3.309784 3.730998 0
M  V30 2 C 1.043946 -2.938989 2.497011 0
M  V30 3 C 2.325764 -3.467329 2.326320 0
M  V30 4 C 3.089432 -3.180491 1.214176 0
M  V30 5 C 2.622993 -2.356226 0.215044 0
M  V30 6 C 1.358823 -1.852378 0.412897 0
M  V30 7 C 0.643165 -0.936264 -0.491406 0
M  V30 8 N 1.314673 0.233255 -0.536894 0
M  V30 9 N 0.666649 1.088251 -1.346569 0
M  V30 10 C 1.020238 2.472720 -1.718493 0
M  V30 11 C 0.440242 3.420959 -0.719728 0
M  V30 12 O -0.239829 4.498669 -0.863615 0
M  V30 13 N 0.726132 3.009477 0.604824 0
M  V30 14 C 0.524922 3.366843 1.962926 0
M  V30 15 C 1.429903 4.237309 2.587126 0
M  V30 16 C 1.231619 4.571727 3.907152 0
M  V30 17 C 0.170521 4.059868 4.582941 0
M  V30 18 C -0.759057 3.197959 4.029993 0
M  V30 19 C -0.547685 2.863427 2.685757 0
M  V30 20 C -0.420489 0.445179 -1.811040 0
M  V30 21 C -0.478899 -0.821988 -1.306432 0
M  V30 22 C -1.311201 -2.005181 -1.380477 0
M  V30 23 C -2.623863 -2.197487 -1.012195 0
M  V30 24 C -3.279485 -3.396386 -1.162613 0
M  V30 25 C -2.581196 -4.460224 -1.712838 0
M  V30 26 N -2.948886 -5.740286 -1.981413 0
M  V30 27 C -1.898835 -6.383151 -2.517655 0
M  V30 28 N -0.894774 -5.498697 -2.576009 0
M  V30 29 N -1.282619 -4.329192 -2.095714 0
M  V30 30 C -0.701612 -3.142030 -1.924617 0
M  V30 31 N 0.618677 -2.146573 1.516756 0
M  V30 32 H -0.480486 -4.073901 3.540291 0
M  V30 33 H 1.023806 -3.638825 4.513201 0
M  V30 34 H -0.247037 -2.425230 4.121716 0
M  V30 35 H 2.714577 -4.117681 3.098288 0
M  V30 36 H 4.088631 -3.592283 1.083809 0
M  V30 37 H 3.124766 -2.066546 -0.682646 0
M  V30 38 H 2.131942 2.509589 -1.695285 0
M  V30 39 H 0.573709 2.688749 -2.700967 0
M  V30 40 H 1.285027 2.134787 0.854864 0
M  V30 41 H 2.279388 4.648614 2.046888 0
M  V30 42 H 1.880983 5.233016 4.463770 0
M  V30 43 H -0.009483 4.303742 5.618530 0
M  V30 44 H -1.582944 2.808201 4.584606 0
M  V30 45 H -1.242675 2.192633 2.195273 0
M  V30 46 H -1.210006 0.744054 -2.477062 0
M  V30 47 H -3.081114 -1.287903 -0.590994 0
M  V30 48 H -4.298563 -3.479929 -0.858768 0
M  V30 49 H -1.949353 -7.415570 -2.814396 0
M  V30 50 H 0.326877 -3.109941 -2.248066 0
M  V30 END ATOM
M  V30 BEGIN BOND
M  V30 1 1 1 2
M  V30 2 2 2 3
M  V30 3 1 3 4
M  V30 4 2 4 5
M  V30 5 1 5 6
M  V30 6 1 6 7
M  V30 7 2 7 8
M  V30 8 1 8 9
M  V30 9 1 9 10
M  V30 10 1 10 11
M  V30 11 2 11 12
M  V30 12 1 11 13
M  V30 13 1 13 14
M  V30 14 2 14 15
M  V30 15 1 15 16
M  V30 16 2 16 17
M  V30 17 1 17 18
M  V30 18 2 18 19
M  V30 19 1 9 20
M  V30 20 2 20 21
M  V30 21 1 21 22
M  V30 22 1 22 23
M  V30 23 2 23 24
M  V30 24 1 24 25
M  V30 25 2 25 26
M  V30 26 1 26 27
M  V30 27 2 27 28
M  V30 28 1 28 29
M  V30 29 1 29 30
M  V30 30 2 6 31
M  V30 31 1 31 2
M  V30 32 1 21 7
M  V30 33 2 30 22
M  V30 34 1 19 14
M  V30 35 1 29 25
M  V30 36 1 1 32
M  V30 37 1 1 33
M  V30 38 1 1 34
M  V30 39 1 3 35
M  V30 40 1 4 36
M  V30 41 1 5 37
M  V30 42 1 10 38
M  V30 43 1 10 39
M  V30 44 1 13 40
M  V30 45 1 15 41
M  V30 46 1 16 42
M  V30 47 1 17 43
M  V30 48 1 18 44
M  V30 49 1 19 45
M  V30 50 1 20 46
M  V30 51 1 23 47
M  V30 52 1 24 48
M  V30 53 1 27 49
M  V30 54 1 30 50
M  V30 END BOND
M  V30 END CTAB
M  END
>  <Dataset>  (566) 
ChEMBL_Kinases

>  <Ligand_Instance>  (566) 
nan

>  <PDB_ID>  (566) 
nan

>  <Standardized_SMILES>  (566) 
Cc1cccc(-c2nn(CC(=O)Nc3ccccc3)cc2-c2ccc3ncnn3c2)n1

>  <Name>  (566) 
nan

>  <Pocket>  (566) 
nan

>  <ATP_Site>  (566) 
nan

>  <Peripheral>  (566) 
nan

>  <Num_H_Atoms_ProtBoundConf>  (566) 
nan

>  <Num_Resolved_Atoms>  (566) 
nan

>  <Num_Not_Resolved_Atoms>  (566) 
nan

$$$$
CHEMBL3261086
     RDKit          3D

  0  0  0  0  0  0  0  0  0  0999 V3000
M  V30 BEGIN CTAB
M  V30 COUNTS 54 58 0 0 0
M  V30 BEGIN ATOM
M  V30 1 C 3.795120 -4.232167 4.610968 0
M  V30 2 C 3.083610 -3.016588 4.193988 0
M  V30 3 C 2.794170 -2.037923 5.119158 0
M  V30 4 C 2.124669 -0.904657 4.701066 0
M  V30 5 C 1.758954 -0.777245 3.360232 0
M  V30 6 C 2.076416 -1.799265 2.461906 0
M  V30 7 C 1.661599 -1.595268 1.079396 0
M  V30 8 N 2.044228 -0.601682 0.259624 0
M  V30 9 C 1.460856 -0.733500 -0.941886 0
M  V30 10 C 1.492775 0.036701 -2.215070 0
M  V30 11 N 0.440519 1.035110 -2.257840 0
M  V30 12 C 0.283493 2.107909 -1.345345 0
M  V30 13 O 1.107381 2.239197 -0.404293 0
M  V30 14 C -0.789425 3.091814 -1.422508 0
M  V30 15 C -0.825114 4.087988 -0.467740 0
M  V30 16 C -1.836619 5.040189 -0.516295 0
M  V30 17 C -2.829217 5.061298 -1.471604 0
M  V30 18 C -2.759264 4.046865 -2.410795 0
M  V30 19 C -3.794076 4.010864 -3.464451 0
M  V30 20 N -3.777939 3.002010 -4.456024 0
M  V30 21 O -4.676767 4.901441 -3.443273 0
M  V30 22 C -1.761448 3.082000 -2.388161 0
M  V30 23 N 0.696570 -1.850641 -0.842640 0
M  V30 24 C 0.793645 -2.403238 0.375759 0
M  V30 25 C 0.097355 -3.610579 0.803960 0
M  V30 26 C 0.619799 -4.821951 1.206480 0
M  V30 27 C -0.246126 -5.824839 1.568539 0
M  V30 28 C -1.610844 -5.650054 1.539054 0
M  V30 29 N -2.613195 -6.516293 1.857430 0
M  V30 30 C -3.761093 -5.812443 1.642308 0
M  V30 31 N -3.437112 -4.580233 1.213866 0
M  V30 32 N -2.114126 -4.455023 1.141707 0
M  V30 33 C -1.283481 -3.452489 0.780552 0
M  V30 34 N 2.722707 -2.873406 2.910405 0
M  V30 35 H 4.770792 -3.953545 5.086633 0
M  V30 36 H 3.197223 -4.730214 5.402317 0
M  V30 37 H 3.993978 -4.921384 3.782793 0
M  V30 38 H 3.077556 -2.132477 6.166566 0
M  V30 39 H 1.906991 -0.140970 5.459268 0
M  V30 40 H 1.242125 0.127748 3.105720 0
M  V30 41 H 2.684658 0.175146 0.453549 0
M  V30 42 H 2.493006 0.568104 -2.246790 0
M  V30 43 H 1.418282 -0.649089 -3.082867 0
M  V30 44 H -0.265723 0.968251 -3.019444 0
M  V30 45 H -0.091480 4.171691 0.336878 0
M  V30 46 H -1.840442 5.817676 0.252794 0
M  V30 47 H -3.603945 5.812784 -1.486877 0
M  V30 48 H -3.624692 3.022782 -5.489802 0
M  V30 49 H -3.938740 1.995874 -4.230224 0
M  V30 50 H -1.769160 2.324629 -3.148513 0
M  V30 51 H 1.702692 -4.843228 1.189823 0
M  V30 52 H 0.222035 -6.738462 1.870442 0
M  V30 53 H -4.812438 -6.057584 1.749435 0
M  V30 54 H -1.809778 -2.535087 0.478525 0
M  V30 END ATOM
M  V30 BEGIN BOND
M  V30 1 1 1 2
M  V30 2 2 2 3
M  V30 3 1 3 4
M  V30 4 2 4 5
M  V30 5 1 5 6
M  V30 6 1 6 7
M  V30 7 1 7 8
M  V30 8 1 8 9
M  V30 9 1 9 10
M  V30 10 1 10 11
M  V30 11 1 11 12
M  V30 12 2 12 13
M  V30 13 1 12 14
M  V30 14 2 14 15
M  V30 15 1 15 16
M  V30 16 2 16 17
M  V30 17 1 17 18
M  V30 18 1 18 19
M  V30 19 1 19 20
M  V30 20 2 19 21
M  V30 21 2 18 22
M  V30 22 2 9 23
M  V30 23 1 23 24
M  V30 24 1 24 25
M  V30 25 1 25 26
M  V30 26 2 26 27
M  V30 27 1 27 28
M  V30 28 2 28 29
M  V30 29 1 29 30
M  V30 30 2 30 31
M  V30 31 1 31 32
M  V30 32 1 32 33
M  V30 33 2 6 34
M  V30 34 1 34 2
M  V30 35 2 24 7
M  V30 36 2 33 25
M  V30 37 1 22 14
M  V30 38 1 32 28
M  V30 39 1 1 35
M  V30 40 1 1 36
M  V30 41 1 1 37
M  V30 42 1 3 38
M  V30 43 1 4 39
M  V30 44 1 5 40
M  V30 45 1 8 41
M  V30 46 1 10 42
M  V30 47 1 10 43
M  V30 48 1 11 44
M  V30 49 1 15 45
M  V30 50 1 16 46
M  V30 51 1 17 47
M  V30 52 1 20 48
M  V30 53 1 20 49
M  V30 54 1 22 50
M  V30 55 1 26 51
M  V30 56 1 27 52
M  V30 57 1 30 53
M  V30 58 1 33 54
M  V30 END BOND
M  V30 END CTAB
M  END
>  <Dataset>  (567) 
ChEMBL_Kinases

>  <Ligand_Instance>  (567) 
nan

>  <PDB_ID>  (567) 
nan

>  <Standardized_SMILES>  (567) 
Cc1cccc(-c2[nH]c(CNC(=O)c3cccc(C(N)=O)c3)nc2-c2ccc3ncnn3c2)n1

>  <Name>  (567) 
nan

>  <Pocket>  (567) 
nan

>  <ATP_Site>  (567) 
nan

>  <Peripheral>  (567) 
nan

>  <Num_H_Atoms_ProtBoundConf>  (567) 
nan

>  <Num_Resolved_Atoms>  (567) 
nan

>  <Num_Not_Resolved_Atoms>  (567) 
nan

$$$$
CHEMBL3261085
     RDKit          3D

  0  0  0  0  0  0  0  0  0  0999 V3000
M  V30 BEGIN CTAB
M  V30 COUNTS 51 55 0 0 0
M  V30 BEGIN ATOM
M  V30 1 C 5.885170 -2.286608 3.104694 0
M  V30 2 C 4.395419 -2.385214 3.081540 0
M  V30 3 C 3.691414 -3.100843 4.026089 0
M  V30 4 C 2.321158 -3.155676 3.954134 0
M  V30 5 C 1.684959 -2.491384 2.935887 0
M  V30 6 C 2.402301 -1.765518 1.978283 0
M  V30 7 C 1.576056 -1.136773 0.990292 0
M  V30 8 N 1.425686 0.174301 0.729480 0
M  V30 9 C 0.553975 0.339280 -0.278581 0
M  V30 10 C 0.027723 1.549664 -0.962805 0
M  V30 11 N -1.172187 1.942118 -0.223186 0
M  V30 12 C -1.739217 3.090288 -0.810970 0
M  V30 13 O -1.074363 3.493868 -1.825104 0
M  V30 14 C -2.951409 3.760960 -0.331105 0
M  V30 15 C -3.716028 3.377656 0.751395 0
M  V30 16 C -4.842835 4.095166 1.107371 0
M  V30 17 C -5.222316 5.208725 0.384762 0
M  V30 18 C -4.462723 5.600619 -0.701409 0
M  V30 19 C -4.910816 6.767349 -1.410881 0
M  V30 20 N -5.267931 7.720926 -1.970360 0
M  V30 21 C -3.351222 4.879242 -1.039389 0
M  V30 22 N 0.153743 -0.904718 -0.651981 0
M  V30 23 C 0.775968 -1.824701 0.121865 0
M  V30 24 C 0.519472 -3.244045 -0.076060 0
M  V30 25 C -0.812412 -3.613434 0.136940 0
M  V30 26 C -1.155429 -4.943732 -0.028071 0
M  V30 27 C -0.121518 -5.799262 -0.396758 0
M  V30 28 N -0.240412 -7.128385 -0.608723 0
M  V30 29 C 0.987365 -7.583156 -0.946789 0
M  V30 30 N 1.812545 -6.521074 -0.930302 0
M  V30 31 N 1.157737 -5.440800 -0.600661 0
M  V30 32 C 1.476061 -4.159717 -0.439190 0
M  V30 33 N 3.740570 -1.758421 2.114779 0
M  V30 34 H 6.135181 -1.247961 2.804739 0
M  V30 35 H 6.286217 -2.522810 4.118511 0
M  V30 36 H 6.327319 -3.027410 2.382286 0
M  V30 37 H 4.261742 -3.603018 4.806188 0
M  V30 38 H 1.749876 -3.721795 4.699676 0
M  V30 39 H 0.597628 -2.573129 2.933659 0
M  V30 40 H 1.888889 0.977617 1.205282 0
M  V30 41 H -0.195531 1.344704 -2.011974 0
M  V30 42 H 0.806266 2.333709 -0.864067 0
M  V30 43 H -1.657242 1.531944 0.629936 0
M  V30 44 H -3.376379 2.501835 1.281796 0
M  V30 45 H -5.368145 3.692695 1.985988 0
M  V30 46 H -6.124619 5.728211 0.723018 0
M  V30 47 H -2.813183 5.250775 -1.899110 0
M  V30 48 H -1.598224 -2.917752 0.424989 0
M  V30 49 H -2.154649 -5.277233 0.121778 0
M  V30 50 H 1.434861 -8.539657 -1.210909 0
M  V30 51 H 2.501195 -3.814136 -0.592314 0
M  V30 END ATOM
M  V30 BEGIN BOND
M  V30 1 1 1 2
M  V30 2 2 2 3
M  V30 3 1 3 4
M  V30 4 2 4 5
M  V30 5 1 5 6
M  V30 6 1 6 7
M  V30 7 1 7 8
M  V30 8 1 8 9
M  V30 9 1 9 10
M  V30 10 1 10 11
M  V30 11 1 11 12
M  V30 12 2 12 13
M  V30 13 1 12 14
M  V30 14 2 14 15
M  V30 15 1 15 16
M  V30 16 2 16 17
M  V30 17 1 17 18
M  V30 18 1 18 19
M  V30 19 3 19 20
M  V30 20 2 18 21
M  V30 21 2 9 22
M  V30 22 1 22 23
M  V30 23 1 23 24
M  V30 24 1 24 25
M  V30 25 2 25 26
M  V30 26 1 26 27
M  V30 27 2 27 28
M  V30 28 1 28 29
M  V30 29 2 29 30
M  V30 30 1 30 31
M  V30 31 1 31 32
M  V30 32 2 6 33
M  V30 33 1 33 2
M  V30 34 2 23 7
M  V30 35 2 32 24
M  V30 36 1 21 14
M  V30 37 1 31 27
M  V30 38 1 1 34
M  V30 39 1 1 35
M  V30 40 1 1 36
M  V30 41 1 3 37
M  V30 42 1 4 38
M  V30 43 1 5 39
M  V30 44 1 8 40
M  V30 45 1 10 41
M  V30 46 1 10 42
M  V30 47 1 11 43
M  V30 48 1 15 44
M  V30 49 1 16 45
M  V30 50 1 17 46
M  V30 51 1 21 47
M  V30 52 1 25 48
M  V30 53 1 26 49
M  V30 54 1 29 50
M  V30 55 1 32 51
M  V30 END BOND
M  V30 END CTAB
M  END
>  <Dataset>  (568) 
ChEMBL_Kinases

>  <Ligand_Instance>  (568) 
nan

>  <PDB_ID>  (568) 
nan

>  <Standardized_SMILES>  (568) 
Cc1cccc(-c2[nH]c(CNC(=O)c3cccc(C#N)c3)nc2-c2ccc3ncnn3c2)n1

>  <Name>  (568) 
nan

>  <Pocket>  (568) 
nan

>  <ATP_Site>  (568) 
nan

>  <Peripheral>  (568) 
nan

>  <Num_H_Atoms_ProtBoundConf>  (568) 
nan

>  <Num_Resolved_Atoms>  (568) 
nan

>  <Num_Not_Resolved_Atoms>  (568) 
nan

$$$$
CHEMBL3261084
     RDKit          3D

  0  0  0  0  0  0  0  0  0  0999 V3000
M  V30 BEGIN CTAB
M  V30 COUNTS 50 54 0 0 0
M  V30 BEGIN ATOM
M  V30 1 C 2.953196 -4.885281 0.747826 0
M  V30 2 C 2.936598 -3.668002 1.597996 0
M  V30 3 C 3.941184 -3.458551 2.546490 0
M  V30 4 C 3.943179 -2.343005 3.339864 0
M  V30 5 C 2.952843 -1.392959 3.225770 0
M  V30 6 C 1.972253 -1.622911 2.281818 0
M  V30 7 C 0.818067 -0.763214 1.973847 0
M  V30 8 N 1.017185 0.496982 1.525840 0
M  V30 9 C -0.199982 1.039472 1.330771 0
M  V30 10 C -0.433477 2.423691 0.837570 0
M  V30 11 N -0.504438 2.379253 -0.615929 0
M  V30 12 C -0.722535 3.617440 -1.272269 0
M  V30 13 O -0.811427 4.537032 -0.386302 0
M  V30 14 C -0.835607 3.868347 -2.701812 0
M  V30 15 C -1.045566 5.212845 -3.035367 0
M  V30 16 C -1.172450 5.617934 -4.327232 0
M  V30 17 C -1.104439 4.746511 -5.385867 0
M  V30 18 C -0.899417 3.426139 -5.080801 0
M  V30 19 C -0.770450 3.010957 -3.775892 0
M  V30 20 F -0.569331 1.728496 -3.438045 0
M  V30 21 N -1.145651 0.132184 1.651882 0
M  V30 22 C -0.540231 -1.019324 2.062597 0
M  V30 23 C -1.032121 -2.313244 2.521803 0
M  V30 24 C -0.719692 -2.697275 3.822118 0
M  V30 25 C -1.154141 -3.920601 4.333017 0
M  V30 26 C -1.904889 -4.736095 3.502359 0
M  V30 27 N -2.476493 -5.962503 3.668796 0
M  V30 28 C -3.109834 -6.312830 2.522464 0
M  V30 29 N -2.930729 -5.305366 1.647635 0
M  V30 30 N -2.205715 -4.375160 2.261863 0
M  V30 31 C -1.791005 -3.207437 1.774172 0
M  V30 32 N 2.003855 -2.724546 1.525002 0
M  V30 33 H 3.065357 -4.672749 -0.330523 0
M  V30 34 H 3.774573 -5.544927 1.079900 0
M  V30 35 H 2.026455 -5.485159 0.849116 0
M  V30 36 H 4.732276 -4.203734 2.647253 0
M  V30 37 H 4.699436 -2.139306 4.086801 0
M  V30 38 H 2.830526 -0.476258 3.778917 0
M  V30 39 H 1.920094 0.995047 1.349963 0
M  V30 40 H -1.332508 2.882184 1.286087 0
M  V30 41 H 0.404726 3.105507 1.110860 0
M  V30 42 H -0.410631 1.530428 -1.215071 0
M  V30 43 H -1.115957 5.992525 -2.267097 0
M  V30 44 H -1.333732 6.661986 -4.559365 0
M  V30 45 H -1.201360 5.041640 -6.411684 0
M  V30 46 H -0.831284 2.663479 -5.846478 0
M  V30 47 H -0.135765 -2.102044 4.518484 0
M  V30 48 H -0.968998 -4.303736 5.309074 0
M  V30 49 H -3.658875 -7.234907 2.344840 0
M  V30 50 H -2.021552 -2.880393 0.756204 0
M  V30 END ATOM
M  V30 BEGIN BOND
M  V30 1 1 1 2
M  V30 2 2 2 3
M  V30 3 1 3 4
M  V30 4 2 4 5
M  V30 5 1 5 6
M  V30 6 1 6 7
M  V30 7 1 7 8
M  V30 8 1 8 9
M  V30 9 1 9 10
M  V30 10 1 10 11
M  V30 11 1 11 12
M  V30 12 2 12 13
M  V30 13 1 12 14
M  V30 14 2 14 15
M  V30 15 1 15 16
M  V30 16 2 16 17
M  V30 17 1 17 18
M  V30 18 2 18 19
M  V30 19 1 19 20
M  V30 20 2 9 21
M  V30 21 1 21 22
M  V30 22 1 22 23
M  V30 23 1 23 24
M  V30 24 2 24 25
M  V30 25 1 25 26
M  V30 26 2 26 27
M  V30 27 1 27 28
M  V30 28 2 28 29
M  V30 29 1 29 30
M  V30 30 1 30 31
M  V30 31 2 6 32
M  V30 32 1 32 2
M  V30 33 2 22 7
M  V30 34 2 31 23
M  V30 35 1 19 14
M  V30 36 1 30 26
M  V30 37 1 1 33
M  V30 38 1 1 34
M  V30 39 1 1 35
M  V30 40 1 3 36
M  V30 41 1 4 37
M  V30 42 1 5 38
M  V30 43 1 8 39
M  V30 44 1 10 40
M  V30 45 1 10 41
M  V30 46 1 11 42
M  V30 47 1 15 43
M  V30 48 1 16 44
M  V30 49 1 17 45
M  V30 50 1 18 46
M  V30 51 1 24 47
M  V30 52 1 25 48
M  V30 53 1 28 49
M  V30 54 1 31 50
M  V30 END BOND
M  V30 END CTAB
M  END
>  <Dataset>  (569) 
ChEMBL_Kinases

>  <Ligand_Instance>  (569) 
nan

>  <PDB_ID>  (569) 
nan

>  <Standardized_SMILES>  (569) 
Cc1cccc(-c2[nH]c(CNC(=O)c3ccccc3F)nc2-c2ccc3ncnn3c2)n1

>  <Name>  (569) 
nan

>  <Pocket>  (569) 
nan

>  <ATP_Site>  (569) 
nan

>  <Peripheral>  (569) 
nan

>  <Num_H_Atoms_ProtBoundConf>  (569) 
nan

>  <Num_Resolved_Atoms>  (569) 
nan

>  <Num_Not_Resolved_Atoms>  (569) 
nan

$$$$
CHEMBL3261083
     RDKit          3D

  0  0  0  0  0  0  0  0  0  0999 V3000
M  V30 BEGIN CTAB
M  V30 COUNTS 50 54 0 0 0
M  V30 BEGIN ATOM
M  V30 1 C -0.784899 -3.462158 4.721735 0
M  V30 2 C 0.426236 -2.960282 4.022218 0
M  V30 3 C 1.677160 -3.199164 4.580688 0
M  V30 4 C 2.815774 -2.743890 3.951767 0
M  V30 5 C 2.711554 -2.043096 2.753769 0
M  V30 6 C 1.442158 -1.821818 2.222344 0
M  V30 7 C 1.419718 -1.082294 0.968155 0
M  V30 8 N 1.835536 0.159225 0.667923 0
M  V30 9 C 1.622618 0.447720 -0.631401 0
M  V30 10 C 1.916497 1.680874 -1.398923 0
M  V30 11 N 0.811571 2.619637 -1.407648 0
M  V30 12 C 0.218736 3.233101 -0.282248 0
M  V30 13 O 0.664558 2.965662 0.862184 0
M  V30 14 C -0.892828 4.172426 -0.338975 0
M  V30 15 C -1.374677 4.705333 0.838889 0
M  V30 16 C -2.430395 5.603552 0.855753 0
M  V30 17 C -3.019735 5.981285 -0.311378 0
M  V30 18 C -2.576903 5.479024 -1.513746 0
M  V30 19 C -1.526903 4.590096 -1.488694 0
M  V30 20 N 1.054360 -0.664802 -1.140208 0
M  V30 21 C 0.915835 -1.613618 -0.199026 0
M  V30 22 C 0.333711 -2.907735 -0.486541 0
M  V30 23 C -1.046245 -3.018631 -0.475003 0
M  V30 24 C -1.669468 -4.222339 -0.742141 0
M  V30 25 C -0.863707 -5.303268 -1.019405 0
M  V30 26 N -1.182466 -6.592010 -1.314961 0
M  V30 27 C -0.025769 -7.275989 -1.508215 0
M  V30 28 N 0.998101 -6.420904 -1.334347 0
M  V30 29 N 0.484216 -5.217528 -1.036036 0
M  V30 30 C 1.091813 -4.043015 -0.775362 0
M  V30 31 N 0.329882 -2.282600 2.863869 0
M  V30 32 H -1.577959 -3.613710 3.956417 0
M  V30 33 H -0.646429 -4.448134 5.202506 0
M  V30 34 H -1.167505 -2.726234 5.461720 0
M  V30 35 H 1.823910 -3.740423 5.512491 0
M  V30 36 H 3.828639 -2.897266 4.335523 0
M  V30 37 H 3.611919 -1.685320 2.261032 0
M  V30 38 H 2.259721 0.788203 1.358881 0
M  V30 39 H 2.115409 1.376980 -2.441023 0
M  V30 40 H 2.837789 2.175000 -1.024561 0
M  V30 41 H 0.365637 2.911600 -2.315399 0
M  V30 42 H -0.957532 4.456541 1.825411 0
M  V30 43 H -2.795371 6.011938 1.788149 0
M  V30 44 H -3.846788 6.688781 -0.265041 0
M  V30 45 H -3.040899 5.774899 -2.448818 0
M  V30 46 H -1.191000 4.205899 -2.425293 0
M  V30 47 H -1.650217 -2.147238 -0.252220 0
M  V30 48 H -2.751471 -4.284454 -0.727771 0
M  V30 49 H 0.134389 -8.321643 -1.759304 0
M  V30 50 H 2.173241 -3.929651 -0.778473 0
M  V30 END ATOM
M  V30 BEGIN BOND
M  V30 1 1 1 2
M  V30 2 2 2 3
M  V30 3 1 3 4
M  V30 4 2 4 5
M  V30 5 1 5 6
M  V30 6 1 6 7
M  V30 7 1 7 8
M  V30 8 1 8 9
M  V30 9 1 9 10
M  V30 10 1 10 11
M  V30 11 1 11 12
M  V30 12 2 12 13
M  V30 13 1 12 14
M  V30 14 2 14 15
M  V30 15 1 15 16
M  V30 16 2 16 17
M  V30 17 1 17 18
M  V30 18 2 18 19
M  V30 19 2 9 20
M  V30 20 1 20 21
M  V30 21 1 21 22
M  V30 22 1 22 23
M  V30 23 2 23 24
M  V30 24 1 24 25
M  V30 25 2 25 26
M  V30 26 1 26 27
M  V30 27 2 27 28
M  V30 28 1 28 29
M  V30 29 1 29 30
M  V30 30 2 6 31
M  V30 31 1 31 2
M  V30 32 2 21 7
M  V30 33 2 30 22
M  V30 34 1 19 14
M  V30 35 1 29 25
M  V30 36 1 1 32
M  V30 37 1 1 33
M  V30 38 1 1 34
M  V30 39 1 3 35
M  V30 40 1 4 36
M  V30 41 1 5 37
M  V30 42 1 8 38
M  V30 43 1 10 39
M  V30 44 1 10 40
M  V30 45 1 11 41
M  V30 46 1 15 42
M  V30 47 1 16 43
M  V30 48 1 17 44
M  V30 49 1 18 45
M  V30 50 1 19 46
M  V30 51 1 23 47
M  V30 52 1 24 48
M  V30 53 1 27 49
M  V30 54 1 30 50
M  V30 END BOND
M  V30 END CTAB
M  END
>  <Dataset>  (570) 
ChEMBL_Kinases

>  <Ligand_Instance>  (570) 
nan

>  <PDB_ID>  (570) 
nan

>  <Standardized_SMILES>  (570) 
Cc1cccc(-c2[nH]c(CNC(=O)c3ccccc3)nc2-c2ccc3ncnn3c2)n1

>  <Name>  (570) 
nan

>  <Pocket>  (570) 
nan

>  <ATP_Site>  (570) 
nan

>  <Peripheral>  (570) 
nan

>  <Num_H_Atoms_ProtBoundConf>  (570) 
nan

>  <Num_Resolved_Atoms>  (570) 
nan

>  <Num_Not_Resolved_Atoms>  (570) 
nan

$$$$
CHEMBL326089
     RDKit          3D

  0  0  0  0  0  0  0  0  0  0999 V3000
M  V30 BEGIN CTAB
M  V30 COUNTS 40 43 0 0 0
M  V30 BEGIN ATOM
M  V30 1 C 2.140918 -4.932465 0.834044 0
M  V30 2 C 2.371719 -4.248827 2.132024 0
M  V30 3 C 2.118992 -4.879666 3.329675 0
M  V30 4 C 2.347027 -4.207743 4.534892 0
M  V30 5 C 2.827772 -2.906575 4.508173 0
M  V30 6 C 3.071387 -2.302202 3.270803 0
M  V30 7 C 2.849264 -2.957754 2.073371 0
M  V30 8 S 3.208720 -2.051174 0.575208 0
M  V30 9 C 1.754467 -1.154521 0.030250 0
M  V30 10 C 1.598026 0.131276 0.514385 0
M  V30 11 C 0.496367 0.884168 0.135127 0
M  V30 12 C -0.465813 0.364221 -0.733476 0
M  V30 13 C -1.581156 1.045331 -1.154485 0
M  V30 14 C -1.752041 2.420409 -0.639082 0
M  V30 15 C -1.257762 3.550183 -1.258186 0
M  V30 16 Cl -0.380178 3.351233 -2.733714 0
M  V30 17 C -1.485332 4.787192 -0.673236 0
M  V30 18 C -2.193406 4.937320 0.515512 0
M  V30 19 C -2.686810 3.785398 1.129397 0
M  V30 20 C -2.463855 2.550766 0.552434 0
M  V30 21 Cl -3.119536 1.143314 1.389278 0
M  V30 22 C -2.494517 0.471990 -2.015436 0
M  V30 23 O -3.510131 1.125167 -2.383750 0
M  V30 24 N -2.225169 -0.786078 -2.412831 0
M  V30 25 C -1.126769 -1.453871 -1.996865 0
M  V30 26 N -0.227966 -0.907108 -1.157595 0
M  V30 27 N 0.817120 -1.639635 -0.806164 0
M  V30 28 H 3.120991 -5.244355 0.368865 0
M  V30 29 H 1.568501 -5.875145 0.990109 0
M  V30 30 H 1.675829 -4.251128 0.093722 0
M  V30 31 H 1.750204 -5.876563 3.377733 0
M  V30 32 H 2.167786 -4.649016 5.521108 0
M  V30 33 H 3.015533 -2.355966 5.441698 0
M  V30 34 H 3.451887 -1.271136 3.276997 0
M  V30 35 H 2.290550 0.594850 1.180334 0
M  V30 36 H 0.274209 1.907584 0.456391 0
M  V30 37 H -1.092827 5.687703 -1.164291 0
M  V30 38 H -2.358026 5.922815 0.954116 0
M  V30 39 H -3.238544 3.894506 2.054321 0
M  V30 40 H -1.053953 -2.452941 -2.405025 0
M  V30 END ATOM
M  V30 BEGIN BOND
M  V30 1 1 1 2
M  V30 2 2 2 3
M  V30 3 1 3 4
M  V30 4 2 4 5
M  V30 5 1 5 6
M  V30 6 2 6 7
M  V30 7 1 7 8
M  V30 8 1 8 9
M  V30 9 1 9 10
M  V30 10 2 10 11
M  V30 11 1 11 12
M  V30 12 2 12 13
M  V30 13 1 13 14
M  V30 14 2 14 15
M  V30 15 1 15 16
M  V30 16 1 15 17
M  V30 17 2 17 18
M  V30 18 1 18 19
M  V30 19 2 19 20
M  V30 20 1 20 21
M  V30 21 1 13 22
M  V30 22 2 22 23
M  V30 23 1 22 24
M  V30 24 2 24 25
M  V30 25 1 25 26
M  V30 26 1 26 27
M  V30 27 1 7 2
M  V30 28 2 27 9
M  V30 29 1 26 12
M  V30 30 1 20 14
M  V30 31 1 1 28
M  V30 32 1 1 29
M  V30 33 1 1 30
M  V30 34 1 3 31
M  V30 35 1 4 32
M  V30 36 1 5 33
M  V30 37 1 6 34
M  V30 38 1 10 35
M  V30 39 1 11 36
M  V30 40 1 17 37
M  V30 41 1 18 38
M  V30 42 1 19 39
M  V30 43 1 25 40
M  V30 END BOND
M  V30 END CTAB
M  END
>  <Dataset>  (571) 
ChEMBL_Kinases

>  <Ligand_Instance>  (571) 
nan

>  <PDB_ID>  (571) 
nan

>  <Standardized_SMILES>  (571) 
Cc1ccccc1Sc1ccc2c(-c3c(Cl)cccc3Cl)c(=O)ncn2n1

>  <Name>  (571) 
nan

>  <Pocket>  (571) 
nan

>  <ATP_Site>  (571) 
nan

>  <Peripheral>  (571) 
nan

>  <Num_H_Atoms_ProtBoundConf>  (571) 
nan

>  <Num_Resolved_Atoms>  (571) 
nan

>  <Num_Not_Resolved_Atoms>  (571) 
nan

$$$$
CHEMBL3260622
     RDKit          3D

  0  0  0  0  0  0  0  0  0  0999 V3000
M  V30 BEGIN CTAB
M  V30 COUNTS 56 60 0 0 0
M  V30 BEGIN ATOM
M  V30 1 C 5.824905 -3.786262 2.638586 0
M  V30 2 O 5.135696 -3.488858 1.466457 0
M  V30 3 C 4.533922 -2.271517 1.237655 0
M  V30 4 C 4.562624 -1.237162 2.132266 0
M  V30 5 C 3.966369 -0.039091 1.896453 0
M  V30 6 C 3.280445 0.240262 0.736714 0
M  V30 7 N 2.664970 1.462616 0.424473 0
M  V30 8 C 1.881616 1.923224 -0.701156 0
M  V30 9 C 0.570224 1.222887 -0.659814 0
M  V30 10 N -0.401041 1.793204 0.082807 0
M  V30 11 C -1.547499 1.094180 0.048848 0
M  V30 12 C -2.742769 1.511295 0.771235 0
M  V30 13 C -3.947723 1.922776 0.243003 0
M  V30 14 C -5.016070 2.297014 1.030998 0
M  V30 15 C -4.850783 2.250403 2.419099 0
M  V30 16 N -5.733258 2.562702 3.378790 0
M  V30 17 C -5.073253 2.344503 4.551291 0
M  V30 18 N -3.818491 1.909359 4.296411 0
M  V30 19 N -3.681252 1.851325 2.982777 0
M  V30 20 C -2.684147 1.501345 2.152424 0
M  V30 21 C -1.278777 0.025780 -0.760611 0
M  V30 22 C -2.228542 -1.022384 -1.099500 0
M  V30 23 C -3.379212 -0.916130 -1.850269 0
M  V30 24 C -4.203379 -1.987461 -2.096398 0
M  V30 25 C -3.875312 -3.209020 -1.579865 0
M  V30 26 C -2.703304 -3.287671 -0.822953 0
M  V30 27 C -2.329213 -4.621676 -0.248710 0
M  V30 28 N -1.896405 -2.232793 -0.583367 0
M  V30 29 N -0.005937 0.127534 -1.170665 0
M  V30 30 C 3.262884 -0.825787 -0.160143 0
M  V30 31 C 3.861145 -2.039673 0.066788 0
M  V30 32 O 3.819832 -3.081721 -0.857543 0
M  V30 33 C 3.138134 -2.922476 -2.103513 0
M  V30 34 H 6.889673 -3.447737 2.614934 0
M  V30 35 H 5.360901 -3.326697 3.521706 0
M  V30 36 H 5.858753 -4.886798 2.821910 0
M  V30 37 H 5.077326 -1.345207 3.084754 0
M  V30 38 H 4.017175 0.759928 2.644701 0
M  V30 39 H 2.829466 2.176008 1.203302 0
M  V30 40 H 2.377905 1.668304 -1.671356 0
M  V30 41 H 1.792248 3.004959 -0.643110 0
M  V30 42 H -4.007485 1.938090 -0.835071 0
M  V30 43 H -5.923116 2.605681 0.541759 0
M  V30 44 H -5.488939 2.496229 5.541445 0
M  V30 45 H -1.772412 1.191065 2.670138 0
M  V30 46 H -3.588410 0.058832 -2.232937 0
M  V30 47 H -5.096912 -1.858303 -2.691238 0
M  V30 48 H -4.487697 -4.091205 -1.741091 0
M  V30 49 H -2.531924 -4.664762 0.822714 0
M  V30 50 H -2.843829 -5.410896 -0.835516 0
M  V30 51 H -1.236884 -4.776149 -0.483734 0
M  V30 52 H 0.542406 -0.495920 -1.795445 0
M  V30 53 H 2.771640 -0.760446 -1.117631 0
M  V30 54 H 3.601654 -2.077328 -2.640186 0
M  V30 55 H 2.066614 -2.745329 -1.872156 0
M  V30 56 H 3.308954 -3.888911 -2.647613 0
M  V30 END ATOM
M  V30 BEGIN BOND
M  V30 1 1 1 2
M  V30 2 1 2 3
M  V30 3 2 3 4
M  V30 4 1 4 5
M  V30 5 2 5 6
M  V30 6 1 6 7
M  V30 7 1 7 8
M  V30 8 1 8 9
M  V30 9 2 9 10
M  V30 10 1 10 11
M  V30 11 1 11 12
M  V30 12 1 12 13
M  V30 13 2 13 14
M  V30 14 1 14 15
M  V30 15 2 15 16
M  V30 16 1 16 17
M  V30 17 2 17 18
M  V30 18 1 18 19
M  V30 19 1 19 20
M  V30 20 2 11 21
M  V30 21 1 21 22
M  V30 22 2 22 23
M  V30 23 1 23 24
M  V30 24 2 24 25
M  V30 25 1 25 26
M  V30 26 1 26 27
M  V30 27 2 26 28
M  V30 28 1 21 29
M  V30 29 1 6 30
M  V30 30 2 30 31
M  V30 31 1 31 32
M  V30 32 1 32 33
M  V30 33 1 31 3
M  V30 34 1 29 9
M  V30 35 2 20 12
M  V30 36 1 28 22
M  V30 37 1 19 15
M  V30 38 1 1 34
M  V30 39 1 1 35
M  V30 40 1 1 36
M  V30 41 1 4 37
M  V30 42 1 5 38
M  V30 43 1 7 39
M  V30 44 1 8 40
M  V30 45 1 8 41
M  V30 46 1 13 42
M  V30 47 1 14 43
M  V30 48 1 17 44
M  V30 49 1 20 45
M  V30 50 1 23 46
M  V30 51 1 24 47
M  V30 52 1 25 48
M  V30 53 1 27 49
M  V30 54 1 27 50
M  V30 55 1 27 51
M  V30 56 1 29 52
M  V30 57 1 30 53
M  V30 58 1 33 54
M  V30 59 1 33 55
M  V30 60 1 33 56
M  V30 END BOND
M  V30 END CTAB
M  END
>  <Dataset>  (572) 
ChEMBL_Kinases

>  <Ligand_Instance>  (572) 
nan

>  <PDB_ID>  (572) 
nan

>  <Standardized_SMILES>  (572) 
COc1ccc(NCc2nc(-c3ccc4ncnn4c3)c(-c3cccc(C)n3)[nH]2)cc1OC

>  <Name>  (572) 
nan

>  <Pocket>  (572) 
nan

>  <ATP_Site>  (572) 
nan

>  <Peripheral>  (572) 
nan

>  <Num_H_Atoms_ProtBoundConf>  (572) 
nan

>  <Num_Resolved_Atoms>  (572) 
nan

>  <Num_Not_Resolved_Atoms>  (572) 
nan

$$$$
CHEMBL3260621
     RDKit          3D

  0  0  0  0  0  0  0  0  0  0999 V3000
M  V30 BEGIN CTAB
M  V30 COUNTS 54 58 0 0 0
M  V30 BEGIN ATOM
M  V30 1 C -1.702505 -0.644496 5.237693 0
M  V30 2 C -0.515542 -1.281214 4.608671 0
M  V30 3 C 0.301957 -2.176458 5.300324 0
M  V30 4 C 1.391915 -2.731319 4.651107 0
M  V30 5 C 1.658871 -2.397237 3.336008 0
M  V30 6 C 0.827674 -1.506375 2.680625 0
M  V30 7 C 1.233400 -1.249496 1.304222 0
M  V30 8 N 1.603224 -0.084122 0.777360 0
M  V30 9 C 1.916497 -0.165365 -0.504763 0
M  V30 10 C 2.361562 0.713855 -1.602506 0
M  V30 11 N 1.237687 1.185223 -2.378243 0
M  V30 12 C 0.151109 2.025147 -2.049837 0
M  V30 13 C -0.054677 2.627106 -0.831965 0
M  V30 14 C -1.119814 3.440136 -0.508139 0
M  V30 15 C -2.040321 3.648876 -1.512053 0
M  V30 16 C -3.226490 4.506161 -1.276139 0
M  V30 17 C -1.891773 3.078427 -2.745107 0
M  V30 18 C -2.902886 3.326346 -3.800223 0
M  V30 19 C -0.812798 2.286582 -2.989879 0
M  V30 20 N 1.738613 -1.475845 -0.835628 0
M  V30 21 C 1.324202 -2.145730 0.251922 0
M  V30 22 C 0.984679 -3.567532 0.460523 0
M  V30 23 C -0.317147 -3.870261 0.814568 0
M  V30 24 C -0.779715 -5.159880 1.043774 0
M  V30 25 C 0.178607 -6.146602 0.888957 0
M  V30 26 N 0.085327 -7.482691 1.029431 0
M  V30 27 C 1.319258 -7.986050 0.763095 0
M  V30 28 N 2.142556 -6.979035 0.467753 0
M  V30 29 N 1.431669 -5.865046 0.549015 0
M  V30 30 C 1.882101 -4.608006 0.325715 0
M  V30 31 N -0.249091 -0.955987 3.316407 0
M  V30 32 H -1.924262 -1.152298 6.203413 0
M  V30 33 H -2.616548 -0.837943 4.606244 0
M  V30 34 H -1.606545 0.440269 5.354367 0
M  V30 35 H 0.078956 -2.427137 6.329064 0
M  V30 36 H 2.023320 -3.431451 5.206586 0
M  V30 37 H 2.525803 -2.867971 2.891926 0
M  V30 38 H 1.662036 0.808933 1.270234 0
M  V30 39 H 3.139309 0.241630 -2.216209 0
M  V30 40 H 2.830225 1.656552 -1.177441 0
M  V30 41 H 1.264222 0.810863 -3.375858 0
M  V30 42 H 0.665844 2.470263 -0.049929 0
M  V30 43 H -1.212862 3.881742 0.483748 0
M  V30 44 H -3.414011 4.536451 -0.188894 0
M  V30 45 H -3.002578 5.547419 -1.582855 0
M  V30 46 H -4.108208 4.189199 -1.858830 0
M  V30 47 H -3.849643 2.781556 -3.620946 0
M  V30 48 H -2.538328 2.968382 -4.797751 0
M  V30 49 H -3.136753 4.410425 -3.907217 0
M  V30 50 H -0.741649 1.853638 -3.996011 0
M  V30 51 H -1.042266 -3.063177 0.926226 0
M  V30 52 H -1.804399 -5.333465 1.316644 0
M  V30 53 H 1.649020 -9.027598 0.771374 0
M  V30 54 H 2.892129 -4.338846 0.048125 0
M  V30 END ATOM
M  V30 BEGIN BOND
M  V30 1 1 1 2
M  V30 2 2 2 3
M  V30 3 1 3 4
M  V30 4 2 4 5
M  V30 5 1 5 6
M  V30 6 1 6 7
M  V30 7 1 7 8
M  V30 8 1 8 9
M  V30 9 1 9 10
M  V30 10 1 10 11
M  V30 11 1 11 12
M  V30 12 2 12 13
M  V30 13 1 13 14
M  V30 14 2 14 15
M  V30 15 1 15 16
M  V30 16 1 15 17
M  V30 17 1 17 18
M  V30 18 2 17 19
M  V30 19 2 9 20
M  V30 20 1 20 21
M  V30 21 1 21 22
M  V30 22 1 22 23
M  V30 23 2 23 24
M  V30 24 1 24 25
M  V30 25 2 25 26
M  V30 26 1 26 27
M  V30 27 2 27 28
M  V30 28 1 28 29
M  V30 29 1 29 30
M  V30 30 2 6 31
M  V30 31 1 31 2
M  V30 32 2 21 7
M  V30 33 2 30 22
M  V30 34 1 19 12
M  V30 35 1 29 25
M  V30 36 1 1 32
M  V30 37 1 1 33
M  V30 38 1 1 34
M  V30 39 1 3 35
M  V30 40 1 4 36
M  V30 41 1 5 37
M  V30 42 1 8 38
M  V30 43 1 10 39
M  V30 44 1 10 40
M  V30 45 1 11 41
M  V30 46 1 13 42
M  V30 47 1 14 43
M  V30 48 1 16 44
M  V30 49 1 16 45
M  V30 50 1 16 46
M  V30 51 1 18 47
M  V30 52 1 18 48
M  V30 53 1 18 49
M  V30 54 1 19 50
M  V30 55 1 23 51
M  V30 56 1 24 52
M  V30 57 1 27 53
M  V30 58 1 30 54
M  V30 END BOND
M  V30 END CTAB
M  END
>  <Dataset>  (573) 
ChEMBL_Kinases

>  <Ligand_Instance>  (573) 
nan

>  <PDB_ID>  (573) 
nan

>  <Standardized_SMILES>  (573) 
Cc1cccc(-c2[nH]c(CNc3ccc(C)c(C)c3)nc2-c2ccc3ncnn3c2)n1

>  <Name>  (573) 
nan

>  <Pocket>  (573) 
nan

>  <ATP_Site>  (573) 
nan

>  <Peripheral>  (573) 
nan

>  <Num_H_Atoms_ProtBoundConf>  (573) 
nan

>  <Num_Resolved_Atoms>  (573) 
nan

>  <Num_Not_Resolved_Atoms>  (573) 
nan

$$$$
CHEMBL3260618
     RDKit          3D

  0  0  0  0  0  0  0  0  0  0999 V3000
M  V30 BEGIN CTAB
M  V30 COUNTS 50 54 0 0 0
M  V30 BEGIN ATOM
M  V30 1 C 3.747526 -3.858755 3.682585 0
M  V30 2 C 2.757160 -2.746110 3.510131 0
M  V30 3 C 2.111673 -2.183819 4.598616 0
M  V30 4 C 1.204192 -1.161941 4.420923 0
M  V30 5 C 0.961890 -0.720981 3.131647 0
M  V30 6 C 1.616504 -1.293191 2.041828 0
M  V30 7 C 1.260776 -0.727083 0.752692 0
M  V30 8 N 1.409216 0.535035 0.319913 0
M  V30 9 C 0.972957 0.719142 -0.928977 0
M  V30 10 C 0.876822 1.849228 -1.867275 0
M  V30 11 N -0.422884 2.484468 -1.824679 0
M  V30 12 C -1.130454 3.208983 -0.847970 0
M  V30 13 C -0.591828 3.464012 0.377429 0
M  V30 14 C -1.211919 4.173907 1.388947 0
M  V30 15 C -2.472993 4.666817 1.150514 0
M  V30 16 C -3.040413 4.429358 -0.065694 0
M  V30 17 C -4.354406 4.915153 -0.380928 0
M  V30 18 N -5.415490 5.322756 -0.623705 0
M  V30 19 C -2.412447 3.723237 -1.059014 0
M  V30 20 C -3.036373 3.489148 -2.330229 0
M  V30 21 N -3.539451 3.298133 -3.357920 0
M  V30 22 N 0.526668 -0.499444 -1.297335 0
M  V30 23 C 0.686640 -1.390822 -0.305684 0
M  V30 24 C 0.296399 -2.792109 -0.406974 0
M  V30 25 C -1.072512 -2.941099 -0.632999 0
M  V30 26 C -1.642550 -4.190782 -0.760094 0
M  V30 27 C -0.809243 -5.296313 -0.655723 0
M  V30 28 N -1.049434 -6.627713 -0.731894 0
M  V30 29 C 0.132841 -7.289571 -0.558800 0
M  V30 30 N 1.085691 -6.330269 -0.377554 0
M  V30 31 N 0.508925 -5.139926 -0.437672 0
M  V30 32 C 1.074522 -3.926646 -0.312325 0
M  V30 33 N 2.495870 -2.289745 2.261044 0
M  V30 34 H 4.751457 -3.371253 3.778540 0
M  V30 35 H 3.546669 -4.427871 4.626573 0
M  V30 36 H 3.723498 -4.499240 2.789238 0
M  V30 37 H 2.327412 -2.557180 5.604113 0
M  V30 38 H 0.704016 -0.730260 5.293321 0
M  V30 39 H 0.231937 0.090101 3.071124 0
M  V30 40 H 1.826456 1.301582 0.885194 0
M  V30 41 H 1.094239 1.488169 -2.885924 0
M  V30 42 H 1.683420 2.609639 -1.658079 0
M  V30 43 H -0.978158 2.387144 -2.732463 0
M  V30 44 H 0.390560 3.136370 0.681621 0
M  V30 45 H -0.791539 4.379303 2.360405 0
M  V30 46 H -3.049386 5.225037 1.845680 0
M  V30 47 H -1.785318 -2.126101 -0.725634 0
M  V30 48 H -2.714778 -4.333919 -0.938258 0
M  V30 49 H 0.298033 -8.374787 -0.562087 0
M  V30 50 H 2.119129 -3.711229 -0.136925 0
M  V30 END ATOM
M  V30 BEGIN BOND
M  V30 1 1 1 2
M  V30 2 2 2 3
M  V30 3 1 3 4
M  V30 4 2 4 5
M  V30 5 1 5 6
M  V30 6 1 6 7
M  V30 7 1 7 8
M  V30 8 1 8 9
M  V30 9 1 9 10
M  V30 10 1 10 11
M  V30 11 1 11 12
M  V30 12 2 12 13
M  V30 13 1 13 14
M  V30 14 2 14 15
M  V30 15 1 15 16
M  V30 16 1 16 17
M  V30 17 3 17 18
M  V30 18 2 16 19
M  V30 19 1 19 20
M  V30 20 3 20 21
M  V30 21 2 9 22
M  V30 22 1 22 23
M  V30 23 1 23 24
M  V30 24 1 24 25
M  V30 25 2 25 26
M  V30 26 1 26 27
M  V30 27 2 27 28
M  V30 28 1 28 29
M  V30 29 2 29 30
M  V30 30 1 30 31
M  V30 31 1 31 32
M  V30 32 2 6 33
M  V30 33 1 33 2
M  V30 34 2 23 7
M  V30 35 2 32 24
M  V30 36 1 19 12
M  V30 37 1 31 27
M  V30 38 1 1 34
M  V30 39 1 1 35
M  V30 40 1 1 36
M  V30 41 1 3 37
M  V30 42 1 4 38
M  V30 43 1 5 39
M  V30 44 1 8 40
M  V30 45 1 10 41
M  V30 46 1 10 42
M  V30 47 1 11 43
M  V30 48 1 13 44
M  V30 49 1 14 45
M  V30 50 1 15 46
M  V30 51 1 25 47
M  V30 52 1 26 48
M  V30 53 1 29 49
M  V30 54 1 32 50
M  V30 END BOND
M  V30 END CTAB
M  END
>  <Dataset>  (574) 
ChEMBL_Kinases

>  <Ligand_Instance>  (574) 
nan

>  <PDB_ID>  (574) 
nan

>  <Standardized_SMILES>  (574) 
Cc1cccc(-c2[nH]c(CNc3cccc(C#N)c3C#N)nc2-c2ccc3ncnn3c2)n1

>  <Name>  (574) 
nan

>  <Pocket>  (574) 
nan

>  <ATP_Site>  (574) 
nan

>  <Peripheral>  (574) 
nan

>  <Num_H_Atoms_ProtBoundConf>  (574) 
nan

>  <Num_Resolved_Atoms>  (574) 
nan

>  <Num_Not_Resolved_Atoms>  (574) 
nan

$$$$
CHEMBL3260617
     RDKit          3D

  0  0  0  0  0  0  0  0  0  0999 V3000
M  V30 BEGIN CTAB
M  V30 COUNTS 56 60 0 0 0
M  V30 BEGIN ATOM
M  V30 1 C 7.087776 -0.126162 0.571620 0
M  V30 2 O 5.949320 0.301042 -0.136984 0
M  V30 3 C 4.768116 0.746449 0.429847 0
M  V30 4 C 4.502739 0.850432 1.778194 0
M  V30 5 C 3.294361 1.305763 2.260046 0
M  V30 6 C 2.358844 1.654143 1.304241 0
M  V30 7 C 2.540614 1.580929 -0.062523 0
M  V30 8 N 1.550206 1.963665 -1.003517 0
M  V30 9 C 0.214388 2.452473 -0.753586 0
M  V30 10 C -0.612297 1.343158 -0.160720 0
M  V30 11 N -0.970482 0.863608 1.052924 0
M  V30 12 C -1.746547 -0.198327 0.945940 0
M  V30 13 C -2.286045 -0.917266 2.094083 0
M  V30 14 C -1.963726 -2.222192 2.385377 0
M  V30 15 C -2.499508 -2.866850 3.477967 0
M  V30 16 C -3.372158 -2.152232 4.267316 0
M  V30 17 N -4.055331 -2.476013 5.379390 0
M  V30 18 C -4.789731 -1.396073 5.775583 0
M  V30 19 N -4.507556 -0.453435 4.862473 0
M  V30 20 N -3.661077 -0.879218 3.947746 0
M  V30 21 C -3.175832 -0.166537 2.886083 0
M  V30 22 C -1.933937 -0.466605 -0.390255 0
M  V30 23 C -2.736784 -1.581431 -0.868073 0
M  V30 24 C -4.071541 -1.658898 -0.518841 0
M  V30 25 C -4.741981 -2.768132 -1.034748 0
M  V30 26 C -4.071115 -3.697648 -1.836770 0
M  V30 27 C -2.732408 -3.522240 -2.124322 0
M  V30 28 C -2.108083 -4.565460 -2.994299 0
M  V30 29 N -2.053755 -2.454940 -1.637178 0
M  V30 30 N -1.241463 0.475976 -1.012471 0
M  V30 31 C 3.791157 1.110437 -0.468377 0
M  V30 32 O 4.018522 1.021526 -1.856080 0
M  V30 33 C 3.692120 -0.178928 -2.515255 0
M  V30 34 H 7.125793 -1.248345 0.520936 0
M  V30 35 H 8.028106 0.326725 0.159803 0
M  V30 36 H 7.049826 0.204885 1.626415 0
M  V30 37 H 5.268978 0.564024 2.479497 0
M  V30 38 H 3.101182 1.382201 3.314876 0
M  V30 39 H 1.428351 2.014180 1.714930 0
M  V30 40 H 1.839659 1.877054 -2.009993 0
M  V30 41 H 0.216826 3.307855 -0.033905 0
M  V30 42 H -0.233336 2.765107 -1.698041 0
M  V30 43 H -1.272825 -2.770315 1.747907 0
M  V30 44 H -2.226969 -3.889364 3.684449 0
M  V30 45 H -5.457347 -1.313244 6.645617 0
M  V30 46 H -3.467785 0.840522 2.719647 0
M  V30 47 H -4.523928 -0.899246 0.106490 0
M  V30 48 H -5.790133 -2.886920 -0.795501 0
M  V30 49 H -4.685284 -4.522190 -2.184690 0
M  V30 50 H -2.120320 -5.558234 -2.527784 0
M  V30 51 H -1.051024 -4.265531 -3.223388 0
M  V30 52 H -2.629751 -4.534169 -3.992023 0
M  V30 53 H -1.237273 0.472208 -2.070015 0
M  V30 54 H 4.601449 -0.805214 -2.613725 0
M  V30 55 H 3.290693 -0.013075 -3.532915 0
M  V30 56 H 2.931809 -0.775797 -1.960571 0
M  V30 END ATOM
M  V30 BEGIN BOND
M  V30 1 1 1 2
M  V30 2 1 2 3
M  V30 3 2 3 4
M  V30 4 1 4 5
M  V30 5 2 5 6
M  V30 6 1 6 7
M  V30 7 1 7 8
M  V30 8 1 8 9
M  V30 9 1 9 10
M  V30 10 2 10 11
M  V30 11 1 11 12
M  V30 12 1 12 13
M  V30 13 1 13 14
M  V30 14 2 14 15
M  V30 15 1 15 16
M  V30 16 2 16 17
M  V30 17 1 17 18
M  V30 18 2 18 19
M  V30 19 1 19 20
M  V30 20 1 20 21
M  V30 21 2 12 22
M  V30 22 1 22 23
M  V30 23 2 23 24
M  V30 24 1 24 25
M  V30 25 2 25 26
M  V30 26 1 26 27
M  V30 27 1 27 28
M  V30 28 2 27 29
M  V30 29 1 22 30
M  V30 30 2 7 31
M  V30 31 1 31 32
M  V30 32 1 32 33
M  V30 33 1 31 3
M  V30 34 1 30 10
M  V30 35 2 21 13
M  V30 36 1 29 23
M  V30 37 1 20 16
M  V30 38 1 1 34
M  V30 39 1 1 35
M  V30 40 1 1 36
M  V30 41 1 4 37
M  V30 42 1 5 38
M  V30 43 1 6 39
M  V30 44 1 8 40
M  V30 45 1 9 41
M  V30 46 1 9 42
M  V30 47 1 14 43
M  V30 48 1 15 44
M  V30 49 1 18 45
M  V30 50 1 21 46
M  V30 51 1 24 47
M  V30 52 1 25 48
M  V30 53 1 26 49
M  V30 54 1 28 50
M  V30 55 1 28 51
M  V30 56 1 28 52
M  V30 57 1 30 53
M  V30 58 1 33 54
M  V30 59 1 33 55
M  V30 60 1 33 56
M  V30 END BOND
M  V30 END CTAB
M  END
>  <Dataset>  (575) 
ChEMBL_Kinases

>  <Ligand_Instance>  (575) 
nan

>  <PDB_ID>  (575) 
nan

>  <Standardized_SMILES>  (575) 
COc1cccc(NCc2nc(-c3ccc4ncnn4c3)c(-c3cccc(C)n3)[nH]2)c1OC

>  <Name>  (575) 
nan

>  <Pocket>  (575) 
nan

>  <ATP_Site>  (575) 
nan

>  <Peripheral>  (575) 
nan

>  <Num_H_Atoms_ProtBoundConf>  (575) 
nan

>  <Num_Resolved_Atoms>  (575) 
nan

>  <Num_Not_Resolved_Atoms>  (575) 
nan

$$$$
CHEMBL3260613
     RDKit          3D

  0  0  0  0  0  0  0  0  0  0999 V3000
M  V30 BEGIN CTAB
M  V30 COUNTS 55 59 0 0 0
M  V30 BEGIN ATOM
M  V30 1 C 5.935417 0.057423 6.146789 0
M  V30 2 C 5.592247 0.636931 4.804460 0
M  V30 3 O 6.247805 1.678755 4.609273 0
M  V30 4 N 4.643019 -0.041671 4.020973 0
M  V30 5 C 4.089462 0.207118 2.735451 0
M  V30 6 C 4.772224 -0.362730 1.682200 0
M  V30 7 C 4.379633 -0.226002 0.371340 0
M  V30 8 C 3.239535 0.517325 0.040688 0
M  V30 9 N 2.771369 0.716598 -1.278325 0
M  V30 10 C 1.624026 1.419783 -1.771637 0
M  V30 11 C 0.322642 0.806215 -1.351925 0
M  V30 12 N -0.560793 0.915939 -0.362883 0
M  V30 13 C -1.597768 0.075450 -0.491855 0
M  V30 14 C -2.679423 0.029941 0.473591 0
M  V30 15 C -2.370903 -0.432090 1.760096 0
M  V30 16 C -3.364433 -0.491623 2.720183 0
M  V30 17 C -4.649249 -0.112594 2.458154 0
M  V30 18 N -5.785707 -0.068922 3.188118 0
M  V30 19 C -6.778408 0.406763 2.383330 0
M  V30 20 N -6.225134 0.644915 1.172627 0
M  V30 21 N -4.941471 0.332179 1.216460 0
M  V30 22 C -3.984111 0.394378 0.275375 0
M  V30 23 C -1.380009 -0.633010 -1.642326 0
M  V30 24 C -2.247376 -1.665164 -2.188735 0
M  V30 25 C -3.527210 -1.561601 -2.683199 0
M  V30 26 C -4.167626 -2.695354 -3.154776 0
M  V30 27 C -3.497913 -3.899431 -3.113513 0
M  V30 28 C -2.215015 -4.004787 -2.618430 0
M  V30 29 C -1.549480 -5.333189 -2.603648 0
M  V30 30 N -1.634181 -2.880873 -2.172518 0
M  V30 31 N -0.219960 -0.172738 -2.136845 0
M  V30 32 C 2.583534 1.071667 1.118888 0
M  V30 33 C 2.964055 0.943616 2.434775 0
M  V30 34 H 5.615098 0.756051 6.952581 0
M  V30 35 H 7.023272 -0.144968 6.232903 0
M  V30 36 H 5.404112 -0.908338 6.326831 0
M  V30 37 H 4.200748 -0.918078 4.375401 0
M  V30 38 H 5.666820 -0.957479 1.828600 0
M  V30 39 H 4.933442 -0.684299 -0.444150 0
M  V30 40 H 3.410740 0.246509 -1.990969 0
M  V30 41 H 1.682163 1.459583 -2.875367 0
M  V30 42 H 1.659827 2.491545 -1.454182 0
M  V30 43 H -1.387483 -0.740924 2.022659 0
M  V30 44 H -3.157746 -0.843117 3.720352 0
M  V30 45 H -7.843546 0.642055 2.425786 0
M  V30 46 H -4.245531 0.751096 -0.689393 0
M  V30 47 H -3.921987 -0.556884 -2.654488 0
M  V30 48 H -5.152374 -2.558225 -3.523666 0
M  V30 49 H -4.012460 -4.781828 -3.487195 0
M  V30 50 H -1.972738 -6.033563 -1.881649 0
M  V30 51 H -0.449590 -5.172414 -2.422946 0
M  V30 52 H -1.602083 -5.729238 -3.657804 0
M  V30 53 H 0.157352 -0.583068 -3.042979 0
M  V30 54 H 1.692590 1.677366 1.026237 0
M  V30 55 H 2.455656 1.374066 3.278527 0
M  V30 END ATOM
M  V30 BEGIN BOND
M  V30 1 1 1 2
M  V30 2 2 2 3
M  V30 3 1 2 4
M  V30 4 1 4 5
M  V30 5 2 5 6
M  V30 6 1 6 7
M  V30 7 2 7 8
M  V30 8 1 8 9
M  V30 9 1 9 10
M  V30 10 1 10 11
M  V30 11 2 11 12
M  V30 12 1 12 13
M  V30 13 1 13 14
M  V30 14 1 14 15
M  V30 15 2 15 16
M  V30 16 1 16 17
M  V30 17 2 17 18
M  V30 18 1 18 19
M  V30 19 2 19 20
M  V30 20 1 20 21
M  V30 21 1 21 22
M  V30 22 2 13 23
M  V30 23 1 23 24
M  V30 24 2 24 25
M  V30 25 1 25 26
M  V30 26 2 26 27
M  V30 27 1 27 28
M  V30 28 1 28 29
M  V30 29 2 28 30
M  V30 30 1 23 31
M  V30 31 1 8 32
M  V30 32 2 32 33
M  V30 33 1 33 5
M  V30 34 1 31 11
M  V30 35 2 22 14
M  V30 36 1 30 24
M  V30 37 1 21 17
M  V30 38 1 1 34
M  V30 39 1 1 35
M  V30 40 1 1 36
M  V30 41 1 4 37
M  V30 42 1 6 38
M  V30 43 1 7 39
M  V30 44 1 9 40
M  V30 45 1 10 41
M  V30 46 1 10 42
M  V30 47 1 15 43
M  V30 48 1 16 44
M  V30 49 1 19 45
M  V30 50 1 22 46
M  V30 51 1 25 47
M  V30 52 1 26 48
M  V30 53 1 27 49
M  V30 54 1 29 50
M  V30 55 1 29 51
M  V30 56 1 29 52
M  V30 57 1 31 53
M  V30 58 1 32 54
M  V30 59 1 33 55
M  V30 END BOND
M  V30 END CTAB
M  END
>  <Dataset>  (576) 
ChEMBL_Kinases

>  <Ligand_Instance>  (576) 
nan

>  <PDB_ID>  (576) 
nan

>  <Standardized_SMILES>  (576) 
CC(=O)Nc1ccc(NCc2nc(-c3ccc4ncnn4c3)c(-c3cccc(C)n3)[nH]2)cc1

>  <Name>  (576) 
nan

>  <Pocket>  (576) 
nan

>  <ATP_Site>  (576) 
nan

>  <Peripheral>  (576) 
nan

>  <Num_H_Atoms_ProtBoundConf>  (576) 
nan

>  <Num_Resolved_Atoms>  (576) 
nan

>  <Num_Not_Resolved_Atoms>  (576) 
nan

$$$$
CHEMBL3260612
     RDKit          3D

  0  0  0  0  0  0  0  0  0  0999 V3000
M  V30 BEGIN CTAB
M  V30 COUNTS 56 60 0 0 0
M  V30 BEGIN ATOM
M  V30 1 C 4.538644 -4.688373 1.800757 0
M  V30 2 C 3.595743 -3.545183 1.907340 0
M  V30 3 C 3.406207 -2.935454 3.128016 0
M  V30 4 C 2.504475 -1.884594 3.095715 0
M  V30 5 C 1.838168 -1.465478 1.943831 0
M  V30 6 C 2.111004 -2.156470 0.776157 0
M  V30 7 C 1.373625 -1.655168 -0.380967 0
M  V30 8 N 1.494324 -0.419500 -0.860590 0
M  V30 9 C 0.709654 -0.210306 -1.927251 0
M  V30 10 C 0.413307 0.927389 -2.846591 0
M  V30 11 N -0.722454 1.703866 -2.482212 0
M  V30 12 C -0.961070 2.527253 -1.357536 0
M  V30 13 C -0.063583 2.768602 -0.341097 0
M  V30 14 C -0.276839 3.559755 0.766467 0
M  V30 15 C -1.513604 4.165408 0.856912 0
M  V30 16 N -1.788898 4.993633 1.980804 0
M  V30 17 S -3.303627 4.826681 2.793349 0
M  V30 18 C -3.371708 3.152031 3.424412 0
M  V30 19 O -3.326985 5.723641 4.009111 0
M  V30 20 O -4.474690 5.134313 1.917657 0
M  V30 21 C -2.464095 3.971222 -0.122547 0
M  V30 22 C -2.172134 3.164876 -1.198469 0
M  V30 23 N 0.081523 -1.389749 -2.098045 0
M  V30 24 C 0.454678 -2.297230 -1.180421 0
M  V30 25 C 0.012159 -3.672829 -1.023667 0
M  V30 26 C 0.798167 -4.801247 -1.127784 0
M  V30 27 C 0.278223 -6.070668 -0.960178 0
M  V30 28 C -1.069704 -6.128977 -0.684005 0
M  V30 29 N -1.846857 -7.200283 -0.473954 0
M  V30 30 C -3.119497 -6.782276 -0.236383 0
M  V30 31 N -3.081138 -5.445879 -0.309617 0
M  V30 32 N -1.848272 -5.038076 -0.579575 0
M  V30 33 C -1.355139 -3.775769 -0.741389 0
M  V30 34 N 2.983348 -3.190822 0.751353 0
M  V30 35 H 5.474468 -4.496768 2.399382 0
M  V30 36 H 4.855308 -4.894964 0.768207 0
M  V30 37 H 4.046468 -5.562695 2.281944 0
M  V30 38 H 3.909420 -3.248353 4.009205 0
M  V30 39 H 2.313655 -1.361524 4.037644 0
M  V30 40 H 1.146570 -0.628443 2.017413 0
M  V30 41 H 2.109327 0.313962 -0.490117 0
M  V30 42 H 0.315562 0.511616 -3.868794 0
M  V30 43 H 1.349952 1.549192 -2.903995 0
M  V30 44 H -1.513601 1.651017 -3.169088 0
M  V30 45 H 0.904229 2.316852 -0.389571 0
M  V30 46 H 0.481218 3.700672 1.525443 0
M  V30 47 H -0.993359 5.660704 2.212769 0
M  V30 48 H -3.516440 2.460562 2.564289 0
M  V30 49 H -4.193046 2.990706 4.123223 0
M  V30 50 H -2.374439 2.944920 3.883192 0
M  V30 51 H -3.443724 4.444038 -0.062269 0
M  V30 52 H -2.952702 3.041117 -1.946132 0
M  V30 53 H 1.833865 -4.646562 -1.345442 0
M  V30 54 H 0.909276 -6.925784 -1.046211 0
M  V30 55 H -3.845455 -7.560031 -0.051100 0
M  V30 56 H -2.026003 -2.930440 -0.646750 0
M  V30 END ATOM
M  V30 BEGIN BOND
M  V30 1 1 1 2
M  V30 2 2 2 3
M  V30 3 1 3 4
M  V30 4 2 4 5
M  V30 5 1 5 6
M  V30 6 1 6 7
M  V30 7 1 7 8
M  V30 8 1 8 9
M  V30 9 1 9 10
M  V30 10 1 10 11
M  V30 11 1 11 12
M  V30 12 2 12 13
M  V30 13 1 13 14
M  V30 14 2 14 15
M  V30 15 1 15 16
M  V30 16 1 16 17
M  V30 17 1 17 18
M  V30 18 2 17 19
M  V30 19 2 17 20
M  V30 20 1 15 21
M  V30 21 2 21 22
M  V30 22 2 9 23
M  V30 23 1 23 24
M  V30 24 1 24 25
M  V30 25 1 25 26
M  V30 26 2 26 27
M  V30 27 1 27 28
M  V30 28 2 28 29
M  V30 29 1 29 30
M  V30 30 2 30 31
M  V30 31 1 31 32
M  V30 32 1 32 33
M  V30 33 2 6 34
M  V30 34 1 34 2
M  V30 35 2 24 7
M  V30 36 2 33 25
M  V30 37 1 22 12
M  V30 38 1 32 28
M  V30 39 1 1 35
M  V30 40 1 1 36
M  V30 41 1 1 37
M  V30 42 1 3 38
M  V30 43 1 4 39
M  V30 44 1 5 40
M  V30 45 1 8 41
M  V30 46 1 10 42
M  V30 47 1 10 43
M  V30 48 1 11 44
M  V30 49 1 13 45
M  V30 50 1 14 46
M  V30 51 1 16 47
M  V30 52 1 18 48
M  V30 53 1 18 49
M  V30 54 1 18 50
M  V30 55 1 21 51
M  V30 56 1 22 52
M  V30 57 1 26 53
M  V30 58 1 27 54
M  V30 59 1 30 55
M  V30 60 1 33 56
M  V30 END BOND
M  V30 END CTAB
M  END
>  <Dataset>  (577) 
ChEMBL_Kinases

>  <Ligand_Instance>  (577) 
nan

>  <PDB_ID>  (577) 
nan

>  <Standardized_SMILES>  (577) 
Cc1cccc(-c2[nH]c(CNc3ccc(NS(C)(=O)=O)cc3)nc2-c2ccc3ncnn3c2)n1

>  <Name>  (577) 
nan

>  <Pocket>  (577) 
nan

>  <ATP_Site>  (577) 
nan

>  <Peripheral>  (577) 
nan

>  <Num_H_Atoms_ProtBoundConf>  (577) 
nan

>  <Num_Resolved_Atoms>  (577) 
nan

>  <Num_Not_Resolved_Atoms>  (577) 
nan

$$$$
CHEMBL3260611
     RDKit          3D

  0  0  0  0  0  0  0  0  0  0999 V3000
M  V30 BEGIN CTAB
M  V30 COUNTS 54 58 0 0 0
M  V30 BEGIN ATOM
M  V30 1 C 7.462677 -3.157935 3.038409 0
M  V30 2 O 6.569488 -2.124801 2.648816 0
M  V30 3 C 5.742677 -2.229758 1.531956 0
M  V30 4 O 5.893736 -3.315569 0.948338 0
M  V30 5 C 4.852843 -1.123721 1.199033 0
M  V30 6 C 4.829375 0.011400 1.980043 0
M  V30 7 C 4.018877 1.070685 1.716125 0
M  V30 8 C 3.160608 1.035145 0.610303 0
M  V30 9 N 2.313187 2.128269 0.314122 0
M  V30 10 C 1.331405 2.364694 -0.724314 0
M  V30 11 C 0.183810 1.425730 -0.626473 0
M  V30 12 N -0.808383 1.821855 0.227040 0
M  V30 13 C -1.802320 0.916238 0.238884 0
M  V30 14 C -3.072328 0.832954 0.949492 0
M  V30 15 C -2.939454 0.271880 2.219169 0
M  V30 16 C -4.057490 0.121225 3.027008 0
M  V30 17 C -5.266983 0.557665 2.487040 0
M  V30 18 N -6.489591 0.518756 3.073341 0
M  V30 19 C -7.345736 1.050177 2.166107 0
M  V30 20 N -6.670911 1.409139 1.046722 0
M  V30 21 N -5.404808 1.099609 1.264534 0
M  V30 22 C -4.309539 1.236868 0.497438 0
M  V30 23 C -1.442977 -0.091163 -0.630048 0
M  V30 24 C -2.038432 -1.344434 -1.082252 0
M  V30 25 C -3.243410 -1.201047 -1.745264 0
M  V30 26 C -3.938841 -2.304212 -2.241569 0
M  V30 27 C -3.341578 -3.534955 -2.024130 0
M  V30 28 C -2.140340 -3.679542 -1.363334 0
M  V30 29 C -1.490710 -4.996454 -1.125204 0
M  V30 30 N -1.507544 -2.567975 -0.901331 0
M  V30 31 N -0.243923 0.256587 -1.126703 0
M  V30 32 C 3.206094 -0.111844 -0.151596 0
M  V30 33 C 4.021934 -1.195876 0.101546 0
M  V30 34 H 8.448828 -2.950347 2.583860 0
M  V30 35 H 7.493948 -3.175961 4.161361 0
M  V30 36 H 7.119820 -4.167136 2.707140 0
M  V30 37 H 5.476062 0.089155 2.849462 0
M  V30 38 H 4.030747 1.951611 2.359720 0
M  V30 39 H 2.403320 2.954912 0.984527 0
M  V30 40 H 1.887546 2.150949 -1.693753 0
M  V30 41 H 1.025605 3.405931 -0.776956 0
M  V30 42 H -2.011391 -0.081231 2.676290 0
M  V30 43 H -4.031984 -0.304295 4.021297 0
M  V30 44 H -8.424146 1.201528 2.245152 0
M  V30 45 H -4.314879 1.660953 -0.500960 0
M  V30 46 H -3.746948 -0.248161 -1.936749 0
M  V30 47 H -4.892145 -2.223545 -2.768911 0
M  V30 48 H -3.814845 -4.422002 -2.375263 0
M  V30 49 H -1.942235 -5.781179 -1.769076 0
M  V30 50 H -0.420827 -4.933750 -1.481176 0
M  V30 51 H -1.433247 -5.286261 -0.072250 0
M  V30 52 H 0.383854 -0.210248 -1.814498 0
M  V30 53 H 2.592493 -0.222549 -1.012858 0
M  V30 54 H 4.029970 -2.081415 -0.520909 0
M  V30 END ATOM
M  V30 BEGIN BOND
M  V30 1 1 1 2
M  V30 2 1 2 3
M  V30 3 2 3 4
M  V30 4 1 3 5
M  V30 5 2 5 6
M  V30 6 1 6 7
M  V30 7 2 7 8
M  V30 8 1 8 9
M  V30 9 1 9 10
M  V30 10 1 10 11
M  V30 11 2 11 12
M  V30 12 1 12 13
M  V30 13 1 13 14
M  V30 14 1 14 15
M  V30 15 2 15 16
M  V30 16 1 16 17
M  V30 17 2 17 18
M  V30 18 1 18 19
M  V30 19 2 19 20
M  V30 20 1 20 21
M  V30 21 1 21 22
M  V30 22 2 13 23
M  V30 23 1 23 24
M  V30 24 2 24 25
M  V30 25 1 25 26
M  V30 26 2 26 27
M  V30 27 1 27 28
M  V30 28 1 28 29
M  V30 29 2 28 30
M  V30 30 1 23 31
M  V30 31 1 8 32
M  V30 32 2 32 33
M  V30 33 1 33 5
M  V30 34 1 31 11
M  V30 35 2 22 14
M  V30 36 1 30 24
M  V30 37 1 21 17
M  V30 38 1 1 34
M  V30 39 1 1 35
M  V30 40 1 1 36
M  V30 41 1 6 37
M  V30 42 1 7 38
M  V30 43 1 9 39
M  V30 44 1 10 40
M  V30 45 1 10 41
M  V30 46 1 15 42
M  V30 47 1 16 43
M  V30 48 1 19 44
M  V30 49 1 22 45
M  V30 50 1 25 46
M  V30 51 1 26 47
M  V30 52 1 27 48
M  V30 53 1 29 49
M  V30 54 1 29 50
M  V30 55 1 29 51
M  V30 56 1 31 52
M  V30 57 1 32 53
M  V30 58 1 33 54
M  V30 END BOND
M  V30 END CTAB
M  END
>  <Dataset>  (578) 
ChEMBL_Kinases

>  <Ligand_Instance>  (578) 
nan

>  <PDB_ID>  (578) 
nan

>  <Standardized_SMILES>  (578) 
COC(=O)c1ccc(NCc2nc(-c3ccc4ncnn4c3)c(-c3cccc(C)n3)[nH]2)cc1

>  <Name>  (578) 
nan

>  <Pocket>  (578) 
nan

>  <ATP_Site>  (578) 
nan

>  <Peripheral>  (578) 
nan

>  <Num_H_Atoms_ProtBoundConf>  (578) 
nan

>  <Num_Resolved_Atoms>  (578) 
nan

>  <Num_Not_Resolved_Atoms>  (578) 
nan

$$$$
CHEMBL3260610
     RDKit          3D

  0  0  0  0  0  0  0  0  0  0999 V3000
M  V30 BEGIN CTAB
M  V30 COUNTS 53 57 0 0 0
M  V30 BEGIN ATOM
M  V30 1 C 3.478872 -5.021279 5.876186 0
M  V30 2 C 2.977498 -4.978595 4.474572 0
M  V30 3 O 2.405256 -5.990033 4.006691 0
M  V30 4 C 3.155071 -3.777750 3.672832 0
M  V30 5 C 3.786362 -2.674496 4.202262 0
M  V30 6 C 3.962953 -1.531862 3.460430 0
M  V30 7 C 3.518577 -1.417907 2.137552 0
M  V30 8 N 3.665169 -0.299449 1.318023 0
M  V30 9 C 3.284855 0.020006 -0.004374 0
M  V30 10 C 1.841615 0.073420 -0.286957 0
M  V30 11 N 1.144203 1.228849 -0.067998 0
M  V30 12 C -0.149638 1.072457 -0.396636 0
M  V30 13 C -1.236229 2.043485 -0.320510 0
M  V30 14 C -1.151758 3.215876 -1.074989 0
M  V30 15 C -2.216002 4.118068 -0.971310 0
M  V30 16 C -3.320810 3.885738 -0.162475 0
M  V30 17 N -4.436849 4.601493 0.084382 0
M  V30 18 C -5.175058 3.885067 0.961445 0
M  V30 19 N -4.482431 2.745076 1.225641 0
M  V30 20 N -3.350061 2.751279 0.535796 0
M  V30 21 C -2.360708 1.835413 0.485706 0
M  V30 22 C -0.308234 -0.211132 -0.841021 0
M  V30 23 C -1.501455 -0.907523 -1.320207 0
M  V30 24 C -1.997351 -2.029914 -0.682858 0
M  V30 25 C -3.118960 -2.723260 -1.094136 0
M  V30 26 C -3.792022 -2.262826 -2.221053 0
M  V30 27 C -3.288229 -1.134670 -2.856381 0
M  V30 28 C -4.034526 -0.656132 -4.073424 0
M  V30 29 N -2.202615 -0.502403 -2.419308 0
M  V30 30 N 0.906527 -0.766106 -0.756890 0
M  V30 31 C 2.899149 -2.564948 1.686342 0
M  V30 32 C 2.689225 -3.742900 2.375985 0
M  V30 33 H 4.595801 -4.938922 5.801856 0
M  V30 34 H 3.166796 -4.092017 6.398999 0
M  V30 35 H 3.157059 -5.928350 6.391429 0
M  V30 36 H 4.174683 -2.640552 5.215734 0
M  V30 37 H 4.466757 -0.650930 3.882362 0
M  V30 38 H 4.188154 0.472142 1.843211 0
M  V30 39 H 3.734575 0.979447 -0.329854 0
M  V30 40 H 3.801167 -0.744988 -0.671287 0
M  V30 41 H -0.311885 3.413931 -1.702770 0
M  V30 42 H -2.144659 5.028333 -1.560638 0
M  V30 43 H -6.114472 4.310574 1.275361 0
M  V30 44 H -2.431748 0.948294 1.060930 0
M  V30 45 H -1.477298 -2.390314 0.192564 0
M  V30 46 H -3.439105 -3.590766 -0.539135 0
M  V30 47 H -4.674938 -2.779477 -2.574090 0
M  V30 48 H -3.869857 0.414497 -4.268720 0
M  V30 49 H -3.587708 -1.264869 -4.913086 0
M  V30 50 H -5.091274 -0.940920 -3.973608 0
M  V30 51 H 1.134791 -1.734613 -1.023093 0
M  V30 52 H 2.524076 -2.579765 0.672804 0
M  V30 53 H 2.192754 -4.587763 1.935318 0
M  V30 END ATOM
M  V30 BEGIN BOND
M  V30 1 1 1 2
M  V30 2 2 2 3
M  V30 3 1 2 4
M  V30 4 2 4 5
M  V30 5 1 5 6
M  V30 6 2 6 7
M  V30 7 1 7 8
M  V30 8 1 8 9
M  V30 9 1 9 10
M  V30 10 2 10 11
M  V30 11 1 11 12
M  V30 12 1 12 13
M  V30 13 1 13 14
M  V30 14 2 14 15
M  V30 15 1 15 16
M  V30 16 2 16 17
M  V30 17 1 17 18
M  V30 18 2 18 19
M  V30 19 1 19 20
M  V30 20 1 20 21
M  V30 21 2 12 22
M  V30 22 1 22 23
M  V30 23 2 23 24
M  V30 24 1 24 25
M  V30 25 2 25 26
M  V30 26 1 26 27
M  V30 27 1 27 28
M  V30 28 2 27 29
M  V30 29 1 22 30
M  V30 30 1 7 31
M  V30 31 2 31 32
M  V30 32 1 32 4
M  V30 33 1 30 10
M  V30 34 2 21 13
M  V30 35 1 29 23
M  V30 36 1 20 16
M  V30 37 1 1 33
M  V30 38 1 1 34
M  V30 39 1 1 35
M  V30 40 1 5 36
M  V30 41 1 6 37
M  V30 42 1 8 38
M  V30 43 1 9 39
M  V30 44 1 9 40
M  V30 45 1 14 41
M  V30 46 1 15 42
M  V30 47 1 18 43
M  V30 48 1 21 44
M  V30 49 1 24 45
M  V30 50 1 25 46
M  V30 51 1 26 47
M  V30 52 1 28 48
M  V30 53 1 28 49
M  V30 54 1 28 50
M  V30 55 1 30 51
M  V30 56 1 31 52
M  V30 57 1 32 53
M  V30 END BOND
M  V30 END CTAB
M  END
>  <Dataset>  (579) 
ChEMBL_Kinases

>  <Ligand_Instance>  (579) 
nan

>  <PDB_ID>  (579) 
nan

>  <Standardized_SMILES>  (579) 
CC(=O)c1ccc(NCc2nc(-c3ccc4ncnn4c3)c(-c3cccc(C)n3)[nH]2)cc1

>  <Name>  (579) 
nan

>  <Pocket>  (579) 
nan

>  <ATP_Site>  (579) 
nan

>  <Peripheral>  (579) 
nan

>  <Num_H_Atoms_ProtBoundConf>  (579) 
nan

>  <Num_Resolved_Atoms>  (579) 
nan

>  <Num_Not_Resolved_Atoms>  (579) 
nan

$$$$
CHEMBL3260609
     RDKit          3D

  0  0  0  0  0  0  0  0  0  0999 V3000
M  V30 BEGIN CTAB
M  V30 COUNTS 52 56 0 0 0
M  V30 BEGIN ATOM
M  V30 1 C 4.867865 -3.023211 -1.368105 0
M  V30 2 C 4.362348 -2.502026 -0.059536 0
M  V30 3 C 4.962089 -2.976800 1.111280 0
M  V30 4 C 4.538324 -2.532754 2.349474 0
M  V30 5 C 3.500935 -1.604334 2.363514 0
M  V30 6 C 2.907084 -1.133966 1.209851 0
M  V30 7 C 1.821905 -0.165176 1.222723 0
M  V30 8 N 1.660928 1.085770 0.766957 0
M  V30 9 C 0.416845 1.584532 1.033767 0
M  V30 10 C 0.108185 2.981746 0.579543 0
M  V30 11 N -0.401641 3.011022 -0.752413 0
M  V30 12 C -1.625094 2.479869 -1.237574 0
M  V30 13 C -2.564578 1.853277 -0.463991 0
M  V30 14 C -3.751928 1.323867 -0.922053 0
M  V30 15 C -4.045523 1.418176 -2.265255 0
M  V30 16 C -5.324628 0.848976 -2.763816 0
M  V30 17 C -5.076204 -0.539457 -3.131124 0
M  V30 18 N -4.868429 -1.644631 -3.418365 0
M  V30 19 C -3.131089 2.040921 -3.085996 0
M  V30 20 C -1.961025 2.550882 -2.571259 0
M  V30 21 N -0.176113 0.578100 1.675120 0
M  V30 22 C 0.621107 -0.488488 1.812835 0
M  V30 23 C 0.079602 -1.654970 2.501032 0
M  V30 24 C 0.000571 -2.808945 1.717261 0
M  V30 25 C -0.507687 -3.931202 2.337467 0
M  V30 26 C -0.917893 -3.934853 3.648731 0
M  V30 27 N -1.430302 -4.896874 4.426693 0
M  V30 28 C -1.653351 -4.338645 5.643413 0
M  V30 29 N -1.268597 -3.057330 5.561554 0
M  V30 30 N -0.811895 -2.772529 4.353601 0
M  V30 31 C -0.327874 -1.627812 3.831212 0
M  V30 32 N 3.366202 -1.606698 0.026508 0
M  V30 33 H 4.789908 -4.125156 -1.388188 0
M  V30 34 H 4.179076 -2.629575 -2.145973 0
M  V30 35 H 5.900485 -2.669944 -1.564745 0
M  V30 36 H 5.778768 -3.709902 1.059987 0
M  V30 37 H 4.980440 -2.879840 3.268461 0
M  V30 38 H 3.108644 -1.204666 3.288809 0
M  V30 39 H 2.489624 1.528617 0.268960 0
M  V30 40 H -0.625072 3.369511 1.329723 0
M  V30 41 H 1.015588 3.604193 0.643785 0
M  V30 42 H 0.199715 3.488593 -1.493240 0
M  V30 43 H -2.413418 1.747309 0.587401 0
M  V30 44 H -4.468994 0.835746 -0.280209 0
M  V30 45 H -6.066877 0.954689 -1.922153 0
M  V30 46 H -5.646769 1.458207 -3.644101 0
M  V30 47 H -3.355639 2.118785 -4.142634 0
M  V30 48 H -1.290465 3.027476 -3.281981 0
M  V30 49 H 0.312141 -2.837196 0.693262 0
M  V30 50 H -0.582654 -4.837382 1.763040 0
M  V30 51 H -2.063949 -4.939892 6.418897 0
M  V30 52 H -0.246347 -0.712554 4.391540 0
M  V30 END ATOM
M  V30 BEGIN BOND
M  V30 1 1 1 2
M  V30 2 2 2 3
M  V30 3 1 3 4
M  V30 4 2 4 5
M  V30 5 1 5 6
M  V30 6 1 6 7
M  V30 7 1 7 8
M  V30 8 1 8 9
M  V30 9 1 9 10
M  V30 10 1 10 11
M  V30 11 1 11 12
M  V30 12 2 12 13
M  V30 13 1 13 14
M  V30 14 2 14 15
M  V30 15 1 15 16
M  V30 16 1 16 17
M  V30 17 3 17 18
M  V30 18 1 15 19
M  V30 19 2 19 20
M  V30 20 2 9 21
M  V30 21 1 21 22
M  V30 22 1 22 23
M  V30 23 1 23 24
M  V30 24 2 24 25
M  V30 25 1 25 26
M  V30 26 2 26 27
M  V30 27 1 27 28
M  V30 28 2 28 29
M  V30 29 1 29 30
M  V30 30 1 30 31
M  V30 31 2 6 32
M  V30 32 1 32 2
M  V30 33 2 22 7
M  V30 34 2 31 23
M  V30 35 1 20 12
M  V30 36 1 30 26
M  V30 37 1 1 33
M  V30 38 1 1 34
M  V30 39 1 1 35
M  V30 40 1 3 36
M  V30 41 1 4 37
M  V30 42 1 5 38
M  V30 43 1 8 39
M  V30 44 1 10 40
M  V30 45 1 10 41
M  V30 46 1 11 42
M  V30 47 1 13 43
M  V30 48 1 14 44
M  V30 49 1 16 45
M  V30 50 1 16 46
M  V30 51 1 19 47
M  V30 52 1 20 48
M  V30 53 1 24 49
M  V30 54 1 25 50
M  V30 55 1 28 51
M  V30 56 1 31 52
M  V30 END BOND
M  V30 END CTAB
M  END
>  <Dataset>  (580) 
ChEMBL_Kinases

>  <Ligand_Instance>  (580) 
nan

>  <PDB_ID>  (580) 
nan

>  <Standardized_SMILES>  (580) 
Cc1cccc(-c2[nH]c(CNc3ccc(CC#N)cc3)nc2-c2ccc3ncnn3c2)n1

>  <Name>  (580) 
nan

>  <Pocket>  (580) 
nan

>  <ATP_Site>  (580) 
nan

>  <Peripheral>  (580) 
nan

>  <Num_H_Atoms_ProtBoundConf>  (580) 
nan

>  <Num_Resolved_Atoms>  (580) 
nan

>  <Num_Not_Resolved_Atoms>  (580) 
nan

$$$$
CHEMBL3260249
     RDKit          3D

  0  0  0  0  0  0  0  0  0  0999 V3000
M  V30 BEGIN CTAB
M  V30 COUNTS 40 42 0 0 0
M  V30 BEGIN ATOM
M  V30 1 O -1.500895 0.337146 -1.882462 0
M  V30 2 C -1.056383 -0.780109 -1.515719 0
M  V30 3 C -0.696450 -1.827408 -2.464619 0
M  V30 4 C -0.226617 -3.022311 -2.192968 0
M  V30 5 C 0.126629 -4.053973 -3.158876 0
M  V30 6 C 0.612999 -5.274517 -2.737651 0
M  V30 7 C 0.959116 -6.276935 -3.606868 0
M  V30 8 C 0.837163 -6.114228 -4.965230 0
M  V30 9 C 0.349931 -4.894288 -5.413761 0
M  V30 10 C 0.007358 -3.897392 -4.512290 0
M  V30 11 N -0.911131 -1.002081 -0.141391 0
M  V30 12 N -1.153098 -0.240094 1.004358 0
M  V30 13 C -0.069574 0.556010 1.465919 0
M  V30 14 O 0.964464 0.430236 0.729580 0
M  V30 15 C -0.137916 1.407789 2.635746 0
M  V30 16 C -1.233409 1.565328 3.448096 0
M  V30 17 C -1.181413 2.408449 4.541157 0
M  V30 18 C -0.037562 3.106480 4.840395 0
M  V30 19 C 1.084134 2.967603 4.038497 0
M  V30 20 C 1.014404 2.121528 2.951398 0
M  V30 21 O 2.207363 3.677545 4.365026 0
M  V30 22 C 2.526527 4.149723 5.662049 0
M  V30 23 C 1.334165 4.221832 6.574684 0
M  V30 24 O 0.117343 3.983814 5.922431 0
M  V30 25 H -0.831479 -1.594281 -3.514786 0
M  V30 26 H -0.098091 -3.237817 -1.138177 0
M  V30 27 H 0.723919 -5.441996 -1.673491 0
M  V30 28 H 1.337510 -7.216487 -3.195456 0
M  V30 29 H 1.108340 -6.900162 -5.655152 0
M  V30 30 H 0.248164 -4.751081 -6.487634 0
M  V30 31 H -0.365042 -2.973178 -4.928995 0
M  V30 32 H -0.556626 -1.875826 0.297242 0
M  V30 33 H -2.068227 -0.217890 1.538140 0
M  V30 34 H -2.115582 1.012033 3.197515 0
M  V30 35 H -2.023306 2.546118 5.186618 0
M  V30 36 H 1.919523 2.041650 2.347211 0
M  V30 37 H 3.213658 3.362099 6.089120 0
M  V30 38 H 3.086793 5.111846 5.608107 0
M  V30 39 H 1.411223 3.495035 7.433766 0
M  V30 40 H 1.275553 5.241345 7.014302 0
M  V30 END ATOM
M  V30 BEGIN BOND
M  V30 1 2 1 2
M  V30 2 1 2 3
M  V30 3 2 3 4
M  V30 4 1 4 5
M  V30 5 2 5 6
M  V30 6 1 6 7
M  V30 7 2 7 8
M  V30 8 1 8 9
M  V30 9 2 9 10
M  V30 10 1 2 11
M  V30 11 1 11 12
M  V30 12 1 12 13
M  V30 13 2 13 14
M  V30 14 1 13 15
M  V30 15 2 15 16
M  V30 16 1 16 17
M  V30 17 2 17 18
M  V30 18 1 18 19
M  V30 19 2 19 20
M  V30 20 1 19 21
M  V30 21 1 21 22
M  V30 22 1 22 23
M  V30 23 1 23 24
M  V30 24 1 10 5
M  V30 25 1 20 15
M  V30 26 1 24 18
M  V30 27 1 3 25
M  V30 28 1 4 26
M  V30 29 1 6 27
M  V30 30 1 7 28
M  V30 31 1 8 29
M  V30 32 1 9 30
M  V30 33 1 10 31
M  V30 34 1 11 32
M  V30 35 1 12 33
M  V30 36 1 16 34
M  V30 37 1 17 35
M  V30 38 1 20 36
M  V30 39 1 22 37
M  V30 40 1 22 38
M  V30 41 1 23 39
M  V30 42 1 23 40
M  V30 END BOND
M  V30 END CTAB
M  END
>  <Dataset>  (581) 
ChEMBL_Kinases

>  <Ligand_Instance>  (581) 
nan

>  <PDB_ID>  (581) 
nan

>  <Standardized_SMILES>  (581) 
O=C(/C=C/c1ccccc1)NNC(=O)c1ccc2c(c1)OCCO2

>  <Name>  (581) 
nan

>  <Pocket>  (581) 
nan

>  <ATP_Site>  (581) 
nan

>  <Peripheral>  (581) 
nan

>  <Num_H_Atoms_ProtBoundConf>  (581) 
nan

>  <Num_Resolved_Atoms>  (581) 
nan

>  <Num_Not_Resolved_Atoms>  (581) 
nan

$$$$
CHEMBL3260250
     RDKit          3D

  0  0  0  0  0  0  0  0  0  0999 V3000
M  V30 BEGIN CTAB
M  V30 COUNTS 40 41 0 0 0
M  V30 BEGIN ATOM
M  V30 1 C -2.344125 0.177189 1.848181 0
M  V30 2 C -3.715764 -0.253523 2.225657 0
M  V30 3 C -4.497127 0.493734 3.079606 0
M  V30 4 C -5.752313 -0.003165 3.358881 0
M  V30 5 C -6.312475 -1.167969 2.876494 0
M  V30 6 C -5.526602 -1.912927 2.021872 0
M  V30 7 C -4.271533 -1.413645 1.744188 0
M  V30 8 C -3.514390 -2.257900 0.839383 0
M  V30 9 O -2.341659 -1.987702 0.453566 0
M  V30 10 O -2.645977 -2.907321 0.006879 0
M  V30 11 N -1.377593 -2.490183 -0.330010 0
M  V30 12 C -1.037874 -2.137322 -1.513976 0
M  V30 13 C 0.312465 -1.695903 -1.860533 0
M  V30 14 C 1.219750 -1.663146 -0.896618 0
M  V30 15 C 2.584118 -1.216376 -1.250253 0
M  V30 16 O 3.478947 -1.169905 -0.363814 0
M  V30 17 C 2.889071 -0.826655 -2.644160 0
M  V30 18 C 4.258980 -0.392549 -2.933624 0
M  V30 19 C 4.656064 0.843867 -2.150493 0
M  V30 20 C 4.333498 -0.046066 -4.414201 0
M  V30 21 C 1.930305 -0.884910 -3.555539 0
M  V30 22 C 0.573991 -1.319737 -3.246200 0
M  V30 23 O -0.299173 -1.356712 -4.149148 0
M  V30 24 H -2.284198 0.345294 0.742629 0
M  V30 25 H -2.113952 1.103420 2.413453 0
M  V30 26 H -1.578381 -0.566589 2.180552 0
M  V30 27 H -4.146092 1.421032 3.508928 0
M  V30 28 H -6.359500 0.585414 4.027556 0
M  V30 29 H -7.312116 -1.462832 3.163841 0
M  V30 30 H -5.930567 -2.816325 1.633191 0
M  V30 31 H -1.832184 -2.190518 -2.246553 0
M  V30 32 H 0.998033 -1.946816 0.118281 0
M  V30 33 H 4.955761 -1.241478 -2.777307 0
M  V30 34 H 4.885500 1.702682 -2.829394 0
M  V30 35 H 5.577693 0.668203 -1.573843 0
M  V30 36 H 3.864463 1.193553 -1.486044 0
M  V30 37 H 3.629207 0.796263 -4.588608 0
M  V30 38 H 5.370874 0.344085 -4.577550 0
M  V30 39 H 4.105116 -0.922350 -5.023220 0
M  V30 40 H 2.137695 -0.604315 -4.574065 0
M  V30 END ATOM
M  V30 BEGIN BOND
M  V30 1 1 1 2
M  V30 2 2 2 3
M  V30 3 1 3 4
M  V30 4 2 4 5
M  V30 5 1 5 6
M  V30 6 2 6 7
M  V30 7 1 7 8
M  V30 8 2 8 9
M  V30 9 1 8 10
M  V30 10 1 10 11
M  V30 11 2 11 12
M  V30 12 1 12 13
M  V30 13 2 13 14
M  V30 14 1 14 15
M  V30 15 2 15 16
M  V30 16 1 15 17
M  V30 17 1 17 18
M  V30 18 1 18 19
M  V30 19 1 18 20
M  V30 20 2 17 21
M  V30 21 1 21 22
M  V30 22 2 22 23
M  V30 23 1 7 2
M  V30 24 1 22 13
M  V30 25 1 1 24
M  V30 26 1 1 25
M  V30 27 1 1 26
M  V30 28 1 3 27
M  V30 29 1 4 28
M  V30 30 1 5 29
M  V30 31 1 6 30
M  V30 32 1 12 31
M  V30 33 1 14 32
M  V30 34 1 18 33
M  V30 35 1 19 34
M  V30 36 1 19 35
M  V30 37 1 19 36
M  V30 38 1 20 37
M  V30 39 1 20 38
M  V30 40 1 20 39
M  V30 41 1 21 40
M  V30 END BOND
M  V30 END CTAB
M  END
>  <Dataset>  (582) 
ChEMBL_Kinases

>  <Ligand_Instance>  (582) 
nan

>  <PDB_ID>  (582) 
nan

>  <Standardized_SMILES>  (582) 
Cc1ccccc1C(=O)O/N=C/C1=CC(=O)C(C(C)C)=CC1=O

>  <Name>  (582) 
nan

>  <Pocket>  (582) 
nan

>  <ATP_Site>  (582) 
nan

>  <Peripheral>  (582) 
nan

>  <Num_H_Atoms_ProtBoundConf>  (582) 
nan

>  <Num_Resolved_Atoms>  (582) 
nan

>  <Num_Not_Resolved_Atoms>  (582) 
nan

$$$$
CHEMBL3260324
     RDKit          3D

  0  0  0  0  0  0  0  0  0  0999 V3000
M  V30 BEGIN CTAB
M  V30 COUNTS 59 63 0 0 0
M  V30 BEGIN ATOM
M  V30 1 C 5.442276 -1.517872 5.995016 0
M  V30 2 C 4.966461 -2.683270 5.157522 0
M  V30 3 O 5.120956 -2.415509 3.785870 0
M  V30 4 C 4.531596 -1.376280 3.095285 0
M  V30 5 C 4.874432 -1.376221 1.757683 0
M  V30 6 C 4.393751 -0.420305 0.881144 0
M  V30 7 F 4.731953 -0.415049 -0.439442 0
M  V30 8 C 3.547057 0.576057 1.314877 0
M  V30 9 C 2.962290 1.657907 0.454762 0
M  V30 10 N 1.867360 1.174567 -0.363836 0
M  V30 11 N 0.618940 1.190207 0.077295 0
M  V30 12 C -0.237894 0.695910 -0.834103 0
M  V30 13 C -1.688784 0.595392 -0.605674 0
M  V30 14 N -2.294322 1.453232 0.246246 0
M  V30 15 C -3.638762 1.335476 0.439548 0
M  V30 16 C -4.384440 0.372561 -0.206915 0
M  V30 17 O -5.753149 0.215648 -0.041218 0
M  V30 18 C -6.470811 1.067412 0.829906 0
M  V30 19 C -3.733451 -0.497990 -1.079515 0
M  V30 20 N -4.506331 -1.502609 -1.751571 0
M  V30 21 C -4.593181 -2.767587 -1.093280 0
M  V30 22 C -3.921307 -2.957140 0.089636 0
M  V30 23 C -3.936274 -4.152772 0.816097 0
M  V30 24 N -4.661878 -5.165102 0.302047 0
M  V30 25 C -5.338220 -5.028667 -0.854621 0
M  V30 26 C -5.307926 -3.836145 -1.554698 0
M  V30 27 N -2.394881 -0.353394 -1.249072 0
M  V30 28 C 0.516726 0.349201 -1.911086 0
M  V30 29 C 1.824108 0.654447 -1.600298 0
M  V30 30 C 2.661234 0.289335 -2.755133 0
M  V30 31 C 1.690527 0.287847 -3.915168 0
M  V30 32 C 0.425249 -0.230858 -3.272879 0
M  V30 33 C 3.194898 0.582798 2.669554 0
M  V30 34 F 2.368324 1.501182 3.249064 0
M  V30 35 C 3.684622 -0.375889 3.519111 0
M  V30 36 H 5.821054 -0.684343 5.341426 0
M  V30 37 H 6.284349 -1.846108 6.667064 0
M  V30 38 H 4.624699 -1.089507 6.602551 0
M  V30 39 H 5.592052 -3.573115 5.399785 0
M  V30 40 H 3.914822 -2.966957 5.394172 0
M  V30 41 H 5.537114 -2.107405 1.277311 0
M  V30 42 H 2.652668 2.497237 1.093395 0
M  V30 43 H 3.765027 2.037399 -0.245711 0
M  V30 44 H -4.143047 2.023403 1.126261 0
M  V30 45 H -7.432537 0.549215 1.064765 0
M  V30 46 H -5.940596 1.149233 1.801972 0
M  V30 47 H -6.625764 2.059061 0.354088 0
M  V30 48 H -5.030178 -1.447450 -2.675230 0
M  V30 49 H -3.311611 -2.183789 0.569172 0
M  V30 50 H -3.421424 -4.317437 1.734332 0
M  V30 51 H -5.909693 -5.871047 -1.230829 0
M  V30 52 H -5.853562 -3.737600 -2.478928 0
M  V30 53 H 3.085804 -0.734743 -2.597031 0
M  V30 54 H 3.480153 1.025838 -2.942956 0
M  V30 55 H 1.507412 1.336220 -4.225069 0
M  V30 56 H 2.028711 -0.352451 -4.752301 0
M  V30 57 H 0.501024 -1.344547 -3.206480 0
M  V30 58 H -0.483461 0.088773 -3.809335 0
M  V30 59 H 3.464705 -0.451337 4.594970 0
M  V30 END ATOM
M  V30 BEGIN BOND
M  V30 1 1 1 2
M  V30 2 1 2 3
M  V30 3 1 3 4
M  V30 4 2 4 5
M  V30 5 1 5 6
M  V30 6 1 6 7
M  V30 7 2 6 8
M  V30 8 1 8 9
M  V30 9 1 9 10
M  V30 10 1 10 11
M  V30 11 2 11 12
M  V30 12 1 12 13
M  V30 13 2 13 14
M  V30 14 1 14 15
M  V30 15 2 15 16
M  V30 16 1 16 17
M  V30 17 1 17 18
M  V30 18 1 16 19
M  V30 19 1 19 20
M  V30 20 1 20 21
M  V30 21 2 21 22
M  V30 22 1 22 23
M  V30 23 2 23 24
M  V30 24 1 24 25
M  V30 25 2 25 26
M  V30 26 2 19 27
M  V30 27 1 12 28
M  V30 28 2 28 29
M  V30 29 1 29 30
M  V30 30 1 30 31
M  V30 31 1 31 32
M  V30 32 1 8 33
M  V30 33 1 33 34
M  V30 34 2 33 35
M  V30 35 1 35 4
M  V30 36 1 29 10
M  V30 37 1 27 13
M  V30 38 1 32 28
M  V30 39 1 26 21
M  V30 40 1 1 36
M  V30 41 1 1 37
M  V30 42 1 1 38
M  V30 43 1 2 39
M  V30 44 1 2 40
M  V30 45 1 5 41
M  V30 46 1 9 42
M  V30 47 1 9 43
M  V30 48 1 15 44
M  V30 49 1 18 45
M  V30 50 1 18 46
M  V30 51 1 18 47
M  V30 52 1 20 48
M  V30 53 1 22 49
M  V30 54 1 23 50
M  V30 55 1 25 51
M  V30 56 1 26 52
M  V30 57 1 30 53
M  V30 58 1 30 54
M  V30 59 1 31 55
M  V30 60 1 31 56
M  V30 61 1 32 57
M  V30 62 1 32 58
M  V30 63 1 35 59
M  V30 END BOND
M  V30 END CTAB
M  END
>  <Dataset>  (583) 
ChEMBL_Kinases

>  <Ligand_Instance>  (583) 
nan

>  <PDB_ID>  (583) 
nan

>  <Standardized_SMILES>  (583) 
CCOc1cc(F)c(Cn2nc(-c3ncc(OC)c(Nc4ccncc4)n3)c3c2CCC3)c(F)c1

>  <Name>  (583) 
nan

>  <Pocket>  (583) 
nan

>  <ATP_Site>  (583) 
nan

>  <Peripheral>  (583) 
nan

>  <Num_H_Atoms_ProtBoundConf>  (583) 
nan

>  <Num_Resolved_Atoms>  (583) 
nan

>  <Num_Not_Resolved_Atoms>  (583) 
nan

$$$$
CHEMBL3260325
     RDKit          3D

  0  0  0  0  0  0  0  0  0  0999 V3000
M  V30 BEGIN CTAB
M  V30 COUNTS 70 74 0 0 0
M  V30 BEGIN ATOM
M  V30 1 C 5.106948 -0.870215 6.663167 0
M  V30 2 C 4.147855 -1.802978 6.009017 0
M  V30 3 O 2.921631 -1.223786 5.622143 0
M  V30 4 C 2.768721 -0.185941 4.735097 0
M  V30 5 C 3.687501 0.540520 4.019120 0
M  V30 6 C 3.338288 1.557267 3.164823 0
M  V30 7 F 4.274206 2.231833 2.505578 0
M  V30 8 C 2.032451 1.927288 2.960011 0
M  V30 9 C 1.503686 2.980373 2.057832 0
M  V30 10 N 1.483922 2.499369 0.685488 0
M  V30 11 N 0.440403 1.773182 0.251286 0
M  V30 12 C 0.611951 1.396810 -1.025364 0
M  V30 13 C -0.406359 0.587812 -1.685574 0
M  V30 14 N -1.456736 1.057337 -2.407559 0
M  V30 15 C -2.344978 0.222461 -2.972317 0
M  V30 16 C -2.241509 -1.142393 -2.851909 0
M  V30 17 O -2.954620 -2.219451 -3.293134 0
M  V30 18 C -4.097917 -2.300191 -4.053122 0
M  V30 19 C -5.342980 -1.700855 -3.522830 0
M  V30 20 N -5.870338 -2.165330 -2.315197 0
M  V30 21 C -7.070689 -1.563666 -1.833855 0
M  V30 22 C -5.129565 -2.943372 -1.425450 0
M  V30 23 C -1.154624 -1.627776 -2.105176 0
M  V30 24 N -0.822074 -3.004685 -1.819042 0
M  V30 25 C -1.240345 -3.538966 -0.558253 0
M  V30 26 C -1.006777 -4.848862 -0.134467 0
M  V30 27 C -1.455483 -5.239900 1.113121 0
M  V30 28 N -2.109584 -4.405352 1.935735 0
M  V30 29 C -2.378848 -3.124296 1.609544 0
M  V30 30 C -1.919553 -2.760268 0.359644 0
M  V30 31 N -0.274976 -0.765623 -1.546733 0
M  V30 32 C 1.826571 1.917611 -1.404707 0
M  V30 33 C 2.354624 2.599958 -0.329406 0
M  V30 34 C 3.649589 3.155085 -0.777025 0
M  V30 35 C 4.090345 2.263448 -1.947221 0
M  V30 36 C 2.729033 1.974429 -2.578124 0
M  V30 37 C 1.083934 1.191722 3.687725 0
M  V30 38 F -0.249441 1.500801 3.540470 0
M  V30 39 C 1.427301 0.153620 4.561571 0
M  V30 40 H 4.687348 0.145647 6.891289 0
M  V30 41 H 5.389476 -1.287317 7.655367 0
M  V30 42 H 6.074589 -0.780522 6.106594 0
M  V30 43 H 4.674273 -2.263598 5.144392 0
M  V30 44 H 3.901233 -2.634965 6.685058 0
M  V30 45 H 4.705623 0.230426 4.197360 0
M  V30 46 H 0.469779 3.214965 2.361944 0
M  V30 47 H 2.155356 3.892145 2.091233 0
M  V30 48 H -3.191375 0.522088 -3.559017 0
M  V30 49 H -4.232323 -3.344321 -4.429155 0
M  V30 50 H -3.871030 -1.733507 -5.012912 0
M  V30 51 H -6.140575 -1.859532 -4.320122 0
M  V30 52 H -5.239352 -0.589004 -3.516648 0
M  V30 53 H -7.855534 -2.303994 -1.596662 0
M  V30 54 H -7.511826 -0.856266 -2.567036 0
M  V30 55 H -6.874042 -0.974520 -0.914109 0
M  V30 56 H -5.854680 -3.553282 -0.803414 0
M  V30 57 H -4.430430 -3.662926 -1.827945 0
M  V30 58 H -4.579323 -2.319302 -0.670538 0
M  V30 59 H -0.300979 -3.691795 -2.424301 0
M  V30 60 H -0.472270 -5.483932 -0.839883 0
M  V30 61 H -1.253987 -6.263575 1.402935 0
M  V30 62 H -2.898822 -2.401358 2.221998 0
M  V30 63 H -2.117482 -1.730149 0.054698 0
M  V30 64 H 3.552364 4.212669 -1.120899 0
M  V30 65 H 4.416874 3.075528 0.011580 0
M  V30 66 H 4.749340 2.857296 -2.581068 0
M  V30 67 H 4.531231 1.332900 -1.580086 0
M  V30 68 H 2.734472 1.020723 -3.157250 0
M  V30 69 H 2.525524 2.840253 -3.250882 0
M  V30 70 H 0.586756 -0.342120 5.071076 0
M  V30 END ATOM
M  V30 BEGIN BOND
M  V30 1 1 1 2
M  V30 2 1 2 3
M  V30 3 1 3 4
M  V30 4 2 4 5
M  V30 5 1 5 6
M  V30 6 1 6 7
M  V30 7 2 6 8
M  V30 8 1 8 9
M  V30 9 1 9 10
M  V30 10 1 10 11
M  V30 11 2 11 12
M  V30 12 1 12 13
M  V30 13 2 13 14
M  V30 14 1 14 15
M  V30 15 2 15 16
M  V30 16 1 16 17
M  V30 17 1 17 18
M  V30 18 1 18 19
M  V30 19 1 19 20
M  V30 20 1 20 21
M  V30 21 1 20 22
M  V30 22 1 16 23
M  V30 23 1 23 24
M  V30 24 1 24 25
M  V30 25 2 25 26
M  V30 26 1 26 27
M  V30 27 2 27 28
M  V30 28 1 28 29
M  V30 29 2 29 30
M  V30 30 2 23 31
M  V30 31 1 12 32
M  V30 32 2 32 33
M  V30 33 1 33 34
M  V30 34 1 34 35
M  V30 35 1 35 36
M  V30 36 1 8 37
M  V30 37 1 37 38
M  V30 38 2 37 39
M  V30 39 1 39 4
M  V30 40 1 33 10
M  V30 41 1 31 13
M  V30 42 1 36 32
M  V30 43 1 30 25
M  V30 44 1 1 40
M  V30 45 1 1 41
M  V30 46 1 1 42
M  V30 47 1 2 43
M  V30 48 1 2 44
M  V30 49 1 5 45
M  V30 50 1 9 46
M  V30 51 1 9 47
M  V30 52 1 15 48
M  V30 53 1 18 49
M  V30 54 1 18 50
M  V30 55 1 19 51
M  V30 56 1 19 52
M  V30 57 1 21 53
M  V30 58 1 21 54
M  V30 59 1 21 55
M  V30 60 1 22 56
M  V30 61 1 22 57
M  V30 62 1 22 58
M  V30 63 1 24 59
M  V30 64 1 26 60
M  V30 65 1 27 61
M  V30 66 1 29 62
M  V30 67 1 30 63
M  V30 68 1 34 64
M  V30 69 1 34 65
M  V30 70 1 35 66
M  V30 71 1 35 67
M  V30 72 1 36 68
M  V30 73 1 36 69
M  V30 74 1 39 70
M  V30 END BOND
M  V30 END CTAB
M  END
>  <Dataset>  (584) 
ChEMBL_Kinases

>  <Ligand_Instance>  (584) 
nan

>  <PDB_ID>  (584) 
nan

>  <Standardized_SMILES>  (584) 
CCOc1cc(F)c(Cn2nc(-c3ncc(OCCN(C)C)c(Nc4ccncc4)n3)c3c2CCC3)c(F)c1

>  <Name>  (584) 
nan

>  <Pocket>  (584) 
nan

>  <ATP_Site>  (584) 
nan

>  <Peripheral>  (584) 
nan

>  <Num_H_Atoms_ProtBoundConf>  (584) 
nan

>  <Num_Resolved_Atoms>  (584) 
nan

>  <Num_Not_Resolved_Atoms>  (584) 
nan

$$$$
CHEMBL3260326
     RDKit          3D

  0  0  0  0  0  0  0  0  0  0999 V3000
M  V30 BEGIN CTAB
M  V30 COUNTS 71 76 0 0 0
M  V30 BEGIN ATOM
M  V30 1 C 4.409475 -2.834871 6.093871 0
M  V30 2 C 5.329329 -3.701760 5.263425 0
M  V30 3 O 5.035290 -3.757537 3.916080 0
M  V30 4 C 4.989309 -2.808526 2.959835 0
M  V30 5 C 5.225288 -1.452769 2.950879 0
M  V30 6 C 5.104484 -0.695975 1.818009 0
M  V30 7 F 5.349616 0.623529 1.884114 0
M  V30 8 C 4.741481 -1.219934 0.608872 0
M  V30 9 C 4.579622 -0.506752 -0.676783 0
M  V30 10 N 3.365810 0.315625 -0.716716 0
M  V30 11 N 2.156690 -0.207129 -0.979812 0
M  V30 12 C 1.201041 0.765494 -0.899226 0
M  V30 13 C -0.192118 0.395587 -1.131008 0
M  V30 14 N -0.614528 -0.296361 -0.048214 0
M  V30 15 C -1.819741 -0.814356 0.126164 0
M  V30 16 C -2.769924 -0.662496 -0.858159 0
M  V30 17 O -4.026552 -1.050744 -0.976646 0
M  V30 18 C -5.011209 -1.711412 -0.358960 0
M  V30 19 C -4.930828 -3.131572 0.008820 0
M  V30 20 C -3.886015 -3.636984 0.937306 0
M  V30 21 O -3.951102 -3.044664 2.198743 0
M  V30 22 C -5.304877 -4.172077 -1.019742 0
M  V30 23 O -6.676733 -3.905068 -0.833077 0
M  V30 24 C -6.338485 -3.574635 0.479424 0
M  V30 25 C -2.341946 0.055737 -1.990870 0
M  V30 26 N -3.187602 0.298426 -3.120883 0
M  V30 27 C -4.190731 1.329856 -3.124383 0
M  V30 28 C -4.995711 1.595582 -4.218760 0
M  V30 29 C -5.970420 2.592265 -4.194723 0
M  V30 30 N -6.146517 3.325112 -3.086120 0
M  V30 31 C -5.376607 3.081806 -2.018918 0
M  V30 32 C -4.382255 2.098318 -1.976363 0
M  V30 33 N -1.083730 0.568883 -2.116740 0
M  V30 34 C 1.868057 1.922714 -0.574864 0
M  V30 35 C 3.209149 1.626617 -0.465408 0
M  V30 36 C 3.926337 2.885904 -0.131770 0
M  V30 37 C 2.842247 3.659567 0.613414 0
M  V30 38 C 1.641632 3.359925 -0.302111 0
M  V30 39 C 4.489970 -2.594016 0.565484 0
M  V30 40 F 4.118879 -3.188243 -0.621013 0
M  V30 41 C 4.615412 -3.362103 1.725607 0
M  V30 42 H 4.923276 -2.391267 6.971431 0
M  V30 43 H 3.612827 -3.493098 6.562252 0
M  V30 44 H 3.854756 -2.112076 5.492238 0
M  V30 45 H 5.324884 -4.753310 5.676898 0
M  V30 46 H 6.367445 -3.326535 5.437921 0
M  V30 47 H 5.507603 -1.087493 3.921763 0
M  V30 48 H 4.504307 -1.214513 -1.519638 0
M  V30 49 H 5.466623 0.144512 -0.852093 0
M  V30 50 H -2.171681 -1.363631 0.985644 0
M  V30 51 H -5.258509 -1.154969 0.614567 0
M  V30 52 H -5.979742 -1.579500 -0.927638 0
M  V30 53 H -4.086416 -4.717223 1.104335 0
M  V30 54 H -2.858426 -3.609544 0.521868 0
M  V30 55 H -4.847275 -2.662156 2.380647 0
M  V30 56 H -4.970780 -4.032702 -2.039008 0
M  V30 57 H -5.119768 -5.196150 -0.625427 0
M  V30 58 H -6.326179 -4.448913 1.156420 0
M  V30 59 H -6.925906 -2.752105 0.931967 0
M  V30 60 H -3.129876 -0.262960 -4.015285 0
M  V30 61 H -4.816951 0.975934 -5.094571 0
M  V30 62 H -6.579774 2.770651 -5.067711 0
M  V30 63 H -5.595977 3.732250 -1.158186 0
M  V30 64 H -3.802958 1.966158 -1.071375 0
M  V30 65 H 4.845763 2.759489 0.437308 0
M  V30 66 H 4.134467 3.471517 -1.062689 0
M  V30 67 H 3.071056 4.722472 0.683709 0
M  V30 68 H 2.586908 3.159398 1.575325 0
M  V30 69 H 1.826687 3.988658 -1.197905 0
M  V30 70 H 0.685273 3.596755 0.174512 0
M  V30 71 H 4.394128 -4.430043 1.563547 0
M  V30 END ATOM
M  V30 BEGIN BOND
M  V30 1 1 1 2
M  V30 2 1 2 3
M  V30 3 1 3 4
M  V30 4 2 4 5
M  V30 5 1 5 6
M  V30 6 1 6 7
M  V30 7 2 6 8
M  V30 8 1 8 9
M  V30 9 1 9 10
M  V30 10 1 10 11
M  V30 11 2 11 12
M  V30 12 1 12 13
M  V30 13 2 13 14
M  V30 14 1 14 15
M  V30 15 2 15 16
M  V30 16 1 16 17
M  V30 17 1 17 18
M  V30 18 1 18 19
M  V30 19 1 19 20
M  V30 20 1 20 21
M  V30 21 1 19 22
M  V30 22 1 22 23
M  V30 23 1 23 24
M  V30 24 1 16 25
M  V30 25 1 25 26
M  V30 26 1 26 27
M  V30 27 2 27 28
M  V30 28 1 28 29
M  V30 29 2 29 30
M  V30 30 1 30 31
M  V30 31 2 31 32
M  V30 32 2 25 33
M  V30 33 1 12 34
M  V30 34 2 34 35
M  V30 35 1 35 36
M  V30 36 1 36 37
M  V30 37 1 37 38
M  V30 38 1 8 39
M  V30 39 1 39 40
M  V30 40 2 39 41
M  V30 41 1 41 4
M  V30 42 1 35 10
M  V30 43 1 33 13
M  V30 44 1 38 34
M  V30 45 1 24 19
M  V30 46 1 32 27
M  V30 47 1 1 42
M  V30 48 1 1 43
M  V30 49 1 1 44
M  V30 50 1 2 45
M  V30 51 1 2 46
M  V30 52 1 5 47
M  V30 53 1 9 48
M  V30 54 1 9 49
M  V30 55 1 15 50
M  V30 56 1 18 51
M  V30 57 1 18 52
M  V30 58 1 20 53
M  V30 59 1 20 54
M  V30 60 1 21 55
M  V30 61 1 22 56
M  V30 62 1 22 57
M  V30 63 1 24 58
M  V30 64 1 24 59
M  V30 65 1 26 60
M  V30 66 1 28 61
M  V30 67 1 29 62
M  V30 68 1 31 63
M  V30 69 1 32 64
M  V30 70 1 36 65
M  V30 71 1 36 66
M  V30 72 1 37 67
M  V30 73 1 37 68
M  V30 74 1 38 69
M  V30 75 1 38 70
M  V30 76 1 41 71
M  V30 END BOND
M  V30 END CTAB
M  END
>  <Dataset>  (585) 
ChEMBL_Kinases

>  <Ligand_Instance>  (585) 
nan

>  <PDB_ID>  (585) 
nan

>  <Standardized_SMILES>  (585) 
CCOc1cc(F)c(Cn2nc(-c3ncc(OCC4(CO)COC4)c(Nc4ccncc4)n3)c3c2CCC3)c(F)c1

>  <Name>  (585) 
nan

>  <Pocket>  (585) 
nan

>  <ATP_Site>  (585) 
nan

>  <Peripheral>  (585) 
nan

>  <Num_H_Atoms_ProtBoundConf>  (585) 
nan

>  <Num_Resolved_Atoms>  (585) 
nan

>  <Num_Not_Resolved_Atoms>  (585) 
nan

$$$$
CHEMBL3260327
     RDKit          3D

  0  0  0  0  0  0  0  0  0  0999 V3000
M  V30 BEGIN CTAB
M  V30 COUNTS 77 82 0 0 0
M  V30 BEGIN ATOM
M  V30 1 C 0.320874 -4.798905 4.471469 0
M  V30 2 C 0.685729 -3.628433 3.579545 0
M  V30 3 O 0.725426 -4.013566 2.219431 0
M  V30 4 C 1.034101 -3.169884 1.166226 0
M  V30 5 O 1.167710 -2.281116 2.031769 0
M  V30 6 C 1.072844 -3.563890 -0.230909 0
M  V30 7 C 0.786138 -4.891171 -0.451545 0
M  V30 8 N 0.813339 -5.327982 -1.717903 0
M  V30 9 C 1.110875 -4.480566 -2.700664 0
M  V30 10 C 1.400536 -3.144646 -2.489752 0
M  V30 11 C 1.387868 -2.629643 -1.189476 0
M  V30 12 N 1.679435 -1.265749 -0.926400 0
M  V30 13 C 0.903672 -0.234146 -0.339931 0
M  V30 14 N -0.365924 -0.418833 0.053815 0
M  V30 15 C -1.108866 0.572432 0.602881 0
M  V30 16 C -2.484349 0.284739 0.998503 0
M  V30 17 N -3.047390 -0.931341 1.080144 0
M  V30 18 N -4.308767 -0.847693 1.465614 0
M  V30 19 C -5.137347 -2.050138 1.627461 0
M  V30 20 C -5.831852 -2.384126 0.360924 0
M  V30 21 C -7.162982 -2.174317 0.055671 0
M  V30 22 C -7.672299 -2.539590 -1.175762 0
M  V30 23 C -6.780038 -3.118162 -2.066908 0
M  V30 24 C -5.444822 -3.352214 -1.819456 0
M  V30 25 C -4.966416 -2.970008 -0.564978 0
M  V30 26 F -3.650244 -3.214297 -0.355793 0
M  V30 27 C -4.616258 0.447283 1.651545 0
M  V30 28 C -3.475321 1.173434 1.360835 0
M  V30 29 C -3.740839 2.625337 1.546661 0
M  V30 30 C -5.074750 2.689611 2.212152 0
M  V30 31 C -5.727393 1.343587 2.049832 0
M  V30 32 N -0.540960 1.781205 0.753441 0
M  V30 33 C 0.751294 2.002399 0.362565 0
M  V30 34 C 1.528040 0.984745 -0.205997 0
M  V30 35 O 2.808788 1.362073 -0.548871 0
M  V30 36 C 3.966178 0.825002 -0.019461 0
M  V30 37 C 4.112166 -0.164544 0.961174 0
M  V30 38 C 5.369734 -0.565237 1.353608 0
M  V30 39 C 6.524181 -0.035394 0.823612 0
M  V30 40 C 6.415929 0.939481 -0.142708 0
M  V30 41 C 5.151573 1.322101 -0.517092 0
M  V30 42 C 5.133881 2.356639 -1.535897 0
M  V30 43 O 4.526488 3.125208 -2.283520 0
M  V30 44 O 6.234877 2.942697 -2.129819 0
M  V30 45 C 6.184366 3.945585 -3.115376 0
M  V30 46 C 7.635395 4.276104 -3.464611 0
M  V30 47 H -0.621124 -4.577222 4.997221 0
M  V30 48 H 1.115099 -5.019003 5.214606 0
M  V30 49 H 0.229866 -5.721204 3.835716 0
M  V30 50 H 1.707385 -3.304772 3.866331 0
M  V30 51 H 0.018175 -2.757146 3.760089 0
M  V30 52 H 0.543174 -5.588815 0.337987 0
M  V30 53 H 1.138060 -4.816512 -3.735927 0
M  V30 54 H 1.644761 -2.449332 -3.299626 0
M  V30 55 H 2.648801 -1.152536 -1.280724 0
M  V30 56 H -4.502779 -2.894763 1.966861 0
M  V30 57 H -5.853910 -1.852307 2.471116 0
M  V30 58 H -7.739365 -1.715411 0.846280 0
M  V30 59 H -8.704043 -2.366778 -1.387619 0
M  V30 60 H -7.143442 -3.424175 -3.059574 0
M  V30 61 H -4.811504 -3.808843 -2.566970 0
M  V30 62 H -3.695028 3.175356 0.600425 0
M  V30 63 H -2.973810 3.087278 2.235036 0
M  V30 64 H -4.972658 2.911015 3.313248 0
M  V30 65 H -5.687363 3.525519 1.813900 0
M  V30 66 H -6.193815 1.035278 3.005909 0
M  V30 67 H -6.446018 1.389023 1.234497 0
M  V30 68 H 1.153124 3.010529 0.513403 0
M  V30 69 H 3.163001 -0.534609 1.333390 0
M  V30 70 H 5.331023 -1.332818 2.116066 0
M  V30 71 H 7.477940 -0.397172 1.178247 0
M  V30 72 H 7.321147 1.339800 -0.543922 0
M  V30 73 H 5.669478 4.874189 -2.792155 0
M  V30 74 H 5.694848 3.580966 -4.028896 0
M  V30 75 H 7.894920 3.843502 -4.450677 0
M  V30 76 H 8.347453 3.849646 -2.726183 0
M  V30 77 H 7.813727 5.374257 -3.458431 0
M  V30 END ATOM
M  V30 BEGIN BOND
M  V30 1 1 1 2
M  V30 2 1 2 3
M  V30 3 1 3 4
M  V30 4 2 4 5
M  V30 5 1 4 6
M  V30 6 2 6 7
M  V30 7 1 7 8
M  V30 8 2 8 9
M  V30 9 1 9 10
M  V30 10 2 10 11
M  V30 11 1 11 12
M  V30 12 1 12 13
M  V30 13 2 13 14
M  V30 14 1 14 15
M  V30 15 1 15 16
M  V30 16 2 16 17
M  V30 17 1 17 18
M  V30 18 1 18 19
M  V30 19 1 19 20
M  V30 20 2 20 21
M  V30 21 1 21 22
M  V30 22 2 22 23
M  V30 23 1 23 24
M  V30 24 2 24 25
M  V30 25 1 25 26
M  V30 26 1 18 27
M  V30 27 2 27 28
M  V30 28 1 28 29
M  V30 29 1 29 30
M  V30 30 1 30 31
M  V30 31 2 15 32
M  V30 32 1 32 33
M  V30 33 2 33 34
M  V30 34 1 34 35
M  V30 35 1 35 36
M  V30 36 2 36 37
M  V30 37 1 37 38
M  V30 38 2 38 39
M  V30 39 1 39 40
M  V30 40 2 40 41
M  V30 41 1 41 42
M  V30 42 2 42 43
M  V30 43 1 42 44
M  V30 44 1 44 45
M  V30 45 1 45 46
M  V30 46 1 11 6
M  V30 47 1 34 13
M  V30 48 1 41 36
M  V30 49 1 28 16
M  V30 50 1 25 20
M  V30 51 1 31 27
M  V30 52 1 1 47
M  V30 53 1 1 48
M  V30 54 1 1 49
M  V30 55 1 2 50
M  V30 56 1 2 51
M  V30 57 1 7 52
M  V30 58 1 9 53
M  V30 59 1 10 54
M  V30 60 1 12 55
M  V30 61 1 19 56
M  V30 62 1 19 57
M  V30 63 1 21 58
M  V30 64 1 22 59
M  V30 65 1 23 60
M  V30 66 1 24 61
M  V30 67 1 29 62
M  V30 68 1 29 63
M  V30 69 1 30 64
M  V30 70 1 30 65
M  V30 71 1 31 66
M  V30 72 1 31 67
M  V30 73 1 33 68
M  V30 74 1 37 69
M  V30 75 1 38 70
M  V30 76 1 39 71
M  V30 77 1 40 72
M  V30 78 1 45 73
M  V30 79 1 45 74
M  V30 80 1 46 75
M  V30 81 1 46 76
M  V30 82 1 46 77
M  V30 END BOND
M  V30 END CTAB
M  END
>  <Dataset>  (586) 
ChEMBL_Kinases

>  <Ligand_Instance>  (586) 
nan

>  <PDB_ID>  (586) 
nan

>  <Standardized_SMILES>  (586) 
CCOC(=O)c1cnccc1Nc1nc(-c2nn(Cc3ccccc3F)c3c2CCC3)ncc1Oc1ccccc1C(=O)OCC

>  <Name>  (586) 
nan

>  <Pocket>  (586) 
nan

>  <ATP_Site>  (586) 
nan

>  <Peripheral>  (586) 
nan

>  <Num_H_Atoms_ProtBoundConf>  (586) 
nan

>  <Num_Resolved_Atoms>  (586) 
nan

>  <Num_Not_Resolved_Atoms>  (586) 
nan

$$$$
CHEMBL3260328
     RDKit          3D

  0  0  0  0  0  0  0  0  0  0999 V3000
M  V30 BEGIN CTAB
M  V30 COUNTS 67 71 0 0 0
M  V30 BEGIN ATOM
M  V30 1 N 3.472292 -1.256667 3.359475 0
M  V30 2 C 3.040652 -0.488795 2.213771 0
M  V30 3 O 2.008079 -0.309883 2.890421 0
M  V30 4 C 3.922809 -0.369748 1.074690 0
M  V30 5 C 5.145448 -0.993153 1.178829 0
M  V30 6 N 5.997001 -0.904768 0.162736 0
M  V30 7 C 5.639919 -0.221923 -0.910663 0
M  V30 8 C 4.425892 0.406281 -1.033677 0
M  V30 9 C 3.506844 0.346226 -0.011788 0
M  V30 10 N 2.255002 0.990502 -0.154882 0
M  V30 11 C 2.069348 1.729929 -1.384744 0
M  V30 12 C 0.730379 2.320115 -1.612658 0
M  V30 13 O 0.789864 2.977672 -2.858891 0
M  V30 14 C 1.082075 1.127874 0.626620 0
M  V30 15 N 0.295911 0.045280 0.395618 0
M  V30 16 C -0.920430 -0.064035 0.970297 0
M  V30 17 C -1.914000 -1.121541 0.864076 0
M  V30 18 N -2.833934 -1.276648 -0.105343 0
M  V30 19 N -3.586692 -2.341296 0.093419 0
M  V30 20 C -4.646412 -2.707905 -0.823806 0
M  V30 21 C -4.206392 -3.602033 -1.898503 0
M  V30 22 C -4.556922 -4.932286 -1.786434 0
M  V30 23 C -4.167391 -5.814983 -2.772282 0
M  V30 24 C -3.432785 -5.309106 -3.839643 0
M  V30 25 C -3.065317 -3.969740 -3.977139 0
M  V30 26 C -3.477556 -3.103039 -2.958355 0
M  V30 27 F -3.130871 -1.799011 -3.072925 0
M  V30 28 C -3.178529 -2.937211 1.226676 0
M  V30 29 C -2.132430 -2.185592 1.720510 0
M  V30 30 C -1.662630 -2.821403 2.971649 0
M  V30 31 C -2.134110 -4.257455 2.839511 0
M  V30 32 C -3.446608 -4.078706 2.103901 0
M  V30 33 N -1.327666 0.931456 1.776694 0
M  V30 34 C -0.577646 2.013064 2.026289 0
M  V30 35 C 0.670173 2.183332 1.472861 0
M  V30 36 O 1.662165 3.073079 1.484020 0
M  V30 37 C 1.957844 4.265899 2.054565 0
M  V30 38 C 2.073437 4.371310 3.532667 0
M  V30 39 O 0.924620 4.032526 4.183547 0
M  V30 40 H 4.012523 -0.964950 4.217975 0
M  V30 41 H 3.360488 -2.277674 3.602354 0
M  V30 42 H 5.448326 -1.553686 2.050468 0
M  V30 43 H 6.360525 -0.176592 -1.708522 0
M  V30 44 H 4.277495 0.928680 -1.968589 0
M  V30 45 H 2.814665 2.569292 -1.424610 0
M  V30 46 H 2.295378 1.009293 -2.231195 0
M  V30 47 H -0.085390 1.565839 -1.663280 0
M  V30 48 H 0.468998 3.101022 -0.893330 0
M  V30 49 H 0.423725 2.425925 -3.585132 0
M  V30 50 H -5.120992 -1.768058 -1.233487 0
M  V30 51 H -5.458368 -3.152543 -0.196264 0
M  V30 52 H -5.133494 -5.289875 -0.934195 0
M  V30 53 H -4.418850 -6.864883 -2.726949 0
M  V30 54 H -3.149171 -6.043110 -4.590942 0
M  V30 55 H -2.490613 -3.681002 -4.851060 0
M  V30 56 H -0.557257 -2.818111 3.071609 0
M  V30 57 H -2.122200 -2.370991 3.884124 0
M  V30 58 H -1.455600 -4.868495 2.227780 0
M  V30 59 H -2.334281 -4.717152 3.827915 0
M  V30 60 H -3.768820 -4.990878 1.589180 0
M  V30 61 H -4.205416 -3.860797 2.883158 0
M  V30 62 H -0.856037 2.842113 2.649759 0
M  V30 63 H 2.959687 4.607563 1.621072 0
M  V30 64 H 1.224221 5.069426 1.745290 0
M  V30 65 H 2.262594 5.460875 3.774564 0
M  V30 66 H 2.971891 3.836450 3.925950 0
M  V30 67 H 1.015302 3.534483 5.020024 0
M  V30 END ATOM
M  V30 BEGIN BOND
M  V30 1 1 1 2
M  V30 2 2 2 3
M  V30 3 1 2 4
M  V30 4 2 4 5
M  V30 5 1 5 6
M  V30 6 2 6 7
M  V30 7 1 7 8
M  V30 8 2 8 9
M  V30 9 1 9 10
M  V30 10 1 10 11
M  V30 11 1 11 12
M  V30 12 1 12 13
M  V30 13 1 10 14
M  V30 14 2 14 15
M  V30 15 1 15 16
M  V30 16 1 16 17
M  V30 17 2 17 18
M  V30 18 1 18 19
M  V30 19 1 19 20
M  V30 20 1 20 21
M  V30 21 2 21 22
M  V30 22 1 22 23
M  V30 23 2 23 24
M  V30 24 1 24 25
M  V30 25 2 25 26
M  V30 26 1 26 27
M  V30 27 1 19 28
M  V30 28 2 28 29
M  V30 29 1 29 30
M  V30 30 1 30 31
M  V30 31 1 31 32
M  V30 32 2 16 33
M  V30 33 1 33 34
M  V30 34 2 34 35
M  V30 35 1 35 36
M  V30 36 1 36 37
M  V30 37 1 37 38
M  V30 38 1 38 39
M  V30 39 1 9 4
M  V30 40 1 35 14
M  V30 41 1 29 17
M  V30 42 1 26 21
M  V30 43 1 32 28
M  V30 44 1 1 40
M  V30 45 1 1 41
M  V30 46 1 5 42
M  V30 47 1 7 43
M  V30 48 1 8 44
M  V30 49 1 11 45
M  V30 50 1 11 46
M  V30 51 1 12 47
M  V30 52 1 12 48
M  V30 53 1 13 49
M  V30 54 1 20 50
M  V30 55 1 20 51
M  V30 56 1 22 52
M  V30 57 1 23 53
M  V30 58 1 24 54
M  V30 59 1 25 55
M  V30 60 1 30 56
M  V30 61 1 30 57
M  V30 62 1 31 58
M  V30 63 1 31 59
M  V30 64 1 32 60
M  V30 65 1 32 61
M  V30 66 1 34 62
M  V30 67 1 37 63
M  V30 68 1 37 64
M  V30 69 1 38 65
M  V30 70 1 38 66
M  V30 71 1 39 67
M  V30 END BOND
M  V30 END CTAB
M  END
>  <Dataset>  (587) 
ChEMBL_Kinases

>  <Ligand_Instance>  (587) 
nan

>  <PDB_ID>  (587) 
nan

>  <Standardized_SMILES>  (587) 
NC(=O)c1cnccc1N(CCO)c1nc(-c2nn(Cc3ccccc3F)c3c2CCC3)ncc1OCCO

>  <Name>  (587) 
nan

>  <Pocket>  (587) 
nan

>  <ATP_Site>  (587) 
nan

>  <Peripheral>  (587) 
nan

>  <Num_H_Atoms_ProtBoundConf>  (587) 
nan

>  <Num_Resolved_Atoms>  (587) 
nan

>  <Num_Not_Resolved_Atoms>  (587) 
nan

$$$$
CHEMBL3260329
     RDKit          3D

  0  0  0  0  0  0  0  0  0  0999 V3000
M  V30 BEGIN CTAB
M  V30 COUNTS 65 69 0 0 0
M  V30 BEGIN ATOM
M  V30 1 C 5.618311 -1.488014 5.876996 0
M  V30 2 S 4.255937 -0.727350 6.722647 0
M  V30 3 O 4.803805 0.063138 7.860655 0
M  V30 4 O 3.411333 -1.822167 7.311521 0
M  V30 5 C 3.288587 0.298588 5.623389 0
M  V30 6 C 2.739373 -0.526194 4.506256 0
M  V30 7 O 1.955543 0.210762 3.583525 0
M  V30 8 C 1.359010 -0.397849 2.469464 0
M  V30 9 C 1.563108 -1.747530 2.301933 0
M  V30 10 N 0.988159 -2.332463 1.228342 0
M  V30 11 C 0.242488 -1.629835 0.350834 0
M  V30 12 C -0.366398 -2.291136 -0.801608 0
M  V30 13 N -1.439126 -3.108800 -0.749890 0
M  V30 14 N -1.752344 -3.552212 -1.958972 0
M  V30 15 C -2.824751 -4.445451 -2.358613 0
M  V30 16 C -4.064725 -3.737632 -2.693593 0
M  V30 17 C -4.407804 -3.588856 -4.024679 0
M  V30 18 C -5.569502 -2.928512 -4.420288 0
M  V30 19 C -6.366540 -2.425786 -3.386366 0
M  V30 20 C -6.022031 -2.574757 -2.039451 0
M  V30 21 C -4.864737 -3.234242 -1.689536 0
M  V30 22 F -4.576969 -3.351802 -0.381663 0
M  V30 23 C -0.871729 -3.022085 -2.845650 0
M  V30 24 C 0.018530 -2.216611 -2.129869 0
M  V30 25 C 1.029875 -1.587467 -3.027498 0
M  V30 26 C 0.894593 -2.400121 -4.283548 0
M  V30 27 C -0.500102 -2.977225 -4.284343 0
M  V30 28 N 0.081415 -0.320004 0.569415 0
M  V30 29 C 0.594243 0.381090 1.590211 0
M  V30 30 N 0.435482 1.762347 1.838945 0
M  V30 31 C -0.288774 2.711584 1.079636 0
M  V30 32 C -0.981600 2.421377 -0.073213 0
M  V30 33 C -1.689407 3.336161 -0.818811 0
M  V30 34 N -1.703127 4.618754 -0.381885 0
M  V30 35 C -1.052852 4.976214 0.730529 0
M  V30 36 C -0.369277 4.025591 1.426525 0
M  V30 37 C 0.290884 4.543785 2.611813 0
M  V30 38 N 0.272103 5.890613 3.062087 0
M  V30 39 O 1.007517 4.241148 3.590929 0
M  V30 40 H 6.495854 -0.820959 5.940892 0
M  V30 41 H 5.334234 -1.749127 4.851085 0
M  V30 42 H 5.897872 -2.426172 6.425162 0
M  V30 43 H 2.449035 0.689878 6.227264 0
M  V30 44 H 3.936167 1.085937 5.225469 0
M  V30 45 H 2.210389 -1.432074 4.866802 0
M  V30 46 H 3.615815 -0.925464 3.919621 0
M  V30 47 H 2.161234 -2.287464 3.014486 0
M  V30 48 H -2.451456 -5.071145 -3.210934 0
M  V30 49 H -2.947271 -5.173310 -1.521180 0
M  V30 50 H -3.745706 -4.003202 -4.798681 0
M  V30 51 H -5.820181 -2.821916 -5.451211 0
M  V30 52 H -7.261997 -1.918915 -3.748452 0
M  V30 53 H -6.736244 -2.132650 -1.329994 0
M  V30 54 H 2.054448 -1.629792 -2.615004 0
M  V30 55 H 0.755305 -0.531688 -3.157393 0
M  V30 56 H 1.679879 -3.191159 -4.266885 0
M  V30 57 H 1.076535 -1.726680 -5.153041 0
M  V30 58 H -1.145929 -2.349667 -4.900970 0
M  V30 59 H -0.445704 -3.987102 -4.732657 0
M  V30 60 H 0.909246 2.132070 2.686086 0
M  V30 61 H -1.016566 1.426143 -0.481979 0
M  V30 62 H -2.225939 3.085965 -1.720659 0
M  V30 63 H -1.125665 6.003702 0.987099 0
M  V30 64 H 0.920211 6.703313 2.851689 0
M  V30 65 H -0.393130 6.396626 3.712002 0
M  V30 END ATOM
M  V30 BEGIN BOND
M  V30 1 1 1 2
M  V30 2 2 2 3
M  V30 3 2 2 4
M  V30 4 1 2 5
M  V30 5 1 5 6
M  V30 6 1 6 7
M  V30 7 1 7 8
M  V30 8 2 8 9
M  V30 9 1 9 10
M  V30 10 2 10 11
M  V30 11 1 11 12
M  V30 12 2 12 13
M  V30 13 1 13 14
M  V30 14 1 14 15
M  V30 15 1 15 16
M  V30 16 2 16 17
M  V30 17 1 17 18
M  V30 18 2 18 19
M  V30 19 1 19 20
M  V30 20 2 20 21
M  V30 21 1 21 22
M  V30 22 1 14 23
M  V30 23 2 23 24
M  V30 24 1 24 25
M  V30 25 1 25 26
M  V30 26 1 26 27
M  V30 27 1 11 28
M  V30 28 2 28 29
M  V30 29 1 29 30
M  V30 30 1 30 31
M  V30 31 2 31 32
M  V30 32 1 32 33
M  V30 33 2 33 34
M  V30 34 1 34 35
M  V30 35 2 35 36
M  V30 36 1 36 37
M  V30 37 1 37 38
M  V30 38 2 37 39
M  V30 39 1 29 8
M  V30 40 1 36 31
M  V30 41 1 24 12
M  V30 42 1 21 16
M  V30 43 1 27 23
M  V30 44 1 1 40
M  V30 45 1 1 41
M  V30 46 1 1 42
M  V30 47 1 5 43
M  V30 48 1 5 44
M  V30 49 1 6 45
M  V30 50 1 6 46
M  V30 51 1 9 47
M  V30 52 1 15 48
M  V30 53 1 15 49
M  V30 54 1 17 50
M  V30 55 1 18 51
M  V30 56 1 19 52
M  V30 57 1 20 53
M  V30 58 1 25 54
M  V30 59 1 25 55
M  V30 60 1 26 56
M  V30 61 1 26 57
M  V30 62 1 27 58
M  V30 63 1 27 59
M  V30 64 1 30 60
M  V30 65 1 32 61
M  V30 66 1 33 62
M  V30 67 1 35 63
M  V30 68 1 38 64
M  V30 69 1 38 65
M  V30 END BOND
M  V30 END CTAB
M  END
>  <Dataset>  (588) 
ChEMBL_Kinases

>  <Ligand_Instance>  (588) 
nan

>  <PDB_ID>  (588) 
nan

>  <Standardized_SMILES>  (588) 
CS(=O)(=O)CCOc1cnc(-c2nn(Cc3ccccc3F)c3c2CCC3)nc1Nc1ccncc1C(N)=O

>  <Name>  (588) 
nan

>  <Pocket>  (588) 
nan

>  <ATP_Site>  (588) 
nan

>  <Peripheral>  (588) 
nan

>  <Num_H_Atoms_ProtBoundConf>  (588) 
nan

>  <Num_Resolved_Atoms>  (588) 
nan

>  <Num_Not_Resolved_Atoms>  (588) 
nan

$$$$
CHEMBL3260608
     RDKit          3D

  0  0  0  0  0  0  0  0  0  0999 V3000
M  V30 BEGIN CTAB
M  V30 COUNTS 52 56 0 0 0
M  V30 BEGIN ATOM
M  V30 1 C 4.517234 -3.845176 -1.416936 0
M  V30 2 C 4.070243 -3.222484 -0.141642 0
M  V30 3 C 4.537092 -3.774287 1.057499 0
M  V30 4 C 4.127679 -3.202791 2.256233 0
M  V30 5 C 3.277076 -2.113271 2.231325 0
M  V30 6 C 2.827828 -1.584673 1.020558 0
M  V30 7 C 1.933830 -0.437857 1.098466 0
M  V30 8 N 1.954743 0.846516 0.711752 0
M  V30 9 C 0.821277 1.503658 1.043866 0
M  V30 10 C 0.676467 2.959684 0.691529 0
M  V30 11 N 0.129869 3.124039 -0.614023 0
M  V30 12 C -1.144034 2.799874 -1.108228 0
M  V30 13 C -2.167239 2.257969 -0.365211 0
M  V30 14 C -3.421219 1.923081 -0.830036 0
M  V30 15 C -3.676399 2.152443 -2.165941 0
M  V30 16 C -4.951340 1.853417 -2.813531 0
M  V30 17 N -5.953144 1.294513 -1.981094 0
M  V30 18 O -5.281236 2.024809 -4.011539 0
M  V30 19 C -2.695293 2.694036 -2.968736 0
M  V30 20 C -1.466718 3.002306 -2.431325 0
M  V30 21 N 0.070896 0.573676 1.664590 0
M  V30 22 C 0.713012 -0.603808 1.712716 0
M  V30 23 C 0.054062 -1.743525 2.353147 0
M  V30 24 C -0.173305 -2.782526 1.446053 0
M  V30 25 C -0.796143 -3.939473 1.914841 0
M  V30 26 C -1.168489 -4.030113 3.245810 0
M  V30 27 N -1.772059 -5.014763 3.938345 0
M  V30 28 C -1.905041 -4.591082 5.211082 0
M  V30 29 N -1.374639 -3.346329 5.265802 0
M  V30 30 N -0.925085 -2.998728 4.075300 0
M  V30 31 C -0.329980 -1.867816 3.671870 0
M  V30 32 N 3.254391 -2.175222 -0.102651 0
M  V30 33 H 5.429914 -3.337275 -1.738363 0
M  V30 34 H 3.724992 -3.626524 -2.184096 0
M  V30 35 H 4.597315 -4.949057 -1.345415 0
M  V30 36 H 5.204064 -4.629315 1.060308 0
M  V30 37 H 4.449430 -3.578228 3.216350 0
M  V30 38 H 2.953970 -1.663157 3.157579 0
M  V30 39 H 2.816838 1.196849 0.209509 0
M  V30 40 H -0.029089 3.447636 1.411416 0
M  V30 41 H 1.646394 3.425654 0.833045 0
M  V30 42 H 0.808952 3.562558 -1.307605 0
M  V30 43 H -2.019057 2.067569 0.685903 0
M  V30 44 H -4.197531 1.498087 -0.209665 0
M  V30 45 H -6.159561 1.324700 -0.957955 0
M  V30 46 H -6.678091 0.887235 -1.395333 0
M  V30 47 H -2.933059 2.858147 -4.007221 0
M  V30 48 H -0.712918 3.430608 -3.098128 0
M  V30 49 H 0.097206 -2.768217 0.389208 0
M  V30 50 H -0.976885 -4.756769 1.208435 0
M  V30 51 H -2.314145 -5.010540 6.114329 0
M  V30 52 H -0.108737 -1.012601 4.281499 0
M  V30 END ATOM
M  V30 BEGIN BOND
M  V30 1 1 1 2
M  V30 2 2 2 3
M  V30 3 1 3 4
M  V30 4 2 4 5
M  V30 5 1 5 6
M  V30 6 1 6 7
M  V30 7 1 7 8
M  V30 8 1 8 9
M  V30 9 1 9 10
M  V30 10 1 10 11
M  V30 11 1 11 12
M  V30 12 2 12 13
M  V30 13 1 13 14
M  V30 14 2 14 15
M  V30 15 1 15 16
M  V30 16 1 16 17
M  V30 17 2 16 18
M  V30 18 1 15 19
M  V30 19 2 19 20
M  V30 20 2 9 21
M  V30 21 1 21 22
M  V30 22 1 22 23
M  V30 23 1 23 24
M  V30 24 2 24 25
M  V30 25 1 25 26
M  V30 26 2 26 27
M  V30 27 1 27 28
M  V30 28 2 28 29
M  V30 29 1 29 30
M  V30 30 1 30 31
M  V30 31 2 6 32
M  V30 32 1 32 2
M  V30 33 2 22 7
M  V30 34 2 31 23
M  V30 35 1 20 12
M  V30 36 1 30 26
M  V30 37 1 1 33
M  V30 38 1 1 34
M  V30 39 1 1 35
M  V30 40 1 3 36
M  V30 41 1 4 37
M  V30 42 1 5 38
M  V30 43 1 8 39
M  V30 44 1 10 40
M  V30 45 1 10 41
M  V30 46 1 11 42
M  V30 47 1 13 43
M  V30 48 1 14 44
M  V30 49 1 17 45
M  V30 50 1 17 46
M  V30 51 1 19 47
M  V30 52 1 20 48
M  V30 53 1 24 49
M  V30 54 1 25 50
M  V30 55 1 28 51
M  V30 56 1 31 52
M  V30 END BOND
M  V30 END CTAB
M  END
>  <Dataset>  (589) 
ChEMBL_Kinases

>  <Ligand_Instance>  (589) 
nan

>  <PDB_ID>  (589) 
nan

>  <Standardized_SMILES>  (589) 
Cc1cccc(-c2[nH]c(CNc3ccc(C(N)=O)cc3)nc2-c2ccc3ncnn3c2)n1

>  <Name>  (589) 
nan

>  <Pocket>  (589) 
nan

>  <ATP_Site>  (589) 
nan

>  <Peripheral>  (589) 
nan

>  <Num_H_Atoms_ProtBoundConf>  (589) 
nan

>  <Num_Resolved_Atoms>  (589) 
nan

>  <Num_Not_Resolved_Atoms>  (589) 
nan

$$$$
CHEMBL3260568
     RDKit          3D

  0  0  0  0  0  0  0  0  0  0999 V3000
M  V30 BEGIN CTAB
M  V30 COUNTS 48 52 0 0 0
M  V30 BEGIN ATOM
M  V30 1 C -0.633300 -1.062344 5.130577 0
M  V30 2 C 0.271338 -1.658653 4.110985 0
M  V30 3 C 1.115079 -2.677695 4.510716 0
M  V30 4 C 1.963392 -3.247123 3.584016 0
M  V30 5 C 1.982160 -2.816012 2.268563 0
M  V30 6 C 1.123573 -1.793601 1.903881 0
M  V30 7 C 0.948316 -1.163430 0.597203 0
M  V30 8 N 1.666137 -0.152625 0.080293 0
M  V30 9 C 1.251251 0.197657 -1.146819 0
M  V30 10 C 1.623222 1.199519 -2.157103 0
M  V30 11 N 0.880042 2.415976 -2.130084 0
M  V30 12 C 0.737453 3.425757 -1.176477 0
M  V30 13 C 1.370323 3.432876 0.048503 0
M  V30 14 C 1.260148 4.415984 1.021682 0
M  V30 15 C 0.444060 5.482565 0.739426 0
M  V30 16 C -0.218978 5.540503 -0.464993 0
M  V30 17 C -0.077215 4.547991 -1.389741 0
M  V30 18 Cl -0.941223 4.664206 -2.910568 0
M  V30 19 N 0.207356 -0.636048 -1.435243 0
M  V30 20 C 0.025305 -1.455325 -0.384805 0
M  V30 21 C -0.999227 -2.494927 -0.308467 0
M  V30 22 C -2.314311 -2.079268 -0.376026 0
M  V30 23 C -3.258554 -3.077976 -0.304270 0
M  V30 24 C -2.845529 -4.398981 -0.173070 0
M  V30 25 N -3.598256 -5.510538 -0.086256 0
M  V30 26 C -2.752461 -6.567026 0.030345 0
M  V30 27 N -1.501275 -6.073240 0.012020 0
M  V30 28 N -1.546084 -4.757699 -0.111073 0
M  V30 29 C -0.593797 -3.808668 -0.178090 0
M  V30 30 N 0.308993 -1.260015 2.832236 0
M  V30 31 H -1.178292 -0.227332 4.600385 0
M  V30 32 H -1.366908 -1.831580 5.454208 0
M  V30 33 H -0.034701 -0.643328 5.948424 0
M  V30 34 H 1.142571 -3.051475 5.517722 0
M  V30 35 H 2.667840 -4.059927 3.802414 0
M  V30 36 H 2.589460 -3.169467 1.450518 0
M  V30 37 H 2.463912 0.333409 0.532294 0
M  V30 38 H 2.711936 1.472387 -1.950006 0
M  V30 39 H 1.646175 0.725784 -3.146530 0
M  V30 40 H 0.324183 2.580565 -3.018094 0
M  V30 41 H 2.017548 2.631887 0.318720 0
M  V30 42 H 1.782514 4.361096 1.959864 0
M  V30 43 H 0.286614 6.291463 1.413619 0
M  V30 44 H -0.858993 6.372473 -0.693031 0
M  V30 45 H -2.614412 -1.052848 -0.479315 0
M  V30 46 H -4.301170 -2.781999 -0.353424 0
M  V30 47 H -2.879251 -7.641381 0.127115 0
M  V30 48 H 0.447061 -4.108779 -0.127518 0
M  V30 END ATOM
M  V30 BEGIN BOND
M  V30 1 1 1 2
M  V30 2 2 2 3
M  V30 3 1 3 4
M  V30 4 2 4 5
M  V30 5 1 5 6
M  V30 6 1 6 7
M  V30 7 1 7 8
M  V30 8 1 8 9
M  V30 9 1 9 10
M  V30 10 1 10 11
M  V30 11 1 11 12
M  V30 12 2 12 13
M  V30 13 1 13 14
M  V30 14 2 14 15
M  V30 15 1 15 16
M  V30 16 2 16 17
M  V30 17 1 17 18
M  V30 18 2 9 19
M  V30 19 1 19 20
M  V30 20 1 20 21
M  V30 21 1 21 22
M  V30 22 2 22 23
M  V30 23 1 23 24
M  V30 24 2 24 25
M  V30 25 1 25 26
M  V30 26 2 26 27
M  V30 27 1 27 28
M  V30 28 1 28 29
M  V30 29 2 6 30
M  V30 30 1 30 2
M  V30 31 2 20 7
M  V30 32 2 29 21
M  V30 33 1 17 12
M  V30 34 1 28 24
M  V30 35 1 1 31
M  V30 36 1 1 32
M  V30 37 1 1 33
M  V30 38 1 3 34
M  V30 39 1 4 35
M  V30 40 1 5 36
M  V30 41 1 8 37
M  V30 42 1 10 38
M  V30 43 1 10 39
M  V30 44 1 11 40
M  V30 45 1 13 41
M  V30 46 1 14 42
M  V30 47 1 15 43
M  V30 48 1 16 44
M  V30 49 1 22 45
M  V30 50 1 23 46
M  V30 51 1 26 47
M  V30 52 1 29 48
M  V30 END BOND
M  V30 END CTAB
M  END
>  <Dataset>  (590) 
ChEMBL_Kinases

>  <Ligand_Instance>  (590) 
nan

>  <PDB_ID>  (590) 
nan

>  <Standardized_SMILES>  (590) 
Cc1cccc(-c2[nH]c(CNc3ccccc3Cl)nc2-c2ccc3ncnn3c2)n1

>  <Name>  (590) 
nan

>  <Pocket>  (590) 
nan

>  <ATP_Site>  (590) 
nan

>  <Peripheral>  (590) 
nan

>  <Num_H_Atoms_ProtBoundConf>  (590) 
nan

>  <Num_Resolved_Atoms>  (590) 
nan

>  <Num_Not_Resolved_Atoms>  (590) 
nan

$$$$
CHEMBL3260600
     RDKit          3D

  0  0  0  0  0  0  0  0  0  0999 V3000
M  V30 BEGIN CTAB
M  V30 COUNTS 48 52 0 0 0
M  V30 BEGIN ATOM
M  V30 1 C -0.526003 -2.272913 4.863509 0
M  V30 2 C 0.416909 -2.402079 3.717973 0
M  V30 3 C 1.543270 -3.186647 3.823105 0
M  V30 4 C 2.449171 -3.335827 2.781204 0
M  V30 5 C 2.221935 -2.669582 1.572403 0
M  V30 6 C 1.080192 -1.890900 1.504818 0
M  V30 7 C 0.703792 -1.135149 0.315137 0
M  V30 8 N 1.463850 -0.162059 -0.210040 0
M  V30 9 C 0.918801 0.393302 -1.301172 0
M  V30 10 C 1.220646 1.459150 -2.283985 0
M  V30 11 N 0.647714 2.741348 -1.967982 0
M  V30 12 C 0.895158 3.616283 -0.902678 0
M  V30 13 C 1.812615 3.411948 0.102438 0
M  V30 14 C 2.043310 4.284443 1.156913 0
M  V30 15 C 1.288954 5.436234 1.183677 0
M  V30 16 Br 1.545933 6.686284 2.598424 0
M  V30 17 C 0.361413 5.702731 0.219101 0
M  V30 18 C 0.190156 4.792578 -0.791181 0
M  V30 19 N -0.259591 -0.276320 -1.470356 0
M  V30 20 C -0.402128 -1.198252 -0.505759 0
M  V30 21 C -1.484570 -2.147643 -0.267535 0
M  V30 22 C -2.818812 -1.814939 -0.015440 0
M  V30 23 C -3.746196 -2.814304 0.194791 0
M  V30 24 C -3.327024 -4.130758 0.150037 0
M  V30 25 N -4.009412 -5.271889 0.316401 0
M  V30 26 C -3.145921 -6.288272 0.176031 0
M  V30 27 N -1.937200 -5.744784 -0.076468 0
M  V30 28 N -2.037275 -4.432524 -0.094231 0
M  V30 29 C -1.119264 -3.488989 -0.300973 0
M  V30 30 N 0.249748 -1.789842 2.543205 0
M  V30 31 H -1.217399 -3.128213 4.887811 0
M  V30 32 H -1.130362 -1.347601 4.802063 0
M  V30 33 H 0.067602 -2.180514 5.814588 0
M  V30 34 H 1.741253 -3.711797 4.747756 0
M  V30 35 H 3.346431 -3.941310 2.819693 0
M  V30 36 H 2.847849 -2.704078 0.691660 0
M  V30 37 H 2.386265 0.187195 0.116936 0
M  V30 38 H 2.347363 1.582991 -2.291495 0
M  V30 39 H 0.945006 1.126601 -3.311451 0
M  V30 40 H -0.083483 3.056118 -2.673665 0
M  V30 41 H 2.409125 2.532507 0.098440 0
M  V30 42 H 2.785452 4.055384 1.914902 0
M  V30 43 H -0.220937 6.613913 0.258886 0
M  V30 44 H -0.558667 5.050967 -1.532571 0
M  V30 45 H -3.008863 -0.752714 -0.008690 0
M  V30 46 H -4.766523 -2.509347 0.386007 0
M  V30 47 H -3.286744 -7.374250 0.234637 0
M  V30 48 H -0.099512 -3.793692 -0.492144 0
M  V30 END ATOM
M  V30 BEGIN BOND
M  V30 1 1 1 2
M  V30 2 2 2 3
M  V30 3 1 3 4
M  V30 4 2 4 5
M  V30 5 1 5 6
M  V30 6 1 6 7
M  V30 7 1 7 8
M  V30 8 1 8 9
M  V30 9 1 9 10
M  V30 10 1 10 11
M  V30 11 1 11 12
M  V30 12 2 12 13
M  V30 13 1 13 14
M  V30 14 2 14 15
M  V30 15 1 15 16
M  V30 16 1 15 17
M  V30 17 2 17 18
M  V30 18 2 9 19
M  V30 19 1 19 20
M  V30 20 1 20 21
M  V30 21 1 21 22
M  V30 22 2 22 23
M  V30 23 1 23 24
M  V30 24 2 24 25
M  V30 25 1 25 26
M  V30 26 2 26 27
M  V30 27 1 27 28
M  V30 28 1 28 29
M  V30 29 2 6 30
M  V30 30 1 30 2
M  V30 31 2 20 7
M  V30 32 2 29 21
M  V30 33 1 18 12
M  V30 34 1 28 24
M  V30 35 1 1 31
M  V30 36 1 1 32
M  V30 37 1 1 33
M  V30 38 1 3 34
M  V30 39 1 4 35
M  V30 40 1 5 36
M  V30 41 1 8 37
M  V30 42 1 10 38
M  V30 43 1 10 39
M  V30 44 1 11 40
M  V30 45 1 13 41
M  V30 46 1 14 42
M  V30 47 1 17 43
M  V30 48 1 18 44
M  V30 49 1 22 45
M  V30 50 1 23 46
M  V30 51 1 26 47
M  V30 52 1 29 48
M  V30 END BOND
M  V30 END CTAB
M  END
>  <Dataset>  (591) 
ChEMBL_Kinases

>  <Ligand_Instance>  (591) 
nan

>  <PDB_ID>  (591) 
nan

>  <Standardized_SMILES>  (591) 
Cc1cccc(-c2[nH]c(CNc3ccc(Br)cc3)nc2-c2ccc3ncnn3c2)n1

>  <Name>  (591) 
nan

>  <Pocket>  (591) 
nan

>  <ATP_Site>  (591) 
nan

>  <Peripheral>  (591) 
nan

>  <Num_H_Atoms_ProtBoundConf>  (591) 
nan

>  <Num_Resolved_Atoms>  (591) 
nan

>  <Num_Not_Resolved_Atoms>  (591) 
nan

$$$$
CHEMBL3260601
     RDKit          3D

  0  0  0  0  0  0  0  0  0  0999 V3000
M  V30 BEGIN CTAB
M  V30 COUNTS 51 55 0 0 0
M  V30 BEGIN ATOM
M  V30 1 C 0.861262 0.083238 7.369877 0
M  V30 2 C 1.479222 -0.387658 6.103448 0
M  V30 3 C 0.803578 -1.329222 5.356983 0
M  V30 4 C 1.411525 -1.738779 4.189317 0
M  V30 5 C 2.623430 -1.280294 3.727094 0
M  V30 6 N 3.253768 -1.684667 2.530618 0
M  V30 7 C 2.833592 -2.608449 1.503047 0
M  V30 8 C 1.626710 -2.136199 0.775164 0
M  V30 9 N 1.844892 -1.304252 -0.277446 0
M  V30 10 C 0.695879 -0.944421 -0.870178 0
M  V30 11 C 0.520562 -0.067557 -2.023240 0
M  V30 12 C -0.001059 -0.373743 -3.245303 0
M  V30 13 C -0.099452 0.564269 -4.231261 0
M  V30 14 C 0.333920 1.853585 -4.001282 0
M  V30 15 N 0.366167 2.981815 -4.767214 0
M  V30 16 C 0.905363 3.984602 -4.024743 0
M  V30 17 N 1.202141 3.482120 -2.816314 0
M  V30 18 N 0.860476 2.212364 -2.805530 0
M  V30 19 C 0.942138 1.258636 -1.854158 0
M  V30 20 C -0.300979 -1.577982 -0.160942 0
M  V30 21 C -1.742830 -1.533562 -0.377513 0
M  V30 22 C -2.618548 -1.045638 0.584353 0
M  V30 23 C -3.986915 -0.988427 0.414657 0
M  V30 24 C -4.543602 -1.436317 -0.772227 0
M  V30 25 C -3.668290 -1.919302 -1.722504 0
M  V30 26 C -4.120998 -2.432924 -3.042844 0
M  V30 27 N -2.341615 -1.953716 -1.507932 0
M  V30 28 N 0.292119 -2.282337 0.815958 0
M  V30 29 C 3.235145 -0.342952 4.527652 0
M  V30 30 C 2.691054 0.111831 5.701922 0
M  V30 31 H 1.465078 0.838966 7.880531 0
M  V30 32 H -0.141344 0.528201 7.180980 0
M  V30 33 H 0.735665 -0.790014 8.047335 0
M  V30 34 H -0.152347 -1.717580 5.682613 0
M  V30 35 H 0.887834 -2.470022 3.620678 0
M  V30 36 H 4.202911 -1.250679 2.321713 0
M  V30 37 H 2.513367 -3.531029 2.067346 0
M  V30 38 H 3.646759 -2.858736 0.799307 0
M  V30 39 H -0.322566 -1.399878 -3.363351 0
M  V30 40 H -0.515694 0.300097 -5.192019 0
M  V30 41 H 1.094606 5.018160 -4.281476 0
M  V30 42 H 1.371210 1.575744 -0.898649 0
M  V30 43 H -2.209226 -0.686057 1.527751 0
M  V30 44 H -4.656218 -0.605545 1.173281 0
M  V30 45 H -5.594644 -1.438715 -1.012536 0
M  V30 46 H -4.329855 -3.525791 -2.875768 0
M  V30 47 H -5.064165 -1.951509 -3.344323 0
M  V30 48 H -3.335021 -2.373131 -3.799368 0
M  V30 49 H -0.115019 -2.886071 1.542849 0
M  V30 50 H 4.206500 0.088934 4.251677 0
M  V30 51 H 3.201222 0.843886 6.296628 0
M  V30 END ATOM
M  V30 BEGIN BOND
M  V30 1 1 1 2
M  V30 2 2 2 3
M  V30 3 1 3 4
M  V30 4 2 4 5
M  V30 5 1 5 6
M  V30 6 1 6 7
M  V30 7 1 7 8
M  V30 8 2 8 9
M  V30 9 1 9 10
M  V30 10 1 10 11
M  V30 11 1 11 12
M  V30 12 2 12 13
M  V30 13 1 13 14
M  V30 14 2 14 15
M  V30 15 1 15 16
M  V30 16 2 16 17
M  V30 17 1 17 18
M  V30 18 1 18 19
M  V30 19 2 10 20
M  V30 20 1 20 21
M  V30 21 2 21 22
M  V30 22 1 22 23
M  V30 23 2 23 24
M  V30 24 1 24 25
M  V30 25 1 25 26
M  V30 26 2 25 27
M  V30 27 1 20 28
M  V30 28 1 5 29
M  V30 29 2 29 30
M  V30 30 1 30 2
M  V30 31 1 28 8
M  V30 32 2 19 11
M  V30 33 1 27 21
M  V30 34 1 18 14
M  V30 35 1 1 31
M  V30 36 1 1 32
M  V30 37 1 1 33
M  V30 38 1 3 34
M  V30 39 1 4 35
M  V30 40 1 6 36
M  V30 41 1 7 37
M  V30 42 1 7 38
M  V30 43 1 12 39
M  V30 44 1 13 40
M  V30 45 1 16 41
M  V30 46 1 19 42
M  V30 47 1 22 43
M  V30 48 1 23 44
M  V30 49 1 24 45
M  V30 50 1 26 46
M  V30 51 1 26 47
M  V30 52 1 26 48
M  V30 53 1 28 49
M  V30 54 1 29 50
M  V30 55 1 30 51
M  V30 END BOND
M  V30 END CTAB
M  END
>  <Dataset>  (592) 
ChEMBL_Kinases

>  <Ligand_Instance>  (592) 
nan

>  <PDB_ID>  (592) 
nan

>  <Standardized_SMILES>  (592) 
Cc1ccc(NCc2nc(-c3ccc4ncnn4c3)c(-c3cccc(C)n3)[nH]2)cc1

>  <Name>  (592) 
nan

>  <Pocket>  (592) 
nan

>  <ATP_Site>  (592) 
nan

>  <Peripheral>  (592) 
nan

>  <Num_H_Atoms_ProtBoundConf>  (592) 
nan

>  <Num_Resolved_Atoms>  (592) 
nan

>  <Num_Not_Resolved_Atoms>  (592) 
nan

$$$$
CHEMBL3260602
     RDKit          3D

  0  0  0  0  0  0  0  0  0  0999 V3000
M  V30 BEGIN CTAB
M  V30 COUNTS 57 61 0 0 0
M  V30 BEGIN ATOM
M  V30 1 C 0.626759 -1.533426 5.031129 0
M  V30 2 C 1.573033 -1.739836 3.909550 0
M  V30 3 C 2.783775 -2.304998 4.265672 0
M  V30 4 C 3.739853 -2.540221 3.290559 0
M  V30 5 C 3.501974 -2.218059 1.963752 0
M  V30 6 C 2.264450 -1.649561 1.654184 0
M  V30 7 C 1.910973 -1.273636 0.293323 0
M  V30 8 N 1.656549 -0.000472 -0.056433 0
M  V30 9 C 1.357160 0.068943 -1.363707 0
M  V30 10 C 0.975889 1.037292 -2.428453 0
M  V30 11 N -0.435977 1.171402 -2.618355 0
M  V30 12 C -1.437292 1.660955 -1.764911 0
M  V30 13 C -1.240921 2.159980 -0.498487 0
M  V30 14 C -2.213619 2.637141 0.350066 0
M  V30 15 C -3.511091 2.613573 -0.112723 0
M  V30 16 C -4.611150 3.109658 0.741750 0
M  V30 17 C -5.368303 4.264867 0.160410 0
M  V30 18 C -5.579126 1.995172 1.079154 0
M  V30 19 C -3.776121 2.126145 -1.373185 0
M  V30 20 C -2.753464 1.664066 -2.169429 0
M  V30 21 N 1.437839 -1.219518 -1.808813 0
M  V30 22 C 1.775334 -2.051349 -0.807467 0
M  V30 23 C 1.984877 -3.487570 -0.766717 0
M  V30 24 C 1.133683 -4.208687 0.046493 0
M  V30 25 C 1.259524 -5.583230 0.147787 0
M  V30 26 C 2.244034 -6.201425 -0.575619 0
M  V30 27 N 2.606934 -7.500050 -0.682212 0
M  V30 28 C 3.658732 -7.545270 -1.547071 0
M  V30 29 N 3.905244 -6.282036 -1.940294 0
M  V30 30 N 3.040601 -5.443934 -1.349065 0
M  V30 31 C 2.964678 -4.104599 -1.486416 0
M  V30 32 N 1.367925 -1.439906 2.634034 0
M  V30 33 H 0.969059 -0.667932 5.634006 0
M  V30 34 H 0.528994 -2.454601 5.661002 0
M  V30 35 H -0.380182 -1.280037 4.626309 0
M  V30 36 H 3.023859 -2.579682 5.304492 0
M  V30 37 H 4.697689 -2.979720 3.527667 0
M  V30 38 H 4.228426 -2.389588 1.180013 0
M  V30 39 H 1.646229 0.908857 0.446690 0
M  V30 40 H 1.316347 2.061371 -2.057389 0
M  V30 41 H 1.540996 0.894205 -3.353138 0
M  V30 42 H -0.739292 0.835655 -3.568975 0
M  V30 43 H -0.243694 2.198765 -0.105592 0
M  V30 44 H -1.999697 3.016500 1.332922 0
M  V30 45 H -4.159877 3.469168 1.712283 0
M  V30 46 H -6.420096 4.200798 0.539773 0
M  V30 47 H -5.422336 4.229195 -0.950616 0
M  V30 48 H -4.948218 5.234860 0.486813 0
M  V30 49 H -6.333983 1.853806 0.290937 0
M  V30 50 H -6.117946 2.209787 2.022793 0
M  V30 51 H -4.969278 1.060318 1.212888 0
M  V30 52 H -4.800746 2.118604 -1.711410 0
M  V30 53 H -3.029807 1.296304 -3.144873 0
M  V30 54 H 0.330152 -3.774909 0.647471 0
M  V30 55 H 0.622378 -6.224616 0.771801 0
M  V30 56 H 4.248134 -8.380952 -1.910710 0
M  V30 57 H 3.632151 -3.551318 -2.122572 0
M  V30 END ATOM
M  V30 BEGIN BOND
M  V30 1 1 1 2
M  V30 2 2 2 3
M  V30 3 1 3 4
M  V30 4 2 4 5
M  V30 5 1 5 6
M  V30 6 1 6 7
M  V30 7 1 7 8
M  V30 8 1 8 9
M  V30 9 1 9 10
M  V30 10 1 10 11
M  V30 11 1 11 12
M  V30 12 2 12 13
M  V30 13 1 13 14
M  V30 14 2 14 15
M  V30 15 1 15 16
M  V30 16 1 16 17
M  V30 17 1 16 18
M  V30 18 1 15 19
M  V30 19 2 19 20
M  V30 20 2 9 21
M  V30 21 1 21 22
M  V30 22 1 22 23
M  V30 23 1 23 24
M  V30 24 2 24 25
M  V30 25 1 25 26
M  V30 26 2 26 27
M  V30 27 1 27 28
M  V30 28 2 28 29
M  V30 29 1 29 30
M  V30 30 1 30 31
M  V30 31 2 6 32
M  V30 32 1 32 2
M  V30 33 2 22 7
M  V30 34 2 31 23
M  V30 35 1 20 12
M  V30 36 1 30 26
M  V30 37 1 1 33
M  V30 38 1 1 34
M  V30 39 1 1 35
M  V30 40 1 3 36
M  V30 41 1 4 37
M  V30 42 1 5 38
M  V30 43 1 8 39
M  V30 44 1 10 40
M  V30 45 1 10 41
M  V30 46 1 11 42
M  V30 47 1 13 43
M  V30 48 1 14 44
M  V30 49 1 16 45
M  V30 50 1 17 46
M  V30 51 1 17 47
M  V30 52 1 17 48
M  V30 53 1 18 49
M  V30 54 1 18 50
M  V30 55 1 18 51
M  V30 56 1 19 52
M  V30 57 1 20 53
M  V30 58 1 24 54
M  V30 59 1 25 55
M  V30 60 1 28 56
M  V30 61 1 31 57
M  V30 END BOND
M  V30 END CTAB
M  END
>  <Dataset>  (593) 
ChEMBL_Kinases

>  <Ligand_Instance>  (593) 
nan

>  <PDB_ID>  (593) 
nan

>  <Standardized_SMILES>  (593) 
Cc1cccc(-c2[nH]c(CNc3ccc(C(C)C)cc3)nc2-c2ccc3ncnn3c2)n1

>  <Name>  (593) 
nan

>  <Pocket>  (593) 
nan

>  <ATP_Site>  (593) 
nan

>  <Peripheral>  (593) 
nan

>  <Num_H_Atoms_ProtBoundConf>  (593) 
nan

>  <Num_Resolved_Atoms>  (593) 
nan

>  <Num_Not_Resolved_Atoms>  (593) 
nan

$$$$
CHEMBL3260603
     RDKit          3D

  0  0  0  0  0  0  0  0  0  0999 V3000
M  V30 BEGIN CTAB
M  V30 COUNTS 52 56 0 0 0
M  V30 BEGIN ATOM
M  V30 1 C -1.297965 -6.405134 3.704391 0
M  V30 2 O 0.076455 -6.162237 3.499831 0
M  V30 3 C 0.623186 -4.890568 3.477997 0
M  V30 4 C -0.119476 -3.746187 3.653140 0
M  V30 5 C 0.538120 -2.542284 3.610615 0
M  V30 6 C 1.884750 -2.346287 3.408018 0
M  V30 7 N 2.541378 -1.109529 3.358619 0
M  V30 8 C 2.018407 0.232628 3.462725 0
M  V30 9 C 1.186427 0.564715 2.273846 0
M  V30 10 N 1.802281 1.057614 1.157141 0
M  V30 11 C 0.909119 1.313037 0.189466 0
M  V30 12 C 1.156264 1.846812 -1.145774 0
M  V30 13 C 0.758826 3.066447 -1.653958 0
M  V30 14 C 1.058063 3.451799 -2.944024 0
M  V30 15 C 1.778969 2.575380 -3.735687 0
M  V30 16 N 2.203189 2.685563 -5.003874 0
M  V30 17 C 2.870252 1.567292 -5.341924 0
M  V30 18 N 2.844830 0.764584 -4.245046 0
M  V30 19 N 2.184788 1.374170 -3.273505 0
M  V30 20 C 1.875637 1.030241 -2.010500 0
M  V30 21 C -0.328068 0.977159 0.687804 0
M  V30 22 C -1.660963 1.034112 0.103245 0
M  V30 23 C -2.431851 2.099954 -0.309750 0
M  V30 24 C -3.683012 1.844707 -0.838085 0
M  V30 25 C -4.202335 0.588081 -0.975038 0
M  V30 26 C -3.398827 -0.442190 -0.550387 0
M  V30 27 C -3.951207 -1.835155 -0.691329 0
M  V30 28 N -2.169458 -0.228070 -0.028611 0
M  V30 29 N -0.111745 0.535467 1.936171 0
M  V30 30 C 2.565625 -3.532459 3.240578 0
M  V30 31 C 1.974701 -4.771861 3.270936 0
M  V30 32 H -1.442464 -7.498936 3.849234 0
M  V30 33 H -1.882469 -6.089435 2.819504 0
M  V30 34 H -1.679638 -5.860754 4.602850 0
M  V30 35 H -1.165859 -3.864475 3.812296 0
M  V30 36 H -0.099270 -1.687815 3.763676 0
M  V30 37 H 3.579978 -1.179245 3.222789 0
M  V30 38 H 2.865562 0.932421 3.516449 0
M  V30 39 H 1.379264 0.296303 4.384877 0
M  V30 40 H 0.203212 3.689790 -0.968281 0
M  V30 41 H 0.716831 4.426584 -3.289162 0
M  V30 42 H 3.252047 1.565174 -6.354142 0
M  V30 43 H 2.233323 0.046812 -1.699563 0
M  V30 44 H -1.936104 3.028492 -0.157388 0
M  V30 45 H -4.226989 2.724288 -1.138704 0
M  V30 46 H -5.193839 0.454698 -1.398834 0
M  V30 47 H -4.331390 -2.143620 0.308211 0
M  V30 48 H -4.735754 -1.878274 -1.449695 0
M  V30 49 H -3.068242 -2.475784 -0.940186 0
M  V30 50 H -0.822936 0.204050 2.611159 0
M  V30 51 H 3.653728 -3.523009 3.069404 0
M  V30 52 H 2.568992 -5.661610 3.132167 0
M  V30 END ATOM
M  V30 BEGIN BOND
M  V30 1 1 1 2
M  V30 2 1 2 3
M  V30 3 2 3 4
M  V30 4 1 4 5
M  V30 5 2 5 6
M  V30 6 1 6 7
M  V30 7 1 7 8
M  V30 8 1 8 9
M  V30 9 2 9 10
M  V30 10 1 10 11
M  V30 11 1 11 12
M  V30 12 1 12 13
M  V30 13 2 13 14
M  V30 14 1 14 15
M  V30 15 2 15 16
M  V30 16 1 16 17
M  V30 17 2 17 18
M  V30 18 1 18 19
M  V30 19 1 19 20
M  V30 20 2 11 21
M  V30 21 1 21 22
M  V30 22 2 22 23
M  V30 23 1 23 24
M  V30 24 2 24 25
M  V30 25 1 25 26
M  V30 26 1 26 27
M  V30 27 2 26 28
M  V30 28 1 21 29
M  V30 29 1 6 30
M  V30 30 2 30 31
M  V30 31 1 31 3
M  V30 32 1 29 9
M  V30 33 2 20 12
M  V30 34 1 28 22
M  V30 35 1 19 15
M  V30 36 1 1 32
M  V30 37 1 1 33
M  V30 38 1 1 34
M  V30 39 1 4 35
M  V30 40 1 5 36
M  V30 41 1 7 37
M  V30 42 1 8 38
M  V30 43 1 8 39
M  V30 44 1 13 40
M  V30 45 1 14 41
M  V30 46 1 17 42
M  V30 47 1 20 43
M  V30 48 1 23 44
M  V30 49 1 24 45
M  V30 50 1 25 46
M  V30 51 1 27 47
M  V30 52 1 27 48
M  V30 53 1 27 49
M  V30 54 1 29 50
M  V30 55 1 30 51
M  V30 56 1 31 52
M  V30 END BOND
M  V30 END CTAB
M  END
>  <Dataset>  (594) 
ChEMBL_Kinases

>  <Ligand_Instance>  (594) 
nan

>  <PDB_ID>  (594) 
nan

>  <Standardized_SMILES>  (594) 
COc1ccc(NCc2nc(-c3ccc4ncnn4c3)c(-c3cccc(C)n3)[nH]2)cc1

>  <Name>  (594) 
nan

>  <Pocket>  (594) 
nan

>  <ATP_Site>  (594) 
nan

>  <Peripheral>  (594) 
nan

>  <Num_H_Atoms_ProtBoundConf>  (594) 
nan

>  <Num_Resolved_Atoms>  (594) 
nan

>  <Num_Not_Resolved_Atoms>  (594) 
nan

$$$$
CHEMBL3260604
     RDKit          3D

  0  0  0  0  0  0  0  0  0  0999 V3000
M  V30 BEGIN CTAB
M  V30 COUNTS 52 56 0 0 0
M  V30 BEGIN ATOM
M  V30 1 C 3.469421 -4.591789 2.944026 0
M  V30 2 C 2.582895 -3.391945 2.829076 0
M  V30 3 C 2.073410 -2.842707 3.984121 0
M  V30 4 C 1.238075 -1.724695 3.979724 0
M  V30 5 C 0.931323 -1.174127 2.757431 0
M  V30 6 C 1.467936 -1.762545 1.628145 0
M  V30 7 C 1.190975 -1.239413 0.294871 0
M  V30 8 N 1.532676 0.004203 -0.080061 0
M  V30 9 C 1.172785 0.252527 -1.348955 0
M  V30 10 C 1.220420 1.350903 -2.350076 0
M  V30 11 N 0.006279 2.134722 -2.358599 0
M  V30 12 C -0.557697 2.980515 -1.379697 0
M  V30 13 C -0.001038 3.255569 -0.153797 0
M  V30 14 C -0.536742 4.070923 0.820561 0
M  V30 15 C -1.745005 4.666448 0.536875 0
M  V30 16 O -2.349269 5.495334 1.454208 0
M  V30 17 C -3.256860 4.964007 2.420716 0
M  V30 18 F -2.549509 4.050029 3.158166 0
M  V30 19 F -3.833302 5.938406 3.173679 0
M  V30 20 F -4.274316 4.243163 1.801342 0
M  V30 21 C -2.347314 4.424851 -0.678606 0
M  V30 22 C -1.756280 3.606177 -1.591525 0
M  V30 23 N 0.584549 -0.900982 -1.759601 0
M  V30 24 C 0.582875 -1.822307 -0.780375 0
M  V30 25 C 0.084330 -3.192077 -0.710729 0
M  V30 26 C 0.523723 -4.244831 -1.504832 0
M  V30 27 C -0.067379 -5.498551 -1.301717 0
M  V30 28 C -1.044388 -5.624906 -0.335551 0
M  V30 29 N -1.738856 -6.711717 0.027839 0
M  V30 30 C -2.605818 -6.378585 1.029186 0
M  V30 31 N -2.412939 -5.046722 1.262077 0
M  V30 32 N -1.475129 -4.612178 0.436664 0
M  V30 33 C -0.903250 -3.401798 0.239323 0
M  V30 34 N 2.284284 -2.853452 1.617251 0
M  V30 35 H 4.432290 -4.229965 3.392611 0
M  V30 36 H 3.070881 -5.307415 3.693338 0
M  V30 37 H 3.636878 -5.081025 1.977453 0
M  V30 38 H 2.299560 -3.255505 4.945534 0
M  V30 39 H 0.837526 -1.291573 4.872414 0
M  V30 40 H 0.294202 -0.305776 2.618308 0
M  V30 41 H 2.016375 0.759783 0.444042 0
M  V30 42 H 2.031349 2.047215 -2.014175 0
M  V30 43 H 1.445748 0.979360 -3.356757 0
M  V30 44 H -0.555482 2.054335 -3.263132 0
M  V30 45 H 0.949303 2.813813 0.104240 0
M  V30 46 H -0.043923 4.245095 1.768442 0
M  V30 47 H -3.298723 4.896891 -0.895365 0
M  V30 48 H -2.292342 3.462247 -2.531718 0
M  V30 49 H 1.289967 -4.026853 -2.224332 0
M  V30 50 H 0.278674 -6.315285 -1.922739 0
M  V30 51 H -3.245339 -7.149165 1.438492 0
M  V30 52 H -1.273467 -2.615169 0.875870 0
M  V30 END ATOM
M  V30 BEGIN BOND
M  V30 1 1 1 2
M  V30 2 2 2 3
M  V30 3 1 3 4
M  V30 4 2 4 5
M  V30 5 1 5 6
M  V30 6 1 6 7
M  V30 7 1 7 8
M  V30 8 1 8 9
M  V30 9 1 9 10
M  V30 10 1 10 11
M  V30 11 1 11 12
M  V30 12 2 12 13
M  V30 13 1 13 14
M  V30 14 2 14 15
M  V30 15 1 15 16
M  V30 16 1 16 17
M  V30 17 1 17 18
M  V30 18 1 17 19
M  V30 19 1 17 20
M  V30 20 1 15 21
M  V30 21 2 21 22
M  V30 22 2 9 23
M  V30 23 1 23 24
M  V30 24 1 24 25
M  V30 25 1 25 26
M  V30 26 2 26 27
M  V30 27 1 27 28
M  V30 28 2 28 29
M  V30 29 1 29 30
M  V30 30 2 30 31
M  V30 31 1 31 32
M  V30 32 1 32 33
M  V30 33 2 6 34
M  V30 34 1 34 2
M  V30 35 2 24 7
M  V30 36 2 33 25
M  V30 37 1 22 12
M  V30 38 1 32 28
M  V30 39 1 1 35
M  V30 40 1 1 36
M  V30 41 1 1 37
M  V30 42 1 3 38
M  V30 43 1 4 39
M  V30 44 1 5 40
M  V30 45 1 8 41
M  V30 46 1 10 42
M  V30 47 1 10 43
M  V30 48 1 11 44
M  V30 49 1 13 45
M  V30 50 1 14 46
M  V30 51 1 21 47
M  V30 52 1 22 48
M  V30 53 1 26 49
M  V30 54 1 27 50
M  V30 55 1 30 51
M  V30 56 1 33 52
M  V30 END BOND
M  V30 END CTAB
M  END
>  <Dataset>  (595) 
ChEMBL_Kinases

>  <Ligand_Instance>  (595) 
nan

>  <PDB_ID>  (595) 
nan

>  <Standardized_SMILES>  (595) 
Cc1cccc(-c2[nH]c(CNc3ccc(OC(F)(F)F)cc3)nc2-c2ccc3ncnn3c2)n1

>  <Name>  (595) 
nan

>  <Pocket>  (595) 
nan

>  <ATP_Site>  (595) 
nan

>  <Peripheral>  (595) 
nan

>  <Num_H_Atoms_ProtBoundConf>  (595) 
nan

>  <Num_Resolved_Atoms>  (595) 
nan

>  <Num_Not_Resolved_Atoms>  (595) 
nan

$$$$
CHEMBL3260605
     RDKit          3D

  0  0  0  0  0  0  0  0  0  0999 V3000
M  V30 BEGIN CTAB
M  V30 COUNTS 52 56 0 0 0
M  V30 BEGIN ATOM
M  V30 1 C -1.048009 -6.875414 2.261980 0
M  V30 2 S -0.304138 -6.464638 3.860898 0
M  V30 3 C 0.572772 -4.919286 3.685225 0
M  V30 4 C -0.041587 -3.701363 3.919514 0
M  V30 5 C 0.722312 -2.572612 3.753139 0
M  V30 6 C 2.044095 -2.516792 3.375023 0
M  V30 7 N 2.793367 -1.338280 3.204000 0
M  V30 8 C 2.404634 0.048224 3.329350 0
M  V30 9 C 1.451175 0.447208 2.261487 0
M  V30 10 N 1.908785 0.863925 1.046800 0
M  V30 11 C 0.895604 1.192389 0.231626 0
M  V30 12 C 1.096048 1.676174 -1.130292 0
M  V30 13 C 0.820072 2.956898 -1.555296 0
M  V30 14 C 1.011413 3.398752 -2.847951 0
M  V30 15 C 1.508660 2.525863 -3.792531 0
M  V30 16 N 1.805590 2.639292 -5.112514 0
M  V30 17 C 2.270905 1.423399 -5.519220 0
M  V30 18 N 2.249041 0.597255 -4.447202 0
M  V30 19 N 1.789040 1.250393 -3.390849 0
M  V30 20 C 1.592381 0.845686 -2.122451 0
M  V30 21 C -0.265493 0.982318 0.939851 0
M  V30 22 C -1.623819 1.199747 0.465904 0
M  V30 23 C -2.250726 2.374834 0.114033 0
M  V30 24 C -3.556718 2.393632 -0.323638 0
M  V30 25 C -4.210301 1.186029 -0.394256 0
M  V30 26 C -3.593822 0.005981 -0.045393 0
M  V30 27 C -4.343580 -1.293447 -0.136952 0
M  V30 28 N -2.325380 0.048250 0.372046 0
M  V30 29 N 0.117041 0.537645 2.146377 0
M  V30 30 C 2.588474 -3.759402 3.159731 0
M  V30 31 C 1.894529 -4.930978 3.304308 0
M  V30 32 H -0.226817 -7.035195 1.522162 0
M  V30 33 H -1.692140 -7.776116 2.388375 0
M  V30 34 H -1.689610 -6.061069 1.877680 0
M  V30 35 H -1.077021 -3.672684 4.218693 0
M  V30 36 H 0.193935 -1.654481 3.957927 0
M  V30 37 H 3.796559 -1.509431 2.941910 0
M  V30 38 H 3.319481 0.663271 3.218848 0
M  V30 39 H 1.931621 0.218081 4.334331 0
M  V30 40 H 0.437212 3.667913 -0.857270 0
M  V30 41 H 0.773949 4.418800 -3.116213 0
M  V30 42 H 2.599195 1.175137 -6.530120 0
M  V30 43 H 1.840308 -0.180397 -1.884854 0
M  V30 44 H -1.641991 3.239484 0.214232 0
M  V30 45 H -3.947534 3.367392 -0.572130 0
M  V30 46 H -5.232095 1.234425 -0.740989 0
M  V30 47 H -5.357252 -1.083931 -0.489993 0
M  V30 48 H -4.321229 -1.737137 0.870793 0
M  V30 49 H -3.811859 -1.968670 -0.863380 0
M  V30 50 H -0.528286 0.296694 2.909345 0
M  V30 51 H 3.637460 -3.844040 2.853470 0
M  V30 52 H 2.388091 -5.876273 3.118123 0
M  V30 END ATOM
M  V30 BEGIN BOND
M  V30 1 1 1 2
M  V30 2 1 2 3
M  V30 3 2 3 4
M  V30 4 1 4 5
M  V30 5 2 5 6
M  V30 6 1 6 7
M  V30 7 1 7 8
M  V30 8 1 8 9
M  V30 9 2 9 10
M  V30 10 1 10 11
M  V30 11 1 11 12
M  V30 12 1 12 13
M  V30 13 2 13 14
M  V30 14 1 14 15
M  V30 15 2 15 16
M  V30 16 1 16 17
M  V30 17 2 17 18
M  V30 18 1 18 19
M  V30 19 1 19 20
M  V30 20 2 11 21
M  V30 21 1 21 22
M  V30 22 2 22 23
M  V30 23 1 23 24
M  V30 24 2 24 25
M  V30 25 1 25 26
M  V30 26 1 26 27
M  V30 27 2 26 28
M  V30 28 1 21 29
M  V30 29 1 6 30
M  V30 30 2 30 31
M  V30 31 1 31 3
M  V30 32 1 29 9
M  V30 33 2 20 12
M  V30 34 1 28 22
M  V30 35 1 19 15
M  V30 36 1 1 32
M  V30 37 1 1 33
M  V30 38 1 1 34
M  V30 39 1 4 35
M  V30 40 1 5 36
M  V30 41 1 7 37
M  V30 42 1 8 38
M  V30 43 1 8 39
M  V30 44 1 13 40
M  V30 45 1 14 41
M  V30 46 1 17 42
M  V30 47 1 20 43
M  V30 48 1 23 44
M  V30 49 1 24 45
M  V30 50 1 25 46
M  V30 51 1 27 47
M  V30 52 1 27 48
M  V30 53 1 27 49
M  V30 54 1 29 50
M  V30 55 1 30 51
M  V30 56 1 31 52
M  V30 END BOND
M  V30 END CTAB
M  END
>  <Dataset>  (596) 
ChEMBL_Kinases

>  <Ligand_Instance>  (596) 
nan

>  <PDB_ID>  (596) 
nan

>  <Standardized_SMILES>  (596) 
CSc1ccc(NCc2nc(-c3ccc4ncnn4c3)c(-c3cccc(C)n3)[nH]2)cc1

>  <Name>  (596) 
nan

>  <Pocket>  (596) 
nan

>  <ATP_Site>  (596) 
nan

>  <Peripheral>  (596) 
nan

>  <Num_H_Atoms_ProtBoundConf>  (596) 
nan

>  <Num_Resolved_Atoms>  (596) 
nan

>  <Num_Not_Resolved_Atoms>  (596) 
nan

$$$$
CHEMBL3260606
     RDKit          3D

  0  0  0  0  0  0  0  0  0  0999 V3000
M  V30 BEGIN CTAB
M  V30 COUNTS 52 56 0 0 0
M  V30 BEGIN ATOM
M  V30 1 C 0.420704 -7.000083 4.122055 0
M  V30 2 C -0.267561 -5.877065 4.165410 0
M  V30 3 C 0.399540 -4.597860 3.981369 0
M  V30 4 C -0.317188 -3.435365 4.024911 0
M  V30 5 C 0.343953 -2.241210 3.846975 0
M  V30 6 C 1.695058 -2.101324 3.622930 0
M  V30 7 N 2.364753 -0.885172 3.432467 0
M  V30 8 C 1.847793 0.463253 3.384605 0
M  V30 9 C 0.995723 0.697335 2.191408 0
M  V30 10 N 1.584501 1.063056 1.022637 0
M  V30 11 C 0.675868 1.246508 0.051877 0
M  V30 12 C 1.048286 1.645323 -1.299354 0
M  V30 13 C 0.754021 2.844360 -1.911683 0
M  V30 14 C 1.129076 3.169701 -3.197981 0
M  V30 15 C 1.844981 2.260180 -3.945588 0
M  V30 16 N 2.346349 2.270725 -5.191248 0
M  V30 17 C 2.963079 1.077423 -5.378192 0
M  V30 18 N 2.832856 0.356788 -4.254879 0
M  V30 19 N 2.142729 1.069277 -3.350642 0
M  V30 20 C 1.777093 0.739427 -2.082802 0
M  V30 21 C -0.552772 0.989359 0.613458 0
M  V30 22 C -1.835620 1.059327 -0.059853 0
M  V30 23 C -2.487214 2.154398 -0.583324 0
M  V30 24 C -3.709380 2.070279 -1.203282 0
M  V30 25 C -4.348455 0.853643 -1.328988 0
M  V30 26 C -3.680583 -0.228007 -0.799264 0
M  V30 27 C -4.303400 -1.593833 -0.891335 0
M  V30 28 N -2.491333 -0.131048 -0.198524 0
M  V30 29 N -0.310959 0.665644 1.892130 0
M  V30 30 C 2.366534 -3.309527 3.589697 0
M  V30 31 C 1.752463 -4.523235 3.761498 0
M  V30 32 H 1.303470 -7.602593 4.016150 0
M  V30 33 H 0.012329 -7.991320 4.247711 0
M  V30 34 H -1.321699 -6.004028 4.343087 0
M  V30 35 H -1.378383 -3.531925 4.200075 0
M  V30 36 H -0.277239 -1.373218 3.901348 0
M  V30 37 H 3.412553 -0.978065 3.303688 0
M  V30 38 H 2.702931 1.163846 3.367869 0
M  V30 39 H 1.242366 0.637338 4.317534 0
M  V30 40 H 0.197640 3.561783 -1.331991 0
M  V30 41 H 0.851095 4.143187 -3.597741 0
M  V30 42 H 3.468235 0.789819 -6.300236 0
M  V30 43 H 2.073859 -0.245917 -1.715763 0
M  V30 44 H -1.962626 3.080726 -0.464940 0
M  V30 45 H -4.136019 3.002652 -1.582994 0
M  V30 46 H -5.315379 0.784971 -1.817584 0
M  V30 47 H -5.142480 -1.553197 -1.593391 0
M  V30 48 H -4.622894 -1.897410 0.128663 0
M  V30 49 H -3.514928 -2.323817 -1.210944 0
M  V30 50 H -1.020169 0.418775 2.608969 0
M  V30 51 H 3.444867 -3.316731 3.417853 0
M  V30 52 H 2.365918 -5.433694 3.719837 0
M  V30 END ATOM
M  V30 BEGIN BOND
M  V30 1 2 1 2
M  V30 2 1 2 3
M  V30 3 2 3 4
M  V30 4 1 4 5
M  V30 5 2 5 6
M  V30 6 1 6 7
M  V30 7 1 7 8
M  V30 8 1 8 9
M  V30 9 2 9 10
M  V30 10 1 10 11
M  V30 11 1 11 12
M  V30 12 1 12 13
M  V30 13 2 13 14
M  V30 14 1 14 15
M  V30 15 2 15 16
M  V30 16 1 16 17
M  V30 17 2 17 18
M  V30 18 1 18 19
M  V30 19 1 19 20
M  V30 20 2 11 21
M  V30 21 1 21 22
M  V30 22 2 22 23
M  V30 23 1 23 24
M  V30 24 2 24 25
M  V30 25 1 25 26
M  V30 26 1 26 27
M  V30 27 2 26 28
M  V30 28 1 21 29
M  V30 29 1 6 30
M  V30 30 2 30 31
M  V30 31 1 31 3
M  V30 32 1 29 9
M  V30 33 2 20 12
M  V30 34 1 28 22
M  V30 35 1 19 15
M  V30 36 1 1 32
M  V30 37 1 1 33
M  V30 38 1 2 34
M  V30 39 1 4 35
M  V30 40 1 5 36
M  V30 41 1 7 37
M  V30 42 1 8 38
M  V30 43 1 8 39
M  V30 44 1 13 40
M  V30 45 1 14 41
M  V30 46 1 17 42
M  V30 47 1 20 43
M  V30 48 1 23 44
M  V30 49 1 24 45
M  V30 50 1 25 46
M  V30 51 1 27 47
M  V30 52 1 27 48
M  V30 53 1 27 49
M  V30 54 1 29 50
M  V30 55 1 30 51
M  V30 56 1 31 52
M  V30 END BOND
M  V30 END CTAB
M  END
>  <Dataset>  (597) 
ChEMBL_Kinases

>  <Ligand_Instance>  (597) 
nan

>  <PDB_ID>  (597) 
nan

>  <Standardized_SMILES>  (597) 
C=Cc1ccc(NCc2nc(-c3ccc4ncnn4c3)c(-c3cccc(C)n3)[nH]2)cc1

>  <Name>  (597) 
nan

>  <Pocket>  (597) 
nan

>  <ATP_Site>  (597) 
nan

>  <Peripheral>  (597) 
nan

>  <Num_H_Atoms_ProtBoundConf>  (597) 
nan

>  <Num_Resolved_Atoms>  (597) 
nan

>  <Num_Not_Resolved_Atoms>  (597) 
nan

$$$$
CHEMBL3260333
     RDKit          3D

  0  0  0  0  0  0  0  0  0  0999 V3000
M  V30 BEGIN CTAB
M  V30 COUNTS 54 57 0 0 0
M  V30 BEGIN ATOM
M  V30 1 C 2.832929 0.937482 9.375394 0
M  V30 2 C 3.633781 0.005801 8.465704 0
M  V30 3 N 3.228410 0.151993 7.069176 0
M  V30 4 C 2.235952 -0.594829 6.516811 0
M  V30 5 C 2.188029 -0.139627 5.215358 0
M  V30 6 C 3.121029 0.849585 4.989558 0
M  V30 7 N 3.417845 1.589644 3.813931 0
M  V30 8 C 2.729396 1.396655 2.587156 0
M  V30 9 N 1.737886 0.512740 2.392763 0
M  V30 10 C 1.085777 0.329224 1.232582 0
M  V30 11 C 1.433283 1.086505 0.139525 0
M  V30 12 C 2.449818 2.001648 0.315687 0
M  V30 13 N 2.591490 2.600588 -0.883015 0
M  V30 14 N 1.715577 2.078354 -1.725874 0
M  V30 15 N 0.992366 1.150733 -1.133586 0
M  V30 16 C -0.058321 0.317874 -1.608975 0
M  V30 17 C -1.267071 0.269488 -0.964983 0
M  V30 18 C -2.247272 -0.555842 -1.471409 0
M  V30 19 C -2.107082 -1.362401 -2.608918 0
M  V30 20 C -3.230130 -2.218303 -3.098878 0
M  V30 21 C -3.984000 -1.510776 -4.222927 0
M  V30 22 C -4.307536 -2.183266 -1.952301 0
M  V30 23 O -3.002110 -3.521333 -3.242381 0
M  V30 24 C -2.080616 -4.093307 -4.009628 0
M  V30 25 C -2.182616 -3.803487 -5.490156 0
M  V30 26 O -3.447986 -4.279065 -5.900140 0
M  V30 27 C -0.861947 -1.239648 -3.177575 0
M  V30 28 C 0.148943 -0.440515 -2.723020 0
M  V30 29 N 3.055932 2.128065 1.508620 0
M  V30 30 N 3.728806 0.977894 6.181653 0
M  V30 31 H 1.755040 0.884985 9.126749 0
M  V30 32 H 3.218286 1.974882 9.289325 0
M  V30 33 H 2.962708 0.535383 10.403699 0
M  V30 34 H 3.408234 -1.025396 8.810558 0
M  V30 35 H 4.705325 0.246800 8.537654 0
M  V30 36 H 1.610262 -1.371706 6.962751 0
M  V30 37 H 1.494158 -0.532957 4.494944 0
M  V30 38 H 4.167954 2.300057 3.852710 0
M  V30 39 H 0.286129 -0.409701 1.143417 0
M  V30 40 H -1.425216 0.870999 -0.085337 0
M  V30 41 H -3.172010 -0.545170 -0.914884 0
M  V30 42 H -4.632562 -0.683508 -3.791180 0
M  V30 43 H -3.343117 -0.992050 -4.933296 0
M  V30 44 H -4.706471 -2.179648 -4.709195 0
M  V30 45 H -5.038545 -2.948231 -2.249902 0
M  V30 46 H -3.842787 -2.493661 -1.009326 0
M  V30 47 H -4.797692 -1.196533 -1.937731 0
M  V30 48 H -1.033461 -4.077767 -3.627003 0
M  V30 49 H -2.301218 -5.223081 -3.969718 0
M  V30 50 H -2.030636 -2.766563 -5.774703 0
M  V30 51 H -1.467866 -4.495544 -6.035955 0
M  V30 52 H -3.927398 -3.625206 -6.469527 0
M  V30 53 H -0.649885 -1.810755 -4.067048 0
M  V30 54 H 1.101168 -0.400956 -3.228453 0
M  V30 END ATOM
M  V30 BEGIN BOND
M  V30 1 1 1 2
M  V30 2 1 2 3
M  V30 3 1 3 4
M  V30 4 2 4 5
M  V30 5 1 5 6
M  V30 6 1 6 7
M  V30 7 1 7 8
M  V30 8 2 8 9
M  V30 9 1 9 10
M  V30 10 2 10 11
M  V30 11 1 11 12
M  V30 12 1 12 13
M  V30 13 2 13 14
M  V30 14 1 14 15
M  V30 15 1 15 16
M  V30 16 2 16 17
M  V30 17 1 17 18
M  V30 18 2 18 19
M  V30 19 1 19 20
M  V30 20 1 20 21
M  V30 21 1 20 22
M  V30 22 1 20 23
M  V30 23 1 23 24
M  V30 24 1 24 25
M  V30 25 1 25 26
M  V30 26 1 19 27
M  V30 27 2 27 28
M  V30 28 2 12 29
M  V30 29 2 6 30
M  V30 30 1 30 3
M  V30 31 1 29 8
M  V30 32 1 15 11
M  V30 33 1 28 16
M  V30 34 1 1 31
M  V30 35 1 1 32
M  V30 36 1 1 33
M  V30 37 1 2 34
M  V30 38 1 2 35
M  V30 39 1 4 36
M  V30 40 1 5 37
M  V30 41 1 7 38
M  V30 42 1 10 39
M  V30 43 1 17 40
M  V30 44 1 18 41
M  V30 45 1 21 42
M  V30 46 1 21 43
M  V30 47 1 21 44
M  V30 48 1 22 45
M  V30 49 1 22 46
M  V30 50 1 22 47
M  V30 51 1 24 48
M  V30 52 1 24 49
M  V30 53 1 25 50
M  V30 54 1 25 51
M  V30 55 1 26 52
M  V30 56 1 27 53
M  V30 57 1 28 54
M  V30 END BOND
M  V30 END CTAB
M  END
>  <Dataset>  (598) 
ChEMBL_Kinases

>  <Ligand_Instance>  (598) 
nan

>  <PDB_ID>  (598) 
nan

>  <Standardized_SMILES>  (598) 
CCn1ccc(Nc2ncc3c(nnn3-c3ccc(C(C)(C)OCCO)cc3)n2)n1

>  <Name>  (598) 
nan

>  <Pocket>  (598) 
nan

>  <ATP_Site>  (598) 
nan

>  <Peripheral>  (598) 
nan

>  <Num_H_Atoms_ProtBoundConf>  (598) 
nan

>  <Num_Resolved_Atoms>  (598) 
nan

>  <Num_Not_Resolved_Atoms>  (598) 
nan

$$$$
CHEMBL243500
     RDKit          3D

  0  0  0  0  0  0  0  0  0  0999 V3000
M  V30 BEGIN CTAB
M  V30 COUNTS 44 47 0 0 0
M  V30 BEGIN ATOM
M  V30 1 C 2.066392 -4.862826 2.183801 0
M  V30 2 O 1.787252 -5.389903 0.908451 0
M  V30 3 C 1.148704 -4.636615 -0.066544 0
M  V30 4 C 0.706850 -3.344790 0.023153 0
M  V30 5 C 0.082327 -2.715416 -1.036792 0
M  V30 6 C -0.356706 -1.332547 -0.849292 0
M  V30 7 C -1.482677 -0.817438 -1.504880 0
M  V30 8 C -1.868742 0.494103 -1.304139 0
M  V30 9 C -1.173176 1.340263 -0.462639 0
M  V30 10 C -0.048944 0.858126 0.203898 0
M  V30 11 C 0.311598 -0.457377 -0.017515 0
M  V30 12 N 0.836028 1.524946 1.120434 0
M  V30 13 C 0.537173 2.686871 1.909641 0
M  V30 14 C 1.371180 2.708669 3.011298 0
M  V30 15 C 1.209044 3.775764 3.881880 0
M  V30 16 N 2.037255 3.856634 5.035453 0
M  V30 17 C 0.254281 4.735894 3.618091 0
M  V30 18 C -0.574116 4.705179 2.514625 0
M  V30 19 C -0.420364 3.643148 1.638375 0
M  V30 20 N -1.336142 3.741769 0.553053 0
M  V30 21 C -1.716851 2.694077 -0.364669 0
M  V30 22 O -2.625209 2.949595 -1.192557 0
M  V30 23 C -0.093468 -3.412171 -2.201885 0
M  V30 24 C 0.334625 -4.732696 -2.357137 0
M  V30 25 C 0.952593 -5.314658 -1.267899 0
M  V30 26 N 1.378559 -6.668993 -1.462760 0
M  V30 27 H 3.105631 -4.471309 2.268048 0
M  V30 28 H 1.978974 -5.674845 2.952020 0
M  V30 29 H 1.381975 -4.079405 2.527348 0
M  V30 30 H 0.880868 -2.859036 0.974198 0
M  V30 31 H -2.024819 -1.470757 -2.158586 0
M  V30 32 H -2.740431 0.883319 -1.815125 0
M  V30 33 H 1.195118 -0.831375 0.508003 0
M  V30 34 H 1.780140 1.096296 1.194915 0
M  V30 35 H 2.099442 1.926436 3.161778 0
M  V30 36 H 1.580548 3.417103 5.886555 0
M  V30 37 H 2.981519 4.239394 5.256836 0
M  V30 38 H 0.123931 5.580475 4.304591 0
M  V30 39 H -1.319248 5.457795 2.311853 0
M  V30 40 H -1.796491 4.652551 0.376534 0
M  V30 41 H -0.578977 -2.938369 -3.041841 0
M  V30 42 H 0.183697 -5.268340 -3.295341 0
M  V30 43 H 2.419854 -6.833793 -1.339755 0
M  V30 44 H 0.828690 -7.526567 -1.707887 0
M  V30 END ATOM
M  V30 BEGIN BOND
M  V30 1 1 1 2
M  V30 2 1 2 3
M  V30 3 2 3 4
M  V30 4 1 4 5
M  V30 5 1 5 6
M  V30 6 2 6 7
M  V30 7 1 7 8
M  V30 8 2 8 9
M  V30 9 1 9 10
M  V30 10 2 10 11
M  V30 11 1 10 12
M  V30 12 1 12 13
M  V30 13 2 13 14
M  V30 14 1 14 15
M  V30 15 1 15 16
M  V30 16 2 15 17
M  V30 17 1 17 18
M  V30 18 2 18 19
M  V30 19 1 19 20
M  V30 20 1 20 21
M  V30 21 2 21 22
M  V30 22 2 5 23
M  V30 23 1 23 24
M  V30 24 2 24 25
M  V30 25 1 25 26
M  V30 26 1 25 3
M  V30 27 1 11 6
M  V30 28 1 19 13
M  V30 29 1 21 9
M  V30 30 1 1 27
M  V30 31 1 1 28
M  V30 32 1 1 29
M  V30 33 1 4 30
M  V30 34 1 7 31
M  V30 35 1 8 32
M  V30 36 1 11 33
M  V30 37 1 12 34
M  V30 38 1 14 35
M  V30 39 1 16 36
M  V30 40 1 16 37
M  V30 41 1 17 38
M  V30 42 1 18 39
M  V30 43 1 20 40
M  V30 44 1 23 41
M  V30 45 1 24 42
M  V30 46 1 26 43
M  V30 47 1 26 44
M  V30 END BOND
M  V30 END CTAB
M  END
>  <Dataset>  (599) 
ChEMBL_Kinases

>  <Ligand_Instance>  (599) 
nan

>  <PDB_ID>  (599) 
nan

>  <Standardized_SMILES>  (599) 
COc1cc(-c2ccc3c(c2)Nc2cc(N)ccc2NC3=O)ccc1N

>  <Name>  (599) 
nan

>  <Pocket>  (599) 
nan

>  <ATP_Site>  (599) 
nan

>  <Peripheral>  (599) 
nan

>  <Num_H_Atoms_ProtBoundConf>  (599) 
nan

>  <Num_Resolved_Atoms>  (599) 
nan

>  <Num_Not_Resolved_Atoms>  (599) 
nan

$$$$
CHEMBL243499
     RDKit          3D

  0  0  0  0  0  0  0  0  0  0999 V3000
M  V30 BEGIN CTAB
M  V30 COUNTS 75 80 0 0 0
M  V30 BEGIN ATOM
M  V30 1 C 7.745143 -1.919151 5.626531 0
M  V30 2 O 8.374324 -2.257017 4.387123 0
M  V30 3 C 7.663815 -1.943641 3.233974 0
M  V30 4 C 6.427201 -1.344348 3.242397 0
M  V30 5 C 5.732966 -1.039100 2.084600 0
M  V30 6 C 4.412528 -0.398600 2.108829 0
M  V30 7 C 3.555187 -0.672729 3.175807 0
M  V30 8 C 2.339197 -0.023678 3.107481 0
M  V30 9 C 1.954502 0.830267 2.097409 0
M  V30 10 C 2.844706 1.062741 1.068904 0
M  V30 11 C 4.100800 0.445127 1.059044 0
M  V30 12 N 2.705669 1.895990 -0.095984 0
M  V30 13 C 1.467501 2.356429 -0.636592 0
M  V30 14 C 1.579642 2.676792 -1.985210 0
M  V30 15 C 0.449474 3.141124 -2.653253 0
M  V30 16 C -0.793207 3.298975 -2.025942 0
M  V30 17 C -1.926592 3.805849 -2.840405 0
M  V30 18 C -2.672284 2.680088 -3.519163 0
M  V30 19 C -3.252705 1.697315 -2.579031 0
M  V30 20 O -3.445226 1.308235 -1.399394 0
M  V30 21 N -3.929950 0.687131 -3.359982 0
M  V30 22 C -4.600047 -0.416812 -2.714385 0
M  V30 23 C -5.922771 -0.383269 -2.326845 0
M  V30 24 C -6.473300 -1.491291 -1.715243 0
M  V30 25 C -5.789564 -2.634888 -1.463653 0
M  V30 26 N -6.371254 -3.760499 -0.831699 0
M  V30 27 C -7.727246 -3.835354 -0.330574 0
M  V30 28 C -7.606892 -4.104169 1.172344 0
M  V30 29 O -6.904984 -5.285253 1.370713 0
M  V30 30 C -5.572273 -5.144652 0.918092 0
M  V30 31 C -5.693845 -5.017556 -0.588605 0
M  V30 32 C -4.473391 -2.648680 -1.857183 0
M  V30 33 C -3.872628 -1.569982 -2.472209 0
M  V30 34 C -0.823075 2.960608 -0.688723 0
M  V30 35 C 0.249600 2.503280 0.009130 0
M  V30 36 N -0.058634 2.229463 1.371693 0
M  V30 37 C 0.611184 1.359755 2.308374 0
M  V30 38 O 0.010550 1.040748 3.358619 0
M  V30 39 C 6.294447 -1.343977 0.861442 0
M  V30 40 C 7.534967 -1.945717 0.828218 0
M  V30 41 C 8.225045 -2.248852 1.988791 0
M  V30 42 N 9.518928 -2.876389 1.944287 0
M  V30 43 H 7.676392 -0.814897 5.763359 0
M  V30 44 H 6.711441 -2.352687 5.679412 0
M  V30 45 H 8.309273 -2.315109 6.489684 0
M  V30 46 H 5.985029 -1.104303 4.211359 0
M  V30 47 H 3.829125 -1.332428 3.973141 0
M  V30 48 H 1.630183 -0.201817 3.916235 0
M  V30 49 H 4.788468 0.633179 0.251611 0
M  V30 50 H 3.552009 2.192185 -0.589817 0
M  V30 51 H 2.526180 2.554524 -2.456036 0
M  V30 52 H 0.561673 3.387992 -3.717632 0
M  V30 53 H -2.606579 4.452686 -2.249287 0
M  V30 54 H -1.503567 4.421356 -3.670533 0
M  V30 55 H -1.907619 2.193188 -4.191883 0
M  V30 56 H -3.463059 3.092527 -4.142869 0
M  V30 57 H -4.103184 0.489783 -4.392820 0
M  V30 58 H -6.487862 0.528859 -2.521452 0
M  V30 59 H -7.508166 -1.361870 -1.453581 0
M  V30 60 H -8.329697 -2.939386 -0.503610 0
M  V30 61 H -8.208334 -4.758238 -0.756437 0
M  V30 62 H -8.588425 -4.191695 1.644702 0
M  V30 63 H -6.985790 -3.270224 1.571790 0
M  V30 64 H -5.002400 -6.010980 1.255581 0
M  V30 65 H -5.153476 -4.240217 1.394817 0
M  V30 66 H -4.762472 -5.158911 -1.129291 0
M  V30 67 H -6.341712 -5.895711 -0.889111 0
M  V30 68 H -3.812893 -3.482159 -1.721664 0
M  V30 69 H -2.825641 -1.577914 -2.786436 0
M  V30 70 H -1.750815 3.073848 -0.187842 0
M  V30 71 H -0.889957 2.725095 1.761875 0
M  V30 72 H 5.785095 -1.122495 -0.072662 0
M  V30 73 H 8.039343 -2.215224 -0.102792 0
M  V30 74 H 10.358333 -2.270733 2.189145 0
M  V30 75 H 9.747714 -3.883656 1.694164 0
M  V30 END ATOM
M  V30 BEGIN BOND
M  V30 1 1 1 2
M  V30 2 1 2 3
M  V30 3 2 3 4
M  V30 4 1 4 5
M  V30 5 1 5 6
M  V30 6 2 6 7
M  V30 7 1 7 8
M  V30 8 2 8 9
M  V30 9 1 9 10
M  V30 10 2 10 11
M  V30 11 1 10 12
M  V30 12 1 12 13
M  V30 13 2 13 14
M  V30 14 1 14 15
M  V30 15 2 15 16
M  V30 16 1 16 17
M  V30 17 1 17 18
M  V30 18 1 18 19
M  V30 19 2 19 20
M  V30 20 1 19 21
M  V30 21 1 21 22
M  V30 22 2 22 23
M  V30 23 1 23 24
M  V30 24 2 24 25
M  V30 25 1 25 26
M  V30 26 1 26 27
M  V30 27 1 27 28
M  V30 28 1 28 29
M  V30 29 1 29 30
M  V30 30 1 30 31
M  V30 31 1 25 32
M  V30 32 2 32 33
M  V30 33 1 16 34
M  V30 34 2 34 35
M  V30 35 1 35 36
M  V30 36 1 36 37
M  V30 37 2 37 38
M  V30 38 2 5 39
M  V30 39 1 39 40
M  V30 40 2 40 41
M  V30 41 1 41 42
M  V30 42 1 41 3
M  V30 43 1 11 6
M  V30 44 1 35 13
M  V30 45 1 37 9
M  V30 46 1 33 22
M  V30 47 1 31 26
M  V30 48 1 1 43
M  V30 49 1 1 44
M  V30 50 1 1 45
M  V30 51 1 4 46
M  V30 52 1 7 47
M  V30 53 1 8 48
M  V30 54 1 11 49
M  V30 55 1 12 50
M  V30 56 1 14 51
M  V30 57 1 15 52
M  V30 58 1 17 53
M  V30 59 1 17 54
M  V30 60 1 18 55
M  V30 61 1 18 56
M  V30 62 1 21 57
M  V30 63 1 23 58
M  V30 64 1 24 59
M  V30 65 1 27 60
M  V30 66 1 27 61
M  V30 67 1 28 62
M  V30 68 1 28 63
M  V30 69 1 30 64
M  V30 70 1 30 65
M  V30 71 1 31 66
M  V30 72 1 31 67
M  V30 73 1 32 68
M  V30 74 1 33 69
M  V30 75 1 34 70
M  V30 76 1 36 71
M  V30 77 1 39 72
M  V30 78 1 40 73
M  V30 79 1 42 74
M  V30 80 1 42 75
M  V30 END BOND
M  V30 END CTAB
M  END
>  <Dataset>  (600) 
ChEMBL_Kinases

>  <Ligand_Instance>  (600) 
nan

>  <PDB_ID>  (600) 
nan

>  <Standardized_SMILES>  (600) 
COc1cc(-c2ccc3c(c2)Nc2ccc(CCC(=O)Nc4ccc(N5CCOCC5)cc4)cc2NC3=O)ccc1N

>  <Name>  (600) 
nan

>  <Pocket>  (600) 
nan

>  <ATP_Site>  (600) 
nan

>  <Peripheral>  (600) 
nan

>  <Num_H_Atoms_ProtBoundConf>  (600) 
nan

>  <Num_Resolved_Atoms>  (600) 
nan

>  <Num_Not_Resolved_Atoms>  (600) 
nan

$$$$
CHEMBL243491
     RDKit          3D

  0  0  0  0  0  0  0  0  0  0999 V3000
M  V30 BEGIN CTAB
M  V30 COUNTS 43 46 0 0 0
M  V30 BEGIN ATOM
M  V30 1 C -1.312889 -6.476118 0.945112 0
M  V30 2 O -0.150881 -6.403029 0.156178 0
M  V30 3 C 0.358468 -5.179643 -0.210012 0
M  V30 4 C -0.141172 -3.958363 0.107779 0
M  V30 5 C 0.392084 -2.746929 -0.274291 0
M  V30 6 C -0.194679 -1.464389 0.101296 0
M  V30 7 C -1.550551 -1.251379 0.285676 0
M  V30 8 C -2.052516 -0.014450 0.642099 0
M  V30 9 C -1.210977 1.069096 0.830223 0
M  V30 10 C 0.145622 0.863031 0.647507 0
M  V30 11 C 0.663611 -0.371485 0.290078 0
M  V30 12 N 1.195436 1.815849 0.783609 0
M  V30 13 C 1.189819 3.025200 1.573878 0
M  V30 14 C 2.485243 3.427924 1.890986 0
M  V30 15 C 2.646319 4.571232 2.645561 0
M  V30 16 C 1.543592 5.296328 3.074220 0
M  V30 17 O 1.818376 6.437172 3.831931 0
M  V30 18 C 0.258057 4.888797 2.754321 0
M  V30 19 C 0.090270 3.743937 1.998458 0
M  V30 20 N -1.302284 3.509362 1.787219 0
M  V30 21 C -1.871435 2.321296 1.206190 0
M  V30 22 O -3.123394 2.302123 0.963808 0
M  V30 23 C 1.529629 -2.731658 -1.045305 0
M  V30 24 C 2.089194 -3.941397 -1.403952 0
M  V30 25 C 1.514718 -5.126021 -0.994474 0
M  V30 26 N 2.164139 -6.326359 -1.414041 0
M  V30 27 H -1.461126 -7.481754 1.390899 0
M  V30 28 H -1.213692 -5.700583 1.733483 0
M  V30 29 H -2.231091 -6.283270 0.353100 0
M  V30 30 H -1.052361 -3.935322 0.724432 0
M  V30 31 H -2.212650 -2.100929 0.137811 0
M  V30 32 H -3.108561 0.158585 0.787206 0
M  V30 33 H 1.742826 -0.469313 0.161230 0
M  V30 34 H 2.080202 1.637795 0.259762 0
M  V30 35 H 3.328994 2.836252 1.539472 0
M  V30 36 H 3.672087 4.885750 2.893494 0
M  V30 37 H 1.869186 6.384034 4.858484 0
M  V30 38 H -0.583981 5.476553 3.103911 0
M  V30 39 H -1.990477 4.227268 2.060460 0
M  V30 40 H 2.018410 -1.832572 -1.391652 0
M  V30 41 H 2.984732 -3.940654 -2.010774 0
M  V30 42 H 2.827341 -6.540820 -0.655221 0
M  V30 43 H 2.131328 -6.980525 -2.231358 0
M  V30 END ATOM
M  V30 BEGIN BOND
M  V30 1 1 1 2
M  V30 2 1 2 3
M  V30 3 2 3 4
M  V30 4 1 4 5
M  V30 5 1 5 6
M  V30 6 2 6 7
M  V30 7 1 7 8
M  V30 8 2 8 9
M  V30 9 1 9 10
M  V30 10 2 10 11
M  V30 11 1 10 12
M  V30 12 1 12 13
M  V30 13 2 13 14
M  V30 14 1 14 15
M  V30 15 2 15 16
M  V30 16 1 16 17
M  V30 17 1 16 18
M  V30 18 2 18 19
M  V30 19 1 19 20
M  V30 20 1 20 21
M  V30 21 2 21 22
M  V30 22 2 5 23
M  V30 23 1 23 24
M  V30 24 2 24 25
M  V30 25 1 25 26
M  V30 26 1 25 3
M  V30 27 1 11 6
M  V30 28 1 19 13
M  V30 29 1 21 9
M  V30 30 1 1 27
M  V30 31 1 1 28
M  V30 32 1 1 29
M  V30 33 1 4 30
M  V30 34 1 7 31
M  V30 35 1 8 32
M  V30 36 1 11 33
M  V30 37 1 12 34
M  V30 38 1 14 35
M  V30 39 1 15 36
M  V30 40 1 17 37
M  V30 41 1 18 38
M  V30 42 1 20 39
M  V30 43 1 23 40
M  V30 44 1 24 41
M  V30 45 1 26 42
M  V30 46 1 26 43
M  V30 END BOND
M  V30 END CTAB
M  END
>  <Dataset>  (601) 
ChEMBL_Kinases

>  <Ligand_Instance>  (601) 
nan

>  <PDB_ID>  (601) 
nan

>  <Standardized_SMILES>  (601) 
COc1cc(-c2ccc3c(c2)Nc2ccc(O)cc2NC3=O)ccc1N

>  <Name>  (601) 
nan

>  <Pocket>  (601) 
nan

>  <ATP_Site>  (601) 
nan

>  <Peripheral>  (601) 
nan

>  <Num_H_Atoms_ProtBoundConf>  (601) 
nan

>  <Num_Resolved_Atoms>  (601) 
nan

>  <Num_Not_Resolved_Atoms>  (601) 
nan

$$$$
CHEMBL243490
     RDKit          3D

  0  0  0  0  0  0  0  0  0  0999 V3000
M  V30 BEGIN CTAB
M  V30 COUNTS 43 46 0 0 0
M  V30 BEGIN ATOM
M  V30 1 C 2.580961 -4.770132 1.898989 0
M  V30 2 O 2.230786 -5.230814 0.625959 0
M  V30 3 C 1.462158 -4.517322 -0.280673 0
M  V30 4 C 0.939306 -3.261184 -0.053276 0
M  V30 5 C 0.174255 -2.591398 -0.999642 0
M  V30 6 C -0.325530 -1.260309 -0.640515 0
M  V30 7 C -1.534721 -0.743208 -1.121241 0
M  V30 8 C -1.932046 0.522503 -0.732470 0
M  V30 9 C -1.177332 1.302047 0.117356 0
M  V30 10 C 0.029352 0.796951 0.602475 0
M  V30 11 C 0.421788 -0.469655 0.210388 0
M  V30 12 N 0.977327 1.421631 1.492948 0
M  V30 13 C 0.708605 2.469068 2.449322 0
M  V30 14 C 1.668202 2.388453 3.461241 0
M  V30 15 C 1.551013 3.341058 4.478406 0
M  V30 16 C 0.538875 4.287376 4.453202 0
M  V30 17 C -0.376445 4.309740 3.421962 0
M  V30 18 O -1.400719 5.252135 3.377728 0
M  V30 19 C -0.312315 3.395726 2.390195 0
M  V30 20 N -1.319080 3.535092 1.394324 0
M  V30 21 C -1.771756 2.605328 0.404350 0
M  V30 22 O -2.756865 2.916861 -0.282211 0
M  V30 23 C -0.092175 -3.179522 -2.228511 0
M  V30 24 C 0.441766 -4.445470 -2.442214 0
M  V30 25 C 1.202573 -5.111555 -1.501247 0
M  V30 26 N 1.724297 -6.408083 -1.776624 0
M  V30 27 H 3.441288 -5.347842 2.299713 0
M  V30 28 H 1.729781 -4.931115 2.583162 0
M  V30 29 H 2.793541 -3.677305 1.895136 0
M  V30 30 H 1.191448 -2.868508 0.930315 0
M  V30 31 H -2.117041 -1.366653 -1.788013 0
M  V30 32 H -2.863930 0.929168 -1.098551 0
M  V30 33 H 1.364907 -0.826390 0.608607 0
M  V30 34 H 1.943296 1.053867 1.408596 0
M  V30 35 H 2.436355 1.627526 3.428540 0
M  V30 36 H 2.291522 3.266978 5.244780 0
M  V30 37 H 0.484739 5.015711 5.272342 0
M  V30 38 H -2.163847 5.113222 4.034854 0
M  V30 39 H -1.783786 4.462534 1.406254 0
M  V30 40 H -0.685876 -2.655316 -2.958399 0
M  V30 41 H 0.232375 -4.903901 -3.402710 0
M  V30 42 H 2.711844 -6.589082 -1.434229 0
M  V30 43 H 1.316071 -7.237593 -2.261827 0
M  V30 END ATOM
M  V30 BEGIN BOND
M  V30 1 1 1 2
M  V30 2 1 2 3
M  V30 3 2 3 4
M  V30 4 1 4 5
M  V30 5 1 5 6
M  V30 6 2 6 7
M  V30 7 1 7 8
M  V30 8 2 8 9
M  V30 9 1 9 10
M  V30 10 2 10 11
M  V30 11 1 10 12
M  V30 12 1 12 13
M  V30 13 2 13 14
M  V30 14 1 14 15
M  V30 15 2 15 16
M  V30 16 1 16 17
M  V30 17 1 17 18
M  V30 18 2 17 19
M  V30 19 1 19 20
M  V30 20 1 20 21
M  V30 21 2 21 22
M  V30 22 2 5 23
M  V30 23 1 23 24
M  V30 24 2 24 25
M  V30 25 1 25 26
M  V30 26 1 25 3
M  V30 27 1 11 6
M  V30 28 1 19 13
M  V30 29 1 21 9
M  V30 30 1 1 27
M  V30 31 1 1 28
M  V30 32 1 1 29
M  V30 33 1 4 30
M  V30 34 1 7 31
M  V30 35 1 8 32
M  V30 36 1 11 33
M  V30 37 1 12 34
M  V30 38 1 14 35
M  V30 39 1 15 36
M  V30 40 1 16 37
M  V30 41 1 18 38
M  V30 42 1 20 39
M  V30 43 1 23 40
M  V30 44 1 24 41
M  V30 45 1 26 42
M  V30 46 1 26 43
M  V30 END BOND
M  V30 END CTAB
M  END
>  <Dataset>  (602) 
ChEMBL_Kinases

>  <Ligand_Instance>  (602) 
nan

>  <PDB_ID>  (602) 
nan

>  <Standardized_SMILES>  (602) 
COc1cc(-c2ccc3c(c2)Nc2cccc(O)c2NC3=O)ccc1N

>  <Name>  (602) 
nan

>  <Pocket>  (602) 
nan

>  <ATP_Site>  (602) 
nan

>  <Peripheral>  (602) 
nan

>  <Num_H_Atoms_ProtBoundConf>  (602) 
nan

>  <Num_Resolved_Atoms>  (602) 
nan

>  <Num_Not_Resolved_Atoms>  (602) 
nan

$$$$
CHEMBL243399
     RDKit          3D

  0  0  0  0  0  0  0  0  0  0999 V3000
M  V30 BEGIN CTAB
M  V30 COUNTS 61 65 0 0 0
M  V30 BEGIN ATOM
M  V30 1 C 7.391967 -5.470321 -1.141434 0
M  V30 2 C 6.621553 -4.225743 -0.890781 0
M  V30 3 O 5.460624 -4.417697 -1.387969 0
M  V30 4 N 7.025522 -3.036858 -0.242883 0
M  V30 5 C 6.103246 -1.955917 -0.115942 0
M  V30 6 C 5.283370 -1.891295 1.004979 0
M  V30 7 C 4.402148 -0.831291 1.095867 0
M  V30 8 C 4.296506 0.158024 0.137277 0
M  V30 9 C 3.305188 1.198619 0.409131 0
M  V30 10 N 3.468450 2.530427 0.272574 0
M  V30 11 N 2.367332 3.168765 0.605978 0
M  V30 12 C 1.451109 2.234092 0.972873 0
M  V30 13 C 2.001398 0.970962 0.863893 0
M  V30 14 C 1.024543 -0.072364 1.257767 0
M  V30 15 C -0.183019 0.750269 1.615924 0
M  V30 16 C -1.408070 0.299145 2.058068 0
M  V30 17 C -2.450000 1.151856 2.358889 0
M  V30 18 C -3.818184 0.844391 2.836973 0
M  V30 19 N -4.820554 0.732469 1.888889 0
M  V30 20 C -4.898574 -0.225931 0.893557 0 CFG=1
M  V30 21 C -3.785038 -0.287001 -0.131111 0
M  V30 22 C -4.435573 -0.886203 -1.394178 0
M  V30 23 C -4.719144 -2.330113 -1.071976 0 CFG=2
M  V30 24 C -6.021710 -2.803697 -1.692223 0
M  V30 25 C -4.633848 -2.657425 0.373431 0
M  V30 26 C -5.222929 -1.649047 1.314380 0
M  V30 27 C -2.123297 2.490923 2.166652 0
M  V30 28 C -0.920986 3.004277 1.728383 0
M  V30 29 C 0.076137 2.094788 1.446292 0
M  V30 30 C 5.130833 0.075974 -0.985035 0
M  V30 31 C 6.016287 -0.976821 -1.090326 0
M  V30 32 H 8.456378 -5.397431 -0.784311 0
M  V30 33 H 6.960338 -6.354495 -0.611483 0
M  V30 34 H 7.441711 -5.703962 -2.228552 0
M  V30 35 H 8.019424 -3.124428 0.076278 0
M  V30 36 H 5.372548 -2.671054 1.751845 0
M  V30 37 H 3.787245 -0.822694 1.981800 0
M  V30 38 H 2.183004 4.210382 0.604768 0
M  V30 39 H 1.382985 -0.571116 2.202397 0
M  V30 40 H 0.821657 -0.802182 0.468179 0
M  V30 41 H -1.665439 -0.759685 2.209948 0
M  V30 42 H -4.056034 1.680969 3.568977 0
M  V30 43 H -3.689136 -0.034363 3.518159 0
M  V30 44 H -5.747789 1.088828 2.205613 0
M  V30 45 H -5.808876 0.057670 0.256735 0
M  V30 46 H -3.296173 0.663271 -0.327144 0
M  V30 47 H -3.032563 -1.066982 0.203861 0
M  V30 48 H -5.449394 -0.410009 -1.539368 0
M  V30 49 H -3.774105 -0.722546 -2.247946 0
M  V30 50 H -3.927937 -2.908775 -1.637468 0
M  V30 51 H -6.913509 -2.568806 -1.075658 0
M  V30 52 H -5.937370 -3.920834 -1.770237 0
M  V30 53 H -6.126480 -2.393570 -2.709246 0
M  V30 54 H -3.601328 -2.968255 0.633562 0
M  V30 55 H -5.233826 -3.608242 0.512559 0
M  V30 56 H -6.316149 -1.838350 1.357060 0
M  V30 57 H -4.844444 -1.894545 2.329025 0
M  V30 58 H -2.880981 3.246699 2.377227 0
M  V30 59 H -0.763339 4.059243 1.610872 0
M  V30 60 H 5.001821 0.878184 -1.699811 0
M  V30 61 H 6.624660 -0.990793 -1.960129 0
M  V30 END ATOM
M  V30 BEGIN BOND
M  V30 1 1 1 2
M  V30 2 2 2 3
M  V30 3 1 2 4
M  V30 4 1 4 5
M  V30 5 2 5 6
M  V30 6 1 6 7
M  V30 7 2 7 8
M  V30 8 1 8 9
M  V30 9 2 9 10
M  V30 10 1 10 11
M  V30 11 1 11 12
M  V30 12 2 12 13
M  V30 13 1 13 14
M  V30 14 1 14 15
M  V30 15 2 15 16
M  V30 16 1 16 17
M  V30 17 1 17 18
M  V30 18 1 18 19
M  V30 19 1 19 20
M  V30 20 1 20 21
M  V30 21 1 21 22
M  V30 22 1 22 23
M  V30 23 1 23 24
M  V30 24 1 23 25
M  V30 25 1 25 26
M  V30 26 2 17 27
M  V30 27 1 27 28
M  V30 28 2 28 29
M  V30 29 1 8 30
M  V30 30 2 30 31
M  V30 31 1 31 5
M  V30 32 1 13 9
M  V30 33 1 29 15
M  V30 34 1 29 12
M  V30 35 1 26 20
M  V30 36 1 1 32
M  V30 37 1 1 33
M  V30 38 1 1 34
M  V30 39 1 4 35
M  V30 40 1 6 36
M  V30 41 1 7 37
M  V30 42 1 11 38
M  V30 43 1 14 39
M  V30 44 1 14 40
M  V30 45 1 16 41
M  V30 46 1 18 42
M  V30 47 1 18 43
M  V30 48 1 19 44
M  V30 49 1 20 45 CFG=3
M  V30 50 1 21 46
M  V30 51 1 21 47
M  V30 52 1 22 48
M  V30 53 1 22 49
M  V30 54 1 23 50 CFG=3
M  V30 55 1 24 51
M  V30 56 1 24 52
M  V30 57 1 24 53
M  V30 58 1 25 54
M  V30 59 1 25 55
M  V30 60 1 26 56
M  V30 61 1 26 57
M  V30 62 1 27 58
M  V30 63 1 28 59
M  V30 64 1 30 60
M  V30 65 1 31 61
M  V30 END BOND
M  V30 END CTAB
M  END
>  <Dataset>  (603) 
ChEMBL_Kinases

>  <Ligand_Instance>  (603) 
nan

>  <PDB_ID>  (603) 
nan

>  <Standardized_SMILES>  (603) 
CC(=O)Nc1ccc(-c2n[nH]c3c2Cc2cc(CN[C@H]4CC[C@H](C)CC4)ccc2-3)cc1

>  <Name>  (603) 
nan

>  <Pocket>  (603) 
nan

>  <ATP_Site>  (603) 
nan

>  <Peripheral>  (603) 
nan

>  <Num_H_Atoms_ProtBoundConf>  (603) 
nan

>  <Num_Resolved_Atoms>  (603) 
nan

>  <Num_Not_Resolved_Atoms>  (603) 
nan

$$$$
CHEMBL243398
     RDKit          3D

  0  0  0  0  0  0  0  0  0  0999 V3000
M  V30 BEGIN CTAB
M  V30 COUNTS 59 63 0 0 0
M  V30 BEGIN ATOM
M  V30 1 C 6.561768 -0.941921 3.988062 0
M  V30 2 C 5.890900 -0.196463 2.875974 0 CFG=1
M  V30 3 C 6.442342 1.199048 2.689116 0
M  V30 4 C 5.318734 1.995361 2.011768 0
M  V30 5 C 4.869840 1.257293 0.795701 0 CFG=2
M  V30 6 N 3.547583 0.727630 0.892222 0
M  V30 7 C 2.507786 1.704012 1.101064 0
M  V30 8 C 1.207553 0.948071 1.168975 0
M  V30 9 C 0.841366 0.530927 2.453393 0
M  V30 10 C -0.332822 -0.174677 2.656551 0
M  V30 11 C -1.143302 -0.469290 1.604662 0
M  V30 12 C -0.781487 -0.057026 0.335077 0
M  V30 13 C 0.383412 0.646565 0.111334 0
M  V30 14 C -1.841500 -0.511778 -0.609567 0
M  V30 15 C -2.822491 -1.211122 0.238565 0
M  V30 16 C -4.014974 -1.898529 0.261977 0
M  V30 17 C -4.895408 -2.222841 -0.857162 0
M  V30 18 C -4.520064 -2.715651 -2.086889 0
M  V30 19 C -5.480608 -2.970858 -3.040699 0
M  V30 20 C -6.825345 -2.747734 -2.806328 0
M  V30 21 S -8.089764 -3.047698 -3.964921 0
M  V30 22 N -8.714620 -4.636068 -3.857409 0
M  V30 23 O -7.594004 -2.853709 -5.375746 0
M  V30 24 O -9.231968 -2.076220 -3.798707 0
M  V30 25 C -7.239793 -2.249043 -1.571398 0
M  V30 26 C -6.251114 -1.997539 -0.619895 0
M  V30 27 N -4.271591 -2.251833 1.538920 0
M  V30 28 N -3.307099 -1.828096 2.339094 0
M  V30 29 C -2.409116 -1.187009 1.556899 0
M  V30 30 C 5.785549 0.098206 0.418453 0
M  V30 31 C 5.990568 -0.882461 1.531890 0
M  V30 32 H 6.066543 -0.657919 4.940593 0
M  V30 33 H 6.496669 -2.024949 3.776871 0
M  V30 34 H 7.619203 -0.587398 4.111358 0
M  V30 35 H 4.809661 -0.069938 3.164279 0
M  V30 36 H 7.329555 1.176893 2.029166 0
M  V30 37 H 6.671359 1.690969 3.657256 0
M  V30 38 H 4.549793 2.218494 2.751717 0
M  V30 39 H 5.803436 2.962051 1.713174 0
M  V30 40 H 4.926558 1.944581 -0.098387 0
M  V30 41 H 3.340275 0.045048 0.160213 0
M  V30 42 H 2.452234 2.400255 0.257348 0
M  V30 43 H 2.647719 2.280125 2.028521 0
M  V30 44 H 1.457264 0.742164 3.331120 0
M  V30 45 H -0.584545 -0.481098 3.661426 0
M  V30 46 H 0.716886 0.993680 -0.855760 0
M  V30 47 H -1.329229 -1.176522 -1.327463 0
M  V30 48 H -2.209309 0.359340 -1.147909 0
M  V30 49 H -3.476771 -2.874096 -2.229251 0
M  V30 50 H -5.193137 -3.358413 -4.010019 0
M  V30 51 H -7.928121 -5.330888 -3.721420 0
M  V30 52 H -9.294150 -4.702876 -2.992704 0
M  V30 53 H -8.285524 -2.054152 -1.331370 0
M  V30 54 H -6.607092 -1.607664 0.336660 0
M  V30 55 H -3.319626 -2.000011 3.359458 0
M  V30 56 H 6.756745 0.531786 0.065629 0
M  V30 57 H 5.323827 -0.373603 -0.470385 0
M  V30 58 H 7.033117 -1.288715 1.443304 0
M  V30 59 H 5.315199 -1.751628 1.425150 0
M  V30 END ATOM
M  V30 BEGIN BOND
M  V30 1 1 1 2
M  V30 2 1 2 3
M  V30 3 1 3 4
M  V30 4 1 4 5
M  V30 5 1 5 6
M  V30 6 1 6 7
M  V30 7 1 7 8
M  V30 8 2 8 9
M  V30 9 1 9 10
M  V30 10 2 10 11
M  V30 11 1 11 12
M  V30 12 2 12 13
M  V30 13 1 12 14
M  V30 14 1 14 15
M  V30 15 1 15 16
M  V30 16 1 16 17
M  V30 17 2 17 18
M  V30 18 1 18 19
M  V30 19 2 19 20
M  V30 20 1 20 21
M  V30 21 1 21 22
M  V30 22 2 21 23
M  V30 23 2 21 24
M  V30 24 1 20 25
M  V30 25 2 25 26
M  V30 26 2 16 27
M  V30 27 1 27 28
M  V30 28 1 28 29
M  V30 29 1 5 30
M  V30 30 1 30 31
M  V30 31 1 31 2
M  V30 32 1 13 8
M  V30 33 2 29 15
M  V30 34 1 29 11
M  V30 35 1 26 17
M  V30 36 1 1 32
M  V30 37 1 1 33
M  V30 38 1 1 34
M  V30 39 1 2 35 CFG=1
M  V30 40 1 3 36
M  V30 41 1 3 37
M  V30 42 1 4 38
M  V30 43 1 4 39
M  V30 44 1 5 40 CFG=3
M  V30 45 1 6 41
M  V30 46 1 7 42
M  V30 47 1 7 43
M  V30 48 1 9 44
M  V30 49 1 10 45
M  V30 50 1 13 46
M  V30 51 1 14 47
M  V30 52 1 14 48
M  V30 53 1 18 49
M  V30 54 1 19 50
M  V30 55 1 22 51
M  V30 56 1 22 52
M  V30 57 1 25 53
M  V30 58 1 26 54
M  V30 59 1 28 55
M  V30 60 1 30 56
M  V30 61 1 30 57
M  V30 62 1 31 58
M  V30 63 1 31 59
M  V30 END BOND
M  V30 END CTAB
M  END
>  <Dataset>  (604) 
ChEMBL_Kinases

>  <Ligand_Instance>  (604) 
nan

>  <PDB_ID>  (604) 
nan

>  <Standardized_SMILES>  (604) 
C[C@H]1CC[C@H](NCc2ccc3c(c2)Cc2c(-c4ccc(S(N)(=O)=O)cc4)n[nH]c2-3)CC1

>  <Name>  (604) 
nan

>  <Pocket>  (604) 
nan

>  <ATP_Site>  (604) 
nan

>  <Peripheral>  (604) 
nan

>  <Num_H_Atoms_ProtBoundConf>  (604) 
nan

>  <Num_Resolved_Atoms>  (604) 
nan

>  <Num_Not_Resolved_Atoms>  (604) 
nan

$$$$
CHEMBL243299
     RDKit          3D

  0  0  0  0  0  0  0  0  0  0999 V3000
M  V30 BEGIN CTAB
M  V30 COUNTS 37 39 0 0 0
M  V30 BEGIN ATOM
M  V30 1 O -0.262280 -0.671933 2.672625 0
M  V30 2 C 0.500740 -1.659802 2.559236 0
M  V30 3 O -0.301651 -2.749784 2.763314 0
M  V30 4 C 1.921288 -1.750436 2.278582 0
M  V30 5 C 2.506462 -2.992502 2.263203 0
M  V30 6 C 3.858526 -3.112753 2.033481 0
M  V30 7 C 4.703979 -2.034845 1.808206 0
M  V30 8 C 4.080460 -0.801727 1.830190 0
M  V30 9 C 2.728360 -0.681764 2.059587 0
M  V30 10 N 2.233506 0.648821 2.053885 0
M  V30 11 C 1.293521 1.293078 1.194876 0
M  V30 12 C 0.918025 2.592617 1.453901 0
M  V30 13 C 0.025554 3.230095 0.624904 0
M  V30 14 N -0.483361 2.588417 -0.439570 0
M  V30 15 C -0.127685 1.301446 -0.717611 0
M  V30 16 N -0.585659 0.502239 -1.800497 0
M  V30 17 C -1.721999 -0.337968 -1.636372 0
M  V30 18 C -2.394609 -0.408908 -0.431994 0
M  V30 19 C -3.506691 -1.214845 -0.222735 0
M  V30 20 C -3.956375 -1.988285 -1.296216 0
M  V30 21 F -5.042303 -2.789373 -1.126758 0
M  V30 22 C -3.278831 -1.918389 -2.513827 0
M  V30 23 C -2.169498 -1.103687 -2.695011 0
M  V30 24 N 0.743985 0.721444 0.116569 0
M  V30 25 H -1.032948 -2.845432 3.457047 0
M  V30 26 H 1.924251 -3.913009 2.430585 0
M  V30 27 H 4.295769 -4.100693 2.026763 0
M  V30 28 H 5.752173 -2.226972 1.637406 0
M  V30 29 H 4.732422 0.050571 1.655454 0
M  V30 30 H 2.662901 1.183863 2.822428 0
M  V30 31 H 1.322083 3.119592 2.308925 0
M  V30 32 H -0.269239 4.245838 0.824627 0
M  V30 33 H -0.085327 0.542965 -2.694858 0
M  V30 34 H -2.006401 0.206460 0.361205 0
M  V30 35 H -4.009990 -1.239484 0.752983 0
M  V30 36 H -3.681465 -2.541436 -3.296890 0
M  V30 37 H -1.690045 -1.099845 -3.674672 0
M  V30 END ATOM
M  V30 BEGIN BOND
M  V30 1 2 1 2
M  V30 2 1 2 3
M  V30 3 1 2 4
M  V30 4 2 4 5
M  V30 5 1 5 6
M  V30 6 2 6 7
M  V30 7 1 7 8
M  V30 8 2 8 9
M  V30 9 1 9 10
M  V30 10 1 10 11
M  V30 11 2 11 12
M  V30 12 1 12 13
M  V30 13 2 13 14
M  V30 14 1 14 15
M  V30 15 1 15 16
M  V30 16 1 16 17
M  V30 17 2 17 18
M  V30 18 1 18 19
M  V30 19 2 19 20
M  V30 20 1 20 21
M  V30 21 1 20 22
M  V30 22 2 22 23
M  V30 23 2 15 24
M  V30 24 1 9 4
M  V30 25 1 24 11
M  V30 26 1 23 17
M  V30 27 1 3 25
M  V30 28 1 5 26
M  V30 29 1 6 27
M  V30 30 1 7 28
M  V30 31 1 8 29
M  V30 32 1 10 30
M  V30 33 1 12 31
M  V30 34 1 13 32
M  V30 35 1 16 33
M  V30 36 1 18 34
M  V30 37 1 19 35
M  V30 38 1 22 36
M  V30 39 1 23 37
M  V30 END BOND
M  V30 END CTAB
M  END
>  <Dataset>  (605) 
ChEMBL_Kinases

>  <Ligand_Instance>  (605) 
nan

>  <PDB_ID>  (605) 
nan

>  <Standardized_SMILES>  (605) 
O=C(O)c1ccccc1Nc1ccnc(Nc2ccc(F)cc2)n1

>  <Name>  (605) 
nan

>  <Pocket>  (605) 
nan

>  <ATP_Site>  (605) 
nan

>  <Peripheral>  (605) 
nan

>  <Num_H_Atoms_ProtBoundConf>  (605) 
nan

>  <Num_Resolved_Atoms>  (605) 
nan

>  <Num_Not_Resolved_Atoms>  (605) 
nan

$$$$
CHEMBL243298
     RDKit          3D

  0  0  0  0  0  0  0  0  0  0999 V3000
M  V30 BEGIN CTAB
M  V30 COUNTS 37 39 0 0 0
M  V30 BEGIN ATOM
M  V30 1 O -0.155883 -0.396708 5.757835 0
M  V30 2 C 0.425630 -1.443870 5.397776 0
M  V30 3 O 0.517703 -2.177214 6.555314 0
M  V30 4 C 0.936798 -1.912322 4.115014 0
M  V30 5 C 1.546107 -3.161320 4.128264 0
M  V30 6 C 2.083066 -3.757801 3.037809 0
M  V30 7 C 2.021503 -3.085136 1.841955 0
M  V30 8 C 1.421890 -1.846100 1.807163 0
M  V30 9 C 0.879442 -1.250655 2.924319 0
M  V30 10 N 0.268907 0.021932 2.863738 0
M  V30 11 C 0.080333 0.908100 1.768648 0
M  V30 12 C -0.540558 2.139385 1.843955 0
M  V30 13 C -0.714403 2.983839 0.774568 0
M  V30 14 N -0.246192 2.576788 -0.420164 0
M  V30 15 C 0.373178 1.378270 -0.560207 0
M  V30 16 N 0.868357 0.948283 -1.824796 0
M  V30 17 C 0.115641 0.188468 -2.793327 0
M  V30 18 C 0.733882 -0.156040 -3.978580 0
M  V30 19 C -0.029127 -0.882254 -4.870437 0
M  V30 20 C -1.330927 -1.233331 -4.576179 0
M  V30 21 C -1.883695 -0.852960 -3.368494 0
M  V30 22 F -3.177503 -1.184507 -3.040525 0
M  V30 23 C -1.174549 -0.116174 -2.413135 0
M  V30 24 N 0.490637 0.643312 0.521088 0
M  V30 25 H -0.221778 -2.241840 7.228365 0
M  V30 26 H 1.616348 -3.731947 5.062384 0
M  V30 27 H 2.549907 -4.737637 3.098013 0
M  V30 28 H 2.458221 -3.579362 0.975019 0
M  V30 29 H 1.431616 -1.419085 0.830382 0
M  V30 30 H -0.134252 0.452202 3.717662 0
M  V30 31 H -0.920655 2.463114 2.828498 0
M  V30 32 H -1.215873 3.921994 0.958254 0
M  V30 33 H 1.861974 1.231300 -2.018776 0
M  V30 34 H 1.757977 0.141791 -4.165796 0
M  V30 35 H 0.411535 -1.177288 -5.816433 0
M  V30 36 H -1.927324 -1.801362 -5.274099 0
M  V30 37 H -1.580285 0.189711 -1.472101 0
M  V30 END ATOM
M  V30 BEGIN BOND
M  V30 1 2 1 2
M  V30 2 1 2 3
M  V30 3 1 2 4
M  V30 4 2 4 5
M  V30 5 1 5 6
M  V30 6 2 6 7
M  V30 7 1 7 8
M  V30 8 2 8 9
M  V30 9 1 9 10
M  V30 10 1 10 11
M  V30 11 2 11 12
M  V30 12 1 12 13
M  V30 13 2 13 14
M  V30 14 1 14 15
M  V30 15 1 15 16
M  V30 16 1 16 17
M  V30 17 2 17 18
M  V30 18 1 18 19
M  V30 19 2 19 20
M  V30 20 1 20 21
M  V30 21 1 21 22
M  V30 22 2 21 23
M  V30 23 2 15 24
M  V30 24 1 9 4
M  V30 25 1 24 11
M  V30 26 1 23 17
M  V30 27 1 3 25
M  V30 28 1 5 26
M  V30 29 1 6 27
M  V30 30 1 7 28
M  V30 31 1 8 29
M  V30 32 1 10 30
M  V30 33 1 12 31
M  V30 34 1 13 32
M  V30 35 1 16 33
M  V30 36 1 18 34
M  V30 37 1 19 35
M  V30 38 1 20 36
M  V30 39 1 23 37
M  V30 END BOND
M  V30 END CTAB
M  END
>  <Dataset>  (606) 
ChEMBL_Kinases

>  <Ligand_Instance>  (606) 
nan

>  <PDB_ID>  (606) 
nan

>  <Standardized_SMILES>  (606) 
O=C(O)c1ccccc1Nc1ccnc(Nc2cccc(F)c2)n1

>  <Name>  (606) 
nan

>  <Pocket>  (606) 
nan

>  <ATP_Site>  (606) 
nan

>  <Peripheral>  (606) 
nan

>  <Num_H_Atoms_ProtBoundConf>  (606) 
nan

>  <Num_Resolved_Atoms>  (606) 
nan

>  <Num_Not_Resolved_Atoms>  (606) 
nan

$$$$
CHEMBL243297
     RDKit          3D

  0  0  0  0  0  0  0  0  0  0999 V3000
M  V30 BEGIN CTAB
M  V30 COUNTS 38 40 0 0 0
M  V30 BEGIN ATOM
M  V30 1 O 0.213744 -5.636353 -1.081836 0
M  V30 2 C 0.233372 -4.380946 -1.125024 0
M  V30 3 O -1.057222 -4.116420 -1.522807 0
M  V30 4 C 1.365375 -3.534880 -0.818273 0
M  V30 5 C 2.510266 -4.207258 -0.448273 0
M  V30 6 C 3.629407 -3.425947 -0.142834 0
M  V30 7 C 3.584636 -2.034102 -0.210686 0
M  V30 8 C 2.411360 -1.371649 -0.588819 0
M  V30 9 C 1.331944 -2.174547 -0.881490 0
M  V30 10 N 0.153454 -1.498094 -1.261763 0
M  V30 11 C 0.121047 -0.076505 -1.327003 0
M  V30 12 C 0.429045 0.664305 -2.445970 0
M  V30 13 C 0.338858 2.031698 -2.311732 0
M  V30 14 N -0.027913 2.601288 -1.156468 0
M  V30 15 C -0.327021 1.902715 -0.072341 0
M  V30 16 N -0.709777 2.559511 1.125615 0
M  V30 17 C -1.063963 1.996351 2.376344 0
M  V30 18 C -1.105483 0.655309 2.677554 0
M  V30 19 C -1.449572 0.105314 3.892895 0
M  V30 20 C -1.786208 0.973459 4.911399 0
M  V30 21 O -2.147132 0.514667 6.171830 0
M  V30 22 C -1.761967 2.330641 4.665910 0
M  V30 23 C -1.408520 2.815948 3.427177 0
M  V30 24 N -0.234892 0.585611 -0.219204 0
M  V30 25 H -1.885356 -4.221557 -0.940519 0
M  V30 26 H 2.696159 -5.267041 -0.351042 0
M  V30 27 H 4.580242 -3.863854 0.159740 0
M  V30 28 H 4.475031 -1.451480 0.033841 0
M  V30 29 H 2.380723 -0.305413 -0.639693 0
M  V30 30 H -0.801688 -1.794658 -1.536973 0
M  V30 31 H 0.715709 0.142844 -3.339601 0
M  V30 32 H 0.576729 2.632145 -3.179385 0
M  V30 33 H -0.735470 3.622776 1.082261 0
M  V30 34 H -0.852396 -0.062774 1.919764 0
M  V30 35 H -1.460377 -0.962202 4.058392 0
M  V30 36 H -2.017634 -0.462276 6.400766 0
M  V30 37 H -2.026009 3.003866 5.465717 0
M  V30 38 H -1.413781 3.888375 3.314710 0
M  V30 END ATOM
M  V30 BEGIN BOND
M  V30 1 2 1 2
M  V30 2 1 2 3
M  V30 3 1 2 4
M  V30 4 2 4 5
M  V30 5 1 5 6
M  V30 6 2 6 7
M  V30 7 1 7 8
M  V30 8 2 8 9
M  V30 9 1 9 10
M  V30 10 1 10 11
M  V30 11 2 11 12
M  V30 12 1 12 13
M  V30 13 2 13 14
M  V30 14 1 14 15
M  V30 15 1 15 16
M  V30 16 1 16 17
M  V30 17 2 17 18
M  V30 18 1 18 19
M  V30 19 2 19 20
M  V30 20 1 20 21
M  V30 21 1 20 22
M  V30 22 2 22 23
M  V30 23 2 15 24
M  V30 24 1 9 4
M  V30 25 1 24 11
M  V30 26 1 23 17
M  V30 27 1 3 25
M  V30 28 1 5 26
M  V30 29 1 6 27
M  V30 30 1 7 28
M  V30 31 1 8 29
M  V30 32 1 10 30
M  V30 33 1 12 31
M  V30 34 1 13 32
M  V30 35 1 16 33
M  V30 36 1 18 34
M  V30 37 1 19 35
M  V30 38 1 21 36
M  V30 39 1 22 37
M  V30 40 1 23 38
M  V30 END BOND
M  V30 END CTAB
M  END
>  <Dataset>  (607) 
ChEMBL_Kinases

>  <Ligand_Instance>  (607) 
nan

>  <PDB_ID>  (607) 
nan

>  <Standardized_SMILES>  (607) 
O=C(O)c1ccccc1Nc1ccnc(Nc2ccc(O)cc2)n1

>  <Name>  (607) 
nan

>  <Pocket>  (607) 
nan

>  <ATP_Site>  (607) 
nan

>  <Peripheral>  (607) 
nan

>  <Num_H_Atoms_ProtBoundConf>  (607) 
nan

>  <Num_Resolved_Atoms>  (607) 
nan

>  <Num_Not_Resolved_Atoms>  (607) 
nan

$$$$
CHEMBL2432026
     RDKit          3D

  0  0  0  0  0  0  0  0  0  0999 V3000
M  V30 BEGIN CTAB
M  V30 COUNTS 24 26 0 0 0
M  V30 BEGIN ATOM
M  V30 1 O -1.234801 -1.318198 1.591144 0
M  V30 2 C -0.241389 -2.061328 1.391980 0
M  V30 3 N -0.368168 -3.383056 1.629115 0
M  V30 4 C 0.705164 -4.193588 1.413558 0
M  V30 5 N 1.879327 -3.695589 0.970862 0
M  V30 6 C 2.079330 -2.406163 0.715636 0
M  V30 7 N 3.008805 -1.550144 0.291938 0
M  V30 8 N 2.557095 -0.308927 0.246365 0
M  V30 9 C 1.275933 -0.298309 0.650052 0
M  V30 10 C 0.595720 0.988803 0.663938 0
M  V30 11 C 0.697495 1.796114 -0.471271 0
M  V30 12 C 0.134637 3.048482 -0.640074 0
M  V30 13 C -0.591590 3.519095 0.433616 0
M  V30 14 C -0.735469 2.777924 1.587907 0
M  V30 15 C -0.146294 1.546911 1.675061 0
M  V30 16 C 0.981668 -1.612602 0.941781 0
M  V30 17 H -1.264455 -3.766138 1.967402 0
M  V30 18 H 0.607409 -5.270216 1.605081 0
M  V30 19 H 3.980885 -1.888145 0.035959 0
M  V30 20 H 1.270603 1.419081 -1.312204 0
M  V30 21 H 0.264849 3.593117 -1.541928 0
M  V30 22 H -1.039505 4.502896 0.313244 0
M  V30 23 H -1.310356 3.163384 2.423321 0
M  V30 24 H -0.254753 0.988341 2.571528 0
M  V30 END ATOM
M  V30 BEGIN BOND
M  V30 1 2 1 2
M  V30 2 1 2 3
M  V30 3 1 3 4
M  V30 4 2 4 5
M  V30 5 1 5 6
M  V30 6 1 6 7
M  V30 7 1 7 8
M  V30 8 2 8 9
M  V30 9 1 9 10
M  V30 10 2 10 11
M  V30 11 1 11 12
M  V30 12 2 12 13
M  V30 13 1 13 14
M  V30 14 2 14 15
M  V30 15 1 9 16
M  V30 16 1 16 2
M  V30 17 2 16 6
M  V30 18 1 15 10
M  V30 19 1 3 17
M  V30 20 1 4 18
M  V30 21 1 7 19
M  V30 22 1 11 20
M  V30 23 1 12 21
M  V30 24 1 13 22
M  V30 25 1 14 23
M  V30 26 1 15 24
M  V30 END BOND
M  V30 END CTAB
M  END
>  <Dataset>  (608) 
ChEMBL_Kinases

>  <Ligand_Instance>  (608) 
nan

>  <PDB_ID>  (608) 
nan

>  <Standardized_SMILES>  (608) 
O=c1[nH]cnc2[nH]nc(-c3ccccc3)c12

>  <Name>  (608) 
nan

>  <Pocket>  (608) 
nan

>  <ATP_Site>  (608) 
nan

>  <Peripheral>  (608) 
nan

>  <Num_H_Atoms_ProtBoundConf>  (608) 
nan

>  <Num_Resolved_Atoms>  (608) 
nan

>  <Num_Not_Resolved_Atoms>  (608) 
nan

$$$$
CHEMBL243188
     RDKit          3D

  0  0  0  0  0  0  0  0  0  0999 V3000
M  V30 BEGIN CTAB
M  V30 COUNTS 53 57 0 0 0
M  V30 BEGIN ATOM
M  V30 1 N 7.124846 -5.143495 3.759767 0
M  V30 2 C 6.733887 -5.041528 2.413027 0
M  V30 3 O 7.317155 -6.050393 1.946990 0
M  V30 4 C 5.891886 -4.032192 1.794219 0
M  V30 5 C 5.373648 -3.009818 2.568412 0
M  V30 6 C 4.582203 -2.086172 1.915148 0
M  V30 7 C 4.326435 -2.184713 0.561135 0
M  V30 8 C 3.494729 -1.239115 -0.197841 0
M  V30 9 N 3.847476 -0.736251 -1.402701 0
M  V30 10 N 2.930133 0.092211 -1.877565 0
M  V30 11 C 1.940387 0.140747 -0.962118 0
M  V30 12 C 2.262357 -0.682345 0.103692 0
M  V30 13 C 1.210153 -0.677632 1.156426 0
M  V30 14 C 0.201409 0.262164 0.584814 0
M  V30 15 C -1.024262 0.732390 1.025243 0
M  V30 16 C -1.808619 1.622506 0.311883 0
M  V30 17 C -3.088687 2.058044 0.866051 0
M  V30 18 N -4.191569 1.275220 0.525987 0
M  V30 19 C -4.565196 1.105101 -0.813683 0
M  V30 20 C -6.096385 1.077545 -0.882345 0
M  V30 21 C -6.602988 -0.109605 -0.088063 0
M  V30 22 O -7.600705 0.379059 0.785738 0
M  V30 23 C -5.511569 -0.680288 0.792940 0
M  V30 24 C -4.814816 0.489692 1.491242 0
M  V30 25 C -1.303901 2.041390 -0.904102 0
M  V30 26 C -0.091302 1.623233 -1.419334 0
M  V30 27 C 0.629353 0.733877 -0.643052 0
M  V30 28 C 4.867100 -3.230470 -0.186533 0
M  V30 29 C 5.673902 -4.185715 0.440079 0
M  V30 30 H 6.672488 -4.847513 4.658957 0
M  V30 31 H 6.735299 -4.875651 4.712828 0
M  V30 32 H 5.573421 -2.931732 3.629058 0
M  V30 33 H 4.141046 -1.257967 2.453558 0
M  V30 34 H 2.980054 0.601407 -2.787885 0
M  V30 35 H 1.610185 -0.233136 2.091673 0
M  V30 36 H 0.811454 -1.697452 1.321961 0
M  V30 37 H -1.393043 0.385206 1.983088 0
M  V30 38 H -3.225272 3.138925 0.573054 0
M  V30 39 H -2.995969 2.067699 1.972041 0
M  V30 40 H -4.131559 1.818747 -1.501929 0
M  V30 41 H -4.237007 0.095362 -1.165275 0
M  V30 42 H -6.419306 0.895409 -1.946101 0
M  V30 43 H -6.525485 2.019919 -0.535205 0
M  V30 44 H -7.043947 -0.898984 -0.731359 0
M  V30 45 H -7.549031 1.366372 0.858162 0
M  V30 46 H -5.973124 -1.307115 1.578724 0
M  V30 47 H -4.790668 -1.285615 0.229878 0
M  V30 48 H -4.012225 -0.012015 2.108067 0
M  V30 49 H -5.495850 1.017414 2.152450 0
M  V30 50 H -1.891068 2.738142 -1.489392 0
M  V30 51 H 0.255103 1.983876 -2.377460 0
M  V30 52 H 4.683474 -3.336279 -1.259415 0
M  V30 53 H 6.100037 -5.002445 -0.127333 0
M  V30 END ATOM
M  V30 BEGIN BOND
M  V30 1 1 1 2
M  V30 2 2 2 3
M  V30 3 1 2 4
M  V30 4 2 4 5
M  V30 5 1 5 6
M  V30 6 2 6 7
M  V30 7 1 7 8
M  V30 8 2 8 9
M  V30 9 1 9 10
M  V30 10 1 10 11
M  V30 11 2 11 12
M  V30 12 1 12 13
M  V30 13 1 13 14
M  V30 14 2 14 15
M  V30 15 1 15 16
M  V30 16 1 16 17
M  V30 17 1 17 18
M  V30 18 1 18 19
M  V30 19 1 19 20
M  V30 20 1 20 21
M  V30 21 1 21 22
M  V30 22 1 21 23
M  V30 23 1 23 24
M  V30 24 2 16 25
M  V30 25 1 25 26
M  V30 26 2 26 27
M  V30 27 1 7 28
M  V30 28 2 28 29
M  V30 29 1 29 4
M  V30 30 1 12 8
M  V30 31 1 27 14
M  V30 32 1 27 11
M  V30 33 1 24 18
M  V30 34 1 1 30
M  V30 35 1 1 31
M  V30 36 1 5 32
M  V30 37 1 6 33
M  V30 38 1 10 34
M  V30 39 1 13 35
M  V30 40 1 13 36
M  V30 41 1 15 37
M  V30 42 1 17 38
M  V30 43 1 17 39
M  V30 44 1 19 40
M  V30 45 1 19 41
M  V30 46 1 20 42
M  V30 47 1 20 43
M  V30 48 1 21 44
M  V30 49 1 22 45
M  V30 50 1 23 46
M  V30 51 1 23 47
M  V30 52 1 24 48
M  V30 53 1 24 49
M  V30 54 1 25 50
M  V30 55 1 26 51
M  V30 56 1 28 52
M  V30 57 1 29 53
M  V30 END BOND
M  V30 END CTAB
M  END
>  <Dataset>  (609) 
ChEMBL_Kinases

>  <Ligand_Instance>  (609) 
nan

>  <PDB_ID>  (609) 
nan

>  <Standardized_SMILES>  (609) 
NC(=O)c1ccc(-c2n[nH]c3c2Cc2cc(CN4CCC(O)CC4)ccc2-3)cc1

>  <Name>  (609) 
nan

>  <Pocket>  (609) 
nan

>  <ATP_Site>  (609) 
nan

>  <Peripheral>  (609) 
nan

>  <Num_H_Atoms_ProtBoundConf>  (609) 
nan

>  <Num_Resolved_Atoms>  (609) 
nan

>  <Num_Not_Resolved_Atoms>  (609) 
nan

$$$$
CHEMBL2431324
     RDKit          3D

  0  0  0  0  0  0  0  0  0  0999 V3000
M  V30 BEGIN CTAB
M  V30 COUNTS 17 17 0 0 0
M  V30 BEGIN ATOM
M  V30 1 O 2.589843 -2.211812 0.622677 0
M  V30 2 C 1.486209 -1.833288 1.134030 0
M  V30 3 O 0.579811 -2.705406 1.691835 0
M  V30 4 C 1.239638 -0.397214 1.090809 0
M  V30 5 C 2.058940 0.505596 0.573288 0
M  V30 6 C 1.471129 1.866318 0.710566 0
M  V30 7 O 0.603193 2.055246 -0.348126 0
M  V30 8 C 0.627298 1.662570 1.957020 0
M  V30 9 C 0.037268 0.305298 1.614079 0
M  V30 10 H 0.715703 -3.708971 1.571042 0
M  V30 11 H 3.023785 0.348462 0.106019 0
M  V30 12 H 2.226072 2.651754 0.825641 0
M  V30 13 H 1.022362 2.082142 -1.235635 0
M  V30 14 H -0.139649 2.445373 2.054841 0
M  V30 15 H 1.290450 1.542841 2.833573 0
M  V30 16 H -0.416857 -0.190278 2.490520 0
M  V30 17 H -0.698244 0.488424 0.784846 0
M  V30 END ATOM
M  V30 BEGIN BOND
M  V30 1 2 1 2
M  V30 2 1 2 3
M  V30 3 1 2 4
M  V30 4 2 4 5
M  V30 5 1 5 6
M  V30 6 1 6 7
M  V30 7 1 6 8
M  V30 8 1 8 9
M  V30 9 1 9 4
M  V30 10 1 3 10
M  V30 11 1 5 11
M  V30 12 1 6 12
M  V30 13 1 7 13
M  V30 14 1 8 14
M  V30 15 1 8 15
M  V30 16 1 9 16
M  V30 17 1 9 17
M  V30 END BOND
M  V30 END CTAB
M  END
>  <Dataset>  (610) 
ChEMBL_Kinases

>  <Ligand_Instance>  (610) 
nan

>  <PDB_ID>  (610) 
nan

>  <Standardized_SMILES>  (610) 
O=C(O)C1=CC(O)CC1

>  <Name>  (610) 
nan

>  <Pocket>  (610) 
nan

>  <ATP_Site>  (610) 
nan

>  <Peripheral>  (610) 
nan

>  <Num_H_Atoms_ProtBoundConf>  (610) 
nan

>  <Num_Resolved_Atoms>  (610) 
nan

>  <Num_Not_Resolved_Atoms>  (610) 
nan

$$$$
CHEMBL243097
     RDKit          3D

  0  0  0  0  0  0  0  0  0  0999 V3000
M  V30 BEGIN CTAB
M  V30 COUNTS 47 51 0 0 0
M  V30 BEGIN ATOM
M  V30 1 C 1.837061 -6.823664 3.910705 0
M  V30 2 N 2.447772 -5.493350 3.938265 0
M  V30 3 C 3.351021 -5.129738 4.867898 0
M  V30 4 C 3.684520 -3.814496 4.556649 0
M  V30 5 C 2.963595 -3.430600 3.441079 0
M  V30 6 C 2.892163 -2.262284 2.704151 0
M  V30 7 C 2.046634 -2.167731 1.592889 0
M  V30 8 C 1.914798 -0.979827 0.769453 0
M  V30 9 O 2.574623 -0.676190 -0.247175 0
M  V30 10 N 1.025689 0.108695 0.907982 0
M  V30 11 C 1.292547 1.061756 -0.185815 0
M  V30 12 C 0.329027 2.242079 -0.005946 0
M  V30 13 N -1.021725 1.799693 0.058526 0
M  V30 14 C -1.198645 0.882708 1.051536 0
M  V30 15 C -2.528328 0.523551 1.089843 0
M  V30 16 N -3.067155 1.244211 0.118718 0
M  V30 17 C -2.188727 2.025929 -0.528192 0
M  V30 18 C -2.603871 2.901846 -1.592617 0
M  V30 19 C -3.931985 3.267075 -1.642306 0
M  V30 20 C -4.454580 4.067627 -2.629049 0
M  V30 21 C -3.683020 4.569339 -3.652190 0
M  V30 22 F -4.280837 5.349851 -4.580329 0
M  V30 23 C -2.350841 4.222262 -3.632969 0
M  V30 24 C -1.872958 3.418251 -2.625547 0
M  V30 25 F -0.567790 3.117252 -2.754642 0
M  V30 26 C -0.033560 0.415739 1.886810 0
M  V30 27 C 1.268728 -3.272812 1.231139 0
M  V30 28 Cl 0.189976 -3.181028 -0.170649 0
M  V30 29 C 1.340814 -4.440703 1.968649 0
M  V30 30 C 2.184491 -4.504244 3.060406 0
M  V30 31 H 1.298589 -6.994933 2.951095 0
M  V30 32 H 2.588168 -7.635322 3.990238 0
M  V30 33 H 1.063548 -6.874106 4.699296 0
M  V30 34 H 3.742522 -5.713557 5.681719 0
M  V30 35 H 4.375936 -3.153982 5.056462 0
M  V30 36 H 3.483483 -1.394412 2.963696 0
M  V30 37 H 1.173383 0.610126 -1.171491 0
M  V30 38 H 2.344678 1.380398 -0.059731 0
M  V30 39 H 0.584252 3.121346 -0.566230 0
M  V30 40 H 0.575569 2.568064 1.078086 0
M  V30 41 H -3.051189 -0.170808 1.734950 0
M  V30 42 H -4.645956 2.926181 -0.876238 0
M  V30 43 H -5.505794 4.314342 -2.602703 0
M  V30 44 H -1.732942 4.601701 -4.420335 0
M  V30 45 H -0.285582 -0.476844 2.459672 0
M  V30 46 H 0.263748 1.225019 2.570187 0
M  V30 47 H 0.758235 -5.318682 1.725649 0
M  V30 END ATOM
M  V30 BEGIN BOND
M  V30 1 1 1 2
M  V30 2 1 2 3
M  V30 3 2 3 4
M  V30 4 1 4 5
M  V30 5 2 5 6
M  V30 6 1 6 7
M  V30 7 1 7 8
M  V30 8 2 8 9
M  V30 9 1 8 10
M  V30 10 1 10 11
M  V30 11 1 11 12
M  V30 12 1 12 13
M  V30 13 1 13 14
M  V30 14 2 14 15
M  V30 15 1 15 16
M  V30 16 2 16 17
M  V30 17 1 17 18
M  V30 18 2 18 19
M  V30 19 1 19 20
M  V30 20 2 20 21
M  V30 21 1 21 22
M  V30 22 1 21 23
M  V30 23 2 23 24
M  V30 24 1 24 25
M  V30 25 1 14 26
M  V30 26 2 7 27
M  V30 27 1 27 28
M  V30 28 1 27 29
M  V30 29 2 29 30
M  V30 30 1 30 2
M  V30 31 1 30 5
M  V30 32 1 26 10
M  V30 33 1 17 13
M  V30 34 1 24 18
M  V30 35 1 1 31
M  V30 36 1 1 32
M  V30 37 1 1 33
M  V30 38 1 3 34
M  V30 39 1 4 35
M  V30 40 1 6 36
M  V30 41 1 11 37
M  V30 42 1 11 38
M  V30 43 1 12 39
M  V30 44 1 12 40
M  V30 45 1 15 41
M  V30 46 1 19 42
M  V30 47 1 20 43
M  V30 48 1 23 44
M  V30 49 1 26 45
M  V30 50 1 26 46
M  V30 51 1 29 47
M  V30 END BOND
M  V30 END CTAB
M  END
>  <Dataset>  (611) 
ChEMBL_Kinases

>  <Ligand_Instance>  (611) 
nan

>  <PDB_ID>  (611) 
nan

>  <Standardized_SMILES>  (611) 
Cn1ccc2cc(C(=O)N3CCn4c(cnc4-c4ccc(F)cc4F)C3)c(Cl)cc21

>  <Name>  (611) 
nan

>  <Pocket>  (611) 
nan

>  <ATP_Site>  (611) 
nan

>  <Peripheral>  (611) 
nan

>  <Num_H_Atoms_ProtBoundConf>  (611) 
nan

>  <Num_Resolved_Atoms>  (611) 
nan

>  <Num_Not_Resolved_Atoms>  (611) 
nan

$$$$
CHEMBL243088
     RDKit          3D

  0  0  0  0  0  0  0  0  0  0999 V3000
M  V30 BEGIN CTAB
M  V30 COUNTS 38 40 0 0 0
M  V30 BEGIN ATOM
M  V30 1 O 1.110807 -5.566211 -1.232524 0
M  V30 2 C 1.068642 -4.305472 -1.195325 0
M  V30 3 O -0.055287 -4.116873 -1.948565 0
M  V30 4 C 2.015135 -3.451606 -0.508281 0
M  V30 5 C 3.031735 -4.117929 0.139726 0
M  V30 6 C 3.977059 -3.370987 0.815772 0
M  V30 7 C 3.929289 -1.985007 0.858029 0
M  V30 8 C 2.910995 -1.317633 0.209052 0
M  V30 9 C 1.983564 -2.078442 -0.455495 0
M  V30 10 N 0.931205 -1.429814 -1.125675 0
M  V30 11 C 0.673035 -0.037159 -1.230895 0
M  V30 12 C 1.142481 0.709928 -2.286056 0
M  V30 13 C 0.788598 2.036203 -2.205994 0
M  V30 14 N 0.062389 2.539526 -1.201384 0
M  V30 15 C -0.369797 1.785020 -0.204227 0
M  V30 16 N -1.139567 2.356999 0.843651 0
M  V30 17 C -1.673607 1.734722 2.000790 0
M  V30 18 C -1.513869 0.429875 2.367647 0
M  V30 19 C -2.045907 -0.148339 3.496361 0
M  V30 20 C -2.810323 0.623628 4.352996 0
M  V30 21 C -2.992247 1.945638 4.012937 0
M  V30 22 O -3.757173 2.746424 4.856443 0
M  V30 23 C -2.438486 2.472959 2.874044 0
M  V30 24 N -0.051260 0.483951 -0.235937 0
M  V30 25 H -0.992546 -4.344274 -1.660230 0
M  V30 26 H 3.128150 -5.194309 0.146637 0
M  V30 27 H 4.789846 -3.816201 1.338582 0
M  V30 28 H 4.645204 -1.354751 1.373711 0
M  V30 29 H 2.817575 -0.257117 0.203166 0
M  V30 30 H 0.142486 -1.811042 -1.669680 0
M  V30 31 H 1.719482 0.273891 -3.071775 0
M  V30 32 H 1.113258 2.718321 -2.998672 0
M  V30 33 H -1.340189 3.388543 0.745967 0
M  V30 34 H -0.941691 -0.232487 1.767885 0
M  V30 35 H -1.890038 -1.194841 3.745790 0
M  V30 36 H -3.236587 0.202240 5.235703 0
M  V30 37 H -4.618713 2.327816 5.238187 0
M  V30 38 H -2.638928 3.533677 2.689817 0
M  V30 END ATOM
M  V30 BEGIN BOND
M  V30 1 2 1 2
M  V30 2 1 2 3
M  V30 3 1 2 4
M  V30 4 2 4 5
M  V30 5 1 5 6
M  V30 6 2 6 7
M  V30 7 1 7 8
M  V30 8 2 8 9
M  V30 9 1 9 10
M  V30 10 1 10 11
M  V30 11 2 11 12
M  V30 12 1 12 13
M  V30 13 2 13 14
M  V30 14 1 14 15
M  V30 15 1 15 16
M  V30 16 1 16 17
M  V30 17 2 17 18
M  V30 18 1 18 19
M  V30 19 2 19 20
M  V30 20 1 20 21
M  V30 21 1 21 22
M  V30 22 2 21 23
M  V30 23 2 15 24
M  V30 24 1 9 4
M  V30 25 1 24 11
M  V30 26 1 23 17
M  V30 27 1 3 25
M  V30 28 1 5 26
M  V30 29 1 6 27
M  V30 30 1 7 28
M  V30 31 1 8 29
M  V30 32 1 10 30
M  V30 33 1 12 31
M  V30 34 1 13 32
M  V30 35 1 16 33
M  V30 36 1 18 34
M  V30 37 1 19 35
M  V30 38 1 20 36
M  V30 39 1 22 37
M  V30 40 1 23 38
M  V30 END BOND
M  V30 END CTAB
M  END
>  <Dataset>  (612) 
ChEMBL_Kinases

>  <Ligand_Instance>  (612) 
nan

>  <PDB_ID>  (612) 
nan

>  <Standardized_SMILES>  (612) 
O=C(O)c1ccccc1Nc1ccnc(Nc2cccc(O)c2)n1

>  <Name>  (612) 
nan

>  <Pocket>  (612) 
nan

>  <ATP_Site>  (612) 
nan

>  <Peripheral>  (612) 
nan

>  <Num_H_Atoms_ProtBoundConf>  (612) 
nan

>  <Num_Resolved_Atoms>  (612) 
nan

>  <Num_Not_Resolved_Atoms>  (612) 
nan

$$$$
CHEMBL243017
     RDKit          3D

  0  0  0  0  0  0  0  0  0  0999 V3000
M  V30 BEGIN CTAB
M  V30 COUNTS 51 53 0 0 0
M  V30 BEGIN ATOM
M  V30 1 C 0.373860 -5.516185 3.786133 0
M  V30 2 C 1.550785 -5.499941 2.837956 0
M  V30 3 C 2.845114 -5.553999 3.632676 0
M  V30 4 N 1.508605 -6.764119 2.096399 0
M  V30 5 C 1.524092 -4.326999 1.945770 0
M  V30 6 C 0.533235 -3.368011 1.931416 0
M  V30 7 C 0.538721 -2.266502 1.075330 0
M  V30 8 C 1.603472 -2.139008 0.195062 0
M  V30 9 C 1.635455 -0.980532 -0.724639 0
M  V30 10 N 1.363008 0.265025 -0.345641 0
M  V30 11 C 1.384799 1.361740 -1.131602 0
M  V30 12 N 1.019463 2.517709 -0.349645 0
M  V30 13 C -0.268108 3.124759 -0.289023 0
M  V30 14 C -0.526363 4.147031 0.633450 0
M  V30 15 C -1.790117 4.702623 0.631747 0
M  V30 16 C -2.748963 4.235259 -0.273353 0
M  V30 17 C -4.094857 4.894769 -0.197235 0
M  V30 18 C -5.002203 4.110388 0.752836 0
M  V30 19 O -4.496772 4.028017 2.033470 0
M  V30 20 C -2.472355 3.227132 -1.173861 0
M  V30 21 C -1.202211 2.647877 -1.192188 0
M  V30 22 N 1.710616 1.206823 -2.426355 0
M  V30 23 C 1.997141 -0.034801 -2.870041 0
M  V30 24 C 1.972017 -1.151100 -2.059318 0
M  V30 25 C 2.279423 -2.439330 -2.610378 0
M  V30 26 N 2.545171 -3.499279 -3.053476 0
M  V30 27 C 2.631467 -3.085245 0.173210 0
M  V30 28 C 2.566776 -4.167876 1.057431 0
M  V30 29 H 0.326307 -4.553235 4.356299 0
M  V30 30 H 0.544002 -6.300898 4.581333 0
M  V30 31 H -0.585912 -5.757711 3.319431 0
M  V30 32 H 3.507363 -6.385749 3.315327 0
M  V30 33 H 2.575794 -5.789475 4.689622 0
M  V30 34 H 3.411253 -4.603324 3.594512 0
M  V30 35 H 1.890940 -6.664009 1.128528 0
M  V30 36 H 0.523346 -7.083640 2.070417 0
M  V30 37 H -0.276623 -3.479585 2.614533 0
M  V30 38 H -0.283280 -1.562021 1.135545 0
M  V30 39 H 1.878771 2.818516 0.158987 0
M  V30 40 H 0.303097 4.416140 1.278698 0
M  V30 41 H -1.972127 5.490419 1.352667 0
M  V30 42 H -4.592302 4.968162 -1.180556 0
M  V30 43 H -4.017592 5.916389 0.215101 0
M  V30 44 H -5.045013 3.061936 0.342957 0
M  V30 45 H -6.025319 4.512213 0.718716 0
M  V30 46 H -3.745284 3.388352 2.113709 0
M  V30 47 H -3.251349 2.885686 -1.870850 0
M  V30 48 H -0.999033 1.872124 -1.889133 0
M  V30 49 H 2.247687 -0.077317 -3.913450 0
M  V30 50 H 3.466078 -3.002878 -0.493827 0
M  V30 51 H 3.385627 -4.873024 0.999960 0
M  V30 END ATOM
M  V30 BEGIN BOND
M  V30 1 1 1 2
M  V30 2 1 2 3
M  V30 3 1 2 4
M  V30 4 1 2 5
M  V30 5 2 5 6
M  V30 6 1 6 7
M  V30 7 2 7 8
M  V30 8 1 8 9
M  V30 9 2 9 10
M  V30 10 1 10 11
M  V30 11 1 11 12
M  V30 12 1 12 13
M  V30 13 2 13 14
M  V30 14 1 14 15
M  V30 15 2 15 16
M  V30 16 1 16 17
M  V30 17 1 17 18
M  V30 18 1 18 19
M  V30 19 1 16 20
M  V30 20 2 20 21
M  V30 21 2 11 22
M  V30 22 1 22 23
M  V30 23 2 23 24
M  V30 24 1 24 25
M  V30 25 3 25 26
M  V30 26 1 8 27
M  V30 27 2 27 28
M  V30 28 1 28 5
M  V30 29 1 24 9
M  V30 30 1 21 13
M  V30 31 1 1 29
M  V30 32 1 1 30
M  V30 33 1 1 31
M  V30 34 1 3 32
M  V30 35 1 3 33
M  V30 36 1 3 34
M  V30 37 1 4 35
M  V30 38 1 4 36
M  V30 39 1 6 37
M  V30 40 1 7 38
M  V30 41 1 12 39
M  V30 42 1 14 40
M  V30 43 1 15 41
M  V30 44 1 17 42
M  V30 45 1 17 43
M  V30 46 1 18 44
M  V30 47 1 18 45
M  V30 48 1 19 46
M  V30 49 1 20 47
M  V30 50 1 21 48
M  V30 51 1 23 49
M  V30 52 1 27 50
M  V30 53 1 28 51
M  V30 END BOND
M  V30 END CTAB
M  END
>  <Dataset>  (613) 
ChEMBL_Kinases

>  <Ligand_Instance>  (613) 
nan

>  <PDB_ID>  (613) 
nan

>  <Standardized_SMILES>  (613) 
CC(C)(N)c1ccc(-c2nc(Nc3ccc(CCO)cc3)ncc2C#N)cc1

>  <Name>  (613) 
nan

>  <Pocket>  (613) 
nan

>  <ATP_Site>  (613) 
nan

>  <Peripheral>  (613) 
nan

>  <Num_H_Atoms_ProtBoundConf>  (613) 
nan

>  <Num_Resolved_Atoms>  (613) 
nan

>  <Num_Not_Resolved_Atoms>  (613) 
nan

$$$$
CHEMBL3091532
     RDKit          3D

  0  0  0  0  0  0  0  0  0  0999 V3000
M  V30 BEGIN CTAB
M  V30 COUNTS 46 49 0 0 0
M  V30 BEGIN ATOM
M  V30 1 C 1.860676 -4.018663 1.675706 0
M  V30 2 N 0.532997 -3.618895 1.332408 0
M  V30 3 C 0.276504 -2.321545 1.246838 0
M  V30 4 N 1.204259 -1.230180 1.448132 0
M  V30 5 C 1.518375 -0.775805 2.786256 0
M  V30 6 C 2.855962 -0.125278 2.903478 0
M  V30 7 O 3.139396 0.835913 1.949289 0
M  V30 8 C 2.100604 0.920143 1.057169 0 CFG=1
M  V30 9 C 2.149507 2.044662 0.121809 0
M  V30 10 C 1.958754 2.159222 -1.231424 0
M  V30 11 C 2.053131 3.379458 -1.864446 0
M  V30 12 C 2.346423 4.555760 -1.160790 0
M  V30 13 F 2.422593 5.731206 -1.847545 0
M  V30 14 C 2.544614 4.457452 0.221884 0
M  V30 15 C 2.443902 3.206511 0.840133 0
M  V30 16 C 1.923812 -0.430504 0.436351 0
M  V30 17 N -0.957689 -1.885765 0.933346 0
M  V30 18 C -2.016674 -2.664871 0.683160 0
M  V30 19 C -3.269227 -2.025438 0.353049 0
M  V30 20 C -3.242689 -0.627655 0.308811 0
M  V30 21 C -4.354661 0.122267 0.004363 0
M  V30 22 N -5.520602 -0.466245 -0.264055 0
M  V30 23 C -5.605726 -1.790462 -0.235479 0
M  V30 24 C -4.499556 -2.535458 0.066074 0
M  V30 25 Cl -4.691196 -4.257456 0.085590 0
M  V30 26 C -1.689732 -3.986754 0.786210 0
M  V30 27 C -0.453396 -4.496064 1.101582 0
M  V30 28 O -0.265404 -5.715805 1.167923 0
M  V30 29 H 2.389002 -4.555276 0.866052 0
M  V30 30 H 1.798309 -4.760827 2.527309 0
M  V30 31 H 2.511533 -3.211450 2.005496 0
M  V30 32 H 1.512871 -1.649222 3.507787 0
M  V30 33 H 0.678362 -0.136508 3.196193 0
M  V30 34 H 2.967575 0.378129 3.907834 0
M  V30 35 H 3.633054 -0.940524 2.884603 0
M  V30 36 H 1.179444 1.118359 1.696922 0
M  V30 37 H 1.741197 1.206429 -1.678946 0
M  V30 38 H 1.887589 3.374762 -2.946442 0
M  V30 39 H 2.766253 5.389876 0.702740 0
M  V30 40 H 2.631479 3.333130 1.920211 0
M  V30 41 H 2.862901 -0.933654 0.212113 0
M  V30 42 H 1.241976 -0.325019 -0.452648 0
M  V30 43 H -2.352003 -0.022471 0.504758 0
M  V30 44 H -4.315284 1.199191 -0.027191 0
M  V30 45 H -6.554203 -2.259972 -0.452209 0
M  V30 46 H -2.456717 -4.691171 0.607495 0
M  V30 END ATOM
M  V30 BEGIN BOND
M  V30 1 1 1 2
M  V30 2 1 2 3
M  V30 3 1 3 4
M  V30 4 1 4 5
M  V30 5 1 5 6
M  V30 6 1 6 7
M  V30 7 1 7 8
M  V30 8 1 8 9
M  V30 9 2 9 10
M  V30 10 1 10 11
M  V30 11 2 11 12
M  V30 12 1 12 13
M  V30 13 1 12 14
M  V30 14 2 14 15
M  V30 15 1 8 16
M  V30 16 2 3 17
M  V30 17 1 17 18
M  V30 18 1 18 19
M  V30 19 2 19 20
M  V30 20 1 20 21
M  V30 21 2 21 22
M  V30 22 1 22 23
M  V30 23 2 23 24
M  V30 24 1 24 25
M  V30 25 2 18 26
M  V30 26 1 26 27
M  V30 27 2 27 28
M  V30 28 1 27 2
M  V30 29 1 16 4
M  V30 30 1 24 19
M  V30 31 1 15 9
M  V30 32 1 1 29
M  V30 33 1 1 30
M  V30 34 1 1 31
M  V30 35 1 5 32
M  V30 36 1 5 33
M  V30 37 1 6 34
M  V30 38 1 6 35
M  V30 39 1 8 36 CFG=1
M  V30 40 1 10 37
M  V30 41 1 11 38
M  V30 42 1 14 39
M  V30 43 1 15 40
M  V30 44 1 16 41
M  V30 45 1 16 42
M  V30 46 1 20 43
M  V30 47 1 21 44
M  V30 48 1 23 45
M  V30 49 1 26 46
M  V30 END BOND
M  V30 END CTAB
M  END
>  <Dataset>  (614) 
ChEMBL_Kinases

>  <Ligand_Instance>  (614) 
nan

>  <PDB_ID>  (614) 
nan

>  <Standardized_SMILES>  (614) 
Cn1c(N2CCO[C@@H](c3ccc(F)cc3)C2)nc(-c2ccncc2Cl)cc1=O

>  <Name>  (614) 
nan

>  <Pocket>  (614) 
nan

>  <ATP_Site>  (614) 
nan

>  <Peripheral>  (614) 
nan

>  <Num_H_Atoms_ProtBoundConf>  (614) 
nan

>  <Num_Resolved_Atoms>  (614) 
nan

>  <Num_Not_Resolved_Atoms>  (614) 
nan

$$$$
CHEMBL2430141
     RDKit          3D

  0  0  0  0  0  0  0  0  0  0999 V3000
M  V30 BEGIN CTAB
M  V30 COUNTS 68 71 0 0 0
M  V30 BEGIN ATOM
M  V30 1 C -1.986855 -0.460594 4.130743 0
M  V30 2 C -1.077475 -0.561305 2.940709 0
M  V30 3 C -0.042698 -1.407019 2.748680 0
M  V30 4 C 0.529770 -1.140501 1.474777 0 CFG=2
M  V30 5 C 2.036907 -1.042623 1.404353 0
M  V30 6 O 2.871878 -1.254573 2.247475 0
M  V30 7 C 2.718242 -0.615933 0.105063 0 CFG=1
M  V30 8 C 3.059078 0.762681 0.324604 0
M  V30 9 C 2.196345 1.651944 0.894571 0
M  V30 10 C 2.676631 3.067660 0.754559 0
M  V30 11 O 3.882973 3.123658 0.078162 0
M  V30 12 C 0.912586 1.369517 1.597608 0 CFG=1
M  V30 13 O 0.150778 2.549793 1.539081 0
M  V30 14 C 0.097759 0.234778 1.029982 0 CFG=1
M  V30 15 O -0.160925 0.358783 -0.312897 0
M  V30 16 C -1.251140 0.347176 1.757828 0 CFG=1
M  V30 17 O -2.339891 0.016358 0.952214 0
M  V30 18 C -3.359387 0.911811 0.745245 0
M  V30 19 O -3.310819 2.051604 1.292301 0
M  V30 20 C -4.509916 0.550708 -0.111548 0
M  V30 21 C -5.597597 1.576184 -0.300759 0
M  V30 22 C -4.704554 -0.612308 -0.756946 0
M  V30 23 C -5.907260 -0.884819 -1.604963 0
M  V30 24 C -3.641581 -1.636619 -0.581588 0
M  V30 25 C 3.586922 -1.714881 -0.152918 0 CFG=1
M  V30 26 C 2.891284 -2.983536 0.092924 0 CFG=1
M  V30 27 C 1.515623 -3.203522 0.367329 0
M  V30 28 C 0.397100 -2.238667 0.412181 0 CFG=1
M  V30 29 C -0.825839 -3.060817 0.772415 0
M  V30 30 C 3.443497 -2.656859 -1.287245 0
M  V30 31 C 2.422754 -2.472334 -2.371079 0
M  V30 32 C 4.708443 -3.334957 -1.779797 0
M  V30 33 H -3.016803 -0.775722 3.858603 0
M  V30 34 H -1.620775 -1.035010 4.983449 0
M  V30 35 H -1.978128 0.612307 4.417561 0
M  V30 36 H 0.247808 -2.140597 3.483636 0
M  V30 37 H 1.995930 -0.604949 -0.767297 0
M  V30 38 H 4.002649 1.175669 0.057427 0
M  V30 39 H 2.876374 3.448284 1.793275 0
M  V30 40 H 1.931500 3.692732 0.232744 0
M  V30 41 H 4.672093 3.137214 0.660812 0
M  V30 42 H 1.069808 1.156209 2.674977 0
M  V30 43 H 0.261712 3.083166 2.369219 0
M  V30 44 H 0.242830 1.188758 -0.699366 0
M  V30 45 H -1.444301 1.384163 2.113363 0
M  V30 46 H -5.589486 2.339141 0.483515 0
M  V30 47 H -6.601987 1.084342 -0.246016 0
M  V30 48 H -5.526739 2.014468 -1.313316 0
M  V30 49 H -5.578171 -1.657480 -2.352049 0
M  V30 50 H -6.306465 0.001006 -2.101455 0
M  V30 51 H -6.656164 -1.412713 -0.955692 0
M  V30 52 H -3.904306 -2.505630 -1.211831 0
M  V30 53 H -3.581346 -1.911431 0.500121 0
M  V30 54 H -2.709680 -1.226857 -0.990473 0
M  V30 55 H 4.618225 -1.573721 0.236754 0
M  V30 56 H 3.557261 -3.766616 0.581517 0
M  V30 57 H 1.392721 -3.753182 1.357786 0
M  V30 58 H 1.141178 -4.013175 -0.336718 0
M  V30 59 H 0.163671 -1.762185 -0.563470 0
M  V30 60 H -1.364803 -3.398222 -0.152717 0
M  V30 61 H -0.555101 -4.005816 1.289180 0
M  V30 62 H -1.488464 -2.541174 1.485741 0
M  V30 63 H 2.729474 -2.920220 -3.340348 0
M  V30 64 H 1.511920 -3.036678 -2.082752 0
M  V30 65 H 2.181474 -1.422636 -2.621398 0
M  V30 66 H 5.446540 -3.398783 -0.932916 0
M  V30 67 H 4.519676 -4.299720 -2.252866 0
M  V30 68 H 5.160018 -2.626593 -2.527295 0
M  V30 END ATOM
M  V30 BEGIN BOND
M  V30 1 1 1 2
M  V30 2 2 2 3
M  V30 3 1 4 3 CFG=1
M  V30 4 1 4 5
M  V30 5 2 5 6
M  V30 6 1 5 7
M  V30 7 1 7 8
M  V30 8 2 8 9
M  V30 9 1 9 10
M  V30 10 1 10 11
M  V30 11 1 9 12
M  V30 12 1 12 13
M  V30 13 1 12 14
M  V30 14 1 14 15 CFG=3
M  V30 15 1 14 16
M  V30 16 1 16 17
M  V30 17 1 17 18
M  V30 18 2 18 19
M  V30 19 1 18 20
M  V30 20 1 20 21
M  V30 21 2 20 22 CFG=2
M  V30 22 1 22 23
M  V30 23 1 22 24
M  V30 24 1 7 25
M  V30 25 1 25 26
M  V30 26 1 26 27
M  V30 27 1 27 28
M  V30 28 1 28 29
M  V30 29 1 26 30
M  V30 30 1 30 31
M  V30 31 1 30 32
M  V30 32 1 16 2
M  V30 33 1 30 25
M  V30 34 1 14 4
M  V30 35 1 28 4
M  V30 36 1 1 33
M  V30 37 1 1 34
M  V30 38 1 1 35
M  V30 39 1 3 36
M  V30 40 1 7 37 CFG=3
M  V30 41 1 8 38
M  V30 42 1 10 39
M  V30 43 1 10 40
M  V30 44 1 11 41
M  V30 45 1 12 42 CFG=1
M  V30 46 1 13 43
M  V30 47 1 15 44
M  V30 48 1 16 45 CFG=1
M  V30 49 1 21 46
M  V30 50 1 21 47
M  V30 51 1 21 48
M  V30 52 1 23 49
M  V30 53 1 23 50
M  V30 54 1 23 51
M  V30 55 1 24 52
M  V30 56 1 24 53
M  V30 57 1 24 54
M  V30 58 1 25 55 CFG=1
M  V30 59 1 26 56 CFG=1
M  V30 60 1 27 57
M  V30 61 1 27 58
M  V30 62 1 28 59 CFG=3
M  V30 63 1 29 60
M  V30 64 1 29 61
M  V30 65 1 29 62
M  V30 66 1 31 63
M  V30 67 1 31 64
M  V30 68 1 31 65
M  V30 69 1 32 66
M  V30 70 1 32 67
M  V30 71 1 32 68
M  V30 END BOND
M  V30 END CTAB
M  END
>  <Dataset>  (615) 
ChEMBL_Kinases

>  <Ligand_Instance>  (615) 
nan

>  <PDB_ID>  (615) 
nan

>  <Standardized_SMILES>  (615) 
CC1=C[C@]23C(=O)[C@@H](C=C(CO)[C@@H](O)[C@]2(O)[C@H]1OC(=O)C(C)=C(C)C)[C@H]1[C@@H](C[C@H]3C)C1(C)C

>  <Name>  (615) 
nan

>  <Pocket>  (615) 
nan

>  <ATP_Site>  (615) 
nan

>  <Peripheral>  (615) 
nan

>  <Num_H_Atoms_ProtBoundConf>  (615) 
nan

>  <Num_Resolved_Atoms>  (615) 
nan

>  <Num_Not_Resolved_Atoms>  (615) 
nan

$$$$
CHEMBL2430127
     RDKit          3D

  0  0  0  0  0  0  0  0  0  0999 V3000
M  V30 BEGIN CTAB
M  V30 COUNTS 100 103 0 0 0
M  V30 BEGIN ATOM
M  V30 1 C -2.796869 0.091432 4.510265 0
M  V30 2 C -4.115428 -0.296971 3.947977 0
M  V30 3 C -4.794449 0.573518 2.970283 0
M  V30 4 C -5.193907 1.931917 3.316704 0
M  V30 5 C -4.290378 3.027744 3.672192 0
M  V30 6 C -3.321956 3.560097 2.686274 0
M  V30 7 C -2.239110 2.704515 2.179789 0
M  V30 8 C -1.343463 3.428725 1.140701 0
M  V30 9 C -2.173672 3.844167 -0.024133 0
M  V30 10 C -1.285768 4.519383 -1.070421 0
M  V30 11 C -2.053944 4.917543 -2.268146 0
M  V30 12 C -2.676535 3.896024 -3.110092 0
M  V30 13 C -1.858284 2.979711 -3.903658 0
M  V30 14 C -0.945151 1.993745 -3.310306 0
M  V30 15 C -1.678563 0.956289 -2.477048 0
M  V30 16 C -0.772529 -0.019734 -1.886933 0
M  V30 17 O -1.560764 -0.783591 -1.229031 0
M  V30 18 O 0.165114 -0.820171 -1.429463 0
M  V30 19 C 0.256592 -1.889338 -0.671506 0 CFG=1
M  V30 20 C 0.974280 -3.096986 -1.254689 0
M  V30 21 C 0.323372 -4.216591 -1.997401 0
M  V30 22 C 2.294587 -2.916126 -0.947872 0
M  V30 23 C 2.515584 -1.686690 -0.210092 0 CFG=2
M  V30 24 C 3.495229 -1.598892 0.889590 0
M  V30 25 O 3.431043 -0.496441 1.393768 0
M  V30 26 C 4.350248 -2.727603 1.225000 0 CFG=1
M  V30 27 C 3.448992 -3.761897 1.800489 0
M  V30 28 C 2.109927 -3.745305 1.912650 0
M  V30 29 C 1.594218 -4.659926 3.009883 0
M  V30 30 O 0.890809 -3.932494 3.961880 0
M  V30 31 C 1.067735 -3.051985 1.213354 0 CFG=1
M  V30 32 O 0.039277 -2.797390 2.172076 0
M  V30 33 C 1.248543 -1.731863 0.528744 0 CFG=2
M  V30 34 O 0.914300 -0.652574 1.299583 0
M  V30 35 C 5.050622 -3.110181 -0.030160 0 CFG=1
M  V30 36 C 4.972129 -2.265270 -1.179410 0 CFG=1
M  V30 37 C 4.507522 -0.879412 -1.187795 0
M  V30 38 C 2.977077 -0.703126 -1.170599 0 CFG=1
M  V30 39 C 2.643602 -0.861522 -2.628572 0
M  V30 40 C 6.311906 -2.443169 -0.421465 0
M  V30 41 C 6.857400 -1.273570 0.350733 0
M  V30 42 C 7.395587 -3.217562 -1.157866 0
M  V30 43 H -2.360407 -0.855365 4.998619 0
M  V30 44 H -2.063341 0.348657 3.745020 0
M  V30 45 H -2.839151 0.782382 5.387124 0
M  V30 46 H -3.960312 -1.339646 3.503889 0
M  V30 47 H -4.792639 -0.546365 4.830427 0
M  V30 48 H -5.798220 -0.016817 2.756442 0
M  V30 49 H -4.312251 0.423336 1.974620 0
M  V30 50 H -5.909130 2.354742 2.488093 0
M  V30 51 H -5.990469 1.885846 4.166618 0
M  V30 52 H -3.707210 2.755419 4.596354 0
M  V30 53 H -4.914024 3.932516 4.041475 0
M  V30 54 H -2.843693 4.477222 3.178792 0
M  V30 55 H -3.932431 4.018414 1.831674 0
M  V30 56 H -2.589740 1.777093 1.729973 0
M  V30 57 H -1.509681 2.483722 3.001913 0
M  V30 58 H -0.524795 2.757240 0.828439 0
M  V30 59 H -0.907034 4.283012 1.687469 0
M  V30 60 H -2.815486 4.732457 0.348441 0
M  V30 61 H -2.848382 3.103367 -0.408775 0
M  V30 62 H -0.357384 3.988290 -1.269327 0
M  V30 63 H -0.958934 5.488816 -0.559018 0
M  V30 64 H -1.310149 5.493983 -2.929979 0
M  V30 65 H -2.807037 5.715761 -1.964994 0
M  V30 66 H -3.369087 4.448851 -3.831914 0
M  V30 67 H -3.390735 3.271086 -2.471572 0
M  V30 68 H -2.524865 2.406084 -4.660803 0
M  V30 69 H -1.226992 3.617095 -4.622037 0
M  V30 70 H -0.546509 1.346970 -4.190548 0
M  V30 71 H -0.096059 2.380760 -2.759153 0
M  V30 72 H -2.297370 1.425706 -1.712499 0
M  V30 73 H -2.420573 0.403558 -3.138035 0
M  V30 74 H -0.685692 -2.296406 -0.292802 0
M  V30 75 H -0.668475 -4.419230 -1.519049 0
M  V30 76 H 0.281547 -4.041500 -3.074527 0
M  V30 77 H 0.914606 -5.164193 -1.832259 0
M  V30 78 H 2.971229 -3.689761 -1.286629 0
M  V30 79 H 5.079643 -2.356510 2.003457 0
M  V30 80 H 3.934425 -4.656841 2.184897 0
M  V30 81 H 2.438126 -5.155169 3.513676 0
M  V30 82 H 0.917503 -5.427164 2.633929 0
M  V30 83 H 1.321972 -3.056833 4.112806 0
M  V30 84 H 0.575456 -3.841492 0.558696 0
M  V30 85 H -0.846442 -3.005045 1.839992 0
M  V30 86 H -0.079357 -0.603589 1.334810 0
M  V30 87 H 5.049848 -4.204721 -0.206911 0
M  V30 88 H 4.971464 -2.742281 -2.205265 0
M  V30 89 H 4.912847 -0.365081 -2.094838 0
M  V30 90 H 4.914870 -0.279548 -0.332149 0
M  V30 91 H 2.812594 0.365257 -0.884939 0
M  V30 92 H 2.226469 -1.849133 -2.892483 0
M  V30 93 H 2.110690 -0.002803 -3.085473 0
M  V30 94 H 3.610359 -0.842275 -3.218356 0
M  V30 95 H 7.176940 -0.493375 -0.368378 0
M  V30 96 H 6.186433 -0.884170 1.134058 0
M  V30 97 H 7.769872 -1.645206 0.853625 0
M  V30 98 H 7.960556 -3.846168 -0.472564 0
M  V30 99 H 6.885023 -3.929003 -1.871555 0
M  V30 100 H 8.021005 -2.520587 -1.748906 0
M  V30 END ATOM
M  V30 BEGIN BOND
M  V30 1 1 1 2
M  V30 2 1 2 3
M  V30 3 1 3 4
M  V30 4 1 4 5
M  V30 5 1 5 6
M  V30 6 1 6 7
M  V30 7 1 7 8
M  V30 8 1 8 9
M  V30 9 1 9 10
M  V30 10 1 10 11
M  V30 11 1 11 12
M  V30 12 1 12 13
M  V30 13 1 13 14
M  V30 14 1 14 15
M  V30 15 1 15 16
M  V30 16 2 16 17
M  V30 17 1 16 18
M  V30 18 1 18 19
M  V30 19 1 19 20
M  V30 20 1 20 21
M  V30 21 2 20 22
M  V30 22 1 23 22 CFG=3
M  V30 23 1 23 24
M  V30 24 2 24 25
M  V30 25 1 24 26
M  V30 26 1 26 27
M  V30 27 2 27 28
M  V30 28 1 28 29
M  V30 29 1 29 30
M  V30 30 1 28 31
M  V30 31 1 31 32
M  V30 32 1 31 33
M  V30 33 1 33 34 CFG=1
M  V30 34 1 26 35
M  V30 35 1 35 36
M  V30 36 1 36 37
M  V30 37 1 37 38
M  V30 38 1 38 39
M  V30 39 1 36 40
M  V30 40 1 40 41
M  V30 41 1 40 42
M  V30 42 1 33 19
M  V30 43 1 40 35
M  V30 44 1 33 23
M  V30 45 1 38 23
M  V30 46 1 1 43
M  V30 47 1 1 44
M  V30 48 1 1 45
M  V30 49 1 2 46
M  V30 50 1 2 47
M  V30 51 1 3 48
M  V30 52 1 3 49
M  V30 53 1 4 50
M  V30 54 1 4 51
M  V30 55 1 5 52
M  V30 56 1 5 53
M  V30 57 1 6 54
M  V30 58 1 6 55
M  V30 59 1 7 56
M  V30 60 1 7 57
M  V30 61 1 8 58
M  V30 62 1 8 59
M  V30 63 1 9 60
M  V30 64 1 9 61
M  V30 65 1 10 62
M  V30 66 1 10 63
M  V30 67 1 11 64
M  V30 68 1 11 65
M  V30 69 1 12 66
M  V30 70 1 12 67
M  V30 71 1 13 68
M  V30 72 1 13 69
M  V30 73 1 14 70
M  V30 74 1 14 71
M  V30 75 1 15 72
M  V30 76 1 15 73
M  V30 77 1 19 74 CFG=1
M  V30 78 1 21 75
M  V30 79 1 21 76
M  V30 80 1 21 77
M  V30 81 1 22 78
M  V30 82 1 26 79 CFG=1
M  V30 83 1 27 80
M  V30 84 1 29 81
M  V30 85 1 29 82
M  V30 86 1 30 83
M  V30 87 1 31 84 CFG=3
M  V30 88 1 32 85
M  V30 89 1 34 86
M  V30 90 1 35 87 CFG=3
M  V30 91 1 36 88 CFG=3
M  V30 92 1 37 89
M  V30 93 1 37 90
M  V30 94 1 38 91 CFG=1
M  V30 95 1 39 92
M  V30 96 1 39 93
M  V30 97 1 39 94
M  V30 98 1 41 95
M  V30 99 1 41 96
M  V30 100 1 41 97
M  V30 101 1 42 98
M  V30 102 1 42 99
M  V30 103 1 42 100
M  V30 END BOND
M  V30 END CTAB
M  END
>  <Dataset>  (616) 
ChEMBL_Kinases

>  <Ligand_Instance>  (616) 
nan

>  <PDB_ID>  (616) 
nan

>  <Standardized_SMILES>  (616) 
CCCCCCCCCCCCCCCC(=O)O[C@H]1C(C)=C[C@]23C(=O)[C@@H](C=C(CO)[C@@H](O)[C@]12O)[C@H]1[C@@H](C[C@H]3C)C1(C)C

>  <Name>  (616) 
nan

>  <Pocket>  (616) 
nan

>  <ATP_Site>  (616) 
nan

>  <Peripheral>  (616) 
nan

>  <Num_H_Atoms_ProtBoundConf>  (616) 
nan

>  <Num_Resolved_Atoms>  (616) 
nan

>  <Num_Not_Resolved_Atoms>  (616) 
nan

$$$$
CHEMBL2430126
     RDKit          3D

  0  0  0  0  0  0  0  0  0  0999 V3000
M  V30 BEGIN CTAB
M  V30 COUNTS 82 85 0 0 0
M  V30 BEGIN ATOM
M  V30 1 C -2.627440 -5.985985 6.261468 0
M  V30 2 C -1.610997 -5.630758 5.200398 0
M  V30 3 C -1.916939 -6.423341 3.946113 0
M  V30 4 C -0.908569 -6.091186 2.846099 0
M  V30 5 C -1.182103 -6.860739 1.597917 0
M  V30 6 C -0.215564 -6.603615 0.476343 0
M  V30 7 C -0.250157 -5.158071 0.089643 0
M  V30 8 C 0.703262 -4.857952 -1.056493 0
M  V30 9 C 0.656470 -3.399711 -1.433249 0
M  V30 10 C 1.029096 -2.507913 -0.326370 0
M  V30 11 O 1.372836 -2.657499 0.873410 0
M  V30 12 O 1.011458 -1.136935 -0.638198 0
M  V30 13 C 1.322463 -0.137770 0.244693 0 CFG=1
M  V30 14 C 2.304003 0.895304 -0.185109 0
M  V30 15 C 3.754718 0.852404 0.153608 0
M  V30 16 C 1.575062 1.794683 -0.899438 0
M  V30 17 C 0.164609 1.422635 -0.971068 0 CFG=2
M  V30 18 C -0.881390 2.459569 -0.813240 0
M  V30 19 O -1.954135 1.896750 -0.703547 0
M  V30 20 C -0.474034 3.857856 -0.815480 0 CFG=1
M  V30 21 C 0.442869 3.979088 0.383440 0
M  V30 22 C 0.644650 3.092715 1.366974 0
M  V30 23 C 1.199087 3.715891 2.631707 0
M  V30 24 O 0.344660 3.512823 3.693142 0
M  V30 25 C 0.433974 1.676144 1.455268 0 CFG=1
M  V30 26 O -0.635997 1.509583 2.388646 0
M  V30 27 C 0.098388 0.774760 0.351277 0 CFG=2
M  V30 28 O -1.067763 0.039402 0.495506 0
M  V30 29 C 0.213669 4.108512 -2.097190 0 CFG=1
M  V30 30 C 0.273942 3.138403 -3.130175 0 CFG=1
M  V30 31 C -0.537103 1.924196 -3.177500 0
M  V30 32 C -0.052566 0.792015 -2.261433 0 CFG=1
M  V30 33 C 1.150658 0.300467 -3.033106 0
M  V30 34 C -0.550148 4.437830 -3.310844 0
M  V30 35 C 0.000616 5.462748 -4.297795 0
M  V30 36 C -2.049420 4.315345 -3.387119 0
M  V30 37 H -2.337013 -6.938715 6.780478 0
M  V30 38 H -3.657853 -6.065948 5.849043 0
M  V30 39 H -2.667011 -5.201542 7.048487 0
M  V30 40 H -1.587258 -4.555717 5.009385 0
M  V30 41 H -0.606396 -5.988472 5.566231 0
M  V30 42 H -1.753634 -7.503907 4.210275 0
M  V30 43 H -2.942835 -6.272062 3.605933 0
M  V30 44 H 0.116298 -6.278362 3.176856 0
M  V30 45 H -1.010106 -4.994200 2.611715 0
M  V30 46 H -1.220746 -7.971372 1.812427 0
M  V30 47 H -2.234118 -6.620017 1.285068 0
M  V30 48 H 0.811968 -6.952659 0.720500 0
M  V30 49 H -0.564830 -7.175289 -0.417186 0
M  V30 50 H -1.262086 -4.891500 -0.232631 0
M  V30 51 H 0.017894 -4.554874 0.984814 0
M  V30 52 H 0.386736 -5.503667 -1.899188 0
M  V30 53 H 1.745089 -5.152514 -0.805449 0
M  V30 54 H 1.212878 -3.200285 -2.365141 0
M  V30 55 H -0.419441 -3.189515 -1.694390 0
M  V30 56 H 1.596409 -0.479984 1.267462 0
M  V30 57 H 3.887684 0.526473 1.227136 0
M  V30 58 H 4.220669 1.848380 0.055800 0
M  V30 59 H 4.260933 0.117142 -0.495203 0
M  V30 60 H 2.085892 2.651122 -1.322053 0
M  V30 61 H -1.365930 4.504265 -0.668474 0
M  V30 62 H 1.012660 4.919488 0.449644 0
M  V30 63 H 1.488631 4.744277 2.433559 0
M  V30 64 H 2.136226 3.130086 2.862895 0
M  V30 65 H -0.554053 3.860359 3.486001 0
M  V30 66 H 1.311583 1.313680 2.089500 0
M  V30 67 H -0.487104 0.744827 2.979652 0
M  V30 68 H -1.541804 0.194283 1.324401 0
M  V30 69 H 1.129803 4.754649 -1.966730 0
M  V30 70 H 1.175270 3.103806 -3.804727 0
M  V30 71 H -0.532240 1.502606 -4.209958 0
M  V30 72 H -1.602175 2.130104 -2.940950 0
M  V30 73 H -0.823706 -0.016896 -2.260584 0
M  V30 74 H 2.106619 0.546129 -2.537535 0
M  V30 75 H 1.256979 0.804577 -4.041380 0
M  V30 76 H 1.076664 -0.765593 -3.323152 0
M  V30 77 H -0.515039 5.410060 -5.257876 0
M  V30 78 H -0.172028 6.461963 -3.839068 0
M  V30 79 H 1.085591 5.330385 -4.486255 0
M  V30 80 H -2.447304 5.320287 -3.563455 0
M  V30 81 H -2.502511 3.936388 -2.454738 0
M  V30 82 H -2.403798 3.650942 -4.195717 0
M  V30 END ATOM
M  V30 BEGIN BOND
M  V30 1 1 1 2
M  V30 2 1 2 3
M  V30 3 1 3 4
M  V30 4 1 4 5
M  V30 5 1 5 6
M  V30 6 1 6 7
M  V30 7 1 7 8
M  V30 8 1 8 9
M  V30 9 1 9 10
M  V30 10 2 10 11
M  V30 11 1 10 12
M  V30 12 1 12 13
M  V30 13 1 13 14
M  V30 14 1 14 15
M  V30 15 2 14 16
M  V30 16 1 17 16 CFG=3
M  V30 17 1 17 18
M  V30 18 2 18 19
M  V30 19 1 18 20
M  V30 20 1 20 21
M  V30 21 2 21 22
M  V30 22 1 22 23
M  V30 23 1 23 24
M  V30 24 1 22 25
M  V30 25 1 25 26
M  V30 26 1 25 27
M  V30 27 1 27 28 CFG=1
M  V30 28 1 20 29
M  V30 29 1 29 30
M  V30 30 1 30 31
M  V30 31 1 31 32
M  V30 32 1 32 33
M  V30 33 1 30 34
M  V30 34 1 34 35
M  V30 35 1 34 36
M  V30 36 1 27 13
M  V30 37 1 34 29
M  V30 38 1 27 17
M  V30 39 1 32 17
M  V30 40 1 1 37
M  V30 41 1 1 38
M  V30 42 1 1 39
M  V30 43 1 2 40
M  V30 44 1 2 41
M  V30 45 1 3 42
M  V30 46 1 3 43
M  V30 47 1 4 44
M  V30 48 1 4 45
M  V30 49 1 5 46
M  V30 50 1 5 47
M  V30 51 1 6 48
M  V30 52 1 6 49
M  V30 53 1 7 50
M  V30 54 1 7 51
M  V30 55 1 8 52
M  V30 56 1 8 53
M  V30 57 1 9 54
M  V30 58 1 9 55
M  V30 59 1 13 56 CFG=1
M  V30 60 1 15 57
M  V30 61 1 15 58
M  V30 62 1 15 59
M  V30 63 1 16 60
M  V30 64 1 20 61 CFG=1
M  V30 65 1 21 62
M  V30 66 1 23 63
M  V30 67 1 23 64
M  V30 68 1 24 65
M  V30 69 1 25 66 CFG=1
M  V30 70 1 26 67
M  V30 71 1 28 68
M  V30 72 1 29 69 CFG=1
M  V30 73 1 30 70 CFG=3
M  V30 74 1 31 71
M  V30 75 1 31 72
M  V30 76 1 32 73 CFG=1
M  V30 77 1 33 74
M  V30 78 1 33 75
M  V30 79 1 33 76
M  V30 80 1 35 77
M  V30 81 1 35 78
M  V30 82 1 35 79
M  V30 83 1 36 80
M  V30 84 1 36 81
M  V30 85 1 36 82
M  V30 END BOND
M  V30 END CTAB
M  END
>  <Dataset>  (617) 
ChEMBL_Kinases

>  <Ligand_Instance>  (617) 
nan

>  <PDB_ID>  (617) 
nan

>  <Standardized_SMILES>  (617) 
CCCCCCCCCC(=O)O[C@H]1C(C)=C[C@]23C(=O)[C@@H](C=C(CO)[C@@H](O)[C@]12O)[C@H]1[C@@H](C[C@H]3C)C1(C)C

>  <Name>  (617) 
nan

>  <Pocket>  (617) 
nan

>  <ATP_Site>  (617) 
nan

>  <Peripheral>  (617) 
nan

>  <Num_H_Atoms_ProtBoundConf>  (617) 
nan

>  <Num_Resolved_Atoms>  (617) 
nan

>  <Num_Not_Resolved_Atoms>  (617) 
nan

$$$$
CHEMBL2430124
     RDKit          3D

  0  0  0  0  0  0  0  0  0  0999 V3000
M  V30 BEGIN CTAB
M  V30 COUNTS 72 76 0 0 0
M  V30 BEGIN ATOM
M  V30 1 C -1.958408 2.367192 -2.824583 0
M  V30 2 O -2.234641 2.300927 -1.415566 0
M  V30 3 N -2.382308 3.493786 -0.795968 0
M  V30 4 C -2.307157 3.555842 0.507058 0
M  V30 5 C -2.065286 2.336643 1.267265 0
M  V30 6 O -1.965455 2.231438 2.515561 0
M  V30 7 O -1.923322 1.139279 0.597020 0
M  V30 8 C -1.694272 -0.039062 1.286277 0 CFG=1
M  V30 9 C -2.785635 -1.057206 1.045322 0
M  V30 10 C -4.105256 -0.932234 1.749759 0
M  V30 11 C -2.459037 -2.013985 0.189511 0
M  V30 12 C -1.080022 -1.713123 -0.231385 0 CFG=2
M  V30 13 C -0.186702 -2.860266 -0.249200 0
M  V30 14 O -0.585010 -3.957926 -0.081716 0
M  V30 15 C 1.315439 -2.716838 -0.484115 0 CFG=1
M  V30 16 C 1.853147 -2.858107 0.842803 0
M  V30 17 C 1.368195 -2.191381 1.928015 0
M  V30 18 C 2.318230 -2.201495 3.076342 0
M  V30 19 O 1.681429 -2.829200 4.163241 0
M  V30 20 C 0.052001 -1.505613 2.046364 0 CFG=1
M  V30 21 O 0.218913 -0.523950 3.025492 0
M  V30 22 C -0.461987 -0.814004 0.825615 0 CFG=2
M  V30 23 O 0.457918 0.069081 0.273165 0
M  V30 24 C 1.438426 -3.646118 -1.578387 0 CFG=1
M  V30 25 C 0.437000 -3.168106 -2.596359 0 CFG=1
M  V30 26 C -0.031408 -1.806355 -2.570943 0
M  V30 27 C -0.974330 -1.200168 -1.635708 0 CFG=1
M  V30 28 C -2.408277 -1.208008 -2.193706 0
M  V30 29 C 1.930682 -3.367211 -2.935159 0
M  V30 30 C 2.744507 -2.146223 -3.257811 0
M  V30 31 C 2.246742 -4.548912 -3.844175 0
M  V30 32 C -2.478721 4.878885 1.093972 0
M  V30 33 C -2.441703 5.184535 2.423160 0
M  V30 34 C -2.606672 6.440387 2.957230 0
M  V30 35 C -2.828789 7.492217 2.104283 0
M  V30 36 C -2.880495 7.267491 0.750831 0
M  V30 37 C -2.706178 5.982888 0.287566 0
M  V30 38 H -2.880423 2.697749 -3.381529 0
M  V30 39 H -1.631067 1.394639 -3.190148 0
M  V30 40 H -1.191834 3.182521 -2.964274 0
M  V30 41 H -1.646225 0.159157 2.372176 0
M  V30 42 H -4.664190 -1.891900 1.769491 0
M  V30 43 H -4.745868 -0.171807 1.257398 0
M  V30 44 H -3.914162 -0.669291 2.815548 0
M  V30 45 H -3.093304 -2.814936 -0.103378 0
M  V30 46 H 1.597337 -1.723865 -0.879339 0
M  V30 47 H 2.680825 -3.521463 0.997662 0
M  V30 48 H 2.478261 -1.151116 3.409866 0
M  V30 49 H 3.269481 -2.656010 2.813346 0
M  V30 50 H 2.126402 -3.680372 4.425770 0
M  V30 51 H -0.742700 -2.190177 2.406211 0
M  V30 52 H -0.302185 -0.726930 3.842545 0
M  V30 53 H 1.299746 -0.012497 0.786267 0
M  V30 54 H 1.418483 -4.716504 -1.294317 0
M  V30 55 H -0.232245 -3.971494 -2.972212 0
M  V30 56 H 0.836134 -1.098420 -2.665148 0
M  V30 57 H -0.500995 -1.641823 -3.596109 0
M  V30 58 H -0.771444 -0.096959 -1.528272 0
M  V30 59 H -2.866852 -2.189258 -2.093043 0
M  V30 60 H -2.996776 -0.352188 -1.807295 0
M  V30 61 H -2.302427 -1.001430 -3.294754 0
M  V30 62 H 2.839360 -1.412809 -2.458354 0
M  V30 63 H 2.225697 -1.652420 -4.116352 0
M  V30 64 H 3.742875 -2.492947 -3.582177 0
M  V30 65 H 1.508821 -5.340761 -3.601237 0
M  V30 66 H 3.285848 -4.824140 -3.675872 0
M  V30 67 H 2.125256 -4.216056 -4.885992 0
M  V30 68 H -2.272534 4.412252 3.136676 0
M  V30 69 H -2.566085 6.620649 4.027132 0
M  V30 70 H -2.960802 8.492566 2.511822 0
M  V30 71 H -3.055569 8.087942 0.066128 0
M  V30 72 H -2.757634 5.864723 -0.794855 0
M  V30 END ATOM
M  V30 BEGIN BOND
M  V30 1 1 1 2
M  V30 2 1 2 3
M  V30 3 2 3 4
M  V30 4 1 4 5
M  V30 5 2 5 6
M  V30 6 1 5 7
M  V30 7 1 7 8
M  V30 8 1 8 9
M  V30 9 1 9 10
M  V30 10 2 9 11
M  V30 11 1 12 11 CFG=1
M  V30 12 1 12 13
M  V30 13 2 13 14
M  V30 14 1 13 15
M  V30 15 1 15 16
M  V30 16 2 16 17
M  V30 17 1 17 18
M  V30 18 1 18 19
M  V30 19 1 17 20
M  V30 20 1 20 21
M  V30 21 1 20 22
M  V30 22 1 22 23 CFG=3
M  V30 23 1 15 24
M  V30 24 1 24 25
M  V30 25 1 25 26
M  V30 26 1 26 27
M  V30 27 1 27 28
M  V30 28 1 25 29
M  V30 29 1 29 30
M  V30 30 1 29 31
M  V30 31 1 4 32
M  V30 32 2 32 33
M  V30 33 1 33 34
M  V30 34 2 34 35
M  V30 35 1 35 36
M  V30 36 2 36 37
M  V30 37 1 22 8
M  V30 38 1 29 24
M  V30 39 1 37 32
M  V30 40 1 22 12
M  V30 41 1 27 12
M  V30 42 1 1 38
M  V30 43 1 1 39
M  V30 44 1 1 40
M  V30 45 1 8 41 CFG=1
M  V30 46 1 10 42
M  V30 47 1 10 43
M  V30 48 1 10 44
M  V30 49 1 11 45
M  V30 50 1 15 46 CFG=3
M  V30 51 1 16 47
M  V30 52 1 18 48
M  V30 53 1 18 49
M  V30 54 1 19 50
M  V30 55 1 20 51 CFG=1
M  V30 56 1 21 52
M  V30 57 1 23 53
M  V30 58 1 24 54 CFG=1
M  V30 59 1 25 55 CFG=3
M  V30 60 1 26 56
M  V30 61 1 26 57
M  V30 62 1 27 58 CFG=1
M  V30 63 1 28 59
M  V30 64 1 28 60
M  V30 65 1 28 61
M  V30 66 1 30 62
M  V30 67 1 30 63
M  V30 68 1 30 64
M  V30 69 1 31 65
M  V30 70 1 31 66
M  V30 71 1 31 67
M  V30 72 1 33 68
M  V30 73 1 34 69
M  V30 74 1 35 70
M  V30 75 1 36 71
M  V30 76 1 37 72
M  V30 END BOND
M  V30 END CTAB
M  END
>  <Dataset>  (618) 
ChEMBL_Kinases

>  <Ligand_Instance>  (618) 
nan

>  <PDB_ID>  (618) 
nan

>  <Standardized_SMILES>  (618) 
CO/N=C(\C(=O)O[C@H]1C(C)=C[C@]23C(=O)[C@@H](C=C(CO)[C@@H](O)[C@]12O)[C@H]1[C@@H](C[C@H]3C)C1(C)C)c1ccccc1

>  <Name>  (618) 
nan

>  <Pocket>  (618) 
nan

>  <ATP_Site>  (618) 
nan

>  <Peripheral>  (618) 
nan

>  <Num_H_Atoms_ProtBoundConf>  (618) 
nan

>  <Num_Resolved_Atoms>  (618) 
nan

>  <Num_Not_Resolved_Atoms>  (618) 
nan

$$$$
CHEMBL2430122
     RDKit          3D

  0  0  0  0  0  0  0  0  0  0999 V3000
M  V30 BEGIN CTAB
M  V30 COUNTS 74 78 0 0 0
M  V30 BEGIN ATOM
M  V30 1 C -3.206322 -1.535723 -0.580889 0
M  V30 2 C -1.967705 -0.693959 -0.640995 0
M  V30 3 C -1.637521 0.447343 0.032210 0
M  V30 4 C -0.320704 0.913091 -0.353643 0 CFG=2
M  V30 5 C -0.021374 2.354732 -0.497259 0
M  V30 6 O 1.133642 2.473863 -0.873760 0
M  V30 7 C -1.052468 3.335062 -0.197742 0 CFG=1
M  V30 8 C -2.128340 3.168256 -1.215143 0
M  V30 9 C -2.163692 2.250045 -2.185054 0
M  V30 10 C -3.168971 2.555380 -3.278338 0
M  V30 11 O -4.111799 1.578493 -3.401231 0
M  V30 12 C -1.503276 1.020506 -2.499700 0 CFG=1
M  V30 13 O -0.983119 1.154029 -3.823405 0
M  V30 14 C -0.348915 0.454549 -1.743425 0 CFG=1
M  V30 15 O 0.862845 0.479750 -2.405181 0
M  V30 16 C -0.816636 -1.001566 -1.522375 0 CFG=1
M  V30 17 O 0.149305 -1.860988 -1.123908 0
M  V30 18 C 0.561409 -3.026173 -1.753115 0
M  V30 19 O -0.111648 -3.208029 -2.811980 0
M  V30 20 C 1.607941 -3.968390 -1.332716 0
M  V30 21 C 1.655914 -5.073432 -2.376813 0
M  V30 22 C 1.350477 -4.638922 -0.007269 0
M  V30 23 C 2.436081 -5.687415 0.154873 0
M  V30 24 C 3.816885 -5.117357 0.109265 0
M  V30 25 C 4.088660 -4.192629 -1.031250 0
M  V30 26 C 2.938802 -3.270301 -1.262161 0
M  V30 27 C -1.487326 3.080142 1.200668 0 CFG=1
M  V30 28 C -0.812533 2.136839 2.026276 0 CFG=1
M  V30 29 C 0.511470 1.598801 1.754057 0
M  V30 30 C 0.603132 0.498556 0.697928 0 CFG=1
M  V30 31 C 0.316454 -0.734617 1.492273 0
M  V30 32 C -0.793230 3.661552 2.351402 0
M  V30 33 C 0.493663 4.412441 2.128429 0
M  V30 34 C -1.525565 4.068213 3.599528 0
M  V30 35 H -4.031732 -1.056016 -0.048528 0
M  V30 36 H -3.539270 -1.636178 -1.653779 0
M  V30 37 H -2.960259 -2.548693 -0.227956 0
M  V30 38 H -2.396046 0.793608 0.714324 0
M  V30 39 H -0.635631 4.380123 -0.288413 0
M  V30 40 H -2.988046 3.863291 -1.178337 0
M  V30 41 H -3.602271 3.553564 -3.110553 0
M  V30 42 H -2.591347 2.634149 -4.230568 0
M  V30 43 H -4.344677 1.377428 -4.342297 0
M  V30 44 H -2.348045 0.271419 -2.669483 0
M  V30 45 H -1.607499 0.874008 -4.507232 0
M  V30 46 H 1.066204 -0.435256 -2.714158 0
M  V30 47 H -1.258748 -1.392633 -2.489791 0
M  V30 48 H 2.679045 -5.390930 -2.617278 0
M  V30 49 H 1.076137 -5.958363 -2.055525 0
M  V30 50 H 1.207300 -4.748584 -3.343558 0
M  V30 51 H 0.393335 -5.184324 -0.059522 0
M  V30 52 H 1.362934 -3.976946 0.857261 0
M  V30 53 H 2.342947 -6.527478 -0.554027 0
M  V30 54 H 2.307262 -6.122525 1.180146 0
M  V30 55 H 4.517851 -5.972824 0.042908 0
M  V30 56 H 3.962949 -4.543139 1.060732 0
M  V30 57 H 4.474270 -4.694180 -1.945242 0
M  V30 58 H 4.948542 -3.538533 -0.700955 0
M  V30 59 H 2.892746 -2.596074 -0.357128 0
M  V30 60 H 3.109025 -2.599591 -2.123526 0
M  V30 61 H -2.610736 3.131151 1.304364 0
M  V30 62 H -1.411242 1.525815 2.765769 0
M  V30 63 H 1.232570 2.399313 1.422860 0
M  V30 64 H 0.972676 1.222620 2.709989 0
M  V30 65 H 1.677931 0.467609 0.394145 0
M  V30 66 H 1.081194 -1.530985 1.387300 0
M  V30 67 H -0.715493 -1.125578 1.379766 0
M  V30 68 H 0.384127 -0.488029 2.580225 0
M  V30 69 H 0.295143 5.444611 2.412287 0
M  V30 70 H 1.239987 4.022748 2.872539 0
M  V30 71 H 0.878679 4.382965 1.107899 0
M  V30 72 H -1.704526 5.151481 3.573939 0
M  V30 73 H -2.488250 3.484642 3.611475 0
M  V30 74 H -0.954854 3.748657 4.499731 0
M  V30 END ATOM
M  V30 BEGIN BOND
M  V30 1 1 1 2
M  V30 2 2 2 3
M  V30 3 1 4 3 CFG=1
M  V30 4 1 4 5
M  V30 5 2 5 6
M  V30 6 1 5 7
M  V30 7 1 7 8
M  V30 8 2 8 9
M  V30 9 1 9 10
M  V30 10 1 10 11
M  V30 11 1 9 12
M  V30 12 1 12 13
M  V30 13 1 12 14
M  V30 14 1 14 15 CFG=3
M  V30 15 1 14 16
M  V30 16 1 16 17
M  V30 17 1 17 18
M  V30 18 2 18 19
M  V30 19 1 18 20
M  V30 20 1 20 21
M  V30 21 1 20 22
M  V30 22 1 22 23
M  V30 23 1 23 24
M  V30 24 1 24 25
M  V30 25 1 25 26
M  V30 26 1 7 27
M  V30 27 1 27 28
M  V30 28 1 28 29
M  V30 29 1 29 30
M  V30 30 1 30 31
M  V30 31 1 28 32
M  V30 32 1 32 33
M  V30 33 1 32 34
M  V30 34 1 16 2
M  V30 35 1 26 20
M  V30 36 1 32 27
M  V30 37 1 14 4
M  V30 38 1 30 4
M  V30 39 1 1 35
M  V30 40 1 1 36
M  V30 41 1 1 37
M  V30 42 1 3 38
M  V30 43 1 7 39 CFG=1
M  V30 44 1 8 40
M  V30 45 1 10 41
M  V30 46 1 10 42
M  V30 47 1 11 43
M  V30 48 1 12 44 CFG=3
M  V30 49 1 13 45
M  V30 50 1 15 46
M  V30 51 1 16 47 CFG=3
M  V30 52 1 21 48
M  V30 53 1 21 49
M  V30 54 1 21 50
M  V30 55 1 22 51
M  V30 56 1 22 52
M  V30 57 1 23 53
M  V30 58 1 23 54
M  V30 59 1 24 55
M  V30 60 1 24 56
M  V30 61 1 25 57
M  V30 62 1 25 58
M  V30 63 1 26 59
M  V30 64 1 26 60
M  V30 65 1 27 61 CFG=3
M  V30 66 1 28 62 CFG=1
M  V30 67 1 29 63
M  V30 68 1 29 64
M  V30 69 1 30 65 CFG=3
M  V30 70 1 31 66
M  V30 71 1 31 67
M  V30 72 1 31 68
M  V30 73 1 33 69
M  V30 74 1 33 70
M  V30 75 1 33 71
M  V30 76 1 34 72
M  V30 77 1 34 73
M  V30 78 1 34 74
M  V30 END BOND
M  V30 END CTAB
M  END
>  <Dataset>  (619) 
ChEMBL_Kinases

>  <Ligand_Instance>  (619) 
nan

>  <PDB_ID>  (619) 
nan

>  <Standardized_SMILES>  (619) 
CC1=C[C@]23C(=O)[C@@H](C=C(CO)[C@@H](O)[C@]2(O)[C@H]1OC(=O)C1(C)CCCCC1)[C@H]1[C@@H](C[C@H]3C)C1(C)C

>  <Name>  (619) 
nan

>  <Pocket>  (619) 
nan

>  <ATP_Site>  (619) 
nan

>  <Peripheral>  (619) 
nan

>  <Num_H_Atoms_ProtBoundConf>  (619) 
nan

>  <Num_Resolved_Atoms>  (619) 
nan

>  <Num_Not_Resolved_Atoms>  (619) 
nan

$$$$
CHEMBL2430121
     RDKit          3D

  0  0  0  0  0  0  0  0  0  0999 V3000
M  V30 BEGIN CTAB
M  V30 COUNTS 65 69 0 0 0
M  V30 BEGIN ATOM
M  V30 1 C 2.179020 -0.758980 4.033738 0
M  V30 2 C 1.492028 -0.553536 2.705756 0
M  V30 3 C 2.151680 -0.722519 1.540279 0
M  V30 4 C 1.208348 -0.449700 0.518082 0 CFG=2
M  V30 5 C 1.682553 0.418235 -0.626702 0
M  V30 6 O 2.787138 0.831895 -0.870439 0
M  V30 7 C 0.695266 0.898631 -1.689737 0 CFG=1
M  V30 8 C 0.410585 2.261165 -1.317256 0
M  V30 9 C 0.157929 2.633034 -0.029934 0
M  V30 10 C -0.368973 4.035408 0.054191 0
M  V30 11 O -0.462919 4.590618 -1.196321 0
M  V30 12 C 0.344033 1.838819 1.222269 0 CFG=1
M  V30 13 O -0.522825 2.341251 2.186291 0
M  V30 14 C 0.081973 0.372663 1.097162 0 CFG=1
M  V30 15 O -1.147974 0.066768 0.564808 0
M  V30 16 C 0.077973 -0.160315 2.529832 0 CFG=1
M  V30 17 O -0.817114 -1.222340 2.673637 0
M  V30 18 C -1.853838 -1.235158 3.553362 0
M  V30 19 O -2.109886 -0.290039 4.326206 0
M  V30 20 C -2.739708 -2.417555 3.618770 0
M  V30 21 C -3.798065 -2.453251 4.503618 0
M  V30 22 C -4.660003 -3.544991 4.601669 0
M  V30 23 C -4.372910 -4.587353 3.745291 0
M  V30 24 C -3.332278 -4.607808 2.842720 0
M  V30 25 C -2.503413 -3.508630 2.777327 0
M  V30 26 C 1.278659 0.420940 -2.892431 0 CFG=1
M  V30 27 C 1.643192 -1.000368 -2.736359 0 CFG=1
M  V30 28 C 1.471087 -1.830699 -1.599519 0
M  V30 29 C 0.738819 -1.629929 -0.343652 0 CFG=1
M  V30 30 C 0.907635 -2.880969 0.496688 0
M  V30 31 C 0.598557 -0.674271 -3.756346 0
M  V30 32 C -0.862864 -0.865725 -3.487840 0
M  V30 33 C 0.931944 -0.571007 -5.228640 0
M  V30 34 H 1.468604 -0.569061 4.853909 0
M  V30 35 H 3.032116 -0.049707 4.145353 0
M  V30 36 H 2.596922 -1.769348 4.107733 0
M  V30 37 H 3.181732 -1.006217 1.431076 0
M  V30 38 H -0.298725 0.357164 -1.610723 0
M  V30 39 H 0.384771 3.056387 -2.050840 0
M  V30 40 H 0.418417 4.599323 0.635271 0
M  V30 41 H -1.327187 4.103033 0.591451 0
M  V30 42 H -1.422253 4.681074 -1.426163 0
M  V30 43 H 1.391432 1.945233 1.610390 0
M  V30 44 H -0.067521 3.146297 2.588457 0
M  V30 45 H -1.748073 0.856533 0.682308 0
M  V30 46 H -0.213933 0.635510 3.245924 0
M  V30 47 H -4.013967 -1.624175 5.174115 0
M  V30 48 H -5.494094 -3.588924 5.289761 0
M  V30 49 H -5.035425 -5.459948 3.801073 0
M  V30 50 H -3.137064 -5.442922 2.186389 0
M  V30 51 H -1.670910 -3.413101 2.120830 0
M  V30 52 H 1.947714 1.139065 -3.422155 0
M  V30 53 H 2.618478 -1.225780 -3.284950 0
M  V30 54 H 1.026713 -2.801201 -1.997010 0
M  V30 55 H 2.464455 -2.236397 -1.220876 0
M  V30 56 H -0.354815 -1.478327 -0.417499 0
M  V30 57 H 1.730457 -3.541504 0.092298 0
M  V30 58 H 0.001123 -3.548646 0.403792 0
M  V30 59 H 1.200083 -2.701738 1.531157 0
M  V30 60 H -1.393510 -1.262888 -4.390635 0
M  V30 61 H -1.121624 -1.556868 -2.689988 0
M  V30 62 H -1.307013 0.166603 -3.373968 0
M  V30 63 H 1.764766 -1.300818 -5.445155 0
M  V30 64 H 1.316014 0.420499 -5.499522 0
M  V30 65 H 0.095603 -0.881242 -5.873537 0
M  V30 END ATOM
M  V30 BEGIN BOND
M  V30 1 1 1 2
M  V30 2 2 2 3
M  V30 3 1 4 3 CFG=1
M  V30 4 1 4 5
M  V30 5 2 5 6
M  V30 6 1 5 7
M  V30 7 1 7 8
M  V30 8 2 8 9
M  V30 9 1 9 10
M  V30 10 1 10 11
M  V30 11 1 9 12
M  V30 12 1 12 13
M  V30 13 1 12 14
M  V30 14 1 14 15 CFG=3
M  V30 15 1 14 16
M  V30 16 1 16 17
M  V30 17 1 17 18
M  V30 18 2 18 19
M  V30 19 1 18 20
M  V30 20 2 20 21
M  V30 21 1 21 22
M  V30 22 2 22 23
M  V30 23 1 23 24
M  V30 24 2 24 25
M  V30 25 1 7 26
M  V30 26 1 26 27
M  V30 27 1 27 28
M  V30 28 1 28 29
M  V30 29 1 29 30
M  V30 30 1 27 31
M  V30 31 1 31 32
M  V30 32 1 31 33
M  V30 33 1 16 2
M  V30 34 1 25 20
M  V30 35 1 31 26
M  V30 36 1 14 4
M  V30 37 1 29 4
M  V30 38 1 1 34
M  V30 39 1 1 35
M  V30 40 1 1 36
M  V30 41 1 3 37
M  V30 42 1 7 38 CFG=1
M  V30 43 1 8 39
M  V30 44 1 10 40
M  V30 45 1 10 41
M  V30 46 1 11 42
M  V30 47 1 12 43 CFG=1
M  V30 48 1 13 44
M  V30 49 1 15 45
M  V30 50 1 16 46 CFG=1
M  V30 51 1 21 47
M  V30 52 1 22 48
M  V30 53 1 23 49
M  V30 54 1 24 50
M  V30 55 1 25 51
M  V30 56 1 26 52 CFG=3
M  V30 57 1 27 53 CFG=3
M  V30 58 1 28 54
M  V30 59 1 28 55
M  V30 60 1 29 56 CFG=3
M  V30 61 1 30 57
M  V30 62 1 30 58
M  V30 63 1 30 59
M  V30 64 1 32 60
M  V30 65 1 32 61
M  V30 66 1 32 62
M  V30 67 1 33 63
M  V30 68 1 33 64
M  V30 69 1 33 65
M  V30 END BOND
M  V30 END CTAB
M  END
>  <Dataset>  (620) 
ChEMBL_Kinases

>  <Ligand_Instance>  (620) 
nan

>  <PDB_ID>  (620) 
nan

>  <Standardized_SMILES>  (620) 
CC1=C[C@]23C(=O)[C@@H](C=C(CO)[C@@H](O)[C@]2(O)[C@H]1OC(=O)c1ccccc1)[C@H]1[C@@H](C[C@H]3C)C1(C)C

>  <Name>  (620) 
nan

>  <Pocket>  (620) 
nan

>  <ATP_Site>  (620) 
nan

>  <Peripheral>  (620) 
nan

>  <Num_H_Atoms_ProtBoundConf>  (620) 
nan

>  <Num_Resolved_Atoms>  (620) 
nan

>  <Num_Not_Resolved_Atoms>  (620) 
nan

$$$$
CHEMBL2430115
     RDKit          3D

  0  0  0  0  0  0  0  0  0  0999 V3000
M  V30 BEGIN CTAB
M  V30 COUNTS 70 73 0 0 0
M  V30 BEGIN ATOM
M  V30 1 C -1.235854 5.233055 1.361400 0
M  V30 2 C 0.266468 5.174839 1.261248 0
M  V30 3 C 0.787695 3.745196 1.439549 0
M  V30 4 C 0.376373 3.245437 2.787472 0
M  V30 5 C 0.861694 1.821351 3.040487 0
M  V30 6 C 0.194280 2.945963 0.337861 0
M  V30 7 O -0.561503 3.565457 -0.447387 0
M  V30 8 O 0.333074 1.615128 0.022723 0
M  V30 9 C -0.281636 0.973417 -1.047521 0 CFG=1
M  V30 10 C 0.596979 0.221415 -1.949511 0
M  V30 11 C 1.310810 0.969729 -3.049915 0
M  V30 12 C 0.588146 -1.077996 -1.581040 0
M  V30 13 C -0.278482 -1.291287 -0.426531 0 CFG=2
M  V30 14 C -1.224174 -2.468436 -0.505740 0
M  V30 15 O -1.821930 -2.399742 0.537078 0
M  V30 16 C -1.199660 -3.348736 -1.728922 0 CFG=1
M  V30 17 C -1.454899 -2.338082 -2.835895 0
M  V30 18 C -1.866797 -1.041494 -2.772189 0
M  V30 19 C -1.927822 -0.320649 -4.088256 0
M  V30 20 O -1.527476 -1.206036 -5.086745 0
M  V30 21 C -2.243678 -0.348594 -1.517237 0 CFG=1
M  V30 22 O -3.390687 -0.929822 -0.977611 0
M  V30 23 C -1.157566 -0.139202 -0.495269 0 CFG=2
M  V30 24 O -1.758703 0.233417 0.702796 0
M  V30 25 C 0.205799 -3.867832 -1.749503 0 CFG=1
M  V30 26 C 1.139626 -3.622264 -0.719750 0 CFG=1
M  V30 27 C 0.866479 -3.110932 0.616179 0
M  V30 28 C 0.590776 -1.612436 0.720116 0 CFG=1
M  V30 29 C 1.979892 -1.006682 0.650998 0
M  V30 30 C 0.561629 -5.044072 -0.958789 0
M  V30 31 C 1.576787 -6.056018 -1.448317 0
M  V30 32 C -0.378312 -5.604533 0.082115 0
M  V30 33 H -1.675083 5.658376 0.433289 0
M  V30 34 H -1.704831 4.216188 1.485868 0
M  V30 35 H -1.569796 5.815773 2.261223 0
M  V30 36 H 0.572457 5.559334 0.265607 0
M  V30 37 H 0.704212 5.873869 2.002184 0
M  V30 38 H 1.882709 3.788093 1.391057 0
M  V30 39 H 0.886067 3.866530 3.552059 0
M  V30 40 H -0.692362 3.289141 2.995930 0
M  V30 41 H 0.738982 1.544413 4.106456 0
M  V30 42 H 0.311650 1.101458 2.436451 0
M  V30 43 H 1.945665 1.726843 2.807562 0
M  V30 44 H -0.919033 1.665292 -1.642020 0
M  V30 45 H 0.672344 1.726454 -3.501818 0
M  V30 46 H 1.518637 0.211634 -3.843432 0
M  V30 47 H 2.301302 1.318794 -2.703135 0
M  V30 48 H 1.223386 -1.680911 -2.219098 0
M  V30 49 H -1.968368 -4.127569 -1.713859 0
M  V30 50 H -1.287529 -2.684144 -3.862169 0
M  V30 51 H -2.978090 -0.050793 -4.331648 0
M  V30 52 H -1.355103 0.604195 -4.112916 0
M  V30 53 H -2.276573 -1.713048 -5.469199 0
M  V30 54 H -2.589897 0.690819 -1.804247 0
M  V30 55 H -4.089895 -0.307298 -0.723992 0
M  V30 56 H -2.547441 0.803997 0.567208 0
M  V30 57 H 0.588892 -3.920335 -2.799793 0
M  V30 58 H 2.226085 -3.490273 -1.015723 0
M  V30 59 H 1.749713 -3.326592 1.286484 0
M  V30 60 H 0.032171 -3.668132 1.137197 0
M  V30 61 H 0.111432 -1.415831 1.697738 0
M  V30 62 H 2.749634 -1.698618 1.053377 0
M  V30 63 H 2.102100 -0.084598 1.244034 0
M  V30 64 H 2.246874 -0.893458 -0.423502 0
M  V30 65 H 1.107106 -6.882849 -2.002896 0
M  V30 66 H 2.366247 -5.529968 -2.023893 0
M  V30 67 H 2.084551 -6.448073 -0.528269 0
M  V30 68 H -1.333256 -5.079964 0.170367 0
M  V30 69 H -0.629293 -6.626351 -0.267773 0
M  V30 70 H 0.186532 -5.699691 1.043840 0
M  V30 END ATOM
M  V30 BEGIN BOND
M  V30 1 1 1 2
M  V30 2 1 2 3
M  V30 3 1 3 4
M  V30 4 1 4 5
M  V30 5 1 3 6
M  V30 6 2 6 7
M  V30 7 1 6 8
M  V30 8 1 8 9
M  V30 9 1 9 10
M  V30 10 1 10 11
M  V30 11 2 10 12
M  V30 12 1 13 12 CFG=3
M  V30 13 1 13 14
M  V30 14 2 14 15
M  V30 15 1 14 16
M  V30 16 1 16 17
M  V30 17 2 17 18
M  V30 18 1 18 19
M  V30 19 1 19 20
M  V30 20 1 18 21
M  V30 21 1 21 22
M  V30 22 1 21 23
M  V30 23 1 23 24 CFG=1
M  V30 24 1 16 25
M  V30 25 1 25 26
M  V30 26 1 26 27
M  V30 27 1 27 28
M  V30 28 1 28 29
M  V30 29 1 26 30
M  V30 30 1 30 31
M  V30 31 1 30 32
M  V30 32 1 23 9
M  V30 33 1 30 25
M  V30 34 1 23 13
M  V30 35 1 28 13
M  V30 36 1 1 33
M  V30 37 1 1 34
M  V30 38 1 1 35
M  V30 39 1 2 36
M  V30 40 1 2 37
M  V30 41 1 3 38
M  V30 42 1 4 39
M  V30 43 1 4 40
M  V30 44 1 5 41
M  V30 45 1 5 42
M  V30 46 1 5 43
M  V30 47 1 9 44 CFG=3
M  V30 48 1 11 45
M  V30 49 1 11 46
M  V30 50 1 11 47
M  V30 51 1 12 48
M  V30 52 1 16 49 CFG=1
M  V30 53 1 17 50
M  V30 54 1 19 51
M  V30 55 1 19 52
M  V30 56 1 20 53
M  V30 57 1 21 54 CFG=3
M  V30 58 1 22 55
M  V30 59 1 24 56
M  V30 60 1 25 57 CFG=3
M  V30 61 1 26 58 CFG=3
M  V30 62 1 27 59
M  V30 63 1 27 60
M  V30 64 1 28 61 CFG=1
M  V30 65 1 29 62
M  V30 66 1 29 63
M  V30 67 1 29 64
M  V30 68 1 31 65
M  V30 69 1 31 66
M  V30 70 1 31 67
M  V30 71 1 32 68
M  V30 72 1 32 69
M  V30 73 1 32 70
M  V30 END BOND
M  V30 END CTAB
M  END
>  <Dataset>  (621) 
ChEMBL_Kinases

>  <Ligand_Instance>  (621) 
nan

>  <PDB_ID>  (621) 
nan

>  <Standardized_SMILES>  (621) 
CCC(CC)C(=O)O[C@H]1C(C)=C[C@]23C(=O)[C@@H](C=C(CO)[C@@H](O)[C@]12O)[C@H]1[C@@H](C[C@H]3C)C1(C)C

>  <Name>  (621) 
nan

>  <Pocket>  (621) 
nan

>  <ATP_Site>  (621) 
nan

>  <Peripheral>  (621) 
nan

>  <Num_H_Atoms_ProtBoundConf>  (621) 
nan

>  <Num_Resolved_Atoms>  (621) 
nan

>  <Num_Not_Resolved_Atoms>  (621) 
nan

$$$$
CHEMBL242949
     RDKit          3D

  0  0  0  0  0  0  0  0  0  0999 V3000
M  V30 BEGIN CTAB
M  V30 COUNTS 52 56 0 0 0
M  V30 BEGIN ATOM
M  V30 1 O 6.090624 -1.450161 6.203358 0
M  V30 2 C 6.553836 -1.494085 5.035147 0
M  V30 3 O 7.867281 -1.900078 5.094903 0
M  V30 4 C 5.803268 -1.164344 3.829901 0
M  V30 5 C 4.491196 -0.779416 4.017016 0
M  V30 6 C 3.800849 -0.470744 2.843782 0
M  V30 7 C 4.421171 -0.556582 1.603352 0
M  V30 8 C 3.621820 -0.213518 0.416798 0
M  V30 9 N 3.967199 0.551707 -0.642214 0
M  V30 10 N 2.976268 0.626722 -1.510442 0
M  V30 11 C 1.928018 -0.089477 -1.060071 0
M  V30 12 C 2.311666 -0.628506 0.153549 0
M  V30 13 C 1.255522 -1.441062 0.763793 0
M  V30 14 C 0.148707 -1.333185 -0.247326 0
M  V30 15 C -1.113422 -1.888068 -0.233957 0
M  V30 16 C -2.029341 -1.695949 -1.247064 0
M  V30 17 C -3.399841 -2.254471 -1.295603 0
M  V30 18 N -4.416303 -1.392068 -0.753028 0
M  V30 19 C -4.431741 -0.167227 -1.526933 0
M  V30 20 C -5.497359 0.795359 -0.986623 0
M  V30 21 C -5.053612 1.160464 0.413491 0
M  V30 22 O -5.883518 2.077416 1.011775 0
M  V30 23 C -5.086408 -0.116997 1.230694 0
M  V30 24 C -4.184390 -1.176651 0.634795 0
M  V30 25 C -1.570408 -0.890493 -2.290985 0
M  V30 26 C -0.320895 -0.322675 -2.336281 0
M  V30 27 C 0.561816 -0.542607 -1.299465 0
M  V30 28 C 5.743623 -0.951344 1.496111 0
M  V30 29 C 6.485170 -1.272793 2.635167 0
M  V30 30 H 8.233349 -2.614802 5.703048 0
M  V30 31 H 4.051765 -0.726340 4.988376 0
M  V30 32 H 2.759537 -0.159959 2.928884 0
M  V30 33 H 2.975655 1.153476 -2.417215 0
M  V30 34 H 0.857029 -0.933375 1.680438 0
M  V30 35 H 1.548419 -2.493688 0.954446 0
M  V30 36 H -1.395563 -2.499294 0.594180 0
M  V30 37 H -3.333080 -3.225767 -0.722503 0
M  V30 38 H -3.636506 -2.586940 -2.335416 0
M  V30 39 H -4.730893 -0.406573 -2.557054 0
M  V30 40 H -3.483155 0.410110 -1.450008 0
M  V30 41 H -5.532280 1.645710 -1.675774 0
M  V30 42 H -6.466745 0.259989 -0.986206 0
M  V30 43 H -3.998248 1.516749 0.303329 0
M  V30 44 H -6.784166 2.038614 0.603003 0
M  V30 45 H -6.119473 -0.448325 1.327910 0
M  V30 46 H -4.678131 0.128193 2.232087 0
M  V30 47 H -4.375514 -2.120425 1.180569 0
M  V30 48 H -3.121706 -0.901575 0.845315 0
M  V30 49 H -2.186406 -0.649925 -3.165460 0
M  V30 50 H 0.019619 0.295409 -3.146022 0
M  V30 51 H 6.213564 -1.014731 0.536799 0
M  V30 52 H 7.506475 -1.582242 2.607319 0
M  V30 END ATOM
M  V30 BEGIN BOND
M  V30 1 2 1 2
M  V30 2 1 2 3
M  V30 3 1 2 4
M  V30 4 2 4 5
M  V30 5 1 5 6
M  V30 6 2 6 7
M  V30 7 1 7 8
M  V30 8 2 8 9
M  V30 9 1 9 10
M  V30 10 1 10 11
M  V30 11 2 11 12
M  V30 12 1 12 13
M  V30 13 1 13 14
M  V30 14 2 14 15
M  V30 15 1 15 16
M  V30 16 1 16 17
M  V30 17 1 17 18
M  V30 18 1 18 19
M  V30 19 1 19 20
M  V30 20 1 20 21
M  V30 21 1 21 22
M  V30 22 1 21 23
M  V30 23 1 23 24
M  V30 24 2 16 25
M  V30 25 1 25 26
M  V30 26 2 26 27
M  V30 27 1 7 28
M  V30 28 2 28 29
M  V30 29 1 29 4
M  V30 30 1 12 8
M  V30 31 1 27 14
M  V30 32 1 27 11
M  V30 33 1 24 18
M  V30 34 1 3 30
M  V30 35 1 5 31
M  V30 36 1 6 32
M  V30 37 1 10 33
M  V30 38 1 13 34
M  V30 39 1 13 35
M  V30 40 1 15 36
M  V30 41 1 17 37
M  V30 42 1 17 38
M  V30 43 1 19 39
M  V30 44 1 19 40
M  V30 45 1 20 41
M  V30 46 1 20 42
M  V30 47 1 21 43
M  V30 48 1 22 44
M  V30 49 1 23 45
M  V30 50 1 23 46
M  V30 51 1 24 47
M  V30 52 1 24 48
M  V30 53 1 25 49
M  V30 54 1 26 50
M  V30 55 1 28 51
M  V30 56 1 29 52
M  V30 END BOND
M  V30 END CTAB
M  END
>  <Dataset>  (622) 
ChEMBL_Kinases

>  <Ligand_Instance>  (622) 
nan

>  <PDB_ID>  (622) 
nan

>  <Standardized_SMILES>  (622) 
O=C(O)c1ccc(-c2n[nH]c3c2Cc2cc(CN4CCC(O)CC4)ccc2-3)cc1

>  <Name>  (622) 
nan

>  <Pocket>  (622) 
nan

>  <ATP_Site>  (622) 
nan

>  <Peripheral>  (622) 
nan

>  <Num_H_Atoms_ProtBoundConf>  (622) 
nan

>  <Num_Resolved_Atoms>  (622) 
nan

>  <Num_Not_Resolved_Atoms>  (622) 
nan

$$$$
CHEMBL242909
     RDKit          3D

  0  0  0  0  0  0  0  0  0  0999 V3000
M  V30 BEGIN CTAB
M  V30 COUNTS 47 51 0 0 0
M  V30 BEGIN ATOM
M  V30 1 C -4.599984 -4.477484 -2.566473 0
M  V30 2 N -3.272475 -4.268479 -1.975946 0
M  V30 3 C -2.568349 -5.268537 -1.425431 0
M  V30 4 C -1.392953 -4.698626 -0.984624 0
M  V30 5 C -1.389021 -3.341757 -1.272469 0
M  V30 6 C -0.502923 -2.279428 -1.075402 0
M  V30 7 C -0.845942 -0.995583 -1.513893 0
M  V30 8 C 0.216376 -0.050112 -1.208997 0
M  V30 9 O 1.355773 -0.289907 -1.707321 0
M  V30 10 N 0.280481 1.143122 -0.442478 0
M  V30 11 C 1.566162 1.803605 -0.391960 0
M  V30 12 C 2.089052 1.986036 1.016781 0
M  V30 13 C 1.021331 1.640655 1.978053 0
M  V30 14 C -0.340110 1.565348 1.771716 0
M  V30 15 C -0.970132 1.207739 2.946486 0
M  V30 16 N 0.029688 1.070149 3.856509 0
M  V30 17 N 1.202691 1.324478 3.288558 0
M  V30 18 C 2.340175 1.215056 4.136956 0
M  V30 19 C 2.934875 -0.029391 4.286291 0
M  V30 20 C 4.036336 -0.336179 5.057597 0
M  V30 21 C 4.608459 0.719593 5.759072 0
M  V30 22 C 4.049962 1.976087 5.640664 0
M  V30 23 C 2.946476 2.246995 4.858908 0
M  V30 24 Cl 2.218184 3.825292 4.689668 0
M  V30 25 C -0.700751 1.893643 0.344887 0
M  V30 26 C -2.051553 -0.768003 -2.139342 0
M  V30 27 C -2.896337 -1.837292 -2.315061 0
M  V30 28 C -2.594783 -3.118434 -1.897117 0
M  V30 29 H -5.133577 -3.490514 -2.602256 0
M  V30 30 H -5.174818 -5.189093 -1.923498 0
M  V30 31 H -4.481410 -4.935922 -3.567296 0
M  V30 32 H -2.768254 -6.325438 -1.295401 0
M  V30 33 H -0.549586 -5.179089 -0.478034 0
M  V30 34 H 0.409269 -2.573918 -0.575434 0
M  V30 35 H 1.395889 2.800778 -0.895865 0
M  V30 36 H 2.329217 1.291761 -0.974550 0
M  V30 37 H 3.007059 1.421351 1.205505 0
M  V30 38 H 2.360278 3.058456 1.122603 0
M  V30 39 H -2.038569 1.095663 2.992983 0
M  V30 40 H 2.489515 -0.872637 3.734300 0
M  V30 41 H 4.409982 -1.347004 5.094338 0
M  V30 42 H 5.474197 0.540840 6.380588 0
M  V30 43 H 4.499057 2.810559 6.192645 0
M  V30 44 H -1.713265 1.507363 0.101993 0
M  V30 45 H -0.644306 2.962247 0.138251 0
M  V30 46 H -2.207086 0.247542 -2.431149 0
M  V30 47 H -3.844210 -1.625800 -2.813760 0
M  V30 END ATOM
M  V30 BEGIN BOND
M  V30 1 1 1 2
M  V30 2 1 2 3
M  V30 3 2 3 4
M  V30 4 1 4 5
M  V30 5 2 5 6
M  V30 6 1 6 7
M  V30 7 1 7 8
M  V30 8 2 8 9
M  V30 9 1 8 10
M  V30 10 1 10 11
M  V30 11 1 11 12
M  V30 12 1 12 13
M  V30 13 2 13 14
M  V30 14 1 14 15
M  V30 15 2 15 16
M  V30 16 1 16 17
M  V30 17 1 17 18
M  V30 18 2 18 19
M  V30 19 1 19 20
M  V30 20 2 20 21
M  V30 21 1 21 22
M  V30 22 2 22 23
M  V30 23 1 23 24
M  V30 24 1 14 25
M  V30 25 2 7 26
M  V30 26 1 26 27
M  V30 27 2 27 28
M  V30 28 1 28 2
M  V30 29 1 28 5
M  V30 30 1 25 10
M  V30 31 1 17 13
M  V30 32 1 23 18
M  V30 33 1 1 29
M  V30 34 1 1 30
M  V30 35 1 1 31
M  V30 36 1 3 32
M  V30 37 1 4 33
M  V30 38 1 6 34
M  V30 39 1 11 35
M  V30 40 1 11 36
M  V30 41 1 12 37
M  V30 42 1 12 38
M  V30 43 1 15 39
M  V30 44 1 19 40
M  V30 45 1 20 41
M  V30 46 1 21 42
M  V30 47 1 22 43
M  V30 48 1 25 44
M  V30 49 1 25 45
M  V30 50 1 26 46
M  V30 51 1 27 47
M  V30 END BOND
M  V30 END CTAB
M  END
>  <Dataset>  (623) 
ChEMBL_Kinases

>  <Ligand_Instance>  (623) 
nan

>  <PDB_ID>  (623) 
nan

>  <Standardized_SMILES>  (623) 
Cn1ccc2cc(C(=O)N3CCc4c(cnn4-c4ccccc4Cl)C3)ccc21

>  <Name>  (623) 
nan

>  <Pocket>  (623) 
nan

>  <ATP_Site>  (623) 
nan

>  <Peripheral>  (623) 
nan

>  <Num_H_Atoms_ProtBoundConf>  (623) 
nan

>  <Num_Resolved_Atoms>  (623) 
nan

>  <Num_Not_Resolved_Atoms>  (623) 
nan

$$$$
CHEMBL242908
     RDKit          3D

  0  0  0  0  0  0  0  0  0  0999 V3000
M  V30 BEGIN CTAB
M  V30 COUNTS 44 48 0 0 0
M  V30 BEGIN ATOM
M  V30 1 O 2.909600 0.043313 2.045129 0
M  V30 2 C 2.280559 0.751233 1.229903 0
M  V30 3 C 2.822277 0.945292 -0.096064 0
M  V30 4 C 4.099704 1.300477 -0.445888 0
M  V30 5 C 4.363816 1.396289 -1.789370 0
M  V30 6 C 3.419679 1.155677 -2.785533 0
M  V30 7 C 3.454618 1.185920 -4.161051 0
M  V30 8 C 2.203738 0.850873 -4.653657 0
M  V30 9 N 1.448233 0.628343 -3.564791 0
M  V30 10 C 2.119399 0.794511 -2.421598 0
M  V30 11 C 1.851263 0.697263 -1.070716 0
M  V30 12 N 1.133703 1.166339 1.941752 0
M  V30 13 C 1.090498 0.620097 3.310629 0
M  V30 14 C 0.184508 -0.627776 3.238457 0
M  V30 15 C -0.902876 -0.247501 2.283738 0
M  V30 16 C -1.131314 0.913460 1.523044 0
M  V30 17 C -2.299469 0.721991 0.817685 0
M  V30 18 N -2.769042 -0.498482 1.126494 0
M  V30 19 N -1.942633 -1.088743 2.001803 0
M  V30 20 C -2.234251 -2.425438 2.473552 0
M  V30 21 C -2.672228 -2.847015 3.705745 0
M  V30 22 C -2.866693 -4.198072 3.901245 0
M  V30 23 C -2.635374 -5.120237 2.905283 0
M  V30 24 C -2.192411 -4.673849 1.666020 0
M  V30 25 C -1.982597 -3.323435 1.423305 0
M  V30 26 Cl -1.424835 -2.924265 -0.189318 0
M  V30 27 C -0.068659 1.989551 1.668752 0
M  V30 28 H 4.779983 1.472799 0.367783 0
M  V30 29 H 5.359027 1.669716 -2.081112 0
M  V30 30 H 4.298856 1.423114 -4.790251 0
M  V30 31 H 1.816627 0.760000 -5.678305 0
M  V30 32 H 0.426464 0.348712 -3.594879 0
M  V30 33 H 0.819393 0.417831 -0.881369 0
M  V30 34 H 2.072266 0.407479 3.728195 0
M  V30 35 H 0.586526 1.345160 3.967915 0
M  V30 36 H 0.808017 -1.429755 2.854444 0
M  V30 37 H -0.182130 -0.856128 4.246348 0
M  V30 38 H -2.628794 1.523181 0.173169 0
M  V30 39 H -2.807990 -2.018563 4.373828 0
M  V30 40 H -3.208191 -4.466505 4.876962 0
M  V30 41 H -2.800793 -6.171841 3.099738 0
M  V30 42 H -2.015032 -5.432583 0.885172 0
M  V30 43 H 0.090714 2.533517 0.719389 0
M  V30 44 H -0.276271 2.617232 2.526007 0
M  V30 END ATOM
M  V30 BEGIN BOND
M  V30 1 2 1 2
M  V30 2 1 2 3
M  V30 3 2 3 4
M  V30 4 1 4 5
M  V30 5 2 5 6
M  V30 6 1 6 7
M  V30 7 2 7 8
M  V30 8 1 8 9
M  V30 9 1 9 10
M  V30 10 2 10 11
M  V30 11 1 2 12
M  V30 12 1 12 13
M  V30 13 1 13 14
M  V30 14 1 14 15
M  V30 15 2 15 16
M  V30 16 1 16 17
M  V30 17 2 17 18
M  V30 18 1 18 19
M  V30 19 1 19 20
M  V30 20 2 20 21
M  V30 21 1 21 22
M  V30 22 2 22 23
M  V30 23 1 23 24
M  V30 24 2 24 25
M  V30 25 1 25 26
M  V30 26 1 16 27
M  V30 27 1 11 3
M  V30 28 1 27 12
M  V30 29 1 10 6
M  V30 30 1 19 15
M  V30 31 1 25 20
M  V30 32 1 4 28
M  V30 33 1 5 29
M  V30 34 1 7 30
M  V30 35 1 8 31
M  V30 36 1 9 32
M  V30 37 1 11 33
M  V30 38 1 13 34
M  V30 39 1 13 35
M  V30 40 1 14 36
M  V30 41 1 14 37
M  V30 42 1 17 38
M  V30 43 1 21 39
M  V30 44 1 22 40
M  V30 45 1 23 41
M  V30 46 1 24 42
M  V30 47 1 27 43
M  V30 48 1 27 44
M  V30 END BOND
M  V30 END CTAB
M  END
>  <Dataset>  (624) 
ChEMBL_Kinases

>  <Ligand_Instance>  (624) 
nan

>  <PDB_ID>  (624) 
nan

>  <Standardized_SMILES>  (624) 
O=C(c1ccc2cc[nH]c2c1)N1CCc2c(cnn2-c2ccccc2Cl)C1

>  <Name>  (624) 
nan

>  <Pocket>  (624) 
nan

>  <ATP_Site>  (624) 
nan

>  <Peripheral>  (624) 
nan

>  <Num_H_Atoms_ProtBoundConf>  (624) 
nan

>  <Num_Resolved_Atoms>  (624) 
nan

>  <Num_Not_Resolved_Atoms>  (624) 
nan

$$$$
CHEMBL242865
     RDKit          3D

  0  0  0  0  0  0  0  0  0  0999 V3000
M  V30 BEGIN CTAB
M  V30 COUNTS 39 41 0 0 0
M  V30 BEGIN ATOM
M  V30 1 O 5.117038 -3.750443 -1.716020 0
M  V30 2 C 4.259638 -2.909710 -1.342438 0
M  V30 3 O 4.077121 -2.725351 -2.686450 0
M  V30 4 C 3.821844 -2.484712 -0.019922 0
M  V30 5 C 4.493083 -3.147888 0.977392 0
M  V30 6 C 4.196669 -2.862005 2.285521 0
M  V30 7 C 3.233413 -1.917039 2.539961 0
M  V30 8 C 2.598034 -1.288897 1.497596 0
M  V30 9 C 2.848656 -1.529752 0.171828 0
M  V30 10 N 2.219260 -0.907732 -0.904871 0
M  V30 11 C 1.214036 0.077897 -0.869623 0
M  V30 12 C 0.707939 0.582331 -2.070153 0
M  V30 13 C -0.270370 1.542128 -2.170273 0
M  V30 14 N -0.780031 2.033918 -1.033366 0
M  V30 15 C -0.299769 1.555057 0.128288 0
M  V30 16 N -0.878708 2.114503 1.326160 0
M  V30 17 C -2.024515 1.443584 1.830501 0
M  V30 18 C -2.556457 0.329135 1.221711 0
M  V30 19 C -3.671539 -0.364063 1.669539 0
M  V30 20 C -4.275162 0.125152 2.819146 0
M  V30 21 N -5.429482 -0.609283 3.264597 0 CHG=1 VAL=4
M  V30 22 O -6.087331 -0.306216 4.275578 0
M  V30 23 O -5.946812 -1.731827 2.631864 0 CHG=-1 VAL=1
M  V30 24 C -3.797353 1.245081 3.490809 0
M  V30 25 C -2.677674 1.875769 2.972512 0
M  V30 26 N 0.653962 0.619439 0.216586 0
M  V30 27 H 3.313664 -3.049886 -3.255512 0
M  V30 28 H 5.254306 -3.894887 0.833753 0
M  V30 29 H 4.685592 -3.345531 3.121251 0
M  V30 30 H 3.002945 -1.694802 3.569307 0
M  V30 31 H 1.862354 -0.567576 1.795978 0
M  V30 32 H 2.533798 -1.211857 -1.867205 0
M  V30 33 H 1.083149 0.220929 -3.022442 0
M  V30 34 H -0.629045 1.900293 -3.114887 0
M  V30 35 H -0.535830 2.948560 1.839950 0
M  V30 36 H -2.071788 -0.051215 0.311763 0
M  V30 37 H -4.042577 -1.228464 1.153576 0
M  V30 38 H -4.314910 1.568264 4.375542 0
M  V30 39 H -2.300185 2.756291 3.498565 0
M  V30 END ATOM
M  V30 BEGIN BOND
M  V30 1 2 1 2
M  V30 2 1 2 3
M  V30 3 1 2 4
M  V30 4 2 4 5
M  V30 5 1 5 6
M  V30 6 2 6 7
M  V30 7 1 7 8
M  V30 8 2 8 9
M  V30 9 1 9 10
M  V30 10 1 10 11
M  V30 11 2 11 12
M  V30 12 1 12 13
M  V30 13 2 13 14
M  V30 14 1 14 15
M  V30 15 1 15 16
M  V30 16 1 16 17
M  V30 17 2 17 18
M  V30 18 1 18 19
M  V30 19 2 19 20
M  V30 20 1 20 21
M  V30 21 2 21 22
M  V30 22 1 21 23
M  V30 23 1 20 24
M  V30 24 2 24 25
M  V30 25 2 15 26
M  V30 26 1 9 4
M  V30 27 1 26 11
M  V30 28 1 25 17
M  V30 29 1 3 27
M  V30 30 1 5 28
M  V30 31 1 6 29
M  V30 32 1 7 30
M  V30 33 1 8 31
M  V30 34 1 10 32
M  V30 35 1 12 33
M  V30 36 1 13 34
M  V30 37 1 16 35
M  V30 38 1 18 36
M  V30 39 1 19 37
M  V30 40 1 24 38
M  V30 41 1 25 39
M  V30 END BOND
M  V30 END CTAB
M  END
>  <Dataset>  (625) 
ChEMBL_Kinases

>  <Ligand_Instance>  (625) 
nan

>  <PDB_ID>  (625) 
nan

>  <Standardized_SMILES>  (625) 
O=C(O)c1ccccc1Nc1ccnc(Nc2ccc([N+](=O)[O-])cc2)n1

>  <Name>  (625) 
nan

>  <Pocket>  (625) 
nan

>  <ATP_Site>  (625) 
nan

>  <Peripheral>  (625) 
nan

>  <Num_H_Atoms_ProtBoundConf>  (625) 
nan

>  <Num_Resolved_Atoms>  (625) 
nan

>  <Num_Not_Resolved_Atoms>  (625) 
nan

$$$$
CHEMBL242852
     RDKit          3D

  0  0  0  0  0  0  0  0  0  0999 V3000
M  V30 BEGIN CTAB
M  V30 COUNTS 44 47 0 0 0
M  V30 BEGIN ATOM
M  V30 1 N 0.320203 -4.919256 3.895800 0
M  V30 2 C 0.981841 -4.167204 3.295672 0
M  V30 3 C 1.796620 -3.247264 2.561212 0
M  V30 4 C 3.165987 -3.374533 2.471626 0
M  V30 5 N 3.893953 -2.488214 1.771369 0
M  V30 6 C 3.284270 -1.464713 1.149827 0
M  V30 7 C 4.047317 -0.571538 0.440305 0
M  V30 8 Cl 5.786158 -0.734314 0.327230 0
M  V30 9 C 3.545413 0.511425 -0.235802 0
M  V30 10 C 2.162037 0.720267 -0.200138 0
M  V30 11 N 1.510498 1.788683 -0.859481 0
M  V30 12 C 0.168415 2.293894 -1.011243 0
M  V30 13 C -0.431494 2.799678 0.242988 0
M  V30 14 C -0.050813 4.128962 0.462204 0
M  V30 15 C -0.497915 4.834994 1.577317 0
M  V30 16 C -1.328747 4.177834 2.457353 0
M  V30 17 N -1.703394 2.907890 2.264281 0
M  V30 18 C -1.262084 2.247009 1.184942 0
M  V30 19 C 1.399875 -0.179723 0.513729 0
M  V30 20 C 1.921214 -1.263361 1.187914 0
M  V30 21 C 1.201673 -2.186737 1.912438 0
M  V30 22 N -0.220607 -1.989261 1.960828 0
M  V30 23 C -0.958769 -2.627010 0.926967 0
M  V30 24 C -0.335343 -3.386636 -0.057235 0
M  V30 25 C -1.020326 -4.019768 -1.075722 0
M  V30 26 C -2.398982 -3.897890 -1.128167 0
M  V30 27 F -3.119872 -4.498557 -2.106124 0
M  V30 28 C -3.052203 -3.161346 -0.181888 0
M  V30 29 Cl -4.800153 -3.015173 -0.260313 0
M  V30 30 C -2.340053 -2.536362 0.829410 0
M  V30 31 H 3.612129 -4.216977 2.990403 0
M  V30 32 H 4.154070 1.222236 -0.800616 0
M  V30 33 H 2.209870 2.383438 -1.387594 0
M  V30 34 H 0.101398 3.029500 -1.813139 0
M  V30 35 H -0.443921 1.420581 -1.369641 0
M  V30 36 H 0.596546 4.737260 -0.165222 0
M  V30 37 H -0.232083 5.858141 1.787866 0
M  V30 38 H -1.739521 4.629972 3.363270 0
M  V30 39 H -1.520199 1.227529 0.942919 0
M  V30 40 H 0.330742 -0.153872 0.627544 0
M  V30 41 H -0.748411 -1.443322 2.654960 0
M  V30 42 H 0.746838 -3.498478 -0.039206 0
M  V30 43 H -0.475234 -4.603445 -1.821092 0
M  V30 44 H -2.859057 -1.945157 1.589834 0
M  V30 END ATOM
M  V30 BEGIN BOND
M  V30 1 3 1 2
M  V30 2 1 2 3
M  V30 3 2 3 4
M  V30 4 1 4 5
M  V30 5 2 5 6
M  V30 6 1 6 7
M  V30 7 1 7 8
M  V30 8 2 7 9
M  V30 9 1 9 10
M  V30 10 1 10 11
M  V30 11 1 11 12
M  V30 12 1 12 13
M  V30 13 2 13 14
M  V30 14 1 14 15
M  V30 15 2 15 16
M  V30 16 1 16 17
M  V30 17 2 17 18
M  V30 18 2 10 19
M  V30 19 1 19 20
M  V30 20 2 20 21
M  V30 21 1 21 22
M  V30 22 1 22 23
M  V30 23 2 23 24
M  V30 24 1 24 25
M  V30 25 2 25 26
M  V30 26 1 26 27
M  V30 27 1 26 28
M  V30 28 1 28 29
M  V30 29 2 28 30
M  V30 30 1 21 3
M  V30 31 1 30 23
M  V30 32 1 20 6
M  V30 33 1 18 13
M  V30 34 1 4 31
M  V30 35 1 9 32
M  V30 36 1 11 33
M  V30 37 1 12 34
M  V30 38 1 12 35
M  V30 39 1 14 36
M  V30 40 1 15 37
M  V30 41 1 16 38
M  V30 42 1 18 39
M  V30 43 1 19 40
M  V30 44 1 22 41
M  V30 45 1 24 42
M  V30 46 1 25 43
M  V30 47 1 30 44
M  V30 END BOND
M  V30 END CTAB
M  END
>  <Dataset>  (626) 
ChEMBL_Kinases

>  <Ligand_Instance>  (626) 
nan

>  <PDB_ID>  (626) 
nan

>  <Standardized_SMILES>  (626) 
N#Cc1cnc2c(Cl)cc(NCc3cccnc3)cc2c1Nc1ccc(F)c(Cl)c1

>  <Name>  (626) 
nan

>  <Pocket>  (626) 
nan

>  <ATP_Site>  (626) 
nan

>  <Peripheral>  (626) 
nan

>  <Num_H_Atoms_ProtBoundConf>  (626) 
nan

>  <Num_Resolved_Atoms>  (626) 
nan

>  <Num_Not_Resolved_Atoms>  (626) 
nan

$$$$
CHEMBL242754
     RDKit          3D

  0  0  0  0  0  0  0  0  0  0999 V3000
M  V30 BEGIN CTAB
M  V30 COUNTS 59 64 0 0 0
M  V30 BEGIN ATOM
M  V30 1 O 2.166798 -6.734568 1.170555 0
M  V30 2 C 1.899738 -5.768466 0.407227 0
M  V30 3 C 2.403448 -4.407191 0.313063 0
M  V30 4 C 3.712047 -4.106261 -0.026699 0
M  V30 5 C 4.173659 -2.786376 -0.110087 0
M  V30 6 C 3.303679 -1.750302 0.152573 0
M  V30 7 C 2.009732 -2.082647 0.487838 0
M  V30 8 C 1.513091 -3.364411 0.581905 0
M  V30 9 C 1.204217 -0.835229 0.741374 0
M  V30 10 C 2.156154 0.276083 0.514092 0
M  V30 11 C 2.354334 1.641368 0.495317 0
M  V30 12 C 1.256467 2.553912 0.808615 0
M  V30 13 C 0.465904 2.269635 1.914277 0
M  V30 14 C -0.582684 3.157573 2.189433 0
M  V30 15 C -0.837092 4.267617 1.413779 0
M  V30 16 C -1.963277 5.122582 1.803667 0
M  V30 17 C -2.618168 5.769962 0.766834 0
M  V30 18 C -3.712702 6.625483 0.927797 0
M  V30 19 C -4.117826 6.791882 2.242493 0
M  V30 20 O -5.210573 7.638883 2.455056 0
M  V30 21 C -3.498769 6.169824 3.306305 0
M  V30 22 C -2.422759 5.338945 3.065349 0
M  V30 23 C -0.056388 4.558195 0.312976 0
M  V30 24 C 0.987392 3.670213 0.042682 0
M  V30 25 N 3.644014 1.880478 0.156506 0
M  V30 26 N 4.269152 0.720845 -0.039717 0
M  V30 27 C 3.377720 -0.287940 0.173037 0
M  V30 28 N 0.883647 -6.268406 -0.484587 0
M  V30 29 C 0.418604 -7.609637 -0.356909 0
M  V30 30 C -1.040393 -7.828130 -0.507494 0
M  V30 31 C -1.820818 -6.787480 -1.209979 0
M  V30 32 O -3.080900 -6.617805 -0.602005 0
M  V30 33 C -1.209202 -5.438951 -1.320205 0
M  V30 34 C 0.291435 -5.482810 -1.524459 0
M  V30 35 H 4.385710 -4.933710 -0.230531 0
M  V30 36 H 5.191862 -2.552674 -0.375221 0
M  V30 37 H 0.490470 -3.596371 0.848283 0
M  V30 38 H 0.829000 -0.817781 1.778288 0
M  V30 39 H 0.381543 -0.861063 -0.000072 0
M  V30 40 H 0.591575 1.426781 2.574932 0
M  V30 41 H -1.215340 2.960481 3.046743 0
M  V30 42 H -2.293775 5.632578 -0.265991 0
M  V30 43 H -4.171632 7.097135 0.069941 0
M  V30 44 H -6.169359 7.262823 2.465212 0
M  V30 45 H -3.841513 6.324737 4.314987 0
M  V30 46 H -1.879993 4.810468 3.851478 0
M  V30 47 H -0.257695 5.421469 -0.285299 0
M  V30 48 H 1.594934 3.903304 -0.820012 0
M  V30 49 H 5.295282 0.650281 -0.315442 0
M  V30 50 H 0.812178 -8.124520 0.566343 0
M  V30 51 H 0.917968 -8.187909 -1.190235 0
M  V30 52 H -1.271181 -8.828221 -0.980167 0
M  V30 53 H -1.466214 -7.935474 0.529100 0
M  V30 54 H -2.060926 -7.144646 -2.255280 0
M  V30 55 H -3.524234 -5.788049 -0.859707 0
M  V30 56 H -1.612617 -4.941109 -2.227482 0
M  V30 57 H -1.454271 -4.756766 -0.478055 0
M  V30 58 H 0.639595 -4.432840 -1.459463 0
M  V30 59 H 0.437819 -5.900727 -2.553413 0
M  V30 END ATOM
M  V30 BEGIN BOND
M  V30 1 2 1 2
M  V30 2 1 2 3
M  V30 3 2 3 4
M  V30 4 1 4 5
M  V30 5 2 5 6
M  V30 6 1 6 7
M  V30 7 2 7 8
M  V30 8 1 7 9
M  V30 9 1 9 10
M  V30 10 1 10 11
M  V30 11 1 11 12
M  V30 12 2 12 13
M  V30 13 1 13 14
M  V30 14 2 14 15
M  V30 15 1 15 16
M  V30 16 2 16 17
M  V30 17 1 17 18
M  V30 18 2 18 19
M  V30 19 1 19 20
M  V30 20 1 19 21
M  V30 21 2 21 22
M  V30 22 1 15 23
M  V30 23 2 23 24
M  V30 24 2 11 25
M  V30 25 1 25 26
M  V30 26 1 26 27
M  V30 27 1 2 28
M  V30 28 1 28 29
M  V30 29 1 29 30
M  V30 30 1 30 31
M  V30 31 1 31 32
M  V30 32 1 31 33
M  V30 33 1 33 34
M  V30 34 1 8 3
M  V30 35 2 27 10
M  V30 36 1 34 28
M  V30 37 1 27 6
M  V30 38 1 24 12
M  V30 39 1 22 16
M  V30 40 1 4 35
M  V30 41 1 5 36
M  V30 42 1 8 37
M  V30 43 1 9 38
M  V30 44 1 9 39
M  V30 45 1 13 40
M  V30 46 1 14 41
M  V30 47 1 17 42
M  V30 48 1 18 43
M  V30 49 1 20 44
M  V30 50 1 21 45
M  V30 51 1 22 46
M  V30 52 1 23 47
M  V30 53 1 24 48
M  V30 54 1 26 49
M  V30 55 1 29 50
M  V30 56 1 29 51
M  V30 57 1 30 52
M  V30 58 1 30 53
M  V30 59 1 31 54
M  V30 60 1 32 55
M  V30 61 1 33 56
M  V30 62 1 33 57
M  V30 63 1 34 58
M  V30 64 1 34 59
M  V30 END BOND
M  V30 END CTAB
M  END
>  <Dataset>  (627) 
ChEMBL_Kinases

>  <Ligand_Instance>  (627) 
nan

>  <PDB_ID>  (627) 
nan

>  <Standardized_SMILES>  (627) 
O=C(c1ccc2c(c1)Cc1c(-c3ccc(-c4ccc(O)cc4)cc3)n[nH]c1-2)N1CCC(O)CC1

>  <Name>  (627) 
nan

>  <Pocket>  (627) 
nan

>  <ATP_Site>  (627) 
nan

>  <Peripheral>  (627) 
nan

>  <Num_H_Atoms_ProtBoundConf>  (627) 
nan

>  <Num_Resolved_Atoms>  (627) 
nan

>  <Num_Not_Resolved_Atoms>  (627) 
nan

$$$$
CHEMBL242738
     RDKit          3D

  0  0  0  0  0  0  0  0  0  0999 V3000
M  V30 BEGIN CTAB
M  V30 COUNTS 52 55 0 0 0
M  V30 BEGIN ATOM
M  V30 1 C 4.324281 2.447692 6.594001 0
M  V30 2 C 3.822490 1.296550 5.747454 0
M  V30 3 C 3.027786 0.336414 6.627293 0
M  V30 4 C 5.020246 0.597435 5.175959 0
M  V30 5 C 2.904826 1.834294 4.669358 0
M  V30 6 N 2.406019 0.735976 3.835521 0
M  V30 7 C 1.531810 1.002077 2.765702 0
M  V30 8 O 1.214706 2.224444 2.578870 0
M  V30 9 C 1.001508 -0.045771 1.900706 0
M  V30 10 C 1.296230 -1.386589 2.037527 0
M  V30 11 C 0.778198 -2.359707 1.201757 0
M  V30 12 C -0.077307 -1.943375 0.183215 0
M  V30 13 C -0.405028 -0.611880 0.002566 0
M  V30 14 C 0.147794 0.305250 0.872786 0
M  V30 15 C -1.339727 -0.504857 -1.172053 0
M  V30 16 C -1.490303 -1.899217 -1.614188 0
M  V30 17 C -2.098093 -2.735734 -2.540638 0
M  V30 18 C -2.999577 -2.386552 -3.630180 0
M  V30 19 C -2.774933 -1.328191 -4.485887 0
M  V30 20 C -3.696335 -1.072299 -5.500403 0
M  V30 21 C -4.821318 -1.880981 -5.635657 0
M  V30 22 C -5.740269 -1.556475 -6.715508 0
M  V30 23 O -5.497487 -0.583341 -7.472214 0
M  V30 24 O -6.897240 -2.323397 -6.918309 0
M  V30 25 C -5.070964 -2.945633 -4.794458 0
M  V30 26 C -4.133391 -3.163300 -3.804169 0
M  V30 27 N -1.721706 -4.003206 -2.286630 0
M  V30 28 N -0.901821 -4.048585 -1.247050 0
M  V30 29 C -0.754867 -2.768694 -0.830092 0
M  V30 30 H 3.646169 3.314492 6.460511 0
M  V30 31 H 4.346898 2.089656 7.643816 0
M  V30 32 H 5.377136 2.706835 6.306108 0
M  V30 33 H 3.541965 0.195888 7.603386 0
M  V30 34 H 1.998379 0.707734 6.813815 0
M  V30 35 H 2.988006 -0.678893 6.169768 0
M  V30 36 H 5.838407 1.319058 4.961685 0
M  V30 37 H 5.413806 -0.104625 5.953988 0
M  V30 38 H 4.763145 -0.047893 4.312982 0
M  V30 39 H 3.432745 2.599609 4.064575 0
M  V30 40 H 2.042474 2.333939 5.152830 0
M  V30 41 H 2.712923 -0.237170 4.053840 0
M  V30 42 H 1.961860 -1.692097 2.833304 0
M  V30 43 H 1.044013 -3.402667 1.355237 0
M  V30 44 H -0.136941 1.342399 0.694266 0
M  V30 45 H -2.279367 -0.042566 -0.821364 0
M  V30 46 H -0.803671 0.128657 -1.909994 0
M  V30 47 H -1.899673 -0.724730 -4.355374 0
M  V30 48 H -3.496060 -0.243127 -6.150840 0
M  V30 49 H -7.436250 -2.219854 -7.789727 0
M  V30 50 H -5.951854 -3.561144 -4.917760 0
M  V30 51 H -4.320009 -3.995906 -3.139269 0
M  V30 52 H -0.475286 -4.916485 -0.857372 0
M  V30 END ATOM
M  V30 BEGIN BOND
M  V30 1 1 1 2
M  V30 2 1 2 3
M  V30 3 1 2 4
M  V30 4 1 2 5
M  V30 5 1 5 6
M  V30 6 1 6 7
M  V30 7 2 7 8
M  V30 8 1 7 9
M  V30 9 2 9 10
M  V30 10 1 10 11
M  V30 11 2 11 12
M  V30 12 1 12 13
M  V30 13 2 13 14
M  V30 14 1 13 15
M  V30 15 1 15 16
M  V30 16 1 16 17
M  V30 17 1 17 18
M  V30 18 2 18 19
M  V30 19 1 19 20
M  V30 20 2 20 21
M  V30 21 1 21 22
M  V30 22 2 22 23
M  V30 23 1 22 24
M  V30 24 1 21 25
M  V30 25 2 25 26
M  V30 26 2 17 27
M  V30 27 1 27 28
M  V30 28 1 28 29
M  V30 29 1 14 9
M  V30 30 2 29 16
M  V30 31 1 29 12
M  V30 32 1 26 18
M  V30 33 1 1 30
M  V30 34 1 1 31
M  V30 35 1 1 32
M  V30 36 1 3 33
M  V30 37 1 3 34
M  V30 38 1 3 35
M  V30 39 1 4 36
M  V30 40 1 4 37
M  V30 41 1 4 38
M  V30 42 1 5 39
M  V30 43 1 5 40
M  V30 44 1 6 41
M  V30 45 1 10 42
M  V30 46 1 11 43
M  V30 47 1 14 44
M  V30 48 1 15 45
M  V30 49 1 15 46
M  V30 50 1 19 47
M  V30 51 1 20 48
M  V30 52 1 24 49
M  V30 53 1 25 50
M  V30 54 1 26 51
M  V30 55 1 28 52
M  V30 END BOND
M  V30 END CTAB
M  END
>  <Dataset>  (628) 
ChEMBL_Kinases

>  <Ligand_Instance>  (628) 
nan

>  <PDB_ID>  (628) 
nan

>  <Standardized_SMILES>  (628) 
CC(C)(C)CNC(=O)c1ccc2c(c1)Cc1c(-c3ccc(C(=O)O)cc3)n[nH]c1-2

>  <Name>  (628) 
nan

>  <Pocket>  (628) 
nan

>  <ATP_Site>  (628) 
nan

>  <Peripheral>  (628) 
nan

>  <Num_H_Atoms_ProtBoundConf>  (628) 
nan

>  <Num_Resolved_Atoms>  (628) 
nan

>  <Num_Not_Resolved_Atoms>  (628) 
nan

$$$$
CHEMBL242737
     RDKit          3D

  0  0  0  0  0  0  0  0  0  0999 V3000
M  V30 BEGIN CTAB
M  V30 COUNTS 57 61 0 0 0
M  V30 BEGIN ATOM
M  V30 1 C 6.523120 -2.946283 -1.439077 0
M  V30 2 C 5.444078 -2.338142 -0.573018 0 CFG=1
M  V30 3 C 5.108639 -3.366557 0.488170 0
M  V30 4 C 4.396706 -2.745627 1.666024 0
M  V30 5 C 3.870795 -1.346344 1.300242 0 CFG=1
M  V30 6 N 3.119890 -0.930387 2.423288 0
M  V30 7 C 2.471219 0.317176 2.400289 0
M  V30 8 C 1.458761 0.517336 1.376566 0
M  V30 9 C 1.598103 1.020605 0.097663 0
M  V30 10 C 0.540286 1.155812 -0.778483 0
M  V30 11 C -0.734843 0.784466 -0.404762 0
M  V30 12 C -0.936317 0.274816 0.861127 0
M  V30 13 C 0.147017 0.154307 1.710303 0
M  V30 14 C -2.376356 -0.051358 1.033858 0
M  V30 15 C -2.983977 0.316887 -0.247241 0
M  V30 16 C -4.145292 0.369566 -0.953158 0
M  V30 17 C -5.498531 -0.020920 -0.566202 0
M  V30 18 C -5.682837 -1.223770 0.084890 0
M  V30 19 C -6.965308 -1.586163 0.447659 0
M  V30 20 C -8.064967 -0.793156 0.184237 0
M  V30 21 C -9.429068 -1.149417 0.554950 0
M  V30 22 O -10.430025 -0.426966 0.314735 0
M  V30 23 O -9.602382 -2.377920 1.218093 0
M  V30 24 C -7.873624 0.425319 -0.475943 0
M  V30 25 C -6.590766 0.808411 -0.849545 0
M  V30 26 N -3.919447 0.870475 -2.183914 0
M  V30 27 N -2.607457 1.137399 -2.260082 0
M  V30 28 C -2.019967 0.808361 -1.093674 0
M  V30 29 C 5.088563 -0.446177 1.044439 0
M  V30 30 C 6.044427 -1.141995 0.129925 0
M  V30 31 H 7.384206 -3.193624 -0.768300 0
M  V30 32 H 6.817487 -2.293039 -2.284550 0
M  V30 33 H 6.137169 -3.920424 -1.813359 0
M  V30 34 H 4.574539 -2.062134 -1.200771 0
M  V30 35 H 6.068273 -3.776788 0.865171 0
M  V30 36 H 4.547167 -4.228024 0.067651 0
M  V30 37 H 3.511976 -3.330746 1.968849 0
M  V30 38 H 5.072920 -2.587224 2.529753 0
M  V30 39 H 3.360283 -1.450597 0.348235 0
M  V30 40 H 3.716790 -1.014028 3.268810 0
M  V30 41 H 3.237653 1.110976 2.295061 0
M  V30 42 H 2.018659 0.488817 3.402521 0
M  V30 43 H 2.606264 1.304195 -0.169076 0
M  V30 44 H 0.712670 1.558152 -1.771348 0
M  V30 45 H -0.070294 -0.258078 2.708236 0
M  V30 46 H -2.786637 0.553296 1.871998 0
M  V30 47 H -2.537641 -1.110270 1.320452 0
M  V30 48 H -4.886076 -1.912884 0.335384 0
M  V30 49 H -7.186737 -2.517172 0.962287 0
M  V30 50 H -10.511605 -2.658477 1.612284 0
M  V30 51 H -8.694875 1.109564 -0.720560 0
M  V30 52 H -6.390945 1.756691 -1.370241 0
M  V30 53 H -2.162151 1.536782 -3.112332 0
M  V30 54 H 4.712499 0.511712 0.637088 0
M  V30 55 H 5.518860 -0.207552 2.039715 0
M  V30 56 H 6.875210 -1.555313 0.760102 0
M  V30 57 H 6.465907 -0.437317 -0.603327 0
M  V30 END ATOM
M  V30 BEGIN BOND
M  V30 1 1 1 2
M  V30 2 1 2 3
M  V30 3 1 3 4
M  V30 4 1 4 5
M  V30 5 1 5 6
M  V30 6 1 6 7
M  V30 7 1 7 8
M  V30 8 2 8 9
M  V30 9 1 9 10
M  V30 10 2 10 11
M  V30 11 1 11 12
M  V30 12 2 12 13
M  V30 13 1 12 14
M  V30 14 1 14 15
M  V30 15 1 15 16
M  V30 16 1 16 17
M  V30 17 2 17 18
M  V30 18 1 18 19
M  V30 19 2 19 20
M  V30 20 1 20 21
M  V30 21 2 21 22
M  V30 22 1 21 23
M  V30 23 1 20 24
M  V30 24 2 24 25
M  V30 25 2 16 26
M  V30 26 1 26 27
M  V30 27 1 27 28
M  V30 28 1 5 29
M  V30 29 1 29 30
M  V30 30 1 30 2
M  V30 31 1 13 8
M  V30 32 2 28 15
M  V30 33 1 28 11
M  V30 34 1 25 17
M  V30 35 1 1 31
M  V30 36 1 1 32
M  V30 37 1 1 33
M  V30 38 1 2 34 CFG=3
M  V30 39 1 3 35
M  V30 40 1 3 36
M  V30 41 1 4 37
M  V30 42 1 4 38
M  V30 43 1 5 39 CFG=3
M  V30 44 1 6 40
M  V30 45 1 7 41
M  V30 46 1 7 42
M  V30 47 1 9 43
M  V30 48 1 10 44
M  V30 49 1 13 45
M  V30 50 1 14 46
M  V30 51 1 14 47
M  V30 52 1 18 48
M  V30 53 1 19 49
M  V30 54 1 23 50
M  V30 55 1 24 51
M  V30 56 1 25 52
M  V30 57 1 27 53
M  V30 58 1 29 54
M  V30 59 1 29 55
M  V30 60 1 30 56
M  V30 61 1 30 57
M  V30 END BOND
M  V30 END CTAB
M  END
>  <Dataset>  (629) 
ChEMBL_Kinases

>  <Ligand_Instance>  (629) 
nan

>  <PDB_ID>  (629) 
nan

>  <Standardized_SMILES>  (629) 
C[C@H]1CC[C@@H](NCc2ccc3c(c2)Cc2c(-c4ccc(C(=O)O)cc4)n[nH]c2-3)CC1

>  <Name>  (629) 
nan

>  <Pocket>  (629) 
nan

>  <ATP_Site>  (629) 
nan

>  <Peripheral>  (629) 
nan

>  <Num_H_Atoms_ProtBoundConf>  (629) 
nan

>  <Num_Resolved_Atoms>  (629) 
nan

>  <Num_Not_Resolved_Atoms>  (629) 
nan

$$$$
CHEMBL2430142
     RDKit          3D

  0  0  0  0  0  0  0  0  0  0999 V3000
M  V30 BEGIN CTAB
M  V30 COUNTS 72 76 0 0 0
M  V30 BEGIN ATOM
M  V30 1 C -5.536712 1.694650 -0.003188 0
M  V30 2 C -4.209392 1.141194 -0.278401 0
M  V30 3 C -3.798391 1.183244 -1.511328 0
M  V30 4 C -2.460140 0.550953 -1.436331 0
M  V30 5 O -1.692018 0.383926 -2.394932 0
M  V30 6 O -1.685021 0.008869 -0.491674 0
M  V30 7 C -0.436932 -0.547751 -0.647366 0 CFG=1
M  V30 8 C 0.676684 0.271215 -0.014490 0
M  V30 9 C 1.032306 1.574003 -0.708534 0
M  V30 10 C 1.142843 -0.362775 1.093052 0
M  V30 11 C 0.428371 -1.608261 1.292099 0 CFG=2
M  V30 12 C 1.296439 -2.853881 1.511515 0
M  V30 13 O 0.579408 -3.748553 1.770482 0
M  V30 14 C 2.780984 -2.698766 1.361233 0 CFG=1
M  V30 15 C 2.876736 -2.129647 -0.024560 0
M  V30 16 C 2.016940 -2.183877 -1.080467 0
M  V30 17 C 2.609875 -1.728027 -2.368796 0
M  V30 18 O 2.556368 -2.796774 -3.298805 0
M  V30 19 C 0.618986 -2.662671 -0.917221 0 CFG=1
M  V30 20 O 0.530848 -4.019886 -0.756746 0
M  V30 21 C -0.244603 -1.861066 0.047321 0 CFG=2
M  V30 22 O -1.464830 -2.547454 0.156484 0
M  V30 23 C 3.113829 -1.690496 2.428536 0 CFG=1
M  V30 24 C 2.174969 -1.288377 3.407049 0 CFG=1
M  V30 25 C 0.855086 -1.827306 3.655286 0
M  V30 26 C -0.238722 -1.567725 2.619180 0 CFG=1
M  V30 27 C -0.859872 -0.246223 2.982594 0
M  V30 28 C 3.366197 -2.180529 3.801447 0
M  V30 29 C 4.503449 -1.542961 4.584710 0
M  V30 30 C 3.095109 -3.602637 4.183438 0
M  V30 31 C -4.282547 1.768255 -2.739874 0
M  V30 32 C -5.236897 2.772161 -2.741920 0
M  V30 33 C -5.685370 3.192875 -4.001706 0
M  V30 34 C -5.233339 2.669163 -5.251318 0
M  V30 35 C -4.295182 1.692274 -5.039096 0
M  V30 36 C -3.797044 1.214480 -3.854009 0
M  V30 37 H -6.209652 1.420527 -0.863644 0
M  V30 38 H -5.558374 2.732021 0.309857 0
M  V30 39 H -5.966705 1.114157 0.885821 0
M  V30 40 H -3.762185 0.774027 0.604495 0
M  V30 41 H -0.124995 -0.603213 -1.725790 0
M  V30 42 H 0.077400 2.121103 -0.815735 0
M  V30 43 H 1.702667 2.195233 -0.085293 0
M  V30 44 H 1.498553 1.289686 -1.675694 0
M  V30 45 H 1.944668 0.268175 1.523676 0
M  V30 46 H 3.334891 -3.635238 1.485958 0
M  V30 47 H 3.788520 -1.568662 -0.283018 0
M  V30 48 H 3.626309 -1.386488 -2.204149 0
M  V30 49 H 1.977375 -0.931198 -2.795298 0
M  V30 50 H 3.470024 -3.150087 -3.450577 0
M  V30 51 H 0.155647 -2.475314 -1.946371 0
M  V30 52 H -0.051977 -4.467158 -1.417913 0
M  V30 53 H -1.340307 -3.394439 0.603518 0
M  V30 54 H 3.872550 -0.974758 2.054085 0
M  V30 55 H 2.305527 -0.238853 3.824619 0
M  V30 56 H 0.455887 -1.404431 4.625737 0
M  V30 57 H 0.922486 -2.929689 3.894332 0
M  V30 58 H -0.940223 -2.419571 2.699535 0
M  V30 59 H -0.112436 0.529322 3.161998 0
M  V30 60 H -1.437913 -0.362142 3.940440 0
M  V30 61 H -1.608790 0.003708 2.214425 0
M  V30 62 H 4.770224 -2.086449 5.496157 0
M  V30 63 H 5.341133 -1.396558 3.873633 0
M  V30 64 H 4.181542 -0.517317 4.891648 0
M  V30 65 H 2.759242 -4.245854 3.346793 0
M  V30 66 H 4.052727 -4.060622 4.516132 0
M  V30 67 H 2.437080 -3.621428 5.066850 0
M  V30 68 H -5.631557 3.270619 -1.905819 0
M  V30 69 H -6.446898 3.986481 -4.017441 0
M  V30 70 H -5.626826 3.047190 -6.165308 0
M  V30 71 H -3.978895 1.323593 -6.037300 0
M  V30 72 H -3.092865 0.453876 -4.093390 0
M  V30 END ATOM
M  V30 BEGIN BOND
M  V30 1 1 1 2
M  V30 2 2 2 3
M  V30 3 1 3 4
M  V30 4 2 4 5
M  V30 5 1 4 6
M  V30 6 1 6 7
M  V30 7 1 7 8
M  V30 8 1 8 9
M  V30 9 2 8 10
M  V30 10 1 11 10 CFG=3
M  V30 11 1 11 12
M  V30 12 2 12 13
M  V30 13 1 12 14
M  V30 14 1 14 15
M  V30 15 2 15 16
M  V30 16 1 16 17
M  V30 17 1 17 18
M  V30 18 1 16 19
M  V30 19 1 19 20
M  V30 20 1 19 21
M  V30 21 1 21 22 CFG=1
M  V30 22 1 14 23
M  V30 23 1 23 24
M  V30 24 1 24 25
M  V30 25 1 25 26
M  V30 26 1 26 27
M  V30 27 1 24 28
M  V30 28 1 28 29
M  V30 29 1 28 30
M  V30 30 1 3 31
M  V30 31 2 31 32
M  V30 32 1 32 33
M  V30 33 2 33 34
M  V30 34 1 34 35
M  V30 35 2 35 36
M  V30 36 1 21 7
M  V30 37 1 28 23
M  V30 38 1 36 31
M  V30 39 1 21 11
M  V30 40 1 26 11
M  V30 41 1 1 37
M  V30 42 1 1 38
M  V30 43 1 1 39
M  V30 44 1 2 40
M  V30 45 1 7 41 CFG=3
M  V30 46 1 9 42
M  V30 47 1 9 43
M  V30 48 1 9 44
M  V30 49 1 10 45
M  V30 50 1 14 46 CFG=3
M  V30 51 1 15 47
M  V30 52 1 17 48
M  V30 53 1 17 49
M  V30 54 1 18 50
M  V30 55 1 19 51 CFG=3
M  V30 56 1 20 52
M  V30 57 1 22 53
M  V30 58 1 23 54 CFG=3
M  V30 59 1 24 55 CFG=1
M  V30 60 1 25 56
M  V30 61 1 25 57
M  V30 62 1 26 58 CFG=3
M  V30 63 1 27 59
M  V30 64 1 27 60
M  V30 65 1 27 61
M  V30 66 1 29 62
M  V30 67 1 29 63
M  V30 68 1 29 64
M  V30 69 1 30 65
M  V30 70 1 30 66
M  V30 71 1 30 67
M  V30 72 1 32 68
M  V30 73 1 33 69
M  V30 74 1 34 70
M  V30 75 1 35 71
M  V30 76 1 36 72
M  V30 END BOND
M  V30 END CTAB
M  END
>  <Dataset>  (630) 
ChEMBL_Kinases

>  <Ligand_Instance>  (630) 
nan

>  <PDB_ID>  (630) 
nan

>  <Standardized_SMILES>  (630) 
C/C=C(/C(=O)O[C@H]1C(C)=C[C@]23C(=O)[C@@H](C=C(CO)[C@@H](O)[C@]12O)[C@H]1[C@@H](C[C@H]3C)C1(C)C)c1ccccc1

>  <Name>  (630) 
nan

>  <Pocket>  (630) 
nan

>  <ATP_Site>  (630) 
nan

>  <Peripheral>  (630) 
nan

>  <Num_H_Atoms_ProtBoundConf>  (630) 
nan

>  <Num_Resolved_Atoms>  (630) 
nan

>  <Num_Not_Resolved_Atoms>  (630) 
nan

$$$$
CHEMBL243749
     RDKit          3D

  0  0  0  0  0  0  0  0  0  0999 V3000
M  V30 BEGIN CTAB
M  V30 COUNTS 38 40 0 0 0
M  V30 BEGIN ATOM
M  V30 1 O -1.333922 -5.035675 1.117186 0
M  V30 2 C -0.098568 -4.957811 1.312845 0
M  V30 3 O 0.117453 -6.304675 1.162710 0
M  V30 4 C 0.703040 -3.789197 1.591353 0
M  V30 5 C 2.058453 -3.978576 1.781310 0
M  V30 6 C 2.903844 -2.927905 2.056777 0
M  V30 7 C 2.360871 -1.665216 2.141255 0
M  V30 8 C 0.994521 -1.511122 1.945790 0
M  V30 9 C 0.131437 -2.546611 1.668282 0
M  V30 10 N -1.219094 -2.244244 1.490315 0
M  V30 11 C -1.792706 -0.968721 1.549280 0
M  V30 12 N -1.326778 0.118247 0.960798 0
M  V30 13 C -1.776403 1.360064 0.954944 0
M  V30 14 N -1.238381 2.495987 0.299536 0
M  V30 15 C -0.062650 2.634020 -0.470805 0
M  V30 16 C 0.309787 3.758127 -1.181056 0
M  V30 17 C 1.476060 3.815936 -1.894870 0
M  V30 18 C 2.367982 2.747950 -1.954476 0
M  V30 19 C 2.017255 1.610867 -1.250856 0
M  V30 20 O 2.960278 0.608452 -1.367424 0
M  V30 21 C 0.819676 1.583990 -0.532899 0
M  V30 22 N -2.917983 1.567480 1.681192 0
M  V30 23 C -3.509926 0.560029 2.336269 0
M  V30 24 C -2.940885 -0.689916 2.261017 0
M  V30 25 F -3.584533 -1.691711 2.947010 0
M  V30 26 H 0.105035 -6.786470 0.274697 0
M  V30 27 H 2.487213 -4.958717 1.715593 0
M  V30 28 H 3.950467 -3.118316 2.197567 0
M  V30 29 H 3.022077 -0.813272 2.359455 0
M  V30 30 H 0.674135 -0.497805 2.038707 0
M  V30 31 H -2.003867 -2.899306 1.283191 0
M  V30 32 H -1.746110 3.405825 0.358320 0
M  V30 33 H -0.366751 4.603867 -1.156853 0
M  V30 34 H 1.665484 4.757689 -2.418634 0
M  V30 35 H 3.233981 2.947031 -2.552587 0
M  V30 36 H 2.724271 -0.351125 -1.483422 0
M  V30 37 H 0.725115 0.625591 -0.056456 0
M  V30 38 H -4.415161 0.714106 2.917117 0
M  V30 END ATOM
M  V30 BEGIN BOND
M  V30 1 2 1 2
M  V30 2 1 2 3
M  V30 3 1 2 4
M  V30 4 2 4 5
M  V30 5 1 5 6
M  V30 6 2 6 7
M  V30 7 1 7 8
M  V30 8 2 8 9
M  V30 9 1 9 10
M  V30 10 1 10 11
M  V30 11 2 11 12
M  V30 12 1 12 13
M  V30 13 1 13 14
M  V30 14 1 14 15
M  V30 15 2 15 16
M  V30 16 1 16 17
M  V30 17 2 17 18
M  V30 18 1 18 19
M  V30 19 1 19 20
M  V30 20 2 19 21
M  V30 21 2 13 22
M  V30 22 1 22 23
M  V30 23 2 23 24
M  V30 24 1 24 25
M  V30 25 1 9 4
M  V30 26 1 24 11
M  V30 27 1 21 15
M  V30 28 1 3 26
M  V30 29 1 5 27
M  V30 30 1 6 28
M  V30 31 1 7 29
M  V30 32 1 8 30
M  V30 33 1 10 31
M  V30 34 1 14 32
M  V30 35 1 16 33
M  V30 36 1 17 34
M  V30 37 1 18 35
M  V30 38 1 20 36
M  V30 39 1 21 37
M  V30 40 1 23 38
M  V30 END BOND
M  V30 END CTAB
M  END
>  <Dataset>  (631) 
ChEMBL_Kinases

>  <Ligand_Instance>  (631) 
nan

>  <PDB_ID>  (631) 
nan

>  <Standardized_SMILES>  (631) 
O=C(O)c1ccccc1Nc1nc(Nc2cccc(O)c2)ncc1F

>  <Name>  (631) 
nan

>  <Pocket>  (631) 
nan

>  <ATP_Site>  (631) 
nan

>  <Peripheral>  (631) 
nan

>  <Num_H_Atoms_ProtBoundConf>  (631) 
nan

>  <Num_Resolved_Atoms>  (631) 
nan

>  <Num_Not_Resolved_Atoms>  (631) 
nan

$$$$
CHEMBL2437302
     RDKit          3D

  0  0  0  0  0  0  0  0  0  0999 V3000
M  V30 BEGIN CTAB
M  V30 COUNTS 38 40 0 0 0
M  V30 BEGIN ATOM
M  V30 1 N -0.269253 -2.101713 4.494195 0
M  V30 2 C 0.331180 -2.541423 3.455649 0
M  V30 3 S 0.881928 -4.318199 3.250270 0
M  V30 4 C 1.574288 -3.980668 1.594113 0
M  V30 5 C 1.338091 -2.645201 1.371365 0
M  V30 6 C 1.826121 -2.236479 0.066456 0
M  V30 7 C 1.452757 -2.952868 -1.078109 0
M  V30 8 C 1.849346 -2.696967 -2.386507 0
M  V30 9 C 2.693623 -1.622357 -2.521636 0
M  V30 10 Cl 3.243449 -1.226218 -4.134846 0
M  V30 11 C 3.126139 -0.847994 -1.467818 0
M  V30 12 C 2.673370 -1.188321 -0.212906 0
M  V30 13 N 0.716350 -1.920776 2.298508 0
M  V30 14 C 0.368482 -0.520508 2.203918 0
M  V30 15 C -1.019805 -0.362486 1.622621 0
M  V30 16 O -1.913326 -1.150318 1.215067 0
M  V30 17 N -1.431987 0.995925 1.499310 0
M  V30 18 C -2.760917 1.227831 0.945883 0
M  V30 19 C -2.569697 2.036375 -0.322610 0
M  V30 20 O -1.835809 3.173702 -0.097894 0
M  V30 21 C -0.600660 2.958586 0.487586 0
M  V30 22 C -0.757051 2.239440 1.831546 0
M  V30 23 H -0.464251 -2.759308 5.266933 0
M  V30 24 H 2.016299 -4.806647 1.102430 0
M  V30 25 H 0.777051 -3.804174 -0.924485 0
M  V30 26 H 1.478791 -3.337521 -3.172062 0
M  V30 27 H 3.791900 -0.008523 -1.613029 0
M  V30 28 H 3.040377 -0.579209 0.591401 0
M  V30 29 H 0.438948 -0.034331 3.204494 0
M  V30 30 H 1.055500 0.048313 1.564296 0
M  V30 31 H -3.310958 0.307451 0.718361 0
M  V30 32 H -3.286367 1.894997 1.669469 0
M  V30 33 H -2.188164 1.402121 -1.155041 0
M  V30 34 H -3.587066 2.354370 -0.632473 0
M  V30 35 H 0.083437 2.366824 -0.123772 0
M  V30 36 H -0.150092 3.938658 0.705943 0
M  V30 37 H 0.244332 2.063091 2.231715 0
M  V30 38 H -1.381637 2.813394 2.533840 0
M  V30 END ATOM
M  V30 BEGIN BOND
M  V30 1 2 1 2 CFG=2
M  V30 2 1 2 3
M  V30 3 1 3 4
M  V30 4 2 4 5
M  V30 5 1 5 6
M  V30 6 2 6 7
M  V30 7 1 7 8
M  V30 8 2 8 9
M  V30 9 1 9 10
M  V30 10 1 9 11
M  V30 11 2 11 12
M  V30 12 1 5 13
M  V30 13 1 13 14
M  V30 14 1 14 15
M  V30 15 2 15 16
M  V30 16 1 15 17
M  V30 17 1 17 18
M  V30 18 1 18 19
M  V30 19 1 19 20
M  V30 20 1 20 21
M  V30 21 1 21 22
M  V30 22 1 13 2
M  V30 23 1 22 17
M  V30 24 1 12 6
M  V30 25 1 1 23
M  V30 26 1 4 24
M  V30 27 1 7 25
M  V30 28 1 8 26
M  V30 29 1 11 27
M  V30 30 1 12 28
M  V30 31 1 14 29
M  V30 32 1 14 30
M  V30 33 1 18 31
M  V30 34 1 18 32
M  V30 35 1 19 33
M  V30 36 1 19 34
M  V30 37 1 21 35
M  V30 38 1 21 36
M  V30 39 1 22 37
M  V30 40 1 22 38
M  V30 END BOND
M  V30 END CTAB
M  END
>  <Dataset>  (632) 
ChEMBL_Kinases

>  <Ligand_Instance>  (632) 
nan

>  <PDB_ID>  (632) 
nan

>  <Standardized_SMILES>  (632) 
N=c1scc(-c2ccc(Cl)cc2)n1CC(=O)N1CCOCC1

>  <Name>  (632) 
nan

>  <Pocket>  (632) 
nan

>  <ATP_Site>  (632) 
nan

>  <Peripheral>  (632) 
nan

>  <Num_H_Atoms_ProtBoundConf>  (632) 
nan

>  <Num_Resolved_Atoms>  (632) 
nan

>  <Num_Not_Resolved_Atoms>  (632) 
nan

$$$$
CHEMBL2437301
     RDKit          3D

  0  0  0  0  0  0  0  0  0  0999 V3000
M  V30 BEGIN CTAB
M  V30 COUNTS 38 40 0 0 0
M  V30 BEGIN ATOM
M  V30 1 N 0.755946 0.470776 4.580213 0
M  V30 2 C 1.253092 -0.265163 3.670610 0
M  V30 3 S 3.005820 -0.483773 3.513091 0
M  V30 4 C 2.826204 -1.628463 2.029140 0
M  V30 5 C 1.366187 -1.720812 1.808769 0
M  V30 6 C 1.015752 -2.555100 0.688551 0
M  V30 7 C 0.133452 -3.586433 0.752593 0
M  V30 8 C -0.174420 -4.320217 -0.365618 0
M  V30 9 C 0.423893 -4.000432 -1.562910 0
M  V30 10 C 1.328140 -2.971127 -1.708651 0
M  V30 11 C 1.592585 -2.277265 -0.556307 0
M  V30 12 N 0.684740 -1.015045 2.666661 0
M  V30 13 C -0.760349 -0.942699 2.597592 0
M  V30 14 C -1.205255 0.211975 1.765016 0
M  V30 15 O -2.451652 0.269300 1.707882 0
M  V30 16 N -0.654105 1.280102 1.007295 0
M  V30 17 C -1.638860 2.132037 0.384349 0
M  V30 18 C -1.559531 1.913207 -1.116108 0
M  V30 19 O -0.257142 1.637337 -1.522142 0
M  V30 20 C 0.682436 2.300808 -0.733425 0
M  V30 21 C 0.692144 1.760089 0.680745 0
M  V30 22 H -0.253896 0.591489 4.664096 0
M  V30 23 H 3.640207 -2.205803 1.345954 0
M  V30 24 H -0.363236 -3.912683 1.651720 0
M  V30 25 H -0.870806 -5.141184 -0.338270 0
M  V30 26 H 0.169530 -4.590151 -2.436640 0
M  V30 27 H 1.796281 -2.721590 -2.645895 0
M  V30 28 H 2.307471 -1.443385 -0.610118 0
M  V30 29 H -1.231338 -1.870084 2.191488 0
M  V30 30 H -1.216393 -0.835434 3.602076 0
M  V30 31 H -2.678399 1.931290 0.677042 0
M  V30 32 H -1.392322 3.223694 0.536414 0
M  V30 33 H -1.926787 2.815186 -1.630201 0
M  V30 34 H -2.217544 1.066124 -1.360333 0
M  V30 35 H 0.539660 3.404559 -0.752802 0
M  V30 36 H 1.674200 2.117174 -1.201482 0
M  V30 37 H 0.994104 2.575462 1.379240 0
M  V30 38 H 1.444910 0.965100 0.722544 0
M  V30 END ATOM
M  V30 BEGIN BOND
M  V30 1 2 1 2 CFG=2
M  V30 2 1 2 3
M  V30 3 1 3 4
M  V30 4 2 4 5
M  V30 5 1 5 6
M  V30 6 2 6 7
M  V30 7 1 7 8
M  V30 8 2 8 9
M  V30 9 1 9 10
M  V30 10 2 10 11
M  V30 11 1 5 12
M  V30 12 1 12 13
M  V30 13 1 13 14
M  V30 14 2 14 15
M  V30 15 1 14 16
M  V30 16 1 16 17
M  V30 17 1 17 18
M  V30 18 1 18 19
M  V30 19 1 19 20
M  V30 20 1 20 21
M  V30 21 1 12 2
M  V30 22 1 21 16
M  V30 23 1 11 6
M  V30 24 1 1 22
M  V30 25 1 4 23
M  V30 26 1 7 24
M  V30 27 1 8 25
M  V30 28 1 9 26
M  V30 29 1 10 27
M  V30 30 1 11 28
M  V30 31 1 13 29
M  V30 32 1 13 30
M  V30 33 1 17 31
M  V30 34 1 17 32
M  V30 35 1 18 33
M  V30 36 1 18 34
M  V30 37 1 20 35
M  V30 38 1 20 36
M  V30 39 1 21 37
M  V30 40 1 21 38
M  V30 END BOND
M  V30 END CTAB
M  END
>  <Dataset>  (633) 
ChEMBL_Kinases

>  <Ligand_Instance>  (633) 
nan

>  <PDB_ID>  (633) 
nan

>  <Standardized_SMILES>  (633) 
N=c1scc(-c2ccccc2)n1CC(=O)N1CCOCC1

>  <Name>  (633) 
nan

>  <Pocket>  (633) 
nan

>  <ATP_Site>  (633) 
nan

>  <Peripheral>  (633) 
nan

>  <Num_H_Atoms_ProtBoundConf>  (633) 
nan

>  <Num_Resolved_Atoms>  (633) 
nan

>  <Num_Not_Resolved_Atoms>  (633) 
nan

$$$$
CHEMBL2437300
     RDKit          3D

  0  0  0  0  0  0  0  0  0  0999 V3000
M  V30 BEGIN CTAB
M  V30 COUNTS 42 44 0 0 0
M  V30 BEGIN ATOM
M  V30 1 C 2.594058 -5.147755 2.107612 0
M  V30 2 N 1.368281 -4.482930 2.519711 0
M  V30 3 C 0.433511 -4.466274 1.440263 0
M  V30 4 C -0.104689 -3.090058 1.105023 0
M  V30 5 N 0.914686 -2.102265 0.874693 0
M  V30 6 C 0.942389 -0.999367 -0.022570 0
M  V30 7 O 2.044750 -0.370255 0.062895 0
M  V30 8 C 0.108262 -0.336629 -1.030879 0
M  V30 9 N -1.093951 0.291047 -0.547325 0
M  V30 10 C -1.235507 1.510227 -0.086711 0
M  V30 11 C -0.246618 2.553016 0.123611 0
M  V30 12 C -0.377174 3.802158 -0.506792 0
M  V30 13 C 0.473746 4.891172 -0.365485 0
M  V30 14 C 1.533138 4.687393 0.480957 0
M  V30 15 C 1.767515 3.508780 1.156499 0
M  V30 16 C 0.859415 2.496360 0.941419 0
M  V30 17 C -2.507928 2.010016 0.267842 0
M  V30 18 S -3.621968 0.688307 -0.055861 0
M  V30 19 C -2.271547 -0.458572 -0.655248 0
M  V30 20 N -2.497909 -1.673786 -1.079549 0
M  V30 21 C 2.075029 -2.322675 1.733482 0
M  V30 22 C 1.626035 -3.113331 2.934406 0
M  V30 23 H 2.369888 -6.233994 2.045524 0
M  V30 24 H 2.899280 -4.850659 1.084080 0
M  V30 25 H 3.371060 -4.931850 2.842639 0
M  V30 26 H -0.446946 -5.104999 1.730978 0
M  V30 27 H 0.901518 -4.939251 0.553637 0
M  V30 28 H -0.666156 -3.244323 0.137973 0
M  V30 29 H -0.790238 -2.740298 1.900911 0
M  V30 30 H -0.165028 -1.175688 -1.758564 0
M  V30 31 H 0.706721 0.392410 -1.657248 0
M  V30 32 H -1.251240 3.889057 -1.175391 0
M  V30 33 H 0.241015 5.780262 -0.914792 0
M  V30 34 H 2.222729 5.499528 0.626186 0
M  V30 35 H 2.611127 3.361818 1.823715 0
M  V30 36 H 1.024609 1.595099 1.477063 0
M  V30 37 H -2.926818 2.895029 0.645657 0
M  V30 38 H -3.470298 -2.000009 -1.057870 0
M  V30 39 H 2.922918 -2.765800 1.192870 0
M  V30 40 H 2.430664 -1.339227 2.139046 0
M  V30 41 H 2.423261 -3.065279 3.705941 0
M  V30 42 H 0.673300 -2.688951 3.291366 0
M  V30 END ATOM
M  V30 BEGIN BOND
M  V30 1 1 1 2
M  V30 2 1 2 3
M  V30 3 1 3 4
M  V30 4 1 4 5
M  V30 5 1 5 6
M  V30 6 2 6 7
M  V30 7 1 6 8
M  V30 8 1 8 9
M  V30 9 1 9 10
M  V30 10 1 10 11
M  V30 11 2 11 12
M  V30 12 1 12 13
M  V30 13 2 13 14
M  V30 14 1 14 15
M  V30 15 2 15 16
M  V30 16 2 10 17
M  V30 17 1 17 18
M  V30 18 1 18 19
M  V30 19 2 19 20 CFG=2
M  V30 20 1 5 21
M  V30 21 1 21 22
M  V30 22 1 22 2
M  V30 23 1 19 9
M  V30 24 1 16 11
M  V30 25 1 1 23
M  V30 26 1 1 24
M  V30 27 1 1 25
M  V30 28 1 3 26
M  V30 29 1 3 27
M  V30 30 1 4 28
M  V30 31 1 4 29
M  V30 32 1 8 30
M  V30 33 1 8 31
M  V30 34 1 12 32
M  V30 35 1 13 33
M  V30 36 1 14 34
M  V30 37 1 15 35
M  V30 38 1 16 36
M  V30 39 1 17 37
M  V30 40 1 20 38
M  V30 41 1 21 39
M  V30 42 1 21 40
M  V30 43 1 22 41
M  V30 44 1 22 42
M  V30 END BOND
M  V30 END CTAB
M  END
>  <Dataset>  (634) 
ChEMBL_Kinases

>  <Ligand_Instance>  (634) 
nan

>  <PDB_ID>  (634) 
nan

>  <Standardized_SMILES>  (634) 
CN1CCN(C(=O)Cn2c(-c3ccccc3)csc2=N)CC1

>  <Name>  (634) 
nan

>  <Pocket>  (634) 
nan

>  <ATP_Site>  (634) 
nan

>  <Peripheral>  (634) 
nan

>  <Num_H_Atoms_ProtBoundConf>  (634) 
nan

>  <Num_Resolved_Atoms>  (634) 
nan

>  <Num_Not_Resolved_Atoms>  (634) 
nan

$$$$
CHEMBL2437299
     RDKit          3D

  0  0  0  0  0  0  0  0  0  0999 V3000
M  V30 BEGIN CTAB
M  V30 COUNTS 41 43 0 0 0
M  V30 BEGIN ATOM
M  V30 1 C 0.293299 -3.758689 4.676000 0
M  V30 2 C 0.943528 -3.095930 3.513823 0
M  V30 3 C 0.626071 -3.475783 2.229753 0
M  V30 4 C 1.255603 -2.831053 1.198915 0
M  V30 5 C 2.183102 -1.829704 1.335694 0
M  V30 6 C 2.863288 -1.082982 0.296959 0
M  V30 7 C 4.249798 -1.067089 0.440322 0
M  V30 8 S 4.831019 -0.088920 -0.907983 0
M  V30 9 C 3.166371 0.242310 -1.586979 0
M  V30 10 N 2.976569 0.982961 -2.679931 0
M  V30 11 N 2.273843 -0.442155 -0.701521 0
M  V30 12 C 0.879751 -0.307203 -1.039723 0
M  V30 13 C 0.341045 0.924742 -0.355553 0
M  V30 14 O 0.913046 1.769608 0.404936 0
M  V30 15 N -1.021138 1.304448 -0.514768 0
M  V30 16 C -1.442161 2.507002 0.185515 0
M  V30 17 C -2.555088 2.101399 1.127457 0
M  V30 18 O -2.891777 0.774892 1.031967 0
M  V30 19 C -3.161559 0.312681 -0.230619 0
M  V30 20 C -2.130111 0.707390 -1.270229 0
M  V30 21 C 2.436222 -1.517902 2.679343 0
M  V30 22 C 1.858134 -2.105627 3.787180 0
M  V30 23 H 1.012851 -4.401576 5.247212 0
M  V30 24 H -0.148519 -3.022054 5.380046 0
M  V30 25 H -0.543620 -4.369571 4.311072 0
M  V30 26 H -0.094264 -4.254837 2.046231 0
M  V30 27 H 1.000748 -3.163066 0.213322 0
M  V30 28 H 4.925354 -1.477370 1.115829 0
M  V30 29 H 2.006694 1.098737 -2.963652 0
M  V30 30 H 0.310884 -1.195407 -0.738280 0
M  V30 31 H 0.714610 -0.168674 -2.107642 0
M  V30 32 H -0.622436 3.026674 0.691492 0
M  V30 33 H -1.934285 3.161980 -0.591176 0
M  V30 34 H -2.146241 2.245646 2.162614 0
M  V30 35 H -3.416234 2.806231 1.077190 0
M  V30 36 H -4.176251 0.547132 -0.590556 0
M  V30 37 H -3.120424 -0.813042 -0.175316 0
M  V30 38 H -1.795969 -0.135125 -1.886813 0
M  V30 39 H -2.610051 1.501162 -1.903588 0
M  V30 40 H 3.161417 -0.733476 2.872563 0
M  V30 41 H 2.139716 -1.773813 4.773974 0
M  V30 END ATOM
M  V30 BEGIN BOND
M  V30 1 1 1 2
M  V30 2 2 2 3
M  V30 3 1 3 4
M  V30 4 2 4 5
M  V30 5 1 5 6
M  V30 6 2 6 7
M  V30 7 1 7 8
M  V30 8 1 8 9
M  V30 9 2 9 10 CFG=2
M  V30 10 1 9 11
M  V30 11 1 11 12
M  V30 12 1 12 13
M  V30 13 2 13 14
M  V30 14 1 13 15
M  V30 15 1 15 16
M  V30 16 1 16 17
M  V30 17 1 17 18
M  V30 18 1 18 19
M  V30 19 1 19 20
M  V30 20 1 5 21
M  V30 21 2 21 22
M  V30 22 1 22 2
M  V30 23 1 11 6
M  V30 24 1 20 15
M  V30 25 1 1 23
M  V30 26 1 1 24
M  V30 27 1 1 25
M  V30 28 1 3 26
M  V30 29 1 4 27
M  V30 30 1 7 28
M  V30 31 1 10 29
M  V30 32 1 12 30
M  V30 33 1 12 31
M  V30 34 1 16 32
M  V30 35 1 16 33
M  V30 36 1 17 34
M  V30 37 1 17 35
M  V30 38 1 19 36
M  V30 39 1 19 37
M  V30 40 1 20 38
M  V30 41 1 20 39
M  V30 42 1 21 40
M  V30 43 1 22 41
M  V30 END BOND
M  V30 END CTAB
M  END
>  <Dataset>  (635) 
ChEMBL_Kinases

>  <Ligand_Instance>  (635) 
nan

>  <PDB_ID>  (635) 
nan

>  <Standardized_SMILES>  (635) 
Cc1ccc(-c2csc(=N)n2CC(=O)N2CCOCC2)cc1

>  <Name>  (635) 
nan

>  <Pocket>  (635) 
nan

>  <ATP_Site>  (635) 
nan

>  <Peripheral>  (635) 
nan

>  <Num_H_Atoms_ProtBoundConf>  (635) 
nan

>  <Num_Resolved_Atoms>  (635) 
nan

>  <Num_Not_Resolved_Atoms>  (635) 
nan

$$$$
CHEMBL2437298
     RDKit          3D

  0  0  0  0  0  0  0  0  0  0999 V3000
M  V30 BEGIN CTAB
M  V30 COUNTS 42 44 0 0 0
M  V30 BEGIN ATOM
M  V30 1 C 0.319470 -4.036544 1.357851 0
M  V30 2 N 1.249118 -3.785734 2.435230 0
M  V30 3 C 0.474739 -3.494607 3.629137 0
M  V30 4 C -0.370966 -2.247462 3.493475 0
M  V30 5 N 0.416827 -1.287346 2.702882 0
M  V30 6 C 0.200888 -0.232346 1.758261 0
M  V30 7 O 1.190662 0.419929 1.263144 0
M  V30 8 C -0.960791 0.425432 1.088955 0
M  V30 9 N -1.132902 -0.053708 -0.263587 0
M  V30 10 C -0.538285 0.487686 -1.324606 0
M  V30 11 C 0.364652 1.613761 -1.374687 0
M  V30 12 C 0.176830 2.883510 -0.883687 0
M  V30 13 C 1.101853 3.899590 -0.929655 0
M  V30 14 C 2.309139 3.597913 -1.521496 0
M  V30 15 Cl 3.526358 4.851841 -1.604346 0
M  V30 16 C 2.628404 2.370969 -2.053721 0
M  V30 17 C 1.628263 1.427657 -1.952746 0
M  V30 18 C -0.762409 -0.090910 -2.607745 0
M  V30 19 S -1.896642 -1.487996 -2.226398 0
M  V30 20 C -1.967799 -1.190383 -0.477365 0
M  V30 21 N -2.642739 -1.868928 0.308816 0
M  V30 22 C 1.806418 -1.543894 3.027138 0
M  V30 23 C 2.201171 -2.739066 2.143849 0
M  V30 24 H 0.419922 -3.226352 0.605401 0
M  V30 25 H -0.731875 -4.056056 1.690845 0
M  V30 26 H 0.507105 -5.045820 0.918849 0
M  V30 27 H -0.237451 -4.367172 3.714678 0
M  V30 28 H 1.061772 -3.517494 4.559575 0
M  V30 29 H -0.498890 -1.836795 4.518035 0
M  V30 30 H -1.316538 -2.509125 3.033027 0
M  V30 31 H -0.957615 1.521074 1.171670 0
M  V30 32 H -1.847028 0.115494 1.712695 0
M  V30 33 H -0.764309 3.124986 -0.442411 0
M  V30 34 H 0.877023 4.870847 -0.518575 0
M  V30 35 H 3.565527 2.116117 -2.521273 0
M  V30 36 H 1.844468 0.436523 -2.363265 0
M  V30 37 H -0.436343 0.117739 -3.571550 0
M  V30 38 H -2.687264 -1.667584 1.321792 0
M  V30 39 H 2.003502 -1.721629 4.085992 0
M  V30 40 H 2.455830 -0.673217 2.722049 0
M  V30 41 H 3.246798 -3.008860 2.300551 0
M  V30 42 H 2.038002 -2.384585 1.104931 0
M  V30 END ATOM
M  V30 BEGIN BOND
M  V30 1 1 1 2
M  V30 2 1 2 3
M  V30 3 1 3 4
M  V30 4 1 4 5
M  V30 5 1 5 6
M  V30 6 2 6 7
M  V30 7 1 6 8
M  V30 8 1 8 9
M  V30 9 1 9 10
M  V30 10 1 10 11
M  V30 11 2 11 12
M  V30 12 1 12 13
M  V30 13 2 13 14
M  V30 14 1 14 15
M  V30 15 1 14 16
M  V30 16 2 16 17
M  V30 17 2 10 18
M  V30 18 1 18 19
M  V30 19 1 19 20
M  V30 20 2 20 21 CFG=2
M  V30 21 1 5 22
M  V30 22 1 22 23
M  V30 23 1 23 2
M  V30 24 1 20 9
M  V30 25 1 17 11
M  V30 26 1 1 24
M  V30 27 1 1 25
M  V30 28 1 1 26
M  V30 29 1 3 27
M  V30 30 1 3 28
M  V30 31 1 4 29
M  V30 32 1 4 30
M  V30 33 1 8 31
M  V30 34 1 8 32
M  V30 35 1 12 33
M  V30 36 1 13 34
M  V30 37 1 16 35
M  V30 38 1 17 36
M  V30 39 1 18 37
M  V30 40 1 21 38
M  V30 41 1 22 39
M  V30 42 1 22 40
M  V30 43 1 23 41
M  V30 44 1 23 42
M  V30 END BOND
M  V30 END CTAB
M  END
>  <Dataset>  (636) 
ChEMBL_Kinases

>  <Ligand_Instance>  (636) 
nan

>  <PDB_ID>  (636) 
nan

>  <Standardized_SMILES>  (636) 
CN1CCN(C(=O)Cn2c(-c3ccc(Cl)cc3)csc2=N)CC1

>  <Name>  (636) 
nan

>  <Pocket>  (636) 
nan

>  <ATP_Site>  (636) 
nan

>  <Peripheral>  (636) 
nan

>  <Num_H_Atoms_ProtBoundConf>  (636) 
nan

>  <Num_Resolved_Atoms>  (636) 
nan

>  <Num_Not_Resolved_Atoms>  (636) 
nan

$$$$
CHEMBL2437297
     RDKit          3D

  0  0  0  0  0  0  0  0  0  0999 V3000
M  V30 BEGIN CTAB
M  V30 COUNTS 44 46 0 0 0
M  V30 BEGIN ATOM
M  V30 1 C 0.415166 -4.609207 2.877133 0
M  V30 2 C 0.852849 -4.690371 1.454755 0
M  V30 3 O 1.321724 -5.779035 0.990011 0
M  V30 4 N 0.692257 -3.477364 0.725742 0
M  V30 5 C 0.168235 -2.207779 1.189274 0
M  V30 6 C -0.604394 -1.623006 0.017337 0
M  V30 7 N 0.437886 -1.121110 -0.891805 0
M  V30 8 C 0.877929 0.113214 -1.509469 0
M  V30 9 O 1.888587 0.226707 -2.301600 0
M  V30 10 C 0.331828 1.481446 -1.410054 0
M  V30 11 N -0.820534 1.633679 -0.577465 0
M  V30 12 C -0.786860 1.911771 0.727315 0
M  V30 13 C 0.321106 2.122783 1.629722 0
M  V30 14 C 1.347255 3.022486 1.453284 0
M  V30 15 C 2.418430 3.187992 2.305752 0
M  V30 16 C 2.454583 2.381560 3.424336 0
M  V30 17 C 1.489444 1.442748 3.716345 0
M  V30 18 C 0.464448 1.359850 2.798648 0
M  V30 19 C -2.011082 2.009805 1.418363 0
M  V30 20 S -3.311154 1.689531 0.145431 0
M  V30 21 C -2.052861 1.461680 -1.163446 0
M  V30 22 N -2.349876 1.195134 -2.368789 0
M  V30 23 C 1.309062 -2.208876 -1.311051 0
M  V30 24 C 1.098074 -3.505102 -0.643485 0
M  V30 25 H -0.641441 -4.229973 2.924260 0
M  V30 26 H 1.014086 -3.905497 3.476507 0
M  V30 27 H 0.370516 -5.625072 3.330525 0
M  V30 28 H 1.077050 -1.574879 1.371835 0
M  V30 29 H -0.447860 -2.299520 2.102128 0
M  V30 30 H -1.116497 -2.494679 -0.484629 0
M  V30 31 H -1.336202 -0.885661 0.312391 0
M  V30 32 H 1.091443 2.225916 -1.125726 0
M  V30 33 H 0.049481 1.790745 -2.465087 0
M  V30 34 H 1.361539 3.690999 0.608318 0
M  V30 35 H 3.204490 3.909486 2.125992 0
M  V30 36 H 3.278866 2.480736 4.117517 0
M  V30 37 H 1.481603 0.793602 4.580383 0
M  V30 38 H -0.312423 0.631289 2.997508 0
M  V30 39 H -2.325022 2.215049 2.445520 0
M  V30 40 H -3.346333 1.098887 -2.640109 0
M  V30 41 H 2.380249 -1.893357 -1.163618 0
M  V30 42 H 1.231888 -2.363375 -2.420716 0
M  V30 43 H 2.064065 -4.082322 -0.725619 0
M  V30 44 H 0.366285 -4.171731 -1.186077 0
M  V30 END ATOM
M  V30 BEGIN BOND
M  V30 1 1 1 2
M  V30 2 2 2 3
M  V30 3 1 2 4
M  V30 4 1 4 5
M  V30 5 1 5 6
M  V30 6 1 6 7
M  V30 7 1 7 8
M  V30 8 2 8 9
M  V30 9 1 8 10
M  V30 10 1 10 11
M  V30 11 1 11 12
M  V30 12 1 12 13
M  V30 13 2 13 14
M  V30 14 1 14 15
M  V30 15 2 15 16
M  V30 16 1 16 17
M  V30 17 2 17 18
M  V30 18 2 12 19
M  V30 19 1 19 20
M  V30 20 1 20 21
M  V30 21 2 21 22 CFG=2
M  V30 22 1 7 23
M  V30 23 1 23 24
M  V30 24 1 24 4
M  V30 25 1 21 11
M  V30 26 1 18 13
M  V30 27 1 1 25
M  V30 28 1 1 26
M  V30 29 1 1 27
M  V30 30 1 5 28
M  V30 31 1 5 29
M  V30 32 1 6 30
M  V30 33 1 6 31
M  V30 34 1 10 32
M  V30 35 1 10 33
M  V30 36 1 14 34
M  V30 37 1 15 35
M  V30 38 1 16 36
M  V30 39 1 17 37
M  V30 40 1 18 38
M  V30 41 1 19 39
M  V30 42 1 22 40
M  V30 43 1 23 41
M  V30 44 1 23 42
M  V30 45 1 24 43
M  V30 46 1 24 44
M  V30 END BOND
M  V30 END CTAB
M  END
>  <Dataset>  (637) 
ChEMBL_Kinases

>  <Ligand_Instance>  (637) 
nan

>  <PDB_ID>  (637) 
nan

>  <Standardized_SMILES>  (637) 
CC(=O)N1CCN(C(=O)Cn2c(-c3ccccc3)csc2=N)CC1

>  <Name>  (637) 
nan

>  <Pocket>  (637) 
nan

>  <ATP_Site>  (637) 
nan

>  <Peripheral>  (637) 
nan

>  <Num_H_Atoms_ProtBoundConf>  (637) 
nan

>  <Num_Resolved_Atoms>  (637) 
nan

>  <Num_Not_Resolved_Atoms>  (637) 
nan

$$$$
CHEMBL2437296
     RDKit          3D

  0  0  0  0  0  0  0  0  0  0999 V3000
M  V30 BEGIN CTAB
M  V30 COUNTS 45 47 0 0 0
M  V30 BEGIN ATOM
M  V30 1 C -0.585778 -5.153585 2.633785 0
M  V30 2 C -0.678040 -4.064445 1.624791 0
M  V30 3 C 0.444092 -3.774255 0.914540 0
M  V30 4 C 0.276723 -2.744399 -0.007353 0
M  V30 5 C -0.897946 -2.017878 -0.250310 0
M  V30 6 C -0.878553 -0.991017 -1.271720 0
M  V30 7 C -0.365533 -1.470157 -2.508103 0
M  V30 8 S -0.418703 -0.077065 -3.592946 0
M  V30 9 C -1.127335 1.076916 -2.327005 0
M  V30 10 N -1.394925 2.297913 -2.557488 0
M  V30 11 N -1.256581 0.281678 -1.187079 0
M  V30 12 C -1.794536 0.984520 -0.047126 0
M  V30 13 C -0.784479 1.662725 0.792445 0
M  V30 14 O -1.487087 2.229937 1.711051 0
M  V30 15 N 0.636112 1.801147 0.792108 0
M  V30 16 C 1.734552 1.325593 -0.028337 0
M  V30 17 C 2.538206 0.370340 0.787009 0
M  V30 18 N 2.785363 0.816672 2.099490 0
M  V30 19 C 2.344062 -0.088398 3.137851 0
M  V30 20 C 2.476863 2.183713 2.374477 0
M  V30 21 C 1.154858 2.644665 1.883141 0
M  V30 22 C -1.949410 -2.422826 0.541184 0
M  V30 23 C -1.880430 -3.425104 1.475006 0
M  V30 24 H -1.576401 -5.654514 2.679518 0
M  V30 25 H -0.337343 -4.741792 3.641630 0
M  V30 26 H 0.237129 -5.879826 2.403926 0
M  V30 27 H 1.414903 -4.240621 0.987192 0
M  V30 28 H 1.159376 -2.470595 -0.609994 0
M  V30 29 H -0.005945 -2.388634 -2.848300 0
M  V30 30 H -1.791412 2.889255 -1.799984 0
M  V30 31 H -2.367285 0.266181 0.612514 0
M  V30 32 H -2.614908 1.687683 -0.385070 0
M  V30 33 H 1.404060 0.901523 -0.997445 0
M  V30 34 H 2.379158 2.219294 -0.267832 0
M  V30 35 H 3.471803 0.085953 0.227546 0
M  V30 36 H 1.965165 -0.581383 0.848084 0
M  V30 37 H 2.554687 -1.117365 2.835024 0
M  V30 38 H 1.238390 0.090568 3.249346 0
M  V30 39 H 2.867899 0.202465 4.073036 0
M  V30 40 H 3.346930 2.795499 2.059809 0
M  V30 41 H 2.459262 2.273684 3.500778 0
M  V30 42 H 1.337397 3.638585 1.379609 0
M  V30 43 H 0.417992 2.843251 2.663103 0
M  V30 44 H -2.893035 -1.946440 0.419856 0
M  V30 45 H -2.730486 -3.692467 2.058386 0
M  V30 END ATOM
M  V30 BEGIN BOND
M  V30 1 1 1 2
M  V30 2 2 2 3
M  V30 3 1 3 4
M  V30 4 2 4 5
M  V30 5 1 5 6
M  V30 6 2 6 7
M  V30 7 1 7 8
M  V30 8 1 8 9
M  V30 9 2 9 10 CFG=2
M  V30 10 1 9 11
M  V30 11 1 11 12
M  V30 12 1 12 13
M  V30 13 2 13 14
M  V30 14 1 13 15
M  V30 15 1 15 16
M  V30 16 1 16 17
M  V30 17 1 17 18
M  V30 18 1 18 19
M  V30 19 1 18 20
M  V30 20 1 20 21
M  V30 21 1 5 22
M  V30 22 2 22 23
M  V30 23 1 23 2
M  V30 24 1 11 6
M  V30 25 1 21 15
M  V30 26 1 1 24
M  V30 27 1 1 25
M  V30 28 1 1 26
M  V30 29 1 3 27
M  V30 30 1 4 28
M  V30 31 1 7 29
M  V30 32 1 10 30
M  V30 33 1 12 31
M  V30 34 1 12 32
M  V30 35 1 16 33
M  V30 36 1 16 34
M  V30 37 1 17 35
M  V30 38 1 17 36
M  V30 39 1 19 37
M  V30 40 1 19 38
M  V30 41 1 19 39
M  V30 42 1 20 40
M  V30 43 1 20 41
M  V30 44 1 21 42
M  V30 45 1 21 43
M  V30 46 1 22 44
M  V30 47 1 23 45
M  V30 END BOND
M  V30 END CTAB
M  END
>  <Dataset>  (638) 
ChEMBL_Kinases

>  <Ligand_Instance>  (638) 
nan

>  <PDB_ID>  (638) 
nan

>  <Standardized_SMILES>  (638) 
Cc1ccc(-c2csc(=N)n2CC(=O)N2CCN(C)CC2)cc1

>  <Name>  (638) 
nan

>  <Pocket>  (638) 
nan

>  <ATP_Site>  (638) 
nan

>  <Peripheral>  (638) 
nan

>  <Num_H_Atoms_ProtBoundConf>  (638) 
nan

>  <Num_Resolved_Atoms>  (638) 
nan

>  <Num_Not_Resolved_Atoms>  (638) 
nan

$$$$
CHEMBL2437295
     RDKit          3D

  0  0  0  0  0  0  0  0  0  0999 V3000
M  V30 BEGIN CTAB
M  V30 COUNTS 44 46 0 0 0
M  V30 BEGIN ATOM
M  V30 1 C -0.737180 -4.994286 2.440346 0
M  V30 2 C 0.496899 -4.562102 1.736108 0
M  V30 3 O 1.259066 -5.575786 1.650305 0
M  V30 4 N 0.779478 -3.274405 1.250811 0
M  V30 5 C 0.010732 -2.046879 1.281346 0
M  V30 6 C -0.272731 -1.680620 -0.163422 0
M  V30 7 N 0.998075 -1.255818 -0.737605 0
M  V30 8 C 1.509873 -0.005302 -1.256894 0
M  V30 9 O 2.721470 -0.000681 -1.691171 0
M  V30 10 C 1.005608 1.372113 -1.446477 0
M  V30 11 N -0.371928 1.556432 -1.031510 0
M  V30 12 C -0.742283 1.906562 0.173394 0
M  V30 13 C 0.029421 2.188348 1.369716 0
M  V30 14 C 1.074093 3.078355 1.492603 0
M  V30 15 C 1.799999 3.283970 2.646577 0
M  V30 16 C 1.443244 2.543771 3.737171 0
M  V30 17 Cl 2.353434 2.786376 5.220931 0
M  V30 18 C 0.422393 1.618494 3.764599 0
M  V30 19 C -0.234757 1.493430 2.560158 0
M  V30 20 C -2.130092 2.025171 0.415962 0
M  V30 21 S -2.874379 1.593877 -1.229840 0
M  V30 22 C -1.351314 1.323907 -1.996052 0
M  V30 23 N -1.188409 0.979170 -3.210432 0
M  V30 24 C 1.887839 -2.402421 -0.756230 0
M  V30 25 C 2.030198 -3.052247 0.595993 0
M  V30 26 H -1.466504 -4.189954 2.608839 0
M  V30 27 H -1.259628 -5.810334 1.874832 0
M  V30 28 H -0.520707 -5.451043 3.444573 0
M  V30 29 H 0.637813 -1.279662 1.772790 0
M  V30 30 H -0.952111 -2.170441 1.818188 0
M  V30 31 H -1.076194 -0.930444 -0.247324 0
M  V30 32 H -0.603485 -2.593201 -0.681327 0
M  V30 33 H 1.703105 2.128860 -1.004896 0
M  V30 34 H 1.104704 1.593687 -2.554803 0
M  V30 35 H 1.355334 3.683020 0.644952 0
M  V30 36 H 2.607301 3.998680 2.669275 0
M  V30 37 H 0.115318 1.021886 4.599522 0
M  V30 38 H -1.061778 0.771456 2.510949 0
M  V30 39 H -2.740194 2.295801 1.304098 0
M  V30 40 H -2.017585 0.843600 -3.807185 0
M  V30 41 H 2.897567 -2.062796 -1.055563 0
M  V30 42 H 1.547532 -3.127821 -1.533552 0
M  V30 43 H 2.596663 -2.313080 1.234990 0
M  V30 44 H 2.611984 -3.978462 0.462840 0
M  V30 END ATOM
M  V30 BEGIN BOND
M  V30 1 1 1 2
M  V30 2 2 2 3
M  V30 3 1 2 4
M  V30 4 1 4 5
M  V30 5 1 5 6
M  V30 6 1 6 7
M  V30 7 1 7 8
M  V30 8 2 8 9
M  V30 9 1 8 10
M  V30 10 1 10 11
M  V30 11 1 11 12
M  V30 12 1 12 13
M  V30 13 2 13 14
M  V30 14 1 14 15
M  V30 15 2 15 16
M  V30 16 1 16 17
M  V30 17 1 16 18
M  V30 18 2 18 19
M  V30 19 2 12 20
M  V30 20 1 20 21
M  V30 21 1 21 22
M  V30 22 2 22 23 CFG=2
M  V30 23 1 7 24
M  V30 24 1 24 25
M  V30 25 1 25 4
M  V30 26 1 22 11
M  V30 27 1 19 13
M  V30 28 1 1 26
M  V30 29 1 1 27
M  V30 30 1 1 28
M  V30 31 1 5 29
M  V30 32 1 5 30
M  V30 33 1 6 31
M  V30 34 1 6 32
M  V30 35 1 10 33
M  V30 36 1 10 34
M  V30 37 1 14 35
M  V30 38 1 15 36
M  V30 39 1 18 37
M  V30 40 1 19 38
M  V30 41 1 20 39
M  V30 42 1 23 40
M  V30 43 1 24 41
M  V30 44 1 24 42
M  V30 45 1 25 43
M  V30 46 1 25 44
M  V30 END BOND
M  V30 END CTAB
M  END
>  <Dataset>  (639) 
ChEMBL_Kinases

>  <Ligand_Instance>  (639) 
nan

>  <PDB_ID>  (639) 
nan

>  <Standardized_SMILES>  (639) 
CC(=O)N1CCN(C(=O)Cn2c(-c3ccc(Cl)cc3)csc2=N)CC1

>  <Name>  (639) 
nan

>  <Pocket>  (639) 
nan

>  <ATP_Site>  (639) 
nan

>  <Peripheral>  (639) 
nan

>  <Num_H_Atoms_ProtBoundConf>  (639) 
nan

>  <Num_Resolved_Atoms>  (639) 
nan

>  <Num_Not_Resolved_Atoms>  (639) 
nan

$$$$
CHEMBL2437294
     RDKit          3D

  0  0  0  0  0  0  0  0  0  0999 V3000
M  V30 BEGIN CTAB
M  V30 COUNTS 47 49 0 0 0
M  V30 BEGIN ATOM
M  V30 1 C -0.129633 -5.664777 2.641297 0
M  V30 2 C -1.005239 -4.463165 2.876934 0
M  V30 3 O -1.609358 -4.387882 3.988418 0
M  V30 4 N -1.126692 -3.456322 1.851940 0
M  V30 5 C -0.398123 -3.625777 0.610518 0
M  V30 6 C -1.260861 -3.087182 -0.508629 0
M  V30 7 N -1.534296 -1.700034 -0.169817 0
M  V30 8 C -0.897945 -0.707414 -0.919534 0
M  V30 9 O -0.161167 -1.219243 -1.802874 0
M  V30 10 C -1.287998 0.652939 -0.441859 0
M  V30 11 N -0.623267 1.676924 -1.225272 0
M  V30 12 C 0.536320 2.291431 -0.963464 0
M  V30 13 C 1.380643 2.092446 0.205104 0
M  V30 14 C 1.814205 3.231664 0.901546 0
M  V30 15 C 2.632525 3.245889 2.039824 0
M  V30 16 C 3.022207 1.998704 2.478068 0
M  V30 17 C 3.891567 1.956107 3.682995 0
M  V30 18 C 2.646626 0.826354 1.858810 0
M  V30 19 C 1.841013 0.917049 0.746738 0
M  V30 20 C 1.004123 3.228261 -1.835899 0
M  V30 21 S -0.252732 3.288651 -3.150515 0
M  V30 22 C -1.294176 2.017660 -2.364649 0
M  V30 23 N -2.382664 1.641346 -2.894423 0
M  V30 24 C -2.470381 -1.589725 0.947447 0
M  V30 25 C -1.981280 -2.336213 2.148284 0
M  V30 26 H -0.647858 -6.400646 2.016425 0
M  V30 27 H 0.813384 -5.376191 2.132716 0
M  V30 28 H 0.144000 -6.106224 3.600567 0
M  V30 29 H 0.528127 -3.007868 0.615555 0
M  V30 30 H -0.120963 -4.674666 0.460504 0
M  V30 31 H -2.217473 -3.655057 -0.533472 0
M  V30 32 H -0.758715 -3.176377 -1.494188 0
M  V30 33 H -2.371757 0.729297 -0.448281 0
M  V30 34 H -0.955966 0.805437 0.615663 0
M  V30 35 H 1.483399 4.212160 0.522763 0
M  V30 36 H 2.884672 4.198654 2.469069 0
M  V30 37 H 3.839394 0.975037 4.200907 0
M  V30 38 H 3.598396 2.726817 4.437895 0
M  V30 39 H 4.952118 2.083039 3.372829 0
M  V30 40 H 2.958838 -0.134845 2.212952 0
M  V30 41 H 1.560561 0.013316 0.268593 0
M  V30 42 H 1.859844 3.854621 -1.888291 0
M  V30 43 H -2.931596 0.926678 -2.416589 0
M  V30 44 H -2.603192 -0.520874 1.147157 0
M  V30 45 H -3.467593 -1.954766 0.597275 0
M  V30 46 H -2.863189 -2.685026 2.715834 0
M  V30 47 H -1.447757 -1.604477 2.814724 0
M  V30 END ATOM
M  V30 BEGIN BOND
M  V30 1 1 1 2
M  V30 2 2 2 3
M  V30 3 1 2 4
M  V30 4 1 4 5
M  V30 5 1 5 6
M  V30 6 1 6 7
M  V30 7 1 7 8
M  V30 8 2 8 9
M  V30 9 1 8 10
M  V30 10 1 10 11
M  V30 11 1 11 12
M  V30 12 1 12 13
M  V30 13 2 13 14
M  V30 14 1 14 15
M  V30 15 2 15 16
M  V30 16 1 16 17
M  V30 17 1 16 18
M  V30 18 2 18 19
M  V30 19 2 12 20
M  V30 20 1 20 21
M  V30 21 1 21 22
M  V30 22 2 22 23 CFG=2
M  V30 23 1 7 24
M  V30 24 1 24 25
M  V30 25 1 25 4
M  V30 26 1 22 11
M  V30 27 1 19 13
M  V30 28 1 1 26
M  V30 29 1 1 27
M  V30 30 1 1 28
M  V30 31 1 5 29
M  V30 32 1 5 30
M  V30 33 1 6 31
M  V30 34 1 6 32
M  V30 35 1 10 33
M  V30 36 1 10 34
M  V30 37 1 14 35
M  V30 38 1 15 36
M  V30 39 1 17 37
M  V30 40 1 17 38
M  V30 41 1 17 39
M  V30 42 1 18 40
M  V30 43 1 19 41
M  V30 44 1 20 42
M  V30 45 1 23 43
M  V30 46 1 24 44
M  V30 47 1 24 45
M  V30 48 1 25 46
M  V30 49 1 25 47
M  V30 END BOND
M  V30 END CTAB
M  END
>  <Dataset>  (640) 
ChEMBL_Kinases

>  <Ligand_Instance>  (640) 
nan

>  <PDB_ID>  (640) 
nan

>  <Standardized_SMILES>  (640) 
CC(=O)N1CCN(C(=O)Cn2c(-c3ccc(C)cc3)csc2=N)CC1

>  <Name>  (640) 
nan

>  <Pocket>  (640) 
nan

>  <ATP_Site>  (640) 
nan

>  <Peripheral>  (640) 
nan

>  <Num_H_Atoms_ProtBoundConf>  (640) 
nan

>  <Num_Resolved_Atoms>  (640) 
nan

>  <Num_Not_Resolved_Atoms>  (640) 
nan

$$$$
CHEMBL2437293
     RDKit          3D

  0  0  0  0  0  0  0  0  0  0999 V3000
M  V30 BEGIN CTAB
M  V30 COUNTS 49 52 0 0 0
M  V30 BEGIN ATOM
M  V30 1 N 1.094457 1.686395 2.838374 0
M  V30 2 C 1.872346 1.081486 2.096841 0
M  V30 3 S 3.323819 -0.002087 2.627088 0
M  V30 4 C 3.817805 -0.416003 0.879466 0
M  V30 5 C 2.863044 0.286703 0.104431 0
M  V30 6 C 3.047919 0.157752 -1.326378 0
M  V30 7 C 2.125297 -0.180850 -2.273802 0
M  V30 8 C 2.388106 -0.252786 -3.622614 0
M  V30 9 C 3.664518 0.034661 -4.046022 0
M  V30 10 C 4.671840 0.384401 -3.196453 0
M  V30 11 C 4.314811 0.430227 -1.865858 0
M  V30 12 N 1.910556 1.018628 0.643385 0
M  V30 13 C 0.895641 1.782727 0.008937 0
M  V30 14 C -0.393710 1.164624 -0.228771 0
M  V30 15 O -1.131223 2.040627 -0.814246 0
M  V30 16 N -1.005691 -0.115332 0.019057 0
M  V30 17 C -0.316656 -1.208886 0.665932 0
M  V30 18 C -1.296297 -2.385782 0.734071 0
M  V30 19 N -2.429072 -1.860847 1.477866 0
M  V30 20 C -2.720712 -2.170923 2.829764 0
M  V30 21 C -1.895021 -2.995647 3.538750 0
M  V30 22 C -2.156171 -3.316346 4.859477 0
M  V30 23 C -3.275550 -2.799307 5.495065 0
M  V30 24 C -4.106880 -1.960438 4.758588 0
M  V30 25 C -3.825398 -1.650255 3.429241 0
M  V30 26 C -3.223028 -0.973478 0.649306 0
M  V30 27 C -2.379398 -0.298376 -0.407099 0
M  V30 28 H 1.078895 1.722156 3.855115 0
M  V30 29 H 4.646190 -1.048016 0.585726 0
M  V30 30 H 1.140935 -0.417290 -1.967939 0
M  V30 31 H 1.607238 -0.527847 -4.317207 0
M  V30 32 H 3.868363 -0.023269 -5.113602 0
M  V30 33 H 5.674973 0.614847 -3.483192 0
M  V30 34 H 5.107312 0.710059 -1.152610 0
M  V30 35 H 0.731335 2.766195 0.539399 0
M  V30 36 H 1.302255 2.122339 -1.000634 0
M  V30 37 H -0.157799 -0.924792 1.725564 0
M  V30 38 H 0.624738 -1.509424 0.182594 0
M  V30 39 H -0.844102 -3.280313 1.147665 0
M  V30 40 H -1.531951 -2.609906 -0.327248 0
M  V30 41 H -1.013242 -3.450396 3.165194 0
M  V30 42 H -1.523211 -3.969904 5.459517 0
M  V30 43 H -3.477452 -3.049286 6.521405 0
M  V30 44 H -4.969028 -1.586203 5.311867 0
M  V30 45 H -4.529397 -1.002861 2.971792 0
M  V30 46 H -3.876698 -0.292175 1.184653 0
M  V30 47 H -3.897398 -1.672846 0.070662 0
M  V30 48 H -2.348843 -0.845252 -1.371717 0
M  V30 49 H -2.855565 0.685842 -0.615803 0
M  V30 END ATOM
M  V30 BEGIN BOND
M  V30 1 2 1 2 CFG=2
M  V30 2 1 2 3
M  V30 3 1 3 4
M  V30 4 2 4 5
M  V30 5 1 5 6
M  V30 6 2 6 7
M  V30 7 1 7 8
M  V30 8 2 8 9
M  V30 9 1 9 10
M  V30 10 2 10 11
M  V30 11 1 5 12
M  V30 12 1 12 13
M  V30 13 1 13 14
M  V30 14 2 14 15
M  V30 15 1 14 16
M  V30 16 1 16 17
M  V30 17 1 17 18
M  V30 18 1 18 19
M  V30 19 1 19 20
M  V30 20 2 20 21
M  V30 21 1 21 22
M  V30 22 2 22 23
M  V30 23 1 23 24
M  V30 24 2 24 25
M  V30 25 1 19 26
M  V30 26 1 26 27
M  V30 27 1 12 2
M  V30 28 1 27 16
M  V30 29 1 11 6
M  V30 30 1 25 20
M  V30 31 1 1 28
M  V30 32 1 4 29
M  V30 33 1 7 30
M  V30 34 1 8 31
M  V30 35 1 9 32
M  V30 36 1 10 33
M  V30 37 1 11 34
M  V30 38 1 13 35
M  V30 39 1 13 36
M  V30 40 1 17 37
M  V30 41 1 17 38
M  V30 42 1 18 39
M  V30 43 1 18 40
M  V30 44 1 21 41
M  V30 45 1 22 42
M  V30 46 1 23 43
M  V30 47 1 24 44
M  V30 48 1 25 45
M  V30 49 1 26 46
M  V30 50 1 26 47
M  V30 51 1 27 48
M  V30 52 1 27 49
M  V30 END BOND
M  V30 END CTAB
M  END
>  <Dataset>  (641) 
ChEMBL_Kinases

>  <Ligand_Instance>  (641) 
nan

>  <PDB_ID>  (641) 
nan

>  <Standardized_SMILES>  (641) 
N=c1scc(-c2ccccc2)n1CC(=O)N1CCN(c2ccccc2)CC1

>  <Name>  (641) 
nan

>  <Pocket>  (641) 
nan

>  <ATP_Site>  (641) 
nan

>  <Peripheral>  (641) 
nan

>  <Num_H_Atoms_ProtBoundConf>  (641) 
nan

>  <Num_Resolved_Atoms>  (641) 
nan

>  <Num_Not_Resolved_Atoms>  (641) 
nan

$$$$
CHEMBL2437292
     RDKit          3D

  0  0  0  0  0  0  0  0  0  0999 V3000
M  V30 BEGIN CTAB
M  V30 COUNTS 49 52 0 0 0
M  V30 BEGIN ATOM
M  V30 1 N 1.911095 0.525774 5.267091 0
M  V30 2 C 2.368875 0.290973 4.070449 0
M  V30 3 S 3.847768 -0.722578 3.597601 0
M  V30 4 C 3.674342 -0.472989 1.899680 0
M  V30 5 C 2.511025 0.366366 1.715322 0
M  V30 6 C 2.188815 0.675056 0.341122 0
M  V30 7 C 2.084192 -0.406374 -0.544836 0
M  V30 8 C 1.806129 -0.327155 -1.891988 0
M  V30 9 C 1.624896 0.959058 -2.349522 0
M  V30 10 Cl 1.264433 1.174982 -4.051380 0
M  V30 11 C 1.704299 2.092049 -1.573453 0
M  V30 12 C 1.987639 1.906724 -0.238139 0
M  V30 13 N 1.884583 0.727261 2.823542 0
M  V30 14 C 0.687933 1.534558 2.889814 0
M  V30 15 C -0.544220 0.668207 2.873615 0
M  V30 16 O -1.564063 1.438101 2.934251 0
M  V30 17 N -1.024993 -0.668717 2.817547 0
M  V30 18 C -2.468904 -0.743888 2.845295 0
M  V30 19 C -2.881556 -1.159201 1.426569 0
M  V30 20 N -1.884214 -2.068705 0.854991 0
M  V30 21 C -1.682709 -2.172991 -0.548697 0
M  V30 22 C -0.756694 -2.964912 -1.192465 0
M  V30 23 C -0.626886 -3.009700 -2.556499 0
M  V30 24 C -1.431578 -2.250661 -3.359845 0
M  V30 25 C -2.381239 -1.436137 -2.745433 0
M  V30 26 C -2.487822 -1.412677 -1.369879 0
M  V30 27 C -1.146643 -2.831248 1.841552 0
M  V30 28 C -0.307811 -1.947485 2.737476 0
M  V30 29 H 1.084201 1.095616 5.488850 0
M  V30 30 H 4.342532 -0.887295 1.106172 0
M  V30 31 H 2.233851 -1.425847 -0.152979 0
M  V30 32 H 1.745739 -1.214494 -2.492662 0
M  V30 33 H 1.556806 3.078334 -1.966785 0
M  V30 34 H 2.069567 2.771060 0.367505 0
M  V30 35 H 0.614966 2.252673 2.059158 0
M  V30 36 H 0.655893 2.148670 3.810301 0
M  V30 37 H -2.729579 -1.636471 3.481678 0
M  V30 38 H -2.982454 0.157729 3.166141 0
M  V30 39 H -2.901944 -0.184021 0.858533 0
M  V30 40 H -3.880001 -1.641561 1.449863 0
M  V30 41 H -0.117098 -3.567203 -0.564276 0
M  V30 42 H 0.138201 -3.671148 -2.951139 0
M  V30 43 H -1.261942 -2.346930 -4.416225 0
M  V30 44 H -2.983132 -0.863538 -3.439565 0
M  V30 45 H -3.267423 -0.734712 -1.061728 0
M  V30 46 H -1.939587 -3.331936 2.466779 0
M  V30 47 H -0.561611 -3.643201 1.413119 0
M  V30 48 H 0.708332 -1.807135 2.372450 0
M  V30 49 H -0.289110 -2.419734 3.736627 0
M  V30 END ATOM
M  V30 BEGIN BOND
M  V30 1 2 1 2 CFG=2
M  V30 2 1 2 3
M  V30 3 1 3 4
M  V30 4 2 4 5
M  V30 5 1 5 6
M  V30 6 2 6 7
M  V30 7 1 7 8
M  V30 8 2 8 9
M  V30 9 1 9 10
M  V30 10 1 9 11
M  V30 11 2 11 12
M  V30 12 1 5 13
M  V30 13 1 13 14
M  V30 14 1 14 15
M  V30 15 2 15 16
M  V30 16 1 15 17
M  V30 17 1 17 18
M  V30 18 1 18 19
M  V30 19 1 19 20
M  V30 20 1 20 21
M  V30 21 2 21 22
M  V30 22 1 22 23
M  V30 23 2 23 24
M  V30 24 1 24 25
M  V30 25 2 25 26
M  V30 26 1 20 27
M  V30 27 1 27 28
M  V30 28 1 13 2
M  V30 29 1 28 17
M  V30 30 1 12 6
M  V30 31 1 26 21
M  V30 32 1 1 29
M  V30 33 1 4 30
M  V30 34 1 7 31
M  V30 35 1 8 32
M  V30 36 1 11 33
M  V30 37 1 12 34
M  V30 38 1 14 35
M  V30 39 1 14 36
M  V30 40 1 18 37
M  V30 41 1 18 38
M  V30 42 1 19 39
M  V30 43 1 19 40
M  V30 44 1 22 41
M  V30 45 1 23 42
M  V30 46 1 24 43
M  V30 47 1 25 44
M  V30 48 1 26 45
M  V30 49 1 27 46
M  V30 50 1 27 47
M  V30 51 1 28 48
M  V30 52 1 28 49
M  V30 END BOND
M  V30 END CTAB
M  END
>  <Dataset>  (642) 
ChEMBL_Kinases

>  <Ligand_Instance>  (642) 
nan

>  <PDB_ID>  (642) 
nan

>  <Standardized_SMILES>  (642) 
N=c1scc(-c2ccc(Cl)cc2)n1CC(=O)N1CCN(c2ccccc2)CC1

>  <Name>  (642) 
nan

>  <Pocket>  (642) 
nan

>  <ATP_Site>  (642) 
nan

>  <Peripheral>  (642) 
nan

>  <Num_H_Atoms_ProtBoundConf>  (642) 
nan

>  <Num_Resolved_Atoms>  (642) 
nan

>  <Num_Not_Resolved_Atoms>  (642) 
nan

$$$$
CHEMBL2437291
     RDKit          3D

  0  0  0  0  0  0  0  0  0  0999 V3000
M  V30 BEGIN CTAB
M  V30 COUNTS 52 55 0 0 0
M  V30 BEGIN ATOM
M  V30 1 C -1.682579 -5.399311 3.106660 0
M  V30 2 C -0.451119 -4.745561 2.614602 0
M  V30 3 C 0.704352 -5.491748 2.542540 0
M  V30 4 C 1.796940 -4.782077 2.067070 0
M  V30 5 C 1.819229 -3.435491 1.673771 0
M  V30 6 C 3.073576 -2.899408 1.213672 0
M  V30 7 C 4.172766 -3.181499 2.062338 0
M  V30 8 S 5.616397 -2.454788 1.265392 0
M  V30 9 C 4.626511 -1.808893 -0.181116 0
M  V30 10 N 5.097676 -1.161684 -1.164710 0
M  V30 11 N 3.309660 -2.215775 0.099916 0
M  V30 12 C 2.339697 -1.854003 -0.908392 0
M  V30 13 C 1.791135 -0.495972 -0.688461 0
M  V30 14 O 2.519028 -0.315825 0.345864 0
M  V30 15 N 0.986238 0.637747 -0.940125 0
M  V30 16 C 1.113478 1.741665 -0.042902 0
M  V30 17 C -0.201593 2.072968 0.602868 0
M  V30 18 N -1.278292 1.902312 -0.319410 0
M  V30 19 C -2.559320 2.444611 0.071344 0
M  V30 20 C -3.715901 2.337997 -0.709951 0
M  V30 21 C -4.914172 2.875027 -0.287387 0
M  V30 22 C -5.022314 3.535396 0.915851 0
M  V30 23 C -3.910788 3.661134 1.710787 0
M  V30 24 C -2.728530 3.116743 1.266313 0
M  V30 25 C -1.293636 1.256173 -1.614628 0
M  V30 26 C 0.053223 0.756112 -2.035666 0
M  V30 27 C 0.605766 -2.809717 1.795474 0
M  V30 28 C -0.537210 -3.423286 2.255696 0
M  V30 29 H -1.619707 -5.635767 4.202541 0
M  V30 30 H -1.864043 -6.347231 2.598571 0
M  V30 31 H -2.580561 -4.759636 2.985987 0
M  V30 32 H 0.797683 -6.513057 2.812911 0
M  V30 33 H 2.735426 -5.356629 1.999294 0
M  V30 34 H 4.276534 -3.686477 2.975378 0
M  V30 35 H 4.599829 -0.783677 -1.984210 0
M  V30 36 H 2.753276 -1.889286 -1.928868 0
M  V30 37 H 1.503952 -2.597309 -0.920312 0
M  V30 38 H 1.509614 2.655977 -0.555157 0
M  V30 39 H 1.820078 1.539345 0.800317 0
M  V30 40 H -0.136422 3.140842 0.910227 0
M  V30 41 H -0.323594 1.468572 1.528229 0
M  V30 42 H -3.636970 1.821097 -1.654691 0
M  V30 43 H -5.772966 2.753541 -0.946096 0
M  V30 44 H -5.951918 3.961839 1.264170 0
M  V30 45 H -3.999308 4.181023 2.655452 0
M  V30 46 H -1.886965 3.253144 1.948599 0
M  V30 47 H -1.650016 2.001037 -2.352437 0
M  V30 48 H -2.059853 0.448345 -1.582928 0
M  V30 49 H -0.083208 -0.217034 -2.548723 0
M  V30 50 H 0.525536 1.439765 -2.788376 0
M  V30 51 H 0.542265 -1.779950 1.522546 0
M  V30 52 H -1.464540 -2.857862 2.323857 0
M  V30 END ATOM
M  V30 BEGIN BOND
M  V30 1 1 1 2
M  V30 2 2 2 3
M  V30 3 1 3 4
M  V30 4 2 4 5
M  V30 5 1 5 6
M  V30 6 2 6 7
M  V30 7 1 7 8
M  V30 8 1 8 9
M  V30 9 2 9 10 CFG=2
M  V30 10 1 9 11
M  V30 11 1 11 12
M  V30 12 1 12 13
M  V30 13 2 13 14
M  V30 14 1 13 15
M  V30 15 1 15 16
M  V30 16 1 16 17
M  V30 17 1 17 18
M  V30 18 1 18 19
M  V30 19 2 19 20
M  V30 20 1 20 21
M  V30 21 2 21 22
M  V30 22 1 22 23
M  V30 23 2 23 24
M  V30 24 1 18 25
M  V30 25 1 25 26
M  V30 26 1 5 27
M  V30 27 2 27 28
M  V30 28 1 28 2
M  V30 29 1 11 6
M  V30 30 1 26 15
M  V30 31 1 24 19
M  V30 32 1 1 29
M  V30 33 1 1 30
M  V30 34 1 1 31
M  V30 35 1 3 32
M  V30 36 1 4 33
M  V30 37 1 7 34
M  V30 38 1 10 35
M  V30 39 1 12 36
M  V30 40 1 12 37
M  V30 41 1 16 38
M  V30 42 1 16 39
M  V30 43 1 17 40
M  V30 44 1 17 41
M  V30 45 1 20 42
M  V30 46 1 21 43
M  V30 47 1 22 44
M  V30 48 1 23 45
M  V30 49 1 24 46
M  V30 50 1 25 47
M  V30 51 1 25 48
M  V30 52 1 26 49
M  V30 53 1 26 50
M  V30 54 1 27 51
M  V30 55 1 28 52
M  V30 END BOND
M  V30 END CTAB
M  END
>  <Dataset>  (643) 
ChEMBL_Kinases

>  <Ligand_Instance>  (643) 
nan

>  <PDB_ID>  (643) 
nan

>  <Standardized_SMILES>  (643) 
Cc1ccc(-c2csc(=N)n2CC(=O)N2CCN(c3ccccc3)CC2)cc1

>  <Name>  (643) 
nan

>  <Pocket>  (643) 
nan

>  <ATP_Site>  (643) 
nan

>  <Peripheral>  (643) 
nan

>  <Num_H_Atoms_ProtBoundConf>  (643) 
nan

>  <Num_Resolved_Atoms>  (643) 
nan

>  <Num_Not_Resolved_Atoms>  (643) 
nan

$$$$
CHEMBL243721
     RDKit          3D

  0  0  0  0  0  0  0  0  0  0999 V3000
M  V30 BEGIN CTAB
M  V30 COUNTS 55 59 0 0 0
M  V30 BEGIN ATOM
M  V30 1 C -2.426864 -1.976793 5.596236 0
M  V30 2 O -2.439121 -3.380415 5.425137 0
M  V30 3 C -1.621275 -4.042943 4.535919 0
M  V30 4 C -0.730498 -3.321828 3.755011 0
M  V30 5 C 0.062746 -4.072996 2.878284 0
M  V30 6 C 1.039385 -3.421086 2.004492 0
M  V30 7 C 2.244900 -3.992828 1.580345 0
M  V30 8 C 3.085173 -3.272609 0.753432 0
M  V30 9 C 2.727910 -2.005117 0.357677 0
M  V30 10 C 1.541612 -1.440306 0.773967 0
M  V30 11 C 0.678862 -2.130301 1.599552 0
M  V30 12 N 1.017326 -0.138138 0.457523 0
M  V30 13 C 1.312484 0.650612 -0.706279 0
M  V30 14 C 0.273943 1.551882 -0.965473 0
M  V30 15 C 0.430212 2.371563 -2.056937 0
M  V30 16 N -0.579318 3.314113 -2.386427 0
M  V30 17 C -1.815887 3.543423 -1.666407 0
M  V30 18 C -2.913547 2.932854 -2.533985 0
M  V30 19 O -2.724910 3.315950 -3.858607 0
M  V30 20 C -1.945961 4.473173 -3.950510 0
M  V30 21 C -0.498825 4.200390 -3.529356 0
M  V30 22 C 1.542974 2.325058 -2.866861 0
M  V30 23 C 2.571704 1.441414 -2.620761 0
M  V30 24 C 2.451418 0.587932 -1.517447 0
M  V30 25 N 3.589005 -0.277173 -1.378589 0
M  V30 26 C 3.752145 -1.417052 -0.511418 0
M  V30 27 O 4.883960 -1.971282 -0.490330 0
M  V30 28 C -0.023432 -5.465297 2.781863 0
M  V30 29 C -0.948919 -6.114512 3.606184 0
M  V30 30 C -1.760391 -5.424851 4.492726 0
M  V30 31 N -2.696263 -6.097122 5.323844 0
M  V30 32 H -1.619276 -1.652211 6.286001 0
M  V30 33 H -3.396586 -1.685837 6.081603 0
M  V30 34 H -2.365798 -1.446091 4.629541 0
M  V30 35 H -0.642228 -2.254823 3.806224 0
M  V30 36 H 2.431235 -4.981296 1.942330 0
M  V30 37 H 4.008558 -3.723757 0.434717 0
M  V30 38 H -0.234498 -1.650902 1.899038 0
M  V30 39 H 0.363360 0.268575 1.136657 0
M  V30 40 H -0.566477 1.557115 -0.318632 0
M  V30 41 H -1.988631 4.624699 -1.494163 0
M  V30 42 H -1.886944 3.057645 -0.696524 0
M  V30 43 H -3.915366 3.174008 -2.149889 0
M  V30 44 H -2.787939 1.834684 -2.473663 0
M  V30 45 H -2.364997 5.325426 -3.378180 0
M  V30 46 H -1.912872 4.767343 -5.012100 0
M  V30 47 H -0.093117 5.174746 -3.196998 0
M  V30 48 H 0.004341 3.766894 -4.390565 0
M  V30 49 H 1.739264 2.930421 -3.735226 0
M  V30 50 H 3.468489 1.344636 -3.203654 0
M  V30 51 H 4.412664 -0.047442 -1.992943 0
M  V30 52 H 0.585159 -6.029356 2.110929 0
M  V30 53 H -1.067547 -7.194549 3.582256 0
M  V30 54 H -3.520325 -6.646779 4.987871 0
M  V30 55 H -2.785933 -6.199799 6.369813 0
M  V30 END ATOM
M  V30 BEGIN BOND
M  V30 1 1 1 2
M  V30 2 1 2 3
M  V30 3 2 3 4
M  V30 4 1 4 5
M  V30 5 1 5 6
M  V30 6 2 6 7
M  V30 7 1 7 8
M  V30 8 2 8 9
M  V30 9 1 9 10
M  V30 10 2 10 11
M  V30 11 1 10 12
M  V30 12 1 12 13
M  V30 13 2 13 14
M  V30 14 1 14 15
M  V30 15 1 15 16
M  V30 16 1 16 17
M  V30 17 1 17 18
M  V30 18 1 18 19
M  V30 19 1 19 20
M  V30 20 1 20 21
M  V30 21 2 15 22
M  V30 22 1 22 23
M  V30 23 2 23 24
M  V30 24 1 24 25
M  V30 25 1 25 26
M  V30 26 2 26 27
M  V30 27 2 5 28
M  V30 28 1 28 29
M  V30 29 2 29 30
M  V30 30 1 30 31
M  V30 31 1 30 3
M  V30 32 1 11 6
M  V30 33 1 24 13
M  V30 34 1 26 9
M  V30 35 1 21 16
M  V30 36 1 1 32
M  V30 37 1 1 33
M  V30 38 1 1 34
M  V30 39 1 4 35
M  V30 40 1 7 36
M  V30 41 1 8 37
M  V30 42 1 11 38
M  V30 43 1 12 39
M  V30 44 1 14 40
M  V30 45 1 17 41
M  V30 46 1 17 42
M  V30 47 1 18 43
M  V30 48 1 18 44
M  V30 49 1 20 45
M  V30 50 1 20 46
M  V30 51 1 21 47
M  V30 52 1 21 48
M  V30 53 1 22 49
M  V30 54 1 23 50
M  V30 55 1 25 51
M  V30 56 1 28 52
M  V30 57 1 29 53
M  V30 58 1 31 54
M  V30 59 1 31 55
M  V30 END BOND
M  V30 END CTAB
M  END
>  <Dataset>  (644) 
ChEMBL_Kinases

>  <Ligand_Instance>  (644) 
nan

>  <PDB_ID>  (644) 
nan

>  <Standardized_SMILES>  (644) 
COc1cc(-c2ccc3c(c2)Nc2cc(N4CCOCC4)ccc2NC3=O)ccc1N

>  <Name>  (644) 
nan

>  <Pocket>  (644) 
nan

>  <ATP_Site>  (644) 
nan

>  <Peripheral>  (644) 
nan

>  <Num_H_Atoms_ProtBoundConf>  (644) 
nan

>  <Num_Resolved_Atoms>  (644) 
nan

>  <Num_Not_Resolved_Atoms>  (644) 
nan

$$$$
CHEMBL2436982
     RDKit          3D

  0  0  0  0  0  0  0  0  0  0999 V3000
M  V30 BEGIN CTAB
M  V30 COUNTS 48 51 0 0 0
M  V30 BEGIN ATOM
M  V30 1 C 1.259245 -3.226187 2.800214 0
M  V30 2 O 0.314211 -3.982708 2.032758 0
M  V30 3 C -0.199213 -3.457900 0.855480 0
M  V30 4 C 0.165509 -2.204173 0.369821 0
M  V30 5 C -0.348032 -1.675965 -0.810312 0
M  V30 6 C 0.114091 -0.352831 -1.208890 0
M  V30 7 C 0.247805 0.092674 -2.519310 0
M  V30 8 N 0.683527 1.334611 -2.796673 0
M  V30 9 C 1.013941 2.214685 -1.826891 0
M  V30 10 N 1.467147 3.489566 -1.829479 0
M  V30 11 C 1.646237 3.926092 -0.552293 0
M  V30 12 C 1.296447 2.896401 0.327452 0
M  V30 13 C 1.335276 2.937586 1.784452 0
M  V30 14 C 2.351343 3.416180 2.566917 0
M  V30 15 C 2.245807 3.392049 3.952457 0
M  V30 16 C 1.127633 2.891859 4.609936 0
M  V30 17 N 1.015054 2.864911 6.022894 0
M  V30 18 N 0.145600 2.428784 3.819982 0
M  V30 19 C 0.226435 2.442110 2.460875 0
M  V30 20 C 0.912419 1.859180 -0.496503 0
M  V30 21 C 0.463684 0.581185 -0.235460 0
M  V30 22 C -1.253216 -2.451926 -1.503245 0
M  V30 23 C -1.622741 -3.689370 -1.037840 0
M  V30 24 O -2.518377 -4.487346 -1.698813 0
M  V30 25 C -3.101601 -4.048428 -2.907608 0
M  V30 26 C -1.107579 -4.217346 0.144491 0
M  V30 27 O -1.473711 -5.467487 0.624987 0
M  V30 28 C -2.585257 -5.537496 1.494794 0
M  V30 29 H 2.103618 -2.877709 2.174269 0
M  V30 30 H 0.681862 -2.382228 3.242463 0
M  V30 31 H 1.709489 -3.858661 3.591355 0
M  V30 32 H 0.880196 -1.701324 1.005818 0
M  V30 33 H -0.021945 -0.626897 -3.285021 0
M  V30 34 H 1.663132 4.085874 -2.686276 0
M  V30 35 H 1.993966 4.884248 -0.187112 0
M  V30 36 H 3.215361 3.802242 2.045094 0
M  V30 37 H 3.072106 3.780626 4.558462 0
M  V30 38 H 0.614267 3.811553 6.213392 0
M  V30 39 H 1.285710 2.062586 6.649030 0
M  V30 40 H -0.664152 2.028322 2.020300 0
M  V30 41 H 0.368250 0.257850 0.783620 0
M  V30 42 H -1.654204 -2.044778 -2.420719 0
M  V30 43 H -3.413107 -2.988576 -2.837777 0
M  V30 44 H -3.929184 -4.712793 -3.234503 0
M  V30 45 H -2.336434 -4.069851 -3.727685 0
M  V30 46 H -2.225059 -5.348414 2.522915 0
M  V30 47 H -3.120223 -6.505630 1.409552 0
M  V30 48 H -3.301309 -4.732366 1.213356 0
M  V30 END ATOM
M  V30 BEGIN BOND
M  V30 1 1 1 2
M  V30 2 1 2 3
M  V30 3 2 3 4
M  V30 4 1 4 5
M  V30 5 1 5 6
M  V30 6 2 6 7
M  V30 7 1 7 8
M  V30 8 2 8 9
M  V30 9 1 9 10
M  V30 10 1 10 11
M  V30 11 2 11 12
M  V30 12 1 12 13
M  V30 13 2 13 14
M  V30 14 1 14 15
M  V30 15 2 15 16
M  V30 16 1 16 17
M  V30 17 1 16 18
M  V30 18 2 18 19
M  V30 19 1 12 20
M  V30 20 2 20 21
M  V30 21 2 5 22
M  V30 22 1 22 23
M  V30 23 1 23 24
M  V30 24 1 24 25
M  V30 25 2 23 26
M  V30 26 1 26 27
M  V30 27 1 27 28
M  V30 28 1 26 3
M  V30 29 1 21 6
M  V30 30 1 20 9
M  V30 31 1 19 13
M  V30 32 1 1 29
M  V30 33 1 1 30
M  V30 34 1 1 31
M  V30 35 1 4 32
M  V30 36 1 7 33
M  V30 37 1 10 34
M  V30 38 1 11 35
M  V30 39 1 14 36
M  V30 40 1 15 37
M  V30 41 1 17 38
M  V30 42 1 17 39
M  V30 43 1 19 40
M  V30 44 1 21 41
M  V30 45 1 22 42
M  V30 46 1 25 43
M  V30 47 1 25 44
M  V30 48 1 25 45
M  V30 49 1 28 46
M  V30 50 1 28 47
M  V30 51 1 28 48
M  V30 END BOND
M  V30 END CTAB
M  END
>  <Dataset>  (645) 
ChEMBL_Kinases

>  <Ligand_Instance>  (645) 
nan

>  <PDB_ID>  (645) 
nan

>  <Standardized_SMILES>  (645) 
COc1cc(-c2cnc3[nH]cc(-c4ccc(N)nc4)c3c2)cc(OC)c1OC

>  <Name>  (645) 
nan

>  <Pocket>  (645) 
nan

>  <ATP_Site>  (645) 
nan

>  <Peripheral>  (645) 
nan

>  <Num_H_Atoms_ProtBoundConf>  (645) 
nan

>  <Num_Resolved_Atoms>  (645) 
nan

>  <Num_Not_Resolved_Atoms>  (645) 
nan

$$$$
CHEMBL2435034
     RDKit          3D

  0  0  0  0  0  0  0  0  0  0999 V3000
M  V30 BEGIN CTAB
M  V30 COUNTS 54 58 0 0 0
M  V30 BEGIN ATOM
M  V30 1 C 1.483399 -5.596022 2.096812 0
M  V30 2 C 1.676795 -4.150189 2.460055 0
M  V30 3 C 1.995865 -3.684475 3.724476 0
M  V30 4 C 2.137458 -2.312187 3.881704 0
M  V30 5 C 1.958525 -1.483498 2.794999 0
M  V30 6 C 1.641084 -1.983096 1.549601 0
M  V30 7 C 1.452623 -1.105518 0.403456 0
M  V30 8 N 1.564842 0.230258 0.441939 0
M  V30 9 C 1.337204 0.775349 -0.763930 0
M  V30 10 C 1.294920 2.121130 -1.405912 0
M  V30 11 N -0.030065 2.692092 -1.376975 0
M  V30 12 C -0.780868 3.094792 -0.258500 0
M  V30 13 C -0.366492 3.039829 1.045953 0
M  V30 14 C -1.103078 3.426348 2.142425 0
M  V30 15 C -2.373645 3.914631 1.919875 0
M  V30 16 S -3.421622 4.441448 3.206396 0
M  V30 17 N -3.194426 6.128787 3.535929 0
M  V30 18 O -3.157138 3.722182 4.491348 0
M  V30 19 O -4.833703 4.165804 2.821557 0
M  V30 20 C -2.844880 3.993647 0.627926 0
M  V30 21 C -2.054728 3.589447 -0.423060 0
M  V30 22 C 1.076934 -0.357215 -1.534270 0
M  V30 23 N 1.143041 -1.503553 -0.841708 0
M  V30 24 C 0.938506 -2.836283 -1.293642 0
M  V30 25 C 1.856607 -3.766602 -1.725376 0
M  V30 26 C 1.423929 -5.014135 -2.121957 0
M  V30 27 C 0.082703 -5.347785 -2.093702 0
M  V30 28 C -0.865460 -4.414999 -1.657796 0
M  V30 29 C -0.413666 -3.157568 -1.259787 0
M  V30 30 O -2.089685 -5.068068 -1.756050 0
M  V30 31 C -1.963533 -6.154056 -2.686337 0
M  V30 32 O -0.606455 -6.517671 -2.434535 0
M  V30 33 N 1.504901 -3.333306 1.408889 0
M  V30 34 H 2.306810 -5.964529 1.463132 0
M  V30 35 H 1.433292 -6.230171 3.003635 0
M  V30 36 H 0.537169 -5.740182 1.548687 0
M  V30 37 H 2.106356 -4.448022 4.482797 0
M  V30 38 H 2.385119 -1.974806 4.871510 0
M  V30 39 H 2.070382 -0.408090 2.922201 0
M  V30 40 H 1.707525 2.044007 -2.411014 0
M  V30 41 H 2.003800 2.756439 -0.808614 0
M  V30 42 H -0.463493 2.809508 -2.326109 0
M  V30 43 H 0.613054 2.675841 1.276983 0
M  V30 44 H -0.739779 3.366614 3.152450 0
M  V30 45 H -2.226775 6.266742 3.895185 0
M  V30 46 H -3.880054 6.360888 4.291058 0
M  V30 47 H -3.845408 4.377386 0.442142 0
M  V30 48 H -2.492320 3.680145 -1.417724 0
M  V30 49 H 0.832656 -0.407307 -2.608250 0
M  V30 50 H 2.868505 -3.400837 -1.706106 0
M  V30 51 H 2.181417 -5.708290 -2.452036 0
M  V30 52 H -1.236989 -2.516471 -0.941380 0
M  V30 53 H -2.681416 -6.950059 -2.499141 0
M  V30 54 H -2.058783 -5.661776 -3.690509 0
M  V30 END ATOM
M  V30 BEGIN BOND
M  V30 1 1 1 2
M  V30 2 2 2 3
M  V30 3 1 3 4
M  V30 4 2 4 5
M  V30 5 1 5 6
M  V30 6 1 6 7
M  V30 7 2 7 8
M  V30 8 1 8 9
M  V30 9 1 9 10
M  V30 10 1 10 11
M  V30 11 1 11 12
M  V30 12 2 12 13
M  V30 13 1 13 14
M  V30 14 2 14 15
M  V30 15 1 15 16
M  V30 16 1 16 17
M  V30 17 2 16 18
M  V30 18 2 16 19
M  V30 19 1 15 20
M  V30 20 2 20 21
M  V30 21 2 9 22
M  V30 22 1 22 23
M  V30 23 1 23 24
M  V30 24 2 24 25
M  V30 25 1 25 26
M  V30 26 2 26 27
M  V30 27 1 27 28
M  V30 28 2 28 29
M  V30 29 1 28 30
M  V30 30 1 30 31
M  V30 31 1 31 32
M  V30 32 2 6 33
M  V30 33 1 33 2
M  V30 34 1 23 7
M  V30 35 1 29 24
M  V30 36 1 21 12
M  V30 37 1 32 27
M  V30 38 1 1 34
M  V30 39 1 1 35
M  V30 40 1 1 36
M  V30 41 1 3 37
M  V30 42 1 4 38
M  V30 43 1 5 39
M  V30 44 1 10 40
M  V30 45 1 10 41
M  V30 46 1 11 42
M  V30 47 1 13 43
M  V30 48 1 14 44
M  V30 49 1 17 45
M  V30 50 1 17 46
M  V30 51 1 20 47
M  V30 52 1 21 48
M  V30 53 1 22 49
M  V30 54 1 25 50
M  V30 55 1 26 51
M  V30 56 1 29 52
M  V30 57 1 31 53
M  V30 58 1 31 54
M  V30 END BOND
M  V30 END CTAB
M  END
>  <Dataset>  (646) 
ChEMBL_Kinases

>  <Ligand_Instance>  (646) 
nan

>  <PDB_ID>  (646) 
nan

>  <Standardized_SMILES>  (646) 
Cc1cccc(-c2nc(CNc3ccc(S(N)(=O)=O)cc3)cn2-c2ccc3c(c2)OCO3)n1

>  <Name>  (646) 
nan

>  <Pocket>  (646) 
nan

>  <ATP_Site>  (646) 
nan

>  <Peripheral>  (646) 
nan

>  <Num_H_Atoms_ProtBoundConf>  (646) 
nan

>  <Num_Resolved_Atoms>  (646) 
nan

>  <Num_Not_Resolved_Atoms>  (646) 
nan

$$$$
CHEMBL2435035
     RDKit          3D

  0  0  0  0  0  0  0  0  0  0999 V3000
M  V30 BEGIN CTAB
M  V30 COUNTS 50 54 0 0 0
M  V30 BEGIN ATOM
M  V30 1 C -0.810063 -4.346957 3.562667 0
M  V30 2 C -0.690947 -2.866041 3.614753 0
M  V30 3 C -0.462272 -2.194340 4.806429 0
M  V30 4 C -0.368198 -0.819431 4.744431 0
M  V30 5 C -0.497322 -0.151523 3.545145 0
M  V30 6 C -0.724102 -0.841720 2.375433 0
M  V30 7 C -0.864434 -0.137573 1.083127 0
M  V30 8 N -0.784822 1.193311 0.947180 0
M  V30 9 C -0.958555 1.469354 -0.353286 0
M  V30 10 C -0.993709 2.674637 -1.218120 0
M  V30 11 N 0.313325 2.959505 -1.743819 0
M  V30 12 C 1.503710 3.363708 -1.093250 0
M  V30 13 C 2.694011 3.561001 -1.803137 0
M  V30 14 C 3.836535 3.964469 -1.152508 0
M  V30 15 C 3.868058 4.191118 0.206277 0
M  V30 16 C 5.077667 4.611087 0.851271 0
M  V30 17 N 6.065462 4.937571 1.365530 0
M  V30 18 C 2.722551 4.008634 0.934439 0
M  V30 19 C 1.596428 3.605768 0.259985 0
M  V30 20 C -1.143558 0.222660 -0.964471 0
M  V30 21 N -1.086025 -0.782925 -0.074729 0
M  V30 22 C -1.223117 -2.182122 -0.289028 0
M  V30 23 C -2.433158 -2.752076 0.084788 0
M  V30 24 C -2.645462 -4.115458 -0.092606 0
M  V30 25 C -1.617955 -4.858340 -0.645987 0
M  V30 26 C -0.401715 -4.328636 -1.030021 0
M  V30 27 C -0.220628 -2.970778 -0.841217 0
M  V30 28 O 0.382106 -5.353469 -1.540276 0
M  V30 29 C -0.249780 -6.605884 -1.313312 0
M  V30 30 O -1.550942 -6.211578 -0.933021 0
M  V30 31 N -0.809334 -2.178391 2.477320 0
M  V30 32 H -1.740004 -4.650387 3.000987 0
M  V30 33 H 0.095502 -4.786854 3.118882 0
M  V30 34 H -0.926402 -4.694969 4.618995 0
M  V30 35 H -0.363259 -2.737662 5.741632 0
M  V30 36 H -0.188642 -0.274334 5.671301 0
M  V30 37 H -0.425985 0.916822 3.485193 0
M  V30 38 H -1.744587 2.559590 -1.995098 0
M  V30 39 H -1.276561 3.569535 -0.594788 0
M  V30 40 H 0.395229 2.845792 -2.798138 0
M  V30 41 H 2.695484 3.388068 -2.881449 0
M  V30 42 H 4.726744 4.098817 -1.765564 0
M  V30 43 H 2.740915 4.184888 2.001185 0
M  V30 44 H 0.729241 3.488826 0.894197 0
M  V30 45 H -1.320676 -0.027288 -2.023514 0
M  V30 46 H -3.224180 -2.153984 0.515848 0
M  V30 47 H -3.582522 -4.595327 0.189480 0
M  V30 48 H 0.710759 -2.509915 -1.124673 0
M  V30 49 H 0.296952 -7.069703 -0.447882 0
M  V30 50 H -0.220241 -7.258936 -2.207314 0
M  V30 END ATOM
M  V30 BEGIN BOND
M  V30 1 1 1 2
M  V30 2 2 2 3
M  V30 3 1 3 4
M  V30 4 2 4 5
M  V30 5 1 5 6
M  V30 6 1 6 7
M  V30 7 2 7 8
M  V30 8 1 8 9
M  V30 9 1 9 10
M  V30 10 1 10 11
M  V30 11 1 11 12
M  V30 12 2 12 13
M  V30 13 1 13 14
M  V30 14 2 14 15
M  V30 15 1 15 16
M  V30 16 3 16 17
M  V30 17 1 15 18
M  V30 18 2 18 19
M  V30 19 2 9 20
M  V30 20 1 20 21
M  V30 21 1 21 22
M  V30 22 2 22 23
M  V30 23 1 23 24
M  V30 24 2 24 25
M  V30 25 1 25 26
M  V30 26 2 26 27
M  V30 27 1 26 28
M  V30 28 1 28 29
M  V30 29 1 29 30
M  V30 30 2 6 31
M  V30 31 1 31 2
M  V30 32 1 21 7
M  V30 33 1 27 22
M  V30 34 1 19 12
M  V30 35 1 30 25
M  V30 36 1 1 32
M  V30 37 1 1 33
M  V30 38 1 1 34
M  V30 39 1 3 35
M  V30 40 1 4 36
M  V30 41 1 5 37
M  V30 42 1 10 38
M  V30 43 1 10 39
M  V30 44 1 11 40
M  V30 45 1 13 41
M  V30 46 1 14 42
M  V30 47 1 18 43
M  V30 48 1 19 44
M  V30 49 1 20 45
M  V30 50 1 23 46
M  V30 51 1 24 47
M  V30 52 1 27 48
M  V30 53 1 29 49
M  V30 54 1 29 50
M  V30 END BOND
M  V30 END CTAB
M  END
>  <Dataset>  (647) 
ChEMBL_Kinases

>  <Ligand_Instance>  (647) 
nan

>  <PDB_ID>  (647) 
nan

>  <Standardized_SMILES>  (647) 
Cc1cccc(-c2nc(CNc3ccc(C#N)cc3)cn2-c2ccc3c(c2)OCO3)n1

>  <Name>  (647) 
nan

>  <Pocket>  (647) 
nan

>  <ATP_Site>  (647) 
nan

>  <Peripheral>  (647) 
nan

>  <Num_H_Atoms_ProtBoundConf>  (647) 
nan

>  <Num_Resolved_Atoms>  (647) 
nan

>  <Num_Not_Resolved_Atoms>  (647) 
nan

$$$$
CHEMBL2435036
     RDKit          3D

  0  0  0  0  0  0  0  0  0  0999 V3000
M  V30 BEGIN CTAB
M  V30 COUNTS 53 57 0 0 0
M  V30 BEGIN ATOM
M  V30 1 C 1.285165 -4.490677 4.590765 0
M  V30 2 C 2.039476 -3.387738 3.942025 0
M  V30 3 C 3.159459 -2.899301 4.583805 0
M  V30 4 C 3.883638 -1.869045 4.000961 0
M  V30 5 C 3.487537 -1.330308 2.780291 0
M  V30 6 C 2.345665 -1.857741 2.167100 0
M  V30 7 C 1.915516 -1.305263 0.886991 0
M  V30 8 N 2.508384 -0.312693 0.201578 0
M  V30 9 C 1.848499 -0.049460 -0.945922 0
M  V30 10 C 2.339657 0.997437 -1.852539 0
M  V30 11 N 1.817319 2.278478 -1.452938 0
M  V30 12 C 0.510609 2.817147 -1.448652 0
M  V30 13 C 0.281829 4.107803 -0.963265 0
M  V30 14 C -0.975509 4.657244 -0.959552 0
M  V30 15 C -2.039485 3.945849 -1.435291 0
M  V30 16 C -3.351922 4.573964 -1.409123 0
M  V30 17 N -4.546426 3.972697 -1.862919 0
M  V30 18 O -3.480646 5.747413 -0.953823 0
M  V30 19 C -1.890308 2.674425 -1.926942 0
M  V30 20 C -0.606840 2.171900 -1.907155 0
M  V30 21 C 0.830842 -0.943844 -0.900265 0
M  V30 22 N 0.839227 -1.721615 0.196155 0
M  V30 23 C -0.109411 -2.740155 0.497456 0
M  V30 24 C 0.184219 -4.090585 0.520951 0
M  V30 25 C -0.815311 -5.000341 0.826958 0
M  V30 26 C -2.064531 -4.480452 1.093267 0
M  V30 27 C -2.392342 -3.135772 1.078459 0
M  V30 28 C -1.368376 -2.237137 0.767310 0
M  V30 29 O -3.760639 -3.057128 1.404555 0
M  V30 30 C -4.353519 -4.336515 1.141439 0
M  V30 31 O -3.235469 -5.174779 1.425713 0
M  V30 32 N 1.668531 -2.857273 2.762647 0
M  V30 33 H 0.464532 -4.863459 3.966629 0
M  V30 34 H 1.994214 -5.340286 4.736847 0
M  V30 35 H 0.880694 -4.119775 5.550401 0
M  V30 36 H 3.458368 -3.326886 5.534337 0
M  V30 37 H 4.771554 -1.459155 4.478109 0
M  V30 38 H 4.054212 -0.512483 2.307953 0
M  V30 39 H 1.992234 0.750980 -2.904239 0
M  V30 40 H 3.443179 0.968320 -1.861865 0
M  V30 41 H 2.573791 2.928696 -1.095264 0
M  V30 42 H 1.118391 4.695273 -0.577765 0
M  V30 43 H -1.082020 5.660888 -0.569611 0
M  V30 44 H -4.679377 3.154104 -1.221633 0
M  V30 45 H -5.270233 4.111235 -2.600710 0
M  V30 46 H -2.735322 2.121305 -2.299935 0
M  V30 47 H -0.516989 1.181985 -2.303706 0
M  V30 48 H 0.093583 -1.007501 -1.694435 0
M  V30 49 H 1.195263 -4.403510 0.297857 0
M  V30 50 H -0.619417 -6.061372 0.853852 0
M  V30 51 H -1.638108 -1.196287 0.759723 0
M  V30 52 H -5.215326 -4.534905 1.773960 0
M  V30 53 H -4.651995 -4.427684 0.087062 0
M  V30 END ATOM
M  V30 BEGIN BOND
M  V30 1 1 1 2
M  V30 2 2 2 3
M  V30 3 1 3 4
M  V30 4 2 4 5
M  V30 5 1 5 6
M  V30 6 1 6 7
M  V30 7 2 7 8
M  V30 8 1 8 9
M  V30 9 1 9 10
M  V30 10 1 10 11
M  V30 11 1 11 12
M  V30 12 2 12 13
M  V30 13 1 13 14
M  V30 14 2 14 15
M  V30 15 1 15 16
M  V30 16 1 16 17
M  V30 17 2 16 18
M  V30 18 1 15 19
M  V30 19 2 19 20
M  V30 20 2 9 21
M  V30 21 1 21 22
M  V30 22 1 22 23
M  V30 23 2 23 24
M  V30 24 1 24 25
M  V30 25 2 25 26
M  V30 26 1 26 27
M  V30 27 2 27 28
M  V30 28 1 27 29
M  V30 29 1 29 30
M  V30 30 1 30 31
M  V30 31 2 6 32
M  V30 32 1 32 2
M  V30 33 1 22 7
M  V30 34 1 28 23
M  V30 35 1 20 12
M  V30 36 1 31 26
M  V30 37 1 1 33
M  V30 38 1 1 34
M  V30 39 1 1 35
M  V30 40 1 3 36
M  V30 41 1 4 37
M  V30 42 1 5 38
M  V30 43 1 10 39
M  V30 44 1 10 40
M  V30 45 1 11 41
M  V30 46 1 13 42
M  V30 47 1 14 43
M  V30 48 1 17 44
M  V30 49 1 17 45
M  V30 50 1 19 46
M  V30 51 1 20 47
M  V30 52 1 21 48
M  V30 53 1 24 49
M  V30 54 1 25 50
M  V30 55 1 28 51
M  V30 56 1 30 52
M  V30 57 1 30 53
M  V30 END BOND
M  V30 END CTAB
M  END
>  <Dataset>  (648) 
ChEMBL_Kinases

>  <Ligand_Instance>  (648) 
nan

>  <PDB_ID>  (648) 
nan

>  <Standardized_SMILES>  (648) 
Cc1cccc(-c2nc(CNc3ccc(C(N)=O)cc3)cn2-c2ccc3c(c2)OCO3)n1

>  <Name>  (648) 
nan

>  <Pocket>  (648) 
nan

>  <ATP_Site>  (648) 
nan

>  <Peripheral>  (648) 
nan

>  <Num_H_Atoms_ProtBoundConf>  (648) 
nan

>  <Num_Resolved_Atoms>  (648) 
nan

>  <Num_Not_Resolved_Atoms>  (648) 
nan

$$$$
CHEMBL2435037
     RDKit          3D

  0  0  0  0  0  0  0  0  0  0999 V3000
M  V30 BEGIN CTAB
M  V30 COUNTS 38 41 0 0 0
M  V30 BEGIN ATOM
M  V30 1 C 1.943915 -3.822558 0.420936 0
M  V30 2 C 2.033245 -2.546363 -0.333222 0
M  V30 3 C 2.869487 -2.475627 -1.428234 0
M  V30 4 C 3.036366 -1.347160 -2.206387 0
M  V30 5 C 2.278695 -0.245070 -1.799927 0
M  V30 6 C 1.436213 -0.294722 -0.707601 0
M  V30 7 C 0.664185 0.882330 -0.320620 0
M  V30 8 N 0.685415 2.073674 -0.945796 0
M  V30 9 C -0.160067 2.928612 -0.303955 0
M  V30 10 C -0.500400 4.326383 -0.574722 0
M  V30 11 N 0.145274 4.947266 -1.704578 0
M  V30 12 O -1.315607 4.970855 0.134468 0
M  V30 13 C -0.700287 2.187423 0.752688 0
M  V30 14 N -0.184048 0.945569 0.722284 0
M  V30 15 C -0.524065 -0.068413 1.662278 0
M  V30 16 C 0.306367 -0.224448 2.743847 0
M  V30 17 C 0.026267 -1.191672 3.687450 0
M  V30 18 C -1.062646 -2.038950 3.618731 0
M  V30 19 C -1.882439 -1.855413 2.513171 0
M  V30 20 C -1.627925 -0.896910 1.553598 0
M  V30 21 O -2.918448 -2.800027 2.625485 0
M  V30 22 C -2.919728 -3.290054 3.960812 0
M  V30 23 O -1.573301 -3.071772 4.401792 0
M  V30 24 N 1.334394 -1.443878 -0.001484 0
M  V30 25 H 1.439555 -3.688978 1.397307 0
M  V30 26 H 1.352417 -4.577125 -0.148724 0
M  V30 27 H 2.983572 -4.192908 0.539050 0
M  V30 28 H 3.455182 -3.352537 -1.729911 0
M  V30 29 H 3.704844 -1.338162 -3.057830 0
M  V30 30 H 2.360963 0.679978 -2.368707 0
M  V30 31 H -0.332889 4.578963 -2.555688 0
M  V30 32 H -0.312854 4.598352 -2.593009 0
M  V30 33 H -1.421083 2.593591 1.461934 0
M  V30 34 H 1.197812 0.379972 2.914555 0
M  V30 35 H 0.677003 -1.330718 4.556509 0
M  V30 36 H -2.271883 -0.760587 0.695219 0
M  V30 37 H -3.122308 -4.362777 3.924889 0
M  V30 38 H -3.626473 -2.697275 4.575571 0
M  V30 END ATOM
M  V30 BEGIN BOND
M  V30 1 1 1 2
M  V30 2 2 2 3
M  V30 3 1 3 4
M  V30 4 2 4 5
M  V30 5 1 5 6
M  V30 6 1 6 7
M  V30 7 2 7 8
M  V30 8 1 8 9
M  V30 9 1 9 10
M  V30 10 1 10 11
M  V30 11 2 10 12
M  V30 12 2 9 13
M  V30 13 1 13 14
M  V30 14 1 14 15
M  V30 15 2 15 16
M  V30 16 1 16 17
M  V30 17 2 17 18
M  V30 18 1 18 19
M  V30 19 2 19 20
M  V30 20 1 19 21
M  V30 21 1 21 22
M  V30 22 1 22 23
M  V30 23 2 6 24
M  V30 24 1 24 2
M  V30 25 1 14 7
M  V30 26 1 20 15
M  V30 27 1 23 18
M  V30 28 1 1 25
M  V30 29 1 1 26
M  V30 30 1 1 27
M  V30 31 1 3 28
M  V30 32 1 4 29
M  V30 33 1 5 30
M  V30 34 1 11 31
M  V30 35 1 11 32
M  V30 36 1 13 33
M  V30 37 1 16 34
M  V30 38 1 17 35
M  V30 39 1 20 36
M  V30 40 1 22 37
M  V30 41 1 22 38
M  V30 END BOND
M  V30 END CTAB
M  END
>  <Dataset>  (649) 
ChEMBL_Kinases

>  <Ligand_Instance>  (649) 
nan

>  <PDB_ID>  (649) 
nan

>  <Standardized_SMILES>  (649) 
Cc1cccc(-c2nc(C(N)=O)cn2-c2ccc3c(c2)OCO3)n1

>  <Name>  (649) 
nan

>  <Pocket>  (649) 
nan

>  <ATP_Site>  (649) 
nan

>  <Peripheral>  (649) 
nan

>  <Num_H_Atoms_ProtBoundConf>  (649) 
nan

>  <Num_Resolved_Atoms>  (649) 
nan

>  <Num_Not_Resolved_Atoms>  (649) 
nan

$$$$
CHEMBL2435039
     RDKit          3D

  0  0  0  0  0  0  0  0  0  0999 V3000
M  V30 BEGIN CTAB
M  V30 COUNTS 52 55 0 0 0
M  V30 BEGIN ATOM
M  V30 1 C -0.872712 -5.943864 1.524142 0
M  V30 2 C 0.300065 -5.016434 1.665007 0
M  V30 3 C 1.334849 -5.446247 2.464378 0
M  V30 4 C 2.440213 -4.610568 2.620359 0
M  V30 5 C 2.383465 -3.410100 1.942224 0
M  V30 6 C 1.353040 -2.970195 1.139777 0
M  V30 7 C 1.377923 -1.681896 0.458060 0
M  V30 8 N 2.334572 -0.756703 0.486333 0
M  V30 9 C 1.979141 0.310268 -0.286643 0
M  V30 10 C 2.834282 1.523469 -0.469666 0
M  V30 11 N 2.510777 2.512448 0.569753 0
M  V30 12 C 1.316684 3.254196 0.413063 0
M  V30 13 O 0.477067 3.178597 -0.520787 0
M  V30 14 N 1.005300 4.208181 1.421441 0
M  V30 15 C -0.134325 5.097632 1.518980 0
M  V30 16 C 0.371891 6.513602 1.567385 0
M  V30 17 C -0.983239 4.826992 2.710207 0
M  V30 18 C 0.749801 -0.034268 -0.779345 0
M  V30 19 N 0.377267 -1.246756 -0.329653 0
M  V30 20 C -0.826073 -1.952611 -0.612255 0
M  V30 21 C -2.040478 -1.524589 -0.070138 0
M  V30 22 C -3.184473 -2.250165 -0.377705 0
M  V30 23 C -3.170837 -3.360550 -1.185256 0
M  V30 24 C -1.945936 -3.776249 -1.720492 0
M  V30 25 C -0.800286 -3.067294 -1.425243 0
M  V30 26 O -2.205121 -4.920330 -2.500186 0
M  V30 27 C -3.436965 -5.484456 -2.022159 0
M  V30 28 O -4.112458 -4.273226 -1.667049 0
M  V30 29 N 0.311494 -3.842037 1.038255 0
M  V30 30 H -1.663943 -5.547634 2.194195 0
M  V30 31 H -1.215732 -5.832680 0.476092 0
M  V30 32 H -0.605260 -6.994583 1.730015 0
M  V30 33 H 1.378305 -6.400509 3.002224 0
M  V30 34 H 3.315006 -4.835471 3.221764 0
M  V30 35 H 3.225956 -2.714541 2.029864 0
M  V30 36 H 3.888378 1.199380 -0.359932 0
M  V30 37 H 2.665499 1.944860 -1.481416 0
M  V30 38 H 3.128403 2.671585 1.395929 0
M  V30 39 H 1.617364 4.367244 2.248454 0
M  V30 40 H -0.787496 4.945175 0.615207 0
M  V30 41 H 0.472881 6.883731 0.521655 0
M  V30 42 H -0.333684 7.175707 2.142174 0
M  V30 43 H 1.332924 6.554588 2.121929 0
M  V30 44 H -2.035148 4.534438 2.445152 0
M  V30 45 H -1.097599 5.758615 3.295794 0
M  V30 46 H -0.530386 4.074191 3.407026 0
M  V30 47 H 0.183655 0.604730 -1.437515 0
M  V30 48 H -2.085584 -0.650712 0.572330 0
M  V30 49 H -4.163316 -1.965740 0.015315 0
M  V30 50 H 0.112297 -3.440192 -1.869491 0
M  V30 51 H -3.215016 -6.023284 -1.087772 0
M  V30 52 H -3.968092 -6.062288 -2.788094 0
M  V30 END ATOM
M  V30 BEGIN BOND
M  V30 1 1 1 2
M  V30 2 2 2 3
M  V30 3 1 3 4
M  V30 4 2 4 5
M  V30 5 1 5 6
M  V30 6 1 6 7
M  V30 7 2 7 8
M  V30 8 1 8 9
M  V30 9 1 9 10
M  V30 10 1 10 11
M  V30 11 1 11 12
M  V30 12 2 12 13
M  V30 13 1 12 14
M  V30 14 1 14 15
M  V30 15 1 15 16
M  V30 16 1 15 17
M  V30 17 2 9 18
M  V30 18 1 18 19
M  V30 19 1 19 20
M  V30 20 2 20 21
M  V30 21 1 21 22
M  V30 22 2 22 23
M  V30 23 1 23 24
M  V30 24 2 24 25
M  V30 25 1 24 26
M  V30 26 1 26 27
M  V30 27 1 27 28
M  V30 28 2 6 29
M  V30 29 1 29 2
M  V30 30 1 19 7
M  V30 31 1 25 20
M  V30 32 1 28 23
M  V30 33 1 1 30
M  V30 34 1 1 31
M  V30 35 1 1 32
M  V30 36 1 3 33
M  V30 37 1 4 34
M  V30 38 1 5 35
M  V30 39 1 10 36
M  V30 40 1 10 37
M  V30 41 1 11 38
M  V30 42 1 14 39
M  V30 43 1 15 40
M  V30 44 1 16 41
M  V30 45 1 16 42
M  V30 46 1 16 43
M  V30 47 1 17 44
M  V30 48 1 17 45
M  V30 49 1 17 46
M  V30 50 1 18 47
M  V30 51 1 21 48
M  V30 52 1 22 49
M  V30 53 1 25 50
M  V30 54 1 27 51
M  V30 55 1 27 52
M  V30 END BOND
M  V30 END CTAB
M  END
>  <Dataset>  (650) 
ChEMBL_Kinases

>  <Ligand_Instance>  (650) 
nan

>  <PDB_ID>  (650) 
nan

>  <Standardized_SMILES>  (650) 
Cc1cccc(-c2nc(CNC(=O)NC(C)C)cn2-c2ccc3c(c2)OCO3)n1

>  <Name>  (650) 
nan

>  <Pocket>  (650) 
nan

>  <ATP_Site>  (650) 
nan

>  <Peripheral>  (650) 
nan

>  <Num_H_Atoms_ProtBoundConf>  (650) 
nan

>  <Num_Resolved_Atoms>  (650) 
nan

>  <Num_Not_Resolved_Atoms>  (650) 
nan

$$$$
CHEMBL2435040
     RDKit          3D

  0  0  0  0  0  0  0  0  0  0999 V3000
M  V30 BEGIN CTAB
M  V30 COUNTS 54 58 0 0 0
M  V30 BEGIN ATOM
M  V30 1 C 2.299826 -4.671386 3.472195 0
M  V30 2 C 2.491137 -3.255857 3.126298 0
M  V30 3 C 3.167382 -2.389909 3.994353 0
M  V30 4 C 3.318502 -1.072048 3.621605 0
M  V30 5 C 2.824571 -0.575275 2.418439 0
M  V30 6 C 2.161422 -1.503161 1.607039 0
M  V30 7 C 1.637065 -0.983422 0.335979 0
M  V30 8 N 1.707815 0.278482 -0.160524 0
M  V30 9 C 1.099907 0.324220 -1.354325 0
M  V30 10 C 0.981187 1.564954 -2.202441 0
M  V30 11 N -0.259275 2.269278 -1.844057 0
M  V30 12 C -0.396486 3.028011 -0.677343 0
M  V30 13 O 0.531625 3.168316 0.159740 0
M  V30 14 N -1.574862 3.723891 -0.293129 0
M  V30 15 C -1.594350 4.480237 0.946106 0
M  V30 16 C -2.529019 3.735169 1.875762 0
M  V30 17 O -3.514116 3.055735 1.212759 0
M  V30 18 C -3.970697 3.642863 0.044482 0
M  V30 19 C -2.869193 3.818480 -0.979022 0
M  V30 20 C 0.617528 -0.929629 -1.654354 0
M  V30 21 N 0.969207 -1.689223 -0.596151 0
M  V30 22 C 0.623731 -3.078353 -0.564616 0
M  V30 23 C 1.425108 -4.145851 -0.908214 0
M  V30 24 C 0.868662 -5.401849 -0.795788 0
M  V30 25 C -0.404980 -5.636099 -0.371646 0
M  V30 26 C -1.229199 -4.567863 -0.020070 0
M  V30 27 C -0.689182 -3.293175 -0.125725 0
M  V30 28 O -2.476454 -5.039867 0.380160 0
M  V30 29 C -2.563360 -6.380955 -0.107751 0
M  V30 30 O -1.196830 -6.757228 -0.169650 0
M  V30 31 N 2.007971 -2.791962 1.960736 0
M  V30 32 H 1.258581 -5.027207 3.295333 0
M  V30 33 H 2.958659 -5.296075 2.837350 0
M  V30 34 H 2.492065 -4.876589 4.555258 0
M  V30 35 H 3.553297 -2.770460 4.930726 0
M  V30 36 H 3.836802 -0.434286 4.300521 0
M  V30 37 H 2.943004 0.463288 2.123120 0
M  V30 38 H 1.865727 2.186486 -2.075648 0
M  V30 39 H 0.830316 1.203086 -3.242478 0
M  V30 40 H -1.150826 2.270884 -2.422320 0
M  V30 41 H -2.069828 5.479957 0.784540 0
M  V30 42 H -0.581411 4.591126 1.383553 0
M  V30 43 H -2.917344 4.436960 2.643709 0
M  V30 44 H -1.886762 2.969212 2.394032 0
M  V30 45 H -4.504333 4.584902 0.253285 0
M  V30 46 H -4.716043 2.939387 -0.382639 0
M  V30 47 H -2.956689 3.086267 -1.788721 0
M  V30 48 H -2.968223 4.839011 -1.394271 0
M  V30 49 H 0.086031 -1.180793 -2.551847 0
M  V30 50 H 2.411533 -3.891580 -1.233181 0
M  V30 51 H 1.518514 -6.228897 -1.071995 0
M  V30 52 H -1.374342 -2.478852 0.161889 0
M  V30 53 H -3.132142 -6.962367 0.649981 0
M  V30 54 H -3.070271 -6.353437 -1.072347 0
M  V30 END ATOM
M  V30 BEGIN BOND
M  V30 1 1 1 2
M  V30 2 2 2 3
M  V30 3 1 3 4
M  V30 4 2 4 5
M  V30 5 1 5 6
M  V30 6 1 6 7
M  V30 7 2 7 8
M  V30 8 1 8 9
M  V30 9 1 9 10
M  V30 10 1 10 11
M  V30 11 1 11 12
M  V30 12 2 12 13
M  V30 13 1 12 14
M  V30 14 1 14 15
M  V30 15 1 15 16
M  V30 16 1 16 17
M  V30 17 1 17 18
M  V30 18 1 18 19
M  V30 19 2 9 20
M  V30 20 1 20 21
M  V30 21 1 21 22
M  V30 22 2 22 23
M  V30 23 1 23 24
M  V30 24 2 24 25
M  V30 25 1 25 26
M  V30 26 2 26 27
M  V30 27 1 26 28
M  V30 28 1 28 29
M  V30 29 1 29 30
M  V30 30 2 6 31
M  V30 31 1 31 2
M  V30 32 1 21 7
M  V30 33 1 27 22
M  V30 34 1 19 14
M  V30 35 1 30 25
M  V30 36 1 1 32
M  V30 37 1 1 33
M  V30 38 1 1 34
M  V30 39 1 3 35
M  V30 40 1 4 36
M  V30 41 1 5 37
M  V30 42 1 10 38
M  V30 43 1 10 39
M  V30 44 1 11 40
M  V30 45 1 15 41
M  V30 46 1 15 42
M  V30 47 1 16 43
M  V30 48 1 16 44
M  V30 49 1 18 45
M  V30 50 1 18 46
M  V30 51 1 19 47
M  V30 52 1 19 48
M  V30 53 1 20 49
M  V30 54 1 23 50
M  V30 55 1 24 51
M  V30 56 1 27 52
M  V30 57 1 29 53
M  V30 58 1 29 54
M  V30 END BOND
M  V30 END CTAB
M  END
>  <Dataset>  (651) 
ChEMBL_Kinases

>  <Ligand_Instance>  (651) 
nan

>  <PDB_ID>  (651) 
nan

>  <Standardized_SMILES>  (651) 
Cc1cccc(-c2nc(CNC(=O)N3CCOCC3)cn2-c2ccc3c(c2)OCO3)n1

>  <Name>  (651) 
nan

>  <Pocket>  (651) 
nan

>  <ATP_Site>  (651) 
nan

>  <Peripheral>  (651) 
nan

>  <Num_H_Atoms_ProtBoundConf>  (651) 
nan

>  <Num_Resolved_Atoms>  (651) 
nan

>  <Num_Not_Resolved_Atoms>  (651) 
nan

$$$$
CHEMBL2435041
     RDKit          3D

  0  0  0  0  0  0  0  0  0  0999 V3000
M  V30 BEGIN CTAB
M  V30 COUNTS 53 57 0 0 0
M  V30 BEGIN ATOM
M  V30 1 C 1.302661 -5.310009 3.752675 0
M  V30 2 C 1.952785 -3.979453 3.665116 0
M  V30 3 C 2.764622 -3.597850 4.703583 0
M  V30 4 C 3.384709 -2.356480 4.646465 0
M  V30 5 C 3.145222 -1.559826 3.525704 0
M  V30 6 C 2.323873 -1.962789 2.490306 0
M  V30 7 C 2.106006 -1.092712 1.340520 0
M  V30 8 N 2.655329 0.143099 1.164122 0
M  V30 9 C 2.207623 0.622951 -0.024544 0
M  V30 10 C 2.592806 1.963007 -0.572667 0
M  V30 11 N 1.587284 2.890493 -0.052464 0
M  V30 12 C 0.266532 2.987273 -0.562042 0
M  V30 13 O -0.150928 2.286264 -1.504170 0
M  V30 14 N -0.640966 3.907495 0.000139 0
M  V30 15 C -1.942772 3.928214 -0.582752 0
M  V30 16 C -2.423807 4.686202 -1.633267 0
M  V30 17 C -3.740798 4.521300 -2.018894 0
M  V30 18 C -4.566293 3.632378 -1.387165 0
M  V30 19 C -4.107650 2.881377 -0.354037 0
M  V30 20 C -2.792822 3.022507 0.056911 0
M  V30 21 C 1.376463 -0.354436 -0.557079 0
M  V30 22 N 1.323197 -1.403849 0.293009 0
M  V30 23 C 0.546829 -2.563369 0.020867 0
M  V30 24 C 0.953414 -3.870159 -0.146774 0
M  V30 25 C 0.003920 -4.845078 -0.407459 0
M  V30 26 C -1.319351 -4.504404 -0.495552 0
M  V30 27 C -1.778291 -3.192156 -0.332775 0
M  V30 28 C -0.811965 -2.247348 -0.075072 0
M  V30 29 O -3.149883 -3.264263 -0.493120 0
M  V30 30 C -3.543580 -4.503398 -1.057389 0
M  V30 31 O -2.428026 -5.331241 -0.749331 0
M  V30 32 N 1.761967 -3.177664 2.622865 0
M  V30 33 H 1.727556 -5.930934 4.542424 0
M  V30 34 H 0.211321 -5.111951 3.960613 0
M  V30 35 H 1.315375 -5.784526 2.741280 0
M  V30 36 H 2.989082 -4.168409 5.596482 0
M  V30 37 H 4.043807 -1.913203 5.370481 0
M  V30 38 H 3.596482 -0.584363 3.420155 0
M  V30 39 H 3.603220 2.247315 -0.292494 0
M  V30 40 H 2.433469 1.917653 -1.685416 0
M  V30 41 H 1.872750 3.521059 0.751284 0
M  V30 42 H -0.307328 4.514852 0.804480 0
M  V30 43 H -1.670607 5.348668 -2.043898 0
M  V30 44 H -4.040121 5.162707 -2.860827 0
M  V30 45 H -5.588159 3.541163 -1.727108 0
M  V30 46 H -4.794380 2.192126 0.116463 0
M  V30 47 H -2.527362 2.372797 0.894017 0
M  V30 48 H 0.864619 -0.264550 -1.505353 0
M  V30 49 H 2.022329 -3.997416 -0.051273 0
M  V30 50 H 0.380302 -5.849525 -0.529534 0
M  V30 51 H -1.242319 -1.247650 0.040601 0
M  V30 52 H -4.470634 -4.913939 -0.611250 0
M  V30 53 H -3.691448 -4.421929 -2.139254 0
M  V30 END ATOM
M  V30 BEGIN BOND
M  V30 1 1 1 2
M  V30 2 2 2 3
M  V30 3 1 3 4
M  V30 4 2 4 5
M  V30 5 1 5 6
M  V30 6 1 6 7
M  V30 7 2 7 8
M  V30 8 1 8 9
M  V30 9 1 9 10
M  V30 10 1 10 11
M  V30 11 1 11 12
M  V30 12 2 12 13
M  V30 13 1 12 14
M  V30 14 1 14 15
M  V30 15 2 15 16
M  V30 16 1 16 17
M  V30 17 2 17 18
M  V30 18 1 18 19
M  V30 19 2 19 20
M  V30 20 2 9 21
M  V30 21 1 21 22
M  V30 22 1 22 23
M  V30 23 2 23 24
M  V30 24 1 24 25
M  V30 25 2 25 26
M  V30 26 1 26 27
M  V30 27 2 27 28
M  V30 28 1 27 29
M  V30 29 1 29 30
M  V30 30 1 30 31
M  V30 31 2 6 32
M  V30 32 1 32 2
M  V30 33 1 22 7
M  V30 34 1 28 23
M  V30 35 1 20 15
M  V30 36 1 31 26
M  V30 37 1 1 33
M  V30 38 1 1 34
M  V30 39 1 1 35
M  V30 40 1 3 36
M  V30 41 1 4 37
M  V30 42 1 5 38
M  V30 43 1 10 39
M  V30 44 1 10 40
M  V30 45 1 11 41
M  V30 46 1 14 42
M  V30 47 1 16 43
M  V30 48 1 17 44
M  V30 49 1 18 45
M  V30 50 1 19 46
M  V30 51 1 20 47
M  V30 52 1 21 48
M  V30 53 1 24 49
M  V30 54 1 25 50
M  V30 55 1 28 51
M  V30 56 1 30 52
M  V30 57 1 30 53
M  V30 END BOND
M  V30 END CTAB
M  END
>  <Dataset>  (652) 
ChEMBL_Kinases

>  <Ligand_Instance>  (652) 
nan

>  <PDB_ID>  (652) 
nan

>  <Standardized_SMILES>  (652) 
Cc1cccc(-c2nc(CNC(=O)Nc3ccccc3)cn2-c2ccc3c(c2)OCO3)n1

>  <Name>  (652) 
nan

>  <Pocket>  (652) 
nan

>  <ATP_Site>  (652) 
nan

>  <Peripheral>  (652) 
nan

>  <Num_H_Atoms_ProtBoundConf>  (652) 
nan

>  <Num_Resolved_Atoms>  (652) 
nan

>  <Num_Not_Resolved_Atoms>  (652) 
nan

$$$$
CHEMBL2435043
     RDKit          3D

  0  0  0  0  0  0  0  0  0  0999 V3000
M  V30 BEGIN CTAB
M  V30 COUNTS 43 46 0 0 0
M  V30 BEGIN ATOM
M  V30 1 C -0.564095 -7.554060 1.289910 0
M  V30 2 C 0.327626 -6.828994 0.313071 0
M  V30 3 O 0.249501 -5.426206 0.507435 0
M  V30 4 C 0.946848 -4.489396 -0.229088 0
M  V30 5 O 1.712654 -4.850301 -1.141023 0
M  V30 6 C 0.772910 -3.072444 0.077092 0
M  V30 7 C 1.360837 -1.982779 -0.521628 0
M  V30 8 N 0.917355 -0.837940 0.075937 0
M  V30 9 C 1.300102 0.493836 -0.267648 0
M  V30 10 C 0.542625 1.077579 -1.275382 0
M  V30 11 C 0.778103 2.375847 -1.737833 0
M  V30 12 C 1.810750 3.101178 -1.161445 0
M  V30 13 C 2.556129 2.511210 -0.161654 0
M  V30 14 C 2.323281 1.230129 0.294223 0
M  V30 15 O 3.509094 3.445256 0.231507 0
M  V30 16 C 3.060066 4.748941 -0.168646 0
M  V30 17 O 2.338347 4.382968 -1.344647 0
M  V30 18 C 0.055846 -1.196734 1.045120 0
M  V30 19 C -0.657389 -0.286990 1.937068 0
M  V30 20 C -1.516717 -0.831159 2.890031 0
M  V30 21 C -2.178662 0.074701 3.722401 0
M  V30 22 C -1.975264 1.432882 3.588046 0
M  V30 23 C -1.107359 1.949309 2.623110 0
M  V30 24 C -0.877674 3.409846 2.465953 0
M  V30 25 N -0.492671 1.043478 1.845366 0
M  V30 26 N -0.014825 -2.539846 1.027145 0
M  V30 27 H -1.514210 -7.831331 0.779431 0
M  V30 28 H -0.056586 -8.453984 1.693322 0
M  V30 29 H -0.879849 -6.903428 2.140455 0
M  V30 30 H 0.089872 -7.136877 -0.728427 0
M  V30 31 H 1.377796 -7.188571 0.500026 0
M  V30 32 H 2.067087 -2.044200 -1.342536 0
M  V30 33 H -0.288636 0.582670 -1.786002 0
M  V30 34 H 0.184187 2.823305 -2.522599 0
M  V30 35 H 2.882701 0.734544 1.072271 0
M  V30 36 H 2.356795 5.076172 0.631045 0
M  V30 37 H 3.878427 5.441820 -0.356819 0
M  V30 38 H -1.612873 -1.907525 2.921340 0
M  V30 39 H -2.845281 -0.347931 4.461631 0
M  V30 40 H -2.505128 2.104281 4.250333 0
M  V30 41 H 0.025243 3.696449 3.051038 0
M  V30 42 H -1.725790 4.012946 2.811645 0
M  V30 43 H -0.636206 3.581966 1.388219 0
M  V30 END ATOM
M  V30 BEGIN BOND
M  V30 1 1 1 2
M  V30 2 1 2 3
M  V30 3 1 3 4
M  V30 4 2 4 5
M  V30 5 1 4 6
M  V30 6 2 6 7
M  V30 7 1 7 8
M  V30 8 1 8 9
M  V30 9 2 9 10
M  V30 10 1 10 11
M  V30 11 2 11 12
M  V30 12 1 12 13
M  V30 13 2 13 14
M  V30 14 1 13 15
M  V30 15 1 15 16
M  V30 16 1 16 17
M  V30 17 1 8 18
M  V30 18 1 18 19
M  V30 19 2 19 20
M  V30 20 1 20 21
M  V30 21 2 21 22
M  V30 22 1 22 23
M  V30 23 1 23 24
M  V30 24 2 23 25
M  V30 25 2 18 26
M  V30 26 1 26 6
M  V30 27 1 14 9
M  V30 28 1 25 19
M  V30 29 1 17 12
M  V30 30 1 1 27
M  V30 31 1 1 28
M  V30 32 1 1 29
M  V30 33 1 2 30
M  V30 34 1 2 31
M  V30 35 1 7 32
M  V30 36 1 10 33
M  V30 37 1 11 34
M  V30 38 1 14 35
M  V30 39 1 16 36
M  V30 40 1 16 37
M  V30 41 1 20 38
M  V30 42 1 21 39
M  V30 43 1 22 40
M  V30 44 1 24 41
M  V30 45 1 24 42
M  V30 46 1 24 43
M  V30 END BOND
M  V30 END CTAB
M  END
>  <Dataset>  (653) 
ChEMBL_Kinases

>  <Ligand_Instance>  (653) 
nan

>  <PDB_ID>  (653) 
nan

>  <Standardized_SMILES>  (653) 
CCOC(=O)c1cn(-c2ccc3c(c2)OCO3)c(-c2cccc(C)n2)n1

>  <Name>  (653) 
nan

>  <Pocket>  (653) 
nan

>  <ATP_Site>  (653) 
nan

>  <Peripheral>  (653) 
nan

>  <Num_H_Atoms_ProtBoundConf>  (653) 
nan

>  <Num_Resolved_Atoms>  (653) 
nan

>  <Num_Not_Resolved_Atoms>  (653) 
nan

$$$$
CHEMBL2436981
     RDKit          3D

  0  0  0  0  0  0  0  0  0  0999 V3000
M  V30 BEGIN CTAB
M  V30 COUNTS 40 44 0 0 0
M  V30 BEGIN ATOM
M  V30 1 N 1.510764 -6.731780 1.562503 0
M  V30 2 C 1.389003 -5.490266 0.887115 0
M  V30 3 C 1.687519 -4.332520 1.580110 0
M  V30 4 C 1.550293 -3.153611 0.869787 0
M  V30 5 C 1.137005 -3.197792 -0.446850 0
M  V30 6 C 1.006549 -1.926660 -1.153414 0
M  V30 7 C 1.220729 -1.788401 -2.515362 0
M  V30 8 N 1.097792 -0.611402 -3.158767 0
M  V30 9 C 0.751417 0.534144 -2.509377 0
M  V30 10 N 0.573276 1.790758 -2.930744 0
M  V30 11 C 0.233623 2.525827 -1.852146 0
M  V30 12 C 0.190741 1.730992 -0.709697 0
M  V30 13 C -0.136583 2.152008 0.649357 0
M  V30 14 C 0.399183 3.310203 1.220064 0
M  V30 15 C 0.059547 3.672627 2.512260 0
M  V30 16 C -0.809866 2.901076 3.257011 0
M  V30 17 N -1.299888 3.022536 4.515648 0
M  V30 18 C -2.130470 2.002756 4.800046 0
M  V30 19 C -2.183992 1.178508 3.674606 0
M  V30 20 C -1.360979 1.742725 2.719755 0
M  V30 21 C -1.010284 1.387127 1.413847 0
M  V30 22 C 0.524081 0.462751 -1.149162 0
M  V30 23 C 0.656277 -0.746331 -0.521087 0
M  V30 24 C 0.845186 -4.369368 -1.115487 0
M  V30 25 N 0.988297 -5.500430 -0.397064 0
M  V30 26 H 0.716600 -6.917000 2.243286 0
M  V30 27 H 2.056648 -7.614224 1.714506 0
M  V30 28 H 2.008808 -4.336277 2.612034 0
M  V30 29 H 1.768331 -2.213365 1.356451 0
M  V30 30 H 1.501059 -2.671945 -3.089404 0
M  V30 31 H 0.672419 2.166326 -3.916891 0
M  V30 32 H 0.029465 3.591375 -1.910566 0
M  V30 33 H 1.084492 3.901817 0.608041 0
M  V30 34 H 0.482565 4.584142 2.957966 0
M  V30 35 H -1.097791 3.781086 5.215663 0
M  V30 36 H -2.690384 1.789978 5.706523 0
M  V30 37 H -2.749618 0.257466 3.527494 0
M  V30 38 H -1.471647 0.481943 1.059739 0
M  V30 39 H 0.479503 -0.816637 0.558971 0
M  V30 40 H 0.523808 -4.398604 -2.140940 0
M  V30 END ATOM
M  V30 BEGIN BOND
M  V30 1 1 1 2
M  V30 2 2 2 3
M  V30 3 1 3 4
M  V30 4 2 4 5
M  V30 5 1 5 6
M  V30 6 2 6 7
M  V30 7 1 7 8
M  V30 8 2 8 9
M  V30 9 1 9 10
M  V30 10 1 10 11
M  V30 11 2 11 12
M  V30 12 1 12 13
M  V30 13 2 13 14
M  V30 14 1 14 15
M  V30 15 2 15 16
M  V30 16 1 16 17
M  V30 17 1 17 18
M  V30 18 2 18 19
M  V30 19 1 19 20
M  V30 20 2 20 21
M  V30 21 1 12 22
M  V30 22 2 22 23
M  V30 23 1 5 24
M  V30 24 2 24 25
M  V30 25 1 25 2
M  V30 26 1 23 6
M  V30 27 1 22 9
M  V30 28 1 21 13
M  V30 29 1 20 16
M  V30 30 1 1 26
M  V30 31 1 1 27
M  V30 32 1 3 28
M  V30 33 1 4 29
M  V30 34 1 7 30
M  V30 35 1 10 31
M  V30 36 1 11 32
M  V30 37 1 14 33
M  V30 38 1 15 34
M  V30 39 1 17 35
M  V30 40 1 18 36
M  V30 41 1 19 37
M  V30 42 1 21 38
M  V30 43 1 23 39
M  V30 44 1 24 40
M  V30 END BOND
M  V30 END CTAB
M  END
>  <Dataset>  (654) 
ChEMBL_Kinases

>  <Ligand_Instance>  (654) 
nan

>  <PDB_ID>  (654) 
nan

>  <Standardized_SMILES>  (654) 
Nc1ccc(-c2cnc3[nH]cc(-c4ccc5[nH]ccc5c4)c3c2)cn1

>  <Name>  (654) 
nan

>  <Pocket>  (654) 
nan

>  <ATP_Site>  (654) 
nan

>  <Peripheral>  (654) 
nan

>  <Num_H_Atoms_ProtBoundConf>  (654) 
nan

>  <Num_Resolved_Atoms>  (654) 
nan

>  <Num_Not_Resolved_Atoms>  (654) 
nan

$$$$
CHEMBL2435045
     RDKit          3D

  0  0  0  0  0  0  0  0  0  0999 V3000
M  V30 BEGIN CTAB
M  V30 COUNTS 51 56 0 0 0
M  V30 BEGIN ATOM
M  V30 1 C 2.046487 -5.089805 2.972218 0
M  V30 2 C 2.267859 -3.622336 2.961445 0
M  V30 3 C 2.992397 -3.012549 3.984687 0
M  V30 4 C 3.177148 -1.636530 3.937568 0
M  V30 5 C 2.655414 -0.907127 2.905835 0
M  V30 6 C 1.936432 -1.524579 1.893550 0
M  V30 7 C 1.398740 -0.708022 0.813969 0
M  V30 8 N 1.515762 0.622294 0.668427 0
M  V30 9 C 0.891018 1.029176 -0.449165 0
M  V30 10 C 0.860616 2.468297 -0.861645 0
M  V30 11 N -0.321916 3.109906 -0.271299 0
M  V30 12 C -0.282359 3.734593 1.011649 0
M  V30 13 O 0.722978 3.814421 1.770392 0
M  V30 14 C -1.583179 4.293730 1.365406 0
M  V30 15 C -2.107173 4.982013 2.441474 0
M  V30 16 C -3.425928 5.388924 2.477666 0
M  V30 17 C -4.259675 5.099509 1.398396 0
M  V30 18 C -3.741733 4.402545 0.301233 0
M  V30 19 C -2.408686 3.998350 0.279015 0
M  V30 20 C -1.646124 3.266834 -0.742341 0
M  V30 21 O -2.019647 2.825328 -1.854572 0
M  V30 22 C 0.349178 -0.090079 -1.047021 0
M  V30 23 N 0.682745 -1.139110 -0.240448 0
M  V30 24 C 0.288667 -2.476506 -0.543251 0
M  V30 25 C -0.803958 -3.033309 0.126904 0
M  V30 26 C -1.216101 -4.333026 -0.142363 0
M  V30 27 C -0.539409 -5.094369 -1.087362 0
M  V30 28 C 0.540350 -4.547211 -1.751104 0
M  V30 29 C 0.958464 -3.249040 -1.487699 0
M  V30 30 O 1.016885 -5.534640 -2.632785 0
M  V30 31 C -0.039849 -6.473272 -2.864204 0
M  V30 32 O -0.685764 -6.402312 -1.588479 0
M  V30 33 N 1.784001 -2.849917 1.980385 0
M  V30 34 H 2.873922 -5.675714 2.575065 0
M  V30 35 H 1.904522 -5.386379 4.044816 0
M  V30 36 H 1.091818 -5.367786 2.475586 0
M  V30 37 H 3.393893 -3.616685 4.789448 0
M  V30 38 H 3.735024 -1.158187 4.723225 0
M  V30 39 H 2.809674 0.169368 2.884783 0
M  V30 40 H 1.761278 3.000626 -0.556494 0
M  V30 41 H 0.694956 2.485196 -1.958290 0
M  V30 42 H -1.404613 5.172810 3.243926 0
M  V30 43 H -3.729640 5.917257 3.362239 0
M  V30 44 H -5.287435 5.428341 1.450196 0
M  V30 45 H -4.402091 4.184257 -0.531545 0
M  V30 46 H -0.214511 -0.061267 -1.970037 0
M  V30 47 H -1.331836 -2.441192 0.863242 0
M  V30 48 H -2.073981 -4.777653 0.380237 0
M  V30 49 H 1.804925 -2.812740 -2.004503 0
M  V30 50 H 0.318318 -7.471178 -3.114587 0
M  V30 51 H -0.700159 -6.027959 -3.659132 0
M  V30 END ATOM
M  V30 BEGIN BOND
M  V30 1 1 1 2
M  V30 2 2 2 3
M  V30 3 1 3 4
M  V30 4 2 4 5
M  V30 5 1 5 6
M  V30 6 1 6 7
M  V30 7 2 7 8
M  V30 8 1 8 9
M  V30 9 1 9 10
M  V30 10 1 10 11
M  V30 11 1 11 12
M  V30 12 2 12 13
M  V30 13 1 12 14
M  V30 14 2 14 15
M  V30 15 1 15 16
M  V30 16 2 16 17
M  V30 17 1 17 18
M  V30 18 2 18 19
M  V30 19 1 19 20
M  V30 20 2 20 21
M  V30 21 2 9 22
M  V30 22 1 22 23
M  V30 23 1 23 24
M  V30 24 2 24 25
M  V30 25 1 25 26
M  V30 26 2 26 27
M  V30 27 1 27 28
M  V30 28 2 28 29
M  V30 29 1 28 30
M  V30 30 1 30 31
M  V30 31 1 31 32
M  V30 32 2 6 33
M  V30 33 1 33 2
M  V30 34 1 23 7
M  V30 35 1 29 24
M  V30 36 1 20 11
M  V30 37 1 32 27
M  V30 38 1 19 14
M  V30 39 1 1 34
M  V30 40 1 1 35
M  V30 41 1 1 36
M  V30 42 1 3 37
M  V30 43 1 4 38
M  V30 44 1 5 39
M  V30 45 1 10 40
M  V30 46 1 10 41
M  V30 47 1 15 42
M  V30 48 1 16 43
M  V30 49 1 17 44
M  V30 50 1 18 45
M  V30 51 1 22 46
M  V30 52 1 25 47
M  V30 53 1 26 48
M  V30 54 1 29 49
M  V30 55 1 31 50
M  V30 56 1 31 51
M  V30 END BOND
M  V30 END CTAB
M  END
>  <Dataset>  (655) 
ChEMBL_Kinases

>  <Ligand_Instance>  (655) 
nan

>  <PDB_ID>  (655) 
nan

>  <Standardized_SMILES>  (655) 
Cc1cccc(-c2nc(CN3C(=O)c4ccccc4C3=O)cn2-c2ccc3c(c2)OCO3)n1

>  <Name>  (655) 
nan

>  <Pocket>  (655) 
nan

>  <ATP_Site>  (655) 
nan

>  <Peripheral>  (655) 
nan

>  <Num_H_Atoms_ProtBoundConf>  (655) 
nan

>  <Num_Resolved_Atoms>  (655) 
nan

>  <Num_Not_Resolved_Atoms>  (655) 
nan

$$$$
CHEMBL243517
     RDKit          3D

  0  0  0  0  0  0  0  0  0  0999 V3000
M  V30 BEGIN CTAB
M  V30 COUNTS 40 42 0 0 0
M  V30 BEGIN ATOM
M  V30 1 C 0.273405 -6.205463 1.295520 0
M  V30 2 C 0.319266 -4.725448 1.210427 0
M  V30 3 C 0.350702 -3.984793 2.369105 0
M  V30 4 C 0.395477 -2.605960 2.273290 0
M  V30 5 C 0.406035 -2.050910 1.012488 0
M  V30 6 C 0.375877 -2.746883 -0.173993 0
M  V30 7 N 0.388502 -2.168731 -1.464121 0
M  V30 8 C 0.448670 -0.801329 -1.827931 0
M  V30 9 N 0.445967 -0.433513 -3.106699 0
M  V30 10 C 0.501842 0.844162 -3.485018 0
M  V30 11 C 0.565618 1.861434 -2.590917 0
M  V30 12 C 0.570610 1.518706 -1.262759 0
M  V30 13 N 0.653438 2.534685 -0.239306 0
M  V30 14 C 0.626158 2.528869 1.182001 0
M  V30 15 C 1.786564 2.985544 1.803910 0
M  V30 16 C 1.887329 3.029759 3.173560 0
M  V30 17 C 0.783525 2.599795 3.877877 0
M  V30 18 C -0.358229 2.150909 3.250063 0
M  V30 19 C -0.468574 2.103622 1.898018 0
M  V30 20 C -1.686135 1.657643 1.285763 0
M  V30 21 O -2.047902 1.557622 0.089368 0
M  V30 22 O -2.753258 1.224756 2.053722 0
M  V30 23 N 0.511643 0.213999 -0.983261 0
M  V30 24 C 0.331801 -4.113855 -0.021347 0
M  V30 25 H -0.086056 -6.509822 2.298610 0
M  V30 26 H -0.350451 -6.686979 0.536822 0
M  V30 27 H 1.331541 -6.568661 1.227385 0
M  V30 28 H 0.340644 -4.467787 3.327670 0
M  V30 29 H 0.420862 -2.009350 3.175488 0
M  V30 30 H 0.440995 -0.983651 1.006586 0
M  V30 31 H 0.346851 -2.858961 -2.272858 0
M  V30 32 H 0.498079 1.118234 -4.546689 0
M  V30 33 H 0.612113 2.906500 -2.862975 0
M  V30 34 H 0.756889 3.522878 -0.564536 0
M  V30 35 H 2.659546 3.325781 1.251058 0
M  V30 36 H 2.740362 3.365718 3.746847 0
M  V30 37 H 0.808668 2.612399 4.961580 0
M  V30 38 H -1.196908 1.824422 3.858744 0
M  V30 39 H -3.732853 1.342301 1.837477 0
M  V30 40 H 0.304863 -4.756087 -0.895139 0
M  V30 END ATOM
M  V30 BEGIN BOND
M  V30 1 1 1 2
M  V30 2 2 2 3
M  V30 3 1 3 4
M  V30 4 2 4 5
M  V30 5 1 5 6
M  V30 6 1 6 7
M  V30 7 1 7 8
M  V30 8 2 8 9
M  V30 9 1 9 10
M  V30 10 2 10 11
M  V30 11 1 11 12
M  V30 12 1 12 13
M  V30 13 1 13 14
M  V30 14 2 14 15
M  V30 15 1 15 16
M  V30 16 2 16 17
M  V30 17 1 17 18
M  V30 18 2 18 19
M  V30 19 1 19 20
M  V30 20 2 20 21
M  V30 21 1 20 22
M  V30 22 2 12 23
M  V30 23 2 6 24
M  V30 24 1 24 2
M  V30 25 1 23 8
M  V30 26 1 19 14
M  V30 27 1 1 25
M  V30 28 1 1 26
M  V30 29 1 1 27
M  V30 30 1 3 28
M  V30 31 1 4 29
M  V30 32 1 5 30
M  V30 33 1 7 31
M  V30 34 1 10 32
M  V30 35 1 11 33
M  V30 36 1 13 34
M  V30 37 1 15 35
M  V30 38 1 16 36
M  V30 39 1 17 37
M  V30 40 1 18 38
M  V30 41 1 22 39
M  V30 42 1 24 40
M  V30 END BOND
M  V30 END CTAB
M  END
>  <Dataset>  (656) 
ChEMBL_Kinases

>  <Ligand_Instance>  (656) 
nan

>  <PDB_ID>  (656) 
nan

>  <Standardized_SMILES>  (656) 
Cc1cccc(Nc2nccc(Nc3ccccc3C(=O)O)n2)c1

>  <Name>  (656) 
nan

>  <Pocket>  (656) 
nan

>  <ATP_Site>  (656) 
nan

>  <Peripheral>  (656) 
nan

>  <Num_H_Atoms_ProtBoundConf>  (656) 
nan

>  <Num_Resolved_Atoms>  (656) 
nan

>  <Num_Not_Resolved_Atoms>  (656) 
nan

$$$$
CHEMBL243518
     RDKit          3D

  0  0  0  0  0  0  0  0  0  0999 V3000
M  V30 BEGIN CTAB
M  V30 COUNTS 40 42 0 0 0
M  V30 BEGIN ATOM
M  V30 1 C -0.329482 -5.828837 1.556912 0
M  V30 2 C 0.384091 -4.645139 0.982613 0
M  V30 3 C 1.727807 -4.563826 1.196264 0
M  V30 4 C 2.322475 -3.433290 0.632640 0
M  V30 5 C 1.602470 -2.501039 -0.069037 0
M  V30 6 N 2.233901 -1.365976 -0.623982 0
M  V30 7 C 1.550188 -0.369340 -1.369003 0
M  V30 8 N 1.341128 -0.270047 -2.694418 0
M  V30 9 C 0.644984 0.795133 -3.174059 0
M  V30 10 C 0.148994 1.773367 -2.342151 0
M  V30 11 C 0.369291 1.658793 -0.997038 0
M  V30 12 N -0.117760 2.673238 -0.096172 0
M  V30 13 C -0.088385 2.733947 1.323114 0
M  V30 14 C 0.663211 3.771092 1.829684 0
M  V30 15 C 0.740815 3.897326 3.218726 0
M  V30 16 C 0.059591 2.974904 3.984473 0
M  V30 17 C -0.681291 1.952105 3.433571 0
M  V30 18 C -0.773240 1.807564 2.072006 0
M  V30 19 C -1.593526 0.739933 1.526847 0
M  V30 20 O -1.868608 0.436777 0.341971 0
M  V30 21 O -2.230900 -0.158762 2.348324 0
M  V30 22 N 1.072121 0.577516 -0.543411 0
M  V30 23 C 0.243156 -2.626768 -0.259377 0
M  V30 24 C -0.392146 -3.726060 0.277676 0
M  V30 25 F -1.714357 -3.848989 0.090280 0
M  V30 26 H -1.354090 -5.934139 1.147819 0
M  V30 27 H 0.211674 -6.778224 1.359670 0
M  V30 28 H -0.389025 -5.684761 2.662751 0
M  V30 29 H 2.290989 -5.289094 1.741989 0
M  V30 30 H 3.388787 -3.280245 0.749990 0
M  V30 31 H 3.273291 -1.180279 -0.517638 0
M  V30 32 H 0.494575 0.843659 -4.239639 0
M  V30 33 H -0.402347 2.613190 -2.749593 0
M  V30 34 H -0.566589 3.509253 -0.501533 0
M  V30 35 H 1.187902 4.484285 1.208588 0
M  V30 36 H 1.308805 4.683309 3.704832 0
M  V30 37 H 0.073981 3.007395 5.068756 0
M  V30 38 H -1.210730 1.234199 4.062388 0
M  V30 39 H -3.088101 -0.627674 2.169515 0
M  V30 40 H -0.330174 -1.902940 -0.808519 0
M  V30 END ATOM
M  V30 BEGIN BOND
M  V30 1 1 1 2
M  V30 2 2 2 3
M  V30 3 1 3 4
M  V30 4 2 4 5
M  V30 5 1 5 6
M  V30 6 1 6 7
M  V30 7 2 7 8
M  V30 8 1 8 9
M  V30 9 2 9 10
M  V30 10 1 10 11
M  V30 11 1 11 12
M  V30 12 1 12 13
M  V30 13 2 13 14
M  V30 14 1 14 15
M  V30 15 2 15 16
M  V30 16 1 16 17
M  V30 17 2 17 18
M  V30 18 1 18 19
M  V30 19 2 19 20
M  V30 20 1 19 21
M  V30 21 2 11 22
M  V30 22 1 5 23
M  V30 23 2 23 24
M  V30 24 1 24 25
M  V30 25 1 24 2
M  V30 26 1 22 7
M  V30 27 1 18 13
M  V30 28 1 1 26
M  V30 29 1 1 27
M  V30 30 1 1 28
M  V30 31 1 3 29
M  V30 32 1 4 30
M  V30 33 1 6 31
M  V30 34 1 9 32
M  V30 35 1 10 33
M  V30 36 1 12 34
M  V30 37 1 14 35
M  V30 38 1 15 36
M  V30 39 1 16 37
M  V30 40 1 17 38
M  V30 41 1 21 39
M  V30 42 1 23 40
M  V30 END BOND
M  V30 END CTAB
M  END
>  <Dataset>  (657) 
ChEMBL_Kinases

>  <Ligand_Instance>  (657) 
nan

>  <PDB_ID>  (657) 
nan

>  <Standardized_SMILES>  (657) 
Cc1ccc(Nc2nccc(Nc3ccccc3C(=O)O)n2)cc1F

>  <Name>  (657) 
nan

>  <Pocket>  (657) 
nan

>  <ATP_Site>  (657) 
nan

>  <Peripheral>  (657) 
nan

>  <Num_H_Atoms_ProtBoundConf>  (657) 
nan

>  <Num_Resolved_Atoms>  (657) 
nan

>  <Num_Not_Resolved_Atoms>  (657) 
nan

$$$$
CHEMBL243519
     RDKit          3D

  0  0  0  0  0  0  0  0  0  0999 V3000
M  V30 BEGIN CTAB
M  V30 COUNTS 41 43 0 0 0
M  V30 BEGIN ATOM
M  V30 1 C -0.177182 -3.708297 -1.518471 0
M  V30 2 C 1.217415 -3.237761 -1.291316 0
M  V30 3 C 2.338553 -4.064392 -1.314758 0
M  V30 4 O 2.107460 -5.404706 -1.569553 0
M  V30 5 C 3.597798 -3.519930 -1.088150 0
M  V30 6 C 3.664848 -2.172980 -0.850010 0
M  V30 7 C 2.574692 -1.302831 -0.816803 0
M  V30 8 C 1.338347 -1.890561 -1.048027 0
M  V30 9 N 0.260273 -0.953162 -1.003075 0
M  V30 10 C 0.361598 0.452207 -0.773764 0
M  V30 11 N 0.486240 1.517967 -1.569928 0
M  V30 12 C 0.570897 2.762576 -1.023658 0
M  V30 13 C 0.527539 2.917757 0.370017 0
M  V30 14 C 0.397768 1.802916 1.203020 0
M  V30 15 N 0.371470 2.239845 2.553997 0
M  V30 16 C -0.805980 1.667092 3.098939 0
M  V30 17 C -1.797526 2.543308 3.489186 0
M  V30 18 C -2.932615 1.960143 4.002692 0
M  V30 19 C -3.162261 0.617278 4.157858 0
M  V30 20 C -2.163041 -0.254854 3.767318 0
M  V30 21 C -1.026819 0.318174 3.255584 0
M  V30 22 C -0.008772 -0.669560 2.968927 0
M  V30 23 O 0.001269 -1.918922 3.012004 0
M  V30 24 O 1.193231 -1.238236 2.609012 0
M  V30 25 N 0.329953 0.691284 0.510105 0
M  V30 26 H -0.641273 -3.083234 -2.278554 0
M  V30 27 H -0.186493 -4.773423 -1.819203 0
M  V30 28 H -0.784476 -3.624165 -0.587209 0
M  V30 29 H 2.047166 -6.120720 -0.878024 0
M  V30 30 H 4.457572 -4.171289 -1.111899 0
M  V30 31 H 4.697009 -1.824548 -0.681908 0
M  V30 32 H 2.750008 -0.268350 -0.621964 0
M  V30 33 H -0.729954 -1.289630 -1.139612 0
M  V30 34 H 0.668539 3.551840 -1.770645 0
M  V30 35 H 0.609918 3.980095 0.578177 0
M  V30 36 H 1.137596 2.858579 2.932314 0
M  V30 37 H -1.659542 3.603452 3.385288 0
M  V30 38 H -3.714758 2.652330 4.312939 0
M  V30 39 H -4.111713 0.307172 4.575019 0
M  V30 40 H -2.343467 -1.313141 3.887022 0
M  V30 41 H 2.091547 -0.735372 2.642195 0
M  V30 END ATOM
M  V30 BEGIN BOND
M  V30 1 1 1 2
M  V30 2 2 2 3
M  V30 3 1 3 4
M  V30 4 1 3 5
M  V30 5 2 5 6
M  V30 6 1 6 7
M  V30 7 2 7 8
M  V30 8 1 8 9
M  V30 9 1 9 10
M  V30 10 2 10 11
M  V30 11 1 11 12
M  V30 12 2 12 13
M  V30 13 1 13 14
M  V30 14 1 14 15
M  V30 15 1 15 16
M  V30 16 2 16 17
M  V30 17 1 17 18
M  V30 18 2 18 19
M  V30 19 1 19 20
M  V30 20 2 20 21
M  V30 21 1 21 22
M  V30 22 2 22 23
M  V30 23 1 22 24
M  V30 24 2 14 25
M  V30 25 1 8 2
M  V30 26 1 25 10
M  V30 27 1 21 16
M  V30 28 1 1 26
M  V30 29 1 1 27
M  V30 30 1 1 28
M  V30 31 1 4 29
M  V30 32 1 5 30
M  V30 33 1 6 31
M  V30 34 1 7 32
M  V30 35 1 9 33
M  V30 36 1 12 34
M  V30 37 1 13 35
M  V30 38 1 15 36
M  V30 39 1 17 37
M  V30 40 1 18 38
M  V30 41 1 19 39
M  V30 42 1 20 40
M  V30 43 1 24 41
M  V30 END BOND
M  V30 END CTAB
M  END
>  <Dataset>  (658) 
ChEMBL_Kinases

>  <Ligand_Instance>  (658) 
nan

>  <PDB_ID>  (658) 
nan

>  <Standardized_SMILES>  (658) 
Cc1c(O)cccc1Nc1nccc(Nc2ccccc2C(=O)O)n1

>  <Name>  (658) 
nan

>  <Pocket>  (658) 
nan

>  <ATP_Site>  (658) 
nan

>  <Peripheral>  (658) 
nan

>  <Num_H_Atoms_ProtBoundConf>  (658) 
nan

>  <Num_Resolved_Atoms>  (658) 
nan

>  <Num_Not_Resolved_Atoms>  (658) 
nan

$$$$
CHEMBL2436172
     RDKit          3D

  0  0  0  0  0  0  0  0  0  0999 V3000
M  V30 BEGIN CTAB
M  V30 COUNTS 37 40 0 0 0
M  V30 BEGIN ATOM
M  V30 1 C -1.345530 -3.191795 1.240323 0
M  V30 2 C -0.053301 -2.716544 0.614234 0
M  V30 3 C 1.128585 -3.541638 0.998906 0
M  V30 4 N 0.152758 -1.300105 0.791013 0
M  V30 5 C 0.037748 -0.610238 1.963170 0
M  V30 6 C 0.302292 0.746456 1.791211 0
M  V30 7 C 0.592360 0.894835 0.454491 0
M  V30 8 C 0.491412 -0.362941 -0.114434 0
M  V30 9 C 0.807739 -0.139136 -1.517942 0
M  V30 10 C 0.877264 -0.987639 -2.594756 0
M  V30 11 C 1.202382 -0.547099 -3.856225 0
M  V30 12 C 1.476211 0.785159 -4.095765 0
M  V30 13 C 1.413247 1.661883 -3.027774 0
M  V30 14 C 1.083818 1.186549 -1.774360 0
M  V30 15 C 0.954273 1.899847 -0.509647 0
M  V30 16 O 1.128298 3.132095 -0.331366 0
M  V30 17 C 0.210469 1.577834 2.967225 0
M  V30 18 O 0.748856 2.717160 2.921069 0
M  V30 19 C -0.458181 1.230172 4.240072 0
M  V30 20 C -1.029179 -0.154232 4.260980 0
M  V30 21 C -0.304635 -1.065818 3.304002 0
M  V30 22 O 0.012853 -2.236635 3.658067 0
M  V30 23 H -1.898875 -2.332634 1.686821 0
M  V30 24 H -1.193929 -4.034429 1.967205 0
M  V30 25 H -2.066729 -3.616992 0.507081 0
M  V30 26 H -0.200588 -2.852528 -0.479616 0
M  V30 27 H 0.770652 -4.546277 1.308853 0
M  V30 28 H 1.783633 -3.722487 0.120638 0
M  V30 29 H 1.801628 -3.089755 1.753935 0
M  V30 30 H 0.688543 -2.045279 -2.547735 0
M  V30 31 H 1.270140 -1.174038 -4.734445 0
M  V30 32 H 1.740193 1.210801 -5.061849 0
M  V30 33 H 1.620596 2.726890 -3.161084 0
M  V30 34 H 0.225866 1.366532 5.105042 0
M  V30 35 H -1.290546 1.953640 4.378458 0
M  V30 36 H -0.989651 -0.613320 5.270152 0
M  V30 37 H -2.093025 -0.164716 3.947023 0
M  V30 END ATOM
M  V30 BEGIN BOND
M  V30 1 1 1 2
M  V30 2 1 2 3
M  V30 3 1 2 4
M  V30 4 1 4 5
M  V30 5 2 5 6
M  V30 6 1 6 7
M  V30 7 2 7 8
M  V30 8 1 8 9
M  V30 9 2 9 10
M  V30 10 1 10 11
M  V30 11 2 11 12
M  V30 12 1 12 13
M  V30 13 2 13 14
M  V30 14 1 14 15
M  V30 15 2 15 16
M  V30 16 1 6 17
M  V30 17 2 17 18
M  V30 18 1 17 19
M  V30 19 1 19 20
M  V30 20 1 20 21
M  V30 21 2 21 22
M  V30 22 1 8 4
M  V30 23 1 14 9
M  V30 24 1 21 5
M  V30 25 1 15 7
M  V30 26 1 1 23
M  V30 27 1 1 24
M  V30 28 1 1 25
M  V30 29 1 2 26
M  V30 30 1 3 27
M  V30 31 1 3 28
M  V30 32 1 3 29
M  V30 33 1 10 30
M  V30 34 1 11 31
M  V30 35 1 12 32
M  V30 36 1 13 33
M  V30 37 1 19 34
M  V30 38 1 19 35
M  V30 39 1 20 36
M  V30 40 1 20 37
M  V30 END BOND
M  V30 END CTAB
M  END
>  <Dataset>  (659) 
ChEMBL_Kinases

>  <Ligand_Instance>  (659) 
nan

>  <PDB_ID>  (659) 
nan

>  <Standardized_SMILES>  (659) 
CC(C)n1c2c(c3c1-c1ccccc1C3=O)C(=O)CCC2=O

>  <Name>  (659) 
nan

>  <Pocket>  (659) 
nan

>  <ATP_Site>  (659) 
nan

>  <Peripheral>  (659) 
nan

>  <Num_H_Atoms_ProtBoundConf>  (659) 
nan

>  <Num_Resolved_Atoms>  (659) 
nan

>  <Num_Not_Resolved_Atoms>  (659) 
nan

$$$$
CHEMBL2436727
     RDKit          3D

  0  0  0  0  0  0  0  0  0  0999 V3000
M  V30 BEGIN CTAB
M  V30 COUNTS 37 39 0 0 0
M  V30 BEGIN ATOM
M  V30 1 O 1.694751 -5.501564 4.026048 0
M  V30 2 N 0.938634 -5.078026 3.125890 0 CHG=1 VAL=4
M  V30 3 O -0.335569 -5.546798 3.027875 0 CHG=-1 VAL=1
M  V30 4 C 1.409647 -4.105179 2.202699 0
M  V30 5 C 2.697042 -3.616276 2.283391 0
M  V30 6 C 3.077258 -2.673509 1.349239 0
M  V30 7 C 2.266963 -2.168599 0.323366 0
M  V30 8 S 2.945481 -0.993101 -0.742460 0
M  V30 9 O 2.266026 -1.127475 -2.075185 0
M  V30 10 O 4.388662 -1.313285 -0.910995 0
M  V30 11 N 2.776355 0.628995 -0.232230 0
M  V30 12 C 1.625286 1.411717 0.006109 0
M  V30 13 C 1.518497 2.718666 -0.484393 0
M  V30 14 C 0.433234 3.544217 -0.300491 0
M  V30 15 C -0.629875 3.044262 0.422695 0
M  V30 16 O -1.728541 3.867781 0.613901 0
M  V30 17 C -0.600680 1.765742 0.939105 0
M  V30 18 S -1.987045 1.137605 1.872318 0
M  V30 19 C -3.099600 0.353014 0.714613 0
M  V30 20 N -4.128625 0.888073 0.031718 0
M  V30 21 C -4.716995 -0.044644 -0.739809 0
M  V30 22 N -4.042947 -1.208262 -0.542648 0
M  V30 23 N -3.073537 -0.955290 0.333582 0
M  V30 24 C 0.522175 0.998054 0.712979 0
M  V30 25 C 0.989648 -2.702003 0.301293 0
M  V30 26 C 0.565553 -3.645373 1.213423 0
M  V30 27 H 3.385538 -3.946833 3.036917 0
M  V30 28 H 4.096765 -2.306102 1.436853 0
M  V30 29 H 3.640042 1.220997 -0.037940 0
M  V30 30 H 2.372243 3.096598 -1.055362 0
M  V30 31 H 0.475120 4.536413 -0.732527 0
M  V30 32 H -2.615512 3.493629 0.252382 0
M  V30 33 H -5.580964 0.171930 -1.384744 0
M  V30 34 H -2.353681 -1.618746 0.722341 0
M  V30 35 H 0.506454 0.021798 1.127399 0
M  V30 36 H 0.357216 -2.304797 -0.503146 0
M  V30 37 H -0.457372 -4.000052 1.108765 0
M  V30 END ATOM
M  V30 BEGIN BOND
M  V30 1 2 1 2
M  V30 2 1 2 3
M  V30 3 1 2 4
M  V30 4 2 4 5
M  V30 5 1 5 6
M  V30 6 2 6 7
M  V30 7 1 7 8
M  V30 8 2 8 9
M  V30 9 2 8 10
M  V30 10 1 8 11
M  V30 11 1 11 12
M  V30 12 2 12 13
M  V30 13 1 13 14
M  V30 14 2 14 15
M  V30 15 1 15 16
M  V30 16 1 15 17
M  V30 17 1 17 18
M  V30 18 1 18 19
M  V30 19 2 19 20
M  V30 20 1 20 21
M  V30 21 2 21 22
M  V30 22 1 22 23
M  V30 23 2 17 24
M  V30 24 1 7 25
M  V30 25 2 25 26
M  V30 26 1 26 4
M  V30 27 1 24 12
M  V30 28 1 23 19
M  V30 29 1 5 27
M  V30 30 1 6 28
M  V30 31 1 11 29
M  V30 32 1 13 30
M  V30 33 1 14 31
M  V30 34 1 16 32
M  V30 35 1 21 33
M  V30 36 1 23 34
M  V30 37 1 24 35
M  V30 38 1 25 36
M  V30 39 1 26 37
M  V30 END BOND
M  V30 END CTAB
M  END
>  <Dataset>  (660) 
ChEMBL_Kinases

>  <Ligand_Instance>  (660) 
nan

>  <PDB_ID>  (660) 
nan

>  <Standardized_SMILES>  (660) 
O=[N+]([O-])c1ccc(S(=O)(=O)Nc2ccc(O)c(Sc3ncn[nH]3)c2)cc1

>  <Name>  (660) 
nan

>  <Pocket>  (660) 
nan

>  <ATP_Site>  (660) 
nan

>  <Peripheral>  (660) 
nan

>  <Num_H_Atoms_ProtBoundConf>  (660) 
nan

>  <Num_Resolved_Atoms>  (660) 
nan

>  <Num_Not_Resolved_Atoms>  (660) 
nan

$$$$
CHEMBL2436979
     RDKit          3D

  0  0  0  0  0  0  0  0  0  0999 V3000
M  V30 BEGIN CTAB
M  V30 COUNTS 50 54 0 0 0
M  V30 BEGIN ATOM
M  V30 1 C -2.279956 -1.176095 2.502726 0
M  V30 2 O -2.969793 -1.679168 1.375946 0
M  V30 3 C -2.298313 -1.723918 0.166122 0
M  V30 4 C -0.981435 -1.291198 0.040541 0
M  V30 5 C -0.350538 -1.354437 -1.182839 0
M  V30 6 C 1.027749 -0.900457 -1.298718 0
M  V30 7 C 1.778232 -0.908978 -2.453266 0
M  V30 8 N 3.048636 -0.458767 -2.413111 0
M  V30 9 C 3.614752 0.000988 -1.283969 0
M  V30 10 N 4.822906 0.506881 -0.911107 0
M  V30 11 C 4.794507 0.802394 0.400518 0
M  V30 12 O 5.712205 1.285806 1.110558 0
M  V30 13 N 3.597473 0.513181 0.941109 0
M  V30 14 C 3.061371 0.632541 2.253662 0
M  V30 15 C 3.910475 0.278110 3.280594 0
M  V30 16 C 3.420761 0.381461 4.576452 0
M  V30 17 C 2.117320 0.831357 4.757725 0
M  V30 18 N 1.440239 1.007065 5.928479 0
M  V30 19 C 0.191125 1.463028 5.634581 0
M  V30 20 C 0.050033 1.585906 4.273271 0
M  V30 21 C 1.265413 1.186597 3.731919 0
M  V30 22 C 1.765619 1.078996 2.449132 0
M  V30 23 C 2.883754 0.019700 -0.115473 0
M  V30 24 N 1.620493 -0.435161 -0.185633 0
M  V30 25 C -0.990000 -1.838721 -2.301144 0
M  V30 26 C -2.292803 -2.281603 -2.240872 0
M  V30 27 O -3.137911 -2.799227 -3.191801 0
M  V30 28 C -2.760253 -2.970439 -4.523592 0
M  V30 29 C -2.926901 -2.212992 -0.990122 0
M  V30 30 O -4.258501 -2.628232 -0.768294 0
M  V30 31 C -5.267787 -1.621679 -0.944949 0
M  V30 32 H -1.270855 -1.647047 2.603014 0
M  V30 33 H -2.811917 -1.428861 3.452342 0
M  V30 34 H -2.159587 -0.088561 2.447564 0
M  V30 35 H -0.452386 -0.904503 0.899989 0
M  V30 36 H 1.339858 -1.270696 -3.353872 0
M  V30 37 H 5.614091 0.627247 -1.571391 0
M  V30 38 H 4.912043 -0.068681 3.164709 0
M  V30 39 H 4.022404 0.123193 5.441508 0
M  V30 40 H 1.721933 0.854869 6.917555 0
M  V30 41 H -0.646793 1.723385 6.280054 0
M  V30 42 H -0.787343 1.913522 3.664894 0
M  V30 43 H 1.136390 1.345779 1.611113 0
M  V30 44 H -0.566226 -1.919953 -3.286833 0
M  V30 45 H -2.731398 -4.044803 -4.803937 0
M  V30 46 H -3.519578 -2.529671 -5.235388 0
M  V30 47 H -1.830868 -2.438590 -4.743360 0
M  V30 48 H -5.033465 -0.744681 -0.333005 0
M  V30 49 H -6.226143 -2.045152 -0.581206 0
M  V30 50 H -5.417507 -1.391174 -2.022932 0
M  V30 END ATOM
M  V30 BEGIN BOND
M  V30 1 1 1 2
M  V30 2 1 2 3
M  V30 3 2 3 4
M  V30 4 1 4 5
M  V30 5 1 5 6
M  V30 6 2 6 7
M  V30 7 1 7 8
M  V30 8 2 8 9
M  V30 9 1 9 10
M  V30 10 1 10 11
M  V30 11 2 11 12
M  V30 12 1 11 13
M  V30 13 1 13 14
M  V30 14 2 14 15
M  V30 15 1 15 16
M  V30 16 2 16 17
M  V30 17 1 17 18
M  V30 18 1 18 19
M  V30 19 2 19 20
M  V30 20 1 20 21
M  V30 21 2 21 22
M  V30 22 1 13 23
M  V30 23 2 23 24
M  V30 24 2 5 25
M  V30 25 1 25 26
M  V30 26 1 26 27
M  V30 27 1 27 28
M  V30 28 2 26 29
M  V30 29 1 29 30
M  V30 30 1 30 31
M  V30 31 1 29 3
M  V30 32 1 24 6
M  V30 33 1 23 9
M  V30 34 1 22 14
M  V30 35 1 21 17
M  V30 36 1 1 32
M  V30 37 1 1 33
M  V30 38 1 1 34
M  V30 39 1 4 35
M  V30 40 1 7 36
M  V30 41 1 10 37
M  V30 42 1 15 38
M  V30 43 1 16 39
M  V30 44 1 18 40
M  V30 45 1 19 41
M  V30 46 1 20 42
M  V30 47 1 22 43
M  V30 48 1 25 44
M  V30 49 1 28 45
M  V30 50 1 28 46
M  V30 51 1 28 47
M  V30 52 1 31 48
M  V30 53 1 31 49
M  V30 54 1 31 50
M  V30 END BOND
M  V30 END CTAB
M  END
>  <Dataset>  (661) 
ChEMBL_Kinases

>  <Ligand_Instance>  (661) 
nan

>  <PDB_ID>  (661) 
nan

>  <Standardized_SMILES>  (661) 
COc1cc(-c2cnc3[nH]c(=O)n(-c4ccc5[nH]ccc5c4)c3n2)cc(OC)c1OC

>  <Name>  (661) 
nan

>  <Pocket>  (661) 
nan

>  <ATP_Site>  (661) 
nan

>  <Peripheral>  (661) 
nan

>  <Num_H_Atoms_ProtBoundConf>  (661) 
nan

>  <Num_Resolved_Atoms>  (661) 
nan

>  <Num_Not_Resolved_Atoms>  (661) 
nan

$$$$
CHEMBL2436980
     RDKit          3D

  0  0  0  0  0  0  0  0  0  0999 V3000
M  V30 BEGIN CTAB
M  V30 COUNTS 51 55 0 0 0
M  V30 BEGIN ATOM
M  V30 1 C -2.439634 -1.628777 4.051657 0
M  V30 2 O -2.394961 -2.818955 3.300700 0
M  V30 3 C -1.476805 -3.093684 2.298862 0
M  V30 4 C -0.464751 -2.260765 1.869007 0
M  V30 5 C 0.379121 -2.666821 0.857575 0
M  V30 6 C 1.454461 -1.801494 0.381197 0
M  V30 7 C 2.625544 -2.363802 -0.096790 0
M  V30 8 N 3.677583 -1.666135 -0.563277 0
M  V30 9 C 3.661132 -0.315369 -0.598128 0
M  V30 10 N 4.480195 0.702740 -0.976325 0
M  V30 11 C 3.867011 1.873559 -0.753932 0
M  V30 12 C 2.611889 1.641907 -0.216001 0
M  V30 13 C 1.744127 2.779995 0.108556 0
M  V30 14 C 2.197809 3.891233 0.787002 0
M  V30 15 C 1.257506 4.895980 1.020794 0
M  V30 16 C -0.062474 4.803585 0.604015 0
M  V30 17 N -1.134401 5.610613 0.701789 0
M  V30 18 C -2.201194 5.028598 0.112791 0
M  V30 19 C -1.812280 3.799056 -0.386972 0
M  V30 20 C -0.454585 3.659134 -0.073610 0
M  V30 21 C 0.451295 2.626892 -0.330674 0
M  V30 22 C 2.517438 0.266661 -0.132567 0
M  V30 23 C 1.422122 -0.418827 0.352181 0
M  V30 24 C 0.200341 -3.909158 0.283750 0
M  V30 25 C -0.811919 -4.787410 0.686975 0
M  V30 26 O -0.936243 -6.022362 0.067164 0
M  V30 27 C -0.023240 -6.339571 -0.955343 0
M  V30 28 C -1.632641 -4.341971 1.700571 0
M  V30 29 O -2.635007 -5.229822 2.088394 0
M  V30 30 C -3.902942 -5.198244 1.464595 0
M  V30 31 H -1.505003 -1.042584 4.023533 0
M  V30 32 H -3.287363 -0.967184 3.707297 0
M  V30 33 H -2.641307 -1.960379 5.110704 0
M  V30 34 H -0.374124 -1.308636 2.351887 0
M  V30 35 H 2.746768 -3.440138 -0.114424 0
M  V30 36 H 5.409377 0.480059 -1.362127 0
M  V30 37 H 4.369474 2.804322 -0.995875 0
M  V30 38 H 3.219666 3.931353 1.094094 0
M  V30 39 H 1.580264 5.778443 1.548946 0
M  V30 40 H -1.170971 6.556467 1.159827 0
M  V30 41 H -3.217603 5.400010 0.010572 0
M  V30 42 H -2.455080 3.102785 -0.913012 0
M  V30 43 H 0.044165 1.784321 -0.864087 0
M  V30 44 H 0.523780 0.057030 0.718848 0
M  V30 45 H 0.889763 -4.184533 -0.508814 0
M  V30 46 H -0.138334 -7.401906 -1.292730 0
M  V30 47 H 1.020012 -6.217316 -0.640026 0
M  V30 48 H -0.266667 -5.663348 -1.812214 0
M  V30 49 H -3.723238 -5.079136 0.373501 0
M  V30 50 H -4.506594 -4.325236 1.793569 0
M  V30 51 H -4.433778 -6.147887 1.681235 0
M  V30 END ATOM
M  V30 BEGIN BOND
M  V30 1 1 1 2
M  V30 2 1 2 3
M  V30 3 2 3 4
M  V30 4 1 4 5
M  V30 5 1 5 6
M  V30 6 2 6 7
M  V30 7 1 7 8
M  V30 8 2 8 9
M  V30 9 1 9 10
M  V30 10 1 10 11
M  V30 11 2 11 12
M  V30 12 1 12 13
M  V30 13 2 13 14
M  V30 14 1 14 15
M  V30 15 2 15 16
M  V30 16 1 16 17
M  V30 17 1 17 18
M  V30 18 2 18 19
M  V30 19 1 19 20
M  V30 20 2 20 21
M  V30 21 1 12 22
M  V30 22 2 22 23
M  V30 23 2 5 24
M  V30 24 1 24 25
M  V30 25 1 25 26
M  V30 26 1 26 27
M  V30 27 2 25 28
M  V30 28 1 28 29
M  V30 29 1 29 30
M  V30 30 1 28 3
M  V30 31 1 23 6
M  V30 32 1 22 9
M  V30 33 1 21 13
M  V30 34 1 20 16
M  V30 35 1 1 31
M  V30 36 1 1 32
M  V30 37 1 1 33
M  V30 38 1 4 34
M  V30 39 1 7 35
M  V30 40 1 10 36
M  V30 41 1 11 37
M  V30 42 1 14 38
M  V30 43 1 15 39
M  V30 44 1 17 40
M  V30 45 1 18 41
M  V30 46 1 19 42
M  V30 47 1 21 43
M  V30 48 1 23 44
M  V30 49 1 24 45
M  V30 50 1 27 46
M  V30 51 1 27 47
M  V30 52 1 27 48
M  V30 53 1 30 49
M  V30 54 1 30 50
M  V30 55 1 30 51
M  V30 END BOND
M  V30 END CTAB
M  END
>  <Dataset>  (662) 
ChEMBL_Kinases

>  <Ligand_Instance>  (662) 
nan

>  <PDB_ID>  (662) 
nan

>  <Standardized_SMILES>  (662) 
COc1cc(-c2cnc3[nH]cc(-c4ccc5[nH]ccc5c4)c3c2)cc(OC)c1OC

>  <Name>  (662) 
nan

>  <Pocket>  (662) 
nan

>  <ATP_Site>  (662) 
nan

>  <Peripheral>  (662) 
nan

>  <Num_H_Atoms_ProtBoundConf>  (662) 
nan

>  <Num_Resolved_Atoms>  (662) 
nan

>  <Num_Not_Resolved_Atoms>  (662) 
nan

$$$$
CHEMBL2435044
     RDKit          3D

  0  0  0  0  0  0  0  0  0  0999 V3000
M  V30 BEGIN CTAB
M  V30 COUNTS 38 41 0 0 0
M  V30 BEGIN ATOM
M  V30 1 C 1.143607 -2.487402 3.518715 0
M  V30 2 C 1.794077 -2.364665 2.180995 0
M  V30 3 C 2.936657 -3.114079 1.881570 0
M  V30 4 C 3.461842 -2.928806 0.618441 0
M  V30 5 C 2.890367 -2.057112 -0.287453 0
M  V30 6 C 1.762608 -1.338040 0.051897 0
M  V30 7 C 1.146067 -0.411957 -0.894936 0
M  V30 8 N 1.492671 -0.089616 -2.153659 0
M  V30 9 C 0.645536 0.816085 -2.675414 0
M  V30 10 C 0.687819 1.422556 -4.033965 0
M  V30 11 O 1.453255 2.584645 -4.022340 0
M  V30 12 C -0.279584 1.070540 -1.684367 0
M  V30 13 N 0.045961 0.316434 -0.621131 0
M  V30 14 C -0.708439 0.335873 0.586600 0
M  V30 15 C -0.133303 1.037412 1.614125 0
M  V30 16 C -0.756500 1.145110 2.861065 0
M  V30 17 C -1.982325 0.494041 2.966928 0
M  V30 18 C -2.595407 -0.224007 1.952588 0
M  V30 19 C -1.927238 -0.289781 0.750825 0
M  V30 20 O -3.797074 -0.725347 2.428674 0
M  V30 21 C -3.849767 -0.478299 3.830558 0
M  V30 22 O -2.818275 0.431188 4.075717 0
M  V30 23 N 1.262822 -1.530656 1.288580 0
M  V30 24 H 1.237296 -1.465703 3.972091 0
M  V30 25 H 1.584575 -3.270221 4.133156 0
M  V30 26 H 0.054418 -2.630264 3.324905 0
M  V30 27 H 3.331781 -3.778350 2.638735 0
M  V30 28 H 4.353305 -3.529647 0.419108 0
M  V30 29 H 3.354029 -1.964078 -1.252756 0
M  V30 30 H 1.185972 0.655669 -4.686832 0
M  V30 31 H -0.338876 1.568144 -4.397421 0
M  V30 32 H 2.403959 2.289389 -4.119418 0
M  V30 33 H -1.100896 1.762583 -1.794926 0
M  V30 34 H 0.833295 1.545834 1.517158 0
M  V30 35 H -0.349715 1.684098 3.704212 0
M  V30 36 H -2.345807 -0.832479 -0.084391 0
M  V30 37 H -3.747789 -1.403740 4.426149 0
M  V30 38 H -4.856203 -0.066483 4.048393 0
M  V30 END ATOM
M  V30 BEGIN BOND
M  V30 1 1 1 2
M  V30 2 2 2 3
M  V30 3 1 3 4
M  V30 4 2 4 5
M  V30 5 1 5 6
M  V30 6 1 6 7
M  V30 7 2 7 8
M  V30 8 1 8 9
M  V30 9 1 9 10
M  V30 10 1 10 11
M  V30 11 2 9 12
M  V30 12 1 12 13
M  V30 13 1 13 14
M  V30 14 2 14 15
M  V30 15 1 15 16
M  V30 16 2 16 17
M  V30 17 1 17 18
M  V30 18 2 18 19
M  V30 19 1 18 20
M  V30 20 1 20 21
M  V30 21 1 21 22
M  V30 22 2 6 23
M  V30 23 1 23 2
M  V30 24 1 13 7
M  V30 25 1 19 14
M  V30 26 1 22 17
M  V30 27 1 1 24
M  V30 28 1 1 25
M  V30 29 1 1 26
M  V30 30 1 3 27
M  V30 31 1 4 28
M  V30 32 1 5 29
M  V30 33 1 10 30
M  V30 34 1 10 31
M  V30 35 1 11 32
M  V30 36 1 12 33
M  V30 37 1 15 34
M  V30 38 1 16 35
M  V30 39 1 19 36
M  V30 40 1 21 37
M  V30 41 1 21 38
M  V30 END BOND
M  V30 END CTAB
M  END
>  <Dataset>  (663) 
ChEMBL_Kinases

>  <Ligand_Instance>  (663) 
nan

>  <PDB_ID>  (663) 
nan

>  <Standardized_SMILES>  (663) 
Cc1cccc(-c2nc(CO)cn2-c2ccc3c(c2)OCO3)n1

>  <Name>  (663) 
nan

>  <Pocket>  (663) 
nan

>  <ATP_Site>  (663) 
nan

>  <Peripheral>  (663) 
nan

>  <Num_H_Atoms_ProtBoundConf>  (663) 
nan

>  <Num_Resolved_Atoms>  (663) 
nan

>  <Num_Not_Resolved_Atoms>  (663) 
nan

$$$$
CHEMBL242427
     RDKit          3D

  0  0  0  0  0  0  0  0  0  0999 V3000
M  V30 BEGIN CTAB
M  V30 COUNTS 45 48 0 0 0
M  V30 BEGIN ATOM
M  V30 1 N 0.135701 -5.422215 3.982815 0
M  V30 2 C 0.676970 -4.567292 3.399503 0
M  V30 3 C 1.357453 -3.534904 2.677178 0
M  V30 4 C 2.731585 -3.500767 2.627452 0
M  V30 5 N 3.410324 -2.551795 1.962480 0
M  V30 6 C 2.741041 -1.585059 1.311078 0
M  V30 7 C 3.430405 -0.607135 0.625798 0
M  V30 8 Cl 5.181619 -0.578193 0.572224 0
M  V30 9 C 2.674235 0.350162 -0.017509 0
M  V30 10 C 1.301221 0.413909 -0.034458 0
M  V30 11 N 0.534786 1.405033 -0.687361 0
M  V30 12 C 0.928796 2.571158 -1.437217 0
M  V30 13 C 1.573643 3.649051 -0.611653 0
M  V30 14 C 0.641931 4.143353 0.462442 0
M  V30 15 C 0.569503 3.598344 1.745288 0
M  V30 16 N -0.344916 4.234195 2.489613 0
M  V30 17 C -0.859679 5.192700 1.674073 0
M  V30 18 N -0.273727 5.146344 0.454832 0
M  V30 19 C 0.669051 -0.585277 0.664017 0
M  V30 20 C 1.375197 -1.564777 1.323265 0
M  V30 21 C 0.677812 -2.547692 2.011908 0
M  V30 22 N -0.751201 -2.527330 2.025231 0
M  V30 23 C -1.582565 -3.182693 1.062015 0
M  V30 24 C -2.968235 -3.106134 1.157771 0
M  V30 25 C -3.747508 -3.747676 0.215265 0
M  V30 26 C -3.100498 -4.447624 -0.796119 0
M  V30 27 F -3.934534 -5.050714 -1.683282 0
M  V30 28 C -1.721484 -4.530848 -0.901653 0
M  V30 29 Cl -1.020822 -5.455111 -2.238910 0
M  V30 30 C -0.954484 -3.891501 0.037520 0
M  V30 31 H 3.314355 -4.263313 3.140222 0
M  V30 32 H 3.246431 1.093333 -0.550651 0
M  V30 33 H -0.521761 1.307251 -0.637465 0
M  V30 34 H 0.148848 2.947663 -2.102713 0
M  V30 35 H 1.736922 2.194688 -2.140155 0
M  V30 36 H 1.904395 4.509291 -1.226507 0
M  V30 37 H 2.456147 3.252466 -0.128070 0
M  V30 38 H 1.171604 2.758180 2.121637 0
M  V30 39 H -0.601252 4.030144 3.484152 0
M  V30 40 H -1.634676 5.889131 1.981072 0
M  V30 41 H -0.410526 -0.618760 0.707748 0
M  V30 42 H -1.177538 -1.988831 2.804014 0
M  V30 43 H -3.453804 -2.555920 1.953058 0
M  V30 44 H -4.827912 -3.693680 0.281643 0
M  V30 45 H 0.125980 -3.954158 -0.041452 0
M  V30 END ATOM
M  V30 BEGIN BOND
M  V30 1 3 1 2
M  V30 2 1 2 3
M  V30 3 2 3 4
M  V30 4 1 4 5
M  V30 5 2 5 6
M  V30 6 1 6 7
M  V30 7 1 7 8
M  V30 8 2 7 9
M  V30 9 1 9 10
M  V30 10 1 10 11
M  V30 11 1 11 12
M  V30 12 1 12 13
M  V30 13 1 13 14
M  V30 14 2 14 15
M  V30 15 1 15 16
M  V30 16 1 16 17
M  V30 17 2 17 18
M  V30 18 2 10 19
M  V30 19 1 19 20
M  V30 20 2 20 21
M  V30 21 1 21 22
M  V30 22 1 22 23
M  V30 23 2 23 24
M  V30 24 1 24 25
M  V30 25 2 25 26
M  V30 26 1 26 27
M  V30 27 1 26 28
M  V30 28 1 28 29
M  V30 29 2 28 30
M  V30 30 1 21 3
M  V30 31 1 30 23
M  V30 32 1 20 6
M  V30 33 1 18 14
M  V30 34 1 4 31
M  V30 35 1 9 32
M  V30 36 1 11 33
M  V30 37 1 12 34
M  V30 38 1 12 35
M  V30 39 1 13 36
M  V30 40 1 13 37
M  V30 41 1 15 38
M  V30 42 1 16 39
M  V30 43 1 17 40
M  V30 44 1 19 41
M  V30 45 1 22 42
M  V30 46 1 24 43
M  V30 47 1 25 44
M  V30 48 1 30 45
M  V30 END BOND
M  V30 END CTAB
M  END
>  <Dataset>  (664) 
ChEMBL_Kinases

>  <Ligand_Instance>  (664) 
nan

>  <PDB_ID>  (664) 
nan

>  <Standardized_SMILES>  (664) 
N#Cc1cnc2c(Cl)cc(NCCc3c[nH]cn3)cc2c1Nc1ccc(F)c(Cl)c1

>  <Name>  (664) 
nan

>  <Pocket>  (664) 
nan

>  <ATP_Site>  (664) 
nan

>  <Peripheral>  (664) 
nan

>  <Num_H_Atoms_ProtBoundConf>  (664) 
nan

>  <Num_Resolved_Atoms>  (664) 
nan

>  <Num_Not_Resolved_Atoms>  (664) 
nan

$$$$
CHEMBL242426
     RDKit          3D

  0  0  0  0  0  0  0  0  0  0999 V3000
M  V30 BEGIN CTAB
M  V30 COUNTS 54 57 0 0 0
M  V30 BEGIN ATOM
M  V30 1 N 2.109222 -6.191198 -1.791692 0
M  V30 2 C 1.983701 -5.138889 -1.294274 0
M  V30 3 C 1.812683 -3.863506 -0.681404 0
M  V30 4 C 2.704807 -3.391472 0.257307 0
M  V30 5 N 2.678051 -2.221560 0.916415 0
M  V30 6 C 1.655995 -1.380368 0.643112 0
M  V30 7 C 1.493141 -0.121923 1.251984 0
M  V30 8 O 2.491348 0.123377 2.139768 0
M  V30 9 C 2.729676 1.231796 2.943310 0
M  V30 10 C 2.991083 2.522789 2.252970 0
M  V30 11 O 3.212962 3.567812 3.158667 0
M  V30 12 C 4.276425 2.366960 1.461351 0
M  V30 13 O 4.147771 1.339635 0.526391 0
M  V30 14 C 0.397230 0.605439 0.858359 0
M  V30 15 C -0.542225 0.219613 -0.065378 0
M  V30 16 N -1.643241 1.029210 -0.403704 0
M  V30 17 C -2.024459 2.321743 0.116847 0
M  V30 18 C -2.418799 2.268032 1.556034 0
M  V30 19 C -3.758921 1.998638 1.864670 0
M  V30 20 N -3.984096 1.982838 3.189344 0
M  V30 21 C -2.798180 2.239918 3.723358 0
M  V30 22 N -1.883113 2.406762 2.773760 0
M  V30 23 C -0.369253 -1.013971 -0.653003 0
M  V30 24 C 0.712230 -1.800869 -0.304160 0
M  V30 25 C 0.766055 -3.010829 -0.966343 0
M  V30 26 N -0.197793 -3.411999 -1.917313 0
M  V30 27 C -1.378010 -4.121215 -1.677901 0
M  V30 28 C -1.683685 -4.495013 -0.387471 0
M  V30 29 C -2.854248 -5.193969 -0.178706 0
M  V30 30 C -3.693602 -5.508885 -1.232598 0
M  V30 31 F -4.850499 -6.200307 -1.022183 0
M  V30 32 C -3.348748 -5.115529 -2.505245 0
M  V30 33 Cl -4.379319 -5.489460 -3.881500 0
M  V30 34 C -2.176641 -4.407354 -2.767893 0
M  V30 35 H 3.564942 -4.017171 0.535038 0
M  V30 36 H 1.872730 1.352268 3.649259 0
M  V30 37 H 3.647471 1.009071 3.563951 0
M  V30 38 H 2.214307 2.788527 1.537110 0
M  V30 39 H 3.871217 4.225325 2.828442 0
M  V30 40 H 4.477312 3.328030 0.943223 0
M  V30 41 H 5.134140 2.207186 2.145658 0
M  V30 42 H 3.967604 1.758319 -0.355107 0
M  V30 43 H 0.292853 1.540869 1.332120 0
M  V30 44 H -2.296449 0.668307 -1.133626 0
M  V30 45 H -2.831759 2.800969 -0.458014 0
M  V30 46 H -1.122192 3.008593 0.027972 0
M  V30 47 H -4.601155 1.809127 1.186187 0
M  V30 48 H -4.873587 1.811144 3.701515 0
M  V30 49 H -2.517888 2.322063 4.773381 0
M  V30 50 H -1.104385 -1.325789 -1.381913 0
M  V30 51 H 0.120071 -3.085158 -2.856576 0
M  V30 52 H -1.024973 -4.245886 0.426767 0
M  V30 53 H -3.153891 -5.519221 0.820254 0
M  V30 54 H -1.922960 -4.106273 -3.779820 0
M  V30 END ATOM
M  V30 BEGIN BOND
M  V30 1 3 1 2
M  V30 2 1 2 3
M  V30 3 2 3 4
M  V30 4 1 4 5
M  V30 5 2 5 6
M  V30 6 1 6 7
M  V30 7 1 7 8
M  V30 8 1 8 9
M  V30 9 1 9 10
M  V30 10 1 10 11
M  V30 11 1 10 12
M  V30 12 1 12 13
M  V30 13 2 7 14
M  V30 14 1 14 15
M  V30 15 1 15 16
M  V30 16 1 16 17
M  V30 17 1 17 18
M  V30 18 2 18 19
M  V30 19 1 19 20
M  V30 20 1 20 21
M  V30 21 2 21 22
M  V30 22 2 15 23
M  V30 23 1 23 24
M  V30 24 2 24 25
M  V30 25 1 25 26
M  V30 26 1 26 27
M  V30 27 2 27 28
M  V30 28 1 28 29
M  V30 29 2 29 30
M  V30 30 1 30 31
M  V30 31 1 30 32
M  V30 32 1 32 33
M  V30 33 2 32 34
M  V30 34 1 25 3
M  V30 35 1 34 27
M  V30 36 1 24 6
M  V30 37 1 22 18
M  V30 38 1 4 35
M  V30 39 1 9 36
M  V30 40 1 9 37
M  V30 41 1 10 38
M  V30 42 1 11 39
M  V30 43 1 12 40
M  V30 44 1 12 41
M  V30 45 1 13 42
M  V30 46 1 14 43
M  V30 47 1 16 44
M  V30 48 1 17 45
M  V30 49 1 17 46
M  V30 50 1 19 47
M  V30 51 1 20 48
M  V30 52 1 21 49
M  V30 53 1 23 50
M  V30 54 1 26 51
M  V30 55 1 28 52
M  V30 56 1 29 53
M  V30 57 1 34 54
M  V30 END BOND
M  V30 END CTAB
M  END
>  <Dataset>  (665) 
ChEMBL_Kinases

>  <Ligand_Instance>  (665) 
nan

>  <PDB_ID>  (665) 
nan

>  <Standardized_SMILES>  (665) 
N#Cc1cnc2c(OCC(O)CO)cc(NCc3c[nH]cn3)cc2c1Nc1ccc(F)c(Cl)c1

>  <Name>  (665) 
nan

>  <Pocket>  (665) 
nan

>  <ATP_Site>  (665) 
nan

>  <Peripheral>  (665) 
nan

>  <Num_H_Atoms_ProtBoundConf>  (665) 
nan

>  <Num_Resolved_Atoms>  (665) 
nan

>  <Num_Not_Resolved_Atoms>  (665) 
nan

$$$$
CHEMBL242425
     RDKit          3D

  0  0  0  0  0  0  0  0  0  0999 V3000
M  V30 BEGIN CTAB
M  V30 COUNTS 53 56 0 0 0
M  V30 BEGIN ATOM
M  V30 1 N 2.196889 -6.313690 1.346137 0
M  V30 2 C 2.145920 -5.170393 1.165301 0
M  V30 3 C 2.085490 -3.745233 0.964824 0
M  V30 4 C 3.213472 -2.972133 0.731645 0
M  V30 5 N 3.154161 -1.638248 0.544245 0
M  V30 6 C 1.963577 -1.000743 0.579198 0
M  V30 7 C 1.846949 0.366493 0.392446 0
M  V30 8 C 3.103619 1.102356 0.151288 0
M  V30 9 C 3.941897 1.322453 1.369017 0
M  V30 10 O 5.117680 2.029830 1.048444 0
M  V30 11 C 3.222122 2.128743 2.429893 0
M  V30 12 O 4.006596 2.283751 3.567457 0
M  V30 13 C 0.598935 0.997711 0.433740 0
M  V30 14 C -0.549260 0.264435 0.663265 0
M  V30 15 N -1.843993 0.884341 0.710325 0
M  V30 16 C -1.921396 2.314926 0.508720 0
M  V30 17 C -3.351774 2.695381 0.600397 0
M  V30 18 C -4.152150 3.081402 1.641388 0
M  V30 19 N -5.383093 3.306974 1.140711 0
M  V30 20 C -5.349385 3.067362 -0.178576 0
M  V30 21 N -4.112447 2.691827 -0.525322 0
M  V30 22 C -0.403141 -1.095231 0.845860 0
M  V30 23 C 0.819577 -1.736765 0.808701 0
M  V30 24 C 0.859964 -3.101905 1.002684 0
M  V30 25 N -0.361752 -3.790086 1.233503 0
M  V30 26 C -1.109586 -4.305773 0.141044 0
M  V30 27 C -2.301171 -4.992040 0.288399 0
M  V30 28 C -3.036408 -5.495861 -0.749402 0
M  V30 29 C -2.568057 -5.312316 -2.018931 0
M  V30 30 F -3.240111 -5.782265 -3.101250 0
M  V30 31 C -1.367319 -4.624748 -2.223874 0
M  V30 32 Cl -0.735728 -4.369354 -3.828008 0
M  V30 33 C -0.649926 -4.128938 -1.151114 0
M  V30 34 H 4.191928 -3.467841 0.698616 0
M  V30 35 H 3.735739 0.526508 -0.571195 0
M  V30 36 H 2.859191 2.043440 -0.352782 0
M  V30 37 H 4.264954 0.372875 1.842164 0
M  V30 38 H 4.934578 2.976211 0.847776 0
M  V30 39 H 2.300287 1.606518 2.745582 0
M  V30 40 H 2.933225 3.132962 2.070558 0
M  V30 41 H 3.959736 1.503079 4.159452 0
M  V30 42 H 0.543004 2.052031 0.286097 0
M  V30 43 H -2.662601 0.288279 0.884983 0
M  V30 44 H -1.329267 2.766213 1.356984 0
M  V30 45 H -1.468426 2.620789 -0.451832 0
M  V30 46 H -3.792557 3.166374 2.647989 0
M  V30 47 H -6.222009 3.615041 1.679115 0
M  V30 48 H -6.149456 3.140103 -0.926517 0
M  V30 49 H -1.318304 -1.659567 1.026197 0
M  V30 50 H -0.726646 -3.926563 2.201851 0
M  V30 51 H -2.630300 -5.110290 1.327285 0
M  V30 52 H -3.956407 -6.024293 -0.610644 0
M  V30 53 H 0.279242 -3.598113 -1.326230 0
M  V30 END ATOM
M  V30 BEGIN BOND
M  V30 1 3 1 2
M  V30 2 1 2 3
M  V30 3 2 3 4
M  V30 4 1 4 5
M  V30 5 2 5 6
M  V30 6 1 6 7
M  V30 7 1 7 8
M  V30 8 1 8 9
M  V30 9 1 9 10
M  V30 10 1 9 11
M  V30 11 1 11 12
M  V30 12 2 7 13
M  V30 13 1 13 14
M  V30 14 1 14 15
M  V30 15 1 15 16
M  V30 16 1 16 17
M  V30 17 2 17 18
M  V30 18 1 18 19
M  V30 19 1 19 20
M  V30 20 2 20 21
M  V30 21 2 14 22
M  V30 22 1 22 23
M  V30 23 2 23 24
M  V30 24 1 24 25
M  V30 25 1 25 26
M  V30 26 2 26 27
M  V30 27 1 27 28
M  V30 28 2 28 29
M  V30 29 1 29 30
M  V30 30 1 29 31
M  V30 31 1 31 32
M  V30 32 2 31 33
M  V30 33 1 24 3
M  V30 34 1 33 26
M  V30 35 1 23 6
M  V30 36 1 21 17
M  V30 37 1 4 34
M  V30 38 1 8 35
M  V30 39 1 8 36
M  V30 40 1 9 37
M  V30 41 1 10 38
M  V30 42 1 11 39
M  V30 43 1 11 40
M  V30 44 1 12 41
M  V30 45 1 13 42
M  V30 46 1 15 43
M  V30 47 1 16 44
M  V30 48 1 16 45
M  V30 49 1 18 46
M  V30 50 1 19 47
M  V30 51 1 20 48
M  V30 52 1 22 49
M  V30 53 1 25 50
M  V30 54 1 27 51
M  V30 55 1 28 52
M  V30 56 1 33 53
M  V30 END BOND
M  V30 END CTAB
M  END
>  <Dataset>  (666) 
ChEMBL_Kinases

>  <Ligand_Instance>  (666) 
nan

>  <PDB_ID>  (666) 
nan

>  <Standardized_SMILES>  (666) 
N#Cc1cnc2c(CC(O)CO)cc(NCc3c[nH]cn3)cc2c1Nc1ccc(F)c(Cl)c1

>  <Name>  (666) 
nan

>  <Pocket>  (666) 
nan

>  <ATP_Site>  (666) 
nan

>  <Peripheral>  (666) 
nan

>  <Num_H_Atoms_ProtBoundConf>  (666) 
nan

>  <Num_Resolved_Atoms>  (666) 
nan

>  <Num_Not_Resolved_Atoms>  (666) 
nan

$$$$
CHEMBL242412
     RDKit          3D

  0  0  0  0  0  0  0  0  0  0999 V3000
M  V30 BEGIN CTAB
M  V30 COUNTS 54 58 0 0 0
M  V30 BEGIN ATOM
M  V30 1 C -0.352733 -4.022098 5.185391 0
M  V30 2 O 0.586027 -5.083696 5.205519 0
M  V30 3 C 1.406212 -5.340481 4.089646 0
M  V30 4 C 1.270625 -4.531473 2.979392 0
M  V30 5 C 2.025013 -4.688318 1.819174 0
M  V30 6 C 1.787857 -3.770769 0.716950 0
M  V30 7 C 1.945499 -4.124990 -0.622134 0
M  V30 8 C 1.697356 -3.183972 -1.622715 0
M  V30 9 C 1.293605 -1.890417 -1.323644 0
M  V30 10 C 1.144026 -1.561894 0.009675 0
M  V30 11 C 1.381260 -2.469263 1.028472 0
M  V30 12 N 0.732783 -0.265882 0.490719 0
M  V30 13 C 0.018335 0.751923 -0.215493 0
M  V30 14 C -0.636177 1.563431 0.694416 0
M  V30 15 C -1.401866 2.632796 0.214717 0
M  V30 16 C -1.468208 2.829138 -1.160648 0
M  V30 17 N -2.260657 3.934633 -1.641712 0
M  V30 18 C -3.665478 3.885967 -1.978228 0
M  V30 19 C -4.307971 5.097476 -1.354258 0
M  V30 20 C -3.517215 6.296880 -1.821129 0
M  V30 21 S -1.898981 5.586417 -1.976285 0
M  V30 22 O -0.996573 6.178578 -0.929442 0
M  V30 23 O -1.342341 5.765123 -3.355481 0
M  V30 24 C -0.824271 2.033084 -2.086035 0
M  V30 25 C -0.069250 0.975855 -1.576991 0
M  V30 26 N 0.546658 0.227699 -2.627846 0
M  V30 27 C 1.094837 -1.086989 -2.526932 0
M  V30 28 O 1.449021 -1.606693 -3.639461 0
M  V30 29 C 2.937174 -5.723545 1.844617 0
M  V30 30 C 3.106184 -6.549840 2.920907 0
M  V30 31 C 2.335470 -6.362799 4.060937 0
M  V30 32 N 2.445689 -7.174608 5.223703 0
M  V30 33 H 0.138552 -3.031405 5.025169 0
M  V30 34 H -1.057213 -4.175692 4.339514 0
M  V30 35 H -0.841005 -4.010466 6.181024 0
M  V30 36 H 0.532851 -3.732183 3.023026 0
M  V30 37 H 2.263284 -5.142419 -0.860776 0
M  V30 38 H 1.830447 -3.495044 -2.655446 0
M  V30 39 H 1.228411 -2.088652 2.031326 0
M  V30 40 H 1.007156 -0.081833 1.480628 0
M  V30 41 H -0.548674 1.363042 1.754923 0
M  V30 42 H -1.917557 3.273497 0.917573 0
M  V30 43 H -4.105406 3.007775 -1.462186 0
M  V30 44 H -3.872417 3.774529 -3.049141 0
M  V30 45 H -4.219855 4.955077 -0.244506 0
M  V30 46 H -5.357058 5.110708 -1.676638 0
M  V30 47 H -3.948111 6.631924 -2.784083 0
M  V30 48 H -3.546807 7.091297 -1.048181 0
M  V30 49 H -0.897727 2.214194 -3.142055 0
M  V30 50 H 0.589889 0.705015 -3.547976 0
M  V30 51 H 3.532307 -5.845659 0.927133 0
M  V30 52 H 3.832320 -7.353918 2.907006 0
M  V30 53 H 1.556926 -7.729496 5.360833 0
M  V30 54 H 3.228740 -7.285018 5.905731 0
M  V30 END ATOM
M  V30 BEGIN BOND
M  V30 1 1 1 2
M  V30 2 1 2 3
M  V30 3 2 3 4
M  V30 4 1 4 5
M  V30 5 1 5 6
M  V30 6 2 6 7
M  V30 7 1 7 8
M  V30 8 2 8 9
M  V30 9 1 9 10
M  V30 10 2 10 11
M  V30 11 1 10 12
M  V30 12 1 12 13
M  V30 13 2 13 14
M  V30 14 1 14 15
M  V30 15 2 15 16
M  V30 16 1 16 17
M  V30 17 1 17 18
M  V30 18 1 18 19
M  V30 19 1 19 20
M  V30 20 1 20 21
M  V30 21 2 21 22
M  V30 22 2 21 23
M  V30 23 1 16 24
M  V30 24 2 24 25
M  V30 25 1 25 26
M  V30 26 1 26 27
M  V30 27 2 27 28
M  V30 28 2 5 29
M  V30 29 1 29 30
M  V30 30 2 30 31
M  V30 31 1 31 32
M  V30 32 1 31 3
M  V30 33 1 11 6
M  V30 34 1 25 13
M  V30 35 1 27 9
M  V30 36 1 21 17
M  V30 37 1 1 33
M  V30 38 1 1 34
M  V30 39 1 1 35
M  V30 40 1 4 36
M  V30 41 1 7 37
M  V30 42 1 8 38
M  V30 43 1 11 39
M  V30 44 1 12 40
M  V30 45 1 14 41
M  V30 46 1 15 42
M  V30 47 1 18 43
M  V30 48 1 18 44
M  V30 49 1 19 45
M  V30 50 1 19 46
M  V30 51 1 20 47
M  V30 52 1 20 48
M  V30 53 1 24 49
M  V30 54 1 26 50
M  V30 55 1 29 51
M  V30 56 1 30 52
M  V30 57 1 32 53
M  V30 58 1 32 54
M  V30 END BOND
M  V30 END CTAB
M  END
>  <Dataset>  (667) 
ChEMBL_Kinases

>  <Ligand_Instance>  (667) 
nan

>  <PDB_ID>  (667) 
nan

>  <Standardized_SMILES>  (667) 
COc1cc(-c2ccc3c(c2)Nc2ccc(N4CCCS4(=O)=O)cc2NC3=O)ccc1N

>  <Name>  (667) 
nan

>  <Pocket>  (667) 
nan

>  <ATP_Site>  (667) 
nan

>  <Peripheral>  (667) 
nan

>  <Num_H_Atoms_ProtBoundConf>  (667) 
nan

>  <Num_Resolved_Atoms>  (667) 
nan

>  <Num_Not_Resolved_Atoms>  (667) 
nan

$$$$
CHEMBL242325
     RDKit          3D

  0  0  0  0  0  0  0  0  0  0999 V3000
M  V30 BEGIN CTAB
M  V30 COUNTS 60 65 0 0 0
M  V30 BEGIN ATOM
M  V30 1 O 5.551584 -4.225485 8.225033 0
M  V30 2 C 5.063651 -3.403342 7.215969 0
M  V30 3 C 5.433242 -2.078548 7.305971 0
M  V30 4 C 5.011954 -1.164275 6.363897 0
M  V30 5 C 4.209734 -1.589127 5.319979 0
M  V30 6 C 3.690637 -0.715968 4.246890 0
M  V30 7 C 3.392118 0.603249 4.466072 0
M  V30 8 C 2.909346 1.421584 3.473059 0
M  V30 9 C 2.704934 0.931886 2.195748 0
M  V30 10 C 2.200346 1.666497 1.035904 0
M  V30 11 N 2.527083 2.888127 0.575845 0
M  V30 12 N 1.820528 3.176488 -0.520128 0
M  V30 13 C 1.003785 2.144342 -0.812617 0
M  V30 14 C 1.232322 1.173811 0.167827 0
M  V30 15 C 0.369326 -0.012904 -0.072948 0
M  V30 16 C -0.387798 0.386659 -1.312008 0
M  V30 17 C -1.356452 -0.324141 -2.025490 0
M  V30 18 C -1.972592 0.194260 -3.171650 0
M  V30 19 C -3.000895 -0.585388 -3.909221 0
M  V30 20 N -4.333431 -0.331717 -3.441019 0
M  V30 21 C -4.573764 -0.634733 -2.068151 0
M  V30 22 C -4.963729 -2.052187 -1.803302 0
M  V30 23 C -4.898298 -2.976875 -2.964244 0
M  V30 24 O -5.918480 -3.943617 -2.794207 0
M  V30 25 C -5.125960 -2.376117 -4.306590 0
M  V30 26 C -5.322751 -0.891345 -4.306270 0
M  V30 27 C -1.586921 1.461157 -3.589530 0
M  V30 28 C -0.620632 2.157100 -2.868490 0
M  V30 29 C -0.013886 1.645777 -1.739128 0
M  V30 30 C 3.005507 -0.402183 1.969206 0
M  V30 31 C 3.490964 -1.211924 2.981399 0
M  V30 32 C 3.844395 -2.936432 5.244099 0
M  V30 33 C 4.261503 -3.858365 6.182587 0
M  V30 34 H 5.270693 -5.202027 8.216664 0
M  V30 35 H 6.059831 -1.671371 8.094955 0
M  V30 36 H 5.249058 -0.103441 6.348836 0
M  V30 37 H 3.538547 1.029992 5.459914 0
M  V30 38 H 2.659502 2.466473 3.596422 0
M  V30 39 H 1.866459 4.062879 -1.095098 0
M  V30 40 H -0.328305 -0.197736 0.764838 0
M  V30 41 H 0.959152 -0.895912 -0.374861 0
M  V30 42 H -1.622537 -1.324526 -1.649001 0
M  V30 43 H -2.957385 -0.376819 -4.995149 0
M  V30 44 H -2.796516 -1.691470 -3.832666 0
M  V30 45 H -5.462075 -0.007660 -1.757125 0
M  V30 46 H -3.749530 -0.248853 -1.430609 0
M  V30 47 H -4.224756 -2.432663 -1.036857 0
M  V30 48 H -5.950027 -2.147285 -1.266912 0
M  V30 49 H -3.953444 -3.593900 -2.947254 0
M  V30 50 H -5.972565 -4.161781 -1.837832 0
M  V30 51 H -5.997860 -2.802741 -4.863380 0
M  V30 52 H -4.235005 -2.605169 -4.952302 0
M  V30 53 H -5.185107 -0.486911 -5.318294 0
M  V30 54 H -6.335820 -0.673635 -3.914389 0
M  V30 55 H -2.034641 1.911432 -4.474873 0
M  V30 56 H -0.336828 3.158464 -3.225398 0
M  V30 57 H 2.900455 -0.923966 1.036654 0
M  V30 58 H 3.739014 -2.268744 2.839624 0
M  V30 59 H 3.217291 -3.381896 4.467378 0
M  V30 60 H 3.991704 -4.911963 6.147094 0
M  V30 END ATOM
M  V30 BEGIN BOND
M  V30 1 1 1 2
M  V30 2 2 2 3
M  V30 3 1 3 4
M  V30 4 2 4 5
M  V30 5 1 5 6
M  V30 6 2 6 7
M  V30 7 1 7 8
M  V30 8 2 8 9
M  V30 9 1 9 10
M  V30 10 2 10 11
M  V30 11 1 11 12
M  V30 12 1 12 13
M  V30 13 2 13 14
M  V30 14 1 14 15
M  V30 15 1 15 16
M  V30 16 2 16 17
M  V30 17 1 17 18
M  V30 18 1 18 19
M  V30 19 1 19 20
M  V30 20 1 20 21
M  V30 21 1 21 22
M  V30 22 1 22 23
M  V30 23 1 23 24
M  V30 24 1 23 25
M  V30 25 1 25 26
M  V30 26 2 18 27
M  V30 27 1 27 28
M  V30 28 2 28 29
M  V30 29 1 9 30
M  V30 30 2 30 31
M  V30 31 1 5 32
M  V30 32 2 32 33
M  V30 33 1 33 2
M  V30 34 1 31 6
M  V30 35 1 14 10
M  V30 36 1 29 16
M  V30 37 1 29 13
M  V30 38 1 26 20
M  V30 39 1 1 34
M  V30 40 1 3 35
M  V30 41 1 4 36
M  V30 42 1 7 37
M  V30 43 1 8 38
M  V30 44 1 12 39
M  V30 45 1 15 40
M  V30 46 1 15 41
M  V30 47 1 17 42
M  V30 48 1 19 43
M  V30 49 1 19 44
M  V30 50 1 21 45
M  V30 51 1 21 46
M  V30 52 1 22 47
M  V30 53 1 22 48
M  V30 54 1 23 49
M  V30 55 1 24 50
M  V30 56 1 25 51
M  V30 57 1 25 52
M  V30 58 1 26 53
M  V30 59 1 26 54
M  V30 60 1 27 55
M  V30 61 1 28 56
M  V30 62 1 30 57
M  V30 63 1 31 58
M  V30 64 1 32 59
M  V30 65 1 33 60
M  V30 END BOND
M  V30 END CTAB
M  END
>  <Dataset>  (668) 
ChEMBL_Kinases

>  <Ligand_Instance>  (668) 
nan

>  <PDB_ID>  (668) 
nan

>  <Standardized_SMILES>  (668) 
Oc1ccc(-c2ccc(-c3n[nH]c4c3Cc3cc(CN5CCC(O)CC5)ccc3-4)cc2)cc1

>  <Name>  (668) 
nan

>  <Pocket>  (668) 
nan

>  <ATP_Site>  (668) 
nan

>  <Peripheral>  (668) 
nan

>  <Num_H_Atoms_ProtBoundConf>  (668) 
nan

>  <Num_Resolved_Atoms>  (668) 
nan

>  <Num_Not_Resolved_Atoms>  (668) 
nan

$$$$
CHEMBL242324
     RDKit          3D

  0  0  0  0  0  0  0  0  0  0999 V3000
M  V30 BEGIN CTAB
M  V30 COUNTS 58 62 0 0 0
M  V30 BEGIN ATOM
M  V30 1 C 2.891723 -4.463550 4.398751 0
M  V30 2 C 2.690521 -2.972374 4.247145 0 CFG=1
M  V30 3 C 3.861848 -2.262174 4.829318 0
M  V30 4 C 4.251180 -0.989062 4.199240 0
M  V30 5 C 3.135896 -0.267802 3.459139 0 CFG=1
M  V30 6 N 3.768898 0.785688 2.754419 0
M  V30 7 C 3.066866 1.831341 2.168617 0
M  V30 8 C 2.172243 1.421358 1.075719 0
M  V30 9 C 2.861798 1.354194 -0.145481 0
M  V30 10 C 2.245564 1.022039 -1.334444 0
M  V30 11 C 0.894919 0.739471 -1.350366 0
M  V30 12 C 0.197100 0.799009 -0.163520 0
M  V30 13 C 0.824171 1.131666 1.015308 0
M  V30 14 C -1.238034 0.467271 -0.363467 0
M  V30 15 C -1.337577 0.196113 -1.820789 0
M  V30 16 C -2.128765 -0.152578 -2.895680 0
M  V30 17 C -3.549167 -0.438544 -2.847854 0
M  V30 18 C -3.984977 -1.554786 -3.544483 0
M  V30 19 C -5.341240 -1.887786 -3.540284 0
M  V30 20 C -6.225165 -1.073588 -2.824365 0
M  V30 21 C -7.684733 -1.398295 -2.796604 0
M  V30 22 C -8.327216 -0.726260 -3.904259 0
M  V30 23 N -8.852448 -0.197614 -4.785283 0
M  V30 24 C -5.749243 0.030275 -2.143231 0
M  V30 25 C -4.408543 0.374138 -2.137224 0
M  V30 26 N -1.374159 -0.188231 -4.012154 0
M  V30 27 N -0.120533 0.122239 -3.716718 0
M  V30 28 C -0.078172 0.361741 -2.374755 0
M  V30 29 C 2.401942 -1.179241 2.528548 0
M  V30 30 C 2.710746 -2.646493 2.769018 0
M  V30 31 H 1.905292 -4.949086 4.260198 0
M  V30 32 H 3.522269 -4.796525 3.541602 0
M  V30 33 H 3.342907 -4.711516 5.381995 0
M  V30 34 H 1.723518 -2.698484 4.711544 0
M  V30 35 H 4.729726 -2.977707 4.826490 0
M  V30 36 H 3.634816 -2.126992 5.927401 0
M  V30 37 H 4.602192 -0.280850 4.979234 0
M  V30 38 H 5.113231 -1.159505 3.520921 0
M  V30 39 H 2.414597 0.159420 4.182049 0
M  V30 40 H 4.583208 0.481135 2.175798 0
M  V30 41 H 3.744829 2.684807 1.825993 0
M  V30 42 H 2.379469 2.303540 2.950003 0
M  V30 43 H 3.934767 1.551478 -0.290860 0
M  V30 44 H 2.737807 0.960911 -2.282879 0
M  V30 45 H 0.384481 1.213243 2.019179 0
M  V30 46 H -1.487889 -0.482552 0.172174 0
M  V30 47 H -1.930670 1.260906 -0.026144 0
M  V30 48 H -3.291391 -2.181317 -4.097702 0
M  V30 49 H -5.717516 -2.751192 -4.072337 0
M  V30 50 H -8.158746 -1.037797 -1.859979 0
M  V30 51 H -7.880802 -2.482247 -2.879283 0
M  V30 52 H -6.400018 0.686240 -1.577060 0
M  V30 53 H -3.986743 1.207144 -1.634056 0
M  V30 54 H 0.695820 0.178071 -4.375471 0
M  V30 55 H 2.647727 -1.002319 1.472406 0
M  V30 56 H 1.307195 -1.113421 2.652476 0
M  V30 57 H 3.680311 -2.926636 2.346463 0
M  V30 58 H 1.938776 -3.284765 2.292848 0
M  V30 END ATOM
M  V30 BEGIN BOND
M  V30 1 1 1 2
M  V30 2 1 2 3
M  V30 3 1 3 4
M  V30 4 1 4 5
M  V30 5 1 5 6
M  V30 6 1 6 7
M  V30 7 1 7 8
M  V30 8 2 8 9
M  V30 9 1 9 10
M  V30 10 2 10 11
M  V30 11 1 11 12
M  V30 12 2 12 13
M  V30 13 1 12 14
M  V30 14 1 14 15
M  V30 15 1 15 16
M  V30 16 1 16 17
M  V30 17 2 17 18
M  V30 18 1 18 19
M  V30 19 2 19 20
M  V30 20 1 20 21
M  V30 21 1 21 22
M  V30 22 3 22 23
M  V30 23 1 20 24
M  V30 24 2 24 25
M  V30 25 2 16 26
M  V30 26 1 26 27
M  V30 27 1 27 28
M  V30 28 1 5 29
M  V30 29 1 29 30
M  V30 30 1 30 2
M  V30 31 1 13 8
M  V30 32 2 28 15
M  V30 33 1 28 11
M  V30 34 1 25 17
M  V30 35 1 1 31
M  V30 36 1 1 32
M  V30 37 1 1 33
M  V30 38 1 2 34 CFG=1
M  V30 39 1 3 35
M  V30 40 1 3 36
M  V30 41 1 4 37
M  V30 42 1 4 38
M  V30 43 1 5 39 CFG=1
M  V30 44 1 6 40
M  V30 45 1 7 41
M  V30 46 1 7 42
M  V30 47 1 9 43
M  V30 48 1 10 44
M  V30 49 1 13 45
M  V30 50 1 14 46
M  V30 51 1 14 47
M  V30 52 1 18 48
M  V30 53 1 19 49
M  V30 54 1 21 50
M  V30 55 1 21 51
M  V30 56 1 24 52
M  V30 57 1 25 53
M  V30 58 1 27 54
M  V30 59 1 29 55
M  V30 60 1 29 56
M  V30 61 1 30 57
M  V30 62 1 30 58
M  V30 END BOND
M  V30 END CTAB
M  END
>  <Dataset>  (669) 
ChEMBL_Kinases

>  <Ligand_Instance>  (669) 
nan

>  <PDB_ID>  (669) 
nan

>  <Standardized_SMILES>  (669) 
C[C@H]1CC[C@@H](NCc2ccc3c(c2)Cc2c(-c4ccc(CC#N)cc4)n[nH]c2-3)CC1

>  <Name>  (669) 
nan

>  <Pocket>  (669) 
nan

>  <ATP_Site>  (669) 
nan

>  <Peripheral>  (669) 
nan

>  <Num_H_Atoms_ProtBoundConf>  (669) 
nan

>  <Num_Resolved_Atoms>  (669) 
nan

>  <Num_Not_Resolved_Atoms>  (669) 
nan

$$$$
CHEMBL242208
     RDKit          3D

  0  0  0  0  0  0  0  0  0  0999 V3000
M  V30 BEGIN CTAB
M  V30 COUNTS 52 55 0 0 0
M  V30 BEGIN ATOM
M  V30 1 C 5.560039 -2.377566 2.479891 0
M  V30 2 N 4.220618 -1.925584 2.150128 0
M  V30 3 C 3.210624 -2.166355 3.173242 0
M  V30 4 C 4.050712 -1.304273 0.875056 0
M  V30 5 O 5.182954 -1.298976 0.306762 0
M  V30 6 C 2.762225 -0.801807 0.409858 0
M  V30 7 C 2.475287 0.506623 0.720063 0
M  V30 8 C 1.258179 1.068675 0.310872 0
M  V30 9 N 0.952974 2.415818 0.612684 0
M  V30 10 C -0.210353 3.235170 0.346980 0
M  V30 11 C -1.397236 2.754392 1.091099 0
M  V30 12 C -2.475982 1.931842 0.907796 0
M  V30 13 N -3.253178 1.866376 1.991419 0
M  V30 14 C -2.640571 2.670236 2.871130 0
M  V30 15 N -1.540346 3.209293 2.366304 0
M  V30 16 C 0.419360 0.231146 -0.395052 0
M  V30 17 C 0.673716 -1.071751 -0.719351 0
M  V30 18 C -0.209991 -1.859481 -1.430057 0
M  V30 19 N -1.451537 -1.295486 -1.850854 0
M  V30 20 C -2.534394 -1.430866 -0.935254 0
M  V30 21 C -2.347023 -2.081182 0.283699 0
M  V30 22 C -3.368994 -2.241491 1.214346 0
M  V30 23 C -4.625397 -1.744690 0.939916 0
M  V30 24 F -5.576118 -1.930341 1.880329 0
M  V30 25 C -4.828105 -1.092327 -0.274171 0
M  V30 26 Cl -6.446736 -0.472362 -0.586704 0
M  V30 27 C -3.802226 -0.943953 -1.182725 0
M  V30 28 C 0.121156 -3.169666 -1.718846 0
M  V30 29 C -0.778142 -4.008620 -2.454994 0
M  V30 30 N -1.494428 -4.695865 -3.043640 0
M  V30 31 C 1.350386 -3.615118 -1.263172 0
M  V30 32 N 2.222626 -2.859638 -0.569304 0
M  V30 33 C 1.882304 -1.591214 -0.299505 0
M  V30 34 H 5.920460 -1.921765 3.430553 0
M  V30 35 H 6.284215 -2.223677 1.661216 0
M  V30 36 H 5.542219 -3.479666 2.677225 0
M  V30 37 H 3.178845 -3.243201 3.491122 0
M  V30 38 H 2.203658 -1.967160 2.741516 0
M  V30 39 H 3.330117 -1.507959 4.057363 0
M  V30 40 H 3.180449 1.119891 1.281842 0
M  V30 41 H 1.715679 2.945334 1.138243 0
M  V30 42 H -0.025035 4.302581 0.540826 0
M  V30 43 H -0.504364 3.156827 -0.740025 0
M  V30 44 H -2.596994 1.442946 -0.042706 0
M  V30 45 H -4.121597 1.293598 2.050672 0
M  V30 46 H -3.029216 2.838449 3.875902 0
M  V30 47 H -0.521155 0.589828 -0.745615 0
M  V30 48 H -1.623131 -0.807764 -2.746861 0
M  V30 49 H -1.379622 -2.492203 0.553259 0
M  V30 50 H -3.151815 -2.762163 2.150666 0
M  V30 51 H -3.993608 -0.440786 -2.098482 0
M  V30 52 H 1.592836 -4.650613 -1.500971 0
M  V30 END ATOM
M  V30 BEGIN BOND
M  V30 1 1 1 2
M  V30 2 1 2 3
M  V30 3 1 2 4
M  V30 4 2 4 5
M  V30 5 1 4 6
M  V30 6 2 6 7
M  V30 7 1 7 8
M  V30 8 1 8 9
M  V30 9 1 9 10
M  V30 10 1 10 11
M  V30 11 2 11 12
M  V30 12 1 12 13
M  V30 13 1 13 14
M  V30 14 2 14 15
M  V30 15 2 8 16
M  V30 16 1 16 17
M  V30 17 2 17 18
M  V30 18 1 18 19
M  V30 19 1 19 20
M  V30 20 2 20 21
M  V30 21 1 21 22
M  V30 22 2 22 23
M  V30 23 1 23 24
M  V30 24 1 23 25
M  V30 25 1 25 26
M  V30 26 2 25 27
M  V30 27 1 18 28
M  V30 28 1 28 29
M  V30 29 3 29 30
M  V30 30 2 28 31
M  V30 31 1 31 32
M  V30 32 2 32 33
M  V30 33 1 33 6
M  V30 34 1 15 11
M  V30 35 1 33 17
M  V30 36 1 27 20
M  V30 37 1 1 34
M  V30 38 1 1 35
M  V30 39 1 1 36
M  V30 40 1 3 37
M  V30 41 1 3 38
M  V30 42 1 3 39
M  V30 43 1 7 40
M  V30 44 1 9 41
M  V30 45 1 10 42
M  V30 46 1 10 43
M  V30 47 1 12 44
M  V30 48 1 13 45
M  V30 49 1 14 46
M  V30 50 1 16 47
M  V30 51 1 19 48
M  V30 52 1 21 49
M  V30 53 1 22 50
M  V30 54 1 27 51
M  V30 55 1 31 52
M  V30 END BOND
M  V30 END CTAB
M  END
>  <Dataset>  (670) 
ChEMBL_Kinases

>  <Ligand_Instance>  (670) 
nan

>  <PDB_ID>  (670) 
nan

>  <Standardized_SMILES>  (670) 
CN(C)C(=O)c1cc(NCc2c[nH]cn2)cc2c(Nc3ccc(F)c(Cl)c3)c(C#N)cnc12

>  <Name>  (670) 
nan

>  <Pocket>  (670) 
nan

>  <ATP_Site>  (670) 
nan

>  <Peripheral>  (670) 
nan

>  <Num_H_Atoms_ProtBoundConf>  (670) 
nan

>  <Num_Resolved_Atoms>  (670) 
nan

>  <Num_Not_Resolved_Atoms>  (670) 
nan

$$$$
CHEMBL242207
     RDKit          3D

  0  0  0  0  0  0  0  0  0  0999 V3000
M  V30 BEGIN CTAB
M  V30 COUNTS 48 51 0 0 0
M  V30 BEGIN ATOM
M  V30 1 C 2.276045 -4.224510 2.545543 0
M  V30 2 S 3.034382 -2.971403 1.537921 0
M  V30 3 O 3.525386 -3.630813 0.285068 0
M  V30 4 O 4.110544 -2.321054 2.316595 0
M  V30 5 C 1.778641 -1.829451 1.105126 0
M  V30 6 C 1.841081 -0.495278 1.446909 0
M  V30 7 C 0.900521 0.466146 1.146870 0
M  V30 8 N 0.990988 1.829909 1.501800 0
M  V30 9 C 2.013440 2.546672 2.192263 0
M  V30 10 C 3.305101 2.642011 1.489510 0
M  V30 11 C 4.501315 1.974670 1.434740 0
M  V30 12 N 5.372423 2.510538 0.570189 0
M  V30 13 C 4.705979 3.557930 0.055886 0
M  V30 14 N 3.480446 3.655107 0.585444 0
M  V30 15 C -0.171806 -0.033668 0.437878 0
M  V30 16 C -0.299110 -1.333065 0.068316 0
M  V30 17 C -1.405813 -1.754937 -0.641880 0
M  V30 18 N -2.457020 -0.872375 -1.021028 0
M  V30 19 C -3.651604 -0.517301 -0.333780 0
M  V30 20 C -4.514256 0.375196 -0.935395 0
M  V30 21 C -5.661783 0.708750 -0.262195 0
M  V30 22 C -5.892001 0.134404 0.979722 0
M  V30 23 F -7.051697 0.510846 1.592154 0
M  V30 24 C -5.027448 -0.764951 1.591107 0
M  V30 25 Cl -5.448660 -1.409796 3.162606 0
M  V30 26 C -3.895070 -1.079610 0.901780 0
M  V30 27 C -1.524773 -3.079638 -1.012742 0
M  V30 28 C -2.650626 -3.575712 -1.750648 0
M  V30 29 N -3.552656 -3.966622 -2.358212 0
M  V30 30 C -0.508409 -3.938661 -0.647464 0
M  V30 31 N 0.577797 -3.546867 0.044459 0
M  V30 32 C 0.674139 -2.254492 0.395352 0
M  V30 33 H 1.750395 -4.994549 1.938148 0
M  V30 34 H 2.960775 -4.673768 3.276546 0
M  V30 35 H 1.455492 -3.727899 3.133187 0
M  V30 36 H 2.718030 -0.222766 2.003500 0
M  V30 37 H 0.152365 2.408777 1.197688 0
M  V30 38 H 1.653189 3.562413 2.439058 0
M  V30 39 H 2.209892 2.089808 3.219568 0
M  V30 40 H 4.655911 1.112888 2.060388 0
M  V30 41 H 6.327495 2.136973 0.397671 0
M  V30 42 H 5.120399 4.232194 -0.693605 0
M  V30 43 H -0.976062 0.641327 0.147746 0
M  V30 44 H -2.223398 -0.476622 -1.958288 0
M  V30 45 H -4.321466 0.810077 -1.895843 0
M  V30 46 H -6.368210 1.404399 -0.694061 0
M  V30 47 H -3.228910 -1.785520 1.395189 0
M  V30 48 H -0.517370 -4.996921 -0.896059 0
M  V30 END ATOM
M  V30 BEGIN BOND
M  V30 1 1 1 2
M  V30 2 2 2 3
M  V30 3 2 2 4
M  V30 4 1 2 5
M  V30 5 2 5 6
M  V30 6 1 6 7
M  V30 7 1 7 8
M  V30 8 1 8 9
M  V30 9 1 9 10
M  V30 10 2 10 11
M  V30 11 1 11 12
M  V30 12 1 12 13
M  V30 13 2 13 14
M  V30 14 2 7 15
M  V30 15 1 15 16
M  V30 16 2 16 17
M  V30 17 1 17 18
M  V30 18 1 18 19
M  V30 19 2 19 20
M  V30 20 1 20 21
M  V30 21 2 21 22
M  V30 22 1 22 23
M  V30 23 1 22 24
M  V30 24 1 24 25
M  V30 25 2 24 26
M  V30 26 1 17 27
M  V30 27 1 27 28
M  V30 28 3 28 29
M  V30 29 2 27 30
M  V30 30 1 30 31
M  V30 31 2 31 32
M  V30 32 1 32 5
M  V30 33 1 14 10
M  V30 34 1 32 16
M  V30 35 1 26 19
M  V30 36 1 1 33
M  V30 37 1 1 34
M  V30 38 1 1 35
M  V30 39 1 6 36
M  V30 40 1 8 37
M  V30 41 1 9 38
M  V30 42 1 9 39
M  V30 43 1 11 40
M  V30 44 1 12 41
M  V30 45 1 13 42
M  V30 46 1 15 43
M  V30 47 1 18 44
M  V30 48 1 20 45
M  V30 49 1 21 46
M  V30 50 1 26 47
M  V30 51 1 30 48
M  V30 END BOND
M  V30 END CTAB
M  END
>  <Dataset>  (671) 
ChEMBL_Kinases

>  <Ligand_Instance>  (671) 
nan

>  <PDB_ID>  (671) 
nan

>  <Standardized_SMILES>  (671) 
CS(=O)(=O)c1cc(NCc2c[nH]cn2)cc2c(Nc3ccc(F)c(Cl)c3)c(C#N)cnc12

>  <Name>  (671) 
nan

>  <Pocket>  (671) 
nan

>  <ATP_Site>  (671) 
nan

>  <Peripheral>  (671) 
nan

>  <Num_H_Atoms_ProtBoundConf>  (671) 
nan

>  <Num_Resolved_Atoms>  (671) 
nan

>  <Num_Not_Resolved_Atoms>  (671) 
nan

$$$$
CHEMBL242206
     RDKit          3D

  0  0  0  0  0  0  0  0  0  0999 V3000
M  V30 BEGIN CTAB
M  V30 COUNTS 47 50 0 0 0
M  V30 BEGIN ATOM
M  V30 1 C -3.497411 -0.833180 3.900517 0
M  V30 2 S -2.470253 -2.255256 3.675032 0 CHG=1 VAL=3
M  V30 3 O -3.358257 -3.573763 3.130140 0 CHG=-1 VAL=1
M  V30 4 C -1.194914 -1.964537 2.522156 0
M  V30 5 C 0.023348 -1.468170 2.917373 0
M  V30 6 C 1.112535 -1.192650 2.129818 0
M  V30 7 N 2.360292 -0.672710 2.527136 0
M  V30 8 C 2.758361 -0.279721 3.859079 0
M  V30 9 C 1.982520 0.900469 4.326148 0
M  V30 10 C 2.451013 2.181395 4.023821 0
M  V30 11 N 1.632191 3.102213 4.524469 0
M  V30 12 C 0.635665 2.469614 5.149445 0
M  V30 13 N 0.863358 1.154047 5.019596 0
M  V30 14 C 0.897972 -1.470157 0.773347 0
M  V30 15 C -0.296454 -1.966867 0.318835 0
M  V30 16 C -0.505465 -2.242500 -1.034086 0
M  V30 17 N 0.544115 -2.003510 -1.965214 0
M  V30 18 C 0.716273 -0.757220 -2.625921 0
M  V30 19 C -0.116948 0.319192 -2.452595 0
M  V30 20 C 0.000793 1.551675 -3.060089 0
M  V30 21 C 1.063374 1.703457 -3.923305 0
M  V30 22 F 1.216188 2.906921 -4.544318 0
M  V30 23 C 1.930724 0.641303 -4.128664 0
M  V30 24 Cl 3.279151 0.866875 -5.237173 0
M  V30 25 C 1.769762 -0.581828 -3.492309 0
M  V30 26 C -1.739754 -2.743337 -1.419545 0
M  V30 27 C -1.928404 -3.018744 -2.827442 0
M  V30 28 N -2.074019 -3.232924 -3.961232 0
M  V30 29 C -2.768644 -2.976958 -0.499502 0
M  V30 30 N -2.543021 -2.703892 0.797799 0
M  V30 31 C -1.345571 -2.217603 1.174973 0
M  V30 32 H -4.525689 -0.948813 3.557911 0
M  V30 33 H -3.429745 -0.540531 4.963999 0
M  V30 34 H -3.031470 -0.001577 3.302165 0
M  V30 35 H 0.135143 -1.280401 3.978303 0
M  V30 36 H 3.101812 -0.544265 1.800920 0
M  V30 37 H 3.826135 -0.043330 3.934981 0
M  V30 38 H 2.616538 -1.142338 4.583937 0
M  V30 39 H 3.316803 2.565077 3.482710 0
M  V30 40 H 1.527066 4.150364 4.579529 0
M  V30 41 H -0.295032 2.564433 5.725925 0
M  V30 42 H 1.642989 -1.316348 0.004360 0
M  V30 43 H 1.177257 -2.786341 -2.137407 0
M  V30 44 H -0.948342 0.159666 -1.759671 0
M  V30 45 H -0.735172 2.310157 -2.825473 0
M  V30 46 H 2.504285 -1.355625 -3.717845 0
M  V30 47 H -3.691013 -3.376036 -0.951032 0
M  V30 END ATOM
M  V30 BEGIN BOND
M  V30 1 1 1 2
M  V30 2 1 2 3
M  V30 3 1 2 4
M  V30 4 2 4 5
M  V30 5 1 5 6
M  V30 6 1 6 7
M  V30 7 1 7 8
M  V30 8 1 8 9
M  V30 9 2 9 10
M  V30 10 1 10 11
M  V30 11 1 11 12
M  V30 12 2 12 13
M  V30 13 2 6 14
M  V30 14 1 14 15
M  V30 15 2 15 16
M  V30 16 1 16 17
M  V30 17 1 17 18
M  V30 18 2 18 19
M  V30 19 1 19 20
M  V30 20 2 20 21
M  V30 21 1 21 22
M  V30 22 1 21 23
M  V30 23 1 23 24
M  V30 24 2 23 25
M  V30 25 1 16 26
M  V30 26 1 26 27
M  V30 27 3 27 28
M  V30 28 2 26 29
M  V30 29 1 29 30
M  V30 30 2 30 31
M  V30 31 1 31 4
M  V30 32 1 13 9
M  V30 33 1 31 15
M  V30 34 1 25 18
M  V30 35 1 1 32
M  V30 36 1 1 33
M  V30 37 1 1 34
M  V30 38 1 5 35
M  V30 39 1 7 36
M  V30 40 1 8 37
M  V30 41 1 8 38
M  V30 42 1 10 39
M  V30 43 1 11 40
M  V30 44 1 12 41
M  V30 45 1 14 42
M  V30 46 1 17 43
M  V30 47 1 19 44
M  V30 48 1 20 45
M  V30 49 1 25 46
M  V30 50 1 29 47
M  V30 END BOND
M  V30 END CTAB
M  END
>  <Dataset>  (672) 
ChEMBL_Kinases

>  <Ligand_Instance>  (672) 
nan

>  <PDB_ID>  (672) 
nan

>  <Standardized_SMILES>  (672) 
C[S+]([O-])c1cc(NCc2c[nH]cn2)cc2c(Nc3ccc(F)c(Cl)c3)c(C#N)cnc12

>  <Name>  (672) 
nan

>  <Pocket>  (672) 
nan

>  <ATP_Site>  (672) 
nan

>  <Peripheral>  (672) 
nan

>  <Num_H_Atoms_ProtBoundConf>  (672) 
nan

>  <Num_Resolved_Atoms>  (672) 
nan

>  <Num_Not_Resolved_Atoms>  (672) 
nan

$$$$
CHEMBL242184
     RDKit          3D

  0  0  0  0  0  0  0  0  0  0999 V3000
M  V30 BEGIN CTAB
M  V30 COUNTS 41 44 0 0 0
M  V30 BEGIN ATOM
M  V30 1 C 2.934921 -4.760109 2.160523 0
M  V30 2 O 1.718534 -5.429171 1.927945 0
M  V30 3 C 0.623351 -4.867304 1.331041 0
M  V30 4 C 0.662072 -3.533132 0.901747 0
M  V30 5 C -0.451123 -2.983809 0.301967 0
M  V30 6 C -0.531696 -1.595287 -0.183108 0
M  V30 7 C -1.265965 -1.121778 -1.250774 0
M  V30 8 C -1.226157 0.223122 -1.560949 0
M  V30 9 C -0.467863 1.100733 -0.825219 0
M  V30 10 C 0.268705 0.634487 0.243349 0
M  V30 11 C 0.242265 -0.700890 0.567953 0
M  V30 12 N 1.119124 1.360173 1.140309 0
M  V30 13 C 1.047522 2.771346 1.435828 0
M  V30 14 C 1.643547 3.062639 2.653143 0
M  V30 15 C 1.676942 4.382426 3.118700 0
M  V30 16 C 1.091298 5.318336 2.295183 0
M  V30 17 C 0.482006 5.105540 1.076693 0
M  V30 18 C 0.481604 3.769274 0.668567 0
M  V30 19 N -0.169129 3.673875 -0.592132 0
M  V30 20 C -0.555328 2.489846 -1.308920 0
M  V30 21 O -1.024243 2.566327 -2.472403 0
M  V30 22 C -1.632547 -3.687329 0.093261 0
M  V30 23 C -1.681736 -5.004034 0.512978 0
M  V30 24 C -0.561115 -5.539489 1.111074 0
M  V30 25 C -0.567123 -6.921606 1.569267 0
M  V30 26 N -0.580175 -8.027662 1.954000 0
M  V30 27 H 3.366291 -4.508736 1.147136 0
M  V30 28 H 3.630779 -5.499983 2.605607 0
M  V30 29 H 2.839454 -3.824266 2.713944 0
M  V30 30 H 1.543923 -2.901443 1.021687 0
M  V30 31 H -1.828447 -1.866058 -1.771770 0
M  V30 32 H -1.813838 0.564101 -2.405912 0
M  V30 33 H 0.846979 -1.024587 1.429302 0
M  V30 34 H 1.853277 0.833488 1.624379 0
M  V30 35 H 2.072968 2.266259 3.223559 0
M  V30 36 H 2.129540 4.623453 4.049781 0
M  V30 37 H 1.098802 6.365033 2.628388 0
M  V30 38 H 0.052524 5.920271 0.512109 0
M  V30 39 H -0.413713 4.547348 -1.090849 0
M  V30 40 H -2.515969 -3.277095 -0.374535 0
M  V30 41 H -2.587427 -5.600359 0.372232 0
M  V30 END ATOM
M  V30 BEGIN BOND
M  V30 1 1 1 2
M  V30 2 1 2 3
M  V30 3 2 3 4
M  V30 4 1 4 5
M  V30 5 1 5 6
M  V30 6 2 6 7
M  V30 7 1 7 8
M  V30 8 2 8 9
M  V30 9 1 9 10
M  V30 10 2 10 11
M  V30 11 1 10 12
M  V30 12 1 12 13
M  V30 13 2 13 14
M  V30 14 1 14 15
M  V30 15 2 15 16
M  V30 16 1 16 17
M  V30 17 2 17 18
M  V30 18 1 18 19
M  V30 19 1 19 20
M  V30 20 2 20 21
M  V30 21 2 5 22
M  V30 22 1 22 23
M  V30 23 2 23 24
M  V30 24 1 24 25
M  V30 25 3 25 26
M  V30 26 1 24 3
M  V30 27 1 11 6
M  V30 28 1 18 13
M  V30 29 1 20 9
M  V30 30 1 1 27
M  V30 31 1 1 28
M  V30 32 1 1 29
M  V30 33 1 4 30
M  V30 34 1 7 31
M  V30 35 1 8 32
M  V30 36 1 11 33
M  V30 37 1 12 34
M  V30 38 1 14 35
M  V30 39 1 15 36
M  V30 40 1 16 37
M  V30 41 1 17 38
M  V30 42 1 19 39
M  V30 43 1 22 40
M  V30 44 1 23 41
M  V30 END BOND
M  V30 END CTAB
M  END
>  <Dataset>  (673) 
ChEMBL_Kinases

>  <Ligand_Instance>  (673) 
nan

>  <PDB_ID>  (673) 
nan

>  <Standardized_SMILES>  (673) 
COc1cc(-c2ccc3c(c2)Nc2ccccc2NC3=O)ccc1C#N

>  <Name>  (673) 
nan

>  <Pocket>  (673) 
nan

>  <ATP_Site>  (673) 
nan

>  <Peripheral>  (673) 
nan

>  <Num_H_Atoms_ProtBoundConf>  (673) 
nan

>  <Num_Resolved_Atoms>  (673) 
nan

>  <Num_Not_Resolved_Atoms>  (673) 
nan

$$$$
CHEMBL2420904
     RDKit          3D

  0  0  0  0  0  0  0  0  0  0999 V3000
M  V30 BEGIN CTAB
M  V30 COUNTS 43 46 0 0 0
M  V30 BEGIN ATOM
M  V30 1 O -0.602053 -4.394566 3.828451 0
M  V30 2 C 0.114235 -4.635722 2.807886 0
M  V30 3 O 1.292450 -5.334896 3.066971 0
M  V30 4 C -0.033661 -4.327740 1.364646 0
M  V30 5 C 1.089276 -3.486504 0.829912 0
M  V30 6 C 1.031735 -2.055490 1.269500 0
M  V30 7 C -0.326894 -1.414435 1.138402 0
M  V30 8 C -0.695928 -1.091357 -0.269437 0
M  V30 9 C -0.422617 0.311175 -0.713047 0
M  V30 10 N -0.518129 1.283917 0.355564 0
M  V30 11 C 0.098837 2.550044 0.151722 0
M  V30 12 N -0.557946 3.737949 0.166385 0
M  V30 13 C 0.121181 4.897935 -0.039350 0
M  V30 14 N 1.463676 4.889640 -0.262407 0
M  V30 15 C 2.125561 3.697879 -0.277613 0
M  V30 16 N 3.433976 3.379424 -0.470257 0
M  V30 17 C 3.590860 2.033857 -0.389041 0
M  V30 18 N 2.376494 1.507801 -0.144689 0
M  V30 19 C 1.461201 2.486692 -0.070255 0
M  V30 20 C -1.258672 0.803121 1.522033 0
M  V30 21 C -0.324440 -0.244307 2.091264 0
M  V30 22 N -1.310455 -2.337205 1.681529 0
M  V30 23 C -1.317550 -3.622384 1.061614 0
M  V30 24 H 1.538122 -5.616601 4.028899 0
M  V30 25 H -0.020778 -5.296836 0.818237 0
M  V30 26 H 1.048132 -3.517392 -0.270527 0
M  V30 27 H 2.066412 -3.882712 1.147720 0
M  V30 28 H 1.767002 -1.486549 0.677209 0
M  V30 29 H 1.331644 -2.013023 2.340181 0
M  V30 30 H -1.776845 -1.312131 -0.447755 0
M  V30 31 H -0.138596 -1.788223 -0.932586 0
M  V30 32 H -1.182445 0.628172 -1.470571 0
M  V30 33 H 0.548487 0.359574 -1.264513 0
M  V30 34 H -0.370829 5.844035 -0.032861 0
M  V30 35 H 4.140863 4.131448 -0.648075 0
M  V30 36 H 4.576220 1.605626 -0.519082 0
M  V30 37 H -2.163935 0.314465 1.155427 0
M  V30 38 H -1.452140 1.623083 2.241111 0
M  V30 39 H -0.618225 -0.548701 3.114303 0
M  V30 40 H 0.717415 0.177774 2.146980 0
M  V30 41 H -1.270960 -2.458542 2.696781 0
M  V30 42 H -1.418233 -3.602424 -0.040737 0
M  V30 43 H -2.177484 -4.175255 1.448868 0
M  V30 END ATOM
M  V30 BEGIN BOND
M  V30 1 2 1 2
M  V30 2 1 2 3
M  V30 3 1 2 4
M  V30 4 1 4 5
M  V30 5 1 5 6
M  V30 6 1 6 7
M  V30 7 1 7 8
M  V30 8 1 8 9
M  V30 9 1 9 10
M  V30 10 1 10 11
M  V30 11 2 11 12
M  V30 12 1 12 13
M  V30 13 2 13 14
M  V30 14 1 14 15
M  V30 15 1 15 16
M  V30 16 1 16 17
M  V30 17 2 17 18
M  V30 18 1 18 19
M  V30 19 1 10 20
M  V30 20 1 20 21
M  V30 21 1 7 22
M  V30 22 1 22 23
M  V30 23 1 23 4
M  V30 24 1 21 7
M  V30 25 1 19 11
M  V30 26 2 19 15
M  V30 27 1 3 24
M  V30 28 1 4 25
M  V30 29 1 5 26
M  V30 30 1 5 27
M  V30 31 1 6 28
M  V30 32 1 6 29
M  V30 33 1 8 30
M  V30 34 1 8 31
M  V30 35 1 9 32
M  V30 36 1 9 33
M  V30 37 1 13 34
M  V30 38 1 16 35
M  V30 39 1 17 36
M  V30 40 1 20 37
M  V30 41 1 20 38
M  V30 42 1 21 39
M  V30 43 1 21 40
M  V30 44 1 22 41
M  V30 45 1 23 42
M  V30 46 1 23 43
M  V30 END BOND
M  V30 END CTAB
M  END
>  <Dataset>  (674) 
ChEMBL_Kinases

>  <Ligand_Instance>  (674) 
nan

>  <PDB_ID>  (674) 
nan

>  <Standardized_SMILES>  (674) 
O=C(O)C1CCC2(CCN(c3ncnc4[nH]cnc34)CC2)NC1

>  <Name>  (674) 
nan

>  <Pocket>  (674) 
nan

>  <ATP_Site>  (674) 
nan

>  <Peripheral>  (674) 
nan

>  <Num_H_Atoms_ProtBoundConf>  (674) 
nan

>  <Num_Resolved_Atoms>  (674) 
nan

>  <Num_Not_Resolved_Atoms>  (674) 
nan

$$$$
CHEMBL2420588
     RDKit          3D

  0  0  0  0  0  0  0  0  0  0999 V3000
M  V30 BEGIN CTAB
M  V30 COUNTS 43 46 0 0 0
M  V30 BEGIN ATOM
M  V30 1 N 1.622641 -6.869471 0.516537 0
M  V30 2 C 1.792872 -5.472138 0.211283 0
M  V30 3 O 2.814256 -5.160922 -0.470201 0
M  V30 4 C 0.782652 -4.534247 0.708105 0
M  V30 5 C -0.294472 -4.966324 1.446456 0
M  V30 6 C -1.234218 -4.060570 1.902944 0
M  V30 7 C -1.026829 -2.733648 1.578941 0
M  V30 8 C 0.029310 -2.236058 0.844177 0
M  V30 9 C 0.940772 -3.186244 0.411870 0
M  V30 10 N 0.146399 -0.920224 0.578360 0
M  V30 11 C -0.767596 -0.039830 1.022500 0
M  V30 12 N -0.670268 1.356427 0.757122 0
M  V30 13 C 0.451244 1.854206 -0.018365 0 CFG=1
M  V30 14 C 0.290556 3.340873 -0.140262 0
M  V30 15 C 1.515131 4.063346 -0.604701 0
M  V30 16 C 2.800813 3.429238 -0.158637 0 CFG=2
M  V30 17 O 3.214582 2.555399 -1.163653 0
M  V30 18 C 2.515034 2.648026 1.101569 0
M  V30 19 C 1.708438 1.431039 0.665785 0
M  V30 20 C -1.805787 -0.567066 1.750295 0
M  V30 21 N -2.848841 0.084196 2.308871 0
M  V30 22 C -3.659279 -0.785726 2.943986 0
M  V30 23 C -3.075451 -2.013656 2.757682 0
M  V30 24 N -1.945632 -1.872810 2.028977 0
M  V30 25 H 1.813925 -6.980512 1.554036 0
M  V30 26 H 1.358446 -7.548630 -0.233090 0
M  V30 27 H -0.383098 -6.022962 1.656374 0
M  V30 28 H -2.083664 -4.382154 2.482477 0
M  V30 29 H 1.797349 -2.855163 -0.173355 0
M  V30 30 H -1.417503 1.977197 1.134077 0
M  V30 31 H 0.365855 1.352518 -1.023403 0
M  V30 32 H -0.103336 3.783638 0.801468 0
M  V30 33 H -0.510090 3.526367 -0.890639 0
M  V30 34 H 1.504983 5.085435 -0.156101 0
M  V30 35 H 1.561834 4.206027 -1.703487 0
M  V30 36 H 3.617072 4.195067 -0.015853 0
M  V30 37 H 4.072852 2.113580 -0.985837 0
M  V30 38 H 1.846404 3.286929 1.741849 0
M  V30 39 H 3.419761 2.322765 1.615599 0
M  V30 40 H 2.354578 0.898413 -0.064003 0
M  V30 41 H 1.542865 0.752515 1.531591 0
M  V30 42 H -4.578716 -0.498690 3.478146 0
M  V30 43 H -3.500877 -2.935537 3.159299 0
M  V30 END ATOM
M  V30 BEGIN BOND
M  V30 1 1 1 2
M  V30 2 2 2 3
M  V30 3 1 2 4
M  V30 4 2 4 5
M  V30 5 1 5 6
M  V30 6 2 6 7
M  V30 7 1 7 8
M  V30 8 2 8 9
M  V30 9 1 8 10
M  V30 10 2 10 11
M  V30 11 1 11 12
M  V30 12 1 12 13
M  V30 13 1 13 14
M  V30 14 1 14 15
M  V30 15 1 15 16
M  V30 16 1 16 17
M  V30 17 1 16 18
M  V30 18 1 18 19
M  V30 19 1 11 20
M  V30 20 2 20 21
M  V30 21 1 21 22
M  V30 22 2 22 23
M  V30 23 1 23 24
M  V30 24 1 9 4
M  V30 25 1 19 13
M  V30 26 1 24 20
M  V30 27 1 24 7
M  V30 28 1 1 25
M  V30 29 1 1 26
M  V30 30 1 5 27
M  V30 31 1 6 28
M  V30 32 1 9 29
M  V30 33 1 12 30
M  V30 34 1 13 31 CFG=3
M  V30 35 1 14 32
M  V30 36 1 14 33
M  V30 37 1 15 34
M  V30 38 1 15 35
M  V30 39 1 16 36 CFG=1
M  V30 40 1 17 37
M  V30 41 1 18 38
M  V30 42 1 18 39
M  V30 43 1 19 40
M  V30 44 1 19 41
M  V30 45 1 22 42
M  V30 46 1 23 43
M  V30 END BOND
M  V30 END CTAB
M  END
>  <Dataset>  (675) 
ChEMBL_Kinases

>  <Ligand_Instance>  (675) 
nan

>  <PDB_ID>  (675) 
nan

>  <Standardized_SMILES>  (675) 
NC(=O)c1ccc2c(c1)nc(N[C@H]1CC[C@H](O)CC1)c1nccn12

>  <Name>  (675) 
nan

>  <Pocket>  (675) 
nan

>  <ATP_Site>  (675) 
nan

>  <Peripheral>  (675) 
nan

>  <Num_H_Atoms_ProtBoundConf>  (675) 
nan

>  <Num_Resolved_Atoms>  (675) 
nan

>  <Num_Not_Resolved_Atoms>  (675) 
nan

$$$$
CHEMBL2420587
     RDKit          3D

  0  0  0  0  0  0  0  0  0  0999 V3000
M  V30 BEGIN CTAB
M  V30 COUNTS 43 46 0 0 0
M  V30 BEGIN ATOM
M  V30 1 N 0.427947 -6.833489 2.923489 0
M  V30 2 C 1.364094 -5.783875 3.119600 0
M  V30 3 O 2.406451 -5.962872 3.823037 0
M  V30 4 C 1.149258 -4.478861 2.518175 0
M  V30 5 C 2.103449 -3.489253 2.746843 0
M  V30 6 C 1.886531 -2.266412 2.173713 0
M  V30 7 C 0.780937 -1.977444 1.392008 0
M  V30 8 N 0.670085 -0.733716 0.876379 0
M  V30 9 C -0.415050 -0.483478 0.121154 0
M  V30 10 N -0.578157 0.811314 -0.444844 0
M  V30 11 C 0.399123 1.859751 -0.222920 0 CFG=1
M  V30 12 C 0.007216 3.143271 -0.926225 0
M  V30 13 C 1.176775 4.076848 -0.922643 0
M  V30 14 C 2.036089 3.952140 0.319190 0 CFG=2
M  V30 15 O 3.123940 3.125631 0.131803 0
M  V30 16 C 1.129975 3.547192 1.446114 0
M  V30 17 C 0.471258 2.214679 1.259173 0
M  V30 18 C -1.377021 -1.441452 -0.123677 0
M  V30 19 N -2.528668 -1.423489 -0.836040 0
M  V30 20 C -3.086165 -2.653647 -0.734964 0
M  V30 21 C -2.262947 -3.426505 0.047814 0
M  V30 22 N -1.218612 -2.665997 0.414196 0
M  V30 23 C -0.148868 -2.981974 1.183655 0
M  V30 24 C 0.036448 -4.236778 1.748922 0
M  V30 25 H -0.004013 -7.025511 3.847603 0
M  V30 26 H 0.109478 -7.411052 2.091411 0
M  V30 27 H 2.983644 -3.693773 3.359983 0
M  V30 28 H 2.642895 -1.521871 2.369341 0
M  V30 29 H -1.405582 1.045235 -1.036384 0
M  V30 30 H 1.361138 1.487673 -0.622394 0
M  V30 31 H -0.267089 2.894202 -1.975098 0
M  V30 32 H -0.868425 3.593793 -0.408270 0
M  V30 33 H 1.753573 4.043938 -1.863848 0
M  V30 34 H 0.758868 5.125083 -0.879255 0
M  V30 35 H 2.451679 4.948199 0.601275 0
M  V30 36 H 3.444481 3.214930 -0.792880 0
M  V30 37 H 0.444568 4.382625 1.653158 0
M  V30 38 H 1.786163 3.460808 2.359236 0
M  V30 39 H 0.972506 1.422149 1.837115 0
M  V30 40 H -0.601029 2.253928 1.590723 0
M  V30 41 H -4.008235 -3.030933 -1.164352 0
M  V30 42 H -2.431033 -4.457157 0.315757 0
M  V30 43 H -0.702712 -5.003231 1.571718 0
M  V30 END ATOM
M  V30 BEGIN BOND
M  V30 1 1 1 2
M  V30 2 2 2 3
M  V30 3 1 2 4
M  V30 4 2 4 5
M  V30 5 1 5 6
M  V30 6 2 6 7
M  V30 7 1 7 8
M  V30 8 2 8 9
M  V30 9 1 9 10
M  V30 10 1 10 11
M  V30 11 1 11 12
M  V30 12 1 12 13
M  V30 13 1 13 14
M  V30 14 1 14 15
M  V30 15 1 14 16
M  V30 16 1 16 17
M  V30 17 1 9 18
M  V30 18 2 18 19
M  V30 19 1 19 20
M  V30 20 2 20 21
M  V30 21 1 21 22
M  V30 22 1 22 23
M  V30 23 2 23 24
M  V30 24 1 24 4
M  V30 25 1 23 7
M  V30 26 1 17 11
M  V30 27 1 22 18
M  V30 28 1 1 25
M  V30 29 1 1 26
M  V30 30 1 5 27
M  V30 31 1 6 28
M  V30 32 1 10 29
M  V30 33 1 11 30 CFG=3
M  V30 34 1 12 31
M  V30 35 1 12 32
M  V30 36 1 13 33
M  V30 37 1 13 34
M  V30 38 1 14 35 CFG=1
M  V30 39 1 15 36
M  V30 40 1 16 37
M  V30 41 1 16 38
M  V30 42 1 17 39
M  V30 43 1 17 40
M  V30 44 1 20 41
M  V30 45 1 21 42
M  V30 46 1 24 43
M  V30 END BOND
M  V30 END CTAB
M  END
>  <Dataset>  (676) 
ChEMBL_Kinases

>  <Ligand_Instance>  (676) 
nan

>  <PDB_ID>  (676) 
nan

>  <Standardized_SMILES>  (676) 
NC(=O)c1ccc2nc(N[C@H]3CC[C@H](O)CC3)c3nccn3c2c1

>  <Name>  (676) 
nan

>  <Pocket>  (676) 
nan

>  <ATP_Site>  (676) 
nan

>  <Peripheral>  (676) 
nan

>  <Num_H_Atoms_ProtBoundConf>  (676) 
nan

>  <Num_Resolved_Atoms>  (676) 
nan

>  <Num_Not_Resolved_Atoms>  (676) 
nan

$$$$
CHEMBL2420586
     RDKit          3D

  0  0  0  0  0  0  0  0  0  0999 V3000
M  V30 BEGIN CTAB
M  V30 COUNTS 42 45 0 0 0
M  V30 BEGIN ATOM
M  V30 1 O 3.712299 -2.717751 4.397404 0
M  V30 2 C 3.431655 -3.698858 3.660906 0
M  V30 3 O 3.958462 -4.925677 4.026765 0
M  V30 4 C 2.599866 -3.636440 2.462109 0
M  V30 5 C 2.309313 -4.740754 1.670279 0
M  V30 6 C 1.507065 -4.562982 0.552580 0
M  V30 7 C 1.008415 -3.314629 0.234641 0
M  V30 8 C 1.310067 -2.226274 1.037496 0
M  V30 9 C 2.105306 -2.360619 2.159340 0
M  V30 10 N 0.796631 -1.024788 0.682236 0
M  V30 11 C 0.019578 -0.856451 -0.401874 0
M  V30 12 N -0.522640 0.405501 -0.779623 0
M  V30 13 C -0.281244 1.618043 -0.022933 0 CFG=1
M  V30 14 C -0.955253 2.816233 -0.627602 0
M  V30 15 C -0.782350 4.052442 0.183215 0
M  V30 16 C -0.238440 3.774743 1.562839 0 CFG=2
M  V30 17 O 1.122157 3.507315 1.573820 0
M  V30 18 C -1.072724 2.634223 2.123575 0
M  V30 19 C -0.726650 1.354130 1.395572 0
M  V30 20 C -0.253728 -1.968216 -1.170902 0
M  V30 21 N -0.997880 -2.101685 -2.306577 0
M  V30 22 C -0.993092 -3.380566 -2.722979 0
M  V30 23 C -0.210818 -4.046883 -1.796169 0
M  V30 24 N 0.232363 -3.185463 -0.860929 0
M  V30 25 H 4.274838 -5.156842 4.962776 0
M  V30 26 H 2.718976 -5.702225 1.952848 0
M  V30 27 H 1.307356 -5.464197 -0.038635 0
M  V30 28 H 2.333083 -1.499490 2.778610 0
M  V30 29 H -1.109389 0.492102 -1.612698 0
M  V30 30 H 0.814393 1.793226 -0.051821 0
M  V30 31 H -0.488399 3.005865 -1.616244 0
M  V30 32 H -2.014700 2.551534 -0.828586 0
M  V30 33 H -1.814307 4.475841 0.361082 0
M  V30 34 H -0.134099 4.817198 -0.298619 0
M  V30 35 H -0.402600 4.641648 2.224399 0
M  V30 36 H 1.354571 2.797962 2.224204 0
M  V30 37 H -2.127777 2.865184 1.869363 0
M  V30 38 H -1.004495 2.537980 3.212395 0
M  V30 39 H -1.548072 0.619322 1.366198 0
M  V30 40 H 0.130728 0.884573 1.928579 0
M  V30 41 H -1.510768 -3.741209 -3.601676 0
M  V30 42 H 0.007196 -5.125614 -1.833648 0
M  V30 END ATOM
M  V30 BEGIN BOND
M  V30 1 2 1 2
M  V30 2 1 2 3
M  V30 3 1 2 4
M  V30 4 2 4 5
M  V30 5 1 5 6
M  V30 6 2 6 7
M  V30 7 1 7 8
M  V30 8 2 8 9
M  V30 9 1 8 10
M  V30 10 2 10 11
M  V30 11 1 11 12
M  V30 12 1 12 13
M  V30 13 1 13 14
M  V30 14 1 14 15
M  V30 15 1 15 16
M  V30 16 1 16 17
M  V30 17 1 16 18
M  V30 18 1 18 19
M  V30 19 1 11 20
M  V30 20 2 20 21
M  V30 21 1 21 22
M  V30 22 2 22 23
M  V30 23 1 23 24
M  V30 24 1 9 4
M  V30 25 1 19 13
M  V30 26 1 24 20
M  V30 27 1 24 7
M  V30 28 1 3 25
M  V30 29 1 5 26
M  V30 30 1 6 27
M  V30 31 1 9 28
M  V30 32 1 12 29
M  V30 33 1 13 30 CFG=1
M  V30 34 1 14 31
M  V30 35 1 14 32
M  V30 36 1 15 33
M  V30 37 1 15 34
M  V30 38 1 16 35 CFG=1
M  V30 39 1 17 36
M  V30 40 1 18 37
M  V30 41 1 18 38
M  V30 42 1 19 39
M  V30 43 1 19 40
M  V30 44 1 22 41
M  V30 45 1 23 42
M  V30 END BOND
M  V30 END CTAB
M  END
>  <Dataset>  (677) 
ChEMBL_Kinases

>  <Ligand_Instance>  (677) 
nan

>  <PDB_ID>  (677) 
nan

>  <Standardized_SMILES>  (677) 
O=C(O)c1ccc2c(c1)nc(N[C@H]1CC[C@H](O)CC1)c1nccn12

>  <Name>  (677) 
nan

>  <Pocket>  (677) 
nan

>  <ATP_Site>  (677) 
nan

>  <Peripheral>  (677) 
nan

>  <Num_H_Atoms_ProtBoundConf>  (677) 
nan

>  <Num_Resolved_Atoms>  (677) 
nan

>  <Num_Not_Resolved_Atoms>  (677) 
nan

$$$$
CHEMBL2420585
     RDKit          3D

  0  0  0  0  0  0  0  0  0  0999 V3000
M  V30 BEGIN CTAB
M  V30 COUNTS 42 45 0 0 0
M  V30 BEGIN ATOM
M  V30 1 O -0.099453 -6.011731 4.045102 0
M  V30 2 C -0.219112 -5.917336 2.812047 0
M  V30 3 O -0.482190 -6.969209 1.965148 0
M  V30 4 C -0.056881 -4.556245 2.279820 0
M  V30 5 C 0.206614 -3.510038 3.139014 0
M  V30 6 C 0.364033 -2.208501 2.651101 0
M  V30 7 C 0.247903 -2.002967 1.285833 0
M  V30 8 N 0.394075 -0.762773 0.785981 0
M  V30 9 C 0.284431 -0.546432 -0.535991 0
M  V30 10 N 0.445501 0.781925 -1.029889 0
M  V30 11 C 0.716448 1.857637 -0.145798 0 CFG=1
M  V30 12 C -0.333580 2.108184 0.917759 0
M  V30 13 C -0.063857 3.482835 1.472424 0
M  V30 14 C 1.342489 3.709609 1.904319 0 CFG=2
M  V30 15 O 1.576524 5.103939 1.832254 0
M  V30 16 C 2.394399 3.080395 1.054169 0
M  V30 17 C 1.993971 1.663819 0.672790 0
M  V30 18 C 0.018312 -1.600426 -1.407701 0
M  V30 19 N -0.133124 -1.626758 -2.752439 0
M  V30 20 C -0.378903 -2.914574 -3.092267 0
M  V30 21 C -0.379648 -3.687941 -1.954542 0
M  V30 22 N -0.131345 -2.858059 -0.913879 0
M  V30 23 C -0.018806 -3.063698 0.418738 0
M  V30 24 C -0.174483 -4.351602 0.902389 0
M  V30 25 H -0.813050 -7.842267 2.354325 0
M  V30 26 H 0.300703 -3.659027 4.219200 0
M  V30 27 H 0.573339 -1.339350 3.277090 0
M  V30 28 H 0.356445 0.940910 -2.078924 0
M  V30 29 H 0.780352 2.814927 -0.731559 0
M  V30 30 H -0.310525 1.367917 1.738339 0
M  V30 31 H -1.335495 2.111855 0.462028 0
M  V30 32 H -0.730035 3.667225 2.341148 0
M  V30 33 H -0.349727 4.221735 0.683345 0
M  V30 34 H 1.479546 3.461410 2.980293 0
M  V30 35 H 1.537190 5.380062 0.863612 0
M  V30 36 H 3.355348 3.126007 1.562903 0
M  V30 37 H 2.443307 3.659203 0.091582 0
M  V30 38 H 2.771590 1.140271 0.121006 0
M  V30 39 H 1.759075 1.107794 1.607698 0
M  V30 40 H -0.534170 -3.175399 -4.124928 0
M  V30 41 H -0.549523 -4.754570 -1.928093 0
M  V30 42 H -0.382794 -5.221301 0.286264 0
M  V30 END ATOM
M  V30 BEGIN BOND
M  V30 1 2 1 2
M  V30 2 1 2 3
M  V30 3 1 2 4
M  V30 4 2 4 5
M  V30 5 1 5 6
M  V30 6 2 6 7
M  V30 7 1 7 8
M  V30 8 2 8 9
M  V30 9 1 9 10
M  V30 10 1 10 11
M  V30 11 1 11 12
M  V30 12 1 12 13
M  V30 13 1 13 14
M  V30 14 1 14 15
M  V30 15 1 14 16
M  V30 16 1 16 17
M  V30 17 1 9 18
M  V30 18 2 18 19
M  V30 19 1 19 20
M  V30 20 2 20 21
M  V30 21 1 21 22
M  V30 22 1 22 23
M  V30 23 2 23 24
M  V30 24 1 24 4
M  V30 25 1 23 7
M  V30 26 1 17 11
M  V30 27 1 22 18
M  V30 28 1 3 25
M  V30 29 1 5 26
M  V30 30 1 6 27
M  V30 31 1 10 28
M  V30 32 1 11 29 CFG=3
M  V30 33 1 12 30
M  V30 34 1 12 31
M  V30 35 1 13 32
M  V30 36 1 13 33
M  V30 37 1 14 34 CFG=1
M  V30 38 1 15 35
M  V30 39 1 16 36
M  V30 40 1 16 37
M  V30 41 1 17 38
M  V30 42 1 17 39
M  V30 43 1 20 40
M  V30 44 1 21 41
M  V30 45 1 24 42
M  V30 END BOND
M  V30 END CTAB
M  END
>  <Dataset>  (678) 
ChEMBL_Kinases

>  <Ligand_Instance>  (678) 
nan

>  <PDB_ID>  (678) 
nan

>  <Standardized_SMILES>  (678) 
O=C(O)c1ccc2nc(N[C@H]3CC[C@H](O)CC3)c3nccn3c2c1

>  <Name>  (678) 
nan

>  <Pocket>  (678) 
nan

>  <ATP_Site>  (678) 
nan

>  <Peripheral>  (678) 
nan

>  <Num_H_Atoms_ProtBoundConf>  (678) 
nan

>  <Num_Resolved_Atoms>  (678) 
nan

>  <Num_Not_Resolved_Atoms>  (678) 
nan

$$$$
CHEMBL242736
     RDKit          3D

  0  0  0  0  0  0  0  0  0  0999 V3000
M  V30 BEGIN CTAB
M  V30 COUNTS 55 59 0 0 0
M  V30 BEGIN ATOM
M  V30 1 C 3.492743 -4.973229 3.160428 0
M  V30 2 C 3.037688 -3.588261 3.626000 0 CFG=1
M  V30 3 C 4.257848 -2.764691 3.851261 0
M  V30 4 C 4.062781 -1.283881 3.768223 0
M  V30 5 C 3.435978 -1.053755 2.360974 0 CFG=2
M  V30 6 N 3.527811 0.305462 1.989579 0
M  V30 7 C 3.343459 0.674952 0.630825 0
M  V30 8 C 2.114176 0.250261 -0.041824 0
M  V30 9 C 2.132458 -0.932692 -0.798279 0
M  V30 10 C 0.963616 -1.316582 -1.429542 0
M  V30 11 C -0.147209 -0.535655 -1.290984 0
M  V30 12 C -0.174144 0.642513 -0.540452 0
M  V30 13 C 0.983400 1.061906 0.109985 0
M  V30 14 C -1.549102 1.228704 -0.614177 0
M  V30 15 C -2.274696 0.269975 -1.470466 0
M  V30 16 C -3.540425 0.066949 -2.017058 0
M  V30 17 C -4.767651 0.852709 -1.913706 0
M  V30 18 C -5.933809 0.157885 -1.671014 0
M  V30 19 C -7.136761 0.839466 -1.560830 0
M  V30 20 C -7.155973 2.218822 -1.696242 0
M  V30 21 O -8.373839 2.871102 -1.580910 0
M  V30 22 C -5.977456 2.905228 -1.939924 0
M  V30 23 C -4.767682 2.228086 -2.051565 0
M  V30 24 N -3.449355 -1.075067 -2.723230 0
M  V30 25 N -2.223786 -1.565347 -2.636701 0
M  V30 26 C -1.468480 -0.774978 -1.879190 0
M  V30 27 C 2.010121 -1.558340 2.577983 0
M  V30 28 C 2.091876 -3.053530 2.578548 0
M  V30 29 H 2.650312 -5.672669 3.056469 0
M  V30 30 H 4.273965 -5.310860 3.884750 0
M  V30 31 H 4.026449 -4.818527 2.187732 0
M  V30 32 H 2.445584 -3.762972 4.554536 0
M  V30 33 H 5.027887 -3.041619 3.101323 0
M  V30 34 H 4.641803 -3.010577 4.883435 0
M  V30 35 H 3.349029 -0.924329 4.529264 0
M  V30 36 H 5.044709 -0.802736 3.774905 0
M  V30 37 H 3.932454 -1.756906 1.682178 0
M  V30 38 H 3.240013 0.988179 2.693430 0
M  V30 39 H 3.376583 1.796988 0.588877 0
M  V30 40 H 4.202253 0.306946 0.003733 0
M  V30 41 H 3.021284 -1.512249 -0.879956 0
M  V30 42 H 0.972897 -2.222170 -2.010182 0
M  V30 43 H 1.025524 1.948734 0.695432 0
M  V30 44 H -1.446950 2.230216 -1.060541 0
M  V30 45 H -1.956662 1.292126 0.412815 0
M  V30 46 H -5.961744 -0.935147 -1.557311 0
M  V30 47 H -8.088352 0.325012 -1.368055 0
M  V30 48 H -9.044701 2.953684 -2.325833 0
M  V30 49 H -6.001257 3.965615 -2.042683 0
M  V30 50 H -3.827441 2.732669 -2.241671 0
M  V30 51 H -1.907974 -2.455123 -3.106468 0
M  V30 52 H 1.696018 -1.227877 3.594686 0
M  V30 53 H 1.293585 -1.221579 1.849552 0
M  V30 54 H 2.379121 -3.473121 1.607355 0
M  V30 55 H 1.067108 -3.430656 2.801759 0
M  V30 END ATOM
M  V30 BEGIN BOND
M  V30 1 1 1 2
M  V30 2 1 2 3
M  V30 3 1 3 4
M  V30 4 1 4 5
M  V30 5 1 5 6
M  V30 6 1 6 7
M  V30 7 1 7 8
M  V30 8 2 8 9
M  V30 9 1 9 10
M  V30 10 2 10 11
M  V30 11 1 11 12
M  V30 12 2 12 13
M  V30 13 1 12 14
M  V30 14 1 14 15
M  V30 15 1 15 16
M  V30 16 1 16 17
M  V30 17 2 17 18
M  V30 18 1 18 19
M  V30 19 2 19 20
M  V30 20 1 20 21
M  V30 21 1 20 22
M  V30 22 2 22 23
M  V30 23 2 16 24
M  V30 24 1 24 25
M  V30 25 1 25 26
M  V30 26 1 5 27
M  V30 27 1 27 28
M  V30 28 1 28 2
M  V30 29 1 13 8
M  V30 30 2 26 15
M  V30 31 1 26 11
M  V30 32 1 23 17
M  V30 33 1 1 29
M  V30 34 1 1 30
M  V30 35 1 1 31
M  V30 36 1 2 32 CFG=1
M  V30 37 1 3 33
M  V30 38 1 3 34
M  V30 39 1 4 35
M  V30 40 1 4 36
M  V30 41 1 5 37 CFG=3
M  V30 42 1 6 38
M  V30 43 1 7 39
M  V30 44 1 7 40
M  V30 45 1 9 41
M  V30 46 1 10 42
M  V30 47 1 13 43
M  V30 48 1 14 44
M  V30 49 1 14 45
M  V30 50 1 18 46
M  V30 51 1 19 47
M  V30 52 1 21 48
M  V30 53 1 22 49
M  V30 54 1 23 50
M  V30 55 1 25 51
M  V30 56 1 27 52
M  V30 57 1 27 53
M  V30 58 1 28 54
M  V30 59 1 28 55
M  V30 END BOND
M  V30 END CTAB
M  END
>  <Dataset>  (679) 
ChEMBL_Kinases

>  <Ligand_Instance>  (679) 
nan

>  <PDB_ID>  (679) 
nan

>  <Standardized_SMILES>  (679) 
C[C@H]1CC[C@H](NCc2ccc3c(c2)Cc2c(-c4ccc(O)cc4)n[nH]c2-3)CC1

>  <Name>  (679) 
nan

>  <Pocket>  (679) 
nan

>  <ATP_Site>  (679) 
nan

>  <Peripheral>  (679) 
nan

>  <Num_H_Atoms_ProtBoundConf>  (679) 
nan

>  <Num_Resolved_Atoms>  (679) 
nan

>  <Num_Not_Resolved_Atoms>  (679) 
nan

$$$$
CHEMBL2420563
     RDKit          3D

  0  0  0  0  0  0  0  0  0  0999 V3000
M  V30 BEGIN CTAB
M  V30 COUNTS 60 64 0 0 0
M  V30 BEGIN ATOM
M  V30 1 O 1.502347 3.282090 1.444984 0
M  V30 2 C 1.513772 2.102647 1.851166 0
M  V30 3 N 2.402530 1.729420 2.898618 0
M  V30 4 C 3.314269 2.680371 3.527046 0 CFG=1
M  V30 5 C 2.967025 2.679521 5.003088 0
M  V30 6 O 1.617492 3.081995 5.094901 0
M  V30 7 C 4.698018 2.140499 3.340741 0
M  V30 8 C 5.693167 2.072022 4.297430 0
M  V30 9 C 6.923095 1.542366 3.962602 0
M  V30 10 C 7.227846 1.066309 2.704073 0
M  V30 11 C 6.234605 1.132378 1.741477 0
M  V30 12 C 4.984792 1.665723 2.065012 0
M  V30 13 C 0.599669 1.159548 1.217497 0
M  V30 14 C -0.213508 1.639822 0.211625 0
M  V30 15 C -1.100569 0.755101 -0.413693 0
M  V30 16 C -1.194891 -0.563724 -0.069855 0
M  V30 17 N -2.064551 -1.379034 -0.700137 0
M  V30 18 C -2.172248 -2.679280 -0.376197 0
M  V30 19 N -3.076251 -3.568740 -1.017350 0
M  V30 20 C -3.951325 -3.119932 -2.080421 0 CFG=1
M  V30 21 C -3.195355 -2.581899 -3.276140 0
M  V30 22 C -4.223023 -2.098795 -4.276249 0
M  V30 23 C -4.960128 -3.330643 -4.803480 0 CFG=2
M  V30 24 O -5.804936 -3.026248 -5.850199 0
M  V30 25 C -5.772313 -3.832237 -3.602376 0
M  V30 26 C -4.842003 -4.250124 -2.509333 0
M  V30 27 C -1.340224 -3.112890 0.633603 0
M  V30 28 N -1.217810 -4.353463 1.176472 0
M  V30 29 C -0.283905 -4.351207 2.145936 0
M  V30 30 C 0.182516 -3.050249 2.194543 0
M  V30 31 N -0.476751 -2.332644 1.269196 0
M  V30 32 C -0.377970 -1.035448 0.937040 0
M  V30 33 C 0.501479 -0.173021 1.561918 0
M  V30 34 H 2.421549 0.745704 3.247320 0
M  V30 35 H 3.224543 3.683590 3.097047 0
M  V30 36 H 3.622122 3.356077 5.584423 0
M  V30 37 H 2.994597 1.629251 5.357826 0
M  V30 38 H 1.214038 2.733144 5.946481 0
M  V30 39 H 5.423883 2.451851 5.270377 0
M  V30 40 H 7.655952 1.520537 4.764924 0
M  V30 41 H 8.200720 0.662049 2.489112 0
M  V30 42 H 6.408821 0.772874 0.724488 0
M  V30 43 H 4.249249 1.692390 1.276192 0
M  V30 44 H -0.200961 2.678990 -0.123450 0
M  V30 45 H -1.733218 1.143397 -1.201199 0
M  V30 46 H -3.097695 -4.562982 -0.703930 0
M  V30 47 H -4.562649 -2.286261 -1.678439 0
M  V30 48 H -2.584463 -3.403897 -3.751952 0
M  V30 49 H -2.552884 -1.727168 -2.998652 0
M  V30 50 H -3.754712 -1.522708 -5.103429 0
M  V30 51 H -4.978115 -1.505460 -3.716309 0
M  V30 52 H -4.244601 -4.106317 -5.135965 0
M  V30 53 H -5.344690 -3.244051 -6.700421 0
M  V30 54 H -6.397239 -4.697843 -3.911826 0
M  V30 55 H -6.433874 -3.023357 -3.293428 0
M  V30 56 H -5.467323 -4.561216 -1.634874 0
M  V30 57 H -4.255451 -5.134338 -2.783859 0
M  V30 58 H -0.041628 -5.242017 2.696010 0
M  V30 59 H 0.961255 -2.732344 2.896953 0
M  V30 60 H 1.134587 -0.555092 2.347910 0
M  V30 END ATOM
M  V30 BEGIN BOND
M  V30 1 2 1 2
M  V30 2 1 2 3
M  V30 3 1 3 4
M  V30 4 1 4 5
M  V30 5 1 5 6
M  V30 6 1 4 7
M  V30 7 2 7 8
M  V30 8 1 8 9
M  V30 9 2 9 10
M  V30 10 1 10 11
M  V30 11 2 11 12
M  V30 12 1 2 13
M  V30 13 2 13 14
M  V30 14 1 14 15
M  V30 15 2 15 16
M  V30 16 1 16 17
M  V30 17 2 17 18
M  V30 18 1 18 19
M  V30 19 1 19 20
M  V30 20 1 20 21
M  V30 21 1 21 22
M  V30 22 1 22 23
M  V30 23 1 23 24
M  V30 24 1 23 25
M  V30 25 1 25 26
M  V30 26 1 18 27
M  V30 27 2 27 28
M  V30 28 1 28 29
M  V30 29 2 29 30
M  V30 30 1 30 31
M  V30 31 1 31 32
M  V30 32 2 32 33
M  V30 33 1 12 7
M  V30 34 1 33 13
M  V30 35 1 32 16
M  V30 36 1 26 20
M  V30 37 1 31 27
M  V30 38 1 3 34
M  V30 39 1 4 35 CFG=3
M  V30 40 1 5 36
M  V30 41 1 5 37
M  V30 42 1 6 38
M  V30 43 1 8 39
M  V30 44 1 9 40
M  V30 45 1 10 41
M  V30 46 1 11 42
M  V30 47 1 12 43
M  V30 48 1 14 44
M  V30 49 1 15 45
M  V30 50 1 19 46
M  V30 51 1 20 47 CFG=1
M  V30 52 1 21 48
M  V30 53 1 21 49
M  V30 54 1 22 50
M  V30 55 1 22 51
M  V30 56 1 23 52 CFG=3
M  V30 57 1 24 53
M  V30 58 1 25 54
M  V30 59 1 25 55
M  V30 60 1 26 56
M  V30 61 1 26 57
M  V30 62 1 29 58
M  V30 63 1 30 59
M  V30 64 1 33 60
M  V30 END BOND
M  V30 END CTAB
M  END
>  <Dataset>  (680) 
ChEMBL_Kinases

>  <Ligand_Instance>  (680) 
nan

>  <PDB_ID>  (680) 
nan

>  <Standardized_SMILES>  (680) 
O=C(N[C@@H](CO)c1ccccc1)c1ccc2nc(N[C@H]3CC[C@H](O)CC3)c3nccn3c2c1

>  <Name>  (680) 
nan

>  <Pocket>  (680) 
nan

>  <ATP_Site>  (680) 
nan

>  <Peripheral>  (680) 
nan

>  <Num_H_Atoms_ProtBoundConf>  (680) 
nan

>  <Num_Resolved_Atoms>  (680) 
nan

>  <Num_Not_Resolved_Atoms>  (680) 
nan

$$$$
CHEMBL2420566
     RDKit          3D

  0  0  0  0  0  0  0  0  0  0999 V3000
M  V30 BEGIN CTAB
M  V30 COUNTS 65 69 0 0 0
M  V30 BEGIN ATOM
M  V30 1 C 4.837356 0.702705 3.495854 0
M  V30 2 C 3.884635 1.543313 4.276731 0
M  V30 3 C 4.716954 2.557761 5.072690 0
M  V30 4 C 2.963849 2.363705 3.364120 0 CFG=1
M  V30 5 N 2.181971 1.511320 2.510092 0
M  V30 6 C 2.278641 1.764155 1.114292 0
M  V30 7 O 3.017558 2.689588 0.688863 0
M  V30 8 C 1.542791 0.981970 0.124350 0
M  V30 9 C 1.744446 1.320201 -1.216541 0
M  V30 10 C 1.084307 0.633048 -2.245051 0
M  V30 11 C 0.234075 -0.385064 -1.849913 0
M  V30 12 N -0.396055 -1.036977 -2.844981 0
M  V30 13 C -1.262115 -2.061337 -2.568829 0
M  V30 14 N -1.892695 -2.738745 -3.641129 0
M  V30 15 C -2.855284 -3.778494 -3.662973 0 CFG=1
M  V30 16 C -4.197654 -3.220699 -3.200911 0
M  V30 17 C -4.972714 -4.413175 -2.690327 0
M  V30 18 C -5.117488 -5.376536 -3.850544 0 CFG=2
M  V30 19 O -4.808161 -6.681984 -3.537987 0
M  V30 20 C -4.442513 -4.918953 -5.105886 0
M  V30 21 C -3.010053 -4.518916 -4.943111 0
M  V30 22 C -1.481413 -2.419030 -1.254126 0
M  V30 23 N -2.223410 -3.339702 -0.626329 0
M  V30 24 C -2.042752 -3.241371 0.702030 0
M  V30 25 C -1.147586 -2.215815 0.945986 0
M  V30 26 N -0.836859 -1.748668 -0.281689 0
M  V30 27 C 0.016873 -0.739519 -0.532806 0
M  V30 28 C 0.681372 -0.044803 0.459505 0
M  V30 29 C 2.022580 3.073306 4.282890 0
M  V30 30 C 0.989563 2.438908 4.940377 0
M  V30 31 C 0.102823 3.054644 5.792781 0
M  V30 32 C 0.301185 4.417626 5.974546 0
M  V30 33 C 1.315641 5.119384 5.348279 0
M  V30 34 C 2.158727 4.421792 4.510098 0
M  V30 35 H 5.852186 1.149667 3.390734 0
M  V30 36 H 4.402735 0.461787 2.491533 0
M  V30 37 H 4.977955 -0.278900 4.009696 0
M  V30 38 H 3.268095 0.918715 4.954230 0
M  V30 39 H 4.778539 3.541993 4.545515 0
M  V30 40 H 5.772872 2.213597 5.183698 0
M  V30 41 H 4.256264 2.738617 6.056948 0
M  V30 42 H 3.545609 3.112035 2.818830 0
M  V30 43 H 1.577555 0.751468 2.885347 0
M  V30 44 H 2.407830 2.116588 -1.548888 0
M  V30 45 H 1.235015 0.889010 -3.291375 0
M  V30 46 H -1.637064 -2.457415 -4.618020 0
M  V30 47 H -2.562574 -4.480289 -2.814389 0
M  V30 48 H -4.046043 -2.435616 -2.444260 0
M  V30 49 H -4.722804 -2.727993 -4.054708 0
M  V30 50 H -4.301678 -4.916176 -1.935518 0
M  V30 51 H -5.922663 -4.152923 -2.201275 0
M  V30 52 H -6.222746 -5.377789 -4.073551 0
M  V30 53 H -5.581409 -7.283624 -3.445548 0
M  V30 54 H -4.477633 -5.781107 -5.816266 0
M  V30 55 H -4.992358 -4.062131 -5.566243 0
M  V30 56 H -2.341380 -5.425948 -4.869301 0
M  V30 57 H -2.699895 -3.863895 -5.776020 0
M  V30 58 H -2.504323 -3.845605 1.471859 0
M  V30 59 H -0.810030 -1.903233 1.918103 0
M  V30 60 H 0.527322 -0.304350 1.495770 0
M  V30 61 H 0.843017 1.369635 4.789933 0
M  V30 62 H -0.696647 2.522983 6.291528 0
M  V30 63 H -0.364395 4.978309 6.639108 0
M  V30 64 H 1.435825 6.193831 5.519991 0
M  V30 65 H 2.933162 5.017318 4.046979 0
M  V30 END ATOM
M  V30 BEGIN BOND
M  V30 1 1 1 2
M  V30 2 1 2 3
M  V30 3 1 2 4
M  V30 4 1 4 5
M  V30 5 1 5 6
M  V30 6 2 6 7
M  V30 7 1 6 8
M  V30 8 2 8 9
M  V30 9 1 9 10
M  V30 10 2 10 11
M  V30 11 1 11 12
M  V30 12 2 12 13
M  V30 13 1 13 14
M  V30 14 1 14 15
M  V30 15 1 15 16
M  V30 16 1 16 17
M  V30 17 1 17 18
M  V30 18 1 18 19
M  V30 19 1 18 20
M  V30 20 1 20 21
M  V30 21 1 13 22
M  V30 22 2 22 23
M  V30 23 1 23 24
M  V30 24 2 24 25
M  V30 25 1 25 26
M  V30 26 1 26 27
M  V30 27 2 27 28
M  V30 28 1 4 29
M  V30 29 2 29 30
M  V30 30 1 30 31
M  V30 31 2 31 32
M  V30 32 1 32 33
M  V30 33 2 33 34
M  V30 34 1 28 8
M  V30 35 1 34 29
M  V30 36 1 27 11
M  V30 37 1 21 15
M  V30 38 1 26 22
M  V30 39 1 1 35
M  V30 40 1 1 36
M  V30 41 1 1 37
M  V30 42 1 2 38
M  V30 43 1 3 39
M  V30 44 1 3 40
M  V30 45 1 3 41
M  V30 46 1 4 42 CFG=3
M  V30 47 1 5 43
M  V30 48 1 9 44
M  V30 49 1 10 45
M  V30 50 1 14 46
M  V30 51 1 15 47 CFG=1
M  V30 52 1 16 48
M  V30 53 1 16 49
M  V30 54 1 17 50
M  V30 55 1 17 51
M  V30 56 1 18 52 CFG=3
M  V30 57 1 19 53
M  V30 58 1 20 54
M  V30 59 1 20 55
M  V30 60 1 21 56
M  V30 61 1 21 57
M  V30 62 1 24 58
M  V30 63 1 25 59
M  V30 64 1 28 60
M  V30 65 1 30 61
M  V30 66 1 31 62
M  V30 67 1 32 63
M  V30 68 1 33 64
M  V30 69 1 34 65
M  V30 END BOND
M  V30 END CTAB
M  END
>  <Dataset>  (681) 
ChEMBL_Kinases

>  <Ligand_Instance>  (681) 
nan

>  <PDB_ID>  (681) 
nan

>  <Standardized_SMILES>  (681) 
CC(C)[C@@H](NC(=O)c1ccc2nc(N[C@H]3CC[C@H](O)CC3)c3nccn3c2c1)c1ccccc1

>  <Name>  (681) 
nan

>  <Pocket>  (681) 
nan

>  <ATP_Site>  (681) 
nan

>  <Peripheral>  (681) 
nan

>  <Num_H_Atoms_ProtBoundConf>  (681) 
nan

>  <Num_Resolved_Atoms>  (681) 
nan

>  <Num_Not_Resolved_Atoms>  (681) 
nan

$$$$
CHEMBL2420567
     RDKit          3D

  0  0  0  0  0  0  0  0  0  0999 V3000
M  V30 BEGIN CTAB
M  V30 COUNTS 66 71 0 0 0
M  V30 BEGIN ATOM
M  V30 1 O 0.995387 -0.784706 3.633870 0
M  V30 2 C 0.843661 -0.138761 2.587934 0
M  V30 3 N 1.268509 1.201774 2.553408 0
M  V30 4 C 1.875997 1.844726 3.702625 0
M  V30 5 C 3.227630 2.358901 3.469745 0
M  V30 6 C 4.145401 1.566977 2.801992 0
M  V30 7 C 5.428856 2.077948 2.591039 0
M  V30 8 C 5.763527 3.347400 3.043518 0
M  V30 9 C 4.844284 4.143684 3.713721 0
M  V30 10 C 3.579311 3.632816 3.918395 0
M  V30 11 C 0.939674 2.947158 4.102252 0
M  V30 12 C 0.607924 3.149210 5.427179 0
M  V30 13 C -0.243209 4.135930 5.886941 0
M  V30 14 C -0.789096 4.971943 4.906721 0
M  V30 15 C -0.481618 4.802078 3.569532 0
M  V30 16 C 0.379456 3.794249 3.164565 0
M  V30 17 C 0.230762 -0.815145 1.454539 0
M  V30 18 C -0.156832 -2.122452 1.565692 0
M  V30 19 C -0.734494 -2.776231 0.512623 0
M  V30 20 C -0.959641 -2.161250 -0.716625 0
M  V30 21 N -1.532418 -2.882826 -1.691745 0
M  V30 22 C -1.752285 -2.303493 -2.872179 0
M  V30 23 N -2.357375 -2.999674 -3.964615 0
M  V30 24 C -2.762455 -4.388289 -3.855934 0 CFG=1
M  V30 25 C -1.559270 -5.212476 -3.605026 0
M  V30 26 C -1.815993 -6.541741 -2.934436 0
M  V30 27 C -2.451648 -6.196879 -1.603726 0 CFG=2
M  V30 28 O -2.640164 -7.417558 -0.938192 0
M  V30 29 C -3.816994 -5.656042 -1.912297 0
M  V30 30 C -3.877200 -4.533120 -2.883716 0
M  V30 31 C -1.368120 -0.985176 -3.003607 0
M  V30 32 N -1.469695 -0.152290 -4.081035 0
M  V30 33 C -0.967659 1.055455 -3.767870 0
M  V30 34 C -0.541763 0.971632 -2.458821 0
M  V30 35 N -0.796300 -0.270877 -2.024377 0
M  V30 36 C -0.569811 -0.843420 -0.831201 0
M  V30 37 C 0.011436 -0.198382 0.240432 0
M  V30 38 H 1.151326 1.766910 1.683213 0
M  V30 39 H 1.937858 1.126726 4.556950 0
M  V30 40 H 3.871127 0.578654 2.454421 0
M  V30 41 H 6.181578 1.513294 2.081267 0
M  V30 42 H 6.750976 3.790913 2.903705 0
M  V30 43 H 5.104581 5.134610 4.067248 0
M  V30 44 H 2.890229 4.283810 4.444934 0
M  V30 45 H 1.065578 2.465145 6.143580 0
M  V30 46 H -0.422931 4.192187 6.938409 0
M  V30 47 H -1.460440 5.747860 5.284310 0
M  V30 48 H -0.947416 5.495569 2.857658 0
M  V30 49 H 0.602490 3.684397 2.110831 0
M  V30 50 H 0.001391 -2.644447 2.514137 0
M  V30 51 H -1.024276 -3.825842 0.663652 0
M  V30 52 H -2.496628 -2.449047 -4.862603 0
M  V30 53 H -3.127869 -4.678600 -4.876460 0
M  V30 54 H -1.035046 -5.474963 -4.574061 0
M  V30 55 H -0.787036 -4.685597 -3.011447 0
M  V30 56 H -0.846580 -7.014872 -2.746212 0
M  V30 57 H -2.535794 -7.152439 -3.497990 0
M  V30 58 H -1.828417 -5.566713 -0.961940 0
M  V30 59 H -1.824416 -7.970339 -0.974815 0
M  V30 60 H -4.442941 -6.522910 -2.239655 0
M  V30 61 H -4.264902 -5.355716 -0.920702 0
M  V30 62 H -4.845512 -4.586132 -3.425201 0
M  V30 63 H -3.953149 -3.590631 -2.291651 0
M  V30 64 H -0.871131 1.963996 -4.344346 0
M  V30 65 H -0.076121 1.758950 -1.854996 0
M  V30 66 H 0.292476 0.819834 0.093680 0
M  V30 END ATOM
M  V30 BEGIN BOND
M  V30 1 2 1 2
M  V30 2 1 2 3
M  V30 3 1 3 4
M  V30 4 1 4 5
M  V30 5 2 5 6
M  V30 6 1 6 7
M  V30 7 2 7 8
M  V30 8 1 8 9
M  V30 9 2 9 10
M  V30 10 1 4 11
M  V30 11 2 11 12
M  V30 12 1 12 13
M  V30 13 2 13 14
M  V30 14 1 14 15
M  V30 15 2 15 16
M  V30 16 1 2 17
M  V30 17 2 17 18
M  V30 18 1 18 19
M  V30 19 2 19 20
M  V30 20 1 20 21
M  V30 21 2 21 22
M  V30 22 1 22 23
M  V30 23 1 23 24
M  V30 24 1 24 25
M  V30 25 1 25 26
M  V30 26 1 26 27
M  V30 27 1 27 28
M  V30 28 1 27 29
M  V30 29 1 29 30
M  V30 30 1 22 31
M  V30 31 2 31 32
M  V30 32 1 32 33
M  V30 33 2 33 34
M  V30 34 1 34 35
M  V30 35 1 35 36
M  V30 36 2 36 37
M  V30 37 1 10 5
M  V30 38 1 16 11
M  V30 39 1 37 17
M  V30 40 1 36 20
M  V30 41 1 30 24
M  V30 42 1 35 31
M  V30 43 1 3 38
M  V30 44 1 4 39
M  V30 45 1 6 40
M  V30 46 1 7 41
M  V30 47 1 8 42
M  V30 48 1 9 43
M  V30 49 1 10 44
M  V30 50 1 12 45
M  V30 51 1 13 46
M  V30 52 1 14 47
M  V30 53 1 15 48
M  V30 54 1 16 49
M  V30 55 1 18 50
M  V30 56 1 19 51
M  V30 57 1 23 52
M  V30 58 1 24 53 CFG=3
M  V30 59 1 25 54
M  V30 60 1 25 55
M  V30 61 1 26 56
M  V30 62 1 26 57
M  V30 63 1 27 58 CFG=1
M  V30 64 1 28 59
M  V30 65 1 29 60
M  V30 66 1 29 61
M  V30 67 1 30 62
M  V30 68 1 30 63
M  V30 69 1 33 64
M  V30 70 1 34 65
M  V30 71 1 37 66
M  V30 END BOND
M  V30 END CTAB
M  END
>  <Dataset>  (682) 
ChEMBL_Kinases

>  <Ligand_Instance>  (682) 
nan

>  <PDB_ID>  (682) 
nan

>  <Standardized_SMILES>  (682) 
O=C(NC(c1ccccc1)c1ccccc1)c1ccc2nc(N[C@H]3CC[C@H](O)CC3)c3nccn3c2c1

>  <Name>  (682) 
nan

>  <Pocket>  (682) 
nan

>  <ATP_Site>  (682) 
nan

>  <Peripheral>  (682) 
nan

>  <Num_H_Atoms_ProtBoundConf>  (682) 
nan

>  <Num_Resolved_Atoms>  (682) 
nan

>  <Num_Not_Resolved_Atoms>  (682) 
nan

$$$$
CHEMBL2420568
     RDKit          3D

  0  0  0  0  0  0  0  0  0  0999 V3000
M  V30 BEGIN CTAB
M  V30 COUNTS 63 67 0 0 0
M  V30 BEGIN ATOM
M  V30 1 O 1.659044 -1.053929 3.708614 0
M  V30 2 C 1.705664 -0.282950 2.710166 0
M  V30 3 N 2.866853 0.525841 2.560807 0
M  V30 4 C 4.009804 0.538126 3.465410 0 CFG=2
M  V30 5 C 4.290575 1.887587 4.063298 0
M  V30 6 C 5.418456 1.937902 5.035510 0
M  V30 7 O 5.621878 3.247672 5.531376 0
M  V30 8 C 5.138480 0.039349 2.595417 0
M  V30 9 C 6.322537 0.567736 2.140992 0
M  V30 10 C 7.166998 -0.183106 1.367367 0
M  V30 11 C 6.891230 -1.472040 1.007257 0
M  V30 12 C 5.709009 -2.030806 1.447246 0
M  V30 13 C 4.850758 -1.283633 2.227771 0
M  V30 14 C 0.620601 -0.208748 1.734173 0
M  V30 15 C 0.565820 0.594932 0.612114 0
M  V30 16 C -0.534352 0.554244 -0.222885 0
M  V30 17 C -1.610261 -0.275444 0.019784 0
M  V30 18 N -2.691866 -0.325585 -0.787337 0
M  V30 19 C -3.736212 -1.140456 -0.538892 0
M  V30 20 N -4.873404 -1.187014 -1.394988 0
M  V30 21 C -4.905858 -0.333722 -2.567991 0 CFG=1
M  V30 22 C -3.810978 -0.573881 -3.547873 0
M  V30 23 C -4.172901 -1.595971 -4.603535 0
M  V30 24 C -5.212718 -2.581275 -4.121942 0 CFG=2
M  V30 25 O -5.553577 -3.385136 -5.209446 0
M  V30 26 C -6.470683 -1.900235 -3.666420 0
M  V30 27 C -6.236870 -0.455714 -3.289270 0
M  V30 28 C -3.656969 -1.933733 0.588935 0
M  V30 29 N -4.554571 -2.812596 1.041745 0
M  V30 30 C -4.044559 -3.343840 2.166468 0
M  V30 31 C -2.805077 -2.795084 2.432683 0
M  V30 32 N -2.608995 -1.935553 1.438609 0
M  V30 33 C -1.600740 -1.097784 1.130252 0
M  V30 34 C -0.483548 -1.028088 1.940140 0
M  V30 35 H 2.993653 1.193597 1.766878 0
M  V30 36 H 3.930970 -0.164906 4.302319 0
M  V30 37 H 3.368645 2.208737 4.614365 0
M  V30 38 H 4.432129 2.666616 3.264485 0
M  V30 39 H 5.137744 1.368318 5.986732 0
M  V30 40 H 6.371978 1.508521 4.740258 0
M  V30 41 H 6.533965 3.393719 5.847918 0
M  V30 42 H 6.427030 1.588667 2.465949 0
M  V30 43 H 8.063750 0.394728 1.095142 0
M  V30 44 H 7.650857 -1.938519 0.394704 0
M  V30 45 H 5.552982 -3.051825 1.126367 0
M  V30 46 H 3.965944 -1.888641 2.482649 0
M  V30 47 H 1.424971 1.229824 0.455377 0
M  V30 48 H -0.539413 1.198847 -1.091605 0
M  V30 49 H -5.651165 -1.837724 -1.148838 0
M  V30 50 H -4.865690 0.751820 -2.255342 0
M  V30 51 H -3.654332 0.383726 -4.117351 0
M  V30 52 H -2.821173 -0.798085 -3.112054 0
M  V30 53 H -3.277623 -2.180774 -4.895349 0
M  V30 54 H -4.566068 -1.125878 -5.522993 0
M  V30 55 H -4.830196 -3.255874 -3.339017 0
M  V30 56 H -6.099379 -4.135190 -4.839922 0
M  V30 57 H -7.281637 -1.973650 -4.417683 0
M  V30 58 H -6.862056 -2.438361 -2.768478 0
M  V30 59 H -7.053341 -0.040831 -2.692653 0
M  V30 60 H -6.145644 0.131259 -4.222264 0
M  V30 61 H -4.505601 -4.100843 2.808653 0
M  V30 62 H -2.139865 -3.007711 3.255448 0
M  V30 63 H -0.490464 -1.689204 2.821047 0
M  V30 END ATOM
M  V30 BEGIN BOND
M  V30 1 2 1 2
M  V30 2 1 2 3
M  V30 3 1 3 4
M  V30 4 1 4 5
M  V30 5 1 5 6
M  V30 6 1 6 7
M  V30 7 1 4 8
M  V30 8 2 8 9
M  V30 9 1 9 10
M  V30 10 2 10 11
M  V30 11 1 11 12
M  V30 12 2 12 13
M  V30 13 1 2 14
M  V30 14 2 14 15
M  V30 15 1 15 16
M  V30 16 2 16 17
M  V30 17 1 17 18
M  V30 18 2 18 19
M  V30 19 1 19 20
M  V30 20 1 20 21
M  V30 21 1 21 22
M  V30 22 1 22 23
M  V30 23 1 23 24
M  V30 24 1 24 25
M  V30 25 1 24 26
M  V30 26 1 26 27
M  V30 27 1 19 28
M  V30 28 2 28 29
M  V30 29 1 29 30
M  V30 30 2 30 31
M  V30 31 1 31 32
M  V30 32 1 32 33
M  V30 33 2 33 34
M  V30 34 1 13 8
M  V30 35 1 34 14
M  V30 36 1 33 17
M  V30 37 1 27 21
M  V30 38 1 32 28
M  V30 39 1 3 35
M  V30 40 1 4 36 CFG=1
M  V30 41 1 5 37
M  V30 42 1 5 38
M  V30 43 1 6 39
M  V30 44 1 6 40
M  V30 45 1 7 41
M  V30 46 1 9 42
M  V30 47 1 10 43
M  V30 48 1 11 44
M  V30 49 1 12 45
M  V30 50 1 13 46
M  V30 51 1 15 47
M  V30 52 1 16 48
M  V30 53 1 20 49
M  V30 54 1 21 50 CFG=1
M  V30 55 1 22 51
M  V30 56 1 22 52
M  V30 57 1 23 53
M  V30 58 1 23 54
M  V30 59 1 24 55 CFG=1
M  V30 60 1 25 56
M  V30 61 1 26 57
M  V30 62 1 26 58
M  V30 63 1 27 59
M  V30 64 1 27 60
M  V30 65 1 30 61
M  V30 66 1 31 62
M  V30 67 1 34 63
M  V30 END BOND
M  V30 END CTAB
M  END
>  <Dataset>  (683) 
ChEMBL_Kinases

>  <Ligand_Instance>  (683) 
nan

>  <PDB_ID>  (683) 
nan

>  <Standardized_SMILES>  (683) 
O=C(N[C@H](CCO)c1ccccc1)c1ccc2nc(N[C@H]3CC[C@H](O)CC3)c3nccn3c2c1

>  <Name>  (683) 
nan

>  <Pocket>  (683) 
nan

>  <ATP_Site>  (683) 
nan

>  <Peripheral>  (683) 
nan

>  <Num_H_Atoms_ProtBoundConf>  (683) 
nan

>  <Num_Resolved_Atoms>  (683) 
nan

>  <Num_Not_Resolved_Atoms>  (683) 
nan

$$$$
CHEMBL2420569
     RDKit          3D

  0  0  0  0  0  0  0  0  0  0999 V3000
M  V30 BEGIN CTAB
M  V30 COUNTS 63 67 0 0 0
M  V30 BEGIN ATOM
M  V30 1 C 4.231568 -4.444575 4.120488 0
M  V30 2 O 4.242916 -3.112885 3.707280 0
M  V30 3 C 3.621217 -2.307711 4.633374 0
M  V30 4 C 3.663026 -0.896096 4.137006 0 CFG=1
M  V30 5 N 3.017184 -0.675330 2.889998 0
M  V30 6 C 3.419662 -0.236070 1.611374 0
M  V30 7 O 4.602081 0.069438 1.368739 0
M  V30 8 C 2.450545 -0.126747 0.527710 0
M  V30 9 C 2.915476 0.323849 -0.688852 0
M  V30 10 C 2.067921 0.464406 -1.795161 0
M  V30 11 C 0.729788 0.129467 -1.617832 0
M  V30 12 N -0.079764 0.264892 -2.678702 0
M  V30 13 C -1.386044 -0.038323 -2.588013 0
M  V30 14 N -2.268809 0.116386 -3.693579 0
M  V30 15 C -3.663339 -0.181520 -3.834243 0 CFG=1
M  V30 16 C -4.253307 0.343482 -5.133712 0
M  V30 17 C -5.305789 -0.568634 -5.678213 0
M  V30 18 C -6.099796 -1.310581 -4.653315 0 CFG=2
M  V30 19 O -7.139692 -0.536794 -4.130240 0
M  V30 20 C -5.272554 -1.968071 -3.577273 0
M  V30 21 C -3.819796 -1.699971 -3.888797 0
M  V30 22 C -1.874465 -0.497053 -1.359962 0
M  V30 23 N -3.065353 -0.877526 -0.894080 0
M  V30 24 C -3.008682 -1.236178 0.399927 0
M  V30 25 C -1.699581 -1.071882 0.775098 0
M  V30 26 N -1.069508 -0.627724 -0.318941 0
M  V30 27 C 0.236268 -0.323604 -0.413774 0
M  V30 28 C 1.114143 -0.443152 0.642405 0
M  V30 29 C 3.201155 0.095857 5.149414 0
M  V30 30 C 1.875003 0.444819 5.336821 0
M  V30 31 C 1.458179 1.361815 6.274742 0
M  V30 32 C 2.378998 1.970048 7.070589 0
M  V30 33 C 3.700464 1.678840 6.945234 0
M  V30 34 C 4.096494 0.755327 5.997171 0
M  V30 35 H 4.727543 -5.117648 3.392465 0
M  V30 36 H 3.160541 -4.714996 4.261707 0
M  V30 37 H 4.742017 -4.612320 5.090596 0
M  V30 38 H 2.610482 -2.649478 4.913602 0
M  V30 39 H 4.224350 -2.338740 5.572580 0
M  V30 40 H 4.752973 -0.647208 3.976175 0
M  V30 41 H 2.040104 -0.940934 3.140128 0
M  V30 42 H 3.962244 0.602317 -0.885094 0
M  V30 43 H 2.448175 0.819639 -2.745078 0
M  V30 44 H -1.827123 0.521765 -4.571154 0
M  V30 45 H -4.210496 0.261386 -2.987415 0
M  V30 46 H -3.428825 0.410801 -5.868624 0
M  V30 47 H -4.642705 1.383604 -5.000461 0
M  V30 48 H -6.004903 0.089154 -6.271642 0
M  V30 49 H -4.844101 -1.238729 -6.440479 0
M  V30 50 H -6.621676 -2.149737 -5.198567 0
M  V30 51 H -6.862206 0.019215 -3.359819 0
M  V30 52 H -5.452430 -3.061802 -3.506185 0
M  V30 53 H -5.471431 -1.451604 -2.611870 0
M  V30 54 H -3.674818 -1.988869 -4.954145 0
M  V30 55 H -3.108144 -2.237802 -3.275048 0
M  V30 56 H -3.826999 -1.578766 1.003564 0
M  V30 57 H -1.293222 -1.271753 1.767898 0
M  V30 58 H 0.739129 -0.795836 1.587370 0
M  V30 59 H 1.125376 -0.024320 4.717140 0
M  V30 60 H 0.407753 1.620133 6.403254 0
M  V30 61 H 2.051385 2.695144 7.812430 0
M  V30 62 H 4.459190 2.153019 7.571642 0
M  V30 63 H 5.146746 0.473599 5.842637 0
M  V30 END ATOM
M  V30 BEGIN BOND
M  V30 1 1 1 2
M  V30 2 1 2 3
M  V30 3 1 3 4
M  V30 4 1 4 5
M  V30 5 1 5 6
M  V30 6 2 6 7
M  V30 7 1 6 8
M  V30 8 2 8 9
M  V30 9 1 9 10
M  V30 10 2 10 11
M  V30 11 1 11 12
M  V30 12 2 12 13
M  V30 13 1 13 14
M  V30 14 1 14 15
M  V30 15 1 15 16
M  V30 16 1 16 17
M  V30 17 1 17 18
M  V30 18 1 18 19
M  V30 19 1 18 20
M  V30 20 1 20 21
M  V30 21 1 13 22
M  V30 22 2 22 23
M  V30 23 1 23 24
M  V30 24 2 24 25
M  V30 25 1 25 26
M  V30 26 1 26 27
M  V30 27 2 27 28
M  V30 28 1 4 29
M  V30 29 2 29 30
M  V30 30 1 30 31
M  V30 31 2 31 32
M  V30 32 1 32 33
M  V30 33 2 33 34
M  V30 34 1 28 8
M  V30 35 1 34 29
M  V30 36 1 27 11
M  V30 37 1 21 15
M  V30 38 1 26 22
M  V30 39 1 1 35
M  V30 40 1 1 36
M  V30 41 1 1 37
M  V30 42 1 3 38
M  V30 43 1 3 39
M  V30 44 1 4 40 CFG=3
M  V30 45 1 5 41
M  V30 46 1 9 42
M  V30 47 1 10 43
M  V30 48 1 14 44
M  V30 49 1 15 45 CFG=1
M  V30 50 1 16 46
M  V30 51 1 16 47
M  V30 52 1 17 48
M  V30 53 1 17 49
M  V30 54 1 18 50 CFG=3
M  V30 55 1 19 51
M  V30 56 1 20 52
M  V30 57 1 20 53
M  V30 58 1 21 54
M  V30 59 1 21 55
M  V30 60 1 24 56
M  V30 61 1 25 57
M  V30 62 1 28 58
M  V30 63 1 30 59
M  V30 64 1 31 60
M  V30 65 1 32 61
M  V30 66 1 33 62
M  V30 67 1 34 63
M  V30 END BOND
M  V30 END CTAB
M  END
>  <Dataset>  (684) 
ChEMBL_Kinases

>  <Ligand_Instance>  (684) 
nan

>  <PDB_ID>  (684) 
nan

>  <Standardized_SMILES>  (684) 
COC[C@@H](NC(=O)c1ccc2nc(N[C@H]3CC[C@H](O)CC3)c3nccn3c2c1)c1ccccc1

>  <Name>  (684) 
nan

>  <Pocket>  (684) 
nan

>  <ATP_Site>  (684) 
nan

>  <Peripheral>  (684) 
nan

>  <Num_H_Atoms_ProtBoundConf>  (684) 
nan

>  <Num_Resolved_Atoms>  (684) 
nan

>  <Num_Not_Resolved_Atoms>  (684) 
nan

$$$$
CHEMBL2420570
     RDKit          3D

  0  0  0  0  0  0  0  0  0  0999 V3000
M  V30 BEGIN CTAB
M  V30 COUNTS 62 66 0 0 0
M  V30 BEGIN ATOM
M  V30 1 C 4.089184 0.371098 5.111404 0
M  V30 2 C 2.807017 -0.414605 5.306270 0
M  V30 3 C 3.183188 -1.883694 5.465260 0
M  V30 4 N 1.997477 -0.204688 4.133520 0
M  V30 5 C 2.204256 -0.541149 2.752467 0
M  V30 6 O 3.330532 -1.143288 2.619929 0
M  V30 7 C 1.173186 -0.176074 1.770654 0
M  V30 8 C 0.264418 0.821243 2.003963 0
M  V30 9 C -0.640837 0.987103 0.997587 0
M  V30 10 C -0.766901 0.320848 -0.173144 0
M  V30 11 N -1.683193 0.510626 -1.123223 0
M  V30 12 C -1.704409 -0.258424 -2.263953 0
M  V30 13 N -2.714974 0.056314 -3.203109 0
M  V30 14 C -2.966176 -0.646267 -4.433219 0 CFG=1
M  V30 15 C -3.570963 -2.007451 -4.233442 0
M  V30 16 C -3.442937 -2.780798 -5.521168 0
M  V30 17 C -3.414506 -1.950982 -6.747464 0 CFG=2
M  V30 18 O -2.100646 -1.937784 -7.291632 0
M  V30 19 C -3.978713 -0.587050 -6.671065 0
M  V30 20 C -3.915269 0.097404 -5.342846 0
M  V30 21 C -0.724998 -1.211525 -2.335043 0
M  V30 22 N -0.584562 -2.058276 -3.372718 0
M  V30 23 C 0.472342 -2.838334 -3.094291 0
M  V30 24 C 0.995712 -2.465953 -1.855302 0
M  V30 25 N 0.222329 -1.460006 -1.430351 0
M  V30 26 C 0.207822 -0.681886 -0.322623 0
M  V30 27 C 1.209924 -0.986677 0.606768 0
M  V30 28 C 2.154497 0.044339 6.557264 0
M  V30 29 C 0.941094 -0.557733 6.910222 0
M  V30 30 C 0.420091 -0.078231 8.086253 0
M  V30 31 C 0.928561 0.893786 8.938346 0
M  V30 32 C 2.146556 1.444387 8.509607 0
M  V30 33 C 2.740227 1.017611 7.334313 0
M  V30 34 H 3.816428 1.457492 5.096751 0
M  V30 35 H 4.532669 0.129567 4.129254 0
M  V30 36 H 4.764799 0.127751 5.947282 0
M  V30 37 H 2.351648 -2.528293 5.071838 0
M  V30 38 H 3.222098 -2.086391 6.554455 0
M  V30 39 H 4.123437 -2.110348 4.961112 0
M  V30 40 H 1.082815 0.285686 4.335828 0
M  V30 41 H 0.278340 1.416305 2.893135 0
M  V30 42 H -1.387686 1.785089 1.161649 0
M  V30 43 H -3.355443 0.855114 -3.041617 0
M  V30 44 H -2.015718 -0.729715 -5.031363 0
M  V30 45 H -4.688645 -1.813643 -4.134637 0
M  V30 46 H -3.260703 -2.551117 -3.342906 0
M  V30 47 H -4.302138 -3.508185 -5.557579 0
M  V30 48 H -2.522723 -3.393628 -5.455836 0
M  V30 49 H -4.018695 -2.496125 -7.535492 0
M  V30 50 H -1.962582 -2.834271 -7.707616 0
M  V30 51 H -5.036995 -0.505891 -7.068827 0
M  V30 52 H -3.374051 0.052757 -7.372398 0
M  V30 53 H -4.926435 0.031349 -4.874226 0
M  V30 54 H -3.666350 1.180034 -5.437804 0
M  V30 55 H 0.986020 -3.646616 -3.575888 0
M  V30 56 H 1.847545 -2.858830 -1.280486 0
M  V30 57 H 1.930654 -1.760818 0.441307 0
M  V30 58 H 0.442144 -1.320033 6.341353 0
M  V30 59 H -0.532695 -0.543840 8.372812 0
M  V30 60 H 0.381132 1.145814 9.823964 0
M  V30 61 H 2.542735 2.204679 9.176624 0
M  V30 62 H 3.667882 1.499984 7.103788 0
M  V30 END ATOM
M  V30 BEGIN BOND
M  V30 1 1 1 2
M  V30 2 1 2 3
M  V30 3 1 2 4
M  V30 4 1 4 5
M  V30 5 2 5 6
M  V30 6 1 5 7
M  V30 7 2 7 8
M  V30 8 1 8 9
M  V30 9 2 9 10
M  V30 10 1 10 11
M  V30 11 2 11 12
M  V30 12 1 12 13
M  V30 13 1 13 14
M  V30 14 1 14 15
M  V30 15 1 15 16
M  V30 16 1 16 17
M  V30 17 1 17 18
M  V30 18 1 17 19
M  V30 19 1 19 20
M  V30 20 1 12 21
M  V30 21 2 21 22
M  V30 22 1 22 23
M  V30 23 2 23 24
M  V30 24 1 24 25
M  V30 25 1 25 26
M  V30 26 2 26 27
M  V30 27 1 2 28
M  V30 28 2 28 29
M  V30 29 1 29 30
M  V30 30 2 30 31
M  V30 31 1 31 32
M  V30 32 2 32 33
M  V30 33 1 27 7
M  V30 34 1 33 28
M  V30 35 1 26 10
M  V30 36 1 20 14
M  V30 37 1 25 21
M  V30 38 1 1 34
M  V30 39 1 1 35
M  V30 40 1 1 36
M  V30 41 1 3 37
M  V30 42 1 3 38
M  V30 43 1 3 39
M  V30 44 1 4 40
M  V30 45 1 8 41
M  V30 46 1 9 42
M  V30 47 1 13 43
M  V30 48 1 14 44 CFG=3
M  V30 49 1 15 45
M  V30 50 1 15 46
M  V30 51 1 16 47
M  V30 52 1 16 48
M  V30 53 1 17 49 CFG=3
M  V30 54 1 18 50
M  V30 55 1 19 51
M  V30 56 1 19 52
M  V30 57 1 20 53
M  V30 58 1 20 54
M  V30 59 1 23 55
M  V30 60 1 24 56
M  V30 61 1 27 57
M  V30 62 1 29 58
M  V30 63 1 30 59
M  V30 64 1 31 60
M  V30 65 1 32 61
M  V30 66 1 33 62
M  V30 END BOND
M  V30 END CTAB
M  END
>  <Dataset>  (685) 
ChEMBL_Kinases

>  <Ligand_Instance>  (685) 
nan

>  <PDB_ID>  (685) 
nan

>  <Standardized_SMILES>  (685) 
CC(C)(NC(=O)c1ccc2nc(N[C@H]3CC[C@H](O)CC3)c3nccn3c2c1)c1ccccc1

>  <Name>  (685) 
nan

>  <Pocket>  (685) 
nan

>  <ATP_Site>  (685) 
nan

>  <Peripheral>  (685) 
nan

>  <Num_H_Atoms_ProtBoundConf>  (685) 
nan

>  <Num_Resolved_Atoms>  (685) 
nan

>  <Num_Not_Resolved_Atoms>  (685) 
nan

$$$$
CHEMBL2420571
     RDKit          3D

  0  0  0  0  0  0  0  0  0  0999 V3000
M  V30 BEGIN CTAB
M  V30 COUNTS 68 72 0 0 0
M  V30 BEGIN ATOM
M  V30 1 C 4.717347 0.855194 2.891604 0
M  V30 2 C 4.982047 1.857133 1.780017 0
M  V30 3 C 3.641163 2.567764 1.509861 0
M  V30 4 C 3.277815 3.221493 2.813505 0
M  V30 5 C 1.997947 3.983002 2.818782 0
M  V30 6 N 2.686578 1.573659 1.108452 0
M  V30 7 C 2.766755 0.704410 -0.006660 0
M  V30 8 O 3.780969 0.785429 -0.752608 0
M  V30 9 C 1.754051 -0.283822 -0.354771 0
M  V30 10 C 2.027107 -1.091145 -1.460067 0
M  V30 11 C 1.116227 -2.070043 -1.881880 0
M  V30 12 C -0.059169 -2.180954 -1.136697 0
M  V30 13 N -0.959223 -3.100395 -1.504843 0
M  V30 14 C -2.128401 -3.301318 -0.870488 0
M  V30 15 N -3.042478 -4.289433 -1.329827 0
M  V30 16 C -4.306044 -4.698282 -0.812435 0 CFG=1
M  V30 17 C -5.012435 -5.681104 -1.771700 0
M  V30 18 C -6.436958 -5.704638 -1.313661 0
M  V30 19 C -6.673383 -5.922810 0.129439 0 CFG=2
M  V30 20 O -7.811795 -5.147910 0.468516 0
M  V30 21 C -5.592725 -5.528984 1.075081 0
M  V30 22 C -4.220848 -5.509285 0.472472 0
M  V30 23 C -2.426600 -2.503413 0.241759 0
M  V30 24 N -3.456883 -2.423460 1.079692 0
M  V30 25 C -3.181674 -1.453028 1.960525 0
M  V30 26 C -1.952359 -0.907352 1.673672 0
M  V30 27 N -1.519826 -1.579714 0.610033 0
M  V30 28 C -0.358345 -1.401676 -0.043637 0
M  V30 29 C 0.570784 -0.453254 0.330333 0
M  V30 30 C 3.822668 3.537578 0.428944 0
M  V30 31 C 5.083225 3.712939 -0.144414 0
M  V30 32 C 5.380103 4.586287 -1.168737 0
M  V30 33 C 4.368293 5.359871 -1.686203 0
M  V30 34 C 3.093831 5.249183 -1.177520 0
M  V30 35 C 2.863399 4.342280 -0.137035 0
M  V30 36 H 5.224585 -0.122382 2.666838 0
M  V30 37 H 3.624648 0.608628 2.924888 0
M  V30 38 H 5.022476 1.192725 3.880736 0
M  V30 39 H 5.336649 1.289484 0.902541 0
M  V30 40 H 5.720306 2.635914 2.126475 0
M  V30 41 H 4.096013 3.969665 3.024276 0
M  V30 42 H 3.308978 2.523755 3.670452 0
M  V30 43 H 1.704671 4.079247 3.910294 0
M  V30 44 H 1.133901 3.448835 2.370220 0
M  V30 45 H 2.079579 5.042294 2.486242 0
M  V30 46 H 1.832689 1.475809 1.701837 0
M  V30 47 H 2.915390 -1.051679 -2.072119 0
M  V30 48 H 1.315169 -2.708319 -2.742171 0
M  V30 49 H -2.735790 -4.812731 -2.206885 0
M  V30 50 H -4.997683 -3.857219 -0.609982 0
M  V30 51 H -4.483908 -6.629305 -1.682459 0
M  V30 52 H -4.957137 -5.183258 -2.753653 0
M  V30 53 H -6.937203 -6.532750 -1.895005 0
M  V30 54 H -6.928130 -4.780361 -1.690137 0
M  V30 55 H -7.027640 -6.980669 0.313723 0
M  V30 56 H -7.901276 -5.257467 1.462070 0
M  V30 57 H -5.584594 -6.281538 1.900913 0
M  V30 58 H -5.818168 -4.551959 1.588263 0
M  V30 59 H -3.502173 -5.152610 1.202665 0
M  V30 60 H -3.943795 -6.585216 0.260805 0
M  V30 61 H -3.879775 -1.186433 2.764241 0
M  V30 62 H -1.479453 -0.105641 2.220061 0
M  V30 63 H 0.360482 0.171976 1.186846 0
M  V30 64 H 5.962237 3.157200 0.181294 0
M  V30 65 H 6.349022 4.715133 -1.603022 0
M  V30 66 H 4.467096 6.075367 -2.483833 0
M  V30 67 H 2.257967 5.842605 -1.557461 0
M  V30 68 H 1.856483 4.265836 0.246310 0
M  V30 END ATOM
M  V30 BEGIN BOND
M  V30 1 1 1 2
M  V30 2 1 2 3
M  V30 3 1 3 4
M  V30 4 1 4 5
M  V30 5 1 3 6
M  V30 6 1 6 7
M  V30 7 2 7 8
M  V30 8 1 7 9
M  V30 9 2 9 10
M  V30 10 1 10 11
M  V30 11 2 11 12
M  V30 12 1 12 13
M  V30 13 2 13 14
M  V30 14 1 14 15
M  V30 15 1 15 16
M  V30 16 1 16 17
M  V30 17 1 17 18
M  V30 18 1 18 19
M  V30 19 1 19 20
M  V30 20 1 19 21
M  V30 21 1 21 22
M  V30 22 1 14 23
M  V30 23 2 23 24
M  V30 24 1 24 25
M  V30 25 2 25 26
M  V30 26 1 26 27
M  V30 27 1 27 28
M  V30 28 2 28 29
M  V30 29 1 3 30
M  V30 30 2 30 31
M  V30 31 1 31 32
M  V30 32 2 32 33
M  V30 33 1 33 34
M  V30 34 2 34 35
M  V30 35 1 29 9
M  V30 36 1 35 30
M  V30 37 1 28 12
M  V30 38 1 22 16
M  V30 39 1 27 23
M  V30 40 1 1 36
M  V30 41 1 1 37
M  V30 42 1 1 38
M  V30 43 1 2 39
M  V30 44 1 2 40
M  V30 45 1 4 41
M  V30 46 1 4 42
M  V30 47 1 5 43
M  V30 48 1 5 44
M  V30 49 1 5 45
M  V30 50 1 6 46
M  V30 51 1 10 47
M  V30 52 1 11 48
M  V30 53 1 15 49
M  V30 54 1 16 50 CFG=1
M  V30 55 1 17 51
M  V30 56 1 17 52
M  V30 57 1 18 53
M  V30 58 1 18 54
M  V30 59 1 19 55 CFG=3
M  V30 60 1 20 56
M  V30 61 1 21 57
M  V30 62 1 21 58
M  V30 63 1 22 59
M  V30 64 1 22 60
M  V30 65 1 25 61
M  V30 66 1 26 62
M  V30 67 1 29 63
M  V30 68 1 31 64
M  V30 69 1 32 65
M  V30 70 1 33 66
M  V30 71 1 34 67
M  V30 72 1 35 68
M  V30 END BOND
M  V30 END CTAB
M  END
>  <Dataset>  (686) 
ChEMBL_Kinases

>  <Ligand_Instance>  (686) 
nan

>  <PDB_ID>  (686) 
nan

>  <Standardized_SMILES>  (686) 
CCC(CC)(NC(=O)c1ccc2nc(N[C@H]3CC[C@H](O)CC3)c3nccn3c2c1)c1ccccc1

>  <Name>  (686) 
nan

>  <Pocket>  (686) 
nan

>  <ATP_Site>  (686) 
nan

>  <Peripheral>  (686) 
nan

>  <Num_H_Atoms_ProtBoundConf>  (686) 
nan

>  <Num_Resolved_Atoms>  (686) 
nan

>  <Num_Not_Resolved_Atoms>  (686) 
nan

$$$$
CHEMBL2420582
     RDKit          3D

  0  0  0  0  0  0  0  0  0  0999 V3000
M  V30 BEGIN CTAB
M  V30 COUNTS 39 42 0 0 0
M  V30 BEGIN ATOM
M  V30 1 O -1.140766 -3.232290 4.465606 0
M  V30 2 C -0.312075 -2.900223 3.377078 0 CFG=1
M  V30 3 C 0.405408 -4.125629 2.863978 0
M  V30 4 C 1.427214 -3.697087 1.857972 0
M  V30 5 C 0.818536 -2.687933 0.909366 0 CFG=2
M  V30 6 N 1.265350 -1.342255 1.208237 0
M  V30 7 C 0.916379 -0.175117 0.489286 0
M  V30 8 N 0.116211 -0.157032 -0.587171 0
M  V30 9 C -0.225666 0.942280 -1.281989 0
M  V30 10 C -1.062235 0.817968 -2.376594 0
M  V30 11 C -1.412290 1.954899 -3.090476 0
M  V30 12 C -0.904883 3.183668 -2.674757 0
M  V30 13 C -0.072019 3.269835 -1.576909 0
M  V30 14 C 0.288233 2.145545 -0.852082 0
M  V30 15 N 1.096047 2.187070 0.221795 0
M  V30 16 C 1.713787 3.213250 0.829010 0
M  V30 17 C 2.418120 2.679688 1.887930 0
M  V30 18 N 2.217716 1.370150 1.901104 0
M  V30 19 C 1.403818 1.054276 0.878107 0
M  V30 20 C -0.702735 -2.740205 0.966685 0
M  V30 21 C -1.228400 -2.341147 2.308127 0
M  V30 22 H -1.254345 -2.394857 4.987856 0
M  V30 23 H 0.428944 -2.152973 3.692972 0
M  V30 24 H 0.913186 -4.614957 3.727077 0
M  V30 25 H -0.317293 -4.825642 2.379997 0
M  V30 26 H 1.836429 -4.536082 1.278712 0
M  V30 27 H 2.259431 -3.176866 2.397419 0
M  V30 28 H 1.095045 -2.893130 -0.145389 0
M  V30 29 H 1.904745 -1.241539 2.035298 0
M  V30 30 H -1.408342 -0.185290 -2.624628 0
M  V30 31 H -2.071791 1.821231 -3.945723 0
M  V30 32 H -1.201152 4.046487 -3.257550 0
M  V30 33 H 0.314476 4.239574 -1.267513 0
M  V30 34 H 1.636760 4.247139 0.503288 0
M  V30 35 H 2.995904 3.345744 2.519077 0
M  V30 36 H -1.075405 -2.022329 0.215547 0
M  V30 37 H -1.019215 -3.785518 0.717921 0
M  V30 38 H -2.269627 -2.687013 2.410041 0
M  V30 39 H -1.206535 -1.244496 2.397408 0
M  V30 END ATOM
M  V30 BEGIN BOND
M  V30 1 1 1 2
M  V30 2 1 2 3
M  V30 3 1 3 4
M  V30 4 1 4 5
M  V30 5 1 5 6
M  V30 6 1 6 7
M  V30 7 2 7 8
M  V30 8 1 8 9
M  V30 9 2 9 10
M  V30 10 1 10 11
M  V30 11 2 11 12
M  V30 12 1 12 13
M  V30 13 2 13 14
M  V30 14 1 14 15
M  V30 15 1 15 16
M  V30 16 2 16 17
M  V30 17 1 17 18
M  V30 18 2 18 19
M  V30 19 1 5 20
M  V30 20 1 20 21
M  V30 21 1 21 2
M  V30 22 1 19 7
M  V30 23 1 14 9
M  V30 24 1 19 15
M  V30 25 1 1 22
M  V30 26 1 2 23 CFG=1
M  V30 27 1 3 24
M  V30 28 1 3 25
M  V30 29 1 4 26
M  V30 30 1 4 27
M  V30 31 1 5 28 CFG=3
M  V30 32 1 6 29
M  V30 33 1 10 30
M  V30 34 1 11 31
M  V30 35 1 12 32
M  V30 36 1 13 33
M  V30 37 1 16 34
M  V30 38 1 17 35
M  V30 39 1 20 36
M  V30 40 1 20 37
M  V30 41 1 21 38
M  V30 42 1 21 39
M  V30 END BOND
M  V30 END CTAB
M  END
>  <Dataset>  (687) 
ChEMBL_Kinases

>  <Ligand_Instance>  (687) 
nan

>  <PDB_ID>  (687) 
nan

>  <Standardized_SMILES>  (687) 
O[C@H]1CC[C@H](Nc2nc3ccccc3n3ccnc23)CC1

>  <Name>  (687) 
nan

>  <Pocket>  (687) 
nan

>  <ATP_Site>  (687) 
nan

>  <Peripheral>  (687) 
nan

>  <Num_H_Atoms_ProtBoundConf>  (687) 
nan

>  <Num_Resolved_Atoms>  (687) 
nan

>  <Num_Not_Resolved_Atoms>  (687) 
nan

$$$$
CHEMBL2420574
     RDKit          3D

  0  0  0  0  0  0  0  0  0  0999 V3000
M  V30 BEGIN CTAB
M  V30 COUNTS 66 71 0 0 0
M  V30 BEGIN ATOM
M  V30 1 O 2.914927 -0.361835 2.396956 0
M  V30 2 C 2.256111 0.132914 1.475047 0
M  V30 3 N 2.911669 1.231555 0.857922 0
M  V30 4 C 4.177077 1.924132 1.033079 0
M  V30 5 C 5.254258 1.004431 0.580653 0
M  V30 6 C 5.784254 1.132886 -0.709590 0
M  V30 7 C 6.805625 0.359566 -1.249987 0
M  V30 8 C 7.343876 -0.619624 -0.444290 0
M  V30 9 C 6.877684 -0.806955 0.833499 0
M  V30 10 C 5.864890 0.003499 1.286810 0
M  V30 11 C 4.268276 3.104748 0.064784 0
M  V30 12 C 3.679176 4.279367 0.830538 0
M  V30 13 C 4.115969 4.009133 2.252085 0
M  V30 14 C 4.382881 2.524518 2.372719 0
M  V30 15 C 0.950753 -0.368875 1.078027 0
M  V30 16 C 0.151343 0.090223 0.052875 0
M  V30 17 C -1.082854 -0.413821 -0.295073 0
M  V30 18 C -1.533076 -1.473670 0.470135 0
M  V30 19 N -2.727807 -2.030385 0.198884 0
M  V30 20 C -3.247931 -3.073882 0.894406 0
M  V30 21 N -4.518760 -3.624390 0.560851 0
M  V30 22 C -5.257219 -3.037613 -0.541565 0 CFG=1
M  V30 23 C -6.555491 -3.762195 -0.804557 0
M  V30 24 C -7.165648 -3.255575 -2.072448 0
M  V30 25 C -6.842575 -1.797596 -2.323535 0 CFG=2
M  V30 26 O -5.656204 -1.608660 -2.998184 0
M  V30 27 C -6.726865 -1.093975 -0.985659 0
M  V30 28 C -5.500933 -1.577774 -0.231092 0
M  V30 29 C -2.459702 -3.545280 1.925025 0
M  V30 30 N -2.710352 -4.557292 2.778168 0
M  V30 31 C -1.658465 -4.649263 3.609002 0
M  V30 32 C -0.727028 -3.686649 3.282728 0
M  V30 33 N -1.249154 -3.004502 2.223182 0
M  V30 34 C -0.771656 -1.970903 1.507671 0
M  V30 35 C 0.462366 -1.435068 1.823211 0
M  V30 36 H 2.304135 1.632192 0.071189 0
M  V30 37 H 5.415314 1.883080 -1.425364 0
M  V30 38 H 7.177784 0.500672 -2.253043 0
M  V30 39 H 8.139373 -1.242853 -0.826668 0
M  V30 40 H 7.303841 -1.573705 1.454144 0
M  V30 41 H 5.553019 -0.177464 2.298019 0
M  V30 42 H 5.339668 3.356597 -0.053648 0
M  V30 43 H 3.723429 2.947435 -0.869653 0
M  V30 44 H 4.156428 5.233768 0.501719 0
M  V30 45 H 2.605787 4.405393 0.697496 0
M  V30 46 H 3.318594 4.294736 2.957489 0
M  V30 47 H 5.054879 4.549018 2.460162 0
M  V30 48 H 3.685158 2.077341 3.110641 0
M  V30 49 H 5.397394 2.328643 2.776537 0
M  V30 50 H 0.524058 0.911877 -0.523826 0
M  V30 51 H -1.636806 0.010940 -1.115701 0
M  V30 52 H -4.841606 -4.427195 1.140231 0
M  V30 53 H -4.655656 -3.083987 -1.470248 0
M  V30 54 H -6.313970 -4.849192 -0.974769 0
M  V30 55 H -7.270140 -3.697782 0.011728 0
M  V30 56 H -8.258981 -3.415534 -1.994922 0
M  V30 57 H -6.811063 -3.836292 -2.946487 0
M  V30 58 H -7.666530 -1.341558 -2.892792 0
M  V30 59 H -5.639974 -0.798574 -3.537930 0
M  V30 60 H -6.626176 -0.015021 -1.187467 0
M  V30 61 H -7.633235 -1.269341 -0.380182 0
M  V30 62 H -4.683946 -0.907830 -0.506286 0
M  V30 63 H -5.713302 -1.473568 0.863206 0
M  V30 64 H -1.480560 -5.329716 4.425865 0
M  V30 65 H 0.243682 -3.450011 3.721458 0
M  V30 66 H 1.036770 -1.857558 2.654064 0
M  V30 END ATOM
M  V30 BEGIN BOND
M  V30 1 2 1 2
M  V30 2 1 2 3
M  V30 3 1 3 4
M  V30 4 1 4 5
M  V30 5 2 5 6
M  V30 6 1 6 7
M  V30 7 2 7 8
M  V30 8 1 8 9
M  V30 9 2 9 10
M  V30 10 1 4 11
M  V30 11 1 11 12
M  V30 12 1 12 13
M  V30 13 1 13 14
M  V30 14 1 2 15
M  V30 15 2 15 16
M  V30 16 1 16 17
M  V30 17 2 17 18
M  V30 18 1 18 19
M  V30 19 2 19 20
M  V30 20 1 20 21
M  V30 21 1 21 22
M  V30 22 1 22 23
M  V30 23 1 23 24
M  V30 24 1 24 25
M  V30 25 1 25 26
M  V30 26 1 25 27
M  V30 27 1 27 28
M  V30 28 1 20 29
M  V30 29 2 29 30
M  V30 30 1 30 31
M  V30 31 2 31 32
M  V30 32 1 32 33
M  V30 33 1 33 34
M  V30 34 2 34 35
M  V30 35 1 14 4
M  V30 36 1 35 15
M  V30 37 1 10 5
M  V30 38 1 34 18
M  V30 39 1 28 22
M  V30 40 1 33 29
M  V30 41 1 3 36
M  V30 42 1 6 37
M  V30 43 1 7 38
M  V30 44 1 8 39
M  V30 45 1 9 40
M  V30 46 1 10 41
M  V30 47 1 11 42
M  V30 48 1 11 43
M  V30 49 1 12 44
M  V30 50 1 12 45
M  V30 51 1 13 46
M  V30 52 1 13 47
M  V30 53 1 14 48
M  V30 54 1 14 49
M  V30 55 1 16 50
M  V30 56 1 17 51
M  V30 57 1 21 52
M  V30 58 1 22 53 CFG=3
M  V30 59 1 23 54
M  V30 60 1 23 55
M  V30 61 1 24 56
M  V30 62 1 24 57
M  V30 63 1 25 58 CFG=3
M  V30 64 1 26 59
M  V30 65 1 27 60
M  V30 66 1 27 61
M  V30 67 1 28 62
M  V30 68 1 28 63
M  V30 69 1 31 64
M  V30 70 1 32 65
M  V30 71 1 35 66
M  V30 END BOND
M  V30 END CTAB
M  END
>  <Dataset>  (688) 
ChEMBL_Kinases

>  <Ligand_Instance>  (688) 
nan

>  <PDB_ID>  (688) 
nan

>  <Standardized_SMILES>  (688) 
O=C(NC1(c2ccccc2)CCCC1)c1ccc2nc(N[C@H]3CC[C@H](O)CC3)c3nccn3c2c1

>  <Name>  (688) 
nan

>  <Pocket>  (688) 
nan

>  <ATP_Site>  (688) 
nan

>  <Peripheral>  (688) 
nan

>  <Num_H_Atoms_ProtBoundConf>  (688) 
nan

>  <Num_Resolved_Atoms>  (688) 
nan

>  <Num_Not_Resolved_Atoms>  (688) 
nan

$$$$
CHEMBL2420575
     RDKit          3D

  0  0  0  0  0  0  0  0  0  0999 V3000
M  V30 BEGIN CTAB
M  V30 COUNTS 69 74 0 0 0
M  V30 BEGIN ATOM
M  V30 1 O 1.823972 2.035037 0.715445 0
M  V30 2 C 1.051199 1.176592 1.263230 0
M  V30 3 N 0.975083 1.316641 2.676345 0
M  V30 4 C 1.708188 2.338500 3.411671 0
M  V30 5 C 3.174666 2.169244 3.223197 0
M  V30 6 C 4.046185 3.108459 2.748490 0
M  V30 7 C 5.394267 2.869163 2.604445 0
M  V30 8 C 5.859477 1.605687 2.966641 0
M  V30 9 C 5.015616 0.612248 3.455579 0
M  V30 10 C 3.671208 0.911117 3.578214 0
M  V30 11 C 1.342716 3.735950 2.985712 0
M  V30 12 C -0.119467 4.032220 3.116168 0
M  V30 13 C -0.702438 3.449574 4.358955 0
M  V30 14 C 0.336992 3.069360 5.386366 0
M  V30 15 C 1.382165 2.149569 4.870973 0
M  V30 16 C 0.335016 0.170702 0.498825 0
M  V30 17 C -0.516557 -0.793327 0.998203 0
M  V30 18 C -1.161579 -1.713440 0.222915 0
M  V30 19 C -0.935931 -1.659974 -1.136016 0
M  V30 20 N -1.564888 -2.560378 -1.911140 0
M  V30 21 C -1.440555 -2.626760 -3.241770 0
M  V30 22 N -2.096146 -3.569551 -4.077678 0
M  V30 23 C -2.984162 -4.573640 -3.529646 0 CFG=1
M  V30 24 C -2.198334 -5.447808 -2.575915 0
M  V30 25 C -3.066513 -6.635869 -2.183815 0
M  V30 26 C -4.347890 -6.177461 -1.565639 0 CFG=2
M  V30 27 O -5.468549 -6.494858 -2.333000 0
M  V30 28 C -4.310003 -4.681439 -1.398989 0
M  V30 29 C -4.126983 -3.993814 -2.732737 0
M  V30 30 C -0.594781 -1.674459 -3.768776 0
M  V30 31 N -0.236755 -1.447947 -5.063416 0
M  V30 32 C 0.615067 -0.415274 -5.147176 0
M  V30 33 C 0.802493 0.028021 -3.854054 0
M  V30 34 N 0.065388 -0.744652 -3.047889 0
M  V30 35 C -0.099906 -0.728230 -1.715206 0
M  V30 36 C 0.516413 0.168531 -0.867863 0
M  V30 37 H 0.337407 0.612901 3.156761 0
M  V30 38 H 3.640126 4.057358 2.485933 0
M  V30 39 H 6.047118 3.643085 2.224199 0
M  V30 40 H 6.917810 1.438704 2.846230 0
M  V30 41 H 5.424381 -0.365124 3.727503 0
M  V30 42 H 3.078871 0.087209 3.965595 0
M  V30 43 H 1.875165 4.417596 3.688334 0
M  V30 44 H 1.665621 3.993153 1.980372 0
M  V30 45 H -0.719497 3.745297 2.222182 0
M  V30 46 H -0.203755 5.158913 3.136307 0
M  V30 47 H -1.323820 4.242103 4.864335 0
M  V30 48 H -1.400511 2.625790 4.147329 0
M  V30 49 H -0.199008 2.561658 6.215143 0
M  V30 50 H 0.758526 3.994637 5.868140 0
M  V30 51 H 2.311483 2.364924 5.461232 0
M  V30 52 H 1.105961 1.102342 5.109019 0
M  V30 53 H -0.659383 -0.792383 2.070407 0
M  V30 54 H -1.811919 -2.443437 0.641812 0
M  V30 55 H -1.926864 -3.526888 -5.096546 0
M  V30 56 H -3.363891 -5.220623 -4.350589 0
M  V30 57 H -1.905405 -4.891955 -1.662632 0
M  V30 58 H -1.320150 -5.855906 -3.109134 0
M  V30 59 H -2.497983 -7.283165 -1.485182 0
M  V30 60 H -3.296969 -7.224194 -3.096931 0
M  V30 61 H -4.437794 -6.621861 -0.531523 0
M  V30 62 H -6.262046 -6.602453 -1.735037 0
M  V30 63 H -5.301430 -4.351509 -0.990836 0
M  V30 64 H -3.577354 -4.353979 -0.627708 0
M  V30 65 H -4.036391 -2.911332 -2.536435 0
M  V30 66 H -5.108572 -4.132008 -3.268810 0
M  V30 67 H 1.061852 -0.015626 -6.052446 0
M  V30 68 H 1.417630 0.837316 -3.529457 0
M  V30 69 H 1.174952 0.895950 -1.363889 0
M  V30 END ATOM
M  V30 BEGIN BOND
M  V30 1 2 1 2
M  V30 2 1 2 3
M  V30 3 1 3 4
M  V30 4 1 4 5
M  V30 5 2 5 6
M  V30 6 1 6 7
M  V30 7 2 7 8
M  V30 8 1 8 9
M  V30 9 2 9 10
M  V30 10 1 4 11
M  V30 11 1 11 12
M  V30 12 1 12 13
M  V30 13 1 13 14
M  V30 14 1 14 15
M  V30 15 1 2 16
M  V30 16 2 16 17
M  V30 17 1 17 18
M  V30 18 2 18 19
M  V30 19 1 19 20
M  V30 20 2 20 21
M  V30 21 1 21 22
M  V30 22 1 22 23
M  V30 23 1 23 24
M  V30 24 1 24 25
M  V30 25 1 25 26
M  V30 26 1 26 27
M  V30 27 1 26 28
M  V30 28 1 28 29
M  V30 29 1 21 30
M  V30 30 2 30 31
M  V30 31 1 31 32
M  V30 32 2 32 33
M  V30 33 1 33 34
M  V30 34 1 34 35
M  V30 35 2 35 36
M  V30 36 1 15 4
M  V30 37 1 36 16
M  V30 38 1 10 5
M  V30 39 1 35 19
M  V30 40 1 29 23
M  V30 41 1 34 30
M  V30 42 1 3 37
M  V30 43 1 6 38
M  V30 44 1 7 39
M  V30 45 1 8 40
M  V30 46 1 9 41
M  V30 47 1 10 42
M  V30 48 1 11 43
M  V30 49 1 11 44
M  V30 50 1 12 45
M  V30 51 1 12 46
M  V30 52 1 13 47
M  V30 53 1 13 48
M  V30 54 1 14 49
M  V30 55 1 14 50
M  V30 56 1 15 51
M  V30 57 1 15 52
M  V30 58 1 17 53
M  V30 59 1 18 54
M  V30 60 1 22 55
M  V30 61 1 23 56 CFG=3
M  V30 62 1 24 57
M  V30 63 1 24 58
M  V30 64 1 25 59
M  V30 65 1 25 60
M  V30 66 1 26 61 CFG=1
M  V30 67 1 27 62
M  V30 68 1 28 63
M  V30 69 1 28 64
M  V30 70 1 29 65
M  V30 71 1 29 66
M  V30 72 1 32 67
M  V30 73 1 33 68
M  V30 74 1 36 69
M  V30 END BOND
M  V30 END CTAB
M  END
>  <Dataset>  (689) 
ChEMBL_Kinases

>  <Ligand_Instance>  (689) 
nan

>  <PDB_ID>  (689) 
nan

>  <Standardized_SMILES>  (689) 
O=C(NC1(c2ccccc2)CCCCC1)c1ccc2nc(N[C@H]3CC[C@H](O)CC3)c3nccn3c2c1

>  <Name>  (689) 
nan

>  <Pocket>  (689) 
nan

>  <ATP_Site>  (689) 
nan

>  <Peripheral>  (689) 
nan

>  <Num_H_Atoms_ProtBoundConf>  (689) 
nan

>  <Num_Resolved_Atoms>  (689) 
nan

>  <Num_Not_Resolved_Atoms>  (689) 
nan

$$$$
CHEMBL2420576
     RDKit          3D

  0  0  0  0  0  0  0  0  0  0999 V3000
M  V30 BEGIN CTAB
M  V30 COUNTS 38 41 0 0 0
M  V30 BEGIN ATOM
M  V30 1 C 2.234789 -2.710990 4.300766 0
M  V30 2 C 1.135230 -3.519781 4.603377 0
M  V30 3 C 0.020231 -3.532446 3.795349 0
M  V30 4 C -0.022896 -2.736675 2.664700 0
M  V30 5 C 1.065362 -1.945946 2.378656 0
M  V30 6 C 2.207177 -1.900073 3.160687 0
M  V30 7 N 1.046986 -1.163468 1.284683 0
M  V30 8 C 0.027645 -1.092700 0.432281 0
M  V30 9 N -0.031416 -0.282000 -0.730768 0
M  V30 10 C 1.045532 0.593397 -1.137736 0
M  V30 11 C 1.329847 1.643318 -0.084630 0
M  V30 12 C 0.139859 2.552561 0.137195 0
M  V30 13 C -0.527616 2.788491 -1.200545 0
M  V30 14 C 0.487461 2.639886 -2.308454 0
M  V30 15 C 0.839590 1.174725 -2.496828 0
M  V30 16 C -1.039488 -1.902154 0.759819 0
M  V30 17 N -2.234937 -2.090922 0.135372 0
M  V30 18 C -2.993511 -2.967828 0.784494 0
M  V30 19 C -2.256101 -3.359748 1.871576 0
M  V30 20 N -1.083342 -2.706181 1.837472 0
M  V30 21 H 3.130372 -2.671981 4.909971 0
M  V30 22 H 1.228381 -4.121090 5.502579 0
M  V30 23 H -0.814326 -4.156618 4.039274 0
M  V30 24 H 3.039704 -1.262377 2.896593 0
M  V30 25 H -0.867449 -0.297997 -1.330887 0
M  V30 26 H 1.968662 -0.057667 -1.128746 0
M  V30 27 H 1.575591 1.107202 0.853916 0
M  V30 28 H 2.242194 2.206614 -0.352056 0
M  V30 29 H -0.578900 2.046184 0.814176 0
M  V30 30 H 0.491089 3.474507 0.602057 0
M  V30 31 H -1.331349 2.056354 -1.365432 0
M  V30 32 H -0.891569 3.833639 -1.245106 0
M  V30 33 H 0.123888 3.028798 -3.264908 0
M  V30 34 H 1.451095 3.138920 -2.062564 0
M  V30 35 H 0.053880 0.634981 -3.062460 0
M  V30 36 H 1.785939 1.112741 -3.070985 0
M  V30 37 H -3.988287 -3.307475 0.516937 0
M  V30 38 H -2.534597 -4.067336 2.642354 0
M  V30 END ATOM
M  V30 BEGIN BOND
M  V30 1 2 1 2
M  V30 2 1 2 3
M  V30 3 2 3 4
M  V30 4 1 4 5
M  V30 5 2 5 6
M  V30 6 1 5 7
M  V30 7 2 7 8
M  V30 8 1 8 9
M  V30 9 1 9 10
M  V30 10 1 10 11
M  V30 11 1 11 12
M  V30 12 1 12 13
M  V30 13 1 13 14
M  V30 14 1 14 15
M  V30 15 1 8 16
M  V30 16 2 16 17
M  V30 17 1 17 18
M  V30 18 2 18 19
M  V30 19 1 19 20
M  V30 20 1 6 1
M  V30 21 1 15 10
M  V30 22 1 20 16
M  V30 23 1 20 4
M  V30 24 1 1 21
M  V30 25 1 2 22
M  V30 26 1 3 23
M  V30 27 1 6 24
M  V30 28 1 9 25
M  V30 29 1 10 26
M  V30 30 1 11 27
M  V30 31 1 11 28
M  V30 32 1 12 29
M  V30 33 1 12 30
M  V30 34 1 13 31
M  V30 35 1 13 32
M  V30 36 1 14 33
M  V30 37 1 14 34
M  V30 38 1 15 35
M  V30 39 1 15 36
M  V30 40 1 18 37
M  V30 41 1 19 38
M  V30 END BOND
M  V30 END CTAB
M  END
>  <Dataset>  (690) 
ChEMBL_Kinases

>  <Ligand_Instance>  (690) 
nan

>  <PDB_ID>  (690) 
nan

>  <Standardized_SMILES>  (690) 
c1ccc2c(c1)nc(NC1CCCCC1)c1nccn12

>  <Name>  (690) 
nan

>  <Pocket>  (690) 
nan

>  <ATP_Site>  (690) 
nan

>  <Peripheral>  (690) 
nan

>  <Num_H_Atoms_ProtBoundConf>  (690) 
nan

>  <Num_Resolved_Atoms>  (690) 
nan

>  <Num_Not_Resolved_Atoms>  (690) 
nan

$$$$
CHEMBL2420577
     RDKit          3D

  0  0  0  0  0  0  0  0  0  0999 V3000
M  V30 BEGIN CTAB
M  V30 COUNTS 38 41 0 0 0
M  V30 BEGIN ATOM
M  V30 1 C -2.623767 -1.140127 1.893586 0
M  V30 2 C -2.301419 -1.702576 0.674984 0
M  V30 3 C -1.237141 -2.595435 0.648223 0
M  V30 4 C -0.527547 -2.904458 1.817051 0
M  V30 5 C 0.544011 -3.859583 1.573422 0
M  V30 6 C 1.865653 -3.202024 1.325959 0
M  V30 7 N 1.950262 -2.297279 0.239171 0
M  V30 8 C 1.491303 -0.940788 0.150108 0
M  V30 9 N 0.921687 -0.291509 1.159266 0
M  V30 10 C 0.522750 0.983541 1.069224 0
M  V30 11 C -0.064949 1.600150 2.162056 0
M  V30 12 C -0.463581 2.907600 2.039516 0
M  V30 13 C -0.321031 3.671910 0.886668 0
M  V30 14 C 0.265035 3.020055 -0.167227 0
M  V30 15 C 0.679313 1.711411 -0.088534 0
M  V30 16 N 1.250850 1.077054 -1.117754 0
M  V30 17 C 1.548960 1.479311 -2.366547 0
M  V30 18 C 2.142372 0.467189 -3.091668 0
M  V30 19 N 2.174220 -0.542285 -2.202894 0
M  V30 20 C 1.648302 -0.195723 -1.025619 0
M  V30 21 C -0.866107 -2.332555 3.018801 0
M  V30 22 C -1.920666 -1.449075 3.040138 0
M  V30 23 H -3.435077 -0.434245 2.018995 0
M  V30 24 H -2.880232 -1.429158 -0.189880 0
M  V30 25 H -1.036717 -3.000411 -0.338065 0
M  V30 26 H 0.637263 -4.466941 2.527989 0
M  V30 27 H 0.293856 -4.620422 0.797421 0
M  V30 28 H 2.638540 -4.012318 1.170803 0
M  V30 29 H 2.110721 -2.685692 2.314681 0
M  V30 30 H 2.408410 -2.645384 -0.639764 0
M  V30 31 H -0.203016 1.051696 3.092189 0
M  V30 32 H -0.922944 3.365457 2.917126 0
M  V30 33 H -0.647879 4.695803 0.832803 0
M  V30 34 H 0.416815 3.544479 -1.113744 0
M  V30 35 H 1.337580 2.490072 -2.739920 0
M  V30 36 H 2.482654 0.515016 -4.117479 0
M  V30 37 H -0.268641 -2.621465 3.884191 0
M  V30 38 H -2.135125 -1.032425 4.026906 0
M  V30 END ATOM
M  V30 BEGIN BOND
M  V30 1 2 1 2
M  V30 2 1 2 3
M  V30 3 2 3 4
M  V30 4 1 4 5
M  V30 5 1 5 6
M  V30 6 1 6 7
M  V30 7 1 7 8
M  V30 8 2 8 9
M  V30 9 1 9 10
M  V30 10 2 10 11
M  V30 11 1 11 12
M  V30 12 2 12 13
M  V30 13 1 13 14
M  V30 14 2 14 15
M  V30 15 1 15 16
M  V30 16 1 16 17
M  V30 17 2 17 18
M  V30 18 1 18 19
M  V30 19 2 19 20
M  V30 20 1 4 21
M  V30 21 2 21 22
M  V30 22 1 22 1
M  V30 23 1 20 8
M  V30 24 1 15 10
M  V30 25 1 20 16
M  V30 26 1 1 23
M  V30 27 1 2 24
M  V30 28 1 3 25
M  V30 29 1 5 26
M  V30 30 1 5 27
M  V30 31 1 6 28
M  V30 32 1 6 29
M  V30 33 1 7 30
M  V30 34 1 11 31
M  V30 35 1 12 32
M  V30 36 1 13 33
M  V30 37 1 14 34
M  V30 38 1 17 35
M  V30 39 1 18 36
M  V30 40 1 21 37
M  V30 41 1 22 38
M  V30 END BOND
M  V30 END CTAB
M  END
>  <Dataset>  (691) 
ChEMBL_Kinases

>  <Ligand_Instance>  (691) 
nan

>  <PDB_ID>  (691) 
nan

>  <Standardized_SMILES>  (691) 
c1ccc(CCNc2nc3ccccc3n3ccnc23)cc1

>  <Name>  (691) 
nan

>  <Pocket>  (691) 
nan

>  <ATP_Site>  (691) 
nan

>  <Peripheral>  (691) 
nan

>  <Num_H_Atoms_ProtBoundConf>  (691) 
nan

>  <Num_Resolved_Atoms>  (691) 
nan

>  <Num_Not_Resolved_Atoms>  (691) 
nan

$$$$
CHEMBL2420578
     RDKit          3D

  0  0  0  0  0  0  0  0  0  0999 V3000
M  V30 BEGIN CTAB
M  V30 COUNTS 35 38 0 0 0
M  V30 BEGIN ATOM
M  V30 1 C -0.644208 -1.182357 4.998399 0
M  V30 2 C 0.523451 -1.189733 4.276046 0
M  V30 3 C 0.620302 -1.821105 3.062488 0
M  V30 4 C -0.435236 -2.484496 2.489400 0
M  V30 5 C -0.472316 -3.196067 1.192740 0
M  V30 6 N -0.923606 -2.374916 0.087561 0
M  V30 7 C -0.352180 -1.180562 -0.434151 0
M  V30 8 N 0.766172 -0.677312 0.117530 0
M  V30 9 C 1.395462 0.434006 -0.284583 0
M  V30 10 C 2.556824 0.876978 0.356828 0
M  V30 11 C 3.175139 2.045248 -0.103948 0
M  V30 12 C 2.636578 2.734985 -1.171590 0
M  V30 13 C 1.475380 2.294092 -1.814645 0
M  V30 14 C 0.880313 1.143002 -1.348178 0
M  V30 15 N -0.237881 0.660709 -1.917751 0
M  V30 16 C -1.004472 1.079222 -2.952806 0
M  V30 17 C -2.082142 0.255072 -3.192565 0
M  V30 18 N -1.957475 -0.704310 -2.257341 0
M  V30 19 C -0.868343 -0.453197 -1.514447 0
M  V30 20 C -1.605237 -2.451525 3.260292 0
M  V30 21 C -1.733294 -1.826193 4.482022 0
M  V30 22 H -0.676554 -0.677427 5.941528 0
M  V30 23 H 1.425543 -0.693679 4.635669 0
M  V30 24 H 1.538631 -1.822252 2.515147 0
M  V30 25 H 0.509716 -3.660632 0.947802 0
M  V30 26 H -1.203349 -4.022016 1.303264 0
M  V30 27 H -1.790950 -2.646129 -0.446413 0
M  V30 28 H 2.927400 0.280644 1.196204 0
M  V30 29 H 4.072677 2.379004 0.399145 0
M  V30 30 H 3.123600 3.631675 -1.514297 0
M  V30 31 H 1.042060 2.819763 -2.648461 0
M  V30 32 H -0.795653 1.974691 -3.539418 0
M  V30 33 H -2.823293 0.396441 -3.966775 0
M  V30 34 H -2.485288 -2.955055 2.873642 0
M  V30 35 H -2.683609 -1.858021 5.000951 0
M  V30 END ATOM
M  V30 BEGIN BOND
M  V30 1 2 1 2
M  V30 2 1 2 3
M  V30 3 2 3 4
M  V30 4 1 4 5
M  V30 5 1 5 6
M  V30 6 1 6 7
M  V30 7 2 7 8
M  V30 8 1 8 9
M  V30 9 2 9 10
M  V30 10 1 10 11
M  V30 11 2 11 12
M  V30 12 1 12 13
M  V30 13 2 13 14
M  V30 14 1 14 15
M  V30 15 1 15 16
M  V30 16 2 16 17
M  V30 17 1 17 18
M  V30 18 2 18 19
M  V30 19 1 4 20
M  V30 20 2 20 21
M  V30 21 1 21 1
M  V30 22 1 19 7
M  V30 23 1 14 9
M  V30 24 1 19 15
M  V30 25 1 1 22
M  V30 26 1 2 23
M  V30 27 1 3 24
M  V30 28 1 5 25
M  V30 29 1 5 26
M  V30 30 1 6 27
M  V30 31 1 10 28
M  V30 32 1 11 29
M  V30 33 1 12 30
M  V30 34 1 13 31
M  V30 35 1 16 32
M  V30 36 1 17 33
M  V30 37 1 20 34
M  V30 38 1 21 35
M  V30 END BOND
M  V30 END CTAB
M  END
>  <Dataset>  (692) 
ChEMBL_Kinases

>  <Ligand_Instance>  (692) 
nan

>  <PDB_ID>  (692) 
nan

>  <Standardized_SMILES>  (692) 
c1ccc(CNc2nc3ccccc3n3ccnc23)cc1

>  <Name>  (692) 
nan

>  <Pocket>  (692) 
nan

>  <ATP_Site>  (692) 
nan

>  <Peripheral>  (692) 
nan

>  <Num_H_Atoms_ProtBoundConf>  (692) 
nan

>  <Num_Resolved_Atoms>  (692) 
nan

>  <Num_Not_Resolved_Atoms>  (692) 
nan

$$$$
CHEMBL2420579
     RDKit          3D

  0  0  0  0  0  0  0  0  0  0999 V3000
M  V30 BEGIN CTAB
M  V30 COUNTS 38 41 0 0 0
M  V30 BEGIN ATOM
M  V30 1 F 0.442920 -1.050611 3.822443 0
M  V30 2 C 1.340480 -2.086548 3.979802 0
M  V30 3 F 1.375876 -2.437745 5.297968 0
M  V30 4 C 0.925228 -3.258975 3.116950 0
M  V30 5 C 0.750931 -2.751038 1.697635 0
M  V30 6 C 1.879985 -1.879486 1.220654 0
M  V30 7 N 1.440928 -0.501369 1.183764 0
M  V30 8 C 0.458866 0.095940 0.357375 0
M  V30 9 N 0.166317 1.401298 0.497059 0
M  V30 10 C -0.749489 2.000449 -0.275621 0
M  V30 11 C -0.965149 3.342304 -0.040455 0
M  V30 12 C -1.900279 4.016116 -0.807513 0
M  V30 13 C -2.596170 3.312988 -1.796698 0
M  V30 14 C -2.343034 1.960254 -1.995602 0
M  V30 15 C -1.427427 1.295352 -1.246359 0
M  V30 16 N -1.129477 -0.009268 -1.380381 0
M  V30 17 C -1.682825 -0.849433 -2.270903 0
M  V30 18 C -1.052502 -2.048480 -2.016541 0
M  V30 19 N -0.163096 -1.924677 -1.017418 0
M  V30 20 C -0.216732 -0.642089 -0.622616 0
M  V30 21 C 3.048524 -2.066596 2.163349 0
M  V30 22 C 2.701807 -1.563579 3.554499 0
M  V30 23 H 1.627837 -4.090067 3.156972 0
M  V30 24 H -0.074508 -3.622668 3.428154 0
M  V30 25 H -0.169358 -2.114991 1.749000 0
M  V30 26 H 0.594351 -3.631141 1.034612 0
M  V30 27 H 2.204513 -2.170640 0.183584 0
M  V30 28 H 1.928945 0.131369 1.873213 0
M  V30 29 H -0.456180 3.933682 0.709977 0
M  V30 30 H -2.176005 5.071155 -0.736272 0
M  V30 31 H -3.333098 3.770449 -2.426640 0
M  V30 32 H -2.885030 1.436369 -2.757753 0
M  V30 33 H -2.429900 -0.768407 -3.044905 0
M  V30 34 H -1.133922 -3.047698 -2.456528 0
M  V30 35 H 3.319367 -3.136704 2.245602 0
M  V30 36 H 3.925631 -1.473637 1.821586 0
M  V30 37 H 2.783968 -0.465998 3.625202 0
M  V30 38 H 3.442425 -1.997014 4.254988 0
M  V30 END ATOM
M  V30 BEGIN BOND
M  V30 1 1 1 2
M  V30 2 1 2 3
M  V30 3 1 2 4
M  V30 4 1 4 5
M  V30 5 1 5 6
M  V30 6 1 6 7
M  V30 7 1 7 8
M  V30 8 2 8 9
M  V30 9 1 9 10
M  V30 10 2 10 11
M  V30 11 1 11 12
M  V30 12 2 12 13
M  V30 13 1 13 14
M  V30 14 2 14 15
M  V30 15 1 15 16
M  V30 16 1 16 17
M  V30 17 2 17 18
M  V30 18 1 18 19
M  V30 19 2 19 20
M  V30 20 1 6 21
M  V30 21 1 21 22
M  V30 22 1 22 2
M  V30 23 1 20 8
M  V30 24 1 15 10
M  V30 25 1 20 16
M  V30 26 1 4 23
M  V30 27 1 4 24
M  V30 28 1 5 25
M  V30 29 1 5 26
M  V30 30 1 6 27
M  V30 31 1 7 28
M  V30 32 1 11 29
M  V30 33 1 12 30
M  V30 34 1 13 31
M  V30 35 1 14 32
M  V30 36 1 17 33
M  V30 37 1 18 34
M  V30 38 1 21 35
M  V30 39 1 21 36
M  V30 40 1 22 37
M  V30 41 1 22 38
M  V30 END BOND
M  V30 END CTAB
M  END
>  <Dataset>  (693) 
ChEMBL_Kinases

>  <Ligand_Instance>  (693) 
nan

>  <PDB_ID>  (693) 
nan

>  <Standardized_SMILES>  (693) 
FC1(F)CCC(Nc2nc3ccccc3n3ccnc23)CC1

>  <Name>  (693) 
nan

>  <Pocket>  (693) 
nan

>  <ATP_Site>  (693) 
nan

>  <Peripheral>  (693) 
nan

>  <Num_H_Atoms_ProtBoundConf>  (693) 
nan

>  <Num_Resolved_Atoms>  (693) 
nan

>  <Num_Not_Resolved_Atoms>  (693) 
nan

$$$$
CHEMBL2420580
     RDKit          3D

  0  0  0  0  0  0  0  0  0  0999 V3000
M  V30 BEGIN CTAB
M  V30 COUNTS 46 49 0 0 0
M  V30 BEGIN ATOM
M  V30 1 C 2.814573 -4.273488 1.112220 0
M  V30 2 S 2.493714 -4.804637 -0.534615 0
M  V30 3 O 3.634411 -4.346152 -1.426479 0
M  V30 4 O 2.531105 -6.306340 -0.567075 0
M  V30 5 N 0.965289 -4.236226 -1.098127 0
M  V30 6 C 0.913934 -2.806237 -1.125428 0 CFG=1
M  V30 7 C 0.724715 -2.236029 -2.495627 0
M  V30 8 C 0.732323 -0.731027 -2.412548 0
M  V30 9 C -0.249196 -0.186176 -1.380576 0 CFG=2
M  V30 10 N 0.400901 0.177866 -0.136810 0
M  V30 11 C -0.032078 0.892268 1.003338 0
M  V30 12 N 0.811900 1.027565 2.066565 0
M  V30 13 C 0.457166 1.711322 3.160058 0
M  V30 14 C 1.380704 1.786226 4.171933 0
M  V30 15 C 1.040352 2.487629 5.315668 0
M  V30 16 C -0.207046 3.083173 5.398411 0
M  V30 17 C -1.104234 2.980148 4.352452 0
M  V30 18 C -0.792003 2.287797 3.201486 0
M  V30 19 N -1.639657 2.167519 2.165197 0
M  V30 20 C -2.877709 2.682666 2.070873 0
M  V30 21 C -3.289354 2.271576 0.821308 0
M  V30 22 N -2.330492 1.551353 0.222877 0
M  V30 23 C -1.297484 1.486195 1.065203 0
M  V30 24 C -1.141677 -1.375489 -1.045841 0
M  V30 25 C -0.243955 -2.355715 -0.278408 0
M  V30 26 H 1.822682 -4.160242 1.626320 0
M  V30 27 H 3.410407 -4.993634 1.713612 0
M  V30 28 H 3.380407 -3.313478 1.155040 0
M  V30 29 H 0.893783 -4.565262 -2.102591 0
M  V30 30 H 1.904577 -2.428253 -0.764742 0
M  V30 31 H -0.143476 -2.651870 -3.049999 0
M  V30 32 H 1.627439 -2.493014 -3.127214 0
M  V30 33 H 1.757813 -0.412638 -2.158064 0
M  V30 34 H 0.457171 -0.368401 -3.445271 0
M  V30 35 H -0.802617 0.681769 -1.756847 0
M  V30 36 H 1.403510 -0.177910 -0.103655 0
M  V30 37 H 2.362198 1.302129 4.074592 0
M  V30 38 H 1.723701 2.579736 6.140706 0
M  V30 39 H -0.549542 3.647907 6.255841 0
M  V30 40 H -2.092323 3.455168 4.424839 0
M  V30 41 H -3.452917 3.269899 2.754767 0
M  V30 42 H -4.249944 2.469348 0.325419 0
M  V30 43 H -1.920579 -1.075542 -0.358504 0
M  V30 44 H -1.619016 -1.828769 -1.921905 0
M  V30 45 H 0.175668 -1.746116 0.543635 0
M  V30 46 H -0.896849 -3.173083 0.035867 0
M  V30 END ATOM
M  V30 BEGIN BOND
M  V30 1 1 1 2
M  V30 2 2 2 3
M  V30 3 2 2 4
M  V30 4 1 2 5
M  V30 5 1 5 6
M  V30 6 1 6 7
M  V30 7 1 7 8
M  V30 8 1 8 9
M  V30 9 1 9 10
M  V30 10 1 10 11
M  V30 11 2 11 12
M  V30 12 1 12 13
M  V30 13 2 13 14
M  V30 14 1 14 15
M  V30 15 2 15 16
M  V30 16 1 16 17
M  V30 17 2 17 18
M  V30 18 1 18 19
M  V30 19 1 19 20
M  V30 20 2 20 21
M  V30 21 1 21 22
M  V30 22 2 22 23
M  V30 23 1 9 24
M  V30 24 1 24 25
M  V30 25 1 25 6
M  V30 26 1 23 11
M  V30 27 1 18 13
M  V30 28 1 23 19
M  V30 29 1 1 26
M  V30 30 1 1 27
M  V30 31 1 1 28
M  V30 32 1 5 29
M  V30 33 1 6 30 CFG=1
M  V30 34 1 7 31
M  V30 35 1 7 32
M  V30 36 1 8 33
M  V30 37 1 8 34
M  V30 38 1 9 35 CFG=3
M  V30 39 1 10 36
M  V30 40 1 14 37
M  V30 41 1 15 38
M  V30 42 1 16 39
M  V30 43 1 17 40
M  V30 44 1 20 41
M  V30 45 1 21 42
M  V30 46 1 24 43
M  V30 47 1 24 44
M  V30 48 1 25 45
M  V30 49 1 25 46
M  V30 END BOND
M  V30 END CTAB
M  END
>  <Dataset>  (694) 
ChEMBL_Kinases

>  <Ligand_Instance>  (694) 
nan

>  <PDB_ID>  (694) 
nan

>  <Standardized_SMILES>  (694) 
CS(=O)(=O)N[C@H]1CC[C@H](Nc2nc3ccccc3n3ccnc23)CC1

>  <Name>  (694) 
nan

>  <Pocket>  (694) 
nan

>  <ATP_Site>  (694) 
nan

>  <Peripheral>  (694) 
nan

>  <Num_H_Atoms_ProtBoundConf>  (694) 
nan

>  <Num_Resolved_Atoms>  (694) 
nan

>  <Num_Not_Resolved_Atoms>  (694) 
nan

$$$$
CHEMBL2420581
     RDKit          3D

  0  0  0  0  0  0  0  0  0  0999 V3000
M  V30 BEGIN CTAB
M  V30 COUNTS 40 43 0 0 0
M  V30 BEGIN ATOM
M  V30 1 N -2.586461 -4.223522 2.966766 0
M  V30 2 C -1.240440 -3.697294 3.072929 0 CFG=1
M  V30 3 C -0.379275 -4.304798 2.014363 0
M  V30 4 C 0.875339 -3.430565 1.909585 0
M  V30 5 C 0.460010 -2.242972 1.084223 0 CFG=2
M  V30 6 N 1.467954 -1.201154 1.069655 0
M  V30 7 C 1.292207 0.011065 0.346309 0
M  V30 8 N 0.168808 0.235756 -0.360990 0
M  V30 9 C -0.003086 1.402546 -1.058262 0
M  V30 10 C -1.153801 1.638329 -1.785609 0
M  V30 11 C -1.265484 2.832108 -2.465164 0
M  V30 12 C -0.264012 3.780959 -2.432324 0
M  V30 13 C 0.896923 3.555950 -1.705227 0
M  V30 14 C 1.000540 2.356192 -1.026813 0
M  V30 15 N 2.121280 2.120100 -0.314999 0
M  V30 16 C 3.241555 2.841005 -0.101244 0
M  V30 17 C 4.099649 2.126522 0.721321 0
M  V30 18 N 3.488949 0.964844 1.004641 0
M  V30 19 C 2.295970 0.959613 0.380433 0
M  V30 20 C -0.897400 -1.741956 1.536986 0
M  V30 21 C -1.232158 -2.210005 2.936620 0
M  V30 22 H -3.187289 -3.570174 2.443700 0
M  V30 23 H -3.034005 -4.369227 3.909135 0
M  V30 24 H -0.802058 -3.982943 4.055739 0
M  V30 25 H -0.124830 -5.339219 2.258032 0
M  V30 26 H -0.901602 -4.347845 1.024754 0
M  V30 27 H 1.624121 -4.051155 1.371668 0
M  V30 28 H 1.164435 -3.143715 2.922226 0
M  V30 29 H 0.329196 -2.568764 0.028646 0
M  V30 30 H 2.328998 -1.380055 1.613951 0
M  V30 31 H -1.956956 0.890900 -1.819010 0
M  V30 32 H -2.134366 3.078745 -3.050219 0
M  V30 33 H -0.368862 4.707822 -2.969641 0
M  V30 34 H 1.711199 4.286347 -1.657119 0
M  V30 35 H 3.435819 3.837273 -0.517428 0
M  V30 36 H 5.084344 2.449762 1.070775 0
M  V30 37 H -0.835354 -0.638798 1.606144 0
M  V30 38 H -1.712970 -1.967338 0.824489 0
M  V30 39 H -0.544092 -1.730890 3.661282 0
M  V30 40 H -2.259316 -1.781893 3.135505 0
M  V30 END ATOM
M  V30 BEGIN BOND
M  V30 1 1 1 2
M  V30 2 1 2 3
M  V30 3 1 3 4
M  V30 4 1 4 5
M  V30 5 1 5 6
M  V30 6 1 6 7
M  V30 7 2 7 8
M  V30 8 1 8 9
M  V30 9 2 9 10
M  V30 10 1 10 11
M  V30 11 2 11 12
M  V30 12 1 12 13
M  V30 13 2 13 14
M  V30 14 1 14 15
M  V30 15 1 15 16
M  V30 16 2 16 17
M  V30 17 1 17 18
M  V30 18 2 18 19
M  V30 19 1 5 20
M  V30 20 1 20 21
M  V30 21 1 21 2
M  V30 22 1 19 7
M  V30 23 1 14 9
M  V30 24 1 19 15
M  V30 25 1 1 22
M  V30 26 1 1 23
M  V30 27 1 2 24 CFG=1
M  V30 28 1 3 25
M  V30 29 1 3 26
M  V30 30 1 4 27
M  V30 31 1 4 28
M  V30 32 1 5 29 CFG=3
M  V30 33 1 6 30
M  V30 34 1 10 31
M  V30 35 1 11 32
M  V30 36 1 12 33
M  V30 37 1 13 34
M  V30 38 1 16 35
M  V30 39 1 17 36
M  V30 40 1 20 37
M  V30 41 1 20 38
M  V30 42 1 21 39
M  V30 43 1 21 40
M  V30 END BOND
M  V30 END CTAB
M  END
>  <Dataset>  (695) 
ChEMBL_Kinases

>  <Ligand_Instance>  (695) 
nan

>  <PDB_ID>  (695) 
nan

>  <Standardized_SMILES>  (695) 
N[C@H]1CC[C@H](Nc2nc3ccccc3n3ccnc23)CC1

>  <Name>  (695) 
nan

>  <Pocket>  (695) 
nan

>  <ATP_Site>  (695) 
nan

>  <Peripheral>  (695) 
nan

>  <Num_H_Atoms_ProtBoundConf>  (695) 
nan

>  <Num_Resolved_Atoms>  (695) 
nan

>  <Num_Not_Resolved_Atoms>  (695) 
nan

$$$$
CHEMBL2420573
     RDKit          3D

  0  0  0  0  0  0  0  0  0  0999 V3000
M  V30 BEGIN CTAB
M  V30 COUNTS 63 68 0 0 0
M  V30 BEGIN ATOM
M  V30 1 O 1.992452 1.362896 2.904089 0
M  V30 2 C 2.064913 0.912446 1.722820 0
M  V30 3 N 3.373992 0.955027 1.199617 0
M  V30 4 C 4.516265 1.458991 1.931322 0
M  V30 5 C 5.009142 0.567897 3.004055 0
M  V30 6 C 5.195737 -0.751150 2.596821 0
M  V30 7 C 5.656453 -1.707882 3.497521 0
M  V30 8 C 5.926095 -1.323778 4.807027 0
M  V30 9 C 5.745817 -0.035360 5.212058 0
M  V30 10 C 5.291709 0.876775 4.298700 0
M  V30 11 C 4.292081 2.901038 2.304394 0
M  V30 12 C 4.865361 3.253348 0.925272 0
M  V30 13 C 5.628722 1.925354 1.012437 0
M  V30 14 C 0.915258 0.402443 0.979857 0
M  V30 15 C 0.971760 -0.091217 -0.309179 0
M  V30 16 C -0.152077 -0.561614 -0.961171 0
M  V30 17 C -1.367864 -0.528667 -0.281975 0
M  V30 18 N -2.491945 -0.976288 -0.874593 0
M  V30 19 C -3.703076 -0.978692 -0.286990 0
M  V30 20 N -4.861889 -1.460470 -0.948434 0
M  V30 21 C -4.729085 -1.967090 -2.303315 0 CFG=1
M  V30 22 C -3.785877 -3.110941 -2.294830 0
M  V30 23 C -3.995006 -4.121384 -3.389297 0
M  V30 24 C -5.455148 -4.485562 -3.417067 0 CFG=2
M  V30 25 O -5.712470 -5.596463 -4.210555 0
M  V30 26 C -6.151866 -3.247551 -3.942059 0
M  V30 27 C -6.089047 -2.216001 -2.846879 0
M  V30 28 C -3.756383 -0.484626 1.001408 0
M  V30 29 N -4.775337 -0.340238 1.870360 0
M  V30 30 C -4.336355 0.197681 3.029863 0
M  V30 31 C -2.970657 0.392170 2.856909 0
M  V30 32 N -2.634577 -0.027970 1.618206 0
M  V30 33 C -1.434596 -0.036875 1.007272 0
M  V30 34 C -0.311026 0.433547 1.659376 0
M  V30 35 H 3.551943 0.601925 0.214822 0
M  V30 36 H 5.025082 -1.176431 1.616788 0
M  V30 37 H 5.837527 -2.746936 3.302545 0
M  V30 38 H 6.292397 -1.998671 5.594348 0
M  V30 39 H 5.936629 0.327451 6.214101 0
M  V30 40 H 5.133578 1.905145 4.569606 0
M  V30 41 H 3.252907 3.254419 2.355501 0
M  V30 42 H 4.977477 3.282000 3.072638 0
M  V30 43 H 4.126435 3.201497 0.097973 0
M  V30 44 H 5.508321 4.149221 0.917732 0
M  V30 45 H 5.732697 1.407903 0.054215 0
M  V30 46 H 6.599662 2.072371 1.520295 0
M  V30 47 H 1.931066 -0.102020 -0.806578 0
M  V30 48 H -0.067752 -0.940569 -1.970667 0
M  V30 49 H -5.767802 -1.433711 -0.438297 0
M  V30 50 H -4.264184 -1.132413 -2.885213 0
M  V30 51 H -2.728762 -2.767607 -2.421811 0
M  V30 52 H -3.800513 -3.670888 -1.335267 0
M  V30 53 H -3.376257 -5.006196 -3.173318 0
M  V30 54 H -3.701754 -3.653605 -4.368485 0
M  V30 55 H -5.786498 -4.637557 -2.354382 0
M  V30 56 H -5.194366 -5.484407 -5.039752 0
M  V30 57 H -7.200256 -3.412705 -4.204938 0
M  V30 58 H -5.558572 -2.812585 -4.798725 0
M  V30 59 H -6.795726 -2.555841 -2.057840 0
M  V30 60 H -6.534456 -1.287789 -3.264281 0
M  V30 61 H -4.837351 0.462466 3.952513 0
M  V30 62 H -2.292173 0.816648 3.609116 0
M  V30 63 H -0.386241 0.816518 2.674613 0
M  V30 END ATOM
M  V30 BEGIN BOND
M  V30 1 2 1 2
M  V30 2 1 2 3
M  V30 3 1 3 4
M  V30 4 1 4 5
M  V30 5 2 5 6
M  V30 6 1 6 7
M  V30 7 2 7 8
M  V30 8 1 8 9
M  V30 9 2 9 10
M  V30 10 1 4 11
M  V30 11 1 11 12
M  V30 12 1 12 13
M  V30 13 1 2 14
M  V30 14 2 14 15
M  V30 15 1 15 16
M  V30 16 2 16 17
M  V30 17 1 17 18
M  V30 18 2 18 19
M  V30 19 1 19 20
M  V30 20 1 20 21
M  V30 21 1 21 22
M  V30 22 1 22 23
M  V30 23 1 23 24
M  V30 24 1 24 25
M  V30 25 1 24 26
M  V30 26 1 26 27
M  V30 27 1 19 28
M  V30 28 2 28 29
M  V30 29 1 29 30
M  V30 30 2 30 31
M  V30 31 1 31 32
M  V30 32 1 32 33
M  V30 33 2 33 34
M  V30 34 1 13 4
M  V30 35 1 34 14
M  V30 36 1 10 5
M  V30 37 1 33 17
M  V30 38 1 27 21
M  V30 39 1 32 28
M  V30 40 1 3 35
M  V30 41 1 6 36
M  V30 42 1 7 37
M  V30 43 1 8 38
M  V30 44 1 9 39
M  V30 45 1 10 40
M  V30 46 1 11 41
M  V30 47 1 11 42
M  V30 48 1 12 43
M  V30 49 1 12 44
M  V30 50 1 13 45
M  V30 51 1 13 46
M  V30 52 1 15 47
M  V30 53 1 16 48
M  V30 54 1 20 49
M  V30 55 1 21 50 CFG=3
M  V30 56 1 22 51
M  V30 57 1 22 52
M  V30 58 1 23 53
M  V30 59 1 23 54
M  V30 60 1 24 55 CFG=1
M  V30 61 1 25 56
M  V30 62 1 26 57
M  V30 63 1 26 58
M  V30 64 1 27 59
M  V30 65 1 27 60
M  V30 66 1 30 61
M  V30 67 1 31 62
M  V30 68 1 34 63
M  V30 END BOND
M  V30 END CTAB
M  END
>  <Dataset>  (696) 
ChEMBL_Kinases

>  <Ligand_Instance>  (696) 
nan

>  <PDB_ID>  (696) 
nan

>  <Standardized_SMILES>  (696) 
O=C(NC1(c2ccccc2)CCC1)c1ccc2nc(N[C@H]3CC[C@H](O)CC3)c3nccn3c2c1

>  <Name>  (696) 
nan

>  <Pocket>  (696) 
nan

>  <ATP_Site>  (696) 
nan

>  <Peripheral>  (696) 
nan

>  <Num_H_Atoms_ProtBoundConf>  (696) 
nan

>  <Num_Resolved_Atoms>  (696) 
nan

>  <Num_Not_Resolved_Atoms>  (696) 
nan

$$$$
CHEMBL242735
     RDKit          3D

  0  0  0  0  0  0  0  0  0  0999 V3000
M  V30 BEGIN CTAB
M  V30 COUNTS 60 64 0 0 0
M  V30 BEGIN ATOM
M  V30 1 C 7.492313 -7.014075 2.117121 0
M  V30 2 O 6.615354 -5.915524 2.257534 0
M  V30 3 C 6.614623 -4.923831 1.286413 0
M  V30 4 O 7.436144 -5.142757 0.359316 0
M  V30 5 C 5.748637 -3.727270 1.317273 0
M  V30 6 C 4.840857 -3.473895 2.325960 0
M  V30 7 C 4.065658 -2.326986 2.283187 0
M  V30 8 C 4.183876 -1.424481 1.243049 0
M  V30 9 C 3.424454 -0.188928 1.091623 0
M  V30 10 N 4.013268 0.969393 0.743988 0
M  V30 11 N 3.146840 1.962964 0.661031 0
M  V30 12 C 1.967397 1.395940 0.971031 0
M  V30 13 C 2.074449 0.047305 1.251429 0
M  V30 14 C 0.792285 -0.556219 1.585313 0
M  V30 15 C -0.130018 0.626343 1.469127 0
M  V30 16 C -1.490442 0.624010 1.682247 0
M  V30 17 C -2.233200 1.776983 1.543983 0
M  V30 18 C -3.669074 2.082436 1.698820 0
M  V30 19 N -4.476291 2.048937 0.550331 0
M  V30 20 C -4.608589 0.827715 -0.135683 0 CFG=1
M  V30 21 C -5.683937 1.076392 -1.222386 0
M  V30 22 C -6.104037 -0.257286 -1.810644 0
M  V30 23 C -4.892557 -0.985800 -2.375582 0 CFG=2
M  V30 24 C -4.713017 -2.334282 -1.740383 0
M  V30 25 C -3.656996 -0.108572 -2.272778 0
M  V30 26 C -3.385548 0.307980 -0.837663 0
M  V30 27 C -1.547785 2.945330 1.179183 0
M  V30 28 C -0.164256 2.931268 0.966030 0
M  V30 29 C 0.559309 1.766072 1.109959 0
M  V30 30 C 5.104654 -1.716082 0.253669 0
M  V30 31 C 5.893841 -2.848099 0.262394 0
M  V30 32 H 7.944632 -7.256541 3.122954 0
M  V30 33 H 8.286276 -6.818604 1.388698 0
M  V30 34 H 6.872435 -7.900180 1.877931 0
M  V30 35 H 4.748770 -4.179566 3.138977 0
M  V30 36 H 3.342734 -2.089418 3.051664 0
M  V30 37 H 3.308074 2.963605 0.415150 0
M  V30 38 H 0.681355 -1.009555 2.562858 0
M  V30 39 H 0.441571 -1.264834 0.790990 0
M  V30 40 H -2.135273 -0.194939 1.963891 0
M  V30 41 H -3.818149 3.015419 2.321759 0
M  V30 42 H -4.086079 1.282773 2.400001 0
M  V30 43 H -5.427846 2.401215 0.787387 0
M  V30 44 H -5.034190 -0.007570 0.473958 0
M  V30 45 H -6.565434 1.527987 -0.724168 0
M  V30 46 H -5.327861 1.757076 -2.000258 0
M  V30 47 H -6.585157 -0.891317 -1.054747 0
M  V30 48 H -6.844953 -0.031244 -2.603313 0
M  V30 49 H -5.087880 -1.134690 -3.455797 0
M  V30 50 H -4.823086 -3.185390 -2.454302 0
M  V30 51 H -5.497543 -2.522148 -0.950667 0
M  V30 52 H -3.688034 -2.440189 -1.310158 0
M  V30 53 H -3.811698 0.754530 -2.949200 0
M  V30 54 H -2.809811 -0.709678 -2.660279 0
M  V30 55 H -3.031289 -0.634107 -0.346092 0
M  V30 56 H -2.594125 1.079318 -0.912324 0
M  V30 57 H -1.957322 3.946294 1.022522 0
M  V30 58 H 0.408969 3.802864 0.683839 0
M  V30 59 H 5.232068 -1.026959 -0.591781 0
M  V30 60 H 6.597309 -3.024097 -0.539517 0
M  V30 END ATOM
M  V30 BEGIN BOND
M  V30 1 1 1 2
M  V30 2 1 2 3
M  V30 3 2 3 4
M  V30 4 1 3 5
M  V30 5 2 5 6
M  V30 6 1 6 7
M  V30 7 2 7 8
M  V30 8 1 8 9
M  V30 9 2 9 10
M  V30 10 1 10 11
M  V30 11 1 11 12
M  V30 12 2 12 13
M  V30 13 1 13 14
M  V30 14 1 14 15
M  V30 15 2 15 16
M  V30 16 1 16 17
M  V30 17 1 17 18
M  V30 18 1 18 19
M  V30 19 1 19 20
M  V30 20 1 20 21
M  V30 21 1 21 22
M  V30 22 1 22 23
M  V30 23 1 23 24
M  V30 24 1 23 25
M  V30 25 1 25 26
M  V30 26 2 17 27
M  V30 27 1 27 28
M  V30 28 2 28 29
M  V30 29 1 8 30
M  V30 30 2 30 31
M  V30 31 1 31 5
M  V30 32 1 13 9
M  V30 33 1 29 15
M  V30 34 1 29 12
M  V30 35 1 26 20
M  V30 36 1 1 32
M  V30 37 1 1 33
M  V30 38 1 1 34
M  V30 39 1 6 35
M  V30 40 1 7 36
M  V30 41 1 11 37
M  V30 42 1 14 38
M  V30 43 1 14 39
M  V30 44 1 16 40
M  V30 45 1 18 41
M  V30 46 1 18 42
M  V30 47 1 19 43
M  V30 48 1 20 44 CFG=1
M  V30 49 1 21 45
M  V30 50 1 21 46
M  V30 51 1 22 47
M  V30 52 1 22 48
M  V30 53 1 23 49 CFG=3
M  V30 54 1 24 50
M  V30 55 1 24 51
M  V30 56 1 24 52
M  V30 57 1 25 53
M  V30 58 1 25 54
M  V30 59 1 26 55
M  V30 60 1 26 56
M  V30 61 1 27 57
M  V30 62 1 28 58
M  V30 63 1 30 59
M  V30 64 1 31 60
M  V30 END BOND
M  V30 END CTAB
M  END
>  <Dataset>  (697) 
ChEMBL_Kinases

>  <Ligand_Instance>  (697) 
nan

>  <PDB_ID>  (697) 
nan

>  <Standardized_SMILES>  (697) 
COC(=O)c1ccc(-c2n[nH]c3c2Cc2cc(CN[C@H]4CC[C@H](C)CC4)ccc2-3)cc1

>  <Name>  (697) 
nan

>  <Pocket>  (697) 
nan

>  <ATP_Site>  (697) 
nan

>  <Peripheral>  (697) 
nan

>  <Num_H_Atoms_ProtBoundConf>  (697) 
nan

>  <Num_Resolved_Atoms>  (697) 
nan

>  <Num_Not_Resolved_Atoms>  (697) 
nan

$$$$
CHEMBL242702
     RDKit          3D

  0  0  0  0  0  0  0  0  0  0999 V3000
M  V30 BEGIN CTAB
M  V30 COUNTS 38 39 0 0 0
M  V30 BEGIN ATOM
M  V30 1 C -1.643064 -3.006807 1.459258 0
M  V30 2 C -0.409070 -3.816738 1.870549 0
M  V30 3 C 0.768609 -3.160658 1.179994 0
M  V30 4 C 2.058342 -3.900127 1.528375 0
M  V30 5 O 0.524089 -3.210141 -0.202280 0
M  V30 6 C 0.384815 -2.121662 -1.033432 0
M  V30 7 N 0.149496 -2.250832 -2.359585 0
M  V30 8 C 0.015028 -1.174496 -3.163802 0
M  V30 9 C 0.108144 0.107650 -2.688284 0
M  V30 10 C 0.347132 0.240077 -1.341525 0
M  V30 11 N 0.474444 1.562575 -0.776889 0
M  V30 12 C 0.652597 2.105452 0.511267 0
M  V30 13 C 1.832793 2.823589 0.743917 0
M  V30 14 C 2.136216 3.410246 1.956183 0
M  V30 15 C 1.196907 3.250230 2.951225 0
M  V30 16 C 0.033519 2.547061 2.734234 0
M  V30 17 C -0.267954 1.963020 1.524436 0
M  V30 18 C -1.510507 1.267456 1.349936 0
M  V30 19 O -2.006298 0.706626 0.368936 0
M  V30 20 O -2.398900 1.136752 2.404649 0
M  V30 21 N 0.472864 -0.861287 -0.585956 0
M  V30 22 H -1.612602 -3.002578 0.343675 0
M  V30 23 H -2.542700 -3.578399 1.798850 0
M  V30 24 H -1.635213 -1.989169 1.875139 0
M  V30 25 H -0.286095 -3.847301 2.971837 0
M  V30 26 H -0.560986 -4.834759 1.442735 0
M  V30 27 H 0.843050 -2.118974 1.566526 0
M  V30 28 H 2.916177 -3.193855 1.565733 0
M  V30 29 H 2.270324 -4.641726 0.707155 0
M  V30 30 H 2.006579 -4.400273 2.516757 0
M  V30 31 H -0.172941 -1.314265 -4.221095 0
M  V30 32 H -0.004012 0.941047 -3.356264 0
M  V30 33 H 0.430887 2.384224 -1.439604 0
M  V30 34 H 2.579447 2.954278 -0.038183 0
M  V30 35 H 3.051559 3.960428 2.116306 0
M  V30 36 H 1.358982 3.680107 3.933898 0
M  V30 37 H -0.682467 2.445146 3.550989 0
M  V30 38 H -3.404473 1.116950 2.316519 0
M  V30 END ATOM
M  V30 BEGIN BOND
M  V30 1 1 1 2
M  V30 2 1 2 3
M  V30 3 1 3 4
M  V30 4 1 3 5
M  V30 5 1 5 6
M  V30 6 2 6 7
M  V30 7 1 7 8
M  V30 8 2 8 9
M  V30 9 1 9 10
M  V30 10 1 10 11
M  V30 11 1 11 12
M  V30 12 2 12 13
M  V30 13 1 13 14
M  V30 14 2 14 15
M  V30 15 1 15 16
M  V30 16 2 16 17
M  V30 17 1 17 18
M  V30 18 2 18 19
M  V30 19 1 18 20
M  V30 20 2 10 21
M  V30 21 1 21 6
M  V30 22 1 17 12
M  V30 23 1 1 22
M  V30 24 1 1 23
M  V30 25 1 1 24
M  V30 26 1 2 25
M  V30 27 1 2 26
M  V30 28 1 3 27
M  V30 29 1 4 28
M  V30 30 1 4 29
M  V30 31 1 4 30
M  V30 32 1 8 31
M  V30 33 1 9 32
M  V30 34 1 11 33
M  V30 35 1 13 34
M  V30 36 1 14 35
M  V30 37 1 15 36
M  V30 38 1 16 37
M  V30 39 1 20 38
M  V30 END BOND
M  V30 END CTAB
M  END
>  <Dataset>  (698) 
ChEMBL_Kinases

>  <Ligand_Instance>  (698) 
nan

>  <PDB_ID>  (698) 
nan

>  <Standardized_SMILES>  (698) 
CCC(C)Oc1nccc(Nc2ccccc2C(=O)O)n1

>  <Name>  (698) 
nan

>  <Pocket>  (698) 
nan

>  <ATP_Site>  (698) 
nan

>  <Peripheral>  (698) 
nan

>  <Num_H_Atoms_ProtBoundConf>  (698) 
nan

>  <Num_Resolved_Atoms>  (698) 
nan

>  <Num_Not_Resolved_Atoms>  (698) 
nan

$$$$
CHEMBL242701
     RDKit          3D

  0  0  0  0  0  0  0  0  0  0999 V3000
M  V30 BEGIN CTAB
M  V30 COUNTS 41 42 0 0 0
M  V30 BEGIN ATOM
M  V30 1 C 0.167592 -4.570029 1.836787 0
M  V30 2 C 0.160406 -4.794603 0.347762 0
M  V30 3 C 0.028501 -3.424986 -0.361213 0
M  V30 4 C 0.015226 -3.600328 -1.832408 0
M  V30 5 C -0.142030 -2.391587 -2.679613 0
M  V30 6 O 0.768780 -1.383476 -2.604712 0
M  V30 7 C 1.212197 -0.516201 -1.691712 0
M  V30 8 N 2.163700 0.265762 -2.227846 0
M  V30 9 C 2.819885 1.245211 -1.586077 0
M  V30 10 C 2.478730 1.455504 -0.266861 0
M  V30 11 C 1.509608 0.684631 0.337932 0
M  V30 12 N 1.252057 0.987001 1.687969 0
M  V30 13 C 0.550188 1.796282 2.603686 0
M  V30 14 C 1.462664 2.516518 3.391626 0
M  V30 15 C 1.059011 3.397041 4.374471 0
M  V30 16 C -0.287884 3.521869 4.530979 0
M  V30 17 C -1.236650 2.866604 3.816410 0
M  V30 18 C -0.778395 2.005199 2.853946 0
M  V30 19 C -1.690342 1.236923 2.034981 0
M  V30 20 O -1.598505 0.391114 1.123537 0
M  V30 21 O -3.063681 1.155390 1.960472 0
M  V30 22 N 0.957009 -0.243431 -0.439366 0
M  V30 23 H -0.363737 -3.622408 2.092496 0
M  V30 24 H -0.390237 -5.402138 2.330978 0
M  V30 25 H 1.219076 -4.535147 2.181183 0
M  V30 26 H -0.702123 -5.406652 0.061984 0
M  V30 27 H 1.091268 -5.299152 0.034735 0
M  V30 28 H -0.849574 -2.912751 0.016946 0
M  V30 29 H 0.962571 -2.898972 0.003978 0
M  V30 30 H 0.950662 -4.139662 -2.181868 0
M  V30 31 H -0.856303 -4.289124 -2.061630 0
M  V30 32 H -0.192510 -2.703280 -3.779401 0
M  V30 33 H -1.219578 -2.030025 -2.529128 0
M  V30 34 H 3.598364 1.885368 -2.022872 0
M  V30 35 H 3.001981 2.246854 0.267841 0
M  V30 36 H 1.886171 0.260238 2.102517 0
M  V30 37 H 2.555155 2.454828 3.308932 0
M  V30 38 H 1.704919 3.967397 4.998813 0
M  V30 39 H -0.666225 4.199848 5.286569 0
M  V30 40 H -2.304005 2.944296 3.918222 0
M  V30 41 H -3.681105 1.584025 1.314036 0
M  V30 END ATOM
M  V30 BEGIN BOND
M  V30 1 1 1 2
M  V30 2 1 2 3
M  V30 3 1 3 4
M  V30 4 1 4 5
M  V30 5 1 5 6
M  V30 6 1 6 7
M  V30 7 2 7 8
M  V30 8 1 8 9
M  V30 9 2 9 10
M  V30 10 1 10 11
M  V30 11 1 11 12
M  V30 12 1 12 13
M  V30 13 2 13 14
M  V30 14 1 14 15
M  V30 15 2 15 16
M  V30 16 1 16 17
M  V30 17 2 17 18
M  V30 18 1 18 19
M  V30 19 2 19 20
M  V30 20 1 19 21
M  V30 21 2 11 22
M  V30 22 1 22 7
M  V30 23 1 18 13
M  V30 24 1 1 23
M  V30 25 1 1 24
M  V30 26 1 1 25
M  V30 27 1 2 26
M  V30 28 1 2 27
M  V30 29 1 3 28
M  V30 30 1 3 29
M  V30 31 1 4 30
M  V30 32 1 4 31
M  V30 33 1 5 32
M  V30 34 1 5 33
M  V30 35 1 9 34
M  V30 36 1 10 35
M  V30 37 1 12 36
M  V30 38 1 14 37
M  V30 39 1 15 38
M  V30 40 1 16 39
M  V30 41 1 17 40
M  V30 42 1 21 41
M  V30 END BOND
M  V30 END CTAB
M  END
>  <Dataset>  (699) 
ChEMBL_Kinases

>  <Ligand_Instance>  (699) 
nan

>  <PDB_ID>  (699) 
nan

>  <Standardized_SMILES>  (699) 
CCCCCOc1nccc(Nc2ccccc2C(=O)O)n1

>  <Name>  (699) 
nan

>  <Pocket>  (699) 
nan

>  <ATP_Site>  (699) 
nan

>  <Peripheral>  (699) 
nan

>  <Num_H_Atoms_ProtBoundConf>  (699) 
nan

>  <Num_Resolved_Atoms>  (699) 
nan

>  <Num_Not_Resolved_Atoms>  (699) 
nan

$$$$
CHEMBL242697
     RDKit          3D

  0  0  0  0  0  0  0  0  0  0999 V3000
M  V30 BEGIN CTAB
M  V30 COUNTS 47 51 0 0 0
M  V30 BEGIN ATOM
M  V30 1 C -1.640476 -3.794626 2.717336 0
M  V30 2 N -0.566218 -3.499599 1.786206 0
M  V30 3 C 0.344801 -2.510909 1.807905 0
M  V30 4 C 1.193793 -2.616120 0.700270 0
M  V30 5 C 2.277992 -1.658903 0.485007 0
M  V30 6 O 3.397592 -1.930688 0.991505 0
M  V30 7 N 1.857648 -0.536005 -0.295500 0
M  V30 8 C 0.518288 -0.292375 -0.854286 0
M  V30 9 C -0.085092 0.884118 -0.118480 0
M  V30 10 C 1.010645 1.714960 0.452922 0
M  V30 11 C 2.397599 1.651901 0.301249 0
M  V30 12 C 2.929945 2.669998 1.061135 0
M  V30 13 N 1.895769 3.308634 1.638589 0
M  V30 14 N 0.743238 2.757944 1.291260 0
M  V30 15 C -0.468216 3.303050 1.808358 0
M  V30 16 C -1.106444 2.415774 2.661280 0
M  V30 17 C -2.297685 2.739988 3.274434 0
M  V30 18 C -2.852126 3.993666 3.014740 0
M  V30 19 C -2.216571 4.890406 2.158876 0
M  V30 20 C -1.023268 4.541827 1.556428 0
M  V30 21 Cl -0.106897 5.555140 0.460624 0
M  V30 22 C 2.823915 0.530205 -0.610577 0
M  V30 23 C 0.757944 -3.722542 -0.006002 0
M  V30 24 C 1.276580 -4.233964 -1.173892 0
M  V30 25 C 0.655061 -5.362758 -1.687783 0
M  V30 26 C -0.428712 -5.900758 -1.012472 0
M  V30 27 C -0.932147 -5.375925 0.152386 0
M  V30 28 C -0.327280 -4.240956 0.692523 0
M  V30 29 H -1.477071 -4.760949 3.246657 0
M  V30 30 H -1.725205 -2.945652 3.420751 0
M  V30 31 H -2.623189 -3.863705 2.173772 0
M  V30 32 H 0.317785 -1.792132 2.629158 0
M  V30 33 H -0.107403 -1.194220 -0.791836 0
M  V30 34 H 0.656018 -0.036974 -1.926454 0
M  V30 35 H -0.665866 1.472193 -0.878469 0
M  V30 36 H -0.782895 0.541474 0.686126 0
M  V30 37 H 3.989660 2.803187 1.087608 0
M  V30 38 H -0.762370 1.419102 2.930521 0
M  V30 39 H -2.860974 2.112420 3.950337 0
M  V30 40 H -3.794744 4.307685 3.471515 0
M  V30 41 H -2.584289 5.872055 1.912413 0
M  V30 42 H 3.835309 0.183161 -0.379791 0
M  V30 43 H 2.679094 0.792746 -1.677482 0
M  V30 44 H 2.121724 -3.780003 -1.662701 0
M  V30 45 H 1.045561 -5.782014 -2.604682 0
M  V30 46 H -0.928182 -6.785212 -1.400547 0
M  V30 47 H -1.772555 -5.788915 0.680660 0
M  V30 END ATOM
M  V30 BEGIN BOND
M  V30 1 1 1 2
M  V30 2 1 2 3
M  V30 3 2 3 4
M  V30 4 1 4 5
M  V30 5 2 5 6
M  V30 6 1 5 7
M  V30 7 1 7 8
M  V30 8 1 8 9
M  V30 9 1 9 10
M  V30 10 2 10 11
M  V30 11 1 11 12
M  V30 12 2 12 13
M  V30 13 1 13 14
M  V30 14 1 14 15
M  V30 15 2 15 16
M  V30 16 1 16 17
M  V30 17 2 17 18
M  V30 18 1 18 19
M  V30 19 2 19 20
M  V30 20 1 20 21
M  V30 21 1 11 22
M  V30 22 1 4 23
M  V30 23 2 23 24
M  V30 24 1 24 25
M  V30 25 2 25 26
M  V30 26 1 26 27
M  V30 27 2 27 28
M  V30 28 1 28 2
M  V30 29 1 22 7
M  V30 30 1 28 23
M  V30 31 1 14 10
M  V30 32 1 20 15
M  V30 33 1 1 29
M  V30 34 1 1 30
M  V30 35 1 1 31
M  V30 36 1 3 32
M  V30 37 1 8 33
M  V30 38 1 8 34
M  V30 39 1 9 35
M  V30 40 1 9 36
M  V30 41 1 12 37
M  V30 42 1 16 38
M  V30 43 1 17 39
M  V30 44 1 18 40
M  V30 45 1 19 41
M  V30 46 1 22 42
M  V30 47 1 22 43
M  V30 48 1 24 44
M  V30 49 1 25 45
M  V30 50 1 26 46
M  V30 51 1 27 47
M  V30 END BOND
M  V30 END CTAB
M  END
>  <Dataset>  (700) 
ChEMBL_Kinases

>  <Ligand_Instance>  (700) 
nan

>  <PDB_ID>  (700) 
nan

>  <Standardized_SMILES>  (700) 
Cn1cc(C(=O)N2CCc3c(cnn3-c3ccccc3Cl)C2)c2ccccc21

>  <Name>  (700) 
nan

>  <Pocket>  (700) 
nan

>  <ATP_Site>  (700) 
nan

>  <Peripheral>  (700) 
nan

>  <Num_H_Atoms_ProtBoundConf>  (700) 
nan

>  <Num_Resolved_Atoms>  (700) 
nan

>  <Num_Not_Resolved_Atoms>  (700) 
nan

$$$$
CHEMBL242695
     RDKit          3D

  0  0  0  0  0  0  0  0  0  0999 V3000
M  V30 BEGIN CTAB
M  V30 COUNTS 44 48 0 0 0
M  V30 BEGIN ATOM
M  V30 1 O 3.253451 -0.690880 1.408777 0
M  V30 2 C 2.511756 0.198848 0.871255 0
M  V30 3 C 2.623921 0.758224 -0.469317 0
M  V30 4 C 3.541229 1.600748 -1.057752 0
M  V30 5 C 3.121542 1.779577 -2.369565 0
M  V30 6 C 3.708317 2.542375 -3.361013 0
M  V30 7 C 3.144681 2.610954 -4.633799 0
M  V30 8 C 1.980689 1.870884 -4.812393 0
M  V30 9 C 1.390691 1.110470 -3.831653 0
M  V30 10 C 1.962564 1.056362 -2.582149 0
M  V30 11 N 1.689702 0.450824 -1.413286 0
M  V30 12 N 1.551572 0.523279 1.866156 0
M  V30 13 C 1.650157 -0.179397 3.120184 0
M  V30 14 C 0.433711 -1.063225 3.364519 0
M  V30 15 C -0.689619 -0.616740 2.499410 0
M  V30 16 C -0.789039 0.568067 1.769536 0
M  V30 17 C -2.004901 0.565788 1.111449 0
M  V30 18 N -2.613770 -0.585275 1.441253 0
M  V30 19 N -1.847406 -1.294197 2.260557 0
M  V30 20 C -2.232413 -2.566838 2.779014 0
M  V30 21 C -2.529788 -2.816014 4.108113 0
M  V30 22 C -2.888091 -4.083170 4.523453 0
M  V30 23 C -2.943837 -5.100811 3.581983 0
M  V30 24 C -2.645425 -4.841856 2.256955 0
M  V30 25 C -2.282756 -3.571137 1.822976 0
M  V30 26 Cl -1.918115 -3.309768 0.127122 0
M  V30 27 C 0.420690 1.454986 1.919911 0
M  V30 28 H 4.385537 1.981912 -0.499387 0
M  V30 29 H 4.623467 3.108022 -3.166442 0
M  V30 30 H 3.574160 3.192263 -5.433629 0
M  V30 31 H 1.561061 1.927044 -5.798085 0
M  V30 32 H 0.478156 0.556364 -4.019749 0
M  V30 33 H 0.835726 -0.154577 -1.353845 0
M  V30 34 H 2.530360 -0.835898 3.188426 0
M  V30 35 H 1.766558 0.600841 3.924788 0
M  V30 36 H 0.662821 -2.132474 3.159721 0
M  V30 37 H 0.196587 -0.984668 4.446001 0
M  V30 38 H -2.264228 1.413550 0.489491 0
M  V30 39 H -2.437543 -1.930695 4.699258 0
M  V30 40 H -3.103170 -4.189551 5.588585 0
M  V30 41 H -3.227271 -6.094810 3.942209 0
M  V30 42 H -2.692968 -5.656776 1.535163 0
M  V30 43 H 0.409013 2.038340 2.834756 0
M  V30 44 H 0.500106 2.118213 1.038632 0
M  V30 END ATOM
M  V30 BEGIN BOND
M  V30 1 2 1 2
M  V30 2 1 2 3
M  V30 3 2 3 4
M  V30 4 1 4 5
M  V30 5 2 5 6
M  V30 6 1 6 7
M  V30 7 2 7 8
M  V30 8 1 8 9
M  V30 9 2 9 10
M  V30 10 1 10 11
M  V30 11 1 2 12
M  V30 12 1 12 13
M  V30 13 1 13 14
M  V30 14 1 14 15
M  V30 15 2 15 16
M  V30 16 1 16 17
M  V30 17 2 17 18
M  V30 18 1 18 19
M  V30 19 1 19 20
M  V30 20 2 20 21
M  V30 21 1 21 22
M  V30 22 2 22 23
M  V30 23 1 23 24
M  V30 24 2 24 25
M  V30 25 1 25 26
M  V30 26 1 16 27
M  V30 27 1 11 3
M  V30 28 1 27 12
M  V30 29 1 10 5
M  V30 30 1 19 15
M  V30 31 1 25 20
M  V30 32 1 4 28
M  V30 33 1 6 29
M  V30 34 1 7 30
M  V30 35 1 8 31
M  V30 36 1 9 32
M  V30 37 1 11 33
M  V30 38 1 13 34
M  V30 39 1 13 35
M  V30 40 1 14 36
M  V30 41 1 14 37
M  V30 42 1 17 38
M  V30 43 1 21 39
M  V30 44 1 22 40
M  V30 45 1 23 41
M  V30 46 1 24 42
M  V30 47 1 27 43
M  V30 48 1 27 44
M  V30 END BOND
M  V30 END CTAB
M  END
>  <Dataset>  (701) 
ChEMBL_Kinases

>  <Ligand_Instance>  (701) 
nan

>  <PDB_ID>  (701) 
nan

>  <Standardized_SMILES>  (701) 
O=C(c1cc2ccccc2[nH]1)N1CCc2c(cnn2-c2ccccc2Cl)C1

>  <Name>  (701) 
nan

>  <Pocket>  (701) 
nan

>  <ATP_Site>  (701) 
nan

>  <Peripheral>  (701) 
nan

>  <Num_H_Atoms_ProtBoundConf>  (701) 
nan

>  <Num_Resolved_Atoms>  (701) 
nan

>  <Num_Not_Resolved_Atoms>  (701) 
nan

$$$$
CHEMBL242652
     RDKit          3D

  0  0  0  0  0  0  0  0  0  0999 V3000
M  V30 BEGIN CTAB
M  V30 COUNTS 40 42 0 0 0
M  V30 BEGIN ATOM
M  V30 1 O 1.907477 0.215711 2.178913 0
M  V30 2 C 2.265423 -0.978388 2.074300 0
M  V30 3 O 1.883229 -1.648220 3.204018 0
M  V30 4 C 2.972124 -1.658005 0.994184 0
M  V30 5 C 3.270005 -2.998301 1.165693 0
M  V30 6 C 3.956219 -3.691532 0.189349 0
M  V30 7 C 4.378574 -3.116397 -0.983764 0
M  V30 8 C 4.081717 -1.768793 -1.162083 0
M  V30 9 C 3.389426 -1.068226 -0.178811 0
M  V30 10 N 3.115229 0.312601 -0.382454 0
M  V30 11 C 1.962101 1.131791 -0.530535 0
M  V30 12 C 2.101978 2.499936 -0.548365 0
M  V30 13 C 0.951554 3.232984 -0.717588 0
M  V30 14 N -0.253681 2.627778 -0.859389 0
M  V30 15 C -0.374487 1.294842 -0.841268 0
M  V30 16 N -1.698213 0.813645 -0.998768 0
M  V30 17 C -2.434406 0.278004 0.090088 0
M  V30 18 C -1.734035 0.154302 1.282600 0
M  V30 19 C -2.374598 -0.371549 2.404666 0
M  V30 20 C -3.684570 -0.739186 2.249425 0
M  V30 21 C -4.346468 -1.295316 3.452252 0
M  V30 22 F -5.643029 -0.823043 3.459743 0
M  V30 23 F -3.746479 -0.882734 4.626283 0
M  V30 24 F -4.423999 -2.677070 3.399202 0
M  V30 25 C -4.378396 -0.612204 1.054926 0
M  V30 26 C -3.751631 -0.093813 -0.057186 0
M  V30 27 N 0.733892 0.545102 -0.676010 0
M  V30 28 H 1.650138 -1.288682 4.097366 0
M  V30 29 H 2.980777 -3.562395 2.065854 0
M  V30 30 H 4.174526 -4.746669 0.356921 0
M  V30 31 H 4.917386 -3.661046 -1.748593 0
M  V30 32 H 4.376590 -1.241343 -2.055189 0
M  V30 33 H 4.059159 0.761369 -0.421336 0
M  V30 34 H 3.092304 2.901006 -0.430823 0
M  V30 35 H 1.079587 4.309341 -0.729419 0
M  V30 36 H -2.071898 0.892544 -1.981270 0
M  V30 37 H -0.706830 0.454191 1.364964 0
M  V30 38 H -1.812566 -0.459271 3.320402 0
M  V30 39 H -5.409223 -0.920385 0.999247 0
M  V30 40 H -4.251426 0.028977 -1.021715 0
M  V30 END ATOM
M  V30 BEGIN BOND
M  V30 1 2 1 2
M  V30 2 1 2 3
M  V30 3 1 2 4
M  V30 4 2 4 5
M  V30 5 1 5 6
M  V30 6 2 6 7
M  V30 7 1 7 8
M  V30 8 2 8 9
M  V30 9 1 9 10
M  V30 10 1 10 11
M  V30 11 2 11 12
M  V30 12 1 12 13
M  V30 13 2 13 14
M  V30 14 1 14 15
M  V30 15 1 15 16
M  V30 16 1 16 17
M  V30 17 2 17 18
M  V30 18 1 18 19
M  V30 19 2 19 20
M  V30 20 1 20 21
M  V30 21 1 21 22
M  V30 22 1 21 23
M  V30 23 1 21 24
M  V30 24 1 20 25
M  V30 25 2 25 26
M  V30 26 2 15 27
M  V30 27 1 9 4
M  V30 28 1 27 11
M  V30 29 1 26 17
M  V30 30 1 3 28
M  V30 31 1 5 29
M  V30 32 1 6 30
M  V30 33 1 7 31
M  V30 34 1 8 32
M  V30 35 1 10 33
M  V30 36 1 12 34
M  V30 37 1 13 35
M  V30 38 1 16 36
M  V30 39 1 18 37
M  V30 40 1 19 38
M  V30 41 1 25 39
M  V30 42 1 26 40
M  V30 END BOND
M  V30 END CTAB
M  END
>  <Dataset>  (702) 
ChEMBL_Kinases

>  <Ligand_Instance>  (702) 
nan

>  <PDB_ID>  (702) 
nan

>  <Standardized_SMILES>  (702) 
O=C(O)c1ccccc1Nc1ccnc(Nc2ccc(C(F)(F)F)cc2)n1

>  <Name>  (702) 
nan

>  <Pocket>  (702) 
nan

>  <ATP_Site>  (702) 
nan

>  <Peripheral>  (702) 
nan

>  <Num_H_Atoms_ProtBoundConf>  (702) 
nan

>  <Num_Resolved_Atoms>  (702) 
nan

>  <Num_Not_Resolved_Atoms>  (702) 
nan

$$$$
CHEMBL242651
     RDKit          3D

  0  0  0  0  0  0  0  0  0  0999 V3000
M  V30 BEGIN CTAB
M  V30 COUNTS 40 42 0 0 0
M  V30 BEGIN ATOM
M  V30 1 O 3.455530 0.756286 2.371676 0
M  V30 2 C 3.461934 -0.453824 2.153713 0
M  V30 3 O 3.659440 -1.026662 3.397729 0
M  V30 4 C 3.326951 -1.333138 1.022307 0
M  V30 5 C 3.446028 -2.696400 1.117167 0
M  V30 6 C 3.345504 -3.470178 -0.015491 0
M  V30 7 C 3.124197 -2.936855 -1.286473 0
M  V30 8 C 3.007657 -1.545094 -1.345193 0
M  V30 9 C 3.108180 -0.758866 -0.199676 0
M  V30 10 N 2.943139 0.591594 -0.550346 0
M  V30 11 C 1.863146 1.400400 -0.081744 0
M  V30 12 C 1.717504 2.720550 -0.426679 0
M  V30 13 C 0.702863 3.563268 -0.038716 0
M  V30 14 N -0.233849 2.997163 0.769971 0
M  V30 15 C -0.148979 1.709305 1.146063 0
M  V30 16 N -1.061499 1.011969 1.978336 0
M  V30 17 C -2.126670 0.085940 1.809378 0
M  V30 18 C -2.720657 -0.323962 2.983343 0
M  V30 19 C -3.754578 -1.228014 2.867046 0
M  V30 20 C -4.162906 -1.689492 1.637440 0
M  V30 21 C -3.517505 -1.231959 0.499690 0
M  V30 22 C -3.980867 -1.751953 -0.834556 0
M  V30 23 F -3.959261 -0.787878 -1.799626 0
M  V30 24 F -3.084591 -2.755843 -1.221516 0
M  V30 25 F -5.223745 -2.333951 -0.746274 0
M  V30 26 C -2.481639 -0.332099 0.549174 0
M  V30 27 N 0.873336 0.948173 0.724897 0
M  V30 28 H 3.265894 -0.708999 4.261317 0
M  V30 29 H 3.618285 -3.178575 2.070885 0
M  V30 30 H 3.445117 -4.547234 0.092835 0
M  V30 31 H 3.058807 -3.607351 -2.116482 0
M  V30 32 H 2.836456 -1.222742 -2.379807 0
M  V30 33 H 3.624224 1.056462 -1.179890 0
M  V30 34 H 2.484555 3.157129 -1.078231 0
M  V30 35 H 0.621929 4.598655 -0.330719 0
M  V30 36 H -0.715854 1.394913 2.880660 0
M  V30 37 H -2.406633 0.032007 3.960029 0
M  V30 38 H -4.240778 -1.568163 3.785524 0
M  V30 39 H -4.982192 -2.400037 1.603893 0
M  V30 40 H -1.984994 0.017011 -0.345825 0
M  V30 END ATOM
M  V30 BEGIN BOND
M  V30 1 2 1 2
M  V30 2 1 2 3
M  V30 3 1 2 4
M  V30 4 2 4 5
M  V30 5 1 5 6
M  V30 6 2 6 7
M  V30 7 1 7 8
M  V30 8 2 8 9
M  V30 9 1 9 10
M  V30 10 1 10 11
M  V30 11 2 11 12
M  V30 12 1 12 13
M  V30 13 2 13 14
M  V30 14 1 14 15
M  V30 15 1 15 16
M  V30 16 1 16 17
M  V30 17 2 17 18
M  V30 18 1 18 19
M  V30 19 2 19 20
M  V30 20 1 20 21
M  V30 21 1 21 22
M  V30 22 1 22 23
M  V30 23 1 22 24
M  V30 24 1 22 25
M  V30 25 2 21 26
M  V30 26 2 15 27
M  V30 27 1 9 4
M  V30 28 1 27 11
M  V30 29 1 26 17
M  V30 30 1 3 28
M  V30 31 1 5 29
M  V30 32 1 6 30
M  V30 33 1 7 31
M  V30 34 1 8 32
M  V30 35 1 10 33
M  V30 36 1 12 34
M  V30 37 1 13 35
M  V30 38 1 16 36
M  V30 39 1 18 37
M  V30 40 1 19 38
M  V30 41 1 20 39
M  V30 42 1 26 40
M  V30 END BOND
M  V30 END CTAB
M  END
>  <Dataset>  (703) 
ChEMBL_Kinases

>  <Ligand_Instance>  (703) 
nan

>  <PDB_ID>  (703) 
nan

>  <Standardized_SMILES>  (703) 
O=C(O)c1ccccc1Nc1ccnc(Nc2cccc(C(F)(F)F)c2)n1

>  <Name>  (703) 
nan

>  <Pocket>  (703) 
nan

>  <ATP_Site>  (703) 
nan

>  <Peripheral>  (703) 
nan

>  <Num_H_Atoms_ProtBoundConf>  (703) 
nan

>  <Num_Resolved_Atoms>  (703) 
nan

>  <Num_Not_Resolved_Atoms>  (703) 
nan

$$$$
CHEMBL2426398
     RDKit          3D

  0  0  0  0  0  0  0  0  0  0999 V3000
M  V30 BEGIN CTAB
M  V30 COUNTS 50 53 0 0 0
M  V30 BEGIN ATOM
M  V30 1 C 1.339220 -5.240914 -1.685597 0
M  V30 2 C 1.559166 -3.820608 -2.038276 0
M  V30 3 C 2.573856 -3.034268 -1.543996 0
M  V30 4 C 2.729536 -1.715457 -1.904293 0
M  V30 5 C 1.855304 -1.130620 -2.788318 0
M  V30 6 N 1.806552 0.185953 -3.309862 0
M  V30 7 C 1.258755 1.196663 -2.503512 0
M  V30 8 S 1.094760 2.785842 -2.819469 0
M  V30 9 N 0.741096 1.027612 -1.163948 0
M  V30 10 C 0.196369 1.936568 -0.229184 0
M  V30 11 O 0.156505 3.116661 -0.649925 0
M  V30 12 C -0.220105 1.324401 1.058209 0
M  V30 13 C 0.756446 1.573034 2.030937 0
M  V30 14 N 0.309468 0.972801 3.165565 0
M  V30 15 C 0.624548 0.720801 4.552637 0
M  V30 16 C 0.101352 1.479251 5.579138 0
M  V30 17 C 0.470238 1.132453 6.877471 0
M  V30 18 C 1.320936 0.075301 7.100587 0
M  V30 19 C 1.824119 -0.658681 6.043476 0
M  V30 20 C 1.493444 -0.361995 4.734324 0
M  V30 21 N -0.876483 0.379197 2.931126 0
M  V30 22 C -1.227536 0.576535 1.648832 0
M  V30 23 C -2.269379 0.269678 0.676155 0
M  V30 24 C -2.886777 1.141078 -0.177603 0
M  V30 25 C -3.847064 0.671134 -1.061574 0
M  V30 26 C -4.156931 -0.693039 -1.050891 0
M  V30 27 C -3.535906 -1.561919 -0.192148 0
M  V30 28 C -2.567844 -1.100341 0.701820 0
M  V30 29 C 0.822819 -1.911930 -3.297809 0
M  V30 30 C 0.657808 -3.240806 -2.941525 0
M  V30 31 H 2.150847 -5.657269 -1.042486 0
M  V30 32 H 1.232627 -5.876274 -2.603280 0
M  V30 33 H 0.366578 -5.371441 -1.130200 0
M  V30 34 H 3.271903 -3.466141 -0.847865 0
M  V30 35 H 3.493375 -1.051948 -1.557315 0
M  V30 36 H 2.120127 0.584728 -4.248984 0
M  V30 37 H 0.812863 -0.003810 -0.899674 0
M  V30 38 H 1.702138 2.033138 2.254457 0
M  V30 39 H -0.570431 2.310475 5.353599 0
M  V30 40 H 0.071954 1.709921 7.697003 0
M  V30 41 H 1.576123 -0.153128 8.134039 0
M  V30 42 H 2.502197 -1.501929 6.240635 0
M  V30 43 H 1.876192 -0.924465 3.864214 0
M  V30 44 H -2.564223 2.189518 -0.092295 0
M  V30 45 H -4.315821 1.380163 -1.723011 0
M  V30 46 H -4.913953 -1.043952 -1.752458 0
M  V30 47 H -3.808039 -2.615539 -0.222371 0
M  V30 48 H -2.117965 -1.849554 1.351637 0
M  V30 49 H 0.055413 -1.570233 -4.011197 0
M  V30 50 H -0.144661 -3.858084 -3.337532 0
M  V30 END ATOM
M  V30 BEGIN BOND
M  V30 1 1 1 2
M  V30 2 2 2 3
M  V30 3 1 3 4
M  V30 4 2 4 5
M  V30 5 1 5 6
M  V30 6 1 6 7
M  V30 7 2 7 8
M  V30 8 1 7 9
M  V30 9 1 9 10
M  V30 10 2 10 11
M  V30 11 1 10 12
M  V30 12 2 12 13
M  V30 13 1 13 14
M  V30 14 1 14 15
M  V30 15 2 15 16
M  V30 16 1 16 17
M  V30 17 2 17 18
M  V30 18 1 18 19
M  V30 19 2 19 20
M  V30 20 1 14 21
M  V30 21 2 21 22
M  V30 22 1 22 23
M  V30 23 2 23 24
M  V30 24 1 24 25
M  V30 25 2 25 26
M  V30 26 1 26 27
M  V30 27 2 27 28
M  V30 28 1 5 29
M  V30 29 2 29 30
M  V30 30 1 30 2
M  V30 31 1 22 12
M  V30 32 1 28 23
M  V30 33 1 20 15
M  V30 34 1 1 31
M  V30 35 1 1 32
M  V30 36 1 1 33
M  V30 37 1 3 34
M  V30 38 1 4 35
M  V30 39 1 6 36
M  V30 40 1 9 37
M  V30 41 1 13 38
M  V30 42 1 16 39
M  V30 43 1 17 40
M  V30 44 1 18 41
M  V30 45 1 19 42
M  V30 46 1 20 43
M  V30 47 1 24 44
M  V30 48 1 25 45
M  V30 49 1 26 46
M  V30 50 1 27 47
M  V30 51 1 28 48
M  V30 52 1 29 49
M  V30 53 1 30 50
M  V30 END BOND
M  V30 END CTAB
M  END
>  <Dataset>  (704) 
ChEMBL_Kinases

>  <Ligand_Instance>  (704) 
nan

>  <PDB_ID>  (704) 
nan

>  <Standardized_SMILES>  (704) 
Cc1ccc(NC(=S)NC(=O)c2cn(-c3ccccc3)nc2-c2ccccc2)cc1

>  <Name>  (704) 
nan

>  <Pocket>  (704) 
nan

>  <ATP_Site>  (704) 
nan

>  <Peripheral>  (704) 
nan

>  <Num_H_Atoms_ProtBoundConf>  (704) 
nan

>  <Num_Resolved_Atoms>  (704) 
nan

>  <Num_Not_Resolved_Atoms>  (704) 
nan

$$$$
CHEMBL2426397
     RDKit          3D

  0  0  0  0  0  0  0  0  0  0999 V3000
M  V30 BEGIN CTAB
M  V30 COUNTS 51 54 0 0 0
M  V30 BEGIN ATOM
M  V30 1 C -0.543335 -3.952101 5.692652 0
M  V30 2 O 0.726026 -3.585475 5.142209 0
M  V30 3 C 0.802616 -2.586619 4.184526 0
M  V30 4 C 2.031919 -2.242015 3.660127 0
M  V30 5 C 2.103951 -1.240715 2.700685 0
M  V30 6 C 0.940035 -0.605437 2.286651 0
M  V30 7 C 1.186764 0.405546 1.282418 0
M  V30 8 N 2.086478 1.391999 1.100172 0
M  V30 9 N 1.855658 2.042588 -0.011568 0
M  V30 10 C 2.709411 3.130091 -0.377461 0
M  V30 11 C 2.143104 4.397485 -0.326873 0
M  V30 12 C 2.901423 5.491416 -0.663988 0
M  V30 13 C 4.223507 5.384333 -1.056927 0
M  V30 14 C 4.749527 4.102150 -1.093497 0
M  V30 15 C 4.031297 2.978125 -0.765965 0
M  V30 16 C 0.762439 1.482699 -0.608709 0
M  V30 17 C 0.336256 0.442997 0.211540 0
M  V30 18 C -0.817471 -0.288536 -0.227445 0
M  V30 19 O -0.835496 -1.543789 -0.380934 0
M  V30 20 N -2.064045 0.325394 -0.535795 0
M  V30 21 C -3.308163 -0.189599 -0.975335 0
M  V30 22 S -4.560246 0.855104 -1.237135 0
M  V30 23 N -3.618064 -1.541396 -1.220871 0
M  V30 24 C -3.141686 -2.882291 -1.222646 0
M  V30 25 C -3.247164 -3.678393 -0.083744 0
M  V30 26 C -2.791985 -4.994558 -0.039265 0
M  V30 27 C -2.239666 -5.423557 -1.204882 0
M  V30 28 Cl -1.647775 -7.091799 -1.190111 0
M  V30 29 C -2.071527 -4.755071 -2.394016 0
M  V30 30 C -2.554078 -3.452305 -2.345130 0
M  V30 31 C -0.305958 -0.914050 2.779958 0
M  V30 32 C -0.338019 -1.924309 3.741493 0
M  V30 33 H -1.189815 -4.405640 4.911945 0
M  V30 34 H -0.411350 -4.630405 6.560224 0
M  V30 35 H -1.062299 -3.035809 6.036885 0
M  V30 36 H 2.898481 -2.777768 4.027911 0
M  V30 37 H 3.097850 -1.023569 2.336555 0
M  V30 38 H 1.132672 4.610545 -0.038462 0
M  V30 39 H 2.543894 6.526805 -0.654816 0
M  V30 40 H 4.853633 6.231983 -1.332541 0
M  V30 41 H 5.766962 3.897227 -1.383959 0
M  V30 42 H 4.399475 1.968389 -0.780845 0
M  V30 43 H 0.407022 1.890068 -1.556595 0
M  V30 44 H -2.009433 1.382246 -0.396276 0
M  V30 45 H -4.559696 -1.850005 -1.546194 0
M  V30 46 H -3.705431 -3.236821 0.790278 0
M  V30 47 H -2.871036 -5.611595 0.839658 0
M  V30 48 H -1.620198 -5.190582 -3.259980 0
M  V30 49 H -2.478532 -2.815529 -3.229551 0
M  V30 50 H -1.155536 -0.390500 2.420362 0
M  V30 51 H -1.294695 -2.203657 4.159927 0
M  V30 END ATOM
M  V30 BEGIN BOND
M  V30 1 1 1 2
M  V30 2 1 2 3
M  V30 3 2 3 4
M  V30 4 1 4 5
M  V30 5 2 5 6
M  V30 6 1 6 7
M  V30 7 2 7 8
M  V30 8 1 8 9
M  V30 9 1 9 10
M  V30 10 2 10 11
M  V30 11 1 11 12
M  V30 12 2 12 13
M  V30 13 1 13 14
M  V30 14 2 14 15
M  V30 15 1 9 16
M  V30 16 2 16 17
M  V30 17 1 17 18
M  V30 18 2 18 19
M  V30 19 1 18 20
M  V30 20 1 20 21
M  V30 21 2 21 22
M  V30 22 1 21 23
M  V30 23 1 23 24
M  V30 24 2 24 25
M  V30 25 1 25 26
M  V30 26 2 26 27
M  V30 27 1 27 28
M  V30 28 1 27 29
M  V30 29 2 29 30
M  V30 30 1 6 31
M  V30 31 2 31 32
M  V30 32 1 32 3
M  V30 33 1 17 7
M  V30 34 1 30 24
M  V30 35 1 15 10
M  V30 36 1 1 33
M  V30 37 1 1 34
M  V30 38 1 1 35
M  V30 39 1 4 36
M  V30 40 1 5 37
M  V30 41 1 11 38
M  V30 42 1 12 39
M  V30 43 1 13 40
M  V30 44 1 14 41
M  V30 45 1 15 42
M  V30 46 1 16 43
M  V30 47 1 20 44
M  V30 48 1 23 45
M  V30 49 1 25 46
M  V30 50 1 26 47
M  V30 51 1 29 48
M  V30 52 1 30 49
M  V30 53 1 31 50
M  V30 54 1 32 51
M  V30 END BOND
M  V30 END CTAB
M  END
>  <Dataset>  (705) 
ChEMBL_Kinases

>  <Ligand_Instance>  (705) 
nan

>  <PDB_ID>  (705) 
nan

>  <Standardized_SMILES>  (705) 
COc1ccc(-c2nn(-c3ccccc3)cc2C(=O)NC(=S)Nc2ccc(Cl)cc2)cc1

>  <Name>  (705) 
nan

>  <Pocket>  (705) 
nan

>  <ATP_Site>  (705) 
nan

>  <Peripheral>  (705) 
nan

>  <Num_H_Atoms_ProtBoundConf>  (705) 
nan

>  <Num_Resolved_Atoms>  (705) 
nan

>  <Num_Not_Resolved_Atoms>  (705) 
nan

$$$$
CHEMBL2426396
     RDKit          3D

  0  0  0  0  0  0  0  0  0  0999 V3000
M  V30 BEGIN CTAB
M  V30 COUNTS 51 54 0 0 0
M  V30 BEGIN ATOM
M  V30 1 C -0.540692 -2.067899 7.278707 0
M  V30 2 O -0.306013 -2.590031 5.983805 0
M  V30 3 C -0.015929 -1.781032 4.893712 0
M  V30 4 C 0.176072 -2.520277 3.724611 0
M  V30 5 C 0.475297 -1.915063 2.519298 0
M  V30 6 C 0.595840 -0.537137 2.430725 0
M  V30 7 C 0.890883 0.285330 1.289783 0
M  V30 8 N 1.800341 1.304256 1.254968 0
M  V30 9 N 1.799876 1.841947 0.045581 0
M  V30 10 C 2.620051 2.934221 -0.375627 0
M  V30 11 C 2.247163 4.260399 -0.477004 0
M  V30 12 C 3.224069 5.134398 -0.910569 0
M  V30 13 C 4.491309 4.759458 -1.230339 0
M  V30 14 C 4.856387 3.427939 -1.125735 0
M  V30 15 C 3.901367 2.506360 -0.691115 0
M  V30 16 C 0.886358 1.170177 -0.709441 0
M  V30 17 C 0.303797 0.179707 0.072516 0
M  V30 18 C -0.700066 -0.657168 -0.511478 0
M  V30 19 O -0.742495 -1.900021 -0.688749 0
M  V30 20 N -1.921950 -0.067353 -1.019523 0
M  V30 21 C -3.094866 -0.594546 -1.644355 0
M  V30 22 S -4.329918 0.411061 -2.108513 0
M  V30 23 N -3.342764 -1.962586 -1.927431 0
M  V30 24 C -2.852175 -3.287058 -1.851703 0
M  V30 25 C -3.106295 -4.092030 -0.744237 0
M  V30 26 C -2.632949 -5.402045 -0.631911 0
M  V30 27 C -1.905263 -5.806969 -1.705552 0
M  V30 28 F -1.425179 -7.092803 -1.622528 0
M  V30 29 C -1.574217 -5.131724 -2.859725 0
M  V30 30 C -2.086304 -3.845854 -2.879571 0
M  V30 31 C 0.403292 0.173224 3.592688 0
M  V30 32 C 0.104133 -0.392503 4.811935 0
M  V30 33 H -1.612300 -1.775597 7.368304 0
M  V30 34 H -0.224629 -2.762113 8.083320 0
M  V30 35 H 0.049168 -1.134859 7.386960 0
M  V30 36 H 0.117023 -3.605122 3.625801 0
M  V30 37 H 0.637692 -2.438109 1.588864 0
M  V30 38 H 1.240419 4.478097 -0.209859 0
M  V30 39 H 2.930427 6.174462 -0.989796 0
M  V30 40 H 5.230444 5.481924 -1.568089 0
M  V30 41 H 5.867413 3.160218 -1.385984 0
M  V30 42 H 4.279626 1.511722 -0.644782 0
M  V30 43 H 0.716682 1.448682 -1.756237 0
M  V30 44 H -1.952319 0.995207 -0.900627 0
M  V30 45 H -4.218090 -2.289264 -2.386385 0
M  V30 46 H -3.707440 -3.667697 0.072696 0
M  V30 47 H -2.825309 -6.025849 0.218243 0
M  V30 48 H -0.992940 -5.548489 -3.645218 0
M  V30 49 H -1.893521 -3.203892 -3.744637 0
M  V30 50 H 0.466165 1.247755 3.673810 0
M  V30 51 H -0.059969 0.081839 5.755052 0
M  V30 END ATOM
M  V30 BEGIN BOND
M  V30 1 1 1 2
M  V30 2 1 2 3
M  V30 3 2 3 4
M  V30 4 1 4 5
M  V30 5 2 5 6
M  V30 6 1 6 7
M  V30 7 2 7 8
M  V30 8 1 8 9
M  V30 9 1 9 10
M  V30 10 2 10 11
M  V30 11 1 11 12
M  V30 12 2 12 13
M  V30 13 1 13 14
M  V30 14 2 14 15
M  V30 15 1 9 16
M  V30 16 2 16 17
M  V30 17 1 17 18
M  V30 18 2 18 19
M  V30 19 1 18 20
M  V30 20 1 20 21
M  V30 21 2 21 22
M  V30 22 1 21 23
M  V30 23 1 23 24
M  V30 24 2 24 25
M  V30 25 1 25 26
M  V30 26 2 26 27
M  V30 27 1 27 28
M  V30 28 1 27 29
M  V30 29 2 29 30
M  V30 30 1 6 31
M  V30 31 2 31 32
M  V30 32 1 32 3
M  V30 33 1 17 7
M  V30 34 1 30 24
M  V30 35 1 15 10
M  V30 36 1 1 33
M  V30 37 1 1 34
M  V30 38 1 1 35
M  V30 39 1 4 36
M  V30 40 1 5 37
M  V30 41 1 11 38
M  V30 42 1 12 39
M  V30 43 1 13 40
M  V30 44 1 14 41
M  V30 45 1 15 42
M  V30 46 1 16 43
M  V30 47 1 20 44
M  V30 48 1 23 45
M  V30 49 1 25 46
M  V30 50 1 26 47
M  V30 51 1 29 48
M  V30 52 1 30 49
M  V30 53 1 31 50
M  V30 54 1 32 51
M  V30 END BOND
M  V30 END CTAB
M  END
>  <Dataset>  (706) 
ChEMBL_Kinases

>  <Ligand_Instance>  (706) 
nan

>  <PDB_ID>  (706) 
nan

>  <Standardized_SMILES>  (706) 
COc1ccc(-c2nn(-c3ccccc3)cc2C(=O)NC(=S)Nc2ccc(F)cc2)cc1

>  <Name>  (706) 
nan

>  <Pocket>  (706) 
nan

>  <ATP_Site>  (706) 
nan

>  <Peripheral>  (706) 
nan

>  <Num_H_Atoms_ProtBoundConf>  (706) 
nan

>  <Num_Resolved_Atoms>  (706) 
nan

>  <Num_Not_Resolved_Atoms>  (706) 
nan

$$$$
CHEMBL2426394
     RDKit          3D

  0  0  0  0  0  0  0  0  0  0999 V3000
M  V30 BEGIN CTAB
M  V30 COUNTS 54 57 0 0 0
M  V30 BEGIN ATOM
M  V30 1 C 3.556395 -4.362835 4.756627 0
M  V30 2 O 2.898395 -4.247722 3.534326 0
M  V30 3 C 2.464738 -3.068868 2.944879 0
M  V30 4 C 2.593804 -1.788437 3.441423 0
M  V30 5 C 2.092375 -0.741561 2.697568 0
M  V30 6 C 1.457317 -0.879327 1.467168 0
M  V30 7 C 1.006802 0.347746 0.834519 0
M  V30 8 N 1.857415 1.416015 0.772846 0
M  V30 9 N 1.263672 2.430543 0.168037 0
M  V30 10 C 1.935218 3.670630 -0.025695 0
M  V30 11 C 1.178342 4.810139 0.246156 0
M  V30 12 C 1.682442 6.090997 0.108482 0
M  V30 13 C 3.008242 6.170988 -0.323565 0
M  V30 14 C 3.799530 5.078262 -0.605762 0
M  V30 15 C 3.247336 3.838151 -0.451445 0
M  V30 16 C 0.021285 2.106534 -0.196873 0
M  V30 17 C -0.118775 0.801796 0.229034 0
M  V30 18 C -1.317935 -0.010358 0.071618 0
M  V30 19 O -1.513235 -1.121271 -0.471545 0
M  V30 20 N -2.560972 0.486399 0.615627 0
M  V30 21 C -3.900122 -0.034854 0.644608 0
M  V30 22 S -5.108084 0.835868 1.375373 0
M  V30 23 N -4.329479 -1.255674 0.107197 0
M  V30 24 C -3.955480 -2.438218 -0.587957 0
M  V30 25 C -3.980419 -2.542104 -1.983481 0
M  V30 26 C -3.602294 -3.711040 -2.642674 0
M  V30 27 C -3.207812 -4.740513 -1.816377 0
M  V30 28 C -2.804897 -5.985551 -2.531330 0
M  V30 29 C -3.140194 -4.762742 -0.441753 0
M  V30 30 C -3.534859 -3.555532 0.144945 0
M  V30 31 C 1.353897 -2.176085 1.015618 0
M  V30 32 C 1.841509 -3.249909 1.728412 0
M  V30 33 H 2.957654 -4.895437 5.539275 0
M  V30 34 H 4.520704 -4.943717 4.653690 0
M  V30 35 H 3.865918 -3.401146 5.220114 0
M  V30 36 H 3.083517 -1.702299 4.385929 0
M  V30 37 H 2.261341 0.220663 3.206964 0
M  V30 38 H 0.132162 4.785984 0.588038 0
M  V30 39 H 1.119746 6.984316 0.311404 0
M  V30 40 H 3.425959 7.170068 -0.438855 0
M  V30 41 H 4.821318 5.187822 -0.937649 0
M  V30 42 H 3.775698 2.912291 -0.643897 0
M  V30 43 H -0.687973 2.726858 -0.701893 0
M  V30 44 H -2.465415 1.437898 1.095648 0
M  V30 45 H -5.318028 -1.579646 0.156376 0
M  V30 46 H -4.303144 -1.687132 -2.558657 0
M  V30 47 H -3.622362 -3.787333 -3.703885 0
M  V30 48 H -2.424487 -6.748410 -1.851961 0
M  V30 49 H -3.651014 -6.347965 -3.149034 0
M  V30 50 H -2.005764 -5.690435 -3.270508 0
M  V30 51 H -2.820864 -5.609675 0.125612 0
M  V30 52 H -3.523857 -3.451746 1.230169 0
M  V30 53 H 0.869186 -2.298481 0.061563 0
M  V30 54 H 1.696503 -4.217399 1.264249 0
M  V30 END ATOM
M  V30 BEGIN BOND
M  V30 1 1 1 2
M  V30 2 1 2 3
M  V30 3 2 3 4
M  V30 4 1 4 5
M  V30 5 2 5 6
M  V30 6 1 6 7
M  V30 7 2 7 8
M  V30 8 1 8 9
M  V30 9 1 9 10
M  V30 10 2 10 11
M  V30 11 1 11 12
M  V30 12 2 12 13
M  V30 13 1 13 14
M  V30 14 2 14 15
M  V30 15 1 9 16
M  V30 16 2 16 17
M  V30 17 1 17 18
M  V30 18 2 18 19
M  V30 19 1 18 20
M  V30 20 1 20 21
M  V30 21 2 21 22
M  V30 22 1 21 23
M  V30 23 1 23 24
M  V30 24 2 24 25
M  V30 25 1 25 26
M  V30 26 2 26 27
M  V30 27 1 27 28
M  V30 28 1 27 29
M  V30 29 2 29 30
M  V30 30 1 6 31
M  V30 31 2 31 32
M  V30 32 1 32 3
M  V30 33 1 17 7
M  V30 34 1 30 24
M  V30 35 1 15 10
M  V30 36 1 1 33
M  V30 37 1 1 34
M  V30 38 1 1 35
M  V30 39 1 4 36
M  V30 40 1 5 37
M  V30 41 1 11 38
M  V30 42 1 12 39
M  V30 43 1 13 40
M  V30 44 1 14 41
M  V30 45 1 15 42
M  V30 46 1 16 43
M  V30 47 1 20 44
M  V30 48 1 23 45
M  V30 49 1 25 46
M  V30 50 1 26 47
M  V30 51 1 28 48
M  V30 52 1 28 49
M  V30 53 1 28 50
M  V30 54 1 29 51
M  V30 55 1 30 52
M  V30 56 1 31 53
M  V30 57 1 32 54
M  V30 END BOND
M  V30 END CTAB
M  END
>  <Dataset>  (707) 
ChEMBL_Kinases

>  <Ligand_Instance>  (707) 
nan

>  <PDB_ID>  (707) 
nan

>  <Standardized_SMILES>  (707) 
COc1ccc(-c2nn(-c3ccccc3)cc2C(=O)NC(=S)Nc2ccc(C)cc2)cc1

>  <Name>  (707) 
nan

>  <Pocket>  (707) 
nan

>  <ATP_Site>  (707) 
nan

>  <Peripheral>  (707) 
nan

>  <Num_H_Atoms_ProtBoundConf>  (707) 
nan

>  <Num_Resolved_Atoms>  (707) 
nan

>  <Num_Not_Resolved_Atoms>  (707) 
nan

$$$$
CHEMBL2426393
     RDKit          3D

  0  0  0  0  0  0  0  0  0  0999 V3000
M  V30 BEGIN CTAB
M  V30 COUNTS 47 50 0 0 0
M  V30 BEGIN ATOM
M  V30 1 O 1.504295 -0.265179 1.715826 0
M  V30 2 C 0.301007 0.053427 1.595812 0
M  V30 3 N -0.002454 1.246811 2.302661 0
M  V30 4 C 0.551323 2.251741 3.099421 0
M  V30 5 S -0.149903 3.541362 3.794032 0
M  V30 6 N 1.910387 2.530908 3.503274 0
M  V30 7 C 3.044921 1.735286 3.096688 0
M  V30 8 C 3.499956 2.096457 1.811565 0
M  V30 9 C 4.544914 1.525964 1.125334 0
M  V30 10 C 5.208066 0.494137 1.772700 0
M  V30 11 Cl 6.581757 -0.428628 1.143664 0
M  V30 12 C 4.778315 0.115529 3.052918 0
M  V30 13 C 3.737589 0.688265 3.732716 0
M  V30 14 C -0.664950 -0.707029 0.821340 0
M  V30 15 C -0.090296 -1.138386 -0.405012 0
M  V30 16 N -0.987468 -1.853847 -1.161837 0
M  V30 17 C -0.650435 -2.390469 -2.436502 0
M  V30 18 C -0.976216 -1.901508 -3.660501 0
M  V30 19 C -0.551357 -2.517416 -4.838211 0
M  V30 20 C 0.219434 -3.655590 -4.643496 0
M  V30 21 C 0.575335 -4.186486 -3.437467 0
M  V30 22 C 0.124886 -3.531788 -2.304901 0
M  V30 23 N -2.099764 -1.874357 -0.431521 0
M  V30 24 C -1.944039 -1.214875 0.727195 0
M  V30 25 C -2.742170 -0.879211 1.867548 0
M  V30 26 C -3.978925 -0.355380 1.459752 0
M  V30 27 C -4.902543 0.044585 2.435585 0
M  V30 28 C -4.622453 -0.064837 3.791406 0
M  V30 29 F -5.581758 0.355245 4.653872 0
M  V30 30 C -3.397987 -0.584370 4.143194 0
M  V30 31 C -2.481701 -0.981430 3.205626 0
M  V30 32 H -1.042963 1.481484 2.201910 0
M  V30 33 H 2.531953 3.150375 4.043767 0
M  V30 34 H 3.033853 2.906381 1.218361 0
M  V30 35 H 4.963180 1.720824 0.163203 0
M  V30 36 H 5.228750 -0.678992 3.662711 0
M  V30 37 H 3.310201 0.507336 4.690596 0
M  V30 38 H 0.928962 -0.979585 -0.825648 0
M  V30 39 H -1.583827 -1.004682 -3.679430 0
M  V30 40 H -0.818428 -2.121985 -5.812325 0
M  V30 41 H 0.580477 -4.184643 -5.534867 0
M  V30 42 H 1.193807 -5.095382 -3.347522 0
M  V30 43 H 0.434251 -3.979189 -1.367612 0
M  V30 44 H -4.328591 -0.219728 0.418657 0
M  V30 45 H -5.874426 0.451539 2.128565 0
M  V30 46 H -3.196894 -0.660041 5.199330 0
M  V30 47 H -1.527986 -1.386913 3.429220 0
M  V30 END ATOM
M  V30 BEGIN BOND
M  V30 1 2 1 2
M  V30 2 1 2 3
M  V30 3 1 3 4
M  V30 4 2 4 5
M  V30 5 1 4 6
M  V30 6 1 6 7
M  V30 7 2 7 8
M  V30 8 1 8 9
M  V30 9 2 9 10
M  V30 10 1 10 11
M  V30 11 1 10 12
M  V30 12 2 12 13
M  V30 13 1 2 14
M  V30 14 2 14 15
M  V30 15 1 15 16
M  V30 16 1 16 17
M  V30 17 2 17 18
M  V30 18 1 18 19
M  V30 19 2 19 20
M  V30 20 1 20 21
M  V30 21 2 21 22
M  V30 22 1 16 23
M  V30 23 2 23 24
M  V30 24 1 24 25
M  V30 25 2 25 26
M  V30 26 1 26 27
M  V30 27 2 27 28
M  V30 28 1 28 29
M  V30 29 1 28 30
M  V30 30 2 30 31
M  V30 31 1 13 7
M  V30 32 1 24 14
M  V30 33 1 31 25
M  V30 34 1 22 17
M  V30 35 1 3 32
M  V30 36 1 6 33
M  V30 37 1 8 34
M  V30 38 1 9 35
M  V30 39 1 12 36
M  V30 40 1 13 37
M  V30 41 1 15 38
M  V30 42 1 18 39
M  V30 43 1 19 40
M  V30 44 1 20 41
M  V30 45 1 21 42
M  V30 46 1 22 43
M  V30 47 1 26 44
M  V30 48 1 27 45
M  V30 49 1 30 46
M  V30 50 1 31 47
M  V30 END BOND
M  V30 END CTAB
M  END
>  <Dataset>  (708) 
ChEMBL_Kinases

>  <Ligand_Instance>  (708) 
nan

>  <PDB_ID>  (708) 
nan

>  <Standardized_SMILES>  (708) 
O=C(NC(=S)Nc1ccc(Cl)cc1)c1cn(-c2ccccc2)nc1-c1ccc(F)cc1

>  <Name>  (708) 
nan

>  <Pocket>  (708) 
nan

>  <ATP_Site>  (708) 
nan

>  <Peripheral>  (708) 
nan

>  <Num_H_Atoms_ProtBoundConf>  (708) 
nan

>  <Num_Resolved_Atoms>  (708) 
nan

>  <Num_Not_Resolved_Atoms>  (708) 
nan

$$$$
CHEMBL2426392
     RDKit          3D

  0  0  0  0  0  0  0  0  0  0999 V3000
M  V30 BEGIN CTAB
M  V30 COUNTS 47 50 0 0 0
M  V30 BEGIN ATOM
M  V30 1 O 1.574236 0.154487 1.423184 0
M  V30 2 C 0.367122 0.409125 1.196850 0
M  V30 3 N -0.145345 1.639878 1.682708 0
M  V30 4 C 0.484138 2.672568 2.405260 0
M  V30 5 S -0.469255 3.964875 2.791431 0
M  V30 6 N 1.821942 2.770769 2.853831 0
M  V30 7 C 3.062699 2.079233 2.862722 0
M  V30 8 C 3.895874 2.365140 1.774658 0
M  V30 9 C 5.127296 1.763303 1.646376 0
M  V30 10 C 5.520507 0.860061 2.632849 0
M  V30 11 F 6.729380 0.264960 2.517136 0
M  V30 12 C 4.662986 0.601197 3.701317 0
M  V30 13 C 3.429697 1.193344 3.845369 0
M  V30 14 C -0.382038 -0.591443 0.455486 0
M  V30 15 C 0.067123 -1.310020 -0.643785 0
M  V30 16 N -0.898361 -2.147932 -1.071087 0
M  V30 17 C -0.682725 -3.005294 -2.197985 0
M  V30 18 C -0.684484 -2.595568 -3.496543 0
M  V30 19 C -0.465737 -3.497414 -4.542292 0
M  V30 20 C -0.246182 -4.831409 -4.198920 0
M  V30 21 C -0.247756 -5.227303 -2.878942 0
M  V30 22 C -0.466226 -4.322948 -1.845948 0
M  V30 23 N -1.917118 -1.971079 -0.279743 0
M  V30 24 C -1.662547 -1.042888 0.661553 0
M  V30 25 C -2.578253 -0.598761 1.701889 0
M  V30 26 C -3.880791 -0.345075 1.258640 0
M  V30 27 C -4.903877 0.086281 2.098782 0
M  V30 28 C -4.520983 0.243921 3.417958 0
M  V30 29 F -5.441381 0.659492 4.322504 0
M  V30 30 C -3.258026 0.010425 3.911220 0
M  V30 31 C -2.278020 -0.414290 3.047447 0
M  V30 32 H -1.167834 1.710705 1.415767 0
M  V30 33 H 2.157878 3.601538 3.387436 0
M  V30 34 H 3.616285 3.063154 0.990928 0
M  V30 35 H 5.814310 1.943265 0.829403 0
M  V30 36 H 5.010003 -0.115981 4.454687 0
M  V30 37 H 2.763846 0.995121 4.669366 0
M  V30 38 H 1.071398 -1.178064 -1.066106 0
M  V30 39 H -0.866789 -1.547615 -3.602228 0
M  V30 40 H -0.495395 -3.033439 -5.502148 0
M  V30 41 H -0.088657 -5.456512 -5.064120 0
M  V30 42 H -0.059589 -6.304531 -2.796730 0
M  V30 43 H -0.436218 -4.785001 -0.864439 0
M  V30 44 H -4.166898 -0.475816 0.207092 0
M  V30 45 H -5.894144 0.276168 1.749072 0
M  V30 46 H -3.011676 0.151591 4.956995 0
M  V30 47 H -1.270328 -0.626487 3.302701 0
M  V30 END ATOM
M  V30 BEGIN BOND
M  V30 1 2 1 2
M  V30 2 1 2 3
M  V30 3 1 3 4
M  V30 4 2 4 5
M  V30 5 1 4 6
M  V30 6 1 6 7
M  V30 7 2 7 8
M  V30 8 1 8 9
M  V30 9 2 9 10
M  V30 10 1 10 11
M  V30 11 1 10 12
M  V30 12 2 12 13
M  V30 13 1 2 14
M  V30 14 2 14 15
M  V30 15 1 15 16
M  V30 16 1 16 17
M  V30 17 2 17 18
M  V30 18 1 18 19
M  V30 19 2 19 20
M  V30 20 1 20 21
M  V30 21 2 21 22
M  V30 22 1 16 23
M  V30 23 2 23 24
M  V30 24 1 24 25
M  V30 25 2 25 26
M  V30 26 1 26 27
M  V30 27 2 27 28
M  V30 28 1 28 29
M  V30 29 1 28 30
M  V30 30 2 30 31
M  V30 31 1 13 7
M  V30 32 1 24 14
M  V30 33 1 31 25
M  V30 34 1 22 17
M  V30 35 1 3 32
M  V30 36 1 6 33
M  V30 37 1 8 34
M  V30 38 1 9 35
M  V30 39 1 12 36
M  V30 40 1 13 37
M  V30 41 1 15 38
M  V30 42 1 18 39
M  V30 43 1 19 40
M  V30 44 1 20 41
M  V30 45 1 21 42
M  V30 46 1 22 43
M  V30 47 1 26 44
M  V30 48 1 27 45
M  V30 49 1 30 46
M  V30 50 1 31 47
M  V30 END BOND
M  V30 END CTAB
M  END
>  <Dataset>  (709) 
ChEMBL_Kinases

>  <Ligand_Instance>  (709) 
nan

>  <PDB_ID>  (709) 
nan

>  <Standardized_SMILES>  (709) 
O=C(NC(=S)Nc1ccc(F)cc1)c1cn(-c2ccccc2)nc1-c1ccc(F)cc1

>  <Name>  (709) 
nan

>  <Pocket>  (709) 
nan

>  <ATP_Site>  (709) 
nan

>  <Peripheral>  (709) 
nan

>  <Num_H_Atoms_ProtBoundConf>  (709) 
nan

>  <Num_Resolved_Atoms>  (709) 
nan

>  <Num_Not_Resolved_Atoms>  (709) 
nan

$$$$
CHEMBL2426390
     RDKit          3D

  0  0  0  0  0  0  0  0  0  0999 V3000
M  V30 BEGIN CTAB
M  V30 COUNTS 50 53 0 0 0
M  V30 BEGIN ATOM
M  V30 1 C 1.193939 -3.506836 -2.906353 0
M  V30 2 C 1.719815 -3.539185 -1.505625 0
M  V30 3 C 1.263735 -4.487498 -0.650178 0
M  V30 4 C 1.626097 -4.601684 0.673642 0
M  V30 5 C 2.535901 -3.620808 1.098122 0
M  V30 6 N 3.096553 -3.310513 2.405969 0
M  V30 7 C 2.596973 -2.133371 2.997147 0
M  V30 8 S 3.548878 -1.852111 4.323327 0
M  V30 9 N 1.717938 -1.051358 2.894681 0
M  V30 10 C 0.711545 -0.883452 1.938798 0
M  V30 11 O 0.367045 -1.688930 1.027332 0
M  V30 12 C -0.266732 0.111617 1.544452 0
M  V30 13 C 0.290751 1.191383 0.812316 0
M  V30 14 N -0.644596 2.110311 0.408432 0
M  V30 15 C -0.284294 3.268872 -0.358876 0
M  V30 16 C 0.360266 4.389647 0.109214 0
M  V30 17 C 0.680373 5.434067 -0.734554 0
M  V30 18 C 0.314797 5.267739 -2.045977 0
M  V30 19 C -0.331475 4.169011 -2.569664 0
M  V30 20 C -0.648350 3.116224 -1.687734 0
M  V30 21 N -1.801703 1.630038 0.878664 0
M  V30 22 C -1.575297 0.470643 1.535994 0
M  V30 23 C -2.373854 -0.568910 2.222082 0
M  V30 24 C -2.175949 -1.001088 3.513388 0
M  V30 25 C -2.930890 -2.014301 4.061508 0
M  V30 26 C -3.909544 -2.594661 3.265563 0
M  V30 27 F -4.620131 -3.585257 3.858098 0
M  V30 28 C -4.133899 -2.173489 1.949434 0
M  V30 29 C -3.350108 -1.142819 1.422699 0
M  V30 30 C 3.045701 -2.618713 0.248081 0
M  V30 31 C 2.611989 -2.596011 -1.087031 0
M  V30 32 H 1.833523 -3.961688 -3.651376 0
M  V30 33 H 0.211550 -4.076305 -2.905485 0
M  V30 34 H 0.889961 -2.455843 -3.143414 0
M  V30 35 H 0.556107 -5.261266 -0.929328 0
M  V30 36 H 1.383656 -5.267830 1.475702 0
M  V30 37 H 3.780297 -3.993207 2.740312 0
M  V30 38 H 1.650815 -0.208543 3.467648 0
M  V30 39 H 1.348990 1.362558 0.534167 0
M  V30 40 H 0.571188 4.364925 1.173965 0
M  V30 41 H 1.177554 6.273578 -0.292651 0
M  V30 42 H 0.562841 6.077404 -2.716729 0
M  V30 43 H -0.574482 4.125412 -3.637785 0
M  V30 44 H -1.152514 2.290775 -2.172177 0
M  V30 45 H -1.380263 -0.491584 4.069012 0
M  V30 46 H -2.680333 -2.265356 5.077146 0
M  V30 47 H -4.940469 -2.703578 1.417207 0
M  V30 48 H -3.645464 -0.946806 0.413252 0
M  V30 49 H 3.748976 -1.818225 0.434299 0
M  V30 50 H 2.924115 -1.874414 -1.827452 0
M  V30 END ATOM
M  V30 BEGIN BOND
M  V30 1 1 1 2
M  V30 2 2 2 3
M  V30 3 1 3 4
M  V30 4 2 4 5
M  V30 5 1 5 6
M  V30 6 1 6 7
M  V30 7 2 7 8
M  V30 8 1 7 9
M  V30 9 1 9 10
M  V30 10 2 10 11
M  V30 11 1 10 12
M  V30 12 2 12 13
M  V30 13 1 13 14
M  V30 14 1 14 15
M  V30 15 2 15 16
M  V30 16 1 16 17
M  V30 17 2 17 18
M  V30 18 1 18 19
M  V30 19 2 19 20
M  V30 20 1 14 21
M  V30 21 2 21 22
M  V30 22 1 22 23
M  V30 23 2 23 24
M  V30 24 1 24 25
M  V30 25 2 25 26
M  V30 26 1 26 27
M  V30 27 1 26 28
M  V30 28 2 28 29
M  V30 29 1 5 30
M  V30 30 2 30 31
M  V30 31 1 31 2
M  V30 32 1 22 12
M  V30 33 1 29 23
M  V30 34 1 20 15
M  V30 35 1 1 32
M  V30 36 1 1 33
M  V30 37 1 1 34
M  V30 38 1 3 35
M  V30 39 1 4 36
M  V30 40 1 6 37
M  V30 41 1 9 38
M  V30 42 1 13 39
M  V30 43 1 16 40
M  V30 44 1 17 41
M  V30 45 1 18 42
M  V30 46 1 19 43
M  V30 47 1 20 44
M  V30 48 1 24 45
M  V30 49 1 25 46
M  V30 50 1 28 47
M  V30 51 1 29 48
M  V30 52 1 30 49
M  V30 53 1 31 50
M  V30 END BOND
M  V30 END CTAB
M  END
>  <Dataset>  (710) 
ChEMBL_Kinases

>  <Ligand_Instance>  (710) 
nan

>  <PDB_ID>  (710) 
nan

>  <Standardized_SMILES>  (710) 
Cc1ccc(NC(=S)NC(=O)c2cn(-c3ccccc3)nc2-c2ccc(F)cc2)cc1

>  <Name>  (710) 
nan

>  <Pocket>  (710) 
nan

>  <ATP_Site>  (710) 
nan

>  <Peripheral>  (710) 
nan

>  <Num_H_Atoms_ProtBoundConf>  (710) 
nan

>  <Num_Resolved_Atoms>  (710) 
nan

>  <Num_Not_Resolved_Atoms>  (710) 
nan

$$$$
CHEMBL2426389
     RDKit          3D

  0  0  0  0  0  0  0  0  0  0999 V3000
M  V30 BEGIN CTAB
M  V30 COUNTS 47 50 0 0 0
M  V30 BEGIN ATOM
M  V30 1 O -0.989787 1.067044 3.385720 0
M  V30 2 C -0.404920 0.508354 2.417833 0
M  V30 3 N 0.860194 1.163194 2.283536 0
M  V30 4 C 1.287080 2.227795 3.125374 0
M  V30 5 S 0.357500 2.809089 4.344715 0
M  V30 6 N 2.558212 2.828186 2.923682 0
M  V30 7 C 3.255215 2.232563 1.832827 0
M  V30 8 C 2.945098 2.897362 0.645547 0
M  V30 9 C 3.496460 2.509185 -0.568031 0
M  V30 10 C 4.378230 1.429219 -0.582870 0
M  V30 11 Cl 5.171409 0.799685 -2.013432 0
M  V30 12 C 4.684118 0.770724 0.602798 0
M  V30 13 C 4.130575 1.162871 1.806881 0
M  V30 14 C -0.740611 -0.568649 1.501011 0
M  V30 15 C 0.190926 -1.247237 0.746210 0
M  V30 16 N -0.533616 -2.129246 0.039266 0
M  V30 17 C 0.139417 -3.019585 -0.874644 0
M  V30 18 C 0.087173 -2.977835 -2.235638 0
M  V30 19 C 0.811869 -3.918594 -2.946998 0
M  V30 20 C 1.581550 -4.893937 -2.348911 0
M  V30 21 C 1.655201 -4.963076 -0.963286 0
M  V30 22 C 0.917282 -4.004472 -0.266407 0
M  V30 23 N -1.829184 -2.030252 0.313636 0
M  V30 24 C -2.004601 -1.045702 1.244192 0
M  V30 25 C -3.315253 -0.678382 1.757466 0
M  V30 26 C -4.314114 -0.450042 0.797175 0
M  V30 27 C -5.596619 -0.104902 1.236954 0
M  V30 28 C -5.929645 0.024262 2.577909 0
M  V30 29 Cl -7.539269 0.457216 3.098191 0
M  V30 30 C -4.954758 -0.197966 3.515951 0
M  V30 31 C -3.695810 -0.538733 3.071688 0
M  V30 32 H 1.518416 0.839005 1.515001 0
M  V30 33 H 2.918025 3.614903 3.516437 0
M  V30 34 H 2.280801 3.743892 0.516301 0
M  V30 35 H 3.331304 2.944732 -1.520972 0
M  V30 36 H 5.348599 -0.075879 0.719336 0
M  V30 37 H 4.281316 0.739679 2.789964 0
M  V30 38 H 1.246262 -1.073212 0.756941 0
M  V30 39 H -0.521984 -2.203234 -2.666243 0
M  V30 40 H 0.770028 -3.887969 -4.024804 0
M  V30 41 H 2.146749 -5.624285 -2.917219 0
M  V30 42 H 2.241995 -5.704024 -0.478004 0
M  V30 43 H 1.009859 -4.094169 0.806275 0
M  V30 44 H -4.172915 -0.519836 -0.275528 0
M  V30 45 H -6.385278 0.076953 0.510191 0
M  V30 46 H -5.141113 -0.119163 4.582749 0
M  V30 47 H -2.941297 -0.719804 3.822828 0
M  V30 END ATOM
M  V30 BEGIN BOND
M  V30 1 2 1 2
M  V30 2 1 2 3
M  V30 3 1 3 4
M  V30 4 2 4 5
M  V30 5 1 4 6
M  V30 6 1 6 7
M  V30 7 2 7 8
M  V30 8 1 8 9
M  V30 9 2 9 10
M  V30 10 1 10 11
M  V30 11 1 10 12
M  V30 12 2 12 13
M  V30 13 1 2 14
M  V30 14 2 14 15
M  V30 15 1 15 16
M  V30 16 1 16 17
M  V30 17 2 17 18
M  V30 18 1 18 19
M  V30 19 2 19 20
M  V30 20 1 20 21
M  V30 21 2 21 22
M  V30 22 1 16 23
M  V30 23 2 23 24
M  V30 24 1 24 25
M  V30 25 2 25 26
M  V30 26 1 26 27
M  V30 27 2 27 28
M  V30 28 1 28 29
M  V30 29 1 28 30
M  V30 30 2 30 31
M  V30 31 1 13 7
M  V30 32 1 24 14
M  V30 33 1 31 25
M  V30 34 1 22 17
M  V30 35 1 3 32
M  V30 36 1 6 33
M  V30 37 1 8 34
M  V30 38 1 9 35
M  V30 39 1 12 36
M  V30 40 1 13 37
M  V30 41 1 15 38
M  V30 42 1 18 39
M  V30 43 1 19 40
M  V30 44 1 20 41
M  V30 45 1 21 42
M  V30 46 1 22 43
M  V30 47 1 26 44
M  V30 48 1 27 45
M  V30 49 1 30 46
M  V30 50 1 31 47
M  V30 END BOND
M  V30 END CTAB
M  END
>  <Dataset>  (711) 
ChEMBL_Kinases

>  <Ligand_Instance>  (711) 
nan

>  <PDB_ID>  (711) 
nan

>  <Standardized_SMILES>  (711) 
O=C(NC(=S)Nc1ccc(Cl)cc1)c1cn(-c2ccccc2)nc1-c1ccc(Cl)cc1

>  <Name>  (711) 
nan

>  <Pocket>  (711) 
nan

>  <ATP_Site>  (711) 
nan

>  <Peripheral>  (711) 
nan

>  <Num_H_Atoms_ProtBoundConf>  (711) 
nan

>  <Num_Resolved_Atoms>  (711) 
nan

>  <Num_Not_Resolved_Atoms>  (711) 
nan

$$$$
CHEMBL242482
     RDKit          3D

  0  0  0  0  0  0  0  0  0  0999 V3000
M  V30 BEGIN CTAB
M  V30 COUNTS 40 43 0 0 0
M  V30 BEGIN ATOM
M  V30 1 O 1.123235 -1.834241 -1.725648 0
M  V30 2 C 1.800955 -0.894620 -1.179543 0
M  V30 3 C 3.156692 -1.100775 -0.727465 0
M  V30 4 C 4.403805 -0.639367 -1.076604 0
M  V30 5 F 4.300074 0.215353 -2.118958 0
M  V30 6 C 5.532652 -1.078492 -0.367669 0
M  V30 7 C 5.396146 -1.978271 0.687914 0
M  V30 8 C 4.140570 -2.476609 1.080458 0
M  V30 9 C 3.074438 -1.998980 0.334548 0
M  V30 10 F 1.934071 -2.586126 0.860128 0
M  V30 11 N 0.884216 0.173731 -1.191188 0
M  V30 12 C -0.477624 0.008748 -1.713541 0
M  V30 13 C -1.399458 -0.199954 -0.495897 0
M  V30 14 C -0.785884 0.647242 0.569417 0
M  V30 15 C 0.337255 1.492898 0.633380 0
M  V30 16 C 0.446705 2.031042 1.897015 0
M  V30 17 N -0.578027 1.528561 2.582414 0
M  V30 18 N -1.305758 0.723367 1.829294 0
M  V30 19 C -2.483460 0.017976 2.300023 0
M  V30 20 C -2.010836 -1.202039 2.783060 0
M  V30 21 C -2.912067 -2.113639 3.298404 0
M  V30 22 C -4.288990 -1.828943 3.339566 0
M  V30 23 C -4.684538 -0.582910 2.836298 0
M  V30 24 C -3.807753 0.350040 2.316735 0
M  V30 25 Cl -4.131797 1.916880 1.652442 0
M  V30 26 C 1.075012 1.526905 -0.701487 0
M  V30 27 H 6.413862 -0.635377 -0.759285 0
M  V30 28 H 6.337036 -2.234777 1.146485 0
M  V30 29 H 4.139638 -3.174913 1.913856 0
M  V30 30 H -0.503411 -0.950025 -2.261117 0
M  V30 31 H -0.752051 0.894514 -2.296439 0
M  V30 32 H -1.355420 -1.259925 -0.206819 0
M  V30 33 H -2.393201 0.180515 -0.731727 0
M  V30 34 H 1.298338 2.682259 1.997149 0
M  V30 35 H -1.013232 -1.615385 2.845965 0
M  V30 36 H -2.674211 -3.106196 3.711068 0
M  V30 37 H -5.077787 -2.461859 3.716802 0
M  V30 38 H -5.721789 -0.244246 2.811458 0
M  V30 39 H 2.136966 1.669545 -0.515488 0
M  V30 40 H 0.629105 2.289647 -1.369176 0
M  V30 END ATOM
M  V30 BEGIN BOND
M  V30 1 2 1 2
M  V30 2 1 2 3
M  V30 3 2 3 4
M  V30 4 1 4 5
M  V30 5 1 4 6
M  V30 6 2 6 7
M  V30 7 1 7 8
M  V30 8 2 8 9
M  V30 9 1 9 10
M  V30 10 1 2 11
M  V30 11 1 11 12
M  V30 12 1 12 13
M  V30 13 1 13 14
M  V30 14 2 14 15
M  V30 15 1 15 16
M  V30 16 2 16 17
M  V30 17 1 17 18
M  V30 18 1 18 19
M  V30 19 2 19 20
M  V30 20 1 20 21
M  V30 21 2 21 22
M  V30 22 1 22 23
M  V30 23 2 23 24
M  V30 24 1 24 25
M  V30 25 1 15 26
M  V30 26 1 9 3
M  V30 27 1 26 11
M  V30 28 1 18 14
M  V30 29 1 24 19
M  V30 30 1 6 27
M  V30 31 1 7 28
M  V30 32 1 8 29
M  V30 33 1 12 30
M  V30 34 1 12 31
M  V30 35 1 13 32
M  V30 36 1 13 33
M  V30 37 1 16 34
M  V30 38 1 20 35
M  V30 39 1 21 36
M  V30 40 1 22 37
M  V30 41 1 23 38
M  V30 42 1 26 39
M  V30 43 1 26 40
M  V30 END BOND
M  V30 END CTAB
M  END
>  <Dataset>  (712) 
ChEMBL_Kinases

>  <Ligand_Instance>  (712) 
nan

>  <PDB_ID>  (712) 
nan

>  <Standardized_SMILES>  (712) 
O=C(c1c(F)cccc1F)N1CCc2c(cnn2-c2ccccc2Cl)C1

>  <Name>  (712) 
nan

>  <Pocket>  (712) 
nan

>  <ATP_Site>  (712) 
nan

>  <Peripheral>  (712) 
nan

>  <Num_H_Atoms_ProtBoundConf>  (712) 
nan

>  <Num_Resolved_Atoms>  (712) 
nan

>  <Num_Not_Resolved_Atoms>  (712) 
nan

$$$$
CHEMBL242488
     RDKit          3D

  0  0  0  0  0  0  0  0  0  0999 V3000
M  V30 BEGIN CTAB
M  V30 COUNTS 38 39 0 0 0
M  V30 BEGIN ATOM
M  V30 1 C -1.482046 -4.099320 2.241674 0
M  V30 2 C -0.226224 -4.803547 1.789407 0
M  V30 3 C 0.982508 -3.910656 1.953332 0
M  V30 4 C 0.887812 -2.634604 1.160151 0
M  V30 5 O 0.763343 -2.874420 -0.212557 0
M  V30 6 C 0.659602 -1.879317 -1.167368 0
M  V30 7 N 0.538121 -2.045545 -2.490929 0
M  V30 8 C 0.445183 -0.964307 -3.316003 0
M  V30 9 C 0.468669 0.321713 -2.867285 0
M  V30 10 C 0.594037 0.481654 -1.504566 0
M  V30 11 N 0.648718 1.806750 -0.928328 0
M  V30 12 C 0.712739 2.318597 0.397268 0
M  V30 13 C 1.889044 3.032614 0.665128 0
M  V30 14 C 2.093283 3.588734 1.917490 0
M  V30 15 C 1.087473 3.390126 2.838773 0
M  V30 16 C -0.071134 2.689419 2.580020 0
M  V30 17 C -0.278732 2.134979 1.334768 0
M  V30 18 C -1.506928 1.423397 1.032669 0
M  V30 19 O -1.897566 0.900377 -0.014587 0
M  V30 20 O -2.445851 1.257358 2.015009 0
M  V30 21 N 0.682541 -0.611475 -0.727539 0
M  V30 22 H -1.391394 -3.825150 3.311465 0
M  V30 23 H -2.309879 -4.826931 2.102641 0
M  V30 24 H -1.692675 -3.226654 1.587106 0
M  V30 25 H -0.061779 -5.665516 2.463243 0
M  V30 26 H -0.321552 -5.122579 0.752193 0
M  V30 27 H 1.868710 -4.473094 1.648156 0
M  V30 28 H 1.025215 -3.657794 3.035456 0
M  V30 29 H 0.059649 -2.000254 1.561107 0
M  V30 30 H 1.837445 -2.086485 1.321943 0
M  V30 31 H 0.347239 -1.123813 -4.383772 0
M  V30 32 H 0.393601 1.163981 -3.534407 0
M  V30 33 H 0.639816 2.620000 -1.613756 0
M  V30 34 H 2.669646 3.178530 -0.071437 0
M  V30 35 H 2.970825 4.147015 2.188823 0
M  V30 36 H 1.160919 3.789603 3.846921 0
M  V30 37 H -0.836221 2.556742 3.331859 0
M  V30 38 H -3.429438 1.208741 1.838109 0
M  V30 END ATOM
M  V30 BEGIN BOND
M  V30 1 1 1 2
M  V30 2 1 2 3
M  V30 3 1 3 4
M  V30 4 1 4 5
M  V30 5 1 5 6
M  V30 6 2 6 7
M  V30 7 1 7 8
M  V30 8 2 8 9
M  V30 9 1 9 10
M  V30 10 1 10 11
M  V30 11 1 11 12
M  V30 12 2 12 13
M  V30 13 1 13 14
M  V30 14 2 14 15
M  V30 15 1 15 16
M  V30 16 2 16 17
M  V30 17 1 17 18
M  V30 18 2 18 19
M  V30 19 1 18 20
M  V30 20 2 10 21
M  V30 21 1 21 6
M  V30 22 1 17 12
M  V30 23 1 1 22
M  V30 24 1 1 23
M  V30 25 1 1 24
M  V30 26 1 2 25
M  V30 27 1 2 26
M  V30 28 1 3 27
M  V30 29 1 3 28
M  V30 30 1 4 29
M  V30 31 1 4 30
M  V30 32 1 8 31
M  V30 33 1 9 32
M  V30 34 1 11 33
M  V30 35 1 13 34
M  V30 36 1 14 35
M  V30 37 1 15 36
M  V30 38 1 16 37
M  V30 39 1 20 38
M  V30 END BOND
M  V30 END CTAB
M  END
>  <Dataset>  (713) 
ChEMBL_Kinases

>  <Ligand_Instance>  (713) 
nan

>  <PDB_ID>  (713) 
nan

>  <Standardized_SMILES>  (713) 
CCCCOc1nccc(Nc2ccccc2C(=O)O)n1

>  <Name>  (713) 
nan

>  <Pocket>  (713) 
nan

>  <ATP_Site>  (713) 
nan

>  <Peripheral>  (713) 
nan

>  <Num_H_Atoms_ProtBoundConf>  (713) 
nan

>  <Num_Resolved_Atoms>  (713) 
nan

>  <Num_Not_Resolved_Atoms>  (713) 
nan

$$$$
CHEMBL242489
     RDKit          3D

  0  0  0  0  0  0  0  0  0  0999 V3000
M  V30 BEGIN CTAB
M  V30 COUNTS 35 36 0 0 0
M  V30 BEGIN ATOM
M  V30 1 C -0.958363 -1.691358 2.510689 0
M  V30 2 C -0.994534 -3.153240 2.769880 0
M  V30 3 C -0.851651 -3.954207 1.526067 0
M  V30 4 O 0.293138 -3.820033 0.802467 0
M  V30 5 C 0.915357 -2.816077 0.149548 0
M  V30 6 N 2.026384 -3.378271 -0.356008 0
M  V30 7 C 2.929812 -2.676193 -1.093358 0
M  V30 8 C 2.712595 -1.342734 -1.338752 0
M  V30 9 C 1.579683 -0.758360 -0.826073 0
M  V30 10 N 1.250550 0.592940 -1.032858 0
M  V30 11 C 0.220965 1.450789 -0.580513 0
M  V30 12 C -0.609938 1.940279 -1.589557 0
M  V30 13 C -1.676225 2.787048 -1.399932 0
M  V30 14 C -1.906279 3.155806 -0.094276 0
M  V30 15 C -1.147280 2.726848 0.946201 0
M  V30 16 C -0.101359 1.885139 0.679323 0
M  V30 17 C 0.765656 1.427828 1.752860 0
M  V30 18 O 1.789574 0.702951 1.730185 0
M  V30 19 O 0.870349 1.549810 3.121551 0
M  V30 20 N 0.750635 -1.524256 -0.115480 0
M  V30 21 H 0.072539 -1.280692 2.533333 0
M  V30 22 H -1.553959 -1.107104 3.266322 0
M  V30 23 H -1.433463 -1.431680 1.544053 0
M  V30 24 H -0.117603 -3.383315 3.432970 0
M  V30 25 H -1.947117 -3.378641 3.313469 0
M  V30 26 H -1.715592 -3.637617 0.848108 0
M  V30 27 H -1.062036 -5.020051 1.814139 0
M  V30 28 H 3.865309 -3.025768 -1.554215 0
M  V30 29 H 3.362108 -0.710198 -1.904635 0
M  V30 30 H 1.897852 1.132664 -1.667420 0
M  V30 31 H -0.447061 1.661320 -2.640500 0
M  V30 32 H -2.286138 3.138380 -2.195487 0
M  V30 33 H -2.727727 3.819532 0.132209 0
M  V30 34 H -1.319869 3.009204 1.962059 0
M  V30 35 H 1.447853 2.237803 3.582921 0
M  V30 END ATOM
M  V30 BEGIN BOND
M  V30 1 1 1 2
M  V30 2 1 2 3
M  V30 3 1 3 4
M  V30 4 1 4 5
M  V30 5 2 5 6
M  V30 6 1 6 7
M  V30 7 2 7 8
M  V30 8 1 8 9
M  V30 9 1 9 10
M  V30 10 1 10 11
M  V30 11 2 11 12
M  V30 12 1 12 13
M  V30 13 2 13 14
M  V30 14 1 14 15
M  V30 15 2 15 16
M  V30 16 1 16 17
M  V30 17 2 17 18
M  V30 18 1 17 19
M  V30 19 2 9 20
M  V30 20 1 20 5
M  V30 21 1 16 11
M  V30 22 1 1 21
M  V30 23 1 1 22
M  V30 24 1 1 23
M  V30 25 1 2 24
M  V30 26 1 2 25
M  V30 27 1 3 26
M  V30 28 1 3 27
M  V30 29 1 7 28
M  V30 30 1 8 29
M  V30 31 1 10 30
M  V30 32 1 12 31
M  V30 33 1 13 32
M  V30 34 1 14 33
M  V30 35 1 15 34
M  V30 36 1 19 35
M  V30 END BOND
M  V30 END CTAB
M  END
>  <Dataset>  (714) 
ChEMBL_Kinases

>  <Ligand_Instance>  (714) 
nan

>  <PDB_ID>  (714) 
nan

>  <Standardized_SMILES>  (714) 
CCCOc1nccc(Nc2ccccc2C(=O)O)n1

>  <Name>  (714) 
nan

>  <Pocket>  (714) 
nan

>  <ATP_Site>  (714) 
nan

>  <Peripheral>  (714) 
nan

>  <Num_H_Atoms_ProtBoundConf>  (714) 
nan

>  <Num_Resolved_Atoms>  (714) 
nan

>  <Num_Not_Resolved_Atoms>  (714) 
nan

$$$$
CHEMBL242521
     RDKit          3D

  0  0  0  0  0  0  0  0  0  0999 V3000
M  V30 BEGIN CTAB
M  V30 COUNTS 55 59 0 0 0
M  V30 BEGIN ATOM
M  V30 1 O 3.994718 4.573529 6.726011 0
M  V30 2 C 3.183590 5.119901 5.946706 0
M  V30 3 O 2.668804 6.312635 6.423689 0
M  V30 4 C 2.848140 4.509637 4.664043 0
M  V30 5 C 3.478094 3.313676 4.382838 0
M  V30 6 C 3.153749 2.731967 3.152272 0
M  V30 7 C 2.251647 3.333021 2.278268 0
M  V30 8 C 1.941992 2.676983 0.987739 0
M  V30 9 N 1.885454 3.331870 -0.186701 0
M  V30 10 N 1.585996 2.476372 -1.166967 0
M  V30 11 C 1.438017 1.237408 -0.662244 0
M  V30 12 C 1.659037 1.345544 0.695380 0
M  V30 13 C 1.527131 0.040825 1.387847 0
M  V30 14 C 1.194503 -0.896909 0.284126 0
M  V30 15 C 0.942703 -2.252798 0.231501 0
M  V30 16 C 0.641542 -2.957609 -0.942639 0
M  V30 17 C 0.443796 -4.404612 -0.751576 0
M  V30 18 N -0.870532 -4.743093 -0.377201 0
M  V30 19 C -1.950326 -4.463862 -1.267211 0 CFG=1
M  V30 20 C -3.152096 -5.231318 -0.679921 0
M  V30 21 C -4.357488 -5.160843 -1.568562 0
M  V30 22 C -4.768973 -3.718720 -1.763626 0 CFG=2
M  V30 23 O -4.775869 -3.355300 -3.106656 0
M  V30 24 C -3.847491 -2.818664 -0.983175 0
M  V30 25 C -2.380777 -3.035144 -1.321389 0
M  V30 26 C 0.609810 -2.188158 -2.088837 0
M  V30 27 C 0.856959 -0.833369 -2.066205 0
M  V30 28 C 1.149788 -0.175722 -0.891038 0
M  V30 29 C 1.649779 4.530670 2.610115 0
M  V30 30 C 1.948987 5.139132 3.827817 0
M  V30 31 H 2.344737 6.463073 7.378991 0
M  V30 32 H 4.179194 2.854591 5.071339 0
M  V30 33 H 3.614865 1.808392 2.891138 0
M  V30 34 H 1.476982 2.709732 -2.184006 0
M  V30 35 H 2.535434 -0.249547 1.749626 0
M  V30 36 H 0.771040 0.051280 2.185917 0
M  V30 37 H 0.997119 -2.757265 1.209438 0
M  V30 38 H 1.126723 -4.778967 0.057647 0
M  V30 39 H 0.787383 -4.928120 -1.687291 0
M  V30 40 H -0.999655 -5.537510 0.267413 0
M  V30 41 H -1.702439 -4.854833 -2.271093 0
M  V30 42 H -3.338018 -4.799675 0.309289 0
M  V30 43 H -2.776751 -6.253280 -0.530325 0
M  V30 44 H -4.200673 -5.688127 -2.509326 0
M  V30 45 H -5.180103 -5.681945 -1.042611 0
M  V30 46 H -5.782299 -3.558612 -1.353610 0
M  V30 47 H -4.355368 -2.479198 -3.190565 0
M  V30 48 H -4.055779 -2.922960 0.096149 0
M  V30 49 H -4.090148 -1.778667 -1.305506 0
M  V30 50 H -2.179844 -2.574115 -2.333265 0
M  V30 51 H -1.805198 -2.436743 -0.591993 0
M  V30 52 H 0.370494 -2.787195 -2.974694 0
M  V30 53 H 0.811711 -0.310897 -3.004095 0
M  V30 54 H 0.944345 5.022044 1.951179 0
M  V30 55 H 1.500646 6.090559 4.143098 0
M  V30 END ATOM
M  V30 BEGIN BOND
M  V30 1 2 1 2
M  V30 2 1 2 3
M  V30 3 1 2 4
M  V30 4 2 4 5
M  V30 5 1 5 6
M  V30 6 2 6 7
M  V30 7 1 7 8
M  V30 8 2 8 9
M  V30 9 1 9 10
M  V30 10 1 10 11
M  V30 11 2 11 12
M  V30 12 1 12 13
M  V30 13 1 13 14
M  V30 14 2 14 15
M  V30 15 1 15 16
M  V30 16 1 16 17
M  V30 17 1 17 18
M  V30 18 1 18 19
M  V30 19 1 19 20
M  V30 20 1 20 21
M  V30 21 1 21 22
M  V30 22 1 22 23
M  V30 23 1 22 24
M  V30 24 1 24 25
M  V30 25 2 16 26
M  V30 26 1 26 27
M  V30 27 2 27 28
M  V30 28 1 7 29
M  V30 29 2 29 30
M  V30 30 1 30 4
M  V30 31 1 12 8
M  V30 32 1 28 14
M  V30 33 1 28 11
M  V30 34 1 25 19
M  V30 35 1 3 31
M  V30 36 1 5 32
M  V30 37 1 6 33
M  V30 38 1 10 34
M  V30 39 1 13 35
M  V30 40 1 13 36
M  V30 41 1 15 37
M  V30 42 1 17 38
M  V30 43 1 17 39
M  V30 44 1 18 40
M  V30 45 1 19 41 CFG=3
M  V30 46 1 20 42
M  V30 47 1 20 43
M  V30 48 1 21 44
M  V30 49 1 21 45
M  V30 50 1 22 46 CFG=1
M  V30 51 1 23 47
M  V30 52 1 24 48
M  V30 53 1 24 49
M  V30 54 1 25 50
M  V30 55 1 25 51
M  V30 56 1 26 52
M  V30 57 1 27 53
M  V30 58 1 29 54
M  V30 59 1 30 55
M  V30 END BOND
M  V30 END CTAB
M  END
>  <Dataset>  (715) 
ChEMBL_Kinases

>  <Ligand_Instance>  (715) 
nan

>  <PDB_ID>  (715) 
nan

>  <Standardized_SMILES>  (715) 
O=C(O)c1ccc(-c2n[nH]c3c2Cc2cc(CN[C@H]4CC[C@H](O)CC4)ccc2-3)cc1

>  <Name>  (715) 
nan

>  <Pocket>  (715) 
nan

>  <ATP_Site>  (715) 
nan

>  <Peripheral>  (715) 
nan

>  <Num_H_Atoms_ProtBoundConf>  (715) 
nan

>  <Num_Resolved_Atoms>  (715) 
nan

>  <Num_Not_Resolved_Atoms>  (715) 
nan

$$$$
CHEMBL242522
     RDKit          3D

  0  0  0  0  0  0  0  0  0  0999 V3000
M  V30 BEGIN CTAB
M  V30 COUNTS 53 56 0 0 0
M  V30 BEGIN ATOM
M  V30 1 C 4.046365 -2.037464 3.267718 0
M  V30 2 C 3.078051 -1.541200 4.337151 0
M  V30 3 C 2.040963 -2.609208 4.542947 0
M  V30 4 C 3.795667 -1.184623 5.604252 0
M  V30 5 C 2.370867 -0.315470 3.770988 0
M  V30 6 N 3.310344 0.711492 3.450593 0
M  V30 7 C 2.621464 1.871121 2.926233 0
M  V30 8 C 1.898779 1.450967 1.698591 0
M  V30 9 C 2.636464 1.557649 0.513757 0
M  V30 10 C 2.164766 1.227706 -0.739495 0
M  V30 11 C 0.869853 0.759330 -0.819245 0
M  V30 12 C 0.114374 0.641521 0.328544 0
M  V30 13 C 0.620959 0.980946 1.559756 0
M  V30 14 C -1.245156 0.115059 -0.021423 0
M  V30 15 C -1.167738 -0.047332 -1.480879 0
M  V30 16 C -1.849154 -0.435830 -2.615071 0
M  V30 17 C -3.214337 -0.934124 -2.733685 0
M  V30 18 C -3.387229 -2.048056 -3.551441 0
M  V30 19 C -4.632210 -2.625703 -3.753760 0
M  V30 20 C -5.742366 -2.077284 -3.121753 0
M  V30 21 C -7.090058 -2.614521 -3.273478 0
M  V30 22 O -8.131697 -2.159807 -2.726037 0
M  V30 23 O -7.321857 -3.723286 -4.076156 0
M  V30 24 C -5.542023 -0.973972 -2.317389 0
M  V30 25 C -4.314716 -0.382307 -2.100958 0
M  V30 26 N -1.053272 -0.294175 -3.689726 0
M  V30 27 N 0.138565 0.178456 -3.296248 0
M  V30 28 C 0.069397 0.327974 -1.958755 0
M  V30 29 H 3.431232 -2.407522 2.425117 0
M  V30 30 H 4.571115 -2.928877 3.703700 0
M  V30 31 H 4.754284 -1.237684 2.976478 0
M  V30 32 H 1.810939 -3.166567 3.615928 0
M  V30 33 H 2.392237 -3.301670 5.336246 0
M  V30 34 H 1.053718 -2.196485 4.903803 0
M  V30 35 H 4.777447 -0.764269 5.308329 0
M  V30 36 H 3.172478 -0.458634 6.161967 0
M  V30 37 H 3.983567 -2.088360 6.202993 0
M  V30 38 H 1.596922 0.072140 4.442209 0
M  V30 39 H 1.859662 -0.688536 2.856022 0
M  V30 40 H 3.918631 0.931236 4.257908 0
M  V30 41 H 3.345469 2.672404 2.692744 0
M  V30 42 H 1.870607 2.239142 3.664179 0
M  V30 43 H 3.674720 1.925944 0.522594 0
M  V30 44 H 2.770326 1.327519 -1.617955 0
M  V30 45 H 0.080784 0.914031 2.513574 0
M  V30 46 H -2.050148 0.791582 0.326872 0
M  V30 47 H -1.385236 -0.917267 0.399829 0
M  V30 48 H -2.589795 -2.565735 -4.100023 0
M  V30 49 H -4.791484 -3.490817 -4.383997 0
M  V30 50 H -8.157016 -3.831632 -4.664186 0
M  V30 51 H -6.390950 -0.526263 -1.812467 0
M  V30 52 H -4.154098 0.477495 -1.474966 0
M  V30 53 H 0.955591 0.386981 -3.914325 0
M  V30 END ATOM
M  V30 BEGIN BOND
M  V30 1 1 1 2
M  V30 2 1 2 3
M  V30 3 1 2 4
M  V30 4 1 2 5
M  V30 5 1 5 6
M  V30 6 1 6 7
M  V30 7 1 7 8
M  V30 8 2 8 9
M  V30 9 1 9 10
M  V30 10 2 10 11
M  V30 11 1 11 12
M  V30 12 2 12 13
M  V30 13 1 12 14
M  V30 14 1 14 15
M  V30 15 1 15 16
M  V30 16 1 16 17
M  V30 17 2 17 18
M  V30 18 1 18 19
M  V30 19 2 19 20
M  V30 20 1 20 21
M  V30 21 2 21 22
M  V30 22 1 21 23
M  V30 23 1 20 24
M  V30 24 2 24 25
M  V30 25 2 16 26
M  V30 26 1 26 27
M  V30 27 1 27 28
M  V30 28 1 13 8
M  V30 29 2 28 15
M  V30 30 1 28 11
M  V30 31 1 25 17
M  V30 32 1 1 29
M  V30 33 1 1 30
M  V30 34 1 1 31
M  V30 35 1 3 32
M  V30 36 1 3 33
M  V30 37 1 3 34
M  V30 38 1 4 35
M  V30 39 1 4 36
M  V30 40 1 4 37
M  V30 41 1 5 38
M  V30 42 1 5 39
M  V30 43 1 6 40
M  V30 44 1 7 41
M  V30 45 1 7 42
M  V30 46 1 9 43
M  V30 47 1 10 44
M  V30 48 1 13 45
M  V30 49 1 14 46
M  V30 50 1 14 47
M  V30 51 1 18 48
M  V30 52 1 19 49
M  V30 53 1 23 50
M  V30 54 1 24 51
M  V30 55 1 25 52
M  V30 56 1 27 53
M  V30 END BOND
M  V30 END CTAB
M  END
>  <Dataset>  (716) 
ChEMBL_Kinases

>  <Ligand_Instance>  (716) 
nan

>  <PDB_ID>  (716) 
nan

>  <Standardized_SMILES>  (716) 
CC(C)(C)CNCc1ccc2c(c1)Cc1c(-c3ccc(C(=O)O)cc3)n[nH]c1-2

>  <Name>  (716) 
nan

>  <Pocket>  (716) 
nan

>  <ATP_Site>  (716) 
nan

>  <Peripheral>  (716) 
nan

>  <Num_H_Atoms_ProtBoundConf>  (716) 
nan

>  <Num_Resolved_Atoms>  (716) 
nan

>  <Num_Not_Resolved_Atoms>  (716) 
nan

$$$$
CHEMBL242523
     RDKit          3D

  0  0  0  0  0  0  0  0  0  0999 V3000
M  V30 BEGIN CTAB
M  V30 COUNTS 54 58 0 0 0
M  V30 BEGIN ATOM
M  V30 1 O 9.140008 -2.222283 -4.379841 0
M  V30 2 C 8.493450 -2.596513 -3.374565 0
M  V30 3 O 9.084461 -3.828312 -3.127393 0
M  V30 4 C 7.429517 -1.926261 -2.673136 0
M  V30 5 C 6.786102 -2.438502 -1.569479 0
M  V30 6 C 5.779503 -1.700399 -0.983052 0
M  V30 7 C 5.401113 -0.465335 -1.471814 0
M  V30 8 C 4.344959 0.374930 -0.906266 0
M  V30 9 N 4.494860 1.698841 -0.709751 0
M  V30 10 N 3.396918 2.224661 -0.189000 0
M  V30 11 C 2.502168 1.228826 -0.037741 0
M  V30 12 C 3.072369 0.040465 -0.483682 0
M  V30 13 C 2.142703 -1.112518 -0.349221 0
M  V30 14 C 0.921289 -0.457861 0.242696 0
M  V30 15 C -0.312547 -1.015340 0.606761 0
M  V30 16 C -1.319588 -0.211912 1.145312 0
M  V30 17 C -2.574269 -0.865685 1.498734 0
M  V30 18 O -2.657226 -2.104416 1.293331 0
M  V30 19 N -3.673131 -0.183961 2.048330 0
M  V30 20 C -4.900167 -0.870516 2.385062 0 CFG=1
M  V30 21 C -5.341899 -0.692038 3.788965 0
M  V30 22 C -6.849569 -0.441605 3.890072 0
M  V30 23 C -7.474342 -1.531128 3.046581 0 CFG=2
M  V30 24 O -6.740398 -2.709850 3.275181 0
M  V30 25 C -7.276773 -1.143862 1.601536 0
M  V30 26 C -6.009056 -0.332399 1.494136 0
M  V30 27 C -1.098636 1.139035 1.320148 0
M  V30 28 C 0.124183 1.684855 0.958064 0
M  V30 29 C 1.132937 0.900289 0.422450 0
M  V30 30 C 6.062684 0.027418 -2.581432 0
M  V30 31 C 7.085562 -0.696761 -3.196528 0
M  V30 32 H 9.051773 -4.617140 -3.760002 0
M  V30 33 H 7.079067 -3.403975 -1.184287 0
M  V30 34 H 5.254248 -2.072341 -0.116406 0
M  V30 35 H 3.215388 3.221445 0.071529 0
M  V30 36 H 2.481444 -1.895660 0.326516 0
M  V30 37 H 1.883174 -1.534306 -1.357554 0
M  V30 38 H -0.426580 -2.081592 0.445811 0
M  V30 39 H -3.628200 0.843639 2.227778 0
M  V30 40 H -4.844934 -1.952694 2.156257 0
M  V30 41 H -4.774801 0.067423 4.359191 0
M  V30 42 H -5.163193 -1.640368 4.333938 0
M  V30 43 H -7.104087 -0.677527 4.947469 0
M  V30 44 H -7.142310 0.566419 3.592309 0
M  V30 45 H -8.545721 -1.684066 3.296280 0
M  V30 46 H -7.122969 -3.500058 2.843153 0
M  V30 47 H -7.172757 -2.025974 0.940036 0
M  V30 48 H -8.169296 -0.528694 1.334559 0
M  V30 49 H -6.251008 0.723019 1.771874 0
M  V30 50 H -5.669258 -0.390065 0.427989 0
M  V30 51 H -1.876386 1.763339 1.736852 0
M  V30 52 H 0.302360 2.758621 1.096072 0
M  V30 53 H 5.790238 1.002484 -2.996903 0
M  V30 54 H 7.557580 -0.237247 -4.068217 0
M  V30 END ATOM
M  V30 BEGIN BOND
M  V30 1 2 1 2
M  V30 2 1 2 3
M  V30 3 1 2 4
M  V30 4 2 4 5
M  V30 5 1 5 6
M  V30 6 2 6 7
M  V30 7 1 7 8
M  V30 8 2 8 9
M  V30 9 1 9 10
M  V30 10 1 10 11
M  V30 11 2 11 12
M  V30 12 1 12 13
M  V30 13 1 13 14
M  V30 14 2 14 15
M  V30 15 1 15 16
M  V30 16 1 16 17
M  V30 17 2 17 18
M  V30 18 1 17 19
M  V30 19 1 19 20
M  V30 20 1 20 21
M  V30 21 1 21 22
M  V30 22 1 22 23
M  V30 23 1 23 24
M  V30 24 1 23 25
M  V30 25 1 25 26
M  V30 26 2 16 27
M  V30 27 1 27 28
M  V30 28 2 28 29
M  V30 29 1 7 30
M  V30 30 2 30 31
M  V30 31 1 31 4
M  V30 32 1 12 8
M  V30 33 1 29 14
M  V30 34 1 29 11
M  V30 35 1 26 20
M  V30 36 1 3 32
M  V30 37 1 5 33
M  V30 38 1 6 34
M  V30 39 1 10 35
M  V30 40 1 13 36
M  V30 41 1 13 37
M  V30 42 1 15 38
M  V30 43 1 19 39
M  V30 44 1 20 40 CFG=3
M  V30 45 1 21 41
M  V30 46 1 21 42
M  V30 47 1 22 43
M  V30 48 1 22 44
M  V30 49 1 23 45 CFG=1
M  V30 50 1 24 46
M  V30 51 1 25 47
M  V30 52 1 25 48
M  V30 53 1 26 49
M  V30 54 1 26 50
M  V30 55 1 27 51
M  V30 56 1 28 52
M  V30 57 1 30 53
M  V30 58 1 31 54
M  V30 END BOND
M  V30 END CTAB
M  END
>  <Dataset>  (717) 
ChEMBL_Kinases

>  <Ligand_Instance>  (717) 
nan

>  <PDB_ID>  (717) 
nan

>  <Standardized_SMILES>  (717) 
O=C(O)c1ccc(-c2n[nH]c3c2Cc2cc(C(=O)N[C@H]4CC[C@H](O)CC4)ccc2-3)cc1

>  <Name>  (717) 
nan

>  <Pocket>  (717) 
nan

>  <ATP_Site>  (717) 
nan

>  <Peripheral>  (717) 
nan

>  <Num_H_Atoms_ProtBoundConf>  (717) 
nan

>  <Num_Resolved_Atoms>  (717) 
nan

>  <Num_Not_Resolved_Atoms>  (717) 
nan

$$$$
CHEMBL242535
     RDKit          3D

  0  0  0  0  0  0  0  0  0  0999 V3000
M  V30 BEGIN CTAB
M  V30 COUNTS 63 68 0 0 0
M  V30 BEGIN ATOM
M  V30 1 O 4.699493 -1.960340 9.102005 0
M  V30 2 C 4.385813 -1.688579 7.775392 0
M  V30 3 C 3.966061 -2.785050 7.017680 0
M  V30 4 C 3.625903 -2.645054 5.686762 0
M  V30 5 C 3.690758 -1.416481 5.065593 0
M  V30 6 C 3.365959 -1.111875 3.675033 0
M  V30 7 C 2.857009 0.117336 3.292025 0
M  V30 8 C 2.552088 0.399070 1.973807 0
M  V30 9 C 2.761223 -0.568437 1.024057 0
M  V30 10 C 2.428172 -0.233717 -0.355566 0
M  V30 11 N 3.333913 -0.584503 -1.309813 0
M  V30 12 N 2.855941 -0.198032 -2.497927 0
M  V30 13 C 1.659155 0.397759 -2.348506 0
M  V30 14 C 1.379619 0.379807 -0.993716 0
M  V30 15 C 0.104087 0.994035 -0.661114 0
M  V30 16 C -0.423825 1.422413 -1.981822 0
M  V30 17 C -1.564427 2.060716 -2.427583 0
M  V30 18 C -1.831459 2.357531 -3.768644 0
M  V30 19 C -3.114229 3.066078 -3.950430 0
M  V30 20 N -4.282575 2.279938 -4.065892 0
M  V30 21 C -4.375866 1.347815 -5.141644 0 CFG=1
M  V30 22 C -3.455847 0.177718 -5.070290 0
M  V30 23 C -4.207988 -1.144192 -5.184333 0
M  V30 24 C -5.299243 -1.147140 -4.142150 0 CFG=2
M  V30 25 O -5.889056 -2.405910 -4.150903 0
M  V30 26 C -6.327904 -0.131911 -4.531733 0
M  V30 27 C -5.810072 0.942885 -5.432829 0
M  V30 28 C -0.860360 1.969757 -4.694930 0
M  V30 29 C 0.287758 1.331570 -4.282325 0
M  V30 30 C 0.505744 1.060680 -2.948168 0
M  V30 31 C 3.268791 -1.808033 1.373372 0
M  V30 32 C 3.577394 -2.092585 2.708888 0
M  V30 33 C 4.111956 -0.331218 5.836349 0
M  V30 34 C 4.455928 -0.451608 7.167443 0
M  V30 35 H 4.472370 -1.332690 9.868149 0
M  V30 36 H 3.874878 -3.793685 7.390038 0
M  V30 37 H 3.294191 -3.439338 5.037886 0
M  V30 38 H 2.700625 0.869298 4.070449 0
M  V30 39 H 2.162551 1.377864 1.771585 0
M  V30 40 H 3.325440 -0.327677 -3.431177 0
M  V30 41 H -0.666588 0.269216 -0.266411 0
M  V30 42 H 0.136309 1.798352 0.082854 0
M  V30 43 H -2.244119 2.310816 -1.600147 0
M  V30 44 H -3.208782 3.861521 -3.147814 0
M  V30 45 H -3.078168 3.709245 -4.892546 0
M  V30 46 H -4.474521 1.799250 -3.172639 0
M  V30 47 H -4.068311 1.918110 -6.074395 0
M  V30 48 H -2.982468 0.160393 -4.087521 0
M  V30 49 H -2.710114 0.153799 -5.880005 0
M  V30 50 H -4.654752 -1.197637 -6.178545 0
M  V30 51 H -3.490687 -1.972144 -5.037656 0
M  V30 52 H -4.858863 -0.935773 -3.146090 0
M  V30 53 H -6.319663 -2.630398 -3.310459 0
M  V30 54 H -7.163161 -0.639733 -5.069696 0
M  V30 55 H -6.821299 0.287744 -3.612086 0
M  V30 56 H -5.935665 0.728336 -6.507990 0
M  V30 57 H -6.415753 1.869058 -5.227194 0
M  V30 58 H -1.163029 2.245310 -5.703387 0
M  V30 59 H 0.968483 1.079112 -5.095146 0
M  V30 60 H 3.432797 -2.572166 0.615293 0
M  V30 61 H 3.972684 -3.053850 2.990267 0
M  V30 62 H 4.205173 0.697425 5.457277 0
M  V30 63 H 4.782737 0.375338 7.776048 0
M  V30 END ATOM
M  V30 BEGIN BOND
M  V30 1 1 1 2
M  V30 2 2 2 3
M  V30 3 1 3 4
M  V30 4 2 4 5
M  V30 5 1 5 6
M  V30 6 2 6 7
M  V30 7 1 7 8
M  V30 8 2 8 9
M  V30 9 1 9 10
M  V30 10 2 10 11
M  V30 11 1 11 12
M  V30 12 1 12 13
M  V30 13 2 13 14
M  V30 14 1 14 15
M  V30 15 1 15 16
M  V30 16 2 16 17
M  V30 17 1 17 18
M  V30 18 1 18 19
M  V30 19 1 19 20
M  V30 20 1 20 21
M  V30 21 1 21 22
M  V30 22 1 22 23
M  V30 23 1 23 24
M  V30 24 1 24 25
M  V30 25 1 24 26
M  V30 26 1 26 27
M  V30 27 2 18 28
M  V30 28 1 28 29
M  V30 29 2 29 30
M  V30 30 1 9 31
M  V30 31 2 31 32
M  V30 32 1 5 33
M  V30 33 2 33 34
M  V30 34 1 34 2
M  V30 35 1 32 6
M  V30 36 1 14 10
M  V30 37 1 30 16
M  V30 38 1 30 13
M  V30 39 1 27 21
M  V30 40 1 1 35
M  V30 41 1 3 36
M  V30 42 1 4 37
M  V30 43 1 7 38
M  V30 44 1 8 39
M  V30 45 1 12 40
M  V30 46 1 15 41
M  V30 47 1 15 42
M  V30 48 1 17 43
M  V30 49 1 19 44
M  V30 50 1 19 45
M  V30 51 1 20 46
M  V30 52 1 21 47 CFG=3
M  V30 53 1 22 48
M  V30 54 1 22 49
M  V30 55 1 23 50
M  V30 56 1 23 51
M  V30 57 1 24 52 CFG=1
M  V30 58 1 25 53
M  V30 59 1 26 54
M  V30 60 1 26 55
M  V30 61 1 27 56
M  V30 62 1 27 57
M  V30 63 1 28 58
M  V30 64 1 29 59
M  V30 65 1 31 60
M  V30 66 1 32 61
M  V30 67 1 33 62
M  V30 68 1 34 63
M  V30 END BOND
M  V30 END CTAB
M  END
>  <Dataset>  (718) 
ChEMBL_Kinases

>  <Ligand_Instance>  (718) 
nan

>  <PDB_ID>  (718) 
nan

>  <Standardized_SMILES>  (718) 
Oc1ccc(-c2ccc(-c3n[nH]c4c3Cc3cc(CN[C@H]5CC[C@H](O)CC5)ccc3-4)cc2)cc1

>  <Name>  (718) 
nan

>  <Pocket>  (718) 
nan

>  <ATP_Site>  (718) 
nan

>  <Peripheral>  (718) 
nan

>  <Num_H_Atoms_ProtBoundConf>  (718) 
nan

>  <Num_Resolved_Atoms>  (718) 
nan

>  <Num_Not_Resolved_Atoms>  (718) 
nan

$$$$
CHEMBL242536
     RDKit          3D

  0  0  0  0  0  0  0  0  0  0999 V3000
M  V30 BEGIN CTAB
M  V30 COUNTS 60 65 0 0 0
M  V30 BEGIN ATOM
M  V30 1 C 4.733592 0.113162 6.242570 0
M  V30 2 C 4.820081 0.995086 5.046544 0
M  V30 3 C 5.412486 0.507939 3.897462 0
M  V30 4 N 5.472152 1.321993 2.852555 0
M  V30 5 C 5.004758 2.580823 2.817604 0
M  V30 6 C 5.151623 3.366620 1.556182 0
M  V30 7 N 3.982565 3.129709 0.764710 0
M  V30 8 C 2.740316 3.518444 1.350670 0
M  V30 9 C 1.668176 3.165920 0.358812 0
M  V30 10 C 1.216765 4.003477 -0.639408 0
M  V30 11 C 0.223900 3.601332 -1.510335 0
M  V30 12 C -0.349558 2.343845 -1.408215 0
M  V30 13 C 0.129197 1.535848 -0.396802 0
M  V30 14 C 1.118450 1.886549 0.500311 0
M  V30 15 C -0.594900 0.219225 -0.424493 0
M  V30 16 C -1.545464 0.338762 -1.559751 0
M  V30 17 C -2.530554 -0.287636 -2.292212 0
M  V30 18 C -2.962258 -1.653235 -1.969470 0
M  V30 19 C -4.307896 -2.032124 -1.916576 0
M  V30 20 C -4.639775 -3.350028 -1.600697 0
M  V30 21 C -3.664500 -4.302217 -1.335509 0
M  V30 22 C -4.018046 -5.678393 -1.005776 0
M  V30 23 C -5.196237 -5.944287 -0.320344 0
M  V30 24 C -5.577414 -7.227770 0.016200 0
M  V30 25 C -4.787852 -8.310770 -0.322158 0
M  V30 26 O -5.197391 -9.589937 0.029973 0
M  V30 27 C -3.599997 -8.045784 -1.012904 0
M  V30 28 C -3.219634 -6.759898 -1.349305 0
M  V30 29 C -2.341448 -3.951880 -1.382064 0
M  V30 30 C -2.021553 -2.627336 -1.699957 0
M  V30 31 N -2.945202 0.566267 -3.260529 0
M  V30 32 N -2.257930 1.703700 -3.163136 0
M  V30 33 C -1.384776 1.608156 -2.129753 0
M  V30 34 C 4.412495 3.055623 3.979477 0
M  V30 35 N 4.336534 2.243304 5.068550 0
M  V30 36 H 5.215724 -0.850999 6.043677 0
M  V30 37 H 5.217216 0.609392 7.115901 0
M  V30 38 H 3.668577 -0.110416 6.524434 0
M  V30 39 H 5.826987 -0.488285 3.797362 0
M  V30 40 H 6.013140 2.948109 0.997851 0
M  V30 41 H 5.342359 4.441871 1.747327 0
M  V30 42 H 3.995187 2.259328 0.228858 0
M  V30 43 H 2.579107 2.986409 2.307206 0
M  V30 44 H 2.665391 4.597019 1.509394 0
M  V30 45 H 1.679901 4.976992 -0.696727 0
M  V30 46 H -0.121564 4.271238 -2.291900 0
M  V30 47 H 1.466295 1.225796 1.278451 0
M  V30 48 H 0.087150 -0.625453 -0.508211 0
M  V30 49 H -1.201330 0.083897 0.494106 0
M  V30 50 H -5.066718 -1.277390 -2.126758 0
M  V30 51 H -5.684383 -3.639993 -1.560644 0
M  V30 52 H -5.809328 -5.091674 -0.058973 0
M  V30 53 H -6.511609 -7.348341 0.550948 0
M  V30 54 H -4.527535 -10.366872 -0.026573 0
M  V30 55 H -3.010326 -8.902507 -1.261322 0
M  V30 56 H -2.296620 -6.570152 -1.884468 0
M  V30 57 H -1.578837 -4.688220 -1.176897 0
M  V30 58 H -0.949674 -2.422896 -1.717350 0
M  V30 59 H -2.359038 2.537621 -3.768749 0
M  V30 60 H 4.035899 4.056073 3.965700 0
M  V30 END ATOM
M  V30 BEGIN BOND
M  V30 1 1 1 2
M  V30 2 2 2 3
M  V30 3 1 3 4
M  V30 4 2 4 5
M  V30 5 1 5 6
M  V30 6 1 6 7
M  V30 7 1 7 8
M  V30 8 1 8 9
M  V30 9 2 9 10
M  V30 10 1 10 11
M  V30 11 2 11 12
M  V30 12 1 12 13
M  V30 13 2 13 14
M  V30 14 1 13 15
M  V30 15 1 15 16
M  V30 16 1 16 17
M  V30 17 1 17 18
M  V30 18 2 18 19
M  V30 19 1 19 20
M  V30 20 2 20 21
M  V30 21 1 21 22
M  V30 22 2 22 23
M  V30 23 1 23 24
M  V30 24 2 24 25
M  V30 25 1 25 26
M  V30 26 1 25 27
M  V30 27 2 27 28
M  V30 28 1 21 29
M  V30 29 2 29 30
M  V30 30 2 17 31
M  V30 31 1 31 32
M  V30 32 1 32 33
M  V30 33 1 5 34
M  V30 34 2 34 35
M  V30 35 1 35 2
M  V30 36 1 14 9
M  V30 37 2 33 16
M  V30 38 1 33 12
M  V30 39 1 30 18
M  V30 40 1 28 22
M  V30 41 1 1 36
M  V30 42 1 1 37
M  V30 43 1 1 38
M  V30 44 1 3 39
M  V30 45 1 6 40
M  V30 46 1 6 41
M  V30 47 1 7 42
M  V30 48 1 8 43
M  V30 49 1 8 44
M  V30 50 1 10 45
M  V30 51 1 11 46
M  V30 52 1 14 47
M  V30 53 1 15 48
M  V30 54 1 15 49
M  V30 55 1 19 50
M  V30 56 1 20 51
M  V30 57 1 23 52
M  V30 58 1 24 53
M  V30 59 1 26 54
M  V30 60 1 27 55
M  V30 61 1 28 56
M  V30 62 1 29 57
M  V30 63 1 30 58
M  V30 64 1 32 59
M  V30 65 1 34 60
M  V30 END BOND
M  V30 END CTAB
M  END
>  <Dataset>  (719) 
ChEMBL_Kinases

>  <Ligand_Instance>  (719) 
nan

>  <PDB_ID>  (719) 
nan

>  <Standardized_SMILES>  (719) 
Cc1cnc(CNCc2ccc3c(c2)Cc2c(-c4ccc(-c5ccc(O)cc5)cc4)n[nH]c2-3)cn1

>  <Name>  (719) 
nan

>  <Pocket>  (719) 
nan

>  <ATP_Site>  (719) 
nan

>  <Peripheral>  (719) 
nan

>  <Num_H_Atoms_ProtBoundConf>  (719) 
nan

>  <Num_Resolved_Atoms>  (719) 
nan

>  <Num_Not_Resolved_Atoms>  (719) 
nan

$$$$
CHEMBL2426388
     RDKit          3D

  0  0  0  0  0  0  0  0  0  0999 V3000
M  V30 BEGIN CTAB
M  V30 COUNTS 47 50 0 0 0
M  V30 BEGIN ATOM
M  V30 1 O -1.071534 1.489941 2.909902 0
M  V30 2 C -0.391478 0.793386 2.121377 0
M  V30 3 N 0.949783 1.274751 2.120113 0
M  V30 4 C 1.329254 2.379773 2.932974 0
M  V30 5 S 0.297975 3.171618 3.913709 0
M  V30 6 N 2.668465 2.853522 2.917629 0
M  V30 7 C 3.403842 2.033628 1.998253 0
M  V30 8 C 3.337680 2.559322 0.717089 0
M  V30 9 C 3.975621 1.943258 -0.363164 0
M  V30 10 C 4.690732 0.773594 -0.128165 0
M  V30 11 F 5.338669 0.121547 -1.136806 0
M  V30 12 C 4.741530 0.270705 1.154303 0
M  V30 13 C 4.111515 0.879937 2.218479 0
M  V30 14 C -0.768415 -0.337076 1.287755 0
M  V30 15 C 0.085603 -1.003774 0.440744 0
M  V30 16 N -0.668299 -1.959427 -0.139472 0
M  V30 17 C -0.077824 -2.849206 -1.091862 0
M  V30 18 C -0.291012 -2.919316 -2.452130 0
M  V30 19 C 0.387051 -3.861217 -3.197217 0
M  V30 20 C 1.284496 -4.754989 -2.648418 0
M  V30 21 C 1.498415 -4.680754 -1.267215 0
M  V30 22 C 0.827030 -3.742980 -0.505731 0
M  V30 23 N -1.916231 -1.904543 0.308173 0
M  V30 24 C -2.021630 -0.894313 1.211198 0
M  V30 25 C -3.269050 -0.568575 1.879338 0
M  V30 26 C -4.358225 -0.466907 1.005541 0
M  V30 27 C -5.648742 -0.177126 1.406825 0
M  V30 28 C -5.852571 0.020197 2.754004 0
M  V30 29 Cl -7.495358 0.392843 3.287548 0
M  V30 30 C -4.811303 -0.070057 3.652231 0
M  V30 31 C -3.538522 -0.361235 3.212358 0
M  V30 32 H 1.697277 0.822154 1.514143 0
M  V30 33 H 3.021961 3.638716 3.470997 0
M  V30 34 H 2.807872 3.470649 0.407350 0
M  V30 35 H 3.945250 2.325787 -1.375730 0
M  V30 36 H 5.279076 -0.636131 1.411183 0
M  V30 37 H 4.093036 0.568486 3.250460 0
M  V30 38 H 1.141980 -0.763990 0.308979 0
M  V30 39 H -0.996961 -2.199512 -2.817170 0
M  V30 40 H 0.189145 -3.883962 -4.271203 0
M  V30 41 H 1.805371 -5.487038 -3.254882 0
M  V30 42 H 2.192709 -5.361826 -0.795312 0
M  V30 43 H 1.053238 -3.753653 0.572388 0
M  V30 44 H -4.266175 -0.612251 -0.080300 0
M  V30 45 H -6.471941 -0.104502 0.710443 0
M  V30 46 H -4.974006 0.084752 4.698122 0
M  V30 47 H -2.675210 -0.458480 3.852766 0
M  V30 END ATOM
M  V30 BEGIN BOND
M  V30 1 2 1 2
M  V30 2 1 2 3
M  V30 3 1 3 4
M  V30 4 2 4 5
M  V30 5 1 4 6
M  V30 6 1 6 7
M  V30 7 2 7 8
M  V30 8 1 8 9
M  V30 9 2 9 10
M  V30 10 1 10 11
M  V30 11 1 10 12
M  V30 12 2 12 13
M  V30 13 1 2 14
M  V30 14 2 14 15
M  V30 15 1 15 16
M  V30 16 1 16 17
M  V30 17 2 17 18
M  V30 18 1 18 19
M  V30 19 2 19 20
M  V30 20 1 20 21
M  V30 21 2 21 22
M  V30 22 1 16 23
M  V30 23 2 23 24
M  V30 24 1 24 25
M  V30 25 2 25 26
M  V30 26 1 26 27
M  V30 27 2 27 28
M  V30 28 1 28 29
M  V30 29 1 28 30
M  V30 30 2 30 31
M  V30 31 1 13 7
M  V30 32 1 24 14
M  V30 33 1 31 25
M  V30 34 1 22 17
M  V30 35 1 3 32
M  V30 36 1 6 33
M  V30 37 1 8 34
M  V30 38 1 9 35
M  V30 39 1 12 36
M  V30 40 1 13 37
M  V30 41 1 15 38
M  V30 42 1 18 39
M  V30 43 1 19 40
M  V30 44 1 20 41
M  V30 45 1 21 42
M  V30 46 1 22 43
M  V30 47 1 26 44
M  V30 48 1 27 45
M  V30 49 1 30 46
M  V30 50 1 31 47
M  V30 END BOND
M  V30 END CTAB
M  END
>  <Dataset>  (720) 
ChEMBL_Kinases

>  <Ligand_Instance>  (720) 
nan

>  <PDB_ID>  (720) 
nan

>  <Standardized_SMILES>  (720) 
O=C(NC(=S)Nc1ccc(F)cc1)c1cn(-c2ccccc2)nc1-c1ccc(Cl)cc1

>  <Name>  (720) 
nan

>  <Pocket>  (720) 
nan

>  <ATP_Site>  (720) 
nan

>  <Peripheral>  (720) 
nan

>  <Num_H_Atoms_ProtBoundConf>  (720) 
nan

>  <Num_Resolved_Atoms>  (720) 
nan

>  <Num_Not_Resolved_Atoms>  (720) 
nan

$$$$
CHEMBL242637
     RDKit          3D

  0  0  0  0  0  0  0  0  0  0999 V3000
M  V30 BEGIN CTAB
M  V30 COUNTS 52 56 0 0 0
M  V30 BEGIN ATOM
M  V30 1 N 0.897173 -7.237110 -1.305697 0
M  V30 2 C 1.314280 -6.280539 -0.807060 0
M  V30 3 C 1.840053 -5.094731 -0.167161 0
M  V30 4 C 2.861124 -5.295009 0.751558 0
M  V30 5 N 3.337483 -4.180419 1.336533 0
M  V30 6 C 2.870822 -2.962940 1.062390 0
M  V30 7 C 3.404658 -1.863644 1.698431 0
M  V30 8 Br 4.800976 -2.111510 2.958009 0
M  V30 9 C 2.891059 -0.625828 1.383480 0
M  V30 10 C 1.888896 -0.360711 0.491020 0
M  V30 11 N 1.372357 0.903994 0.184919 0
M  V30 12 C 1.714085 2.196463 0.704375 0
M  V30 13 C 1.434287 2.394613 2.131768 0
M  V30 14 C 2.013704 2.302502 3.375597 0
M  V30 15 C 1.133046 2.647712 4.365372 0
M  V30 16 N 0.006895 2.953549 3.723763 0
M  V30 17 N 0.158220 2.811890 2.396995 0
M  V30 18 C -1.070837 3.147422 1.719602 0
M  V30 19 C -1.232642 4.444914 1.224527 0
M  V30 20 C -2.427801 4.729257 0.579413 0
M  V30 21 C -3.408854 3.798971 0.426739 0
M  V30 22 C -3.228168 2.525868 0.922649 0
M  V30 23 C -2.051152 2.169387 1.582731 0
M  V30 24 C 1.394560 -1.501065 -0.113998 0
M  V30 25 C 1.860125 -2.758977 0.153751 0
M  V30 26 C 1.311881 -3.854286 -0.495236 0
M  V30 27 N 0.274731 -3.697859 -1.434528 0
M  V30 28 C -1.129494 -3.705613 -1.206077 0
M  V30 29 C -1.561850 -3.885608 0.078544 0
M  V30 30 C -2.948443 -3.882669 0.231576 0
M  V30 31 C -3.785441 -3.707874 -0.859006 0
M  V30 32 F -5.141024 -3.700548 -0.739860 0
M  V30 33 C -3.287265 -3.529900 -2.138013 0
M  V30 34 Cl -4.326222 -3.308542 -3.521700 0
M  V30 35 C -1.911647 -3.527333 -2.327321 0
M  V30 36 H 3.232108 -6.290580 0.965906 0
M  V30 37 H 3.354606 0.194151 1.911264 0
M  V30 38 H 0.599101 0.916499 -0.550793 0
M  V30 39 H 1.331912 2.988840 0.055984 0
M  V30 40 H 2.849212 2.246507 0.620526 0
M  V30 41 H 3.031209 1.991454 3.403791 0
M  V30 42 H 1.421419 2.631044 5.396766 0
M  V30 43 H -0.464374 5.197417 1.336322 0
M  V30 44 H -2.619004 5.707725 0.174053 0
M  V30 45 H -4.341898 4.038619 -0.082609 0
M  V30 46 H -4.015833 1.777038 0.800692 0
M  V30 47 H -1.879956 1.173935 1.984328 0
M  V30 48 H 0.590479 -1.423357 -0.847782 0
M  V30 49 H 0.737306 -3.570709 -2.361151 0
M  V30 50 H -0.877034 -4.018351 0.900618 0
M  V30 51 H -3.371925 -4.019264 1.218346 0
M  V30 52 H -1.482564 -3.391336 -3.310659 0
M  V30 END ATOM
M  V30 BEGIN BOND
M  V30 1 3 1 2
M  V30 2 1 2 3
M  V30 3 2 3 4
M  V30 4 1 4 5
M  V30 5 2 5 6
M  V30 6 1 6 7
M  V30 7 1 7 8
M  V30 8 2 7 9
M  V30 9 1 9 10
M  V30 10 1 10 11
M  V30 11 1 11 12
M  V30 12 1 12 13
M  V30 13 2 13 14
M  V30 14 1 14 15
M  V30 15 2 15 16
M  V30 16 1 16 17
M  V30 17 1 17 18
M  V30 18 2 18 19
M  V30 19 1 19 20
M  V30 20 2 20 21
M  V30 21 1 21 22
M  V30 22 2 22 23
M  V30 23 2 10 24
M  V30 24 1 24 25
M  V30 25 2 25 26
M  V30 26 1 26 27
M  V30 27 1 27 28
M  V30 28 2 28 29
M  V30 29 1 29 30
M  V30 30 2 30 31
M  V30 31 1 31 32
M  V30 32 1 31 33
M  V30 33 1 33 34
M  V30 34 2 33 35
M  V30 35 1 26 3
M  V30 36 1 35 28
M  V30 37 1 25 6
M  V30 38 1 17 13
M  V30 39 1 23 18
M  V30 40 1 4 36
M  V30 41 1 9 37
M  V30 42 1 11 38
M  V30 43 1 12 39
M  V30 44 1 12 40
M  V30 45 1 14 41
M  V30 46 1 15 42
M  V30 47 1 19 43
M  V30 48 1 20 44
M  V30 49 1 21 45
M  V30 50 1 22 46
M  V30 51 1 23 47
M  V30 52 1 24 48
M  V30 53 1 27 49
M  V30 54 1 29 50
M  V30 55 1 30 51
M  V30 56 1 35 52
M  V30 END BOND
M  V30 END CTAB
M  END
>  <Dataset>  (721) 
ChEMBL_Kinases

>  <Ligand_Instance>  (721) 
nan

>  <PDB_ID>  (721) 
nan

>  <Standardized_SMILES>  (721) 
N#Cc1cnc2c(Br)cc(NCc3ccnn3-c3ccccc3)cc2c1Nc1ccc(F)c(Cl)c1

>  <Name>  (721) 
nan

>  <Pocket>  (721) 
nan

>  <ATP_Site>  (721) 
nan

>  <Peripheral>  (721) 
nan

>  <Num_H_Atoms_ProtBoundConf>  (721) 
nan

>  <Num_Resolved_Atoms>  (721) 
nan

>  <Num_Not_Resolved_Atoms>  (721) 
nan

$$$$
CHEMBL242638
     RDKit          3D

  0  0  0  0  0  0  0  0  0  0999 V3000
M  V30 BEGIN CTAB
M  V30 COUNTS 48 52 0 0 0
M  V30 BEGIN ATOM
M  V30 1 N -0.356020 -6.788674 -1.363593 0
M  V30 2 C 0.250456 -5.860119 -1.073626 0
M  V30 3 C 1.032112 -4.703789 -0.714178 0
M  V30 4 C 2.324162 -4.853938 -0.250294 0
M  V30 5 N 3.057550 -3.770228 0.086895 0
M  V30 6 C 2.544837 -2.532001 -0.022689 0
M  V30 7 C 3.312289 -1.440546 0.327367 0
M  V30 8 Cl 4.946182 -1.643448 0.913062 0
M  V30 9 C 2.730077 -0.198936 0.192509 0
M  V30 10 C 1.455441 0.069079 -0.257259 0
M  V30 11 N 0.885826 1.347764 -0.379036 0
M  V30 12 C 1.390453 2.641715 -0.085029 0
M  V30 13 C 1.678748 2.918993 1.336301 0
M  V30 14 C 2.741049 2.851803 2.212261 0
M  V30 15 N 2.366220 3.248029 3.436180 0
M  V30 16 C 1.058750 3.578544 3.376586 0
M  V30 17 C 0.303057 4.031533 4.419780 0
M  V30 18 C -1.017070 4.321401 4.178837 0
M  V30 19 C -1.498389 4.137589 2.899839 0
M  V30 20 C -0.653068 3.675185 1.915252 0
M  V30 21 N 0.644569 3.376858 2.096969 0
M  V30 22 C 0.746448 -1.067786 -0.588921 0
M  V30 23 C 1.260274 -2.330765 -0.480597 0
M  V30 24 C 0.500993 -3.429919 -0.828251 0
M  V30 25 N -0.808351 -3.333429 -1.301894 0
M  V30 26 C -2.012536 -3.339695 -0.545913 0
M  V30 27 C -1.892389 -3.454611 0.826340 0
M  V30 28 C -3.111885 -3.454730 1.513922 0
M  V30 29 C -4.334807 -3.347308 0.855966 0
M  V30 30 F -5.499499 -3.350298 1.548707 0
M  V30 31 C -4.364075 -3.236318 -0.518209 0
M  V30 32 Cl -5.862063 -3.096452 -1.427917 0
M  V30 33 C -3.190429 -3.229573 -1.262998 0
M  V30 34 H 2.773565 -5.831770 -0.147446 0
M  V30 35 H 3.369496 0.623600 0.473069 0
M  V30 36 H -0.104584 1.360537 -0.758061 0
M  V30 37 H 0.812084 3.435246 -0.573498 0
M  V30 38 H 2.407663 2.700753 -0.590175 0
M  V30 39 H 3.693932 2.514762 1.838708 0
M  V30 40 H 0.669541 4.174120 5.404429 0
M  V30 41 H -1.690804 4.680869 4.926233 0
M  V30 42 H -2.518135 4.355959 2.690911 0
M  V30 43 H -1.076761 3.547797 0.930966 0
M  V30 44 H -0.264406 -0.990110 -0.954320 0
M  V30 45 H -0.770313 -3.252220 -2.341943 0
M  V30 46 H -0.942164 -3.534419 1.291703 0
M  V30 47 H -3.073189 -3.543812 2.608261 0
M  V30 48 H -3.170812 -3.144456 -2.340477 0
M  V30 END ATOM
M  V30 BEGIN BOND
M  V30 1 3 1 2
M  V30 2 1 2 3
M  V30 3 2 3 4
M  V30 4 1 4 5
M  V30 5 2 5 6
M  V30 6 1 6 7
M  V30 7 1 7 8
M  V30 8 2 7 9
M  V30 9 1 9 10
M  V30 10 1 10 11
M  V30 11 1 11 12
M  V30 12 1 12 13
M  V30 13 2 13 14
M  V30 14 1 14 15
M  V30 15 2 15 16
M  V30 16 1 16 17
M  V30 17 2 17 18
M  V30 18 1 18 19
M  V30 19 2 19 20
M  V30 20 1 20 21
M  V30 21 2 10 22
M  V30 22 1 22 23
M  V30 23 2 23 24
M  V30 24 1 24 25
M  V30 25 1 25 26
M  V30 26 2 26 27
M  V30 27 1 27 28
M  V30 28 2 28 29
M  V30 29 1 29 30
M  V30 30 1 29 31
M  V30 31 1 31 32
M  V30 32 2 31 33
M  V30 33 1 24 3
M  V30 34 1 33 26
M  V30 35 1 23 6
M  V30 36 1 21 13
M  V30 37 1 21 16
M  V30 38 1 4 34
M  V30 39 1 9 35
M  V30 40 1 11 36
M  V30 41 1 12 37
M  V30 42 1 12 38
M  V30 43 1 14 39
M  V30 44 1 17 40
M  V30 45 1 18 41
M  V30 46 1 19 42
M  V30 47 1 20 43
M  V30 48 1 22 44
M  V30 49 1 25 45
M  V30 50 1 27 46
M  V30 51 1 28 47
M  V30 52 1 33 48
M  V30 END BOND
M  V30 END CTAB
M  END
>  <Dataset>  (722) 
ChEMBL_Kinases

>  <Ligand_Instance>  (722) 
nan

>  <PDB_ID>  (722) 
nan

>  <Standardized_SMILES>  (722) 
N#Cc1cnc2c(Cl)cc(NCc3cnc4ccccn34)cc2c1Nc1ccc(F)c(Cl)c1

>  <Name>  (722) 
nan

>  <Pocket>  (722) 
nan

>  <ATP_Site>  (722) 
nan

>  <Peripheral>  (722) 
nan

>  <Num_H_Atoms_ProtBoundConf>  (722) 
nan

>  <Num_Resolved_Atoms>  (722) 
nan

>  <Num_Not_Resolved_Atoms>  (722) 
nan

$$$$
CHEMBL2426380
     RDKit          3D

  0  0  0  0  0  0  0  0  0  0999 V3000
M  V30 BEGIN CTAB
M  V30 COUNTS 47 50 0 0 0
M  V30 BEGIN ATOM
M  V30 1 O 1.739528 -2.769571 2.846859 0
M  V30 2 C 1.272858 -1.928746 2.034966 0
M  V30 3 N 2.023562 -1.846783 0.810442 0
M  V30 4 C 3.163233 -2.667532 0.618896 0
M  V30 5 S 3.661236 -3.714353 1.749713 0
M  V30 6 N 3.907016 -2.589003 -0.587869 0
M  V30 7 C 3.266914 -1.610626 -1.392116 0
M  V30 8 C 2.261637 -1.744983 -2.314964 0
M  V30 9 C 1.795731 -0.619091 -2.986241 0
M  V30 10 C 2.328364 0.625943 -2.737780 0
M  V30 11 F 1.827038 1.690715 -3.429243 0
M  V30 12 C 3.334371 0.777798 -1.817414 0
M  V30 13 C 3.805223 -0.353172 -1.140409 0
M  V30 14 C 0.126778 -1.031502 2.099962 0
M  V30 15 C 0.414427 0.292923 2.377788 0
M  V30 16 N -0.777933 0.953712 2.390329 0
M  V30 17 C -1.178824 2.302208 2.606736 0
M  V30 18 C -0.695502 3.130568 1.590973 0
M  V30 19 C -0.967321 4.490708 1.600578 0
M  V30 20 C -1.726297 4.973330 2.647300 0
M  V30 21 C -2.216318 4.176409 3.664263 0
M  V30 22 C -1.934539 2.826029 3.635569 0
M  V30 23 N -1.739624 0.070861 2.132404 0
M  V30 24 C -1.215752 -1.145520 1.951651 0
M  V30 25 C -1.844914 -2.423684 1.648647 0
M  V30 26 C -2.816426 -2.427062 0.645250 0
M  V30 27 C -3.518490 -3.556342 0.231031 0
M  V30 28 C -3.228606 -4.747587 0.859683 0
M  V30 29 C -2.277126 -4.787522 1.854432 0
M  V30 30 C -1.600193 -3.648651 2.239669 0
M  V30 31 H 1.740949 -1.178359 0.036492 0
M  V30 32 H 4.750528 -3.172515 -0.772201 0
M  V30 33 H 1.924108 -2.765788 -2.424614 0
M  V30 34 H 0.990416 -0.808566 -3.708894 0
M  V30 35 H 3.735955 1.777259 -1.642995 0
M  V30 36 H 4.609613 -0.103217 -0.431718 0
M  V30 37 H 1.311945 0.900456 2.577204 0
M  V30 38 H -0.093364 2.822079 0.738384 0
M  V30 39 H -0.621618 5.178587 0.845636 0
M  V30 40 H -1.953721 6.042845 2.677416 0
M  V30 41 H -2.813600 4.544589 4.491041 0
M  V30 42 H -2.249450 2.092375 4.357853 0
M  V30 43 H -3.059000 -1.483853 0.133507 0
M  V30 44 H -4.255912 -3.476442 -0.552630 0
M  V30 45 H -3.738096 -5.664345 0.586028 0
M  V30 46 H -2.026133 -5.708497 2.368344 0
M  V30 47 H -0.852586 -3.640352 3.011640 0
M  V30 END ATOM
M  V30 BEGIN BOND
M  V30 1 2 1 2
M  V30 2 1 2 3
M  V30 3 1 3 4
M  V30 4 2 4 5
M  V30 5 1 4 6
M  V30 6 1 6 7
M  V30 7 2 7 8
M  V30 8 1 8 9
M  V30 9 2 9 10
M  V30 10 1 10 11
M  V30 11 1 10 12
M  V30 12 2 12 13
M  V30 13 1 2 14
M  V30 14 2 14 15
M  V30 15 1 15 16
M  V30 16 1 16 17
M  V30 17 2 17 18
M  V30 18 1 18 19
M  V30 19 2 19 20
M  V30 20 1 20 21
M  V30 21 2 21 22
M  V30 22 1 16 23
M  V30 23 2 23 24
M  V30 24 1 24 25
M  V30 25 2 25 26
M  V30 26 1 26 27
M  V30 27 2 27 28
M  V30 28 1 28 29
M  V30 29 2 29 30
M  V30 30 1 13 7
M  V30 31 1 24 14
M  V30 32 1 30 25
M  V30 33 1 22 17
M  V30 34 1 3 31
M  V30 35 1 6 32
M  V30 36 1 8 33
M  V30 37 1 9 34
M  V30 38 1 12 35
M  V30 39 1 13 36
M  V30 40 1 15 37
M  V30 41 1 18 38
M  V30 42 1 19 39
M  V30 43 1 20 40
M  V30 44 1 21 41
M  V30 45 1 22 42
M  V30 46 1 26 43
M  V30 47 1 27 44
M  V30 48 1 28 45
M  V30 49 1 29 46
M  V30 50 1 30 47
M  V30 END BOND
M  V30 END CTAB
M  END
>  <Dataset>  (723) 
ChEMBL_Kinases

>  <Ligand_Instance>  (723) 
nan

>  <PDB_ID>  (723) 
nan

>  <Standardized_SMILES>  (723) 
O=C(NC(=S)Nc1ccc(F)cc1)c1cn(-c2ccccc2)nc1-c1ccccc1

>  <Name>  (723) 
nan

>  <Pocket>  (723) 
nan

>  <ATP_Site>  (723) 
nan

>  <Peripheral>  (723) 
nan

>  <Num_H_Atoms_ProtBoundConf>  (723) 
nan

>  <Num_Resolved_Atoms>  (723) 
nan

>  <Num_Not_Resolved_Atoms>  (723) 
nan

$$$$
CHEMBL2426381
     RDKit          3D

  0  0  0  0  0  0  0  0  0  0999 V3000
M  V30 BEGIN CTAB
M  V30 COUNTS 47 50 0 0 0
M  V30 BEGIN ATOM
M  V30 1 O 1.629250 -2.763779 2.923014 0
M  V30 2 C 1.223588 -1.901244 2.088552 0
M  V30 3 N 2.033776 -1.910071 0.922995 0
M  V30 4 C 3.141956 -2.758516 0.712810 0
M  V30 5 S 3.531250 -3.821819 1.901424 0
M  V30 6 N 3.915906 -2.719217 -0.472935 0
M  V30 7 C 3.306449 -1.694235 -1.275452 0
M  V30 8 C 2.285265 -1.846829 -2.218060 0
M  V30 9 C 1.848697 -0.718818 -2.877496 0
M  V30 10 C 2.362737 0.534296 -2.655556 0
M  V30 11 Cl 1.749569 1.917055 -3.535157 0
M  V30 12 C 3.372148 0.720689 -1.731202 0
M  V30 13 C 3.820458 -0.421212 -1.057704 0
M  V30 14 C 0.120884 -0.943909 2.114112 0
M  V30 15 C 0.398889 0.375118 2.417406 0
M  V30 16 N -0.808110 1.005739 2.357254 0
M  V30 17 C -1.178594 2.369986 2.568915 0
M  V30 18 C -0.796495 3.157388 1.478682 0
M  V30 19 C -1.080865 4.524589 1.511200 0
M  V30 20 C -1.724763 5.052198 2.609515 0
M  V30 21 C -2.102862 4.276679 3.687058 0
M  V30 22 C -1.821793 2.926689 3.653985 0
M  V30 23 N -1.728129 0.102158 2.037968 0
M  V30 24 C -1.207092 -1.116342 1.876816 0
M  V30 25 C -1.868725 -2.366334 1.521007 0
M  V30 26 C -2.785734 -2.443619 0.485429 0
M  V30 27 C -3.470629 -3.552852 0.063957 0
M  V30 28 C -3.214058 -4.728344 0.755231 0
M  V30 29 C -2.303389 -4.742339 1.814466 0
M  V30 30 C -1.659170 -3.576188 2.169085 0
M  V30 31 H 1.805816 -1.232073 0.132668 0
M  V30 32 H 4.728585 -3.359576 -0.593248 0
M  V30 33 H 1.941397 -2.864172 -2.326321 0
M  V30 34 H 1.056565 -0.879525 -3.602206 0
M  V30 35 H 3.807109 1.685949 -1.524039 0
M  V30 36 H 4.624013 -0.232160 -0.330958 0
M  V30 37 H 1.300575 0.935193 2.665618 0
M  V30 38 H -0.290584 2.819961 0.586601 0
M  V30 39 H -0.809088 5.170914 0.698873 0
M  V30 40 H -1.928766 6.105774 2.604990 0
M  V30 41 H -2.609944 4.674314 4.559359 0
M  V30 42 H -2.065979 2.217417 4.432493 0
M  V30 43 H -2.982329 -1.512387 -0.053980 0
M  V30 44 H -4.170615 -3.484761 -0.772245 0
M  V30 45 H -3.724202 -5.636816 0.466852 0
M  V30 46 H -2.113038 -5.677181 2.349561 0
M  V30 47 H -0.969841 -3.612057 2.980262 0
M  V30 END ATOM
M  V30 BEGIN BOND
M  V30 1 2 1 2
M  V30 2 1 2 3
M  V30 3 1 3 4
M  V30 4 2 4 5
M  V30 5 1 4 6
M  V30 6 1 6 7
M  V30 7 2 7 8
M  V30 8 1 8 9
M  V30 9 2 9 10
M  V30 10 1 10 11
M  V30 11 1 10 12
M  V30 12 2 12 13
M  V30 13 1 2 14
M  V30 14 2 14 15
M  V30 15 1 15 16
M  V30 16 1 16 17
M  V30 17 2 17 18
M  V30 18 1 18 19
M  V30 19 2 19 20
M  V30 20 1 20 21
M  V30 21 2 21 22
M  V30 22 1 16 23
M  V30 23 2 23 24
M  V30 24 1 24 25
M  V30 25 2 25 26
M  V30 26 1 26 27
M  V30 27 2 27 28
M  V30 28 1 28 29
M  V30 29 2 29 30
M  V30 30 1 13 7
M  V30 31 1 24 14
M  V30 32 1 30 25
M  V30 33 1 22 17
M  V30 34 1 3 31
M  V30 35 1 6 32
M  V30 36 1 8 33
M  V30 37 1 9 34
M  V30 38 1 12 35
M  V30 39 1 13 36
M  V30 40 1 15 37
M  V30 41 1 18 38
M  V30 42 1 19 39
M  V30 43 1 20 40
M  V30 44 1 21 41
M  V30 45 1 22 42
M  V30 46 1 26 43
M  V30 47 1 27 44
M  V30 48 1 28 45
M  V30 49 1 29 46
M  V30 50 1 30 47
M  V30 END BOND
M  V30 END CTAB
M  END
>  <Dataset>  (724) 
ChEMBL_Kinases

>  <Ligand_Instance>  (724) 
nan

>  <PDB_ID>  (724) 
nan

>  <Standardized_SMILES>  (724) 
O=C(NC(=S)Nc1ccc(Cl)cc1)c1cn(-c2ccccc2)nc1-c1ccccc1

>  <Name>  (724) 
nan

>  <Pocket>  (724) 
nan

>  <ATP_Site>  (724) 
nan

>  <Peripheral>  (724) 
nan

>  <Num_H_Atoms_ProtBoundConf>  (724) 
nan

>  <Num_Resolved_Atoms>  (724) 
nan

>  <Num_Not_Resolved_Atoms>  (724) 
nan

$$$$
CHEMBL2426382
     RDKit          3D

  0  0  0  0  0  0  0  0  0  0999 V3000
M  V30 BEGIN CTAB
M  V30 COUNTS 53 56 0 0 0
M  V30 BEGIN ATOM
M  V30 1 C -1.259811 -6.315436 -2.131489 0
M  V30 2 C -0.086964 -5.477661 -1.719836 0
M  V30 3 C 0.441482 -5.506426 -0.447303 0
M  V30 4 C 1.526655 -4.676281 -0.202517 0
M  V30 5 C 2.041632 -3.857210 -1.215725 0
M  V30 6 N 3.146880 -2.988274 -0.998403 0
M  V30 7 C 3.517263 -1.675075 -0.591062 0
M  V30 8 S 5.153233 -1.426481 -0.627076 0
M  V30 9 N 2.638567 -0.636507 -0.193912 0
M  V30 10 C 1.226635 -0.503356 -0.049630 0
M  V30 11 O 0.639462 -1.581193 -0.356966 0
M  V30 12 C 0.613983 0.741489 0.399460 0
M  V30 13 C 0.871352 2.036522 -0.015739 0
M  V30 14 N 0.037423 2.829130 0.719824 0
M  V30 15 C -0.052811 4.262738 0.638284 0
M  V30 16 C 0.401300 4.937929 1.756823 0
M  V30 17 C 0.346435 6.338251 1.752631 0
M  V30 18 C -0.165631 6.924774 0.609900 0
M  V30 19 C -0.623616 6.269887 -0.516624 0
M  V30 20 C -0.560442 4.872144 -0.492107 0
M  V30 21 N -0.663841 2.066553 1.511032 0
M  V30 22 C -0.364499 0.760630 1.372277 0
M  V30 23 C -1.029476 -0.249878 2.159869 0
M  V30 24 C -2.397063 -0.153201 2.287508 0
M  V30 25 C -3.167258 -1.042802 3.006546 0
M  V30 26 C -2.550984 -2.116108 3.654492 0
M  V30 27 C -3.357250 -3.082784 4.434862 0
M  V30 28 C -1.170488 -2.235771 3.541374 0
M  V30 29 C -0.451852 -1.317337 2.810162 0
M  V30 30 C 1.458195 -3.878945 -2.479945 0
M  V30 31 C 0.362697 -4.705930 -2.758502 0
M  V30 32 H -1.024423 -6.921410 -3.007421 0
M  V30 33 H -1.579641 -6.952282 -1.280467 0
M  V30 34 H -2.112611 -5.633261 -2.386314 0
M  V30 35 H -0.008663 -6.158885 0.268070 0
M  V30 36 H 1.965210 -4.669433 0.768732 0
M  V30 37 H 3.836591 -3.713895 -1.273603 0
M  V30 38 H 3.140308 0.273985 0.062673 0
M  V30 39 H 1.573121 2.341354 -0.752632 0
M  V30 40 H 0.793750 4.415955 2.621925 0
M  V30 41 H 0.684978 6.924636 2.584848 0
M  V30 42 H -0.193481 8.025150 0.640786 0
M  V30 43 H -1.005327 6.828418 -1.359283 0
M  V30 44 H -0.905868 4.298522 -1.345464 0
M  V30 45 H -2.997491 0.641985 1.827477 0
M  V30 46 H -4.242469 -0.987068 3.120989 0
M  V30 47 H -2.651475 -3.723179 5.022312 0
M  V30 48 H -3.969330 -3.758562 3.829461 0
M  V30 49 H -3.994671 -2.486909 5.107187 0
M  V30 50 H -0.720980 -3.062349 4.043584 0
M  V30 51 H 0.628933 -1.408267 2.721551 0
M  V30 52 H 1.882796 -3.232300 -3.243011 0
M  V30 53 H -0.034402 -4.669579 -3.762008 0
M  V30 END ATOM
M  V30 BEGIN BOND
M  V30 1 1 1 2
M  V30 2 2 2 3
M  V30 3 1 3 4
M  V30 4 2 4 5
M  V30 5 1 5 6
M  V30 6 1 6 7
M  V30 7 2 7 8
M  V30 8 1 7 9
M  V30 9 1 9 10
M  V30 10 2 10 11
M  V30 11 1 10 12
M  V30 12 2 12 13
M  V30 13 1 13 14
M  V30 14 1 14 15
M  V30 15 2 15 16
M  V30 16 1 16 17
M  V30 17 2 17 18
M  V30 18 1 18 19
M  V30 19 2 19 20
M  V30 20 1 14 21
M  V30 21 2 21 22
M  V30 22 1 22 23
M  V30 23 2 23 24
M  V30 24 1 24 25
M  V30 25 2 25 26
M  V30 26 1 26 27
M  V30 27 1 26 28
M  V30 28 2 28 29
M  V30 29 1 5 30
M  V30 30 2 30 31
M  V30 31 1 31 2
M  V30 32 1 22 12
M  V30 33 1 29 23
M  V30 34 1 20 15
M  V30 35 1 1 32
M  V30 36 1 1 33
M  V30 37 1 1 34
M  V30 38 1 3 35
M  V30 39 1 4 36
M  V30 40 1 6 37
M  V30 41 1 9 38
M  V30 42 1 13 39
M  V30 43 1 16 40
M  V30 44 1 17 41
M  V30 45 1 18 42
M  V30 46 1 19 43
M  V30 47 1 20 44
M  V30 48 1 24 45
M  V30 49 1 25 46
M  V30 50 1 27 47
M  V30 51 1 27 48
M  V30 52 1 27 49
M  V30 53 1 28 50
M  V30 54 1 29 51
M  V30 55 1 30 52
M  V30 56 1 31 53
M  V30 END BOND
M  V30 END CTAB
M  END
>  <Dataset>  (725) 
ChEMBL_Kinases

>  <Ligand_Instance>  (725) 
nan

>  <PDB_ID>  (725) 
nan

>  <Standardized_SMILES>  (725) 
Cc1ccc(NC(=S)NC(=O)c2cn(-c3ccccc3)nc2-c2ccc(C)cc2)cc1

>  <Name>  (725) 
nan

>  <Pocket>  (725) 
nan

>  <ATP_Site>  (725) 
nan

>  <Peripheral>  (725) 
nan

>  <Num_H_Atoms_ProtBoundConf>  (725) 
nan

>  <Num_Resolved_Atoms>  (725) 
nan

>  <Num_Not_Resolved_Atoms>  (725) 
nan

$$$$
CHEMBL2426384
     RDKit          3D

  0  0  0  0  0  0  0  0  0  0999 V3000
M  V30 BEGIN CTAB
M  V30 COUNTS 50 53 0 0 0
M  V30 BEGIN ATOM
M  V30 1 C 1.517442 -2.679673 -4.579393 0
M  V30 2 C 1.457345 -2.017276 -3.263764 0
M  V30 3 C 1.505858 -0.631504 -3.215675 0
M  V30 4 C 1.449059 0.138834 -2.055113 0
M  V30 5 C 1.333286 -0.546749 -0.844280 0
M  V30 6 C 1.281819 0.209403 0.401170 0
M  V30 7 N 2.127430 1.183311 0.808898 0
M  V30 8 N 1.798624 1.680251 1.977591 0
M  V30 9 C 2.552509 2.731358 2.599399 0
M  V30 10 C 1.909253 3.485503 3.562437 0
M  V30 11 C 2.661167 4.508348 4.146067 0
M  V30 12 C 3.966979 4.763381 3.793081 0
M  V30 13 C 4.593385 4.000213 2.829696 0
M  V30 14 C 3.861731 2.975993 2.236571 0
M  V30 15 C 0.696423 1.072437 2.452157 0
M  V30 16 C 0.401228 0.172393 1.457015 0
M  V30 17 C -0.778479 -0.716758 1.506974 0
M  V30 18 O -1.091567 -1.913799 1.346178 0
M  V30 19 N -2.025107 -0.055657 1.847974 0
M  V30 20 C -3.428996 -0.354216 2.027803 0
M  V30 21 S -4.611283 0.723216 2.452279 0
M  V30 22 N -3.949981 -1.686300 1.792725 0
M  V30 23 C -3.632191 -3.014642 1.398338 0
M  V30 24 C -3.271131 -4.088005 2.190502 0
M  V30 25 C -2.991436 -5.265256 1.559407 0
M  V30 26 C -3.063858 -5.385489 0.196419 0
M  V30 27 F -2.768788 -6.579579 -0.341936 0
M  V30 28 C -3.415244 -4.362587 -0.634022 0
M  V30 29 C -3.701830 -3.158550 0.004083 0
M  V30 30 C 1.280914 -1.941058 -0.839554 0
M  V30 31 C 1.344210 -2.613609 -2.032799 0
M  V30 32 H 2.011211 -3.673262 -4.557142 0
M  V30 33 H 0.516408 -2.705847 -5.067175 0
M  V30 34 H 2.149103 -2.052620 -5.275002 0
M  V30 35 H 1.594619 -0.089175 -4.162972 0
M  V30 36 H 1.489235 1.215403 -2.071153 0
M  V30 37 H 0.903088 3.375694 3.914118 0
M  V30 38 H 2.316360 5.197779 4.920384 0
M  V30 39 H 4.585355 5.544938 4.213473 0
M  V30 40 H 5.631712 4.184983 2.536466 0
M  V30 41 H 4.332756 2.381645 1.496042 0
M  V30 42 H 0.185884 1.253931 3.376601 0
M  V30 43 H -1.952471 0.990176 2.038584 0
M  V30 44 H -4.961519 -1.901323 1.943861 0
M  V30 45 H -3.250740 -3.861374 3.246116 0
M  V30 46 H -2.706873 -6.095817 2.208788 0
M  V30 47 H -3.470268 -4.466400 -1.709349 0
M  V30 48 H -3.981078 -2.353548 -0.689579 0
M  V30 49 H 1.196376 -2.509040 0.063294 0
M  V30 50 H 1.303590 -3.711518 -2.036322 0
M  V30 END ATOM
M  V30 BEGIN BOND
M  V30 1 1 1 2
M  V30 2 2 2 3
M  V30 3 1 3 4
M  V30 4 2 4 5
M  V30 5 1 5 6
M  V30 6 2 6 7
M  V30 7 1 7 8
M  V30 8 1 8 9
M  V30 9 2 9 10
M  V30 10 1 10 11
M  V30 11 2 11 12
M  V30 12 1 12 13
M  V30 13 2 13 14
M  V30 14 1 8 15
M  V30 15 2 15 16
M  V30 16 1 16 17
M  V30 17 2 17 18
M  V30 18 1 17 19
M  V30 19 1 19 20
M  V30 20 2 20 21
M  V30 21 1 20 22
M  V30 22 1 22 23
M  V30 23 2 23 24
M  V30 24 1 24 25
M  V30 25 2 25 26
M  V30 26 1 26 27
M  V30 27 1 26 28
M  V30 28 2 28 29
M  V30 29 1 5 30
M  V30 30 2 30 31
M  V30 31 1 31 2
M  V30 32 1 16 6
M  V30 33 1 29 23
M  V30 34 1 14 9
M  V30 35 1 1 32
M  V30 36 1 1 33
M  V30 37 1 1 34
M  V30 38 1 3 35
M  V30 39 1 4 36
M  V30 40 1 10 37
M  V30 41 1 11 38
M  V30 42 1 12 39
M  V30 43 1 13 40
M  V30 44 1 14 41
M  V30 45 1 15 42
M  V30 46 1 19 43
M  V30 47 1 22 44
M  V30 48 1 24 45
M  V30 49 1 25 46
M  V30 50 1 28 47
M  V30 51 1 29 48
M  V30 52 1 30 49
M  V30 53 1 31 50
M  V30 END BOND
M  V30 END CTAB
M  END
>  <Dataset>  (726) 
ChEMBL_Kinases

>  <Ligand_Instance>  (726) 
nan

>  <PDB_ID>  (726) 
nan

>  <Standardized_SMILES>  (726) 
Cc1ccc(-c2nn(-c3ccccc3)cc2C(=O)NC(=S)Nc2ccc(F)cc2)cc1

>  <Name>  (726) 
nan

>  <Pocket>  (726) 
nan

>  <ATP_Site>  (726) 
nan

>  <Peripheral>  (726) 
nan

>  <Num_H_Atoms_ProtBoundConf>  (726) 
nan

>  <Num_Resolved_Atoms>  (726) 
nan

>  <Num_Not_Resolved_Atoms>  (726) 
nan

$$$$
CHEMBL2426385
     RDKit          3D

  0  0  0  0  0  0  0  0  0  0999 V3000
M  V30 BEGIN CTAB
M  V30 COUNTS 50 53 0 0 0
M  V30 BEGIN ATOM
M  V30 1 C 2.879896 -3.316037 -3.698697 0
M  V30 2 C 2.470368 -2.431910 -2.571623 0
M  V30 3 C 2.631631 -1.066035 -2.651586 0
M  V30 4 C 2.217014 -0.354203 -1.540760 0
M  V30 5 C 1.659394 -0.889924 -0.367431 0
M  V30 6 C 1.332527 0.083504 0.651216 0
M  V30 7 N 2.252719 1.001502 1.017796 0
M  V30 8 N 1.783135 1.815600 1.947048 0
M  V30 9 C 2.519092 2.888002 2.523145 0
M  V30 10 C 2.393553 3.278201 3.867398 0
M  V30 11 C 3.099967 4.321748 4.419690 0
M  V30 12 C 3.947314 4.955518 3.534368 0
M  V30 13 C 4.178028 4.695174 2.208862 0
M  V30 14 C 3.419996 3.627672 1.744809 0
M  V30 15 C 0.524010 1.448245 2.220271 0
M  V30 16 C 0.238346 0.371035 1.415567 0
M  V30 17 C -1.009222 -0.366252 1.328956 0
M  V30 18 O -1.217628 -1.489863 0.802335 0
M  V30 19 N -2.217980 0.180586 1.890199 0
M  V30 20 C -3.570991 -0.331778 1.942091 0
M  V30 21 S -4.576254 0.737811 2.726075 0
M  V30 22 N -3.534974 -1.583173 1.288415 0
M  V30 23 C -3.938349 -2.819921 0.747368 0
M  V30 24 C -3.825132 -3.956526 1.546200 0
M  V30 25 C -4.206002 -5.211503 1.044051 0
M  V30 26 C -4.668440 -5.155787 -0.244020 0
M  V30 27 Cl -5.162563 -6.719519 -0.893621 0
M  V30 28 C -4.823905 -4.107331 -1.116619 0
M  V30 29 C -4.431155 -2.896368 -0.566412 0
M  V30 30 C 1.550275 -2.248735 -0.404158 0
M  V30 31 C 1.932969 -3.044141 -1.460221 0
M  V30 32 H 3.848445 -3.819407 -3.458515 0
M  V30 33 H 2.079002 -4.015162 -4.018818 0
M  V30 34 H 3.119235 -2.659293 -4.575500 0
M  V30 35 H 3.048236 -0.585865 -3.515777 0
M  V30 36 H 2.362728 0.731848 -1.646294 0
M  V30 37 H 1.700562 2.710814 4.473615 0
M  V30 38 H 3.014310 4.627678 5.439633 0
M  V30 39 H 4.519563 5.797843 3.959330 0
M  V30 40 H 4.862434 5.243616 1.583565 0
M  V30 41 H 3.508534 3.314286 0.697592 0
M  V30 42 H -0.117826 1.927169 2.937912 0
M  V30 43 H -1.999589 1.136269 2.327833 0
M  V30 44 H -4.523971 -1.452362 1.589326 0
M  V30 45 H -3.445038 -3.873206 2.547876 0
M  V30 46 H -4.135058 -6.119803 1.617893 0
M  V30 47 H -5.207724 -4.221117 -2.115432 0
M  V30 48 H -4.505333 -1.992837 -1.164340 0
M  V30 49 H 1.141319 -2.690916 0.490449 0
M  V30 50 H 1.784055 -4.116585 -1.351795 0
M  V30 END ATOM
M  V30 BEGIN BOND
M  V30 1 1 1 2
M  V30 2 2 2 3
M  V30 3 1 3 4
M  V30 4 2 4 5
M  V30 5 1 5 6
M  V30 6 2 6 7
M  V30 7 1 7 8
M  V30 8 1 8 9
M  V30 9 2 9 10
M  V30 10 1 10 11
M  V30 11 2 11 12
M  V30 12 1 12 13
M  V30 13 2 13 14
M  V30 14 1 8 15
M  V30 15 2 15 16
M  V30 16 1 16 17
M  V30 17 2 17 18
M  V30 18 1 17 19
M  V30 19 1 19 20
M  V30 20 2 20 21
M  V30 21 1 20 22
M  V30 22 1 22 23
M  V30 23 2 23 24
M  V30 24 1 24 25
M  V30 25 2 25 26
M  V30 26 1 26 27
M  V30 27 1 26 28
M  V30 28 2 28 29
M  V30 29 1 5 30
M  V30 30 2 30 31
M  V30 31 1 31 2
M  V30 32 1 16 6
M  V30 33 1 29 23
M  V30 34 1 14 9
M  V30 35 1 1 32
M  V30 36 1 1 33
M  V30 37 1 1 34
M  V30 38 1 3 35
M  V30 39 1 4 36
M  V30 40 1 10 37
M  V30 41 1 11 38
M  V30 42 1 12 39
M  V30 43 1 13 40
M  V30 44 1 14 41
M  V30 45 1 15 42
M  V30 46 1 19 43
M  V30 47 1 22 44
M  V30 48 1 24 45
M  V30 49 1 25 46
M  V30 50 1 28 47
M  V30 51 1 29 48
M  V30 52 1 30 49
M  V30 53 1 31 50
M  V30 END BOND
M  V30 END CTAB
M  END
>  <Dataset>  (727) 
ChEMBL_Kinases

>  <Ligand_Instance>  (727) 
nan

>  <PDB_ID>  (727) 
nan

>  <Standardized_SMILES>  (727) 
Cc1ccc(-c2nn(-c3ccccc3)cc2C(=O)NC(=S)Nc2ccc(Cl)cc2)cc1

>  <Name>  (727) 
nan

>  <Pocket>  (727) 
nan

>  <ATP_Site>  (727) 
nan

>  <Peripheral>  (727) 
nan

>  <Num_H_Atoms_ProtBoundConf>  (727) 
nan

>  <Num_Resolved_Atoms>  (727) 
nan

>  <Num_Not_Resolved_Atoms>  (727) 
nan

$$$$
CHEMBL2426386
     RDKit          3D

  0  0  0  0  0  0  0  0  0  0999 V3000
M  V30 BEGIN CTAB
M  V30 COUNTS 50 53 0 0 0
M  V30 BEGIN ATOM
M  V30 1 C 2.500966 -4.911391 -3.070563 0
M  V30 2 C 2.618783 -4.357943 -1.682166 0
M  V30 3 C 1.722441 -4.895769 -0.789908 0
M  V30 4 C 1.818171 -4.390212 0.511855 0
M  V30 5 C 2.769411 -3.410721 0.836089 0
M  V30 6 N 2.883411 -2.880461 2.147715 0
M  V30 7 C 2.486078 -1.903304 3.066928 0
M  V30 8 S 3.139451 -1.951922 4.560751 0
M  V30 9 N 1.572930 -0.838225 2.891356 0
M  V30 10 C 0.873194 -0.572733 1.705683 0
M  V30 11 O 0.991358 -1.272500 0.658422 0
M  V30 12 C -0.090518 0.439177 1.301066 0
M  V30 13 C 0.149500 1.612220 0.575865 0
M  V30 14 N -1.023932 2.290018 0.400648 0
M  V30 15 C -0.953987 3.513595 -0.324605 0
M  V30 16 C -0.351189 4.594027 0.315482 0
M  V30 17 C -0.284451 5.780215 -0.390879 0
M  V30 18 C -0.784501 5.912141 -1.672483 0
M  V30 19 C -1.382460 4.816845 -2.289319 0
M  V30 20 C -1.471469 3.611276 -1.620907 0
M  V30 21 N -1.979308 1.586025 0.987287 0
M  V30 22 C -1.451838 0.468485 1.537917 0
M  V30 23 C -2.250731 -0.517415 2.256519 0
M  V30 24 C -1.930651 -1.086326 3.453824 0
M  V30 25 C -2.729103 -2.023364 4.087950 0
M  V30 26 C -3.913262 -2.431216 3.519919 0
M  V30 27 Cl -4.937835 -3.615547 4.299011 0
M  V30 28 C -4.270491 -1.877463 2.308871 0
M  V30 29 C -3.453917 -0.948408 1.704260 0
M  V30 30 C 3.628022 -2.943399 -0.168916 0
M  V30 31 C 3.576726 -3.409337 -1.474778 0
M  V30 32 H 2.892363 -5.945625 -3.105919 0
M  V30 33 H 1.430722 -4.904952 -3.324908 0
M  V30 34 H 3.001344 -4.243660 -3.805903 0
M  V30 35 H 1.003128 -5.647172 -1.060976 0
M  V30 36 H 1.151142 -4.758157 1.278195 0
M  V30 37 H 3.570987 -3.614316 2.425388 0
M  V30 38 H 1.304631 -0.127536 3.592880 0
M  V30 39 H 1.161364 1.836091 0.259320 0
M  V30 40 H 0.036723 4.476274 1.325186 0
M  V30 41 H 0.180977 6.638207 0.086792 0
M  V30 42 H -0.721327 6.865060 -2.217999 0
M  V30 43 H -1.775731 4.930538 -3.308719 0
M  V30 44 H -1.940784 2.738101 -2.093946 0
M  V30 45 H -1.007502 -0.787012 3.929285 0
M  V30 46 H -2.406817 -2.437670 5.047775 0
M  V30 47 H -5.204778 -2.219435 1.892001 0
M  V30 48 H -3.841599 -0.589705 0.762167 0
M  V30 49 H 4.364064 -2.179331 0.103023 0
M  V30 50 H 4.231817 -3.057506 -2.257270 0
M  V30 END ATOM
M  V30 BEGIN BOND
M  V30 1 1 1 2
M  V30 2 2 2 3
M  V30 3 1 3 4
M  V30 4 2 4 5
M  V30 5 1 5 6
M  V30 6 1 6 7
M  V30 7 2 7 8
M  V30 8 1 7 9
M  V30 9 1 9 10
M  V30 10 2 10 11
M  V30 11 1 10 12
M  V30 12 2 12 13
M  V30 13 1 13 14
M  V30 14 1 14 15
M  V30 15 2 15 16
M  V30 16 1 16 17
M  V30 17 2 17 18
M  V30 18 1 18 19
M  V30 19 2 19 20
M  V30 20 1 14 21
M  V30 21 2 21 22
M  V30 22 1 22 23
M  V30 23 2 23 24
M  V30 24 1 24 25
M  V30 25 2 25 26
M  V30 26 1 26 27
M  V30 27 1 26 28
M  V30 28 2 28 29
M  V30 29 1 5 30
M  V30 30 2 30 31
M  V30 31 1 31 2
M  V30 32 1 22 12
M  V30 33 1 29 23
M  V30 34 1 20 15
M  V30 35 1 1 32
M  V30 36 1 1 33
M  V30 37 1 1 34
M  V30 38 1 3 35
M  V30 39 1 4 36
M  V30 40 1 6 37
M  V30 41 1 9 38
M  V30 42 1 13 39
M  V30 43 1 16 40
M  V30 44 1 17 41
M  V30 45 1 18 42
M  V30 46 1 19 43
M  V30 47 1 20 44
M  V30 48 1 24 45
M  V30 49 1 25 46
M  V30 50 1 28 47
M  V30 51 1 29 48
M  V30 52 1 30 49
M  V30 53 1 31 50
M  V30 END BOND
M  V30 END CTAB
M  END
>  <Dataset>  (728) 
ChEMBL_Kinases

>  <Ligand_Instance>  (728) 
nan

>  <PDB_ID>  (728) 
nan

>  <Standardized_SMILES>  (728) 
Cc1ccc(NC(=S)NC(=O)c2cn(-c3ccccc3)nc2-c2ccc(Cl)cc2)cc1

>  <Name>  (728) 
nan

>  <Pocket>  (728) 
nan

>  <ATP_Site>  (728) 
nan

>  <Peripheral>  (728) 
nan

>  <Num_H_Atoms_ProtBoundConf>  (728) 
nan

>  <Num_Resolved_Atoms>  (728) 
nan

>  <Num_Not_Resolved_Atoms>  (728) 
nan

$$$$
CHEMBL242537
     RDKit          3D

  0  0  0  0  0  0  0  0  0  0999 V3000
M  V30 BEGIN CTAB
M  V30 COUNTS 59 63 0 0 0
M  V30 BEGIN ATOM
M  V30 1 C 4.655556 0.347249 4.211868 0
M  V30 2 N 5.851637 1.130876 4.270279 0
M  V30 3 C 6.779309 0.428269 5.169390 0
M  V30 4 C 6.529259 1.318259 3.030729 0
M  V30 5 C 5.832499 2.175755 2.022349 0
M  V30 6 N 4.563142 1.634164 1.627747 0
M  V30 7 C 3.988324 2.553443 0.673313 0
M  V30 8 O 4.672274 3.579672 0.397661 0
M  V30 9 C 2.698363 2.394212 0.011865 0
M  V30 10 C 2.296643 3.409668 -0.825469 0
M  V30 11 C 1.104762 3.399450 -1.517482 0
M  V30 12 C 0.255206 2.307611 -1.368400 0
M  V30 13 C 0.649480 1.285101 -0.531967 0
M  V30 14 C 1.854074 1.314935 0.156360 0
M  V30 15 C -0.368107 0.197166 -0.488390 0
M  V30 16 C -1.439051 0.690106 -1.396165 0
M  V30 17 C -2.693070 0.373847 -1.932319 0
M  V30 18 C -3.382223 -0.881158 -1.579608 0
M  V30 19 C -4.717882 -0.950495 -1.226525 0
M  V30 20 C -5.223299 -2.198702 -0.922894 0
M  V30 21 C -4.507309 -3.377964 -0.943064 0
M  V30 22 C -5.119156 -4.658860 -0.601348 0
M  V30 23 C -6.440710 -4.979160 -0.834353 0
M  V30 24 C -6.866288 -6.237105 -0.451211 0
M  V30 25 C -6.025753 -7.168582 0.147168 0
M  V30 26 O -6.573252 -8.414746 0.492427 0
M  V30 27 C -4.701274 -6.837033 0.376106 0
M  V30 28 C -4.260471 -5.564888 -0.008280 0
M  V30 29 C -3.158719 -3.297388 -1.301536 0
M  V30 30 C -2.641017 -2.043829 -1.608968 0
M  V30 31 N -2.994335 1.424086 -2.727045 0
M  V30 32 N -2.046852 2.315111 -2.707210 0
M  V30 33 C -1.046259 1.914821 -1.893519 0
M  V30 34 H 4.503438 -0.105679 5.242028 0
M  V30 35 H 3.769421 1.022361 4.109787 0
M  V30 36 H 4.666582 -0.509363 3.538638 0
M  V30 37 H 7.384253 -0.312621 4.636196 0
M  V30 38 H 7.442701 1.167907 5.643976 0
M  V30 39 H 6.220229 -0.129639 5.957013 0
M  V30 40 H 6.684401 0.283625 2.600995 0
M  V30 41 H 7.576538 1.676537 3.206960 0
M  V30 42 H 5.726226 3.234758 2.385557 0
M  V30 43 H 6.462609 2.280427 1.089863 0
M  V30 44 H 3.899140 0.842057 1.755532 0
M  V30 45 H 2.890227 4.302273 -1.007169 0
M  V30 46 H 0.798197 4.198038 -2.170327 0
M  V30 47 H 2.150790 0.522661 0.799009 0
M  V30 48 H 0.084611 -0.751459 -0.849597 0
M  V30 49 H -0.809296 0.096908 0.520403 0
M  V30 50 H -5.283726 -0.044616 -1.206893 0
M  V30 51 H -6.277917 -2.258162 -0.643665 0
M  V30 52 H -7.070951 -4.238484 -1.299035 0
M  V30 53 H -7.897243 -6.517662 -0.621032 0
M  V30 54 H -6.250982 -9.231949 -0.031359 0
M  V30 55 H -4.066758 -7.583118 0.844021 0
M  V30 56 H -3.223046 -5.421137 0.216129 0
M  V30 57 H -2.597800 -4.218012 -1.317231 0
M  V30 58 H -1.588600 -2.118132 -1.871727 0
M  V30 59 H -2.049676 3.213655 -3.240033 0
M  V30 END ATOM
M  V30 BEGIN BOND
M  V30 1 1 1 2
M  V30 2 1 2 3
M  V30 3 1 2 4
M  V30 4 1 4 5
M  V30 5 1 5 6
M  V30 6 1 6 7
M  V30 7 2 7 8
M  V30 8 1 7 9
M  V30 9 2 9 10
M  V30 10 1 10 11
M  V30 11 2 11 12
M  V30 12 1 12 13
M  V30 13 2 13 14
M  V30 14 1 13 15
M  V30 15 1 15 16
M  V30 16 1 16 17
M  V30 17 1 17 18
M  V30 18 2 18 19
M  V30 19 1 19 20
M  V30 20 2 20 21
M  V30 21 1 21 22
M  V30 22 2 22 23
M  V30 23 1 23 24
M  V30 24 2 24 25
M  V30 25 1 25 26
M  V30 26 1 25 27
M  V30 27 2 27 28
M  V30 28 1 21 29
M  V30 29 2 29 30
M  V30 30 2 17 31
M  V30 31 1 31 32
M  V30 32 1 32 33
M  V30 33 1 14 9
M  V30 34 2 33 16
M  V30 35 1 33 12
M  V30 36 1 30 18
M  V30 37 1 28 22
M  V30 38 1 1 34
M  V30 39 1 1 35
M  V30 40 1 1 36
M  V30 41 1 3 37
M  V30 42 1 3 38
M  V30 43 1 3 39
M  V30 44 1 4 40
M  V30 45 1 4 41
M  V30 46 1 5 42
M  V30 47 1 5 43
M  V30 48 1 6 44
M  V30 49 1 10 45
M  V30 50 1 11 46
M  V30 51 1 14 47
M  V30 52 1 15 48
M  V30 53 1 15 49
M  V30 54 1 19 50
M  V30 55 1 20 51
M  V30 56 1 23 52
M  V30 57 1 24 53
M  V30 58 1 26 54
M  V30 59 1 27 55
M  V30 60 1 28 56
M  V30 61 1 29 57
M  V30 62 1 30 58
M  V30 63 1 32 59
M  V30 END BOND
M  V30 END CTAB
M  END
>  <Dataset>  (729) 
ChEMBL_Kinases

>  <Ligand_Instance>  (729) 
nan

>  <PDB_ID>  (729) 
nan

>  <Standardized_SMILES>  (729) 
CN(C)CCNC(=O)c1ccc2c(c1)Cc1c(-c3ccc(-c4ccc(O)cc4)cc3)n[nH]c1-2

>  <Name>  (729) 
nan

>  <Pocket>  (729) 
nan

>  <ATP_Site>  (729) 
nan

>  <Peripheral>  (729) 
nan

>  <Num_H_Atoms_ProtBoundConf>  (729) 
nan

>  <Num_Resolved_Atoms>  (729) 
nan

>  <Num_Not_Resolved_Atoms>  (729) 
nan

$$$$
CHEMBL245224
     RDKit          3D

  0  0  0  0  0  0  0  0  0  0999 V3000
M  V30 BEGIN CTAB
M  V30 COUNTS 67 72 0 0 0
M  V30 BEGIN ATOM
M  V30 1 C 5.228278 -3.139639 -1.547462 0
M  V30 2 O 3.934600 -2.543387 -1.476223 0
M  V30 3 C 3.389507 -2.185485 -0.257817 0
M  V30 4 N 4.094173 -2.404514 0.882926 0
M  V30 5 C 3.536566 -2.045296 2.055817 0
M  V30 6 C 2.302183 -1.464053 2.264025 0
M  V30 7 C 1.586760 -1.242188 1.100542 0
M  V30 8 C 2.149247 -1.606194 -0.104024 0
M  V30 9 C 1.380862 -1.344842 -1.271741 0
M  V30 10 O 0.756717 -2.438960 -1.364629 0
M  V30 11 N 0.669831 -1.003473 -2.416995 0
M  V30 12 C -0.246231 -2.036193 -2.930453 0
M  V30 13 C -0.877157 -1.497042 -4.205337 0
M  V30 14 N -1.523659 -0.258822 -3.954254 0
M  V30 15 C -0.652526 0.648589 -3.426892 0
M  V30 16 C -1.319518 1.839230 -3.243886 0
M  V30 17 N -2.561176 1.591851 -3.668149 0
M  V30 18 C -2.708102 0.330734 -4.100083 0
M  V30 19 C -3.963023 -0.133492 -4.632872 0
M  V30 20 C -4.843875 0.808210 -5.133891 0
M  V30 21 C -6.075053 0.520535 -5.631989 0
M  V30 22 C -6.550955 -0.752696 -5.677417 0
M  V30 23 F -7.777090 -0.996140 -6.179850 0
M  V30 24 C -5.715837 -1.732368 -5.189952 0
M  V30 25 C -4.478493 -1.399988 -4.694285 0
M  V30 26 F -3.787435 -2.435132 -4.207530 0
M  V30 27 C 0.774622 0.286947 -3.120651 0
M  V30 28 C 2.105878 -1.252907 3.612766 0
M  V30 29 C 0.905347 -0.658798 4.162788 0
M  V30 30 O 0.001850 -0.325942 3.352370 0
M  V30 31 C 0.711057 -0.438622 5.580547 0
M  V30 32 O 1.635597 -0.773408 6.396107 0
M  V30 33 N -0.518519 0.153393 6.056467 0
M  V30 34 C -1.774317 0.658276 5.487797 0
M  V30 35 C -1.895069 1.996248 6.212066 0
M  V30 36 C -1.062481 1.878941 7.447803 0
M  V30 37 O -1.704977 2.321177 8.594897 0
M  V30 38 C -0.764734 0.394486 7.490255 0
M  V30 39 C 3.251968 -1.719982 4.223738 0
M  V30 40 N 4.088988 -2.187264 3.271375 0
M  V30 41 C 5.402190 -2.755906 3.605195 0
M  V30 42 H 5.181204 -4.192415 -1.845836 0
M  V30 43 H 5.758005 -3.092402 -0.566595 0
M  V30 44 H 5.841201 -2.616035 -2.308578 0
M  V30 45 H 0.614420 -0.794215 1.155821 0
M  V30 46 H -0.981110 -2.339489 -2.171552 0
M  V30 47 H 0.388190 -2.912780 -3.164228 0
M  V30 48 H -1.403139 -2.214549 -4.805125 0
M  V30 49 H 0.042922 -1.227344 -4.853114 0
M  V30 50 H -0.984972 2.796310 -2.852660 0
M  V30 51 H -4.566677 1.871873 -5.148376 0
M  V30 52 H -6.704259 1.306900 -6.006780 0
M  V30 53 H -6.072084 -2.750423 -5.214950 0
M  V30 54 H 1.330991 0.099516 -4.038626 0
M  V30 55 H 1.224904 1.046793 -2.482935 0
M  V30 56 H -2.629619 -0.009187 5.739810 0
M  V30 57 H -1.739924 0.785375 4.404353 0
M  V30 58 H -2.966489 2.171412 6.388324 0
M  V30 59 H -1.460677 2.757365 5.518532 0
M  V30 60 H -0.093380 2.395009 7.277655 0
M  V30 61 H -1.072455 2.165712 9.344738 0
M  V30 62 H -1.602661 -0.212957 7.853427 0
M  V30 63 H 0.161881 0.186727 8.086691 0
M  V30 64 H 3.442358 -1.711345 5.285783 0
M  V30 65 H 5.855409 -2.165636 4.420315 0
M  V30 66 H 6.093888 -2.703843 2.753281 0
M  V30 67 H 5.246846 -3.796474 3.974298 0
M  V30 END ATOM
M  V30 BEGIN BOND
M  V30 1 1 1 2
M  V30 2 1 2 3
M  V30 3 2 3 4
M  V30 4 1 4 5
M  V30 5 2 5 6
M  V30 6 1 6 7
M  V30 7 2 7 8
M  V30 8 1 8 9
M  V30 9 2 9 10
M  V30 10 1 9 11
M  V30 11 1 11 12
M  V30 12 1 12 13
M  V30 13 1 13 14
M  V30 14 1 14 15
M  V30 15 2 15 16
M  V30 16 1 16 17
M  V30 17 2 17 18
M  V30 18 1 18 19
M  V30 19 2 19 20
M  V30 20 1 20 21
M  V30 21 2 21 22
M  V30 22 1 22 23
M  V30 23 1 22 24
M  V30 24 2 24 25
M  V30 25 1 25 26
M  V30 26 1 15 27
M  V30 27 1 6 28
M  V30 28 1 28 29
M  V30 29 2 29 30
M  V30 30 1 29 31
M  V30 31 2 31 32
M  V30 32 1 31 33
M  V30 33 1 33 34
M  V30 34 1 34 35
M  V30 35 1 35 36
M  V30 36 1 36 37
M  V30 37 1 36 38
M  V30 38 2 28 39
M  V30 39 1 39 40
M  V30 40 1 40 41
M  V30 41 1 8 3
M  V30 42 1 27 11
M  V30 43 1 38 33
M  V30 44 1 40 5
M  V30 45 1 18 14
M  V30 46 1 25 19
M  V30 47 1 1 42
M  V30 48 1 1 43
M  V30 49 1 1 44
M  V30 50 1 7 45
M  V30 51 1 12 46
M  V30 52 1 12 47
M  V30 53 1 13 48
M  V30 54 1 13 49
M  V30 55 1 16 50
M  V30 56 1 20 51
M  V30 57 1 21 52
M  V30 58 1 24 53
M  V30 59 1 27 54
M  V30 60 1 27 55
M  V30 61 1 34 56
M  V30 62 1 34 57
M  V30 63 1 35 58
M  V30 64 1 35 59
M  V30 65 1 36 60
M  V30 66 1 37 61
M  V30 67 1 38 62
M  V30 68 1 38 63
M  V30 69 1 39 64
M  V30 70 1 41 65
M  V30 71 1 41 66
M  V30 72 1 41 67
M  V30 END BOND
M  V30 END CTAB
M  END
>  <Dataset>  (730) 
ChEMBL_Kinases

>  <Ligand_Instance>  (730) 
nan

>  <PDB_ID>  (730) 
nan

>  <Standardized_SMILES>  (730) 
COc1nc2c(cc1C(=O)N1CCn3c(cnc3-c3ccc(F)cc3F)C1)c(C(=O)C(=O)N1CCC(O)C1)cn2C

>  <Name>  (730) 
nan

>  <Pocket>  (730) 
nan

>  <ATP_Site>  (730) 
nan

>  <Peripheral>  (730) 
nan

>  <Num_H_Atoms_ProtBoundConf>  (730) 
nan

>  <Num_Resolved_Atoms>  (730) 
nan

>  <Num_Not_Resolved_Atoms>  (730) 
nan

$$$$
CHEMBL245212
     RDKit          3D

  0  0  0  0  0  0  0  0  0  0999 V3000
M  V30 BEGIN CTAB
M  V30 COUNTS 42 45 0 0 0
M  V30 BEGIN ATOM
M  V30 1 N 2.162422 -4.605304 3.639083 0
M  V30 2 C 2.391037 -3.850994 2.798409 0
M  V30 3 C 2.669281 -2.926637 1.738499 0
M  V30 4 C 3.852996 -3.034723 1.037924 0
M  V30 5 N 4.123802 -2.172003 0.041169 0
M  V30 6 C 3.255183 -1.199213 -0.286908 0
M  V30 7 C 3.547803 -0.324319 -1.309971 0
M  V30 8 F 4.705389 -0.404583 -2.019214 0
M  V30 9 C 2.669630 0.674245 -1.655742 0
M  V30 10 C 1.452435 0.851239 -0.997254 0
M  V30 11 N 0.561222 1.872640 -1.370923 0
M  V30 12 C -0.715737 2.269707 -0.845607 0
M  V30 13 C -0.590656 2.797581 0.536024 0
M  V30 14 C -0.670154 2.398779 1.845891 0
M  V30 15 N -0.426118 3.414288 2.676127 0
M  V30 16 C -0.185478 4.485471 1.905998 0
M  V30 17 N -0.281623 4.126888 0.622269 0
M  V30 18 C 1.233960 -0.051295 0.001231 0
M  V30 19 C 2.066820 -1.075384 0.401975 0
M  V30 20 C 1.756432 -1.941937 1.429181 0
M  V30 21 N 0.522037 -1.794531 2.127082 0
M  V30 22 C -0.620294 -2.501148 1.633606 0
M  V30 23 C -0.483167 -3.293393 0.507796 0
M  V30 24 C -1.562830 -4.006756 -0.020113 0
M  V30 25 C -2.762213 -3.874201 0.643276 0
M  V30 26 F -3.852181 -4.545414 0.176475 0
M  V30 27 C -2.918211 -3.088863 1.767370 0
M  V30 28 Cl -4.488534 -2.988881 2.536484 0
M  V30 29 C -1.836606 -2.388838 2.276475 0
M  V30 30 H 4.536950 -3.827703 1.321693 0
M  V30 31 H 2.925034 1.359137 -2.474479 0
M  V30 32 H 0.878241 2.468363 -2.189807 0
M  V30 33 H -1.322623 1.309570 -0.780554 0
M  V30 34 H -1.247904 2.956246 -1.508215 0
M  V30 35 H -0.912419 1.369669 2.024936 0
M  V30 36 H -0.452367 3.256562 3.690793 0
M  V30 37 H 0.046449 5.467859 2.310073 0
M  V30 38 H 0.317783 -0.005777 0.569048 0
M  V30 39 H 0.428798 -1.198655 2.970066 0
M  V30 40 H 0.452882 -3.391478 -0.002696 0
M  V30 41 H -1.424167 -4.610064 -0.891254 0
M  V30 42 H -1.938416 -1.768695 3.155496 0
M  V30 END ATOM
M  V30 BEGIN BOND
M  V30 1 3 1 2
M  V30 2 1 2 3
M  V30 3 2 3 4
M  V30 4 1 4 5
M  V30 5 2 5 6
M  V30 6 1 6 7
M  V30 7 1 7 8
M  V30 8 2 7 9
M  V30 9 1 9 10
M  V30 10 1 10 11
M  V30 11 1 11 12
M  V30 12 1 12 13
M  V30 13 2 13 14
M  V30 14 1 14 15
M  V30 15 1 15 16
M  V30 16 2 16 17
M  V30 17 2 10 18
M  V30 18 1 18 19
M  V30 19 2 19 20
M  V30 20 1 20 21
M  V30 21 1 21 22
M  V30 22 2 22 23
M  V30 23 1 23 24
M  V30 24 2 24 25
M  V30 25 1 25 26
M  V30 26 1 25 27
M  V30 27 1 27 28
M  V30 28 2 27 29
M  V30 29 1 20 3
M  V30 30 1 29 22
M  V30 31 1 19 6
M  V30 32 1 17 13
M  V30 33 1 4 30
M  V30 34 1 9 31
M  V30 35 1 11 32
M  V30 36 1 12 33
M  V30 37 1 12 34
M  V30 38 1 14 35
M  V30 39 1 15 36
M  V30 40 1 16 37
M  V30 41 1 18 38
M  V30 42 1 21 39
M  V30 43 1 23 40
M  V30 44 1 24 41
M  V30 45 1 29 42
M  V30 END BOND
M  V30 END CTAB
M  END
>  <Dataset>  (731) 
ChEMBL_Kinases

>  <Ligand_Instance>  (731) 
nan

>  <PDB_ID>  (731) 
nan

>  <Standardized_SMILES>  (731) 
N#Cc1cnc2c(F)cc(NCc3c[nH]cn3)cc2c1Nc1ccc(F)c(Cl)c1

>  <Name>  (731) 
nan

>  <Pocket>  (731) 
nan

>  <ATP_Site>  (731) 
nan

>  <Peripheral>  (731) 
nan

>  <Num_H_Atoms_ProtBoundConf>  (731) 
nan

>  <Num_Resolved_Atoms>  (731) 
nan

>  <Num_Not_Resolved_Atoms>  (731) 
nan

$$$$
CHEMBL245209
     RDKit          3D

  0  0  0  0  0  0  0  0  0  0999 V3000
M  V30 BEGIN CTAB
M  V30 COUNTS 45 48 0 0 0
M  V30 BEGIN ATOM
M  V30 1 C 0.079634 -6.390522 -1.942514 0
M  V30 2 O 0.454177 -6.228825 -0.594715 0
M  V30 3 C 0.429445 -5.070500 0.127927 0
M  V30 4 C 0.049588 -3.777753 -0.227377 0
M  V30 5 C 0.121469 -2.770385 0.709222 0
M  V30 6 C -0.290854 -1.442005 0.272440 0
M  V30 7 C -1.261106 -1.156603 -0.664450 0
M  V30 8 C -1.575372 0.138125 -1.006901 0
M  V30 9 C -0.947551 1.215887 -0.441739 0
M  V30 10 C 0.033804 0.918425 0.506054 0
M  V30 11 C 0.378780 -0.386382 0.878345 0
M  V30 12 N 0.834523 1.871983 1.238425 0
M  V30 13 C 2.127704 1.409181 1.675944 0
M  V30 14 C 0.484815 3.230639 1.578798 0
M  V30 15 C 1.164472 3.615118 2.741443 0
M  V30 16 C 0.923004 4.900665 3.183604 0
M  V30 17 C 0.067882 5.731051 2.511221 0
M  V30 18 C -0.592395 5.331696 1.366405 0
M  V30 19 C -0.388716 4.057686 0.879362 0
M  V30 20 N -1.132554 3.790386 -0.299104 0
M  V30 21 C -1.401608 2.515446 -0.917263 0
M  V30 22 O -2.083402 2.475485 -1.958921 0
M  V30 23 C 0.558601 -2.987734 2.000016 0
M  V30 24 C 0.934295 -4.245725 2.365714 0
M  V30 25 C 0.870727 -5.284392 1.434957 0
M  V30 26 N 1.299711 -6.543961 1.975321 0
M  V30 27 H -0.337385 -5.441162 -2.305893 0
M  V30 28 H -0.670478 -7.211968 -2.065466 0
M  V30 29 H 0.966867 -6.616127 -2.590427 0
M  V30 30 H -0.270316 -3.712368 -1.236935 0
M  V30 31 H -1.751210 -2.015468 -1.105192 0
M  V30 32 H -2.334897 0.337254 -1.739476 0
M  V30 33 H 1.152244 -0.504579 1.623704 0
M  V30 34 H 2.526022 0.750150 0.843686 0
M  V30 35 H 2.830405 2.292529 1.566090 0
M  V30 36 H 2.166095 0.947718 2.658730 0
M  V30 37 H 1.830340 2.879608 3.214891 0
M  V30 38 H 1.446597 5.193177 4.076947 0
M  V30 39 H -0.096879 6.732900 2.887805 0
M  V30 40 H -1.269606 5.976302 0.826160 0
M  V30 41 H -1.541767 4.606373 -0.790086 0
M  V30 42 H 0.597930 -2.166694 2.699285 0
M  V30 43 H 1.269707 -4.374146 3.382665 0
M  V30 44 H 0.843828 -7.455195 2.214437 0
M  V30 45 H 2.332264 -6.508293 2.167009 0
M  V30 END ATOM
M  V30 BEGIN BOND
M  V30 1 1 1 2
M  V30 2 1 2 3
M  V30 3 2 3 4
M  V30 4 1 4 5
M  V30 5 1 5 6
M  V30 6 2 6 7
M  V30 7 1 7 8
M  V30 8 2 8 9
M  V30 9 1 9 10
M  V30 10 2 10 11
M  V30 11 1 10 12
M  V30 12 1 12 13
M  V30 13 1 12 14
M  V30 14 2 14 15
M  V30 15 1 15 16
M  V30 16 2 16 17
M  V30 17 1 17 18
M  V30 18 2 18 19
M  V30 19 1 19 20
M  V30 20 1 20 21
M  V30 21 2 21 22
M  V30 22 2 5 23
M  V30 23 1 23 24
M  V30 24 2 24 25
M  V30 25 1 25 26
M  V30 26 1 25 3
M  V30 27 1 11 6
M  V30 28 1 19 14
M  V30 29 1 21 9
M  V30 30 1 1 27
M  V30 31 1 1 28
M  V30 32 1 1 29
M  V30 33 1 4 30
M  V30 34 1 7 31
M  V30 35 1 8 32
M  V30 36 1 11 33
M  V30 37 1 13 34
M  V30 38 1 13 35
M  V30 39 1 13 36
M  V30 40 1 15 37
M  V30 41 1 16 38
M  V30 42 1 17 39
M  V30 43 1 18 40
M  V30 44 1 20 41
M  V30 45 1 23 42
M  V30 46 1 24 43
M  V30 47 1 26 44
M  V30 48 1 26 45
M  V30 END BOND
M  V30 END CTAB
M  END
>  <Dataset>  (732) 
ChEMBL_Kinases

>  <Ligand_Instance>  (732) 
nan

>  <PDB_ID>  (732) 
nan

>  <Standardized_SMILES>  (732) 
COc1cc(-c2ccc3c(c2)N(C)c2ccccc2NC3=O)ccc1N

>  <Name>  (732) 
nan

>  <Pocket>  (732) 
nan

>  <ATP_Site>  (732) 
nan

>  <Peripheral>  (732) 
nan

>  <Num_H_Atoms_ProtBoundConf>  (732) 
nan

>  <Num_Resolved_Atoms>  (732) 
nan

>  <Num_Not_Resolved_Atoms>  (732) 
nan

$$$$
CHEMBL245174
     RDKit          3D

  0  0  0  0  0  0  0  0  0  0999 V3000
M  V30 BEGIN CTAB
M  V30 COUNTS 37 39 0 0 0
M  V30 BEGIN ATOM
M  V30 1 N 0.378741 -6.955055 2.963915 0
M  V30 2 C 0.732333 -5.964702 2.484982 0
M  V30 3 C 1.193094 -4.747340 1.887329 0
M  V30 4 C 2.466482 -4.631155 1.380805 0
M  V30 5 N 2.902909 -3.502530 0.823326 0
M  V30 6 C 2.151933 -2.414271 0.714203 0
M  V30 7 N 2.643221 -1.225980 0.115637 0
M  V30 8 C 1.995288 0.017344 -0.085811 0
M  V30 9 C 0.704897 0.325831 0.277119 0
M  V30 10 C 0.068968 1.534535 0.083501 0
M  V30 11 C 0.801054 2.527825 -0.534226 0
M  V30 12 C 0.162603 3.847468 -0.766033 0
M  V30 13 C -0.547182 3.922599 -2.113326 0
M  V30 14 O -1.095847 5.211959 -2.190964 0
M  V30 15 C 2.100395 2.276781 -0.920675 0
M  V30 16 C 2.673713 1.046587 -0.696598 0
M  V30 17 N 0.915323 -2.551531 1.214711 0
M  V30 18 C 0.402050 -3.633782 1.783935 0
M  V30 19 C -0.957298 -3.627986 2.278879 0
M  V30 20 C -1.873090 -2.647621 2.268036 0
M  V30 21 C -3.113314 -2.882658 2.804335 0
M  V30 22 C -3.336044 -4.164625 3.337762 0
M  V30 23 S -1.731625 -5.014977 3.051001 0
M  V30 24 H 3.119756 -5.490788 1.445042 0
M  V30 25 H 3.647380 -1.286311 -0.230242 0
M  V30 26 H 0.103501 -0.424140 0.761305 0
M  V30 27 H -0.948316 1.701576 0.396460 0
M  V30 28 H 0.874742 4.689077 -0.707060 0
M  V30 29 H -0.624597 4.074905 -0.009959 0
M  V30 30 H 0.163328 3.775998 -2.939494 0
M  V30 31 H -1.377235 3.184972 -2.130252 0
M  V30 32 H -1.558213 5.462997 -1.360427 0
M  V30 33 H 2.669025 3.064955 -1.406351 0
M  V30 34 H 3.694261 0.924313 -1.026530 0
M  V30 35 H -1.625823 -1.686884 1.838897 0
M  V30 36 H -3.931199 -2.162520 2.849442 0
M  V30 37 H -4.247567 -4.531291 3.800297 0
M  V30 END ATOM
M  V30 BEGIN BOND
M  V30 1 3 1 2
M  V30 2 1 2 3
M  V30 3 2 3 4
M  V30 4 1 4 5
M  V30 5 2 5 6
M  V30 6 1 6 7
M  V30 7 1 7 8
M  V30 8 2 8 9
M  V30 9 1 9 10
M  V30 10 2 10 11
M  V30 11 1 11 12
M  V30 12 1 12 13
M  V30 13 1 13 14
M  V30 14 1 11 15
M  V30 15 2 15 16
M  V30 16 1 6 17
M  V30 17 2 17 18
M  V30 18 1 18 19
M  V30 19 2 19 20
M  V30 20 1 20 21
M  V30 21 2 21 22
M  V30 22 1 22 23
M  V30 23 1 18 3
M  V30 24 1 23 19
M  V30 25 1 16 8
M  V30 26 1 4 24
M  V30 27 1 7 25
M  V30 28 1 9 26
M  V30 29 1 10 27
M  V30 30 1 12 28
M  V30 31 1 12 29
M  V30 32 1 13 30
M  V30 33 1 13 31
M  V30 34 1 14 32
M  V30 35 1 15 33
M  V30 36 1 16 34
M  V30 37 1 20 35
M  V30 38 1 21 36
M  V30 39 1 22 37
M  V30 END BOND
M  V30 END CTAB
M  END
>  <Dataset>  (733) 
ChEMBL_Kinases

>  <Ligand_Instance>  (733) 
nan

>  <PDB_ID>  (733) 
nan

>  <Standardized_SMILES>  (733) 
N#Cc1cnc(Nc2ccc(CCO)cc2)nc1-c1cccs1

>  <Name>  (733) 
nan

>  <Pocket>  (733) 
nan

>  <ATP_Site>  (733) 
nan

>  <Peripheral>  (733) 
nan

>  <Num_H_Atoms_ProtBoundConf>  (733) 
nan

>  <Num_Resolved_Atoms>  (733) 
nan

>  <Num_Not_Resolved_Atoms>  (733) 
nan

$$$$
CHEMBL244973
     RDKit          3D

  0  0  0  0  0  0  0  0  0  0999 V3000
M  V30 BEGIN CTAB
M  V30 COUNTS 44 47 0 0 0
M  V30 BEGIN ATOM
M  V30 1 C 0.729059 -4.454577 3.234550 0
M  V30 2 O 0.794108 -4.982887 1.945481 0
M  V30 3 C 0.648021 -4.248096 0.779310 0
M  V30 4 C 0.414379 -2.873774 0.709543 0
M  V30 5 C 0.284412 -2.242007 -0.521875 0
M  V30 6 C 0.040855 -0.799618 -0.519050 0
M  V30 7 C -0.707415 -0.223349 -1.536541 0
M  V30 8 C -0.932701 1.141342 -1.526489 0
M  V30 9 C -0.401336 1.909716 -0.490971 0
M  V30 10 C 0.340299 1.321932 0.513000 0
M  V30 11 C 0.573628 -0.039579 0.516324 0
M  V30 12 N 0.940038 1.981515 1.625784 0
M  V30 13 C 0.694144 3.281142 2.183474 0
M  V30 14 C 1.231266 3.339971 3.459097 0
M  V30 15 C 1.067150 4.556202 4.130980 0
M  V30 16 C 0.400868 5.609675 3.517542 0
M  V30 17 C -0.123842 5.511019 2.235957 0
M  V30 18 C 0.030600 4.317520 1.561577 0
M  V30 19 N -0.549940 4.350409 0.265712 0
M  V30 20 C -0.770633 3.319355 -0.693421 0
M  V30 21 O -1.320995 3.634978 -1.793644 0
M  V30 22 C 0.384078 -2.962250 -1.695613 0
M  V30 23 C 0.615759 -4.329952 -1.672800 0
M  V30 24 C 0.736815 -4.907591 -0.428138 0
M  V30 25 C 0.981236 -6.340800 -0.340926 0
M  V30 26 N 1.093594 -7.138488 -1.502054 0
M  V30 27 O 1.119623 -7.042109 0.664486 0
M  V30 28 H 1.029709 -5.132485 4.026069 0
M  V30 29 H -0.256301 -3.962422 3.361782 0
M  V30 30 H 1.462907 -3.596616 3.262574 0
M  V30 31 H 0.343058 -2.347481 1.648528 0
M  V30 32 H -1.100125 -0.852726 -2.317970 0
M  V30 33 H -1.520750 1.546203 -2.338745 0
M  V30 34 H 1.164030 -0.499072 1.317949 0
M  V30 35 H 1.683610 1.379701 2.088071 0
M  V30 36 H 1.736240 2.512144 3.898987 0
M  V30 37 H 1.479891 4.620564 5.126839 0
M  V30 38 H 0.297240 6.533804 4.075586 0
M  V30 39 H -0.635436 6.335663 1.779097 0
M  V30 40 H -0.885806 5.289465 -0.073105 0
M  V30 41 H 0.279817 -2.452637 -2.661636 0
M  V30 42 H 0.700549 -4.930637 -2.568530 0
M  V30 43 H 1.115789 -7.706479 -2.364995 0
M  V30 44 H 0.190395 -7.097506 -2.004209 0
M  V30 END ATOM
M  V30 BEGIN BOND
M  V30 1 1 1 2
M  V30 2 1 2 3
M  V30 3 2 3 4
M  V30 4 1 4 5
M  V30 5 1 5 6
M  V30 6 2 6 7
M  V30 7 1 7 8
M  V30 8 2 8 9
M  V30 9 1 9 10
M  V30 10 2 10 11
M  V30 11 1 10 12
M  V30 12 1 12 13
M  V30 13 2 13 14
M  V30 14 1 14 15
M  V30 15 2 15 16
M  V30 16 1 16 17
M  V30 17 2 17 18
M  V30 18 1 18 19
M  V30 19 1 19 20
M  V30 20 2 20 21
M  V30 21 2 5 22
M  V30 22 1 22 23
M  V30 23 2 23 24
M  V30 24 1 24 25
M  V30 25 1 25 26
M  V30 26 2 25 27
M  V30 27 1 24 3
M  V30 28 1 11 6
M  V30 29 1 18 13
M  V30 30 1 20 9
M  V30 31 1 1 28
M  V30 32 1 1 29
M  V30 33 1 1 30
M  V30 34 1 4 31
M  V30 35 1 7 32
M  V30 36 1 8 33
M  V30 37 1 11 34
M  V30 38 1 12 35
M  V30 39 1 14 36
M  V30 40 1 15 37
M  V30 41 1 16 38
M  V30 42 1 17 39
M  V30 43 1 19 40
M  V30 44 1 22 41
M  V30 45 1 23 42
M  V30 46 1 26 43
M  V30 47 1 26 44
M  V30 END BOND
M  V30 END CTAB
M  END
>  <Dataset>  (734) 
ChEMBL_Kinases

>  <Ligand_Instance>  (734) 
nan

>  <PDB_ID>  (734) 
nan

>  <Standardized_SMILES>  (734) 
COc1cc(-c2ccc3c(c2)Nc2ccccc2NC3=O)ccc1C(N)=O

>  <Name>  (734) 
nan

>  <Pocket>  (734) 
nan

>  <ATP_Site>  (734) 
nan

>  <Peripheral>  (734) 
nan

>  <Num_H_Atoms_ProtBoundConf>  (734) 
nan

>  <Num_Resolved_Atoms>  (734) 
nan

>  <Num_Not_Resolved_Atoms>  (734) 
nan

$$$$
CHEMBL244839
     RDKit          3D

  0  0  0  0  0  0  0  0  0  0999 V3000
M  V30 BEGIN CTAB
M  V30 COUNTS 37 39 0 0 0
M  V30 BEGIN ATOM
M  V30 1 O 0.550856 -2.705449 2.456502 0
M  V30 2 C 1.252510 -2.035107 1.629839 0
M  V30 3 O 0.782142 -1.385229 2.735781 0
M  V30 4 C 1.804790 -2.616929 0.423146 0
M  V30 5 C 1.563817 -3.977139 0.272852 0
M  V30 6 C 2.093081 -4.591508 -0.821531 0
M  V30 7 C 2.820289 -3.790909 -1.674282 0
M  V30 8 C 3.065003 -2.455622 -1.539344 0
M  V30 9 C 2.532890 -1.827562 -0.437712 0
M  V30 10 N 2.772957 -0.439878 -0.265353 0
M  V30 11 C 1.888693 0.704313 -0.236437 0
M  V30 12 C 1.874336 1.631934 -1.291139 0
M  V30 13 C 1.010382 2.696641 -1.249736 0
M  V30 14 N 0.186575 2.855560 -0.217024 0
M  V30 15 C 0.162369 1.988022 0.825241 0
M  V30 16 N -0.564783 1.852219 2.040103 0
M  V30 17 C -1.747705 1.020692 1.971086 0
M  V30 18 C -2.141764 0.572234 0.701762 0
M  V30 19 C -3.278909 -0.245246 0.752926 0
M  V30 20 C -3.962665 -0.593069 1.903119 0
M  V30 21 C -3.485836 -0.094172 3.096298 0
M  V30 22 C -2.376340 0.717057 3.151223 0
M  V30 23 N 1.025467 0.984362 0.714778 0
M  V30 24 H 1.084893 -0.454669 3.047665 0
M  V30 25 H 0.986808 -4.545883 0.978041 0
M  V30 26 H 1.945443 -5.646710 -1.002184 0
M  V30 27 H 3.239281 -4.286062 -2.539079 0
M  V30 28 H 3.658344 -1.940315 -2.286006 0
M  V30 29 H 3.812842 -0.303398 -0.141657 0
M  V30 30 H 2.551183 1.497878 -2.141446 0
M  V30 31 H 0.938438 3.443162 -2.014221 0
M  V30 32 H -0.286162 2.307836 2.924862 0
M  V30 33 H -1.655682 0.806938 -0.227805 0
M  V30 34 H -3.711677 -0.672099 -0.141185 0
M  V30 35 H -4.837655 -1.225078 1.910008 0
M  V30 36 H -3.977096 -0.326764 4.048164 0
M  V30 37 H -1.979470 1.123525 4.085713 0
M  V30 END ATOM
M  V30 BEGIN BOND
M  V30 1 2 1 2
M  V30 2 1 2 3
M  V30 3 1 2 4
M  V30 4 2 4 5
M  V30 5 1 5 6
M  V30 6 2 6 7
M  V30 7 1 7 8
M  V30 8 2 8 9
M  V30 9 1 9 10
M  V30 10 1 10 11
M  V30 11 2 11 12
M  V30 12 1 12 13
M  V30 13 2 13 14
M  V30 14 1 14 15
M  V30 15 1 15 16
M  V30 16 1 16 17
M  V30 17 2 17 18
M  V30 18 1 18 19
M  V30 19 2 19 20
M  V30 20 1 20 21
M  V30 21 2 21 22
M  V30 22 2 15 23
M  V30 23 1 9 4
M  V30 24 1 23 11
M  V30 25 1 22 17
M  V30 26 1 3 24
M  V30 27 1 5 25
M  V30 28 1 6 26
M  V30 29 1 7 27
M  V30 30 1 8 28
M  V30 31 1 10 29
M  V30 32 1 12 30
M  V30 33 1 13 31
M  V30 34 1 16 32
M  V30 35 1 18 33
M  V30 36 1 19 34
M  V30 37 1 20 35
M  V30 38 1 21 36
M  V30 39 1 22 37
M  V30 END BOND
M  V30 END CTAB
M  END
>  <Dataset>  (735) 
ChEMBL_Kinases

>  <Ligand_Instance>  (735) 
nan

>  <PDB_ID>  (735) 
nan

>  <Standardized_SMILES>  (735) 
O=C(O)c1ccccc1Nc1ccnc(Nc2ccccc2)n1

>  <Name>  (735) 
nan

>  <Pocket>  (735) 
nan

>  <ATP_Site>  (735) 
nan

>  <Peripheral>  (735) 
nan

>  <Num_H_Atoms_ProtBoundConf>  (735) 
nan

>  <Num_Resolved_Atoms>  (735) 
nan

>  <Num_Not_Resolved_Atoms>  (735) 
nan

$$$$
CHEMBL244793
     RDKit          3D

  0  0  0  0  0  0  0  0  0  0999 V3000
M  V30 BEGIN CTAB
M  V30 COUNTS 37 39 0 0 0
M  V30 BEGIN ATOM
M  V30 1 O 0.011944 -5.508499 3.107783 0
M  V30 2 C 0.185480 -4.282088 2.844411 0
M  V30 3 O -1.099645 -3.832203 3.002277 0
M  V30 4 C 1.458978 -3.671861 2.490213 0
M  V30 5 C 2.526638 -4.561101 2.470781 0
M  V30 6 C 3.767115 -4.038121 2.147114 0
M  V30 7 C 3.962998 -2.698390 1.852468 0
M  V30 8 C 2.889250 -1.820824 1.874739 0
M  V30 9 C 1.678827 -2.345324 2.193522 0
M  V30 10 N 0.558787 -1.496109 2.219630 0
M  V30 11 C 0.532856 -0.081644 1.945590 0
M  V30 12 N 0.463737 0.284115 0.657929 0
M  V30 13 C 0.417570 1.520378 0.181215 0
M  V30 14 N 0.357194 1.672112 -1.230927 0
M  V30 15 C -0.903803 1.611735 -1.922305 0
M  V30 16 C -2.023504 1.433487 -1.141319 0
M  V30 17 C -3.228874 1.364087 -1.819818 0
M  V30 18 C -3.235588 1.474945 -3.202668 0
M  V30 19 C -2.105813 1.654013 -3.974101 0
M  V30 20 C -0.887985 1.724674 -3.296823 0
M  V30 21 N 0.443283 2.521191 1.104204 0
M  V30 22 C 0.512685 2.214031 2.408441 0
M  V30 23 C 0.561167 0.934945 2.911887 0
M  V30 24 F 0.629600 0.534787 4.200378 0
M  V30 25 H -1.835530 -4.000488 2.336516 0
M  V30 26 H 2.432253 -5.619826 2.692794 0
M  V30 27 H 4.670986 -4.660045 2.103519 0
M  V30 28 H 4.935700 -2.287766 1.599841 0
M  V30 29 H 2.971399 -0.762701 1.654582 0
M  V30 30 H -0.451420 -1.646774 2.425305 0
M  V30 31 H 1.278891 1.825646 -1.678764 0
M  V30 32 H -1.932783 1.356643 -0.070889 0
M  V30 33 H -4.126998 1.224249 -1.248754 0
M  V30 34 H -4.218873 1.410342 -3.694777 0
M  V30 35 H -2.155450 1.734213 -5.047443 0
M  V30 36 H 0.023273 1.862455 -3.822664 0
M  V30 37 H 0.533303 2.999291 3.169086 0
M  V30 END ATOM
M  V30 BEGIN BOND
M  V30 1 2 1 2
M  V30 2 1 2 3
M  V30 3 1 2 4
M  V30 4 2 4 5
M  V30 5 1 5 6
M  V30 6 2 6 7
M  V30 7 1 7 8
M  V30 8 2 8 9
M  V30 9 1 9 10
M  V30 10 1 10 11
M  V30 11 2 11 12
M  V30 12 1 12 13
M  V30 13 1 13 14
M  V30 14 1 14 15
M  V30 15 2 15 16
M  V30 16 1 16 17
M  V30 17 2 17 18
M  V30 18 1 18 19
M  V30 19 2 19 20
M  V30 20 2 13 21
M  V30 21 1 21 22
M  V30 22 2 22 23
M  V30 23 1 23 24
M  V30 24 1 9 4
M  V30 25 1 23 11
M  V30 26 1 20 15
M  V30 27 1 3 25
M  V30 28 1 5 26
M  V30 29 1 6 27
M  V30 30 1 7 28
M  V30 31 1 8 29
M  V30 32 1 10 30
M  V30 33 1 14 31
M  V30 34 1 16 32
M  V30 35 1 17 33
M  V30 36 1 18 34
M  V30 37 1 19 35
M  V30 38 1 20 36
M  V30 39 1 22 37
M  V30 END BOND
M  V30 END CTAB
M  END
>  <Dataset>  (736) 
ChEMBL_Kinases

>  <Ligand_Instance>  (736) 
nan

>  <PDB_ID>  (736) 
nan

>  <Standardized_SMILES>  (736) 
O=C(O)c1ccccc1Nc1nc(Nc2ccccc2)ncc1F

>  <Name>  (736) 
nan

>  <Pocket>  (736) 
nan

>  <ATP_Site>  (736) 
nan

>  <Peripheral>  (736) 
nan

>  <Num_H_Atoms_ProtBoundConf>  (736) 
nan

>  <Num_Resolved_Atoms>  (736) 
nan

>  <Num_Not_Resolved_Atoms>  (736) 
nan

$$$$
CHEMBL244756
     RDKit          3D

  0  0  0  0  0  0  0  0  0  0999 V3000
M  V30 BEGIN CTAB
M  V30 COUNTS 45 48 0 0 0
M  V30 BEGIN ATOM
M  V30 1 C -0.334502 -4.541415 2.662193 0
M  V30 2 O -0.052800 -5.034398 1.379979 0
M  V30 3 C 0.139538 -4.185200 0.299438 0
M  V30 4 C 0.069821 -2.811645 0.400240 0
M  V30 5 C 0.267050 -2.000629 -0.697796 0
M  V30 6 C 0.198645 -0.542576 -0.615388 0
M  V30 7 C -0.228612 0.235297 -1.674256 0
M  V30 8 C -0.305562 1.615325 -1.632323 0
M  V30 9 C 0.080036 2.186998 -0.437705 0
M  V30 10 C 0.516143 1.468277 0.657264 0
M  V30 11 C 0.576642 0.088261 0.568923 0
M  V30 12 N 0.935632 1.976429 1.935136 0
M  V30 13 C 0.634814 3.244715 2.542253 0
M  V30 14 C 0.764743 3.105600 3.911943 0
M  V30 15 C 0.509552 4.245569 4.682578 0
M  V30 16 C 0.152512 5.405999 4.026455 0
M  V30 17 C 0.026240 5.531841 2.658044 0
M  V30 18 C 0.277946 4.403318 1.880892 0
M  V30 19 N 0.131479 4.596885 0.478922 0
M  V30 20 C -0.061406 3.641758 -0.563638 0
M  V30 21 O -0.380442 4.161525 -1.665997 0
M  V30 22 C 0.540404 -2.560133 -1.928562 0
M  V30 23 C 0.600224 -3.937106 -1.980774 0
M  V30 24 C 0.408910 -4.806965 -0.901081 0
M  V30 25 C 0.515076 -6.234227 -1.169405 0
M  V30 26 C 0.321965 -7.216781 -0.061995 0
M  V30 27 O 0.767047 -6.687048 -2.314104 0
M  V30 28 H 0.625811 -4.257143 3.121797 0
M  V30 29 H -0.805640 -5.380396 3.245798 0
M  V30 30 H -1.013109 -3.663451 2.674490 0
M  V30 31 H -0.143977 -2.362919 1.360233 0
M  V30 32 H -0.518671 -0.280454 -2.588963 0
M  V30 33 H -0.640764 2.220497 -2.464038 0
M  V30 34 H 0.918007 -0.433698 1.433197 0
M  V30 35 H 1.546924 1.304587 2.479225 0
M  V30 36 H 1.047915 2.167979 4.364056 0
M  V30 37 H 0.592155 4.210805 5.767027 0
M  V30 38 H -0.045097 6.294728 4.647069 0
M  V30 39 H -0.249020 6.424734 2.146200 0
M  V30 40 H 0.180066 5.624333 0.218125 0
M  V30 41 H 0.698960 -1.966733 -2.801209 0
M  V30 42 H 0.816631 -4.359554 -2.958273 0
M  V30 43 H 0.394289 -8.260251 -0.431886 0
M  V30 44 H -0.696643 -7.027261 0.351806 0
M  V30 45 H 1.049900 -6.978481 0.714255 0
M  V30 END ATOM
M  V30 BEGIN BOND
M  V30 1 1 1 2
M  V30 2 1 2 3
M  V30 3 2 3 4
M  V30 4 1 4 5
M  V30 5 1 5 6
M  V30 6 2 6 7
M  V30 7 1 7 8
M  V30 8 2 8 9
M  V30 9 1 9 10
M  V30 10 2 10 11
M  V30 11 1 10 12
M  V30 12 1 12 13
M  V30 13 2 13 14
M  V30 14 1 14 15
M  V30 15 2 15 16
M  V30 16 1 16 17
M  V30 17 2 17 18
M  V30 18 1 18 19
M  V30 19 1 19 20
M  V30 20 2 20 21
M  V30 21 2 5 22
M  V30 22 1 22 23
M  V30 23 2 23 24
M  V30 24 1 24 25
M  V30 25 1 25 26
M  V30 26 2 25 27
M  V30 27 1 24 3
M  V30 28 1 11 6
M  V30 29 1 18 13
M  V30 30 1 20 9
M  V30 31 1 1 28
M  V30 32 1 1 29
M  V30 33 1 1 30
M  V30 34 1 4 31
M  V30 35 1 7 32
M  V30 36 1 8 33
M  V30 37 1 11 34
M  V30 38 1 12 35
M  V30 39 1 14 36
M  V30 40 1 15 37
M  V30 41 1 16 38
M  V30 42 1 17 39
M  V30 43 1 19 40
M  V30 44 1 22 41
M  V30 45 1 23 42
M  V30 46 1 26 43
M  V30 47 1 26 44
M  V30 48 1 26 45
M  V30 END BOND
M  V30 END CTAB
M  END
>  <Dataset>  (737) 
ChEMBL_Kinases

>  <Ligand_Instance>  (737) 
nan

>  <PDB_ID>  (737) 
nan

>  <Standardized_SMILES>  (737) 
COc1cc(-c2ccc3c(c2)Nc2ccccc2NC3=O)ccc1C(C)=O

>  <Name>  (737) 
nan

>  <Pocket>  (737) 
nan

>  <ATP_Site>  (737) 
nan

>  <Peripheral>  (737) 
nan

>  <Num_H_Atoms_ProtBoundConf>  (737) 
nan

>  <Num_Resolved_Atoms>  (737) 
nan

>  <Num_Not_Resolved_Atoms>  (737) 
nan

$$$$
CHEMBL244695
     RDKit          3D

  0  0  0  0  0  0  0  0  0  0999 V3000
M  V30 BEGIN CTAB
M  V30 COUNTS 32 34 0 0 0
M  V30 BEGIN ATOM
M  V30 1 O 3.027762 -3.006011 4.653485 0
M  V30 2 C 2.787123 -3.007866 3.430158 0
M  V30 3 O 3.414300 -3.920983 2.583203 0
M  V30 4 C 1.833503 -2.038764 2.874765 0
M  V30 5 C 1.228612 -1.147755 3.737018 0
M  V30 6 C 0.319499 -0.202785 3.300177 0
M  V30 7 C 0.069783 -0.227705 1.929562 0
M  V30 8 C 0.647488 -1.095464 1.032183 0
M  V30 9 C 1.561644 -2.034717 1.519652 0
M  V30 10 C 0.334587 -1.060658 -0.395060 0
M  V30 11 C -0.929867 -1.807985 -0.747157 0
M  V30 12 C -1.479934 -1.244976 -1.843940 0
M  V30 13 C -0.602281 -0.098390 -2.266668 0
M  V30 14 C -0.056793 0.311057 -0.913506 0
M  V30 15 C -1.170693 0.804292 -0.051473 0
M  V30 16 C -1.550168 2.221399 -0.341602 0
M  V30 17 O -1.555369 3.099350 0.557743 0
M  V30 18 O -1.901760 2.554659 -1.641285 0
M  V30 19 N -0.841486 0.693389 1.376988 0
M  V30 20 H 3.639112 -4.841663 2.976515 0
M  V30 21 H 1.454282 -1.168274 4.786442 0
M  V30 22 H -0.154935 0.492092 3.958971 0
M  V30 23 H 2.044183 -2.734316 0.880970 0
M  V30 24 H 1.124077 -1.524300 -1.013333 0
M  V30 25 H -1.221271 -2.645486 -0.121476 0
M  V30 26 H -2.383397 -1.686807 -2.193409 0
M  V30 27 H 0.231338 -0.562993 -2.830761 0
M  V30 28 H -1.126292 0.683029 -2.807195 0
M  V30 29 H 0.800558 0.995037 -0.987082 0
M  V30 30 H -2.042533 0.127659 -0.198237 0
M  V30 31 H -2.467671 3.369671 -1.853032 0
M  V30 32 H -1.335512 1.361964 2.014756 0
M  V30 END ATOM
M  V30 BEGIN BOND
M  V30 1 2 1 2
M  V30 2 1 2 3
M  V30 3 1 2 4
M  V30 4 2 4 5
M  V30 5 1 5 6
M  V30 6 2 6 7
M  V30 7 1 7 8
M  V30 8 2 8 9
M  V30 9 1 8 10
M  V30 10 1 10 11
M  V30 11 2 11 12
M  V30 12 1 12 13
M  V30 13 1 13 14
M  V30 14 1 14 15
M  V30 15 1 15 16
M  V30 16 2 16 17
M  V30 17 1 16 18
M  V30 18 1 15 19
M  V30 19 1 9 4
M  V30 20 1 14 10
M  V30 21 1 19 7
M  V30 22 1 3 20
M  V30 23 1 5 21
M  V30 24 1 6 22
M  V30 25 1 9 23
M  V30 26 1 10 24
M  V30 27 1 11 25
M  V30 28 1 12 26
M  V30 29 1 13 27
M  V30 30 1 13 28
M  V30 31 1 14 29
M  V30 32 1 15 30
M  V30 33 1 18 31
M  V30 34 1 19 32
M  V30 END BOND
M  V30 END CTAB
M  END
>  <Dataset>  (738) 
ChEMBL_Kinases

>  <Ligand_Instance>  (738) 
nan

>  <PDB_ID>  (738) 
nan

>  <Standardized_SMILES>  (738) 
O=C(O)c1ccc2c(c1)C1C=CCC1C(C(=O)O)N2

>  <Name>  (738) 
nan

>  <Pocket>  (738) 
nan

>  <ATP_Site>  (738) 
nan

>  <Peripheral>  (738) 
nan

>  <Num_H_Atoms_ProtBoundConf>  (738) 
nan

>  <Num_Resolved_Atoms>  (738) 
nan

>  <Num_Not_Resolved_Atoms>  (738) 
nan

$$$$
CHEMBL244628
     RDKit          3D

  0  0  0  0  0  0  0  0  0  0999 V3000
M  V30 BEGIN CTAB
M  V30 COUNTS 43 45 0 0 0
M  V30 BEGIN ATOM
M  V30 1 O -4.906739 -4.367667 -1.317597 0
M  V30 2 C -3.760036 -3.828446 -1.400516 0
M  V30 3 O -3.349411 -4.518395 -0.281475 0
M  V30 4 C -3.319645 -2.875684 -2.403285 0
M  V30 5 C -4.279000 -2.557919 -3.328239 0
M  V30 6 C -3.993431 -1.674206 -4.318887 0
M  V30 7 C -2.736720 -1.126489 -4.354644 0
M  V30 8 C -1.726631 -1.401366 -3.457646 0
M  V30 9 C -2.075126 -2.299800 -2.481613 0
M  V30 10 N -1.181137 -2.716813 -1.468705 0
M  V30 11 C 0.159641 -2.489056 -1.073929 0
M  V30 12 C 1.280192 -3.261718 -1.379834 0
M  V30 13 C 2.520236 -2.881368 -0.898424 0
M  V30 14 N 2.676715 -1.780895 -0.139010 0
M  V30 15 C 1.584146 -1.017714 0.165109 0
M  V30 16 N 1.755164 0.161550 0.987774 0
M  V30 17 C 0.503203 0.902427 1.209479 0
M  V30 18 C 0.026785 1.350605 -0.131276 0
M  V30 19 C -0.538462 2.750659 -0.139624 0
M  V30 20 C 0.412624 3.765339 0.448845 0
M  V30 21 C 1.372069 3.162618 1.455754 0
M  V30 22 C 0.639896 2.039139 2.157536 0
M  V30 23 N 0.426762 -1.416939 -0.313132 0
M  V30 24 H -3.243210 -4.142120 0.652000 0
M  V30 25 H -5.280611 -2.971827 -3.330340 0
M  V30 26 H -4.735490 -1.390534 -5.082166 0
M  V30 27 H -2.523301 -0.417785 -5.158674 0
M  V30 28 H -0.734143 -0.985714 -3.461617 0
M  V30 29 H -1.376079 -3.379858 -0.698435 0
M  V30 30 H 1.078512 -4.133655 -1.995659 0
M  V30 31 H 3.359051 -3.525224 -1.170050 0
M  V30 32 H 2.707530 0.382441 1.341082 0
M  V30 33 H -0.253857 0.179574 1.631583 0
M  V30 34 H 0.889639 1.381083 -0.859966 0
M  V30 35 H -0.718819 0.678049 -0.598513 0
M  V30 36 H -0.727137 2.987343 -1.223420 0
M  V30 37 H -1.542107 2.773450 0.369091 0
M  V30 38 H 1.023378 4.259842 -0.362368 0
M  V30 39 H -0.203559 4.555799 0.936948 0
M  V30 40 H 1.717144 3.920711 2.190067 0
M  V30 41 H 2.242141 2.706528 0.898939 0
M  V30 42 H -0.392424 2.341922 2.446498 0
M  V30 43 H 1.134757 1.713497 3.096926 0
M  V30 END ATOM
M  V30 BEGIN BOND
M  V30 1 2 1 2
M  V30 2 1 2 3
M  V30 3 1 2 4
M  V30 4 2 4 5
M  V30 5 1 5 6
M  V30 6 2 6 7
M  V30 7 1 7 8
M  V30 8 2 8 9
M  V30 9 1 9 10
M  V30 10 1 10 11
M  V30 11 2 11 12
M  V30 12 1 12 13
M  V30 13 2 13 14
M  V30 14 1 14 15
M  V30 15 1 15 16
M  V30 16 1 16 17
M  V30 17 1 17 18
M  V30 18 1 18 19
M  V30 19 1 19 20
M  V30 20 1 20 21
M  V30 21 1 21 22
M  V30 22 2 15 23
M  V30 23 1 9 4
M  V30 24 1 23 11
M  V30 25 1 22 17
M  V30 26 1 3 24
M  V30 27 1 5 25
M  V30 28 1 6 26
M  V30 29 1 7 27
M  V30 30 1 8 28
M  V30 31 1 10 29
M  V30 32 1 12 30
M  V30 33 1 13 31
M  V30 34 1 16 32
M  V30 35 1 17 33
M  V30 36 1 18 34
M  V30 37 1 18 35
M  V30 38 1 19 36
M  V30 39 1 19 37
M  V30 40 1 20 38
M  V30 41 1 20 39
M  V30 42 1 21 40
M  V30 43 1 21 41
M  V30 44 1 22 42
M  V30 45 1 22 43
M  V30 END BOND
M  V30 END CTAB
M  END
>  <Dataset>  (739) 
ChEMBL_Kinases

>  <Ligand_Instance>  (739) 
nan

>  <PDB_ID>  (739) 
nan

>  <Standardized_SMILES>  (739) 
O=C(O)c1ccccc1Nc1ccnc(NC2CCCCC2)n1

>  <Name>  (739) 
nan

>  <Pocket>  (739) 
nan

>  <ATP_Site>  (739) 
nan

>  <Peripheral>  (739) 
nan

>  <Num_H_Atoms_ProtBoundConf>  (739) 
nan

>  <Num_Resolved_Atoms>  (739) 
nan

>  <Num_Not_Resolved_Atoms>  (739) 
nan

$$$$
CHEMBL244626
     RDKit          3D

  0  0  0  0  0  0  0  0  0  0999 V3000
M  V30 BEGIN CTAB
M  V30 COUNTS 36 38 0 0 0
M  V30 BEGIN ATOM
M  V30 1 O 1.152065 0.067962 2.815081 0
M  V30 2 C 0.910257 -1.141976 2.617267 0
M  V30 3 O 0.086143 -1.541443 3.656389 0
M  V30 4 C 1.330900 -2.062761 1.569485 0
M  V30 5 C 0.924718 -3.374471 1.653391 0
M  V30 6 C 1.348809 -4.253067 0.679449 0
M  V30 7 C 2.156438 -3.902149 -0.377130 0
M  V30 8 C 2.515403 -2.570887 -0.384515 0
M  V30 9 C 2.138040 -1.605223 0.553204 0
M  V30 10 N 2.602251 -0.273907 0.394787 0
M  V30 11 C 1.998921 0.995652 0.171317 0
M  V30 12 C 2.798583 2.111462 0.140332 0
M  V30 13 C 2.180672 3.317805 -0.095255 0
M  V30 14 N 0.834355 3.426929 -0.292444 0
M  V30 15 C 0.058868 2.315159 -0.258684 0
M  V30 16 O -1.324297 2.360998 -0.453000 0
M  V30 17 C -2.036596 1.147362 -0.396892 0
M  V30 18 C -2.334181 0.264281 -1.409600 0
M  V30 19 C -3.049151 -0.862553 -1.099820 0
M  V30 20 C -3.474535 -1.140752 0.165093 0
M  V30 21 C -3.180518 -0.258567 1.192134 0
M  V30 22 C -2.457335 0.892325 0.909859 0
M  V30 23 N 0.681246 1.161042 -0.029070 0
M  V30 24 H 0.159757 -1.226848 4.616439 0
M  V30 25 H 0.281599 -3.713903 2.471379 0
M  V30 26 H 1.020764 -5.287575 0.757556 0
M  V30 27 H 2.500988 -4.572230 -1.150536 0
M  V30 28 H 3.162351 -2.226589 -1.206419 0
M  V30 29 H 3.638936 -0.350270 0.479364 0
M  V30 30 H 3.861160 1.997814 0.299563 0
M  V30 31 H 2.794098 4.211217 -0.124010 0
M  V30 32 H -1.953930 0.577874 -2.363215 0
M  V30 33 H -3.261564 -1.533498 -1.934339 0
M  V30 34 H -4.028939 -2.057105 0.288611 0
M  V30 35 H -3.543382 -0.535882 2.160482 0
M  V30 36 H -2.279229 1.516901 1.778729 0
M  V30 END ATOM
M  V30 BEGIN BOND
M  V30 1 2 1 2
M  V30 2 1 2 3
M  V30 3 1 2 4
M  V30 4 2 4 5
M  V30 5 1 5 6
M  V30 6 2 6 7
M  V30 7 1 7 8
M  V30 8 2 8 9
M  V30 9 1 9 10
M  V30 10 1 10 11
M  V30 11 2 11 12
M  V30 12 1 12 13
M  V30 13 2 13 14
M  V30 14 1 14 15
M  V30 15 1 15 16
M  V30 16 1 16 17
M  V30 17 2 17 18
M  V30 18 1 18 19
M  V30 19 2 19 20
M  V30 20 1 20 21
M  V30 21 2 21 22
M  V30 22 2 15 23
M  V30 23 1 9 4
M  V30 24 1 23 11
M  V30 25 1 22 17
M  V30 26 1 3 24
M  V30 27 1 5 25
M  V30 28 1 6 26
M  V30 29 1 7 27
M  V30 30 1 8 28
M  V30 31 1 10 29
M  V30 32 1 12 30
M  V30 33 1 13 31
M  V30 34 1 18 32
M  V30 35 1 19 33
M  V30 36 1 20 34
M  V30 37 1 21 35
M  V30 38 1 22 36
M  V30 END BOND
M  V30 END CTAB
M  END
>  <Dataset>  (740) 
ChEMBL_Kinases

>  <Ligand_Instance>  (740) 
nan

>  <PDB_ID>  (740) 
nan

>  <Standardized_SMILES>  (740) 
O=C(O)c1ccccc1Nc1ccnc(Oc2ccccc2)n1

>  <Name>  (740) 
nan

>  <Pocket>  (740) 
nan

>  <ATP_Site>  (740) 
nan

>  <Peripheral>  (740) 
nan

>  <Num_H_Atoms_ProtBoundConf>  (740) 
nan

>  <Num_Resolved_Atoms>  (740) 
nan

>  <Num_Not_Resolved_Atoms>  (740) 
nan

$$$$
CHEMBL244581
     RDKit          3D

  0  0  0  0  0  0  0  0  0  0999 V3000
M  V30 BEGIN CTAB
M  V30 COUNTS 43 46 0 0 0
M  V30 BEGIN ATOM
M  V30 1 O 3.865584 1.440966 2.162419 0
M  V30 2 C 2.813992 1.239445 1.488081 0
M  V30 3 O 2.166611 1.051892 2.686778 0
M  V30 4 C 2.718405 1.276182 0.057011 0
M  V30 5 C 3.896023 1.597849 -0.580508 0
M  V30 6 C 3.884388 1.684285 -1.954836 0
M  V30 7 C 5.039100 2.004375 -2.653476 0
M  V30 8 C 5.000162 2.083860 -4.030590 0
M  V30 9 C 3.811052 1.843310 -4.690953 0
M  V30 10 C 2.634869 1.518929 -4.003331 0
M  V30 11 C 2.687030 1.442457 -2.624764 0
M  V30 12 C 1.495189 1.117711 -2.000699 0
M  V30 13 C 1.546912 1.040399 -0.624353 0
M  V30 14 N 0.339257 0.714318 0.044786 0
M  V30 15 C 0.093970 -0.437504 0.839536 0
M  V30 16 C 1.012637 -1.440840 1.012547 0
M  V30 17 C 0.619676 -2.488997 1.811746 0
M  V30 18 N -0.598051 -2.490371 2.369333 0
M  V30 19 C -1.499837 -1.527799 2.212737 0
M  V30 20 N -2.797600 -1.482257 2.779216 0
M  V30 21 C -3.392935 -2.452879 3.619078 0
M  V30 22 C -2.841315 -3.641462 4.037082 0
M  V30 23 C -3.475211 -4.541075 4.857283 0
M  V30 24 C -4.730086 -4.274168 5.305270 0
M  V30 25 C -5.351649 -3.103286 4.930888 0
M  V30 26 C -4.663926 -2.242887 4.107512 0
M  V30 27 N -1.099323 -0.521958 1.435110 0
M  V30 28 H 2.039935 0.172776 3.163864 0
M  V30 29 H 4.847805 1.793648 -0.100669 0
M  V30 30 H 5.954029 2.186559 -2.096654 0
M  V30 31 H 5.881430 2.331131 -4.613680 0
M  V30 32 H 3.825457 1.916988 -5.777687 0
M  V30 33 H 1.765755 1.352578 -4.631748 0
M  V30 34 H 0.591150 0.938593 -2.566000 0
M  V30 35 H -0.361969 1.446233 -0.126379 0
M  V30 36 H 1.977107 -1.383590 0.537989 0
M  V30 37 H 1.287631 -3.319909 1.997577 0
M  V30 38 H -3.389146 -0.641167 2.556816 0
M  V30 39 H -1.855458 -3.898887 3.711397 0
M  V30 40 H -2.964248 -5.471219 5.146024 0
M  V30 41 H -5.237397 -4.979025 5.953441 0
M  V30 42 H -6.349856 -2.892296 5.288256 0
M  V30 43 H -5.212185 -1.342289 3.853340 0
M  V30 END ATOM
M  V30 BEGIN BOND
M  V30 1 2 1 2
M  V30 2 1 2 3
M  V30 3 1 2 4
M  V30 4 2 4 5
M  V30 5 1 5 6
M  V30 6 2 6 7
M  V30 7 1 7 8
M  V30 8 2 8 9
M  V30 9 1 9 10
M  V30 10 2 10 11
M  V30 11 1 11 12
M  V30 12 2 12 13
M  V30 13 1 13 14
M  V30 14 1 14 15
M  V30 15 2 15 16
M  V30 16 1 16 17
M  V30 17 2 17 18
M  V30 18 1 18 19
M  V30 19 1 19 20
M  V30 20 1 20 21
M  V30 21 2 21 22
M  V30 22 1 22 23
M  V30 23 2 23 24
M  V30 24 1 24 25
M  V30 25 2 25 26
M  V30 26 2 19 27
M  V30 27 1 13 4
M  V30 28 1 27 15
M  V30 29 1 11 6
M  V30 30 1 26 21
M  V30 31 1 3 28
M  V30 32 1 5 29
M  V30 33 1 7 30
M  V30 34 1 8 31
M  V30 35 1 9 32
M  V30 36 1 10 33
M  V30 37 1 12 34
M  V30 38 1 14 35
M  V30 39 1 16 36
M  V30 40 1 17 37
M  V30 41 1 20 38
M  V30 42 1 22 39
M  V30 43 1 23 40
M  V30 44 1 24 41
M  V30 45 1 25 42
M  V30 46 1 26 43
M  V30 END BOND
M  V30 END CTAB
M  END
>  <Dataset>  (741) 
ChEMBL_Kinases

>  <Ligand_Instance>  (741) 
nan

>  <PDB_ID>  (741) 
nan

>  <Standardized_SMILES>  (741) 
O=C(O)c1cc2ccccc2cc1Nc1ccnc(Nc2ccccc2)n1

>  <Name>  (741) 
nan

>  <Pocket>  (741) 
nan

>  <ATP_Site>  (741) 
nan

>  <Peripheral>  (741) 
nan

>  <Num_H_Atoms_ProtBoundConf>  (741) 
nan

>  <Num_Resolved_Atoms>  (741) 
nan

>  <Num_Not_Resolved_Atoms>  (741) 
nan

$$$$
CHEMBL244580
     RDKit          3D

  0  0  0  0  0  0  0  0  0  0999 V3000
M  V30 BEGIN CTAB
M  V30 COUNTS 42 45 0 0 0
M  V30 BEGIN ATOM
M  V30 1 O 2.148847 1.299667 4.222649 0
M  V30 2 C 2.872534 0.299799 4.231559 0
M  V30 3 O 3.220289 -0.093060 5.515346 0
M  V30 4 C 3.358913 -0.451264 3.082523 0
M  V30 5 C 4.164780 -1.551997 3.275565 0
M  V30 6 C 4.640229 -2.284665 2.200389 0
M  V30 7 C 4.301541 -1.907192 0.906403 0
M  V30 8 C 3.487515 -0.798985 0.664861 0
M  V30 9 C 3.052833 -0.119433 1.781698 0
M  V30 10 N 2.231820 0.996086 1.502865 0
M  V30 11 C 1.886336 1.368389 0.174046 0
M  V30 12 C 2.624332 2.207549 -0.629292 0
M  V30 13 C 2.172799 2.485349 -1.892991 0
M  V30 14 N 1.029851 1.939046 -2.319987 0
M  V30 15 C 0.279633 1.117701 -1.573880 0
M  V30 16 N -0.922082 0.579317 -2.100218 0
M  V30 17 C -1.856472 -0.299410 -1.497689 0
M  V30 18 C -2.983222 -0.722847 -2.158632 0
M  V30 19 C -3.912711 -1.561479 -1.639013 0
M  V30 20 C -3.749950 -2.043921 -0.360255 0
M  V30 21 N -4.654622 -2.880149 0.188209 0
M  V30 22 C -4.487002 -3.354157 1.454674 0
M  V30 23 C -3.386667 -3.000863 2.231109 0
M  V30 24 C -2.471173 -2.144469 1.654147 0
M  V30 25 C -2.647285 -1.671372 0.377785 0
M  V30 26 C -1.752605 -0.816681 -0.225831 0
M  V30 27 N 0.759302 0.877986 -0.353996 0
M  V30 28 H 2.885929 0.318266 6.368242 0
M  V30 29 H 4.409772 -1.818429 4.309287 0
M  V30 30 H 5.269141 -3.139124 2.416052 0
M  V30 31 H 4.694983 -2.509177 0.082375 0
M  V30 32 H 3.230031 -0.513753 -0.345225 0
M  V30 33 H 1.708979 1.758875 1.980898 0
M  V30 34 H 3.543626 2.612742 -0.210004 0
M  V30 35 H 2.733670 3.139406 -2.538901 0
M  V30 36 H -1.170726 0.870200 -3.093082 0
M  V30 37 H -3.166827 -0.371507 -3.180340 0
M  V30 38 H -4.780023 -1.857637 -2.210824 0
M  V30 39 H -5.196812 -4.026353 1.920832 0
M  V30 40 H -3.206908 -3.341870 3.224051 0
M  V30 41 H -1.589022 -1.826413 2.201872 0
M  V30 42 H -0.908687 -0.556719 0.394437 0
M  V30 END ATOM
M  V30 BEGIN BOND
M  V30 1 2 1 2
M  V30 2 1 2 3
M  V30 3 1 2 4
M  V30 4 2 4 5
M  V30 5 1 5 6
M  V30 6 2 6 7
M  V30 7 1 7 8
M  V30 8 2 8 9
M  V30 9 1 9 10
M  V30 10 1 10 11
M  V30 11 2 11 12
M  V30 12 1 12 13
M  V30 13 2 13 14
M  V30 14 1 14 15
M  V30 15 1 15 16
M  V30 16 1 16 17
M  V30 17 2 17 18
M  V30 18 1 18 19
M  V30 19 2 19 20
M  V30 20 1 20 21
M  V30 21 2 21 22
M  V30 22 1 22 23
M  V30 23 2 23 24
M  V30 24 1 24 25
M  V30 25 2 25 26
M  V30 26 2 15 27
M  V30 27 1 9 4
M  V30 28 1 27 11
M  V30 29 1 26 17
M  V30 30 1 25 20
M  V30 31 1 3 28
M  V30 32 1 5 29
M  V30 33 1 6 30
M  V30 34 1 7 31
M  V30 35 1 8 32
M  V30 36 1 10 33
M  V30 37 1 12 34
M  V30 38 1 13 35
M  V30 39 1 16 36
M  V30 40 1 18 37
M  V30 41 1 19 38
M  V30 42 1 22 39
M  V30 43 1 23 40
M  V30 44 1 24 41
M  V30 45 1 26 42
M  V30 END BOND
M  V30 END CTAB
M  END
>  <Dataset>  (742) 
ChEMBL_Kinases

>  <Ligand_Instance>  (742) 
nan

>  <PDB_ID>  (742) 
nan

>  <Standardized_SMILES>  (742) 
O=C(O)c1ccccc1Nc1ccnc(Nc2ccc3ncccc3c2)n1

>  <Name>  (742) 
nan

>  <Pocket>  (742) 
nan

>  <ATP_Site>  (742) 
nan

>  <Peripheral>  (742) 
nan

>  <Num_H_Atoms_ProtBoundConf>  (742) 
nan

>  <Num_Resolved_Atoms>  (742) 
nan

>  <Num_Not_Resolved_Atoms>  (742) 
nan

$$$$
CHEMBL244488
     RDKit          3D

  0  0  0  0  0  0  0  0  0  0999 V3000
M  V30 BEGIN CTAB
M  V30 COUNTS 36 37 0 0 0
M  V30 BEGIN ATOM
M  V30 1 O 1.722295 -0.594180 0.280952 0
M  V30 2 C 1.537363 0.199913 1.240118 0
M  V30 3 N 2.165965 -0.167031 2.460343 0
M  V30 4 O 2.838743 -1.344635 2.258653 0
M  V30 5 C 1.909518 -2.356507 2.566748 0
M  V30 6 C 2.593141 -3.688785 2.362867 0
M  V30 7 O 1.741530 -4.742006 2.646621 0
M  V30 8 C 0.722028 1.391050 1.031392 0
M  V30 9 C 0.497824 2.283462 2.059513 0
M  V30 10 C -0.277288 3.404326 1.839312 0
M  V30 11 C -0.802092 3.577296 0.564316 0
M  V30 12 F -1.580206 4.657311 0.256421 0
M  V30 13 C -0.580083 2.684091 -0.472062 0
M  V30 14 F -1.115499 2.892187 -1.712058 0
M  V30 15 C 0.206794 1.551317 -0.238706 0
M  V30 16 N 0.436291 0.632223 -1.302229 0
M  V30 17 C -0.508740 -0.427114 -1.425411 0
M  V30 18 C -1.562380 -0.504721 -0.537150 0
M  V30 19 C -2.540342 -1.503846 -0.574163 0
M  V30 20 C -2.430963 -2.462575 -1.564738 0
M  V30 21 I -3.853076 -4.011138 -1.707447 0
M  V30 22 C -1.371201 -2.379836 -2.453817 0
M  V30 23 C -0.412987 -1.392563 -2.409815 0
M  V30 24 F 0.607006 -1.324345 -3.276146 0
M  V30 25 H 2.033539 0.468925 3.276327 0
M  V30 26 H 1.507420 -2.254132 3.590618 0
M  V30 27 H 1.076555 -2.228692 1.865597 0
M  V30 28 H 3.504238 -3.751670 2.981656 0
M  V30 29 H 2.881301 -3.748448 1.306005 0
M  V30 30 H 1.941575 -5.481594 2.039962 0
M  V30 31 H 0.903147 2.149410 3.043450 0
M  V30 32 H -0.472443 4.123898 2.624296 0
M  V30 33 H 1.221957 0.652734 -1.999361 0
M  V30 34 H -1.699801 0.220717 0.262192 0
M  V30 35 H -3.350320 -1.519448 0.149626 0
M  V30 36 H -1.277144 -3.132467 -3.238898 0
M  V30 END ATOM
M  V30 BEGIN BOND
M  V30 1 2 1 2
M  V30 2 1 2 3
M  V30 3 1 3 4
M  V30 4 1 4 5
M  V30 5 1 5 6
M  V30 6 1 6 7
M  V30 7 1 2 8
M  V30 8 2 8 9
M  V30 9 1 9 10
M  V30 10 2 10 11
M  V30 11 1 11 12
M  V30 12 1 11 13
M  V30 13 1 13 14
M  V30 14 2 13 15
M  V30 15 1 15 16
M  V30 16 1 16 17
M  V30 17 2 17 18
M  V30 18 1 18 19
M  V30 19 2 19 20
M  V30 20 1 20 21
M  V30 21 1 20 22
M  V30 22 2 22 23
M  V30 23 1 23 24
M  V30 24 1 15 8
M  V30 25 1 23 17
M  V30 26 1 3 25
M  V30 27 1 5 26
M  V30 28 1 5 27
M  V30 29 1 6 28
M  V30 30 1 6 29
M  V30 31 1 7 30
M  V30 32 1 9 31
M  V30 33 1 10 32
M  V30 34 1 16 33
M  V30 35 1 18 34
M  V30 36 1 19 35
M  V30 37 1 22 36
M  V30 END BOND
M  V30 END CTAB
M  END
>  <Dataset>  (743) 
ChEMBL_Kinases

>  <Ligand_Instance>  (743) 
nan

>  <PDB_ID>  (743) 
nan

>  <Standardized_SMILES>  (743) 
O=C(NOCCO)c1ccc(F)c(F)c1Nc1ccc(I)cc1F

>  <Name>  (743) 
nan

>  <Pocket>  (743) 
nan

>  <ATP_Site>  (743) 
nan

>  <Peripheral>  (743) 
nan

>  <Num_H_Atoms_ProtBoundConf>  (743) 
nan

>  <Num_Resolved_Atoms>  (743) 
nan

>  <Num_Not_Resolved_Atoms>  (743) 
nan

$$$$
CHEMBL244378
     RDKit          3D

  0  0  0  0  0  0  0  0  0  0999 V3000
M  V30 BEGIN CTAB
M  V30 COUNTS 40 43 0 0 0
M  V30 BEGIN ATOM
M  V30 1 O 5.588217 -2.971532 -1.966498 0
M  V30 2 C 4.573894 -2.275804 -1.683740 0
M  V30 3 O 4.416230 -2.174423 -3.048647 0
M  V30 4 C 4.004324 -1.880313 -0.398655 0
M  V30 5 C 4.739714 -2.385004 0.644915 0
M  V30 6 C 4.332975 -2.107565 1.930101 0
M  V30 7 C 3.206991 -1.336954 2.109880 0
M  V30 8 C 2.532712 -0.874402 1.006282 0
M  V30 9 C 2.873973 -1.105804 -0.302520 0
M  V30 10 N 2.199335 -0.653990 -1.432900 0
M  V30 11 C 1.013659 0.120773 -1.466182 0
M  V30 12 C 0.474002 0.484235 -2.688610 0
M  V30 13 C -0.668010 1.216902 -2.884144 0
M  V30 14 N -1.339519 1.628089 -1.772791 0
M  V30 15 C -0.832590 1.285943 -0.551090 0
M  V30 16 N -1.522210 1.691229 0.617321 0
M  V30 17 C -2.146515 0.862631 1.558666 0
M  V30 18 C -2.056175 -0.512115 1.475660 0
M  V30 19 C -2.692559 -1.302191 2.442763 0
M  V30 20 C -3.420036 -0.739027 3.494005 0
M  V30 21 C -4.140596 -1.186293 4.575080 0
M  V30 22 N -4.618911 -0.109307 5.239442 0
M  V30 23 N -4.235957 1.003813 4.631188 0
M  V30 24 C -3.493560 0.642002 3.549617 0
M  V30 25 C -2.861673 1.430604 2.589501 0
M  V30 26 N 0.291896 0.566396 -0.432573 0
M  V30 27 H 3.734916 -2.716044 -3.600949 0
M  V30 28 H 5.618895 -2.988281 0.573124 0
M  V30 29 H 4.856983 -2.467058 2.805143 0
M  V30 30 H 2.893086 -1.122595 3.119976 0
M  V30 31 H 1.665153 -0.278482 1.244156 0
M  V30 32 H 2.608254 -0.912560 -2.350293 0
M  V30 33 H 0.973292 0.181371 -3.616615 0
M  V30 34 H -1.066898 1.488848 -3.845208 0
M  V30 35 H -1.507241 2.730722 0.692521 0
M  V30 36 H -1.499179 -1.014593 0.672729 0
M  V30 37 H -2.663067 -2.386221 2.440774 0
M  V30 38 H -4.274762 -2.218087 4.812781 0
M  V30 39 H -4.429844 2.011031 4.879448 0
M  V30 40 H -2.925720 2.525610 2.642169 0
M  V30 END ATOM
M  V30 BEGIN BOND
M  V30 1 2 1 2
M  V30 2 1 2 3
M  V30 3 1 2 4
M  V30 4 2 4 5
M  V30 5 1 5 6
M  V30 6 2 6 7
M  V30 7 1 7 8
M  V30 8 2 8 9
M  V30 9 1 9 10
M  V30 10 1 10 11
M  V30 11 2 11 12
M  V30 12 1 12 13
M  V30 13 2 13 14
M  V30 14 1 14 15
M  V30 15 1 15 16
M  V30 16 1 16 17
M  V30 17 2 17 18
M  V30 18 1 18 19
M  V30 19 2 19 20
M  V30 20 1 20 21
M  V30 21 2 21 22
M  V30 22 1 22 23
M  V30 23 1 23 24
M  V30 24 2 24 25
M  V30 25 2 15 26
M  V30 26 1 9 4
M  V30 27 1 26 11
M  V30 28 1 25 17
M  V30 29 1 24 20
M  V30 30 1 3 27
M  V30 31 1 5 28
M  V30 32 1 6 29
M  V30 33 1 7 30
M  V30 34 1 8 31
M  V30 35 1 10 32
M  V30 36 1 12 33
M  V30 37 1 13 34
M  V30 38 1 16 35
M  V30 39 1 18 36
M  V30 40 1 19 37
M  V30 41 1 21 38
M  V30 42 1 23 39
M  V30 43 1 25 40
M  V30 END BOND
M  V30 END CTAB
M  END
>  <Dataset>  (744) 
ChEMBL_Kinases

>  <Ligand_Instance>  (744) 
nan

>  <PDB_ID>  (744) 
nan

>  <Standardized_SMILES>  (744) 
O=C(O)c1ccccc1Nc1ccnc(Nc2ccc3cn[nH]c3c2)n1

>  <Name>  (744) 
nan

>  <Pocket>  (744) 
nan

>  <ATP_Site>  (744) 
nan

>  <Peripheral>  (744) 
nan

>  <Num_H_Atoms_ProtBoundConf>  (744) 
nan

>  <Num_Resolved_Atoms>  (744) 
nan

>  <Num_Not_Resolved_Atoms>  (744) 
nan

$$$$
CHEMBL243750
     RDKit          3D

  0  0  0  0  0  0  0  0  0  0999 V3000
M  V30 BEGIN CTAB
M  V30 COUNTS 38 40 0 0 0
M  V30 BEGIN ATOM
M  V30 1 O 0.198701 -6.278154 2.666155 0
M  V30 2 C -0.061360 -5.092130 2.402281 0
M  V30 3 O -1.400217 -5.379093 2.269852 0
M  V30 4 C 0.884285 -3.968373 2.318785 0
M  V30 5 C 2.174003 -4.359124 2.575122 0
M  V30 6 C 3.195601 -3.461328 2.542448 0
M  V30 7 C 2.880014 -2.157191 2.242353 0
M  V30 8 C 1.586711 -1.791234 1.989690 0
M  V30 9 C 0.527861 -2.661645 2.012338 0
M  V30 10 N -0.826639 -2.358729 1.765276 0
M  V30 11 C -1.347561 -1.084407 1.450102 0
M  V30 12 N -0.706069 0.084909 1.356055 0
M  V30 13 C -1.243914 1.249744 1.046630 0
M  V30 14 N -0.565549 2.492257 0.954755 0
M  V30 15 C 0.159096 2.924917 -0.210877 0
M  V30 16 C 0.771378 4.129014 -0.397379 0
M  V30 17 C 1.451556 4.424887 -1.561796 0
M  V30 18 C 1.500133 3.458481 -2.552436 0
M  V30 19 C 0.905292 2.225260 -2.429228 0
M  V30 20 O 0.947229 1.233514 -3.427998 0
M  V30 21 C 0.232718 1.981234 -1.233720 0
M  V30 22 N -2.562782 1.341908 0.787850 0
M  V30 23 C -3.345425 0.223650 0.846838 0
M  V30 24 C -2.711381 -0.951252 1.175978 0
M  V30 25 Br -3.856020 -2.501012 1.248862 0
M  V30 26 H -1.772995 -5.644964 1.362389 0
M  V30 27 H 2.478687 -5.386171 2.818521 0
M  V30 28 H 4.232380 -3.693017 2.732754 0
M  V30 29 H 3.672807 -1.409799 2.207305 0
M  V30 30 H 1.412385 -0.757803 1.761478 0
M  V30 31 H -1.520856 -3.133349 1.814714 0
M  V30 32 H -0.674937 3.016583 1.828392 0
M  V30 33 H 0.683725 4.835631 0.427891 0
M  V30 34 H 1.930521 5.396853 -1.683467 0
M  V30 35 H 2.023606 3.676739 -3.452153 0
M  V30 36 H 0.867172 0.274539 -3.081661 0
M  V30 37 H -0.240918 0.999955 -1.137006 0
M  V30 38 H -4.404516 0.277565 0.645086 0
M  V30 END ATOM
M  V30 BEGIN BOND
M  V30 1 2 1 2
M  V30 2 1 2 3
M  V30 3 1 2 4
M  V30 4 2 4 5
M  V30 5 1 5 6
M  V30 6 2 6 7
M  V30 7 1 7 8
M  V30 8 2 8 9
M  V30 9 1 9 10
M  V30 10 1 10 11
M  V30 11 2 11 12
M  V30 12 1 12 13
M  V30 13 1 13 14
M  V30 14 1 14 15
M  V30 15 2 15 16
M  V30 16 1 16 17
M  V30 17 2 17 18
M  V30 18 1 18 19
M  V30 19 1 19 20
M  V30 20 2 19 21
M  V30 21 2 13 22
M  V30 22 1 22 23
M  V30 23 2 23 24
M  V30 24 1 24 25
M  V30 25 1 9 4
M  V30 26 1 24 11
M  V30 27 1 21 15
M  V30 28 1 3 26
M  V30 29 1 5 27
M  V30 30 1 6 28
M  V30 31 1 7 29
M  V30 32 1 8 30
M  V30 33 1 10 31
M  V30 34 1 14 32
M  V30 35 1 16 33
M  V30 36 1 17 34
M  V30 37 1 18 35
M  V30 38 1 20 36
M  V30 39 1 21 37
M  V30 40 1 23 38
M  V30 END BOND
M  V30 END CTAB
M  END
>  <Dataset>  (745) 
ChEMBL_Kinases

>  <Ligand_Instance>  (745) 
nan

>  <PDB_ID>  (745) 
nan

>  <Standardized_SMILES>  (745) 
O=C(O)c1ccccc1Nc1nc(Nc2cccc(O)c2)ncc1Br

>  <Name>  (745) 
nan

>  <Pocket>  (745) 
nan

>  <ATP_Site>  (745) 
nan

>  <Peripheral>  (745) 
nan

>  <Num_H_Atoms_ProtBoundConf>  (745) 
nan

>  <Num_Resolved_Atoms>  (745) 
nan

>  <Num_Not_Resolved_Atoms>  (745) 
nan

$$$$
CHEMBL244164
     RDKit          3D

  0  0  0  0  0  0  0  0  0  0999 V3000
M  V30 BEGIN CTAB
M  V30 COUNTS 51 55 0 0 0
M  V30 BEGIN ATOM
M  V30 1 C 1.146498 3.141479 3.614823 0
M  V30 2 O 0.924322 2.664428 2.295997 0
M  V30 3 C 1.880407 1.947067 1.619545 0
M  V30 4 C 3.135019 1.593668 2.079956 0
M  V30 5 C 4.020772 0.866454 1.309680 0
M  V30 6 C 3.650867 0.471463 0.029378 0
M  V30 7 C 4.717218 -0.235199 -0.510869 0
M  V30 8 C 5.719910 -0.257732 0.453008 0
M  V30 9 N 5.276719 0.412867 1.541718 0
M  V30 10 C 6.050441 0.604496 2.764708 0
M  V30 11 C 2.387432 0.828663 -0.431252 0
M  V30 12 C 1.502885 1.561931 0.354127 0
M  V30 13 C 0.231323 1.855667 -0.260212 0
M  V30 14 O 0.137267 2.912774 -0.915848 0
M  V30 15 N -0.833802 0.932378 -0.085676 0
M  V30 16 C -0.669959 -0.289139 0.691064 0
M  V30 17 C -2.040113 -0.861170 1.056269 0
M  V30 18 N -2.678695 -1.247612 -0.140264 0
M  V30 19 C -2.751093 -0.204647 -0.992865 0
M  V30 20 C -3.417816 -0.621887 -2.128243 0
M  V30 21 N -3.714167 -1.887010 -1.912396 0
M  V30 22 C -3.267800 -2.275964 -0.708456 0
M  V30 23 C -3.514631 -3.619226 -0.242600 0
M  V30 24 C -4.582414 -4.320389 -0.805795 0
M  V30 25 C -4.914778 -5.616484 -0.484288 0
M  V30 26 C -4.200120 -6.323015 0.433896 0
M  V30 27 F -4.566230 -7.590346 0.715230 0
M  V30 28 C -3.135023 -5.681805 1.020672 0
M  V30 29 C -2.845482 -4.393371 0.666525 0
M  V30 30 F -1.755381 -3.899733 1.271301 0
M  V30 31 C -2.162287 1.127313 -0.660995 0
M  V30 32 H 1.325591 2.276011 4.278159 0
M  V30 33 H 2.042539 3.791240 3.599343 0
M  V30 34 H 0.232069 3.708394 3.896574 0
M  V30 35 H 3.382003 1.927188 3.094811 0
M  V30 36 H 4.738017 -0.677959 -1.504977 0
M  V30 37 H 6.677244 -0.740315 0.316125 0
M  V30 38 H 6.720640 -0.260960 2.892825 0
M  V30 39 H 6.725820 1.486003 2.607993 0
M  V30 40 H 5.426841 0.681196 3.658764 0
M  V30 41 H 2.177611 0.483871 -1.434310 0
M  V30 42 H -0.122939 -0.092652 1.634901 0
M  V30 43 H -0.079181 -0.996987 0.076649 0
M  V30 44 H -2.592948 0.081897 1.436884 0
M  V30 45 H -1.961822 -1.529345 1.890253 0
M  V30 46 H -3.678812 -0.077528 -3.044989 0
M  V30 47 H -5.232375 -3.852875 -1.559245 0
M  V30 48 H -5.756083 -6.088370 -0.962165 0
M  V30 49 H -2.564617 -6.235593 1.748530 0
M  V30 50 H -2.106104 1.738766 -1.583130 0
M  V30 51 H -2.837080 1.655388 0.043528 0
M  V30 END ATOM
M  V30 BEGIN BOND
M  V30 1 1 1 2
M  V30 2 1 2 3
M  V30 3 2 3 4
M  V30 4 1 4 5
M  V30 5 2 5 6
M  V30 6 1 6 7
M  V30 7 2 7 8
M  V30 8 1 8 9
M  V30 9 1 9 10
M  V30 10 1 6 11
M  V30 11 2 11 12
M  V30 12 1 12 13
M  V30 13 2 13 14
M  V30 14 1 13 15
M  V30 15 1 15 16
M  V30 16 1 16 17
M  V30 17 1 17 18
M  V30 18 1 18 19
M  V30 19 2 19 20
M  V30 20 1 20 21
M  V30 21 2 21 22
M  V30 22 1 22 23
M  V30 23 2 23 24
M  V30 24 1 24 25
M  V30 25 2 25 26
M  V30 26 1 26 27
M  V30 27 1 26 28
M  V30 28 2 28 29
M  V30 29 1 29 30
M  V30 30 1 19 31
M  V30 31 1 12 3
M  V30 32 1 31 15
M  V30 33 1 9 5
M  V30 34 1 22 18
M  V30 35 1 29 23
M  V30 36 1 1 32
M  V30 37 1 1 33
M  V30 38 1 1 34
M  V30 39 1 4 35
M  V30 40 1 7 36
M  V30 41 1 8 37
M  V30 42 1 10 38
M  V30 43 1 10 39
M  V30 44 1 10 40
M  V30 45 1 11 41
M  V30 46 1 16 42
M  V30 47 1 16 43
M  V30 48 1 17 44
M  V30 49 1 17 45
M  V30 50 1 20 46
M  V30 51 1 24 47
M  V30 52 1 25 48
M  V30 53 1 28 49
M  V30 54 1 31 50
M  V30 55 1 31 51
M  V30 END BOND
M  V30 END CTAB
M  END
>  <Dataset>  (746) 
ChEMBL_Kinases

>  <Ligand_Instance>  (746) 
nan

>  <PDB_ID>  (746) 
nan

>  <Standardized_SMILES>  (746) 
COc1cc2c(ccn2C)cc1C(=O)N1CCn2c(cnc2-c2ccc(F)cc2F)C1

>  <Name>  (746) 
nan

>  <Pocket>  (746) 
nan

>  <ATP_Site>  (746) 
nan

>  <Peripheral>  (746) 
nan

>  <Num_H_Atoms_ProtBoundConf>  (746) 
nan

>  <Num_Resolved_Atoms>  (746) 
nan

>  <Num_Not_Resolved_Atoms>  (746) 
nan

$$$$
CHEMBL244172
     RDKit          3D

  0  0  0  0  0  0  0  0  0  0999 V3000
M  V30 BEGIN CTAB
M  V30 COUNTS 64 69 0 0 0
M  V30 BEGIN ATOM
M  V30 1 C 4.668471 -1.834406 1.950801 0
M  V30 2 O 3.525027 -2.156970 1.211613 0
M  V30 3 C 2.897476 -1.310522 0.313465 0
M  V30 4 N 3.431574 -0.085263 0.141715 0
M  V30 5 C 2.865060 0.787004 -0.721117 0
M  V30 6 N 3.210980 2.051119 -1.058755 0
M  V30 7 C 2.321928 2.501265 -1.970753 0
M  V30 8 C 1.379135 1.547524 -2.249308 0
M  V30 9 C 0.254220 1.583103 -3.146035 0
M  V30 10 O -0.496706 0.585610 -3.253121 0
M  V30 11 C 0.041777 2.811094 -3.903167 0
M  V30 12 O 0.667561 3.903765 -3.940265 0
M  V30 13 N -1.028219 2.989730 -4.825097 0
M  V30 14 C -1.192603 4.240093 -5.555499 0
M  V30 15 C -2.664033 4.596034 -5.303688 0
M  V30 16 C -3.298062 3.260114 -4.910042 0
M  V30 17 O -4.510911 3.039705 -5.512319 0
M  V30 18 C -2.197842 2.316943 -5.414790 0
M  V30 19 C 1.738726 0.471051 -1.450127 0
M  V30 20 C 1.180105 -0.779433 -1.285431 0
M  V30 21 C 1.759826 -1.667745 -0.404556 0
M  V30 22 C 1.268570 -2.994886 -0.150198 0
M  V30 23 O 1.741418 -3.898558 -0.894271 0
M  V30 24 N 0.323215 -3.228846 0.870287 0
M  V30 25 C -0.187280 -2.124646 1.702912 0
M  V30 26 C -1.369376 -2.669677 2.521245 0
M  V30 27 N -0.875692 -3.688340 3.357499 0
M  V30 28 C -0.273139 -4.671118 2.624303 0
M  V30 29 C 0.186331 -5.655718 3.469331 0
M  V30 30 N -0.160767 -5.219772 4.675370 0
M  V30 31 C -0.800142 -4.039751 4.642965 0
M  V30 32 C -1.294438 -3.354031 5.813350 0
M  V30 33 C -1.826569 -2.098433 5.915355 0
M  V30 34 C -2.300667 -1.531955 7.075785 0
M  V30 35 C -2.261178 -2.231567 8.245686 0
M  V30 36 F -2.702502 -1.761190 9.436022 0
M  V30 37 C -1.733087 -3.498624 8.188284 0
M  V30 38 C -1.273204 -4.025860 7.018566 0
M  V30 39 F -0.768146 -5.304599 7.092422 0
M  V30 40 C -0.171891 -4.594784 1.119989 0
M  V30 41 H 5.604689 -2.101359 1.403287 0
M  V30 42 H 4.680919 -2.467036 2.877290 0
M  V30 43 H 4.719997 -0.796331 2.306591 0
M  V30 44 H 4.036122 2.568966 -0.662463 0
M  V30 45 H 2.375139 3.479212 -2.399659 0
M  V30 46 H -0.513322 5.033582 -5.252289 0
M  V30 47 H -1.096516 3.980765 -6.644817 0
M  V30 48 H -2.738719 5.349855 -4.506145 0
M  V30 49 H -3.136535 4.920327 -6.247396 0
M  V30 50 H -3.294656 3.157323 -3.804161 0
M  V30 51 H -5.220370 3.285348 -4.855839 0
M  V30 52 H -2.341271 1.304463 -5.031001 0
M  V30 53 H -2.122368 2.375292 -6.515684 0
M  V30 54 H 0.299534 -1.086287 -1.826608 0
M  V30 55 H 0.582977 -1.668913 2.322533 0
M  V30 56 H -0.548005 -1.360989 0.983282 0
M  V30 57 H -2.018074 -3.193561 1.732374 0
M  V30 58 H -2.003663 -1.892004 2.896509 0
M  V30 59 H 0.705531 -6.580317 3.297726 0
M  V30 60 H -1.883101 -1.484148 5.060480 0
M  V30 61 H -2.704443 -0.545329 7.085597 0
M  V30 62 H -1.688852 -4.071626 9.086934 0
M  V30 63 H 0.591447 -5.277641 0.748802 0
M  V30 64 H -1.150943 -4.772432 0.639942 0
M  V30 END ATOM
M  V30 BEGIN BOND
M  V30 1 1 1 2
M  V30 2 1 2 3
M  V30 3 2 3 4
M  V30 4 1 4 5
M  V30 5 1 5 6
M  V30 6 1 6 7
M  V30 7 2 7 8
M  V30 8 1 8 9
M  V30 9 2 9 10
M  V30 10 1 9 11
M  V30 11 2 11 12
M  V30 12 1 11 13
M  V30 13 1 13 14
M  V30 14 1 14 15
M  V30 15 1 15 16
M  V30 16 1 16 17
M  V30 17 1 16 18
M  V30 18 1 8 19
M  V30 19 1 19 20
M  V30 20 2 20 21
M  V30 21 1 21 22
M  V30 22 2 22 23
M  V30 23 1 22 24
M  V30 24 1 24 25
M  V30 25 1 25 26
M  V30 26 1 26 27
M  V30 27 1 27 28
M  V30 28 2 28 29
M  V30 29 1 29 30
M  V30 30 2 30 31
M  V30 31 1 31 32
M  V30 32 2 32 33
M  V30 33 1 33 34
M  V30 34 2 34 35
M  V30 35 1 35 36
M  V30 36 1 35 37
M  V30 37 2 37 38
M  V30 38 1 38 39
M  V30 39 1 28 40
M  V30 40 1 21 3
M  V30 41 1 40 24
M  V30 42 2 19 5
M  V30 43 1 31 27
M  V30 44 1 38 32
M  V30 45 1 18 13
M  V30 46 1 1 41
M  V30 47 1 1 42
M  V30 48 1 1 43
M  V30 49 1 6 44
M  V30 50 1 7 45
M  V30 51 1 14 46
M  V30 52 1 14 47
M  V30 53 1 15 48
M  V30 54 1 15 49
M  V30 55 1 16 50
M  V30 56 1 17 51
M  V30 57 1 18 52
M  V30 58 1 18 53
M  V30 59 1 20 54
M  V30 60 1 25 55
M  V30 61 1 25 56
M  V30 62 1 26 57
M  V30 63 1 26 58
M  V30 64 1 29 59
M  V30 65 1 33 60
M  V30 66 1 34 61
M  V30 67 1 37 62
M  V30 68 1 40 63
M  V30 69 1 40 64
M  V30 END BOND
M  V30 END CTAB
M  END
>  <Dataset>  (747) 
ChEMBL_Kinases

>  <Ligand_Instance>  (747) 
nan

>  <PDB_ID>  (747) 
nan

>  <Standardized_SMILES>  (747) 
COc1nc2[nH]cc(C(=O)C(=O)N3CCC(O)C3)c2cc1C(=O)N1CCn2c(cnc2-c2ccc(F)cc2F)C1

>  <Name>  (747) 
nan

>  <Pocket>  (747) 
nan

>  <ATP_Site>  (747) 
nan

>  <Peripheral>  (747) 
nan

>  <Num_H_Atoms_ProtBoundConf>  (747) 
nan

>  <Num_Resolved_Atoms>  (747) 
nan

>  <Num_Not_Resolved_Atoms>  (747) 
nan

$$$$
CHEMBL2442288
     RDKit          3D

  0  0  0  0  0  0  0  0  0  0999 V3000
M  V30 BEGIN CTAB
M  V30 COUNTS 41 44 0 0 0
M  V30 BEGIN ATOM
M  V30 1 N 2.160325 -5.835464 1.184919 0
M  V30 2 C 2.494611 -5.362005 -0.152133 0
M  V30 3 C 2.053227 -3.948535 -0.373918 0
M  V30 4 N 2.426673 -3.563771 -1.727015 0
M  V30 5 C 2.101090 -2.247134 -2.157593 0
M  V30 6 C 2.407984 -1.764848 -3.431515 0
M  V30 7 C 2.078716 -0.474172 -3.827155 0
M  V30 8 N 1.436743 0.364749 -2.963408 0
M  V30 9 N 1.014999 1.617666 -3.080067 0
M  V30 10 C 0.424756 2.026176 -1.932304 0
M  V30 11 C 0.526282 0.939853 -1.139307 0
M  V30 12 C 0.034189 0.832654 0.254127 0
M  V30 13 C -0.002109 -0.113505 1.271735 0
M  V30 14 C -0.598707 0.299923 2.431312 0
M  V30 15 C -1.116567 1.522407 2.595796 0
M  V30 16 C -1.763284 2.068144 3.757748 0
M  V30 17 C -1.933094 1.350540 4.901597 0
M  V30 18 C -2.563913 1.945518 5.974079 0
M  V30 19 C -3.004909 3.249880 5.858308 0
M  V30 20 C -2.836614 3.991513 4.695019 0
M  V30 21 C -2.202845 3.370392 3.640274 0
M  V30 22 S -0.813848 2.335147 1.010433 0
M  V30 23 C 1.148928 -0.132036 -1.725317 0
M  V30 24 N 1.460460 -1.363527 -1.340917 0
M  V30 25 H 3.007804 -5.957595 1.783620 0
M  V30 26 H 1.688849 -6.767435 1.149595 0
M  V30 27 H 3.589678 -5.435031 -0.308525 0
M  V30 28 H 1.958752 -6.004777 -0.866967 0
M  V30 29 H 2.461037 -3.243649 0.377744 0
M  V30 30 H 0.932828 -3.886051 -0.302075 0
M  V30 31 H 2.916537 -4.162475 -2.426438 0
M  V30 32 H 2.917140 -2.468892 -4.078832 0
M  V30 33 H 2.339431 -0.150656 -4.825377 0
M  V30 34 H -0.007080 2.998846 -1.749343 0
M  V30 35 H 0.453390 -1.046743 0.988582 0
M  V30 36 H -0.628138 -0.450066 3.239690 0
M  V30 37 H -1.557528 0.329420 4.912777 0
M  V30 38 H -2.676112 1.341142 6.856702 0
M  V30 39 H -3.498412 3.716916 6.695828 0
M  V30 40 H -3.198302 5.012169 4.647942 0
M  V30 41 H -2.080133 3.969263 2.735462 0
M  V30 END ATOM
M  V30 BEGIN BOND
M  V30 1 1 1 2
M  V30 2 1 2 3
M  V30 3 1 3 4
M  V30 4 1 4 5
M  V30 5 1 5 6
M  V30 6 2 6 7
M  V30 7 1 7 8
M  V30 8 1 8 9
M  V30 9 2 9 10
M  V30 10 1 10 11
M  V30 11 1 11 12
M  V30 12 2 12 13
M  V30 13 1 13 14
M  V30 14 2 14 15
M  V30 15 1 15 16
M  V30 16 2 16 17
M  V30 17 1 17 18
M  V30 18 2 18 19
M  V30 19 1 19 20
M  V30 20 2 20 21
M  V30 21 1 15 22
M  V30 22 2 11 23
M  V30 23 1 23 24
M  V30 24 2 24 5
M  V30 25 1 23 8
M  V30 26 1 22 12
M  V30 27 1 21 16
M  V30 28 1 1 25
M  V30 29 1 1 26
M  V30 30 1 2 27
M  V30 31 1 2 28
M  V30 32 1 3 29
M  V30 33 1 3 30
M  V30 34 1 4 31
M  V30 35 1 6 32
M  V30 36 1 7 33
M  V30 37 1 10 34
M  V30 38 1 13 35
M  V30 39 1 14 36
M  V30 40 1 17 37
M  V30 41 1 18 38
M  V30 42 1 19 39
M  V30 43 1 20 40
M  V30 44 1 21 41
M  V30 END BOND
M  V30 END CTAB
M  END
>  <Dataset>  (748) 
ChEMBL_Kinases

>  <Ligand_Instance>  (748) 
nan

>  <PDB_ID>  (748) 
nan

>  <Standardized_SMILES>  (748) 
NCCNc1ccn2ncc(-c3ccc(-c4ccccc4)s3)c2n1

>  <Name>  (748) 
nan

>  <Pocket>  (748) 
nan

>  <ATP_Site>  (748) 
nan

>  <Peripheral>  (748) 
nan

>  <Num_H_Atoms_ProtBoundConf>  (748) 
nan

>  <Num_Resolved_Atoms>  (748) 
nan

>  <Num_Not_Resolved_Atoms>  (748) 
nan

$$$$
CHEMBL2442289
     RDKit          3D

  0  0  0  0  0  0  0  0  0  0999 V3000
M  V30 BEGIN CTAB
M  V30 COUNTS 40 43 0 0 0
M  V30 BEGIN ATOM
M  V30 1 N -2.135163 -5.160625 -0.831287 0
M  V30 2 C -0.771454 -4.678763 -0.695423 0
M  V30 3 C -0.605358 -3.368974 -1.398459 0
M  V30 4 N 0.769487 -2.903897 -1.249539 0
M  V30 5 C 1.342686 -1.720954 -1.756416 0
M  V30 6 C 1.964017 -1.548329 -2.982382 0
M  V30 7 C 2.484511 -0.324518 -3.351459 0
M  V30 8 N 2.404901 0.743785 -2.529617 0
M  V30 9 N 2.808543 1.998828 -2.629322 0
M  V30 10 C 2.490716 2.707881 -1.516128 0
M  V30 11 C 1.855154 1.773504 -0.724051 0
M  V30 12 C 1.320445 2.072649 0.603900 0
M  V30 13 C 0.670245 1.183075 1.454785 0
M  V30 14 C 0.368967 1.949041 2.567122 0
M  V30 15 C -0.324084 1.495560 3.775595 0
M  V30 16 C -0.539314 2.405661 4.791365 0
M  V30 17 C -1.195381 1.973431 5.933669 0
M  V30 18 C -1.591676 0.652551 5.977837 0
M  V30 19 C -1.400348 -0.280089 4.999541 0
M  V30 20 C -0.745249 0.187088 3.880603 0
M  V30 21 N 0.821144 3.201104 2.361432 0
M  V30 22 O 1.394837 3.274607 1.177082 0
M  V30 23 C 1.790940 0.537609 -1.339899 0
M  V30 24 N 1.268732 -0.633768 -0.935186 0
M  V30 25 H -2.592983 -5.060749 0.091859 0
M  V30 26 H -2.659415 -4.579074 -1.524701 0
M  V30 27 H -0.056717 -5.405462 -1.142806 0
M  V30 28 H -0.494614 -4.572558 0.368028 0
M  V30 29 H -1.345995 -2.641368 -1.037142 0
M  V30 30 H -0.725977 -3.568889 -2.501177 0
M  V30 31 H 1.525734 -3.422435 -0.722136 0
M  V30 32 H 1.999918 -2.451416 -3.609884 0
M  V30 33 H 2.961857 -0.231990 -4.317760 0
M  V30 34 H 2.695420 3.749720 -1.319576 0
M  V30 35 H 0.455450 0.137507 1.277715 0
M  V30 36 H -0.219188 3.437956 4.734520 0
M  V30 37 H -1.387766 2.657929 6.763029 0
M  V30 38 H -2.102985 0.368462 6.900250 0
M  V30 39 H -1.744792 -1.299581 5.116307 0
M  V30 40 H -0.551766 -0.502953 3.045536 0
M  V30 END ATOM
M  V30 BEGIN BOND
M  V30 1 1 1 2
M  V30 2 1 2 3
M  V30 3 1 3 4
M  V30 4 1 4 5
M  V30 5 1 5 6
M  V30 6 2 6 7
M  V30 7 1 7 8
M  V30 8 1 8 9
M  V30 9 2 9 10
M  V30 10 1 10 11
M  V30 11 1 11 12
M  V30 12 2 12 13
M  V30 13 1 13 14
M  V30 14 1 14 15
M  V30 15 2 15 16
M  V30 16 1 16 17
M  V30 17 2 17 18
M  V30 18 1 18 19
M  V30 19 2 19 20
M  V30 20 2 14 21
M  V30 21 1 21 22
M  V30 22 2 11 23
M  V30 23 1 23 24
M  V30 24 2 24 5
M  V30 25 1 23 8
M  V30 26 1 22 12
M  V30 27 1 20 15
M  V30 28 1 1 25
M  V30 29 1 1 26
M  V30 30 1 2 27
M  V30 31 1 2 28
M  V30 32 1 3 29
M  V30 33 1 3 30
M  V30 34 1 4 31
M  V30 35 1 6 32
M  V30 36 1 7 33
M  V30 37 1 10 34
M  V30 38 1 13 35
M  V30 39 1 16 36
M  V30 40 1 17 37
M  V30 41 1 18 38
M  V30 42 1 19 39
M  V30 43 1 20 40
M  V30 END BOND
M  V30 END CTAB
M  END
>  <Dataset>  (749) 
ChEMBL_Kinases

>  <Ligand_Instance>  (749) 
nan

>  <PDB_ID>  (749) 
nan

>  <Standardized_SMILES>  (749) 
NCCNc1ccn2ncc(-c3cc(-c4ccccc4)no3)c2n1

>  <Name>  (749) 
nan

>  <Pocket>  (749) 
nan

>  <ATP_Site>  (749) 
nan

>  <Peripheral>  (749) 
nan

>  <Num_H_Atoms_ProtBoundConf>  (749) 
nan

>  <Num_Resolved_Atoms>  (749) 
nan

>  <Num_Not_Resolved_Atoms>  (749) 
nan

$$$$
CHEMBL2442294
     RDKit          3D

  0  0  0  0  0  0  0  0  0  0999 V3000
M  V30 BEGIN CTAB
M  V30 COUNTS 40 42 0 0 0
M  V30 BEGIN ATOM
M  V30 1 C -0.148526 -3.790028 3.180625 0
M  V30 2 N 0.692451 -4.194744 2.126742 0
M  V30 3 C 0.550130 -5.476972 1.570198 0
M  V30 4 C 1.878264 -3.462330 1.887300 0
M  V30 5 C 1.453382 -2.105299 1.374137 0
M  V30 6 N 2.551593 -1.221103 1.074501 0
M  V30 7 C 2.504068 0.118862 0.552700 0
M  V30 8 C 3.650366 0.848031 0.318247 0
M  V30 9 C 3.490606 2.130785 -0.190532 0
M  V30 10 N 2.238795 2.564529 -0.415231 0
M  V30 11 N 1.871414 3.736995 -0.889888 0
M  V30 12 C 0.533801 3.838854 -0.988338 0
M  V30 13 C 0.002615 2.636064 -0.541584 0
M  V30 14 C -1.373212 2.170467 -0.421388 0
M  V30 15 C -1.725743 1.510909 0.741242 0
M  V30 16 C -3.034003 1.055480 0.877980 0
M  V30 17 C -4.011484 1.225120 -0.087564 0
M  V30 18 Cl -5.638654 0.624194 0.155919 0
M  V30 19 C -3.634930 1.886455 -1.238358 0
M  V30 20 C -2.344311 2.346119 -1.395822 0
M  V30 21 C 1.105931 1.875643 -0.195674 0
M  V30 22 N 1.286089 0.615031 0.304832 0
M  V30 23 H -0.627870 -2.809237 2.907106 0
M  V30 24 H -0.986851 -4.504024 3.264953 0
M  V30 25 H 0.375450 -3.696423 4.154417 0
M  V30 26 H 1.316512 -6.206792 1.824711 0
M  V30 27 H 0.501074 -5.402136 0.461290 0
M  V30 28 H -0.470405 -5.853066 1.867378 0
M  V30 29 H 2.581085 -3.407334 2.721679 0
M  V30 30 H 2.435019 -3.958466 1.044035 0
M  V30 31 H 0.789899 -1.585813 2.095077 0
M  V30 32 H 0.808602 -2.265311 0.463000 0
M  V30 33 H 3.515379 -1.628777 1.268967 0
M  V30 34 H 4.592567 0.388041 0.539063 0
M  V30 35 H 4.367243 2.723903 -0.383799 0
M  V30 36 H -0.087786 4.660671 -1.337262 0
M  V30 37 H -1.067159 1.317406 1.555903 0
M  V30 38 H -3.355169 0.525579 1.788732 0
M  V30 39 H -4.356036 2.051492 -2.034444 0
M  V30 40 H -2.026715 2.868780 -2.295023 0
M  V30 END ATOM
M  V30 BEGIN BOND
M  V30 1 1 1 2
M  V30 2 1 2 3
M  V30 3 1 2 4
M  V30 4 1 4 5
M  V30 5 1 5 6
M  V30 6 1 6 7
M  V30 7 1 7 8
M  V30 8 2 8 9
M  V30 9 1 9 10
M  V30 10 1 10 11
M  V30 11 2 11 12
M  V30 12 1 12 13
M  V30 13 1 13 14
M  V30 14 2 14 15
M  V30 15 1 15 16
M  V30 16 2 16 17
M  V30 17 1 17 18
M  V30 18 1 17 19
M  V30 19 2 19 20
M  V30 20 2 13 21
M  V30 21 1 21 22
M  V30 22 2 22 7
M  V30 23 1 21 10
M  V30 24 1 20 14
M  V30 25 1 1 23
M  V30 26 1 1 24
M  V30 27 1 1 25
M  V30 28 1 3 26
M  V30 29 1 3 27
M  V30 30 1 3 28
M  V30 31 1 4 29
M  V30 32 1 4 30
M  V30 33 1 5 31
M  V30 34 1 5 32
M  V30 35 1 6 33
M  V30 36 1 8 34
M  V30 37 1 9 35
M  V30 38 1 12 36
M  V30 39 1 15 37
M  V30 40 1 16 38
M  V30 41 1 19 39
M  V30 42 1 20 40
M  V30 END BOND
M  V30 END CTAB
M  END
>  <Dataset>  (750) 
ChEMBL_Kinases

>  <Ligand_Instance>  (750) 
nan

>  <PDB_ID>  (750) 
nan

>  <Standardized_SMILES>  (750) 
CN(C)CCNc1ccn2ncc(-c3ccc(Cl)cc3)c2n1

>  <Name>  (750) 
nan

>  <Pocket>  (750) 
nan

>  <ATP_Site>  (750) 
nan

>  <Peripheral>  (750) 
nan

>  <Num_H_Atoms_ProtBoundConf>  (750) 
nan

>  <Num_Resolved_Atoms>  (750) 
nan

>  <Num_Not_Resolved_Atoms>  (750) 
nan

$$$$
CHEMBL2442298
     RDKit          3D

  0  0  0  0  0  0  0  0  0  0999 V3000
M  V30 BEGIN CTAB
M  V30 COUNTS 50 54 0 0 0
M  V30 BEGIN ATOM
M  V30 1 C 0.076090 -4.258203 2.640538 0
M  V30 2 C -0.562469 -3.055388 2.518789 0
M  V30 3 C 0.155315 -1.875875 2.493906 0
M  V30 4 C 1.544633 -1.834354 2.588368 0
M  V30 5 N 2.259053 -0.607541 2.572223 0
M  V30 6 C 3.676059 -0.484869 2.636794 0
M  V30 7 C 4.435577 -0.908336 1.408179 0
M  V30 8 N 4.156791 -0.109518 0.272774 0
M  V30 9 C 3.243841 0.489986 -0.634503 0
M  V30 10 C 3.721748 1.122966 -1.797444 0
M  V30 11 C 2.849089 1.708436 -2.680772 0
M  V30 12 N 1.558610 1.632500 -2.360348 0
M  V30 13 N 0.609428 2.163062 -3.153094 0
M  V30 14 C -0.594315 1.939018 -2.597317 0
M  V30 15 C -0.296410 1.250998 -1.439504 0
M  V30 16 C -1.353890 0.855537 -0.527041 0
M  V30 17 C -1.476121 1.131269 0.818777 0
M  V30 18 C -2.554490 0.672797 1.562073 0
M  V30 19 C -3.542993 -0.080118 0.964130 0
M  V30 20 C -4.592699 -0.525287 1.706674 0
M  V30 21 C -5.618546 -1.290996 1.164245 0
M  V30 22 C -5.537212 -1.594891 -0.189873 0
M  V30 23 C -4.461205 -1.131058 -0.922904 0
M  V30 24 C -3.448587 -0.372702 -0.378581 0
M  V30 25 C -2.373301 0.088131 -1.107541 0
M  V30 26 C 1.047736 1.047916 -1.273224 0
M  V30 27 N 1.898634 0.475495 -0.410304 0
M  V30 28 C 2.102093 -3.075030 2.706953 0
M  V30 29 C 1.468120 -4.302511 2.740833 0
M  V30 30 H -0.536296 -5.143723 2.653324 0
M  V30 31 H -1.642291 -2.963323 2.435816 0
M  V30 32 H -0.336356 -0.930908 2.407439 0
M  V30 33 H 1.681310 0.273351 2.507471 0
M  V30 34 H 4.117636 -1.056996 3.492796 0
M  V30 35 H 3.975649 0.587181 2.825342 0
M  V30 36 H 5.525144 -0.804946 1.718273 0
M  V30 37 H 4.320524 -2.008790 1.186245 0
M  V30 38 H 5.145218 0.155512 -0.022628 0
M  V30 39 H 4.786848 1.170905 -2.039065 0
M  V30 40 H 3.273832 2.176635 -3.555347 0
M  V30 41 H -1.552447 2.244185 -2.996459 0
M  V30 42 H -0.638099 1.731257 1.173185 0
M  V30 43 H -2.549961 0.952600 2.624081 0
M  V30 44 H -4.645845 -0.281838 2.763019 0
M  V30 45 H -6.428441 -1.615455 1.811272 0
M  V30 46 H -6.326304 -2.192913 -0.643301 0
M  V30 47 H -4.432117 -1.386058 -1.970090 0
M  V30 48 H -2.372450 -0.187089 -2.169272 0
M  V30 49 H 3.169672 -3.182265 2.808046 0
M  V30 50 H 1.975717 -5.250192 2.836308 0
M  V30 END ATOM
M  V30 BEGIN BOND
M  V30 1 2 1 2
M  V30 2 1 2 3
M  V30 3 2 3 4
M  V30 4 1 4 5
M  V30 5 1 5 6
M  V30 6 1 6 7
M  V30 7 1 7 8
M  V30 8 1 8 9
M  V30 9 1 9 10
M  V30 10 2 10 11
M  V30 11 1 11 12
M  V30 12 1 12 13
M  V30 13 2 13 14
M  V30 14 1 14 15
M  V30 15 1 15 16
M  V30 16 2 16 17
M  V30 17 1 17 18
M  V30 18 2 18 19
M  V30 19 1 19 20
M  V30 20 2 20 21
M  V30 21 1 21 22
M  V30 22 2 22 23
M  V30 23 1 23 24
M  V30 24 2 24 25
M  V30 25 2 15 26
M  V30 26 1 26 27
M  V30 27 1 4 28
M  V30 28 2 28 29
M  V30 29 1 29 1
M  V30 30 2 27 9
M  V30 31 1 26 12
M  V30 32 1 25 16
M  V30 33 1 24 19
M  V30 34 1 1 30
M  V30 35 1 2 31
M  V30 36 1 3 32
M  V30 37 1 5 33
M  V30 38 1 6 34
M  V30 39 1 6 35
M  V30 40 1 7 36
M  V30 41 1 7 37
M  V30 42 1 8 38
M  V30 43 1 10 39
M  V30 44 1 11 40
M  V30 45 1 14 41
M  V30 46 1 17 42
M  V30 47 1 18 43
M  V30 48 1 20 44
M  V30 49 1 21 45
M  V30 50 1 22 46
M  V30 51 1 23 47
M  V30 52 1 25 48
M  V30 53 1 28 49
M  V30 54 1 29 50
M  V30 END BOND
M  V30 END CTAB
M  END
>  <Dataset>  (751) 
ChEMBL_Kinases

>  <Ligand_Instance>  (751) 
nan

>  <PDB_ID>  (751) 
nan

>  <Standardized_SMILES>  (751) 
c1ccc(NCCNc2ccn3ncc(-c4ccc5ccccc5c4)c3n2)cc1

>  <Name>  (751) 
nan

>  <Pocket>  (751) 
nan

>  <ATP_Site>  (751) 
nan

>  <Peripheral>  (751) 
nan

>  <Num_H_Atoms_ProtBoundConf>  (751) 
nan

>  <Num_Resolved_Atoms>  (751) 
nan

>  <Num_Not_Resolved_Atoms>  (751) 
nan

$$$$
CHEMBL2442300
     RDKit          3D

  0  0  0  0  0  0  0  0  0  0999 V3000
M  V30 BEGIN CTAB
M  V30 COUNTS 46 49 0 0 0
M  V30 BEGIN ATOM
M  V30 1 C 0.208857 -3.522802 1.059442 0
M  V30 2 N 0.776426 -3.663579 -0.264904 0
M  V30 3 C -0.250495 -3.822462 -1.277320 0
M  V30 4 C 1.690584 -2.588156 -0.582250 0
M  V30 5 C 2.881546 -2.752548 0.313564 0
M  V30 6 N 3.901970 -1.742184 0.116919 0
M  V30 7 C 3.649631 -0.360427 0.290566 0
M  V30 8 C 4.628500 0.618572 0.111081 0
M  V30 9 C 4.307547 1.962386 0.297009 0
M  V30 10 N 3.056318 2.308209 0.648275 0
M  V30 11 N 2.540524 3.518486 0.874218 0
M  V30 12 C 1.233513 3.382754 1.202621 0
M  V30 13 C 0.955348 2.031221 1.171610 0
M  V30 14 C -0.321747 1.356833 1.451008 0
M  V30 15 C -0.311702 0.230421 2.256486 0
M  V30 16 C -1.486264 -0.437278 2.548230 0
M  V30 17 C -2.688513 0.005054 2.043378 0
M  V30 18 C -3.858359 -0.689757 2.356314 0
M  V30 19 C -5.027611 -0.194066 1.820027 0
M  V30 20 C -5.127884 0.921221 1.009031 0
M  V30 21 C -3.930759 1.574883 0.729542 0
M  V30 22 C -2.712400 1.139688 1.230043 0
M  V30 23 C -1.534332 1.816700 0.932208 0
M  V30 24 C 2.119395 1.342047 0.817530 0
M  V30 25 N 2.412780 0.049066 0.642624 0
M  V30 26 H -0.846158 -3.877276 1.053295 0
M  V30 27 H 0.753751 -4.226055 1.738827 0
M  V30 28 H 0.228122 -2.497376 1.433748 0
M  V30 29 H -1.184925 -3.282197 -1.009752 0
M  V30 30 H 0.176257 -3.516776 -2.241339 0
M  V30 31 H -0.504425 -4.902295 -1.307770 0
M  V30 32 H 1.237852 -1.600630 -0.600713 0
M  V30 33 H 2.042426 -2.800193 -1.630073 0
M  V30 34 H 2.625297 -2.793459 1.397646 0
M  V30 35 H 3.332919 -3.744962 0.067788 0
M  V30 36 H 4.891187 -2.005292 -0.169753 0
M  V30 37 H 5.612434 0.279886 -0.168682 0
M  V30 38 H 5.114578 2.668181 0.140951 0
M  V30 39 H 0.494199 4.144339 1.451694 0
M  V30 40 H 0.615115 -0.145840 2.671505 0
M  V30 41 H -1.439421 -1.324429 3.187199 0
M  V30 42 H -3.859768 -1.569094 2.983434 0
M  V30 43 H -5.936491 -0.749540 2.072638 0
M  V30 44 H -6.070863 1.241591 0.634941 0
M  V30 45 H -3.965086 2.463575 0.089015 0
M  V30 46 H -1.541583 2.707092 0.296051 0
M  V30 END ATOM
M  V30 BEGIN BOND
M  V30 1 1 1 2
M  V30 2 1 2 3
M  V30 3 1 2 4
M  V30 4 1 4 5
M  V30 5 1 5 6
M  V30 6 1 6 7
M  V30 7 1 7 8
M  V30 8 2 8 9
M  V30 9 1 9 10
M  V30 10 1 10 11
M  V30 11 2 11 12
M  V30 12 1 12 13
M  V30 13 1 13 14
M  V30 14 2 14 15
M  V30 15 1 15 16
M  V30 16 2 16 17
M  V30 17 1 17 18
M  V30 18 2 18 19
M  V30 19 1 19 20
M  V30 20 2 20 21
M  V30 21 1 21 22
M  V30 22 2 22 23
M  V30 23 2 13 24
M  V30 24 1 24 25
M  V30 25 2 25 7
M  V30 26 1 24 10
M  V30 27 1 23 14
M  V30 28 1 22 17
M  V30 29 1 1 26
M  V30 30 1 1 27
M  V30 31 1 1 28
M  V30 32 1 3 29
M  V30 33 1 3 30
M  V30 34 1 3 31
M  V30 35 1 4 32
M  V30 36 1 4 33
M  V30 37 1 5 34
M  V30 38 1 5 35
M  V30 39 1 6 36
M  V30 40 1 8 37
M  V30 41 1 9 38
M  V30 42 1 12 39
M  V30 43 1 15 40
M  V30 44 1 16 41
M  V30 45 1 18 42
M  V30 46 1 19 43
M  V30 47 1 20 44
M  V30 48 1 21 45
M  V30 49 1 23 46
M  V30 END BOND
M  V30 END CTAB
M  END
>  <Dataset>  (752) 
ChEMBL_Kinases

>  <Ligand_Instance>  (752) 
nan

>  <PDB_ID>  (752) 
nan

>  <Standardized_SMILES>  (752) 
CN(C)CCNc1ccn2ncc(-c3ccc4ccccc4c3)c2n1

>  <Name>  (752) 
nan

>  <Pocket>  (752) 
nan

>  <ATP_Site>  (752) 
nan

>  <Peripheral>  (752) 
nan

>  <Num_H_Atoms_ProtBoundConf>  (752) 
nan

>  <Num_Resolved_Atoms>  (752) 
nan

>  <Num_Not_Resolved_Atoms>  (752) 
nan

$$$$
CHEMBL244353
     RDKit          3D

  0  0  0  0  0  0  0  0  0  0999 V3000
M  V30 BEGIN CTAB
M  V30 COUNTS 38 42 0 0 0
M  V30 BEGIN ATOM
M  V30 1 O 4.900044 -0.110498 1.855455 0
M  V30 2 C 3.780687 -0.663741 1.989961 0
M  V30 3 N 3.631222 -1.704146 2.980118 0
M  V30 4 C 2.279067 -2.130802 2.899582 0
M  V30 5 O 1.949018 -3.036092 3.685912 0
M  V30 6 C 1.561027 -1.401510 1.895277 0
M  V30 7 C 2.479733 -0.526840 1.361854 0
M  V30 8 C 2.078646 0.308428 0.372310 0
M  V30 9 C 2.910984 1.209732 -0.233567 0
M  V30 10 O 4.233439 1.355725 0.113106 0
M  V30 11 C 2.554283 2.086581 -1.259948 0
M  V30 12 C 1.223799 2.026806 -1.695744 0
M  V30 13 C 0.360800 1.117404 -1.091320 0
M  V30 14 O -0.896600 1.231608 -1.669716 0
M  V30 15 S -2.033867 2.374430 -1.091529 0
M  V30 16 O -1.657490 3.758842 -1.495935 0
M  V30 17 O -1.977702 2.293775 0.424708 0
M  V30 18 O -3.582986 1.971527 -1.556067 0
M  V30 19 C 0.780103 0.280154 -0.084993 0
M  V30 20 C -0.161451 -0.583463 0.424475 0
M  V30 21 N -1.432866 -0.809787 0.148842 0
M  V30 22 C -1.851696 -1.806615 0.977687 0
M  V30 23 C -3.112032 -2.422654 1.095913 0
M  V30 24 C -3.364769 -3.431940 2.002289 0
M  V30 25 C -2.308121 -3.825112 2.809646 0
M  V30 26 C -1.093904 -3.195526 2.659788 0
M  V30 27 C -0.797245 -2.194420 1.778858 0
M  V30 28 C 0.275016 -1.419547 1.428166 0
M  V30 29 H 4.416353 -2.045053 3.618982 0
M  V30 30 H 4.943818 1.284519 -0.607652 0
M  V30 31 H 3.243636 2.799033 -1.728373 0
M  V30 32 H 0.971843 2.724561 -2.500792 0
M  V30 33 H -3.577512 1.283272 -2.293709 0
M  V30 34 H -2.086587 -0.412373 -0.520997 0
M  V30 35 H -3.966076 -2.137795 0.476168 0
M  V30 36 H -4.338420 -3.889107 2.074949 0
M  V30 37 H -2.503398 -4.613738 3.518715 0
M  V30 38 H -0.356075 -3.566772 3.319761 0
M  V30 END ATOM
M  V30 BEGIN BOND
M  V30 1 2 1 2
M  V30 2 1 2 3
M  V30 3 1 3 4
M  V30 4 2 4 5
M  V30 5 1 4 6
M  V30 6 2 6 7
M  V30 7 1 7 8
M  V30 8 2 8 9
M  V30 9 1 9 10
M  V30 10 1 9 11
M  V30 11 2 11 12
M  V30 12 1 12 13
M  V30 13 1 13 14
M  V30 14 1 14 15
M  V30 15 2 15 16
M  V30 16 2 15 17
M  V30 17 1 15 18
M  V30 18 2 13 19
M  V30 19 1 19 20
M  V30 20 1 20 21
M  V30 21 1 21 22
M  V30 22 2 22 23
M  V30 23 1 23 24
M  V30 24 2 24 25
M  V30 25 1 25 26
M  V30 26 2 26 27
M  V30 27 1 27 28
M  V30 28 1 7 2
M  V30 29 1 19 8
M  V30 30 2 28 20
M  V30 31 1 28 6
M  V30 32 1 27 22
M  V30 33 1 3 29
M  V30 34 1 10 30
M  V30 35 1 11 31
M  V30 36 1 12 32
M  V30 37 1 18 33
M  V30 38 1 21 34
M  V30 39 1 23 35
M  V30 40 1 24 36
M  V30 41 1 25 37
M  V30 42 1 26 38
M  V30 END BOND
M  V30 END CTAB
M  END
>  <Dataset>  (753) 
ChEMBL_Kinases

>  <Ligand_Instance>  (753) 
nan

>  <PDB_ID>  (753) 
nan

>  <Standardized_SMILES>  (753) 
O=C1NC(=O)c2c1c1c(O)ccc(OS(=O)(=O)O)c1c1[nH]c3ccccc3c21

>  <Name>  (753) 
nan

>  <Pocket>  (753) 
nan

>  <ATP_Site>  (753) 
nan

>  <Peripheral>  (753) 
nan

>  <Num_H_Atoms_ProtBoundConf>  (753) 
nan

>  <Num_Resolved_Atoms>  (753) 
nan

>  <Num_Not_Resolved_Atoms>  (753) 
nan

$$$$
CHEMBL2442308
     RDKit          3D

  0  0  0  0  0  0  0  0  0  0999 V3000
M  V30 BEGIN CTAB
M  V30 COUNTS 44 47 0 0 0
M  V30 BEGIN ATOM
M  V30 1 N 0.299729 -5.249263 3.109239 0
M  V30 2 C 0.229212 -4.034798 2.294811 0
M  V30 3 C -0.288637 -4.454029 0.934109 0
M  V30 4 N -0.387322 -3.314813 0.077717 0
M  V30 5 C 0.443676 -2.317788 -0.486598 0
M  V30 6 C 0.963750 -2.611341 -1.749318 0
M  V30 7 C 1.792512 -1.661346 -2.359366 0
M  V30 8 N 2.073161 -0.500533 -1.736009 0
M  V30 9 N 2.825812 0.539021 -2.119583 0
M  V30 10 C 2.778335 1.465096 -1.116426 0
M  V30 11 C 1.981234 1.008572 -0.073711 0
M  V30 12 C 1.694958 1.716060 1.159903 0
M  V30 13 C 2.840094 2.037542 1.883797 0
M  V30 14 C 2.732656 2.714343 3.079306 0
M  V30 15 C 1.507545 3.069612 3.554264 0
M  V30 16 C 0.348323 2.762824 2.855101 0
M  V30 17 C 0.469387 2.087831 1.664577 0
M  V30 18 C -0.677995 1.712462 0.850954 0
M  V30 19 C -1.523681 0.858194 1.556238 0
M  V30 20 C -2.688398 0.353226 1.012642 0
M  V30 21 C -3.002446 0.730891 -0.293769 0
M  V30 22 C -2.170376 1.576547 -0.999222 0
M  V30 23 C -1.010657 2.071527 -0.440005 0
M  V30 24 C 1.561491 -0.235432 -0.516229 0
M  V30 25 N 0.763879 -1.135000 0.085358 0
M  V30 26 H -0.681354 -5.574087 3.270341 0
M  V30 27 H 0.829600 -5.975178 2.608055 0
M  V30 28 H 1.215312 -3.562338 2.219334 0
M  V30 29 H -0.485026 -3.367387 2.815291 0
M  V30 30 H 0.476908 -5.133415 0.500548 0
M  V30 31 H -1.268977 -4.926847 1.042917 0
M  V30 32 H -1.310672 -3.013691 -0.330600 0
M  V30 33 H 0.807317 -3.488564 -2.325168 0
M  V30 34 H 2.231678 -1.825394 -3.341743 0
M  V30 35 H 3.313239 2.393362 -1.201867 0
M  V30 36 H 3.849576 1.787706 1.569176 0
M  V30 37 H 3.535834 3.022603 3.734768 0
M  V30 38 H 1.301122 3.604985 4.485513 0
M  V30 39 H -0.660386 3.015786 3.177063 0
M  V30 40 H -1.377302 0.494849 2.585571 0
M  V30 41 H -3.372534 -0.311696 1.523690 0
M  V30 42 H -3.913617 0.368195 -0.793774 0
M  V30 43 H -2.370353 1.896907 -2.010320 0
M  V30 44 H -0.278725 2.733977 -0.878989 0
M  V30 END ATOM
M  V30 BEGIN BOND
M  V30 1 1 1 2
M  V30 2 1 2 3
M  V30 3 1 3 4
M  V30 4 1 4 5
M  V30 5 1 5 6
M  V30 6 2 6 7
M  V30 7 1 7 8
M  V30 8 1 8 9
M  V30 9 2 9 10
M  V30 10 1 10 11
M  V30 11 1 11 12
M  V30 12 2 12 13
M  V30 13 1 13 14
M  V30 14 2 14 15
M  V30 15 1 15 16
M  V30 16 2 16 17
M  V30 17 1 17 18
M  V30 18 2 18 19
M  V30 19 1 19 20
M  V30 20 2 20 21
M  V30 21 1 21 22
M  V30 22 2 22 23
M  V30 23 2 11 24
M  V30 24 1 24 25
M  V30 25 2 25 5
M  V30 26 1 24 8
M  V30 27 1 17 12
M  V30 28 1 23 18
M  V30 29 1 1 26
M  V30 30 1 1 27
M  V30 31 1 2 28
M  V30 32 1 2 29
M  V30 33 1 3 30
M  V30 34 1 3 31
M  V30 35 1 4 32
M  V30 36 1 6 33
M  V30 37 1 7 34
M  V30 38 1 10 35
M  V30 39 1 13 36
M  V30 40 1 14 37
M  V30 41 1 15 38
M  V30 42 1 16 39
M  V30 43 1 19 40
M  V30 44 1 20 41
M  V30 45 1 21 42
M  V30 46 1 22 43
M  V30 47 1 23 44
M  V30 END BOND
M  V30 END CTAB
M  END
>  <Dataset>  (754) 
ChEMBL_Kinases

>  <Ligand_Instance>  (754) 
nan

>  <PDB_ID>  (754) 
nan

>  <Standardized_SMILES>  (754) 
NCCNc1ccn2ncc(-c3ccccc3-c3ccccc3)c2n1

>  <Name>  (754) 
nan

>  <Pocket>  (754) 
nan

>  <ATP_Site>  (754) 
nan

>  <Peripheral>  (754) 
nan

>  <Num_H_Atoms_ProtBoundConf>  (754) 
nan

>  <Num_Resolved_Atoms>  (754) 
nan

>  <Num_Not_Resolved_Atoms>  (754) 
nan

$$$$
CHEMBL2442309
     RDKit          3D

  0  0  0  0  0  0  0  0  0  0999 V3000
M  V30 BEGIN CTAB
M  V30 COUNTS 49 52 0 0 0
M  V30 BEGIN ATOM
M  V30 1 N 1.217801 -6.082107 2.712201 0
M  V30 2 C 0.241943 -5.140826 2.216805 0
M  V30 3 C 0.876133 -4.262518 1.128409 0
M  V30 4 N 1.976095 -3.573778 1.719803 0
M  V30 5 C 2.594105 -2.746299 0.760735 0
M  V30 6 C 3.602346 -3.246911 -0.019578 0
M  V30 7 C 4.213031 -2.440490 -0.961819 0
M  V30 8 N 3.813433 -1.145008 -1.116754 0
M  V30 9 N 4.206430 -0.155538 -1.921930 0
M  V30 10 C 3.492366 0.950041 -1.686936 0
M  V30 11 C 2.580481 0.672373 -0.672299 0
M  V30 12 C 1.548858 1.504914 -0.008436 0
M  V30 13 C 1.893011 2.788674 0.368398 0
M  V30 14 C 0.890695 3.540705 0.992056 0
M  V30 15 C -0.378673 3.059848 1.232519 0
M  V30 16 C -0.705606 1.774531 0.849384 0
M  V30 17 N -2.008038 1.247009 1.083030 0
M  V30 18 C -2.514104 -0.074339 0.764214 0
M  V30 19 C -3.596054 0.116645 -0.282035 0
M  V30 20 C -4.719585 0.889019 0.364837 0
M  V30 21 C -4.323443 1.391077 1.719067 0
M  V30 22 C -2.992983 2.105121 1.719962 0
M  V30 23 C 0.275305 1.028309 0.235126 0
M  V30 24 C 2.821278 -0.667861 -0.342295 0
M  V30 25 N 2.224889 -1.445072 0.573383 0
M  V30 26 H 0.872162 -7.046252 2.561547 0
M  V30 27 H 2.116172 -5.921239 2.224663 0
M  V30 28 H -0.624511 -5.701575 1.800388 0
M  V30 29 H -0.163355 -4.503086 3.034130 0
M  V30 30 H 1.102922 -4.834414 0.235573 0
M  V30 31 H 0.089497 -3.505948 0.873829 0
M  V30 32 H 2.389448 -3.566549 2.679197 0
M  V30 33 H 3.916070 -4.277581 0.107844 0
M  V30 34 H 5.010275 -2.848135 -1.574223 0
M  V30 35 H 3.531035 1.932403 -2.140288 0
M  V30 36 H 2.866552 3.234887 0.213869 0
M  V30 37 H 1.052727 4.571327 1.332728 0
M  V30 38 H -1.138125 3.660552 1.717144 0
M  V30 39 H -2.939538 -0.576648 1.655854 0
M  V30 40 H -1.703886 -0.703228 0.402895 0
M  V30 41 H -3.939432 -0.850022 -0.703649 0
M  V30 42 H -3.226298 0.708935 -1.124923 0
M  V30 43 H -5.591541 0.211756 0.448458 0
M  V30 44 H -5.042759 1.746889 -0.265668 0
M  V30 45 H -4.394696 0.590256 2.474474 0
M  V30 46 H -5.107669 2.146205 2.021766 0
M  V30 47 H -3.095294 3.038409 1.149641 0
M  V30 48 H -2.736186 2.265867 2.787026 0
M  V30 49 H 0.119617 0.032221 -0.094526 0
M  V30 END ATOM
M  V30 BEGIN BOND
M  V30 1 1 1 2
M  V30 2 1 2 3
M  V30 3 1 3 4
M  V30 4 1 4 5
M  V30 5 1 5 6
M  V30 6 2 6 7
M  V30 7 1 7 8
M  V30 8 1 8 9
M  V30 9 2 9 10
M  V30 10 1 10 11
M  V30 11 1 11 12
M  V30 12 2 12 13
M  V30 13 1 13 14
M  V30 14 2 14 15
M  V30 15 1 15 16
M  V30 16 1 16 17
M  V30 17 1 17 18
M  V30 18 1 18 19
M  V30 19 1 19 20
M  V30 20 1 20 21
M  V30 21 1 21 22
M  V30 22 2 16 23
M  V30 23 2 11 24
M  V30 24 1 24 25
M  V30 25 2 25 5
M  V30 26 1 24 8
M  V30 27 1 23 12
M  V30 28 1 22 17
M  V30 29 1 1 26
M  V30 30 1 1 27
M  V30 31 1 2 28
M  V30 32 1 2 29
M  V30 33 1 3 30
M  V30 34 1 3 31
M  V30 35 1 4 32
M  V30 36 1 6 33
M  V30 37 1 7 34
M  V30 38 1 10 35
M  V30 39 1 13 36
M  V30 40 1 14 37
M  V30 41 1 15 38
M  V30 42 1 18 39
M  V30 43 1 18 40
M  V30 44 1 19 41
M  V30 45 1 19 42
M  V30 46 1 20 43
M  V30 47 1 20 44
M  V30 48 1 21 45
M  V30 49 1 21 46
M  V30 50 1 22 47
M  V30 51 1 22 48
M  V30 52 1 23 49
M  V30 END BOND
M  V30 END CTAB
M  END
>  <Dataset>  (755) 
ChEMBL_Kinases

>  <Ligand_Instance>  (755) 
nan

>  <PDB_ID>  (755) 
nan

>  <Standardized_SMILES>  (755) 
NCCNc1ccn2ncc(-c3cccc(N4CCCCC4)c3)c2n1

>  <Name>  (755) 
nan

>  <Pocket>  (755) 
nan

>  <ATP_Site>  (755) 
nan

>  <Peripheral>  (755) 
nan

>  <Num_H_Atoms_ProtBoundConf>  (755) 
nan

>  <Num_Resolved_Atoms>  (755) 
nan

>  <Num_Not_Resolved_Atoms>  (755) 
nan

$$$$
CHEMBL244231
     RDKit          3D

  0  0  0  0  0  0  0  0  0  0999 V3000
M  V30 BEGIN CTAB
M  V30 COUNTS 62 66 0 0 0
M  V30 BEGIN ATOM
M  V30 1 C -1.296186 3.597815 7.592371 0
M  V30 2 C 0.064826 3.917138 7.091509 0
M  V30 3 O 0.101586 3.427933 5.970997 0
M  V30 4 C 1.409434 4.206161 6.538012 0
M  V30 5 C 1.597904 3.668585 5.175769 0
M  V30 6 C 2.066137 2.386227 4.945996 0
M  V30 7 C 2.237962 1.898898 3.666983 0
M  V30 8 C 1.945080 2.683042 2.547121 0
M  V30 9 C 2.165931 2.056333 1.240974 0
M  V30 10 N 2.771656 2.573216 0.142594 0
M  V30 11 N 2.776671 1.692478 -0.849173 0
M  V30 12 C 2.176771 0.554956 -0.455844 0
M  V30 13 C 1.794119 0.780752 0.850978 0
M  V30 14 C 1.106356 -0.448214 1.382931 0
M  V30 15 C 1.167696 -1.360588 0.197117 0
M  V30 16 C 0.685585 -2.648349 0.101574 0
M  V30 17 C 0.781683 -3.434578 -1.027514 0
M  V30 18 C 0.319430 -4.811570 -1.267512 0
M  V30 19 N -0.910727 -4.922646 -1.923007 0
M  V30 20 C -2.110746 -4.414040 -1.448784 0 CFG=1
M  V30 21 C -2.367749 -2.948058 -1.482454 0
M  V30 22 C -2.163873 -2.366184 -2.873284 0
M  V30 23 C -2.403551 -3.459287 -3.914982 0 CFG=2
M  V30 24 C -2.749318 -2.863900 -5.262661 0
M  V30 25 C -3.577325 -4.304454 -3.469047 0
M  V30 26 C -3.314497 -5.052201 -2.182398 0
M  V30 27 C 1.416216 -2.832674 -2.107464 0
M  V30 28 C 1.919724 -1.526138 -2.051213 0
M  V30 29 C 1.794314 -0.787847 -0.892770 0
M  V30 30 C 1.478571 3.961008 2.778939 0
M  V30 31 C 1.307177 4.447348 4.057700 0
M  V30 32 H -2.081954 4.076211 6.969477 0
M  V30 33 H -1.500006 2.510911 7.590777 0
M  V30 34 H -1.393385 3.945901 8.639299 0
M  V30 35 H 1.591571 5.317408 6.498913 0
M  V30 36 H 2.189889 3.805679 7.225484 0
M  V30 37 H 2.276950 1.825937 5.852475 0
M  V30 38 H 2.611864 0.875565 3.659477 0
M  V30 39 H 3.181681 1.836884 -1.807969 0
M  V30 40 H 0.089917 -0.238556 1.712685 0
M  V30 41 H 1.747917 -0.831143 2.203496 0
M  V30 42 H 0.176077 -3.164831 0.929062 0
M  V30 43 H 1.135645 -5.431855 -1.737836 0
M  V30 44 H 0.185181 -5.359486 -0.265058 0
M  V30 45 H -1.048245 -5.928783 -2.207387 0
M  V30 46 H -2.218667 -4.711769 -0.362264 0
M  V30 47 H -1.951108 -2.340642 -0.674873 0
M  V30 48 H -3.494749 -2.847438 -1.321035 0
M  V30 49 H -1.172213 -1.894287 -2.995785 0
M  V30 50 H -2.906477 -1.570281 -3.079424 0
M  V30 51 H -1.483822 -4.052194 -4.057547 0
M  V30 52 H -1.843216 -2.861706 -5.938166 0
M  V30 53 H -3.455573 -3.561637 -5.772459 0
M  V30 54 H -3.226994 -1.882720 -5.220203 0
M  V30 55 H -3.854944 -5.022821 -4.238725 0
M  V30 56 H -4.421569 -3.609906 -3.312019 0
M  V30 57 H -4.171874 -4.930365 -1.491893 0
M  V30 58 H -3.142145 -6.132147 -2.308899 0
M  V30 59 H 1.574339 -3.300639 -3.055211 0
M  V30 60 H 2.417466 -1.019761 -2.863617 0
M  V30 61 H 1.262874 4.537891 1.880143 0
M  V30 62 H 0.933532 5.467176 4.159331 0
M  V30 END ATOM
M  V30 BEGIN BOND
M  V30 1 1 1 2
M  V30 2 2 2 3
M  V30 3 1 2 4
M  V30 4 1 4 5
M  V30 5 2 5 6
M  V30 6 1 6 7
M  V30 7 2 7 8
M  V30 8 1 8 9
M  V30 9 2 9 10
M  V30 10 1 10 11
M  V30 11 1 11 12
M  V30 12 2 12 13
M  V30 13 1 13 14
M  V30 14 1 14 15
M  V30 15 2 15 16
M  V30 16 1 16 17
M  V30 17 1 17 18
M  V30 18 1 18 19
M  V30 19 1 19 20
M  V30 20 1 20 21
M  V30 21 1 21 22
M  V30 22 1 22 23
M  V30 23 1 23 24
M  V30 24 1 23 25
M  V30 25 1 25 26
M  V30 26 2 17 27
M  V30 27 1 27 28
M  V30 28 2 28 29
M  V30 29 1 8 30
M  V30 30 2 30 31
M  V30 31 1 31 5
M  V30 32 1 13 9
M  V30 33 1 29 15
M  V30 34 1 29 12
M  V30 35 1 26 20
M  V30 36 1 1 32
M  V30 37 1 1 33
M  V30 38 1 1 34
M  V30 39 1 4 35
M  V30 40 1 4 36
M  V30 41 1 6 37
M  V30 42 1 7 38
M  V30 43 1 11 39
M  V30 44 1 14 40
M  V30 45 1 14 41
M  V30 46 1 16 42
M  V30 47 1 18 43
M  V30 48 1 18 44
M  V30 49 1 19 45
M  V30 50 1 20 46 CFG=1
M  V30 51 1 21 47
M  V30 52 1 21 48
M  V30 53 1 22 49
M  V30 54 1 22 50
M  V30 55 1 23 51 CFG=3
M  V30 56 1 24 52
M  V30 57 1 24 53
M  V30 58 1 24 54
M  V30 59 1 25 55
M  V30 60 1 25 56
M  V30 61 1 26 57
M  V30 62 1 26 58
M  V30 63 1 27 59
M  V30 64 1 28 60
M  V30 65 1 30 61
M  V30 66 1 31 62
M  V30 END BOND
M  V30 END CTAB
M  END
>  <Dataset>  (756) 
ChEMBL_Kinases

>  <Ligand_Instance>  (756) 
nan

>  <PDB_ID>  (756) 
nan

>  <Standardized_SMILES>  (756) 
CC(=O)Cc1ccc(-c2n[nH]c3c2Cc2cc(CN[C@H]4CC[C@H](C)CC4)ccc2-3)cc1

>  <Name>  (756) 
nan

>  <Pocket>  (756) 
nan

>  <ATP_Site>  (756) 
nan

>  <Peripheral>  (756) 
nan

>  <Num_H_Atoms_ProtBoundConf>  (756) 
nan

>  <Num_Resolved_Atoms>  (756) 
nan

>  <Num_Not_Resolved_Atoms>  (756) 
nan

$$$$
CHEMBL2442310
     RDKit          3D

  0  0  0  0  0  0  0  0  0  0999 V3000
M  V30 BEGIN CTAB
M  V30 COUNTS 44 48 0 0 0
M  V30 BEGIN ATOM
M  V30 1 C 2.778896 -3.216607 0.427127 0
M  V30 2 C 1.770410 -3.842984 1.152920 0
M  V30 3 N 0.535535 -3.862532 0.604859 0
M  V30 4 C 0.291549 -3.298080 -0.599629 0
M  V30 5 C 1.253206 -2.660118 -1.372116 0
M  V30 6 C 0.909976 -2.071501 -2.671809 0
M  V30 7 N 0.470823 -0.706086 -2.633757 0
M  V30 8 C 1.386792 0.180688 -1.990471 0
M  V30 9 C 2.602324 0.680866 -2.424828 0
M  V30 10 C 3.259435 1.564274 -1.569570 0
M  V30 11 N 2.697100 1.883694 -0.390316 0
M  V30 12 N 3.176220 2.697464 0.505817 0
M  V30 13 C 2.326939 2.786763 1.567417 0
M  V30 14 C 1.245996 1.957954 1.290091 0
M  V30 15 C -0.012263 1.556120 1.960714 0
M  V30 16 C -0.904412 2.519186 2.385885 0
M  V30 17 C -2.068867 2.099917 3.027315 0
M  V30 18 C -2.240216 0.744175 3.190206 0
M  V30 19 C -3.379621 0.246978 3.827354 0
M  V30 20 C -3.655096 -1.095528 4.047172 0
M  V30 21 C -2.668268 -1.964122 3.565726 0
M  V30 22 C -1.515280 -1.588519 2.927813 0
M  V30 23 C -1.360299 -0.229174 2.772201 0
M  V30 24 C -0.188902 0.190717 2.125968 0
M  V30 25 C 1.515446 1.397014 0.031719 0
M  V30 26 N 0.865558 0.529363 -0.801684 0
M  V30 27 C 2.516305 -2.641063 -0.805066 0
M  V30 28 H 3.767205 -3.200726 0.860235 0
M  V30 29 H 1.934043 -4.300930 2.111753 0
M  V30 30 H -0.738366 -3.384187 -0.919581 0
M  V30 31 H 0.066389 -2.676625 -3.126914 0
M  V30 32 H 1.769450 -2.179401 -3.389368 0
M  V30 33 H -0.401683 -0.228058 -2.988329 0
M  V30 34 H 2.871571 0.299981 -3.398654 0
M  V30 35 H 4.194032 1.915172 -1.956723 0
M  V30 36 H 2.288153 3.308959 2.509316 0
M  V30 37 H -0.705320 3.585351 2.221840 0
M  V30 38 H -2.805043 2.811013 3.381114 0
M  V30 39 H -4.142229 0.930963 4.199026 0
M  V30 40 H -4.553892 -1.421893 4.545354 0
M  V30 41 H -2.832577 -3.034379 3.713152 0
M  V30 42 H -0.785910 -2.297211 2.576116 0
M  V30 43 H 0.561306 -0.509998 1.763400 0
M  V30 44 H 3.301467 -2.147708 -1.375208 0
M  V30 END ATOM
M  V30 BEGIN BOND
M  V30 1 2 1 2
M  V30 2 1 2 3
M  V30 3 2 3 4
M  V30 4 1 4 5
M  V30 5 1 5 6
M  V30 6 1 6 7
M  V30 7 1 7 8
M  V30 8 1 8 9
M  V30 9 2 9 10
M  V30 10 1 10 11
M  V30 11 1 11 12
M  V30 12 2 12 13
M  V30 13 1 13 14
M  V30 14 1 14 15
M  V30 15 2 15 16
M  V30 16 1 16 17
M  V30 17 2 17 18
M  V30 18 1 18 19
M  V30 19 2 19 20
M  V30 20 1 20 21
M  V30 21 2 21 22
M  V30 22 1 22 23
M  V30 23 2 23 24
M  V30 24 2 14 25
M  V30 25 1 25 26
M  V30 26 2 5 27
M  V30 27 1 27 1
M  V30 28 2 26 8
M  V30 29 1 25 11
M  V30 30 1 24 15
M  V30 31 1 23 18
M  V30 32 1 1 28
M  V30 33 1 2 29
M  V30 34 1 4 30
M  V30 35 1 6 31
M  V30 36 1 6 32
M  V30 37 1 7 33
M  V30 38 1 9 34
M  V30 39 1 10 35
M  V30 40 1 13 36
M  V30 41 1 16 37
M  V30 42 1 17 38
M  V30 43 1 19 39
M  V30 44 1 20 40
M  V30 45 1 21 41
M  V30 46 1 22 42
M  V30 47 1 24 43
M  V30 48 1 27 44
M  V30 END BOND
M  V30 END CTAB
M  END
>  <Dataset>  (757) 
ChEMBL_Kinases

>  <Ligand_Instance>  (757) 
nan

>  <PDB_ID>  (757) 
nan

>  <Standardized_SMILES>  (757) 
c1cncc(CNc2ccn3ncc(-c4ccc5ccccc5c4)c3n2)c1

>  <Name>  (757) 
nan

>  <Pocket>  (757) 
nan

>  <ATP_Site>  (757) 
nan

>  <Peripheral>  (757) 
nan

>  <Num_H_Atoms_ProtBoundConf>  (757) 
nan

>  <Num_Resolved_Atoms>  (757) 
nan

>  <Num_Not_Resolved_Atoms>  (757) 
nan

$$$$
CHEMBL2442311
     RDKit          3D

  0  0  0  0  0  0  0  0  0  0999 V3000
M  V30 BEGIN CTAB
M  V30 COUNTS 41 45 0 0 0
M  V30 BEGIN ATOM
M  V30 1 C 2.691040 -6.615718 -0.356302 0
M  V30 2 C 2.164677 -7.538146 0.519255 0
M  V30 3 N 1.249436 -7.096718 1.417298 0
M  V30 4 C 0.866439 -5.801862 1.453603 0
M  V30 5 C 1.379263 -4.832888 0.578350 0
M  V30 6 N 0.951860 -3.489537 0.683319 0
M  V30 7 C 0.698112 -2.512712 -0.307714 0
M  V30 8 C 0.690996 -2.782493 -1.666391 0
M  V30 9 C 0.446999 -1.745121 -2.535235 0
M  V30 10 N 0.218283 -0.493928 -2.110355 0
M  V30 11 N -0.034235 0.626783 -2.795656 0
M  V30 12 C -0.196641 1.640710 -1.928172 0
M  V30 13 C -0.031994 1.097216 -0.647541 0
M  V30 14 C -0.118410 1.829189 0.609341 0
M  V30 15 C 0.882599 1.590090 1.540108 0
M  V30 16 C 0.942589 2.198826 2.774588 0
M  V30 17 C -0.095637 3.089946 3.025999 0
M  V30 18 C -0.140276 3.757445 4.232573 0
M  V30 19 C -1.142168 4.663023 4.567366 0
M  V30 20 C -2.150541 4.909298 3.640683 0
M  V30 21 C -2.133040 4.249211 2.409675 0
M  V30 22 C -1.116089 3.365444 2.136820 0
M  V30 23 C -1.124714 2.727556 0.918001 0
M  V30 24 C 0.228313 -0.248918 -0.791716 0
M  V30 25 N 0.466384 -1.262205 0.048489 0
M  V30 26 C 2.310038 -5.276530 -0.335544 0
M  V30 27 H 3.423475 -6.909065 -1.095487 0
M  V30 28 H 2.519943 -8.554324 0.428386 0
M  V30 29 H 0.123462 -5.498291 2.197620 0
M  V30 30 H 0.812101 -3.213063 1.688127 0
M  V30 31 H 0.857962 -3.769840 -2.049659 0
M  V30 32 H 0.433222 -1.916116 -3.609783 0
M  V30 33 H -0.411915 2.671051 -2.166005 0
M  V30 34 H 1.682297 0.885931 1.313999 0
M  V30 35 H 1.729173 2.002685 3.490752 0
M  V30 36 H 0.611970 3.610741 4.995912 0
M  V30 37 H -1.148492 5.178537 5.536863 0
M  V30 38 H -2.941998 5.617120 3.893287 0
M  V30 39 H -2.924551 4.462359 1.719513 0
M  V30 40 H -1.890203 2.892873 0.171034 0
M  V30 41 H 2.773107 -4.604608 -1.040318 0
M  V30 END ATOM
M  V30 BEGIN BOND
M  V30 1 2 1 2
M  V30 2 1 2 3
M  V30 3 2 3 4
M  V30 4 1 4 5
M  V30 5 1 5 6
M  V30 6 1 6 7
M  V30 7 1 7 8
M  V30 8 2 8 9
M  V30 9 1 9 10
M  V30 10 1 10 11
M  V30 11 2 11 12
M  V30 12 1 12 13
M  V30 13 1 13 14
M  V30 14 2 14 15
M  V30 15 1 15 16
M  V30 16 2 16 17
M  V30 17 1 17 18
M  V30 18 2 18 19
M  V30 19 1 19 20
M  V30 20 2 20 21
M  V30 21 1 21 22
M  V30 22 2 22 23
M  V30 23 2 13 24
M  V30 24 1 24 25
M  V30 25 2 5 26
M  V30 26 1 26 1
M  V30 27 2 25 7
M  V30 28 1 24 10
M  V30 29 1 23 14
M  V30 30 1 22 17
M  V30 31 1 1 27
M  V30 32 1 2 28
M  V30 33 1 4 29
M  V30 34 1 6 30
M  V30 35 1 8 31
M  V30 36 1 9 32
M  V30 37 1 12 33
M  V30 38 1 15 34
M  V30 39 1 16 35
M  V30 40 1 18 36
M  V30 41 1 19 37
M  V30 42 1 20 38
M  V30 43 1 21 39
M  V30 44 1 23 40
M  V30 45 1 26 41
M  V30 END BOND
M  V30 END CTAB
M  END
>  <Dataset>  (758) 
ChEMBL_Kinases

>  <Ligand_Instance>  (758) 
nan

>  <PDB_ID>  (758) 
nan

>  <Standardized_SMILES>  (758) 
c1cncc(Nc2ccn3ncc(-c4ccc5ccccc5c4)c3n2)c1

>  <Name>  (758) 
nan

>  <Pocket>  (758) 
nan

>  <ATP_Site>  (758) 
nan

>  <Peripheral>  (758) 
nan

>  <Num_H_Atoms_ProtBoundConf>  (758) 
nan

>  <Num_Resolved_Atoms>  (758) 
nan

>  <Num_Not_Resolved_Atoms>  (758) 
nan

$$$$
CHEMBL2442312
     RDKit          3D

  0  0  0  0  0  0  0  0  0  0999 V3000
M  V30 BEGIN CTAB
M  V30 COUNTS 32 35 0 0 0
M  V30 BEGIN ATOM
M  V30 1 N -1.988263 -2.873149 3.693139 0
M  V30 2 C -1.677276 -3.329545 2.381193 0
M  V30 3 C -2.051215 -4.532262 1.812345 0
M  V30 4 C -1.620054 -4.736845 0.518128 0
M  V30 5 N -0.884787 -3.818541 -0.136066 0
M  V30 6 N -0.430706 -3.929698 -1.371290 0
M  V30 7 C 0.264396 -2.801116 -1.670601 0
M  V30 8 C 0.195519 -2.013160 -0.538291 0
M  V30 9 C 0.784176 -0.673552 -0.321330 0
M  V30 10 C 2.086018 -0.448771 -0.721451 0
M  V30 11 C 2.538229 0.835315 -0.472798 0
M  V30 12 C 1.818064 1.859023 0.117558 0
M  V30 13 C 2.413553 3.090802 0.297416 0
M  V30 14 C 1.646561 4.095614 0.898696 0
M  V30 15 C 0.350841 3.807146 1.276125 0
M  V30 16 C -0.220260 2.564916 1.084060 0
M  V30 17 C 0.522922 1.541609 0.485473 0
M  V30 18 C -0.009255 0.286931 0.275287 0
M  V30 19 C -0.528603 -2.644696 0.440364 0
M  V30 20 N -0.931499 -2.396102 1.720118 0
M  V30 21 H -1.460440 -2.790124 4.606593 0
M  V30 22 H -2.736345 -2.479372 4.271100 0
M  V30 23 H -2.637403 -5.181419 2.435579 0
M  V30 24 H -1.919198 -5.690229 0.073822 0
M  V30 25 H 0.807013 -2.440879 -2.542442 0
M  V30 26 H 2.691711 -1.191612 -1.179990 0
M  V30 27 H 3.563875 1.064730 -0.771226 0
M  V30 28 H 3.427569 3.296716 -0.004338 0
M  V30 29 H 2.145131 5.046806 1.023529 0
M  V30 30 H -0.204360 4.623240 1.739898 0
M  V30 31 H -1.237479 2.384179 1.395071 0
M  V30 32 H -1.020550 0.129749 0.591704 0
M  V30 END ATOM
M  V30 BEGIN BOND
M  V30 1 1 1 2
M  V30 2 1 2 3
M  V30 3 2 3 4
M  V30 4 1 4 5
M  V30 5 1 5 6
M  V30 6 2 6 7
M  V30 7 1 7 8
M  V30 8 1 8 9
M  V30 9 2 9 10
M  V30 10 1 10 11
M  V30 11 2 11 12
M  V30 12 1 12 13
M  V30 13 2 13 14
M  V30 14 1 14 15
M  V30 15 2 15 16
M  V30 16 1 16 17
M  V30 17 2 17 18
M  V30 18 2 8 19
M  V30 19 1 19 20
M  V30 20 2 20 2
M  V30 21 1 19 5
M  V30 22 1 18 9
M  V30 23 1 17 12
M  V30 24 1 1 21
M  V30 25 1 1 22
M  V30 26 1 3 23
M  V30 27 1 4 24
M  V30 28 1 7 25
M  V30 29 1 10 26
M  V30 30 1 11 27
M  V30 31 1 13 28
M  V30 32 1 14 29
M  V30 33 1 15 30
M  V30 34 1 16 31
M  V30 35 1 18 32
M  V30 END BOND
M  V30 END CTAB
M  END
>  <Dataset>  (759) 
ChEMBL_Kinases

>  <Ligand_Instance>  (759) 
nan

>  <PDB_ID>  (759) 
nan

>  <Standardized_SMILES>  (759) 
Nc1ccn2ncc(-c3ccc4ccccc4c3)c2n1

>  <Name>  (759) 
nan

>  <Pocket>  (759) 
nan

>  <ATP_Site>  (759) 
nan

>  <Peripheral>  (759) 
nan

>  <Num_H_Atoms_ProtBoundConf>  (759) 
nan

>  <Num_Resolved_Atoms>  (759) 
nan

>  <Num_Not_Resolved_Atoms>  (759) 
nan

$$$$
CHEMBL2442313
     RDKit          3D

  0  0  0  0  0  0  0  0  0  0999 V3000
M  V30 BEGIN CTAB
M  V30 COUNTS 42 46 0 0 0
M  V30 BEGIN ATOM
M  V30 1 C 0.862637 -5.530456 3.275324 0
M  V30 2 C 0.987346 -6.128390 2.037507 0
M  V30 3 C 1.196795 -5.335189 0.909794 0
M  V30 4 C 1.273788 -3.957141 1.071836 0
M  V30 5 C 1.483286 -3.188753 -0.065431 0
M  V30 6 C 1.572344 -1.804286 0.013438 0
M  V30 7 C 1.797493 -0.929167 -1.131884 0
M  V30 8 C 2.715217 -1.051137 -2.155686 0
M  V30 9 N 2.516425 0.026940 -2.958791 0
M  V30 10 N 1.532392 0.764946 -2.452757 0
M  V30 11 C 1.017837 1.911749 -2.928016 0
M  V30 12 C -0.010616 2.576336 -2.293758 0
M  V30 13 C -0.475080 1.966715 -1.122861 0
M  V30 14 N -1.512491 2.423100 -0.268941 0
M  V30 15 C -1.462563 3.229978 0.947373 0
M  V30 16 C -0.640434 2.541279 2.017011 0
M  V30 17 C -1.014201 1.207302 2.533386 0
M  V30 18 C -1.356152 2.413678 3.378052 0
M  V30 19 N 0.044852 0.810457 -0.644914 0
M  V30 20 C 1.047957 0.218102 -1.316833 0
M  V30 21 C 1.440477 -1.262427 1.272798 0
M  V30 22 C 1.231943 -1.964489 2.437708 0
M  V30 23 C 1.145988 -3.357964 2.332441 0
M  V30 24 C 0.938743 -4.149099 3.443945 0
M  V30 25 H 0.698599 -6.201330 4.132281 0
M  V30 26 H 0.924943 -7.222416 1.918744 0
M  V30 27 H 1.293164 -5.816007 -0.060505 0
M  V30 28 H 1.585951 -3.620520 -1.052903 0
M  V30 29 H 3.433735 -1.853425 -2.269283 0
M  V30 30 H 1.376704 2.373441 -3.824651 0
M  V30 31 H -0.509502 3.489027 -2.561130 0
M  V30 32 H -2.421978 2.059489 -0.680743 0
M  V30 33 H -1.022602 4.229345 0.768139 0
M  V30 34 H -2.502425 3.396391 1.263129 0
M  V30 35 H 0.436319 2.790322 2.023991 0
M  V30 36 H -1.852501 0.624579 2.100077 0
M  V30 37 H -0.221934 0.568238 2.966086 0
M  V30 38 H -2.420948 2.660030 3.435865 0
M  V30 39 H -0.732902 2.670070 4.259678 0
M  V30 40 H 1.496165 -0.191951 1.424193 0
M  V30 41 H 1.135338 -1.477900 3.413036 0
M  V30 42 H 0.834786 -3.702010 4.444965 0
M  V30 END ATOM
M  V30 BEGIN BOND
M  V30 1 2 1 2
M  V30 2 1 2 3
M  V30 3 2 3 4
M  V30 4 1 4 5
M  V30 5 2 5 6
M  V30 6 1 6 7
M  V30 7 1 7 8
M  V30 8 2 8 9
M  V30 9 1 9 10
M  V30 10 1 10 11
M  V30 11 2 11 12
M  V30 12 1 12 13
M  V30 13 1 13 14
M  V30 14 1 14 15
M  V30 15 1 15 16
M  V30 16 1 16 17
M  V30 17 1 17 18
M  V30 18 2 13 19
M  V30 19 1 19 20
M  V30 20 1 6 21
M  V30 21 2 21 22
M  V30 22 1 22 23
M  V30 23 2 23 24
M  V30 24 1 24 1
M  V30 25 1 23 4
M  V30 26 2 20 7
M  V30 27 1 20 10
M  V30 28 1 18 16
M  V30 29 1 1 25
M  V30 30 1 2 26
M  V30 31 1 3 27
M  V30 32 1 5 28
M  V30 33 1 8 29
M  V30 34 1 11 30
M  V30 35 1 12 31
M  V30 36 1 14 32
M  V30 37 1 15 33
M  V30 38 1 15 34
M  V30 39 1 16 35
M  V30 40 1 17 36
M  V30 41 1 17 37
M  V30 42 1 18 38
M  V30 43 1 18 39
M  V30 44 1 21 40
M  V30 45 1 22 41
M  V30 46 1 24 42
M  V30 END BOND
M  V30 END CTAB
M  END
>  <Dataset>  (760) 
ChEMBL_Kinases

>  <Ligand_Instance>  (760) 
nan

>  <PDB_ID>  (760) 
nan

>  <Standardized_SMILES>  (760) 
c1ccc2cc(-c3cnn4ccc(NCC5CC5)nc34)ccc2c1

>  <Name>  (760) 
nan

>  <Pocket>  (760) 
nan

>  <ATP_Site>  (760) 
nan

>  <Peripheral>  (760) 
nan

>  <Num_H_Atoms_ProtBoundConf>  (760) 
nan

>  <Num_Resolved_Atoms>  (760) 
nan

>  <Num_Not_Resolved_Atoms>  (760) 
nan

$$$$
CHEMBL2442315
     RDKit          3D

  0  0  0  0  0  0  0  0  0  0999 V3000
M  V30 BEGIN CTAB
M  V30 COUNTS 49 53 0 0 0
M  V30 BEGIN ATOM
M  V30 1 O -0.944629 -4.166828 -0.272577 0
M  V30 2 C 0.122961 -3.294703 -0.081922 0 CFG=1
M  V30 3 C 0.690269 -3.529895 1.273889 0
M  V30 4 C 2.049120 -2.985423 1.538074 0
M  V30 5 C 2.914423 -2.679946 0.377499 0 CFG=2
M  V30 6 N 3.809614 -1.581007 0.744967 0
M  V30 7 C 3.349900 -0.298210 1.137747 0
M  V30 8 C 4.188117 0.765798 1.493495 0
M  V30 9 C 3.668845 1.988639 1.865450 0
M  V30 10 N 2.345466 2.218999 1.905013 0
M  V30 11 N 1.709956 3.319468 2.235538 0
M  V30 12 C 0.388040 3.025660 2.110156 0
M  V30 13 C 0.265859 1.704243 1.691232 0
M  V30 14 C -0.983209 1.019752 1.444767 0
M  V30 15 C -1.357042 -0.242566 1.835903 0
M  V30 16 C -2.623331 -0.731156 1.495741 0
M  V30 17 C -3.503916 0.033975 0.773424 0
M  V30 18 C -4.742089 -0.455948 0.446163 0
M  V30 19 C -5.640519 0.303064 -0.281297 0
M  V30 20 C -5.296991 1.558827 -0.682835 0
M  V30 21 C -4.048784 2.060759 -0.356456 0
M  V30 22 C -3.152147 1.303220 0.369568 0
M  V30 23 C -1.904824 1.770939 0.710597 0
M  V30 24 C 1.547679 1.197572 1.563678 0
M  V30 25 N 2.050972 0.025705 1.207371 0
M  V30 26 C 2.166240 -2.368291 -0.892913 0
M  V30 27 C 1.211079 -3.519891 -1.138553 0
M  V30 28 H -0.722224 -4.897531 -0.909207 0
M  V30 29 H -0.207302 -2.249427 -0.185467 0
M  V30 30 H 0.603317 -4.623175 1.491660 0
M  V30 31 H -0.019171 -3.058412 2.003257 0
M  V30 32 H 2.589235 -3.776946 2.138699 0
M  V30 33 H 2.015669 -2.117075 2.238844 0
M  V30 34 H 3.576670 -3.537281 0.127179 0
M  V30 35 H 4.868866 -1.679344 0.739474 0
M  V30 36 H 5.270796 0.581865 1.462553 0
M  V30 37 H 4.401574 2.743020 2.121120 0
M  V30 38 H -0.431654 3.703693 2.303142 0
M  V30 39 H -0.594220 -0.762249 2.398726 0
M  V30 40 H -2.855698 -1.718191 1.827860 0
M  V30 41 H -5.023924 -1.448705 0.759107 0
M  V30 42 H -6.628730 -0.055266 -0.556852 0
M  V30 43 H -5.965326 2.207945 -1.261137 0
M  V30 44 H -3.759534 3.060000 -0.668996 0
M  V30 45 H -1.695781 2.788700 0.354752 0
M  V30 46 H 2.923983 -2.289944 -1.697803 0
M  V30 47 H 1.522702 -1.455597 -0.803147 0
M  V30 48 H 1.705920 -4.507059 -1.018621 0
M  V30 49 H 0.736673 -3.459224 -2.133263 0
M  V30 END ATOM
M  V30 BEGIN BOND
M  V30 1 1 1 2
M  V30 2 1 2 3
M  V30 3 1 3 4
M  V30 4 1 4 5
M  V30 5 1 5 6
M  V30 6 1 6 7
M  V30 7 1 7 8
M  V30 8 2 8 9
M  V30 9 1 9 10
M  V30 10 1 10 11
M  V30 11 2 11 12
M  V30 12 1 12 13
M  V30 13 1 13 14
M  V30 14 2 14 15
M  V30 15 1 15 16
M  V30 16 2 16 17
M  V30 17 1 17 18
M  V30 18 2 18 19
M  V30 19 1 19 20
M  V30 20 2 20 21
M  V30 21 1 21 22
M  V30 22 2 22 23
M  V30 23 2 13 24
M  V30 24 1 24 25
M  V30 25 1 5 26
M  V30 26 1 26 27
M  V30 27 1 27 2
M  V30 28 2 25 7
M  V30 29 1 24 10
M  V30 30 1 23 14
M  V30 31 1 22 17
M  V30 32 1 1 28
M  V30 33 1 2 29 CFG=1
M  V30 34 1 3 30
M  V30 35 1 3 31
M  V30 36 1 4 32
M  V30 37 1 4 33
M  V30 38 1 5 34 CFG=3
M  V30 39 1 6 35
M  V30 40 1 8 36
M  V30 41 1 9 37
M  V30 42 1 12 38
M  V30 43 1 15 39
M  V30 44 1 16 40
M  V30 45 1 18 41
M  V30 46 1 19 42
M  V30 47 1 20 43
M  V30 48 1 21 44
M  V30 49 1 23 45
M  V30 50 1 26 46
M  V30 51 1 26 47
M  V30 52 1 27 48
M  V30 53 1 27 49
M  V30 END BOND
M  V30 END CTAB
M  END
>  <Dataset>  (761) 
ChEMBL_Kinases

>  <Ligand_Instance>  (761) 
nan

>  <PDB_ID>  (761) 
nan

>  <Standardized_SMILES>  (761) 
O[C@H]1CC[C@H](Nc2ccn3ncc(-c4ccc5ccccc5c4)c3n2)CC1

>  <Name>  (761) 
nan

>  <Pocket>  (761) 
nan

>  <ATP_Site>  (761) 
nan

>  <Peripheral>  (761) 
nan

>  <Num_H_Atoms_ProtBoundConf>  (761) 
nan

>  <Num_Resolved_Atoms>  (761) 
nan

>  <Num_Not_Resolved_Atoms>  (761) 
nan

$$$$
CHEMBL2442306
     RDKit          3D

  0  0  0  0  0  0  0  0  0  0999 V3000
M  V30 BEGIN CTAB
M  V30 COUNTS 44 47 0 0 0
M  V30 BEGIN ATOM
M  V30 1 N -1.639371 -6.927350 -1.445898 0
M  V30 2 C -1.304641 -5.710008 -0.709146 0
M  V30 3 C -0.691094 -4.735341 -1.702949 0
M  V30 4 N -0.331402 -3.498063 -1.045085 0
M  V30 5 C 0.259334 -2.433103 -1.778781 0
M  V30 6 C 0.503468 -2.544854 -3.122230 0
M  V30 7 C 1.081437 -1.454339 -3.751492 0
M  V30 8 N 1.404665 -0.307503 -3.092453 0
M  V30 9 N 1.952275 0.841124 -3.473893 0
M  V30 10 C 2.051443 1.658252 -2.396944 0
M  V30 11 C 1.545539 1.004474 -1.277970 0
M  V30 12 C 1.404764 1.398099 0.120331 0
M  V30 13 C 2.361200 2.033677 0.888770 0
M  V30 14 C 2.102766 2.353430 2.209488 0
M  V30 15 C 0.891574 2.051167 2.799507 0
M  V30 16 C 0.579773 2.371524 4.189021 0
M  V30 17 C -0.725675 2.653162 4.530273 0
M  V30 18 C -1.124753 2.967728 5.815125 0
M  V30 19 C -0.187183 3.010538 6.836202 0
M  V30 20 C 1.123994 2.727643 6.493311 0
M  V30 21 C 1.521297 2.411101 5.196814 0
M  V30 22 C -0.076808 1.407872 2.022245 0
M  V30 23 C 0.189804 1.092320 0.704195 0
M  V30 24 C 1.151934 -0.235085 -1.782853 0
M  V30 25 N 0.590303 -1.288044 -1.158764 0
M  V30 26 H -2.594379 -6.790860 -1.851342 0
M  V30 27 H -0.972734 -7.046386 -2.259451 0
M  V30 28 H -0.608542 -5.982597 0.087103 0
M  V30 29 H -2.247834 -5.255393 -0.345685 0
M  V30 30 H -1.384030 -4.581208 -2.553831 0
M  V30 31 H 0.227173 -5.175777 -2.169571 0
M  V30 32 H -0.508168 -3.388873 -0.022693 0
M  V30 33 H 0.265920 -3.429608 -3.685337 0
M  V30 34 H 1.317400 -1.433120 -4.807001 0
M  V30 35 H 2.443873 2.671836 -2.311164 0
M  V30 36 H 3.293936 2.253948 0.395492 0
M  V30 37 H 2.874644 2.855085 2.794528 0
M  V30 38 H -1.515152 2.640633 3.791021 0
M  V30 39 H -2.158969 3.182557 6.042911 0
M  V30 40 H -0.456840 3.252179 7.853807 0
M  V30 41 H 1.866234 2.757416 7.280951 0
M  V30 42 H 2.551841 2.192817 4.948317 0
M  V30 43 H -1.029393 1.164650 2.469756 0
M  V30 44 H -0.601734 0.593461 0.152953 0
M  V30 END ATOM
M  V30 BEGIN BOND
M  V30 1 1 1 2
M  V30 2 1 2 3
M  V30 3 1 3 4
M  V30 4 1 4 5
M  V30 5 1 5 6
M  V30 6 2 6 7
M  V30 7 1 7 8
M  V30 8 1 8 9
M  V30 9 2 9 10
M  V30 10 1 10 11
M  V30 11 1 11 12
M  V30 12 2 12 13
M  V30 13 1 13 14
M  V30 14 2 14 15
M  V30 15 1 15 16
M  V30 16 2 16 17
M  V30 17 1 17 18
M  V30 18 2 18 19
M  V30 19 1 19 20
M  V30 20 2 20 21
M  V30 21 1 15 22
M  V30 22 2 22 23
M  V30 23 2 11 24
M  V30 24 1 24 25
M  V30 25 2 25 5
M  V30 26 1 24 8
M  V30 27 1 23 12
M  V30 28 1 21 16
M  V30 29 1 1 26
M  V30 30 1 1 27
M  V30 31 1 2 28
M  V30 32 1 2 29
M  V30 33 1 3 30
M  V30 34 1 3 31
M  V30 35 1 4 32
M  V30 36 1 6 33
M  V30 37 1 7 34
M  V30 38 1 10 35
M  V30 39 1 13 36
M  V30 40 1 14 37
M  V30 41 1 17 38
M  V30 42 1 18 39
M  V30 43 1 19 40
M  V30 44 1 20 41
M  V30 45 1 21 42
M  V30 46 1 22 43
M  V30 47 1 23 44
M  V30 END BOND
M  V30 END CTAB
M  END
>  <Dataset>  (762) 
ChEMBL_Kinases

>  <Ligand_Instance>  (762) 
nan

>  <PDB_ID>  (762) 
nan

>  <Standardized_SMILES>  (762) 
NCCNc1ccn2ncc(-c3ccc(-c4ccccc4)cc3)c2n1

>  <Name>  (762) 
nan

>  <Pocket>  (762) 
nan

>  <ATP_Site>  (762) 
nan

>  <Peripheral>  (762) 
nan

>  <Num_H_Atoms_ProtBoundConf>  (762) 
nan

>  <Num_Resolved_Atoms>  (762) 
nan

>  <Num_Not_Resolved_Atoms>  (762) 
nan

$$$$
CHEMBL246906
     RDKit          3D

  0  0  0  0  0  0  0  0  0  0999 V3000
M  V30 BEGIN CTAB
M  V30 COUNTS 44 47 0 0 0
M  V30 BEGIN ATOM
M  V30 1 C -1.468822 -4.835379 -4.323354 0
M  V30 2 C -0.273391 -4.133036 -3.805369 0
M  V30 3 C 1.014651 -4.167511 -4.266627 0
M  V30 4 C 2.020575 -3.448848 -3.658333 0
M  V30 5 C 1.702546 -2.668825 -2.541732 0
M  V30 6 C 0.375618 -2.612770 -2.039607 0
M  V30 7 N 0.517283 -1.728390 -0.925876 0
M  V30 8 C 0.844223 -2.381207 0.289398 0
M  V30 9 O 1.038807 -3.590252 0.664941 0
M  V30 10 C 1.040145 -1.552168 1.477515 0
M  V30 11 C 1.783616 -1.944254 2.601903 0
M  V30 12 C 1.989904 -1.212810 3.781379 0
M  V30 13 C 1.358819 0.054275 3.794134 0
M  V30 14 N 1.415792 0.913891 4.815241 0
M  V30 15 C 0.680890 2.020979 4.466150 0
M  V30 16 C 0.194338 1.758357 3.184584 0
M  V30 17 C 0.610311 0.527479 2.743568 0
M  V30 18 C 0.520135 -0.320698 1.679950 0
M  V30 19 C -0.678531 2.740123 2.454467 0
M  V30 20 C 0.109286 3.550640 1.452642 0
M  V30 21 C -1.372618 3.674536 3.403375 0
M  V30 22 N -0.483548 4.234417 4.396927 0
M  V30 23 C 0.339527 3.285257 5.096373 0
M  V30 24 O 0.754931 3.580803 6.271561 0
M  V30 25 C -0.557197 -3.362268 -2.711736 0
M  V30 26 H -2.183442 -4.190758 -4.857096 0
M  V30 27 H -1.084954 -5.648340 -4.995908 0
M  V30 28 H -2.011025 -5.361721 -3.495204 0
M  V30 29 H 1.172022 -4.801631 -5.137219 0
M  V30 30 H 2.973817 -3.585165 -4.143347 0
M  V30 31 H 2.649609 -2.192202 -2.229254 0
M  V30 32 H 0.412576 -0.695455 -0.930770 0
M  V30 33 H 2.272212 -2.934754 2.576777 0
M  V30 34 H 2.581522 -1.632985 4.563847 0
M  V30 35 H 1.867119 0.914185 5.751598 0
M  V30 36 H -0.083502 0.103633 0.864348 0
M  V30 37 H -1.464177 2.196990 1.891517 0
M  V30 38 H 0.866892 2.881206 0.954509 0
M  V30 39 H -0.609687 3.852029 0.635501 0
M  V30 40 H 0.549022 4.449262 1.900353 0
M  V30 41 H -2.134311 3.074767 3.952468 0
M  V30 42 H -1.942485 4.435834 2.840712 0
M  V30 43 H -0.430474 5.255266 4.603033 0
M  V30 44 H -1.480140 -3.173321 -2.169751 0
M  V30 END ATOM
M  V30 BEGIN BOND
M  V30 1 1 1 2
M  V30 2 2 2 3
M  V30 3 1 3 4
M  V30 4 2 4 5
M  V30 5 1 5 6
M  V30 6 1 6 7
M  V30 7 1 7 8
M  V30 8 2 8 9
M  V30 9 1 8 10
M  V30 10 2 10 11
M  V30 11 1 11 12
M  V30 12 2 12 13
M  V30 13 1 13 14
M  V30 14 1 14 15
M  V30 15 2 15 16
M  V30 16 1 16 17
M  V30 17 2 17 18
M  V30 18 1 16 19
M  V30 19 1 19 20
M  V30 20 1 19 21
M  V30 21 1 21 22
M  V30 22 1 22 23
M  V30 23 2 23 24
M  V30 24 2 6 25
M  V30 25 1 25 2
M  V30 26 1 18 10
M  V30 27 1 17 13
M  V30 28 1 23 15
M  V30 29 1 1 26
M  V30 30 1 1 27
M  V30 31 1 1 28
M  V30 32 1 3 29
M  V30 33 1 4 30
M  V30 34 1 5 31
M  V30 35 1 7 32
M  V30 36 1 11 33
M  V30 37 1 12 34
M  V30 38 1 14 35
M  V30 39 1 18 36
M  V30 40 1 19 37
M  V30 41 1 20 38
M  V30 42 1 20 39
M  V30 43 1 20 40
M  V30 44 1 21 41
M  V30 45 1 21 42
M  V30 46 1 22 43
M  V30 47 1 25 44
M  V30 END BOND
M  V30 END CTAB
M  END
>  <Dataset>  (763) 
ChEMBL_Kinases

>  <Ligand_Instance>  (763) 
nan

>  <PDB_ID>  (763) 
nan

>  <Standardized_SMILES>  (763) 
Cc1cccc(NC(=O)c2ccc3[nH]c4c(c3c2)C(C)CNC4=O)c1

>  <Name>  (763) 
nan

>  <Pocket>  (763) 
nan

>  <ATP_Site>  (763) 
nan

>  <Peripheral>  (763) 
nan

>  <Num_H_Atoms_ProtBoundConf>  (763) 
nan

>  <Num_Resolved_Atoms>  (763) 
nan

>  <Num_Not_Resolved_Atoms>  (763) 
nan

$$$$
CHEMBL246892
     RDKit          3D

  0  0  0  0  0  0  0  0  0  0999 V3000
M  V30 BEGIN CTAB
M  V30 COUNTS 31 33 0 0 0
M  V30 BEGIN ATOM
M  V30 1 C -1.947844 -1.132704 1.943566 0
M  V30 2 C -0.777253 -2.069290 1.854439 0
M  V30 3 C -1.285000 -3.448164 1.593317 0
M  V30 4 N -0.157518 -4.350853 1.451210 0
M  V30 5 C 0.830649 -4.029625 0.479051 0
M  V30 6 O 1.499041 -4.937856 -0.084908 0
M  V30 7 C 1.005369 -2.591933 0.192324 0
M  V30 8 N 1.863739 -2.023605 -0.676201 0
M  V30 9 C 1.682491 -0.686621 -0.613972 0
M  V30 10 C 2.309248 0.338419 -1.298866 0
M  V30 11 C 1.868567 1.610718 -0.983032 0
M  V30 12 C 0.883383 1.895440 -0.064114 0
M  V30 13 C 0.521170 3.288954 0.166621 0
M  V30 14 N -0.496901 3.536928 1.119512 0
M  V30 15 O 1.063717 4.229604 -0.430197 0
M  V30 16 C 0.289839 0.850829 0.590631 0
M  V30 17 C 0.676751 -0.445683 0.328253 0
M  V30 18 C 0.232159 -1.646053 0.853448 0
M  V30 19 H -2.185477 -0.679663 0.973792 0
M  V30 20 H -1.814509 -0.355654 2.737774 0
M  V30 21 H -2.829679 -1.730011 2.317298 0
M  V30 22 H -0.318159 -2.086168 2.886179 0
M  V30 23 H -1.838925 -3.466622 0.626501 0
M  V30 24 H -1.929844 -3.731141 2.448415 0
M  V30 25 H -0.043593 -5.225566 2.033841 0
M  V30 26 H 2.538250 -2.508556 -1.281218 0
M  V30 27 H 3.089975 0.161029 -2.031085 0
M  V30 28 H 2.298019 2.474102 -1.465731 0
M  V30 29 H -0.145370 3.471283 2.121750 0
M  V30 30 H -1.244098 3.718828 1.812435 0
M  V30 31 H -0.483561 1.045324 1.314429 0
M  V30 END ATOM
M  V30 BEGIN BOND
M  V30 1 1 1 2
M  V30 2 1 2 3
M  V30 3 1 3 4
M  V30 4 1 4 5
M  V30 5 2 5 6
M  V30 6 1 5 7
M  V30 7 1 7 8
M  V30 8 1 8 9
M  V30 9 2 9 10
M  V30 10 1 10 11
M  V30 11 2 11 12
M  V30 12 1 12 13
M  V30 13 1 13 14
M  V30 14 2 13 15
M  V30 15 1 12 16
M  V30 16 2 16 17
M  V30 17 1 17 18
M  V30 18 1 18 2
M  V30 19 2 18 7
M  V30 20 1 17 9
M  V30 21 1 1 19
M  V30 22 1 1 20
M  V30 23 1 1 21
M  V30 24 1 2 22
M  V30 25 1 3 23
M  V30 26 1 3 24
M  V30 27 1 4 25
M  V30 28 1 8 26
M  V30 29 1 10 27
M  V30 30 1 11 28
M  V30 31 1 14 29
M  V30 32 1 14 30
M  V30 33 1 16 31
M  V30 END BOND
M  V30 END CTAB
M  END
>  <Dataset>  (764) 
ChEMBL_Kinases

>  <Ligand_Instance>  (764) 
nan

>  <PDB_ID>  (764) 
nan

>  <Standardized_SMILES>  (764) 
CC1CNC(=O)c2[nH]c3ccc(C(N)=O)cc3c21

>  <Name>  (764) 
nan

>  <Pocket>  (764) 
nan

>  <ATP_Site>  (764) 
nan

>  <Peripheral>  (764) 
nan

>  <Num_H_Atoms_ProtBoundConf>  (764) 
nan

>  <Num_Resolved_Atoms>  (764) 
nan

>  <Num_Not_Resolved_Atoms>  (764) 
nan

$$$$
CHEMBL246699
     RDKit          3D

  0  0  0  0  0  0  0  0  0  0999 V3000
M  V30 BEGIN CTAB
M  V30 COUNTS 41 44 0 0 0
M  V30 BEGIN ATOM
M  V30 1 C -1.214035 -3.157919 0.589416 0
M  V30 2 C 0.040836 -3.673730 -0.073814 0
M  V30 3 C -0.243747 -5.027816 -0.633220 0
M  V30 4 N 0.235526 -5.268235 -1.955596 0
M  V30 5 C 0.729520 -4.326461 -2.901187 0
M  V30 6 O 1.011040 -4.629182 -4.084059 0
M  V30 7 C 0.895004 -2.960918 -2.412316 0
M  V30 8 N 1.320654 -1.815855 -2.971623 0
M  V30 9 C 1.265733 -0.846337 -2.042660 0
M  V30 10 C 1.620252 0.475028 -2.226550 0
M  V30 11 C 1.480943 1.311460 -1.114598 0
M  V30 12 C 1.011295 0.819520 0.094207 0
M  V30 13 C 0.897868 1.763824 1.201216 0
M  V30 14 O 1.231059 2.953378 0.987087 0
M  V30 15 N 0.434246 1.390183 2.481376 0
M  V30 16 C 0.292889 2.238877 3.609328 0
M  V30 17 C 1.294527 2.467431 4.558869 0
M  V30 18 C 1.091251 3.306887 5.635278 0
M  V30 19 C -0.120960 3.960090 5.818202 0
M  V30 20 C -1.096732 3.723270 4.872872 0
M  V30 21 Br -2.787373 4.588744 5.062761 0
M  V30 22 C -0.920732 2.879650 3.773565 0
M  V30 23 C 0.675361 -0.512672 0.207038 0
M  V30 24 C 0.794266 -1.380261 -0.859910 0
M  V30 25 C 0.557945 -2.726770 -1.094465 0
M  V30 26 H -1.969201 -3.975409 0.692994 0
M  V30 27 H -1.025597 -2.825420 1.631066 0
M  V30 28 H -1.716989 -2.379011 -0.017260 0
M  V30 29 H 0.795442 -3.817860 0.754941 0
M  V30 30 H -1.353583 -5.238542 -0.651569 0
M  V30 31 H 0.149507 -5.851213 0.033068 0
M  V30 32 H 0.221878 -6.268411 -2.271785 0
M  V30 33 H 1.629222 -1.753788 -3.966063 0
M  V30 34 H 1.986319 0.856021 -3.170548 0
M  V30 35 H 1.761541 2.352476 -1.263709 0
M  V30 36 H 0.151508 0.405164 2.681881 0
M  V30 37 H 2.235024 1.962699 4.419872 0
M  V30 38 H 1.899348 3.442784 6.331928 0
M  V30 39 H -0.304997 4.621744 6.651848 0
M  V30 40 H -1.718461 2.721776 3.051875 0
M  V30 41 H 0.315237 -0.901249 1.125325 0
M  V30 END ATOM
M  V30 BEGIN BOND
M  V30 1 1 1 2
M  V30 2 1 2 3
M  V30 3 1 3 4
M  V30 4 1 4 5
M  V30 5 2 5 6
M  V30 6 1 5 7
M  V30 7 1 7 8
M  V30 8 1 8 9
M  V30 9 2 9 10
M  V30 10 1 10 11
M  V30 11 2 11 12
M  V30 12 1 12 13
M  V30 13 2 13 14
M  V30 14 1 13 15
M  V30 15 1 15 16
M  V30 16 2 16 17
M  V30 17 1 17 18
M  V30 18 2 18 19
M  V30 19 1 19 20
M  V30 20 1 20 21
M  V30 21 2 20 22
M  V30 22 1 12 23
M  V30 23 2 23 24
M  V30 24 1 24 25
M  V30 25 1 25 2
M  V30 26 2 25 7
M  V30 27 1 24 9
M  V30 28 1 22 16
M  V30 29 1 1 26
M  V30 30 1 1 27
M  V30 31 1 1 28
M  V30 32 1 2 29
M  V30 33 1 3 30
M  V30 34 1 3 31
M  V30 35 1 4 32
M  V30 36 1 8 33
M  V30 37 1 10 34
M  V30 38 1 11 35
M  V30 39 1 15 36
M  V30 40 1 17 37
M  V30 41 1 18 38
M  V30 42 1 19 39
M  V30 43 1 22 40
M  V30 44 1 23 41
M  V30 END BOND
M  V30 END CTAB
M  END
>  <Dataset>  (765) 
ChEMBL_Kinases

>  <Ligand_Instance>  (765) 
nan

>  <PDB_ID>  (765) 
nan

>  <Standardized_SMILES>  (765) 
CC1CNC(=O)c2[nH]c3ccc(C(=O)Nc4cccc(Br)c4)cc3c21

>  <Name>  (765) 
nan

>  <Pocket>  (765) 
nan

>  <ATP_Site>  (765) 
nan

>  <Peripheral>  (765) 
nan

>  <Num_H_Atoms_ProtBoundConf>  (765) 
nan

>  <Num_Resolved_Atoms>  (765) 
nan

>  <Num_Not_Resolved_Atoms>  (765) 
nan

$$$$
CHEMBL246697
     RDKit          3D

  0  0  0  0  0  0  0  0  0  0999 V3000
M  V30 BEGIN CTAB
M  V30 COUNTS 41 44 0 0 0
M  V30 BEGIN ATOM
M  V30 1 C 1.379221 -3.781762 1.614425 0
M  V30 2 C 0.813303 -3.677012 0.202433 0
M  V30 3 C 0.809183 -5.016812 -0.489208 0
M  V30 4 N 2.098305 -5.368637 -1.058781 0
M  V30 5 C 2.806115 -4.359356 -1.767008 0
M  V30 6 O 3.674499 -4.695698 -2.624943 0
M  V30 7 C 2.539362 -2.953575 -1.512534 0
M  V30 8 N 3.054142 -1.818637 -2.030404 0
M  V30 9 C 2.435879 -0.789514 -1.425076 0
M  V30 10 C 2.555580 0.579728 -1.553190 0
M  V30 11 C 1.760249 1.426852 -0.771183 0
M  V30 12 C 0.840693 0.950159 0.143102 0
M  V30 13 C 0.059747 1.913948 0.910049 0
M  V30 14 O 0.284368 3.102935 0.679197 0
M  V30 15 N -0.907698 1.572289 1.870894 0
M  V30 16 C -1.719520 2.412360 2.669299 0
M  V30 17 C -2.608387 1.831699 3.553934 0
M  V30 18 C -3.434014 2.578481 4.366687 0
M  V30 19 C -3.411659 3.957293 4.334948 0
M  V30 20 C -2.529236 4.555304 3.456574 0
M  V30 21 F -2.502302 5.909348 3.420489 0
M  V30 22 C -1.728797 3.777567 2.668992 0
M  V30 23 C 0.754610 -0.423041 0.237939 0
M  V30 24 C 1.523571 -1.281397 -0.517866 0
M  V30 25 C 1.581847 -2.659757 -0.566007 0
M  V30 26 H 0.980886 -2.992428 2.284758 0
M  V30 27 H 2.477368 -3.667635 1.618069 0
M  V30 28 H 1.073776 -4.762130 2.026469 0
M  V30 29 H -0.250518 -3.378910 0.335650 0
M  V30 30 H 0.419025 -5.778030 0.193485 0
M  V30 31 H 0.095323 -4.943746 -1.337141 0
M  V30 32 H 2.471952 -6.333483 -0.940066 0
M  V30 33 H 3.799135 -1.799252 -2.768576 0
M  V30 34 H 3.276389 0.995677 -2.270164 0
M  V30 35 H 1.930233 2.479351 -0.946904 0
M  V30 36 H -1.005697 0.533559 1.975247 0
M  V30 37 H -2.664853 0.732815 3.617512 0
M  V30 38 H -4.097502 2.038348 5.027753 0
M  V30 39 H -4.053105 4.557349 4.966249 0
M  V30 40 H -1.085223 4.314300 2.027670 0
M  V30 41 H 0.056586 -0.834600 0.932310 0
M  V30 END ATOM
M  V30 BEGIN BOND
M  V30 1 1 1 2
M  V30 2 1 2 3
M  V30 3 1 3 4
M  V30 4 1 4 5
M  V30 5 2 5 6
M  V30 6 1 5 7
M  V30 7 1 7 8
M  V30 8 1 8 9
M  V30 9 2 9 10
M  V30 10 1 10 11
M  V30 11 2 11 12
M  V30 12 1 12 13
M  V30 13 2 13 14
M  V30 14 1 13 15
M  V30 15 1 15 16
M  V30 16 2 16 17
M  V30 17 1 17 18
M  V30 18 2 18 19
M  V30 19 1 19 20
M  V30 20 1 20 21
M  V30 21 2 20 22
M  V30 22 1 12 23
M  V30 23 2 23 24
M  V30 24 1 24 25
M  V30 25 1 25 2
M  V30 26 2 25 7
M  V30 27 1 24 9
M  V30 28 1 22 16
M  V30 29 1 1 26
M  V30 30 1 1 27
M  V30 31 1 1 28
M  V30 32 1 2 29
M  V30 33 1 3 30
M  V30 34 1 3 31
M  V30 35 1 4 32
M  V30 36 1 8 33
M  V30 37 1 10 34
M  V30 38 1 11 35
M  V30 39 1 15 36
M  V30 40 1 17 37
M  V30 41 1 18 38
M  V30 42 1 19 39
M  V30 43 1 22 40
M  V30 44 1 23 41
M  V30 END BOND
M  V30 END CTAB
M  END
>  <Dataset>  (766) 
ChEMBL_Kinases

>  <Ligand_Instance>  (766) 
nan

>  <PDB_ID>  (766) 
nan

>  <Standardized_SMILES>  (766) 
CC1CNC(=O)c2[nH]c3ccc(C(=O)Nc4cccc(F)c4)cc3c21

>  <Name>  (766) 
nan

>  <Pocket>  (766) 
nan

>  <ATP_Site>  (766) 
nan

>  <Peripheral>  (766) 
nan

>  <Num_H_Atoms_ProtBoundConf>  (766) 
nan

>  <Num_Resolved_Atoms>  (766) 
nan

>  <Num_Not_Resolved_Atoms>  (766) 
nan

$$$$
CHEMBL246526
     RDKit          3D

  0  0  0  0  0  0  0  0  0  0999 V3000
M  V30 BEGIN CTAB
M  V30 COUNTS 31 33 0 0 0
M  V30 BEGIN ATOM
M  V30 1 C 0.307337 -4.936127 1.731102 0
M  V30 2 O 1.520559 -4.255568 2.063011 0
M  V30 3 C 1.641500 -2.892104 1.834818 0
M  V30 4 C 2.804496 -2.195782 2.144125 0
M  V30 5 C 2.974544 -0.841970 1.936863 0
M  V30 6 C 1.920672 -0.141151 1.388000 0
M  V30 7 N 1.834322 1.173672 1.089443 0
M  V30 8 C 0.606657 1.392169 0.570632 0
M  V30 9 C -0.099972 0.198306 0.538147 0
M  V30 10 C 0.738136 -0.791851 1.061937 0
M  V30 11 C 0.594980 -2.161027 1.282694 0
M  V30 12 C -1.490243 0.080618 0.024271 0
M  V30 13 C -1.422944 -0.341168 -1.430070 0
M  V30 14 C -2.211597 1.422322 0.161015 0
M  V30 15 N -1.391383 2.484252 -0.422304 0
M  V30 16 C -0.050240 2.601603 0.072674 0
M  V30 17 O 0.561278 3.717975 0.084009 0
M  V30 18 H 0.055933 -4.746263 0.649974 0
M  V30 19 H -0.524174 -4.577587 2.371290 0
M  V30 20 H 0.465575 -6.025512 1.880976 0
M  V30 21 H 3.636192 -2.763965 2.580333 0
M  V30 22 H 3.894418 -0.331363 2.189600 0
M  V30 23 H 2.549838 1.931633 1.213282 0
M  V30 24 H -0.329057 -2.640834 1.022129 0
M  V30 25 H -2.090987 -0.657772 0.590147 0
M  V30 26 H -1.747131 0.492203 -2.108136 0
M  V30 27 H -0.387047 -0.598183 -1.730711 0
M  V30 28 H -2.032725 -1.265437 -1.611246 0
M  V30 29 H -3.189279 1.346272 -0.333843 0
M  V30 30 H -2.289584 1.635370 1.236963 0
M  V30 31 H -1.695437 3.162958 -1.165664 0
M  V30 END ATOM
M  V30 BEGIN BOND
M  V30 1 1 1 2
M  V30 2 1 2 3
M  V30 3 2 3 4
M  V30 4 1 4 5
M  V30 5 2 5 6
M  V30 6 1 6 7
M  V30 7 1 7 8
M  V30 8 2 8 9
M  V30 9 1 9 10
M  V30 10 2 10 11
M  V30 11 1 9 12
M  V30 12 1 12 13
M  V30 13 1 12 14
M  V30 14 1 14 15
M  V30 15 1 15 16
M  V30 16 2 16 17
M  V30 17 1 11 3
M  V30 18 1 10 6
M  V30 19 1 16 8
M  V30 20 1 1 18
M  V30 21 1 1 19
M  V30 22 1 1 20
M  V30 23 1 4 21
M  V30 24 1 5 22
M  V30 25 1 7 23
M  V30 26 1 11 24
M  V30 27 1 12 25
M  V30 28 1 13 26
M  V30 29 1 13 27
M  V30 30 1 13 28
M  V30 31 1 14 29
M  V30 32 1 14 30
M  V30 33 1 15 31
M  V30 END BOND
M  V30 END CTAB
M  END
>  <Dataset>  (767) 
ChEMBL_Kinases

>  <Ligand_Instance>  (767) 
nan

>  <PDB_ID>  (767) 
nan

>  <Standardized_SMILES>  (767) 
COc1ccc2[nH]c3c(c2c1)C(C)CNC3=O

>  <Name>  (767) 
nan

>  <Pocket>  (767) 
nan

>  <ATP_Site>  (767) 
nan

>  <Peripheral>  (767) 
nan

>  <Num_H_Atoms_ProtBoundConf>  (767) 
nan

>  <Num_Resolved_Atoms>  (767) 
nan

>  <Num_Not_Resolved_Atoms>  (767) 
nan

$$$$
CHEMBL246508
     RDKit          3D

  0  0  0  0  0  0  0  0  0  0999 V3000
M  V30 BEGIN CTAB
M  V30 COUNTS 58 61 0 0 0
M  V30 BEGIN ATOM
M  V30 1 C 3.096732 2.492210 4.544472 0
M  V30 2 C 3.853811 1.219042 4.869492 0
M  V30 3 C 4.660477 1.472409 6.119664 0
M  V30 4 N 6.046047 1.108343 5.995193 0
M  V30 5 C 6.783869 0.651324 4.849317 0
M  V30 6 O 8.015525 0.447078 4.954481 0
M  V30 7 C 5.984586 0.474847 3.664970 0
M  V30 8 N 6.351024 0.061644 2.437014 0
M  V30 9 C 5.221448 0.064781 1.685002 0
M  V30 10 C 5.130591 -0.293719 0.348260 0
M  V30 11 C 3.859304 -0.217377 -0.232424 0
M  V30 12 C 2.753692 0.197175 0.501613 0
M  V30 13 C 1.471788 0.242977 -0.185472 0
M  V30 14 O 1.459840 -0.082298 -1.400101 0
M  V30 15 N 0.326876 0.636313 0.511037 0
M  V30 16 C -1.035911 0.707277 -0.127735 0
M  V30 17 N -1.808723 1.301252 -0.681359 0
M  V30 18 C -3.002960 0.973143 -1.100114 0
M  V30 19 C -3.394948 -0.278114 -0.836528 0
M  V30 20 C -4.724581 -0.941132 -1.195239 0
M  V30 21 O -5.660814 -0.368018 -1.815007 0
M  V30 22 N -4.925486 -2.291861 -0.807748 0
M  V30 23 C -6.064277 -3.102504 -1.028008 0
M  V30 24 C -6.480529 -3.379756 -2.421167 0
M  V30 25 C -5.507931 -4.091578 -3.287927 0
M  V30 26 N -4.288475 -3.355732 -3.471375 0
M  V30 27 C -4.546200 -2.192958 -4.296652 0
M  V30 28 C -3.259938 -4.142554 -4.119893 0
M  V30 29 S -2.006472 -0.945056 0.017578 0
M  V30 30 C 2.955855 0.530797 1.823787 0
M  V30 31 C 4.160201 0.485614 2.470341 0
M  V30 32 C 4.653847 0.746312 3.733793 0
M  V30 33 H 3.613659 3.110324 3.784959 0
M  V30 34 H 3.030438 3.128353 5.477522 0
M  V30 35 H 2.053873 2.256510 4.301507 0
M  V30 36 H 3.111220 0.409326 5.087009 0
M  V30 37 H 4.196661 0.910453 6.978378 0
M  V30 38 H 4.562027 2.550956 6.428017 0
M  V30 39 H 6.523047 1.217672 6.916772 0
M  V30 40 H 7.319038 -0.202596 2.147703 0
M  V30 41 H 5.996411 -0.615004 -0.214144 0
M  V30 42 H 3.806704 -0.496910 -1.262883 0
M  V30 43 H 0.267822 0.912362 1.493698 0
M  V30 44 H -3.642999 1.691401 -1.638371 0
M  V30 45 H -4.103006 -2.726624 -0.288663 0
M  V30 46 H -6.942381 -2.613471 -0.519617 0
M  V30 47 H -5.967437 -4.080086 -0.506113 0
M  V30 48 H -7.421734 -4.007303 -2.347085 0
M  V30 49 H -6.846928 -2.432606 -2.879224 0
M  V30 50 H -5.335715 -5.138148 -2.956668 0
M  V30 51 H -5.941765 -4.211729 -4.325435 0
M  V30 52 H -5.626092 -2.006438 -4.422894 0
M  V30 53 H -3.981950 -1.286510 -3.965971 0
M  V30 54 H -4.162095 -2.375829 -5.344308 0
M  V30 55 H -2.571888 -4.616786 -3.380508 0
M  V30 56 H -2.661602 -3.466890 -4.779484 0
M  V30 57 H -3.697511 -4.927593 -4.794605 0
M  V30 58 H 2.088541 0.849433 2.378409 0
M  V30 END ATOM
M  V30 BEGIN BOND
M  V30 1 1 1 2
M  V30 2 1 2 3
M  V30 3 1 3 4
M  V30 4 1 4 5
M  V30 5 2 5 6
M  V30 6 1 5 7
M  V30 7 1 7 8
M  V30 8 1 8 9
M  V30 9 2 9 10
M  V30 10 1 10 11
M  V30 11 2 11 12
M  V30 12 1 12 13
M  V30 13 2 13 14
M  V30 14 1 13 15
M  V30 15 1 15 16
M  V30 16 2 16 17
M  V30 17 1 17 18
M  V30 18 2 18 19
M  V30 19 1 19 20
M  V30 20 2 20 21
M  V30 21 1 20 22
M  V30 22 1 22 23
M  V30 23 1 23 24
M  V30 24 1 24 25
M  V30 25 1 25 26
M  V30 26 1 26 27
M  V30 27 1 26 28
M  V30 28 1 19 29
M  V30 29 1 12 30
M  V30 30 2 30 31
M  V30 31 1 31 32
M  V30 32 1 32 2
M  V30 33 2 32 7
M  V30 34 1 31 9
M  V30 35 1 29 16
M  V30 36 1 1 33
M  V30 37 1 1 34
M  V30 38 1 1 35
M  V30 39 1 2 36
M  V30 40 1 3 37
M  V30 41 1 3 38
M  V30 42 1 4 39
M  V30 43 1 8 40
M  V30 44 1 10 41
M  V30 45 1 11 42
M  V30 46 1 15 43
M  V30 47 1 18 44
M  V30 48 1 22 45
M  V30 49 1 23 46
M  V30 50 1 23 47
M  V30 51 1 24 48
M  V30 52 1 24 49
M  V30 53 1 25 50
M  V30 54 1 25 51
M  V30 55 1 27 52
M  V30 56 1 27 53
M  V30 57 1 27 54
M  V30 58 1 28 55
M  V30 59 1 28 56
M  V30 60 1 28 57
M  V30 61 1 30 58
M  V30 END BOND
M  V30 END CTAB
M  END
>  <Dataset>  (768) 
ChEMBL_Kinases

>  <Ligand_Instance>  (768) 
nan

>  <PDB_ID>  (768) 
nan

>  <Standardized_SMILES>  (768) 
CC1CNC(=O)c2[nH]c3ccc(C(=O)Nc4ncc(C(=O)NCCCN(C)C)s4)cc3c21

>  <Name>  (768) 
nan

>  <Pocket>  (768) 
nan

>  <ATP_Site>  (768) 
nan

>  <Peripheral>  (768) 
nan

>  <Num_H_Atoms_ProtBoundConf>  (768) 
nan

>  <Num_Resolved_Atoms>  (768) 
nan

>  <Num_Not_Resolved_Atoms>  (768) 
nan

$$$$
CHEMBL246507
     RDKit          3D

  0  0  0  0  0  0  0  0  0  0999 V3000
M  V30 BEGIN CTAB
M  V30 COUNTS 55 58 0 0 0
M  V30 BEGIN ATOM
M  V30 1 C 4.104592 -2.926140 0.256204 0
M  V30 2 C 5.090935 -2.400966 1.247314 0
M  V30 3 C 6.434796 -3.037404 0.904573 0
M  V30 4 N 7.510969 -2.529628 1.731171 0
M  V30 5 C 7.613621 -1.111295 1.802461 0
M  V30 6 O 8.680290 -0.488607 2.040566 0
M  V30 7 C 6.416784 -0.299690 1.589925 0
M  V30 8 N 6.225046 1.034615 1.599628 0
M  V30 9 C 4.937395 1.300760 1.350236 0
M  V30 10 C 4.258799 2.496604 1.257544 0
M  V30 11 C 2.907087 2.527934 0.987221 0
M  V30 12 C 2.239970 1.358939 0.811078 0
M  V30 13 C 0.812088 1.274691 0.521656 0
M  V30 14 O 0.206018 0.169164 0.365904 0
M  V30 15 N 0.074635 2.453538 0.410212 0
M  V30 16 C -1.361369 2.393855 0.119829 0
M  V30 17 N -2.286275 3.410405 -0.036933 0
M  V30 18 C -3.491276 2.955927 -0.293358 0
M  V30 19 C -3.859936 1.657353 -0.406047 0
M  V30 20 C -5.217950 1.237374 -0.692237 0
M  V30 21 O -6.281392 1.871818 -0.888125 0
M  V30 22 N -5.340418 -0.194943 -0.758541 0
M  V30 23 C -6.660477 -0.730279 -1.041091 0
M  V30 24 C -6.595857 -2.239986 -1.070816 0
M  V30 25 N -6.145535 -2.774373 0.199558 0
M  V30 26 C -7.108236 -2.587929 1.264868 0
M  V30 27 C -5.841029 -4.187566 0.108326 0
M  V30 28 S -2.275001 0.879003 -0.109190 0
M  V30 29 C 2.946607 0.178485 0.910009 0
M  V30 30 C 4.293058 0.069440 1.176190 0
M  V30 31 C 5.211739 -0.947364 1.324235 0
M  V30 32 H 4.082265 -2.404509 -0.703768 0
M  V30 33 H 4.401327 -3.993117 0.025917 0
M  V30 34 H 3.099533 -3.052729 0.740484 0
M  V30 35 H 4.798595 -2.862372 2.236543 0
M  V30 36 H 6.643585 -2.977809 -0.185867 0
M  V30 37 H 6.269983 -4.136688 1.091847 0
M  V30 38 H 8.243577 -3.049001 2.298473 0
M  V30 39 H 6.947473 1.789017 1.772227 0
M  V30 40 H 4.763941 3.455869 1.394190 0
M  V30 41 H 2.401866 3.462377 0.920352 0
M  V30 42 H 0.410346 3.411292 0.506749 0
M  V30 43 H -4.140746 3.834754 -0.398278 0
M  V30 44 H -4.529432 -0.870669 -0.614014 0
M  V30 45 H -7.324709 -0.410308 -0.239724 0
M  V30 46 H -7.050824 -0.404450 -2.031472 0
M  V30 47 H -5.896511 -2.609649 -1.851831 0
M  V30 48 H -7.582473 -2.664632 -1.290403 0
M  V30 49 H -7.590497 -3.565820 1.523017 0
M  V30 50 H -6.624452 -2.267547 2.228545 0
M  V30 51 H -7.947281 -1.923635 0.968947 0
M  V30 52 H -6.572932 -4.696723 -0.583859 0
M  V30 53 H -4.784519 -4.345732 -0.231582 0
M  V30 54 H -5.984760 -4.710077 1.080094 0
M  V30 55 H 2.412050 -0.762513 0.768287 0
M  V30 END ATOM
M  V30 BEGIN BOND
M  V30 1 1 1 2
M  V30 2 1 2 3
M  V30 3 1 3 4
M  V30 4 1 4 5
M  V30 5 2 5 6
M  V30 6 1 5 7
M  V30 7 1 7 8
M  V30 8 1 8 9
M  V30 9 2 9 10
M  V30 10 1 10 11
M  V30 11 2 11 12
M  V30 12 1 12 13
M  V30 13 2 13 14
M  V30 14 1 13 15
M  V30 15 1 15 16
M  V30 16 2 16 17
M  V30 17 1 17 18
M  V30 18 2 18 19
M  V30 19 1 19 20
M  V30 20 2 20 21
M  V30 21 1 20 22
M  V30 22 1 22 23
M  V30 23 1 23 24
M  V30 24 1 24 25
M  V30 25 1 25 26
M  V30 26 1 25 27
M  V30 27 1 19 28
M  V30 28 1 12 29
M  V30 29 2 29 30
M  V30 30 1 30 31
M  V30 31 1 31 2
M  V30 32 2 31 7
M  V30 33 1 30 9
M  V30 34 1 28 16
M  V30 35 1 1 32
M  V30 36 1 1 33
M  V30 37 1 1 34
M  V30 38 1 2 35
M  V30 39 1 3 36
M  V30 40 1 3 37
M  V30 41 1 4 38
M  V30 42 1 8 39
M  V30 43 1 10 40
M  V30 44 1 11 41
M  V30 45 1 15 42
M  V30 46 1 18 43
M  V30 47 1 22 44
M  V30 48 1 23 45
M  V30 49 1 23 46
M  V30 50 1 24 47
M  V30 51 1 24 48
M  V30 52 1 26 49
M  V30 53 1 26 50
M  V30 54 1 26 51
M  V30 55 1 27 52
M  V30 56 1 27 53
M  V30 57 1 27 54
M  V30 58 1 29 55
M  V30 END BOND
M  V30 END CTAB
M  END
>  <Dataset>  (769) 
ChEMBL_Kinases

>  <Ligand_Instance>  (769) 
nan

>  <PDB_ID>  (769) 
nan

>  <Standardized_SMILES>  (769) 
CC1CNC(=O)c2[nH]c3ccc(C(=O)Nc4ncc(C(=O)NCCN(C)C)s4)cc3c21

>  <Name>  (769) 
nan

>  <Pocket>  (769) 
nan

>  <ATP_Site>  (769) 
nan

>  <Peripheral>  (769) 
nan

>  <Num_H_Atoms_ProtBoundConf>  (769) 
nan

>  <Num_Resolved_Atoms>  (769) 
nan

>  <Num_Not_Resolved_Atoms>  (769) 
nan

$$$$
CHEMBL246480
     RDKit          3D

  0  0  0  0  0  0  0  0  0  0999 V3000
M  V30 BEGIN CTAB
M  V30 COUNTS 39 42 0 0 0
M  V30 BEGIN ATOM
M  V30 1 C 0.442158 -3.239217 1.536251 0
M  V30 2 C 1.939822 -2.946323 1.397047 0
M  V30 3 C 2.684024 -4.237288 1.394669 0
M  V30 4 N 3.713376 -4.355716 0.399965 0
M  V30 5 C 3.924931 -3.521145 -0.734402 0
M  V30 6 O 4.769492 -3.787180 -1.619486 0
M  V30 7 C 3.109585 -2.314447 -0.841874 0
M  V30 8 N 2.996020 -1.310072 -1.703755 0
M  V30 9 C 2.032486 -0.454777 -1.252781 0
M  V30 10 C 1.632566 0.707401 -1.883020 0
M  V30 11 C 0.625347 1.444448 -1.252569 0
M  V30 12 C 0.083200 1.001327 -0.062723 0
M  V30 13 C -0.963890 1.813756 0.545920 0
M  V30 14 O -1.306479 2.869430 -0.054757 0
M  V30 15 N -1.620294 1.511488 1.749260 0
M  V30 16 C -2.639419 2.323474 2.320123 0
M  V30 17 C -3.909129 1.951047 1.868560 0
M  V30 18 C -5.050672 2.601130 2.290033 0
M  V30 19 N -4.901778 3.621256 3.163326 0
M  V30 20 C -3.658531 3.974245 3.595667 0
M  V30 21 N -2.525788 3.342159 3.188355 0
M  V30 22 C 0.526685 -0.169610 0.516832 0
M  V30 23 C 1.520981 -0.938009 -0.064202 0
M  V30 24 C 2.199069 -2.110800 0.196545 0
M  V30 25 H -0.012098 -2.733615 2.395256 0
M  V30 26 H -0.078156 -2.835381 0.625442 0
M  V30 27 H 0.253904 -4.338368 1.605314 0
M  V30 28 H 2.215394 -2.337247 2.281042 0
M  V30 29 H 1.973084 -5.091240 1.192794 0
M  V30 30 H 3.110442 -4.418122 2.422715 0
M  V30 31 H 4.379114 -5.150351 0.534053 0
M  V30 32 H 3.585934 -1.260662 -2.560187 0
M  V30 33 H 2.061255 1.042451 -2.808335 0
M  V30 34 H 0.314591 2.355584 -1.750464 0
M  V30 35 H -1.347821 0.634557 2.264784 0
M  V30 36 H -4.113186 1.138914 1.163976 0
M  V30 37 H -6.048315 2.323772 1.948057 0
M  V30 38 H -3.444983 4.779600 4.295585 0
M  V30 39 H 0.114043 -0.527275 1.443099 0
M  V30 END ATOM
M  V30 BEGIN BOND
M  V30 1 1 1 2
M  V30 2 1 2 3
M  V30 3 1 3 4
M  V30 4 1 4 5
M  V30 5 2 5 6
M  V30 6 1 5 7
M  V30 7 1 7 8
M  V30 8 1 8 9
M  V30 9 2 9 10
M  V30 10 1 10 11
M  V30 11 2 11 12
M  V30 12 1 12 13
M  V30 13 2 13 14
M  V30 14 1 13 15
M  V30 15 1 15 16
M  V30 16 2 16 17
M  V30 17 1 17 18
M  V30 18 2 18 19
M  V30 19 1 19 20
M  V30 20 2 20 21
M  V30 21 1 12 22
M  V30 22 2 22 23
M  V30 23 1 23 24
M  V30 24 1 24 2
M  V30 25 2 24 7
M  V30 26 1 23 9
M  V30 27 1 21 16
M  V30 28 1 1 25
M  V30 29 1 1 26
M  V30 30 1 1 27
M  V30 31 1 2 28
M  V30 32 1 3 29
M  V30 33 1 3 30
M  V30 34 1 4 31
M  V30 35 1 8 32
M  V30 36 1 10 33
M  V30 37 1 11 34
M  V30 38 1 15 35
M  V30 39 1 17 36
M  V30 40 1 18 37
M  V30 41 1 20 38
M  V30 42 1 22 39
M  V30 END BOND
M  V30 END CTAB
M  END
>  <Dataset>  (770) 
ChEMBL_Kinases

>  <Ligand_Instance>  (770) 
nan

>  <PDB_ID>  (770) 
nan

>  <Standardized_SMILES>  (770) 
CC1CNC(=O)c2[nH]c3ccc(C(=O)Nc4ccncn4)cc3c21

>  <Name>  (770) 
nan

>  <Pocket>  (770) 
nan

>  <ATP_Site>  (770) 
nan

>  <Peripheral>  (770) 
nan

>  <Num_H_Atoms_ProtBoundConf>  (770) 
nan

>  <Num_Resolved_Atoms>  (770) 
nan

>  <Num_Not_Resolved_Atoms>  (770) 
nan

$$$$
CHEMBL246356
     RDKit          3D

  0  0  0  0  0  0  0  0  0  0999 V3000
M  V30 BEGIN CTAB
M  V30 COUNTS 58 61 0 0 0
M  V30 BEGIN ATOM
M  V30 1 C 4.679713 -2.148474 1.767247 0
M  V30 2 N 3.906708 -1.206657 2.528245 0
M  V30 3 C 3.858182 0.198598 2.742875 0
M  V30 4 N 4.616390 0.674200 3.767416 0
M  V30 5 C 4.590576 2.007568 3.996120 0
M  V30 6 N 3.851615 2.848652 3.252384 0
M  V30 7 C 3.103972 2.370260 2.240260 0
M  V30 8 C 2.311892 3.303654 1.449387 0
M  V30 9 C 2.375847 4.641686 1.791098 0
M  V30 10 C 1.650801 5.600044 1.087187 0
M  V30 11 C 0.894057 5.095093 0.056645 0
M  V30 12 N 0.840067 3.791448 -0.266047 0
M  V30 13 C 1.531022 2.848783 0.398990 0
M  V30 14 O 1.549544 1.498876 0.156404 0
M  V30 15 C 0.825770 0.883445 -0.855595 0
M  V30 16 C -0.127394 -0.091338 -0.586071 0
M  V30 17 C -0.846365 -0.703501 -1.583909 0
M  V30 18 N -1.786872 -1.681970 -1.158647 0
M  V30 19 C -3.148434 -1.521940 -0.811622 0
M  V30 20 O -3.720114 -0.409571 -0.844101 0
M  V30 21 C -3.948453 -2.670596 -0.395881 0
M  V30 22 C -5.272525 -2.449645 -0.070725 0
M  V30 23 C -6.140106 -3.467776 0.341441 0
M  V30 24 C -5.604956 -4.724786 0.409958 0
M  V30 25 C -4.294607 -5.013869 0.100229 0
M  V30 26 O -3.787110 -6.302539 0.181751 0
M  V30 27 C -3.191839 -6.869420 1.319122 0
M  V30 28 F -2.796465 -8.164564 1.061494 0
M  V30 29 F -4.106474 -6.964355 2.369611 0
M  V30 30 C -2.026418 -6.020334 1.782436 0
M  V30 31 F -2.481883 -4.764591 2.089510 0
M  V30 32 F -1.431884 -6.532327 2.896342 0
M  V30 33 C -3.500894 -3.957541 -0.298239 0
M  V30 34 C -0.637535 -0.360071 -2.909657 0
M  V30 35 C 0.311792 0.613034 -3.199902 0
M  V30 36 C 1.031338 1.223286 -2.177945 0
M  V30 37 C 2.036026 2.262239 -2.575837 0
M  V30 38 N 3.111851 1.045104 1.991138 0
M  V30 39 H 5.247586 -2.870394 2.413507 0
M  V30 40 H 5.352500 -1.608284 1.075169 0
M  V30 41 H 3.998157 -2.763018 1.144897 0
M  V30 42 H 3.133487 -1.587864 3.125378 0
M  V30 43 H 5.179565 2.424595 4.801282 0
M  V30 44 H 2.989393 4.995113 2.615653 0
M  V30 45 H 1.716657 6.629472 1.370644 0
M  V30 46 H 0.314114 5.820856 -0.514442 0
M  V30 47 H -0.268505 -0.338793 0.460021 0
M  V30 48 H -1.290904 -2.600559 -1.138397 0
M  V30 49 H -5.734853 -1.460136 -0.113394 0
M  V30 50 H -7.169952 -3.290747 0.593471 0
M  V30 51 H -6.201881 -5.594947 0.722509 0
M  V30 52 H -1.294826 -5.962346 0.940230 0
M  V30 53 H -2.467474 -4.154547 -0.547889 0
M  V30 54 H -1.235960 -0.878937 -3.648872 0
M  V30 55 H 0.468934 0.876471 -4.246685 0
M  V30 56 H 2.534458 1.840942 -3.498027 0
M  V30 57 H 2.776492 2.464372 -1.791531 0
M  V30 58 H 1.470785 3.140792 -2.919369 0
M  V30 END ATOM
M  V30 BEGIN BOND
M  V30 1 1 1 2
M  V30 2 1 2 3
M  V30 3 2 3 4
M  V30 4 1 4 5
M  V30 5 2 5 6
M  V30 6 1 6 7
M  V30 7 1 7 8
M  V30 8 2 8 9
M  V30 9 1 9 10
M  V30 10 2 10 11
M  V30 11 1 11 12
M  V30 12 2 12 13
M  V30 13 1 13 14
M  V30 14 1 14 15
M  V30 15 2 15 16
M  V30 16 1 16 17
M  V30 17 1 17 18
M  V30 18 1 18 19
M  V30 19 2 19 20
M  V30 20 1 19 21
M  V30 21 2 21 22
M  V30 22 1 22 23
M  V30 23 2 23 24
M  V30 24 1 24 25
M  V30 25 1 25 26
M  V30 26 1 26 27
M  V30 27 1 27 28
M  V30 28 1 27 29
M  V30 29 1 27 30
M  V30 30 1 30 31
M  V30 31 1 30 32
M  V30 32 2 25 33
M  V30 33 2 17 34
M  V30 34 1 34 35
M  V30 35 2 35 36
M  V30 36 1 36 37
M  V30 37 2 7 38
M  V30 38 1 38 3
M  V30 39 1 13 8
M  V30 40 1 36 15
M  V30 41 1 33 21
M  V30 42 1 1 39
M  V30 43 1 1 40
M  V30 44 1 1 41
M  V30 45 1 2 42
M  V30 46 1 5 43
M  V30 47 1 9 44
M  V30 48 1 10 45
M  V30 49 1 11 46
M  V30 50 1 16 47
M  V30 51 1 18 48
M  V30 52 1 22 49
M  V30 53 1 23 50
M  V30 54 1 24 51
M  V30 55 1 30 52
M  V30 56 1 33 53
M  V30 57 1 34 54
M  V30 58 1 35 55
M  V30 59 1 37 56
M  V30 60 1 37 57
M  V30 61 1 37 58
M  V30 END BOND
M  V30 END CTAB
M  END
>  <Dataset>  (771) 
ChEMBL_Kinases

>  <Ligand_Instance>  (771) 
nan

>  <PDB_ID>  (771) 
nan

>  <Standardized_SMILES>  (771) 
CNc1ncnc(-c2cccnc2Oc2cc(NC(=O)c3cccc(OC(F)(F)C(F)F)c3)ccc2C)n1

>  <Name>  (771) 
nan

>  <Pocket>  (771) 
nan

>  <ATP_Site>  (771) 
nan

>  <Peripheral>  (771) 
nan

>  <Num_H_Atoms_ProtBoundConf>  (771) 
nan

>  <Num_Resolved_Atoms>  (771) 
nan

>  <Num_Not_Resolved_Atoms>  (771) 
nan

$$$$
CHEMBL246309
     RDKit          3D

  0  0  0  0  0  0  0  0  0  0999 V3000
M  V30 BEGIN CTAB
M  V30 COUNTS 32 34 0 0 0
M  V30 BEGIN ATOM
M  V30 1 N -0.408946 -4.824868 3.387731 0
M  V30 2 C 0.844978 -4.154821 3.304366 0
M  V30 3 O 1.706548 -4.690517 4.038502 0
M  V30 4 C 1.143992 -2.986267 2.482988 0
M  V30 5 C 2.441100 -2.525818 2.581612 0
M  V30 6 C 2.749674 -1.407003 1.803177 0
M  V30 7 C 1.778577 -0.829802 0.996849 0
M  V30 8 N 1.820752 0.241071 0.161114 0
M  V30 9 C 0.615909 0.417804 -0.410730 0
M  V30 10 C -0.257362 -0.558647 0.052388 0
M  V30 11 C 0.474112 -1.333768 0.930165 0
M  V30 12 C 0.138538 -2.454413 1.700387 0
M  V30 13 C -1.678307 -0.632864 -0.397451 0
M  V30 14 C -2.043012 0.786852 -0.824461 0
M  V30 15 N -1.127925 1.110187 -1.906195 0
M  V30 16 C 0.167220 1.454256 -1.394880 0
M  V30 17 C 0.048971 2.790835 -0.754018 0
M  V30 18 O 1.070032 3.315525 -0.223530 0
M  V30 19 O -1.121722 3.517115 -0.694870 0
M  V30 20 H -1.191580 -4.146063 3.224216 0
M  V30 21 H -1.179063 -4.139126 3.223335 0
M  V30 22 H 3.173541 -2.982124 3.206429 0
M  V30 23 H 3.752195 -1.011130 1.847625 0
M  V30 24 H 2.662220 0.845050 -0.017454 0
M  V30 25 H -0.847306 -2.859609 1.669318 0
M  V30 26 H -2.344372 -1.016857 0.378168 0
M  V30 27 H -1.753722 -1.292865 -1.276740 0
M  V30 28 H -3.098423 0.853209 -1.143014 0
M  V30 29 H -1.840870 1.429054 0.071789 0
M  V30 30 H -1.561216 1.935843 -2.388586 0
M  V30 31 H 0.875583 1.562262 -2.230626 0
M  V30 32 H -1.312227 4.243198 0.009771 0
M  V30 END ATOM
M  V30 BEGIN BOND
M  V30 1 1 1 2
M  V30 2 2 2 3
M  V30 3 1 2 4
M  V30 4 2 4 5
M  V30 5 1 5 6
M  V30 6 2 6 7
M  V30 7 1 7 8
M  V30 8 1 8 9
M  V30 9 2 9 10
M  V30 10 1 10 11
M  V30 11 2 11 12
M  V30 12 1 10 13
M  V30 13 1 13 14
M  V30 14 1 14 15
M  V30 15 1 15 16
M  V30 16 1 16 17
M  V30 17 2 17 18
M  V30 18 1 17 19
M  V30 19 1 12 4
M  V30 20 1 11 7
M  V30 21 1 16 9
M  V30 22 1 1 20
M  V30 23 1 1 21
M  V30 24 1 5 22
M  V30 25 1 6 23
M  V30 26 1 8 24
M  V30 27 1 12 25
M  V30 28 1 13 26
M  V30 29 1 13 27
M  V30 30 1 14 28
M  V30 31 1 14 29
M  V30 32 1 15 30
M  V30 33 1 16 31
M  V30 34 1 19 32
M  V30 END BOND
M  V30 END CTAB
M  END
>  <Dataset>  (772) 
ChEMBL_Kinases

>  <Ligand_Instance>  (772) 
nan

>  <PDB_ID>  (772) 
nan

>  <Standardized_SMILES>  (772) 
NC(=O)c1ccc2[nH]c3c(c2c1)CCNC3C(=O)O

>  <Name>  (772) 
nan

>  <Pocket>  (772) 
nan

>  <ATP_Site>  (772) 
nan

>  <Peripheral>  (772) 
nan

>  <Num_H_Atoms_ProtBoundConf>  (772) 
nan

>  <Num_Resolved_Atoms>  (772) 
nan

>  <Num_Not_Resolved_Atoms>  (772) 
nan

$$$$
CHEMBL246301
     RDKit          3D

  0  0  0  0  0  0  0  0  0  0999 V3000
M  V30 BEGIN CTAB
M  V30 COUNTS 59 63 0 0 0
M  V30 BEGIN ATOM
M  V30 1 C 5.390193 -1.917695 2.120325 0
M  V30 2 C 5.324162 -0.848172 3.196408 0
M  V30 3 C 6.717172 -0.712390 3.771617 0
M  V30 4 N 7.574446 0.052019 2.886309 0
M  V30 5 C 7.127087 1.305908 2.384983 0
M  V30 6 O 7.909541 2.240072 2.033500 0
M  V30 7 C 5.689363 1.527555 2.269024 0
M  V30 8 N 4.936490 2.555704 1.848712 0
M  V30 9 C 3.656483 2.168779 1.974085 0
M  V30 10 C 2.552673 2.943222 1.646408 0
M  V30 11 C 1.307984 2.380227 1.841724 0
M  V30 12 C 1.170811 1.102249 2.341338 0
M  V30 13 C -0.114609 0.452481 2.567198 0
M  V30 14 O -0.290866 -0.706517 3.024808 0
M  V30 15 N -1.289735 1.145067 2.260350 0
M  V30 16 C -2.645011 0.488508 2.485924 0
M  V30 17 N -3.144132 -0.150450 1.615565 0
M  V30 18 C -4.319562 -0.768454 1.693175 0
M  V30 19 C -4.928711 -1.552082 0.625299 0
M  V30 20 O -6.040532 -2.119990 0.715025 0
M  V30 21 N -4.282544 -1.729849 -0.627006 0
M  V30 22 C -4.742043 -2.469242 -1.785443 0
M  V30 23 C -4.939962 -1.517990 -2.914217 0
M  V30 24 C -3.763830 -1.387906 -3.843693 0
M  V30 25 N -3.216033 -2.652819 -4.241010 0
M  V30 26 C -4.151783 -3.444818 -5.008794 0
M  V30 27 C -2.757712 -3.334830 -3.051918 0
M  V30 28 C -3.875309 -3.653515 -2.098402 0
M  V30 29 C -4.997686 -0.622605 2.942291 0
M  V30 30 S -3.758896 0.459071 3.894167 0
M  V30 31 C 2.306234 0.346416 2.662671 0
M  V30 32 C 3.572777 0.890043 2.475546 0
M  V30 33 C 4.895391 0.472117 2.667652 0
M  V30 34 H 5.617279 -1.513766 1.125547 0
M  V30 35 H 4.428248 -2.481339 2.093756 0
M  V30 36 H 6.164220 -2.677756 2.349420 0
M  V30 37 H 4.634916 -1.189142 3.998270 0
M  V30 38 H 7.093148 -1.771355 3.873598 0
M  V30 39 H 6.684483 -0.259253 4.801434 0
M  V30 40 H 8.538130 -0.258221 2.573288 0
M  V30 41 H 5.319539 3.454603 1.503058 0
M  V30 42 H 2.601425 3.943442 1.253368 0
M  V30 43 H 0.438086 2.953156 1.597653 0
M  V30 44 H -1.374164 2.088383 1.882071 0
M  V30 45 H -3.333988 -1.262893 -0.743099 0
M  V30 46 H -5.749038 -2.876918 -1.490637 0
M  V30 47 H -5.147640 -0.490911 -2.528589 0
M  V30 48 H -5.870694 -1.781779 -3.495051 0
M  V30 49 H -4.090169 -0.831441 -4.736528 0
M  V30 50 H -2.967236 -0.830809 -3.301149 0
M  V30 51 H -4.208959 -4.490419 -4.692797 0
M  V30 52 H -3.807378 -3.399331 -6.069301 0
M  V30 53 H -5.175558 -3.042889 -4.983832 0
M  V30 54 H -2.242577 -4.290839 -3.275476 0
M  V30 55 H -2.050035 -2.686438 -2.530334 0
M  V30 56 H -4.524762 -4.407075 -2.621212 0
M  V30 57 H -3.459698 -4.106945 -1.198003 0
M  V30 58 H -5.989048 -1.067957 3.186021 0
M  V30 59 H 2.268486 -0.677159 3.064448 0
M  V30 END ATOM
M  V30 BEGIN BOND
M  V30 1 1 1 2
M  V30 2 1 2 3
M  V30 3 1 3 4
M  V30 4 1 4 5
M  V30 5 2 5 6
M  V30 6 1 5 7
M  V30 7 1 7 8
M  V30 8 1 8 9
M  V30 9 2 9 10
M  V30 10 1 10 11
M  V30 11 2 11 12
M  V30 12 1 12 13
M  V30 13 2 13 14
M  V30 14 1 13 15
M  V30 15 1 15 16
M  V30 16 2 16 17
M  V30 17 1 17 18
M  V30 18 1 18 19
M  V30 19 2 19 20
M  V30 20 1 19 21
M  V30 21 1 21 22
M  V30 22 1 22 23
M  V30 23 1 23 24
M  V30 24 1 24 25
M  V30 25 1 25 26
M  V30 26 1 25 27
M  V30 27 1 27 28
M  V30 28 2 18 29
M  V30 29 1 29 30
M  V30 30 1 12 31
M  V30 31 2 31 32
M  V30 32 1 32 33
M  V30 33 1 33 2
M  V30 34 2 33 7
M  V30 35 1 32 9
M  V30 36 1 30 16
M  V30 37 1 28 22
M  V30 38 1 1 34
M  V30 39 1 1 35
M  V30 40 1 1 36
M  V30 41 1 2 37
M  V30 42 1 3 38
M  V30 43 1 3 39
M  V30 44 1 4 40
M  V30 45 1 8 41
M  V30 46 1 10 42
M  V30 47 1 11 43
M  V30 48 1 15 44
M  V30 49 1 21 45
M  V30 50 1 22 46
M  V30 51 1 23 47
M  V30 52 1 23 48
M  V30 53 1 24 49
M  V30 54 1 24 50
M  V30 55 1 26 51
M  V30 56 1 26 52
M  V30 57 1 26 53
M  V30 58 1 27 54
M  V30 59 1 27 55
M  V30 60 1 28 56
M  V30 61 1 28 57
M  V30 62 1 29 58
M  V30 63 1 31 59
M  V30 END BOND
M  V30 END CTAB
M  END
>  <Dataset>  (773) 
ChEMBL_Kinases

>  <Ligand_Instance>  (773) 
nan

>  <PDB_ID>  (773) 
nan

>  <Standardized_SMILES>  (773) 
CC1CNC(=O)c2[nH]c3ccc(C(=O)Nc4nc(C(=O)NC5CCN(C)CC5)cs4)cc3c21

>  <Name>  (773) 
nan

>  <Pocket>  (773) 
nan

>  <ATP_Site>  (773) 
nan

>  <Peripheral>  (773) 
nan

>  <Num_H_Atoms_ProtBoundConf>  (773) 
nan

>  <Num_Resolved_Atoms>  (773) 
nan

>  <Num_Not_Resolved_Atoms>  (773) 
nan

$$$$
CHEMBL246300
     RDKit          3D

  0  0  0  0  0  0  0  0  0  0999 V3000
M  V30 BEGIN CTAB
M  V30 COUNTS 57 61 0 0 0
M  V30 BEGIN ATOM
M  V30 1 C 4.509818 0.188554 5.061238 0
M  V30 2 C 4.198564 -1.083381 4.269789 0
M  V30 3 C 5.009821 -2.179160 4.870283 0
M  V30 4 N 6.408754 -1.985902 4.533080 0
M  V30 5 C 6.726405 -1.791599 3.158180 0
M  V30 6 O 7.838779 -2.094703 2.633852 0
M  V30 7 C 5.717162 -1.202506 2.264152 0
M  V30 8 N 5.749609 -0.915313 0.954472 0
M  V30 9 C 4.535527 -0.395364 0.700302 0
M  V30 10 C 4.043238 0.067141 -0.504337 0
M  V30 11 C 2.767658 0.578939 -0.622032 0
M  V30 12 C 1.941198 0.641235 0.480175 0
M  V30 13 C 0.573058 1.141245 0.564858 0
M  V30 14 O -0.148254 1.179530 1.602493 0
M  V30 15 N 0.034301 1.617730 -0.633818 0
M  V30 16 C -1.355677 2.183160 -0.801618 0
M  V30 17 N -2.306187 1.492993 -1.084299 0
M  V30 18 C -3.537407 1.929144 -1.243412 0
M  V30 19 C -4.668788 1.077987 -1.584228 0
M  V30 20 O -5.842098 1.497678 -1.736240 0
M  V30 21 N -4.544577 -0.312226 -1.776250 0
M  V30 22 C -5.569516 -1.277054 -2.114918 0
M  V30 23 C -5.793558 -2.279740 -1.011788 0
M  V30 24 C -4.781529 -3.390182 -1.002517 0
M  V30 25 C -4.509124 -3.939880 -2.384085 0
M  V30 26 C -5.510436 -3.411682 -3.388331 0
M  V30 27 C -5.339955 -1.922777 -3.451522 0
M  V30 28 C -3.710701 3.339042 -1.055894 0
M  V30 29 S -1.930281 3.857374 -0.646904 0
M  V30 30 C 2.448802 0.171233 1.692356 0
M  V30 31 C 3.721445 -0.340725 1.815403 0
M  V30 32 C 4.499038 -0.868200 2.828261 0
M  V30 33 H 5.041004 0.887993 4.381826 0
M  V30 34 H 5.210516 0.001384 5.900060 0
M  V30 35 H 3.586352 0.704160 5.392733 0
M  V30 36 H 3.116578 -1.287104 4.436534 0
M  V30 37 H 4.650555 -3.171185 4.537289 0
M  V30 38 H 4.841272 -2.154380 5.962615 0
M  V30 39 H 7.255596 -1.967256 5.173776 0
M  V30 40 H 6.519814 -1.051952 0.270441 0
M  V30 41 H 4.571608 0.084777 -1.460475 0
M  V30 42 H 2.324242 0.953595 -1.524072 0
M  V30 43 H 0.423289 1.684435 -1.577348 0
M  V30 44 H -3.589567 -0.769491 -1.670667 0
M  V30 45 H -6.516276 -0.699838 -2.201926 0
M  V30 46 H -6.817279 -2.706034 -1.035333 0
M  V30 47 H -5.687614 -1.747967 -0.042669 0
M  V30 48 H -3.831433 -3.115948 -0.496152 0
M  V30 49 H -5.211139 -4.225292 -0.409833 0
M  V30 50 H -3.503288 -3.629607 -2.727376 0
M  V30 51 H -4.532210 -5.049324 -2.427744 0
M  V30 52 H -5.227885 -3.844433 -4.376277 0
M  V30 53 H -6.540194 -3.731597 -3.177936 0
M  V30 54 H -6.034708 -1.546160 -4.229479 0
M  V30 55 H -4.326248 -1.736371 -3.856290 0
M  V30 56 H -4.740167 3.866178 -1.163540 0
M  V30 57 H 1.904106 0.165072 2.626230 0
M  V30 END ATOM
M  V30 BEGIN BOND
M  V30 1 1 1 2
M  V30 2 1 2 3
M  V30 3 1 3 4
M  V30 4 1 4 5
M  V30 5 2 5 6
M  V30 6 1 5 7
M  V30 7 1 7 8
M  V30 8 1 8 9
M  V30 9 2 9 10
M  V30 10 1 10 11
M  V30 11 2 11 12
M  V30 12 1 12 13
M  V30 13 2 13 14
M  V30 14 1 13 15
M  V30 15 1 15 16
M  V30 16 2 16 17
M  V30 17 1 17 18
M  V30 18 1 18 19
M  V30 19 2 19 20
M  V30 20 1 19 21
M  V30 21 1 21 22
M  V30 22 1 22 23
M  V30 23 1 23 24
M  V30 24 1 24 25
M  V30 25 1 25 26
M  V30 26 1 26 27
M  V30 27 2 18 28
M  V30 28 1 28 29
M  V30 29 1 12 30
M  V30 30 2 30 31
M  V30 31 1 31 32
M  V30 32 1 32 2
M  V30 33 2 32 7
M  V30 34 1 31 9
M  V30 35 1 29 16
M  V30 36 1 27 22
M  V30 37 1 1 33
M  V30 38 1 1 34
M  V30 39 1 1 35
M  V30 40 1 2 36
M  V30 41 1 3 37
M  V30 42 1 3 38
M  V30 43 1 4 39
M  V30 44 1 8 40
M  V30 45 1 10 41
M  V30 46 1 11 42
M  V30 47 1 15 43
M  V30 48 1 21 44
M  V30 49 1 22 45
M  V30 50 1 23 46
M  V30 51 1 23 47
M  V30 52 1 24 48
M  V30 53 1 24 49
M  V30 54 1 25 50
M  V30 55 1 25 51
M  V30 56 1 26 52
M  V30 57 1 26 53
M  V30 58 1 27 54
M  V30 59 1 27 55
M  V30 60 1 28 56
M  V30 61 1 30 57
M  V30 END BOND
M  V30 END CTAB
M  END
>  <Dataset>  (774) 
ChEMBL_Kinases

>  <Ligand_Instance>  (774) 
nan

>  <PDB_ID>  (774) 
nan

>  <Standardized_SMILES>  (774) 
CC1CNC(=O)c2[nH]c3ccc(C(=O)Nc4nc(C(=O)NC5CCCCC5)cs4)cc3c21

>  <Name>  (774) 
nan

>  <Pocket>  (774) 
nan

>  <ATP_Site>  (774) 
nan

>  <Peripheral>  (774) 
nan

>  <Num_H_Atoms_ProtBoundConf>  (774) 
nan

>  <Num_Resolved_Atoms>  (774) 
nan

>  <Num_Not_Resolved_Atoms>  (774) 
nan

$$$$
CHEMBL246299
     RDKit          3D

  0  0  0  0  0  0  0  0  0  0999 V3000
M  V30 BEGIN CTAB
M  V30 COUNTS 50 53 0 0 0
M  V30 BEGIN ATOM
M  V30 1 C 5.192263 -2.045114 4.328564 0
M  V30 2 C 6.281413 -1.187539 3.769515 0
M  V30 3 C 6.036353 0.300388 4.006359 0
M  V30 4 N 4.810148 0.674411 3.379552 0
M  V30 5 C 4.348493 2.012603 3.450390 0
M  V30 6 O 5.121084 2.759937 4.097213 0
M  V30 7 C 3.106406 2.466592 2.834704 0
M  V30 8 C 2.705602 3.860908 2.955858 0
M  V30 9 S 1.080776 3.765947 1.973771 0
M  V30 10 C 1.243526 2.091446 1.640474 0
M  V30 11 N 0.308883 1.252325 0.874453 0
M  V30 12 C -0.679063 0.662255 1.677558 0
M  V30 13 O -0.685927 0.885545 2.918436 0
M  V30 14 C -1.725482 -0.215080 1.157314 0
M  V30 15 C -2.643711 -0.736321 2.049895 0
M  V30 16 C -3.652081 -1.574563 1.587378 0
M  V30 17 C -3.757106 -1.902261 0.234558 0
M  V30 18 N -4.632210 -2.682712 -0.454554 0
M  V30 19 C -4.277485 -2.658355 -1.760064 0
M  V30 20 C -3.164964 -1.853409 -1.900252 0
M  V30 21 C -2.835607 -1.376559 -0.647047 0
M  V30 22 C -1.838732 -0.544586 -0.171972 0
M  V30 23 C -2.546691 -1.635144 -3.221132 0
M  V30 24 C -2.860338 -0.271377 -3.804087 0
M  V30 25 C -2.874442 -2.727441 -4.205201 0
M  V30 26 N -4.271228 -3.098972 -4.177567 0
M  V30 27 C -4.894515 -3.331856 -2.915014 0
M  V30 28 O -5.909107 -4.070043 -2.809390 0
M  V30 29 N 2.334354 1.643769 2.168706 0
M  V30 30 H 4.891030 -1.609079 5.301884 0
M  V30 31 H 4.297360 -2.085161 3.686102 0
M  V30 32 H 5.561161 -3.080769 4.418021 0
M  V30 33 H 7.284856 -1.490132 4.114069 0
M  V30 34 H 6.297071 -1.343796 2.662790 0
M  V30 35 H 6.857023 0.828494 3.477840 0
M  V30 36 H 6.065864 0.536655 5.079921 0
M  V30 37 H 4.204525 -0.018705 2.845026 0
M  V30 38 H 3.316864 4.633259 3.514139 0
M  V30 39 H 0.325198 1.075248 -0.153554 0
M  V30 40 H -2.638978 -0.533610 3.130871 0
M  V30 41 H -4.398422 -2.015191 2.220639 0
M  V30 42 H -5.419595 -3.196333 -0.051004 0
M  V30 43 H -1.133007 -0.149492 -0.888063 0
M  V30 44 H -1.446915 -1.671897 -3.072389 0
M  V30 45 H -3.025024 -0.391505 -4.890813 0
M  V30 46 H -1.999381 0.425405 -3.693194 0
M  V30 47 H -3.713150 0.213458 -3.290537 0
M  V30 48 H -2.606863 -2.376969 -5.218643 0
M  V30 49 H -2.297833 -3.653189 -4.009699 0
M  V30 50 H -4.840875 -3.202922 -5.052559 0
M  V30 END ATOM
M  V30 BEGIN BOND
M  V30 1 1 1 2
M  V30 2 1 2 3
M  V30 3 1 3 4
M  V30 4 1 4 5
M  V30 5 2 5 6
M  V30 6 1 5 7
M  V30 7 2 7 8
M  V30 8 1 8 9
M  V30 9 1 9 10
M  V30 10 1 10 11
M  V30 11 1 11 12
M  V30 12 2 12 13
M  V30 13 1 12 14
M  V30 14 2 14 15
M  V30 15 1 15 16
M  V30 16 2 16 17
M  V30 17 1 17 18
M  V30 18 1 18 19
M  V30 19 2 19 20
M  V30 20 1 20 21
M  V30 21 2 21 22
M  V30 22 1 20 23
M  V30 23 1 23 24
M  V30 24 1 23 25
M  V30 25 1 25 26
M  V30 26 1 26 27
M  V30 27 2 27 28
M  V30 28 2 10 29
M  V30 29 1 29 7
M  V30 30 1 22 14
M  V30 31 1 21 17
M  V30 32 1 27 19
M  V30 33 1 1 30
M  V30 34 1 1 31
M  V30 35 1 1 32
M  V30 36 1 2 33
M  V30 37 1 2 34
M  V30 38 1 3 35
M  V30 39 1 3 36
M  V30 40 1 4 37
M  V30 41 1 8 38
M  V30 42 1 11 39
M  V30 43 1 15 40
M  V30 44 1 16 41
M  V30 45 1 18 42
M  V30 46 1 22 43
M  V30 47 1 23 44
M  V30 48 1 24 45
M  V30 49 1 24 46
M  V30 50 1 24 47
M  V30 51 1 25 48
M  V30 52 1 25 49
M  V30 53 1 26 50
M  V30 END BOND
M  V30 END CTAB
M  END
>  <Dataset>  (775) 
ChEMBL_Kinases

>  <Ligand_Instance>  (775) 
nan

>  <PDB_ID>  (775) 
nan

>  <Standardized_SMILES>  (775) 
CCCNC(=O)c1csc(NC(=O)c2ccc3[nH]c4c(c3c2)C(C)CNC4=O)n1

>  <Name>  (775) 
nan

>  <Pocket>  (775) 
nan

>  <ATP_Site>  (775) 
nan

>  <Peripheral>  (775) 
nan

>  <Num_H_Atoms_ProtBoundConf>  (775) 
nan

>  <Num_Resolved_Atoms>  (775) 
nan

>  <Num_Not_Resolved_Atoms>  (775) 
nan

$$$$
CHEMBL246102
     RDKit          3D

  0  0  0  0  0  0  0  0  0  0999 V3000
M  V30 BEGIN CTAB
M  V30 COUNTS 28 30 0 0 0
M  V30 BEGIN ATOM
M  V30 1 O -1.317658 -4.408148 1.525867 0
M  V30 2 C -0.636906 -3.752246 0.667333 0
M  V30 3 O -0.788130 -3.929321 -0.688671 0
M  V30 4 C 0.330750 -2.785198 1.158731 0
M  V30 5 N 0.404578 -2.683299 2.583480 0
M  V30 6 C 1.464991 -1.831962 3.006631 0
M  V30 7 C 2.034127 -0.921583 1.970789 0
M  V30 8 C 0.978356 -0.430415 1.041205 0
M  V30 9 C 0.089942 -1.400494 0.617171 0
M  V30 10 N -0.820432 -0.873316 -0.211236 0
M  V30 11 C -0.554044 0.443899 -0.349839 0
M  V30 12 C -1.118668 1.504332 -1.053537 0
M  V30 13 C -0.576659 2.765277 -0.968086 0
M  V30 14 C 0.544235 3.002639 -0.177638 0
M  V30 15 Cl 1.177771 4.641707 -0.120522 0
M  V30 16 C 1.137093 1.978873 0.538024 0
M  V30 17 C 0.554356 0.729866 0.418526 0
M  V30 18 H -1.643445 -4.381054 -1.044658 0
M  V30 19 H 1.359824 -3.054343 0.796802 0
M  V30 20 H -0.521338 -2.384648 2.993968 0
M  V30 21 H 1.082082 -1.179961 3.845466 0
M  V30 22 H 2.323582 -2.440635 3.397352 0
M  V30 23 H 2.871384 -1.398897 1.387705 0
M  V30 24 H 2.503011 -0.056033 2.502592 0
M  V30 25 H -1.609690 -1.373366 -0.681614 0
M  V30 26 H -1.992340 1.282916 -1.660221 0
M  V30 27 H -1.079274 3.526078 -1.547075 0
M  V30 28 H 2.008108 2.156345 1.154068 0
M  V30 END ATOM
M  V30 BEGIN BOND
M  V30 1 2 1 2
M  V30 2 1 2 3
M  V30 3 1 2 4
M  V30 4 1 4 5
M  V30 5 1 5 6
M  V30 6 1 6 7
M  V30 7 1 7 8
M  V30 8 2 8 9
M  V30 9 1 9 10
M  V30 10 1 10 11
M  V30 11 2 11 12
M  V30 12 1 12 13
M  V30 13 2 13 14
M  V30 14 1 14 15
M  V30 15 1 14 16
M  V30 16 2 16 17
M  V30 17 1 9 4
M  V30 18 1 17 11
M  V30 19 1 17 8
M  V30 20 1 3 18
M  V30 21 1 4 19
M  V30 22 1 5 20
M  V30 23 1 6 21
M  V30 24 1 6 22
M  V30 25 1 7 23
M  V30 26 1 7 24
M  V30 27 1 10 25
M  V30 28 1 12 26
M  V30 29 1 13 27
M  V30 30 1 16 28
M  V30 END BOND
M  V30 END CTAB
M  END
>  <Dataset>  (776) 
ChEMBL_Kinases

>  <Ligand_Instance>  (776) 
nan

>  <PDB_ID>  (776) 
nan

>  <Standardized_SMILES>  (776) 
O=C(O)C1NCCc2c1[nH]c1ccc(Cl)cc21

>  <Name>  (776) 
nan

>  <Pocket>  (776) 
nan

>  <ATP_Site>  (776) 
nan

>  <Peripheral>  (776) 
nan

>  <Num_H_Atoms_ProtBoundConf>  (776) 
nan

>  <Num_Resolved_Atoms>  (776) 
nan

>  <Num_Not_Resolved_Atoms>  (776) 
nan

$$$$
CHEMBL246101
     RDKit          3D

  0  0  0  0  0  0  0  0  0  0999 V3000
M  V30 BEGIN CTAB
M  V30 COUNTS 28 30 0 0 0
M  V30 BEGIN ATOM
M  V30 1 O 2.846540 -3.002800 1.814896 0
M  V30 2 C 1.606694 -3.119258 2.009719 0
M  V30 3 O 1.567390 -3.478793 3.351156 0
M  V30 4 C 0.600051 -2.885887 0.937411 0
M  V30 5 N -0.736205 -3.093817 1.456495 0
M  V30 6 C -1.072069 -2.151041 2.504074 0
M  V30 7 C -1.244500 -0.795619 1.901764 0
M  V30 8 C -0.204136 -0.589238 0.858459 0
M  V30 9 C 0.689401 -1.515116 0.360056 0
M  V30 10 N 1.456357 -0.911118 -0.571961 0
M  V30 11 C 1.077142 0.371416 -0.681130 0
M  V30 12 C 1.575224 1.375854 -1.507095 0
M  V30 13 C 1.003959 2.629683 -1.427052 0
M  V30 14 C -0.039136 2.916246 -0.558899 0
M  V30 15 C -0.482676 1.875287 0.229436 0
M  V30 16 C 0.038442 0.606840 0.201367 0
M  V30 17 H 1.837802 -2.822720 4.065205 0
M  V30 18 H 0.726439 -3.613757 0.103163 0
M  V30 19 H -1.419213 -2.989018 0.677234 0
M  V30 20 H -2.056856 -2.479222 2.916769 0
M  V30 21 H -0.303985 -2.079845 3.276182 0
M  V30 22 H -1.174406 0.027566 2.640278 0
M  V30 23 H -2.272601 -0.733864 1.482268 0
M  V30 24 H 2.211341 -1.413720 -1.093920 0
M  V30 25 H 2.382863 1.236507 -2.209022 0
M  V30 26 H 1.381540 3.428039 -2.066489 0
M  V30 27 H -0.483969 3.878580 -0.491530 0
M  V30 28 H -1.305829 2.075831 0.923776 0
M  V30 END ATOM
M  V30 BEGIN BOND
M  V30 1 2 1 2
M  V30 2 1 2 3
M  V30 3 1 2 4
M  V30 4 1 4 5
M  V30 5 1 5 6
M  V30 6 1 6 7
M  V30 7 1 7 8
M  V30 8 2 8 9
M  V30 9 1 9 10
M  V30 10 1 10 11
M  V30 11 2 11 12
M  V30 12 1 12 13
M  V30 13 2 13 14
M  V30 14 1 14 15
M  V30 15 2 15 16
M  V30 16 1 9 4
M  V30 17 1 16 11
M  V30 18 1 16 8
M  V30 19 1 3 17
M  V30 20 1 4 18
M  V30 21 1 5 19
M  V30 22 1 6 20
M  V30 23 1 6 21
M  V30 24 1 7 22
M  V30 25 1 7 23
M  V30 26 1 10 24
M  V30 27 1 12 25
M  V30 28 1 13 26
M  V30 29 1 14 27
M  V30 30 1 15 28
M  V30 END BOND
M  V30 END CTAB
M  END
>  <Dataset>  (777) 
ChEMBL_Kinases

>  <Ligand_Instance>  (777) 
nan

>  <PDB_ID>  (777) 
nan

>  <Standardized_SMILES>  (777) 
O=C(O)C1NCCc2c1[nH]c1ccccc21

>  <Name>  (777) 
nan

>  <Pocket>  (777) 
nan

>  <ATP_Site>  (777) 
nan

>  <Peripheral>  (777) 
nan

>  <Num_H_Atoms_ProtBoundConf>  (777) 
nan

>  <Num_Resolved_Atoms>  (777) 
nan

>  <Num_Not_Resolved_Atoms>  (777) 
nan

$$$$
CHEMBL245265
     RDKit          3D

  0  0  0  0  0  0  0  0  0  0999 V3000
M  V30 BEGIN CTAB
M  V30 COUNTS 34 36 0 0 0
M  V30 BEGIN ATOM
M  V30 1 N -0.791744 -3.673818 2.884260 0
M  V30 2 C -0.150642 -2.510945 2.401404 0
M  V30 3 C 1.159480 -2.183131 2.120175 0
M  V30 4 C 1.168960 -0.879327 1.669936 0
M  V30 5 O 2.324604 -0.190556 1.284244 0
M  V30 6 C 2.807454 -0.195581 -0.016854 0
M  V30 7 O 2.199296 -0.839344 -0.909039 0
M  V30 8 C 4.036502 0.622568 -0.093670 0
M  V30 9 C 4.817835 1.378014 0.773566 0
M  V30 10 C 5.848736 1.887782 0.022166 0
M  V30 11 C 5.663655 1.430655 -1.266126 0
M  V30 12 O 4.595018 0.698786 -1.279148 0
M  V30 13 N -0.115671 -0.466394 1.692779 0
M  V30 14 N -0.905550 -1.431542 2.126659 0
M  V30 15 S -2.593758 -1.037039 2.207713 0
M  V30 16 O -2.725699 0.183703 3.086326 0
M  V30 17 O -3.333166 -2.175713 2.836560 0
M  V30 18 C -3.190462 -0.651212 0.622317 0
M  V30 19 C -3.719324 -1.617992 -0.230389 0
M  V30 20 C -4.182946 -1.276396 -1.479844 0
M  V30 21 C -4.138268 0.031119 -1.925249 0
M  V30 22 F -4.592657 0.377210 -3.154598 0
M  V30 23 C -3.621117 1.048066 -1.121640 0
M  V30 24 C -3.178207 0.629825 0.110791 0
M  V30 25 H -0.874318 -3.786242 3.914851 0
M  V30 26 H -1.188202 -4.427910 2.276271 0
M  V30 27 H 1.957314 -2.896486 2.263335 0
M  V30 28 H 4.466673 1.404290 1.807706 0
M  V30 29 H 6.566955 2.511750 0.545084 0
M  V30 30 H 6.373737 1.718207 -2.031173 0
M  V30 31 H -3.760556 -2.654007 0.108623 0
M  V30 32 H -4.597385 -2.053952 -2.139628 0
M  V30 33 H -3.558393 2.085368 -1.409958 0
M  V30 34 H -2.769759 1.396758 0.760796 0
M  V30 END ATOM
M  V30 BEGIN BOND
M  V30 1 1 1 2
M  V30 2 2 2 3
M  V30 3 1 3 4
M  V30 4 1 4 5
M  V30 5 1 5 6
M  V30 6 2 6 7
M  V30 7 1 6 8
M  V30 8 2 8 9
M  V30 9 1 9 10
M  V30 10 2 10 11
M  V30 11 1 11 12
M  V30 12 2 4 13
M  V30 13 1 13 14
M  V30 14 1 14 15
M  V30 15 2 15 16
M  V30 16 2 15 17
M  V30 17 1 15 18
M  V30 18 2 18 19
M  V30 19 1 19 20
M  V30 20 2 20 21
M  V30 21 1 21 22
M  V30 22 1 21 23
M  V30 23 2 23 24
M  V30 24 1 14 2
M  V30 25 1 24 18
M  V30 26 1 12 8
M  V30 27 1 1 25
M  V30 28 1 1 26
M  V30 29 1 3 27
M  V30 30 1 9 28
M  V30 31 1 10 29
M  V30 32 1 11 30
M  V30 33 1 19 31
M  V30 34 1 20 32
M  V30 35 1 23 33
M  V30 36 1 24 34
M  V30 END BOND
M  V30 END CTAB
M  END
>  <Dataset>  (778) 
ChEMBL_Kinases

>  <Ligand_Instance>  (778) 
nan

>  <PDB_ID>  (778) 
nan

>  <Standardized_SMILES>  (778) 
Nc1cc(OC(=O)c2ccco2)nn1S(=O)(=O)c1ccc(F)cc1

>  <Name>  (778) 
nan

>  <Pocket>  (778) 
nan

>  <ATP_Site>  (778) 
nan

>  <Peripheral>  (778) 
nan

>  <Num_H_Atoms_ProtBoundConf>  (778) 
nan

>  <Num_Resolved_Atoms>  (778) 
nan

>  <Num_Not_Resolved_Atoms>  (778) 
nan

$$$$
CHEMBL245296
     RDKit          3D

  0  0  0  0  0  0  0  0  0  0999 V3000
M  V30 BEGIN CTAB
M  V30 COUNTS 44 47 0 0 0
M  V30 BEGIN ATOM
M  V30 1 O -0.019046 -3.408330 1.784250 0
M  V30 2 C 0.864622 -3.921522 1.020002 0
M  V30 3 C 2.082748 -3.258064 0.434547 0
M  V30 4 O 2.187139 -1.910336 0.784673 0
M  V30 5 C 1.265915 -0.934609 0.475140 0
M  V30 6 C 0.084667 -1.055880 -0.224546 0
M  V30 7 C -0.751922 0.012493 -0.465270 0
M  V30 8 C -0.405310 1.263151 0.008168 0
M  V30 9 N -1.006170 2.462883 -0.069832 0
M  V30 10 C -0.292382 3.418254 0.547363 0
M  V30 11 C 0.828694 2.767567 1.042879 0
M  V30 12 C 0.786249 1.426890 0.723163 0
M  V30 13 C 1.601898 0.336785 0.947308 0
M  V30 14 C 1.811778 3.586014 1.785784 0
M  V30 15 C 0.961796 4.363307 2.787758 0
M  V30 16 N 0.056355 5.234803 2.140134 0
M  V30 17 C -0.360818 4.867321 0.826175 0
M  V30 18 C -1.725488 5.417778 0.602287 0
M  V30 19 O -2.289330 6.078186 1.519785 0
M  V30 20 O -2.405604 5.224146 -0.600390 0
M  V30 21 C 0.717573 -5.338227 0.633670 0
M  V30 22 C 1.600618 -6.035249 -0.190992 0
M  V30 23 C 1.375932 -7.350505 -0.490917 0
M  V30 24 C 0.298164 -8.056513 -0.016098 0
M  V30 25 C -0.590189 -7.392476 0.800803 0
M  V30 26 C -0.371973 -6.072499 1.106618 0
M  V30 27 H 2.036510 -3.408401 -0.684060 0
M  V30 28 H 2.962285 -3.847958 0.762381 0
M  V30 29 H -0.142805 -2.041221 -0.575790 0
M  V30 30 H -1.670879 -0.150793 -1.024777 0
M  V30 31 H -1.910567 2.675012 -0.538282 0
M  V30 32 H 2.504788 0.592614 1.518061 0
M  V30 33 H 2.578189 2.987936 2.303667 0
M  V30 34 H 2.279550 4.282258 1.059428 0
M  V30 35 H 1.646953 4.952961 3.423162 0
M  V30 36 H 0.492847 3.593436 3.431350 0
M  V30 37 H -0.749126 5.437032 2.790312 0
M  V30 38 H 0.308678 5.429278 0.115684 0
M  V30 39 H -3.403371 5.075188 -0.563055 0
M  V30 40 H 2.452383 -5.468122 -0.562661 0
M  V30 41 H 2.094308 -7.850744 -1.139156 0
M  V30 42 H 0.141197 -9.095404 -0.267094 0
M  V30 43 H -1.428442 -7.965298 1.161714 0
M  V30 44 H -1.100531 -5.593963 1.754244 0
M  V30 END ATOM
M  V30 BEGIN BOND
M  V30 1 2 1 2
M  V30 2 1 2 3
M  V30 3 1 3 4
M  V30 4 1 4 5
M  V30 5 2 5 6
M  V30 6 1 6 7
M  V30 7 2 7 8
M  V30 8 1 8 9
M  V30 9 1 9 10
M  V30 10 2 10 11
M  V30 11 1 11 12
M  V30 12 2 12 13
M  V30 13 1 11 14
M  V30 14 1 14 15
M  V30 15 1 15 16
M  V30 16 1 16 17
M  V30 17 1 17 18
M  V30 18 2 18 19
M  V30 19 1 18 20
M  V30 20 1 2 21
M  V30 21 2 21 22
M  V30 22 1 22 23
M  V30 23 2 23 24
M  V30 24 1 24 25
M  V30 25 2 25 26
M  V30 26 1 13 5
M  V30 27 1 26 21
M  V30 28 1 12 8
M  V30 29 1 17 10
M  V30 30 1 3 27
M  V30 31 1 3 28
M  V30 32 1 6 29
M  V30 33 1 7 30
M  V30 34 1 9 31
M  V30 35 1 13 32
M  V30 36 1 14 33
M  V30 37 1 14 34
M  V30 38 1 15 35
M  V30 39 1 15 36
M  V30 40 1 16 37
M  V30 41 1 17 38
M  V30 42 1 20 39
M  V30 43 1 22 40
M  V30 44 1 23 41
M  V30 45 1 24 42
M  V30 46 1 25 43
M  V30 47 1 26 44
M  V30 END BOND
M  V30 END CTAB
M  END
>  <Dataset>  (779) 
ChEMBL_Kinases

>  <Ligand_Instance>  (779) 
nan

>  <PDB_ID>  (779) 
nan

>  <Standardized_SMILES>  (779) 
O=C(COc1ccc2[nH]c3c(c2c1)CCNC3C(=O)O)c1ccccc1

>  <Name>  (779) 
nan

>  <Pocket>  (779) 
nan

>  <ATP_Site>  (779) 
nan

>  <Peripheral>  (779) 
nan

>  <Num_H_Atoms_ProtBoundConf>  (779) 
nan

>  <Num_Resolved_Atoms>  (779) 
nan

>  <Num_Not_Resolved_Atoms>  (779) 
nan

$$$$
CHEMBL245473
     RDKit          3D

  0  0  0  0  0  0  0  0  0  0999 V3000
M  V30 BEGIN CTAB
M  V30 COUNTS 41 44 0 0 0
M  V30 BEGIN ATOM
M  V30 1 C 0.171771 -4.466993 -0.631466 0
M  V30 2 C 1.064284 -4.140866 0.543549 0
M  V30 3 C 1.891499 -5.370771 0.843833 0
M  V30 4 N 2.922597 -5.572773 -0.169983 0
M  V30 5 C 3.771207 -4.444468 -0.462538 0
M  V30 6 O 4.927333 -4.616110 -0.893023 0
M  V30 7 C 3.217834 -3.114482 -0.233183 0
M  V30 8 N 3.745178 -1.884776 -0.405111 0
M  V30 9 C 2.800941 -0.985402 -0.039345 0
M  V30 10 C 2.897240 0.391289 -0.049220 0
M  V30 11 C 1.848660 1.192461 0.353279 0
M  V30 12 C 0.691931 0.569918 0.769154 0
M  V30 13 C -0.541370 1.201438 1.236750 0
M  V30 14 O -1.616343 0.674160 1.624200 0
M  V30 15 N -0.626669 2.637864 1.295091 0
M  V30 16 C -1.812967 3.288553 1.745677 0
M  V30 17 C -1.923141 3.560630 3.098738 0
M  V30 18 C -3.046139 4.186920 3.589261 0
M  V30 19 C -4.037240 4.524175 2.687237 0
M  V30 20 Cl -5.466495 5.317897 3.290722 0
M  V30 21 C -3.977654 4.276285 1.331321 0
M  V30 22 C -2.828194 3.638834 0.851519 0
M  V30 23 C 0.586156 -0.826191 0.782169 0
M  V30 24 C 1.644699 -1.613738 0.376242 0
M  V30 25 C 1.914533 -2.962206 0.251333 0
M  V30 26 H 0.218611 -5.545454 -0.897048 0
M  V30 27 H -0.868063 -4.143892 -0.399109 0
M  V30 28 H 0.460544 -3.912056 -1.548374 0
M  V30 29 H 0.448909 -3.967849 1.448465 0
M  V30 30 H 1.203594 -6.238105 0.782280 0
M  V30 31 H 2.296649 -5.276190 1.854948 0
M  V30 32 H 3.086414 -6.470117 -0.693201 0
M  V30 33 H 4.700894 -1.688815 -0.754660 0
M  V30 34 H 3.789169 0.921708 -0.368950 0
M  V30 35 H 1.820467 2.269909 0.383823 0
M  V30 36 H 0.154917 3.262584 1.017889 0
M  V30 37 H -1.108465 3.270977 3.763209 0
M  V30 38 H -3.160058 4.412094 4.640457 0
M  V30 39 H -4.747333 4.539899 0.641395 0
M  V30 40 H -2.680947 3.398212 -0.194769 0
M  V30 41 H -0.282120 -1.390605 1.092525 0
M  V30 END ATOM
M  V30 BEGIN BOND
M  V30 1 1 1 2
M  V30 2 1 2 3
M  V30 3 1 3 4
M  V30 4 1 4 5
M  V30 5 2 5 6
M  V30 6 1 5 7
M  V30 7 1 7 8
M  V30 8 1 8 9
M  V30 9 2 9 10
M  V30 10 1 10 11
M  V30 11 2 11 12
M  V30 12 1 12 13
M  V30 13 2 13 14
M  V30 14 1 13 15
M  V30 15 1 15 16
M  V30 16 2 16 17
M  V30 17 1 17 18
M  V30 18 2 18 19
M  V30 19 1 19 20
M  V30 20 1 19 21
M  V30 21 2 21 22
M  V30 22 1 12 23
M  V30 23 2 23 24
M  V30 24 1 24 25
M  V30 25 1 25 2
M  V30 26 2 25 7
M  V30 27 1 24 9
M  V30 28 1 22 16
M  V30 29 1 1 26
M  V30 30 1 1 27
M  V30 31 1 1 28
M  V30 32 1 2 29
M  V30 33 1 3 30
M  V30 34 1 3 31
M  V30 35 1 4 32
M  V30 36 1 8 33
M  V30 37 1 10 34
M  V30 38 1 11 35
M  V30 39 1 15 36
M  V30 40 1 17 37
M  V30 41 1 18 38
M  V30 42 1 21 39
M  V30 43 1 22 40
M  V30 44 1 23 41
M  V30 END BOND
M  V30 END CTAB
M  END
>  <Dataset>  (780) 
ChEMBL_Kinases

>  <Ligand_Instance>  (780) 
nan

>  <PDB_ID>  (780) 
nan

>  <Standardized_SMILES>  (780) 
CC1CNC(=O)c2[nH]c3ccc(C(=O)Nc4ccc(Cl)cc4)cc3c21

>  <Name>  (780) 
nan

>  <Pocket>  (780) 
nan

>  <ATP_Site>  (780) 
nan

>  <Peripheral>  (780) 
nan

>  <Num_H_Atoms_ProtBoundConf>  (780) 
nan

>  <Num_Resolved_Atoms>  (780) 
nan

>  <Num_Not_Resolved_Atoms>  (780) 
nan

$$$$
CHEMBL245474
     RDKit          3D

  0  0  0  0  0  0  0  0  0  0999 V3000
M  V30 BEGIN CTAB
M  V30 COUNTS 41 44 0 0 0
M  V30 BEGIN ATOM
M  V30 1 C 0.487846 -4.494194 -1.206299 0
M  V30 2 C 1.017389 -4.250452 0.197043 0
M  V30 3 C 1.784459 -5.500671 0.582433 0
M  V30 4 N 2.954395 -5.663478 -0.291467 0
M  V30 5 C 3.836675 -4.522649 -0.253879 0
M  V30 6 O 5.080025 -4.548853 -0.439093 0
M  V30 7 C 3.276431 -3.185960 0.022712 0
M  V30 8 N 3.806520 -1.938970 0.127200 0
M  V30 9 C 2.813193 -1.072595 0.398439 0
M  V30 10 C 2.870593 0.292427 0.589124 0
M  V30 11 C 1.740285 1.034667 0.862273 0
M  V30 12 C 0.518331 0.400065 0.948011 0
M  V30 13 C -0.800500 0.963417 1.222638 0
M  V30 14 O -1.899604 0.355674 1.294209 0
M  V30 15 N -0.875656 2.366244 1.438451 0
M  V30 16 C -1.922703 3.285008 1.725341 0
M  V30 17 C -2.197778 3.504344 3.070785 0
M  V30 18 C -3.182664 4.365612 3.512829 0
M  V30 19 C -3.905227 5.020195 2.528806 0
M  V30 20 Br -5.294283 6.237363 3.009937 0
M  V30 21 C -3.666415 4.832866 1.182579 0
M  V30 22 C -2.667566 3.958899 0.762453 0
M  V30 23 C 0.472094 -0.986075 0.752614 0
M  V30 24 C 1.603947 -1.725897 0.479594 0
M  V30 25 C 1.899998 -3.052830 0.242923 0
M  V30 26 H 1.278844 -5.056495 -1.759221 0
M  V30 27 H -0.432726 -5.115705 -1.086022 0
M  V30 28 H 0.182671 -3.570568 -1.714661 0
M  V30 29 H 0.167098 -4.155431 0.875452 0
M  V30 30 H 1.113915 -6.359144 0.430378 0
M  V30 31 H 2.066342 -5.394100 1.636042 0
M  V30 32 H 3.301725 -6.425595 -0.944430 0
M  V30 33 H 4.818447 -1.700864 0.014289 0
M  V30 34 H 3.797605 0.850156 0.535220 0
M  V30 35 H 1.673983 2.101102 1.027462 0
M  V30 36 H -0.087023 3.048963 1.423111 0
M  V30 37 H -1.627298 2.987511 3.849143 0
M  V30 38 H -3.377682 4.519456 4.561978 0
M  V30 39 H -4.225463 5.339306 0.421858 0
M  V30 40 H -2.417187 3.755939 -0.270667 0
M  V30 41 H -0.430197 -1.594740 0.795492 0
M  V30 END ATOM
M  V30 BEGIN BOND
M  V30 1 1 1 2
M  V30 2 1 2 3
M  V30 3 1 3 4
M  V30 4 1 4 5
M  V30 5 2 5 6
M  V30 6 1 5 7
M  V30 7 1 7 8
M  V30 8 1 8 9
M  V30 9 2 9 10
M  V30 10 1 10 11
M  V30 11 2 11 12
M  V30 12 1 12 13
M  V30 13 2 13 14
M  V30 14 1 13 15
M  V30 15 1 15 16
M  V30 16 2 16 17
M  V30 17 1 17 18
M  V30 18 2 18 19
M  V30 19 1 19 20
M  V30 20 1 19 21
M  V30 21 2 21 22
M  V30 22 1 12 23
M  V30 23 2 23 24
M  V30 24 1 24 25
M  V30 25 1 25 2
M  V30 26 2 25 7
M  V30 27 1 24 9
M  V30 28 1 22 16
M  V30 29 1 1 26
M  V30 30 1 1 27
M  V30 31 1 1 28
M  V30 32 1 2 29
M  V30 33 1 3 30
M  V30 34 1 3 31
M  V30 35 1 4 32
M  V30 36 1 8 33
M  V30 37 1 10 34
M  V30 38 1 11 35
M  V30 39 1 15 36
M  V30 40 1 17 37
M  V30 41 1 18 38
M  V30 42 1 21 39
M  V30 43 1 22 40
M  V30 44 1 23 41
M  V30 END BOND
M  V30 END CTAB
M  END
>  <Dataset>  (781) 
ChEMBL_Kinases

>  <Ligand_Instance>  (781) 
nan

>  <PDB_ID>  (781) 
nan

>  <Standardized_SMILES>  (781) 
CC1CNC(=O)c2[nH]c3ccc(C(=O)Nc4ccc(Br)cc4)cc3c21

>  <Name>  (781) 
nan

>  <Pocket>  (781) 
nan

>  <ATP_Site>  (781) 
nan

>  <Peripheral>  (781) 
nan

>  <Num_H_Atoms_ProtBoundConf>  (781) 
nan

>  <Num_Resolved_Atoms>  (781) 
nan

>  <Num_Not_Resolved_Atoms>  (781) 
nan

$$$$
CHEMBL245475
     RDKit          3D

  0  0  0  0  0  0  0  0  0  0999 V3000
M  V30 BEGIN CTAB
M  V30 COUNTS 42 45 0 0 0
M  V30 BEGIN ATOM
M  V30 1 C -1.466645 -3.239705 -0.620309 0
M  V30 2 C -0.204288 -3.932637 -0.986965 0
M  V30 3 C -0.435455 -4.797685 -2.208902 0
M  V30 4 N 0.776201 -5.465870 -2.641347 0
M  V30 5 C 1.915089 -4.618723 -2.853043 0
M  V30 6 O 2.835167 -4.897618 -3.650812 0
M  V30 7 C 1.942329 -3.374036 -2.061453 0
M  V30 8 N 2.878795 -2.403231 -2.057120 0
M  V30 9 C 2.481800 -1.463311 -1.179662 0
M  V30 10 C 3.120706 -0.293562 -0.846575 0
M  V30 11 C 2.514737 0.520614 0.089050 0
M  V30 12 C 1.311193 0.188708 0.679302 0
M  V30 13 C 0.650117 1.030346 1.669715 0
M  V30 14 O -0.460852 0.723741 2.214446 0
M  V30 15 N 1.163016 2.269530 2.132354 0
M  V30 16 C 0.252322 2.831023 3.107710 0
M  V30 17 C -0.783905 3.671852 2.757804 0
M  V30 18 C -1.556047 4.115551 3.818858 0
M  V30 19 C -1.311614 3.746633 5.134511 0
M  V30 20 C -2.121341 4.215571 6.220986 0
M  V30 21 N -2.783279 4.583814 7.114843 0
M  V30 22 C -0.257147 2.901201 5.416851 0
M  V30 23 C 0.546254 2.428286 4.394189 0
M  V30 24 C 0.672940 -0.987723 0.341430 0
M  V30 25 C 1.274505 -1.809495 -0.596189 0
M  V30 26 C 0.946850 -3.026088 -1.168248 0
M  V30 27 H -2.317692 -3.802503 -1.057462 0
M  V30 28 H -1.672480 -3.204797 0.467770 0
M  V30 29 H -1.528206 -2.232762 -1.099227 0
M  V30 30 H 0.059361 -4.627719 -0.162314 0
M  V30 31 H -1.158074 -5.587130 -1.916336 0
M  V30 32 H -0.917672 -4.232759 -3.032652 0
M  V30 33 H 0.914373 -6.505160 -2.817823 0
M  V30 34 H 3.745402 -2.394842 -2.632160 0
M  V30 35 H 4.063011 0.000479 -1.286474 0
M  V30 36 H 3.006249 1.444847 0.361131 0
M  V30 37 H 2.071869 2.613774 1.747511 0
M  V30 38 H -0.936959 3.930829 1.731750 0
M  V30 39 H -2.382310 4.775767 3.613890 0
M  V30 40 H -0.070707 2.615333 6.452691 0
M  V30 41 H 1.345437 1.779439 4.666671 0
M  V30 42 H -0.258158 -1.282527 0.773322 0
M  V30 END ATOM
M  V30 BEGIN BOND
M  V30 1 1 1 2
M  V30 2 1 2 3
M  V30 3 1 3 4
M  V30 4 1 4 5
M  V30 5 2 5 6
M  V30 6 1 5 7
M  V30 7 1 7 8
M  V30 8 1 8 9
M  V30 9 2 9 10
M  V30 10 1 10 11
M  V30 11 2 11 12
M  V30 12 1 12 13
M  V30 13 2 13 14
M  V30 14 1 13 15
M  V30 15 1 15 16
M  V30 16 2 16 17
M  V30 17 1 17 18
M  V30 18 2 18 19
M  V30 19 1 19 20
M  V30 20 3 20 21
M  V30 21 1 19 22
M  V30 22 2 22 23
M  V30 23 1 12 24
M  V30 24 2 24 25
M  V30 25 1 25 26
M  V30 26 1 26 2
M  V30 27 2 26 7
M  V30 28 1 25 9
M  V30 29 1 23 16
M  V30 30 1 1 27
M  V30 31 1 1 28
M  V30 32 1 1 29
M  V30 33 1 2 30
M  V30 34 1 3 31
M  V30 35 1 3 32
M  V30 36 1 4 33
M  V30 37 1 8 34
M  V30 38 1 10 35
M  V30 39 1 11 36
M  V30 40 1 15 37
M  V30 41 1 17 38
M  V30 42 1 18 39
M  V30 43 1 22 40
M  V30 44 1 23 41
M  V30 45 1 24 42
M  V30 END BOND
M  V30 END CTAB
M  END
>  <Dataset>  (782) 
ChEMBL_Kinases

>  <Ligand_Instance>  (782) 
nan

>  <PDB_ID>  (782) 
nan

>  <Standardized_SMILES>  (782) 
CC1CNC(=O)c2[nH]c3ccc(C(=O)Nc4ccc(C#N)cc4)cc3c21

>  <Name>  (782) 
nan

>  <Pocket>  (782) 
nan

>  <ATP_Site>  (782) 
nan

>  <Peripheral>  (782) 
nan

>  <Num_H_Atoms_ProtBoundConf>  (782) 
nan

>  <Num_Resolved_Atoms>  (782) 
nan

>  <Num_Not_Resolved_Atoms>  (782) 
nan

$$$$
CHEMBL245485
     RDKit          3D

  0  0  0  0  0  0  0  0  0  0999 V3000
M  V30 BEGIN CTAB
M  V30 COUNTS 43 46 0 0 0
M  V30 BEGIN ATOM
M  V30 1 C 7.592711 -2.826300 0.540787 0
M  V30 2 O 6.667938 -1.828057 0.237283 0
M  V30 3 C 6.696400 -0.996726 -0.870908 0
M  V30 4 O 7.673345 -1.221021 -1.626619 0
M  V30 5 C 5.692692 0.028798 -1.125198 0
M  V30 6 C 5.759701 0.863123 -2.278541 0
M  V30 7 S 4.213235 1.934916 -2.011190 0
M  V30 8 C 3.822039 1.106339 -0.517986 0
M  V30 9 N 2.667420 1.321572 0.440312 0
M  V30 10 C 1.496867 0.593132 0.215634 0
M  V30 11 O 1.506648 -0.187140 -0.776099 0
M  V30 12 C 0.329950 0.724852 1.075622 0
M  V30 13 C 0.288029 1.563111 2.160671 0
M  V30 14 C -0.832254 1.682091 2.976568 0
M  V30 15 C -1.904305 0.901540 2.626177 0
M  V30 16 N -3.097794 0.838602 3.254878 0
M  V30 17 C -3.850721 -0.044541 2.584880 0
M  V30 18 C -3.193967 -0.592494 1.502202 0
M  V30 19 C -1.961691 0.029505 1.557421 0
M  V30 20 C -0.801399 -0.018394 0.807637 0
M  V30 21 C -3.762631 -1.589532 0.577831 0
M  V30 22 C -2.708758 -2.474089 -0.041671 0
M  V30 23 C -4.802039 -2.382455 1.329511 0
M  V30 24 N -5.741060 -1.452976 1.925667 0
M  V30 25 C -5.232471 -0.490186 2.841168 0
M  V30 26 O -5.958236 -0.069313 3.803665 0
M  V30 27 N 4.678411 0.251057 -0.326715 0
M  V30 28 H 8.384508 -2.810660 -0.252692 0
M  V30 29 H 8.043307 -2.591027 1.533287 0
M  V30 30 H 7.077331 -3.818464 0.605598 0
M  V30 31 H 6.618849 0.765058 -3.071853 0
M  V30 32 H 2.779865 1.983296 1.209643 0
M  V30 33 H 1.146618 2.168798 2.416699 0
M  V30 34 H -0.857658 2.345600 3.830794 0
M  V30 35 H -3.406687 1.361734 4.099745 0
M  V30 36 H -0.765584 -0.678333 -0.048868 0
M  V30 37 H -4.312616 -1.011746 -0.197512 0
M  V30 38 H -3.232600 -3.456796 -0.233178 0
M  V30 39 H -2.441944 -2.079529 -1.035791 0
M  V30 40 H -1.871063 -2.696464 0.622732 0
M  V30 41 H -5.317090 -3.107536 0.667503 0
M  V30 42 H -4.325071 -2.959674 2.148131 0
M  V30 43 H -6.783256 -1.459054 1.711565 0
M  V30 END ATOM
M  V30 BEGIN BOND
M  V30 1 1 1 2
M  V30 2 1 2 3
M  V30 3 2 3 4
M  V30 4 1 3 5
M  V30 5 2 5 6
M  V30 6 1 6 7
M  V30 7 1 7 8
M  V30 8 1 8 9
M  V30 9 1 9 10
M  V30 10 2 10 11
M  V30 11 1 10 12
M  V30 12 2 12 13
M  V30 13 1 13 14
M  V30 14 2 14 15
M  V30 15 1 15 16
M  V30 16 1 16 17
M  V30 17 2 17 18
M  V30 18 1 18 19
M  V30 19 2 19 20
M  V30 20 1 18 21
M  V30 21 1 21 22
M  V30 22 1 21 23
M  V30 23 1 23 24
M  V30 24 1 24 25
M  V30 25 2 25 26
M  V30 26 2 8 27
M  V30 27 1 27 5
M  V30 28 1 20 12
M  V30 29 1 19 15
M  V30 30 1 25 17
M  V30 31 1 1 28
M  V30 32 1 1 29
M  V30 33 1 1 30
M  V30 34 1 6 31
M  V30 35 1 9 32
M  V30 36 1 13 33
M  V30 37 1 14 34
M  V30 38 1 16 35
M  V30 39 1 20 36
M  V30 40 1 21 37
M  V30 41 1 22 38
M  V30 42 1 22 39
M  V30 43 1 22 40
M  V30 44 1 23 41
M  V30 45 1 23 42
M  V30 46 1 24 43
M  V30 END BOND
M  V30 END CTAB
M  END
>  <Dataset>  (783) 
ChEMBL_Kinases

>  <Ligand_Instance>  (783) 
nan

>  <PDB_ID>  (783) 
nan

>  <Standardized_SMILES>  (783) 
COC(=O)c1csc(NC(=O)c2ccc3[nH]c4c(c3c2)C(C)CNC4=O)n1

>  <Name>  (783) 
nan

>  <Pocket>  (783) 
nan

>  <ATP_Site>  (783) 
nan

>  <Peripheral>  (783) 
nan

>  <Num_H_Atoms_ProtBoundConf>  (783) 
nan

>  <Num_Resolved_Atoms>  (783) 
nan

>  <Num_Not_Resolved_Atoms>  (783) 
nan

$$$$
CHEMBL245505
     RDKit          3D

  0  0  0  0  0  0  0  0  0  0999 V3000
M  V30 BEGIN CTAB
M  V30 COUNTS 38 40 0 0 0
M  V30 BEGIN ATOM
M  V30 1 C -1.440193 -2.185619 4.235906 0
M  V30 2 C -0.829247 -3.212766 3.310691 0
M  V30 3 N -0.247305 -2.638855 2.124384 0
M  V30 4 C 0.914469 -1.856971 2.364928 0
M  V30 5 C 0.721904 -0.375905 2.127009 0
M  V30 6 C 0.323422 -0.244250 0.713434 0
M  V30 7 C -0.636894 -1.126159 0.263617 0
M  V30 8 N -0.839304 -0.820709 -1.035287 0
M  V30 9 C -0.078512 0.192848 -1.449682 0
M  V30 10 C 0.140877 0.909454 -2.606369 0
M  V30 11 C 1.059615 1.961659 -2.685221 0
M  V30 12 C 1.791902 2.316892 -1.567067 0
M  V30 13 O 2.681741 3.368482 -1.724219 0
M  V30 14 C 3.497385 3.838276 -0.669449 0
M  V30 15 C 1.583235 1.609541 -0.403412 0
M  V30 16 C 0.669788 0.571797 -0.343524 0
M  V30 17 C -1.199087 -2.131391 1.198897 0
M  V30 18 C -1.774631 -3.255938 0.387762 0
M  V30 19 O -1.532858 -4.510373 0.424749 0
M  V30 20 O -2.730568 -2.941063 -0.577038 0
M  V30 21 H -0.718590 -1.870272 5.016781 0
M  V30 22 H -2.293959 -2.658646 4.770325 0
M  V30 23 H -1.740835 -1.254496 3.701917 0
M  V30 24 H -0.075089 -3.774242 3.869287 0
M  V30 25 H -1.617732 -3.918117 2.984428 0
M  V30 26 H 1.714001 -2.188407 1.672304 0
M  V30 27 H 1.272295 -2.068174 3.390636 0
M  V30 28 H 1.759625 0.061999 2.201657 0
M  V30 29 H 0.055964 0.092021 2.847726 0
M  V30 30 H -1.508014 -1.294076 -1.694451 0
M  V30 31 H -0.428511 0.631359 -3.472388 0
M  V30 32 H 1.190851 2.493579 -3.630932 0
M  V30 33 H 3.745176 4.911175 -0.734007 0
M  V30 34 H 2.992081 3.710602 0.308554 0
M  V30 35 H 4.429799 3.208669 -0.587819 0
M  V30 36 H 2.141483 1.874891 0.459830 0
M  V30 37 H -2.080210 -1.659818 1.725041 0
M  V30 38 H -3.439358 -3.588131 -0.836822 0
M  V30 END ATOM
M  V30 BEGIN BOND
M  V30 1 1 1 2
M  V30 2 1 2 3
M  V30 3 1 3 4
M  V30 4 1 4 5
M  V30 5 1 5 6
M  V30 6 2 6 7
M  V30 7 1 7 8
M  V30 8 1 8 9
M  V30 9 2 9 10
M  V30 10 1 10 11
M  V30 11 2 11 12
M  V30 12 1 12 13
M  V30 13 1 13 14
M  V30 14 1 12 15
M  V30 15 2 15 16
M  V30 16 1 7 17
M  V30 17 1 17 18
M  V30 18 2 18 19
M  V30 19 1 18 20
M  V30 20 1 17 3
M  V30 21 1 16 6
M  V30 22 1 16 9
M  V30 23 1 1 21
M  V30 24 1 1 22
M  V30 25 1 1 23
M  V30 26 1 2 24
M  V30 27 1 2 25
M  V30 28 1 4 26
M  V30 29 1 4 27
M  V30 30 1 5 28
M  V30 31 1 5 29
M  V30 32 1 8 30
M  V30 33 1 10 31
M  V30 34 1 11 32
M  V30 35 1 14 33
M  V30 36 1 14 34
M  V30 37 1 14 35
M  V30 38 1 15 36
M  V30 39 1 17 37
M  V30 40 1 20 38
M  V30 END BOND
M  V30 END CTAB
M  END
>  <Dataset>  (784) 
ChEMBL_Kinases

>  <Ligand_Instance>  (784) 
nan

>  <PDB_ID>  (784) 
nan

>  <Standardized_SMILES>  (784) 
CCN1CCc2c([nH]c3ccc(OC)cc23)C1C(=O)O

>  <Name>  (784) 
nan

>  <Pocket>  (784) 
nan

>  <ATP_Site>  (784) 
nan

>  <Peripheral>  (784) 
nan

>  <Num_H_Atoms_ProtBoundConf>  (784) 
nan

>  <Num_Resolved_Atoms>  (784) 
nan

>  <Num_Not_Resolved_Atoms>  (784) 
nan

$$$$
CHEMBL245661
     RDKit          3D

  0  0  0  0  0  0  0  0  0  0999 V3000
M  V30 BEGIN CTAB
M  V30 COUNTS 49 53 0 0 0
M  V30 BEGIN ATOM
M  V30 1 C 4.102023 -5.431878 -0.800873 0
M  V30 2 O 3.946798 -4.259220 -0.028922 0
M  V30 3 C 2.964488 -3.338891 -0.369153 0
M  V30 4 C 2.076300 -3.433857 -1.422020 0
M  V30 5 C 1.142340 -2.445780 -1.654635 0
M  V30 6 C 1.039527 -1.324549 -0.866403 0
M  V30 7 N 0.259065 -0.208427 -0.827337 0
M  V30 8 C 0.652966 0.535012 0.203334 0
M  V30 9 C 1.700753 -0.076346 0.863921 0
M  V30 10 C 1.948310 -1.255260 0.188467 0
M  V30 11 C 2.900915 -2.228333 0.453644 0
M  V30 12 C 2.277530 0.612707 2.051954 0
M  V30 13 C 2.961208 1.847138 1.519918 0
M  V30 14 C 1.975043 2.952051 1.812541 0
M  V30 15 N 0.720725 2.259532 1.918831 0
M  V30 16 C 1.052016 1.151885 2.797733 0
M  V30 17 C 0.129753 1.854668 0.688851 0
M  V30 18 C -1.339954 1.673648 0.969731 0
M  V30 19 O -1.864081 1.862665 2.095397 0
M  V30 20 O -2.101566 1.282178 -0.088526 0
M  V30 21 C -3.472475 1.037341 -0.131925 0
M  V30 22 C -3.956359 -0.025177 0.761483 0
M  V30 23 C -4.430000 0.045906 2.051854 0
M  V30 24 C -4.834576 -1.089988 2.720843 0
M  V30 25 C -4.791895 -2.344922 2.152109 0
M  V30 26 C -4.317536 -2.427942 0.855030 0
M  V30 27 C -3.910009 -1.295934 0.176967 0
M  V30 28 H 4.933244 -6.015574 -0.324064 0
M  V30 29 H 3.209536 -6.092912 -0.723236 0
M  V30 30 H 4.278365 -5.261208 -1.866878 0
M  V30 31 H 2.161814 -4.311948 -2.033831 0
M  V30 32 H 0.457332 -2.544744 -2.487327 0
M  V30 33 H -0.492969 -0.051091 -1.527700 0
M  V30 34 H 3.572300 -2.093974 1.299811 0
M  V30 35 H 2.899307 -0.033220 2.667186 0
M  V30 36 H 3.952132 2.019724 1.973930 0
M  V30 37 H 3.111976 1.822022 0.419165 0
M  V30 38 H 1.995409 3.749524 1.043712 0
M  V30 39 H 2.169636 3.375907 2.841174 0
M  V30 40 H 0.228836 0.402229 2.781662 0
M  V30 41 H 1.306068 1.524428 3.795069 0
M  V30 42 H 0.301207 2.605775 -0.082154 0
M  V30 43 H -3.724299 0.843267 -1.198588 0
M  V30 44 H -3.989419 2.022713 0.080019 0
M  V30 45 H -4.445947 1.049232 2.448771 0
M  V30 46 H -5.196356 -0.936538 3.742728 0
M  V30 47 H -5.115887 -3.205904 2.705510 0
M  V30 48 H -4.289715 -3.409941 0.424703 0
M  V30 49 H -3.560980 -1.493445 -0.826876 0
M  V30 END ATOM
M  V30 BEGIN BOND
M  V30 1 1 1 2
M  V30 2 1 2 3
M  V30 3 2 3 4
M  V30 4 1 4 5
M  V30 5 2 5 6
M  V30 6 1 6 7
M  V30 7 1 7 8
M  V30 8 2 8 9
M  V30 9 1 9 10
M  V30 10 2 10 11
M  V30 11 1 9 12
M  V30 12 1 12 13
M  V30 13 1 13 14
M  V30 14 1 14 15
M  V30 15 1 15 16
M  V30 16 1 15 17
M  V30 17 1 17 18
M  V30 18 2 18 19
M  V30 19 1 18 20
M  V30 20 1 20 21
M  V30 21 1 21 22
M  V30 22 2 22 23
M  V30 23 1 23 24
M  V30 24 2 24 25
M  V30 25 1 25 26
M  V30 26 2 26 27
M  V30 27 1 11 3
M  V30 28 1 16 12
M  V30 29 1 27 22
M  V30 30 1 10 6
M  V30 31 1 17 8
M  V30 32 1 1 28
M  V30 33 1 1 29
M  V30 34 1 1 30
M  V30 35 1 4 31
M  V30 36 1 5 32
M  V30 37 1 7 33
M  V30 38 1 11 34
M  V30 39 1 12 35
M  V30 40 1 13 36
M  V30 41 1 13 37
M  V30 42 1 14 38
M  V30 43 1 14 39
M  V30 44 1 16 40
M  V30 45 1 16 41
M  V30 46 1 17 42
M  V30 47 1 21 43
M  V30 48 1 21 44
M  V30 49 1 23 45
M  V30 50 1 24 46
M  V30 51 1 25 47
M  V30 52 1 26 48
M  V30 53 1 27 49
M  V30 END BOND
M  V30 END CTAB
M  END
>  <Dataset>  (785) 
ChEMBL_Kinases

>  <Ligand_Instance>  (785) 
nan

>  <PDB_ID>  (785) 
nan

>  <Standardized_SMILES>  (785) 
COc1ccc2[nH]c3c(c2c1)C1CCN(C1)C3C(=O)OCc1ccccc1

>  <Name>  (785) 
nan

>  <Pocket>  (785) 
nan

>  <ATP_Site>  (785) 
nan

>  <Peripheral>  (785) 
nan

>  <Num_H_Atoms_ProtBoundConf>  (785) 
nan

>  <Num_Resolved_Atoms>  (785) 
nan

>  <Num_Not_Resolved_Atoms>  (785) 
nan

$$$$
CHEMBL246100
     RDKit          3D

  0  0  0  0  0  0  0  0  0  0999 V3000
M  V30 BEGIN CTAB
M  V30 COUNTS 34 36 0 0 0
M  V30 BEGIN ATOM
M  V30 1 C 2.212285 -1.952754 5.659141 0
M  V30 2 O 1.752301 -1.772843 4.356452 0
M  V30 3 C 1.645363 -2.712337 3.362302 0
M  V30 4 O 2.023577 -3.852107 3.734594 0
M  V30 5 C 1.146860 -2.418445 2.020339 0
M  V30 6 C 1.088515 -3.454547 1.108465 0
M  V30 7 C 0.606509 -3.120333 -0.153663 0
M  V30 8 C 0.215898 -1.827093 -0.455569 0
M  V30 9 N -0.277653 -1.226903 -1.566033 0
M  V30 10 C -0.496783 0.078731 -1.326341 0
M  V30 11 C -0.147925 0.386908 -0.024976 0
M  V30 12 C 0.293903 -0.810383 0.503729 0
M  V30 13 C 0.770579 -1.112899 1.771642 0
M  V30 14 C -0.266551 1.748175 0.566302 0
M  V30 15 C -1.240471 2.592791 -0.182443 0
M  V30 16 N -1.892434 1.959864 -1.282797 0
M  V30 17 C -1.018988 1.211269 -2.150550 0
M  V30 18 C -1.842871 0.698754 -3.280753 0
M  V30 19 O -1.395468 -0.006388 -4.239667 0
M  V30 20 O -3.167146 0.753828 -3.691992 0
M  V30 21 H 2.465283 -0.930189 6.054292 0
M  V30 22 H 3.100088 -2.617200 5.740866 0
M  V30 23 H 1.461983 -2.340019 6.370179 0
M  V30 24 H 1.395974 -4.458836 1.355729 0
M  V30 25 H 0.522367 -3.848613 -0.928624 0
M  V30 26 H -0.470185 -1.677838 -2.482239 0
M  V30 27 H 0.842017 -0.360180 2.524341 0
M  V30 28 H -0.501395 1.638107 1.653638 0
M  V30 29 H 0.724766 2.280277 0.523348 0
M  V30 30 H -2.048497 2.872840 0.555363 0
M  V30 31 H -0.822214 3.570802 -0.503360 0
M  V30 32 H -2.719133 1.393361 -1.038687 0
M  V30 33 H -0.171445 1.828061 -2.505616 0
M  V30 34 H -3.790712 -0.057350 -3.589173 0
M  V30 END ATOM
M  V30 BEGIN BOND
M  V30 1 1 1 2
M  V30 2 1 2 3
M  V30 3 2 3 4
M  V30 4 1 3 5
M  V30 5 2 5 6
M  V30 6 1 6 7
M  V30 7 2 7 8
M  V30 8 1 8 9
M  V30 9 1 9 10
M  V30 10 2 10 11
M  V30 11 1 11 12
M  V30 12 2 12 13
M  V30 13 1 11 14
M  V30 14 1 14 15
M  V30 15 1 15 16
M  V30 16 1 16 17
M  V30 17 1 17 18
M  V30 18 2 18 19
M  V30 19 1 18 20
M  V30 20 1 13 5
M  V30 21 1 12 8
M  V30 22 1 17 10
M  V30 23 1 1 21
M  V30 24 1 1 22
M  V30 25 1 1 23
M  V30 26 1 6 24
M  V30 27 1 7 25
M  V30 28 1 9 26
M  V30 29 1 13 27
M  V30 30 1 14 28
M  V30 31 1 14 29
M  V30 32 1 15 30
M  V30 33 1 15 31
M  V30 34 1 16 32
M  V30 35 1 17 33
M  V30 36 1 20 34
M  V30 END BOND
M  V30 END CTAB
M  END
>  <Dataset>  (786) 
ChEMBL_Kinases

>  <Ligand_Instance>  (786) 
nan

>  <PDB_ID>  (786) 
nan

>  <Standardized_SMILES>  (786) 
COC(=O)c1ccc2[nH]c3c(c2c1)CCNC3C(=O)O

>  <Name>  (786) 
nan

>  <Pocket>  (786) 
nan

>  <ATP_Site>  (786) 
nan

>  <Peripheral>  (786) 
nan

>  <Num_H_Atoms_ProtBoundConf>  (786) 
nan

>  <Num_Resolved_Atoms>  (786) 
nan

>  <Num_Not_Resolved_Atoms>  (786) 
nan

$$$$
CHEMBL245680
     RDKit          3D

  0  0  0  0  0  0  0  0  0  0999 V3000
M  V30 BEGIN CTAB
M  V30 COUNTS 43 46 0 0 0
M  V30 BEGIN ATOM
M  V30 1 C 7.491673 -6.167370 0.343566 0
M  V30 2 O 6.648598 -5.055736 0.125803 0
M  V30 3 C 5.554949 -5.068791 -0.692110 0
M  V30 4 O 4.966327 -5.887483 -1.430994 0
M  V30 5 C 4.951158 -3.679126 -0.629661 0
M  V30 6 C 5.165396 -2.479658 -0.029008 0
M  V30 7 N 4.316314 -1.525568 -0.309203 0
M  V30 8 C 3.369165 -1.589761 -1.037011 0
M  V30 9 N 2.443896 -0.445453 -1.303853 0
M  V30 10 C 1.419966 -0.524935 -0.329718 0
M  V30 11 O 1.564459 -1.496739 0.460037 0
M  V30 12 C 0.341568 0.485415 -0.335720 0
M  V30 13 C 0.231567 1.515902 -1.211073 0
M  V30 14 C -0.842791 2.376887 -1.079710 0
M  V30 15 C -1.794388 2.209474 -0.086171 0
M  V30 16 N -2.890419 2.937487 0.189663 0
M  V30 17 C -3.482670 2.352594 1.261422 0
M  V30 18 C -2.744977 1.246382 1.656981 0
M  V30 19 C -1.653960 1.152744 0.787214 0
M  V30 20 C -0.584222 0.270067 0.680369 0
M  V30 21 C -3.134776 0.406072 2.791832 0
M  V30 22 C -2.273994 0.704611 4.018833 0
M  V30 23 C -4.598456 0.508763 3.102687 0
M  V30 24 N -5.075084 1.879437 3.106200 0
M  V30 25 C -4.700723 2.692359 2.010657 0
M  V30 26 O -5.412433 3.699904 1.685343 0
M  V30 27 S 3.408093 -3.301199 -1.637834 0
M  V30 28 H 8.526160 -5.815005 0.144781 0
M  V30 29 H 7.462939 -6.549219 1.370227 0
M  V30 30 H 7.214000 -6.961094 -0.372918 0
M  V30 31 H 6.031115 -2.466137 0.619611 0
M  V30 32 H 2.504851 0.268585 -2.030895 0
M  V30 33 H 0.976125 1.617529 -1.960756 0
M  V30 34 H -0.866040 3.185147 -1.821639 0
M  V30 35 H -3.224838 3.788728 -0.319550 0
M  V30 36 H -0.587407 -0.511252 1.420098 0
M  V30 37 H -2.938847 -0.676071 2.545903 0
M  V30 38 H -1.258009 0.933604 3.634820 0
M  V30 39 H -2.210678 -0.212900 4.630925 0
M  V30 40 H -2.674206 1.538456 4.610936 0
M  V30 41 H -5.160833 -0.094316 2.350418 0
M  V30 42 H -4.834316 0.084724 4.087376 0
M  V30 43 H -5.669284 2.273565 3.870911 0
M  V30 END ATOM
M  V30 BEGIN BOND
M  V30 1 1 1 2
M  V30 2 1 2 3
M  V30 3 2 3 4
M  V30 4 1 3 5
M  V30 5 2 5 6
M  V30 6 1 6 7
M  V30 7 2 7 8
M  V30 8 1 8 9
M  V30 9 1 9 10
M  V30 10 2 10 11
M  V30 11 1 10 12
M  V30 12 2 12 13
M  V30 13 1 13 14
M  V30 14 2 14 15
M  V30 15 1 15 16
M  V30 16 1 16 17
M  V30 17 2 17 18
M  V30 18 1 18 19
M  V30 19 2 19 20
M  V30 20 1 18 21
M  V30 21 1 21 22
M  V30 22 1 21 23
M  V30 23 1 23 24
M  V30 24 1 24 25
M  V30 25 2 25 26
M  V30 26 1 8 27
M  V30 27 1 27 5
M  V30 28 1 20 12
M  V30 29 1 19 15
M  V30 30 1 25 17
M  V30 31 1 1 28
M  V30 32 1 1 29
M  V30 33 1 1 30
M  V30 34 1 6 31
M  V30 35 1 9 32
M  V30 36 1 13 33
M  V30 37 1 14 34
M  V30 38 1 16 35
M  V30 39 1 20 36
M  V30 40 1 21 37
M  V30 41 1 22 38
M  V30 42 1 22 39
M  V30 43 1 22 40
M  V30 44 1 23 41
M  V30 45 1 23 42
M  V30 46 1 24 43
M  V30 END BOND
M  V30 END CTAB
M  END
>  <Dataset>  (787) 
ChEMBL_Kinases

>  <Ligand_Instance>  (787) 
nan

>  <PDB_ID>  (787) 
nan

>  <Standardized_SMILES>  (787) 
COC(=O)c1cnc(NC(=O)c2ccc3[nH]c4c(c3c2)C(C)CNC4=O)s1

>  <Name>  (787) 
nan

>  <Pocket>  (787) 
nan

>  <ATP_Site>  (787) 
nan

>  <Peripheral>  (787) 
nan

>  <Num_H_Atoms_ProtBoundConf>  (787) 
nan

>  <Num_Resolved_Atoms>  (787) 
nan

>  <Num_Not_Resolved_Atoms>  (787) 
nan

$$$$
CHEMBL245682
     RDKit          3D

  0  0  0  0  0  0  0  0  0  0999 V3000
M  V30 BEGIN CTAB
M  V30 COUNTS 41 44 0 0 0
M  V30 BEGIN ATOM
M  V30 1 C -1.734586 -3.188922 -0.943740 0
M  V30 2 C -0.538167 -4.068877 -0.922413 0
M  V30 3 C -0.651522 -5.079201 -2.035928 0
M  V30 4 N 0.557443 -5.787278 -2.330384 0
M  V30 5 C 1.818904 -5.124271 -2.301156 0
M  V30 6 O 2.788344 -5.649702 -2.925384 0
M  V30 7 C 1.890772 -3.876526 -1.543442 0
M  V30 8 N 2.956429 -3.076243 -1.368557 0
M  V30 9 C 2.513041 -2.063870 -0.600571 0
M  V30 10 C 3.234572 -0.979700 -0.143221 0
M  V30 11 C 2.644602 -0.009681 0.643060 0
M  V30 12 C 1.308018 -0.143932 0.967086 0
M  V30 13 C 0.492698 0.757671 1.779473 0
M  V30 14 O -0.725147 0.642408 2.078722 0
M  V30 15 N 1.113469 1.903558 2.306756 0
M  V30 16 C 0.413428 2.908256 3.148470 0
M  V30 17 N 0.393113 2.738884 4.617015 0
M  V30 18 C -0.282519 3.752318 5.111366 0
M  V30 19 C -0.930521 4.878537 4.463667 0
M  V30 20 C -1.619646 5.911900 4.970305 0
M  V30 21 N -2.084858 6.795353 3.958714 0
M  V30 22 O -1.696829 5.863776 6.220492 0
M  V30 23 S -0.438843 4.331672 2.717163 0
M  V30 24 C 0.583755 -1.242766 0.501403 0
M  V30 25 C 1.157485 -2.221097 -0.285117 0
M  V30 26 C 0.758563 -3.392992 -0.895724 0
M  V30 27 H -2.563482 -3.711075 -1.467122 0
M  V30 28 H -2.119848 -3.039948 0.089954 0
M  V30 29 H -1.600221 -2.236579 -1.487632 0
M  V30 30 H -0.581426 -4.686358 0.020850 0
M  V30 31 H -1.414428 -5.871214 -1.786277 0
M  V30 32 H -1.043645 -4.599984 -2.951394 0
M  V30 33 H 0.578370 -6.821071 -2.580664 0
M  V30 34 H 3.916396 -3.208480 -1.744181 0
M  V30 35 H 4.270332 -0.848850 -0.377577 0
M  V30 36 H 3.119363 0.869751 1.047774 0
M  V30 37 H 2.082469 2.199189 2.196178 0
M  V30 38 H -0.275126 3.590298 6.203507 0
M  V30 39 H -2.842856 6.522780 3.309705 0
M  V30 40 H -1.436861 7.588465 4.186648 0
M  V30 41 H -0.458200 -1.422246 0.707255 0
M  V30 END ATOM
M  V30 BEGIN BOND
M  V30 1 1 1 2
M  V30 2 1 2 3
M  V30 3 1 3 4
M  V30 4 1 4 5
M  V30 5 2 5 6
M  V30 6 1 5 7
M  V30 7 1 7 8
M  V30 8 1 8 9
M  V30 9 2 9 10
M  V30 10 1 10 11
M  V30 11 2 11 12
M  V30 12 1 12 13
M  V30 13 2 13 14
M  V30 14 1 13 15
M  V30 15 1 15 16
M  V30 16 2 16 17
M  V30 17 1 17 18
M  V30 18 2 18 19
M  V30 19 1 19 20
M  V30 20 1 20 21
M  V30 21 2 20 22
M  V30 22 1 19 23
M  V30 23 1 12 24
M  V30 24 2 24 25
M  V30 25 1 25 26
M  V30 26 1 26 2
M  V30 27 2 26 7
M  V30 28 1 25 9
M  V30 29 1 23 16
M  V30 30 1 1 27
M  V30 31 1 1 28
M  V30 32 1 1 29
M  V30 33 1 2 30
M  V30 34 1 3 31
M  V30 35 1 3 32
M  V30 36 1 4 33
M  V30 37 1 8 34
M  V30 38 1 10 35
M  V30 39 1 11 36
M  V30 40 1 15 37
M  V30 41 1 18 38
M  V30 42 1 21 39
M  V30 43 1 21 40
M  V30 44 1 24 41
M  V30 END BOND
M  V30 END CTAB
M  END
>  <Dataset>  (788) 
ChEMBL_Kinases

>  <Ligand_Instance>  (788) 
nan

>  <PDB_ID>  (788) 
nan

>  <Standardized_SMILES>  (788) 
CC1CNC(=O)c2[nH]c3ccc(C(=O)Nc4ncc(C(N)=O)s4)cc3c21

>  <Name>  (788) 
nan

>  <Pocket>  (788) 
nan

>  <ATP_Site>  (788) 
nan

>  <Peripheral>  (788) 
nan

>  <Num_H_Atoms_ProtBoundConf>  (788) 
nan

>  <Num_Resolved_Atoms>  (788) 
nan

>  <Num_Not_Resolved_Atoms>  (788) 
nan

$$$$
CHEMBL245862
     RDKit          3D

  0  0  0  0  0  0  0  0  0  0999 V3000
M  V30 BEGIN CTAB
M  V30 COUNTS 43 46 0 0 0
M  V30 BEGIN ATOM
M  V30 1 C -1.247358 -5.715561 1.585850 0
M  V30 2 C -0.624348 -5.131474 0.551105 0
M  V30 3 C 0.834428 -5.194949 0.314827 0
M  V30 4 O 1.454706 -3.913265 0.302230 0
M  V30 5 C 1.391896 -3.106114 1.404302 0
M  V30 6 O 0.736809 -3.674117 2.340570 0
M  V30 7 C 1.946256 -1.768049 1.619353 0
M  V30 8 C 1.467554 -0.748361 0.647427 0
M  V30 9 N 1.699666 -0.579296 -0.677385 0
M  V30 10 C 1.027974 0.505370 -1.104075 0
M  V30 11 C 0.923186 1.108717 -2.345764 0
M  V30 12 C 0.151014 2.232886 -2.503949 0
M  V30 13 C -0.555816 2.824375 -1.464363 0
M  V30 14 O -1.296930 3.943750 -1.725581 0
M  V30 15 C -2.026335 4.559891 -0.668368 0
M  V30 16 C -0.430907 2.194563 -0.226219 0
M  V30 17 C 0.339425 1.064538 -0.045304 0
M  V30 18 C 0.615538 0.274255 1.062379 0
M  V30 19 C 0.175249 0.361564 2.470910 0
M  V30 20 C 1.251913 0.975154 3.313108 0
M  V30 21 C 2.288908 -0.130956 3.343691 0
M  V30 22 N 1.601773 -1.342851 2.962167 0
M  V30 23 C 0.193046 -1.077064 3.002199 0
M  V30 24 H -2.292594 -5.759829 1.892272 0
M  V30 25 H -0.662967 -6.281241 2.316628 0
M  V30 26 H -1.279799 -4.596436 -0.116618 0
M  V30 27 H 1.285889 -5.842839 1.109445 0
M  V30 28 H 1.048468 -5.681687 -0.654330 0
M  V30 29 H 3.067338 -1.885275 1.551707 0
M  V30 30 H 2.289620 -1.160702 -1.307617 0
M  V30 31 H 1.451198 0.693338 -3.193989 0
M  V30 32 H 0.103597 2.661325 -3.486533 0
M  V30 33 H -2.398040 5.563201 -0.972688 0
M  V30 34 H -1.465643 4.639318 0.268073 0
M  V30 35 H -2.957096 3.955800 -0.504198 0
M  V30 36 H -0.976701 2.645311 0.592716 0
M  V30 37 H -0.817311 0.818614 2.599828 0
M  V30 38 H 1.651885 1.930211 2.948522 0
M  V30 39 H 0.858181 1.083976 4.362432 0
M  V30 40 H 3.111440 0.114976 2.610889 0
M  V30 41 H 2.677960 -0.261322 4.376900 0
M  V30 42 H -0.213414 -1.034344 4.033445 0
M  V30 43 H -0.424691 -1.644780 2.302796 0
M  V30 END ATOM
M  V30 BEGIN BOND
M  V30 1 2 1 2
M  V30 2 1 2 3
M  V30 3 1 3 4
M  V30 4 1 4 5
M  V30 5 2 5 6
M  V30 6 1 5 7
M  V30 7 1 7 8
M  V30 8 1 8 9
M  V30 9 1 9 10
M  V30 10 2 10 11
M  V30 11 1 11 12
M  V30 12 2 12 13
M  V30 13 1 13 14
M  V30 14 1 14 15
M  V30 15 1 13 16
M  V30 16 2 16 17
M  V30 17 1 17 18
M  V30 18 1 18 19
M  V30 19 1 19 20
M  V30 20 1 20 21
M  V30 21 1 21 22
M  V30 22 1 22 23
M  V30 23 1 22 7
M  V30 24 2 18 8
M  V30 25 1 23 19
M  V30 26 1 17 10
M  V30 27 1 1 24
M  V30 28 1 1 25
M  V30 29 1 2 26
M  V30 30 1 3 27
M  V30 31 1 3 28
M  V30 32 1 7 29
M  V30 33 1 9 30
M  V30 34 1 11 31
M  V30 35 1 12 32
M  V30 36 1 15 33
M  V30 37 1 15 34
M  V30 38 1 15 35
M  V30 39 1 16 36
M  V30 40 1 19 37
M  V30 41 1 20 38
M  V30 42 1 20 39
M  V30 43 1 21 40
M  V30 44 1 21 41
M  V30 45 1 23 42
M  V30 46 1 23 43
M  V30 END BOND
M  V30 END CTAB
M  END
>  <Dataset>  (789) 
ChEMBL_Kinases

>  <Ligand_Instance>  (789) 
nan

>  <PDB_ID>  (789) 
nan

>  <Standardized_SMILES>  (789) 
C=CCOC(=O)C1c2[nH]c3ccc(OC)cc3c2C2CCN1C2

>  <Name>  (789) 
nan

>  <Pocket>  (789) 
nan

>  <ATP_Site>  (789) 
nan

>  <Peripheral>  (789) 
nan

>  <Num_H_Atoms_ProtBoundConf>  (789) 
nan

>  <Num_Resolved_Atoms>  (789) 
nan

>  <Num_Not_Resolved_Atoms>  (789) 
nan

$$$$
CHEMBL245883
     RDKit          3D

  0  0  0  0  0  0  0  0  0  0999 V3000
M  V30 BEGIN CTAB
M  V30 COUNTS 47 50 0 0 0
M  V30 BEGIN ATOM
M  V30 1 C 1.975616 -2.741828 -1.982794 0
M  V30 2 C 2.958434 -2.985420 -0.830779 0
M  V30 3 C 3.938955 -4.005705 -1.291359 0
M  V30 4 N 5.294848 -3.568742 -1.392743 0
M  V30 5 C 5.822291 -2.350012 -0.889560 0
M  V30 6 O 7.046219 -2.035901 -0.893079 0
M  V30 7 C 4.875872 -1.391366 -0.326460 0
M  V30 8 N 5.084542 -0.176012 0.214813 0
M  V30 9 C 3.852623 0.253954 0.566644 0
M  V30 10 C 3.494221 1.439556 1.165720 0
M  V30 11 C 2.191053 1.706425 1.452583 0
M  V30 12 C 1.161085 0.815059 1.163193 0
M  V30 13 C -0.256960 1.041796 1.458957 0
M  V30 14 O -1.116227 0.214304 1.063630 0
M  V30 15 N -0.603110 2.199265 2.189274 0
M  V30 16 C -2.038065 2.375659 2.455840 0
M  V30 17 N -2.988155 1.693214 2.115842 0
M  V30 18 C -4.238969 2.011544 2.466153 0
M  V30 19 C -5.304193 1.127910 1.999985 0
M  V30 20 O -6.130405 1.847287 1.367529 0
M  V30 21 N -5.455247 -0.272958 2.179480 0
M  V30 22 C -4.480459 -1.058857 2.906279 0
M  V30 23 C -6.630049 -0.874635 1.602826 0
M  V30 24 C -4.449866 3.196460 3.267567 0
M  V30 25 S -2.642390 3.748668 3.425447 0
M  V30 26 C 1.591005 -0.350788 0.564261 0
M  V30 27 C 2.887252 -0.692204 0.243869 0
M  V30 28 C 3.548907 -1.742853 -0.327114 0
M  V30 29 H 2.169212 -3.414599 -2.845776 0
M  V30 30 H 0.936550 -2.859253 -1.598957 0
M  V30 31 H 2.079236 -1.701309 -2.332733 0
M  V30 32 H 2.397458 -3.433536 0.035615 0
M  V30 33 H 3.662111 -4.456298 -2.283370 0
M  V30 34 H 3.959670 -4.903701 -0.605813 0
M  V30 35 H 5.984668 -4.178966 -1.875050 0
M  V30 36 H 5.977700 0.340107 0.346682 0
M  V30 37 H 4.246105 2.174323 1.416037 0
M  V30 38 H 1.945761 2.634542 1.916557 0
M  V30 39 H 0.055703 2.924841 2.548233 0
M  V30 40 H -4.926233 -1.964878 3.358593 0
M  V30 41 H -4.009675 -0.399709 3.661372 0
M  V30 42 H -3.629169 -1.369664 2.243599 0
M  V30 43 H -7.203610 -0.148793 0.967839 0
M  V30 44 H -7.327713 -1.243243 2.405101 0
M  V30 45 H -6.452995 -1.737573 0.958906 0
M  V30 46 H -5.475992 3.455014 3.552260 0
M  V30 47 H 0.812473 -1.085396 0.316497 0
M  V30 END ATOM
M  V30 BEGIN BOND
M  V30 1 1 1 2
M  V30 2 1 2 3
M  V30 3 1 3 4
M  V30 4 1 4 5
M  V30 5 2 5 6
M  V30 6 1 5 7
M  V30 7 1 7 8
M  V30 8 1 8 9
M  V30 9 2 9 10
M  V30 10 1 10 11
M  V30 11 2 11 12
M  V30 12 1 12 13
M  V30 13 2 13 14
M  V30 14 1 13 15
M  V30 15 1 15 16
M  V30 16 2 16 17
M  V30 17 1 17 18
M  V30 18 1 18 19
M  V30 19 2 19 20
M  V30 20 1 19 21
M  V30 21 1 21 22
M  V30 22 1 21 23
M  V30 23 2 18 24
M  V30 24 1 24 25
M  V30 25 1 12 26
M  V30 26 2 26 27
M  V30 27 1 27 28
M  V30 28 1 28 2
M  V30 29 2 28 7
M  V30 30 1 27 9
M  V30 31 1 25 16
M  V30 32 1 1 29
M  V30 33 1 1 30
M  V30 34 1 1 31
M  V30 35 1 2 32
M  V30 36 1 3 33
M  V30 37 1 3 34
M  V30 38 1 4 35
M  V30 39 1 8 36
M  V30 40 1 10 37
M  V30 41 1 11 38
M  V30 42 1 15 39
M  V30 43 1 22 40
M  V30 44 1 22 41
M  V30 45 1 22 42
M  V30 46 1 23 43
M  V30 47 1 23 44
M  V30 48 1 23 45
M  V30 49 1 24 46
M  V30 50 1 26 47
M  V30 END BOND
M  V30 END CTAB
M  END
>  <Dataset>  (790) 
ChEMBL_Kinases

>  <Ligand_Instance>  (790) 
nan

>  <PDB_ID>  (790) 
nan

>  <Standardized_SMILES>  (790) 
CC1CNC(=O)c2[nH]c3ccc(C(=O)Nc4nc(C(=O)N(C)C)cs4)cc3c21

>  <Name>  (790) 
nan

>  <Pocket>  (790) 
nan

>  <ATP_Site>  (790) 
nan

>  <Peripheral>  (790) 
nan

>  <Num_H_Atoms_ProtBoundConf>  (790) 
nan

>  <Num_Resolved_Atoms>  (790) 
nan

>  <Num_Not_Resolved_Atoms>  (790) 
nan

$$$$
CHEMBL246082
     RDKit          3D

  0  0  0  0  0  0  0  0  0  0999 V3000
M  V30 BEGIN CTAB
M  V30 COUNTS 47 50 0 0 0
M  V30 BEGIN ATOM
M  V30 1 C -0.117040 -7.703271 -4.667569 0
M  V30 2 O -0.205969 -6.655215 -3.706347 0
M  V30 3 C 0.273273 -5.393240 -3.951611 0
M  V30 4 O 0.792310 -5.240963 -5.084558 0
M  V30 5 C 0.222993 -4.282618 -3.038182 0
M  V30 6 C 0.754861 -3.078101 -3.450387 0
M  V30 7 C 0.745799 -1.965393 -2.634095 0
M  V30 8 C 0.184009 -2.101065 -1.387018 0
M  V30 9 N 0.070699 -1.075150 -0.383355 0
M  V30 10 C 1.189462 -1.041471 0.473681 0
M  V30 11 O 2.087614 -1.878125 0.246722 0
M  V30 12 C 1.370475 -0.116673 1.586302 0
M  V30 13 C 2.535447 -0.234708 2.316517 0
M  V30 14 C 2.763710 0.622918 3.392636 0
M  V30 15 C 1.805724 1.548769 3.670184 0
M  V30 16 N 1.809164 2.471399 4.649085 0
M  V30 17 C 0.684025 3.174900 4.567871 0
M  V30 18 C -0.130191 2.761739 3.533109 0
M  V30 19 C 0.613585 1.723833 2.980509 0
M  V30 20 C 0.442180 0.845941 1.924581 0
M  V30 21 C -1.450429 3.328633 3.160575 0
M  V30 22 C -2.345866 2.303957 2.512226 0
M  V30 23 C -2.058698 3.916473 4.407846 0
M  V30 24 N -1.080055 4.805070 5.001979 0
M  V30 25 C 0.189517 4.297750 5.394598 0
M  V30 26 O 0.816428 4.785632 6.369828 0
M  V30 27 C -0.357596 -3.309852 -0.954566 0
M  V30 28 C -0.343025 -4.415242 -1.778813 0
M  V30 29 H 0.782706 -8.317218 -4.465486 0
M  V30 30 H -1.035525 -8.321648 -4.674889 0
M  V30 31 H 0.072569 -7.216930 -5.649642 0
M  V30 32 H 1.217550 -2.897694 -4.428434 0
M  V30 33 H 1.134693 -0.992983 -2.870017 0
M  V30 34 H -0.697727 -0.388849 -0.220431 0
M  V30 35 H 3.302093 -0.973913 2.096259 0
M  V30 36 H 3.669719 0.523455 3.952387 0
M  V30 37 H 2.560441 2.635675 5.374265 0
M  V30 38 H -0.440250 0.902268 1.335068 0
M  V30 39 H -1.264375 4.182643 2.464728 0
M  V30 40 H -2.224197 1.288595 2.882884 0
M  V30 41 H -3.397380 2.633829 2.764768 0
M  V30 42 H -2.279171 2.432958 1.415597 0
M  V30 43 H -3.018421 4.434938 4.203944 0
M  V30 44 H -2.202794 3.063425 5.115404 0
M  V30 45 H -1.288255 5.834633 5.154255 0
M  V30 46 H -0.811282 -3.476225 0.011977 0
M  V30 47 H -0.752713 -5.387156 -1.492794 0
M  V30 END ATOM
M  V30 BEGIN BOND
M  V30 1 1 1 2
M  V30 2 1 2 3
M  V30 3 2 3 4
M  V30 4 1 3 5
M  V30 5 2 5 6
M  V30 6 1 6 7
M  V30 7 2 7 8
M  V30 8 1 8 9
M  V30 9 1 9 10
M  V30 10 2 10 11
M  V30 11 1 10 12
M  V30 12 2 12 13
M  V30 13 1 13 14
M  V30 14 2 14 15
M  V30 15 1 15 16
M  V30 16 1 16 17
M  V30 17 2 17 18
M  V30 18 1 18 19
M  V30 19 2 19 20
M  V30 20 1 18 21
M  V30 21 1 21 22
M  V30 22 1 21 23
M  V30 23 1 23 24
M  V30 24 1 24 25
M  V30 25 2 25 26
M  V30 26 1 8 27
M  V30 27 2 27 28
M  V30 28 1 28 5
M  V30 29 1 20 12
M  V30 30 1 19 15
M  V30 31 1 25 17
M  V30 32 1 1 29
M  V30 33 1 1 30
M  V30 34 1 1 31
M  V30 35 1 6 32
M  V30 36 1 7 33
M  V30 37 1 9 34
M  V30 38 1 13 35
M  V30 39 1 14 36
M  V30 40 1 16 37
M  V30 41 1 20 38
M  V30 42 1 21 39
M  V30 43 1 22 40
M  V30 44 1 22 41
M  V30 45 1 22 42
M  V30 46 1 23 43
M  V30 47 1 23 44
M  V30 48 1 24 45
M  V30 49 1 27 46
M  V30 50 1 28 47
M  V30 END BOND
M  V30 END CTAB
M  END
>  <Dataset>  (791) 
ChEMBL_Kinases

>  <Ligand_Instance>  (791) 
nan

>  <PDB_ID>  (791) 
nan

>  <Standardized_SMILES>  (791) 
COC(=O)c1ccc(NC(=O)c2ccc3[nH]c4c(c3c2)C(C)CNC4=O)cc1

>  <Name>  (791) 
nan

>  <Pocket>  (791) 
nan

>  <ATP_Site>  (791) 
nan

>  <Peripheral>  (791) 
nan

>  <Num_H_Atoms_ProtBoundConf>  (791) 
nan

>  <Num_Resolved_Atoms>  (791) 
nan

>  <Num_Not_Resolved_Atoms>  (791) 
nan

$$$$
CHEMBL246088
     RDKit          3D

  0  0  0  0  0  0  0  0  0  0999 V3000
M  V30 BEGIN CTAB
M  V30 COUNTS 58 61 0 0 0
M  V30 BEGIN ATOM
M  V30 1 C 3.451460 -2.567702 0.877930 0
M  V30 2 C 4.778047 -1.984636 1.255703 0
M  V30 3 C 5.451380 -2.898518 2.244563 0
M  V30 4 N 6.653189 -2.331072 2.812477 0
M  V30 5 C 6.566152 -1.012475 3.328057 0
M  V30 6 O 7.356642 -0.614820 4.226961 0
M  V30 7 C 5.540303 -0.116907 2.798575 0
M  V30 8 N 5.222733 1.161274 3.087404 0
M  V30 9 C 4.188497 1.569179 2.331220 0
M  V30 10 C 3.496266 2.756247 2.238192 0
M  V30 11 C 2.437155 2.885240 1.333555 0
M  V30 12 C 2.089688 1.812497 0.532978 0
M  V30 13 C 0.977281 1.979335 -0.398429 0
M  V30 14 O 0.405867 3.096292 -0.433401 0
M  V30 15 N 0.554388 0.935162 -1.227405 0
M  V30 16 C -0.525570 0.983113 -2.177094 0
M  V30 17 N -1.654359 0.720650 -1.944340 0
M  V30 18 C -2.674872 0.748079 -2.776560 0
M  V30 19 C -4.058223 0.417223 -2.448759 0
M  V30 20 O -5.005973 0.437105 -3.241828 0
M  V30 21 N -4.410913 0.035380 -1.136977 0
M  V30 22 C -5.795444 -0.305188 -0.774423 0
M  V30 23 C -5.789517 -0.662778 0.682989 0
M  V30 24 C -4.939217 -1.829669 0.959098 0
M  V30 25 N -5.224746 -3.078197 0.394893 0
M  V30 26 C -5.089616 -3.324517 -0.979383 0
M  V30 27 C -4.497223 -4.086256 1.150186 0
M  V30 28 C -2.325678 1.156815 -4.139091 0
M  V30 29 S -0.475099 1.451189 -3.985669 0
M  V30 30 C 2.802897 0.661193 0.660882 0
M  V30 31 C 3.860243 0.485014 1.542620 0
M  V30 32 C 4.686582 -0.601749 1.802805 0
M  V30 33 H 3.448612 -3.651062 1.117810 0
M  V30 34 H 3.269248 -2.518288 -0.229311 0
M  V30 35 H 2.608408 -2.140068 1.457409 0
M  V30 36 H 5.411839 -2.001466 0.328652 0
M  V30 37 H 5.715263 -3.826003 1.683779 0
M  V30 38 H 4.759362 -3.185440 3.060521 0
M  V30 39 H 7.546413 -2.856374 2.846845 0
M  V30 40 H 5.681086 1.797705 3.791705 0
M  V30 41 H 3.797545 3.578941 2.883405 0
M  V30 42 H 1.901920 3.824203 1.270126 0
M  V30 43 H 0.998114 -0.009665 -1.234962 0
M  V30 44 H -3.614813 0.014769 -0.433504 0
M  V30 45 H -6.361508 0.670478 -0.927599 0
M  V30 46 H -6.202180 -1.077021 -1.433889 0
M  V30 47 H -6.809416 -0.715181 1.116022 0
M  V30 48 H -5.337282 0.239305 1.202150 0
M  V30 49 H -3.848322 -1.601031 0.740991 0
M  V30 50 H -4.904815 -1.981880 2.090811 0
M  V30 51 H -6.050090 -3.418956 -1.539122 0
M  V30 52 H -4.638281 -4.367400 -1.104160 0
M  V30 53 H -4.352238 -2.676607 -1.469156 0
M  V30 54 H -5.099792 -4.942244 1.457689 0
M  V30 55 H -3.970125 -3.641784 2.043706 0
M  V30 56 H -3.641750 -4.453707 0.515045 0
M  V30 57 H -3.176122 1.221494 -4.998330 0
M  V30 58 H 2.561213 -0.197070 0.052900 0
M  V30 END ATOM
M  V30 BEGIN BOND
M  V30 1 1 1 2
M  V30 2 1 2 3
M  V30 3 1 3 4
M  V30 4 1 4 5
M  V30 5 2 5 6
M  V30 6 1 5 7
M  V30 7 1 7 8
M  V30 8 1 8 9
M  V30 9 2 9 10
M  V30 10 1 10 11
M  V30 11 2 11 12
M  V30 12 1 12 13
M  V30 13 2 13 14
M  V30 14 1 13 15
M  V30 15 1 15 16
M  V30 16 2 16 17
M  V30 17 1 17 18
M  V30 18 1 18 19
M  V30 19 2 19 20
M  V30 20 1 19 21
M  V30 21 1 21 22
M  V30 22 1 22 23
M  V30 23 1 23 24
M  V30 24 1 24 25
M  V30 25 1 25 26
M  V30 26 1 25 27
M  V30 27 2 18 28
M  V30 28 1 28 29
M  V30 29 1 12 30
M  V30 30 2 30 31
M  V30 31 1 31 32
M  V30 32 1 32 2
M  V30 33 2 32 7
M  V30 34 1 31 9
M  V30 35 1 29 16
M  V30 36 1 1 33
M  V30 37 1 1 34
M  V30 38 1 1 35
M  V30 39 1 2 36
M  V30 40 1 3 37
M  V30 41 1 3 38
M  V30 42 1 4 39
M  V30 43 1 8 40
M  V30 44 1 10 41
M  V30 45 1 11 42
M  V30 46 1 15 43
M  V30 47 1 21 44
M  V30 48 1 22 45
M  V30 49 1 22 46
M  V30 50 1 23 47
M  V30 51 1 23 48
M  V30 52 1 24 49
M  V30 53 1 24 50
M  V30 54 1 26 51
M  V30 55 1 26 52
M  V30 56 1 26 53
M  V30 57 1 27 54
M  V30 58 1 27 55
M  V30 59 1 27 56
M  V30 60 1 28 57
M  V30 61 1 30 58
M  V30 END BOND
M  V30 END CTAB
M  END
>  <Dataset>  (792) 
ChEMBL_Kinases

>  <Ligand_Instance>  (792) 
nan

>  <PDB_ID>  (792) 
nan

>  <Standardized_SMILES>  (792) 
CC1CNC(=O)c2[nH]c3ccc(C(=O)Nc4nc(C(=O)NCCCN(C)C)cs4)cc3c21

>  <Name>  (792) 
nan

>  <Pocket>  (792) 
nan

>  <ATP_Site>  (792) 
nan

>  <Peripheral>  (792) 
nan

>  <Num_H_Atoms_ProtBoundConf>  (792) 
nan

>  <Num_Resolved_Atoms>  (792) 
nan

>  <Num_Not_Resolved_Atoms>  (792) 
nan

$$$$
CHEMBL246090
     RDKit          3D

  0  0  0  0  0  0  0  0  0  0999 V3000
M  V30 BEGIN CTAB
M  V30 COUNTS 51 54 0 0 0
M  V30 BEGIN ATOM
M  V30 1 C 3.193303 -4.184199 2.377908 0
M  V30 2 C 3.322865 -3.358500 3.626075 0
M  V30 3 C 4.489480 -3.945359 4.427075 0
M  V30 4 N 4.792639 -3.143368 5.594056 0
M  V30 5 C 4.978151 -1.728404 5.391929 0
M  V30 6 O 5.690849 -1.030697 6.153276 0
M  V30 7 C 4.291808 -1.136282 4.248505 0
M  V30 8 N 4.305388 0.146902 3.851561 0
M  V30 9 C 3.530195 0.215392 2.755441 0
M  V30 10 C 3.213193 1.300986 1.964877 0
M  V30 11 C 2.389140 1.172795 0.865115 0
M  V30 12 C 1.868913 -0.064661 0.545356 0
M  V30 13 C 0.985058 -0.422455 -0.561560 0
M  V30 14 O 0.522700 -1.558093 -0.837209 0
M  V30 15 N 0.601836 0.626168 -1.426462 0
M  V30 16 C -0.279798 0.509884 -2.607292 0
M  V30 17 N -1.412551 0.614185 -2.680040 0
M  V30 18 C -2.207396 0.510802 -3.736523 0
M  V30 19 C -3.656814 0.664668 -3.714450 0
M  V30 20 O -4.389321 0.563462 -4.730789 0
M  V30 21 N -4.415094 0.946662 -2.546490 0
M  V30 22 C -5.837918 1.081147 -2.621398 0
M  V30 23 C -6.467805 1.379461 -1.279092 0
M  V30 24 C -6.186849 0.290724 -0.296854 0
M  V30 25 N -6.737977 0.481351 0.991481 0
M  V30 26 O -5.532790 -0.771645 -0.443644 0
M  V30 27 C -1.532088 0.231762 -4.927928 0
M  V30 28 S 0.211361 0.143081 -4.406947 0
M  V30 29 C 2.196137 -1.159749 1.353122 0
M  V30 30 C 3.025601 -1.034613 2.461371 0
M  V30 31 C 3.499074 -1.923190 3.405185 0
M  V30 32 H 3.767216 -3.793470 1.523764 0
M  V30 33 H 3.587553 -5.226284 2.561621 0
M  V30 34 H 2.112735 -4.343080 2.158475 0
M  V30 35 H 2.426889 -3.532146 4.278957 0
M  V30 36 H 5.394901 -3.920494 3.779696 0
M  V30 37 H 4.232793 -4.972721 4.729183 0
M  V30 38 H 4.890244 -3.507757 6.587459 0
M  V30 39 H 4.810444 0.942623 4.293442 0
M  V30 40 H 3.555266 2.314533 2.110378 0
M  V30 41 H 2.088600 1.957398 0.194727 0
M  V30 42 H 0.855638 1.616838 -1.392792 0
M  V30 43 H -3.897261 1.053744 -1.622777 0
M  V30 44 H -6.274152 0.130784 -2.979125 0
M  V30 45 H -6.104438 1.934043 -3.283420 0
M  V30 46 H -6.171254 2.367745 -0.871555 0
M  V30 47 H -7.560542 1.390185 -1.447290 0
M  V30 48 H -7.453405 0.682823 1.742980 0
M  V30 49 H -6.259773 0.419228 1.938973 0
M  V30 50 H -2.043817 0.103967 -5.956649 0
M  V30 51 H 1.838776 -2.162883 1.182960 0
M  V30 END ATOM
M  V30 BEGIN BOND
M  V30 1 1 1 2
M  V30 2 1 2 3
M  V30 3 1 3 4
M  V30 4 1 4 5
M  V30 5 2 5 6
M  V30 6 1 5 7
M  V30 7 1 7 8
M  V30 8 1 8 9
M  V30 9 2 9 10
M  V30 10 1 10 11
M  V30 11 2 11 12
M  V30 12 1 12 13
M  V30 13 2 13 14
M  V30 14 1 13 15
M  V30 15 1 15 16
M  V30 16 2 16 17
M  V30 17 1 17 18
M  V30 18 1 18 19
M  V30 19 2 19 20
M  V30 20 1 19 21
M  V30 21 1 21 22
M  V30 22 1 22 23
M  V30 23 1 23 24
M  V30 24 1 24 25
M  V30 25 2 24 26
M  V30 26 2 18 27
M  V30 27 1 27 28
M  V30 28 1 12 29
M  V30 29 2 29 30
M  V30 30 1 30 31
M  V30 31 1 31 2
M  V30 32 2 31 7
M  V30 33 1 30 9
M  V30 34 1 28 16
M  V30 35 1 1 32
M  V30 36 1 1 33
M  V30 37 1 1 34
M  V30 38 1 2 35
M  V30 39 1 3 36
M  V30 40 1 3 37
M  V30 41 1 4 38
M  V30 42 1 8 39
M  V30 43 1 10 40
M  V30 44 1 11 41
M  V30 45 1 15 42
M  V30 46 1 21 43
M  V30 47 1 22 44
M  V30 48 1 22 45
M  V30 49 1 23 46
M  V30 50 1 23 47
M  V30 51 1 25 48
M  V30 52 1 25 49
M  V30 53 1 27 50
M  V30 54 1 29 51
M  V30 END BOND
M  V30 END CTAB
M  END
>  <Dataset>  (793) 
ChEMBL_Kinases

>  <Ligand_Instance>  (793) 
nan

>  <PDB_ID>  (793) 
nan

>  <Standardized_SMILES>  (793) 
CC1CNC(=O)c2[nH]c3ccc(C(=O)Nc4nc(C(=O)NCCC(N)=O)cs4)cc3c21

>  <Name>  (793) 
nan

>  <Pocket>  (793) 
nan

>  <ATP_Site>  (793) 
nan

>  <Peripheral>  (793) 
nan

>  <Num_H_Atoms_ProtBoundConf>  (793) 
nan

>  <Num_Resolved_Atoms>  (793) 
nan

>  <Num_Not_Resolved_Atoms>  (793) 
nan

$$$$
CHEMBL246099
     RDKit          3D

  0  0  0  0  0  0  0  0  0  0999 V3000
M  V30 BEGIN CTAB
M  V30 COUNTS 29 31 0 0 0
M  V30 BEGIN ATOM
M  V30 1 O -0.899907 -4.671421 1.843384 0
M  V30 2 C -0.654040 -3.975705 0.815577 0
M  V30 3 O -1.387709 -4.120306 -0.350693 0
M  V30 4 C 0.436302 -3.002808 0.887443 0
M  V30 5 N 1.058008 -3.028747 2.201471 0
M  V30 6 C 2.162168 -2.135063 2.319917 0
M  V30 7 C 2.311357 -1.156236 1.193323 0
M  V30 8 C 0.977865 -0.635486 0.768353 0
M  V30 9 C 0.018324 -1.618642 0.616159 0
M  V30 10 N -1.120528 -1.026383 0.236581 0
M  V30 11 C -0.927637 0.307360 0.138686 0
M  V30 12 C -1.714568 1.389833 -0.199741 0
M  V30 13 C -1.186236 2.668284 -0.199307 0
M  V30 14 C 0.131776 2.900320 0.136228 0
M  V30 15 O 0.690618 4.170616 0.145957 0
M  V30 16 C 0.969673 1.839118 0.486238 0
M  V30 17 C 0.388715 0.585802 0.468514 0
M  V30 18 H -2.371132 -4.419894 -0.273213 0
M  V30 19 H 1.257428 -3.231763 0.161893 0
M  V30 20 H 0.315638 -2.715072 2.889824 0
M  V30 21 H 2.083303 -1.504304 3.250684 0
M  V30 22 H 3.143681 -2.676828 2.418284 0
M  V30 23 H 2.958578 -0.318186 1.505952 0
M  V30 24 H 2.794034 -1.619086 0.309774 0
M  V30 25 H -2.016593 -1.510227 0.045332 0
M  V30 26 H -2.764321 1.225840 -0.469333 0
M  V30 27 H -1.786756 3.531482 -0.461785 0
M  V30 28 H 0.856463 4.708145 1.011282 0
M  V30 29 H 1.998392 1.986955 0.751909 0
M  V30 END ATOM
M  V30 BEGIN BOND
M  V30 1 2 1 2
M  V30 2 1 2 3
M  V30 3 1 2 4
M  V30 4 1 4 5
M  V30 5 1 5 6
M  V30 6 1 6 7
M  V30 7 1 7 8
M  V30 8 2 8 9
M  V30 9 1 9 10
M  V30 10 1 10 11
M  V30 11 2 11 12
M  V30 12 1 12 13
M  V30 13 2 13 14
M  V30 14 1 14 15
M  V30 15 1 14 16
M  V30 16 2 16 17
M  V30 17 1 9 4
M  V30 18 1 17 11
M  V30 19 1 17 8
M  V30 20 1 3 18
M  V30 21 1 4 19
M  V30 22 1 5 20
M  V30 23 1 6 21
M  V30 24 1 6 22
M  V30 25 1 7 23
M  V30 26 1 7 24
M  V30 27 1 10 25
M  V30 28 1 12 26
M  V30 29 1 13 27
M  V30 30 1 15 28
M  V30 31 1 16 29
M  V30 END BOND
M  V30 END CTAB
M  END
>  <Dataset>  (794) 
ChEMBL_Kinases

>  <Ligand_Instance>  (794) 
nan

>  <PDB_ID>  (794) 
nan

>  <Standardized_SMILES>  (794) 
O=C(O)C1NCCc2c1[nH]c1ccc(O)cc21

>  <Name>  (794) 
nan

>  <Pocket>  (794) 
nan

>  <ATP_Site>  (794) 
nan

>  <Peripheral>  (794) 
nan

>  <Num_H_Atoms_ProtBoundConf>  (794) 
nan

>  <Num_Resolved_Atoms>  (794) 
nan

>  <Num_Not_Resolved_Atoms>  (794) 
nan

$$$$
CHEMBL245662
     RDKit          3D

  0  0  0  0  0  0  0  0  0  0999 V3000
M  V30 BEGIN CTAB
M  V30 COUNTS 45 48 0 0 0
M  V30 BEGIN ATOM
M  V30 1 C 0.550071 -5.298416 2.411241 0
M  V30 2 C 1.009872 -5.799890 1.074064 0
M  V30 3 C 1.585833 -4.682789 0.196595 0
M  V30 4 O 0.536048 -3.754642 0.031264 0
M  V30 5 C 0.675276 -2.601629 -0.706500 0
M  V30 6 O 1.866510 -2.750338 -1.057354 0
M  V30 7 C -0.290555 -1.534574 -0.985493 0
M  V30 8 C 0.176122 -0.219985 -0.465741 0
M  V30 9 N 1.375527 0.372260 -0.591342 0
M  V30 10 C 1.379689 1.554487 0.027216 0
M  V30 11 C 2.381541 2.507642 0.162771 0
M  V30 12 C 2.077228 3.668123 0.882123 0
M  V30 13 C 0.816929 3.822384 1.421407 0
M  V30 14 O 0.532153 4.985520 2.135042 0
M  V30 15 C 1.584471 5.931752 2.248604 0
M  V30 16 C -0.185640 2.876986 1.290184 0
M  V30 17 C 0.103988 1.712579 0.574115 0
M  V30 18 C -0.658196 0.599534 0.267537 0
M  V30 19 C -2.055815 0.197229 0.564850 0
M  V30 20 C -2.018522 -0.746027 1.741375 0
M  V30 21 C -1.404445 -1.988273 1.088549 0
M  V30 22 N -1.559693 -1.858837 -0.324321 0
M  V30 23 C -2.487947 -0.746075 -0.547022 0
M  V30 24 H 1.242505 -4.533568 2.798934 0
M  V30 25 H 0.584962 -6.181387 3.107289 0
M  V30 26 H -0.477130 -4.866450 2.391001 0
M  V30 27 H 0.140764 -6.236262 0.514124 0
M  V30 28 H 1.797057 -6.558195 1.243885 0
M  V30 29 H 2.443786 -4.211857 0.750195 0
M  V30 30 H 1.929257 -5.154831 -0.734118 0
M  V30 31 H -0.485877 -1.417534 -2.069425 0
M  V30 32 H 2.190259 -0.026629 -1.096880 0
M  V30 33 H 3.353383 2.356020 -0.270220 0
M  V30 34 H 2.874635 4.389132 0.970267 0
M  V30 35 H 1.944531 6.191762 1.216246 0
M  V30 36 H 2.445644 5.389504 2.717091 0
M  V30 37 H 1.303205 6.824676 2.811743 0
M  V30 38 H -1.156683 3.023004 1.719936 0
M  V30 39 H -2.749694 1.046694 0.683404 0
M  V30 40 H -3.070107 -0.921295 2.057933 0
M  V30 41 H -1.382408 -0.358565 2.563380 0
M  V30 42 H -1.928379 -2.911526 1.470838 0
M  V30 43 H -0.343827 -2.077772 1.401602 0
M  V30 44 H -3.534677 -1.066813 -0.419416 0
M  V30 45 H -2.282819 -0.318133 -1.546830 0
M  V30 END ATOM
M  V30 BEGIN BOND
M  V30 1 1 1 2
M  V30 2 1 2 3
M  V30 3 1 3 4
M  V30 4 1 4 5
M  V30 5 2 5 6
M  V30 6 1 5 7
M  V30 7 1 7 8
M  V30 8 1 8 9
M  V30 9 1 9 10
M  V30 10 2 10 11
M  V30 11 1 11 12
M  V30 12 2 12 13
M  V30 13 1 13 14
M  V30 14 1 14 15
M  V30 15 1 13 16
M  V30 16 2 16 17
M  V30 17 1 17 18
M  V30 18 1 18 19
M  V30 19 1 19 20
M  V30 20 1 20 21
M  V30 21 1 21 22
M  V30 22 1 22 23
M  V30 23 1 22 7
M  V30 24 2 18 8
M  V30 25 1 23 19
M  V30 26 1 17 10
M  V30 27 1 1 24
M  V30 28 1 1 25
M  V30 29 1 1 26
M  V30 30 1 2 27
M  V30 31 1 2 28
M  V30 32 1 3 29
M  V30 33 1 3 30
M  V30 34 1 7 31
M  V30 35 1 9 32
M  V30 36 1 11 33
M  V30 37 1 12 34
M  V30 38 1 15 35
M  V30 39 1 15 36
M  V30 40 1 15 37
M  V30 41 1 16 38
M  V30 42 1 19 39
M  V30 43 1 20 40
M  V30 44 1 20 41
M  V30 45 1 21 42
M  V30 46 1 21 43
M  V30 47 1 23 44
M  V30 48 1 23 45
M  V30 END BOND
M  V30 END CTAB
M  END
>  <Dataset>  (795) 
ChEMBL_Kinases

>  <Ligand_Instance>  (795) 
nan

>  <PDB_ID>  (795) 
nan

>  <Standardized_SMILES>  (795) 
CCCOC(=O)C1c2[nH]c3ccc(OC)cc3c2C2CCN1C2

>  <Name>  (795) 
nan

>  <Pocket>  (795) 
nan

>  <ATP_Site>  (795) 
nan

>  <Peripheral>  (795) 
nan

>  <Num_H_Atoms_ProtBoundConf>  (795) 
nan

>  <Num_Resolved_Atoms>  (795) 
nan

>  <Num_Not_Resolved_Atoms>  (795) 
nan

$$$$
CHEMBL2440752
     RDKit          3D

  0  0  0  0  0  0  0  0  0  0999 V3000
M  V30 BEGIN CTAB
M  V30 COUNTS 53 56 0 0 0
M  V30 BEGIN ATOM
M  V30 1 N -1.307517 -2.872362 4.950532 0
M  V30 2 C -1.603439 -1.451047 5.172602 0
M  V30 3 C -0.826806 -0.576951 4.294850 0
M  V30 4 C 0.270881 0.113091 4.794227 0
M  V30 5 C 1.025951 0.927402 3.971205 0
M  V30 6 C 0.735566 1.096891 2.630047 0
M  V30 7 C 1.584355 1.965605 1.866102 0
M  V30 8 O 2.465431 2.597662 2.486427 0
M  V30 9 N 1.550386 2.198915 0.484101 0
M  V30 10 C 2.258712 2.983352 -0.441028 0
M  V30 11 C 1.970572 2.834270 -1.774643 0
M  V30 12 C 2.616150 3.567437 -2.734812 0
M  V30 13 N 3.553445 4.458741 -2.416319 0
M  V30 14 C 3.890060 4.663753 -1.151507 0
M  V30 15 C 3.233379 3.920875 -0.204939 0
M  V30 16 F 3.614298 4.182264 1.062872 0
M  V30 17 C -0.365897 0.394426 2.166254 0
M  V30 18 C -1.157565 -0.440986 2.969130 0
M  V30 19 C -2.266365 -1.053294 2.255200 0
M  V30 20 C -3.609851 -1.091212 2.528358 0
M  V30 21 C -4.575949 -1.712164 1.783990 0
M  V30 22 C -4.217151 -2.378099 0.637222 0
M  V30 23 C -2.873287 -2.340492 0.361555 0
M  V30 24 C -2.457975 -3.029164 -0.847747 0
M  V30 25 O -1.767820 -3.494131 -1.770644 0
M  V30 26 O -2.074543 -3.666883 -1.967279 0
M  V30 27 C -0.801918 -3.789108 -2.494696 0
M  V30 28 C 0.055066 -4.838052 -2.148668 0
M  V30 29 C 1.332992 -5.046497 -2.617943 0
M  V30 30 C 1.778634 -4.103089 -3.519593 0
M  V30 31 C 1.017481 -3.033148 -3.927902 0
M  V30 32 C -0.261308 -2.881676 -3.416853 0
M  V30 33 C -1.901366 -1.721817 1.102306 0
M  V30 34 H -0.566248 -3.226376 5.571114 0
M  V30 35 H -1.072453 -3.071326 3.963816 0
M  V30 36 H -2.680987 -1.364762 5.152290 0
M  V30 37 H -1.279069 -1.269354 6.230693 0
M  V30 38 H 0.511560 -0.011754 5.843905 0
M  V30 39 H 1.858340 1.415800 4.465863 0
M  V30 40 H 0.764277 1.602438 0.095122 0
M  V30 41 H 1.220652 2.126534 -2.125934 0
M  V30 42 H 2.369793 3.424542 -3.757514 0
M  V30 43 H 4.640025 5.380570 -0.928188 0
M  V30 44 H -0.596354 0.530262 1.106667 0
M  V30 45 H -3.919942 -0.565180 3.403910 0
M  V30 46 H -5.603046 -1.666228 2.112590 0
M  V30 47 H -4.983395 -2.857555 0.068225 0
M  V30 48 H -0.371694 -5.529748 -1.439925 0
M  V30 49 H 1.878130 -5.909524 -2.252450 0
M  V30 50 H 2.793937 -4.245031 -3.908913 0
M  V30 51 H 1.456740 -2.350865 -4.638199 0
M  V30 52 H -0.861253 -2.037100 -3.740387 0
M  V30 53 H -0.857553 -1.773837 0.762510 0
M  V30 END ATOM
M  V30 BEGIN BOND
M  V30 1 1 1 2
M  V30 2 1 2 3
M  V30 3 2 3 4
M  V30 4 1 4 5
M  V30 5 2 5 6
M  V30 6 1 6 7
M  V30 7 2 7 8
M  V30 8 1 7 9
M  V30 9 1 9 10
M  V30 10 2 10 11
M  V30 11 1 11 12
M  V30 12 2 12 13
M  V30 13 1 13 14
M  V30 14 2 14 15
M  V30 15 1 15 16
M  V30 16 1 6 17
M  V30 17 2 17 18
M  V30 18 1 18 19
M  V30 19 2 19 20
M  V30 20 1 20 21
M  V30 21 2 21 22
M  V30 22 1 22 23
M  V30 23 1 23 24
M  V30 24 2 24 25
M  V30 25 1 24 26
M  V30 26 1 26 27
M  V30 27 2 27 28
M  V30 28 1 28 29
M  V30 29 2 29 30
M  V30 30 1 30 31
M  V30 31 2 31 32
M  V30 32 2 23 33
M  V30 33 1 18 3
M  V30 34 1 33 19
M  V30 35 1 15 10
M  V30 36 1 32 27
M  V30 37 1 1 34
M  V30 38 1 1 35
M  V30 39 1 2 36
M  V30 40 1 2 37
M  V30 41 1 4 38
M  V30 42 1 5 39
M  V30 43 1 9 40
M  V30 44 1 11 41
M  V30 45 1 12 42
M  V30 46 1 14 43
M  V30 47 1 17 44
M  V30 48 1 20 45
M  V30 49 1 21 46
M  V30 50 1 22 47
M  V30 51 1 28 48
M  V30 52 1 29 49
M  V30 53 1 30 50
M  V30 54 1 31 51
M  V30 55 1 32 52
M  V30 56 1 33 53
M  V30 END BOND
M  V30 END CTAB
M  END
>  <Dataset>  (796) 
ChEMBL_Kinases

>  <Ligand_Instance>  (796) 
nan

>  <PDB_ID>  (796) 
nan

>  <Standardized_SMILES>  (796) 
NCc1ccc(C(=O)Nc2ccncc2F)cc1-c1cccc(C(=O)Oc2ccccc2)c1

>  <Name>  (796) 
nan

>  <Pocket>  (796) 
nan

>  <ATP_Site>  (796) 
nan

>  <Peripheral>  (796) 
nan

>  <Num_H_Atoms_ProtBoundConf>  (796) 
nan

>  <Num_Resolved_Atoms>  (796) 
nan

>  <Num_Not_Resolved_Atoms>  (796) 
nan

$$$$
CHEMBL2440751
     RDKit          3D

  0  0  0  0  0  0  0  0  0  0999 V3000
M  V30 BEGIN CTAB
M  V30 COUNTS 59 62 0 0 0
M  V30 BEGIN ATOM
M  V30 1 N 1.997542 -3.500022 3.230497 0
M  V30 2 C 1.423019 -2.419523 3.964265 0
M  V30 3 C 1.817348 -1.066364 3.530531 0
M  V30 4 C 2.794932 -0.428887 4.266526 0
M  V30 5 C 3.212985 0.837427 3.917747 0
M  V30 6 C 2.670917 1.494716 2.834734 0
M  V30 7 C 3.137232 2.833503 2.496422 0
M  V30 8 O 4.024448 3.328081 3.224722 0
M  V30 9 N 2.664520 3.597060 1.421967 0
M  V30 10 C 3.117588 4.904783 1.089137 0
M  V30 11 C 4.154112 5.262458 0.251137 0
M  V30 12 C 4.392110 6.625858 0.095285 0
M  V30 13 N 3.661444 7.542584 0.719372 0
M  V30 14 C 2.655133 7.223254 1.533706 0
M  V30 15 C 2.363579 5.869230 1.733615 0
M  V30 16 C 1.701364 0.805098 2.143064 0
M  V30 17 C 1.231832 -0.471566 2.437490 0
M  V30 18 C 0.206392 -1.019794 1.571998 0
M  V30 19 C -0.882745 -0.127712 1.519138 0
M  V30 20 C -2.023141 -0.369361 0.753767 0
M  V30 21 C -2.120206 -1.523751 0.003959 0
M  V30 22 C -1.054466 -2.399646 0.053593 0
M  V30 23 C -0.995497 -3.667004 -0.680928 0
M  V30 24 O -0.119761 -4.542204 -0.732328 0
M  V30 25 O -2.124655 -3.951360 -1.469749 0
M  V30 26 C -2.280188 -5.098896 -2.249446 0
M  V30 27 C -3.584951 -5.766109 -1.868096 0
M  V30 28 C -4.640722 -4.674171 -1.803939 0
M  V30 29 C -4.842175 -4.141696 -3.191113 0
M  V30 30 C -3.548923 -3.626618 -3.771126 0
M  V30 31 C -2.465068 -4.695375 -3.718881 0
M  V30 32 C 0.069459 -2.156007 0.810753 0
M  V30 33 H 2.803979 -3.205209 2.675391 0
M  V30 34 H 2.097127 -4.321397 3.832600 0
M  V30 35 H 0.288386 -2.516664 3.991894 0
M  V30 36 H 1.683812 -2.574545 5.040602 0
M  V30 37 H 3.240824 -0.917999 5.123245 0
M  V30 38 H 3.975593 1.314377 4.505759 0
M  V30 39 H 1.924057 3.205041 0.799726 0
M  V30 40 H 4.671678 4.428553 -0.195724 0
M  V30 41 H 5.222237 6.846358 -0.577844 0
M  V30 42 H 2.116481 8.058010 1.998483 0
M  V30 43 H 1.529031 5.705029 2.411721 0
M  V30 44 H 1.276860 1.336296 1.283442 0
M  V30 45 H -0.978922 0.819053 2.038615 0
M  V30 46 H -2.867413 0.277670 0.685790 0
M  V30 47 H -2.925559 -1.843018 -0.626004 0
M  V30 48 H -1.426801 -5.805772 -2.209242 0
M  V30 49 H -3.862770 -6.420236 -2.737843 0
M  V30 50 H -3.521958 -6.351745 -0.928781 0
M  V30 51 H -4.209213 -3.837972 -1.195263 0
M  V30 52 H -5.598148 -5.043978 -1.400793 0
M  V30 53 H -5.511839 -3.239666 -3.098236 0
M  V30 54 H -5.364607 -4.837860 -3.859671 0
M  V30 55 H -3.224958 -2.705866 -3.280157 0
M  V30 56 H -3.741191 -3.390751 -4.839119 0
M  V30 57 H -2.899397 -5.582920 -4.245111 0
M  V30 58 H -1.556600 -4.304013 -4.174770 0
M  V30 59 H 0.914728 -2.783699 0.873016 0
M  V30 END ATOM
M  V30 BEGIN BOND
M  V30 1 1 1 2
M  V30 2 1 2 3
M  V30 3 2 3 4
M  V30 4 1 4 5
M  V30 5 2 5 6
M  V30 6 1 6 7
M  V30 7 2 7 8
M  V30 8 1 7 9
M  V30 9 1 9 10
M  V30 10 2 10 11
M  V30 11 1 11 12
M  V30 12 2 12 13
M  V30 13 1 13 14
M  V30 14 2 14 15
M  V30 15 1 6 16
M  V30 16 2 16 17
M  V30 17 1 17 18
M  V30 18 2 18 19
M  V30 19 1 19 20
M  V30 20 2 20 21
M  V30 21 1 21 22
M  V30 22 1 22 23
M  V30 23 2 23 24
M  V30 24 1 23 25
M  V30 25 1 25 26
M  V30 26 1 26 27
M  V30 27 1 27 28
M  V30 28 1 28 29
M  V30 29 1 29 30
M  V30 30 1 30 31
M  V30 31 2 22 32
M  V30 32 1 17 3
M  V30 33 1 32 18
M  V30 34 1 15 10
M  V30 35 1 31 26
M  V30 36 1 1 33
M  V30 37 1 1 34
M  V30 38 1 2 35
M  V30 39 1 2 36
M  V30 40 1 4 37
M  V30 41 1 5 38
M  V30 42 1 9 39
M  V30 43 1 11 40
M  V30 44 1 12 41
M  V30 45 1 14 42
M  V30 46 1 15 43
M  V30 47 1 16 44
M  V30 48 1 19 45
M  V30 49 1 20 46
M  V30 50 1 21 47
M  V30 51 1 26 48
M  V30 52 1 27 49
M  V30 53 1 27 50
M  V30 54 1 28 51
M  V30 55 1 28 52
M  V30 56 1 29 53
M  V30 57 1 29 54
M  V30 58 1 30 55
M  V30 59 1 30 56
M  V30 60 1 31 57
M  V30 61 1 31 58
M  V30 62 1 32 59
M  V30 END BOND
M  V30 END CTAB
M  END
>  <Dataset>  (797) 
ChEMBL_Kinases

>  <Ligand_Instance>  (797) 
nan

>  <PDB_ID>  (797) 
nan

>  <Standardized_SMILES>  (797) 
NCc1ccc(C(=O)Nc2ccncc2)cc1-c1cccc(C(=O)OC2CCCCC2)c1

>  <Name>  (797) 
nan

>  <Pocket>  (797) 
nan

>  <ATP_Site>  (797) 
nan

>  <Peripheral>  (797) 
nan

>  <Num_H_Atoms_ProtBoundConf>  (797) 
nan

>  <Num_Resolved_Atoms>  (797) 
nan

>  <Num_Not_Resolved_Atoms>  (797) 
nan

$$$$
CHEMBL2440750
     RDKit          3D

  0  0  0  0  0  0  0  0  0  0999 V3000
M  V30 BEGIN CTAB
M  V30 COUNTS 52 54 0 0 0
M  V30 BEGIN ATOM
M  V30 1 C 2.409717 -4.667547 1.546468 0
M  V30 2 C 3.085036 -4.000048 2.701200 0
M  V30 3 C 4.169656 -3.033318 2.309061 0
M  V30 4 O 3.591727 -2.023122 1.503458 0
M  V30 5 C 4.329661 -0.968859 0.976998 0
M  V30 6 O 5.559467 -0.854635 1.190175 0
M  V30 7 C 3.653621 0.028946 0.155905 0
M  V30 8 C 4.442015 1.049803 -0.329700 0
M  V30 9 C 3.841420 2.020254 -1.115786 0
M  V30 10 C 2.496266 1.939087 -1.385376 0
M  V30 11 C 1.670007 0.943305 -0.926326 0
M  V30 12 C 0.280535 0.655885 -1.099099 0
M  V30 13 C -0.468424 0.544042 0.081145 0
M  V30 14 C -1.823335 0.293990 0.134956 0
M  V30 15 C -2.499168 0.198294 1.423453 0
M  V30 16 O -1.848857 0.343690 2.486491 0
M  V30 17 N -3.893859 -0.058922 1.491370 0
M  V30 18 C -4.736786 -0.189144 2.609678 0
M  V30 19 C -5.405735 0.858341 3.196406 0
M  V30 20 C -6.235206 0.683050 4.305809 0
M  V30 21 N -6.408406 -0.550747 4.847619 0
M  V30 22 C -5.757049 -1.581200 4.278982 0
M  V30 23 C -4.917967 -1.447513 3.167963 0
M  V30 24 F -4.318002 -2.566052 2.688395 0
M  V30 25 C -2.489605 0.142851 -1.057786 0
M  V30 26 C -1.799500 0.243287 -2.239101 0
M  V30 27 C -0.431786 0.496127 -2.264652 0
M  V30 28 C 0.273496 0.571633 -3.546942 0
M  V30 29 N 1.038360 -0.662362 -3.779388 0
M  V30 30 C 2.304254 -0.008389 -0.143969 0
M  V30 31 H 1.434156 -5.084270 1.931184 0
M  V30 32 H 2.961045 -5.550647 1.149634 0
M  V30 33 H 2.111059 -3.964210 0.744257 0
M  V30 34 H 3.476262 -4.809145 3.354803 0
M  V30 35 H 2.279254 -3.507361 3.300312 0
M  V30 36 H 4.938452 -3.582926 1.757698 0
M  V30 37 H 4.522561 -2.553035 3.241037 0
M  V30 38 H 5.501636 1.207810 -0.179241 0
M  V30 39 H 4.366254 2.874417 -1.554302 0
M  V30 40 H 2.001022 2.690097 -1.980672 0
M  V30 41 H 0.027806 0.658008 1.056477 0
M  V30 42 H -4.509336 -0.192775 0.660821 0
M  V30 43 H -5.286456 1.836526 2.791642 0
M  V30 44 H -6.776525 1.486776 4.790767 0
M  V30 45 H -5.904241 -2.558597 4.720693 0
M  V30 46 H -3.548853 -0.054199 -1.106675 0
M  V30 47 H -2.327690 0.123112 -3.186372 0
M  V30 48 H 0.907102 1.462800 -3.589460 0
M  V30 49 H -0.479192 0.578164 -4.380459 0
M  V30 50 H 0.417922 -1.391872 -4.214903 0
M  V30 51 H 1.321617 -1.083219 -2.848423 0
M  V30 52 H 1.818931 -0.882723 0.317464 0
M  V30 END ATOM
M  V30 BEGIN BOND
M  V30 1 1 1 2
M  V30 2 1 2 3
M  V30 3 1 3 4
M  V30 4 1 4 5
M  V30 5 2 5 6
M  V30 6 1 5 7
M  V30 7 2 7 8
M  V30 8 1 8 9
M  V30 9 2 9 10
M  V30 10 1 10 11
M  V30 11 1 11 12
M  V30 12 2 12 13
M  V30 13 1 13 14
M  V30 14 1 14 15
M  V30 15 2 15 16
M  V30 16 1 15 17
M  V30 17 1 17 18
M  V30 18 2 18 19
M  V30 19 1 19 20
M  V30 20 2 20 21
M  V30 21 1 21 22
M  V30 22 2 22 23
M  V30 23 1 23 24
M  V30 24 2 14 25
M  V30 25 1 25 26
M  V30 26 2 26 27
M  V30 27 1 27 28
M  V30 28 1 28 29
M  V30 29 2 11 30
M  V30 30 1 30 7
M  V30 31 1 27 12
M  V30 32 1 23 18
M  V30 33 1 1 31
M  V30 34 1 1 32
M  V30 35 1 1 33
M  V30 36 1 2 34
M  V30 37 1 2 35
M  V30 38 1 3 36
M  V30 39 1 3 37
M  V30 40 1 8 38
M  V30 41 1 9 39
M  V30 42 1 10 40
M  V30 43 1 13 41
M  V30 44 1 17 42
M  V30 45 1 19 43
M  V30 46 1 20 44
M  V30 47 1 22 45
M  V30 48 1 25 46
M  V30 49 1 26 47
M  V30 50 1 28 48
M  V30 51 1 28 49
M  V30 52 1 29 50
M  V30 53 1 29 51
M  V30 54 1 30 52
M  V30 END BOND
M  V30 END CTAB
M  END
>  <Dataset>  (798) 
ChEMBL_Kinases

>  <Ligand_Instance>  (798) 
nan

>  <PDB_ID>  (798) 
nan

>  <Standardized_SMILES>  (798) 
CCCOC(=O)c1cccc(-c2cc(C(=O)Nc3ccncc3F)ccc2CN)c1

>  <Name>  (798) 
nan

>  <Pocket>  (798) 
nan

>  <ATP_Site>  (798) 
nan

>  <Peripheral>  (798) 
nan

>  <Num_H_Atoms_ProtBoundConf>  (798) 
nan

>  <Num_Resolved_Atoms>  (798) 
nan

>  <Num_Not_Resolved_Atoms>  (798) 
nan

$$$$
CHEMBL2440749
     RDKit          3D

  0  0  0  0  0  0  0  0  0  0999 V3000
M  V30 BEGIN CTAB
M  V30 COUNTS 46 48 0 0 0
M  V30 BEGIN ATOM
M  V30 1 C -1.572094 -7.645622 1.692111 0
M  V30 2 O -1.763644 -6.320176 1.233386 0
M  V30 3 C -0.746377 -5.425527 1.052371 0
M  V30 4 O 0.401817 -5.874180 1.328742 0
M  V30 5 C -1.066781 -4.085973 0.575140 0
M  V30 6 C -2.324919 -3.599231 0.273644 0
M  V30 7 C -2.475803 -2.303732 -0.169962 0
M  V30 8 C -1.352007 -1.513907 -0.304030 0
M  V30 9 C -0.059293 -1.972255 -0.008122 0
M  V30 10 C 0.922523 -0.919881 -0.227441 0
M  V30 11 C 0.690174 0.283038 0.446921 0
M  V30 12 C 1.514320 1.379847 0.376322 0
M  V30 13 C 1.286372 2.642628 1.072286 0
M  V30 14 O 2.058035 3.616901 0.978119 0
M  V30 15 N 0.172549 2.891445 1.921370 0
M  V30 16 C 0.010688 4.145981 2.568634 0
M  V30 17 C 0.609490 4.217053 3.823321 0
M  V30 18 C 0.534056 5.385090 4.575456 0
M  V30 19 N -0.118187 6.469375 4.107077 0
M  V30 20 C -0.697797 6.406885 2.897475 0
M  V30 21 C -0.646379 5.277823 2.127536 0
M  V30 22 F -1.207989 5.138038 0.895075 0
M  V30 23 C 2.643175 1.289478 -0.409415 0
M  V30 24 C 2.887176 0.110891 -1.081269 0
M  V30 25 C 2.052280 -1.002541 -1.011363 0
M  V30 26 C 2.339288 -2.232954 -1.753674 0
M  V30 27 N 1.491409 -2.393460 -2.923209 0
M  V30 28 C 0.030330 -3.272758 0.430785 0
M  V30 29 H -2.337482 -7.826775 2.483344 0
M  V30 30 H -1.722023 -8.393497 0.907959 0
M  V30 31 H -0.550195 -7.749993 2.122723 0
M  V30 32 H -3.128081 -4.333609 0.424485 0
M  V30 33 H -3.479988 -1.977533 -0.390384 0
M  V30 34 H -1.611635 -0.505060 -0.665276 0
M  V30 35 H -0.178253 0.392390 1.068963 0
M  V30 36 H -0.542106 2.124904 2.068166 0
M  V30 37 H 1.149406 3.398686 4.273119 0
M  V30 38 H 0.999507 5.463701 5.568735 0
M  V30 39 H -1.228859 7.245077 2.480973 0
M  V30 40 H 3.364731 2.087850 -0.541059 0
M  V30 41 H 3.776904 0.013758 -1.711312 0
M  V30 42 H 3.378109 -2.109777 -2.197768 0
M  V30 43 H 2.437204 -3.150875 -1.151271 0
M  V30 44 H 0.907168 -1.560908 -3.059329 0
M  V30 45 H 0.995564 -3.297701 -2.935469 0
M  V30 46 H 1.045910 -3.559386 0.654014 0
M  V30 END ATOM
M  V30 BEGIN BOND
M  V30 1 1 1 2
M  V30 2 1 2 3
M  V30 3 2 3 4
M  V30 4 1 3 5
M  V30 5 2 5 6
M  V30 6 1 6 7
M  V30 7 2 7 8
M  V30 8 1 8 9
M  V30 9 1 9 10
M  V30 10 2 10 11
M  V30 11 1 11 12
M  V30 12 1 12 13
M  V30 13 2 13 14
M  V30 14 1 13 15
M  V30 15 1 15 16
M  V30 16 2 16 17
M  V30 17 1 17 18
M  V30 18 2 18 19
M  V30 19 1 19 20
M  V30 20 2 20 21
M  V30 21 1 21 22
M  V30 22 2 12 23
M  V30 23 1 23 24
M  V30 24 2 24 25
M  V30 25 1 25 26
M  V30 26 1 26 27
M  V30 27 2 9 28
M  V30 28 1 28 5
M  V30 29 1 25 10
M  V30 30 1 21 16
M  V30 31 1 1 29
M  V30 32 1 1 30
M  V30 33 1 1 31
M  V30 34 1 6 32
M  V30 35 1 7 33
M  V30 36 1 8 34
M  V30 37 1 11 35
M  V30 38 1 15 36
M  V30 39 1 17 37
M  V30 40 1 18 38
M  V30 41 1 20 39
M  V30 42 1 23 40
M  V30 43 1 24 41
M  V30 44 1 26 42
M  V30 45 1 26 43
M  V30 46 1 27 44
M  V30 47 1 27 45
M  V30 48 1 28 46
M  V30 END BOND
M  V30 END CTAB
M  END
>  <Dataset>  (799) 
ChEMBL_Kinases

>  <Ligand_Instance>  (799) 
nan

>  <PDB_ID>  (799) 
nan

>  <Standardized_SMILES>  (799) 
COC(=O)c1cccc(-c2cc(C(=O)Nc3ccncc3F)ccc2CN)c1

>  <Name>  (799) 
nan

>  <Pocket>  (799) 
nan

>  <ATP_Site>  (799) 
nan

>  <Peripheral>  (799) 
nan

>  <Num_H_Atoms_ProtBoundConf>  (799) 
nan

>  <Num_Resolved_Atoms>  (799) 
nan

>  <Num_Not_Resolved_Atoms>  (799) 
nan

$$$$
CHEMBL2440748
     RDKit          3D

  0  0  0  0  0  0  0  0  0  0999 V3000
M  V30 BEGIN CTAB
M  V30 COUNTS 61 63 0 0 0
M  V30 BEGIN ATOM
M  V30 1 C 3.883824 -2.889059 2.202291 0
M  V30 2 C 5.286659 -2.408601 2.491009 0
M  V30 3 C 5.326533 -0.946830 2.914066 0
M  V30 4 C 4.776818 -0.033074 1.849306 0
M  V30 5 C 4.840055 1.404724 2.318598 0
M  V30 6 C 4.302067 2.366083 1.291115 0
M  V30 7 O 2.950016 2.032629 1.036441 0
M  V30 8 C 2.169495 2.736952 0.131424 0
M  V30 9 O 2.662736 3.710157 -0.496046 0
M  V30 10 C 0.783818 2.424797 -0.153816 0
M  V30 11 C 0.076780 3.165093 -1.058118 0
M  V30 12 C -1.235987 2.800469 -1.269682 0
M  V30 13 C -1.775825 1.733291 -0.582374 0
M  V30 14 C -1.057799 0.965257 0.350127 0
M  V30 15 C -1.897805 -0.089159 0.882352 0
M  V30 16 C -2.469629 -0.953618 -0.061126 0
M  V30 17 C -3.283250 -2.011313 0.207407 0
M  V30 18 C -3.859621 -2.889296 -0.786926 0
M  V30 19 O -4.612118 -3.854271 -0.467775 0
M  V30 20 N -3.658078 -2.778233 -2.185552 0
M  V30 21 C -4.285486 -3.713825 -3.086030 0
M  V30 22 C -5.537317 -3.412136 -3.577849 0
M  V30 23 C -6.246097 -4.219247 -4.444029 0
M  V30 24 N -5.681592 -5.383573 -4.840130 0
M  V30 25 C -4.457366 -5.710087 -4.378052 0
M  V30 26 C -3.745006 -4.900429 -3.508480 0
M  V30 27 C -3.562474 -2.242669 1.527745 0
M  V30 28 C -3.025613 -1.422437 2.493169 0
M  V30 29 C -2.190245 -0.338561 2.200380 0
M  V30 30 C -1.653719 0.485274 3.280889 0
M  V30 31 N -0.300754 0.097279 3.591948 0
M  V30 32 C 0.243191 1.364165 0.527209 0
M  V30 33 H 3.894699 -3.360386 1.186096 0
M  V30 34 H 3.614226 -3.670326 2.953137 0
M  V30 35 H 3.163133 -2.066387 2.280916 0
M  V30 36 H 5.942135 -2.524937 1.580884 0
M  V30 37 H 5.747705 -3.033564 3.280867 0
M  V30 38 H 6.362381 -0.666681 3.122262 0
M  V30 39 H 4.722810 -0.839478 3.834885 0
M  V30 40 H 3.768823 -0.295783 1.495164 0
M  V30 41 H 5.445997 -0.160617 0.955607 0
M  V30 42 H 4.351634 1.493536 3.305710 0
M  V30 43 H 5.938813 1.641546 2.425233 0
M  V30 44 H 4.946031 2.219995 0.378460 0
M  V30 45 H 4.468792 3.397132 1.604679 0
M  V30 46 H 0.545324 3.991389 -1.569812 0
M  V30 47 H -1.772059 3.403010 -1.990449 0
M  V30 48 H -2.827394 1.581073 -0.869937 0
M  V30 49 H -2.262418 -0.791436 -1.132097 0
M  V30 50 H -3.051402 -2.012597 -2.550926 0
M  V30 51 H -6.031301 -2.478182 -3.282617 0
M  V30 52 H -7.229127 -3.921457 -4.793839 0
M  V30 53 H -3.924627 -6.633619 -4.646554 0
M  V30 54 H -2.757560 -5.148700 -3.126641 0
M  V30 55 H -4.188446 -3.040091 1.884902 0
M  V30 56 H -3.236890 -1.590073 3.558542 0
M  V30 57 H -1.737717 1.579337 3.076584 0
M  V30 58 H -2.250925 0.278490 4.191538 0
M  V30 59 H -0.150053 -0.109895 4.620504 0
M  V30 60 H -0.057576 -0.748435 3.035546 0
M  V30 61 H 0.770966 0.756771 1.227297 0
M  V30 END ATOM
M  V30 BEGIN BOND
M  V30 1 1 1 2
M  V30 2 1 2 3
M  V30 3 1 3 4
M  V30 4 1 4 5
M  V30 5 1 5 6
M  V30 6 1 6 7
M  V30 7 1 7 8
M  V30 8 2 8 9
M  V30 9 1 8 10
M  V30 10 2 10 11
M  V30 11 1 11 12
M  V30 12 2 12 13
M  V30 13 1 13 14
M  V30 14 1 14 15
M  V30 15 2 15 16
M  V30 16 1 16 17
M  V30 17 1 17 18
M  V30 18 2 18 19
M  V30 19 1 18 20
M  V30 20 1 20 21
M  V30 21 2 21 22
M  V30 22 1 22 23
M  V30 23 2 23 24
M  V30 24 1 24 25
M  V30 25 2 25 26
M  V30 26 2 17 27
M  V30 27 1 27 28
M  V30 28 2 28 29
M  V30 29 1 29 30
M  V30 30 1 30 31
M  V30 31 2 14 32
M  V30 32 1 32 10
M  V30 33 1 29 15
M  V30 34 1 26 21
M  V30 35 1 1 33
M  V30 36 1 1 34
M  V30 37 1 1 35
M  V30 38 1 2 36
M  V30 39 1 2 37
M  V30 40 1 3 38
M  V30 41 1 3 39
M  V30 42 1 4 40
M  V30 43 1 4 41
M  V30 44 1 5 42
M  V30 45 1 5 43
M  V30 46 1 6 44
M  V30 47 1 6 45
M  V30 48 1 11 46
M  V30 49 1 12 47
M  V30 50 1 13 48
M  V30 51 1 16 49
M  V30 52 1 20 50
M  V30 53 1 22 51
M  V30 54 1 23 52
M  V30 55 1 25 53
M  V30 56 1 26 54
M  V30 57 1 27 55
M  V30 58 1 28 56
M  V30 59 1 30 57
M  V30 60 1 30 58
M  V30 61 1 31 59
M  V30 62 1 31 60
M  V30 63 1 32 61
M  V30 END BOND
M  V30 END CTAB
M  END
>  <Dataset>  (800) 
ChEMBL_Kinases

>  <Ligand_Instance>  (800) 
nan

>  <PDB_ID>  (800) 
nan

>  <Standardized_SMILES>  (800) 
CCCCCCOC(=O)c1cccc(-c2cc(C(=O)Nc3ccncc3)ccc2CN)c1

>  <Name>  (800) 
nan

>  <Pocket>  (800) 
nan

>  <ATP_Site>  (800) 
nan

>  <Peripheral>  (800) 
nan

>  <Num_H_Atoms_ProtBoundConf>  (800) 
nan

>  <Num_Resolved_Atoms>  (800) 
nan

>  <Num_Not_Resolved_Atoms>  (800) 
nan

$$$$
CHEMBL2440747
     RDKit          3D

  0  0  0  0  0  0  0  0  0  0999 V3000
M  V30 BEGIN CTAB
M  V30 COUNTS 58 60 0 0 0
M  V30 BEGIN ATOM
M  V30 1 C 0.517308 -2.201405 3.207759 0
M  V30 2 C 1.698067 -1.665846 2.376567 0
M  V30 3 C 2.926871 -1.959470 3.167765 0
M  V30 4 C 4.215959 -1.552622 2.554966 0
M  V30 5 C 4.364164 -0.085944 2.264813 0
M  V30 6 O 3.361471 0.299040 1.351714 0
M  V30 7 C 3.221370 1.591189 0.866353 0
M  V30 8 O 4.034521 2.464381 1.263862 0
M  V30 9 C 2.188676 1.999568 -0.077873 0
M  V30 10 C 2.183061 3.318014 -0.480526 0
M  V30 11 C 1.223588 3.759953 -1.378373 0
M  V30 12 C 0.273871 2.894956 -1.873848 0
M  V30 13 C 0.243541 1.570638 -1.498648 0
M  V30 14 C -0.602748 0.449088 -1.866884 0
M  V30 15 C -1.256401 -0.177316 -0.822501 0
M  V30 16 C -2.117046 -1.244572 -1.022805 0
M  V30 17 C -2.835051 -1.935358 0.043722 0
M  V30 18 O -3.584892 -2.947660 -0.176671 0
M  V30 19 N -2.791791 -1.580210 1.413200 0
M  V30 20 C -3.623933 -2.489837 2.160324 0
M  V30 21 C -4.964178 -2.113487 2.306061 0
M  V30 22 C -5.762228 -2.995132 3.030045 0
M  V30 23 N -5.292024 -4.151772 3.569336 0
M  V30 24 C -3.987838 -4.451456 3.389082 0
M  V30 25 C -3.095829 -3.652178 2.687157 0
M  V30 26 C -2.326754 -1.695306 -2.310267 0
M  V30 27 C -1.696478 -1.101861 -3.384764 0
M  V30 28 C -0.851344 -0.044844 -3.124982 0
M  V30 29 C -0.167957 0.557246 -4.283994 0
M  V30 30 N 1.203667 0.085543 -4.293077 0
M  V30 31 C 1.227327 1.154211 -0.588688 0
M  V30 32 H -0.396076 -1.603713 2.998152 0
M  V30 33 H 0.399990 -3.264002 2.912084 0
M  V30 34 H 0.794715 -2.045131 4.263631 0
M  V30 35 H 1.481404 -0.568680 2.308615 0
M  V30 36 H 1.659416 -2.114979 1.377869 0
M  V30 37 H 2.782660 -1.493594 4.176873 0
M  V30 38 H 2.982627 -3.051733 3.373384 0
M  V30 39 H 5.037096 -1.941152 3.197632 0
M  V30 40 H 4.302308 -2.129668 1.584093 0
M  V30 41 H 5.392527 0.032496 1.816966 0
M  V30 42 H 4.310221 0.485249 3.219521 0
M  V30 43 H 2.870104 4.091362 -0.166835 0
M  V30 44 H 1.099316 4.752465 -1.776461 0
M  V30 45 H -0.516810 3.139707 -2.560372 0
M  V30 46 H -1.114703 0.152289 0.210097 0
M  V30 47 H -2.196676 -0.752704 1.675595 0
M  V30 48 H -5.379365 -1.215713 1.900740 0
M  V30 49 H -6.829136 -2.789186 3.199958 0
M  V30 50 H -3.579233 -5.370994 3.808208 0
M  V30 51 H -2.056686 -3.917043 2.558671 0
M  V30 52 H -2.994312 -2.526998 -2.491950 0
M  V30 53 H -1.856203 -1.448618 -4.388028 0
M  V30 54 H -0.112326 1.653265 -4.292853 0
M  V30 55 H -0.628316 0.268804 -5.250791 0
M  V30 56 H 1.714442 0.260071 -5.163513 0
M  V30 57 H 1.304064 -0.871426 -3.887204 0
M  V30 58 H 1.346591 0.134224 -0.185644 0
M  V30 END ATOM
M  V30 BEGIN BOND
M  V30 1 1 1 2
M  V30 2 1 2 3
M  V30 3 1 3 4
M  V30 4 1 4 5
M  V30 5 1 5 6
M  V30 6 1 6 7
M  V30 7 2 7 8
M  V30 8 1 7 9
M  V30 9 2 9 10
M  V30 10 1 10 11
M  V30 11 2 11 12
M  V30 12 1 12 13
M  V30 13 1 13 14
M  V30 14 2 14 15
M  V30 15 1 15 16
M  V30 16 1 16 17
M  V30 17 2 17 18
M  V30 18 1 17 19
M  V30 19 1 19 20
M  V30 20 2 20 21
M  V30 21 1 21 22
M  V30 22 2 22 23
M  V30 23 1 23 24
M  V30 24 2 24 25
M  V30 25 2 16 26
M  V30 26 1 26 27
M  V30 27 2 27 28
M  V30 28 1 28 29
M  V30 29 1 29 30
M  V30 30 2 13 31
M  V30 31 1 31 9
M  V30 32 1 28 14
M  V30 33 1 25 20
M  V30 34 1 1 32
M  V30 35 1 1 33
M  V30 36 1 1 34
M  V30 37 1 2 35
M  V30 38 1 2 36
M  V30 39 1 3 37
M  V30 40 1 3 38
M  V30 41 1 4 39
M  V30 42 1 4 40
M  V30 43 1 5 41
M  V30 44 1 5 42
M  V30 45 1 10 43
M  V30 46 1 11 44
M  V30 47 1 12 45
M  V30 48 1 15 46
M  V30 49 1 19 47
M  V30 50 1 21 48
M  V30 51 1 22 49
M  V30 52 1 24 50
M  V30 53 1 25 51
M  V30 54 1 26 52
M  V30 55 1 27 53
M  V30 56 1 29 54
M  V30 57 1 29 55
M  V30 58 1 30 56
M  V30 59 1 30 57
M  V30 60 1 31 58
M  V30 END BOND
M  V30 END CTAB
M  END
>  <Dataset>  (801) 
ChEMBL_Kinases

>  <Ligand_Instance>  (801) 
nan

>  <PDB_ID>  (801) 
nan

>  <Standardized_SMILES>  (801) 
CCCCCOC(=O)c1cccc(-c2cc(C(=O)Nc3ccncc3)ccc2CN)c1

>  <Name>  (801) 
nan

>  <Pocket>  (801) 
nan

>  <ATP_Site>  (801) 
nan

>  <Peripheral>  (801) 
nan

>  <Num_H_Atoms_ProtBoundConf>  (801) 
nan

>  <Num_Resolved_Atoms>  (801) 
nan

>  <Num_Not_Resolved_Atoms>  (801) 
nan

$$$$
CHEMBL2440746
     RDKit          3D

  0  0  0  0  0  0  0  0  0  0999 V3000
M  V30 BEGIN CTAB
M  V30 COUNTS 55 57 0 0 0
M  V30 BEGIN ATOM
M  V30 1 C -0.632038 -1.714091 4.536111 0
M  V30 2 C 0.667818 -1.022240 4.256005 0
M  V30 3 C 1.884953 -1.900640 4.495299 0
M  V30 4 C 3.112205 -1.038575 4.161681 0
M  V30 5 O 2.952729 -0.680182 2.808852 0
M  V30 6 C 3.801740 0.096592 2.069409 0
M  V30 7 O 4.816890 0.546391 2.604752 0
M  V30 8 C 3.491423 0.372574 0.681894 0
M  V30 9 C 4.397495 1.171765 0.020963 0
M  V30 10 C 4.145943 1.461668 -1.304275 0
M  V30 11 C 3.029085 0.966477 -1.934715 0
M  V30 12 C 2.106851 0.177741 -1.337785 0
M  V30 13 C 0.884694 -0.495688 -1.736054 0
M  V30 14 C -0.255459 -0.222614 -0.968745 0
M  V30 15 C -1.507766 -0.759211 -1.184433 0
M  V30 16 C -2.636120 -0.410012 -0.329887 0
M  V30 17 O -2.456042 0.403441 0.599965 0
M  V30 18 N -3.908506 -0.954343 -0.516813 0
M  V30 19 C -4.905471 -0.499953 0.415239 0
M  V30 20 C -5.768965 0.583542 0.324014 0
M  V30 21 C -6.633126 0.799286 1.367191 0
M  V30 22 N -6.686904 0.030304 2.454069 0
M  V30 23 C -5.856832 -1.022452 2.556454 0
M  V30 24 C -4.945276 -1.317639 1.544226 0
M  V30 25 C -1.616715 -1.630711 -2.246662 0
M  V30 26 C -0.516407 -1.921951 -3.022351 0
M  V30 27 C 0.741728 -1.369343 -2.788863 0
M  V30 28 C 1.860526 -1.735537 -3.674802 0
M  V30 29 N 2.165031 -0.771948 -4.698297 0
M  V30 30 C 2.386788 -0.102515 0.014077 0
M  V30 31 H -0.702332 -2.596370 3.882810 0
M  V30 32 H -0.751786 -1.972384 5.611497 0
M  V30 33 H -1.434201 -0.996760 4.228630 0
M  V30 34 H 0.795836 -0.100876 4.882635 0
M  V30 35 H 0.699916 -0.685861 3.220706 0
M  V30 36 H 1.922130 -2.257867 5.536044 0
M  V30 37 H 1.850512 -2.747550 3.789323 0
M  V30 38 H 3.119870 -0.205185 4.863100 0
M  V30 39 H 3.973598 -1.728350 4.317879 0
M  V30 40 H 5.305697 1.623096 0.389430 0
M  V30 41 H 4.775135 2.080295 -1.950787 0
M  V30 42 H 2.787022 1.179547 -2.959224 0
M  V30 43 H -0.185142 0.459574 -0.130735 0
M  V30 44 H -4.127195 -1.632300 -1.264248 0
M  V30 45 H -5.632829 1.120734 -0.586716 0
M  V30 46 H -7.275478 1.665419 1.220499 0
M  V30 47 H -5.938404 -1.626661 3.471654 0
M  V30 48 H -4.340690 -2.186542 1.752581 0
M  V30 49 H -2.564343 -2.094874 -2.483016 0
M  V30 50 H -0.649655 -2.610361 -3.844720 0
M  V30 51 H 2.780470 -1.991095 -3.092703 0
M  V30 52 H 1.593360 -2.674808 -4.199307 0
M  V30 53 H 2.625310 -1.201737 -5.508366 0
M  V30 54 H 1.428721 -0.078047 -4.892662 0
M  V30 55 H 1.769290 -0.722111 0.686424 0
M  V30 END ATOM
M  V30 BEGIN BOND
M  V30 1 1 1 2
M  V30 2 1 2 3
M  V30 3 1 3 4
M  V30 4 1 4 5
M  V30 5 1 5 6
M  V30 6 2 6 7
M  V30 7 1 6 8
M  V30 8 2 8 9
M  V30 9 1 9 10
M  V30 10 2 10 11
M  V30 11 1 11 12
M  V30 12 1 12 13
M  V30 13 2 13 14
M  V30 14 1 14 15
M  V30 15 1 15 16
M  V30 16 2 16 17
M  V30 17 1 16 18
M  V30 18 1 18 19
M  V30 19 2 19 20
M  V30 20 1 20 21
M  V30 21 2 21 22
M  V30 22 1 22 23
M  V30 23 2 23 24
M  V30 24 2 15 25
M  V30 25 1 25 26
M  V30 26 2 26 27
M  V30 27 1 27 28
M  V30 28 1 28 29
M  V30 29 2 12 30
M  V30 30 1 30 8
M  V30 31 1 27 13
M  V30 32 1 24 19
M  V30 33 1 1 31
M  V30 34 1 1 32
M  V30 35 1 1 33
M  V30 36 1 2 34
M  V30 37 1 2 35
M  V30 38 1 3 36
M  V30 39 1 3 37
M  V30 40 1 4 38
M  V30 41 1 4 39
M  V30 42 1 9 40
M  V30 43 1 10 41
M  V30 44 1 11 42
M  V30 45 1 14 43
M  V30 46 1 18 44
M  V30 47 1 20 45
M  V30 48 1 21 46
M  V30 49 1 23 47
M  V30 50 1 24 48
M  V30 51 1 25 49
M  V30 52 1 26 50
M  V30 53 1 28 51
M  V30 54 1 28 52
M  V30 55 1 29 53
M  V30 56 1 29 54
M  V30 57 1 30 55
M  V30 END BOND
M  V30 END CTAB
M  END
>  <Dataset>  (802) 
ChEMBL_Kinases

>  <Ligand_Instance>  (802) 
nan

>  <PDB_ID>  (802) 
nan

>  <Standardized_SMILES>  (802) 
CCCCOC(=O)c1cccc(-c2cc(C(=O)Nc3ccncc3)ccc2CN)c1

>  <Name>  (802) 
nan

>  <Pocket>  (802) 
nan

>  <ATP_Site>  (802) 
nan

>  <Peripheral>  (802) 
nan

>  <Num_H_Atoms_ProtBoundConf>  (802) 
nan

>  <Num_Resolved_Atoms>  (802) 
nan

>  <Num_Not_Resolved_Atoms>  (802) 
nan

$$$$
CHEMBL2440745
     RDKit          3D

  0  0  0  0  0  0  0  0  0  0999 V3000
M  V30 BEGIN CTAB
M  V30 COUNTS 52 54 0 0 0
M  V30 BEGIN ATOM
M  V30 1 C 2.571446 -6.167408 0.927047 0
M  V30 2 C 2.605720 -6.013161 2.431109 0
M  V30 3 C 3.573622 -4.922326 2.849690 0
M  V30 4 O 3.089325 -3.733994 2.231106 0
M  V30 5 C 3.667809 -2.494154 2.345776 0
M  V30 6 O 4.705627 -2.329850 3.035867 0
M  V30 7 C 3.132481 -1.307002 1.690753 0
M  V30 8 C 3.720499 -0.084490 1.819586 0
M  V30 9 C 3.153392 0.988472 1.166434 0
M  V30 10 C 2.011150 0.783259 0.405693 0
M  V30 11 C 1.372463 -0.457887 0.244693 0
M  V30 12 C 0.201875 -0.375563 -0.580382 0
M  V30 13 C -0.742221 0.545547 -0.130549 0
M  V30 14 C -1.949134 0.799364 -0.747096 0
M  V30 15 C -2.949537 1.754814 -0.297557 0
M  V30 16 O -4.037804 1.944015 -0.896728 0
M  V30 17 N -2.806923 2.571043 0.857483 0
M  V30 18 C -3.874323 3.462318 1.173469 0
M  V30 19 C -3.991383 4.763869 0.728755 0
M  V30 20 C -5.100537 5.495398 1.134652 0
M  V30 21 N -6.051808 4.990501 1.933757 0
M  V30 22 C -5.966227 3.743915 2.376420 0
M  V30 23 C -4.875834 2.953088 2.005886 0
M  V30 24 C -2.241353 0.088486 -1.892480 0
M  V30 25 C -1.323570 -0.825064 -2.353145 0
M  V30 26 C -0.120212 -1.067558 -1.725125 0
M  V30 27 C 0.824721 -2.058537 -2.265051 0
M  V30 28 N 0.752521 -3.307940 -1.577627 0
M  V30 29 C 2.002648 -1.464819 0.928394 0
M  V30 30 H 1.940125 -5.345600 0.531891 0
M  V30 31 H 3.576672 -6.040942 0.474487 0
M  V30 32 H 2.091878 -7.110027 0.616058 0
M  V30 33 H 1.572155 -5.783135 2.759317 0
M  V30 34 H 2.917220 -6.974178 2.851429 0
M  V30 35 H 3.571016 -4.752012 3.930872 0
M  V30 36 H 4.585002 -5.182645 2.520376 0
M  V30 37 H 4.603935 -0.024529 2.430791 0
M  V30 38 H 3.633334 1.941062 1.282954 0
M  V30 39 H 1.667017 1.702938 -0.053601 0
M  V30 40 H -0.593487 1.153715 0.770189 0
M  V30 41 H -1.945095 2.506685 1.440921 0
M  V30 42 H -3.193396 5.087794 0.098650 0
M  V30 43 H -5.147486 6.505790 0.761408 0
M  V30 44 H -6.711627 3.295820 3.023450 0
M  V30 45 H -4.823741 1.922637 2.383822 0
M  V30 46 H -3.158748 0.221098 -2.438472 0
M  V30 47 H -1.534077 -1.395749 -3.253406 0
M  V30 48 H 0.527662 -2.248684 -3.316199 0
M  V30 49 H 1.864749 -1.658703 -2.330077 0
M  V30 50 H -0.120357 -3.475715 -1.067750 0
M  V30 51 H 1.163950 -4.093290 -2.088915 0
M  V30 52 H 1.523207 -2.423211 0.834664 0
M  V30 END ATOM
M  V30 BEGIN BOND
M  V30 1 1 1 2
M  V30 2 1 2 3
M  V30 3 1 3 4
M  V30 4 1 4 5
M  V30 5 2 5 6
M  V30 6 1 5 7
M  V30 7 2 7 8
M  V30 8 1 8 9
M  V30 9 2 9 10
M  V30 10 1 10 11
M  V30 11 1 11 12
M  V30 12 2 12 13
M  V30 13 1 13 14
M  V30 14 1 14 15
M  V30 15 2 15 16
M  V30 16 1 15 17
M  V30 17 1 17 18
M  V30 18 2 18 19
M  V30 19 1 19 20
M  V30 20 2 20 21
M  V30 21 1 21 22
M  V30 22 2 22 23
M  V30 23 2 14 24
M  V30 24 1 24 25
M  V30 25 2 25 26
M  V30 26 1 26 27
M  V30 27 1 27 28
M  V30 28 2 11 29
M  V30 29 1 29 7
M  V30 30 1 26 12
M  V30 31 1 23 18
M  V30 32 1 1 30
M  V30 33 1 1 31
M  V30 34 1 1 32
M  V30 35 1 2 33
M  V30 36 1 2 34
M  V30 37 1 3 35
M  V30 38 1 3 36
M  V30 39 1 8 37
M  V30 40 1 9 38
M  V30 41 1 10 39
M  V30 42 1 13 40
M  V30 43 1 17 41
M  V30 44 1 19 42
M  V30 45 1 20 43
M  V30 46 1 22 44
M  V30 47 1 23 45
M  V30 48 1 24 46
M  V30 49 1 25 47
M  V30 50 1 27 48
M  V30 51 1 27 49
M  V30 52 1 28 50
M  V30 53 1 28 51
M  V30 54 1 29 52
M  V30 END BOND
M  V30 END CTAB
M  END
>  <Dataset>  (803) 
ChEMBL_Kinases

>  <Ligand_Instance>  (803) 
nan

>  <PDB_ID>  (803) 
nan

>  <Standardized_SMILES>  (803) 
CCCOC(=O)c1cccc(-c2cc(C(=O)Nc3ccncc3)ccc2CN)c1

>  <Name>  (803) 
nan

>  <Pocket>  (803) 
nan

>  <ATP_Site>  (803) 
nan

>  <Peripheral>  (803) 
nan

>  <Num_H_Atoms_ProtBoundConf>  (803) 
nan

>  <Num_Resolved_Atoms>  (803) 
nan

>  <Num_Not_Resolved_Atoms>  (803) 
nan

$$$$
CHEMBL2440743
     RDKit          3D

  0  0  0  0  0  0  0  0  0  0999 V3000
M  V30 BEGIN CTAB
M  V30 COUNTS 46 48 0 0 0
M  V30 BEGIN ATOM
M  V30 1 C 2.935867 -5.181790 1.874469 0
M  V30 2 O 2.306695 -4.212704 1.027631 0
M  V30 3 C 2.711260 -4.021940 -0.285499 0
M  V30 4 O 3.647645 -4.694707 -0.783740 0
M  V30 5 C 2.069386 -3.035324 -1.143189 0
M  V30 6 C 2.515398 -2.895158 -2.436447 0
M  V30 7 C 1.933141 -1.970624 -3.276094 0
M  V30 8 C 0.903014 -1.193700 -2.802111 0
M  V30 9 C 0.395206 -1.264359 -1.535826 0
M  V30 10 C -0.670026 -0.605945 -0.808846 0
M  V30 11 C -0.283896 0.019795 0.383788 0
M  V30 12 C -1.152211 0.695924 1.203595 0
M  V30 13 C -0.764289 1.352145 2.446168 0
M  V30 14 O -1.619367 1.969175 3.168985 0
M  V30 15 N 0.531964 1.405833 3.009105 0
M  V30 16 C 0.478398 2.144187 4.226151 0
M  V30 17 C 0.231215 1.497364 5.435735 0
M  V30 18 C 0.204804 2.335807 6.542854 0
M  V30 19 N 0.395412 3.664403 6.502750 0
M  V30 20 C 0.631148 4.250682 5.316084 0
M  V30 21 C 0.680979 3.512140 4.136408 0
M  V30 22 C -2.468752 0.760346 0.832224 0
M  V30 23 C -2.890812 0.170873 -0.312462 0
M  V30 24 C -2.003829 -0.503341 -1.122541 0
M  V30 25 C -2.524945 -1.114225 -2.350410 0
M  V30 26 N -2.242993 -0.233741 -3.463837 0
M  V30 27 C 1.023613 -2.220889 -0.722333 0
M  V30 28 H 3.368929 -4.584346 2.714094 0
M  V30 29 H 3.700849 -5.752266 1.338562 0
M  V30 30 H 2.181868 -5.847778 2.334306 0
M  V30 31 H 3.314054 -3.475119 -2.855773 0
M  V30 32 H 2.206081 -1.780155 -4.305262 0
M  V30 33 H 0.425675 -0.448645 -3.407048 0
M  V30 34 H 0.751727 -0.004358 0.720121 0
M  V30 35 H 1.299166 0.911533 2.461485 0
M  V30 36 H 0.074638 0.430204 5.496513 0
M  V30 37 H 0.016818 1.892258 7.513254 0
M  V30 38 H 0.796370 5.311920 5.185246 0
M  V30 39 H 0.869474 3.965652 3.169393 0
M  V30 40 H -3.180867 1.284541 1.452977 0
M  V30 41 H -3.925211 0.236126 -0.580533 0
M  V30 42 H -2.017246 -2.074613 -2.603105 0
M  V30 43 H -3.609669 -1.234609 -2.292236 0
M  V30 44 H -2.291247 -0.700686 -4.389539 0
M  V30 45 H -2.830295 0.626195 -3.455986 0
M  V30 46 H 0.763162 -2.432548 0.328821 0
M  V30 END ATOM
M  V30 BEGIN BOND
M  V30 1 1 1 2
M  V30 2 1 2 3
M  V30 3 2 3 4
M  V30 4 1 3 5
M  V30 5 2 5 6
M  V30 6 1 6 7
M  V30 7 2 7 8
M  V30 8 1 8 9
M  V30 9 1 9 10
M  V30 10 2 10 11
M  V30 11 1 11 12
M  V30 12 1 12 13
M  V30 13 2 13 14
M  V30 14 1 13 15
M  V30 15 1 15 16
M  V30 16 2 16 17
M  V30 17 1 17 18
M  V30 18 2 18 19
M  V30 19 1 19 20
M  V30 20 2 20 21
M  V30 21 2 12 22
M  V30 22 1 22 23
M  V30 23 2 23 24
M  V30 24 1 24 25
M  V30 25 1 25 26
M  V30 26 2 9 27
M  V30 27 1 27 5
M  V30 28 1 24 10
M  V30 29 1 21 16
M  V30 30 1 1 28
M  V30 31 1 1 29
M  V30 32 1 1 30
M  V30 33 1 6 31
M  V30 34 1 7 32
M  V30 35 1 8 33
M  V30 36 1 11 34
M  V30 37 1 15 35
M  V30 38 1 17 36
M  V30 39 1 18 37
M  V30 40 1 20 38
M  V30 41 1 21 39
M  V30 42 1 22 40
M  V30 43 1 23 41
M  V30 44 1 25 42
M  V30 45 1 25 43
M  V30 46 1 26 44
M  V30 47 1 26 45
M  V30 48 1 27 46
M  V30 END BOND
M  V30 END CTAB
M  END
>  <Dataset>  (804) 
ChEMBL_Kinases

>  <Ligand_Instance>  (804) 
nan

>  <PDB_ID>  (804) 
nan

>  <Standardized_SMILES>  (804) 
COC(=O)c1cccc(-c2cc(C(=O)Nc3ccncc3)ccc2CN)c1

>  <Name>  (804) 
nan

>  <Pocket>  (804) 
nan

>  <ATP_Site>  (804) 
nan

>  <Peripheral>  (804) 
nan

>  <Num_H_Atoms_ProtBoundConf>  (804) 
nan

>  <Num_Resolved_Atoms>  (804) 
nan

>  <Num_Not_Resolved_Atoms>  (804) 
nan

$$$$
CHEMBL2440742
     RDKit          3D

  0  0  0  0  0  0  0  0  0  0999 V3000
M  V30 BEGIN CTAB
M  V30 COUNTS 43 45 0 0 0
M  V30 BEGIN ATOM
M  V30 1 C 0.750127 -4.909805 0.241874 0
M  V30 2 C 0.294665 -3.786203 -0.649125 0
M  V30 3 N -1.105140 -3.909242 -1.046807 0
M  V30 4 C 0.620773 -2.444770 -0.167976 0
M  V30 5 C 1.878505 -1.942315 -0.416308 0
M  V30 6 C 2.230456 -0.701818 0.008411 0
M  V30 7 C 1.357772 0.082144 0.689608 0
M  V30 8 C 1.660627 1.422284 1.177552 0
M  V30 9 O 0.810487 2.102484 1.803668 0
M  V30 10 N 2.935058 2.001387 0.957278 0
M  V30 11 C 3.040131 3.328952 1.514141 0
M  V30 12 C 3.484830 3.439835 2.816207 0
M  V30 13 C 3.606750 4.698979 3.408523 0
M  V30 14 N 3.282742 5.808915 2.687889 0
M  V30 15 C 2.847753 5.700851 1.414330 0
M  V30 16 C 2.709576 4.474233 0.781424 0
M  V30 17 C 0.109806 -0.457924 0.917388 0
M  V30 18 C -0.325277 -1.726593 0.511408 0
M  V30 19 C -1.683966 -2.113094 0.856121 0
M  V30 20 C -2.597151 -1.113153 0.488433 0
M  V30 21 C -3.953453 -1.221577 0.709434 0
M  V30 22 C -4.477248 -2.342354 1.314144 0
M  V30 23 F -5.772470 -2.595274 1.596920 0
M  V30 24 C -3.576490 -3.319446 1.672580 0
M  V30 25 C -2.220666 -3.227806 1.459897 0
M  V30 26 H -0.155797 -5.539738 0.465527 0
M  V30 27 H 1.468481 -5.605298 -0.233436 0
M  V30 28 H 1.252333 -4.542247 1.159827 0
M  V30 29 H 0.857684 -3.935488 -1.619251 0
M  V30 30 H -1.356762 -4.894716 -1.258534 0
M  V30 31 H -1.210627 -3.368814 -1.934017 0
M  V30 32 H 2.595484 -2.560663 -0.964411 0
M  V30 33 H 3.222589 -0.346165 -0.205750 0
M  V30 34 H 3.706687 1.517485 0.448956 0
M  V30 35 H 3.757978 2.587208 3.439613 0
M  V30 36 H 3.957829 4.768528 4.433020 0
M  V30 37 H 2.596264 6.592167 0.860702 0
M  V30 38 H 2.366147 4.343539 -0.232749 0
M  V30 39 H -0.604530 0.173818 1.470484 0
M  V30 40 H -2.338829 -0.161582 -0.001788 0
M  V30 41 H -4.672737 -0.462160 0.433388 0
M  V30 42 H -3.891864 -4.251888 2.160712 0
M  V30 43 H -1.483560 -3.942059 1.719479 0
M  V30 END ATOM
M  V30 BEGIN BOND
M  V30 1 1 1 2
M  V30 2 1 2 3
M  V30 3 1 2 4
M  V30 4 2 4 5
M  V30 5 1 5 6
M  V30 6 2 6 7
M  V30 7 1 7 8
M  V30 8 2 8 9
M  V30 9 1 8 10
M  V30 10 1 10 11
M  V30 11 2 11 12
M  V30 12 1 12 13
M  V30 13 2 13 14
M  V30 14 1 14 15
M  V30 15 2 15 16
M  V30 16 1 7 17
M  V30 17 2 17 18
M  V30 18 1 18 19
M  V30 19 2 19 20
M  V30 20 1 20 21
M  V30 21 2 21 22
M  V30 22 1 22 23
M  V30 23 1 22 24
M  V30 24 2 24 25
M  V30 25 1 18 4
M  V30 26 1 25 19
M  V30 27 1 16 11
M  V30 28 1 1 26
M  V30 29 1 1 27
M  V30 30 1 1 28
M  V30 31 1 2 29
M  V30 32 1 3 30
M  V30 33 1 3 31
M  V30 34 1 5 32
M  V30 35 1 6 33
M  V30 36 1 10 34
M  V30 37 1 12 35
M  V30 38 1 13 36
M  V30 39 1 15 37
M  V30 40 1 16 38
M  V30 41 1 17 39
M  V30 42 1 20 40
M  V30 43 1 21 41
M  V30 44 1 24 42
M  V30 45 1 25 43
M  V30 END BOND
M  V30 END CTAB
M  END
>  <Dataset>  (805) 
ChEMBL_Kinases

>  <Ligand_Instance>  (805) 
nan

>  <PDB_ID>  (805) 
nan

>  <Standardized_SMILES>  (805) 
CC(N)c1ccc(C(=O)Nc2ccncc2)cc1-c1ccc(F)cc1

>  <Name>  (805) 
nan

>  <Pocket>  (805) 
nan

>  <ATP_Site>  (805) 
nan

>  <Peripheral>  (805) 
nan

>  <Num_H_Atoms_ProtBoundConf>  (805) 
nan

>  <Num_Resolved_Atoms>  (805) 
nan

>  <Num_Not_Resolved_Atoms>  (805) 
nan

$$$$
CHEMBL2440741
     RDKit          3D

  0  0  0  0  0  0  0  0  0  0999 V3000
M  V30 BEGIN CTAB
M  V30 COUNTS 46 48 0 0 0
M  V30 BEGIN ATOM
M  V30 1 C 1.696465 -7.151014 3.436477 0
M  V30 2 O 1.616723 -5.810365 2.935616 0
M  V30 3 C 1.526635 -5.522713 1.602507 0
M  V30 4 O 1.515922 -6.499233 0.811930 0
M  V30 5 C 1.442664 -4.187121 1.024962 0
M  V30 6 C 1.356484 -4.070574 -0.345201 0
M  V30 7 C 1.274510 -2.829687 -0.938867 0
M  V30 8 C 1.274192 -1.674382 -0.228606 0
M  V30 9 C 1.216773 -0.274186 -0.616711 0
M  V30 10 C 0.209112 0.463542 -0.023935 0
M  V30 11 C -0.031289 1.800881 -0.267767 0
M  V30 12 C -1.060734 2.657209 0.304834 0
M  V30 13 O -1.163213 3.884768 -0.037707 0
M  V30 14 N -2.010748 2.241309 1.255429 0
M  V30 15 C -3.070159 2.900951 1.920651 0
M  V30 16 C -3.849383 2.212069 2.828970 0
M  V30 17 C -4.880331 2.845607 3.477464 0
M  V30 18 N -5.190042 4.133389 3.279097 0
M  V30 19 C -4.455951 4.857623 2.396281 0
M  V30 20 C -3.428401 4.216067 1.753705 0
M  V30 21 C 0.835130 2.404852 -1.188390 0
M  V30 22 C 1.844874 1.683591 -1.787829 0
M  V30 23 C 2.054149 0.346466 -1.517706 0
M  V30 24 C 3.158687 -0.406482 -2.161604 0
M  V30 25 N 4.276833 -0.627084 -1.253234 0
M  V30 26 C 1.362755 -1.824703 1.162928 0
M  V30 27 C 1.447648 -3.038746 1.825767 0
M  V30 28 H 2.724119 -7.385555 3.758031 0
M  V30 29 H 1.063643 -7.161248 4.361879 0
M  V30 30 H 1.269189 -7.874506 2.730436 0
M  V30 31 H 1.348971 -4.919662 -1.001082 0
M  V30 32 H 1.193773 -2.709053 -1.988541 0
M  V30 33 H -0.467785 0.014567 0.687965 0
M  V30 34 H -1.872772 1.214235 1.499800 0
M  V30 35 H -3.647064 1.161704 3.033589 0
M  V30 36 H -5.458762 2.237701 4.186380 0
M  V30 37 H -4.707606 5.887745 2.241665 0
M  V30 38 H -2.894556 4.834288 1.078411 0
M  V30 39 H 0.718351 3.453480 -1.439449 0
M  V30 40 H 2.486943 2.196116 -2.491405 0
M  V30 41 H 3.600091 0.280534 -2.951129 0
M  V30 42 H 2.875724 -1.294994 -2.711048 0
M  V30 43 H 4.470428 -1.608977 -1.041524 0
M  V30 44 H 4.326766 0.042542 -0.479119 0
M  V30 45 H 1.374188 -0.993727 1.874408 0
M  V30 46 H 1.515353 -3.153695 2.889571 0
M  V30 END ATOM
M  V30 BEGIN BOND
M  V30 1 1 1 2
M  V30 2 1 2 3
M  V30 3 2 3 4
M  V30 4 1 3 5
M  V30 5 2 5 6
M  V30 6 1 6 7
M  V30 7 2 7 8
M  V30 8 1 8 9
M  V30 9 2 9 10
M  V30 10 1 10 11
M  V30 11 1 11 12
M  V30 12 2 12 13
M  V30 13 1 12 14
M  V30 14 1 14 15
M  V30 15 2 15 16
M  V30 16 1 16 17
M  V30 17 2 17 18
M  V30 18 1 18 19
M  V30 19 2 19 20
M  V30 20 2 11 21
M  V30 21 1 21 22
M  V30 22 2 22 23
M  V30 23 1 23 24
M  V30 24 1 24 25
M  V30 25 1 8 26
M  V30 26 2 26 27
M  V30 27 1 27 5
M  V30 28 1 23 9
M  V30 29 1 20 15
M  V30 30 1 1 28
M  V30 31 1 1 29
M  V30 32 1 1 30
M  V30 33 1 6 31
M  V30 34 1 7 32
M  V30 35 1 10 33
M  V30 36 1 14 34
M  V30 37 1 16 35
M  V30 38 1 17 36
M  V30 39 1 19 37
M  V30 40 1 20 38
M  V30 41 1 21 39
M  V30 42 1 22 40
M  V30 43 1 24 41
M  V30 44 1 24 42
M  V30 45 1 25 43
M  V30 46 1 25 44
M  V30 47 1 26 45
M  V30 48 1 27 46
M  V30 END BOND
M  V30 END CTAB
M  END
>  <Dataset>  (806) 
ChEMBL_Kinases

>  <Ligand_Instance>  (806) 
nan

>  <PDB_ID>  (806) 
nan

>  <Standardized_SMILES>  (806) 
COC(=O)c1ccc(-c2cc(C(=O)Nc3ccncc3)ccc2CN)cc1

>  <Name>  (806) 
nan

>  <Pocket>  (806) 
nan

>  <ATP_Site>  (806) 
nan

>  <Peripheral>  (806) 
nan

>  <Num_H_Atoms_ProtBoundConf>  (806) 
nan

>  <Num_Resolved_Atoms>  (806) 
nan

>  <Num_Not_Resolved_Atoms>  (806) 
nan

$$$$
CHEMBL2440740
     RDKit          3D

  0  0  0  0  0  0  0  0  0  0999 V3000
M  V30 BEGIN CTAB
M  V30 COUNTS 43 45 0 0 0
M  V30 BEGIN ATOM
M  V30 1 N 0.453435 -3.728082 4.317874 0
M  V30 2 C -0.174261 -3.344366 3.037628 0
M  V30 3 C 0.316142 -2.035365 2.597894 0
M  V30 4 C 1.052083 -1.273183 3.476180 0
M  V30 5 C 1.528520 -0.034221 3.089697 0
M  V30 6 C 1.252918 0.417350 1.816031 0
M  V30 7 C 1.773339 1.726478 1.444638 0
M  V30 8 O 2.446282 2.362432 2.293527 0
M  V30 9 N 1.588747 2.365099 0.190078 0
M  V30 10 C 2.239421 3.637762 0.179976 0
M  V30 11 C 3.552117 3.478137 -0.275001 0
M  V30 12 C 4.404132 4.579279 -0.379731 0
M  V30 13 N 3.914469 5.789371 -0.028021 0
M  V30 14 C 2.667424 5.954382 0.406565 0
M  V30 15 C 1.807754 4.885737 0.518986 0
M  V30 16 F 0.512021 4.874575 0.941105 0
M  V30 17 C 0.512463 -0.371797 0.960850 0
M  V30 18 C 0.013418 -1.630856 1.316602 0
M  V30 19 C -0.754706 -2.362606 0.321950 0
M  V30 20 C -0.090463 -2.392125 -0.914980 0
M  V30 21 C -0.610232 -3.019149 -2.026351 0
M  V30 22 C -1.834474 -3.653059 -1.949094 0
M  V30 23 C -2.469814 -3.617980 -0.744549 0
M  V30 24 C -3.777940 -4.247045 -0.503256 0
M  V30 25 O -4.482543 -4.297189 0.542354 0
M  V30 26 O -4.431851 -4.922625 -1.526399 0
M  V30 27 C -1.957491 -2.993943 0.369363 0
M  V30 28 H 0.174521 -4.726603 4.466401 0
M  V30 29 H 0.007891 -3.190838 5.106225 0
M  V30 30 H -0.012540 -4.171817 2.351080 0
M  V30 31 H -1.255512 -3.203154 3.344554 0
M  V30 32 H 1.249603 -1.663439 4.472846 0
M  V30 33 H 2.103906 0.521107 3.829008 0
M  V30 34 H 1.030866 1.849136 -0.525910 0
M  V30 35 H 4.053318 2.558740 -0.584254 0
M  V30 36 H 5.424819 4.536257 -0.721553 0
M  V30 37 H 2.226437 6.903529 0.701147 0
M  V30 38 H 0.305516 0.005153 -0.044995 0
M  V30 39 H 0.882932 -1.931400 -1.116577 0
M  V30 40 H -0.112380 -3.052177 -2.985560 0
M  V30 41 H -2.281622 -4.154584 -2.783477 0
M  V30 42 H -4.845329 -5.861236 -1.411016 0
M  V30 43 H -2.428371 -2.945067 1.316957 0
M  V30 END ATOM
M  V30 BEGIN BOND
M  V30 1 1 1 2
M  V30 2 1 2 3
M  V30 3 2 3 4
M  V30 4 1 4 5
M  V30 5 2 5 6
M  V30 6 1 6 7
M  V30 7 2 7 8
M  V30 8 1 7 9
M  V30 9 1 9 10
M  V30 10 2 10 11
M  V30 11 1 11 12
M  V30 12 2 12 13
M  V30 13 1 13 14
M  V30 14 2 14 15
M  V30 15 1 15 16
M  V30 16 1 6 17
M  V30 17 2 17 18
M  V30 18 1 18 19
M  V30 19 2 19 20
M  V30 20 1 20 21
M  V30 21 2 21 22
M  V30 22 1 22 23
M  V30 23 1 23 24
M  V30 24 2 24 25
M  V30 25 1 24 26
M  V30 26 2 23 27
M  V30 27 1 18 3
M  V30 28 1 27 19
M  V30 29 1 15 10
M  V30 30 1 1 28
M  V30 31 1 1 29
M  V30 32 1 2 30
M  V30 33 1 2 31
M  V30 34 1 4 32
M  V30 35 1 5 33
M  V30 36 1 9 34
M  V30 37 1 11 35
M  V30 38 1 12 36
M  V30 39 1 14 37
M  V30 40 1 17 38
M  V30 41 1 20 39
M  V30 42 1 21 40
M  V30 43 1 22 41
M  V30 44 1 26 42
M  V30 45 1 27 43
M  V30 END BOND
M  V30 END CTAB
M  END
>  <Dataset>  (807) 
ChEMBL_Kinases

>  <Ligand_Instance>  (807) 
nan

>  <PDB_ID>  (807) 
nan

>  <Standardized_SMILES>  (807) 
NCc1ccc(C(=O)Nc2ccncc2F)cc1-c1cccc(C(=O)O)c1

>  <Name>  (807) 
nan

>  <Pocket>  (807) 
nan

>  <ATP_Site>  (807) 
nan

>  <Peripheral>  (807) 
nan

>  <Num_H_Atoms_ProtBoundConf>  (807) 
nan

>  <Num_Resolved_Atoms>  (807) 
nan

>  <Num_Not_Resolved_Atoms>  (807) 
nan

$$$$
CHEMBL2440739
     RDKit          3D

  0  0  0  0  0  0  0  0  0  0999 V3000
M  V30 BEGIN CTAB
M  V30 COUNTS 43 45 0 0 0
M  V30 BEGIN ATOM
M  V30 1 N -0.955264 -1.909760 4.687296 0
M  V30 2 C 0.290288 -2.489515 4.153407 0
M  V30 3 C 0.811146 -1.468829 3.215934 0
M  V30 4 C 1.863781 -0.687342 3.645152 0
M  V30 5 C 2.358098 0.292769 2.809125 0
M  V30 6 C 1.820158 0.502388 1.559276 0
M  V30 7 C 2.393747 1.546625 0.748155 0
M  V30 8 O 3.349922 2.212091 1.200465 0
M  V30 9 N 1.893984 1.832224 -0.551051 0
M  V30 10 C 2.269062 2.781966 -1.530083 0
M  V30 11 C 1.746097 4.046905 -1.616173 0
M  V30 12 C 2.129967 4.956302 -2.586205 0
M  V30 13 N 3.047530 4.534803 -3.445805 0
M  V30 14 C 3.610082 3.335691 -3.444020 0
M  V30 15 C 3.219363 2.435544 -2.471040 0
M  V30 16 C 0.781295 -0.318043 1.217756 0
M  V30 17 C 0.220315 -1.323455 1.984286 0
M  V30 18 C -0.865565 -2.098732 1.419136 0
M  V30 19 C -1.895896 -1.230028 1.032416 0
M  V30 20 C -3.068506 -1.709237 0.436890 0
M  V30 21 C -3.250241 -3.057288 0.209591 0
M  V30 22 C -2.224982 -3.888071 0.597526 0
M  V30 23 C -2.347685 -5.323770 0.388277 0
M  V30 24 O -3.406653 -5.730813 -0.146812 0
M  V30 25 O -1.359913 -6.227379 0.751286 0
M  V30 26 C -1.065005 -3.439000 1.183603 0
M  V30 27 H -0.729854 -1.294280 5.498222 0
M  V30 28 H -1.609561 -2.645937 5.033119 0
M  V30 29 H 0.013125 -3.434328 3.707341 0
M  V30 30 H 0.942491 -2.600142 5.047631 0
M  V30 31 H 2.288221 -0.854591 4.634659 0
M  V30 32 H 3.192597 0.892576 3.182181 0
M  V30 33 H 1.099606 1.314755 -0.984431 0
M  V30 34 H 1.006684 4.331590 -0.892174 0
M  V30 35 H 1.732955 5.955789 -2.673382 0
M  V30 36 H 4.350070 3.014022 -4.147823 0
M  V30 37 H 3.673387 1.446120 -2.457602 0
M  V30 38 H 0.356108 -0.144831 0.216206 0
M  V30 39 H -1.933523 -0.150802 1.129440 0
M  V30 40 H -3.890480 -1.081050 0.121549 0
M  V30 41 H -4.146655 -3.439167 -0.247436 0
M  V30 42 H -1.513046 -7.229789 0.778442 0
M  V30 43 H -0.222284 -4.035361 1.494460 0
M  V30 END ATOM
M  V30 BEGIN BOND
M  V30 1 1 1 2
M  V30 2 1 2 3
M  V30 3 2 3 4
M  V30 4 1 4 5
M  V30 5 2 5 6
M  V30 6 1 6 7
M  V30 7 2 7 8
M  V30 8 1 7 9
M  V30 9 1 9 10
M  V30 10 2 10 11
M  V30 11 1 11 12
M  V30 12 2 12 13
M  V30 13 1 13 14
M  V30 14 2 14 15
M  V30 15 1 6 16
M  V30 16 2 16 17
M  V30 17 1 17 18
M  V30 18 2 18 19
M  V30 19 1 19 20
M  V30 20 2 20 21
M  V30 21 1 21 22
M  V30 22 1 22 23
M  V30 23 2 23 24
M  V30 24 1 23 25
M  V30 25 2 22 26
M  V30 26 1 17 3
M  V30 27 1 26 18
M  V30 28 1 15 10
M  V30 29 1 1 27
M  V30 30 1 1 28
M  V30 31 1 2 29
M  V30 32 1 2 30
M  V30 33 1 4 31
M  V30 34 1 5 32
M  V30 35 1 9 33
M  V30 36 1 11 34
M  V30 37 1 12 35
M  V30 38 1 14 36
M  V30 39 1 15 37
M  V30 40 1 16 38
M  V30 41 1 19 39
M  V30 42 1 20 40
M  V30 43 1 21 41
M  V30 44 1 25 42
M  V30 45 1 26 43
M  V30 END BOND
M  V30 END CTAB
M  END
>  <Dataset>  (808) 
ChEMBL_Kinases

>  <Ligand_Instance>  (808) 
nan

>  <PDB_ID>  (808) 
nan

>  <Standardized_SMILES>  (808) 
NCc1ccc(C(=O)Nc2ccncc2)cc1-c1cccc(C(=O)O)c1

>  <Name>  (808) 
nan

>  <Pocket>  (808) 
nan

>  <ATP_Site>  (808) 
nan

>  <Peripheral>  (808) 
nan

>  <Num_H_Atoms_ProtBoundConf>  (808) 
nan

>  <Num_Resolved_Atoms>  (808) 
nan

>  <Num_Not_Resolved_Atoms>  (808) 
nan

$$$$
CHEMBL2440738
     RDKit          3D

  0  0  0  0  0  0  0  0  0  0999 V3000
M  V30 BEGIN CTAB
M  V30 COUNTS 60 63 0 0 0
M  V30 BEGIN ATOM
M  V30 1 N -0.154490 -3.059344 5.524215 0
M  V30 2 C -0.789883 -1.793632 5.849543 0
M  V30 3 C -0.173074 -0.717493 5.066542 0
M  V30 4 C 0.729902 0.197431 5.622067 0
M  V30 5 C 1.318697 1.207575 4.857602 0
M  V30 6 C 1.018516 1.320002 3.538620 0
M  V30 7 C 1.676135 2.397185 2.818317 0
M  V30 8 O 2.485546 3.136339 3.430532 0
M  V30 9 N 1.401120 2.603711 1.442243 0
M  V30 10 C 1.817625 3.501038 0.436008 0
M  V30 11 C 1.132799 4.695782 0.232949 0
M  V30 12 C 1.535373 5.574977 -0.750546 0
M  V30 13 N 2.587855 5.301287 -1.528113 0
M  V30 14 C 3.285221 4.176720 -1.385524 0
M  V30 15 C 2.887558 3.296924 -0.406050 0
M  V30 16 F 3.581072 2.140239 -0.238139 0
M  V30 17 C 0.131514 0.413991 3.013377 0
M  V30 18 C -0.486008 -0.613426 3.728703 0
M  V30 19 C -1.405634 -1.439894 2.959647 0
M  V30 20 C -2.726815 -1.787772 3.134808 0
M  V30 21 C -3.361974 -2.621371 2.245662 0
M  V30 22 C -2.718955 -3.147335 1.143833 0
M  V30 23 C -1.402475 -2.825111 0.932904 0
M  V30 24 C -0.711621 -3.377194 -0.233854 0
M  V30 25 O 0.497125 -3.086888 -0.419815 0
M  V30 26 O -1.359880 -4.191557 -1.107254 0
M  V30 27 C -0.848335 -4.802041 -2.273145 0
M  V30 28 C -0.410114 -3.695635 -3.200283 0
M  V30 29 C -1.508529 -2.690502 -3.384867 0
M  V30 30 C -1.265588 -1.726634 -4.504705 0
M  V30 31 C -0.527859 -2.328564 -5.668492 0
M  V30 32 C 0.652137 -3.100712 -5.126379 0
M  V30 33 O 0.107861 -4.170549 -4.398085 0
M  V30 34 C -0.773379 -1.987523 1.831412 0
M  V30 35 H -0.277229 -3.774722 6.259280 0
M  V30 36 H 0.828575 -2.932176 5.213018 0
M  V30 37 H -1.869145 -1.851950 5.858908 0
M  V30 38 H -0.495061 -1.601329 6.920281 0
M  V30 39 H 0.958189 0.091447 6.681660 0
M  V30 40 H 1.999979 1.857662 5.386086 0
M  V30 41 H 0.744163 2.034877 0.867754 0
M  V30 42 H 0.260339 4.982448 0.835453 0
M  V30 43 H 1.021169 6.508675 -0.928041 0
M  V30 44 H 4.130390 3.941812 -1.999577 0
M  V30 45 H -0.085462 0.538994 1.941200 0
M  V30 46 H -3.158902 -1.335939 3.997373 0
M  V30 47 H -4.401829 -2.810650 2.507485 0
M  V30 48 H -3.309277 -3.800105 0.495966 0
M  V30 49 H -1.573358 -5.475988 -2.747267 0
M  V30 50 H 0.037304 -5.452286 -2.039186 0
M  V30 51 H 0.432951 -3.167750 -2.711234 0
M  V30 52 H -2.461718 -3.216584 -3.605748 0
M  V30 53 H -1.675168 -2.129831 -2.441630 0
M  V30 54 H -2.205590 -1.277990 -4.874500 0
M  V30 55 H -0.635392 -0.896573 -4.124055 0
M  V30 56 H -1.169958 -3.037625 -6.215743 0
M  V30 57 H -0.189737 -1.511356 -6.359851 0
M  V30 58 H 1.286529 -2.474773 -4.453531 0
M  V30 59 H 1.262480 -3.557608 -5.948044 0
M  V30 60 H 0.280986 -1.795669 1.565079 0
M  V30 END ATOM
M  V30 BEGIN BOND
M  V30 1 1 1 2
M  V30 2 1 2 3
M  V30 3 2 3 4
M  V30 4 1 4 5
M  V30 5 2 5 6
M  V30 6 1 6 7
M  V30 7 2 7 8
M  V30 8 1 7 9
M  V30 9 1 9 10
M  V30 10 2 10 11
M  V30 11 1 11 12
M  V30 12 2 12 13
M  V30 13 1 13 14
M  V30 14 2 14 15
M  V30 15 1 15 16
M  V30 16 1 6 17
M  V30 17 2 17 18
M  V30 18 1 18 19
M  V30 19 2 19 20
M  V30 20 1 20 21
M  V30 21 2 21 22
M  V30 22 1 22 23
M  V30 23 1 23 24
M  V30 24 2 24 25
M  V30 25 1 24 26
M  V30 26 1 26 27
M  V30 27 1 27 28
M  V30 28 1 28 29
M  V30 29 1 29 30
M  V30 30 1 30 31
M  V30 31 1 31 32
M  V30 32 1 32 33
M  V30 33 2 23 34
M  V30 34 1 18 3
M  V30 35 1 34 19
M  V30 36 1 15 10
M  V30 37 1 33 28
M  V30 38 1 1 35
M  V30 39 1 1 36
M  V30 40 1 2 37
M  V30 41 1 2 38
M  V30 42 1 4 39
M  V30 43 1 5 40
M  V30 44 1 9 41
M  V30 45 1 11 42
M  V30 46 1 12 43
M  V30 47 1 14 44
M  V30 48 1 17 45
M  V30 49 1 20 46
M  V30 50 1 21 47
M  V30 51 1 22 48
M  V30 52 1 27 49
M  V30 53 1 27 50
M  V30 54 1 28 51
M  V30 55 1 29 52
M  V30 56 1 29 53
M  V30 57 1 30 54
M  V30 58 1 30 55
M  V30 59 1 31 56
M  V30 60 1 31 57
M  V30 61 1 32 58
M  V30 62 1 32 59
M  V30 63 1 34 60
M  V30 END BOND
M  V30 END CTAB
M  END
>  <Dataset>  (809) 
ChEMBL_Kinases

>  <Ligand_Instance>  (809) 
nan

>  <PDB_ID>  (809) 
nan

>  <Standardized_SMILES>  (809) 
NCc1ccc(C(=O)Nc2ccncc2F)cc1-c1cccc(C(=O)OCC2CCCCO2)c1

>  <Name>  (809) 
nan

>  <Pocket>  (809) 
nan

>  <ATP_Site>  (809) 
nan

>  <Peripheral>  (809) 
nan

>  <Num_H_Atoms_ProtBoundConf>  (809) 
nan

>  <Num_Resolved_Atoms>  (809) 
nan

>  <Num_Not_Resolved_Atoms>  (809) 
nan

$$$$
CHEMBL2440737
     RDKit          3D

  0  0  0  0  0  0  0  0  0  0999 V3000
M  V30 BEGIN CTAB
M  V30 COUNTS 57 60 0 0 0
M  V30 BEGIN ATOM
M  V30 1 N 0.167205 -1.757809 5.578016 0
M  V30 2 C -0.870309 -1.797570 4.529976 0
M  V30 3 C -0.490763 -0.827676 3.487261 0
M  V30 4 C 0.521563 0.109597 3.721275 0
M  V30 5 C 0.953482 1.048603 2.810107 0
M  V30 6 C 0.349162 1.064929 1.590546 0
M  V30 7 C 0.692542 2.005918 0.537672 0
M  V30 8 O 0.179007 2.000055 -0.627709 0
M  V30 9 N 1.651668 3.017814 0.760958 0
M  V30 10 C 2.247587 4.083941 0.046651 0
M  V30 11 C 3.387413 4.135104 -0.723192 0
M  V30 12 C 3.774583 5.296098 -1.335613 0
M  V30 13 N 3.061538 6.413329 -1.206978 0
M  V30 14 C 1.937518 6.457331 -0.476812 0
M  V30 15 C 1.543678 5.271969 0.147921 0
M  V30 16 F 0.385785 5.398007 0.874844 0
M  V30 17 C -0.657064 0.174374 1.280135 0
M  V30 18 C -1.071239 -0.767640 2.233320 0
M  V30 19 C -2.152318 -1.672032 1.863870 0
M  V30 20 C -3.326997 -1.870618 2.572973 0
M  V30 21 C -4.290850 -2.763841 2.159101 0
M  V30 22 C -4.142484 -3.513590 1.013844 0
M  V30 23 C -2.986711 -3.341800 0.283859 0
M  V30 24 C -2.825231 -4.136811 -0.927958 0
M  V30 25 O -3.746006 -4.931179 -1.241667 0
M  V30 26 O -1.723732 -4.077503 -1.759465 0
M  V30 27 C -1.527194 -4.822672 -2.927861 0
M  V30 28 C -0.156832 -4.378759 -3.462802 0
M  V30 29 C 0.859717 -4.559812 -2.360245 0
M  V30 30 C 1.526942 -3.223324 -2.215114 0
M  V30 31 C 0.958706 -2.448352 -3.367078 0
M  V30 32 O -0.254013 -3.027644 -3.710159 0
M  V30 33 C -2.029636 -2.433475 0.723186 0
M  V30 34 H 0.051923 -0.932139 6.174771 0
M  V30 35 H 1.111440 -1.950356 5.214012 0
M  V30 36 H -0.846981 -2.834761 4.149938 0
M  V30 37 H -1.806784 -1.539557 5.077216 0
M  V30 38 H 1.012242 0.107669 4.690388 0
M  V30 39 H 1.732364 1.737378 3.052151 0
M  V30 40 H 2.167086 3.157957 1.671350 0
M  V30 41 H 3.898833 3.165640 -0.762455 0
M  V30 42 H 4.680703 5.261155 -1.923686 0
M  V30 43 H 1.363678 7.374218 -0.380715 0
M  V30 44 H -1.147228 0.173386 0.315977 0
M  V30 45 H -3.484636 -1.297155 3.466750 0
M  V30 46 H -5.179327 -2.848966 2.783744 0
M  V30 47 H -4.944040 -4.185402 0.766651 0
M  V30 48 H -2.317815 -4.616311 -3.686656 0
M  V30 49 H -1.476833 -5.903639 -2.812347 0
M  V30 50 H 0.152464 -4.946198 -4.344748 0
M  V30 51 H 1.583269 -5.378200 -2.567179 0
M  V30 52 H 0.369164 -4.795521 -1.384849 0
M  V30 53 H 2.638649 -3.340444 -2.270983 0
M  V30 54 H 1.346051 -2.754644 -1.224407 0
M  V30 55 H 1.652968 -2.508798 -4.215151 0
M  V30 56 H 0.723581 -1.405797 -3.048966 0
M  V30 57 H -1.165472 -2.378229 0.077421 0
M  V30 END ATOM
M  V30 BEGIN BOND
M  V30 1 1 1 2
M  V30 2 1 2 3
M  V30 3 2 3 4
M  V30 4 1 4 5
M  V30 5 2 5 6
M  V30 6 1 6 7
M  V30 7 2 7 8
M  V30 8 1 7 9
M  V30 9 1 9 10
M  V30 10 2 10 11
M  V30 11 1 11 12
M  V30 12 2 12 13
M  V30 13 1 13 14
M  V30 14 2 14 15
M  V30 15 1 15 16
M  V30 16 1 6 17
M  V30 17 2 17 18
M  V30 18 1 18 19
M  V30 19 2 19 20
M  V30 20 1 20 21
M  V30 21 2 21 22
M  V30 22 1 22 23
M  V30 23 1 23 24
M  V30 24 2 24 25
M  V30 25 1 24 26
M  V30 26 1 26 27
M  V30 27 1 27 28
M  V30 28 1 28 29
M  V30 29 1 29 30
M  V30 30 1 30 31
M  V30 31 1 31 32
M  V30 32 2 23 33
M  V30 33 1 18 3
M  V30 34 1 33 19
M  V30 35 1 15 10
M  V30 36 1 32 28
M  V30 37 1 1 34
M  V30 38 1 1 35
M  V30 39 1 2 36
M  V30 40 1 2 37
M  V30 41 1 4 38
M  V30 42 1 5 39
M  V30 43 1 9 40
M  V30 44 1 11 41
M  V30 45 1 12 42
M  V30 46 1 14 43
M  V30 47 1 17 44
M  V30 48 1 20 45
M  V30 49 1 21 46
M  V30 50 1 22 47
M  V30 51 1 27 48
M  V30 52 1 27 49
M  V30 53 1 28 50
M  V30 54 1 29 51
M  V30 55 1 29 52
M  V30 56 1 30 53
M  V30 57 1 30 54
M  V30 58 1 31 55
M  V30 59 1 31 56
M  V30 60 1 33 57
M  V30 END BOND
M  V30 END CTAB
M  END
>  <Dataset>  (810) 
ChEMBL_Kinases

>  <Ligand_Instance>  (810) 
nan

>  <PDB_ID>  (810) 
nan

>  <Standardized_SMILES>  (810) 
NCc1ccc(C(=O)Nc2ccncc2F)cc1-c1cccc(C(=O)OCC2CCCO2)c1

>  <Name>  (810) 
nan

>  <Pocket>  (810) 
nan

>  <ATP_Site>  (810) 
nan

>  <Peripheral>  (810) 
nan

>  <Num_H_Atoms_ProtBoundConf>  (810) 
nan

>  <Num_Resolved_Atoms>  (810) 
nan

>  <Num_Not_Resolved_Atoms>  (810) 
nan

$$$$
CHEMBL2441619
     RDKit          3D

  0  0  0  0  0  0  0  0  0  0999 V3000
M  V30 BEGIN CTAB
M  V30 COUNTS 37 39 0 0 0
M  V30 BEGIN ATOM
M  V30 1 C 0.022758 -3.605500 3.987899 0
M  V30 2 C 0.380129 -3.282444 2.584222 0
M  V30 3 C 0.901970 -4.321585 1.804914 0
M  V30 4 C 1.251817 -4.066188 0.482074 0
M  V30 5 C 1.114347 -2.837609 -0.115384 0
M  V30 6 N 1.436373 -2.559873 -1.367726 0
M  V30 7 C 1.282402 -1.323602 -1.918219 0
M  V30 8 C 1.664843 -1.079032 -3.333753 0
M  V30 9 F 2.242722 0.170133 -3.493147 0
M  V30 10 F 0.579096 -1.119422 -4.191328 0
M  V30 11 F 2.605022 -1.998558 -3.757395 0
M  V30 12 C 0.763813 -0.341179 -1.101727 0
M  V30 13 C 0.405579 -0.575581 0.228761 0
M  V30 14 N -0.110924 0.566017 0.898615 0
M  V30 15 C -1.379415 0.904261 1.545469 0
M  V30 16 C -1.774077 2.278380 1.050256 0
M  V30 17 N -1.132261 2.496493 -0.227304 0
M  V30 18 C 0.278129 2.771393 0.081978 0
M  V30 19 C 0.812144 1.711694 0.989148 0
M  V30 20 C 0.595556 -1.854725 0.701488 0
M  V30 21 C 0.226443 -2.030738 2.018694 0
M  V30 22 H 0.949524 -3.863028 4.573913 0
M  V30 23 H -0.686240 -4.464631 4.030454 0
M  V30 24 H -0.436503 -2.719214 4.470198 0
M  V30 25 H 1.033152 -5.301590 2.213282 0
M  V30 26 H 1.653367 -4.886789 -0.099960 0
M  V30 27 H 0.665936 0.615933 -1.596036 0
M  V30 28 H -1.248240 0.896335 2.656488 0
M  V30 29 H -2.184230 0.206842 1.226888 0
M  V30 30 H -1.477073 3.075541 1.780135 0
M  V30 31 H -2.885605 2.315752 0.938040 0
M  V30 32 H -1.556751 3.280433 -0.759009 0
M  V30 33 H 0.324299 3.779663 0.580813 0
M  V30 34 H 0.789334 2.897945 -0.871139 0
M  V30 35 H 0.809833 2.119400 2.026398 0
M  V30 36 H 1.857136 1.426669 0.774080 0
M  V30 37 H -0.176757 -1.238022 2.630889 0
M  V30 END ATOM
M  V30 BEGIN BOND
M  V30 1 1 1 2
M  V30 2 2 2 3
M  V30 3 1 3 4
M  V30 4 2 4 5
M  V30 5 1 5 6
M  V30 6 2 6 7
M  V30 7 1 7 8
M  V30 8 1 8 9
M  V30 9 1 8 10
M  V30 10 1 8 11
M  V30 11 1 7 12
M  V30 12 2 12 13
M  V30 13 1 13 14
M  V30 14 1 14 15
M  V30 15 1 15 16
M  V30 16 1 16 17
M  V30 17 1 17 18
M  V30 18 1 18 19
M  V30 19 1 13 20
M  V30 20 2 20 21
M  V30 21 1 21 2
M  V30 22 1 20 5
M  V30 23 1 19 14
M  V30 24 1 1 22
M  V30 25 1 1 23
M  V30 26 1 1 24
M  V30 27 1 3 25
M  V30 28 1 4 26
M  V30 29 1 12 27
M  V30 30 1 15 28
M  V30 31 1 15 29
M  V30 32 1 16 30
M  V30 33 1 16 31
M  V30 34 1 17 32
M  V30 35 1 18 33
M  V30 36 1 18 34
M  V30 37 1 19 35
M  V30 38 1 19 36
M  V30 39 1 21 37
M  V30 END BOND
M  V30 END CTAB
M  END
>  <Dataset>  (811) 
ChEMBL_Kinases

>  <Ligand_Instance>  (811) 
nan

>  <PDB_ID>  (811) 
nan

>  <Standardized_SMILES>  (811) 
Cc1ccc2nc(C(F)(F)F)cc(N3CCNCC3)c2c1

>  <Name>  (811) 
nan

>  <Pocket>  (811) 
nan

>  <ATP_Site>  (811) 
nan

>  <Peripheral>  (811) 
nan

>  <Num_H_Atoms_ProtBoundConf>  (811) 
nan

>  <Num_Resolved_Atoms>  (811) 
nan

>  <Num_Not_Resolved_Atoms>  (811) 
nan

$$$$
CHEMBL243817
     RDKit          3D

  0  0  0  0  0  0  0  0  0  0999 V3000
M  V30 BEGIN CTAB
M  V30 COUNTS 58 62 0 0 0
M  V30 BEGIN ATOM
M  V30 1 C 1.127135 -3.437912 3.388770 0
M  V30 2 C 1.843146 -2.482046 4.316455 0 CFG=1
M  V30 3 C 3.326528 -2.776476 4.372689 0
M  V30 4 C 4.026250 -2.468438 3.091627 0
M  V30 5 C 3.455412 -1.216495 2.401628 0 CFG=2
M  V30 6 N 4.472080 -0.481130 1.733857 0
M  V30 7 C 4.083676 0.678514 1.015657 0
M  V30 8 C 3.086136 0.418497 -0.051333 0
M  V30 9 C 3.469699 0.107733 -1.340811 0
M  V30 10 C 2.575414 -0.144675 -2.377501 0
M  V30 11 C 1.208183 -0.081559 -2.104316 0
M  V30 12 C 0.779890 0.226048 -0.827678 0
M  V30 13 C 1.715252 0.471508 0.179834 0
M  V30 14 C -0.713820 0.237591 -0.766810 0
M  V30 15 C -1.083947 -0.099555 -2.158447 0
M  V30 16 C -2.220905 -0.285955 -2.919559 0
M  V30 17 C -3.614667 -0.182968 -2.479151 0
M  V30 18 C -3.949539 -0.786625 -1.283527 0
M  V30 19 C -5.229222 -0.769807 -0.744319 0
M  V30 20 C -6.216741 -0.111383 -1.447581 0
M  V30 21 C -7.617589 -0.040141 -0.949173 0
M  V30 22 O -7.802499 1.080059 -0.151701 0
M  V30 23 C -5.891595 0.500576 -2.653298 0
M  V30 24 C -4.615765 0.477469 -3.179877 0
M  V30 25 N -1.764150 -0.582204 -4.149736 0
M  V30 26 N -0.429915 -0.585033 -4.173466 0
M  V30 27 C 0.038383 -0.288206 -2.949360 0
M  V30 28 C 2.871903 -0.377728 3.514845 0
M  V30 29 C 1.586210 -1.049531 3.982327 0
M  V30 30 H 0.879553 -4.354766 3.960596 0
M  V30 31 H 0.169895 -2.968090 3.083870 0
M  V30 32 H 1.771091 -3.723714 2.515762 0
M  V30 33 H 1.454506 -2.666742 5.339948 0
M  V30 34 H 3.742538 -2.164325 5.207459 0
M  V30 35 H 3.435106 -3.840532 4.632713 0
M  V30 36 H 5.111262 -2.352100 3.287039 0
M  V30 37 H 3.914042 -3.355110 2.422652 0
M  V30 38 H 2.655747 -1.595460 1.734366 0
M  V30 39 H 5.235906 -1.029417 1.317819 0
M  V30 40 H 4.999082 1.120555 0.534645 0
M  V30 41 H 3.689389 1.484593 1.656772 0
M  V30 42 H 4.511212 0.043352 -1.616338 0
M  V30 43 H 2.905733 -0.386391 -3.379515 0
M  V30 44 H 1.342285 0.708477 1.164245 0
M  V30 45 H -1.017846 1.251038 -0.449845 0
M  V30 46 H -1.065325 -0.485649 -0.015911 0
M  V30 47 H -3.226625 -1.317629 -0.683883 0
M  V30 48 H -5.461172 -1.247120 0.186332 0
M  V30 49 H -7.935901 -0.975727 -0.443012 0
M  V30 50 H -8.339695 0.062398 -1.808415 0
M  V30 51 H -7.001613 1.651755 -0.253253 0
M  V30 52 H -6.687350 1.018484 -3.198304 0
M  V30 53 H -4.340850 0.946747 -4.115898 0
M  V30 54 H 0.164979 -0.788390 -5.020929 0
M  V30 55 H 2.678260 0.631329 3.155343 0
M  V30 56 H 3.571915 -0.306518 4.370009 0
M  V30 57 H 0.853897 -0.905046 3.165603 0
M  V30 58 H 1.219643 -0.443979 4.847349 0
M  V30 END ATOM
M  V30 BEGIN BOND
M  V30 1 1 1 2
M  V30 2 1 2 3
M  V30 3 1 3 4
M  V30 4 1 4 5
M  V30 5 1 5 6
M  V30 6 1 6 7
M  V30 7 1 7 8
M  V30 8 2 8 9
M  V30 9 1 9 10
M  V30 10 2 10 11
M  V30 11 1 11 12
M  V30 12 2 12 13
M  V30 13 1 12 14
M  V30 14 1 14 15
M  V30 15 1 15 16
M  V30 16 1 16 17
M  V30 17 2 17 18
M  V30 18 1 18 19
M  V30 19 2 19 20
M  V30 20 1 20 21
M  V30 21 1 21 22
M  V30 22 1 20 23
M  V30 23 2 23 24
M  V30 24 2 16 25
M  V30 25 1 25 26
M  V30 26 1 26 27
M  V30 27 1 5 28
M  V30 28 1 28 29
M  V30 29 1 29 2
M  V30 30 1 13 8
M  V30 31 2 27 15
M  V30 32 1 27 11
M  V30 33 1 24 17
M  V30 34 1 1 30
M  V30 35 1 1 31
M  V30 36 1 1 32
M  V30 37 1 2 33 CFG=1
M  V30 38 1 3 34
M  V30 39 1 3 35
M  V30 40 1 4 36
M  V30 41 1 4 37
M  V30 42 1 5 38 CFG=3
M  V30 43 1 6 39
M  V30 44 1 7 40
M  V30 45 1 7 41
M  V30 46 1 9 42
M  V30 47 1 10 43
M  V30 48 1 13 44
M  V30 49 1 14 45
M  V30 50 1 14 46
M  V30 51 1 18 47
M  V30 52 1 19 48
M  V30 53 1 21 49
M  V30 54 1 21 50
M  V30 55 1 22 51
M  V30 56 1 23 52
M  V30 57 1 24 53
M  V30 58 1 26 54
M  V30 59 1 28 55
M  V30 60 1 28 56
M  V30 61 1 29 57
M  V30 62 1 29 58
M  V30 END BOND
M  V30 END CTAB
M  END
>  <Dataset>  (812) 
ChEMBL_Kinases

>  <Ligand_Instance>  (812) 
nan

>  <PDB_ID>  (812) 
nan

>  <Standardized_SMILES>  (812) 
C[C@H]1CC[C@H](NCc2ccc3c(c2)Cc2c(-c4ccc(CO)cc4)n[nH]c2-3)CC1

>  <Name>  (812) 
nan

>  <Pocket>  (812) 
nan

>  <ATP_Site>  (812) 
nan

>  <Peripheral>  (812) 
nan

>  <Num_H_Atoms_ProtBoundConf>  (812) 
nan

>  <Num_Resolved_Atoms>  (812) 
nan

>  <Num_Not_Resolved_Atoms>  (812) 
nan

$$$$
CHEMBL243818
     RDKit          3D

  0  0  0  0  0  0  0  0  0  0999 V3000
M  V30 BEGIN CTAB
M  V30 COUNTS 61 65 0 0 0
M  V30 BEGIN ATOM
M  V30 1 C 4.838723 -7.035376 0.702707 0
M  V30 2 C 5.866685 -6.805024 1.787114 0
M  V30 3 O 6.498813 -5.541355 1.691848 0
M  V30 4 C 5.757770 -4.369461 1.769338 0
M  V30 5 C 6.584171 -3.251865 1.651055 0
M  V30 6 C 6.068193 -1.971324 1.698921 0
M  V30 7 C 4.711320 -1.786098 1.866598 0
M  V30 8 C 3.986809 -0.522295 1.940978 0
M  V30 9 N 4.414009 0.516634 2.681800 0
M  V30 10 N 3.589593 1.538811 2.583610 0
M  V30 11 C 2.597492 1.153942 1.755102 0
M  V30 12 C 2.809938 -0.149756 1.322804 0
M  V30 13 C 1.749331 -0.617096 0.412207 0
M  V30 14 C 0.849892 0.566084 0.335784 0
M  V30 15 C -0.329035 0.787822 -0.349276 0
M  V30 16 C -1.010041 2.006829 -0.264981 0
M  V30 17 C -2.291462 2.232217 -1.016097 0
M  V30 18 N -3.397193 1.828676 -0.171448 0
M  V30 19 C -4.684813 2.001147 -0.785908 0 CFG=1
M  V30 20 C -4.857826 1.216715 -2.046392 0
M  V30 21 C -4.778659 -0.266804 -1.844773 0
M  V30 22 C -5.685276 -0.790137 -0.774122 0 CFG=2
M  V30 23 C -7.118202 -0.858597 -1.234393 0
M  V30 24 C -5.578703 0.044933 0.460755 0
M  V30 25 C -5.744286 1.523998 0.185336 0
M  V30 26 C -0.478818 3.006384 0.527463 0
M  V30 27 C 0.699749 2.821913 1.228674 0
M  V30 28 C 1.341855 1.594328 1.114799 0
M  V30 29 C 3.898249 -2.894848 1.983095 0
M  V30 30 C 4.401375 -4.177855 1.936889 0
M  V30 31 H 4.740335 -6.162007 0.049300 0
M  V30 32 H 5.207540 -7.876580 0.054924 0
M  V30 33 H 3.842703 -7.317337 1.083743 0
M  V30 34 H 5.272552 -6.791824 2.748322 0
M  V30 35 H 6.581033 -7.626208 1.917851 0
M  V30 36 H 7.668751 -3.256193 1.515110 0
M  V30 37 H 6.642646 -1.058772 1.614974 0
M  V30 38 H 3.662359 2.489543 3.050128 0
M  V30 39 H 1.241030 -1.540128 0.745534 0
M  V30 40 H 2.124126 -0.852145 -0.614540 0
M  V30 41 H -0.745311 -0.007886 -0.975864 0
M  V30 42 H -2.285255 1.735900 -1.984827 0
M  V30 43 H -2.387125 3.333626 -1.166142 0
M  V30 44 H -3.371110 2.254988 0.758709 0
M  V30 45 H -4.856726 3.061086 -0.979584 0
M  V30 46 H -5.895676 1.445335 -2.413456 0
M  V30 47 H -4.132136 1.503860 -2.814804 0
M  V30 48 H -3.730935 -0.567775 -1.618710 0
M  V30 49 H -5.052344 -0.748493 -2.800749 0
M  V30 50 H -5.330279 -1.814660 -0.511810 0
M  V30 51 H -7.429082 -1.910163 -1.326913 0
M  V30 52 H -7.764123 -0.359507 -0.494347 0
M  V30 53 H -7.286720 -0.320519 -2.190434 0
M  V30 54 H -4.544694 -0.123500 0.875932 0
M  V30 55 H -6.288389 -0.255957 1.244883 0
M  V30 56 H -6.771715 1.663345 -0.195268 0
M  V30 57 H -5.607764 2.062824 1.131197 0
M  V30 58 H -0.993200 3.960883 0.605858 0
M  V30 59 H 1.082608 3.632929 1.839689 0
M  V30 60 H 2.806294 -2.909569 2.120219 0
M  V30 61 H 3.863141 -5.108250 2.017017 0
M  V30 END ATOM
M  V30 BEGIN BOND
M  V30 1 1 1 2
M  V30 2 1 2 3
M  V30 3 1 3 4
M  V30 4 2 4 5
M  V30 5 1 5 6
M  V30 6 2 6 7
M  V30 7 1 7 8
M  V30 8 2 8 9
M  V30 9 1 9 10
M  V30 10 1 10 11
M  V30 11 2 11 12
M  V30 12 1 12 13
M  V30 13 1 13 14
M  V30 14 2 14 15
M  V30 15 1 15 16
M  V30 16 1 16 17
M  V30 17 1 17 18
M  V30 18 1 18 19
M  V30 19 1 19 20
M  V30 20 1 20 21
M  V30 21 1 21 22
M  V30 22 1 22 23
M  V30 23 1 22 24
M  V30 24 1 24 25
M  V30 25 2 16 26
M  V30 26 1 26 27
M  V30 27 2 27 28
M  V30 28 1 7 29
M  V30 29 2 29 30
M  V30 30 1 30 4
M  V30 31 1 12 8
M  V30 32 1 28 14
M  V30 33 1 28 11
M  V30 34 1 25 19
M  V30 35 1 1 31
M  V30 36 1 1 32
M  V30 37 1 1 33
M  V30 38 1 2 34
M  V30 39 1 2 35
M  V30 40 1 5 36
M  V30 41 1 6 37
M  V30 42 1 10 38
M  V30 43 1 13 39
M  V30 44 1 13 40
M  V30 45 1 15 41
M  V30 46 1 17 42
M  V30 47 1 17 43
M  V30 48 1 18 44
M  V30 49 1 19 45 CFG=3
M  V30 50 1 20 46
M  V30 51 1 20 47
M  V30 52 1 21 48
M  V30 53 1 21 49
M  V30 54 1 22 50 CFG=1
M  V30 55 1 23 51
M  V30 56 1 23 52
M  V30 57 1 23 53
M  V30 58 1 24 54
M  V30 59 1 24 55
M  V30 60 1 25 56
M  V30 61 1 25 57
M  V30 62 1 26 58
M  V30 63 1 27 59
M  V30 64 1 29 60
M  V30 65 1 30 61
M  V30 END BOND
M  V30 END CTAB
M  END
>  <Dataset>  (813) 
ChEMBL_Kinases

>  <Ligand_Instance>  (813) 
nan

>  <PDB_ID>  (813) 
nan

>  <Standardized_SMILES>  (813) 
CCOc1ccc(-c2n[nH]c3c2Cc2cc(CN[C@H]4CC[C@H](C)CC4)ccc2-3)cc1

>  <Name>  (813) 
nan

>  <Pocket>  (813) 
nan

>  <ATP_Site>  (813) 
nan

>  <Peripheral>  (813) 
nan

>  <Num_H_Atoms_ProtBoundConf>  (813) 
nan

>  <Num_Resolved_Atoms>  (813) 
nan

>  <Num_Not_Resolved_Atoms>  (813) 
nan

$$$$
CHEMBL243819
     RDKit          3D

  0  0  0  0  0  0  0  0  0  0999 V3000
M  V30 BEGIN CTAB
M  V30 COUNTS 58 62 0 0 0
M  V30 BEGIN ATOM
M  V30 1 C 2.224554 -1.124181 4.192427 0
M  V30 2 C 2.510710 -0.164345 3.026852 0 CFG=1
M  V30 3 C 3.547338 0.812355 3.497371 0
M  V30 4 C 3.757731 1.764424 2.323602 0
M  V30 5 C 4.368234 1.052177 1.150558 0 CFG=2
M  V30 6 N 4.399772 1.925602 0.023547 0
M  V30 7 C 3.211942 2.509655 -0.445185 0
M  V30 8 C 2.181030 1.556707 -0.911427 0
M  V30 9 C 2.298142 1.126548 -2.241420 0
M  V30 10 C 1.436016 0.257342 -2.878578 0
M  V30 11 C 0.363372 -0.242952 -2.169701 0
M  V30 12 C 0.221337 0.162048 -0.858566 0
M  V30 13 C 1.081966 1.030225 -0.221616 0
M  V30 14 C -0.997091 -0.483778 -0.253709 0
M  V30 15 C -1.556773 -1.314165 -1.354494 0
M  V30 16 C -2.518295 -2.187224 -1.815831 0
M  V30 17 C -3.631657 -2.679408 -1.010210 0
M  V30 18 C -3.568135 -3.141942 0.286061 0
M  V30 19 C -4.720743 -3.573141 0.905902 0
M  V30 20 C -5.959801 -3.558519 0.264058 0
M  V30 21 O -7.084293 -4.008161 0.948029 0
M  V30 22 C -7.905408 -3.164470 1.729286 0
M  V30 23 F -8.932315 -3.922192 2.270444 0
M  V30 24 F -8.462064 -2.136317 0.986483 0
M  V30 25 F -7.188146 -2.574826 2.762431 0
M  V30 26 C -6.015940 -3.091323 -1.041389 0
M  V30 27 C -4.862357 -2.662232 -1.654988 0
M  V30 28 N -2.262315 -2.499677 -3.100470 0
M  V30 29 N -1.176694 -1.877120 -3.517709 0
M  V30 30 C -0.735012 -1.153766 -2.473249 0
M  V30 31 C 3.933923 -0.328166 0.920188 0
M  V30 32 C 2.966841 -0.938265 1.851483 0
M  V30 33 H 2.352536 -0.624475 5.159997 0
M  V30 34 H 1.221966 -1.568584 4.022553 0
M  V30 35 H 2.934066 -1.987597 4.069344 0
M  V30 36 H 1.517595 0.350017 2.868570 0
M  V30 37 H 4.475463 0.232001 3.691731 0
M  V30 38 H 3.215737 1.400514 4.356426 0
M  V30 39 H 4.435658 2.561949 2.704826 0
M  V30 40 H 2.790000 2.239763 2.108942 0
M  V30 41 H 5.477904 0.992033 1.457438 0
M  V30 42 H 5.113686 1.693360 -0.672933 0
M  V30 43 H 2.744963 3.190160 0.307399 0
M  V30 44 H 3.433052 3.192488 -1.318168 0
M  V30 45 H 3.126944 1.486598 -2.857598 0
M  V30 46 H 1.594862 -0.026694 -3.908901 0
M  V30 47 H 1.012459 1.373759 0.781893 0
M  V30 48 H -1.722383 0.271619 0.104929 0
M  V30 49 H -0.647722 -1.152105 0.558780 0
M  V30 50 H -2.594234 -3.135481 0.741429 0
M  V30 51 H -4.655092 -3.936766 1.932621 0
M  V30 52 H -6.962212 -3.074685 -1.546560 0
M  V30 53 H -4.989873 -2.308642 -2.684281 0
M  V30 54 H -0.763979 -1.947814 -4.470272 0
M  V30 55 H 3.543405 -0.408826 -0.122862 0
M  V30 56 H 4.824473 -1.037117 0.874225 0
M  V30 57 H 3.320294 -1.945658 2.231506 0
M  V30 58 H 2.019171 -1.238583 1.306049 0
M  V30 END ATOM
M  V30 BEGIN BOND
M  V30 1 1 1 2
M  V30 2 1 2 3
M  V30 3 1 3 4
M  V30 4 1 4 5
M  V30 5 1 5 6
M  V30 6 1 6 7
M  V30 7 1 7 8
M  V30 8 2 8 9
M  V30 9 1 9 10
M  V30 10 2 10 11
M  V30 11 1 11 12
M  V30 12 2 12 13
M  V30 13 1 12 14
M  V30 14 1 14 15
M  V30 15 1 15 16
M  V30 16 1 16 17
M  V30 17 2 17 18
M  V30 18 1 18 19
M  V30 19 2 19 20
M  V30 20 1 20 21
M  V30 21 1 21 22
M  V30 22 1 22 23
M  V30 23 1 22 24
M  V30 24 1 22 25
M  V30 25 1 20 26
M  V30 26 2 26 27
M  V30 27 2 16 28
M  V30 28 1 28 29
M  V30 29 1 29 30
M  V30 30 1 5 31
M  V30 31 1 31 32
M  V30 32 1 32 2
M  V30 33 1 13 8
M  V30 34 2 30 15
M  V30 35 1 30 11
M  V30 36 1 27 17
M  V30 37 1 1 33
M  V30 38 1 1 34
M  V30 39 1 1 35
M  V30 40 1 2 36 CFG=3
M  V30 41 1 3 37
M  V30 42 1 3 38
M  V30 43 1 4 39
M  V30 44 1 4 40
M  V30 45 1 5 41 CFG=1
M  V30 46 1 6 42
M  V30 47 1 7 43
M  V30 48 1 7 44
M  V30 49 1 9 45
M  V30 50 1 10 46
M  V30 51 1 13 47
M  V30 52 1 14 48
M  V30 53 1 14 49
M  V30 54 1 18 50
M  V30 55 1 19 51
M  V30 56 1 26 52
M  V30 57 1 27 53
M  V30 58 1 29 54
M  V30 59 1 31 55
M  V30 60 1 31 56
M  V30 61 1 32 57
M  V30 62 1 32 58
M  V30 END BOND
M  V30 END CTAB
M  END
>  <Dataset>  (814) 
ChEMBL_Kinases

>  <Ligand_Instance>  (814) 
nan

>  <PDB_ID>  (814) 
nan

>  <Standardized_SMILES>  (814) 
C[C@H]1CC[C@H](NCc2ccc3c(c2)Cc2c(-c4ccc(OC(F)(F)F)cc4)n[nH]c2-3)CC1

>  <Name>  (814) 
nan

>  <Pocket>  (814) 
nan

>  <ATP_Site>  (814) 
nan

>  <Peripheral>  (814) 
nan

>  <Num_H_Atoms_ProtBoundConf>  (814) 
nan

>  <Num_Resolved_Atoms>  (814) 
nan

>  <Num_Not_Resolved_Atoms>  (814) 
nan

$$$$
CHEMBL243930
     RDKit          3D

  0  0  0  0  0  0  0  0  0  0999 V3000
M  V30 BEGIN CTAB
M  V30 COUNTS 32 36 0 0 0
M  V30 BEGIN ATOM
M  V30 1 O 0.358535 -2.508999 3.727700 0
M  V30 2 C 0.730554 -2.815034 2.567252 0
M  V30 3 C 1.304633 -4.066067 2.518825 0
M  V30 4 C 1.765332 -4.535140 1.283314 0
M  V30 5 C 1.614360 -3.710196 0.186480 0
M  V30 6 O 2.060650 -4.240876 -0.839701 0
M  V30 7 C 1.048258 -2.466945 0.212671 0
M  V30 8 C 0.603669 -2.030124 1.440433 0
M  V30 9 C 0.017706 -0.789543 1.569801 0
M  V30 10 N -0.489551 -0.137118 2.625007 0
M  V30 11 C -0.935396 1.062928 2.149642 0
M  V30 12 C -1.541014 2.082497 2.870188 0
M  V30 13 C -1.941371 3.245786 2.250823 0
M  V30 14 C -1.711136 3.348182 0.879562 0
M  V30 15 C -1.105969 2.295803 0.234800 0
M  V30 16 C -0.691235 1.126613 0.796112 0
M  V30 17 C -0.088914 -0.039491 0.419480 0
M  V30 18 C 0.341996 -0.449348 -0.800469 0
M  V30 19 C 0.368496 0.049971 -2.049135 0
M  V30 20 O -0.022632 1.127870 -2.521610 0
M  V30 21 N 0.931377 -0.816884 -2.900468 0
M  V30 22 C 1.293363 -1.932714 -2.198571 0
M  V30 23 O 1.845806 -2.890944 -2.793651 0
M  V30 24 C 0.921993 -1.692439 -0.894820 0
M  V30 25 H 1.426583 -4.725344 3.388830 0
M  V30 26 H 2.220092 -5.535557 1.266088 0
M  V30 27 H -0.564260 -0.419732 3.628337 0
M  V30 28 H -1.731372 2.031587 3.928159 0
M  V30 29 H -2.411059 4.038068 2.805969 0
M  V30 30 H -2.031417 4.267196 0.410188 0
M  V30 31 H -0.984359 2.489192 -0.801726 0
M  V30 32 H 1.094167 -0.707497 -3.952136 0
M  V30 END ATOM
M  V30 BEGIN BOND
M  V30 1 2 1 2
M  V30 2 1 2 3
M  V30 3 2 3 4
M  V30 4 1 4 5
M  V30 5 2 5 6
M  V30 6 1 5 7
M  V30 7 2 7 8
M  V30 8 1 8 9
M  V30 9 1 9 10
M  V30 10 1 10 11
M  V30 11 2 11 12
M  V30 12 1 12 13
M  V30 13 2 13 14
M  V30 14 1 14 15
M  V30 15 2 15 16
M  V30 16 1 16 17
M  V30 17 1 17 18
M  V30 18 1 18 19
M  V30 19 2 19 20
M  V30 20 1 19 21
M  V30 21 1 21 22
M  V30 22 2 22 23
M  V30 23 1 22 24
M  V30 24 1 8 2
M  V30 25 2 17 9
M  V30 26 2 24 18
M  V30 27 1 24 7
M  V30 28 1 16 11
M  V30 29 1 3 25
M  V30 30 1 4 26
M  V30 31 1 10 27
M  V30 32 1 12 28
M  V30 33 1 13 29
M  V30 34 1 14 30
M  V30 35 1 15 31
M  V30 36 1 21 32
M  V30 END BOND
M  V30 END CTAB
M  END
>  <Dataset>  (815) 
ChEMBL_Kinases

>  <Ligand_Instance>  (815) 
nan

>  <PDB_ID>  (815) 
nan

>  <Standardized_SMILES>  (815) 
O=c1ccc(=O)c2c1c1[nH]c3ccccc3c1c1c(=O)[nH]c(=O)c21

>  <Name>  (815) 
nan

>  <Pocket>  (815) 
nan

>  <ATP_Site>  (815) 
nan

>  <Peripheral>  (815) 
nan

>  <Num_H_Atoms_ProtBoundConf>  (815) 
nan

>  <Num_Resolved_Atoms>  (815) 
nan

>  <Num_Not_Resolved_Atoms>  (815) 
nan

$$$$
CHEMBL243931
     RDKit          3D

  0  0  0  0  0  0  0  0  0  0999 V3000
M  V30 BEGIN CTAB
M  V30 COUNTS 33 37 0 0 0
M  V30 BEGIN ATOM
M  V30 1 O 2.667125 -2.074187 2.632578 0
M  V30 2 C 1.898029 -2.672500 1.854475 0
M  V30 3 C 2.120591 -4.033974 1.851993 0
M  V30 4 C 1.332984 -4.844433 1.025827 0
M  V30 5 C 0.369400 -4.216550 0.255303 0
M  V30 6 O -0.259903 -5.034012 -0.430010 0
M  V30 7 C 0.128669 -2.871860 0.239012 0
M  V30 8 C 0.925652 -2.110738 1.066260 0
M  V30 9 C 0.755110 -0.742946 1.116302 0
M  V30 10 N 1.380738 0.214047 1.819019 0
M  V30 11 C 0.788631 1.388777 1.462566 0
M  V30 12 C 1.097407 2.669680 1.929339 0
M  V30 13 C 0.408197 3.770399 1.474877 0
M  V30 14 C -0.605459 3.554719 0.534329 0
M  V30 15 O -1.291469 4.669633 0.084837 0
M  V30 16 C -0.846159 2.264821 0.127238 0
M  V30 17 C -0.200498 1.138973 0.538941 0
M  V30 18 C -0.228464 -0.207147 0.314193 0
M  V30 19 C -1.020800 -0.945523 -0.505518 0
M  V30 20 C -2.022263 -0.702260 -1.367067 0
M  V30 21 O -2.590393 0.341344 -1.721497 0
M  V30 22 N -2.457849 -1.843131 -1.926725 0
M  V30 23 C -1.721478 -2.877576 -1.420149 0
M  V30 24 O -1.948339 -4.053698 -1.797946 0
M  V30 25 C -0.833628 -2.302834 -0.539095 0
M  V30 26 H 2.885577 -4.541088 2.462429 0
M  V30 27 H 1.524798 -5.924743 1.037490 0
M  V30 28 H 2.162572 0.154644 2.510981 0
M  V30 29 H 1.866509 2.868194 2.648135 0
M  V30 30 H 0.641524 4.761158 1.830978 0
M  V30 31 H -2.114705 4.979889 0.556947 0
M  V30 32 H -1.632939 2.221718 -0.584356 0
M  V30 33 H -3.238189 -1.980871 -2.646578 0
M  V30 END ATOM
M  V30 BEGIN BOND
M  V30 1 2 1 2
M  V30 2 1 2 3
M  V30 3 2 3 4
M  V30 4 1 4 5
M  V30 5 2 5 6
M  V30 6 1 5 7
M  V30 7 2 7 8
M  V30 8 1 8 9
M  V30 9 1 9 10
M  V30 10 1 10 11
M  V30 11 2 11 12
M  V30 12 1 12 13
M  V30 13 2 13 14
M  V30 14 1 14 15
M  V30 15 1 14 16
M  V30 16 2 16 17
M  V30 17 1 17 18
M  V30 18 1 18 19
M  V30 19 1 19 20
M  V30 20 2 20 21
M  V30 21 1 20 22
M  V30 22 1 22 23
M  V30 23 2 23 24
M  V30 24 1 23 25
M  V30 25 1 8 2
M  V30 26 2 18 9
M  V30 27 2 25 19
M  V30 28 1 25 7
M  V30 29 1 17 11
M  V30 30 1 3 26
M  V30 31 1 4 27
M  V30 32 1 10 28
M  V30 33 1 12 29
M  V30 34 1 13 30
M  V30 35 1 15 31
M  V30 36 1 16 32
M  V30 37 1 22 33
M  V30 END BOND
M  V30 END CTAB
M  END
>  <Dataset>  (816) 
ChEMBL_Kinases

>  <Ligand_Instance>  (816) 
nan

>  <PDB_ID>  (816) 
nan

>  <Standardized_SMILES>  (816) 
O=c1ccc(=O)c2c1c1[nH]c3ccc(O)cc3c1c1c(=O)[nH]c(=O)c21

>  <Name>  (816) 
nan

>  <Pocket>  (816) 
nan

>  <ATP_Site>  (816) 
nan

>  <Peripheral>  (816) 
nan

>  <Num_H_Atoms_ProtBoundConf>  (816) 
nan

>  <Num_Resolved_Atoms>  (816) 
nan

>  <Num_Not_Resolved_Atoms>  (816) 
nan

$$$$
CHEMBL243934
     RDKit          3D

  0  0  0  0  0  0  0  0  0  0999 V3000
M  V30 BEGIN CTAB
M  V30 COUNTS 55 58 0 0 0
M  V30 BEGIN ATOM
M  V30 1 C 1.605837 0.153826 7.151795 0
M  V30 2 O 2.068413 -1.137368 7.323267 0
M  V30 3 C 2.336213 -2.085734 6.353031 0
M  V30 4 C 2.171846 -1.872514 4.982140 0
M  V30 5 C 2.455136 -2.858113 4.048645 0
M  V30 6 C 2.242502 -2.512012 2.643119 0
M  V30 7 C 3.040288 -3.088688 1.674879 0
M  V30 8 C 2.869459 -2.785246 0.329323 0
M  V30 9 C 1.880683 -1.890217 -0.026515 0
M  V30 10 C 1.050226 -1.282130 0.913781 0
M  V30 11 C 1.265064 -1.621021 2.237364 0
M  V30 12 N -0.012608 -0.347078 0.764210 0
M  V30 13 C -0.574604 0.158703 -0.450021 0
M  V30 14 C -1.566966 1.092550 -0.229733 0
M  V30 15 C -2.208661 1.675495 -1.308649 0
M  V30 16 C -1.857328 1.323821 -2.618437 0
M  V30 17 C -2.520681 1.925400 -3.814973 0
M  V30 18 C -3.704079 1.137309 -4.232361 0
M  V30 19 O -4.012755 0.106955 -3.580431 0
M  V30 20 N -4.414430 1.622278 -5.366590 0
M  V30 21 C -4.165321 2.800313 -6.211868 0
M  V30 22 C -5.583510 0.851953 -5.787359 0
M  V30 23 C -0.862539 0.387818 -2.830391 0
M  V30 24 C -0.224806 -0.191230 -1.740831 0
M  V30 25 N 0.748135 -1.111465 -2.225751 0
M  V30 26 C 1.841029 -1.687339 -1.479560 0
M  V30 27 O 2.855988 -2.050798 -2.129330 0
M  V30 28 C 2.914849 -4.097669 4.453498 0
M  V30 29 C 3.069394 -4.285232 5.811508 0
M  V30 30 C 2.795742 -3.323928 6.761869 0
M  V30 31 N 2.993119 -3.632592 8.125839 0
M  V30 32 H 2.215579 0.830999 7.819123 0
M  V30 33 H 0.532555 0.327103 7.351918 0
M  V30 34 H 1.854624 0.500443 6.128047 0
M  V30 35 H 1.813098 -0.907633 4.655956 0
M  V30 36 H 3.805967 -3.786820 1.994044 0
M  V30 37 H 3.493830 -3.236045 -0.432852 0
M  V30 38 H 0.616631 -1.147644 2.984753 0
M  V30 39 H -0.448560 0.027037 1.655825 0
M  V30 40 H -1.838457 1.364375 0.783667 0
M  V30 41 H -3.001080 2.420264 -1.188318 0
M  V30 42 H -1.806852 1.939399 -4.636873 0
M  V30 43 H -2.855941 2.970413 -3.605097 0
M  V30 44 H -4.951653 3.555371 -6.075961 0
M  V30 45 H -3.173457 3.187329 -5.881622 0
M  V30 46 H -4.029137 2.489510 -7.273058 0
M  V30 47 H -5.334265 0.188570 -6.645634 0
M  V30 48 H -6.386684 1.542796 -6.132676 0
M  V30 49 H -5.999081 0.289224 -4.923636 0
M  V30 50 H -0.573103 0.099300 -3.836817 0
M  V30 51 H 0.720127 -1.443382 -3.222651 0
M  V30 52 H 3.130420 -4.853645 3.711557 0
M  V30 53 H 3.434116 -5.263486 6.159724 0
M  V30 54 H 3.894540 -3.219355 8.472609 0
M  V30 55 H 2.336235 -4.191110 8.703753 0
M  V30 END ATOM
M  V30 BEGIN BOND
M  V30 1 1 1 2
M  V30 2 1 2 3
M  V30 3 2 3 4
M  V30 4 1 4 5
M  V30 5 1 5 6
M  V30 6 2 6 7
M  V30 7 1 7 8
M  V30 8 2 8 9
M  V30 9 1 9 10
M  V30 10 2 10 11
M  V30 11 1 10 12
M  V30 12 1 12 13
M  V30 13 2 13 14
M  V30 14 1 14 15
M  V30 15 2 15 16
M  V30 16 1 16 17
M  V30 17 1 17 18
M  V30 18 2 18 19
M  V30 19 1 18 20
M  V30 20 1 20 21
M  V30 21 1 20 22
M  V30 22 1 16 23
M  V30 23 2 23 24
M  V30 24 1 24 25
M  V30 25 1 25 26
M  V30 26 2 26 27
M  V30 27 2 5 28
M  V30 28 1 28 29
M  V30 29 2 29 30
M  V30 30 1 30 31
M  V30 31 1 30 3
M  V30 32 1 11 6
M  V30 33 1 24 13
M  V30 34 1 26 9
M  V30 35 1 1 32
M  V30 36 1 1 33
M  V30 37 1 1 34
M  V30 38 1 4 35
M  V30 39 1 7 36
M  V30 40 1 8 37
M  V30 41 1 11 38
M  V30 42 1 12 39
M  V30 43 1 14 40
M  V30 44 1 15 41
M  V30 45 1 17 42
M  V30 46 1 17 43
M  V30 47 1 21 44
M  V30 48 1 21 45
M  V30 49 1 21 46
M  V30 50 1 22 47
M  V30 51 1 22 48
M  V30 52 1 22 49
M  V30 53 1 23 50
M  V30 54 1 25 51
M  V30 55 1 28 52
M  V30 56 1 29 53
M  V30 57 1 31 54
M  V30 58 1 31 55
M  V30 END BOND
M  V30 END CTAB
M  END
>  <Dataset>  (817) 
ChEMBL_Kinases

>  <Ligand_Instance>  (817) 
nan

>  <PDB_ID>  (817) 
nan

>  <Standardized_SMILES>  (817) 
COc1cc(-c2ccc3c(c2)Nc2ccc(CC(=O)N(C)C)cc2NC3=O)ccc1N

>  <Name>  (817) 
nan

>  <Pocket>  (817) 
nan

>  <ATP_Site>  (817) 
nan

>  <Peripheral>  (817) 
nan

>  <Num_H_Atoms_ProtBoundConf>  (817) 
nan

>  <Num_Resolved_Atoms>  (817) 
nan

>  <Num_Not_Resolved_Atoms>  (817) 
nan

$$$$
CHEMBL243957
     RDKit          3D

  0  0  0  0  0  0  0  0  0  0999 V3000
M  V30 BEGIN CTAB
M  V30 COUNTS 40 43 0 0 0
M  V30 BEGIN ATOM
M  V30 1 O 1.073904 0.872665 3.736542 0
M  V30 2 C 1.804331 0.766830 2.720853 0
M  V30 3 C 3.169833 0.284242 2.599157 0
M  V30 4 C 4.272423 1.135530 2.712856 0
M  V30 5 C 5.557991 0.652888 2.593446 0
M  V30 6 C 5.792486 -0.696551 2.356206 0
M  V30 7 F 7.063859 -1.133563 2.244999 0
M  V30 8 C 4.693324 -1.544566 2.242968 0
M  V30 9 C 3.402825 -1.041977 2.365928 0
M  V30 10 F 2.406576 -1.970273 2.236024 0
M  V30 11 N 1.066505 1.218582 1.594550 0
M  V30 12 C -0.284305 1.688359 1.762447 0
M  V30 13 C -1.327950 0.832470 1.061877 0
M  V30 14 N -0.808885 0.085904 -0.039030 0
M  V30 15 C 0.439132 0.328509 -0.455099 0
M  V30 16 C 0.725615 -0.516389 -1.494590 0
M  V30 17 N -0.389163 -1.224900 -1.638497 0
M  V30 18 C -1.352133 -0.886212 -0.767338 0
M  V30 19 C -2.599729 -1.606071 -0.806055 0
M  V30 20 C -2.666475 -2.793776 -1.538394 0
M  V30 21 C -3.804336 -3.556058 -1.663254 0
M  V30 22 C -4.974909 -3.176679 -1.054138 0
M  V30 23 F -6.074938 -3.933624 -1.186775 0
M  V30 24 C -4.961431 -2.014607 -0.322379 0
M  V30 25 C -3.793436 -1.298758 -0.236700 0
M  V30 26 F -3.940282 -0.175820 0.483781 0
M  V30 27 C 1.329936 1.353096 0.150553 0
M  V30 28 H 4.098638 2.202487 2.900102 0
M  V30 29 H 6.440641 1.298903 2.678406 0
M  V30 30 H 4.932523 -2.596428 2.056422 0
M  V30 31 H -0.316125 2.753487 1.447506 0
M  V30 32 H -0.562210 1.720915 2.857634 0
M  V30 33 H -2.078984 1.560929 0.697775 0
M  V30 34 H -1.811017 0.193355 1.827254 0
M  V30 35 H 1.610620 -0.640417 -2.100175 0
M  V30 36 H -1.810566 -3.227452 -2.081993 0
M  V30 37 H -3.820345 -4.460081 -2.229985 0
M  V30 38 H -5.882891 -1.720797 0.153462 0
M  V30 39 H 1.171986 2.365436 -0.218541 0
M  V30 40 H 2.410439 1.051964 0.058019 0
M  V30 END ATOM
M  V30 BEGIN BOND
M  V30 1 2 1 2
M  V30 2 1 2 3
M  V30 3 2 3 4
M  V30 4 1 4 5
M  V30 5 2 5 6
M  V30 6 1 6 7
M  V30 7 1 6 8
M  V30 8 2 8 9
M  V30 9 1 9 10
M  V30 10 1 2 11
M  V30 11 1 11 12
M  V30 12 1 12 13
M  V30 13 1 13 14
M  V30 14 1 14 15
M  V30 15 2 15 16
M  V30 16 1 16 17
M  V30 17 2 17 18
M  V30 18 1 18 19
M  V30 19 2 19 20
M  V30 20 1 20 21
M  V30 21 2 21 22
M  V30 22 1 22 23
M  V30 23 1 22 24
M  V30 24 2 24 25
M  V30 25 1 25 26
M  V30 26 1 15 27
M  V30 27 1 9 3
M  V30 28 1 27 11
M  V30 29 1 18 14
M  V30 30 1 25 19
M  V30 31 1 4 28
M  V30 32 1 5 29
M  V30 33 1 8 30
M  V30 34 1 12 31
M  V30 35 1 12 32
M  V30 36 1 13 33
M  V30 37 1 13 34
M  V30 38 1 16 35
M  V30 39 1 20 36
M  V30 40 1 21 37
M  V30 41 1 24 38
M  V30 42 1 27 39
M  V30 43 1 27 40
M  V30 END BOND
M  V30 END CTAB
M  END
>  <Dataset>  (818) 
ChEMBL_Kinases

>  <Ligand_Instance>  (818) 
nan

>  <PDB_ID>  (818) 
nan

>  <Standardized_SMILES>  (818) 
O=C(c1ccc(F)cc1F)N1CCn2c(cnc2-c2ccc(F)cc2F)C1

>  <Name>  (818) 
nan

>  <Pocket>  (818) 
nan

>  <ATP_Site>  (818) 
nan

>  <Peripheral>  (818) 
nan

>  <Num_H_Atoms_ProtBoundConf>  (818) 
nan

>  <Num_Resolved_Atoms>  (818) 
nan

>  <Num_Not_Resolved_Atoms>  (818) 
nan

$$$$
CHEMBL2440736
     RDKit          3D

  0  0  0  0  0  0  0  0  0  0999 V3000
M  V30 BEGIN CTAB
M  V30 COUNTS 57 60 0 0 0
M  V30 BEGIN ATOM
M  V30 1 N -0.139822 -3.051589 4.269170 0
M  V30 2 C -0.817272 -1.823105 4.700233 0
M  V30 3 C -0.533458 -0.788034 3.693281 0
M  V30 4 C 0.412915 0.157658 4.013383 0
M  V30 5 C 0.733624 1.131748 3.092934 0
M  V30 6 C 0.131589 1.187799 1.854015 0
M  V30 7 C 0.402770 2.175040 0.816344 0
M  V30 8 O -0.118858 2.251356 -0.303057 0
M  V30 9 N 1.361641 3.192009 1.048941 0
M  V30 10 C 1.713143 4.218511 0.102578 0
M  V30 11 C 2.738339 4.003892 -0.795417 0
M  V30 12 C 3.013821 5.051607 -1.678096 0
M  V30 13 N 2.305635 6.211091 -1.644535 0
M  V30 14 C 1.314005 6.355379 -0.739239 0
M  V30 15 C 0.971700 5.378686 0.168894 0
M  V30 16 F -0.033561 5.579580 1.054836 0
M  V30 17 C -0.820825 0.194146 1.599137 0
M  V30 18 C -1.190354 -0.820884 2.492002 0
M  V30 19 C -2.219363 -1.738826 2.044935 0
M  V30 20 C -3.443162 -2.114027 2.551294 0
M  V30 21 C -4.234154 -3.050257 1.925175 0
M  V30 22 C -3.821526 -3.659730 0.741373 0
M  V30 23 C -2.601224 -3.307998 0.204184 0
M  V30 24 C -2.193746 -3.960132 -1.035972 0
M  V30 25 O -2.987254 -4.797901 -1.528937 0
M  V30 26 O -0.990126 -3.642466 -1.603574 0
M  V30 27 C -0.463436 -4.186874 -2.795717 0
M  V30 28 C 0.879794 -4.830804 -2.566474 0
M  V30 29 C 1.814320 -3.833330 -1.918294 0
M  V30 30 C 1.456935 -2.418863 -2.366785 0
M  V30 31 O 0.979778 -2.448558 -3.674723 0
M  V30 32 C -0.265124 -3.049376 -3.770167 0
M  V30 33 C -1.820013 -2.352923 0.865221 0
M  V30 34 H 0.503009 -3.412803 4.980091 0
M  V30 35 H 0.233460 -2.947375 3.314710 0
M  V30 36 H -1.880383 -2.094876 4.779521 0
M  V30 37 H -0.426942 -1.551941 5.705506 0
M  V30 38 H 0.901132 0.141762 4.971373 0
M  V30 39 H 1.473294 1.885746 3.319591 0
M  V30 40 H 1.909784 3.300170 1.928918 0
M  V30 41 H 3.308356 3.085654 -0.831028 0
M  V30 42 H 3.799347 4.978873 -2.419137 0
M  V30 43 H 0.796663 7.306272 -0.775179 0
M  V30 44 H -1.306617 0.229175 0.616158 0
M  V30 45 H -3.697807 -1.587935 3.457740 0
M  V30 46 H -5.169530 -3.252387 2.429260 0
M  V30 47 H -4.486483 -4.389142 0.294204 0
M  V30 48 H -1.129938 -4.928140 -3.263198 0
M  V30 49 H 0.801397 -5.737744 -1.913973 0
M  V30 50 H 1.311767 -5.067899 -3.564346 0
M  V30 51 H 2.864575 -4.056851 -2.198504 0
M  V30 52 H 1.785985 -3.883403 -0.815311 0
M  V30 53 H 2.417344 -1.854786 -2.401391 0
M  V30 54 H 0.807912 -1.898363 -1.658442 0
M  V30 55 H -0.331176 -3.476123 -4.792938 0
M  V30 56 H -1.075357 -2.330775 -3.604705 0
M  V30 57 H -0.884509 -2.183683 0.315225 0
M  V30 END ATOM
M  V30 BEGIN BOND
M  V30 1 1 1 2
M  V30 2 1 2 3
M  V30 3 2 3 4
M  V30 4 1 4 5
M  V30 5 2 5 6
M  V30 6 1 6 7
M  V30 7 2 7 8
M  V30 8 1 7 9
M  V30 9 1 9 10
M  V30 10 2 10 11
M  V30 11 1 11 12
M  V30 12 2 12 13
M  V30 13 1 13 14
M  V30 14 2 14 15
M  V30 15 1 15 16
M  V30 16 1 6 17
M  V30 17 2 17 18
M  V30 18 1 18 19
M  V30 19 2 19 20
M  V30 20 1 20 21
M  V30 21 2 21 22
M  V30 22 1 22 23
M  V30 23 1 23 24
M  V30 24 2 24 25
M  V30 25 1 24 26
M  V30 26 1 26 27
M  V30 27 1 27 28
M  V30 28 1 28 29
M  V30 29 1 29 30
M  V30 30 1 30 31
M  V30 31 1 31 32
M  V30 32 2 23 33
M  V30 33 1 18 3
M  V30 34 1 33 19
M  V30 35 1 15 10
M  V30 36 1 32 27
M  V30 37 1 1 34
M  V30 38 1 1 35
M  V30 39 1 2 36
M  V30 40 1 2 37
M  V30 41 1 4 38
M  V30 42 1 5 39
M  V30 43 1 9 40
M  V30 44 1 11 41
M  V30 45 1 12 42
M  V30 46 1 14 43
M  V30 47 1 17 44
M  V30 48 1 20 45
M  V30 49 1 21 46
M  V30 50 1 22 47
M  V30 51 1 27 48
M  V30 52 1 28 49
M  V30 53 1 28 50
M  V30 54 1 29 51
M  V30 55 1 29 52
M  V30 56 1 30 53
M  V30 57 1 30 54
M  V30 58 1 32 55
M  V30 59 1 32 56
M  V30 60 1 33 57
M  V30 END BOND
M  V30 END CTAB
M  END
>  <Dataset>  (819) 
ChEMBL_Kinases

>  <Ligand_Instance>  (819) 
nan

>  <PDB_ID>  (819) 
nan

>  <Standardized_SMILES>  (819) 
NCc1ccc(C(=O)Nc2ccncc2F)cc1-c1cccc(C(=O)OC2CCCOC2)c1

>  <Name>  (819) 
nan

>  <Pocket>  (819) 
nan

>  <ATP_Site>  (819) 
nan

>  <Peripheral>  (819) 
nan

>  <Num_H_Atoms_ProtBoundConf>  (819) 
nan

>  <Num_Resolved_Atoms>  (819) 
nan

>  <Num_Not_Resolved_Atoms>  (819) 
nan

$$$$
CHEMBL243979
     RDKit          3D

  0  0  0  0  0  0  0  0  0  0999 V3000
M  V30 BEGIN CTAB
M  V30 COUNTS 56 60 0 0 0
M  V30 BEGIN ATOM
M  V30 1 C 5.061807 -2.438724 2.211686 0
M  V30 2 N 3.708414 -1.951143 2.478949 0
M  V30 3 C 3.109423 -2.603452 3.609764 0
M  V30 4 C 3.053089 -0.956796 1.721381 0
M  V30 5 O 1.939359 -0.806831 2.240939 0
M  V30 6 C 3.578974 -0.264636 0.580704 0
M  V30 7 O 4.748159 -0.761822 0.425479 0
M  V30 8 C 3.224259 0.741092 -0.371820 0
M  V30 9 C 4.082843 1.148074 -1.390697 0
M  V30 10 N 3.451582 2.090051 -2.094528 0
M  V30 11 C 2.225329 2.356702 -1.631838 0
M  V30 12 C 1.250237 3.234343 -2.042773 0
M  V30 13 C 0.061679 3.281645 -1.346884 0
M  V30 14 C -0.091030 2.449043 -0.275763 0
M  V30 15 C -1.351198 2.476168 0.489500 0
M  V30 16 O -1.591511 3.223115 1.480462 0
M  V30 17 N -2.362422 1.575959 0.053263 0
M  V30 18 C -2.234553 0.666022 -1.058030 0
M  V30 19 C -3.039930 -0.602930 -0.882254 0
M  V30 20 C -3.348680 -0.871554 0.546416 0
M  V30 21 C -3.672018 0.162423 1.398868 0
M  V30 22 C -3.894857 -0.428858 2.623064 0
M  V30 23 N -3.709711 -1.750096 2.491067 0
M  V30 24 N -3.377821 -2.037145 1.238063 0
M  V30 25 C -3.098144 -3.320491 0.690580 0
M  V30 26 C -1.778065 -3.395613 0.244706 0
M  V30 27 C -1.273888 -4.563901 -0.333051 0
M  V30 28 C -2.125733 -5.661083 -0.454962 0
M  V30 29 C -3.432041 -5.573701 -0.009069 0
M  V30 30 C -3.925581 -4.417121 0.561130 0
M  V30 31 Cl -5.535875 -4.175475 1.158849 0
M  V30 32 C -3.659648 1.482539 0.703462 0
M  V30 33 C 0.913646 1.586591 0.098705 0
M  V30 34 C 2.097551 1.507995 -0.557656 0
M  V30 35 H 5.747566 -1.550845 2.322183 0
M  V30 36 H 5.090155 -2.889417 1.202006 0
M  V30 37 H 5.399314 -3.160248 2.990958 0
M  V30 38 H 3.259239 -3.714628 3.521545 0
M  V30 39 H 3.626346 -2.278218 4.530496 0
M  V30 40 H 2.033094 -2.332955 3.698249 0
M  V30 41 H 5.087380 0.837290 -1.661414 0
M  V30 42 H 3.857044 2.585329 -2.930533 0
M  V30 43 H 1.431947 3.868294 -2.899659 0
M  V30 44 H -0.703023 3.981324 -1.682506 0
M  V30 45 H -2.592016 1.240820 -1.962179 0
M  V30 46 H -1.176513 0.419280 -1.274054 0
M  V30 47 H -4.026565 -0.409269 -1.382806 0
M  V30 48 H -2.528447 -1.468672 -1.358040 0
M  V30 49 H -4.169726 0.214812 3.462165 0
M  V30 50 H -1.033078 -2.601787 0.292133 0
M  V30 51 H -0.261212 -4.659856 -0.688650 0
M  V30 52 H -1.755104 -6.577905 -0.900444 0
M  V30 53 H -4.129444 -6.402638 -0.084263 0
M  V30 54 H -3.805769 2.276659 1.450028 0
M  V30 55 H -4.461290 1.449319 -0.060271 0
M  V30 56 H 0.729960 0.967057 0.940189 0
M  V30 END ATOM
M  V30 BEGIN BOND
M  V30 1 1 1 2
M  V30 2 1 2 3
M  V30 3 1 2 4
M  V30 4 2 4 5
M  V30 5 1 4 6
M  V30 6 2 6 7
M  V30 7 1 6 8
M  V30 8 2 8 9
M  V30 9 1 9 10
M  V30 10 1 10 11
M  V30 11 2 11 12
M  V30 12 1 12 13
M  V30 13 2 13 14
M  V30 14 1 14 15
M  V30 15 2 15 16
M  V30 16 1 15 17
M  V30 17 1 17 18
M  V30 18 1 18 19
M  V30 19 1 19 20
M  V30 20 2 20 21
M  V30 21 1 21 22
M  V30 22 2 22 23
M  V30 23 1 23 24
M  V30 24 1 24 25
M  V30 25 2 25 26
M  V30 26 1 26 27
M  V30 27 2 27 28
M  V30 28 1 28 29
M  V30 29 2 29 30
M  V30 30 1 30 31
M  V30 31 1 21 32
M  V30 32 1 14 33
M  V30 33 2 33 34
M  V30 34 1 34 8
M  V30 35 1 34 11
M  V30 36 1 32 17
M  V30 37 1 24 20
M  V30 38 1 30 25
M  V30 39 1 1 35
M  V30 40 1 1 36
M  V30 41 1 1 37
M  V30 42 1 3 38
M  V30 43 1 3 39
M  V30 44 1 3 40
M  V30 45 1 9 41
M  V30 46 1 10 42
M  V30 47 1 12 43
M  V30 48 1 13 44
M  V30 49 1 18 45
M  V30 50 1 18 46
M  V30 51 1 19 47
M  V30 52 1 19 48
M  V30 53 1 22 49
M  V30 54 1 26 50
M  V30 55 1 27 51
M  V30 56 1 28 52
M  V30 57 1 29 53
M  V30 58 1 32 54
M  V30 59 1 32 55
M  V30 60 1 33 56
M  V30 END BOND
M  V30 END CTAB
M  END
>  <Dataset>  (820) 
ChEMBL_Kinases

>  <Ligand_Instance>  (820) 
nan

>  <PDB_ID>  (820) 
nan

>  <Standardized_SMILES>  (820) 
CN(C)C(=O)C(=O)c1c[nH]c2ccc(C(=O)N3CCc4c(cnn4-c4ccccc4Cl)C3)cc12

>  <Name>  (820) 
nan

>  <Pocket>  (820) 
nan

>  <ATP_Site>  (820) 
nan

>  <Peripheral>  (820) 
nan

>  <Num_H_Atoms_ProtBoundConf>  (820) 
nan

>  <Num_Resolved_Atoms>  (820) 
nan

>  <Num_Not_Resolved_Atoms>  (820) 
nan

$$$$
CHEMBL243980
     RDKit          3D

  0  0  0  0  0  0  0  0  0  0999 V3000
M  V30 BEGIN CTAB
M  V30 COUNTS 60 64 0 0 0
M  V30 BEGIN ATOM
M  V30 1 C -1.128025 -0.174614 7.735829 0
M  V30 2 N -0.329567 -0.903526 6.742246 0
M  V30 3 C 0.154892 -2.193514 7.174050 0
M  V30 4 C -0.041596 -0.398464 5.446509 0
M  V30 5 O 0.652423 -1.254204 4.842446 0
M  V30 6 C -0.438561 0.844586 4.878132 0
M  V30 7 O -1.101099 1.373574 5.835021 0
M  V30 8 C -0.371558 1.661687 3.708518 0
M  V30 9 C -0.959211 2.930529 3.607676 0
M  V30 10 N -0.678552 3.370569 2.385429 0
M  V30 11 C -1.114801 4.675992 1.877483 0
M  V30 12 C 0.040489 2.524363 1.651030 0
M  V30 13 C 0.535147 2.582589 0.365690 0
M  V30 14 C 1.271325 1.513105 -0.142136 0
M  V30 15 Cl 1.916995 1.542534 -1.764093 0
M  V30 16 C 1.488951 0.408267 0.666215 0
M  V30 17 C 2.252831 -0.737131 0.185657 0
M  V30 18 O 3.501626 -0.733317 0.377727 0
M  V30 19 N 1.639071 -1.835395 -0.479413 0
M  V30 20 C 0.209355 -1.825743 -0.694532 0
M  V30 21 C -0.221096 -2.766211 -1.764714 0
M  V30 22 C 0.848039 -2.950868 -2.740189 0
M  V30 23 C 2.176326 -3.048178 -2.394500 0
M  V30 24 N 3.110514 -3.217096 -3.355066 0
M  V30 25 C 2.732568 -3.290274 -4.661551 0
M  V30 26 N 1.415970 -3.194198 -5.008137 0
M  V30 27 C 0.470249 -3.024970 -4.056424 0
M  V30 28 C -0.894729 -2.940117 -4.597599 0
M  V30 29 C -1.912467 -3.759609 -4.167845 0
M  V30 30 C -3.201894 -3.664693 -4.697894 0
M  V30 31 C -3.441193 -2.717980 -5.677193 0
M  V30 32 F -4.689188 -2.618914 -6.197059 0
M  V30 33 C -2.416384 -1.907216 -6.096310 0
M  V30 34 C -1.131113 -1.985247 -5.583725 0
M  V30 35 F -0.131066 -1.178122 -6.006774 0
M  V30 36 C 2.446916 -2.952340 -0.932386 0
M  V30 37 C 0.962130 0.427721 1.935896 0
M  V30 38 C 0.230570 1.449913 2.489920 0
M  V30 39 H -2.165730 0.011642 7.343326 0
M  V30 40 H -0.617112 0.770907 7.997732 0
M  V30 41 H -1.165090 -0.766590 8.659004 0
M  V30 42 H -0.682799 -2.925503 7.232154 0
M  V30 43 H 0.855965 -2.572261 6.398202 0
M  V30 44 H 0.718450 -2.135265 8.123896 0
M  V30 45 H -1.545643 3.516077 4.333450 0
M  V30 46 H -0.203078 5.200444 1.473920 0
M  V30 47 H -1.574569 5.281542 2.658212 0
M  V30 48 H -1.741421 4.487185 0.994756 0
M  V30 49 H 0.344775 3.471796 -0.248241 0
M  V30 50 H -0.233255 -2.185733 0.279078 0
M  V30 51 H -0.201944 -0.804996 -0.856229 0
M  V30 52 H -1.188935 -2.468893 -2.205564 0
M  V30 53 H -0.406074 -3.773614 -1.297984 0
M  V30 54 H 3.552531 -3.426679 -5.357551 0
M  V30 55 H -1.726121 -4.504696 -3.398641 0
M  V30 56 H -3.964429 -4.348078 -4.310729 0
M  V30 57 H -2.654150 -1.178875 -6.867324 0
M  V30 58 H 3.494709 -2.747786 -0.709359 0
M  V30 59 H 2.053860 -3.838484 -0.386856 0
M  V30 60 H 1.152446 -0.440592 2.521684 0
M  V30 END ATOM
M  V30 BEGIN BOND
M  V30 1 1 1 2
M  V30 2 1 2 3
M  V30 3 1 2 4
M  V30 4 2 4 5
M  V30 5 1 4 6
M  V30 6 2 6 7
M  V30 7 1 6 8
M  V30 8 2 8 9
M  V30 9 1 9 10
M  V30 10 1 10 11
M  V30 11 1 10 12
M  V30 12 2 12 13
M  V30 13 1 13 14
M  V30 14 1 14 15
M  V30 15 2 14 16
M  V30 16 1 16 17
M  V30 17 2 17 18
M  V30 18 1 17 19
M  V30 19 1 19 20
M  V30 20 1 20 21
M  V30 21 1 21 22
M  V30 22 2 22 23
M  V30 23 1 23 24
M  V30 24 2 24 25
M  V30 25 1 25 26
M  V30 26 2 26 27
M  V30 27 1 27 28
M  V30 28 2 28 29
M  V30 29 1 29 30
M  V30 30 2 30 31
M  V30 31 1 31 32
M  V30 32 1 31 33
M  V30 33 2 33 34
M  V30 34 1 34 35
M  V30 35 1 23 36
M  V30 36 1 16 37
M  V30 37 2 37 38
M  V30 38 1 38 8
M  V30 39 1 38 12
M  V30 40 1 36 19
M  V30 41 1 27 22
M  V30 42 1 34 28
M  V30 43 1 1 39
M  V30 44 1 1 40
M  V30 45 1 1 41
M  V30 46 1 3 42
M  V30 47 1 3 43
M  V30 48 1 3 44
M  V30 49 1 9 45
M  V30 50 1 11 46
M  V30 51 1 11 47
M  V30 52 1 11 48
M  V30 53 1 13 49
M  V30 54 1 20 50
M  V30 55 1 20 51
M  V30 56 1 21 52
M  V30 57 1 21 53
M  V30 58 1 25 54
M  V30 59 1 29 55
M  V30 60 1 30 56
M  V30 61 1 33 57
M  V30 62 1 36 58
M  V30 63 1 36 59
M  V30 64 1 37 60
M  V30 END BOND
M  V30 END CTAB
M  END
>  <Dataset>  (821) 
ChEMBL_Kinases

>  <Ligand_Instance>  (821) 
nan

>  <PDB_ID>  (821) 
nan

>  <Standardized_SMILES>  (821) 
CN(C)C(=O)C(=O)c1cn(C)c2cc(Cl)c(C(=O)N3CCc4c(ncnc4-c4ccc(F)cc4F)C3)cc12

>  <Name>  (821) 
nan

>  <Pocket>  (821) 
nan

>  <ATP_Site>  (821) 
nan

>  <Peripheral>  (821) 
nan

>  <Num_H_Atoms_ProtBoundConf>  (821) 
nan

>  <Num_Resolved_Atoms>  (821) 
nan

>  <Num_Not_Resolved_Atoms>  (821) 
nan

$$$$
CHEMBL2440730
     RDKit          3D

  0  0  0  0  0  0  0  0  0  0999 V3000
M  V30 BEGIN CTAB
M  V30 COUNTS 53 56 0 0 0
M  V30 BEGIN ATOM
M  V30 1 N -3.087707 1.976293 2.938801 0
M  V30 2 C -1.874785 1.855221 3.770435 0
M  V30 3 C -0.741164 1.349507 2.962531 0
M  V30 4 C 0.269475 2.180103 2.525699 0
M  V30 5 C 1.351985 1.808459 1.758499 0
M  V30 6 C 1.449050 0.486053 1.383699 0
M  V30 7 C 2.519906 -0.086875 0.576573 0
M  V30 8 O 2.654083 -1.283046 0.205898 0
M  V30 9 N 3.565046 0.758445 0.125691 0
M  V30 10 C 4.719535 0.568350 -0.641705 0
M  V30 11 C 4.594690 0.732497 -2.022554 0
M  V30 12 C 5.708732 0.557522 -2.844862 0
M  V30 13 N 6.923187 0.228252 -2.332172 0
M  V30 14 C 7.009746 0.077516 -0.998959 0
M  V30 15 C 5.962073 0.232642 -0.127146 0
M  V30 16 F 6.082716 0.073591 1.216753 0
M  V30 17 C 0.438445 -0.379863 1.812519 0
M  V30 18 C -0.654271 0.024206 2.594313 0
M  V30 19 C -1.580251 -1.005094 2.956861 0
M  V30 20 C -2.076185 -1.467290 4.156831 0
M  V30 21 C -3.004033 -2.482515 4.227743 0
M  V30 22 C -3.504012 -3.110931 3.105849 0
M  V30 23 C -3.023123 -2.668224 1.878863 0
M  V30 24 C -3.553056 -3.333613 0.695375 0
M  V30 25 O -4.397981 -4.252348 0.838808 0
M  V30 26 O -3.108009 -2.932137 -0.556978 0
M  V30 27 C -3.580018 -3.534545 -1.748042 0
M  V30 28 C -2.929877 -2.904130 -2.953266 0
M  V30 29 C -1.440520 -3.010517 -3.004628 0
M  V30 30 C -2.094208 -1.645284 -2.743012 0
M  V30 31 C -2.089086 -1.645252 1.814999 0
M  V30 32 H -3.691408 2.669375 3.431814 0
M  V30 33 H -2.867820 2.319109 1.989993 0
M  V30 34 H -1.619220 2.912354 4.035555 0
M  V30 35 H -2.151035 1.258612 4.628113 0
M  V30 36 H 0.238853 3.243074 2.796436 0
M  V30 37 H 2.121621 2.486474 1.437142 0
M  V30 38 H 3.651805 1.779653 0.316430 0
M  V30 39 H 3.643399 0.996442 -2.488190 0
M  V30 40 H 5.642778 0.678319 -3.916254 0
M  V30 41 H 7.986681 -0.185796 -0.600311 0
M  V30 42 H 0.521347 -1.437030 1.509323 0
M  V30 43 H -1.654330 -0.966452 5.002762 0
M  V30 44 H -3.316019 -2.754288 5.243238 0
M  V30 45 H -4.220989 -3.886954 3.277051 0
M  V30 46 H -4.689140 -3.441131 -1.852230 0
M  V30 47 H -3.338293 -4.629439 -1.742677 0
M  V30 48 H -3.451806 -3.008953 -3.930476 0
M  V30 49 H -0.895838 -3.479664 -2.148147 0
M  V30 50 H -0.931558 -3.152849 -3.976582 0
M  V30 51 H -2.069062 -1.247351 -1.707605 0
M  V30 52 H -2.022593 -0.920363 -3.586556 0
M  V30 53 H -1.811691 -1.414112 0.775360 0
M  V30 END ATOM
M  V30 BEGIN BOND
M  V30 1 1 1 2
M  V30 2 1 2 3
M  V30 3 2 3 4
M  V30 4 1 4 5
M  V30 5 2 5 6
M  V30 6 1 6 7
M  V30 7 2 7 8
M  V30 8 1 7 9
M  V30 9 1 9 10
M  V30 10 2 10 11
M  V30 11 1 11 12
M  V30 12 2 12 13
M  V30 13 1 13 14
M  V30 14 2 14 15
M  V30 15 1 15 16
M  V30 16 1 6 17
M  V30 17 2 17 18
M  V30 18 1 18 19
M  V30 19 2 19 20
M  V30 20 1 20 21
M  V30 21 2 21 22
M  V30 22 1 22 23
M  V30 23 1 23 24
M  V30 24 2 24 25
M  V30 25 1 24 26
M  V30 26 1 26 27
M  V30 27 1 27 28
M  V30 28 1 28 29
M  V30 29 1 29 30
M  V30 30 2 23 31
M  V30 31 1 18 3
M  V30 32 1 31 19
M  V30 33 1 15 10
M  V30 34 1 30 28
M  V30 35 1 1 32
M  V30 36 1 1 33
M  V30 37 1 2 34
M  V30 38 1 2 35
M  V30 39 1 4 36
M  V30 40 1 5 37
M  V30 41 1 9 38
M  V30 42 1 11 39
M  V30 43 1 12 40
M  V30 44 1 14 41
M  V30 45 1 17 42
M  V30 46 1 20 43
M  V30 47 1 21 44
M  V30 48 1 22 45
M  V30 49 1 27 46
M  V30 50 1 27 47
M  V30 51 1 28 48
M  V30 52 1 29 49
M  V30 53 1 29 50
M  V30 54 1 30 51
M  V30 55 1 30 52
M  V30 56 1 31 53
M  V30 END BOND
M  V30 END CTAB
M  END
>  <Dataset>  (822) 
ChEMBL_Kinases

>  <Ligand_Instance>  (822) 
nan

>  <PDB_ID>  (822) 
nan

>  <Standardized_SMILES>  (822) 
NCc1ccc(C(=O)Nc2ccncc2F)cc1-c1cccc(C(=O)OCC2CC2)c1

>  <Name>  (822) 
nan

>  <Pocket>  (822) 
nan

>  <ATP_Site>  (822) 
nan

>  <Peripheral>  (822) 
nan

>  <Num_H_Atoms_ProtBoundConf>  (822) 
nan

>  <Num_Resolved_Atoms>  (822) 
nan

>  <Num_Not_Resolved_Atoms>  (822) 
nan

$$$$
CHEMBL2440731
     RDKit          3D

  0  0  0  0  0  0  0  0  0  0999 V3000
M  V30 BEGIN CTAB
M  V30 COUNTS 56 59 0 0 0
M  V30 BEGIN ATOM
M  V30 1 N 1.059652 -3.832721 4.486164 0
M  V30 2 C 0.672304 -2.585095 5.135561 0
M  V30 3 C 0.962399 -1.414328 4.283359 0
M  V30 4 C 2.043507 -0.633077 4.561227 0
M  V30 5 C 2.351785 0.452064 3.770796 0
M  V30 6 C 1.551080 0.743075 2.687871 0
M  V30 7 C 1.911940 1.896776 1.876180 0
M  V30 8 O 2.923893 2.566092 2.202046 0
M  V30 9 N 1.216957 2.347110 0.729300 0
M  V30 10 C 1.777668 3.502027 0.114043 0
M  V30 11 C 2.729793 3.244508 -0.866196 0
M  V30 12 C 3.293071 4.367186 -1.483451 0
M  V30 13 N 2.923010 5.605947 -1.135898 0
M  V30 14 C 1.996097 5.783568 -0.179491 0
M  V30 15 C 1.366861 4.754823 0.503544 0
M  V30 16 C 0.474877 -0.067924 2.445690 0
M  V30 17 C 0.123438 -1.179241 3.220731 0
M  V30 18 C -1.069496 -1.884509 2.794702 0
M  V30 19 C -2.228911 -2.241866 3.404631 0
M  V30 20 C -3.224110 -2.943596 2.783483 0
M  V30 21 C -3.101096 -3.334342 1.473391 0
M  V30 22 C -1.940886 -2.998840 0.795670 0
M  V30 23 C -1.843071 -3.426560 -0.590553 0
M  V30 24 O -2.765249 -4.062920 -1.107389 0
M  V30 25 O -0.717443 -3.102213 -1.277328 0
M  V30 26 C -0.378696 -3.387476 -2.601001 0
M  V30 27 C -1.340904 -2.814472 -3.576071 0
M  V30 28 C -2.420670 -3.510090 -4.074901 0
M  V30 29 C -3.325351 -2.958919 -4.985992 0
M  V30 30 C -3.069313 -1.656893 -5.362293 0
M  V30 31 C -2.022578 -0.871837 -4.927101 0
M  V30 32 C -1.168712 -1.500286 -4.020077 0
M  V30 33 C -0.960037 -2.291602 1.455212 0
M  V30 34 H 1.572771 -3.649301 3.596147 0
M  V30 35 H 1.632887 -4.429812 5.139603 0
M  V30 36 H -0.383051 -2.664507 5.413605 0
M  V30 37 H 1.263958 -2.511056 6.083155 0
M  V30 38 H 2.663141 -0.879433 5.420297 0
M  V30 39 H 3.229205 1.051019 4.031687 0
M  V30 40 H 0.376757 1.819505 0.430592 0
M  V30 41 H 3.012129 2.229912 -1.128487 0
M  V30 42 H 4.033157 4.215606 -2.246994 0
M  V30 43 H 1.735923 6.818046 0.060827 0
M  V30 44 H 0.623863 4.909227 1.269458 0
M  V30 45 H -0.116239 0.212936 1.579271 0
M  V30 46 H -2.312936 -1.918547 4.410094 0
M  V30 47 H -4.096852 -3.162942 3.389554 0
M  V30 48 H -3.927740 -3.890803 1.033705 0
M  V30 49 H -0.229756 -4.473479 -2.788853 0
M  V30 50 H 0.586558 -2.877494 -2.800111 0
M  V30 51 H -2.606316 -4.529976 -3.776622 0
M  V30 52 H -4.170340 -3.512407 -5.372753 0
M  V30 53 H -3.775441 -1.225926 -6.073459 0
M  V30 54 H -1.877010 0.133014 -5.256420 0
M  V30 55 H -0.315233 -0.940809 -3.630580 0
M  V30 56 H -0.097741 -2.093009 0.803271 0
M  V30 END ATOM
M  V30 BEGIN BOND
M  V30 1 1 1 2
M  V30 2 1 2 3
M  V30 3 2 3 4
M  V30 4 1 4 5
M  V30 5 2 5 6
M  V30 6 1 6 7
M  V30 7 2 7 8
M  V30 8 1 7 9
M  V30 9 1 9 10
M  V30 10 2 10 11
M  V30 11 1 11 12
M  V30 12 2 12 13
M  V30 13 1 13 14
M  V30 14 2 14 15
M  V30 15 1 6 16
M  V30 16 2 16 17
M  V30 17 1 17 18
M  V30 18 2 18 19
M  V30 19 1 19 20
M  V30 20 2 20 21
M  V30 21 1 21 22
M  V30 22 1 22 23
M  V30 23 2 23 24
M  V30 24 1 23 25
M  V30 25 1 25 26
M  V30 26 1 26 27
M  V30 27 2 27 28
M  V30 28 1 28 29
M  V30 29 2 29 30
M  V30 30 1 30 31
M  V30 31 2 31 32
M  V30 32 2 22 33
M  V30 33 1 17 3
M  V30 34 1 33 18
M  V30 35 1 15 10
M  V30 36 1 32 27
M  V30 37 1 1 34
M  V30 38 1 1 35
M  V30 39 1 2 36
M  V30 40 1 2 37
M  V30 41 1 4 38
M  V30 42 1 5 39
M  V30 43 1 9 40
M  V30 44 1 11 41
M  V30 45 1 12 42
M  V30 46 1 14 43
M  V30 47 1 15 44
M  V30 48 1 16 45
M  V30 49 1 19 46
M  V30 50 1 20 47
M  V30 51 1 21 48
M  V30 52 1 26 49
M  V30 53 1 26 50
M  V30 54 1 28 51
M  V30 55 1 29 52
M  V30 56 1 30 53
M  V30 57 1 31 54
M  V30 58 1 32 55
M  V30 59 1 33 56
M  V30 END BOND
M  V30 END CTAB
M  END
>  <Dataset>  (823) 
ChEMBL_Kinases

>  <Ligand_Instance>  (823) 
nan

>  <PDB_ID>  (823) 
nan

>  <Standardized_SMILES>  (823) 
NCc1ccc(C(=O)Nc2ccncc2)cc1-c1cccc(C(=O)OCc2ccccc2)c1

>  <Name>  (823) 
nan

>  <Pocket>  (823) 
nan

>  <ATP_Site>  (823) 
nan

>  <Peripheral>  (823) 
nan

>  <Num_H_Atoms_ProtBoundConf>  (823) 
nan

>  <Num_Resolved_Atoms>  (823) 
nan

>  <Num_Not_Resolved_Atoms>  (823) 
nan

$$$$
CHEMBL2440732
     RDKit          3D

  0  0  0  0  0  0  0  0  0  0999 V3000
M  V30 BEGIN CTAB
M  V30 COUNTS 53 55 0 0 0
M  V30 BEGIN ATOM
M  V30 1 C -0.186893 -2.282942 4.981077 0
M  V30 2 O 0.844148 -1.401349 4.685804 0
M  V30 3 C 2.100201 -1.980041 4.802634 0
M  V30 4 C 3.200277 -0.970627 4.466796 0
M  V30 5 O 2.961069 -0.567179 3.131876 0
M  V30 6 C 3.702579 0.330515 2.415089 0
M  V30 7 O 4.687971 0.841239 3.005344 0
M  V30 8 C 3.407339 0.708332 1.037275 0
M  V30 9 C 4.264580 1.628589 0.470367 0
M  V30 10 C 3.999404 1.996125 -0.833219 0
M  V30 11 C 2.943093 1.488478 -1.554875 0
M  V30 12 C 2.080725 0.569988 -1.003093 0
M  V30 13 C 0.921224 -0.143141 -1.513575 0
M  V30 14 C -0.251860 0.026513 -0.765299 0
M  V30 15 C -1.466765 -0.541422 -1.085505 0
M  V30 16 C -2.635774 -0.309554 -0.249061 0
M  V30 17 O -2.532641 0.415026 0.773351 0
M  V30 18 N -3.899497 -0.877961 -0.549844 0
M  V30 19 C -5.106423 -0.725040 0.186109 0
M  V30 20 C -6.046146 0.280875 -0.028686 0
M  V30 21 C -7.166194 0.281947 0.778393 0
M  V30 22 N -7.365985 -0.644178 1.744496 0
M  V30 23 C -6.438732 -1.618422 1.940207 0
M  V30 24 C -5.272412 -1.699421 1.170677 0
M  V30 25 C -1.516931 -1.323722 -2.216021 0
M  V30 26 C -0.384506 -1.492404 -2.944857 0
M  V30 27 C 0.846856 -0.930470 -2.639878 0
M  V30 28 C 2.059126 -1.154759 -3.444462 0
M  V30 29 N 2.958375 -2.103878 -2.797084 0
M  V30 30 C 2.354141 0.201837 0.317581 0
M  V30 31 H -0.218295 -3.174404 4.329160 0
M  V30 32 H -1.136688 -1.722033 4.783768 0
M  V30 33 H -0.183651 -2.508311 6.065376 0
M  V30 34 H 2.248609 -2.357228 5.844302 0
M  V30 35 H 2.148387 -2.855661 4.141874 0
M  V30 36 H 4.161595 -1.518448 4.573137 0
M  V30 37 H 3.194053 -0.160309 5.199146 0
M  V30 38 H 5.125991 2.107666 0.911465 0
M  V30 39 H 4.591908 2.710569 -1.402298 0
M  V30 40 H 2.679224 1.748251 -2.567865 0
M  V30 41 H -0.247426 0.643703 0.141609 0
M  V30 42 H -4.055954 -1.488265 -1.380871 0
M  V30 43 H -5.835198 0.984203 -0.805429 0
M  V30 44 H -7.907740 1.059954 0.622884 0
M  V30 45 H -6.584153 -2.381189 2.722352 0
M  V30 46 H -4.580870 -2.487015 1.371095 0
M  V30 47 H -2.427356 -1.806087 -2.540024 0
M  V30 48 H -0.410893 -2.115102 -3.850551 0
M  V30 49 H 2.648849 -0.276425 -3.680935 0
M  V30 50 H 1.694755 -1.680555 -4.379905 0
M  V30 51 H 2.728509 -2.293257 -1.815144 0
M  V30 52 H 3.118353 -2.936358 -3.401540 0
M  V30 53 H 1.773705 -0.510634 0.904384 0
M  V30 END ATOM
M  V30 BEGIN BOND
M  V30 1 1 1 2
M  V30 2 1 2 3
M  V30 3 1 3 4
M  V30 4 1 4 5
M  V30 5 1 5 6
M  V30 6 2 6 7
M  V30 7 1 6 8
M  V30 8 2 8 9
M  V30 9 1 9 10
M  V30 10 2 10 11
M  V30 11 1 11 12
M  V30 12 1 12 13
M  V30 13 2 13 14
M  V30 14 1 14 15
M  V30 15 1 15 16
M  V30 16 2 16 17
M  V30 17 1 16 18
M  V30 18 1 18 19
M  V30 19 2 19 20
M  V30 20 1 20 21
M  V30 21 2 21 22
M  V30 22 1 22 23
M  V30 23 2 23 24
M  V30 24 2 15 25
M  V30 25 1 25 26
M  V30 26 2 26 27
M  V30 27 1 27 28
M  V30 28 1 28 29
M  V30 29 2 12 30
M  V30 30 1 30 8
M  V30 31 1 27 13
M  V30 32 1 24 19
M  V30 33 1 1 31
M  V30 34 1 1 32
M  V30 35 1 1 33
M  V30 36 1 3 34
M  V30 37 1 3 35
M  V30 38 1 4 36
M  V30 39 1 4 37
M  V30 40 1 9 38
M  V30 41 1 10 39
M  V30 42 1 11 40
M  V30 43 1 14 41
M  V30 44 1 18 42
M  V30 45 1 20 43
M  V30 46 1 21 44
M  V30 47 1 23 45
M  V30 48 1 24 46
M  V30 49 1 25 47
M  V30 50 1 26 48
M  V30 51 1 28 49
M  V30 52 1 28 50
M  V30 53 1 29 51
M  V30 54 1 29 52
M  V30 55 1 30 53
M  V30 END BOND
M  V30 END CTAB
M  END
>  <Dataset>  (824) 
ChEMBL_Kinases

>  <Ligand_Instance>  (824) 
nan

>  <PDB_ID>  (824) 
nan

>  <Standardized_SMILES>  (824) 
COCCOC(=O)c1cccc(-c2cc(C(=O)Nc3ccncc3)ccc2CN)c1

>  <Name>  (824) 
nan

>  <Pocket>  (824) 
nan

>  <ATP_Site>  (824) 
nan

>  <Peripheral>  (824) 
nan

>  <Num_H_Atoms_ProtBoundConf>  (824) 
nan

>  <Num_Resolved_Atoms>  (824) 
nan

>  <Num_Not_Resolved_Atoms>  (824) 
nan

$$$$
CHEMBL2440733
     RDKit          3D

  0  0  0  0  0  0  0  0  0  0999 V3000
M  V30 BEGIN CTAB
M  V30 COUNTS 56 58 0 0 0
M  V30 BEGIN ATOM
M  V30 1 C 1.062639 -1.742081 2.897565 0
M  V30 2 O 2.136779 -2.429361 2.303118 0
M  V30 3 C 3.186200 -2.576139 3.196914 0
M  V30 4 C 3.825703 -1.334029 3.690902 0
M  V30 5 C 4.480793 -0.456127 2.660075 0
M  V30 6 O 3.554930 -0.069201 1.697295 0
M  V30 7 C 3.828064 0.849054 0.686818 0
M  V30 8 O 5.013352 1.130167 0.963694 0
M  V30 9 C 2.882874 1.270965 -0.331187 0
M  V30 10 C 3.336139 2.334736 -1.082503 0
M  V30 11 C 2.483107 2.834391 -2.069549 0
M  V30 12 C 1.245026 2.223713 -2.225369 0
M  V30 13 C 0.816877 1.158443 -1.465606 0
M  V30 14 C -0.461196 0.477577 -1.558738 0
M  V30 15 C -1.149842 -0.006716 -0.469462 0
M  V30 16 C -2.408743 -0.620173 -0.581900 0
M  V30 17 C -3.038242 -1.138068 0.618607 0
M  V30 18 O -2.850602 -0.949373 1.828804 0
M  V30 19 N -4.119895 -2.096408 0.492971 0
M  V30 20 C -4.523240 -2.449735 1.822389 0
M  V30 21 C -5.495152 -1.939954 2.673148 0
M  V30 22 C -5.588044 -2.536005 3.902837 0
M  V30 23 N -4.790884 -3.573053 4.303693 0
M  V30 24 C -3.832247 -4.085319 3.476367 0
M  V30 25 C -3.708546 -3.511401 2.232563 0
M  V30 26 C -2.923887 -0.710193 -1.835144 0
M  V30 27 C -2.250796 -0.231290 -2.940860 0
M  V30 28 C -0.976881 0.383607 -2.831895 0
M  V30 29 C -0.460039 0.626399 -4.190035 0
M  V30 30 N -0.529125 -0.592853 -5.054632 0
M  V30 31 C 1.671945 0.680523 -0.492616 0
M  V30 32 H 0.208676 -1.611842 2.184937 0
M  V30 33 H 0.634124 -2.335579 3.736352 0
M  V30 34 H 1.419365 -0.737342 3.176548 0
M  V30 35 H 3.977745 -3.175556 2.690525 0
M  V30 36 H 2.851855 -3.244231 4.068762 0
M  V30 37 H 3.141355 -0.643995 4.264835 0
M  V30 38 H 4.581452 -1.627778 4.497019 0
M  V30 39 H 5.349469 -0.999359 2.233722 0
M  V30 40 H 4.832467 0.497047 3.164854 0
M  V30 41 H 4.282742 2.841263 -0.994430 0
M  V30 42 H 2.795054 3.663203 -2.670124 0
M  V30 43 H 0.571899 2.651808 -2.978730 0
M  V30 44 H -0.621438 0.152051 0.452872 0
M  V30 45 H -4.510179 -2.451665 -0.436905 0
M  V30 46 H -6.046735 -1.136667 2.228035 0
M  V30 47 H -6.340674 -2.140014 4.560447 0
M  V30 48 H -3.247557 -4.903551 3.887626 0
M  V30 49 H -2.910873 -4.026235 1.686469 0
M  V30 50 H -3.894042 -1.178278 -1.875902 0
M  V30 51 H -2.826896 -0.401510 -3.876926 0
M  V30 52 H -0.899309 1.446286 -4.749339 0
M  V30 53 H 0.673993 0.808323 -4.159895 0
M  V30 54 H -1.438084 -0.502580 -5.624446 0
M  V30 55 H 0.228619 -0.513304 -5.791671 0
M  V30 56 H 1.393409 -0.158459 0.129945 0
M  V30 END ATOM
M  V30 BEGIN BOND
M  V30 1 1 1 2
M  V30 2 1 2 3
M  V30 3 1 3 4
M  V30 4 1 4 5
M  V30 5 1 5 6
M  V30 6 1 6 7
M  V30 7 2 7 8
M  V30 8 1 7 9
M  V30 9 2 9 10
M  V30 10 1 10 11
M  V30 11 2 11 12
M  V30 12 1 12 13
M  V30 13 1 13 14
M  V30 14 2 14 15
M  V30 15 1 15 16
M  V30 16 1 16 17
M  V30 17 2 17 18
M  V30 18 1 17 19
M  V30 19 1 19 20
M  V30 20 2 20 21
M  V30 21 1 21 22
M  V30 22 2 22 23
M  V30 23 1 23 24
M  V30 24 2 24 25
M  V30 25 2 16 26
M  V30 26 1 26 27
M  V30 27 2 27 28
M  V30 28 1 28 29
M  V30 29 1 29 30
M  V30 30 2 13 31
M  V30 31 1 31 9
M  V30 32 1 28 14
M  V30 33 1 25 20
M  V30 34 1 1 32
M  V30 35 1 1 33
M  V30 36 1 1 34
M  V30 37 1 3 35
M  V30 38 1 3 36
M  V30 39 1 4 37
M  V30 40 1 4 38
M  V30 41 1 5 39
M  V30 42 1 5 40
M  V30 43 1 10 41
M  V30 44 1 11 42
M  V30 45 1 12 43
M  V30 46 1 15 44
M  V30 47 1 19 45
M  V30 48 1 21 46
M  V30 49 1 22 47
M  V30 50 1 24 48
M  V30 51 1 25 49
M  V30 52 1 26 50
M  V30 53 1 27 51
M  V30 54 1 29 52
M  V30 55 1 29 53
M  V30 56 1 30 54
M  V30 57 1 30 55
M  V30 58 1 31 56
M  V30 END BOND
M  V30 END CTAB
M  END
>  <Dataset>  (825) 
ChEMBL_Kinases

>  <Ligand_Instance>  (825) 
nan

>  <PDB_ID>  (825) 
nan

>  <Standardized_SMILES>  (825) 
COCCCOC(=O)c1cccc(-c2cc(C(=O)Nc3ccncc3)ccc2CN)c1

>  <Name>  (825) 
nan

>  <Pocket>  (825) 
nan

>  <ATP_Site>  (825) 
nan

>  <Peripheral>  (825) 
nan

>  <Num_H_Atoms_ProtBoundConf>  (825) 
nan

>  <Num_Resolved_Atoms>  (825) 
nan

>  <Num_Not_Resolved_Atoms>  (825) 
nan

$$$$
CHEMBL2440734
     RDKit          3D

  0  0  0  0  0  0  0  0  0  0999 V3000
M  V30 BEGIN CTAB
M  V30 COUNTS 59 61 0 0 0
M  V30 BEGIN ATOM
M  V30 1 C 3.556433 -2.474392 4.291796 0
M  V30 2 C 3.523696 -1.924802 2.885674 0
M  V30 3 C 2.497626 -2.721197 2.104737 0
M  V30 4 O 3.295953 -0.578533 2.826657 0
M  V30 5 C 4.304196 0.180197 2.260015 0
M  V30 6 C 3.920966 1.667227 2.257051 0
M  V30 7 O 2.737915 1.742503 1.493104 0
M  V30 8 C 2.060854 2.920441 1.247468 0
M  V30 9 O 2.592244 3.929686 1.767146 0
M  V30 10 C 0.836734 3.066661 0.467924 0
M  V30 11 C 0.338083 4.347315 0.359020 0
M  V30 12 C -0.818409 4.498013 -0.375502 0
M  V30 13 C -1.461755 3.444436 -0.978617 0
M  V30 14 C -0.981580 2.159338 -0.883502 0
M  V30 15 C -1.415183 0.878761 -1.414231 0
M  V30 16 C -1.600992 -0.152320 -0.483651 0
M  V30 17 C -2.021958 -1.431977 -0.777175 0
M  V30 18 C -2.181549 -2.422306 0.255419 0
M  V30 19 O -1.927631 -2.111163 1.448798 0
M  V30 20 N -2.618404 -3.740145 -0.039553 0
M  V30 21 C -2.818760 -4.811600 0.872396 0
M  V30 22 C -4.096202 -4.897924 1.415761 0
M  V30 23 C -4.435337 -5.899750 2.325178 0
M  V30 24 N -3.515874 -6.809375 2.693730 0
M  V30 25 C -2.273070 -6.741338 2.177613 0
M  V30 26 C -1.903652 -5.764213 1.276269 0
M  V30 27 F -0.675616 -5.646659 0.726618 0
M  V30 28 C -2.275186 -1.693761 -2.107827 0
M  V30 29 C -2.097069 -0.690732 -3.035417 0
M  V30 30 C -1.672720 0.595717 -2.734434 0
M  V30 31 C -1.486772 1.621560 -3.776414 0
M  V30 32 N -0.063172 1.817098 -4.050641 0
M  V30 33 C 0.196199 1.999535 -0.136079 0
M  V30 34 H 3.906199 -1.676577 4.988604 0
M  V30 35 H 2.514349 -2.688209 4.615041 0
M  V30 36 H 4.121307 -3.412658 4.371022 0
M  V30 37 H 4.539091 -2.098495 2.430607 0
M  V30 38 H 1.798987 -2.022119 1.594641 0
M  V30 39 H 1.904171 -3.364690 2.764308 0
M  V30 40 H 2.977190 -3.311543 1.282511 0
M  V30 41 H 4.422816 -0.157926 1.209866 0
M  V30 42 H 5.278369 0.070348 2.750559 0
M  V30 43 H 3.809215 2.020074 3.301425 0
M  V30 44 H 4.767798 2.234597 1.835977 0
M  V30 45 H 0.744062 5.255557 0.781326 0
M  V30 46 H -1.310565 5.466435 -0.533624 0
M  V30 47 H -2.372177 3.494454 -1.552237 0
M  V30 48 H -1.403404 0.044104 0.574327 0
M  V30 49 H -2.845943 -4.067683 -1.000193 0
M  V30 50 H -4.900389 -4.194528 1.165248 0
M  V30 51 H -5.439446 -5.945776 2.734874 0
M  V30 52 H -1.502778 -7.467515 2.457633 0
M  V30 53 H -2.609467 -2.664248 -2.442482 0
M  V30 54 H -2.303819 -0.914716 -4.094364 0
M  V30 55 H -2.043597 2.534719 -3.628971 0
M  V30 56 H -1.907716 1.180922 -4.735032 0
M  V30 57 H 0.309228 0.873849 -4.332183 0
M  V30 58 H -0.027663 2.393010 -4.936268 0
M  V30 59 H 0.723041 1.047375 0.047605 0
M  V30 END ATOM
M  V30 BEGIN BOND
M  V30 1 1 1 2
M  V30 2 1 2 3
M  V30 3 1 2 4
M  V30 4 1 4 5
M  V30 5 1 5 6
M  V30 6 1 6 7
M  V30 7 1 7 8
M  V30 8 2 8 9
M  V30 9 1 8 10
M  V30 10 2 10 11
M  V30 11 1 11 12
M  V30 12 2 12 13
M  V30 13 1 13 14
M  V30 14 1 14 15
M  V30 15 2 15 16
M  V30 16 1 16 17
M  V30 17 1 17 18
M  V30 18 2 18 19
M  V30 19 1 18 20
M  V30 20 1 20 21
M  V30 21 2 21 22
M  V30 22 1 22 23
M  V30 23 2 23 24
M  V30 24 1 24 25
M  V30 25 2 25 26
M  V30 26 1 26 27
M  V30 27 2 17 28
M  V30 28 1 28 29
M  V30 29 2 29 30
M  V30 30 1 30 31
M  V30 31 1 31 32
M  V30 32 2 14 33
M  V30 33 1 33 10
M  V30 34 1 30 15
M  V30 35 1 26 21
M  V30 36 1 1 34
M  V30 37 1 1 35
M  V30 38 1 1 36
M  V30 39 1 2 37
M  V30 40 1 3 38
M  V30 41 1 3 39
M  V30 42 1 3 40
M  V30 43 1 5 41
M  V30 44 1 5 42
M  V30 45 1 6 43
M  V30 46 1 6 44
M  V30 47 1 11 45
M  V30 48 1 12 46
M  V30 49 1 13 47
M  V30 50 1 16 48
M  V30 51 1 20 49
M  V30 52 1 22 50
M  V30 53 1 23 51
M  V30 54 1 25 52
M  V30 55 1 28 53
M  V30 56 1 29 54
M  V30 57 1 31 55
M  V30 58 1 31 56
M  V30 59 1 32 57
M  V30 60 1 32 58
M  V30 61 1 33 59
M  V30 END BOND
M  V30 END CTAB
M  END
>  <Dataset>  (826) 
ChEMBL_Kinases

>  <Ligand_Instance>  (826) 
nan

>  <PDB_ID>  (826) 
nan

>  <Standardized_SMILES>  (826) 
CC(C)OCCOC(=O)c1cccc(-c2cc(C(=O)Nc3ccncc3F)ccc2CN)c1

>  <Name>  (826) 
nan

>  <Pocket>  (826) 
nan

>  <ATP_Site>  (826) 
nan

>  <Peripheral>  (826) 
nan

>  <Num_H_Atoms_ProtBoundConf>  (826) 
nan

>  <Num_Resolved_Atoms>  (826) 
nan

>  <Num_Not_Resolved_Atoms>  (826) 
nan

$$$$
CHEMBL2440735
     RDKit          3D

  0  0  0  0  0  0  0  0  0  0999 V3000
M  V30 BEGIN CTAB
M  V30 COUNTS 50 52 0 0 0
M  V30 BEGIN ATOM
M  V30 1 N -1.027699 -2.227710 4.158131 0
M  V30 2 C 0.061995 -2.766334 3.363511 0
M  V30 3 C 0.896975 -1.651513 2.864369 0
M  V30 4 C 2.108578 -1.335276 3.441978 0
M  V30 5 C 2.901390 -0.273220 3.012336 0
M  V30 6 C 2.420124 0.485091 1.947927 0
M  V30 7 C 3.263143 1.596278 1.514907 0
M  V30 8 O 4.330364 1.809607 2.132795 0
M  V30 9 N 2.991254 2.476995 0.443295 0
M  V30 10 C 3.847947 3.541700 0.067748 0
M  V30 11 C 3.742177 4.829407 0.588965 0
M  V30 12 C 4.617275 5.809856 0.168840 0
M  V30 13 N 5.575451 5.560665 -0.733680 0
M  V30 14 C 5.708190 4.328916 -1.259163 0
M  V30 15 C 4.853827 3.304156 -0.871733 0
M  V30 16 F 5.012444 2.076227 -1.417840 0
M  V30 17 C 1.209025 0.165527 1.372958 0
M  V30 18 C 0.417887 -0.905677 1.811599 0
M  V30 19 C -0.795497 -1.067841 1.036573 0
M  V30 20 C -1.593549 0.083080 1.033097 0
M  V30 21 C -2.795602 0.131081 0.327554 0
M  V30 22 C -3.218896 -0.981512 -0.390013 0
M  V30 23 C -2.448362 -2.123441 -0.399589 0
M  V30 24 C -2.794861 -3.365336 -1.124804 0
M  V30 25 O -2.046580 -4.357158 -1.085362 0
M  V30 26 O -3.964314 -3.321305 -1.812448 0
M  V30 27 C -4.575749 -4.314396 -2.586512 0
M  V30 28 C -4.943244 -5.492568 -1.723438 0
M  V30 29 O -3.883370 -6.103066 -1.090301 0
M  V30 30 C -1.275097 -2.104649 0.315725 0
M  V30 31 H -1.556966 -1.558293 3.554510 0
M  V30 32 H -1.675848 -3.023500 4.352937 0
M  V30 33 H -0.407505 -3.348354 2.557700 0
M  V30 34 H 0.695017 -3.456087 3.964018 0
M  V30 35 H 2.436312 -1.959764 4.269825 0
M  V30 36 H 3.829488 -0.118795 3.537106 0
M  V30 37 H 2.110188 2.329374 -0.095878 0
M  V30 38 H 2.967149 5.031112 1.319758 0
M  V30 39 H 4.557884 6.816418 0.557026 0
M  V30 40 H 6.470945 4.094132 -1.990069 0
M  V30 41 H 0.924267 0.817449 0.551544 0
M  V30 42 H -1.343351 1.010181 1.568129 0
M  V30 43 H -3.429240 1.003427 0.306209 0
M  V30 44 H -4.132595 -1.007671 -0.950643 0
M  V30 45 H -3.856375 -4.684405 -3.359689 0
M  V30 46 H -5.461812 -3.889016 -3.082130 0
M  V30 47 H -5.642838 -5.170962 -0.894035 0
M  V30 48 H -5.568608 -6.234733 -2.299348 0
M  V30 49 H -3.950483 -6.115252 -0.104384 0
M  V30 50 H -0.659331 -2.984277 0.299254 0
M  V30 END ATOM
M  V30 BEGIN BOND
M  V30 1 1 1 2
M  V30 2 1 2 3
M  V30 3 2 3 4
M  V30 4 1 4 5
M  V30 5 2 5 6
M  V30 6 1 6 7
M  V30 7 2 7 8
M  V30 8 1 7 9
M  V30 9 1 9 10
M  V30 10 2 10 11
M  V30 11 1 11 12
M  V30 12 2 12 13
M  V30 13 1 13 14
M  V30 14 2 14 15
M  V30 15 1 15 16
M  V30 16 1 6 17
M  V30 17 2 17 18
M  V30 18 1 18 19
M  V30 19 2 19 20
M  V30 20 1 20 21
M  V30 21 2 21 22
M  V30 22 1 22 23
M  V30 23 1 23 24
M  V30 24 2 24 25
M  V30 25 1 24 26
M  V30 26 1 26 27
M  V30 27 1 27 28
M  V30 28 1 28 29
M  V30 29 2 23 30
M  V30 30 1 18 3
M  V30 31 1 30 19
M  V30 32 1 15 10
M  V30 33 1 1 31
M  V30 34 1 1 32
M  V30 35 1 2 33
M  V30 36 1 2 34
M  V30 37 1 4 35
M  V30 38 1 5 36
M  V30 39 1 9 37
M  V30 40 1 11 38
M  V30 41 1 12 39
M  V30 42 1 14 40
M  V30 43 1 17 41
M  V30 44 1 20 42
M  V30 45 1 21 43
M  V30 46 1 22 44
M  V30 47 1 27 45
M  V30 48 1 27 46
M  V30 49 1 28 47
M  V30 50 1 28 48
M  V30 51 1 29 49
M  V30 52 1 30 50
M  V30 END BOND
M  V30 END CTAB
M  END
>  <Dataset>  (827) 
ChEMBL_Kinases

>  <Ligand_Instance>  (827) 
nan

>  <PDB_ID>  (827) 
nan

>  <Standardized_SMILES>  (827) 
NCc1ccc(C(=O)Nc2ccncc2F)cc1-c1cccc(C(=O)OCCO)c1

>  <Name>  (827) 
nan

>  <Pocket>  (827) 
nan

>  <ATP_Site>  (827) 
nan

>  <Peripheral>  (827) 
nan

>  <Num_H_Atoms_ProtBoundConf>  (827) 
nan

>  <Num_Resolved_Atoms>  (827) 
nan

>  <Num_Not_Resolved_Atoms>  (827) 
nan

$$$$
CHEMBL243963
     RDKit          3D

  0  0  0  0  0  0  0  0  0  0999 V3000
M  V30 BEGIN CTAB
M  V30 COUNTS 59 63 0 0 0
M  V30 BEGIN ATOM
M  V30 1 C 5.679758 1.959253 4.850630 0
M  V30 2 N 4.799784 0.814754 4.618677 0
M  V30 3 C 5.352692 -0.412489 5.144288 0
M  V30 4 C 3.549358 0.885347 3.957306 0
M  V30 5 O 3.099939 -0.284932 3.953649 0
M  V30 6 C 2.927412 2.031237 3.410976 0
M  V30 7 O 3.759496 2.972752 3.658167 0
M  V30 8 C 1.764553 2.479201 2.720786 0
M  V30 9 C 1.525958 3.794145 2.344351 0
M  V30 10 N 0.343747 3.832000 1.724756 0
M  V30 11 C -0.256986 5.056066 1.178313 0
M  V30 12 C -0.251765 2.632839 1.646907 0
M  V30 13 C -1.452935 2.237547 1.100140 0
M  V30 14 C -1.790689 0.903314 1.181006 0
M  V30 15 Cl -3.309892 0.383537 0.497063 0
M  V30 16 C -0.933790 0.015921 1.795099 0
M  V30 17 C -1.270816 -1.420757 1.890407 0
M  V30 18 O -1.920731 -1.788502 2.902718 0
M  V30 19 N -0.858509 -2.315420 0.860130 0
M  V30 20 C -0.123528 -2.127247 -0.360283 0
M  V30 21 C -1.135407 -2.224478 -1.520955 0
M  V30 22 N -1.784823 -3.502285 -1.393346 0
M  V30 23 C -1.824907 -4.219933 -0.268800 0
M  V30 24 C -2.471813 -5.414887 -0.431754 0
M  V30 25 N -2.822251 -5.377595 -1.720344 0
M  V30 26 C -2.424265 -4.251533 -2.302598 0
M  V30 27 C -2.744759 -4.123707 -3.712782 0
M  V30 28 C -3.106351 -5.215820 -4.478037 0
M  V30 29 C -3.457196 -5.184611 -5.810137 0
M  V30 30 C -3.464801 -3.998568 -6.478651 0
M  V30 31 F -3.809851 -3.984654 -7.782813 0
M  V30 32 C -3.115717 -2.866653 -5.778061 0
M  V30 33 C -2.776064 -2.966321 -4.449296 0
M  V30 34 F -2.504346 -1.772246 -3.916833 0
M  V30 35 C -1.224049 -3.714382 1.020161 0
M  V30 36 C 0.246438 0.494711 2.315085 0
M  V30 37 C 0.652666 1.807210 2.274082 0
M  V30 38 H 5.979792 2.444036 3.882243 0
M  V30 39 H 6.603857 1.673442 5.419801 0
M  V30 40 H 5.167444 2.731367 5.446561 0
M  V30 41 H 6.178636 -0.813211 4.519451 0
M  V30 42 H 4.600630 -1.230725 5.195937 0
M  V30 43 H 5.758594 -0.226533 6.169026 0
M  V30 44 H 2.132406 4.706283 2.483015 0
M  V30 45 H -0.513699 4.858850 0.110586 0
M  V30 46 H 0.458288 5.889108 1.163414 0
M  V30 47 H -1.213654 5.311857 1.676256 0
M  V30 48 H -2.104718 2.939572 0.627680 0
M  V30 49 H 0.378463 -1.132798 -0.399664 0
M  V30 50 H 0.585962 -2.939022 -0.498544 0
M  V30 51 H -0.493948 -2.170335 -2.437368 0
M  V30 52 H -1.789000 -1.349114 -1.410866 0
M  V30 53 H -2.657770 -6.203593 0.301546 0
M  V30 54 H -3.137035 -6.231611 -4.048441 0
M  V30 55 H -3.727674 -6.082346 -6.343345 0
M  V30 56 H -3.133744 -1.945688 -6.341589 0
M  V30 57 H -0.272407 -4.259717 1.190342 0
M  V30 58 H -1.871539 -3.884361 1.883420 0
M  V30 59 H 0.874426 -0.233211 2.780080 0
M  V30 END ATOM
M  V30 BEGIN BOND
M  V30 1 1 1 2
M  V30 2 1 2 3
M  V30 3 1 2 4
M  V30 4 2 4 5
M  V30 5 1 4 6
M  V30 6 2 6 7
M  V30 7 1 6 8
M  V30 8 2 8 9
M  V30 9 1 9 10
M  V30 10 1 10 11
M  V30 11 1 10 12
M  V30 12 2 12 13
M  V30 13 1 13 14
M  V30 14 1 14 15
M  V30 15 2 14 16
M  V30 16 1 16 17
M  V30 17 2 17 18
M  V30 18 1 17 19
M  V30 19 1 19 20
M  V30 20 1 20 21
M  V30 21 1 21 22
M  V30 22 1 22 23
M  V30 23 2 23 24
M  V30 24 1 24 25
M  V30 25 2 25 26
M  V30 26 1 26 27
M  V30 27 2 27 28
M  V30 28 1 28 29
M  V30 29 2 29 30
M  V30 30 1 30 31
M  V30 31 1 30 32
M  V30 32 2 32 33
M  V30 33 1 33 34
M  V30 34 1 23 35
M  V30 35 1 16 36
M  V30 36 2 36 37
M  V30 37 1 37 8
M  V30 38 1 37 12
M  V30 39 1 35 19
M  V30 40 1 26 22
M  V30 41 1 33 27
M  V30 42 1 1 38
M  V30 43 1 1 39
M  V30 44 1 1 40
M  V30 45 1 3 41
M  V30 46 1 3 42
M  V30 47 1 3 43
M  V30 48 1 9 44
M  V30 49 1 11 45
M  V30 50 1 11 46
M  V30 51 1 11 47
M  V30 52 1 13 48
M  V30 53 1 20 49
M  V30 54 1 20 50
M  V30 55 1 21 51
M  V30 56 1 21 52
M  V30 57 1 24 53
M  V30 58 1 28 54
M  V30 59 1 29 55
M  V30 60 1 32 56
M  V30 61 1 35 57
M  V30 62 1 35 58
M  V30 63 1 36 59
M  V30 END BOND
M  V30 END CTAB
M  END
>  <Dataset>  (828) 
ChEMBL_Kinases

>  <Ligand_Instance>  (828) 
nan

>  <PDB_ID>  (828) 
nan

>  <Standardized_SMILES>  (828) 
CN(C)C(=O)C(=O)c1cn(C)c2cc(Cl)c(C(=O)N3CCn4c(cnc4-c4ccc(F)cc4F)C3)cc12

>  <Name>  (828) 
nan

>  <Pocket>  (828) 
nan

>  <ATP_Site>  (828) 
nan

>  <Peripheral>  (828) 
nan

>  <Num_H_Atoms_ProtBoundConf>  (828) 
nan

>  <Num_Resolved_Atoms>  (828) 
nan

>  <Num_Not_Resolved_Atoms>  (828) 
nan

$$$$
CHEMBL244142
     RDKit          3D

  0  0  0  0  0  0  0  0  0  0999 V3000
M  V30 BEGIN CTAB
M  V30 COUNTS 48 52 0 0 0
M  V30 BEGIN ATOM
M  V30 1 C 0.125605 -0.564741 4.877730 0
M  V30 2 C 1.537051 -0.557050 4.292810 0
M  V30 3 C 1.998195 -1.999514 4.370785 0
M  V30 4 C 2.402157 0.276914 5.182179 0
M  V30 5 C 1.551568 -0.182227 2.877067 0
M  V30 6 O 1.997247 -0.944090 1.951360 0
M  V30 7 O 1.270745 0.754709 1.876006 0
M  V30 8 C 1.602429 0.363227 0.580085 0
M  V30 9 C 2.976233 0.456580 0.375646 0
M  V30 10 C 3.479146 0.096068 -0.880966 0
M  V30 11 C 2.569333 -0.336535 -1.855951 0
M  V30 12 O 3.183237 -0.648811 -3.005666 0
M  V30 13 C 1.219057 -0.424519 -1.645363 0
M  V30 14 C 0.359299 -0.852684 -2.634854 0
M  V30 15 C -0.982053 -0.903083 -2.326578 0
M  V30 16 C -1.445959 -0.543683 -1.091944 0
M  V30 17 C -2.699152 -0.506352 -0.573331 0
M  V30 18 C -3.974800 -0.781117 -0.972273 0
M  V30 19 C -5.120186 -0.653201 -0.220651 0
M  V30 20 C -4.998095 -0.195360 1.095999 0
M  V30 21 C -3.729674 0.091657 1.533588 0
M  V30 22 C -2.609251 -0.061571 0.715093 0
M  V30 23 N -1.299811 0.182610 1.012149 0
M  V30 24 C -0.599706 -0.114203 -0.093923 0
M  V30 25 C 0.739683 -0.065947 -0.404077 0
M  V30 26 C -1.605036 -1.379729 -3.540606 0
M  V30 27 O -2.787360 -1.616306 -3.844147 0
M  V30 28 N -0.640840 -1.609876 -4.559953 0
M  V30 29 C 0.649939 -1.275408 -4.000269 0
M  V30 30 O 1.664072 -1.387747 -4.683874 0
M  V30 31 H -0.482693 -1.196034 4.192539 0
M  V30 32 H -0.266466 0.454943 4.999407 0
M  V30 33 H 0.181916 -1.136427 5.841915 0
M  V30 34 H 1.529828 -2.530117 5.224329 0
M  V30 35 H 3.105162 -2.084432 4.379276 0
M  V30 36 H 1.618037 -2.514139 3.464407 0
M  V30 37 H 2.377636 -0.193684 6.187112 0
M  V30 38 H 2.014979 1.302963 5.303923 0
M  V30 39 H 3.435875 0.232537 4.811566 0
M  V30 40 H 3.701761 0.792318 1.125310 0
M  V30 41 H 4.559821 0.172449 -1.032837 0
M  V30 42 H 3.763543 -0.011204 -3.556319 0
M  V30 43 H -4.180130 -1.134630 -1.952875 0
M  V30 44 H -6.118588 -0.879783 -0.567045 0
M  V30 45 H -5.859996 -0.077293 1.726224 0
M  V30 46 H -3.674054 0.446376 2.566352 0
M  V30 47 H -1.010995 0.531210 1.935406 0
M  V30 48 H -0.784684 -1.960278 -5.560032 0
M  V30 END ATOM
M  V30 BEGIN BOND
M  V30 1 1 1 2
M  V30 2 1 2 3
M  V30 3 1 2 4
M  V30 4 1 2 5
M  V30 5 2 5 6
M  V30 6 1 5 7
M  V30 7 1 7 8
M  V30 8 2 8 9
M  V30 9 1 9 10
M  V30 10 2 10 11
M  V30 11 1 11 12
M  V30 12 1 11 13
M  V30 13 2 13 14
M  V30 14 1 14 15
M  V30 15 2 15 16
M  V30 16 1 16 17
M  V30 17 2 17 18
M  V30 18 1 18 19
M  V30 19 2 19 20
M  V30 20 1 20 21
M  V30 21 2 21 22
M  V30 22 1 22 23
M  V30 23 1 23 24
M  V30 24 2 24 25
M  V30 25 1 15 26
M  V30 26 2 26 27
M  V30 27 1 26 28
M  V30 28 1 28 29
M  V30 29 2 29 30
M  V30 30 1 25 8
M  V30 31 1 25 13
M  V30 32 1 29 14
M  V30 33 1 24 16
M  V30 34 1 22 17
M  V30 35 1 1 31
M  V30 36 1 1 32
M  V30 37 1 1 33
M  V30 38 1 3 34
M  V30 39 1 3 35
M  V30 40 1 3 36
M  V30 41 1 4 37
M  V30 42 1 4 38
M  V30 43 1 4 39
M  V30 44 1 9 40
M  V30 45 1 10 41
M  V30 46 1 12 42
M  V30 47 1 18 43
M  V30 48 1 19 44
M  V30 49 1 20 45
M  V30 50 1 21 46
M  V30 51 1 23 47
M  V30 52 1 28 48
M  V30 END BOND
M  V30 END CTAB
M  END
>  <Dataset>  (829) 
ChEMBL_Kinases

>  <Ligand_Instance>  (829) 
nan

>  <PDB_ID>  (829) 
nan

>  <Standardized_SMILES>  (829) 
CC(C)(C)C(=O)Oc1ccc(O)c2c3c(c4c5ccccc5[nH]c4c12)C(=O)NC3=O

>  <Name>  (829) 
nan

>  <Pocket>  (829) 
nan

>  <ATP_Site>  (829) 
nan

>  <Peripheral>  (829) 
nan

>  <Num_H_Atoms_ProtBoundConf>  (829) 
nan

>  <Num_Resolved_Atoms>  (829) 
nan

>  <Num_Not_Resolved_Atoms>  (829) 
nan

$$$$
CHEMBL244141
     RDKit          3D

  0  0  0  0  0  0  0  0  0  0999 V3000
M  V30 BEGIN CTAB
M  V30 COUNTS 37 41 0 0 0
M  V30 BEGIN ATOM
M  V30 1 C 0.197097 -5.903641 1.464996 0
M  V30 2 C 0.252785 -4.649334 0.670377 0
M  V30 3 C 0.344372 -4.770970 -0.705034 0
M  V30 4 C 0.396137 -3.610251 -1.443616 0
M  V30 5 C 0.356929 -2.355646 -0.816846 0
M  V30 6 N 0.397983 -1.117893 -1.392707 0
M  V30 7 C 0.332999 -0.223276 -0.391380 0
M  V30 8 C 0.334782 1.150531 -0.374955 0
M  V30 9 C 0.416608 1.798708 -1.580114 0
M  V30 10 O 0.498528 1.230596 -2.824683 0
M  V30 11 C 0.424137 3.191829 -1.649292 0
M  V30 12 C 0.346184 3.925358 -0.458936 0
M  V30 13 C 0.265285 3.189572 0.729621 0
M  V30 14 O 0.195105 4.027591 1.806816 0
M  V30 15 C 0.256916 1.828497 0.812388 0
M  V30 16 C 0.174893 1.173082 2.020140 0
M  V30 17 C 0.173060 -0.189379 2.004787 0
M  V30 18 C 0.250549 -0.866571 0.823119 0
M  V30 19 C 0.266066 -2.200833 0.548762 0
M  V30 20 C 0.218877 -3.387622 1.217984 0
M  V30 21 C 0.079738 -0.586591 3.389603 0
M  V30 22 O 0.039729 -1.693996 3.953887 0
M  V30 23 N 0.025863 0.556252 4.232210 0
M  V30 24 C 0.086257 1.704557 3.363987 0
M  V30 25 O 0.055046 2.853932 3.867517 0
M  V30 26 H -0.225918 -5.586260 2.460752 0
M  V30 27 H 1.196411 -6.310687 1.704234 0
M  V30 28 H -0.516508 -6.644061 1.068428 0
M  V30 29 H 0.374765 -5.731979 -1.190497 0
M  V30 30 H 0.467421 -3.733784 -2.515023 0
M  V30 31 H 0.467275 -0.999326 -2.426682 0
M  V30 32 H -0.335450 1.198007 -3.383039 0
M  V30 33 H 0.487831 3.770437 -2.585059 0
M  V30 34 H 0.353045 5.011111 -0.527780 0
M  V30 35 H 0.839642 4.799457 1.998603 0
M  V30 36 H 0.148110 -3.409284 2.277116 0
M  V30 37 H -0.044900 0.605442 5.293287 0
M  V30 END ATOM
M  V30 BEGIN BOND
M  V30 1 1 1 2
M  V30 2 2 2 3
M  V30 3 1 3 4
M  V30 4 2 4 5
M  V30 5 1 5 6
M  V30 6 1 6 7
M  V30 7 2 7 8
M  V30 8 1 8 9
M  V30 9 1 9 10
M  V30 10 2 9 11
M  V30 11 1 11 12
M  V30 12 2 12 13
M  V30 13 1 13 14
M  V30 14 1 13 15
M  V30 15 2 15 16
M  V30 16 1 16 17
M  V30 17 2 17 18
M  V30 18 1 18 19
M  V30 19 2 19 20
M  V30 20 1 17 21
M  V30 21 2 21 22
M  V30 22 1 21 23
M  V30 23 1 23 24
M  V30 24 2 24 25
M  V30 25 1 20 2
M  V30 26 1 19 5
M  V30 27 1 18 7
M  V30 28 1 15 8
M  V30 29 1 24 16
M  V30 30 1 1 26
M  V30 31 1 1 27
M  V30 32 1 1 28
M  V30 33 1 3 29
M  V30 34 1 4 30
M  V30 35 1 6 31
M  V30 36 1 10 32
M  V30 37 1 11 33
M  V30 38 1 12 34
M  V30 39 1 14 35
M  V30 40 1 20 36
M  V30 41 1 23 37
M  V30 END BOND
M  V30 END CTAB
M  END
>  <Dataset>  (830) 
ChEMBL_Kinases

>  <Ligand_Instance>  (830) 
nan

>  <PDB_ID>  (830) 
nan

>  <Standardized_SMILES>  (830) 
Cc1ccc2[nH]c3c4c(O)ccc(O)c4c4c(c3c2c1)C(=O)NC4=O

>  <Name>  (830) 
nan

>  <Pocket>  (830) 
nan

>  <ATP_Site>  (830) 
nan

>  <Peripheral>  (830) 
nan

>  <Num_H_Atoms_ProtBoundConf>  (830) 
nan

>  <Num_Resolved_Atoms>  (830) 
nan

>  <Num_Not_Resolved_Atoms>  (830) 
nan

$$$$
CHEMBL244140
     RDKit          3D

  0  0  0  0  0  0  0  0  0  0999 V3000
M  V30 BEGIN CTAB
M  V30 COUNTS 34 38 0 0 0
M  V30 BEGIN ATOM
M  V30 1 O 2.603044 -3.825011 2.147779 0
M  V30 2 C 1.524577 -3.207166 2.008884 0
M  V30 3 N 0.341164 -3.686519 2.665681 0
M  V30 4 C -0.700073 -2.788880 2.321041 0
M  V30 5 O -1.825022 -3.031186 2.796201 0
M  V30 6 C -0.217248 -1.735242 1.453113 0
M  V30 7 C 1.119109 -2.020665 1.289480 0
M  V30 8 C 1.846033 -1.163965 0.492909 0
M  V30 9 C 3.185822 -1.347208 0.256905 0
M  V30 10 O 3.911442 -2.390759 0.789336 0
M  V30 11 C 3.981475 -0.536248 -0.526357 0
M  V30 12 C 3.377248 0.568749 -1.134751 0
M  V30 13 C 2.030948 0.771943 -0.910929 0
M  V30 14 O 1.551707 1.894711 -1.565715 0
M  V30 15 C 1.277490 -0.067237 -0.119401 0
M  V30 16 C -0.063335 0.203410 0.055780 0
M  V30 17 N -0.854012 1.199062 -0.425484 0
M  V30 18 C -2.095981 0.950793 0.085650 0
M  V30 19 C -3.258363 1.701261 -0.123164 0
M  V30 20 C -4.449143 1.326838 0.462255 0
M  V30 21 C -4.439469 0.178248 1.262719 0
M  V30 22 C -3.249636 -0.498074 1.412230 0
M  V30 23 C -2.049910 -0.184035 0.866596 0
M  V30 24 C -0.784010 -0.653695 0.850932 0
M  V30 25 H 0.305091 -4.547860 3.277736 0
M  V30 26 H 4.280052 -3.055686 0.094735 0
M  V30 27 H 5.048607 -0.685147 -0.712275 0
M  V30 28 H 4.003473 1.213463 -1.755721 0
M  V30 29 H 1.627829 2.818396 -1.128316 0
M  V30 30 H -0.644903 2.000945 -1.042994 0
M  V30 31 H -3.295527 2.586516 -0.732027 0
M  V30 32 H -5.345686 1.900937 0.304503 0
M  V30 33 H -5.379860 -0.090631 1.706290 0
M  V30 34 H -3.364540 -1.343545 2.034619 0
M  V30 END ATOM
M  V30 BEGIN BOND
M  V30 1 2 1 2
M  V30 2 1 2 3
M  V30 3 1 3 4
M  V30 4 2 4 5
M  V30 5 1 4 6
M  V30 6 2 6 7
M  V30 7 1 7 8
M  V30 8 2 8 9
M  V30 9 1 9 10
M  V30 10 1 9 11
M  V30 11 2 11 12
M  V30 12 1 12 13
M  V30 13 1 13 14
M  V30 14 2 13 15
M  V30 15 1 15 16
M  V30 16 1 16 17
M  V30 17 1 17 18
M  V30 18 2 18 19
M  V30 19 1 19 20
M  V30 20 2 20 21
M  V30 21 1 21 22
M  V30 22 2 22 23
M  V30 23 1 23 24
M  V30 24 1 7 2
M  V30 25 1 15 8
M  V30 26 2 24 16
M  V30 27 1 24 6
M  V30 28 1 23 18
M  V30 29 1 3 25
M  V30 30 1 10 26
M  V30 31 1 11 27
M  V30 32 1 12 28
M  V30 33 1 14 29
M  V30 34 1 17 30
M  V30 35 1 19 31
M  V30 36 1 20 32
M  V30 37 1 21 33
M  V30 38 1 22 34
M  V30 END BOND
M  V30 END CTAB
M  END
>  <Dataset>  (831) 
ChEMBL_Kinases

>  <Ligand_Instance>  (831) 
nan

>  <PDB_ID>  (831) 
nan

>  <Standardized_SMILES>  (831) 
O=C1NC(=O)c2c1c1c(O)ccc(O)c1c1[nH]c3ccccc3c21

>  <Name>  (831) 
nan

>  <Pocket>  (831) 
nan

>  <ATP_Site>  (831) 
nan

>  <Peripheral>  (831) 
nan

>  <Num_H_Atoms_ProtBoundConf>  (831) 
nan

>  <Num_Resolved_Atoms>  (831) 
nan

>  <Num_Not_Resolved_Atoms>  (831) 
nan

$$$$
CHEMBL2441345
     RDKit          3D

  0  0  0  0  0  0  0  0  0  0999 V3000
M  V30 BEGIN CTAB
M  V30 COUNTS 53 57 0 0 0
M  V30 BEGIN ATOM
M  V30 1 C 0.380057 0.802678 6.264636 0
M  V30 2 C 1.601428 0.340967 5.544495 0
M  V30 3 C 2.947452 0.405871 5.833886 0
M  V30 4 C 3.554746 -0.200227 4.765706 0
M  V30 5 C 5.040369 -0.304772 4.752998 0
M  V30 6 N 2.604189 -0.606857 3.881125 0
M  V30 7 C 2.978480 -1.284774 2.653390 0
M  V30 8 C 3.209974 -0.354632 1.527397 0
M  V30 9 O 4.394754 0.114597 1.592678 0
M  V30 10 N 2.400349 0.079001 0.456010 0
M  V30 11 C 2.822513 1.010451 -0.598900 0
M  V30 12 C 2.154106 0.443112 -1.835382 0
M  V30 13 C 0.861992 -0.049199 -1.258513 0
M  V30 14 C -0.367013 -0.305900 -1.828591 0
M  V30 15 C -1.439401 -0.754502 -1.079508 0
M  V30 16 C -2.768801 -1.076447 -1.577884 0
M  V30 17 C -3.917879 -0.486994 -1.034679 0
M  V30 18 N -5.024185 -0.933969 -1.691369 0
M  V30 19 C -6.412715 -0.581580 -1.454125 0
M  V30 20 C -4.644166 -1.799518 -2.650324 0
M  V30 21 N -5.209452 -2.565984 -3.603085 0
M  V30 22 C -4.472161 -3.361692 -4.427570 0
M  V30 23 N -3.112597 -3.434784 -4.342430 0
M  V30 24 C -2.493079 -2.677425 -3.393531 0
M  V30 25 N -1.081678 -2.824178 -3.364273 0
M  V30 26 C -3.273872 -1.887242 -2.582093 0
M  V30 27 C -1.216572 -0.933872 0.282977 0
M  V30 28 C 0.012155 -0.685542 0.898555 0
M  V30 29 C 1.043472 -0.241022 0.099330 0
M  V30 30 N 1.428367 -0.270670 4.369469 0
M  V30 31 H -0.308212 -0.055484 6.372660 0
M  V30 32 H -0.065332 1.642693 5.673179 0
M  V30 33 H 0.628711 1.121172 7.307858 0
M  V30 34 H 3.299667 0.872253 6.758619 0
M  V30 35 H 5.531208 0.653093 4.581250 0
M  V30 36 H 5.317631 -1.111585 4.047569 0
M  V30 37 H 5.391099 -0.649750 5.769679 0
M  V30 38 H 2.176222 -2.017979 2.353192 0
M  V30 39 H 3.888804 -1.896293 2.833454 0
M  V30 40 H 3.913681 1.028205 -0.726097 0
M  V30 41 H 2.391775 1.993489 -0.320502 0
M  V30 42 H 2.743558 -0.326389 -2.326960 0
M  V30 43 H 1.898771 1.314645 -2.481683 0
M  V30 44 H -0.525802 -0.159114 -2.865334 0
M  V30 45 H -4.033115 0.208750 -0.240897 0
M  V30 46 H -6.813669 -1.189352 -0.590566 0
M  V30 47 H -6.497676 0.472434 -1.113679 0
M  V30 48 H -7.010280 -0.685899 -2.371746 0
M  V30 49 H -5.096744 -3.915372 -5.142689 0
M  V30 50 H -0.447898 -2.686210 -4.191875 0
M  V30 51 H -0.931901 -3.085922 -2.343948 0
M  V30 52 H -2.033540 -1.288191 0.929990 0
M  V30 53 H 0.168275 -0.828071 1.955735 0
M  V30 END ATOM
M  V30 BEGIN BOND
M  V30 1 1 1 2
M  V30 2 1 2 3
M  V30 3 2 3 4
M  V30 4 1 4 5
M  V30 5 1 4 6
M  V30 6 1 6 7
M  V30 7 1 7 8
M  V30 8 2 8 9
M  V30 9 1 8 10
M  V30 10 1 10 11
M  V30 11 1 11 12
M  V30 12 1 12 13
M  V30 13 2 13 14
M  V30 14 1 14 15
M  V30 15 1 15 16
M  V30 16 2 16 17
M  V30 17 1 17 18
M  V30 18 1 18 19
M  V30 19 1 18 20
M  V30 20 2 20 21
M  V30 21 1 21 22
M  V30 22 2 22 23
M  V30 23 1 23 24
M  V30 24 1 24 25
M  V30 25 2 24 26
M  V30 26 2 15 27
M  V30 27 1 27 28
M  V30 28 2 28 29
M  V30 29 1 6 30
M  V30 30 2 30 2
M  V30 31 1 29 10
M  V30 32 1 29 13
M  V30 33 1 26 16
M  V30 34 1 26 20
M  V30 35 1 1 31
M  V30 36 1 1 32
M  V30 37 1 1 33
M  V30 38 1 3 34
M  V30 39 1 5 35
M  V30 40 1 5 36
M  V30 41 1 5 37
M  V30 42 1 7 38
M  V30 43 1 7 39
M  V30 44 1 11 40
M  V30 45 1 11 41
M  V30 46 1 12 42
M  V30 47 1 12 43
M  V30 48 1 14 44
M  V30 49 1 17 45
M  V30 50 1 19 46
M  V30 51 1 19 47
M  V30 52 1 19 48
M  V30 53 1 22 49
M  V30 54 1 25 50
M  V30 55 1 25 51
M  V30 56 1 27 52
M  V30 57 1 28 53
M  V30 END BOND
M  V30 END CTAB
M  END
>  <Dataset>  (832) 
ChEMBL_Kinases

>  <Ligand_Instance>  (832) 
nan

>  <PDB_ID>  (832) 
nan

>  <Standardized_SMILES>  (832) 
Cc1cc(C)n(CC(=O)N2CCc3cc(-c4cn(C)c5ncnc(N)c45)ccc32)n1

>  <Name>  (832) 
nan

>  <Pocket>  (832) 
nan

>  <ATP_Site>  (832) 
nan

>  <Peripheral>  (832) 
nan

>  <Num_H_Atoms_ProtBoundConf>  (832) 
nan

>  <Num_Resolved_Atoms>  (832) 
nan

>  <Num_Not_Resolved_Atoms>  (832) 
nan

$$$$
CHEMBL2441344
     RDKit          3D

  0  0  0  0  0  0  0  0  0  0999 V3000
M  V30 BEGIN CTAB
M  V30 COUNTS 50 54 0 0 0
M  V30 BEGIN ATOM
M  V30 1 C 0.629521 1.021804 -2.360841 0
M  V30 2 C 1.794077 1.772589 -2.878516 0
M  V30 3 C 1.780079 2.922748 -3.649960 0
M  V30 4 C 3.092720 3.270423 -3.892604 0
M  V30 5 N 3.852843 2.357574 -3.286396 0
M  V30 6 N 3.084837 1.464880 -2.682351 0
M  V30 7 C 3.606444 0.313631 -1.929337 0
M  V30 8 C 3.786207 0.609769 -0.519165 0
M  V30 9 O 4.915889 1.172637 -0.302131 0
M  V30 10 N 3.059291 0.448840 0.671671 0
M  V30 11 C 3.395627 0.878829 2.037280 0
M  V30 12 C 2.067046 1.368848 2.584318 0
M  V30 13 C 1.105875 0.337032 2.051072 0
M  V30 14 C -0.129409 -0.181392 2.373131 0
M  V30 15 C -0.745552 -1.172326 1.635233 0
M  V30 16 C -2.062349 -1.665070 2.028502 0
M  V30 17 C -3.204342 -0.904288 2.217416 0
M  V30 18 N -4.191928 -1.786896 2.545202 0
M  V30 19 C -5.551918 -1.318889 2.814216 0
M  V30 20 C -3.735696 -3.049450 2.572749 0
M  V30 21 N -4.411584 -4.199777 2.860142 0
M  V30 22 C -3.665263 -5.341414 2.812277 0
M  V30 23 N -2.334905 -5.379641 2.504069 0
M  V30 24 C -1.740826 -4.184334 2.230661 0
M  V30 25 N -0.361163 -4.238346 1.933531 0
M  V30 26 C -2.391013 -2.975848 2.247305 0
M  V30 27 C -0.109139 -1.687653 0.507790 0
M  V30 28 C 1.126242 -1.165134 0.191493 0
M  V30 29 C 1.773808 -0.160231 0.922844 0
M  V30 30 H 0.469647 1.235733 -1.283126 0
M  V30 31 H -0.316536 1.327546 -2.867828 0
M  V30 32 H 0.781413 -0.059393 -2.570772 0
M  V30 33 H 0.852347 3.412026 -3.971062 0
M  V30 34 H 3.326095 4.153987 -4.488206 0
M  V30 35 H 4.608204 0.045221 -2.375263 0
M  V30 36 H 2.968491 -0.550601 -2.184081 0
M  V30 37 H 4.205621 1.594939 2.088327 0
M  V30 38 H 3.700561 -0.047317 2.565944 0
M  V30 39 H 1.837815 2.380677 2.254759 0
M  V30 40 H 2.074330 1.230501 3.683557 0
M  V30 41 H -0.580503 0.244506 3.246698 0
M  V30 42 H -3.192024 0.162893 2.100595 0
M  V30 43 H -5.528186 -0.323262 3.333807 0
M  V30 44 H -6.017988 -2.037740 3.502353 0
M  V30 45 H -6.119001 -1.161817 1.878616 0
M  V30 46 H -4.146540 -6.295825 3.031062 0
M  V30 47 H 0.244064 -4.617598 1.151936 0
M  V30 48 H 0.275242 -3.805952 2.633517 0
M  V30 49 H -0.556495 -2.462234 -0.120629 0
M  V30 50 H 1.579549 -1.596644 -0.680540 0
M  V30 END ATOM
M  V30 BEGIN BOND
M  V30 1 1 1 2
M  V30 2 2 2 3
M  V30 3 1 3 4
M  V30 4 2 4 5
M  V30 5 1 5 6
M  V30 6 1 6 7
M  V30 7 1 7 8
M  V30 8 2 8 9
M  V30 9 1 8 10
M  V30 10 1 10 11
M  V30 11 1 11 12
M  V30 12 1 12 13
M  V30 13 2 13 14
M  V30 14 1 14 15
M  V30 15 1 15 16
M  V30 16 2 16 17
M  V30 17 1 17 18
M  V30 18 1 18 19
M  V30 19 1 18 20
M  V30 20 2 20 21
M  V30 21 1 21 22
M  V30 22 2 22 23
M  V30 23 1 23 24
M  V30 24 1 24 25
M  V30 25 2 24 26
M  V30 26 2 15 27
M  V30 27 1 27 28
M  V30 28 2 28 29
M  V30 29 1 6 2
M  V30 30 1 29 10
M  V30 31 1 29 13
M  V30 32 1 26 16
M  V30 33 1 26 20
M  V30 34 1 1 30
M  V30 35 1 1 31
M  V30 36 1 1 32
M  V30 37 1 3 33
M  V30 38 1 4 34
M  V30 39 1 7 35
M  V30 40 1 7 36
M  V30 41 1 11 37
M  V30 42 1 11 38
M  V30 43 1 12 39
M  V30 44 1 12 40
M  V30 45 1 14 41
M  V30 46 1 17 42
M  V30 47 1 19 43
M  V30 48 1 19 44
M  V30 49 1 19 45
M  V30 50 1 22 46
M  V30 51 1 25 47
M  V30 52 1 25 48
M  V30 53 1 27 49
M  V30 54 1 28 50
M  V30 END BOND
M  V30 END CTAB
M  END
>  <Dataset>  (833) 
ChEMBL_Kinases

>  <Ligand_Instance>  (833) 
nan

>  <PDB_ID>  (833) 
nan

>  <Standardized_SMILES>  (833) 
Cc1ccnn1CC(=O)N1CCc2cc(-c3cn(C)c4ncnc(N)c34)ccc21

>  <Name>  (833) 
nan

>  <Pocket>  (833) 
nan

>  <ATP_Site>  (833) 
nan

>  <Peripheral>  (833) 
nan

>  <Num_H_Atoms_ProtBoundConf>  (833) 
nan

>  <Num_Resolved_Atoms>  (833) 
nan

>  <Num_Not_Resolved_Atoms>  (833) 
nan

$$$$
CHEMBL2441343
     RDKit          3D

  0  0  0  0  0  0  0  0  0  0999 V3000
M  V30 BEGIN CTAB
M  V30 COUNTS 50 54 0 0 0
M  V30 BEGIN ATOM
M  V30 1 C 0.959197 -2.859906 5.195606 0
M  V30 2 C 1.972646 -2.886467 4.113340 0
M  V30 3 C 2.168383 -3.910312 3.224025 0
M  V30 4 C 3.203492 -3.485661 2.420385 0
M  V30 5 N 3.630942 -2.250952 2.795947 0
M  V30 6 C 4.651139 -1.326118 2.339509 0
M  V30 7 C 4.271497 -0.344752 1.363050 0
M  V30 8 O 5.373957 0.297543 1.176289 0
M  V30 9 N 3.404804 0.337935 0.483822 0
M  V30 10 C 3.559808 1.510371 -0.401918 0
M  V30 11 C 2.327892 2.308564 0.062430 0
M  V30 12 C 1.308675 1.197715 -0.004202 0
M  V30 13 C -0.047933 1.149377 -0.251784 0
M  V30 14 C -0.761607 -0.047134 -0.259311 0
M  V30 15 C -2.182921 0.130815 -0.529930 0
M  V30 16 C -2.954648 1.032041 0.217415 0
M  V30 17 N -4.232967 1.004122 -0.200957 0
M  V30 18 C -5.351958 1.778704 0.303622 0
M  V30 19 C -4.343710 0.116376 -1.202035 0
M  V30 20 N -5.337983 -0.327675 -1.993209 0
M  V30 21 C -5.118983 -1.253066 -2.941652 0
M  V30 22 N -3.877771 -1.768444 -3.127999 0
M  V30 23 C -2.853009 -1.356499 -2.362531 0
M  V30 24 N -1.566269 -1.911202 -2.594925 0
M  V30 25 C -3.100405 -0.408301 -1.396679 0
M  V30 26 C -0.066670 -1.211749 -0.007483 0
M  V30 27 C 1.290076 -1.161934 0.239747 0
M  V30 28 C 2.015693 0.013704 0.251842 0
M  V30 29 N 2.843550 -1.932196 3.835850 0
M  V30 30 H 1.306228 -3.369566 6.113778 0
M  V30 31 H 0.693016 -1.782946 5.398468 0
M  V30 32 H 0.009309 -3.326201 4.871876 0
M  V30 33 H 1.662610 -4.860573 3.120669 0
M  V30 34 H 3.700627 -3.967227 1.576630 0
M  V30 35 H 5.090049 -0.811131 3.248203 0
M  V30 36 H 5.542634 -1.917017 1.951023 0
M  V30 37 H 4.453029 2.068017 -0.087618 0
M  V30 38 H 3.495807 1.229353 -1.448118 0
M  V30 39 H 2.107549 3.063283 -0.713259 0
M  V30 40 H 2.464118 2.699398 1.068819 0
M  V30 41 H -0.490238 2.123064 -0.436181 0
M  V30 42 H -2.604842 1.678210 1.027347 0
M  V30 43 H -5.034709 2.645933 0.916984 0
M  V30 44 H -6.009361 2.162299 -0.523925 0
M  V30 45 H -5.952549 1.126442 0.989036 0
M  V30 46 H -5.891370 -1.628524 -3.589539 0
M  V30 47 H -1.082446 -2.834264 -2.482759 0
M  V30 48 H -0.909331 -1.180828 -2.996678 0
M  V30 49 H -0.655940 -2.114493 -0.012988 0
M  V30 50 H 1.822415 -2.079565 0.429232 0
M  V30 END ATOM
M  V30 BEGIN BOND
M  V30 1 1 1 2
M  V30 2 1 2 3
M  V30 3 2 3 4
M  V30 4 1 4 5
M  V30 5 1 5 6
M  V30 6 1 6 7
M  V30 7 2 7 8
M  V30 8 1 7 9
M  V30 9 1 9 10
M  V30 10 1 10 11
M  V30 11 1 11 12
M  V30 12 2 12 13
M  V30 13 1 13 14
M  V30 14 1 14 15
M  V30 15 2 15 16
M  V30 16 1 16 17
M  V30 17 1 17 18
M  V30 18 1 17 19
M  V30 19 2 19 20
M  V30 20 1 20 21
M  V30 21 2 21 22
M  V30 22 1 22 23
M  V30 23 1 23 24
M  V30 24 2 23 25
M  V30 25 2 14 26
M  V30 26 1 26 27
M  V30 27 2 27 28
M  V30 28 1 5 29
M  V30 29 2 29 2
M  V30 30 1 28 9
M  V30 31 1 28 12
M  V30 32 1 25 15
M  V30 33 1 25 19
M  V30 34 1 1 30
M  V30 35 1 1 31
M  V30 36 1 1 32
M  V30 37 1 3 33
M  V30 38 1 4 34
M  V30 39 1 6 35
M  V30 40 1 6 36
M  V30 41 1 10 37
M  V30 42 1 10 38
M  V30 43 1 11 39
M  V30 44 1 11 40
M  V30 45 1 13 41
M  V30 46 1 16 42
M  V30 47 1 18 43
M  V30 48 1 18 44
M  V30 49 1 18 45
M  V30 50 1 21 46
M  V30 51 1 24 47
M  V30 52 1 24 48
M  V30 53 1 26 49
M  V30 54 1 27 50
M  V30 END BOND
M  V30 END CTAB
M  END
>  <Dataset>  (834) 
ChEMBL_Kinases

>  <Ligand_Instance>  (834) 
nan

>  <PDB_ID>  (834) 
nan

>  <Standardized_SMILES>  (834) 
Cc1ccn(CC(=O)N2CCc3cc(-c4cn(C)c5ncnc(N)c45)ccc32)n1

>  <Name>  (834) 
nan

>  <Pocket>  (834) 
nan

>  <ATP_Site>  (834) 
nan

>  <Peripheral>  (834) 
nan

>  <Num_H_Atoms_ProtBoundConf>  (834) 
nan

>  <Num_Resolved_Atoms>  (834) 
nan

>  <Num_Not_Resolved_Atoms>  (834) 
nan

$$$$
CHEMBL2441341
     RDKit          3D

  0  0  0  0  0  0  0  0  0  0999 V3000
M  V30 BEGIN CTAB
M  V30 COUNTS 52 56 0 0 0
M  V30 BEGIN ATOM
M  V30 1 C 5.205618 -4.801925 1.875934 0
M  V30 2 N 4.147472 -4.027357 1.245810 0
M  V30 3 C 3.651847 -2.898822 1.831563 0
M  V30 4 C 2.664627 -2.413155 1.001289 0
M  V30 5 C 1.860304 -1.224087 1.148605 0
M  V30 6 C 1.045265 -0.807363 2.173956 0
M  V30 7 C 0.344757 0.374591 2.148566 0
M  V30 8 C 0.407413 1.249105 1.070354 0
M  V30 9 C 1.247756 0.806586 0.034501 0
M  V30 10 C 1.957078 -0.371490 0.040165 0
M  V30 11 C 1.171401 1.902294 -1.008632 0
M  V30 12 C 0.729010 3.101608 -0.180822 0
M  V30 13 N -0.230974 2.500438 0.731964 0
M  V30 14 C -1.494034 2.920013 1.237300 0
M  V30 15 O -1.816249 3.981828 0.597061 0
M  V30 16 C -2.503515 2.559445 2.197083 0
M  V30 17 C -3.744324 1.940028 1.599601 0
M  V30 18 C -4.931154 2.485031 1.249122 0
M  V30 19 C -5.928740 1.685887 0.704101 0
M  V30 20 C -5.659854 0.353725 0.540836 0
M  V30 21 C -4.466064 -0.238872 0.883443 0
M  V30 22 C -4.111147 -1.683625 0.728682 0
M  V30 23 F -3.300752 -1.836383 -0.385377 0
M  V30 24 F -3.335980 -2.053252 1.840865 0
M  V30 25 F -5.181402 -2.519806 0.711134 0
M  V30 26 N -3.566601 0.607736 1.401263 0
M  V30 27 C 2.585569 -3.275711 -0.082867 0
M  V30 28 C 1.830434 -3.399354 -1.255447 0
M  V30 29 N 0.821073 -2.465383 -1.486844 0
M  V30 30 N 1.976236 -4.378472 -2.154386 0
M  V30 31 C 2.918008 -5.334394 -1.930894 0
M  V30 32 N 3.648109 -5.244051 -0.821969 0
M  V30 33 C 3.519725 -4.280988 0.081308 0
M  V30 34 H 4.772157 -5.564556 2.596046 0
M  V30 35 H 5.881502 -4.191163 2.492838 0
M  V30 36 H 5.734026 -5.378267 1.106414 0
M  V30 37 H 3.884774 -2.380629 2.746304 0
M  V30 38 H 1.017143 -1.510665 2.998994 0
M  V30 39 H -0.263865 0.644204 2.980536 0
M  V30 40 H 2.583591 -0.543045 -0.852285 0
M  V30 41 H 0.507749 1.654551 -1.832053 0
M  V30 42 H 2.208987 2.067287 -1.320502 0
M  V30 43 H 1.609849 3.462083 0.361782 0
M  V30 44 H 0.302130 3.830371 -0.860722 0
M  V30 45 H -2.874922 3.536774 2.678090 0
M  V30 46 H -2.179854 1.875740 2.992491 0
M  V30 47 H -4.983906 3.535970 1.436425 0
M  V30 48 H -6.859755 2.154667 0.439291 0
M  V30 49 H -6.421373 -0.312929 0.113020 0
M  V30 50 H -0.146515 -2.084146 -1.562332 0
M  V30 51 H 0.072439 -1.774005 -1.658053 0
M  V30 52 H 3.059269 -6.132611 -2.639864 0
M  V30 END ATOM
M  V30 BEGIN BOND
M  V30 1 1 1 2
M  V30 2 1 2 3
M  V30 3 2 3 4
M  V30 4 1 4 5
M  V30 5 2 5 6
M  V30 6 1 6 7
M  V30 7 2 7 8
M  V30 8 1 8 9
M  V30 9 2 9 10
M  V30 10 1 9 11
M  V30 11 1 11 12
M  V30 12 1 12 13
M  V30 13 1 13 14
M  V30 14 2 14 15
M  V30 15 1 14 16
M  V30 16 1 16 17
M  V30 17 2 17 18
M  V30 18 1 18 19
M  V30 19 2 19 20
M  V30 20 1 20 21
M  V30 21 1 21 22
M  V30 22 1 22 23
M  V30 23 1 22 24
M  V30 24 1 22 25
M  V30 25 2 21 26
M  V30 26 1 4 27
M  V30 27 2 27 28
M  V30 28 1 28 29
M  V30 29 1 28 30
M  V30 30 2 30 31
M  V30 31 1 31 32
M  V30 32 2 32 33
M  V30 33 1 33 2
M  V30 34 1 10 5
M  V30 35 1 26 17
M  V30 36 1 33 27
M  V30 37 1 13 8
M  V30 38 1 1 34
M  V30 39 1 1 35
M  V30 40 1 1 36
M  V30 41 1 3 37
M  V30 42 1 6 38
M  V30 43 1 7 39
M  V30 44 1 10 40
M  V30 45 1 11 41
M  V30 46 1 11 42
M  V30 47 1 12 43
M  V30 48 1 12 44
M  V30 49 1 16 45
M  V30 50 1 16 46
M  V30 51 1 18 47
M  V30 52 1 19 48
M  V30 53 1 20 49
M  V30 54 1 29 50
M  V30 55 1 29 51
M  V30 56 1 31 52
M  V30 END BOND
M  V30 END CTAB
M  END
>  <Dataset>  (835) 
ChEMBL_Kinases

>  <Ligand_Instance>  (835) 
nan

>  <PDB_ID>  (835) 
nan

>  <Standardized_SMILES>  (835) 
Cn1cc(-c2ccc3c(c2)CCN3C(=O)Cc2cccc(C(F)(F)F)n2)c2c(N)ncnc21

>  <Name>  (835) 
nan

>  <Pocket>  (835) 
nan

>  <ATP_Site>  (835) 
nan

>  <Peripheral>  (835) 
nan

>  <Num_H_Atoms_ProtBoundConf>  (835) 
nan

>  <Num_Resolved_Atoms>  (835) 
nan

>  <Num_Not_Resolved_Atoms>  (835) 
nan

$$$$
CHEMBL2441339
     RDKit          3D

  0  0  0  0  0  0  0  0  0  0999 V3000
M  V30 BEGIN CTAB
M  V30 COUNTS 52 56 0 0 0
M  V30 BEGIN ATOM
M  V30 1 C 0.414258 -2.079765 5.277725 0
M  V30 2 C 1.871805 -1.943877 4.937723 0
M  V30 3 C 2.804538 -1.783517 5.916384 0
M  V30 4 C 4.138932 -1.658867 5.599426 0
M  V30 5 C 4.599209 -1.687511 4.302671 0
M  V30 6 C 3.622170 -1.852182 3.329549 0
M  V30 7 C 3.750285 -1.918222 1.825009 0
M  V30 8 C 3.630152 -0.551716 1.348525 0
M  V30 9 O 4.658985 0.092227 1.762254 0
M  V30 10 N 2.777940 0.288588 0.598565 0
M  V30 11 C 2.867772 1.683962 0.220749 0
M  V30 12 C 1.448729 2.132200 0.620349 0
M  V30 13 C 0.681397 0.959338 0.055896 0
M  V30 14 C -0.630104 0.862798 -0.408666 0
M  V30 15 C -1.112702 -0.337131 -0.895086 0
M  V30 16 C -2.501729 -0.355866 -1.334679 0
M  V30 17 C -3.572405 0.056899 -0.548136 0
M  V30 18 N -4.765726 -0.073094 -1.149795 0
M  V30 19 C -6.087507 0.244572 -0.646964 0
M  V30 20 C -4.495718 -0.583302 -2.368770 0
M  V30 21 N -5.255756 -0.938572 -3.448381 0
M  V30 22 C -4.698283 -1.427231 -4.560134 0
M  V30 23 N -3.356134 -1.597091 -4.681173 0
M  V30 24 C -2.567727 -1.265117 -3.654515 0
M  V30 25 N -1.162085 -1.429929 -3.781592 0
M  V30 26 C -3.112686 -0.762472 -2.500401 0
M  V30 27 C -0.263745 -1.424380 -0.906390 0
M  V30 28 C 1.024095 -1.345771 -0.454380 0
M  V30 29 C 1.526797 -0.157683 0.036796 0
M  V30 30 N 2.316926 -1.971384 3.689939 0
M  V30 31 H -0.005741 -2.878323 4.597065 0
M  V30 32 H -0.160185 -1.168203 5.036989 0
M  V30 33 H 0.270316 -2.464050 6.304282 0
M  V30 34 H 2.548560 -1.742664 6.980060 0
M  V30 35 H 4.958178 -1.524480 6.323356 0
M  V30 36 H 5.577040 -1.607664 3.872629 0
M  V30 37 H 3.082747 -2.663570 1.394399 0
M  V30 38 H 4.791679 -2.335686 1.664297 0
M  V30 39 H 2.934987 1.839856 -0.880359 0
M  V30 40 H 3.635529 2.233254 0.781202 0
M  V30 41 H 1.193319 3.078821 0.152567 0
M  V30 42 H 1.433600 2.123457 1.721860 0
M  V30 43 H -1.214404 1.773932 -0.357270 0
M  V30 44 H -3.450048 0.444100 0.460234 0
M  V30 45 H -6.850995 -0.174255 -1.344951 0
M  V30 46 H -6.177235 -0.231191 0.373938 0
M  V30 47 H -6.258370 1.318788 -0.531429 0
M  V30 48 H -5.392984 -1.673130 -5.341317 0
M  V30 49 H -0.599975 -0.550236 -3.902444 0
M  V30 50 H -0.586602 -2.304592 -3.773137 0
M  V30 51 H -0.616556 -2.376489 -1.270873 0
M  V30 52 H 1.699798 -2.190122 -0.459908 0
M  V30 END ATOM
M  V30 BEGIN BOND
M  V30 1 1 1 2
M  V30 2 2 2 3
M  V30 3 1 3 4
M  V30 4 2 4 5
M  V30 5 1 5 6
M  V30 6 1 6 7
M  V30 7 1 7 8
M  V30 8 2 8 9
M  V30 9 1 8 10
M  V30 10 1 10 11
M  V30 11 1 11 12
M  V30 12 1 12 13
M  V30 13 2 13 14
M  V30 14 1 14 15
M  V30 15 1 15 16
M  V30 16 2 16 17
M  V30 17 1 17 18
M  V30 18 1 18 19
M  V30 19 1 18 20
M  V30 20 2 20 21
M  V30 21 1 21 22
M  V30 22 2 22 23
M  V30 23 1 23 24
M  V30 24 1 24 25
M  V30 25 2 24 26
M  V30 26 2 15 27
M  V30 27 1 27 28
M  V30 28 2 28 29
M  V30 29 2 6 30
M  V30 30 1 30 2
M  V30 31 1 29 10
M  V30 32 1 29 13
M  V30 33 1 26 16
M  V30 34 1 26 20
M  V30 35 1 1 31
M  V30 36 1 1 32
M  V30 37 1 1 33
M  V30 38 1 3 34
M  V30 39 1 4 35
M  V30 40 1 5 36
M  V30 41 1 7 37
M  V30 42 1 7 38
M  V30 43 1 11 39
M  V30 44 1 11 40
M  V30 45 1 12 41
M  V30 46 1 12 42
M  V30 47 1 14 43
M  V30 48 1 17 44
M  V30 49 1 19 45
M  V30 50 1 19 46
M  V30 51 1 19 47
M  V30 52 1 22 48
M  V30 53 1 25 49
M  V30 54 1 25 50
M  V30 55 1 27 51
M  V30 56 1 28 52
M  V30 END BOND
M  V30 END CTAB
M  END
>  <Dataset>  (836) 
ChEMBL_Kinases

>  <Ligand_Instance>  (836) 
nan

>  <PDB_ID>  (836) 
nan

>  <Standardized_SMILES>  (836) 
Cc1cccc(CC(=O)N2CCc3cc(-c4cn(C)c5ncnc(N)c45)ccc32)n1

>  <Name>  (836) 
nan

>  <Pocket>  (836) 
nan

>  <ATP_Site>  (836) 
nan

>  <Peripheral>  (836) 
nan

>  <Num_H_Atoms_ProtBoundConf>  (836) 
nan

>  <Num_Resolved_Atoms>  (836) 
nan

>  <Num_Not_Resolved_Atoms>  (836) 
nan

$$$$
CHEMBL2441338
     RDKit          3D

  0  0  0  0  0  0  0  0  0  0999 V3000
M  V30 BEGIN CTAB
M  V30 COUNTS 49 53 0 0 0
M  V30 BEGIN ATOM
M  V30 1 C 0.127463 -7.084542 1.258834 0
M  V30 2 N 0.672579 -5.875432 0.659598 0
M  V30 3 C 0.160237 -4.642757 0.754049 0
M  V30 4 C 0.939590 -3.711137 0.054608 0
M  V30 5 C 0.561455 -2.305334 -0.001297 0
M  V30 6 C 0.341884 -1.746670 1.264501 0
M  V30 7 C -0.034857 -0.428239 1.412891 0
M  V30 8 C -0.185463 0.314311 0.260951 0
M  V30 9 C 0.022364 -0.204250 -1.000273 0
M  V30 10 C 0.397798 -1.523246 -1.124684 0
M  V30 11 C -0.223812 0.857944 -2.039175 0
M  V30 12 C -0.335670 2.140371 -1.245154 0
M  V30 13 N -0.560224 1.677843 0.123311 0
M  V30 14 C -1.086729 2.618043 1.036409 0
M  V30 15 O -1.406812 3.818933 0.855811 0
M  V30 16 C -1.427628 2.500532 2.476056 0
M  V30 17 C -1.970300 3.777986 3.008996 0
M  V30 18 C -3.342175 3.961181 2.933467 0
M  V30 19 C -3.812913 5.171249 3.443737 0
M  V30 20 N -2.974403 6.099007 3.975833 0
M  V30 21 C -1.646142 5.888296 4.033365 0
M  V30 22 C -1.108554 4.713114 3.547266 0
M  V30 23 C 1.955451 -4.479808 -0.463504 0
M  V30 24 C 3.000083 -4.047872 -1.232769 0
M  V30 25 N 3.180417 -2.692552 -1.605039 0
M  V30 26 N 3.904158 -4.965316 -1.643695 0
M  V30 27 C 3.724350 -6.251937 -1.271581 0
M  V30 28 N 2.695855 -6.677454 -0.513345 0
M  V30 29 C 1.783561 -5.796638 -0.089622 0
M  V30 30 H 0.007036 -6.885675 2.325777 0
M  V30 31 H -0.868315 -7.322333 0.797373 0
M  V30 32 H 0.812217 -7.927854 1.147431 0
M  V30 33 H -0.756466 -4.435210 1.318661 0
M  V30 34 H 0.450887 -2.300691 2.191414 0
M  V30 35 H -0.204023 -0.000232 2.390540 0
M  V30 36 H 0.568318 -1.999434 -2.078159 0
M  V30 37 H 0.567359 0.865003 -2.793928 0
M  V30 38 H -1.176863 0.576896 -2.542354 0
M  V30 39 H -1.207131 2.705739 -1.634597 0
M  V30 40 H 0.622697 2.680145 -1.352212 0
M  V30 41 H -2.172453 1.692059 2.575922 0
M  V30 42 H -0.493809 2.278332 3.033307 0
M  V30 43 H -4.016339 3.227360 2.511318 0
M  V30 44 H -4.872406 5.408619 3.430285 0
M  V30 45 H -1.031802 6.663120 4.467628 0
M  V30 46 H -0.049445 4.564303 3.602066 0
M  V30 47 H 3.369169 -1.952550 -0.871977 0
M  V30 48 H 3.184588 -2.131815 -2.488922 0
M  V30 49 H 4.508119 -6.918861 -1.653517 0
M  V30 END ATOM
M  V30 BEGIN BOND
M  V30 1 1 1 2
M  V30 2 1 2 3
M  V30 3 2 3 4
M  V30 4 1 4 5
M  V30 5 2 5 6
M  V30 6 1 6 7
M  V30 7 2 7 8
M  V30 8 1 8 9
M  V30 9 2 9 10
M  V30 10 1 9 11
M  V30 11 1 11 12
M  V30 12 1 12 13
M  V30 13 1 13 14
M  V30 14 2 14 15
M  V30 15 1 14 16
M  V30 16 1 16 17
M  V30 17 2 17 18
M  V30 18 1 18 19
M  V30 19 2 19 20
M  V30 20 1 20 21
M  V30 21 2 21 22
M  V30 22 1 4 23
M  V30 23 2 23 24
M  V30 24 1 24 25
M  V30 25 1 24 26
M  V30 26 2 26 27
M  V30 27 1 27 28
M  V30 28 2 28 29
M  V30 29 1 29 2
M  V30 30 1 10 5
M  V30 31 1 22 17
M  V30 32 1 29 23
M  V30 33 1 13 8
M  V30 34 1 1 30
M  V30 35 1 1 31
M  V30 36 1 1 32
M  V30 37 1 3 33
M  V30 38 1 6 34
M  V30 39 1 7 35
M  V30 40 1 10 36
M  V30 41 1 11 37
M  V30 42 1 11 38
M  V30 43 1 12 39
M  V30 44 1 12 40
M  V30 45 1 16 41
M  V30 46 1 16 42
M  V30 47 1 18 43
M  V30 48 1 19 44
M  V30 49 1 21 45
M  V30 50 1 22 46
M  V30 51 1 25 47
M  V30 52 1 25 48
M  V30 53 1 27 49
M  V30 END BOND
M  V30 END CTAB
M  END
>  <Dataset>  (837) 
ChEMBL_Kinases

>  <Ligand_Instance>  (837) 
nan

>  <PDB_ID>  (837) 
nan

>  <Standardized_SMILES>  (837) 
Cn1cc(-c2ccc3c(c2)CCN3C(=O)Cc2ccncc2)c2c(N)ncnc21

>  <Name>  (837) 
nan

>  <Pocket>  (837) 
nan

>  <ATP_Site>  (837) 
nan

>  <Peripheral>  (837) 
nan

>  <Num_H_Atoms_ProtBoundConf>  (837) 
nan

>  <Num_Resolved_Atoms>  (837) 
nan

>  <Num_Not_Resolved_Atoms>  (837) 
nan

$$$$
CHEMBL2441337
     RDKit          3D

  0  0  0  0  0  0  0  0  0  0999 V3000
M  V30 BEGIN CTAB
M  V30 COUNTS 49 53 0 0 0
M  V30 BEGIN ATOM
M  V30 1 C -1.092168 -6.096960 2.005143 0
M  V30 2 N -0.419094 -5.190200 1.092316 0
M  V30 3 C -0.335591 -3.844572 1.266676 0
M  V30 4 C 0.381877 -3.264889 0.206988 0
M  V30 5 C 0.571986 -1.822028 0.177770 0
M  V30 6 C 1.098985 -1.279208 1.331444 0
M  V30 7 C 1.329818 0.097528 1.452671 0
M  V30 8 C 1.023927 0.967369 0.384712 0
M  V30 9 C 0.491785 0.344131 -0.756622 0
M  V30 10 C 0.263448 -0.998798 -0.882316 0
M  V30 11 C 0.330214 1.517406 -1.716576 0
M  V30 12 C 1.419566 2.466916 -1.185407 0
M  V30 13 N 1.100824 2.411446 0.246993 0
M  V30 14 C 0.849515 3.309125 1.306850 0
M  V30 15 O 0.962442 4.469736 0.836142 0
M  V30 16 C 0.504083 3.232134 2.732244 0
M  V30 17 C -0.947598 3.540744 2.982927 0
M  V30 18 C -1.671132 2.361637 2.746675 0
M  V30 19 C -3.034701 2.245417 2.879989 0
M  V30 20 C -3.666357 3.426093 3.279141 0
M  V30 21 N -2.994803 4.595509 3.517274 0
M  V30 22 C -1.659985 4.658480 3.373789 0
M  V30 23 C 0.721767 -4.311755 -0.602229 0
M  V30 24 C 1.436875 -4.263846 -1.771065 0
M  V30 25 N 1.946247 -3.055582 -2.312342 0
M  V30 26 N 1.653603 -5.456136 -2.402063 0
M  V30 27 C 1.155628 -6.583164 -1.838337 0
M  V30 28 N 0.447927 -6.655203 -0.685415 0
M  V30 29 C 0.223867 -5.474609 -0.045676 0
M  V30 30 H -0.958614 -5.779170 3.064758 0
M  V30 31 H -2.194374 -6.058582 1.834461 0
M  V30 32 H -0.742280 -7.124171 1.910640 0
M  V30 33 H -0.785943 -3.334998 2.130381 0
M  V30 34 H 1.353217 -1.884103 2.184143 0
M  V30 35 H 1.752205 0.472878 2.371866 0
M  V30 36 H -0.157251 -1.403152 -1.784112 0
M  V30 37 H -0.677382 1.922754 -1.532328 0
M  V30 38 H 0.520184 1.222646 -2.753381 0
M  V30 39 H 1.321197 3.417508 -1.655410 0
M  V30 40 H 2.365675 1.946538 -1.364681 0
M  V30 41 H 0.788233 2.329692 3.256257 0
M  V30 42 H 1.089338 4.057680 3.254064 0
M  V30 43 H -1.274903 1.377222 2.431393 0
M  V30 44 H -3.641058 1.380314 2.716116 0
M  V30 45 H -4.732644 3.540025 3.436145 0
M  V30 46 H -0.951820 5.465736 3.509101 0
M  V30 47 H 2.726133 -2.584718 -1.842036 0
M  V30 48 H 1.332582 -2.927509 -3.147773 0
M  V30 49 H 1.367448 -7.490764 -2.395699 0
M  V30 END ATOM
M  V30 BEGIN BOND
M  V30 1 1 1 2
M  V30 2 1 2 3
M  V30 3 2 3 4
M  V30 4 1 4 5
M  V30 5 2 5 6
M  V30 6 1 6 7
M  V30 7 2 7 8
M  V30 8 1 8 9
M  V30 9 2 9 10
M  V30 10 1 9 11
M  V30 11 1 11 12
M  V30 12 1 12 13
M  V30 13 1 13 14
M  V30 14 2 14 15
M  V30 15 1 14 16
M  V30 16 1 16 17
M  V30 17 2 17 18
M  V30 18 1 18 19
M  V30 19 2 19 20
M  V30 20 1 20 21
M  V30 21 2 21 22
M  V30 22 1 4 23
M  V30 23 2 23 24
M  V30 24 1 24 25
M  V30 25 1 24 26
M  V30 26 2 26 27
M  V30 27 1 27 28
M  V30 28 2 28 29
M  V30 29 1 29 2
M  V30 30 1 10 5
M  V30 31 1 22 17
M  V30 32 1 29 23
M  V30 33 1 13 8
M  V30 34 1 1 30
M  V30 35 1 1 31
M  V30 36 1 1 32
M  V30 37 1 3 33
M  V30 38 1 6 34
M  V30 39 1 7 35
M  V30 40 1 10 36
M  V30 41 1 11 37
M  V30 42 1 11 38
M  V30 43 1 12 39
M  V30 44 1 12 40
M  V30 45 1 16 41
M  V30 46 1 16 42
M  V30 47 1 18 43
M  V30 48 1 19 44
M  V30 49 1 20 45
M  V30 50 1 22 46
M  V30 51 1 25 47
M  V30 52 1 25 48
M  V30 53 1 27 49
M  V30 END BOND
M  V30 END CTAB
M  END
>  <Dataset>  (838) 
ChEMBL_Kinases

>  <Ligand_Instance>  (838) 
nan

>  <PDB_ID>  (838) 
nan

>  <Standardized_SMILES>  (838) 
Cn1cc(-c2ccc3c(c2)CCN3C(=O)Cc2cccnc2)c2c(N)ncnc21

>  <Name>  (838) 
nan

>  <Pocket>  (838) 
nan

>  <ATP_Site>  (838) 
nan

>  <Peripheral>  (838) 
nan

>  <Num_H_Atoms_ProtBoundConf>  (838) 
nan

>  <Num_Resolved_Atoms>  (838) 
nan

>  <Num_Not_Resolved_Atoms>  (838) 
nan

$$$$
CHEMBL2441336
     RDKit          3D

  0  0  0  0  0  0  0  0  0  0999 V3000
M  V30 BEGIN CTAB
M  V30 COUNTS 49 53 0 0 0
M  V30 BEGIN ATOM
M  V30 1 C -0.985417 -6.309997 2.012542 0
M  V30 2 N -0.330614 -5.347893 1.144758 0
M  V30 3 C -0.313712 -4.012095 1.298997 0
M  V30 4 C 0.418889 -3.418746 0.261907 0
M  V30 5 C 0.572196 -1.972728 0.187402 0
M  V30 6 C 1.056259 -1.401986 1.379432 0
M  V30 7 C 1.206093 -0.029939 1.388399 0
M  V30 8 C 0.917992 0.799718 0.332310 0
M  V30 9 C 0.439430 0.150430 -0.824663 0
M  V30 10 C 0.260448 -1.209611 -0.920295 0
M  V30 11 C 0.225380 1.237343 -1.845145 0
M  V30 12 C 1.153002 2.336726 -1.311093 0
M  V30 13 N 0.948299 2.231788 0.121470 0
M  V30 14 C 0.781974 3.185360 1.131360 0
M  V30 15 O 0.771229 4.365878 0.613919 0
M  V30 16 C 0.605638 3.422466 2.571799 0
M  V30 17 C -0.795427 3.896182 2.857084 0
M  V30 18 C -1.625083 2.764912 2.978856 0
M  V30 19 C -2.985982 2.818454 3.233000 0
M  V30 20 C -3.545201 4.084718 3.372332 0
M  V30 21 C -2.723299 5.189724 3.251648 0
M  V30 22 N -1.396021 5.086715 3.003060 0
M  V30 23 C 0.840191 -4.466940 -0.523024 0
M  V30 24 C 1.602257 -4.430396 -1.672690 0
M  V30 25 N 2.095696 -3.227239 -2.237349 0
M  V30 26 N 1.872761 -5.635364 -2.245590 0
M  V30 27 C 1.416837 -6.778971 -1.709388 0
M  V30 28 N 0.664599 -6.778686 -0.567453 0
M  V30 29 C 0.364706 -5.630942 0.043512 0
M  V30 30 H -0.632430 -6.175123 3.075351 0
M  V30 31 H -2.070618 -6.069416 2.030828 0
M  V30 32 H -0.775788 -7.342978 1.732274 0
M  V30 33 H -0.811854 -3.517970 2.121835 0
M  V30 34 H 1.310985 -1.963299 2.261989 0
M  V30 35 H 1.580457 0.429814 2.300509 0
M  V30 36 H -0.119878 -1.673891 -1.819579 0
M  V30 37 H 0.519164 0.940531 -2.855535 0
M  V30 38 H -0.823372 1.535678 -1.808883 0
M  V30 39 H 0.947547 3.323734 -1.733762 0
M  V30 40 H 2.198745 2.017419 -1.581034 0
M  V30 41 H 0.846665 2.524449 3.148384 0
M  V30 42 H 1.300029 4.213791 2.943368 0
M  V30 43 H -1.295560 1.712919 2.886743 0
M  V30 44 H -3.620704 1.952658 3.324896 0
M  V30 45 H -4.608562 4.259223 3.572991 0
M  V30 46 H -3.022748 6.222172 3.332230 0
M  V30 47 H 2.657927 -2.647528 -1.577698 0
M  V30 48 H 1.851243 -3.043926 -3.243873 0
M  V30 49 H 1.648533 -7.724589 -2.192533 0
M  V30 END ATOM
M  V30 BEGIN BOND
M  V30 1 1 1 2
M  V30 2 1 2 3
M  V30 3 2 3 4
M  V30 4 1 4 5
M  V30 5 2 5 6
M  V30 6 1 6 7
M  V30 7 2 7 8
M  V30 8 1 8 9
M  V30 9 2 9 10
M  V30 10 1 9 11
M  V30 11 1 11 12
M  V30 12 1 12 13
M  V30 13 1 13 14
M  V30 14 2 14 15
M  V30 15 1 14 16
M  V30 16 1 16 17
M  V30 17 2 17 18
M  V30 18 1 18 19
M  V30 19 2 19 20
M  V30 20 1 20 21
M  V30 21 2 21 22
M  V30 22 1 4 23
M  V30 23 2 23 24
M  V30 24 1 24 25
M  V30 25 1 24 26
M  V30 26 2 26 27
M  V30 27 1 27 28
M  V30 28 2 28 29
M  V30 29 1 29 2
M  V30 30 1 10 5
M  V30 31 1 22 17
M  V30 32 1 29 23
M  V30 33 1 13 8
M  V30 34 1 1 30
M  V30 35 1 1 31
M  V30 36 1 1 32
M  V30 37 1 3 33
M  V30 38 1 6 34
M  V30 39 1 7 35
M  V30 40 1 10 36
M  V30 41 1 11 37
M  V30 42 1 11 38
M  V30 43 1 12 39
M  V30 44 1 12 40
M  V30 45 1 16 41
M  V30 46 1 16 42
M  V30 47 1 18 43
M  V30 48 1 19 44
M  V30 49 1 20 45
M  V30 50 1 21 46
M  V30 51 1 25 47
M  V30 52 1 25 48
M  V30 53 1 27 49
M  V30 END BOND
M  V30 END CTAB
M  END
>  <Dataset>  (839) 
ChEMBL_Kinases

>  <Ligand_Instance>  (839) 
nan

>  <PDB_ID>  (839) 
nan

>  <Standardized_SMILES>  (839) 
Cn1cc(-c2ccc3c(c2)CCN3C(=O)Cc2ccccn2)c2c(N)ncnc21

>  <Name>  (839) 
nan

>  <Pocket>  (839) 
nan

>  <ATP_Site>  (839) 
nan

>  <Peripheral>  (839) 
nan

>  <Num_H_Atoms_ProtBoundConf>  (839) 
nan

>  <Num_Resolved_Atoms>  (839) 
nan

>  <Num_Not_Resolved_Atoms>  (839) 
nan

$$$$
CHEMBL2441286
     RDKit          3D

  0  0  0  0  0  0  0  0  0  0999 V3000
M  V30 BEGIN CTAB
M  V30 COUNTS 60 64 0 0 0
M  V30 BEGIN ATOM
M  V30 1 C 5.010326 -2.034093 5.999986 0
M  V30 2 O 5.943095 -1.259326 5.272450 0
M  V30 3 C 5.663175 -0.610139 4.105443 0
M  V30 4 C 6.518274 0.159164 3.345470 0
M  V30 5 C 6.214997 0.798787 2.180734 0
M  V30 6 C 4.926498 0.698751 1.661039 0
M  V30 7 N 4.407248 1.218493 0.570478 0
M  V30 8 C 3.342309 1.133127 0.144626 0
M  V30 9 N 2.526294 1.564074 -0.970779 0
M  V30 10 C 1.155126 1.215765 -1.121341 0
M  V30 11 C 0.106048 1.983530 -0.661231 0
M  V30 12 C -1.218835 1.585519 -0.840700 0
M  V30 13 C -2.304631 2.458267 -0.327868 0
M  V30 14 F -1.775276 3.647077 0.148412 0
M  V30 15 F -3.134726 2.780276 -1.387626 0
M  V30 16 C -3.116307 1.814239 0.720498 0
M  V30 17 C -3.859131 0.731356 0.298266 0
M  V30 18 C -4.674001 0.015087 1.149800 0
M  V30 19 C -4.764512 0.374504 2.467821 0
M  V30 20 F -5.562399 -0.320976 3.317149 0
M  V30 21 C -4.022750 1.462769 2.908253 0
M  V30 22 C -3.209133 2.173942 2.047200 0
M  V30 23 N -1.437204 0.424156 -1.479154 0
M  V30 24 C -0.440379 -0.351398 -1.941682 0
M  V30 25 N -0.672071 -1.584298 -2.615959 0
M  V30 26 C -2.005051 -2.112534 -2.844026 0 CFG=1
M  V30 27 C -1.951816 -3.399662 -3.640217 0
M  V30 28 C -2.681983 -4.518547 -2.927548 0
M  V30 29 C -2.162260 -4.811992 -1.559643 0 CFG=2
M  V30 30 O -3.182061 -5.347626 -0.744486 0
M  V30 31 C -1.696164 -3.531521 -0.907488 0
M  V30 32 C -2.590930 -2.409721 -1.452353 0
M  V30 33 N 0.803917 0.076695 -1.743329 0
M  V30 34 S 2.550164 0.050013 1.432053 0
M  V30 35 C 4.025357 -0.080499 2.412696 0
M  V30 36 C 4.398053 -0.722290 3.617263 0
M  V30 37 H 5.608829 -2.761919 6.605470 0
M  V30 38 H 4.359817 -2.660399 5.348724 0
M  V30 39 H 4.454065 -1.408461 6.705999 0
M  V30 40 H 7.545002 0.252535 3.737229 0
M  V30 41 H 7.014649 1.377899 1.690492 0
M  V30 42 H 3.082738 2.151456 -1.625310 0
M  V30 43 H 0.335541 2.925125 -0.145282 0
M  V30 44 H -3.847814 0.375348 -0.735670 0
M  V30 45 H -5.253511 -0.843415 0.783331 0
M  V30 46 H -4.057047 1.790654 3.941089 0
M  V30 47 H -2.605619 3.035246 2.337471 0
M  V30 48 H 0.128292 -2.138003 -2.962944 0
M  V30 49 H -2.591112 -1.323772 -3.341741 0
M  V30 50 H -0.918658 -3.651116 -3.912191 0
M  V30 51 H -2.513453 -3.220921 -4.580842 0
M  V30 52 H -3.760498 -4.308317 -2.931277 0
M  V30 53 H -2.524925 -5.438958 -3.552125 0
M  V30 54 H -1.311219 -5.546135 -1.582566 0
M  V30 55 H -3.292850 -4.829650 0.093349 0
M  V30 56 H -0.660213 -3.255257 -1.194037 0
M  V30 57 H -1.836495 -3.558993 0.193337 0
M  V30 58 H -3.631176 -2.738702 -1.511425 0
M  V30 59 H -2.472082 -1.582317 -0.756843 0
M  V30 60 H 3.575152 -1.257860 4.026429 0
M  V30 END ATOM
M  V30 BEGIN BOND
M  V30 1 1 1 2
M  V30 2 1 2 3
M  V30 3 2 3 4
M  V30 4 1 4 5
M  V30 5 2 5 6
M  V30 6 1 6 7
M  V30 7 2 7 8
M  V30 8 1 8 9
M  V30 9 1 9 10
M  V30 10 2 10 11
M  V30 11 1 11 12
M  V30 12 1 12 13
M  V30 13 1 13 14
M  V30 14 1 13 15
M  V30 15 1 13 16
M  V30 16 2 16 17
M  V30 17 1 17 18
M  V30 18 2 18 19
M  V30 19 1 19 20
M  V30 20 1 19 21
M  V30 21 2 21 22
M  V30 22 2 12 23
M  V30 23 1 23 24
M  V30 24 1 24 25
M  V30 25 1 25 26
M  V30 26 1 26 27
M  V30 27 1 27 28
M  V30 28 1 28 29
M  V30 29 1 29 30
M  V30 30 1 29 31
M  V30 31 1 31 32
M  V30 32 2 24 33
M  V30 33 1 8 34
M  V30 34 1 34 35
M  V30 35 2 35 36
M  V30 36 1 36 3
M  V30 37 1 35 6
M  V30 38 1 33 10
M  V30 39 1 22 16
M  V30 40 1 32 26
M  V30 41 1 1 37
M  V30 42 1 1 38
M  V30 43 1 1 39
M  V30 44 1 4 40
M  V30 45 1 5 41
M  V30 46 1 9 42
M  V30 47 1 11 43
M  V30 48 1 17 44
M  V30 49 1 18 45
M  V30 50 1 21 46
M  V30 51 1 22 47
M  V30 52 1 25 48
M  V30 53 1 26 49 CFG=3
M  V30 54 1 27 50
M  V30 55 1 27 51
M  V30 56 1 28 52
M  V30 57 1 28 53
M  V30 58 1 29 54 CFG=3
M  V30 59 1 30 55
M  V30 60 1 31 56
M  V30 61 1 31 57
M  V30 62 1 32 58
M  V30 63 1 32 59
M  V30 64 1 36 60
M  V30 END BOND
M  V30 END CTAB
M  END
>  <Dataset>  (840) 
ChEMBL_Kinases

>  <Ligand_Instance>  (840) 
nan

>  <PDB_ID>  (840) 
nan

>  <Standardized_SMILES>  (840) 
COc1ccc2nc(Nc3cc(C(F)(F)c4ccc(F)cc4)nc(N[C@H]4CC[C@H](O)CC4)n3)sc2c1

>  <Name>  (840) 
nan

>  <Pocket>  (840) 
nan

>  <ATP_Site>  (840) 
nan

>  <Peripheral>  (840) 
nan

>  <Num_H_Atoms_ProtBoundConf>  (840) 
nan

>  <Num_Resolved_Atoms>  (840) 
nan

>  <Num_Not_Resolved_Atoms>  (840) 
nan

$$$$
CHEMBL2441284
     RDKit          3D

  0  0  0  0  0  0  0  0  0  0999 V3000
M  V30 BEGIN CTAB
M  V30 COUNTS 60 64 0 0 0
M  V30 BEGIN ATOM
M  V30 1 N 6.051805 -0.267119 4.212079 0
M  V30 2 C 4.703822 -0.680542 4.400616 0
M  V30 3 O 5.123319 -1.185557 5.467953 0
M  V30 4 C 3.954227 -0.187810 3.221593 0 CFG=2
M  V30 5 C 3.954152 1.324629 3.174189 0
M  V30 6 C 2.962036 1.623200 4.305002 0
M  V30 7 C 2.114870 0.376233 4.405165 0
M  V30 8 N 2.536757 -0.482402 3.316227 0
M  V30 9 C 1.681060 -1.357608 2.589223 0
M  V30 10 N 0.381055 -1.349112 2.947059 0
M  V30 11 C -0.526425 -2.148554 2.314578 0
M  V30 12 N -1.905789 -2.164658 2.660439 0
M  V30 13 C -2.896949 -1.301624 2.024267 0
M  V30 14 N -4.034470 -1.072458 2.066747 0
M  V30 15 C -4.704843 -0.191429 1.330991 0
M  V30 16 C -3.902183 0.539713 0.390479 0
M  V30 17 C -4.382847 1.594016 -0.562294 0
M  V30 18 C -4.804064 1.011837 -1.862158 0
M  V30 19 C -3.839631 0.889851 -2.852551 0
M  V30 20 C -4.157878 0.355735 -4.092138 0
M  V30 21 C -5.455888 -0.058452 -4.336412 0
M  V30 22 C -6.389232 0.076067 -3.332938 0
M  V30 23 C -6.105372 0.606804 -2.079416 0
M  V30 24 S -2.251861 -0.138592 0.681691 0
M  V30 25 C -0.117037 -2.981906 1.292168 0
M  V30 26 C 1.210307 -2.980237 0.938339 0
M  V30 27 C 1.856935 -3.788084 -0.127904 0
M  V30 28 F 3.180845 -4.005764 0.106086 0
M  V30 29 F 1.218250 -5.033054 -0.129765 0
M  V30 30 C 1.600728 -3.204736 -1.468541 0
M  V30 31 C 0.384246 -3.196970 -2.109774 0
M  V30 32 C 0.314167 -2.613503 -3.351419 0
M  V30 33 C 1.383792 -2.035636 -3.995460 0
M  V30 34 F 1.312461 -1.461940 -5.218273 0
M  V30 35 C 2.607252 -2.038453 -3.360411 0
M  V30 36 C 2.702542 -2.625547 -2.098279 0
M  V30 37 N 2.077644 -2.160850 1.603431 0
M  V30 38 H 7.065917 -0.013476 4.249436 0
M  V30 39 H 6.725611 0.133059 3.515763 0
M  V30 40 H 4.403777 -0.617336 2.303638 0
M  V30 41 H 4.929839 1.751090 3.466489 0
M  V30 42 H 3.577696 1.698821 2.210775 0
M  V30 43 H 2.381705 2.511333 3.989104 0
M  V30 44 H 3.508324 1.850472 5.226020 0
M  V30 45 H 1.058129 0.716381 4.281524 0
M  V30 46 H 2.178920 -0.109533 5.384494 0
M  V30 47 H -2.335906 -2.763568 3.368619 0
M  V30 48 H -5.788524 -0.046962 1.447165 0
M  V30 49 H -3.547264 2.330340 -0.733021 0
M  V30 50 H -5.176442 2.185402 -0.073829 0
M  V30 51 H -2.800428 1.193328 -2.733005 0
M  V30 52 H -3.412895 0.258342 -4.865298 0
M  V30 53 H -5.718515 -0.476112 -5.295816 0
M  V30 54 H -7.422899 -0.230289 -3.463394 0
M  V30 55 H -6.846861 0.704916 -1.306511 0
M  V30 56 H -0.755489 -3.648315 0.735718 0
M  V30 57 H -0.455388 -3.641133 -1.626249 0
M  V30 58 H -0.636689 -2.617638 -3.832710 0
M  V30 59 H 3.484720 -1.598075 -3.818774 0
M  V30 60 H 3.701535 -2.601500 -1.635854 0
M  V30 END ATOM
M  V30 BEGIN BOND
M  V30 1 1 1 2
M  V30 2 2 2 3
M  V30 3 1 2 4
M  V30 4 1 4 5
M  V30 5 1 5 6
M  V30 6 1 6 7
M  V30 7 1 7 8
M  V30 8 1 8 9
M  V30 9 2 9 10
M  V30 10 1 10 11
M  V30 11 1 11 12
M  V30 12 1 12 13
M  V30 13 2 13 14
M  V30 14 1 14 15
M  V30 15 2 15 16
M  V30 16 1 16 17
M  V30 17 1 17 18
M  V30 18 2 18 19
M  V30 19 1 19 20
M  V30 20 2 20 21
M  V30 21 1 21 22
M  V30 22 2 22 23
M  V30 23 1 16 24
M  V30 24 2 11 25
M  V30 25 1 25 26
M  V30 26 1 26 27
M  V30 27 1 27 28
M  V30 28 1 27 29
M  V30 29 1 27 30
M  V30 30 2 30 31
M  V30 31 1 31 32
M  V30 32 2 32 33
M  V30 33 1 33 34
M  V30 34 1 33 35
M  V30 35 2 35 36
M  V30 36 2 26 37
M  V30 37 1 8 4
M  V30 38 1 37 9
M  V30 39 1 24 13
M  V30 40 1 36 30
M  V30 41 1 23 18
M  V30 42 1 1 38
M  V30 43 1 1 39
M  V30 44 1 4 40 CFG=3
M  V30 45 1 5 41
M  V30 46 1 5 42
M  V30 47 1 6 43
M  V30 48 1 6 44
M  V30 49 1 7 45
M  V30 50 1 7 46
M  V30 51 1 12 47
M  V30 52 1 15 48
M  V30 53 1 17 49
M  V30 54 1 17 50
M  V30 55 1 19 51
M  V30 56 1 20 52
M  V30 57 1 21 53
M  V30 58 1 22 54
M  V30 59 1 23 55
M  V30 60 1 25 56
M  V30 61 1 31 57
M  V30 62 1 32 58
M  V30 63 1 35 59
M  V30 64 1 36 60
M  V30 END BOND
M  V30 END CTAB
M  END
>  <Dataset>  (841) 
ChEMBL_Kinases

>  <Ligand_Instance>  (841) 
nan

>  <PDB_ID>  (841) 
nan

>  <Standardized_SMILES>  (841) 
NC(=O)[C@@H]1CCCN1c1nc(Nc2ncc(Cc3ccccc3)s2)cc(C(F)(F)c2ccc(F)cc2)n1

>  <Name>  (841) 
nan

>  <Pocket>  (841) 
nan

>  <ATP_Site>  (841) 
nan

>  <Peripheral>  (841) 
nan

>  <Num_H_Atoms_ProtBoundConf>  (841) 
nan

>  <Num_Resolved_Atoms>  (841) 
nan

>  <Num_Not_Resolved_Atoms>  (841) 
nan

$$$$
CHEMBL2441283
     RDKit          3D

  0  0  0  0  0  0  0  0  0  0999 V3000
M  V30 BEGIN CTAB
M  V30 COUNTS 63 67 0 0 0
M  V30 BEGIN ATOM
M  V30 1 O 1.831551 -1.834365 6.953335 0
M  V30 2 C 1.700467 -0.620232 6.296902 0 CFG=1
M  V30 3 C 3.028702 -0.057646 5.814617 0
M  V30 4 C 2.801886 0.684425 4.506774 0
M  V30 5 C 2.497095 -0.395518 3.482736 0 CFG=2
M  V30 6 N 2.461832 0.231775 2.194003 0
M  V30 7 C 2.212681 -0.451340 0.957759 0
M  V30 8 N 2.172041 0.176252 -0.249617 0
M  V30 9 C 1.937100 -0.447202 -1.409566 0
M  V30 10 N 1.955478 0.574416 -2.434271 0
M  V30 11 C 0.854468 1.504674 -2.451896 0
M  V30 12 N 0.425988 2.397482 -3.009441 0
M  V30 13 C -0.651969 3.116707 -2.813901 0
M  V30 14 C -1.400916 2.749303 -1.770260 0
M  V30 15 C -2.667890 3.060655 -1.004705 0
M  V30 16 C -3.775152 2.201220 -1.503936 0
M  V30 17 C -3.889838 1.024894 -0.838227 0
M  V30 18 C -4.848184 0.096088 -1.173815 0
M  V30 19 C -5.676921 0.462396 -2.240013 0
M  V30 20 C -5.568294 1.658647 -2.925329 0
M  V30 21 C -4.584017 2.564420 -2.547462 0
M  V30 22 S -0.495163 1.367719 -1.120895 0
M  V30 23 C 1.719984 -1.809102 -1.416144 0
M  V30 24 C 1.754768 -2.462474 -0.224933 0
M  V30 25 C 1.519832 -3.917057 -0.319150 0
M  V30 26 F 2.586104 -4.608206 -0.865955 0
M  V30 27 F 1.287865 -4.414678 0.950071 0
M  V30 28 C 0.315626 -4.253040 -1.133533 0
M  V30 29 C 0.530821 -4.536076 -2.482187 0
M  V30 30 C -0.428911 -4.870376 -3.411172 0
M  V30 31 C -1.742630 -4.929218 -2.953179 0
M  V30 32 F -2.725265 -5.253373 -3.825544 0
M  V30 33 C -1.991834 -4.656141 -1.630248 0
M  V30 34 C -1.009510 -4.327576 -0.736507 0
M  V30 35 N 1.993958 -1.787582 0.907171 0
M  V30 36 C 1.219903 -1.066322 3.853562 0
M  V30 37 C 0.691492 -0.649976 5.173726 0
M  V30 38 H 0.998999 -2.351068 6.757884 0
M  V30 39 H 1.325544 0.117913 7.035282 0
M  V30 40 H 3.553538 0.538874 6.572664 0
M  V30 41 H 3.672534 -0.926996 5.552738 0
M  V30 42 H 1.858116 1.249634 4.647051 0
M  V30 43 H 3.612862 1.355303 4.230234 0
M  V30 44 H 3.326387 -1.164473 3.502262 0
M  V30 45 H 2.621515 1.276540 2.069126 0
M  V30 46 H 2.612441 0.808360 -3.205726 0
M  V30 47 H -1.078231 3.978738 -3.344113 0
M  V30 48 H -2.495847 2.989396 0.074873 0
M  V30 49 H -2.876594 4.127535 -1.226500 0
M  V30 50 H -3.265931 0.689214 0.002959 0
M  V30 51 H -5.003282 -0.874871 -0.683821 0
M  V30 52 H -6.456673 -0.220085 -2.562912 0
M  V30 53 H -6.225969 1.918453 -3.743647 0
M  V30 54 H -4.409383 3.515078 -3.003858 0
M  V30 55 H 1.550754 -2.138069 -2.444913 0
M  V30 56 H 1.555586 -4.497101 -2.870255 0
M  V30 57 H -0.163203 -5.072245 -4.429952 0
M  V30 58 H -3.004654 -4.692507 -1.247465 0
M  V30 59 H -1.147784 -4.101012 0.325353 0
M  V30 60 H 0.459513 -0.713904 3.087872 0
M  V30 61 H 1.243373 -2.172528 3.713741 0
M  V30 62 H -0.083504 -1.411015 5.468802 0
M  V30 63 H 0.121279 0.314695 5.143842 0
M  V30 END ATOM
M  V30 BEGIN BOND
M  V30 1 1 1 2
M  V30 2 1 2 3
M  V30 3 1 3 4
M  V30 4 1 4 5
M  V30 5 1 5 6
M  V30 6 1 6 7
M  V30 7 2 7 8
M  V30 8 1 8 9
M  V30 9 1 9 10
M  V30 10 1 10 11
M  V30 11 2 11 12
M  V30 12 1 12 13
M  V30 13 2 13 14
M  V30 14 1 14 15
M  V30 15 1 15 16
M  V30 16 2 16 17
M  V30 17 1 17 18
M  V30 18 2 18 19
M  V30 19 1 19 20
M  V30 20 2 20 21
M  V30 21 1 14 22
M  V30 22 2 9 23
M  V30 23 1 23 24
M  V30 24 1 24 25
M  V30 25 1 25 26
M  V30 26 1 25 27
M  V30 27 1 25 28
M  V30 28 2 28 29
M  V30 29 1 29 30
M  V30 30 2 30 31
M  V30 31 1 31 32
M  V30 32 1 31 33
M  V30 33 2 33 34
M  V30 34 2 24 35
M  V30 35 1 5 36
M  V30 36 1 36 37
M  V30 37 1 37 2
M  V30 38 1 35 7
M  V30 39 1 22 11
M  V30 40 1 34 28
M  V30 41 1 21 16
M  V30 42 1 1 38
M  V30 43 1 2 39 CFG=1
M  V30 44 1 3 40
M  V30 45 1 3 41
M  V30 46 1 4 42
M  V30 47 1 4 43
M  V30 48 1 5 44 CFG=3
M  V30 49 1 6 45
M  V30 50 1 10 46
M  V30 51 1 13 47
M  V30 52 1 15 48
M  V30 53 1 15 49
M  V30 54 1 17 50
M  V30 55 1 18 51
M  V30 56 1 19 52
M  V30 57 1 20 53
M  V30 58 1 21 54
M  V30 59 1 23 55
M  V30 60 1 29 56
M  V30 61 1 30 57
M  V30 62 1 33 58
M  V30 63 1 34 59
M  V30 64 1 36 60
M  V30 65 1 36 61
M  V30 66 1 37 62
M  V30 67 1 37 63
M  V30 END BOND
M  V30 END CTAB
M  END
>  <Dataset>  (842) 
ChEMBL_Kinases

>  <Ligand_Instance>  (842) 
nan

>  <PDB_ID>  (842) 
nan

>  <Standardized_SMILES>  (842) 
O[C@H]1CC[C@H](Nc2nc(Nc3ncc(Cc4ccccc4)s3)cc(C(F)(F)c3ccc(F)cc3)n2)CC1

>  <Name>  (842) 
nan

>  <Pocket>  (842) 
nan

>  <ATP_Site>  (842) 
nan

>  <Peripheral>  (842) 
nan

>  <Num_H_Atoms_ProtBoundConf>  (842) 
nan

>  <Num_Resolved_Atoms>  (842) 
nan

>  <Num_Not_Resolved_Atoms>  (842) 
nan

$$$$
CHEMBL2441282
     RDKit          3D

  0  0  0  0  0  0  0  0  0  0999 V3000
M  V30 BEGIN CTAB
M  V30 COUNTS 64 68 0 0 0
M  V30 BEGIN ATOM
M  V30 1 O 0.635901 2.031295 4.884579 0
M  V30 2 C 0.321931 0.917888 4.081636 0 CFG=1
M  V30 3 C 1.047039 -0.301433 4.507756 0
M  V30 4 C 0.330156 -1.577877 4.553836 0
M  V30 5 C -0.918577 -1.744697 3.749339 0 CFG=2
M  V30 6 N -0.801283 -2.709466 2.704296 0
M  V30 7 C -0.039200 -2.653735 1.514845 0
M  V30 8 N 0.698846 -1.592334 1.098190 0
M  V30 9 C 1.420107 -1.595159 -0.009044 0
M  V30 10 N 2.179405 -0.540004 -0.576605 0
M  V30 11 C 1.508414 0.694656 -0.435544 0
M  V30 12 C 0.646196 0.823312 -1.550118 0
M  V30 13 C -0.169180 1.962255 -1.705294 0
M  V30 14 C -0.101332 2.965721 -0.721727 0
M  V30 15 O -0.974434 4.018535 -1.033314 0
M  V30 16 C -2.299633 3.930863 -0.571724 0
M  V30 17 C -2.798269 2.932517 0.252575 0
M  V30 18 C -4.113764 2.927876 0.646567 0
M  V30 19 C -4.939429 3.936120 0.209004 0
M  V30 20 F -6.231434 3.855590 0.643874 0
M  V30 21 C -4.467190 4.934561 -0.605177 0
M  V30 22 C -3.128856 4.957218 -1.018632 0
M  V30 23 C 0.751252 2.785400 0.334447 0
M  V30 24 N 1.516733 1.692441 0.458792 0
M  V30 25 C 1.463535 -2.709394 -0.820331 0
M  V30 26 C 0.725533 -3.809125 -0.429724 0
M  V30 27 C 0.593927 -5.142652 -1.088520 0
M  V30 28 F 1.067333 -6.118279 -0.253977 0
M  V30 29 F -0.793645 -5.354868 -1.158860 0
M  V30 30 C 1.133237 -5.172025 -2.442748 0
M  V30 31 C 0.529709 -5.011014 -3.672646 0
M  V30 32 C 1.241563 -5.099549 -4.829901 0
M  V30 33 C 2.599784 -5.353965 -4.807367 0
M  V30 34 F 3.333775 -5.450814 -5.951882 0
M  V30 35 C 3.237662 -5.519426 -3.597407 0
M  V30 36 C 2.500117 -5.428337 -2.409115 0
M  V30 37 N 0.031587 -3.715480 0.692382 0
M  V30 38 C -1.415633 -0.449101 3.147890 0
M  V30 39 C -1.169103 0.712205 4.100757 0
M  V30 40 H 1.599080 2.272294 4.797606 0
M  V30 41 H 0.595557 1.183339 3.039898 0
M  V30 42 H 1.485416 -0.066008 5.526913 0
M  V30 43 H 1.986199 -0.376197 3.876507 0
M  V30 44 H 1.028569 -2.393078 4.203631 0
M  V30 45 H 0.150378 -1.873103 5.630766 0
M  V30 46 H -1.730537 -2.065145 4.428168 0
M  V30 47 H -1.359962 -3.610862 2.821533 0
M  V30 48 H 3.102653 -0.651825 -1.032000 0
M  V30 49 H 0.527494 0.094435 -2.367792 0
M  V30 50 H -0.826118 2.028693 -2.577555 0
M  V30 51 H -2.029715 2.204748 0.517785 0
M  V30 52 H -4.373305 2.097695 1.285193 0
M  V30 53 H -5.206616 5.676732 -0.885802 0
M  V30 54 H -2.822846 5.761801 -1.653070 0
M  V30 55 H 0.739787 3.591667 1.038024 0
M  V30 56 H 2.008961 -2.857534 -1.751074 0
M  V30 57 H -0.532096 -4.814566 -3.593982 0
M  V30 58 H 0.740597 -4.970615 -5.774841 0
M  V30 59 H 4.308666 -5.718494 -3.616802 0
M  V30 60 H 3.133727 -5.575052 -1.531539 0
M  V30 61 H -2.470383 -0.472150 2.873010 0
M  V30 62 H -0.821378 -0.207168 2.248851 0
M  V30 63 H -1.617444 1.603575 3.623317 0
M  V30 64 H -1.559000 0.521715 5.115864 0
M  V30 END ATOM
M  V30 BEGIN BOND
M  V30 1 1 1 2
M  V30 2 1 2 3
M  V30 3 1 3 4
M  V30 4 1 4 5
M  V30 5 1 5 6
M  V30 6 1 6 7
M  V30 7 2 7 8
M  V30 8 1 8 9
M  V30 9 1 9 10
M  V30 10 1 10 11
M  V30 11 2 11 12
M  V30 12 1 12 13
M  V30 13 2 13 14
M  V30 14 1 14 15
M  V30 15 1 15 16
M  V30 16 2 16 17
M  V30 17 1 17 18
M  V30 18 2 18 19
M  V30 19 1 19 20
M  V30 20 1 19 21
M  V30 21 2 21 22
M  V30 22 1 14 23
M  V30 23 2 23 24
M  V30 24 2 9 25
M  V30 25 1 25 26
M  V30 26 1 26 27
M  V30 27 1 27 28
M  V30 28 1 27 29
M  V30 29 1 27 30
M  V30 30 2 30 31
M  V30 31 1 31 32
M  V30 32 2 32 33
M  V30 33 1 33 34
M  V30 34 1 33 35
M  V30 35 2 35 36
M  V30 36 2 26 37
M  V30 37 1 5 38
M  V30 38 1 38 39
M  V30 39 1 39 2
M  V30 40 1 37 7
M  V30 41 1 24 11
M  V30 42 1 36 30
M  V30 43 1 22 16
M  V30 44 1 1 40
M  V30 45 1 2 41 CFG=3
M  V30 46 1 3 42
M  V30 47 1 3 43
M  V30 48 1 4 44
M  V30 49 1 4 45
M  V30 50 1 5 46 CFG=1
M  V30 51 1 6 47
M  V30 52 1 10 48
M  V30 53 1 12 49
M  V30 54 1 13 50
M  V30 55 1 17 51
M  V30 56 1 18 52
M  V30 57 1 21 53
M  V30 58 1 22 54
M  V30 59 1 23 55
M  V30 60 1 25 56
M  V30 61 1 31 57
M  V30 62 1 32 58
M  V30 63 1 35 59
M  V30 64 1 36 60
M  V30 65 1 38 61
M  V30 66 1 38 62
M  V30 67 1 39 63
M  V30 68 1 39 64
M  V30 END BOND
M  V30 END CTAB
M  END
>  <Dataset>  (843) 
ChEMBL_Kinases

>  <Ligand_Instance>  (843) 
nan

>  <PDB_ID>  (843) 
nan

>  <Standardized_SMILES>  (843) 
O[C@H]1CC[C@H](Nc2nc(Nc3ccc(Oc4ccc(F)cc4)cn3)cc(C(F)(F)c3ccc(F)cc3)n2)CC1

>  <Name>  (843) 
nan

>  <Pocket>  (843) 
nan

>  <ATP_Site>  (843) 
nan

>  <Peripheral>  (843) 
nan

>  <Num_H_Atoms_ProtBoundConf>  (843) 
nan

>  <Num_Resolved_Atoms>  (843) 
nan

>  <Num_Not_Resolved_Atoms>  (843) 
nan

$$$$
CHEMBL2440753
     RDKit          3D

  0  0  0  0  0  0  0  0  0  0999 V3000
M  V30 BEGIN CTAB
M  V30 COUNTS 59 62 0 0 0
M  V30 BEGIN ATOM
M  V30 1 N 3.494995 -3.113274 2.335618 0
M  V30 2 C 2.412499 -2.707111 3.252111 0
M  V30 3 C 2.301610 -1.254546 3.342600 0
M  V30 4 C 2.775510 -0.551291 4.456510 0
M  V30 5 C 2.700809 0.823440 4.563277 0
M  V30 6 C 2.132388 1.529251 3.522062 0
M  V30 7 C 2.060506 2.979957 3.652988 0
M  V30 8 O 2.514438 3.506266 4.681156 0
M  V30 9 N 1.510861 3.858213 2.698934 0
M  V30 10 C 1.578591 5.211962 3.098915 0
M  V30 11 C 2.556051 6.178472 2.899270 0
M  V30 12 C 2.369937 7.447129 3.405813 0
M  V30 13 N 1.270885 7.777369 4.087120 0
M  V30 14 C 0.306622 6.870841 4.299266 0
M  V30 15 C 0.432916 5.563329 3.811425 0
M  V30 16 C 1.671841 0.819044 2.435184 0
M  V30 17 C 1.733177 -0.559619 2.300506 0
M  V30 18 C 1.166009 -1.105508 1.080604 0
M  V30 19 C 1.763982 -0.527855 -0.047399 0
M  V30 20 C 1.384821 -0.872355 -1.338753 0
M  V30 21 C 0.398332 -1.802430 -1.578429 0
M  V30 22 C -0.159275 -2.341419 -0.443760 0
M  V30 23 C -1.212561 -3.329809 -0.605073 0
M  V30 24 O -2.038058 -4.106148 -0.069576 0
M  V30 25 O -1.671133 -3.756133 -1.828372 0
M  V30 26 C -2.716988 -4.734456 -1.958192 0
M  V30 27 C -2.912258 -4.913298 -3.464432 0
M  V30 28 C -3.306133 -3.613300 -4.115534 0
M  V30 29 C -4.562923 -3.901415 -4.905587 0
M  V30 30 C -4.557242 -5.385153 -5.075450 0
M  V30 31 C -4.016178 -5.894714 -3.757949 0
M  V30 32 C 0.178993 -2.035338 0.853213 0
M  V30 33 H 4.254409 -2.409642 2.473066 0
M  V30 34 H 3.876033 -4.033837 2.631771 0
M  V30 35 H 2.786099 -3.084116 4.254118 0
M  V30 36 H 1.537603 -3.273002 2.972163 0
M  V30 37 H 3.214911 -1.165446 5.248617 0
M  V30 38 H 3.105116 1.239801 5.477284 0
M  V30 39 H 1.117363 3.455782 1.814892 0
M  V30 40 H 3.389478 5.781403 2.334726 0
M  V30 41 H 3.187177 8.148874 3.204286 0
M  V30 42 H -0.530379 7.238983 4.855973 0
M  V30 43 H -0.429474 4.962080 4.068429 0
M  V30 44 H 1.239601 1.431959 1.658109 0
M  V30 45 H 2.557725 0.223471 -0.035059 0
M  V30 46 H 1.848333 -0.425661 -2.221816 0
M  V30 47 H 0.058628 -2.113929 -2.554625 0
M  V30 48 H -3.667372 -4.397987 -1.502870 0
M  V30 49 H -2.466627 -5.690230 -1.490905 0
M  V30 50 H -1.999094 -5.272171 -3.949311 0
M  V30 51 H -2.535258 -3.254407 -4.841646 0
M  V30 52 H -3.445219 -2.792642 -3.385955 0
M  V30 53 H -4.576110 -3.373765 -5.884967 0
M  V30 54 H -5.443165 -3.536828 -4.331504 0
M  V30 55 H -3.830123 -5.658650 -5.860039 0
M  V30 56 H -5.555700 -5.806072 -5.308387 0
M  V30 57 H -3.561771 -6.888717 -3.987916 0
M  V30 58 H -4.776051 -5.945400 -2.967806 0
M  V30 59 H -0.250287 -2.434893 1.750854 0
M  V30 END ATOM
M  V30 BEGIN BOND
M  V30 1 1 1 2
M  V30 2 1 2 3
M  V30 3 2 3 4
M  V30 4 1 4 5
M  V30 5 2 5 6
M  V30 6 1 6 7
M  V30 7 2 7 8
M  V30 8 1 7 9
M  V30 9 1 9 10
M  V30 10 2 10 11
M  V30 11 1 11 12
M  V30 12 2 12 13
M  V30 13 1 13 14
M  V30 14 2 14 15
M  V30 15 1 6 16
M  V30 16 2 16 17
M  V30 17 1 17 18
M  V30 18 2 18 19
M  V30 19 1 19 20
M  V30 20 2 20 21
M  V30 21 1 21 22
M  V30 22 1 22 23
M  V30 23 2 23 24
M  V30 24 1 23 25
M  V30 25 1 25 26
M  V30 26 1 26 27
M  V30 27 1 27 28
M  V30 28 1 28 29
M  V30 29 1 29 30
M  V30 30 1 30 31
M  V30 31 2 22 32
M  V30 32 1 17 3
M  V30 33 1 32 18
M  V30 34 1 15 10
M  V30 35 1 31 27
M  V30 36 1 1 33
M  V30 37 1 1 34
M  V30 38 1 2 35
M  V30 39 1 2 36
M  V30 40 1 4 37
M  V30 41 1 5 38
M  V30 42 1 9 39
M  V30 43 1 11 40
M  V30 44 1 12 41
M  V30 45 1 14 42
M  V30 46 1 15 43
M  V30 47 1 16 44
M  V30 48 1 19 45
M  V30 49 1 20 46
M  V30 50 1 21 47
M  V30 51 1 26 48
M  V30 52 1 26 49
M  V30 53 1 27 50
M  V30 54 1 28 51
M  V30 55 1 28 52
M  V30 56 1 29 53
M  V30 57 1 29 54
M  V30 58 1 30 55
M  V30 59 1 30 56
M  V30 60 1 31 57
M  V30 61 1 31 58
M  V30 62 1 32 59
M  V30 END BOND
M  V30 END CTAB
M  END
>  <Dataset>  (844) 
ChEMBL_Kinases

>  <Ligand_Instance>  (844) 
nan

>  <PDB_ID>  (844) 
nan

>  <Standardized_SMILES>  (844) 
NCc1ccc(C(=O)Nc2ccncc2)cc1-c1cccc(C(=O)OCC2CCCC2)c1

>  <Name>  (844) 
nan

>  <Pocket>  (844) 
nan

>  <ATP_Site>  (844) 
nan

>  <Peripheral>  (844) 
nan

>  <Num_H_Atoms_ProtBoundConf>  (844) 
nan

>  <Num_Resolved_Atoms>  (844) 
nan

>  <Num_Not_Resolved_Atoms>  (844) 
nan

$$$$
CHEMBL2440754
     RDKit          3D

  0  0  0  0  0  0  0  0  0  0999 V3000
M  V30 BEGIN CTAB
M  V30 COUNTS 62 65 0 0 0
M  V30 BEGIN ATOM
M  V30 1 N -0.229480 -3.145792 5.556112 0
M  V30 2 C -0.508193 -1.753781 5.951990 0
M  V30 3 C 0.112692 -0.799147 5.034845 0
M  V30 4 C 1.259754 -0.127131 5.402668 0
M  V30 5 C 1.871873 0.769822 4.538677 0
M  V30 6 C 1.310210 0.979612 3.297641 0
M  V30 7 C 1.972543 1.927084 2.416991 0
M  V30 8 O 3.027917 2.478431 2.820627 0
M  V30 9 N 1.523488 2.286841 1.126890 0
M  V30 10 C 2.236933 3.231817 0.325569 0
M  V30 11 C 3.244301 3.022897 -0.587632 0
M  V30 12 C 3.791340 4.088565 -1.248106 0
M  V30 13 N 3.340124 5.347274 -1.001621 0
M  V30 14 C 2.353508 5.590203 -0.112423 0
M  V30 15 C 1.772546 4.525792 0.579699 0
M  V30 16 C 0.166504 0.292089 2.965891 0
M  V30 17 C -0.483069 -0.621289 3.807635 0
M  V30 18 C -1.679873 -1.211894 3.272016 0
M  V30 19 C -2.958003 -1.267975 3.731440 0
M  V30 20 C -3.982555 -1.911529 3.073580 0
M  V30 21 C -3.691222 -2.545426 1.859480 0
M  V30 22 C -2.409095 -2.520024 1.345424 0
M  V30 23 C -2.163353 -3.201678 0.068709 0
M  V30 24 O -3.164168 -3.751390 -0.456601 0
M  V30 25 O -0.930091 -3.243879 -0.522156 0
M  V30 26 C -0.602257 -3.870201 -1.744585 0
M  V30 27 C -1.412522 -3.202238 -2.834352 0
M  V30 28 C -1.097045 -3.836885 -4.165070 0
M  V30 29 C -1.293930 -2.750368 -5.228079 0
M  V30 30 C -0.107313 -1.814988 -5.088880 0
M  V30 31 C -0.029871 -1.285343 -3.675867 0
M  V30 32 C -1.213978 -1.708959 -2.842547 0
M  V30 33 C -1.433565 -1.854724 2.062287 0
M  V30 34 H -0.641629 -3.348859 4.617094 0
M  V30 35 H 0.813904 -3.146970 5.392454 0
M  V30 36 H -1.573549 -1.673672 6.120533 0
M  V30 37 H -0.037467 -1.642082 6.973336 0
M  V30 38 H 1.689079 -0.300126 6.376238 0
M  V30 39 H 2.767085 1.273058 4.866220 0
M  V30 40 H 0.666234 1.861727 0.754879 0
M  V30 41 H 3.490532 1.968771 -0.671291 0
M  V30 42 H 4.574055 3.844945 -1.946325 0
M  V30 43 H 2.054998 6.628585 0.022014 0
M  V30 44 H 0.987634 4.822933 1.272425 0
M  V30 45 H -0.217358 0.504911 1.979248 0
M  V30 46 H -3.131410 -0.758782 4.654679 0
M  V30 47 H -4.958579 -1.886279 3.542093 0
M  V30 48 H -4.537125 -3.046865 1.368271 0
M  V30 49 H -0.837650 -4.954574 -1.731019 0
M  V30 50 H 0.489112 -3.701478 -1.883244 0
M  V30 51 H -2.479688 -3.401454 -2.625851 0
M  V30 52 H -0.075299 -4.246947 -4.164000 0
M  V30 53 H -1.824618 -4.646239 -4.369282 0
M  V30 54 H -1.312628 -3.227309 -6.204639 0
M  V30 55 H -2.229746 -2.207540 -4.972596 0
M  V30 56 H 0.799785 -2.432771 -5.264792 0
M  V30 57 H -0.184039 -1.035682 -5.850206 0
M  V30 58 H -0.049022 -0.177979 -3.738111 0
M  V30 59 H 0.924603 -1.560089 -3.180566 0
M  V30 60 H -2.116121 -1.133646 -3.140358 0
M  V30 61 H -0.986886 -1.406365 -1.791825 0
M  V30 62 H -0.459539 -1.907246 1.548078 0
M  V30 END ATOM
M  V30 BEGIN BOND
M  V30 1 1 1 2
M  V30 2 1 2 3
M  V30 3 2 3 4
M  V30 4 1 4 5
M  V30 5 2 5 6
M  V30 6 1 6 7
M  V30 7 2 7 8
M  V30 8 1 7 9
M  V30 9 1 9 10
M  V30 10 2 10 11
M  V30 11 1 11 12
M  V30 12 2 12 13
M  V30 13 1 13 14
M  V30 14 2 14 15
M  V30 15 1 6 16
M  V30 16 2 16 17
M  V30 17 1 17 18
M  V30 18 2 18 19
M  V30 19 1 19 20
M  V30 20 2 20 21
M  V30 21 1 21 22
M  V30 22 1 22 23
M  V30 23 2 23 24
M  V30 24 1 23 25
M  V30 25 1 25 26
M  V30 26 1 26 27
M  V30 27 1 27 28
M  V30 28 1 28 29
M  V30 29 1 29 30
M  V30 30 1 30 31
M  V30 31 1 31 32
M  V30 32 2 22 33
M  V30 33 1 17 3
M  V30 34 1 33 18
M  V30 35 1 15 10
M  V30 36 1 32 27
M  V30 37 1 1 34
M  V30 38 1 1 35
M  V30 39 1 2 36
M  V30 40 1 2 37
M  V30 41 1 4 38
M  V30 42 1 5 39
M  V30 43 1 9 40
M  V30 44 1 11 41
M  V30 45 1 12 42
M  V30 46 1 14 43
M  V30 47 1 15 44
M  V30 48 1 16 45
M  V30 49 1 19 46
M  V30 50 1 20 47
M  V30 51 1 21 48
M  V30 52 1 26 49
M  V30 53 1 26 50
M  V30 54 1 27 51
M  V30 55 1 28 52
M  V30 56 1 28 53
M  V30 57 1 29 54
M  V30 58 1 29 55
M  V30 59 1 30 56
M  V30 60 1 30 57
M  V30 61 1 31 58
M  V30 62 1 31 59
M  V30 63 1 32 60
M  V30 64 1 32 61
M  V30 65 1 33 62
M  V30 END BOND
M  V30 END CTAB
M  END
>  <Dataset>  (845) 
ChEMBL_Kinases

>  <Ligand_Instance>  (845) 
nan

>  <PDB_ID>  (845) 
nan

>  <Standardized_SMILES>  (845) 
NCc1ccc(C(=O)Nc2ccncc2)cc1-c1cccc(C(=O)OCC2CCCCC2)c1

>  <Name>  (845) 
nan

>  <Pocket>  (845) 
nan

>  <ATP_Site>  (845) 
nan

>  <Peripheral>  (845) 
nan

>  <Num_H_Atoms_ProtBoundConf>  (845) 
nan

>  <Num_Resolved_Atoms>  (845) 
nan

>  <Num_Not_Resolved_Atoms>  (845) 
nan

$$$$
CHEMBL2440755
     RDKit          3D

  0  0  0  0  0  0  0  0  0  0999 V3000
M  V30 BEGIN CTAB
M  V30 COUNTS 59 62 0 0 0
M  V30 BEGIN ATOM
M  V30 1 N 0.242771 -3.339439 4.985548 0
M  V30 2 C -0.369117 -2.107867 5.511678 0
M  V30 3 C -0.030377 -0.967209 4.661144 0
M  V30 4 C 0.942917 -0.107759 5.089760 0
M  V30 5 C 1.315350 0.967898 4.300026 0
M  V30 6 C 0.686074 1.146520 3.085021 0
M  V30 7 C 1.118407 2.294030 2.296722 0
M  V30 8 O 2.018727 3.043417 2.749017 0
M  V30 9 N 0.612282 2.666748 1.029184 0
M  V30 10 C 1.090051 3.805886 0.323013 0
M  V30 11 C 2.162912 3.515003 -0.513588 0
M  V30 12 C 2.782441 4.469029 -1.291965 0
M  V30 13 N 2.289643 5.728049 -1.203999 0
M  V30 14 C 1.257476 6.026240 -0.403910 0
M  V30 15 C 0.618383 5.100674 0.383729 0
M  V30 16 F -0.417494 5.296485 1.214050 0
M  V30 17 C -0.278075 0.267190 2.697215 0
M  V30 18 C -0.682900 -0.831336 3.466760 0
M  V30 19 C -1.747791 -1.622810 2.884523 0
M  V30 20 C -3.003023 -1.972593 3.330212 0
M  V30 21 C -3.832737 -2.776039 2.580319 0
M  V30 22 C -3.454448 -3.279657 1.332698 0
M  V30 23 C -2.199027 -2.931931 0.881298 0
M  V30 24 C -1.840693 -3.474545 -0.420130 0
M  V30 25 O -2.659351 -4.199508 -1.039438 0
M  V30 26 O -0.664212 -3.310264 -1.134611 0
M  V30 27 C -0.477374 -3.922593 -2.414358 0
M  V30 28 C 0.920283 -3.492206 -2.835533 0
M  V30 29 C 0.944862 -1.977608 -2.905143 0
M  V30 30 C 0.264814 -1.701769 -4.223105 0
M  V30 31 C 0.940185 -2.694266 -5.132973 0
M  V30 32 C 1.242739 -3.877992 -4.236187 0
M  V30 33 C -1.386443 -2.126377 1.650565 0
M  V30 34 H 0.029337 -3.349879 3.964203 0
M  V30 35 H -0.282257 -4.137274 5.408439 0
M  V30 36 H -1.450447 -2.304824 5.484789 0
M  V30 37 H -0.015422 -1.953473 6.562978 0
M  V30 38 H 1.423448 -0.257296 6.034962 0
M  V30 39 H 2.090848 1.621464 4.681408 0
M  V30 40 H -0.139339 2.071774 0.613275 0
M  V30 41 H 2.605365 2.515052 -0.626982 0
M  V30 42 H 3.618654 4.247596 -1.945035 0
M  V30 43 H 0.863663 7.049427 -0.338638 0
M  V30 44 H -0.720165 0.476876 1.736144 0
M  V30 45 H -3.263046 -1.550620 4.288431 0
M  V30 46 H -4.804832 -2.989704 3.031792 0
M  V30 47 H -4.199431 -3.895406 0.853314 0
M  V30 48 H -0.477467 -5.029720 -2.323957 0
M  V30 49 H -1.246796 -3.627207 -3.126226 0
M  V30 50 H 1.637474 -3.801535 -2.067983 0
M  V30 51 H 0.414236 -1.500128 -2.062611 0
M  V30 52 H 1.968059 -1.598891 -2.914431 0
M  V30 53 H 0.409898 -0.646159 -4.567450 0
M  V30 54 H -0.813655 -1.884301 -4.101865 0
M  V30 55 H 0.292806 -3.015521 -5.965948 0
M  V30 56 H 1.863678 -2.204560 -5.525786 0
M  V30 57 H 2.297552 -4.188642 -4.394631 0
M  V30 58 H 0.586058 -4.723782 -4.524553 0
M  V30 59 H -0.426605 -1.951607 1.138366 0
M  V30 END ATOM
M  V30 BEGIN BOND
M  V30 1 1 1 2
M  V30 2 1 2 3
M  V30 3 2 3 4
M  V30 4 1 4 5
M  V30 5 2 5 6
M  V30 6 1 6 7
M  V30 7 2 7 8
M  V30 8 1 7 9
M  V30 9 1 9 10
M  V30 10 2 10 11
M  V30 11 1 11 12
M  V30 12 2 12 13
M  V30 13 1 13 14
M  V30 14 2 14 15
M  V30 15 1 15 16
M  V30 16 1 6 17
M  V30 17 2 17 18
M  V30 18 1 18 19
M  V30 19 2 19 20
M  V30 20 1 20 21
M  V30 21 2 21 22
M  V30 22 1 22 23
M  V30 23 1 23 24
M  V30 24 2 24 25
M  V30 25 1 24 26
M  V30 26 1 26 27
M  V30 27 1 27 28
M  V30 28 1 28 29
M  V30 29 1 29 30
M  V30 30 1 30 31
M  V30 31 1 31 32
M  V30 32 2 23 33
M  V30 33 1 18 3
M  V30 34 1 33 19
M  V30 35 1 15 10
M  V30 36 1 32 28
M  V30 37 1 1 34
M  V30 38 1 1 35
M  V30 39 1 2 36
M  V30 40 1 2 37
M  V30 41 1 4 38
M  V30 42 1 5 39
M  V30 43 1 9 40
M  V30 44 1 11 41
M  V30 45 1 12 42
M  V30 46 1 14 43
M  V30 47 1 17 44
M  V30 48 1 20 45
M  V30 49 1 21 46
M  V30 50 1 22 47
M  V30 51 1 27 48
M  V30 52 1 27 49
M  V30 53 1 28 50
M  V30 54 1 29 51
M  V30 55 1 29 52
M  V30 56 1 30 53
M  V30 57 1 30 54
M  V30 58 1 31 55
M  V30 59 1 31 56
M  V30 60 1 32 57
M  V30 61 1 32 58
M  V30 62 1 33 59
M  V30 END BOND
M  V30 END CTAB
M  END
>  <Dataset>  (846) 
ChEMBL_Kinases

>  <Ligand_Instance>  (846) 
nan

>  <PDB_ID>  (846) 
nan

>  <Standardized_SMILES>  (846) 
NCc1ccc(C(=O)Nc2ccncc2F)cc1-c1cccc(C(=O)OCC2CCCC2)c1

>  <Name>  (846) 
nan

>  <Pocket>  (846) 
nan

>  <ATP_Site>  (846) 
nan

>  <Peripheral>  (846) 
nan

>  <Num_H_Atoms_ProtBoundConf>  (846) 
nan

>  <Num_Resolved_Atoms>  (846) 
nan

>  <Num_Not_Resolved_Atoms>  (846) 
nan

$$$$
CHEMBL2440756
     RDKit          3D

  0  0  0  0  0  0  0  0  0  0999 V3000
M  V30 BEGIN CTAB
M  V30 COUNTS 56 59 0 0 0
M  V30 BEGIN ATOM
M  V30 1 N 1.110028 -4.222747 2.647104 0
M  V30 2 C 0.763322 -3.271216 3.648555 0
M  V30 3 C 1.267969 -1.906163 3.464594 0
M  V30 4 C 2.386824 -1.543532 4.200689 0
M  V30 5 C 2.912819 -0.271114 4.076345 0
M  V30 6 C 2.339888 0.652188 3.226197 0
M  V30 7 C 2.951731 1.969514 3.149113 0
M  V30 8 O 3.967811 2.186090 3.855085 0
M  V30 9 N 2.401922 2.962458 2.297140 0
M  V30 10 C 2.709275 4.288782 1.976402 0
M  V30 11 C 2.290470 5.466650 2.559282 0
M  V30 12 C 2.704436 6.696366 2.097416 0
M  V30 13 N 3.542015 6.803825 1.049233 0
M  V30 14 C 3.989873 5.675403 0.432161 0
M  V30 15 C 3.579517 4.419095 0.888273 0
M  V30 16 F 4.082470 3.340960 0.203396 0
M  V30 17 C 1.232170 0.233988 2.522784 0
M  V30 18 C 0.646153 -1.034852 2.597457 0
M  V30 19 C -0.497451 -1.270873 1.771944 0
M  V30 20 C -1.490555 -0.304873 2.028497 0
M  V30 21 C -2.703703 -0.265896 1.368538 0
M  V30 22 C -2.994391 -1.205718 0.400655 0
M  V30 23 C -2.037043 -2.163117 0.130515 0
M  V30 24 C -2.176710 -3.228758 -0.863744 0
M  V30 25 O -1.380723 -4.132537 -1.176281 0
M  V30 26 O -3.380125 -3.237934 -1.570393 0
M  V30 27 C -3.714378 -4.174017 -2.567426 0
M  V30 28 C -2.743788 -4.148285 -3.726641 0
M  V30 29 C -2.620733 -2.860976 -4.463219 0
M  V30 30 C -3.273536 -3.448464 -5.691177 0
M  V30 31 C -3.267476 -4.791847 -4.992050 0
M  V30 32 C -0.831378 -2.187057 0.798743 0
M  V30 33 H 0.262755 -4.676676 2.286924 0
M  V30 34 H 1.736378 -3.814632 1.946353 0
M  V30 35 H 1.127275 -3.702926 4.612822 0
M  V30 36 H -0.361500 -3.275604 3.819413 0
M  V30 37 H 2.851727 -2.260687 4.876809 0
M  V30 38 H 3.785054 -0.050052 4.676419 0
M  V30 39 H 1.562127 2.833483 1.693552 0
M  V30 40 H 1.617451 5.309890 3.398168 0
M  V30 41 H 2.344032 7.583058 2.592802 0
M  V30 42 H 4.662978 5.750303 -0.410922 0
M  V30 43 H 0.797739 0.970332 1.862430 0
M  V30 44 H -1.430052 0.515668 2.763253 0
M  V30 45 H -3.482933 0.460343 1.543155 0
M  V30 46 H -3.907386 -1.265765 -0.172130 0
M  V30 47 H -3.840482 -5.202512 -2.219364 0
M  V30 48 H -4.701260 -3.836156 -2.975893 0
M  V30 49 H -1.726453 -4.543176 -3.450644 0
M  V30 50 H -1.570254 -2.576131 -4.717335 0
M  V30 51 H -3.141216 -1.981125 -4.042070 0
M  V30 52 H -4.261738 -3.017971 -5.917927 0
M  V30 53 H -2.642368 -3.422681 -6.623806 0
M  V30 54 H -4.253555 -5.273904 -4.897816 0
M  V30 55 H -2.507834 -5.465185 -5.479446 0
M  V30 56 H -0.063682 -2.889103 0.618909 0
M  V30 END ATOM
M  V30 BEGIN BOND
M  V30 1 1 1 2
M  V30 2 1 2 3
M  V30 3 2 3 4
M  V30 4 1 4 5
M  V30 5 2 5 6
M  V30 6 1 6 7
M  V30 7 2 7 8
M  V30 8 1 7 9
M  V30 9 1 9 10
M  V30 10 2 10 11
M  V30 11 1 11 12
M  V30 12 2 12 13
M  V30 13 1 13 14
M  V30 14 2 14 15
M  V30 15 1 15 16
M  V30 16 1 6 17
M  V30 17 2 17 18
M  V30 18 1 18 19
M  V30 19 2 19 20
M  V30 20 1 20 21
M  V30 21 2 21 22
M  V30 22 1 22 23
M  V30 23 1 23 24
M  V30 24 2 24 25
M  V30 25 1 24 26
M  V30 26 1 26 27
M  V30 27 1 27 28
M  V30 28 1 28 29
M  V30 29 1 29 30
M  V30 30 1 30 31
M  V30 31 2 23 32
M  V30 32 1 18 3
M  V30 33 1 32 19
M  V30 34 1 15 10
M  V30 35 1 31 28
M  V30 36 1 1 33
M  V30 37 1 1 34
M  V30 38 1 2 35
M  V30 39 1 2 36
M  V30 40 1 4 37
M  V30 41 1 5 38
M  V30 42 1 9 39
M  V30 43 1 11 40
M  V30 44 1 12 41
M  V30 45 1 14 42
M  V30 46 1 17 43
M  V30 47 1 20 44
M  V30 48 1 21 45
M  V30 49 1 22 46
M  V30 50 1 27 47
M  V30 51 1 27 48
M  V30 52 1 28 49
M  V30 53 1 29 50
M  V30 54 1 29 51
M  V30 55 1 30 52
M  V30 56 1 30 53
M  V30 57 1 31 54
M  V30 58 1 31 55
M  V30 59 1 32 56
M  V30 END BOND
M  V30 END CTAB
M  END
>  <Dataset>  (847) 
ChEMBL_Kinases

>  <Ligand_Instance>  (847) 
nan

>  <PDB_ID>  (847) 
nan

>  <Standardized_SMILES>  (847) 
NCc1ccc(C(=O)Nc2ccncc2F)cc1-c1cccc(C(=O)OCC2CCC2)c1

>  <Name>  (847) 
nan

>  <Pocket>  (847) 
nan

>  <ATP_Site>  (847) 
nan

>  <Peripheral>  (847) 
nan

>  <Num_H_Atoms_ProtBoundConf>  (847) 
nan

>  <Num_Resolved_Atoms>  (847) 
nan

>  <Num_Not_Resolved_Atoms>  (847) 
nan

$$$$
CHEMBL2441112
     RDKit          3D

  0  0  0  0  0  0  0  0  0  0999 V3000
M  V30 BEGIN CTAB
M  V30 COUNTS 60 64 0 0 0
M  V30 BEGIN ATOM
M  V30 1 C 1.964116 -3.701087 6.419566 0
M  V30 2 O 2.428494 -2.361643 6.655659 0
M  V30 3 C 2.606804 -1.446540 5.641638 0
M  V30 4 C 3.043855 -0.142412 5.827603 0
M  V30 5 C 3.229893 0.785246 4.858425 0
M  V30 6 C 2.984920 0.490395 3.541603 0
M  V30 7 N 3.071654 1.168707 2.429881 0
M  V30 8 C 2.864819 0.922503 1.332685 0
M  V30 9 N 2.715586 1.036857 -0.115143 0
M  V30 10 C 1.434947 1.104262 -0.712788 0
M  V30 11 C 0.688768 2.126085 -1.217102 0
M  V30 12 C -0.548652 1.851281 -1.725077 0
M  V30 13 C -1.481078 2.835604 -2.299762 0
M  V30 14 C -2.508840 3.286313 -1.318715 0
M  V30 15 C -2.625563 4.377510 -0.493394 0
M  V30 16 C -3.726719 4.511649 0.337683 0
M  V30 17 C -4.707118 3.542062 0.332262 0
M  V30 18 C -4.652754 2.430407 -0.466759 0
M  V30 19 C -3.530101 2.315805 -1.299212 0
M  V30 20 N -1.024193 0.604924 -1.727211 0
M  V30 21 C -0.315388 -0.429698 -1.234225 0
M  V30 22 N -0.890308 -1.747220 -1.220577 0
M  V30 23 C -0.310702 -2.959187 -0.730309 0 CFG=1
M  V30 24 C -1.323661 -4.090179 -0.666750 0
M  V30 25 C -1.745466 -4.532299 -2.042634 0
M  V30 26 C -0.561259 -4.997361 -2.863337 0 CFG=2
M  V30 27 O -0.133096 -6.283893 -2.472462 0
M  V30 28 C 0.551946 -3.984501 -2.855099 0
M  V30 29 C 0.880825 -3.462596 -1.494006 0
M  V30 30 N 0.900717 -0.137956 -0.741558 0
M  V30 31 S 2.313201 -0.903999 1.570057 0
M  V30 32 C 2.531064 -0.860145 3.329608 0
M  V30 33 C 2.340327 -1.823699 4.350261 0
M  V30 34 H 2.774232 -4.394746 6.158518 0
M  V30 35 H 1.203662 -3.733902 5.611691 0
M  V30 36 H 1.456102 -4.105941 7.349212 0
M  V30 37 H 3.244292 0.106035 6.872927 0
M  V30 38 H 3.576560 1.762952 5.167918 0
M  V30 39 H 3.681898 1.057163 -0.564031 0
M  V30 40 H 1.124488 3.097871 -1.186972 0
M  V30 41 H -1.977064 2.440065 -3.221225 0
M  V30 42 H -0.906977 3.721658 -2.609319 0
M  V30 43 H -1.775294 5.027469 -0.617796 0
M  V30 44 H -3.731985 5.395283 0.942157 0
M  V30 45 H -5.557880 3.657149 0.975322 0
M  V30 46 H -5.446382 1.664431 -0.458019 0
M  V30 47 H -3.580221 1.396141 -1.902208 0
M  V30 48 H -1.868037 -1.849611 -1.630237 0
M  V30 49 H 0.040298 -2.753460 0.314262 0
M  V30 50 H -2.231258 -3.725405 -0.134855 0
M  V30 51 H -0.878442 -4.907457 -0.093198 0
M  V30 52 H -2.271213 -3.726782 -2.555313 0
M  V30 53 H -2.438081 -5.390759 -1.942664 0
M  V30 54 H -0.913596 -5.100891 -3.913488 0
M  V30 55 H -0.725104 -6.948178 -2.916547 0
M  V30 56 H 1.460086 -4.536036 -3.233598 0
M  V30 57 H 0.278133 -3.195167 -3.588051 0
M  V30 58 H 1.268524 -4.340913 -0.893880 0
M  V30 59 H 1.687243 -2.707113 -1.597084 0
M  V30 60 H 1.995651 -2.780015 4.000535 0
M  V30 END ATOM
M  V30 BEGIN BOND
M  V30 1 1 1 2
M  V30 2 1 2 3
M  V30 3 2 3 4
M  V30 4 1 4 5
M  V30 5 2 5 6
M  V30 6 1 6 7
M  V30 7 2 7 8
M  V30 8 1 8 9
M  V30 9 1 9 10
M  V30 10 2 10 11
M  V30 11 1 11 12
M  V30 12 1 12 13
M  V30 13 1 13 14
M  V30 14 2 14 15
M  V30 15 1 15 16
M  V30 16 2 16 17
M  V30 17 1 17 18
M  V30 18 2 18 19
M  V30 19 2 12 20
M  V30 20 1 20 21
M  V30 21 1 21 22
M  V30 22 1 22 23
M  V30 23 1 23 24
M  V30 24 1 24 25
M  V30 25 1 25 26
M  V30 26 1 26 27
M  V30 27 1 26 28
M  V30 28 1 28 29
M  V30 29 2 21 30
M  V30 30 1 8 31
M  V30 31 1 31 32
M  V30 32 2 32 33
M  V30 33 1 33 3
M  V30 34 1 32 6
M  V30 35 1 30 10
M  V30 36 1 19 14
M  V30 37 1 29 23
M  V30 38 1 1 34
M  V30 39 1 1 35
M  V30 40 1 1 36
M  V30 41 1 4 37
M  V30 42 1 5 38
M  V30 43 1 9 39
M  V30 44 1 11 40
M  V30 45 1 13 41
M  V30 46 1 13 42
M  V30 47 1 15 43
M  V30 48 1 16 44
M  V30 49 1 17 45
M  V30 50 1 18 46
M  V30 51 1 19 47
M  V30 52 1 22 48
M  V30 53 1 23 49 CFG=1
M  V30 54 1 24 50
M  V30 55 1 24 51
M  V30 56 1 25 52
M  V30 57 1 25 53
M  V30 58 1 26 54 CFG=3
M  V30 59 1 27 55
M  V30 60 1 28 56
M  V30 61 1 28 57
M  V30 62 1 29 58
M  V30 63 1 29 59
M  V30 64 1 33 60
M  V30 END BOND
M  V30 END CTAB
M  END
>  <Dataset>  (848) 
ChEMBL_Kinases

>  <Ligand_Instance>  (848) 
nan

>  <PDB_ID>  (848) 
nan

>  <Standardized_SMILES>  (848) 
COc1ccc2nc(Nc3cc(Cc4ccccc4)nc(N[C@H]4CC[C@H](O)CC4)n3)sc2c1

>  <Name>  (848) 
nan

>  <Pocket>  (848) 
nan

>  <ATP_Site>  (848) 
nan

>  <Peripheral>  (848) 
nan

>  <Num_H_Atoms_ProtBoundConf>  (848) 
nan

>  <Num_Resolved_Atoms>  (848) 
nan

>  <Num_Not_Resolved_Atoms>  (848) 
nan

$$$$
CHEMBL2441267
     RDKit          3D

  0  0  0  0  0  0  0  0  0  0999 V3000
M  V30 BEGIN CTAB
M  V30 COUNTS 53 56 0 0 0
M  V30 BEGIN ATOM
M  V30 1 C -0.082967 -1.875710 5.558561 0
M  V30 2 C 0.333422 -2.340668 4.196116 0
M  V30 3 C -0.032418 -3.263519 3.219833 0
M  V30 4 N 0.701647 -3.259064 2.134333 0
M  V30 5 C 1.619115 -2.598815 1.855817 0
M  V30 6 N 2.308476 -2.738361 0.576958 0
M  V30 7 C 1.866290 -1.547155 -0.117014 0
M  V30 8 C 2.705838 -0.465908 -0.171151 0
M  V30 9 C 2.195797 0.619329 -0.821633 0
M  V30 10 C 2.978291 1.899067 -0.959372 0
M  V30 11 C 2.728506 2.622547 0.329153 0
M  V30 12 C 1.466245 3.218999 0.357980 0
M  V30 13 C 1.055103 3.938635 1.465438 0
M  V30 14 C 1.955042 4.023340 2.510387 0
M  V30 15 C 3.208118 3.449757 2.520723 0
M  V30 16 C 3.576430 2.741019 1.394090 0
M  V30 17 N 0.985919 0.637017 -1.364665 0
M  V30 18 C 0.172271 -0.432609 -1.305595 0
M  V30 19 N -1.151000 -0.409190 -1.901377 0
M  V30 20 C -1.877302 -1.648642 -1.686064 0 CFG=1
M  V30 21 C -2.036863 -1.911254 -0.188295 0
M  V30 22 C -3.420878 -2.293352 0.195276 0
M  V30 23 C -4.031809 -3.331669 -0.725592 0 CFG=2
M  V30 24 O -3.563807 -4.609950 -0.441835 0
M  V30 25 C -3.812517 -2.978232 -2.177715 0
M  V30 26 C -3.269028 -1.547135 -2.253725 0
M  V30 27 N 0.652955 -1.494825 -0.675116 0
M  V30 28 S 1.769563 -1.505547 3.434923 0
M  V30 29 H 0.795909 -1.833834 6.249372 0
M  V30 30 H -0.848678 -2.570544 5.903929 0
M  V30 31 H -0.558125 -0.857135 5.487776 0
M  V30 32 H -0.894497 -3.885553 3.497360 0
M  V30 33 H 2.869983 -3.587154 0.530606 0
M  V30 34 H 3.680940 -0.476024 0.261873 0
M  V30 35 H 2.649423 2.452559 -1.841579 0
M  V30 36 H 4.046947 1.645475 -1.034120 0
M  V30 37 H 0.724887 3.180612 -0.439115 0
M  V30 38 H 0.108272 4.453188 1.617575 0
M  V30 39 H 1.716661 4.567762 3.423049 0
M  V30 40 H 3.933764 3.484020 3.301517 0
M  V30 41 H 4.523958 2.217558 1.212372 0
M  V30 42 H -1.441024 0.457102 -2.404843 0
M  V30 43 H -1.326928 -2.487179 -2.106398 0
M  V30 44 H -1.785028 -0.956731 0.320295 0
M  V30 45 H -1.272900 -2.634503 0.176705 0
M  V30 46 H -3.343625 -2.805206 1.188526 0
M  V30 47 H -4.131923 -1.457314 0.338367 0
M  V30 48 H -5.118199 -3.323733 -0.542539 0
M  V30 49 H -2.865607 -4.646796 0.258778 0
M  V30 50 H -2.975031 -3.603878 -2.561743 0
M  V30 51 H -4.677187 -3.144158 -2.828273 0
M  V30 52 H -3.280508 -1.163149 -3.286877 0
M  V30 53 H -3.945861 -0.937471 -1.615445 0
M  V30 END ATOM
M  V30 BEGIN BOND
M  V30 1 1 1 2
M  V30 2 2 2 3
M  V30 3 1 3 4
M  V30 4 2 4 5
M  V30 5 1 5 6
M  V30 6 1 6 7
M  V30 7 2 7 8
M  V30 8 1 8 9
M  V30 9 1 9 10
M  V30 10 1 10 11
M  V30 11 2 11 12
M  V30 12 1 12 13
M  V30 13 2 13 14
M  V30 14 1 14 15
M  V30 15 2 15 16
M  V30 16 2 9 17
M  V30 17 1 17 18
M  V30 18 1 18 19
M  V30 19 1 19 20
M  V30 20 1 20 21
M  V30 21 1 21 22
M  V30 22 1 22 23
M  V30 23 1 23 24
M  V30 24 1 23 25
M  V30 25 1 25 26
M  V30 26 2 18 27
M  V30 27 1 5 28
M  V30 28 1 28 2
M  V30 29 1 27 7
M  V30 30 1 16 11
M  V30 31 1 26 20
M  V30 32 1 1 29
M  V30 33 1 1 30
M  V30 34 1 1 31
M  V30 35 1 3 32
M  V30 36 1 6 33
M  V30 37 1 8 34
M  V30 38 1 10 35
M  V30 39 1 10 36
M  V30 40 1 12 37
M  V30 41 1 13 38
M  V30 42 1 14 39
M  V30 43 1 15 40
M  V30 44 1 16 41
M  V30 45 1 19 42
M  V30 46 1 20 43 CFG=3
M  V30 47 1 21 44
M  V30 48 1 21 45
M  V30 49 1 22 46
M  V30 50 1 22 47
M  V30 51 1 23 48 CFG=3
M  V30 52 1 24 49
M  V30 53 1 25 50
M  V30 54 1 25 51
M  V30 55 1 26 52
M  V30 56 1 26 53
M  V30 END BOND
M  V30 END CTAB
M  END
>  <Dataset>  (849) 
ChEMBL_Kinases

>  <Ligand_Instance>  (849) 
nan

>  <PDB_ID>  (849) 
nan

>  <Standardized_SMILES>  (849) 
Cc1cnc(Nc2cc(Cc3ccccc3)nc(N[C@H]3CC[C@H](O)CC3)n2)s1

>  <Name>  (849) 
nan

>  <Pocket>  (849) 
nan

>  <ATP_Site>  (849) 
nan

>  <Peripheral>  (849) 
nan

>  <Num_H_Atoms_ProtBoundConf>  (849) 
nan

>  <Num_Resolved_Atoms>  (849) 
nan

>  <Num_Not_Resolved_Atoms>  (849) 
nan

$$$$
CHEMBL2441269
     RDKit          3D

  0  0  0  0  0  0  0  0  0  0999 V3000
M  V30 BEGIN CTAB
M  V30 COUNTS 56 60 0 0 0
M  V30 BEGIN ATOM
M  V30 1 O 5.781372 -1.200601 0.118821 0
M  V30 2 C 5.011057 -2.321410 0.290644 0 CFG=1
M  V30 3 C 4.691727 -2.633094 1.727009 0
M  V30 4 C 3.820726 -1.678070 2.427661 0
M  V30 5 C 2.847343 -0.881027 1.629280 0 CFG=2
M  V30 6 N 1.462135 -1.209648 1.905132 0
M  V30 7 C 0.312608 -0.577090 1.356369 0
M  V30 8 N 0.314514 0.433365 0.502528 0
M  V30 9 C -0.758297 1.042937 -0.026699 0
M  V30 10 C -0.605891 2.178768 -0.983499 0
M  V30 11 C -0.571854 3.491177 -0.291866 0
M  V30 12 C 0.622486 4.050778 0.133480 0
M  V30 13 C 0.565209 5.269275 0.766484 0
M  V30 14 C -0.632058 5.921423 0.976651 0
M  V30 15 C -1.830391 5.363335 0.551609 0
M  V30 16 C -1.784710 4.125293 -0.092976 0
M  V30 17 C -1.979260 0.546231 0.376952 0
M  V30 18 C -2.045543 -0.506111 1.265316 0
M  V30 19 N -3.289234 -1.048523 1.706795 0
M  V30 20 C -3.770293 -2.136649 0.846680 0
M  V30 21 N -3.549377 -3.261467 0.955865 0
M  V30 22 C -3.962910 -4.277393 0.202813 0
M  V30 23 C -3.698740 -5.625041 0.333286 0
M  V30 24 C -4.239433 -6.508797 -0.572794 0
M  V30 25 C -5.046179 -6.173297 -1.634602 0
M  V30 26 C -5.323012 -4.831514 -1.783828 0
M  V30 27 C -4.774715 -3.927866 -0.863661 0
M  V30 28 S -4.895065 -2.126552 -0.714258 0
M  V30 29 N -0.900027 -1.018541 1.713370 0
M  V30 30 C 3.053886 -0.906211 0.156267 0
M  V30 31 C 3.662548 -2.175157 -0.386826 0
M  V30 32 H 5.587591 -0.688397 -0.705935 0
M  V30 33 H 5.524413 -3.205809 -0.138843 0
M  V30 34 H 4.262786 -3.669963 1.749152 0
M  V30 35 H 5.686646 -2.723968 2.240576 0
M  V30 36 H 4.471534 -1.019763 3.076098 0
M  V30 37 H 3.211277 -2.252672 3.186463 0
M  V30 38 H 2.947124 0.186279 1.937564 0
M  V30 39 H 1.338711 -1.996509 2.580456 0
M  V30 40 H -1.421602 2.086360 -1.724113 0
M  V30 41 H 0.347734 2.006074 -1.545360 0
M  V30 42 H 1.564000 3.537049 -0.032319 0
M  V30 43 H 1.475580 5.765978 1.127525 0
M  V30 44 H -0.628924 6.888754 1.484674 0
M  V30 45 H -2.763125 5.896158 0.728366 0
M  V30 46 H -2.730222 3.674972 -0.433926 0
M  V30 47 H -2.881146 0.997759 -0.016442 0
M  V30 48 H -3.984877 -0.902552 2.481345 0
M  V30 49 H -3.082604 -6.063877 1.112101 0
M  V30 50 H -4.037004 -7.583240 -0.480641 0
M  V30 51 H -5.478904 -6.848097 -2.354080 0
M  V30 52 H -5.925611 -4.372563 -2.540297 0
M  V30 53 H 2.111389 -0.763291 -0.408405 0
M  V30 54 H 3.716996 -0.056279 -0.173395 0
M  V30 55 H 3.797141 -2.047408 -1.462970 0
M  V30 56 H 3.025980 -3.049385 -0.156750 0
M  V30 END ATOM
M  V30 BEGIN BOND
M  V30 1 1 1 2
M  V30 2 1 2 3
M  V30 3 1 3 4
M  V30 4 1 4 5
M  V30 5 1 5 6
M  V30 6 1 6 7
M  V30 7 2 7 8
M  V30 8 1 8 9
M  V30 9 1 9 10
M  V30 10 1 10 11
M  V30 11 2 11 12
M  V30 12 1 12 13
M  V30 13 2 13 14
M  V30 14 1 14 15
M  V30 15 2 15 16
M  V30 16 2 9 17
M  V30 17 1 17 18
M  V30 18 1 18 19
M  V30 19 1 19 20
M  V30 20 2 20 21
M  V30 21 1 21 22
M  V30 22 2 22 23
M  V30 23 1 23 24
M  V30 24 2 24 25
M  V30 25 1 25 26
M  V30 26 2 26 27
M  V30 27 1 27 28
M  V30 28 2 18 29
M  V30 29 1 5 30
M  V30 30 1 30 31
M  V30 31 1 31 2
M  V30 32 1 29 7
M  V30 33 1 16 11
M  V30 34 1 28 20
M  V30 35 1 27 22
M  V30 36 1 1 32
M  V30 37 1 2 33 CFG=3
M  V30 38 1 3 34
M  V30 39 1 3 35
M  V30 40 1 4 36
M  V30 41 1 4 37
M  V30 42 1 5 38 CFG=1
M  V30 43 1 6 39
M  V30 44 1 10 40
M  V30 45 1 10 41
M  V30 46 1 12 42
M  V30 47 1 13 43
M  V30 48 1 14 44
M  V30 49 1 15 45
M  V30 50 1 16 46
M  V30 51 1 17 47
M  V30 52 1 19 48
M  V30 53 1 23 49
M  V30 54 1 24 50
M  V30 55 1 25 51
M  V30 56 1 26 52
M  V30 57 1 30 53
M  V30 58 1 30 54
M  V30 59 1 31 55
M  V30 60 1 31 56
M  V30 END BOND
M  V30 END CTAB
M  END
>  <Dataset>  (850) 
ChEMBL_Kinases

>  <Ligand_Instance>  (850) 
nan

>  <PDB_ID>  (850) 
nan

>  <Standardized_SMILES>  (850) 
O[C@H]1CC[C@H](Nc2nc(Cc3ccccc3)cc(Nc3nc4ccccc4s3)n2)CC1

>  <Name>  (850) 
nan

>  <Pocket>  (850) 
nan

>  <ATP_Site>  (850) 
nan

>  <Peripheral>  (850) 
nan

>  <Num_H_Atoms_ProtBoundConf>  (850) 
nan

>  <Num_Resolved_Atoms>  (850) 
nan

>  <Num_Not_Resolved_Atoms>  (850) 
nan

$$$$
CHEMBL2441270
     RDKit          3D

  0  0  0  0  0  0  0  0  0  0999 V3000
M  V30 BEGIN CTAB
M  V30 COUNTS 59 63 0 0 0
M  V30 BEGIN ATOM
M  V30 1 C 1.802707 -6.741075 4.258306 0
M  V30 2 C 2.226342 -5.374464 3.874324 0
M  V30 3 C 3.290846 -4.677765 4.404777 0
M  V30 4 C 3.683121 -3.406793 4.046753 0
M  V30 5 C 2.957182 -2.741096 3.062395 0
M  V30 6 N 3.218797 -1.524796 2.622701 0
M  V30 7 C 2.593024 -0.946803 1.772119 0
M  V30 8 N 2.542075 0.271603 1.059295 0
M  V30 9 C 1.601391 0.652167 0.068034 0
M  V30 10 C 1.762569 1.868748 -0.500880 0
M  V30 11 C 0.922171 2.362372 -1.474953 0
M  V30 12 C 1.105563 3.700294 -2.095953 0
M  V30 13 C 0.327011 4.663838 -1.265158 0
M  V30 14 C 0.944450 5.284911 -0.197841 0
M  V30 15 C 0.322451 6.188698 0.632557 0
M  V30 16 C -1.001674 6.482711 0.369424 0
M  V30 17 C -1.648716 5.871918 -0.699188 0
M  V30 18 C -0.998642 4.968586 -1.515677 0
M  V30 19 N -0.089080 1.559726 -1.841991 0
M  V30 20 C -0.292486 0.324500 -1.296717 0
M  V30 21 N -1.374959 -0.459024 -1.739848 0
M  V30 22 C -1.742549 -1.757213 -1.276939 0 CFG=1
M  V30 23 C -2.117610 -1.804023 0.197458 0
M  V30 24 C -2.135038 -3.250473 0.597627 0
M  V30 25 C -3.173363 -4.002196 -0.206963 0 CFG=2
M  V30 26 O -2.959677 -5.368965 0.074121 0
M  V30 27 C -2.990722 -3.809669 -1.687872 0
M  V30 28 C -2.932878 -2.331829 -2.011564 0
M  V30 29 N 0.575576 -0.086179 -0.347816 0
M  V30 30 S 1.284293 -2.227227 1.350998 0
M  V30 31 C 1.877092 -3.446542 2.523333 0
M  V30 32 C 1.507917 -4.718847 2.901884 0
M  V30 33 H 2.625445 -7.296973 4.774856 0
M  V30 34 H 1.387531 -7.310768 3.411178 0
M  V30 35 H 0.998452 -6.664690 5.019765 0
M  V30 36 H 3.842452 -5.230578 5.178361 0
M  V30 37 H 4.544219 -3.020217 4.572482 0
M  V30 38 H 3.318212 0.894387 1.361890 0
M  V30 39 H 2.575824 2.522481 -0.210330 0
M  V30 40 H 0.817954 3.720719 -3.159677 0
M  V30 41 H 2.194379 3.931732 -1.967110 0
M  V30 42 H 1.971357 5.068202 0.020360 0
M  V30 43 H 0.795486 6.672810 1.460737 0
M  V30 44 H -1.583457 7.176503 0.957342 0
M  V30 45 H -2.691926 6.034605 -0.992434 0
M  V30 46 H -1.461986 4.466388 -2.361655 0
M  V30 47 H -1.997898 -0.060858 -2.499325 0
M  V30 48 H -0.898147 -2.488733 -1.408537 0
M  V30 49 H -3.144032 -1.375067 0.266358 0
M  V30 50 H -1.471290 -1.200817 0.830939 0
M  V30 51 H -2.417039 -3.389866 1.662441 0
M  V30 52 H -1.144914 -3.704151 0.425276 0
M  V30 53 H -4.191880 -3.740790 0.104334 0
M  V30 54 H -2.482995 -5.815594 -0.688157 0
M  V30 55 H -3.876912 -4.293125 -2.171805 0
M  V30 56 H -2.036224 -4.296755 -1.987597 0
M  V30 57 H -2.896027 -2.148670 -3.091503 0
M  V30 58 H -3.854729 -1.888675 -1.540552 0
M  V30 59 H 0.659829 -5.101531 2.385166 0
M  V30 END ATOM
M  V30 BEGIN BOND
M  V30 1 1 1 2
M  V30 2 2 2 3
M  V30 3 1 3 4
M  V30 4 2 4 5
M  V30 5 1 5 6
M  V30 6 2 6 7
M  V30 7 1 7 8
M  V30 8 1 8 9
M  V30 9 2 9 10
M  V30 10 1 10 11
M  V30 11 1 11 12
M  V30 12 1 12 13
M  V30 13 2 13 14
M  V30 14 1 14 15
M  V30 15 2 15 16
M  V30 16 1 16 17
M  V30 17 2 17 18
M  V30 18 2 11 19
M  V30 19 1 19 20
M  V30 20 1 20 21
M  V30 21 1 21 22
M  V30 22 1 22 23
M  V30 23 1 23 24
M  V30 24 1 24 25
M  V30 25 1 25 26
M  V30 26 1 25 27
M  V30 27 1 27 28
M  V30 28 2 20 29
M  V30 29 1 7 30
M  V30 30 1 30 31
M  V30 31 2 31 32
M  V30 32 1 32 2
M  V30 33 1 31 5
M  V30 34 1 29 9
M  V30 35 1 18 13
M  V30 36 1 28 22
M  V30 37 1 1 33
M  V30 38 1 1 34
M  V30 39 1 1 35
M  V30 40 1 3 36
M  V30 41 1 4 37
M  V30 42 1 8 38
M  V30 43 1 10 39
M  V30 44 1 12 40
M  V30 45 1 12 41
M  V30 46 1 14 42
M  V30 47 1 15 43
M  V30 48 1 16 44
M  V30 49 1 17 45
M  V30 50 1 18 46
M  V30 51 1 21 47
M  V30 52 1 22 48 CFG=1
M  V30 53 1 23 49
M  V30 54 1 23 50
M  V30 55 1 24 51
M  V30 56 1 24 52
M  V30 57 1 25 53 CFG=1
M  V30 58 1 26 54
M  V30 59 1 27 55
M  V30 60 1 27 56
M  V30 61 1 28 57
M  V30 62 1 28 58
M  V30 63 1 32 59
M  V30 END BOND
M  V30 END CTAB
M  END
>  <Dataset>  (851) 
ChEMBL_Kinases

>  <Ligand_Instance>  (851) 
nan

>  <PDB_ID>  (851) 
nan

>  <Standardized_SMILES>  (851) 
Cc1ccc2nc(Nc3cc(Cc4ccccc4)nc(N[C@H]4CC[C@H](O)CC4)n3)sc2c1

>  <Name>  (851) 
nan

>  <Pocket>  (851) 
nan

>  <ATP_Site>  (851) 
nan

>  <Peripheral>  (851) 
nan

>  <Num_H_Atoms_ProtBoundConf>  (851) 
nan

>  <Num_Resolved_Atoms>  (851) 
nan

>  <Num_Not_Resolved_Atoms>  (851) 
nan

$$$$
CHEMBL2441281
     RDKit          3D

  0  0  0  0  0  0  0  0  0  0999 V3000
M  V30 BEGIN CTAB
M  V30 COUNTS 59 63 0 0 0
M  V30 BEGIN ATOM
M  V30 1 O 4.161372 -3.524790 3.288947 0
M  V30 2 C 3.338099 -2.833868 2.397377 0 CFG=1
M  V30 3 C 3.932533 -1.464547 2.135139 0
M  V30 4 C 4.304668 -1.331695 0.658810 0
M  V30 5 C 3.035242 -1.472570 -0.173036 0 CFG=2
M  V30 6 N 2.100548 -0.435361 0.121641 0
M  V30 7 C 0.813046 -0.223482 -0.444078 0
M  V30 8 N 0.012109 0.813366 -0.063652 0
M  V30 9 C -1.211372 1.017639 -0.590877 0
M  V30 10 N -1.786365 2.176486 0.001826 0
M  V30 11 C -2.232318 2.143071 1.357439 0
M  V30 12 C -2.805092 3.248451 1.947450 0
M  V30 13 C -3.227927 3.258510 3.262791 0
M  V30 14 C -3.790017 4.415259 3.782330 0
M  V30 15 C -4.175120 4.331103 5.103657 0
M  V30 16 C -4.057008 3.235580 5.931687 0
M  V30 17 C -3.476355 2.128129 5.298621 0
M  V30 18 C -3.060164 2.109072 3.992088 0
M  V30 19 C -2.489937 1.003738 3.409743 0
M  V30 20 N -2.089325 1.040849 2.113012 0
M  V30 21 C -1.669346 0.152768 -1.545647 0
M  V30 22 C -0.874240 -0.902743 -1.947034 0
M  V30 23 C -1.500838 -1.748711 -2.990577 0
M  V30 24 F -2.719609 -2.200445 -2.493146 0
M  V30 25 F -1.825888 -0.935776 -4.064051 0
M  V30 26 C -0.680346 -2.900206 -3.399801 0
M  V30 27 C -0.332802 -3.887003 -2.502926 0
M  V30 28 C 0.446575 -4.941058 -2.995798 0
M  V30 29 C 0.858412 -5.017149 -4.294473 0
M  V30 30 F 1.603223 -6.044007 -4.736780 0
M  V30 31 C 0.502233 -4.019387 -5.182452 0
M  V30 32 C -0.265721 -2.964228 -4.734309 0
M  V30 33 N 0.336935 -1.061371 -1.388483 0
M  V30 34 C 2.368259 -2.809182 0.136400 0
M  V30 35 C 3.191846 -3.611265 1.131250 0
M  V30 36 H 3.573166 -3.875767 4.011836 0
M  V30 37 H 2.327893 -2.686313 2.820286 0
M  V30 38 H 3.243359 -0.653392 2.452080 0
M  V30 39 H 4.867764 -1.341283 2.715161 0
M  V30 40 H 4.701623 -0.310262 0.532503 0
M  V30 41 H 5.028594 -2.103289 0.398664 0
M  V30 42 H 3.326248 -1.501955 -1.252131 0
M  V30 43 H 2.387021 0.281598 0.856454 0
M  V30 44 H -1.880340 3.040352 -0.547011 0
M  V30 45 H -2.922698 4.130018 1.350701 0
M  V30 46 H -3.929635 5.325681 3.217971 0
M  V30 47 H -4.615738 5.232514 5.516321 0
M  V30 48 H -4.381669 3.265211 6.942501 0
M  V30 49 H -3.358981 1.238526 5.904243 0
M  V30 50 H -2.403393 0.151235 4.066687 0
M  V30 51 H -2.667802 0.434028 -1.881294 0
M  V30 52 H -0.662661 -3.828806 -1.453403 0
M  V30 53 H 0.731556 -5.724935 -2.321265 0
M  V30 54 H 0.824560 -4.061021 -6.234939 0
M  V30 55 H -0.510914 -2.215735 -5.472825 0
M  V30 56 H 1.374237 -2.679944 0.631806 0
M  V30 57 H 2.165859 -3.376688 -0.800836 0
M  V30 58 H 2.576726 -4.525094 1.345671 0
M  V30 59 H 4.138788 -3.974790 0.687279 0
M  V30 END ATOM
M  V30 BEGIN BOND
M  V30 1 1 1 2
M  V30 2 1 2 3
M  V30 3 1 3 4
M  V30 4 1 4 5
M  V30 5 1 5 6
M  V30 6 1 6 7
M  V30 7 2 7 8
M  V30 8 1 8 9
M  V30 9 1 9 10
M  V30 10 1 10 11
M  V30 11 2 11 12
M  V30 12 1 12 13
M  V30 13 2 13 14
M  V30 14 1 14 15
M  V30 15 2 15 16
M  V30 16 1 16 17
M  V30 17 2 17 18
M  V30 18 1 18 19
M  V30 19 2 19 20
M  V30 20 2 9 21
M  V30 21 1 21 22
M  V30 22 1 22 23
M  V30 23 1 23 24
M  V30 24 1 23 25
M  V30 25 1 23 26
M  V30 26 2 26 27
M  V30 27 1 27 28
M  V30 28 2 28 29
M  V30 29 1 29 30
M  V30 30 1 29 31
M  V30 31 2 31 32
M  V30 32 2 22 33
M  V30 33 1 5 34
M  V30 34 1 34 35
M  V30 35 1 35 2
M  V30 36 1 33 7
M  V30 37 1 20 11
M  V30 38 1 32 26
M  V30 39 1 18 13
M  V30 40 1 1 36
M  V30 41 1 2 37 CFG=1
M  V30 42 1 3 38
M  V30 43 1 3 39
M  V30 44 1 4 40
M  V30 45 1 4 41
M  V30 46 1 5 42 CFG=3
M  V30 47 1 6 43
M  V30 48 1 10 44
M  V30 49 1 12 45
M  V30 50 1 14 46
M  V30 51 1 15 47
M  V30 52 1 16 48
M  V30 53 1 17 49
M  V30 54 1 19 50
M  V30 55 1 21 51
M  V30 56 1 27 52
M  V30 57 1 28 53
M  V30 58 1 31 54
M  V30 59 1 32 55
M  V30 60 1 34 56
M  V30 61 1 34 57
M  V30 62 1 35 58
M  V30 63 1 35 59
M  V30 END BOND
M  V30 END CTAB
M  END
>  <Dataset>  (852) 
ChEMBL_Kinases

>  <Ligand_Instance>  (852) 
nan

>  <PDB_ID>  (852) 
nan

>  <Standardized_SMILES>  (852) 
O[C@H]1CC[C@H](Nc2nc(Nc3cc4ccccc4cn3)cc(C(F)(F)c3ccc(F)cc3)n2)CC1

>  <Name>  (852) 
nan

>  <Pocket>  (852) 
nan

>  <ATP_Site>  (852) 
nan

>  <Peripheral>  (852) 
nan

>  <Num_H_Atoms_ProtBoundConf>  (852) 
nan

>  <Num_Resolved_Atoms>  (852) 
nan

>  <Num_Not_Resolved_Atoms>  (852) 
nan

$$$$
CHEMBL2441272
     RDKit          3D

  0  0  0  0  0  0  0  0  0  0999 V3000
M  V30 BEGIN CTAB
M  V30 COUNTS 59 63 0 0 0
M  V30 BEGIN ATOM
M  V30 1 O 3.327408 -3.869036 3.181352 0
M  V30 2 C 2.824104 -3.046769 2.198716 0 CFG=1
M  V30 3 C 2.135063 -1.814410 2.732286 0
M  V30 4 C 2.502650 -0.565316 1.948561 0
M  V30 5 C 2.454762 -0.857838 0.449467 0 CFG=2
M  V30 6 N 1.114587 -1.023194 -0.001121 0
M  V30 7 C 0.263791 -0.234648 -0.813841 0
M  V30 8 N 0.629964 0.867619 -1.448493 0
M  V30 9 C -0.267033 1.589456 -2.148967 0
M  V30 10 C 0.185725 2.791147 -2.896883 0
M  V30 11 C 0.707785 3.827985 -1.972475 0
M  V30 12 C 0.133814 4.883156 -1.311676 0
M  V30 13 C 0.903625 5.686882 -0.512022 0
M  V30 14 C 2.265733 5.478579 -0.335679 0
M  V30 15 C 2.860218 4.432258 -0.984829 0
M  V30 16 C 2.083785 3.622007 -1.790609 0
M  V30 17 C -1.590525 1.184001 -2.212672 0
M  V30 18 C -1.974808 0.037335 -1.553763 0
M  V30 19 N -3.323070 -0.480326 -1.516694 0
M  V30 20 C -3.537816 -1.747480 -0.832050 0
M  V30 21 N -3.766621 -2.859872 -0.732622 0
M  V30 22 C -3.810002 -3.650418 0.308727 0
M  V30 23 C -4.085447 -4.995992 0.419956 0
M  V30 24 C -4.069227 -5.620217 1.622703 0
M  V30 25 C -3.782781 -4.990492 2.835236 0
M  V30 26 C -3.751102 -5.627615 4.175119 0
M  V30 27 F -2.411184 -5.903448 4.484649 0
M  V30 28 F -4.399038 -6.847576 4.163155 0
M  V30 29 F -4.216546 -4.783660 5.154456 0
M  V30 30 C -3.493746 -3.643410 2.838368 0
M  V30 31 C -3.525915 -3.060773 1.579059 0
M  V30 32 S -3.213260 -1.284634 1.008209 0
M  V30 33 N -1.003467 -0.605090 -0.888166 0
M  V30 34 C 3.414666 -1.923344 0.080278 0
M  V30 35 C 3.979180 -2.631017 1.308564 0
M  V30 36 H 3.286790 -3.489738 4.075926 0
M  V30 37 H 2.099539 -3.616400 1.548160 0
M  V30 38 H 1.047146 -1.983621 2.739027 0
M  V30 39 H 2.473063 -1.659265 3.773944 0
M  V30 40 H 1.801545 0.223456 2.221691 0
M  V30 41 H 3.527997 -0.290668 2.198013 0
M  V30 42 H 2.827755 0.105048 -0.018591 0
M  V30 43 H 0.841991 -1.930566 0.412742 0
M  V30 44 H 0.885776 2.562680 -3.724086 0
M  V30 45 H -0.706782 3.260745 -3.388894 0
M  V30 46 H -0.916355 4.937228 -1.529212 0
M  V30 47 H 0.366824 6.507131 -0.022590 0
M  V30 48 H 2.795959 6.150511 0.303518 0
M  V30 49 H 3.924380 4.313692 -0.815845 0
M  V30 50 H 2.697520 2.834987 -2.235089 0
M  V30 51 H -2.355998 1.714931 -2.754790 0
M  V30 52 H -4.086956 0.048063 -1.963986 0
M  V30 53 H -4.329679 -5.635222 -0.444168 0
M  V30 54 H -4.289650 -6.697121 1.694904 0
M  V30 55 H -3.251478 -2.974967 3.631730 0
M  V30 56 H 4.314823 -1.516748 -0.463526 0
M  V30 57 H 2.991237 -2.681847 -0.585569 0
M  V30 58 H 4.674743 -2.002943 1.865512 0
M  V30 59 H 4.483406 -3.528153 0.954428 0
M  V30 END ATOM
M  V30 BEGIN BOND
M  V30 1 1 1 2
M  V30 2 1 2 3
M  V30 3 1 3 4
M  V30 4 1 4 5
M  V30 5 1 5 6
M  V30 6 1 6 7
M  V30 7 2 7 8
M  V30 8 1 8 9
M  V30 9 1 9 10
M  V30 10 1 10 11
M  V30 11 2 11 12
M  V30 12 1 12 13
M  V30 13 2 13 14
M  V30 14 1 14 15
M  V30 15 2 15 16
M  V30 16 2 9 17
M  V30 17 1 17 18
M  V30 18 1 18 19
M  V30 19 1 19 20
M  V30 20 2 20 21
M  V30 21 1 21 22
M  V30 22 2 22 23
M  V30 23 1 23 24
M  V30 24 2 24 25
M  V30 25 1 25 26
M  V30 26 1 26 27
M  V30 27 1 26 28
M  V30 28 1 26 29
M  V30 29 1 25 30
M  V30 30 2 30 31
M  V30 31 1 31 32
M  V30 32 2 18 33
M  V30 33 1 5 34
M  V30 34 1 34 35
M  V30 35 1 35 2
M  V30 36 1 33 7
M  V30 37 1 16 11
M  V30 38 1 32 20
M  V30 39 1 31 22
M  V30 40 1 1 36
M  V30 41 1 2 37 CFG=3
M  V30 42 1 3 38
M  V30 43 1 3 39
M  V30 44 1 4 40
M  V30 45 1 4 41
M  V30 46 1 5 42 CFG=3
M  V30 47 1 6 43
M  V30 48 1 10 44
M  V30 49 1 10 45
M  V30 50 1 12 46
M  V30 51 1 13 47
M  V30 52 1 14 48
M  V30 53 1 15 49
M  V30 54 1 16 50
M  V30 55 1 17 51
M  V30 56 1 19 52
M  V30 57 1 23 53
M  V30 58 1 24 54
M  V30 59 1 30 55
M  V30 60 1 34 56
M  V30 61 1 34 57
M  V30 62 1 35 58
M  V30 63 1 35 59
M  V30 END BOND
M  V30 END CTAB
M  END
>  <Dataset>  (853) 
ChEMBL_Kinases

>  <Ligand_Instance>  (853) 
nan

>  <PDB_ID>  (853) 
nan

>  <Standardized_SMILES>  (853) 
O[C@H]1CC[C@H](Nc2nc(Cc3ccccc3)cc(Nc3nc4ccc(C(F)(F)F)cc4s3)n2)CC1

>  <Name>  (853) 
nan

>  <Pocket>  (853) 
nan

>  <ATP_Site>  (853) 
nan

>  <Peripheral>  (853) 
nan

>  <Num_H_Atoms_ProtBoundConf>  (853) 
nan

>  <Num_Resolved_Atoms>  (853) 
nan

>  <Num_Not_Resolved_Atoms>  (853) 
nan

$$$$
CHEMBL2441274
     RDKit          3D

  0  0  0  0  0  0  0  0  0  0999 V3000
M  V30 BEGIN CTAB
M  V30 COUNTS 57 61 0 0 0
M  V30 BEGIN ATOM
M  V30 1 N 4.639721 -6.828322 2.314069 0
M  V30 2 C 4.335820 -5.778490 1.889160 0
M  V30 3 C 3.987468 -4.494882 1.366612 0
M  V30 4 C 4.555758 -3.315313 1.797657 0
M  V30 5 C 4.234213 -2.074216 1.304071 0
M  V30 6 C 3.275728 -1.950287 0.299460 0
M  V30 7 N 2.849311 -0.851206 -0.282919 0
M  V30 8 C 2.073572 -0.728314 -1.098290 0
M  V30 9 N 1.325945 0.170734 -2.005032 0
M  V30 10 C 0.294471 0.665416 -1.157036 0
M  V30 11 C 0.375703 1.879298 -0.513214 0
M  V30 12 C -0.599313 2.356558 0.330384 0
M  V30 13 C -0.494905 3.683036 1.026452 0
M  V30 14 C 0.334436 3.465403 2.246311 0
M  V30 15 C 0.831883 4.475380 3.069068 0
M  V30 16 C 1.602285 4.183260 4.171956 0
M  V30 17 C 1.927063 2.900592 4.527767 0
M  V30 18 C 1.456346 1.871413 3.742804 0
M  V30 19 C 0.692129 2.182573 2.651711 0
M  V30 20 N -1.695265 1.570403 0.525805 0
M  V30 21 C -1.820897 0.361849 -0.089852 0
M  V30 22 N -2.978904 -0.472151 0.149949 0
M  V30 23 C -3.017489 -1.704645 -0.576858 0 CFG=1
M  V30 24 C -4.126382 -2.644140 -0.152244 0
M  V30 25 C -3.711910 -4.000815 -0.744500 0
M  V30 26 C -3.357662 -3.884191 -2.194920 0 CFG=2
M  V30 27 O -2.007750 -4.094376 -2.425956 0
M  V30 28 C -3.722906 -2.556737 -2.817993 0
M  V30 29 C -3.145890 -1.380346 -2.060709 0
M  V30 30 N -0.821228 -0.028030 -0.898963 0
M  V30 31 S 1.592003 -2.559164 -1.355423 0
M  V30 32 C 2.708387 -3.142655 -0.129648 0
M  V30 33 C 3.022059 -4.403392 0.359110 0
M  V30 34 H 5.287404 -3.462977 2.575184 0
M  V30 35 H 4.788967 -1.268555 1.770048 0
M  V30 36 H 1.549924 0.358512 -3.025189 0
M  V30 37 H 1.262938 2.501829 -0.680326 0
M  V30 38 H -1.497772 4.025278 1.287129 0
M  V30 39 H 0.012796 4.361141 0.318881 0
M  V30 40 H 0.576261 5.486146 2.792584 0
M  V30 41 H 1.981092 4.963802 4.808768 0
M  V30 42 H 2.523397 2.642502 5.375712 0
M  V30 43 H 1.681656 0.828443 3.968499 0
M  V30 44 H 0.329822 1.365997 2.031297 0
M  V30 45 H -3.683264 -0.120549 0.816749 0
M  V30 46 H -2.059905 -2.232879 -0.426536 0
M  V30 47 H -5.106107 -2.342474 -0.544112 0
M  V30 48 H -4.080686 -2.726539 0.949888 0
M  V30 49 H -4.417658 -4.795678 -0.500184 0
M  V30 50 H -2.749299 -4.236910 -0.196033 0
M  V30 51 H -3.892650 -4.671323 -2.764495 0
M  V30 52 H -1.482973 -4.240434 -1.618738 0
M  V30 53 H -4.799780 -2.411364 -2.938077 0
M  V30 54 H -3.247369 -2.549495 -3.837443 0
M  V30 55 H -3.852023 -0.525314 -2.191013 0
M  V30 56 H -2.186616 -1.076758 -2.491943 0
M  V30 57 H 2.510060 -5.260399 -0.058347 0
M  V30 END ATOM
M  V30 BEGIN BOND
M  V30 1 3 1 2
M  V30 2 1 2 3
M  V30 3 2 3 4
M  V30 4 1 4 5
M  V30 5 2 5 6
M  V30 6 1 6 7
M  V30 7 2 7 8
M  V30 8 1 8 9
M  V30 9 1 9 10
M  V30 10 2 10 11
M  V30 11 1 11 12
M  V30 12 1 12 13
M  V30 13 1 13 14
M  V30 14 2 14 15
M  V30 15 1 15 16
M  V30 16 2 16 17
M  V30 17 1 17 18
M  V30 18 2 18 19
M  V30 19 2 12 20
M  V30 20 1 20 21
M  V30 21 1 21 22
M  V30 22 1 22 23
M  V30 23 1 23 24
M  V30 24 1 24 25
M  V30 25 1 25 26
M  V30 26 1 26 27
M  V30 27 1 26 28
M  V30 28 1 28 29
M  V30 29 2 21 30
M  V30 30 1 8 31
M  V30 31 1 31 32
M  V30 32 2 32 33
M  V30 33 1 33 3
M  V30 34 1 32 6
M  V30 35 1 30 10
M  V30 36 1 19 14
M  V30 37 1 29 23
M  V30 38 1 4 34
M  V30 39 1 5 35
M  V30 40 1 9 36
M  V30 41 1 11 37
M  V30 42 1 13 38
M  V30 43 1 13 39
M  V30 44 1 15 40
M  V30 45 1 16 41
M  V30 46 1 17 42
M  V30 47 1 18 43
M  V30 48 1 19 44
M  V30 49 1 22 45
M  V30 50 1 23 46 CFG=3
M  V30 51 1 24 47
M  V30 52 1 24 48
M  V30 53 1 25 49
M  V30 54 1 25 50
M  V30 55 1 26 51 CFG=3
M  V30 56 1 27 52
M  V30 57 1 28 53
M  V30 58 1 28 54
M  V30 59 1 29 55
M  V30 60 1 29 56
M  V30 61 1 33 57
M  V30 END BOND
M  V30 END CTAB
M  END
>  <Dataset>  (854) 
ChEMBL_Kinases

>  <Ligand_Instance>  (854) 
nan

>  <PDB_ID>  (854) 
nan

>  <Standardized_SMILES>  (854) 
N#Cc1ccc2nc(Nc3cc(Cc4ccccc4)nc(N[C@H]4CC[C@H](O)CC4)n3)sc2c1

>  <Name>  (854) 
nan

>  <Pocket>  (854) 
nan

>  <ATP_Site>  (854) 
nan

>  <Peripheral>  (854) 
nan

>  <Num_H_Atoms_ProtBoundConf>  (854) 
nan

>  <Num_Resolved_Atoms>  (854) 
nan

>  <Num_Not_Resolved_Atoms>  (854) 
nan

$$$$
CHEMBL2441275
     RDKit          3D

  0  0  0  0  0  0  0  0  0  0999 V3000
M  V30 BEGIN CTAB
M  V30 COUNTS 59 63 0 0 0
M  V30 BEGIN ATOM
M  V30 1 C 4.895496 -3.926043 6.213840 0
M  V30 2 O 4.837720 -2.526765 6.355096 0
M  V30 3 C 4.342853 -1.747914 5.335361 0
M  V30 4 C 4.222766 -0.374567 5.326310 0
M  V30 5 C 3.723973 0.371507 4.290806 0
M  V30 6 C 3.289251 -0.276085 3.126629 0
M  V30 7 N 2.804460 0.439893 2.117329 0
M  V30 8 C 2.415516 -0.224473 1.057697 0
M  V30 9 N 1.870638 0.268778 -0.129596 0
M  V30 10 C 0.553657 0.501714 -0.617304 0
M  V30 11 C 0.005796 1.731387 -0.317024 0
M  V30 12 C -1.262466 2.011811 -0.765745 0
M  V30 13 C -2.104549 3.224813 -0.599348 0
M  V30 14 C -2.982227 3.133313 0.584002 0
M  V30 15 C -4.186712 2.528488 0.265562 0
M  V30 16 C -5.186779 2.326159 1.213191 0
M  V30 17 C -4.904177 2.769482 2.506282 0
M  V30 18 C -3.712724 3.377206 2.859334 0
M  V30 19 C -2.763437 3.548901 1.877817 0
M  V30 20 N -1.919617 1.060195 -1.487206 0
M  V30 21 C -1.397114 -0.140287 -1.785728 0
M  V30 22 N -2.125601 -1.113931 -2.548023 0
M  V30 23 C -1.588329 -2.392186 -2.874479 0 CFG=1
M  V30 24 C -0.326439 -2.333072 -3.692489 0
M  V30 25 C -0.019741 -3.763330 -4.091012 0
M  V30 26 C 0.283874 -4.619927 -2.875416 0 CFG=2
M  V30 27 O -0.581009 -5.718989 -2.772751 0
M  V30 28 C 0.082532 -3.789893 -1.614732 0
M  V30 29 C -1.313557 -3.229505 -1.637947 0
M  V30 30 N -0.175705 -0.393175 -1.346042 0
M  V30 31 S 2.746346 -2.075312 1.470899 0
M  V30 32 C 3.433718 -1.716670 3.179665 0
M  V30 33 N 3.924110 -2.359578 4.216169 0
M  V30 34 H 4.192396 -4.309299 5.451451 0
M  V30 35 H 5.910239 -4.301649 5.927819 0
M  V30 36 H 4.666019 -4.449175 7.179095 0
M  V30 37 H 4.579840 0.080859 6.266498 0
M  V30 38 H 3.719916 1.431181 4.494400 0
M  V30 39 H 2.743143 0.474286 -0.701352 0
M  V30 40 H 0.432931 2.547204 0.239333 0
M  V30 41 H -2.629012 3.478256 -1.517891 0
M  V30 42 H -1.365333 4.050161 -0.377521 0
M  V30 43 H -4.503756 2.146365 -0.717523 0
M  V30 44 H -6.137972 1.871252 1.053734 0
M  V30 45 H -5.650421 2.636799 3.285831 0
M  V30 46 H -3.494920 3.717945 3.851127 0
M  V30 47 H -1.794445 4.005333 2.011189 0
M  V30 48 H -3.102255 -0.825392 -2.861051 0
M  V30 49 H -2.340094 -2.944637 -3.475232 0
M  V30 50 H 0.528146 -1.864024 -3.211152 0
M  V30 51 H -0.524791 -1.802405 -4.658622 0
M  V30 52 H 0.774050 -3.837342 -4.832074 0
M  V30 53 H -0.983084 -4.155371 -4.523439 0
M  V30 54 H 1.352035 -4.954604 -2.928390 0
M  V30 55 H -0.122863 -6.418532 -2.238153 0
M  V30 56 H 0.126158 -4.482794 -0.744321 0
M  V30 57 H 0.855647 -3.002130 -1.555592 0
M  V30 58 H -2.016582 -4.084454 -1.529368 0
M  V30 59 H -1.428644 -2.594715 -0.720396 0
M  V30 END ATOM
M  V30 BEGIN BOND
M  V30 1 1 1 2
M  V30 2 1 2 3
M  V30 3 2 3 4
M  V30 4 1 4 5
M  V30 5 2 5 6
M  V30 6 1 6 7
M  V30 7 2 7 8
M  V30 8 1 8 9
M  V30 9 1 9 10
M  V30 10 2 10 11
M  V30 11 1 11 12
M  V30 12 1 12 13
M  V30 13 1 13 14
M  V30 14 2 14 15
M  V30 15 1 15 16
M  V30 16 2 16 17
M  V30 17 1 17 18
M  V30 18 2 18 19
M  V30 19 2 12 20
M  V30 20 1 20 21
M  V30 21 1 21 22
M  V30 22 1 22 23
M  V30 23 1 23 24
M  V30 24 1 24 25
M  V30 25 1 25 26
M  V30 26 1 26 27
M  V30 27 1 26 28
M  V30 28 1 28 29
M  V30 29 2 21 30
M  V30 30 1 8 31
M  V30 31 1 31 32
M  V30 32 2 32 33
M  V30 33 1 33 3
M  V30 34 1 32 6
M  V30 35 1 30 10
M  V30 36 1 19 14
M  V30 37 1 29 23
M  V30 38 1 1 34
M  V30 39 1 1 35
M  V30 40 1 1 36
M  V30 41 1 4 37
M  V30 42 1 5 38
M  V30 43 1 9 39
M  V30 44 1 11 40
M  V30 45 1 13 41
M  V30 46 1 13 42
M  V30 47 1 15 43
M  V30 48 1 16 44
M  V30 49 1 17 45
M  V30 50 1 18 46
M  V30 51 1 19 47
M  V30 52 1 22 48
M  V30 53 1 23 49 CFG=3
M  V30 54 1 24 50
M  V30 55 1 24 51
M  V30 56 1 25 52
M  V30 57 1 25 53
M  V30 58 1 26 54 CFG=3
M  V30 59 1 27 55
M  V30 60 1 28 56
M  V30 61 1 28 57
M  V30 62 1 29 58
M  V30 63 1 29 59
M  V30 END BOND
M  V30 END CTAB
M  END
>  <Dataset>  (855) 
ChEMBL_Kinases

>  <Ligand_Instance>  (855) 
nan

>  <PDB_ID>  (855) 
nan

>  <Standardized_SMILES>  (855) 
COc1ccc2nc(Nc3cc(Cc4ccccc4)nc(N[C@H]4CC[C@H](O)CC4)n3)sc2n1

>  <Name>  (855) 
nan

>  <Pocket>  (855) 
nan

>  <ATP_Site>  (855) 
nan

>  <Peripheral>  (855) 
nan

>  <Num_H_Atoms_ProtBoundConf>  (855) 
nan

>  <Num_Resolved_Atoms>  (855) 
nan

>  <Num_Not_Resolved_Atoms>  (855) 
nan

$$$$
CHEMBL2441276
     RDKit          3D

  0  0  0  0  0  0  0  0  0  0999 V3000
M  V30 BEGIN CTAB
M  V30 COUNTS 55 59 0 0 0
M  V30 BEGIN ATOM
M  V30 1 O 5.766793 -0.408370 1.261834 0
M  V30 2 C 5.082352 -1.512130 0.786218 0 CFG=1
M  V30 3 C 4.588997 -2.409759 1.871679 0
M  V30 4 C 3.425136 -1.843711 2.651253 0
M  V30 5 C 2.519776 -1.119501 1.720634 0 CFG=2
M  V30 6 N 1.119083 -1.236779 2.072761 0
M  V30 7 C 0.047802 -0.624962 1.365259 0
M  V30 8 N 0.199122 0.141420 0.290785 0
M  V30 9 C -0.809638 0.717439 -0.382793 0
M  V30 10 C -0.627403 1.576017 -1.581598 0
M  V30 11 C -0.471321 3.012515 -1.198478 0
M  V30 12 C 0.756947 3.608436 -0.938012 0
M  V30 13 C 0.718102 4.943800 -0.594864 0
M  V30 14 C -0.444862 5.676501 -0.504783 0
M  V30 15 C -1.660499 5.076161 -0.765254 0
M  V30 16 C -1.643500 3.741450 -1.110334 0
M  V30 17 C -2.099954 0.502555 0.067283 0
M  V30 18 C -2.278345 -0.288478 1.179253 0
M  V30 19 N -3.552644 -0.599324 1.752202 0
M  V30 20 C -4.007578 -1.839983 1.166765 0
M  V30 21 N -3.793919 -2.922210 1.611316 0
M  V30 22 C -4.193318 -4.072242 1.103206 0
M  V30 23 C -3.983910 -5.355935 1.561875 0
M  V30 24 C -4.493054 -6.427175 0.873744 0
M  V30 25 C -5.229507 -6.343347 -0.287917 0
M  V30 26 N -5.427379 -5.087789 -0.725754 0
M  V30 27 C -4.953963 -4.024727 -0.092759 0
M  V30 28 S -5.040045 -2.219150 -0.411299 0
M  V30 29 N -1.214931 -0.816874 1.780827 0
M  V30 30 C 2.715452 -1.732001 0.326075 0
M  V30 31 C 4.004781 -1.139536 -0.205706 0
M  V30 32 H 6.068999 0.086340 0.443297 0
M  V30 33 H 5.826934 -2.105836 0.202998 0
M  V30 34 H 5.448772 -2.547054 2.576698 0
M  V30 35 H 4.380050 -3.423874 1.471405 0
M  V30 36 H 3.838360 -1.107578 3.391562 0
M  V30 37 H 2.906515 -2.647755 3.232025 0
M  V30 38 H 2.764914 -0.042088 1.727091 0
M  V30 39 H 0.914351 -1.819663 2.912272 0
M  V30 40 H -1.464133 1.442305 -2.307805 0
M  V30 41 H 0.294693 1.310543 -2.151451 0
M  V30 42 H 1.650221 3.004981 -1.017930 0
M  V30 43 H 1.689340 5.401388 -0.393228 0
M  V30 44 H -0.316118 6.710956 -0.225659 0
M  V30 45 H -2.556514 5.662744 -0.689555 0
M  V30 46 H -2.640626 3.328255 -1.304752 0
M  V30 47 H -2.983570 0.926258 -0.411852 0
M  V30 48 H -4.177791 -0.153139 2.450866 0
M  V30 49 H -3.427714 -5.585348 2.457040 0
M  V30 50 H -4.324672 -7.452199 1.242305 0
M  V30 51 H -5.657296 -7.135180 -0.877749 0
M  V30 52 H 2.736814 -2.826087 0.431879 0
M  V30 53 H 1.852239 -1.449285 -0.291949 0
M  V30 54 H 4.220111 -1.458965 -1.239218 0
M  V30 55 H 3.882627 -0.032966 -0.164463 0
M  V30 END ATOM
M  V30 BEGIN BOND
M  V30 1 1 1 2
M  V30 2 1 2 3
M  V30 3 1 3 4
M  V30 4 1 4 5
M  V30 5 1 5 6
M  V30 6 1 6 7
M  V30 7 2 7 8
M  V30 8 1 8 9
M  V30 9 1 9 10
M  V30 10 1 10 11
M  V30 11 2 11 12
M  V30 12 1 12 13
M  V30 13 2 13 14
M  V30 14 1 14 15
M  V30 15 2 15 16
M  V30 16 2 9 17
M  V30 17 1 17 18
M  V30 18 1 18 19
M  V30 19 1 19 20
M  V30 20 2 20 21
M  V30 21 1 21 22
M  V30 22 2 22 23
M  V30 23 1 23 24
M  V30 24 2 24 25
M  V30 25 1 25 26
M  V30 26 2 26 27
M  V30 27 1 27 28
M  V30 28 2 18 29
M  V30 29 1 5 30
M  V30 30 1 30 31
M  V30 31 1 31 2
M  V30 32 1 29 7
M  V30 33 1 16 11
M  V30 34 1 28 20
M  V30 35 1 27 22
M  V30 36 1 1 32
M  V30 37 1 2 33 CFG=3
M  V30 38 1 3 34
M  V30 39 1 3 35
M  V30 40 1 4 36
M  V30 41 1 4 37
M  V30 42 1 5 38 CFG=3
M  V30 43 1 6 39
M  V30 44 1 10 40
M  V30 45 1 10 41
M  V30 46 1 12 42
M  V30 47 1 13 43
M  V30 48 1 14 44
M  V30 49 1 15 45
M  V30 50 1 16 46
M  V30 51 1 17 47
M  V30 52 1 19 48
M  V30 53 1 23 49
M  V30 54 1 24 50
M  V30 55 1 25 51
M  V30 56 1 30 52
M  V30 57 1 30 53
M  V30 58 1 31 54
M  V30 59 1 31 55
M  V30 END BOND
M  V30 END CTAB
M  END
>  <Dataset>  (856) 
ChEMBL_Kinases

>  <Ligand_Instance>  (856) 
nan

>  <PDB_ID>  (856) 
nan

>  <Standardized_SMILES>  (856) 
O[C@H]1CC[C@H](Nc2nc(Cc3ccccc3)cc(Nc3nc4cccnc4s3)n2)CC1

>  <Name>  (856) 
nan

>  <Pocket>  (856) 
nan

>  <ATP_Site>  (856) 
nan

>  <Peripheral>  (856) 
nan

>  <Num_H_Atoms_ProtBoundConf>  (856) 
nan

>  <Num_Resolved_Atoms>  (856) 
nan

>  <Num_Not_Resolved_Atoms>  (856) 
nan

$$$$
CHEMBL2441277
     RDKit          3D

  0  0  0  0  0  0  0  0  0  0999 V3000
M  V30 BEGIN CTAB
M  V30 COUNTS 61 65 0 0 0
M  V30 BEGIN ATOM
M  V30 1 C 3.811975 -3.072797 5.429877 0
M  V30 2 C 3.738166 -1.597560 5.825554 0
M  V30 3 C 3.557317 -0.767676 4.616342 0
M  V30 4 C 3.419092 0.593782 4.507557 0
M  V30 5 C 3.238801 1.297447 3.337615 0
M  V30 6 C 3.186434 0.612863 2.135144 0
M  V30 7 N 3.021438 1.033830 0.901127 0
M  V30 8 C 2.970048 0.494246 -0.095547 0
M  V30 9 N 2.765060 1.069065 -1.462278 0
M  V30 10 C 1.343626 0.902490 -1.561187 0
M  V30 11 C 0.344239 1.725217 -1.089478 0
M  V30 12 C -0.972251 1.363126 -1.286656 0
M  V30 13 C -2.039766 2.246673 -0.787950 0
M  V30 14 C -2.402907 2.027620 0.621618 0
M  V30 15 C -1.715707 2.748421 1.594753 0
M  V30 16 C -1.994549 2.603692 2.958312 0
M  V30 17 C -2.989477 1.706775 3.288110 0
M  V30 18 C -3.720872 0.952132 2.390122 0
M  V30 19 C -3.396197 1.140567 1.047762 0
M  V30 20 N -1.285833 0.239012 -1.921457 0
M  V30 21 C -0.319447 -0.569310 -2.385568 0
M  V30 22 N -0.659891 -1.784714 -3.083803 0
M  V30 23 C -2.079288 -2.060739 -3.221081 0 CFG=1
M  V30 24 C -2.234733 -3.306268 -4.064883 0
M  V30 25 C -1.404655 -4.421648 -3.497205 0
M  V30 26 C -1.380164 -4.416142 -2.000685 0 CFG=2
M  V30 27 O -1.232430 -5.703746 -1.470763 0
M  V30 28 C -2.673318 -3.811289 -1.496522 0
M  V30 29 C -2.711399 -2.366232 -1.879537 0
M  V30 30 N 0.970131 -0.225583 -2.198210 0
M  V30 31 S 3.202069 -1.320480 0.503660 0
M  V30 32 C 3.327543 -0.742211 2.277092 0
M  V30 33 N 3.502621 -1.420377 3.427796 0
M  V30 34 H 2.992389 -3.273580 4.685403 0
M  V30 35 H 4.753501 -3.328303 4.940244 0
M  V30 36 H 3.583838 -3.666149 6.336919 0
M  V30 37 H 2.907585 -1.518550 6.556741 0
M  V30 38 H 4.658911 -1.321988 6.373482 0
M  V30 39 H 3.465785 1.117710 5.470081 0
M  V30 40 H 3.149557 2.367050 3.437455 0
M  V30 41 H 3.555811 1.428016 -2.012568 0
M  V30 42 H 0.691770 2.611517 -0.591023 0
M  V30 43 H -2.984581 2.055286 -1.380684 0
M  V30 44 H -1.802229 3.296235 -0.963257 0
M  V30 45 H -0.925497 3.464568 1.387630 0
M  V30 46 H -1.481447 3.146906 3.748022 0
M  V30 47 H -3.277577 1.526016 4.335854 0
M  V30 48 H -4.489310 0.262603 2.693620 0
M  V30 49 H -3.897406 0.607893 0.267038 0
M  V30 50 H 0.139079 -2.385346 -3.446180 0
M  V30 51 H -2.599701 -1.231437 -3.736267 0
M  V30 52 H -3.321561 -3.577299 -4.083641 0
M  V30 53 H -1.902671 -3.058704 -5.095050 0
M  V30 54 H -1.859142 -5.382656 -3.836613 0
M  V30 55 H -0.369505 -4.306761 -3.897725 0
M  V30 56 H -0.562050 -3.750059 -1.604279 0
M  V30 57 H -0.261273 -5.884323 -1.291073 0
M  V30 58 H -3.576199 -4.361027 -1.834648 0
M  V30 59 H -2.714054 -3.851057 -0.366786 0
M  V30 60 H -2.287409 -1.735238 -1.062778 0
M  V30 61 H -3.800105 -2.082129 -1.954118 0
M  V30 END ATOM
M  V30 BEGIN BOND
M  V30 1 1 1 2
M  V30 2 1 2 3
M  V30 3 2 3 4
M  V30 4 1 4 5
M  V30 5 2 5 6
M  V30 6 1 6 7
M  V30 7 2 7 8
M  V30 8 1 8 9
M  V30 9 1 9 10
M  V30 10 2 10 11
M  V30 11 1 11 12
M  V30 12 1 12 13
M  V30 13 1 13 14
M  V30 14 2 14 15
M  V30 15 1 15 16
M  V30 16 2 16 17
M  V30 17 1 17 18
M  V30 18 2 18 19
M  V30 19 2 12 20
M  V30 20 1 20 21
M  V30 21 1 21 22
M  V30 22 1 22 23
M  V30 23 1 23 24
M  V30 24 1 24 25
M  V30 25 1 25 26
M  V30 26 1 26 27
M  V30 27 1 26 28
M  V30 28 1 28 29
M  V30 29 2 21 30
M  V30 30 1 8 31
M  V30 31 1 31 32
M  V30 32 2 32 33
M  V30 33 1 33 3
M  V30 34 1 32 6
M  V30 35 1 30 10
M  V30 36 1 19 14
M  V30 37 1 29 23
M  V30 38 1 1 34
M  V30 39 1 1 35
M  V30 40 1 1 36
M  V30 41 1 2 37
M  V30 42 1 2 38
M  V30 43 1 4 39
M  V30 44 1 5 40
M  V30 45 1 9 41
M  V30 46 1 11 42
M  V30 47 1 13 43
M  V30 48 1 13 44
M  V30 49 1 15 45
M  V30 50 1 16 46
M  V30 51 1 17 47
M  V30 52 1 18 48
M  V30 53 1 19 49
M  V30 54 1 22 50
M  V30 55 1 23 51 CFG=3
M  V30 56 1 24 52
M  V30 57 1 24 53
M  V30 58 1 25 54
M  V30 59 1 25 55
M  V30 60 1 26 56 CFG=3
M  V30 61 1 27 57
M  V30 62 1 28 58
M  V30 63 1 28 59
M  V30 64 1 29 60
M  V30 65 1 29 61
M  V30 END BOND
M  V30 END CTAB
M  END
>  <Dataset>  (857) 
ChEMBL_Kinases

>  <Ligand_Instance>  (857) 
nan

>  <PDB_ID>  (857) 
nan

>  <Standardized_SMILES>  (857) 
CCc1ccc2nc(Nc3cc(Cc4ccccc4)nc(N[C@H]4CC[C@H](O)CC4)n3)sc2n1

>  <Name>  (857) 
nan

>  <Pocket>  (857) 
nan

>  <ATP_Site>  (857) 
nan

>  <Peripheral>  (857) 
nan

>  <Num_H_Atoms_ProtBoundConf>  (857) 
nan

>  <Num_Resolved_Atoms>  (857) 
nan

>  <Num_Not_Resolved_Atoms>  (857) 
nan

$$$$
CHEMBL2441278
     RDKit          3D

  0  0  0  0  0  0  0  0  0  0999 V3000
M  V30 BEGIN CTAB
M  V30 COUNTS 55 59 0 0 0
M  V30 BEGIN ATOM
M  V30 1 N 1.024816 -2.315999 1.720269 0
M  V30 2 C 1.770137 -2.983436 0.713515 0
M  V30 3 O 1.511607 -4.025644 1.386771 0
M  V30 4 C 2.374750 -2.248737 -0.427302 0
M  V30 5 C 3.856319 -1.983605 -0.275296 0
M  V30 6 C 3.520038 -0.649345 -0.899708 0
M  V30 7 N 2.150077 -0.834183 -0.471146 0
M  V30 8 C 1.076765 0.064220 -0.218275 0
M  V30 9 N 1.206421 1.385186 -0.310387 0
M  V30 10 C 0.159389 2.228640 -0.067614 0
M  V30 11 C 0.447022 3.686819 -0.207524 0
M  V30 12 C 0.916949 4.190178 1.132258 0
M  V30 13 C 2.279286 4.165074 1.428605 0
M  V30 14 C 2.822286 4.601804 2.628192 0
M  V30 15 C 1.916329 5.083268 3.555723 0
M  V30 16 C 0.568055 5.115866 3.280933 0
M  V30 17 C 0.047352 4.678943 2.087000 0
M  V30 18 C -1.079127 1.733335 0.284343 0
M  V30 19 C -1.203103 0.371010 0.376658 0
M  V30 20 N -2.447068 -0.233771 0.727304 0
M  V30 21 C -2.531627 -1.668705 0.830809 0
M  V30 22 C -2.763973 -2.721561 -0.032576 0
M  V30 23 C -2.714790 -3.876172 0.732866 0
M  V30 24 C -2.926707 -5.201911 0.068032 0
M  V30 25 C -3.996630 -5.149506 -0.969599 0
M  V30 26 C -2.938665 -5.444902 -2.030090 0
M  V30 27 C -1.850821 -5.404207 -1.009723 0
M  V30 28 N -2.460541 -3.515022 2.014043 0
M  V30 29 N -2.351278 -2.187279 2.066649 0
M  V30 30 N -0.134019 -0.404219 0.125298 0
M  V30 31 H 0.423986 -1.863887 2.441677 0
M  V30 32 H 0.908856 -1.620431 2.505286 0
M  V30 33 H 2.209702 -2.790946 -1.401323 0
M  V30 34 H 4.497030 -2.636396 -0.916573 0
M  V30 35 H 4.146396 -1.939636 0.782438 0
M  V30 36 H 4.053671 0.228916 -0.474357 0
M  V30 37 H 3.556313 -0.721518 -2.007988 0
M  V30 38 H 1.236070 3.856452 -0.958964 0
M  V30 39 H -0.474924 4.227441 -0.493690 0
M  V30 40 H 2.923475 3.777019 0.658983 0
M  V30 41 H 3.886239 4.549188 2.778485 0
M  V30 42 H 2.370972 5.420930 4.489835 0
M  V30 43 H -0.068242 5.511468 4.069004 0
M  V30 44 H -1.014622 4.710224 1.879934 0
M  V30 45 H -1.890835 2.406855 0.471882 0
M  V30 46 H -3.288394 0.355339 0.908320 0
M  V30 47 H -2.929492 -2.469861 -1.073108 0
M  V30 48 H -2.947963 -6.036091 0.793723 0
M  V30 49 H -4.448601 -4.132650 -1.117256 0
M  V30 50 H -4.753456 -5.964121 -0.931778 0
M  V30 51 H -2.878259 -4.676444 -2.831460 0
M  V30 52 H -3.020575 -6.471501 -2.452989 0
M  V30 53 H -1.257718 -6.331325 -0.877881 0
M  V30 54 H -1.162364 -4.547367 -1.138547 0
M  V30 55 H -2.381432 -4.238732 2.763569 0
M  V30 END ATOM
M  V30 BEGIN BOND
M  V30 1 1 1 2
M  V30 2 2 2 3
M  V30 3 1 2 4
M  V30 4 1 4 5
M  V30 5 1 5 6
M  V30 6 1 6 7
M  V30 7 1 7 8
M  V30 8 2 8 9
M  V30 9 1 9 10
M  V30 10 1 10 11
M  V30 11 1 11 12
M  V30 12 2 12 13
M  V30 13 1 13 14
M  V30 14 2 14 15
M  V30 15 1 15 16
M  V30 16 2 16 17
M  V30 17 2 10 18
M  V30 18 1 18 19
M  V30 19 1 19 20
M  V30 20 1 20 21
M  V30 21 1 21 22
M  V30 22 2 22 23
M  V30 23 1 23 24
M  V30 24 1 24 25
M  V30 25 1 25 26
M  V30 26 1 26 27
M  V30 27 1 23 28
M  V30 28 1 28 29
M  V30 29 2 19 30
M  V30 30 1 7 4
M  V30 31 1 30 8
M  V30 32 1 17 12
M  V30 33 2 29 21
M  V30 34 1 27 24
M  V30 35 1 1 31
M  V30 36 1 1 32
M  V30 37 1 4 33
M  V30 38 1 5 34
M  V30 39 1 5 35
M  V30 40 1 6 36
M  V30 41 1 6 37
M  V30 42 1 11 38
M  V30 43 1 11 39
M  V30 44 1 13 40
M  V30 45 1 14 41
M  V30 46 1 15 42
M  V30 47 1 16 43
M  V30 48 1 17 44
M  V30 49 1 18 45
M  V30 50 1 20 46
M  V30 51 1 22 47
M  V30 52 1 24 48
M  V30 53 1 25 49
M  V30 54 1 25 50
M  V30 55 1 26 51
M  V30 56 1 26 52
M  V30 57 1 27 53
M  V30 58 1 27 54
M  V30 59 1 28 55
M  V30 END BOND
M  V30 END CTAB
M  END
>  <Dataset>  (858) 
ChEMBL_Kinases

>  <Ligand_Instance>  (858) 
nan

>  <PDB_ID>  (858) 
nan

>  <Standardized_SMILES>  (858) 
NC(=O)C1CCN1c1nc(Cc2ccccc2)cc(Nc2cc(C3CCC3)[nH]n2)n1

>  <Name>  (858) 
nan

>  <Pocket>  (858) 
nan

>  <ATP_Site>  (858) 
nan

>  <Peripheral>  (858) 
nan

>  <Num_H_Atoms_ProtBoundConf>  (858) 
nan

>  <Num_Resolved_Atoms>  (858) 
nan

>  <Num_Not_Resolved_Atoms>  (858) 
nan

$$$$
CHEMBL2441279
     RDKit          3D

  0  0  0  0  0  0  0  0  0  0999 V3000
M  V30 BEGIN CTAB
M  V30 COUNTS 63 67 0 0 0
M  V30 BEGIN ATOM
M  V30 1 C 3.457052 3.354709 4.471424 0
M  V30 2 S 3.544220 1.587575 4.426388 0
M  V30 3 O 2.256228 1.027360 4.922269 0
M  V30 4 O 4.625595 1.175172 5.369646 0
M  V30 5 N 3.919922 1.068181 2.837149 0
M  V30 6 C 5.218638 1.597533 2.455687 0
M  V30 7 C 5.244562 1.790712 0.950011 0
M  V30 8 O 4.506677 0.798285 0.307987 0
M  V30 9 C 3.141991 0.883327 0.538823 0
M  V30 10 C 2.566235 1.739879 -0.568008 0
M  V30 11 N 1.149547 1.933176 -0.479704 0
M  V30 12 C 0.258793 0.826910 -0.523459 0
M  V30 13 N -1.070053 0.976993 -0.439783 0
M  V30 14 C -1.951658 -0.035054 -0.476609 0
M  V30 15 C -3.388249 0.321757 -0.369986 0
M  V30 16 C -4.021551 0.575745 -1.674950 0
M  V30 17 C -4.636514 -0.389067 -2.450246 0
M  V30 18 C -5.198676 -0.037566 -3.659511 0
M  V30 19 C -5.178667 1.268671 -4.151661 0
M  V30 20 C -4.558542 2.247236 -3.372157 0
M  V30 21 C -4.004771 1.870072 -2.168401 0
M  V30 22 C -1.496731 -1.326128 -0.608267 0
M  V30 23 C -0.135694 -1.514010 -0.696841 0
M  V30 24 N 0.363413 -2.847315 -0.834105 0
M  V30 25 C -0.587332 -3.905458 -0.869891 0
M  V30 26 C -0.951623 -4.488121 0.344626 0
M  V30 27 C -1.878831 -5.484135 0.062140 0
M  V30 28 C -2.538890 -6.361926 1.030644 0
M  V30 29 C -2.332403 -6.327211 2.394673 0
M  V30 30 C -3.108753 -7.287478 3.032566 0
M  V30 31 C -3.773456 -7.876949 1.961684 0
M  V30 32 O -3.430306 -7.330681 0.833153 0
M  V30 33 N -2.049296 -5.482520 -1.269873 0
M  V30 34 N -1.287650 -4.548212 -1.842420 0
M  V30 35 N 0.675309 -0.445393 -0.651510 0
M  V30 36 C 2.891913 1.447143 1.894520 0
M  V30 37 H 2.717011 3.699981 5.239601 0
M  V30 38 H 3.132538 3.710138 3.481899 0
M  V30 39 H 4.472501 3.754701 4.668131 0
M  V30 40 H 5.300868 2.611546 2.908047 0
M  V30 41 H 6.058457 0.991386 2.810992 0
M  V30 42 H 6.290831 1.725860 0.591263 0
M  V30 43 H 4.837591 2.761663 0.666803 0
M  V30 44 H 2.724523 -0.148124 0.513712 0
M  V30 45 H 2.771119 1.166032 -1.514446 0
M  V30 46 H 3.127648 2.689229 -0.670770 0
M  V30 47 H 0.735613 2.884109 -0.381584 0
M  V30 48 H -3.488149 1.235844 0.266855 0
M  V30 49 H -3.957078 -0.466763 0.201612 0
M  V30 50 H -4.650722 -1.399126 -2.067207 0
M  V30 51 H -5.676316 -0.805558 -4.254310 0
M  V30 52 H -5.614783 1.551008 -5.094007 0
M  V30 53 H -4.510772 3.272730 -3.697870 0
M  V30 54 H -3.534799 2.647684 -1.592066 0
M  V30 55 H -2.208841 -2.138266 -0.637609 0
M  V30 56 H 1.401336 -3.001605 -0.903242 0
M  V30 57 H -0.636414 -4.281831 1.358609 0
M  V30 58 H -1.655910 -5.643086 2.899006 0
M  V30 59 H -3.165008 -7.503371 4.094966 0
M  V30 60 H -4.490468 -8.697661 2.090825 0
M  V30 61 H -2.691053 -6.121842 -1.811744 0
M  V30 62 H 1.911354 1.199788 2.317723 0
M  V30 63 H 2.903010 2.569755 1.809098 0
M  V30 END ATOM
M  V30 BEGIN BOND
M  V30 1 1 1 2
M  V30 2 2 2 3
M  V30 3 2 2 4
M  V30 4 1 2 5
M  V30 5 1 5 6
M  V30 6 1 6 7
M  V30 7 1 7 8
M  V30 8 1 8 9
M  V30 9 1 9 10
M  V30 10 1 10 11
M  V30 11 1 11 12
M  V30 12 2 12 13
M  V30 13 1 13 14
M  V30 14 1 14 15
M  V30 15 1 15 16
M  V30 16 2 16 17
M  V30 17 1 17 18
M  V30 18 2 18 19
M  V30 19 1 19 20
M  V30 20 2 20 21
M  V30 21 2 14 22
M  V30 22 1 22 23
M  V30 23 1 23 24
M  V30 24 1 24 25
M  V30 25 1 25 26
M  V30 26 2 26 27
M  V30 27 1 27 28
M  V30 28 2 28 29
M  V30 29 1 29 30
M  V30 30 2 30 31
M  V30 31 1 31 32
M  V30 32 1 27 33
M  V30 33 1 33 34
M  V30 34 2 23 35
M  V30 35 1 9 36
M  V30 36 1 36 5
M  V30 37 1 35 12
M  V30 38 1 21 16
M  V30 39 2 34 25
M  V30 40 1 32 28
M  V30 41 1 1 37
M  V30 42 1 1 38
M  V30 43 1 1 39
M  V30 44 1 6 40
M  V30 45 1 6 41
M  V30 46 1 7 42
M  V30 47 1 7 43
M  V30 48 1 9 44
M  V30 49 1 10 45
M  V30 50 1 10 46
M  V30 51 1 11 47
M  V30 52 1 15 48
M  V30 53 1 15 49
M  V30 54 1 17 50
M  V30 55 1 18 51
M  V30 56 1 19 52
M  V30 57 1 20 53
M  V30 58 1 21 54
M  V30 59 1 22 55
M  V30 60 1 24 56
M  V30 61 1 26 57
M  V30 62 1 29 58
M  V30 63 1 30 59
M  V30 64 1 31 60
M  V30 65 1 33 61
M  V30 66 1 36 62
M  V30 67 1 36 63
M  V30 END BOND
M  V30 END CTAB
M  END
>  <Dataset>  (859) 
ChEMBL_Kinases

>  <Ligand_Instance>  (859) 
nan

>  <PDB_ID>  (859) 
nan

>  <Standardized_SMILES>  (859) 
CS(=O)(=O)N1CCOC(CNc2nc(Cc3ccccc3)cc(Nc3cc(-c4ccco4)[nH]n3)n2)C1

>  <Name>  (859) 
nan

>  <Pocket>  (859) 
nan

>  <ATP_Site>  (859) 
nan

>  <Peripheral>  (859) 
nan

>  <Num_H_Atoms_ProtBoundConf>  (859) 
nan

>  <Num_Resolved_Atoms>  (859) 
nan

>  <Num_Not_Resolved_Atoms>  (859) 
nan

$$$$
CHEMBL2441280
     RDKit          3D

  0  0  0  0  0  0  0  0  0  0999 V3000
M  V30 BEGIN CTAB
M  V30 COUNTS 57 61 0 0 0
M  V30 BEGIN ATOM
M  V30 1 O 4.393606 -3.263732 2.404222 0
M  V30 2 C 3.099171 -3.756168 2.254725 0 CFG=1
M  V30 3 C 2.093790 -2.751475 2.772661 0
M  V30 4 C 2.463057 -1.374681 2.299243 0
M  V30 5 C 3.168560 -1.307057 1.003012 0 CFG=2
M  V30 6 N 2.680337 -0.175322 0.232558 0
M  V30 7 C 1.313587 -0.043599 -0.141917 0
M  V30 8 N 0.837978 0.999465 -0.864995 0
M  V30 9 C -0.444614 1.142004 -1.225985 0
M  V30 10 N -0.778577 2.317491 -1.996755 0
M  V30 11 C -1.110918 3.294918 -1.029240 0
M  V30 12 N -0.230373 4.129678 -0.459360 0
M  V30 13 N -0.821201 4.935541 0.407883 0
M  V30 14 C -2.159657 4.668177 0.457958 0
M  V30 15 C -3.241090 5.171839 1.156241 0
M  V30 16 C -4.493141 4.634723 0.939682 0
M  V30 17 C -4.644194 3.599359 0.025442 0
M  V30 18 C -3.568061 3.090830 -0.675962 0
M  V30 19 C -2.317868 3.625218 -0.461407 0
M  V30 20 C -1.366365 0.185296 -0.855180 0
M  V30 21 C -0.895113 -0.881593 -0.118755 0
M  V30 22 C -1.806719 -1.956313 0.324174 0
M  V30 23 F -1.896788 -2.047274 1.715067 0
M  V30 24 F -3.127646 -1.685946 -0.069175 0
M  V30 25 C -1.529634 -3.287162 -0.220678 0
M  V30 26 C -1.625365 -3.636365 -1.541582 0
M  V30 27 C -1.355730 -4.896674 -2.016468 0
M  V30 28 C -0.960292 -5.904381 -1.141153 0
M  V30 29 F -0.658619 -7.193094 -1.444371 0
M  V30 30 C -0.845358 -5.608849 0.213653 0
M  V30 31 C -1.129874 -4.325256 0.628183 0
M  V30 32 N 0.403946 -0.978066 0.218405 0
M  V30 33 C 3.258869 -2.532960 0.165744 0
M  V30 34 C 2.820777 -3.813711 0.761228 0
M  V30 35 H 4.503802 -2.815757 3.291398 0
M  V30 36 H 3.026485 -4.724101 2.759302 0
M  V30 37 H 2.063957 -2.820048 3.870732 0
M  V30 38 H 1.089921 -3.080860 2.403723 0
M  V30 39 H 3.052193 -0.923607 3.147923 0
M  V30 40 H 1.526568 -0.776901 2.303160 0
M  V30 41 H 4.246621 -1.055739 1.247221 0
M  V30 42 H 3.314097 0.616296 -0.094301 0
M  V30 43 H -0.783941 2.449254 -3.022956 0
M  V30 44 H -0.467279 5.698241 1.027867 0
M  V30 45 H -3.064626 5.981007 1.857791 0
M  V30 46 H -5.343806 5.025899 1.484353 0
M  V30 47 H -5.653942 3.229508 -0.091612 0
M  V30 48 H -3.701520 2.288942 -1.380340 0
M  V30 49 H -2.379120 0.300286 -1.141462 0
M  V30 50 H -1.930175 -2.877554 -2.252620 0
M  V30 51 H -1.416134 -5.215297 -3.035203 0
M  V30 52 H -0.542430 -6.322133 0.987956 0
M  V30 53 H -1.047039 -4.068628 1.688878 0
M  V30 54 H 4.271029 -2.700627 -0.286192 0
M  V30 55 H 2.612459 -2.366965 -0.746658 0
M  V30 56 H 3.400888 -4.664395 0.375783 0
M  V30 57 H 1.757526 -4.065432 0.579250 0
M  V30 END ATOM
M  V30 BEGIN BOND
M  V30 1 1 1 2
M  V30 2 1 2 3
M  V30 3 1 3 4
M  V30 4 1 4 5
M  V30 5 1 5 6
M  V30 6 1 6 7
M  V30 7 2 7 8
M  V30 8 1 8 9
M  V30 9 1 9 10
M  V30 10 1 10 11
M  V30 11 2 11 12
M  V30 12 1 12 13
M  V30 13 1 13 14
M  V30 14 2 14 15
M  V30 15 1 15 16
M  V30 16 2 16 17
M  V30 17 1 17 18
M  V30 18 2 18 19
M  V30 19 2 9 20
M  V30 20 1 20 21
M  V30 21 1 21 22
M  V30 22 1 22 23
M  V30 23 1 22 24
M  V30 24 1 22 25
M  V30 25 2 25 26
M  V30 26 1 26 27
M  V30 27 2 27 28
M  V30 28 1 28 29
M  V30 29 1 28 30
M  V30 30 2 30 31
M  V30 31 2 21 32
M  V30 32 1 5 33
M  V30 33 1 33 34
M  V30 34 1 34 2
M  V30 35 1 32 7
M  V30 36 1 19 11
M  V30 37 1 31 25
M  V30 38 1 19 14
M  V30 39 1 1 35
M  V30 40 1 2 36 CFG=1
M  V30 41 1 3 37
M  V30 42 1 3 38
M  V30 43 1 4 39
M  V30 44 1 4 40
M  V30 45 1 5 41 CFG=1
M  V30 46 1 6 42
M  V30 47 1 10 43
M  V30 48 1 13 44
M  V30 49 1 15 45
M  V30 50 1 16 46
M  V30 51 1 17 47
M  V30 52 1 18 48
M  V30 53 1 20 49
M  V30 54 1 26 50
M  V30 55 1 27 51
M  V30 56 1 30 52
M  V30 57 1 31 53
M  V30 58 1 33 54
M  V30 59 1 33 55
M  V30 60 1 34 56
M  V30 61 1 34 57
M  V30 END BOND
M  V30 END CTAB
M  END
>  <Dataset>  (860) 
ChEMBL_Kinases

>  <Ligand_Instance>  (860) 
nan

>  <PDB_ID>  (860) 
nan

>  <Standardized_SMILES>  (860) 
O[C@H]1CC[C@H](Nc2nc(Nc3n[nH]c4ccccc34)cc(C(F)(F)c3ccc(F)cc3)n2)CC1

>  <Name>  (860) 
nan

>  <Pocket>  (860) 
nan

>  <ATP_Site>  (860) 
nan

>  <Peripheral>  (860) 
nan

>  <Num_H_Atoms_ProtBoundConf>  (860) 
nan

>  <Num_Resolved_Atoms>  (860) 
nan

>  <Num_Not_Resolved_Atoms>  (860) 
nan

$$$$
CHEMBL2441271
     RDKit          3D

  0  0  0  0  0  0  0  0  0  0999 V3000
M  V30 BEGIN CTAB
M  V30 COUNTS 56 60 0 0 0
M  V30 BEGIN ATOM
M  V30 1 O -0.411703 -0.293921 5.168789 0
M  V30 2 C 0.313922 -0.699965 4.041045 0 CFG=1
M  V30 3 C 1.119966 -1.896938 4.439703 0
M  V30 4 C 1.808536 -2.578302 3.295700 0
M  V30 5 C 1.190388 -2.223995 1.955402 0 CFG=2
M  V30 6 N 1.792833 -0.978402 1.523363 0
M  V30 7 C 1.424836 -0.350943 0.276292 0
M  V30 8 N 1.960483 0.797144 -0.158359 0
M  V30 9 C 1.571147 1.330148 -1.336980 0
M  V30 10 C 2.179679 2.605701 -1.798808 0
M  V30 11 C 1.356915 3.730584 -1.278603 0
M  V30 12 C 0.321779 4.126185 -2.115457 0
M  V30 13 C -0.550872 5.147712 -1.816270 0
M  V30 14 C -0.377928 5.805813 -0.618923 0
M  V30 15 C 0.648650 5.417941 0.217426 0
M  V30 16 C 1.515359 4.400967 -0.083171 0
M  V30 17 C 0.606478 0.710885 -2.137202 0
M  V30 18 C 0.076205 -0.457112 -1.672392 0
M  V30 19 N -0.922118 -1.177249 -2.420367 0
M  V30 20 C -1.483563 -2.405348 -1.896352 0
M  V30 21 N -1.166774 -3.553591 -1.969473 0
M  V30 22 C -1.799982 -4.571247 -1.424843 0
M  V30 23 C -1.431425 -5.900083 -1.510035 0
M  V30 24 C -2.184674 -6.853481 -0.892206 0
M  V30 25 C -3.343566 -6.622563 -0.147294 0
M  V30 26 Cl -4.286011 -7.851994 0.628711 0
M  V30 27 C -3.687966 -5.275253 -0.080467 0
M  V30 28 C -2.943137 -4.311666 -0.693636 0
M  V30 29 S -3.067886 -2.562509 -0.820722 0
M  V30 30 N 0.492120 -0.953995 -0.492556 0
M  V30 31 C -0.301384 -2.156946 2.074738 0
M  V30 32 C -0.692357 -1.024229 2.962077 0
M  V30 33 H -1.385414 -0.392072 5.045735 0
M  V30 34 H 0.964323 0.148648 3.787645 0
M  V30 35 H 1.916733 -1.524254 5.133959 0
M  V30 36 H 0.547674 -2.627714 5.036071 0
M  V30 37 H 2.874540 -2.276525 3.236323 0
M  V30 38 H 1.701785 -3.673414 3.402702 0
M  V30 39 H 1.396734 -3.039694 1.201750 0
M  V30 40 H 2.527524 -0.455154 2.080585 0
M  V30 41 H 3.199542 2.707486 -1.375969 0
M  V30 42 H 2.293108 2.663770 -2.899809 0
M  V30 43 H 0.134660 3.639605 -3.080904 0
M  V30 44 H -1.353194 5.433951 -2.494193 0
M  V30 45 H -1.049035 6.613538 -0.357173 0
M  V30 46 H 0.774822 5.936657 1.147524 0
M  V30 47 H 2.335277 4.053942 0.530362 0
M  V30 48 H 0.276715 1.116859 -3.087191 0
M  V30 49 H -1.247694 -0.824064 -3.337390 0
M  V30 50 H -0.551807 -6.286707 -2.050447 0
M  V30 51 H -1.913037 -7.919868 -0.944050 0
M  V30 52 H -4.567877 -4.956343 0.467844 0
M  V30 53 H -0.822374 -2.111381 1.116268 0
M  V30 54 H -0.650343 -3.090075 2.589578 0
M  V30 55 H -1.696619 -1.204287 3.410879 0
M  V30 56 H -0.810491 -0.112113 2.343612 0
M  V30 END ATOM
M  V30 BEGIN BOND
M  V30 1 1 1 2
M  V30 2 1 2 3
M  V30 3 1 3 4
M  V30 4 1 4 5
M  V30 5 1 5 6
M  V30 6 1 6 7
M  V30 7 2 7 8
M  V30 8 1 8 9
M  V30 9 1 9 10
M  V30 10 1 10 11
M  V30 11 2 11 12
M  V30 12 1 12 13
M  V30 13 2 13 14
M  V30 14 1 14 15
M  V30 15 2 15 16
M  V30 16 2 9 17
M  V30 17 1 17 18
M  V30 18 1 18 19
M  V30 19 1 19 20
M  V30 20 2 20 21
M  V30 21 1 21 22
M  V30 22 2 22 23
M  V30 23 1 23 24
M  V30 24 2 24 25
M  V30 25 1 25 26
M  V30 26 1 25 27
M  V30 27 2 27 28
M  V30 28 1 28 29
M  V30 29 2 18 30
M  V30 30 1 5 31
M  V30 31 1 31 32
M  V30 32 1 32 2
M  V30 33 1 30 7
M  V30 34 1 16 11
M  V30 35 1 29 20
M  V30 36 1 28 22
M  V30 37 1 1 33
M  V30 38 1 2 34 CFG=3
M  V30 39 1 3 35
M  V30 40 1 3 36
M  V30 41 1 4 37
M  V30 42 1 4 38
M  V30 43 1 5 39 CFG=3
M  V30 44 1 6 40
M  V30 45 1 10 41
M  V30 46 1 10 42
M  V30 47 1 12 43
M  V30 48 1 13 44
M  V30 49 1 14 45
M  V30 50 1 15 46
M  V30 51 1 16 47
M  V30 52 1 17 48
M  V30 53 1 19 49
M  V30 54 1 23 50
M  V30 55 1 24 51
M  V30 56 1 27 52
M  V30 57 1 31 53
M  V30 58 1 31 54
M  V30 59 1 32 55
M  V30 60 1 32 56
M  V30 END BOND
M  V30 END CTAB
M  END
>  <Dataset>  (861) 
ChEMBL_Kinases

>  <Ligand_Instance>  (861) 
nan

>  <PDB_ID>  (861) 
nan

>  <Standardized_SMILES>  (861) 
O[C@H]1CC[C@H](Nc2nc(Cc3ccccc3)cc(Nc3nc4ccc(Cl)cc4s3)n2)CC1

>  <Name>  (861) 
nan

>  <Pocket>  (861) 
nan

>  <ATP_Site>  (861) 
nan

>  <Peripheral>  (861) 
nan

>  <Num_H_Atoms_ProtBoundConf>  (861) 
nan

>  <Num_Resolved_Atoms>  (861) 
nan

>  <Num_Not_Resolved_Atoms>  (861) 
nan

$$$$
CHEMBL2393427
     RDKit          3D

  0  0  0  0  0  0  0  0  0  0999 V3000
M  V30 BEGIN CTAB
M  V30 COUNTS 45 47 0 0 0
M  V30 BEGIN ATOM
M  V30 1 C 1.429255 -5.666856 2.108980 0
M  V30 2 O 0.368935 -5.082857 1.387629 0
M  V30 3 C 0.449410 -3.964150 0.605017 0
M  V30 4 C 1.630728 -3.274457 0.443649 0
M  V30 5 C 1.654628 -2.167882 -0.346261 0
M  V30 6 C 0.557733 -1.668667 -1.016707 0
M  V30 7 C 0.484461 -0.496045 -1.873734 0
M  V30 8 C -0.158611 -0.627332 -3.119699 0
M  V30 9 S -0.048322 0.949267 -3.851595 0
M  V30 10 C 0.836898 1.758212 -2.518691 0
M  V30 11 N 1.245363 3.104057 -2.495406 0
M  V30 12 C 0.989634 0.717800 -1.570731 0
M  V30 13 C 1.689328 1.074472 -0.344057 0
M  V30 14 O 2.903017 1.048475 -0.017445 0
M  V30 15 O 1.018416 1.558825 0.788494 0
M  V30 16 C 1.704343 1.902671 1.974893 0
M  V30 17 C 0.687486 2.372139 2.951906 0
M  V30 18 C 0.105937 1.419788 3.793881 0
M  V30 19 C -0.851941 1.694827 4.753021 0
M  V30 20 C -1.263613 2.995099 4.891022 0
M  V30 21 C -0.705274 3.949035 4.073466 0
M  V30 22 C 0.247578 3.672764 3.119981 0
M  V30 23 C -0.615204 -2.407911 -0.817411 0
M  V30 24 C -0.694430 -3.535712 -0.028011 0
M  V30 25 O -1.878732 -4.235245 0.139493 0
M  V30 26 C -3.077300 -3.829467 -0.492729 0
M  V30 27 H 2.406142 -5.550023 1.604700 0
M  V30 28 H 1.180944 -6.759069 2.204447 0
M  V30 29 H 1.522374 -5.227695 3.131747 0
M  V30 30 H 2.537044 -3.597279 0.933213 0
M  V30 31 H 2.571821 -1.616125 -0.487716 0
M  V30 32 H -0.624863 -1.482630 -3.560588 0
M  V30 33 H 2.171901 3.344588 -2.932977 0
M  V30 34 H 0.524511 3.720251 -2.014900 0
M  V30 35 H 2.228013 1.040572 2.431006 0
M  V30 36 H 2.431199 2.718554 1.771110 0
M  V30 37 H 0.427102 0.374953 3.693273 0
M  V30 38 H -1.237305 0.869852 5.355926 0
M  V30 39 H -2.012077 3.245582 5.632216 0
M  V30 40 H -1.033041 4.987249 4.182646 0
M  V30 41 H 0.688637 4.402845 2.479621 0
M  V30 42 H -1.537280 -2.085411 -1.311253 0
M  V30 43 H -2.939825 -3.706037 -1.587108 0
M  V30 44 H -3.887201 -4.515442 -0.242275 0
M  V30 45 H -3.298984 -2.798589 -0.101900 0
M  V30 END ATOM
M  V30 BEGIN BOND
M  V30 1 1 1 2
M  V30 2 1 2 3
M  V30 3 2 3 4
M  V30 4 1 4 5
M  V30 5 2 5 6
M  V30 6 1 6 7
M  V30 7 2 7 8
M  V30 8 1 8 9
M  V30 9 1 9 10
M  V30 10 1 10 11
M  V30 11 2 10 12
M  V30 12 1 12 13
M  V30 13 2 13 14
M  V30 14 1 13 15
M  V30 15 1 15 16
M  V30 16 1 16 17
M  V30 17 2 17 18
M  V30 18 1 18 19
M  V30 19 2 19 20
M  V30 20 1 20 21
M  V30 21 2 21 22
M  V30 22 1 6 23
M  V30 23 2 23 24
M  V30 24 1 24 25
M  V30 25 1 25 26
M  V30 26 1 24 3
M  V30 27 1 12 7
M  V30 28 1 22 17
M  V30 29 1 1 27
M  V30 30 1 1 28
M  V30 31 1 1 29
M  V30 32 1 4 30
M  V30 33 1 5 31
M  V30 34 1 8 32
M  V30 35 1 11 33
M  V30 36 1 11 34
M  V30 37 1 16 35
M  V30 38 1 16 36
M  V30 39 1 18 37
M  V30 40 1 19 38
M  V30 41 1 20 39
M  V30 42 1 21 40
M  V30 43 1 22 41
M  V30 44 1 23 42
M  V30 45 1 26 43
M  V30 46 1 26 44
M  V30 47 1 26 45
M  V30 END BOND
M  V30 END CTAB
M  END
>  <Dataset>  (862) 
ChEMBL_Kinases

>  <Ligand_Instance>  (862) 
nan

>  <PDB_ID>  (862) 
nan

>  <Standardized_SMILES>  (862) 
COc1ccc(-c2csc(N)c2C(=O)OCc2ccccc2)cc1OC

>  <Name>  (862) 
nan

>  <Pocket>  (862) 
nan

>  <ATP_Site>  (862) 
nan

>  <Peripheral>  (862) 
nan

>  <Num_H_Atoms_ProtBoundConf>  (862) 
nan

>  <Num_Resolved_Atoms>  (862) 
nan

>  <Num_Not_Resolved_Atoms>  (862) 
nan

$$$$
CHEMBL2392558
     RDKit          3D

  0  0  0  0  0  0  0  0  0  0999 V3000
M  V30 BEGIN CTAB
M  V30 COUNTS 78 82 0 0 0
M  V30 BEGIN ATOM
M  V30 1 C -5.360061 1.797942 -5.191065 0
M  V30 2 C -5.255550 2.883316 -4.429541 0
M  V30 3 C -4.030122 3.064769 -3.611743 0 CFG=1
M  V30 4 F -4.432158 3.430791 -2.322899 0
M  V30 5 C -3.256848 1.800665 -3.547088 0
M  V30 6 N -1.977414 1.834990 -2.934191 0
M  V30 7 C -1.278391 0.590059 -2.896666 0
M  V30 8 C -1.988071 -0.522599 -2.152959 0
M  V30 9 C -1.228747 -1.759647 -2.651697 0
M  V30 10 C -1.140368 -1.511703 -4.119635 0
M  V30 11 C -0.949748 -0.018236 -4.234942 0
M  V30 12 C -1.194876 2.892585 -2.324597 0
M  V30 13 N -0.324980 2.500062 -1.384483 0
M  V30 14 C 0.462763 3.396924 -0.770275 0
M  V30 15 N 1.377336 3.035519 0.235090 0
M  V30 16 C 1.632813 1.830796 0.903966 0
M  V30 17 C 0.857322 0.709664 0.680480 0
M  V30 18 C 1.007403 -0.515941 1.294197 0
M  V30 19 C 2.035684 -0.660393 2.235728 0
M  V30 20 C 2.353489 -1.860829 2.996847 0
M  V30 21 O 3.335751 -1.981133 3.766825 0
M  V30 22 N 1.526800 -3.000177 2.895146 0
M  V30 23 C 1.641479 -4.293154 3.544250 0
M  V30 24 C 0.505570 -4.465554 4.540238 0
M  V30 25 C 0.567014 -5.856787 5.133546 0
M  V30 26 N 0.403647 -6.870279 4.115993 0
M  V30 27 C 1.321553 -7.976512 4.235252 0
M  V30 28 C 0.377811 -6.304843 2.789803 0
M  V30 29 C 1.557121 -5.394001 2.534920 0
M  V30 30 C 2.816754 0.443535 2.470987 0
M  V30 31 C 2.652419 1.659653 1.848578 0
M  V30 32 O 3.470960 2.738634 2.125891 0
M  V30 33 C 4.509000 2.593871 3.077570 0
M  V30 34 N 0.368442 4.693175 -1.109480 0
M  V30 35 C -0.459613 5.174229 -2.023907 0
M  V30 36 C -1.269742 4.253030 -2.655175 0
M  V30 37 N -2.131150 4.893217 -3.619878 0
M  V30 38 C -1.804220 6.226105 -4.030170 0
M  V30 39 C -3.296751 4.231818 -4.167868 0
M  V30 40 O -3.682851 4.761013 -5.247491 0
M  V30 41 H -5.587538 0.973918 -5.853922 0
M  V30 42 H -5.489426 0.931334 -5.826213 0
M  V30 43 H -6.083573 3.586873 -4.446566 0
M  V30 44 H -3.912096 1.092516 -2.952118 0
M  V30 45 H -3.184664 1.422084 -4.611541 0
M  V30 46 H -0.276544 0.662766 -2.371989 0
M  V30 47 H -1.807668 -0.479809 -1.051720 0
M  V30 48 H -3.048635 -0.613011 -2.369280 0
M  V30 49 H -1.739609 -2.697579 -2.415158 0
M  V30 50 H -0.205149 -1.718589 -2.231614 0
M  V30 51 H -2.074409 -1.826987 -4.635780 0
M  V30 52 H -0.287679 -2.068370 -4.601956 0
M  V30 53 H 0.132128 0.140144 -4.519906 0
M  V30 54 H -1.519464 0.356553 -5.081788 0
M  V30 55 H 2.026797 3.798588 0.587258 0
M  V30 56 H 0.027744 0.664780 -0.010364 0
M  V30 57 H 0.413381 -1.396838 1.130131 0
M  V30 58 H 0.673483 -3.043787 2.297225 0
M  V30 59 H 2.564891 -4.394876 4.126595 0
M  V30 60 H -0.478947 -4.228820 4.087418 0
M  V30 61 H 0.685252 -3.693837 5.318041 0
M  V30 62 H 1.571638 -5.982083 5.579097 0
M  V30 63 H -0.198721 -6.027797 5.909721 0
M  V30 64 H 2.175687 -7.703211 4.855643 0
M  V30 65 H 1.597020 -8.275530 3.192414 0
M  V30 66 H 0.757434 -8.842886 4.652113 0
M  V30 67 H -0.585916 -5.796812 2.622139 0
M  V30 68 H 0.443860 -7.141164 2.068112 0
M  V30 69 H 2.510598 -5.962235 2.550346 0
M  V30 70 H 1.513614 -4.970260 1.494199 0
M  V30 71 H 3.632691 0.406965 3.186641 0
M  V30 72 H 4.056905 2.223572 4.041210 0
M  V30 73 H 5.158156 1.760742 2.717831 0
M  V30 74 H 5.066070 3.533165 3.237013 0
M  V30 75 H -0.547375 6.194111 -2.303776 0
M  V30 76 H -2.447240 6.425708 -4.939124 0
M  V30 77 H -0.759594 6.354587 -4.398652 0
M  V30 78 H -2.120981 7.004048 -3.309505 0
M  V30 END ATOM
M  V30 BEGIN BOND
M  V30 1 2 1 2
M  V30 2 1 2 3
M  V30 3 1 3 4 CFG=1
M  V30 4 1 3 5
M  V30 5 1 5 6
M  V30 6 1 6 7
M  V30 7 1 7 8
M  V30 8 1 8 9
M  V30 9 1 9 10
M  V30 10 1 10 11
M  V30 11 1 6 12
M  V30 12 2 12 13
M  V30 13 1 13 14
M  V30 14 1 14 15
M  V30 15 1 15 16
M  V30 16 2 16 17
M  V30 17 1 17 18
M  V30 18 2 18 19
M  V30 19 1 19 20
M  V30 20 2 20 21
M  V30 21 1 20 22
M  V30 22 1 22 23
M  V30 23 1 23 24
M  V30 24 1 24 25
M  V30 25 1 25 26
M  V30 26 1 26 27
M  V30 27 1 26 28
M  V30 28 1 28 29
M  V30 29 1 19 30
M  V30 30 2 30 31
M  V30 31 1 31 32
M  V30 32 1 32 33
M  V30 33 2 14 34
M  V30 34 1 34 35
M  V30 35 2 35 36
M  V30 36 1 36 37
M  V30 37 1 37 38
M  V30 38 1 37 39
M  V30 39 2 39 40
M  V30 40 1 39 3
M  V30 41 1 11 7
M  V30 42 1 36 12
M  V30 43 1 31 16
M  V30 44 1 29 23
M  V30 45 1 1 41
M  V30 46 1 1 42
M  V30 47 1 2 43
M  V30 48 1 5 44
M  V30 49 1 5 45
M  V30 50 1 7 46
M  V30 51 1 8 47
M  V30 52 1 8 48
M  V30 53 1 9 49
M  V30 54 1 9 50
M  V30 55 1 10 51
M  V30 56 1 10 52
M  V30 57 1 11 53
M  V30 58 1 11 54
M  V30 59 1 15 55
M  V30 60 1 17 56
M  V30 61 1 18 57
M  V30 62 1 22 58
M  V30 63 1 23 59
M  V30 64 1 24 60
M  V30 65 1 24 61
M  V30 66 1 25 62
M  V30 67 1 25 63
M  V30 68 1 27 64
M  V30 69 1 27 65
M  V30 70 1 27 66
M  V30 71 1 28 67
M  V30 72 1 28 68
M  V30 73 1 29 69
M  V30 74 1 29 70
M  V30 75 1 30 71
M  V30 76 1 33 72
M  V30 77 1 33 73
M  V30 78 1 33 74
M  V30 79 1 35 75
M  V30 80 1 38 76
M  V30 81 1 38 77
M  V30 82 1 38 78
M  V30 END BOND
M  V30 END CTAB
M  END
>  <Dataset>  (863) 
ChEMBL_Kinases

>  <Ligand_Instance>  (863) 
nan

>  <PDB_ID>  (863) 
nan

>  <Standardized_SMILES>  (863) 
C=C[C@@]1(F)CN(C2CCCC2)c2nc(Nc3ccc(C(=O)NC4CCN(C)CC4)cc3OC)ncc2N(C)C1=O

>  <Name>  (863) 
nan

>  <Pocket>  (863) 
nan

>  <ATP_Site>  (863) 
nan

>  <Peripheral>  (863) 
nan

>  <Num_H_Atoms_ProtBoundConf>  (863) 
nan

>  <Num_Resolved_Atoms>  (863) 
nan

>  <Num_Not_Resolved_Atoms>  (863) 
nan

$$$$
CHEMBL2392557
     RDKit          3D

  0  0  0  0  0  0  0  0  0  0999 V3000
M  V30 BEGIN CTAB
M  V30 COUNTS 81 85 0 0 0
M  V30 BEGIN ATOM
M  V30 1 C 7.578755 -3.285035 4.411464 0
M  V30 2 C 7.051916 -2.213624 3.840475 0
M  V30 3 C 5.912740 -2.369785 2.940347 0
M  V30 4 C 4.639254 -1.681231 3.377574 0 CFG=2
M  V30 5 C 3.549773 -1.891453 2.410814 0
M  V30 6 N 3.321532 -0.982104 1.340300 0
M  V30 7 C 3.228060 -1.477164 -0.017896 0
M  V30 8 C 2.114649 -2.464996 -0.251210 0
M  V30 9 C 2.587123 -3.418498 -1.333533 0
M  V30 10 C 3.881376 -2.757790 -1.824036 0
M  V30 11 C 4.426119 -2.285337 -0.461345 0
M  V30 12 C 3.155573 0.446785 1.444762 0
M  V30 13 N 2.362732 0.956388 0.489688 0
M  V30 14 C 2.065379 2.272304 0.416577 0
M  V30 15 N 1.205099 2.469225 -0.722610 0
M  V30 16 C -0.102897 1.906430 -0.637506 0
M  V30 17 C -0.520158 1.207411 0.498054 0
M  V30 18 C -1.780249 0.612468 0.632546 0
M  V30 19 C -2.662163 0.720338 -0.413535 0
M  V30 20 C -3.975987 0.094671 -0.337716 0
M  V30 21 O -4.159267 -0.516963 0.778884 0
M  V30 22 N -5.027762 0.060729 -1.270504 0
M  V30 23 C -6.267071 -0.619803 -1.042120 0
M  V30 24 C -7.504148 0.164991 -1.248474 0
M  V30 25 C -8.668791 -0.506462 -1.853764 0
M  V30 26 N -8.575120 -1.887640 -2.165892 0
M  V30 27 C -8.298790 -2.029720 -3.600894 0
M  V30 28 C -7.541445 -2.622301 -1.485949 0
M  V30 29 C -6.237913 -1.938789 -1.841031 0
M  V30 30 C -2.297742 1.412223 -1.579152 0
M  V30 31 C -1.045054 1.983325 -1.667317 0
M  V30 32 O -0.586282 2.686749 -2.771146 0
M  V30 33 C -1.447496 2.831789 -3.878265 0
M  V30 34 N 2.582032 3.135635 1.340849 0
M  V30 35 C 3.382980 2.630100 2.306206 0
M  V30 36 C 3.699986 1.291282 2.400401 0
M  V30 37 N 4.559615 0.988838 3.489655 0
M  V30 38 C 5.046017 2.128506 4.243080 0
M  V30 39 C 4.944890 -0.355947 3.851836 0
M  V30 40 O 5.743938 -0.326451 4.824779 0
M  V30 41 H 7.937222 -4.246165 4.831476 0
M  V30 42 H 8.382372 -3.659635 5.034648 0
M  V30 43 H 7.689489 -1.456988 4.254135 0
M  V30 44 H 5.757931 -3.452041 2.741530 0
M  V30 45 H 6.146525 -1.954307 1.908398 0
M  V30 46 H 4.326466 -2.250539 4.307395 0
M  V30 47 H 2.572300 -2.089570 2.899996 0
M  V30 48 H 3.782572 -2.892478 1.928344 0
M  V30 49 H 3.127679 -0.646500 -0.720695 0
M  V30 50 H 1.227046 -1.947481 -0.671073 0
M  V30 51 H 1.866821 -3.091864 0.625492 0
M  V30 52 H 2.842991 -4.427583 -0.949733 0
M  V30 53 H 1.903581 -3.495703 -2.184838 0
M  V30 54 H 4.598317 -3.519956 -2.185099 0
M  V30 55 H 3.699558 -1.922599 -2.507097 0
M  V30 56 H 4.561241 -3.235278 0.089838 0
M  V30 57 H 5.324644 -1.709238 -0.663318 0
M  V30 58 H 1.444893 2.981936 -1.597741 0
M  V30 59 H 0.146288 1.106710 1.333735 0
M  V30 60 H -2.007681 0.085638 1.569868 0
M  V30 61 H -4.790752 0.593072 -2.147622 0
M  V30 62 H -6.265695 -0.995056 0.026950 0
M  V30 63 H -7.211015 1.031309 -1.925348 0
M  V30 64 H -7.819904 0.718811 -0.307224 0
M  V30 65 H -9.044813 0.081785 -2.745822 0
M  V30 66 H -9.542286 -0.414194 -1.137198 0
M  V30 67 H -7.583672 -2.868451 -3.793414 0
M  V30 68 H -9.256756 -2.176914 -4.136684 0
M  V30 69 H -7.826098 -1.117694 -4.022007 0
M  V30 70 H -7.561484 -3.665995 -1.867737 0
M  V30 71 H -7.727619 -2.545991 -0.392237 0
M  V30 72 H -6.189898 -1.679651 -2.907032 0
M  V30 73 H -5.338591 -2.495768 -1.492921 0
M  V30 74 H -2.983836 1.503580 -2.409851 0
M  V30 75 H -2.466982 3.093808 -3.568922 0
M  V30 76 H -0.975532 3.649338 -4.500223 0
M  V30 77 H -1.429824 1.868745 -4.429937 0
M  V30 78 H 3.769512 3.335137 3.010607 0
M  V30 79 H 5.751526 1.672810 5.001298 0
M  V30 80 H 4.279948 2.635014 4.844437 0
M  V30 81 H 5.702795 2.803914 3.652411 0
M  V30 END ATOM
M  V30 BEGIN BOND
M  V30 1 2 1 2
M  V30 2 1 2 3
M  V30 3 1 3 4
M  V30 4 1 4 5
M  V30 5 1 5 6
M  V30 6 1 6 7
M  V30 7 1 7 8
M  V30 8 1 8 9
M  V30 9 1 9 10
M  V30 10 1 10 11
M  V30 11 1 6 12
M  V30 12 2 12 13
M  V30 13 1 13 14
M  V30 14 1 14 15
M  V30 15 1 15 16
M  V30 16 2 16 17
M  V30 17 1 17 18
M  V30 18 2 18 19
M  V30 19 1 19 20
M  V30 20 2 20 21
M  V30 21 1 20 22
M  V30 22 1 22 23
M  V30 23 1 23 24
M  V30 24 1 24 25
M  V30 25 1 25 26
M  V30 26 1 26 27
M  V30 27 1 26 28
M  V30 28 1 28 29
M  V30 29 1 19 30
M  V30 30 2 30 31
M  V30 31 1 31 32
M  V30 32 1 32 33
M  V30 33 2 14 34
M  V30 34 1 34 35
M  V30 35 2 35 36
M  V30 36 1 36 37
M  V30 37 1 37 38
M  V30 38 1 37 39
M  V30 39 2 39 40
M  V30 40 1 39 4
M  V30 41 1 11 7
M  V30 42 1 36 12
M  V30 43 1 31 16
M  V30 44 1 29 23
M  V30 45 1 1 41
M  V30 46 1 1 42
M  V30 47 1 2 43
M  V30 48 1 3 44
M  V30 49 1 3 45
M  V30 50 1 4 46 CFG=1
M  V30 51 1 5 47
M  V30 52 1 5 48
M  V30 53 1 7 49
M  V30 54 1 8 50
M  V30 55 1 8 51
M  V30 56 1 9 52
M  V30 57 1 9 53
M  V30 58 1 10 54
M  V30 59 1 10 55
M  V30 60 1 11 56
M  V30 61 1 11 57
M  V30 62 1 15 58
M  V30 63 1 17 59
M  V30 64 1 18 60
M  V30 65 1 22 61
M  V30 66 1 23 62
M  V30 67 1 24 63
M  V30 68 1 24 64
M  V30 69 1 25 65
M  V30 70 1 25 66
M  V30 71 1 27 67
M  V30 72 1 27 68
M  V30 73 1 27 69
M  V30 74 1 28 70
M  V30 75 1 28 71
M  V30 76 1 29 72
M  V30 77 1 29 73
M  V30 78 1 30 74
M  V30 79 1 33 75
M  V30 80 1 33 76
M  V30 81 1 33 77
M  V30 82 1 35 78
M  V30 83 1 38 79
M  V30 84 1 38 80
M  V30 85 1 38 81
M  V30 END BOND
M  V30 END CTAB
M  END
>  <Dataset>  (864) 
ChEMBL_Kinases

>  <Ligand_Instance>  (864) 
nan

>  <PDB_ID>  (864) 
nan

>  <Standardized_SMILES>  (864) 
C=CC[C@@H]1CN(C2CCCC2)c2nc(Nc3ccc(C(=O)NC4CCN(C)CC4)cc3OC)ncc2N(C)C1=O

>  <Name>  (864) 
nan

>  <Pocket>  (864) 
nan

>  <ATP_Site>  (864) 
nan

>  <Peripheral>  (864) 
nan

>  <Num_H_Atoms_ProtBoundConf>  (864) 
nan

>  <Num_Resolved_Atoms>  (864) 
nan

>  <Num_Not_Resolved_Atoms>  (864) 
nan

$$$$
CHEMBL2392556
     RDKit          3D

  0  0  0  0  0  0  0  0  0  0999 V3000
M  V30 BEGIN CTAB
M  V30 COUNTS 81 85 0 0 0
M  V30 BEGIN ATOM
M  V30 1 C 6.088451 -1.697473 5.456387 0
M  V30 2 C 5.482486 -2.799595 4.971023 0
M  V30 3 C 4.514830 -2.815310 3.856025 0
M  V30 4 C 4.231460 -1.435849 3.264237 0 CFG=1
M  V30 5 C 3.234583 -1.706548 2.160580 0
M  V30 6 N 3.103579 -0.643432 1.220748 0
M  V30 7 C 3.369020 -0.810860 -0.167944 0
M  V30 8 C 2.438187 -1.751250 -0.893829 0
M  V30 9 C 3.255565 -2.383133 -2.020436 0
M  V30 10 C 4.564959 -1.624069 -1.967880 0
M  V30 11 C 4.709329 -1.465697 -0.444390 0
M  V30 12 C 2.676326 0.695061 1.569818 0
M  V30 13 N 2.122427 1.362943 0.543656 0
M  V30 14 C 1.630440 2.606580 0.589656 0
M  V30 15 N 1.143485 2.968103 -0.693157 0
M  V30 16 C -0.020412 2.293641 -1.154511 0
M  V30 17 C -0.684403 1.325916 -0.432243 0
M  V30 18 C -1.799421 0.635284 -0.855507 0
M  V30 19 C -2.312858 0.925242 -2.114397 0
M  V30 20 C -3.477251 0.239503 -2.661991 0
M  V30 21 O -3.829559 0.505068 -3.866021 0
M  V30 22 N -4.254228 -0.698848 -1.976253 0
M  V30 23 C -5.405541 -1.438706 -2.422460 0
M  V30 24 C -5.252720 -2.910023 -2.233793 0
M  V30 25 C -6.142984 -3.446485 -1.134646 0
M  V30 26 N -7.547520 -3.271256 -1.388313 0
M  V30 27 C -8.317026 -3.400819 -0.163058 0
M  V30 28 C -7.791434 -2.003285 -2.046372 0
M  V30 29 C -6.686603 -1.018467 -1.721571 0
M  V30 30 C -1.664174 1.893955 -2.855800 0
M  V30 31 C -0.547499 2.579907 -2.421153 0
M  V30 32 O 0.098459 3.546282 -3.159400 0
M  V30 33 C -0.422463 3.847922 -4.438399 0
M  V30 34 N 1.710350 3.227648 1.791880 0
M  V30 35 C 2.250810 2.622747 2.860330 0
M  V30 36 C 2.755985 1.342232 2.809150 0
M  V30 37 N 3.299842 0.833265 4.019503 0
M  V30 38 C 3.452738 1.843344 5.055894 0
M  V30 39 C 3.699639 -0.526798 4.307438 0
M  V30 40 O 3.508424 -0.752791 5.555755 0
M  V30 41 H 6.751555 -2.009634 6.283410 0
M  V30 42 H 6.757349 -1.983706 6.284916 0
M  V30 43 H 5.593462 -3.850331 5.299690 0
M  V30 44 H 4.848650 -3.495051 3.051289 0
M  V30 45 H 3.552801 -3.245813 4.253314 0
M  V30 46 H 5.188459 -1.086694 2.831788 0
M  V30 47 H 2.283666 -2.047978 2.627010 0
M  V30 48 H 3.626979 -2.602296 1.616981 0
M  V30 49 H 3.377885 0.160320 -0.691652 0
M  V30 50 H 1.644245 -1.153527 -1.433482 0
M  V30 51 H 2.046205 -2.570846 -0.292996 0
M  V30 52 H 3.467309 -3.454081 -1.831674 0
M  V30 53 H 2.751095 -2.311113 -3.006490 0
M  V30 54 H 5.408288 -2.236515 -2.294847 0
M  V30 55 H 4.477480 -0.634423 -2.467497 0
M  V30 56 H 5.572760 -0.878975 -0.154596 0
M  V30 57 H 4.737427 -2.535077 -0.080086 0
M  V30 58 H 1.581974 3.686617 -1.306623 0
M  V30 59 H -0.311550 1.072638 0.558300 0
M  V30 60 H -2.282041 -0.108856 -0.255711 0
M  V30 61 H -3.999682 -0.938705 -0.976472 0
M  V30 62 H -5.506959 -1.240366 -3.529432 0
M  V30 63 H -5.395559 -3.484308 -3.191997 0
M  V30 64 H -4.205610 -3.151082 -1.943395 0
M  V30 65 H -5.906013 -2.810310 -0.235602 0
M  V30 66 H -5.925214 -4.502855 -0.997112 0
M  V30 67 H -9.393872 -3.446312 -0.337832 0
M  V30 68 H -7.988208 -4.353725 0.314280 0
M  V30 69 H -8.017523 -2.535855 0.478584 0
M  V30 70 H -8.747347 -1.552912 -1.769308 0
M  V30 71 H -7.810566 -2.224607 -3.136499 0
M  V30 72 H -6.615761 -0.911614 -0.647763 0
M  V30 73 H -7.030565 -0.037499 -2.155987 0
M  V30 74 H -1.996354 2.187867 -3.847795 0
M  V30 75 H 0.300555 4.573668 -4.893453 0
M  V30 76 H -1.409938 4.322475 -4.353994 0
M  V30 77 H -0.420587 2.931425 -5.049415 0
M  V30 78 H 2.296578 3.151261 3.796647 0
M  V30 79 H 4.066035 1.362271 5.867372 0
M  V30 80 H 2.511439 2.143802 5.536469 0
M  V30 81 H 4.096359 2.681839 4.714277 0
M  V30 END ATOM
M  V30 BEGIN BOND
M  V30 1 2 1 2
M  V30 2 1 2 3
M  V30 3 1 3 4
M  V30 4 1 4 5
M  V30 5 1 5 6
M  V30 6 1 6 7
M  V30 7 1 7 8
M  V30 8 1 8 9
M  V30 9 1 9 10
M  V30 10 1 10 11
M  V30 11 1 6 12
M  V30 12 2 12 13
M  V30 13 1 13 14
M  V30 14 1 14 15
M  V30 15 1 15 16
M  V30 16 2 16 17
M  V30 17 1 17 18
M  V30 18 2 18 19
M  V30 19 1 19 20
M  V30 20 2 20 21
M  V30 21 1 20 22
M  V30 22 1 22 23
M  V30 23 1 23 24
M  V30 24 1 24 25
M  V30 25 1 25 26
M  V30 26 1 26 27
M  V30 27 1 26 28
M  V30 28 1 28 29
M  V30 29 1 19 30
M  V30 30 2 30 31
M  V30 31 1 31 32
M  V30 32 1 32 33
M  V30 33 2 14 34
M  V30 34 1 34 35
M  V30 35 2 35 36
M  V30 36 1 36 37
M  V30 37 1 37 38
M  V30 38 1 37 39
M  V30 39 2 39 40
M  V30 40 1 39 4
M  V30 41 1 11 7
M  V30 42 1 36 12
M  V30 43 1 31 16
M  V30 44 1 29 23
M  V30 45 1 1 41
M  V30 46 1 1 42
M  V30 47 1 2 43
M  V30 48 1 3 44
M  V30 49 1 3 45
M  V30 50 1 4 46 CFG=3
M  V30 51 1 5 47
M  V30 52 1 5 48
M  V30 53 1 7 49
M  V30 54 1 8 50
M  V30 55 1 8 51
M  V30 56 1 9 52
M  V30 57 1 9 53
M  V30 58 1 10 54
M  V30 59 1 10 55
M  V30 60 1 11 56
M  V30 61 1 11 57
M  V30 62 1 15 58
M  V30 63 1 17 59
M  V30 64 1 18 60
M  V30 65 1 22 61
M  V30 66 1 23 62
M  V30 67 1 24 63
M  V30 68 1 24 64
M  V30 69 1 25 65
M  V30 70 1 25 66
M  V30 71 1 27 67
M  V30 72 1 27 68
M  V30 73 1 27 69
M  V30 74 1 28 70
M  V30 75 1 28 71
M  V30 76 1 29 72
M  V30 77 1 29 73
M  V30 78 1 30 74
M  V30 79 1 33 75
M  V30 80 1 33 76
M  V30 81 1 33 77
M  V30 82 1 35 78
M  V30 83 1 38 79
M  V30 84 1 38 80
M  V30 85 1 38 81
M  V30 END BOND
M  V30 END CTAB
M  END
>  <Dataset>  (865) 
ChEMBL_Kinases

>  <Ligand_Instance>  (865) 
nan

>  <PDB_ID>  (865) 
nan

>  <Standardized_SMILES>  (865) 
C=CC[C@H]1CN(C2CCCC2)c2nc(Nc3ccc(C(=O)NC4CCN(C)CC4)cc3OC)ncc2N(C)C1=O

>  <Name>  (865) 
nan

>  <Pocket>  (865) 
nan

>  <ATP_Site>  (865) 
nan

>  <Peripheral>  (865) 
nan

>  <Num_H_Atoms_ProtBoundConf>  (865) 
nan

>  <Num_Resolved_Atoms>  (865) 
nan

>  <Num_Not_Resolved_Atoms>  (865) 
nan

$$$$
CHEMBL2392555
     RDKit          3D

  0  0  0  0  0  0  0  0  0  0999 V3000
M  V30 BEGIN CTAB
M  V30 COUNTS 80 84 0 0 0
M  V30 BEGIN ATOM
M  V30 1 C 6.718578 1.523478 2.870336 0
M  V30 2 C 5.825919 0.581791 2.070638 0
M  V30 3 C 4.431527 0.628512 2.696442 0 CFG=2
M  V30 4 F 4.644695 0.195991 4.019980 0
M  V30 5 C 3.503138 -0.400596 2.109071 0
M  V30 6 N 3.150188 -0.148601 0.718351 0
M  V30 7 C 3.679392 -1.135312 -0.180049 0
M  V30 8 C 3.530651 -0.938385 -1.634885 0
M  V30 9 C 2.460159 -1.898579 -2.115437 0
M  V30 10 C 2.012387 -2.692753 -0.906407 0
M  V30 11 C 3.114788 -2.520435 0.127620 0
M  V30 12 C 2.369129 0.940527 0.304702 0
M  V30 13 N 1.621745 0.578178 -0.756080 0
M  V30 14 C 0.780570 1.416895 -1.367577 0
M  V30 15 N -0.002094 0.999873 -2.477222 0
M  V30 16 C -1.337283 0.479808 -2.403775 0
M  V30 17 C -1.820196 0.430997 -1.079631 0
M  V30 18 C -3.096298 -0.057912 -0.929904 0
M  V30 19 C -3.852218 -0.468482 -1.989627 0
M  V30 20 C -5.173098 -1.007822 -1.738652 0
M  V30 21 O -6.260178 -0.953688 -2.402789 0
M  V30 22 N -5.521769 -1.748217 -0.632824 0
M  V30 23 C -6.245434 -2.530910 0.361468 0
M  V30 24 C -6.093007 -2.096087 1.777883 0
M  V30 25 C -4.692566 -2.218574 2.242748 0
M  V30 26 N -3.961401 -3.329516 1.814862 0
M  V30 27 C -2.983614 -3.888401 2.680379 0
M  V30 28 C -4.278672 -4.011826 0.629982 0
M  V30 29 C -5.750562 -3.987490 0.276390 0
M  V30 30 C -3.394545 -0.423510 -3.272542 0
M  V30 31 C -2.129063 0.052553 -3.484882 0
M  V30 32 O -1.384221 0.230387 -4.607129 0
M  V30 33 C -1.746486 -0.066991 -5.938838 0
M  V30 34 N 0.702153 2.673366 -0.872569 0
M  V30 35 C 1.421462 3.077352 0.173807 0
M  V30 36 C 2.276513 2.228120 0.796082 0
M  V30 37 N 3.011301 2.750344 1.925724 0
M  V30 38 C 2.790575 4.153751 2.133392 0
M  V30 39 C 3.887870 1.987966 2.787312 0
M  V30 40 O 4.176127 2.738893 3.777213 0
M  V30 41 H 7.792208 1.326957 2.653244 0
M  V30 42 H 6.421738 2.555437 2.638681 0
M  V30 43 H 6.592188 1.251766 3.953272 0
M  V30 44 H 5.842327 0.791759 1.001157 0
M  V30 45 H 6.238480 -0.441231 2.255143 0
M  V30 46 H 4.048101 -1.365001 2.183953 0
M  V30 47 H 2.646909 -0.498184 2.790620 0
M  V30 48 H 4.795834 -1.218614 0.024709 0
M  V30 49 H 4.471612 -1.297688 -2.185521 0
M  V30 50 H 3.431017 0.091120 -2.015539 0
M  V30 51 H 1.626559 -1.428339 -2.651414 0
M  V30 52 H 2.861382 -2.672689 -2.840601 0
M  V30 53 H 1.067682 -2.343096 -0.474715 0
M  V30 54 H 1.949894 -3.778811 -1.118828 0
M  V30 55 H 3.907209 -3.290158 0.026707 0
M  V30 56 H 2.732370 -2.590689 1.166876 0
M  V30 57 H 0.603084 1.157227 -3.301688 0
M  V30 58 H -1.298233 0.727244 -0.196701 0
M  V30 59 H -3.520341 -0.114610 0.046359 0
M  V30 60 H -4.613429 -1.840516 -0.049671 0
M  V30 61 H -7.326711 -2.572697 0.044872 0
M  V30 62 H -6.713980 -2.807467 2.382653 0
M  V30 63 H -6.489589 -1.065388 1.966416 0
M  V30 64 H -4.120266 -1.278218 2.016658 0
M  V30 65 H -4.719651 -2.239754 3.377759 0
M  V30 66 H -3.397310 -4.531605 3.489408 0
M  V30 67 H -2.432859 -3.067319 3.193202 0
M  V30 68 H -2.233333 -4.423680 2.057759 0
M  V30 69 H -4.013383 -5.100562 0.738101 0
M  V30 70 H -3.717679 -3.659499 -0.261284 0
M  V30 71 H -5.851031 -4.348247 -0.752295 0
M  V30 72 H -6.386840 -4.570765 0.943188 0
M  V30 73 H -3.944792 -0.738235 -4.120643 0
M  V30 74 H -1.281636 0.643447 -6.628132 0
M  V30 75 H -1.358716 -1.093899 -6.201035 0
M  V30 76 H -2.855401 -0.034044 -6.057327 0
M  V30 77 H 1.348299 4.067894 0.552124 0
M  V30 78 H 3.438377 4.467616 2.998168 0
M  V30 79 H 1.753483 4.361214 2.520108 0
M  V30 80 H 3.091682 4.796081 1.294506 0
M  V30 END ATOM
M  V30 BEGIN BOND
M  V30 1 1 1 2
M  V30 2 1 2 3
M  V30 3 1 3 4 CFG=1
M  V30 4 1 3 5
M  V30 5 1 5 6
M  V30 6 1 6 7
M  V30 7 1 7 8
M  V30 8 1 8 9
M  V30 9 1 9 10
M  V30 10 1 10 11
M  V30 11 1 6 12
M  V30 12 2 12 13
M  V30 13 1 13 14
M  V30 14 1 14 15
M  V30 15 1 15 16
M  V30 16 2 16 17
M  V30 17 1 17 18
M  V30 18 2 18 19
M  V30 19 1 19 20
M  V30 20 2 20 21
M  V30 21 1 20 22
M  V30 22 1 22 23
M  V30 23 1 23 24
M  V30 24 1 24 25
M  V30 25 1 25 26
M  V30 26 1 26 27
M  V30 27 1 26 28
M  V30 28 1 28 29
M  V30 29 1 19 30
M  V30 30 2 30 31
M  V30 31 1 31 32
M  V30 32 1 32 33
M  V30 33 2 14 34
M  V30 34 1 34 35
M  V30 35 2 35 36
M  V30 36 1 36 37
M  V30 37 1 37 38
M  V30 38 1 37 39
M  V30 39 2 39 40
M  V30 40 1 39 3
M  V30 41 1 11 7
M  V30 42 1 36 12
M  V30 43 1 31 16
M  V30 44 1 29 23
M  V30 45 1 1 41
M  V30 46 1 1 42
M  V30 47 1 1 43
M  V30 48 1 2 44
M  V30 49 1 2 45
M  V30 50 1 5 46
M  V30 51 1 5 47
M  V30 52 1 7 48
M  V30 53 1 8 49
M  V30 54 1 8 50
M  V30 55 1 9 51
M  V30 56 1 9 52
M  V30 57 1 10 53
M  V30 58 1 10 54
M  V30 59 1 11 55
M  V30 60 1 11 56
M  V30 61 1 15 57
M  V30 62 1 17 58
M  V30 63 1 18 59
M  V30 64 1 22 60
M  V30 65 1 23 61
M  V30 66 1 24 62
M  V30 67 1 24 63
M  V30 68 1 25 64
M  V30 69 1 25 65
M  V30 70 1 27 66
M  V30 71 1 27 67
M  V30 72 1 27 68
M  V30 73 1 28 69
M  V30 74 1 28 70
M  V30 75 1 29 71
M  V30 76 1 29 72
M  V30 77 1 30 73
M  V30 78 1 33 74
M  V30 79 1 33 75
M  V30 80 1 33 76
M  V30 81 1 35 77
M  V30 82 1 38 78
M  V30 83 1 38 79
M  V30 84 1 38 80
M  V30 END BOND
M  V30 END CTAB
M  END
>  <Dataset>  (866) 
ChEMBL_Kinases

>  <Ligand_Instance>  (866) 
nan

>  <PDB_ID>  (866) 
nan

>  <Standardized_SMILES>  (866) 
CC[C@]1(F)CN(C2CCCC2)c2nc(Nc3ccc(C(=O)NC4CCN(C)CC4)cc3OC)ncc2N(C)C1=O

>  <Name>  (866) 
nan

>  <Pocket>  (866) 
nan

>  <ATP_Site>  (866) 
nan

>  <Peripheral>  (866) 
nan

>  <Num_H_Atoms_ProtBoundConf>  (866) 
nan

>  <Num_Resolved_Atoms>  (866) 
nan

>  <Num_Not_Resolved_Atoms>  (866) 
nan

$$$$
CHEMBL2392554
     RDKit          3D

  0  0  0  0  0  0  0  0  0  0999 V3000
M  V30 BEGIN CTAB
M  V30 COUNTS 80 84 0 0 0
M  V30 BEGIN ATOM
M  V30 1 C 2.685925 -3.615659 3.321237 0
M  V30 2 C 2.730133 -2.898536 1.972943 0
M  V30 3 C 4.200549 -2.769141 1.572731 0 CFG=1
M  V30 4 F 4.737932 -4.025694 1.475703 0
M  V30 5 C 4.257380 -2.102685 0.251042 0
M  V30 6 N 3.430953 -0.938863 0.075360 0
M  V30 7 C 2.802989 -0.784618 -1.202496 0
M  V30 8 C 3.876558 -0.741281 -2.270849 0
M  V30 9 C 3.495762 -1.866656 -3.241848 0
M  V30 10 C 1.965681 -1.807594 -3.129670 0
M  V30 11 C 1.822041 -1.830628 -1.600669 0
M  V30 12 C 3.167199 0.084688 1.064879 0
M  V30 13 N 2.305630 1.030053 0.580283 0
M  V30 14 C 1.908204 2.073456 1.336065 0
M  V30 15 N 1.009505 3.027843 0.742630 0
M  V30 16 C -0.313048 2.691820 0.339348 0
M  V30 17 C -0.700690 1.377808 0.483271 0
M  V30 18 C -1.925250 0.883438 0.129069 0
M  V30 19 C -2.865397 1.731789 -0.414228 0
M  V30 20 C -4.211012 1.439817 -0.871618 0
M  V30 21 O -5.059846 2.278407 -1.321788 0
M  V30 22 N -4.703155 0.113690 -0.847690 0
M  V30 23 C -5.880347 -0.622483 -1.172324 0
M  V30 24 C -6.433290 -1.458607 -0.047298 0
M  V30 25 C -5.748235 -2.770101 0.146718 0
M  V30 26 N -4.555891 -2.968826 -0.613866 0
M  V30 27 C -4.152034 -4.360490 -0.474854 0
M  V30 28 C -4.684997 -2.677496 -2.005834 0
M  V30 29 C -5.649712 -1.589667 -2.335779 0
M  V30 30 C -2.510067 3.060603 -0.572860 0
M  V30 31 C -1.275388 3.548641 -0.213488 0
M  V30 32 O -0.869471 4.867992 -0.350590 0
M  V30 33 C -1.813333 5.773500 -0.907240 0
M  V30 34 N 2.356744 2.212822 2.605890 0
M  V30 35 C 3.216460 1.309588 3.151896 0
M  V30 36 C 3.617852 0.243405 2.368662 0
M  V30 37 N 4.525843 -0.648964 3.031820 0
M  V30 38 C 5.141668 -0.095973 4.213754 0
M  V30 39 C 4.873924 -1.977444 2.658520 0
M  V30 40 O 5.822864 -2.472761 3.322347 0
M  V30 41 H 3.501163 -3.130492 3.933523 0
M  V30 42 H 2.845510 -4.691376 3.205759 0
M  V30 43 H 1.715867 -3.351987 3.785153 0
M  V30 44 H 2.251850 -1.931292 2.122403 0
M  V30 45 H 2.163094 -3.455336 1.210637 0
M  V30 46 H 5.303755 -1.888281 -0.092069 0
M  V30 47 H 3.891499 -2.868827 -0.467301 0
M  V30 48 H 2.301259 0.213408 -1.215683 0
M  V30 49 H 4.877898 -1.001993 -1.905418 0
M  V30 50 H 3.828696 0.195003 -2.873808 0
M  V30 51 H 3.781041 -2.863584 -2.854171 0
M  V30 52 H 3.858619 -1.671631 -4.256229 0
M  V30 53 H 1.583814 -2.757754 -3.554717 0
M  V30 54 H 1.550276 -0.899782 -3.581947 0
M  V30 55 H 0.788678 -1.481855 -1.403014 0
M  V30 56 H 2.045737 -2.855552 -1.324422 0
M  V30 57 H 1.282050 4.008145 0.580116 0
M  V30 58 H -0.031449 0.633954 0.900915 0
M  V30 59 H -2.262971 -0.137402 0.226490 0
M  V30 60 H -4.083705 -0.648129 -0.496882 0
M  V30 61 H -6.699717 0.061154 -1.533161 0
M  V30 62 H -7.503170 -1.696586 -0.321663 0
M  V30 63 H -6.489429 -0.881134 0.903971 0
M  V30 64 H -6.405963 -3.650054 -0.037909 0
M  V30 65 H -5.455392 -2.863109 1.226860 0
M  V30 66 H -3.605415 -4.536332 0.466707 0
M  V30 67 H -5.077543 -4.971790 -0.417685 0
M  V30 68 H -3.587517 -4.726862 -1.359238 0
M  V30 69 H -3.676644 -2.323196 -2.363297 0
M  V30 70 H -4.878728 -3.613933 -2.561173 0
M  V30 71 H -6.632808 -2.072550 -2.518004 0
M  V30 72 H -5.394617 -1.030567 -3.256776 0
M  V30 73 H -3.159462 3.828978 -0.988267 0
M  V30 74 H -2.765323 5.713156 -0.340031 0
M  V30 75 H -2.019920 5.374585 -1.933594 0
M  V30 76 H -1.436982 6.801236 -0.919647 0
M  V30 77 H 3.596672 1.382736 4.157403 0
M  V30 78 H 4.540810 -0.144585 5.120857 0
M  V30 79 H 5.585218 0.922235 4.021493 0
M  V30 80 H 6.044029 -0.742362 4.428453 0
M  V30 END ATOM
M  V30 BEGIN BOND
M  V30 1 1 1 2
M  V30 2 1 2 3
M  V30 3 1 3 4 CFG=3
M  V30 4 1 3 5
M  V30 5 1 5 6
M  V30 6 1 6 7
M  V30 7 1 7 8
M  V30 8 1 8 9
M  V30 9 1 9 10
M  V30 10 1 10 11
M  V30 11 1 6 12
M  V30 12 2 12 13
M  V30 13 1 13 14
M  V30 14 1 14 15
M  V30 15 1 15 16
M  V30 16 2 16 17
M  V30 17 1 17 18
M  V30 18 2 18 19
M  V30 19 1 19 20
M  V30 20 2 20 21
M  V30 21 1 20 22
M  V30 22 1 22 23
M  V30 23 1 23 24
M  V30 24 1 24 25
M  V30 25 1 25 26
M  V30 26 1 26 27
M  V30 27 1 26 28
M  V30 28 1 28 29
M  V30 29 1 19 30
M  V30 30 2 30 31
M  V30 31 1 31 32
M  V30 32 1 32 33
M  V30 33 2 14 34
M  V30 34 1 34 35
M  V30 35 2 35 36
M  V30 36 1 36 37
M  V30 37 1 37 38
M  V30 38 1 37 39
M  V30 39 2 39 40
M  V30 40 1 39 3
M  V30 41 1 11 7
M  V30 42 1 36 12
M  V30 43 1 31 16
M  V30 44 1 29 23
M  V30 45 1 1 41
M  V30 46 1 1 42
M  V30 47 1 1 43
M  V30 48 1 2 44
M  V30 49 1 2 45
M  V30 50 1 5 46
M  V30 51 1 5 47
M  V30 52 1 7 48
M  V30 53 1 8 49
M  V30 54 1 8 50
M  V30 55 1 9 51
M  V30 56 1 9 52
M  V30 57 1 10 53
M  V30 58 1 10 54
M  V30 59 1 11 55
M  V30 60 1 11 56
M  V30 61 1 15 57
M  V30 62 1 17 58
M  V30 63 1 18 59
M  V30 64 1 22 60
M  V30 65 1 23 61
M  V30 66 1 24 62
M  V30 67 1 24 63
M  V30 68 1 25 64
M  V30 69 1 25 65
M  V30 70 1 27 66
M  V30 71 1 27 67
M  V30 72 1 27 68
M  V30 73 1 28 69
M  V30 74 1 28 70
M  V30 75 1 29 71
M  V30 76 1 29 72
M  V30 77 1 30 73
M  V30 78 1 33 74
M  V30 79 1 33 75
M  V30 80 1 33 76
M  V30 81 1 35 77
M  V30 82 1 38 78
M  V30 83 1 38 79
M  V30 84 1 38 80
M  V30 END BOND
M  V30 END CTAB
M  END
>  <Dataset>  (867) 
ChEMBL_Kinases

>  <Ligand_Instance>  (867) 
nan

>  <PDB_ID>  (867) 
nan

>  <Standardized_SMILES>  (867) 
CC[C@@]1(F)CN(C2CCCC2)c2nc(Nc3ccc(C(=O)NC4CCN(C)CC4)cc3OC)ncc2N(C)C1=O

>  <Name>  (867) 
nan

>  <Pocket>  (867) 
nan

>  <ATP_Site>  (867) 
nan

>  <Peripheral>  (867) 
nan

>  <Num_H_Atoms_ProtBoundConf>  (867) 
nan

>  <Num_Resolved_Atoms>  (867) 
nan

>  <Num_Not_Resolved_Atoms>  (867) 
nan

$$$$
CHEMBL2392553
     RDKit          3D

  0  0  0  0  0  0  0  0  0  0999 V3000
M  V30 BEGIN CTAB
M  V30 COUNTS 74 78 0 0 0
M  V30 BEGIN ATOM
M  V30 1 C 2.533071 -1.319744 5.650918 0
M  V30 2 O 2.116533 -1.926505 4.440388 0
M  V30 3 C 1.834012 -1.085298 3.369938 0
M  V30 4 C 1.946211 0.290096 3.455078 0
M  V30 5 C 1.661064 1.087056 2.385083 0
M  V30 6 C 1.787196 2.532547 2.501727 0
M  V30 7 O 2.165476 2.992884 3.609470 0
M  V30 8 N 1.497324 3.375095 1.419245 0
M  V30 9 C 1.553191 4.819809 1.313127 0
M  V30 10 C 0.133141 5.311728 1.078708 0
M  V30 11 C -0.305844 5.066737 -0.328830 0
M  V30 12 N 0.576279 5.770432 -1.236714 0
M  V30 13 C 0.116216 5.628067 -2.604843 0
M  V30 14 C 1.876516 5.149206 -1.147458 0
M  V30 15 C 2.475547 5.288267 0.236118 0
M  V30 16 C 1.260262 0.452050 1.229853 0
M  V30 17 C 1.133120 -0.915583 1.095440 0
M  V30 18 C 1.431625 -1.708469 2.207572 0
M  V30 19 N 1.299286 -3.137405 2.074635 0
M  V30 20 C 0.874555 -3.711683 0.821365 0
M  V30 21 N 1.847493 -4.048989 -0.073473 0
M  V30 22 C 1.570575 -4.587897 -1.268104 0
M  V30 23 C 0.260405 -4.802019 -1.588879 0
M  V30 24 C -0.737054 -4.466331 -0.694791 0
M  V30 25 N -0.406010 -3.935988 0.473579 0
M  V30 26 N -2.158453 -4.569697 -0.750001 0
M  V30 27 C -2.996285 -3.880097 0.134959 0
M  V30 28 C -2.483157 -2.993293 1.177999 0
M  V30 29 C -3.798104 -2.325119 1.637193 0
M  V30 30 C -4.492514 -1.982761 0.340444 0
M  V30 31 C -3.856067 -2.905251 -0.672025 0
M  V30 32 C -2.888669 -5.399258 -1.725923 0
M  V30 33 C -2.532343 -5.067190 -3.140536 0
M  V30 34 F -2.623359 -3.723912 -3.446252 0
M  V30 35 F -3.471413 -5.707729 -3.935178 0
M  V30 36 C -1.207709 -5.566497 -3.571927 0
M  V30 37 O -1.097793 -6.227540 -4.647501 0
M  V30 38 N 0.037772 -5.376908 -2.871660 0
M  V30 39 C 1.268187 -5.823739 -3.536181 0
M  V30 40 H 1.666267 -0.863160 6.147628 0
M  V30 41 H 2.918041 -2.114736 6.351625 0
M  V30 42 H 3.370082 -0.582538 5.488995 0
M  V30 43 H 2.269505 0.743209 4.398118 0
M  V30 44 H 1.186390 3.044886 0.500448 0
M  V30 45 H 1.889755 5.249807 2.286452 0
M  V30 46 H -0.508585 4.742538 1.768518 0
M  V30 47 H 0.034474 6.385162 1.306699 0
M  V30 48 H -0.299110 3.984414 -0.535675 0
M  V30 49 H -1.339307 5.471753 -0.417730 0
M  V30 50 H 0.315317 4.577948 -2.923626 0
M  V30 51 H 0.628085 6.371847 -3.247574 0
M  V30 52 H -0.994129 5.797186 -2.678470 0
M  V30 53 H 1.782385 4.099977 -1.481618 0
M  V30 54 H 2.533284 5.683747 -1.859072 0
M  V30 55 H 2.678329 6.368080 0.392311 0
M  V30 56 H 3.406715 4.685988 0.233740 0
M  V30 57 H 1.023791 1.017983 0.360926 0
M  V30 58 H 0.819722 -1.410506 0.193130 0
M  V30 59 H 1.524727 -3.709652 2.921282 0
M  V30 60 H 2.328900 -4.849534 -1.961887 0
M  V30 61 H -3.656624 -4.639909 0.640855 0
M  V30 62 H -2.108340 -3.458553 2.112855 0
M  V30 63 H -1.894028 -2.123632 0.826862 0
M  V30 64 H -4.397388 -3.020849 2.267096 0
M  V30 65 H -3.515782 -1.447696 2.239489 0
M  V30 66 H -5.589672 -2.088129 0.390443 0
M  V30 67 H -4.298046 -0.901848 0.125307 0
M  V30 68 H -3.123605 -2.271337 -1.226906 0
M  V30 69 H -4.609623 -3.388469 -1.285869 0
M  V30 70 H -2.646118 -6.482786 -1.598498 0
M  V30 71 H -3.966291 -5.312641 -1.616643 0
M  V30 72 H 1.824887 -6.563402 -2.947201 0
M  V30 73 H 0.925854 -6.391448 -4.450845 0
M  V30 74 H 1.856069 -4.987977 -3.942265 0
M  V30 END ATOM
M  V30 BEGIN BOND
M  V30 1 1 1 2
M  V30 2 1 2 3
M  V30 3 2 3 4
M  V30 4 1 4 5
M  V30 5 1 5 6
M  V30 6 2 6 7
M  V30 7 1 6 8
M  V30 8 1 8 9
M  V30 9 1 9 10
M  V30 10 1 10 11
M  V30 11 1 11 12
M  V30 12 1 12 13
M  V30 13 1 12 14
M  V30 14 1 14 15
M  V30 15 2 5 16
M  V30 16 1 16 17
M  V30 17 2 17 18
M  V30 18 1 18 19
M  V30 19 1 19 20
M  V30 20 2 20 21
M  V30 21 1 21 22
M  V30 22 2 22 23
M  V30 23 1 23 24
M  V30 24 2 24 25
M  V30 25 1 24 26
M  V30 26 1 26 27
M  V30 27 1 27 28
M  V30 28 1 28 29
M  V30 29 1 29 30
M  V30 30 1 30 31
M  V30 31 1 26 32
M  V30 32 1 32 33
M  V30 33 1 33 34
M  V30 34 1 33 35
M  V30 35 1 33 36
M  V30 36 2 36 37
M  V30 37 1 36 38
M  V30 38 1 38 39
M  V30 39 1 18 3
M  V30 40 1 25 20
M  V30 41 1 31 27
M  V30 42 1 15 9
M  V30 43 1 38 23
M  V30 44 1 1 40
M  V30 45 1 1 41
M  V30 46 1 1 42
M  V30 47 1 4 43
M  V30 48 1 8 44
M  V30 49 1 9 45
M  V30 50 1 10 46
M  V30 51 1 10 47
M  V30 52 1 11 48
M  V30 53 1 11 49
M  V30 54 1 13 50
M  V30 55 1 13 51
M  V30 56 1 13 52
M  V30 57 1 14 53
M  V30 58 1 14 54
M  V30 59 1 15 55
M  V30 60 1 15 56
M  V30 61 1 16 57
M  V30 62 1 17 58
M  V30 63 1 19 59
M  V30 64 1 22 60
M  V30 65 1 27 61
M  V30 66 1 28 62
M  V30 67 1 28 63
M  V30 68 1 29 64
M  V30 69 1 29 65
M  V30 70 1 30 66
M  V30 71 1 30 67
M  V30 72 1 31 68
M  V30 73 1 31 69
M  V30 74 1 32 70
M  V30 75 1 32 71
M  V30 76 1 39 72
M  V30 77 1 39 73
M  V30 78 1 39 74
M  V30 END BOND
M  V30 END CTAB
M  END
>  <Dataset>  (868) 
ChEMBL_Kinases

>  <Ligand_Instance>  (868) 
nan

>  <PDB_ID>  (868) 
nan

>  <Standardized_SMILES>  (868) 
COc1cc(C(=O)NC2CCN(C)CC2)ccc1Nc1ncc2c(n1)N(C1CCCC1)CC(F)(F)C(=O)N2C

>  <Name>  (868) 
nan

>  <Pocket>  (868) 
nan

>  <ATP_Site>  (868) 
nan

>  <Peripheral>  (868) 
nan

>  <Num_H_Atoms_ProtBoundConf>  (868) 
nan

>  <Num_Resolved_Atoms>  (868) 
nan

>  <Num_Not_Resolved_Atoms>  (868) 
nan

$$$$
CHEMBL2392552
     RDKit          3D

  0  0  0  0  0  0  0  0  0  0999 V3000
M  V30 BEGIN CTAB
M  V30 COUNTS 74 78 0 0 0
M  V30 BEGIN ATOM
M  V30 1 C 2.345726 -1.680154 5.869428 0
M  V30 2 O 2.171539 -2.136879 4.553874 0
M  V30 3 C 1.760044 -1.278233 3.549328 0
M  V30 4 C 1.496685 0.065012 3.772409 0
M  V30 5 C 1.091962 0.849929 2.714399 0
M  V30 6 C 0.824205 2.247879 2.992314 0
M  V30 7 O 1.006462 2.675118 4.177863 0
M  V30 8 N 0.373965 3.134367 2.004088 0
M  V30 9 C 0.033604 4.541978 1.995371 0
M  V30 10 C 0.770228 5.326169 0.978110 0
M  V30 11 C 0.154019 6.670306 0.765272 0
M  V30 12 N -1.275272 6.617110 0.544315 0
M  V30 13 C -1.630150 6.009535 -0.720057 0
M  V30 14 C -1.968254 6.001053 1.658221 0
M  V30 15 C -1.467033 4.594310 1.755520 0
M  V30 16 C 0.947321 0.316625 1.443238 0
M  V30 17 C 1.222409 -1.021969 1.278897 0
M  V30 18 C 1.628558 -1.845770 2.304339 0
M  V30 19 N 1.851920 -3.207728 1.964313 0
M  V30 20 C 1.751786 -3.760261 0.656933 0
M  V30 21 N 2.822068 -4.290132 0.034011 0
M  V30 22 C 2.817497 -4.819496 -1.189034 0
M  V30 23 C 1.609777 -4.824824 -1.877814 0
M  V30 24 C 0.470756 -4.283909 -1.270195 0
M  V30 25 N 0.573789 -3.770968 -0.028916 0
M  V30 26 N -0.886926 -4.141840 -1.736601 0
M  V30 27 C -1.867466 -3.624320 -0.820063 0
M  V30 28 C -3.046204 -4.490169 -0.591804 0
M  V30 29 C -4.263435 -3.625449 -0.742305 0
M  V30 30 C -3.827380 -2.380188 -1.475862 0
M  V30 31 C -2.358602 -2.266348 -1.246744 0
M  V30 32 C -1.408384 -4.444632 -3.023278 0
M  V30 33 C -0.466228 -4.179476 -4.177690 0
M  V30 34 C 0.652678 -5.187745 -4.234964 0
M  V30 35 O 0.883904 -5.975842 -5.215096 0
M  V30 36 N 1.617531 -5.400622 -3.186741 0
M  V30 37 C 2.747963 -6.271943 -3.373849 0
M  V30 38 H 2.490257 -2.537795 6.542799 0
M  V30 39 H 3.259976 -1.022134 5.869074 0
M  V30 40 H 1.459886 -1.088499 6.164584 0
M  V30 41 H 1.626683 0.426637 4.779021 0
M  V30 42 H 0.205484 2.852775 1.017727 0
M  V30 43 H 0.224162 4.965598 3.005198 0
M  V30 44 H 1.815838 5.537360 1.354905 0
M  V30 45 H 0.807600 4.783557 0.010937 0
M  V30 46 H 0.576175 7.087320 -0.195256 0
M  V30 47 H 0.394800 7.418898 1.546953 0
M  V30 48 H -2.659416 5.599029 -0.678028 0
M  V30 49 H -1.613836 6.806167 -1.490625 0
M  V30 50 H -0.876963 5.252303 -1.035504 0
M  V30 51 H -3.041198 5.945707 1.375133 0
M  V30 52 H -1.831425 6.595619 2.561119 0
M  V30 53 H -1.685875 4.065567 0.804394 0
M  V30 54 H -2.008175 4.023148 2.550512 0
M  V30 55 H 0.630754 0.919240 0.604904 0
M  V30 56 H 1.099124 -1.404562 0.275718 0
M  V30 57 H 2.114280 -4.017136 2.550724 0
M  V30 58 H 3.641416 -5.244889 -1.712575 0
M  V30 59 H -1.305649 -3.455667 0.149845 0
M  V30 60 H -3.070330 -5.410236 -1.207226 0
M  V30 61 H -3.042936 -4.842788 0.459759 0
M  V30 62 H -4.662009 -3.277527 0.243271 0
M  V30 63 H -5.083804 -4.064354 -1.319280 0
M  V30 64 H -4.116672 -2.429678 -2.546816 0
M  V30 65 H -4.322173 -1.459647 -1.080613 0
M  V30 66 H -1.803779 -1.921938 -2.145954 0
M  V30 67 H -2.170468 -1.490951 -0.452529 0
M  V30 68 H -1.580022 -5.561835 -3.042122 0
M  V30 69 H -2.339493 -3.921622 -3.270929 0
M  V30 70 H -0.059557 -3.158909 -4.035748 0
M  V30 71 H -1.045152 -4.253674 -5.123682 0
M  V30 72 H 2.909167 -6.952738 -2.513426 0
M  V30 73 H 3.665739 -5.755786 -3.709157 0
M  V30 74 H 2.472743 -6.962257 -4.216872 0
M  V30 END ATOM
M  V30 BEGIN BOND
M  V30 1 1 1 2
M  V30 2 1 2 3
M  V30 3 2 3 4
M  V30 4 1 4 5
M  V30 5 1 5 6
M  V30 6 2 6 7
M  V30 7 1 6 8
M  V30 8 1 8 9
M  V30 9 1 9 10
M  V30 10 1 10 11
M  V30 11 1 11 12
M  V30 12 1 12 13
M  V30 13 1 12 14
M  V30 14 1 14 15
M  V30 15 2 5 16
M  V30 16 1 16 17
M  V30 17 2 17 18
M  V30 18 1 18 19
M  V30 19 1 19 20
M  V30 20 2 20 21
M  V30 21 1 21 22
M  V30 22 2 22 23
M  V30 23 1 23 24
M  V30 24 2 24 25
M  V30 25 1 24 26
M  V30 26 1 26 27
M  V30 27 1 27 28
M  V30 28 1 28 29
M  V30 29 1 29 30
M  V30 30 1 30 31
M  V30 31 1 26 32
M  V30 32 1 32 33
M  V30 33 1 33 34
M  V30 34 2 34 35
M  V30 35 1 34 36
M  V30 36 1 36 37
M  V30 37 1 18 3
M  V30 38 1 25 20
M  V30 39 1 31 27
M  V30 40 1 15 9
M  V30 41 1 36 23
M  V30 42 1 1 38
M  V30 43 1 1 39
M  V30 44 1 1 40
M  V30 45 1 4 41
M  V30 46 1 8 42
M  V30 47 1 9 43
M  V30 48 1 10 44
M  V30 49 1 10 45
M  V30 50 1 11 46
M  V30 51 1 11 47
M  V30 52 1 13 48
M  V30 53 1 13 49
M  V30 54 1 13 50
M  V30 55 1 14 51
M  V30 56 1 14 52
M  V30 57 1 15 53
M  V30 58 1 15 54
M  V30 59 1 16 55
M  V30 60 1 17 56
M  V30 61 1 19 57
M  V30 62 1 22 58
M  V30 63 1 27 59
M  V30 64 1 28 60
M  V30 65 1 28 61
M  V30 66 1 29 62
M  V30 67 1 29 63
M  V30 68 1 30 64
M  V30 69 1 30 65
M  V30 70 1 31 66
M  V30 71 1 31 67
M  V30 72 1 32 68
M  V30 73 1 32 69
M  V30 74 1 33 70
M  V30 75 1 33 71
M  V30 76 1 37 72
M  V30 77 1 37 73
M  V30 78 1 37 74
M  V30 END BOND
M  V30 END CTAB
M  END
>  <Dataset>  (869) 
ChEMBL_Kinases

>  <Ligand_Instance>  (869) 
nan

>  <PDB_ID>  (869) 
nan

>  <Standardized_SMILES>  (869) 
COc1cc(C(=O)NC2CCN(C)CC2)ccc1Nc1ncc2c(n1)N(C1CCCC1)CCC(=O)N2C

>  <Name>  (869) 
nan

>  <Pocket>  (869) 
nan

>  <ATP_Site>  (869) 
nan

>  <Peripheral>  (869) 
nan

>  <Num_H_Atoms_ProtBoundConf>  (869) 
nan

>  <Num_Resolved_Atoms>  (869) 
nan

>  <Num_Not_Resolved_Atoms>  (869) 
nan

$$$$
CHEMBL2392551
     RDKit          3D

  0  0  0  0  0  0  0  0  0  0999 V3000
M  V30 BEGIN CTAB
M  V30 COUNTS 73 77 0 0 0
M  V30 BEGIN ATOM
M  V30 1 C 2.911322 -1.508773 3.616097 0
M  V30 2 C 1.682272 -1.920203 2.905410 0
M  V30 3 C 1.781712 -2.972302 2.007204 0
M  V30 4 C 0.639648 -3.380168 1.308762 0
M  V30 5 N 0.870308 -4.460700 0.400084 0
M  V30 6 C 0.222328 -4.496857 -0.866735 0
M  V30 7 N 0.446192 -5.587848 -1.653997 0
M  V30 8 C -0.054667 -5.739730 -2.881652 0
M  V30 9 C -0.847478 -4.670712 -3.317864 0
M  V30 10 C -1.094547 -3.539557 -2.528853 0
M  V30 11 N -0.555676 -3.468591 -1.313076 0
M  V30 12 N -1.884963 -2.418397 -2.913283 0
M  V30 13 C -2.144863 -1.481720 -1.849778 0
M  V30 14 C -1.730368 -0.056673 -2.162137 0
M  V30 15 C -2.719745 0.823388 -1.423128 0
M  V30 16 C -3.776663 -0.077344 -0.820343 0
M  V30 17 C -3.644167 -1.390123 -1.608737 0
M  V30 18 C -2.425216 -2.150377 -4.212720 0
M  V30 19 C -3.261518 -3.240129 -4.805438 0
M  V30 20 F -3.922889 -2.691149 -5.892157 0
M  V30 21 F -4.217083 -3.704779 -3.912864 0
M  V30 22 C -2.445695 -4.387325 -5.327129 0
M  V30 23 O -2.669205 -4.992376 -6.425542 0
M  V30 24 N -1.308185 -4.945566 -4.650422 0
M  V30 25 C -0.453299 -5.919621 -5.343188 0
M  V30 26 C -0.547349 -2.727119 1.537804 0
M  V30 27 C -0.692348 -1.681406 2.419376 0
M  V30 28 C 0.459533 -1.312185 3.081150 0
M  V30 29 C 0.333817 -0.151170 3.994026 0
M  V30 30 O -0.249579 0.012498 5.072419 0
M  V30 31 N 1.080350 0.940311 3.395203 0
M  V30 32 C 1.414843 2.328607 3.655869 0
M  V30 33 C 2.884769 2.603047 3.764352 0
M  V30 34 C 3.071796 4.010573 4.278332 0
M  V30 35 N 1.811969 4.771891 4.207310 0
M  V30 36 C 2.120648 6.148695 4.460347 0
M  V30 37 C 1.268915 4.636899 2.857519 0
M  V30 38 C 0.783993 3.233981 2.585189 0
M  V30 39 H 2.742306 -0.759167 4.392167 0
M  V30 40 H 3.685714 -1.217315 2.868338 0
M  V30 41 H 3.342542 -2.413998 4.114418 0
M  V30 42 H 2.766129 -3.447090 1.878004 0
M  V30 43 H 1.520256 -5.229735 0.669009 0
M  V30 44 H 0.161226 -6.614859 -3.434129 0
M  V30 45 H -1.651952 -1.771854 -0.911384 0
M  V30 46 H -0.719930 0.166372 -1.796925 0
M  V30 47 H -1.789109 0.216363 -3.209879 0
M  V30 48 H -3.136768 1.637420 -2.045314 0
M  V30 49 H -2.198236 1.348595 -0.582517 0
M  V30 50 H -3.520817 -0.295625 0.240516 0
M  V30 51 H -4.757404 0.370264 -0.970720 0
M  V30 52 H -4.235010 -1.269395 -2.522307 0
M  V30 53 H -4.047956 -2.234937 -1.044492 0
M  V30 54 H -3.074512 -1.224989 -4.185258 0
M  V30 55 H -1.628672 -1.879118 -4.949132 0
M  V30 56 H 0.608168 -5.715212 -5.206838 0
M  V30 57 H -0.776173 -6.956137 -5.195709 0
M  V30 58 H -0.637626 -5.728416 -6.442251 0
M  V30 59 H -1.354361 -3.116209 0.974020 0
M  V30 60 H -1.656818 -1.218830 2.550423 0
M  V30 61 H 1.611602 0.881071 2.472481 0
M  V30 62 H 0.938259 2.613828 4.611898 0
M  V30 63 H 3.413745 2.543945 2.800921 0
M  V30 64 H 3.311653 1.907625 4.528690 0
M  V30 65 H 3.796002 4.587591 3.659911 0
M  V30 66 H 3.442639 4.065680 5.319951 0
M  V30 67 H 1.386294 6.607540 5.160127 0
M  V30 68 H 2.147396 6.767209 3.540683 0
M  V30 69 H 3.131356 6.234727 4.951718 0
M  V30 70 H 2.040868 4.865206 2.076302 0
M  V30 71 H 0.433576 5.368004 2.779789 0
M  V30 72 H -0.314744 3.138118 2.634332 0
M  V30 73 H 1.122179 2.830716 1.598872 0
M  V30 END ATOM
M  V30 BEGIN BOND
M  V30 1 1 1 2
M  V30 2 2 2 3
M  V30 3 1 3 4
M  V30 4 1 4 5
M  V30 5 1 5 6
M  V30 6 2 6 7
M  V30 7 1 7 8
M  V30 8 2 8 9
M  V30 9 1 9 10
M  V30 10 2 10 11
M  V30 11 1 10 12
M  V30 12 1 12 13
M  V30 13 1 13 14
M  V30 14 1 14 15
M  V30 15 1 15 16
M  V30 16 1 16 17
M  V30 17 1 12 18
M  V30 18 1 18 19
M  V30 19 1 19 20
M  V30 20 1 19 21
M  V30 21 1 19 22
M  V30 22 2 22 23
M  V30 23 1 22 24
M  V30 24 1 24 25
M  V30 25 2 4 26
M  V30 26 1 26 27
M  V30 27 2 27 28
M  V30 28 1 28 29
M  V30 29 2 29 30
M  V30 30 1 29 31
M  V30 31 1 31 32
M  V30 32 1 32 33
M  V30 33 1 33 34
M  V30 34 1 34 35
M  V30 35 1 35 36
M  V30 36 1 35 37
M  V30 37 1 37 38
M  V30 38 1 28 2
M  V30 39 1 38 32
M  V30 40 1 11 6
M  V30 41 1 17 13
M  V30 42 1 24 9
M  V30 43 1 1 39
M  V30 44 1 1 40
M  V30 45 1 1 41
M  V30 46 1 3 42
M  V30 47 1 5 43
M  V30 48 1 8 44
M  V30 49 1 13 45
M  V30 50 1 14 46
M  V30 51 1 14 47
M  V30 52 1 15 48
M  V30 53 1 15 49
M  V30 54 1 16 50
M  V30 55 1 16 51
M  V30 56 1 17 52
M  V30 57 1 17 53
M  V30 58 1 18 54
M  V30 59 1 18 55
M  V30 60 1 25 56
M  V30 61 1 25 57
M  V30 62 1 25 58
M  V30 63 1 26 59
M  V30 64 1 27 60
M  V30 65 1 31 61
M  V30 66 1 32 62
M  V30 67 1 33 63
M  V30 68 1 33 64
M  V30 69 1 34 65
M  V30 70 1 34 66
M  V30 71 1 36 67
M  V30 72 1 36 68
M  V30 73 1 36 69
M  V30 74 1 37 70
M  V30 75 1 37 71
M  V30 76 1 38 72
M  V30 77 1 38 73
M  V30 END BOND
M  V30 END CTAB
M  END
>  <Dataset>  (870) 
ChEMBL_Kinases

>  <Ligand_Instance>  (870) 
nan

>  <PDB_ID>  (870) 
nan

>  <Standardized_SMILES>  (870) 
Cc1cc(Nc2ncc3c(n2)N(C2CCCC2)CC(F)(F)C(=O)N3C)ccc1C(=O)NC1CCN(C)CC1

>  <Name>  (870) 
nan

>  <Pocket>  (870) 
nan

>  <ATP_Site>  (870) 
nan

>  <Peripheral>  (870) 
nan

>  <Num_H_Atoms_ProtBoundConf>  (870) 
nan

>  <Num_Resolved_Atoms>  (870) 
nan

>  <Num_Not_Resolved_Atoms>  (870) 
nan

$$$$
CHEMBL2392550
     RDKit          3D

  0  0  0  0  0  0  0  0  0  0999 V3000
M  V30 BEGIN CTAB
M  V30 COUNTS 74 78 0 0 0
M  V30 BEGIN ATOM
M  V30 1 C 4.721647 0.740549 0.947309 0
M  V30 2 O 3.395377 1.175105 1.054704 0
M  V30 3 C 2.286312 0.386900 1.161971 0
M  V30 4 C 2.458172 -0.985154 1.167760 0
M  V30 5 C 1.389803 -1.851746 1.271617 0
M  V30 6 N 1.414877 -3.261963 1.318367 0
M  V30 7 C 0.411847 -4.192399 0.959057 0
M  V30 8 N 0.651391 -5.477804 1.316963 0
M  V30 9 C -0.214728 -6.449245 1.008940 0
M  V30 10 C -1.360723 -6.152177 0.321555 0
M  V30 11 C -1.564151 -4.815754 -0.028646 0
M  V30 12 N -0.690380 -3.837858 0.284876 0
M  V30 13 N -2.652984 -4.257975 -0.759738 0
M  V30 14 C -2.822246 -2.827700 -0.889285 0
M  V30 15 C -4.156798 -2.343925 -0.325865 0
M  V30 16 C -4.431549 -1.038745 -1.063285 0
M  V30 17 C -3.941944 -1.312546 -2.439043 0
M  V30 18 C -2.914661 -2.377029 -2.337234 0
M  V30 19 C -3.670655 -5.036016 -1.444270 0
M  V30 20 C -4.417305 -5.968809 -0.504865 0
M  V30 21 F -4.515727 -5.433762 0.765657 0
M  V30 22 F -5.628267 -6.334049 -1.037941 0
M  V30 23 C -3.557130 -7.196755 -0.343866 0
M  V30 24 O -4.068799 -8.295522 -0.607404 0
M  V30 25 N -2.193994 -7.301615 0.079794 0
M  V30 26 C -1.571399 -8.578594 0.291260 0
M  V30 27 C 0.166123 -1.234531 1.368456 0
M  V30 28 C -0.049293 0.127358 1.367312 0
M  V30 29 C 1.045999 0.972950 1.259709 0
M  V30 30 C 0.772097 2.402729 1.239252 0
M  V30 31 O -0.437109 2.801637 1.360782 0
M  V30 32 N 1.619793 3.521441 1.103562 0
M  V30 33 C 1.155375 4.862029 1.115091 0
M  V30 34 C 1.962356 5.690336 2.075051 0
M  V30 35 C 3.402281 5.695191 1.649163 0
M  V30 36 N 3.525089 6.146995 0.311711 0
M  V30 37 C 4.229671 5.222341 -0.548960 0
M  V30 38 C 2.303974 6.620851 -0.231344 0
M  V30 39 C 1.203695 5.581531 -0.218528 0
M  V30 40 H 5.377722 1.558017 0.571600 0
M  V30 41 H 5.162596 0.405702 1.918313 0
M  V30 42 H 4.811486 -0.134670 0.256470 0
M  V30 43 H 3.436805 -1.443807 1.091316 0
M  V30 44 H 2.349446 -3.559185 1.681023 0
M  V30 45 H -0.036986 -7.462089 1.287340 0
M  V30 46 H -1.983975 -2.239743 -0.460963 0
M  V30 47 H -4.957966 -3.073510 -0.489072 0
M  V30 48 H -3.979014 -2.075754 0.725550 0
M  V30 49 H -3.869044 -0.199354 -0.564668 0
M  V30 50 H -5.522328 -0.801923 -1.004198 0
M  V30 51 H -3.491271 -0.395478 -2.894171 0
M  V30 52 H -4.821971 -1.559726 -3.073583 0
M  V30 53 H -1.939730 -2.012154 -2.725161 0
M  V30 54 H -3.216891 -3.192474 -3.021620 0
M  V30 55 H -4.407448 -4.399612 -1.931403 0
M  V30 56 H -3.185959 -5.725647 -2.199568 0
M  V30 57 H -0.651994 -8.753464 -0.288504 0
M  V30 58 H -2.308363 -9.335911 -0.113349 0
M  V30 59 H -1.497472 -8.851617 1.366792 0
M  V30 60 H -0.720447 -1.828958 1.470085 0
M  V30 61 H -1.071181 0.516730 1.452139 0
M  V30 62 H 2.630515 3.291727 0.988622 0
M  V30 63 H 0.072973 4.899272 1.459126 0
M  V30 64 H 1.586015 6.735356 2.153279 0
M  V30 65 H 1.947213 5.189691 3.082281 0
M  V30 66 H 3.869204 4.673436 1.759679 0
M  V30 67 H 4.028240 6.321846 2.342804 0
M  V30 68 H 4.868877 4.600144 0.104290 0
M  V30 69 H 4.895024 5.785820 -1.201522 0
M  V30 70 H 3.487062 4.584265 -1.050167 0
M  V30 71 H 1.953689 7.513287 0.297632 0
M  V30 72 H 2.467589 6.833971 -1.329348 0
M  V30 73 H 0.266069 6.087690 -0.481828 0
M  V30 74 H 1.431692 4.846643 -1.007395 0
M  V30 END ATOM
M  V30 BEGIN BOND
M  V30 1 1 1 2
M  V30 2 1 2 3
M  V30 3 2 3 4
M  V30 4 1 4 5
M  V30 5 1 5 6
M  V30 6 1 6 7
M  V30 7 2 7 8
M  V30 8 1 8 9
M  V30 9 2 9 10
M  V30 10 1 10 11
M  V30 11 2 11 12
M  V30 12 1 11 13
M  V30 13 1 13 14
M  V30 14 1 14 15
M  V30 15 1 15 16
M  V30 16 1 16 17
M  V30 17 1 17 18
M  V30 18 1 13 19
M  V30 19 1 19 20
M  V30 20 1 20 21
M  V30 21 1 20 22
M  V30 22 1 20 23
M  V30 23 2 23 24
M  V30 24 1 23 25
M  V30 25 1 25 26
M  V30 26 2 5 27
M  V30 27 1 27 28
M  V30 28 2 28 29
M  V30 29 1 29 30
M  V30 30 2 30 31
M  V30 31 1 30 32
M  V30 32 1 32 33
M  V30 33 1 33 34
M  V30 34 1 34 35
M  V30 35 1 35 36
M  V30 36 1 36 37
M  V30 37 1 36 38
M  V30 38 1 38 39
M  V30 39 1 29 3
M  V30 40 1 39 33
M  V30 41 1 12 7
M  V30 42 1 18 14
M  V30 43 1 25 10
M  V30 44 1 1 40
M  V30 45 1 1 41
M  V30 46 1 1 42
M  V30 47 1 4 43
M  V30 48 1 6 44
M  V30 49 1 9 45
M  V30 50 1 14 46
M  V30 51 1 15 47
M  V30 52 1 15 48
M  V30 53 1 16 49
M  V30 54 1 16 50
M  V30 55 1 17 51
M  V30 56 1 17 52
M  V30 57 1 18 53
M  V30 58 1 18 54
M  V30 59 1 19 55
M  V30 60 1 19 56
M  V30 61 1 26 57
M  V30 62 1 26 58
M  V30 63 1 26 59
M  V30 64 1 27 60
M  V30 65 1 28 61
M  V30 66 1 32 62
M  V30 67 1 33 63
M  V30 68 1 34 64
M  V30 69 1 34 65
M  V30 70 1 35 66
M  V30 71 1 35 67
M  V30 72 1 37 68
M  V30 73 1 37 69
M  V30 74 1 37 70
M  V30 75 1 38 71
M  V30 76 1 38 72
M  V30 77 1 39 73
M  V30 78 1 39 74
M  V30 END BOND
M  V30 END CTAB
M  END
>  <Dataset>  (871) 
ChEMBL_Kinases

>  <Ligand_Instance>  (871) 
nan

>  <PDB_ID>  (871) 
nan

>  <Standardized_SMILES>  (871) 
COc1cc(Nc2ncc3c(n2)N(C2CCCC2)CC(F)(F)C(=O)N3C)ccc1C(=O)NC1CCN(C)CC1

>  <Name>  (871) 
nan

>  <Pocket>  (871) 
nan

>  <ATP_Site>  (871) 
nan

>  <Peripheral>  (871) 
nan

>  <Num_H_Atoms_ProtBoundConf>  (871) 
nan

>  <Num_Resolved_Atoms>  (871) 
nan

>  <Num_Not_Resolved_Atoms>  (871) 
nan

$$$$
CHEMBL2392549
     RDKit          3D

  0  0  0  0  0  0  0  0  0  0999 V3000
M  V30 BEGIN CTAB
M  V30 COUNTS 74 78 0 0 0
M  V30 BEGIN ATOM
M  V30 1 C 5.014115 -0.241848 1.210858 0
M  V30 2 O 3.836903 -1.019573 1.387921 0
M  V30 3 C 2.619126 -0.548394 0.910428 0
M  V30 4 C 2.570935 0.665968 0.265658 0
M  V30 5 C 1.413254 1.213145 -0.239428 0
M  V30 6 C 1.406376 2.514285 -0.925593 0
M  V30 7 O 1.032287 3.668672 -0.617286 0
M  V30 8 N 1.958700 2.341358 -2.209962 0
M  V30 9 C 2.155436 3.310337 -3.218871 0
M  V30 10 C 1.944805 2.975051 -4.628133 0
M  V30 11 C 2.143030 4.232320 -5.456642 0
M  V30 12 N 2.739810 5.320431 -4.777942 0
M  V30 13 C 1.814961 6.339451 -4.360121 0
M  V30 14 C 3.813716 5.058923 -3.893242 0
M  V30 15 C 3.611570 3.802291 -3.089923 0
M  V30 16 C 0.264045 0.472204 -0.069411 0
M  V30 17 Cl -1.193536 1.218147 -0.740704 0
M  V30 18 C 0.243969 -0.763690 0.571991 0
M  V30 19 C 1.434064 -1.275535 1.065691 0
M  V30 20 N 1.499671 -2.538285 1.711238 0
M  V30 21 C 0.496780 -3.473301 2.059502 0
M  V30 22 N 0.852917 -4.664142 2.554886 0
M  V30 23 C 0.074238 -5.651845 2.943634 0
M  V30 24 C -1.302043 -5.418241 2.821455 0
M  V30 25 C -1.731728 -4.185923 2.308636 0
M  V30 26 N -0.838158 -3.246093 1.938957 0
M  V30 27 N -3.111844 -3.849386 2.176508 0
M  V30 28 C -3.321561 -2.427407 2.130794 0
M  V30 29 C -4.024277 -1.918186 0.905434 0
M  V30 30 C -4.132874 -0.430457 1.294237 0
M  V30 31 C -4.402822 -0.459187 2.793525 0
M  V30 32 C -4.245490 -1.918352 3.219074 0
M  V30 33 C -4.349677 -4.553456 2.096511 0
M  V30 34 C -4.206911 -6.030068 1.817806 0
M  V30 35 F -3.488557 -6.146895 0.622601 0
M  V30 36 F -5.406396 -6.646424 1.618107 0
M  V30 37 C -3.468852 -6.734470 2.927517 0
M  V30 38 O -3.986693 -7.576084 3.705161 0
M  V30 39 N -2.071987 -6.554846 3.261339 0
M  V30 40 C -1.350418 -7.520913 4.065387 0
M  V30 41 H 4.830525 0.811796 1.534108 0
M  V30 42 H 5.380491 -0.229840 0.169026 0
M  V30 43 H 5.843093 -0.678034 1.833045 0
M  V30 44 H 3.470240 1.271147 0.122339 0
M  V30 45 H 2.332676 1.454298 -2.677357 0
M  V30 46 H 1.490379 4.187752 -2.938707 0
M  V30 47 H 2.716701 2.248376 -5.006742 0
M  V30 48 H 0.921154 2.622652 -4.855128 0
M  V30 49 H 1.131709 4.601377 -5.790538 0
M  V30 50 H 2.683182 3.998106 -6.414923 0
M  V30 51 H 1.910337 7.235202 -5.006467 0
M  V30 52 H 1.941086 6.664111 -3.324506 0
M  V30 53 H 0.793482 5.916749 -4.465125 0
M  V30 54 H 3.806027 5.906861 -3.142162 0
M  V30 55 H 4.799046 5.141216 -4.386691 0
M  V30 56 H 4.239387 2.996064 -3.503259 0
M  V30 57 H 3.870968 3.932469 -2.024148 0
M  V30 58 H -0.688013 -1.290086 0.666807 0
M  V30 59 H 2.487316 -2.845441 1.986561 0
M  V30 60 H 0.433983 -6.574756 3.324119 0
M  V30 61 H -2.388454 -1.841512 2.240875 0
M  V30 62 H -3.430400 -2.037105 -0.018994 0
M  V30 63 H -5.077259 -2.239468 0.814215 0
M  V30 64 H -4.899543 0.096452 0.720828 0
M  V30 65 H -3.106173 -0.030020 1.171457 0
M  V30 66 H -3.617939 0.100348 3.344450 0
M  V30 67 H -5.379657 -0.048268 3.058853 0
M  V30 68 H -3.698272 -1.997541 4.168475 0
M  V30 69 H -5.217071 -2.447445 3.205306 0
M  V30 70 H -4.988898 -4.163164 1.270968 0
M  V30 71 H -4.948163 -4.454580 3.054549 0
M  V30 72 H -0.811985 -8.260014 3.429070 0
M  V30 73 H -0.756177 -7.082604 4.879484 0
M  V30 74 H -2.144449 -8.119885 4.594079 0
M  V30 END ATOM
M  V30 BEGIN BOND
M  V30 1 1 1 2
M  V30 2 1 2 3
M  V30 3 2 3 4
M  V30 4 1 4 5
M  V30 5 1 5 6
M  V30 6 2 6 7
M  V30 7 1 6 8
M  V30 8 1 8 9
M  V30 9 1 9 10
M  V30 10 1 10 11
M  V30 11 1 11 12
M  V30 12 1 12 13
M  V30 13 1 12 14
M  V30 14 1 14 15
M  V30 15 2 5 16
M  V30 16 1 16 17
M  V30 17 1 16 18
M  V30 18 2 18 19
M  V30 19 1 19 20
M  V30 20 1 20 21
M  V30 21 2 21 22
M  V30 22 1 22 23
M  V30 23 2 23 24
M  V30 24 1 24 25
M  V30 25 2 25 26
M  V30 26 1 25 27
M  V30 27 1 27 28
M  V30 28 1 28 29
M  V30 29 1 29 30
M  V30 30 1 30 31
M  V30 31 1 31 32
M  V30 32 1 27 33
M  V30 33 1 33 34
M  V30 34 1 34 35
M  V30 35 1 34 36
M  V30 36 1 34 37
M  V30 37 2 37 38
M  V30 38 1 37 39
M  V30 39 1 39 40
M  V30 40 1 19 3
M  V30 41 1 26 21
M  V30 42 1 32 28
M  V30 43 1 15 9
M  V30 44 1 39 24
M  V30 45 1 1 41
M  V30 46 1 1 42
M  V30 47 1 1 43
M  V30 48 1 4 44
M  V30 49 1 8 45
M  V30 50 1 9 46
M  V30 51 1 10 47
M  V30 52 1 10 48
M  V30 53 1 11 49
M  V30 54 1 11 50
M  V30 55 1 13 51
M  V30 56 1 13 52
M  V30 57 1 13 53
M  V30 58 1 14 54
M  V30 59 1 14 55
M  V30 60 1 15 56
M  V30 61 1 15 57
M  V30 62 1 18 58
M  V30 63 1 20 59
M  V30 64 1 23 60
M  V30 65 1 28 61
M  V30 66 1 29 62
M  V30 67 1 29 63
M  V30 68 1 30 64
M  V30 69 1 30 65
M  V30 70 1 31 66
M  V30 71 1 31 67
M  V30 72 1 32 68
M  V30 73 1 32 69
M  V30 74 1 33 70
M  V30 75 1 33 71
M  V30 76 1 40 72
M  V30 77 1 40 73
M  V30 78 1 40 74
M  V30 END BOND
M  V30 END CTAB
M  END
>  <Dataset>  (872) 
ChEMBL_Kinases

>  <Ligand_Instance>  (872) 
nan

>  <PDB_ID>  (872) 
nan

>  <Standardized_SMILES>  (872) 
COc1cc(C(=O)NC2CCN(C)CC2)c(Cl)cc1Nc1ncc2c(n1)N(C1CCCC1)CC(F)(F)C(=O)N2C

>  <Name>  (872) 
nan

>  <Pocket>  (872) 
nan

>  <ATP_Site>  (872) 
nan

>  <Peripheral>  (872) 
nan

>  <Num_H_Atoms_ProtBoundConf>  (872) 
nan

>  <Num_Resolved_Atoms>  (872) 
nan

>  <Num_Not_Resolved_Atoms>  (872) 
nan

$$$$
CHEMBL2392548
     RDKit          3D

  0  0  0  0  0  0  0  0  0  0999 V3000
M  V30 BEGIN CTAB
M  V30 COUNTS 70 74 0 0 0
M  V30 BEGIN ATOM
M  V30 1 C 1.667754 -1.248668 4.826380 0
M  V30 2 N 2.699342 -2.230777 4.704406 0
M  V30 3 C 4.024223 -1.770952 5.042942 0
M  V30 4 C 4.635509 -0.928365 3.924191 0
M  V30 5 C 4.601838 -1.619677 2.598471 0
M  V30 6 N 3.837431 -0.979113 1.579990 0
M  V30 7 C 4.120419 -0.533626 0.256776 0
M  V30 8 O 5.312550 -0.764092 -0.050444 0
M  V30 9 C 3.080266 0.093143 -0.543139 0
M  V30 10 C 3.357227 0.442415 -1.848413 0
M  V30 11 C 2.379637 1.023088 -2.641372 0
M  V30 12 C 1.085419 1.282852 -2.174011 0
M  V30 13 N 0.051889 1.852235 -2.971102 0
M  V30 14 C -1.206322 2.023286 -2.325956 0
M  V30 15 N -1.873922 3.148674 -2.011268 0
M  V30 16 C -3.058814 3.113849 -1.365075 0
M  V30 17 C -3.619590 1.909554 -1.007559 0
M  V30 18 C -2.946317 0.744331 -1.323381 0
M  V30 19 N -1.770582 0.838710 -1.967941 0
M  V30 20 N -3.257905 -0.645184 -1.066078 0
M  V30 21 C -2.274121 -1.550572 -1.536443 0
M  V30 22 C -2.741374 -2.602852 -2.496752 0
M  V30 23 C -1.435533 -3.398787 -2.649437 0
M  V30 24 C -0.725159 -3.278881 -1.309472 0
M  V30 25 C -1.613445 -2.375072 -0.456582 0
M  V30 26 C -4.404100 -1.162803 -0.397151 0
M  V30 27 C -5.689056 -0.454209 -0.635618 0
M  V30 28 F -6.672583 -1.201480 0.026726 0
M  V30 29 F -6.059054 -0.413475 -1.956205 0
M  V30 30 C -5.779897 0.907015 -0.074971 0
M  V30 31 O -6.706359 1.282580 0.724930 0
M  V30 32 N -4.879981 2.002049 -0.320159 0
M  V30 33 C -5.166385 3.355458 0.117170 0
M  V30 34 C 0.890926 0.904782 -0.854488 0
M  V30 35 C 1.831028 0.324029 -0.025937 0
M  V30 36 C 4.000807 -3.010767 2.817415 0
M  V30 37 C 2.638225 -2.914313 3.449459 0
M  V30 38 H 0.690977 -1.803889 4.746756 0
M  V30 39 H 1.671330 -0.743375 5.801426 0
M  V30 40 H 1.685764 -0.469446 4.053242 0
M  V30 41 H 4.684049 -2.652927 5.218773 0
M  V30 42 H 4.021167 -1.131790 5.938902 0
M  V30 43 H 4.026887 0.023242 3.912777 0
M  V30 44 H 5.677113 -0.716517 4.220383 0
M  V30 45 H 5.629812 -1.782657 2.203544 0
M  V30 46 H 2.919413 -0.889261 2.054795 0
M  V30 47 H 4.343727 0.257961 -2.244280 0
M  V30 48 H 2.602614 1.294830 -3.663967 0
M  V30 49 H 0.295003 2.093709 -3.948936 0
M  V30 50 H -3.562121 4.021373 -1.132055 0
M  V30 51 H -1.444258 -1.015199 -2.046873 0
M  V30 52 H -3.456911 -3.328984 -2.016649 0
M  V30 53 H -3.108945 -2.243052 -3.456621 0
M  V30 54 H -1.597749 -4.432935 -2.951730 0
M  V30 55 H -0.868775 -2.848018 -3.440203 0
M  V30 56 H -0.546011 -4.246553 -0.820949 0
M  V30 57 H 0.221393 -2.699725 -1.474093 0
M  V30 58 H -2.296531 -3.041564 0.090307 0
M  V30 59 H -0.984333 -1.735931 0.214290 0
M  V30 60 H -4.216867 -1.098918 0.717518 0
M  V30 61 H -4.563516 -2.251338 -0.571432 0
M  V30 62 H -4.363756 3.794770 0.721877 0
M  V30 63 H -6.042682 3.260977 0.823557 0
M  V30 64 H -5.547980 4.000831 -0.691341 0
M  V30 65 H -0.074516 1.072326 -0.398520 0
M  V30 66 H 1.551140 0.076390 0.985696 0
M  V30 67 H 3.845249 -3.505121 1.830402 0
M  V30 68 H 4.624490 -3.655167 3.446230 0
M  V30 69 H 2.266556 -3.949710 3.640875 0
M  V30 70 H 1.866053 -2.453034 2.794903 0
M  V30 END ATOM
M  V30 BEGIN BOND
M  V30 1 1 1 2
M  V30 2 1 2 3
M  V30 3 1 3 4
M  V30 4 1 4 5
M  V30 5 1 5 6
M  V30 6 1 6 7
M  V30 7 2 7 8
M  V30 8 1 7 9
M  V30 9 2 9 10
M  V30 10 1 10 11
M  V30 11 2 11 12
M  V30 12 1 12 13
M  V30 13 1 13 14
M  V30 14 2 14 15
M  V30 15 1 15 16
M  V30 16 2 16 17
M  V30 17 1 17 18
M  V30 18 2 18 19
M  V30 19 1 18 20
M  V30 20 1 20 21
M  V30 21 1 21 22
M  V30 22 1 22 23
M  V30 23 1 23 24
M  V30 24 1 24 25
M  V30 25 1 20 26
M  V30 26 1 26 27
M  V30 27 1 27 28
M  V30 28 1 27 29
M  V30 29 1 27 30
M  V30 30 2 30 31
M  V30 31 1 30 32
M  V30 32 1 32 33
M  V30 33 1 12 34
M  V30 34 2 34 35
M  V30 35 1 5 36
M  V30 36 1 36 37
M  V30 37 1 37 2
M  V30 38 1 35 9
M  V30 39 1 19 14
M  V30 40 1 25 21
M  V30 41 1 32 17
M  V30 42 1 1 38
M  V30 43 1 1 39
M  V30 44 1 1 40
M  V30 45 1 3 41
M  V30 46 1 3 42
M  V30 47 1 4 43
M  V30 48 1 4 44
M  V30 49 1 5 45
M  V30 50 1 6 46
M  V30 51 1 10 47
M  V30 52 1 11 48
M  V30 53 1 13 49
M  V30 54 1 16 50
M  V30 55 1 21 51
M  V30 56 1 22 52
M  V30 57 1 22 53
M  V30 58 1 23 54
M  V30 59 1 23 55
M  V30 60 1 24 56
M  V30 61 1 24 57
M  V30 62 1 25 58
M  V30 63 1 25 59
M  V30 64 1 26 60
M  V30 65 1 26 61
M  V30 66 1 33 62
M  V30 67 1 33 63
M  V30 68 1 33 64
M  V30 69 1 34 65
M  V30 70 1 35 66
M  V30 71 1 36 67
M  V30 72 1 36 68
M  V30 73 1 37 69
M  V30 74 1 37 70
M  V30 END BOND
M  V30 END CTAB
M  END
>  <Dataset>  (873) 
ChEMBL_Kinases

>  <Ligand_Instance>  (873) 
nan

>  <PDB_ID>  (873) 
nan

>  <Standardized_SMILES>  (873) 
CN1CCC(NC(=O)c2ccc(Nc3ncc4c(n3)N(C3CCCC3)CC(F)(F)C(=O)N4C)cc2)CC1

>  <Name>  (873) 
nan

>  <Pocket>  (873) 
nan

>  <ATP_Site>  (873) 
nan

>  <Peripheral>  (873) 
nan

>  <Num_H_Atoms_ProtBoundConf>  (873) 
nan

>  <Num_Resolved_Atoms>  (873) 
nan

>  <Num_Not_Resolved_Atoms>  (873) 
nan

$$$$
CHEMBL2392547
     RDKit          3D

  0  0  0  0  0  0  0  0  0  0999 V3000
M  V30 BEGIN CTAB
M  V30 COUNTS 74 78 0 0 0
M  V30 BEGIN ATOM
M  V30 1 C -1.572517 -4.768349 -0.548079 0
M  V30 2 O -1.188668 -3.437180 -0.750949 0
M  V30 3 C 0.075670 -2.966391 -0.480064 0
M  V30 4 C 0.340662 -2.454893 0.797217 0
M  V30 5 N -0.693884 -2.450211 1.759769 0
M  V30 6 C -0.808080 -1.904824 3.076532 0
M  V30 7 N -0.380911 -2.375777 4.272574 0
M  V30 8 C -0.597603 -1.721905 5.413401 0
M  V30 9 C -1.287401 -0.518016 5.350481 0
M  V30 10 C -1.722182 -0.038857 4.121990 0
M  V30 11 N -1.474845 -0.743995 3.000893 0
M  V30 12 N -2.454880 1.171044 3.785220 0
M  V30 13 C -2.373614 1.508385 2.362437 0
M  V30 14 C -1.745876 2.860275 2.246963 0
M  V30 15 C -2.709577 3.785978 1.565529 0
M  V30 16 C -3.991081 3.043054 1.431145 0
M  V30 17 C -3.671719 1.608900 1.685848 0
M  V30 18 C -3.225343 2.016464 4.619813 0
M  V30 19 C -3.630190 1.535360 5.956164 0
M  V30 20 F -4.612886 0.565372 5.780244 0
M  V30 21 F -4.291261 2.585151 6.581235 0
M  V30 22 C -2.541882 1.114689 6.872186 0
M  V30 23 O -2.371075 1.569542 8.059145 0
M  V30 24 N -1.504097 0.139637 6.594907 0
M  V30 25 C -0.556268 -0.272715 7.604630 0
M  V30 26 C 1.617730 -1.993572 1.037207 0
M  V30 27 C 2.662707 -1.986246 0.138020 0
M  V30 28 C 2.373917 -2.501899 -1.138130 0
M  V30 29 C 3.455078 -2.445163 -2.120782 0
M  V30 30 O 4.617687 -2.532030 -1.712083 0
M  V30 31 N 3.205657 -2.295390 -3.492819 0
M  V30 32 C 3.895455 -2.210163 -4.730608 0
M  V30 33 C 3.288187 -3.205512 -5.695158 0
M  V30 34 C 2.161911 -2.598339 -6.494357 0
M  V30 35 N 2.567244 -1.377035 -7.141239 0
M  V30 36 C 1.556957 -0.901898 -8.063758 0
M  V30 37 C 2.815843 -0.399132 -6.091686 0
M  V30 38 C 4.009282 -0.840090 -5.317841 0
M  V30 39 C 1.097567 -2.969750 -1.395966 0
M  V30 40 F 0.774402 -3.486118 -2.587844 0
M  V30 41 H -0.791563 -5.384090 -0.058251 0
M  V30 42 H -1.835989 -5.275264 -1.517099 0
M  V30 43 H -2.493084 -4.870053 0.058900 0
M  V30 44 H -1.594616 -2.932200 1.538386 0
M  V30 45 H -0.297942 -2.023572 6.373328 0
M  V30 46 H -1.662137 0.793012 1.883325 0
M  V30 47 H -0.835381 2.813039 1.575376 0
M  V30 48 H -1.425936 3.271060 3.234679 0
M  V30 49 H -2.846605 4.707810 2.206859 0
M  V30 50 H -2.332318 4.130203 0.558592 0
M  V30 51 H -4.377537 3.204338 0.381246 0
M  V30 52 H -4.806263 3.410575 2.102315 0
M  V30 53 H -3.575833 1.096444 0.686789 0
M  V30 54 H -4.530075 1.133391 2.178386 0
M  V30 55 H -4.202759 2.171013 4.063551 0
M  V30 56 H -2.769609 3.021269 4.706378 0
M  V30 57 H -0.844853 -1.205687 8.131362 0
M  V30 58 H 0.495855 -0.207135 7.298661 0
M  V30 59 H -0.638673 0.512311 8.419931 0
M  V30 60 H 1.771784 -1.613165 2.034292 0
M  V30 61 H 3.635540 -1.598474 0.414655 0
M  V30 62 H 2.182578 -2.200033 -3.736298 0
M  V30 63 H 4.934767 -2.544307 -4.544708 0
M  V30 64 H 4.003436 -3.673105 -6.384795 0
M  V30 65 H 2.806127 -4.059029 -5.125174 0
M  V30 66 H 1.889576 -3.353029 -7.264025 0
M  V30 67 H 1.264425 -2.402210 -5.897924 0
M  V30 68 H 0.952528 -1.683719 -8.528723 0
M  V30 69 H 1.987329 -0.173441 -8.751499 0
M  V30 70 H 0.841303 -0.305432 -7.421680 0
M  V30 71 H 3.106304 0.587495 -6.566502 0
M  V30 72 H 1.888564 -0.218643 -5.570389 0
M  V30 73 H 4.396276 -0.164746 -4.564259 0
M  V30 74 H 4.830873 -0.888228 -6.076407 0
M  V30 END ATOM
M  V30 BEGIN BOND
M  V30 1 1 1 2
M  V30 2 1 2 3
M  V30 3 2 3 4
M  V30 4 1 4 5
M  V30 5 1 5 6
M  V30 6 2 6 7
M  V30 7 1 7 8
M  V30 8 2 8 9
M  V30 9 1 9 10
M  V30 10 2 10 11
M  V30 11 1 10 12
M  V30 12 1 12 13
M  V30 13 1 13 14
M  V30 14 1 14 15
M  V30 15 1 15 16
M  V30 16 1 16 17
M  V30 17 1 12 18
M  V30 18 1 18 19
M  V30 19 1 19 20
M  V30 20 1 19 21
M  V30 21 1 19 22
M  V30 22 2 22 23
M  V30 23 1 22 24
M  V30 24 1 24 25
M  V30 25 1 4 26
M  V30 26 2 26 27
M  V30 27 1 27 28
M  V30 28 1 28 29
M  V30 29 2 29 30
M  V30 30 1 29 31
M  V30 31 1 31 32
M  V30 32 1 32 33
M  V30 33 1 33 34
M  V30 34 1 34 35
M  V30 35 1 35 36
M  V30 36 1 35 37
M  V30 37 1 37 38
M  V30 38 2 28 39
M  V30 39 1 39 40
M  V30 40 1 39 3
M  V30 41 1 11 6
M  V30 42 1 17 13
M  V30 43 1 38 32
M  V30 44 1 24 9
M  V30 45 1 1 41
M  V30 46 1 1 42
M  V30 47 1 1 43
M  V30 48 1 5 44
M  V30 49 1 8 45
M  V30 50 1 13 46
M  V30 51 1 14 47
M  V30 52 1 14 48
M  V30 53 1 15 49
M  V30 54 1 15 50
M  V30 55 1 16 51
M  V30 56 1 16 52
M  V30 57 1 17 53
M  V30 58 1 17 54
M  V30 59 1 18 55
M  V30 60 1 18 56
M  V30 61 1 25 57
M  V30 62 1 25 58
M  V30 63 1 25 59
M  V30 64 1 26 60
M  V30 65 1 27 61
M  V30 66 1 31 62
M  V30 67 1 32 63
M  V30 68 1 33 64
M  V30 69 1 33 65
M  V30 70 1 34 66
M  V30 71 1 34 67
M  V30 72 1 36 68
M  V30 73 1 36 69
M  V30 74 1 36 70
M  V30 75 1 37 71
M  V30 76 1 37 72
M  V30 77 1 38 73
M  V30 78 1 38 74
M  V30 END BOND
M  V30 END CTAB
M  END
>  <Dataset>  (874) 
ChEMBL_Kinases

>  <Ligand_Instance>  (874) 
nan

>  <PDB_ID>  (874) 
nan

>  <Standardized_SMILES>  (874) 
COc1c(Nc2ncc3c(n2)N(C2CCCC2)CC(F)(F)C(=O)N3C)ccc(C(=O)NC2CCN(C)CC2)c1F

>  <Name>  (874) 
nan

>  <Pocket>  (874) 
nan

>  <ATP_Site>  (874) 
nan

>  <Peripheral>  (874) 
nan

>  <Num_H_Atoms_ProtBoundConf>  (874) 
nan

>  <Num_Resolved_Atoms>  (874) 
nan

>  <Num_Not_Resolved_Atoms>  (874) 
nan

$$$$
CHEMBL2392546
     RDKit          3D

  0  0  0  0  0  0  0  0  0  0999 V3000
M  V30 BEGIN CTAB
M  V30 COUNTS 74 78 0 0 0
M  V30 BEGIN ATOM
M  V30 1 C 2.793023 -4.440831 3.058700 0
M  V30 2 O 1.894528 -3.382339 3.209803 0
M  V30 3 C 1.883609 -2.298290 2.355476 0
M  V30 4 C 2.779221 -2.204640 1.284580 0
M  V30 5 C 2.753054 -1.112674 0.440467 0
M  V30 6 C 3.703322 -1.054631 -0.663227 0
M  V30 7 O 4.532720 -1.990757 -0.799663 0
M  V30 8 N 3.769329 -0.018096 -1.605344 0
M  V30 9 C 4.734428 -0.000511 -2.690473 0
M  V30 10 C 5.567575 1.241267 -2.688724 0
M  V30 11 C 5.656763 1.893030 -4.047137 0
M  V30 12 N 4.389216 2.143997 -4.666788 0
M  V30 13 C 3.847341 3.432119 -4.278906 0
M  V30 14 C 3.389388 1.125861 -4.405769 0
M  V30 15 C 4.096080 -0.144407 -4.052446 0
M  V30 16 C 1.832284 -0.110981 0.663810 0
M  V30 17 C 0.921261 -0.154582 1.711998 0
M  V30 18 F 0.004378 0.797755 1.969628 0
M  V30 19 C 0.964287 -1.257973 2.546294 0
M  V30 20 N 0.072423 -1.429358 3.672719 0
M  V30 21 C -0.974201 -2.096235 2.968145 0
M  V30 22 N -1.002391 -3.429311 2.775414 0
M  V30 23 C -2.019223 -4.032761 2.099670 0
M  V30 24 C -3.043300 -3.210807 1.608257 0
M  V30 25 C -3.001449 -1.823882 1.816377 0
M  V30 26 N -1.957717 -1.269522 2.501165 0
M  V30 27 N -3.993777 -0.893713 1.364348 0
M  V30 28 C -3.942369 0.344607 2.109446 0
M  V30 29 C -3.668797 1.567472 1.306874 0
M  V30 30 C -3.853273 2.634908 2.398269 0
M  V30 31 C -5.050635 2.113145 3.159035 0
M  V30 32 C -5.325431 0.704913 2.667102 0
M  V30 33 C -5.006901 -0.913872 0.364885 0
M  V30 34 C -4.917116 -2.023317 -0.640734 0
M  V30 35 F -3.655306 -1.923810 -1.242670 0
M  V30 36 F -5.817945 -1.910830 -1.652291 0
M  V30 37 C -4.997715 -3.390041 -0.010565 0
M  V30 38 O -5.957127 -4.203221 -0.245684 0
M  V30 39 N -4.055006 -3.971402 0.911153 0
M  V30 40 C -4.070191 -5.392363 1.197267 0
M  V30 41 H 2.356018 -5.338307 3.556067 0
M  V30 42 H 3.790590 -4.169613 3.477670 0
M  V30 43 H 2.862104 -4.702653 1.993001 0
M  V30 44 H 3.504738 -2.987801 1.104980 0
M  V30 45 H 3.103624 0.778225 -1.534848 0
M  V30 46 H 5.355444 -0.935701 -2.565351 0
M  V30 47 H 5.189700 1.969289 -1.941444 0
M  V30 48 H 6.603005 0.990686 -2.383708 0
M  V30 49 H 6.366185 1.343038 -4.701026 0
M  V30 50 H 6.144390 2.897883 -3.881230 0
M  V30 51 H 4.699249 4.095375 -3.983173 0
M  V30 52 H 3.172097 3.301979 -3.410869 0
M  V30 53 H 3.338126 3.947500 -5.120821 0
M  V30 54 H 2.801052 1.491092 -3.528220 0
M  V30 55 H 2.686986 1.008189 -5.258290 0
M  V30 56 H 3.489990 -1.053655 -4.158097 0
M  V30 57 H 4.962647 -0.237915 -4.762155 0
M  V30 58 H 1.782898 0.764332 0.017999 0
M  V30 59 H 0.226934 -1.127590 4.662127 0
M  V30 60 H -2.081778 -5.079805 1.923199 0
M  V30 61 H -3.277022 0.306977 2.980495 0
M  V30 62 H -2.668957 1.629816 0.844625 0
M  V30 63 H -4.483143 1.812676 0.579418 0
M  V30 64 H -2.963986 2.605456 3.044512 0
M  V30 65 H -4.034481 3.611985 1.906027 0
M  V30 66 H -4.804731 2.037574 4.234433 0
M  V30 67 H -5.891105 2.808979 2.986915 0
M  V30 68 H -5.675453 0.018753 3.434732 0
M  V30 69 H -6.026743 0.806799 1.809097 0
M  V30 70 H -5.005850 0.031153 -0.243780 0
M  V30 71 H -6.016059 -1.020468 0.862879 0
M  V30 72 H -3.422629 -5.992108 0.559014 0
M  V30 73 H -5.113895 -5.740591 0.931319 0
M  V30 74 H -4.008092 -5.600673 2.285508 0
M  V30 END ATOM
M  V30 BEGIN BOND
M  V30 1 1 1 2
M  V30 2 1 2 3
M  V30 3 2 3 4
M  V30 4 1 4 5
M  V30 5 1 5 6
M  V30 6 2 6 7
M  V30 7 1 6 8
M  V30 8 1 8 9
M  V30 9 1 9 10
M  V30 10 1 10 11
M  V30 11 1 11 12
M  V30 12 1 12 13
M  V30 13 1 12 14
M  V30 14 1 14 15
M  V30 15 2 5 16
M  V30 16 1 16 17
M  V30 17 1 17 18
M  V30 18 2 17 19
M  V30 19 1 19 20
M  V30 20 1 20 21
M  V30 21 2 21 22
M  V30 22 1 22 23
M  V30 23 2 23 24
M  V30 24 1 24 25
M  V30 25 2 25 26
M  V30 26 1 25 27
M  V30 27 1 27 28
M  V30 28 1 28 29
M  V30 29 1 29 30
M  V30 30 1 30 31
M  V30 31 1 31 32
M  V30 32 1 27 33
M  V30 33 1 33 34
M  V30 34 1 34 35
M  V30 35 1 34 36
M  V30 36 1 34 37
M  V30 37 2 37 38
M  V30 38 1 37 39
M  V30 39 1 39 40
M  V30 40 1 19 3
M  V30 41 1 26 21
M  V30 42 1 32 28
M  V30 43 1 15 9
M  V30 44 1 39 24
M  V30 45 1 1 41
M  V30 46 1 1 42
M  V30 47 1 1 43
M  V30 48 1 4 44
M  V30 49 1 8 45
M  V30 50 1 9 46
M  V30 51 1 10 47
M  V30 52 1 10 48
M  V30 53 1 11 49
M  V30 54 1 11 50
M  V30 55 1 13 51
M  V30 56 1 13 52
M  V30 57 1 13 53
M  V30 58 1 14 54
M  V30 59 1 14 55
M  V30 60 1 15 56
M  V30 61 1 15 57
M  V30 62 1 16 58
M  V30 63 1 20 59
M  V30 64 1 23 60
M  V30 65 1 28 61
M  V30 66 1 29 62
M  V30 67 1 29 63
M  V30 68 1 30 64
M  V30 69 1 30 65
M  V30 70 1 31 66
M  V30 71 1 31 67
M  V30 72 1 32 68
M  V30 73 1 32 69
M  V30 74 1 33 70
M  V30 75 1 33 71
M  V30 76 1 40 72
M  V30 77 1 40 73
M  V30 78 1 40 74
M  V30 END BOND
M  V30 END CTAB
M  END
>  <Dataset>  (875) 
ChEMBL_Kinases

>  <Ligand_Instance>  (875) 
nan

>  <PDB_ID>  (875) 
nan

>  <Standardized_SMILES>  (875) 
COc1cc(C(=O)NC2CCN(C)CC2)cc(F)c1Nc1ncc2c(n1)N(C1CCCC1)CC(F)(F)C(=O)N2C

>  <Name>  (875) 
nan

>  <Pocket>  (875) 
nan

>  <ATP_Site>  (875) 
nan

>  <Peripheral>  (875) 
nan

>  <Num_H_Atoms_ProtBoundConf>  (875) 
nan

>  <Num_Resolved_Atoms>  (875) 
nan

>  <Num_Not_Resolved_Atoms>  (875) 
nan

$$$$
CHEMBL2392545
     RDKit          3D

  0  0  0  0  0  0  0  0  0  0999 V3000
M  V30 BEGIN CTAB
M  V30 COUNTS 74 78 0 0 0
M  V30 BEGIN ATOM
M  V30 1 C 5.338283 -0.548223 2.309769 0
M  V30 2 O 4.083288 -1.211454 2.388279 0
M  V30 3 C 3.078851 -0.942892 1.456127 0
M  V30 4 C 3.268445 -0.036016 0.441668 0
M  V30 5 C 2.374861 0.327196 -0.540536 0
M  V30 6 C 2.752315 1.312057 -1.507873 0
M  V30 7 O 3.987544 1.633329 -1.638578 0
M  V30 8 N 1.946237 2.028081 -2.389718 0
M  V30 9 C 2.293110 3.008465 -3.376245 0
M  V30 10 C 2.001498 4.411830 -2.893253 0
M  V30 11 C 2.084690 5.427202 -3.990736 0
M  V30 12 N 1.667795 5.008225 -5.277576 0
M  V30 13 C 2.661901 4.901687 -6.285693 0
M  V30 14 C 0.794202 3.864265 -5.187538 0
M  V30 15 C 1.631645 2.710785 -4.681324 0
M  V30 16 C 1.157389 -0.333011 -0.442730 0
M  V30 17 F 0.209444 -0.045459 -1.364255 0
M  V30 18 C 0.886419 -1.261119 0.548162 0
M  V30 19 C 1.854167 -1.574261 1.512100 0
M  V30 20 N 1.622772 -2.514914 2.559685 0
M  V30 21 C 0.388485 -3.213274 2.489895 0
M  V30 22 N 0.636852 -4.343091 1.821449 0
M  V30 23 C -0.266718 -5.283244 1.523295 0
M  V30 24 C -1.584725 -5.094875 1.933269 0
M  V30 25 C -1.849185 -3.928906 2.626134 0
M  V30 26 N -0.876372 -3.010687 2.894478 0
M  V30 27 N -3.054987 -3.435280 3.177364 0
M  V30 28 C -3.327461 -2.085974 3.467889 0
M  V30 29 C -2.328515 -1.046595 3.088538 0
M  V30 30 C -3.101532 0.284679 3.125703 0
M  V30 31 C -4.525663 -0.113384 3.395016 0
M  V30 32 C -4.595340 -1.520051 2.841456 0
M  V30 33 C -4.178770 -4.285673 3.527029 0
M  V30 34 C -4.760052 -4.975120 2.308139 0
M  V30 35 F -4.945907 -3.993109 1.336967 0
M  V30 36 F -6.018821 -5.483323 2.570035 0
M  V30 37 C -3.891046 -6.063616 1.801971 0
M  V30 38 O -4.484560 -7.147310 1.507726 0
M  V30 39 N -2.483785 -6.141805 1.571819 0
M  V30 40 C -1.877026 -7.299816 0.949562 0
M  V30 41 H 6.006683 -0.883859 3.097051 0
M  V30 42 H 5.791026 -0.881167 1.338347 0
M  V30 43 H 5.200190 0.548743 2.225054 0
M  V30 44 H 4.256387 0.446877 0.425690 0
M  V30 45 H 0.917478 1.855037 -2.361821 0
M  V30 46 H 3.397643 2.960195 -3.513951 0
M  V30 47 H 1.045174 4.475480 -2.352109 0
M  V30 48 H 2.808984 4.674473 -2.181397 0
M  V30 49 H 3.132206 5.838297 -4.113420 0
M  V30 50 H 1.481573 6.323382 -3.699885 0
M  V30 51 H 3.685851 4.681935 -5.960677 0
M  V30 52 H 2.735511 5.885168 -6.833641 0
M  V30 53 H 2.295715 4.189489 -7.079879 0
M  V30 54 H 0.330107 3.557528 -6.135567 0
M  V30 55 H 0.036333 4.102827 -4.418834 0
M  V30 56 H 0.916553 1.855156 -4.570063 0
M  V30 57 H 2.342891 2.417500 -5.475788 0
M  V30 58 H -0.067909 -1.755898 0.591623 0
M  V30 59 H 2.318679 -2.656528 3.302478 0
M  V30 60 H -0.108447 -6.205206 0.991559 0
M  V30 61 H -3.505867 -1.960198 4.578290 0
M  V30 62 H -2.015338 -1.214829 2.033221 0
M  V30 63 H -1.487843 -0.915200 3.796052 0
M  V30 64 H -3.009091 0.763229 2.133238 0
M  V30 65 H -2.705528 0.956135 3.921772 0
M  V30 66 H -4.689411 -0.103236 4.494227 0
M  V30 67 H -5.237654 0.561198 2.872102 0
M  V30 68 H -5.509091 -2.025882 3.138040 0
M  V30 69 H -4.475366 -1.383773 1.726261 0
M  V30 70 H -4.977036 -3.770498 4.071152 0
M  V30 71 H -3.854166 -5.126225 4.199595 0
M  V30 72 H -1.507578 -7.131734 -0.075079 0
M  V30 73 H -1.168815 -7.830319 1.620327 0
M  V30 74 H -2.713362 -8.048623 0.810027 0
M  V30 END ATOM
M  V30 BEGIN BOND
M  V30 1 1 1 2
M  V30 2 1 2 3
M  V30 3 2 3 4
M  V30 4 1 4 5
M  V30 5 1 5 6
M  V30 6 2 6 7
M  V30 7 1 6 8
M  V30 8 1 8 9
M  V30 9 1 9 10
M  V30 10 1 10 11
M  V30 11 1 11 12
M  V30 12 1 12 13
M  V30 13 1 12 14
M  V30 14 1 14 15
M  V30 15 2 5 16
M  V30 16 1 16 17
M  V30 17 1 16 18
M  V30 18 2 18 19
M  V30 19 1 19 20
M  V30 20 1 20 21
M  V30 21 2 21 22
M  V30 22 1 22 23
M  V30 23 2 23 24
M  V30 24 1 24 25
M  V30 25 2 25 26
M  V30 26 1 25 27
M  V30 27 1 27 28
M  V30 28 1 28 29
M  V30 29 1 29 30
M  V30 30 1 30 31
M  V30 31 1 31 32
M  V30 32 1 27 33
M  V30 33 1 33 34
M  V30 34 1 34 35
M  V30 35 1 34 36
M  V30 36 1 34 37
M  V30 37 2 37 38
M  V30 38 1 37 39
M  V30 39 1 39 40
M  V30 40 1 19 3
M  V30 41 1 26 21
M  V30 42 1 32 28
M  V30 43 1 15 9
M  V30 44 1 39 24
M  V30 45 1 1 41
M  V30 46 1 1 42
M  V30 47 1 1 43
M  V30 48 1 4 44
M  V30 49 1 8 45
M  V30 50 1 9 46
M  V30 51 1 10 47
M  V30 52 1 10 48
M  V30 53 1 11 49
M  V30 54 1 11 50
M  V30 55 1 13 51
M  V30 56 1 13 52
M  V30 57 1 13 53
M  V30 58 1 14 54
M  V30 59 1 14 55
M  V30 60 1 15 56
M  V30 61 1 15 57
M  V30 62 1 18 58
M  V30 63 1 20 59
M  V30 64 1 23 60
M  V30 65 1 28 61
M  V30 66 1 29 62
M  V30 67 1 29 63
M  V30 68 1 30 64
M  V30 69 1 30 65
M  V30 70 1 31 66
M  V30 71 1 31 67
M  V30 72 1 32 68
M  V30 73 1 32 69
M  V30 74 1 33 70
M  V30 75 1 33 71
M  V30 76 1 40 72
M  V30 77 1 40 73
M  V30 78 1 40 74
M  V30 END BOND
M  V30 END CTAB
M  END
>  <Dataset>  (876) 
ChEMBL_Kinases

>  <Ligand_Instance>  (876) 
nan

>  <PDB_ID>  (876) 
nan

>  <Standardized_SMILES>  (876) 
COc1cc(C(=O)NC2CCN(C)CC2)c(F)cc1Nc1ncc2c(n1)N(C1CCCC1)CC(F)(F)C(=O)N2C

>  <Name>  (876) 
TAK-960

>  <Pocket>  (876) 
nan

>  <ATP_Site>  (876) 
nan

>  <Peripheral>  (876) 
nan

>  <Num_H_Atoms_ProtBoundConf>  (876) 
nan

>  <Num_Resolved_Atoms>  (876) 
nan

>  <Num_Not_Resolved_Atoms>  (876) 
nan

$$$$
CHEMBL2420561
     RDKit          3D

  0  0  0  0  0  0  0  0  0  0999 V3000
M  V30 BEGIN CTAB
M  V30 COUNTS 62 66 0 0 0
M  V30 BEGIN ATOM
M  V30 1 C 2.921759 1.266737 5.287974 0
M  V30 2 C 2.680063 -0.111845 5.850441 0
M  V30 3 C 3.169261 -1.185711 4.870059 0 CFG=2
M  V30 4 N 2.416947 -1.005677 3.634190 0
M  V30 5 C 3.090075 -0.781164 2.417922 0
M  V30 6 O 4.332979 -0.740841 2.426296 0
M  V30 7 C 2.394066 -0.593764 1.148150 0
M  V30 8 C 3.179116 -0.379037 0.015320 0
M  V30 9 C 2.534458 -0.200551 -1.191593 0
M  V30 10 C 1.160464 -0.231308 -1.287365 0
M  V30 11 N 0.538703 -0.057249 -2.463148 0
M  V30 12 C -0.795505 -0.074898 -2.630135 0
M  V30 13 N -1.331111 0.102809 -3.925882 0
M  V30 14 C -2.723796 0.163194 -4.290708 0 CFG=1
M  V30 15 C -3.337021 1.438071 -3.774561 0
M  V30 16 C -4.828374 1.212278 -3.728101 0
M  V30 17 C -5.288689 0.270871 -4.817034 0 CFG=2
M  V30 18 O -5.563558 -1.013312 -4.307281 0
M  V30 19 C -4.431039 0.246321 -6.034184 0
M  V30 20 C -2.952159 0.142740 -5.784495 0
M  V30 21 C -1.559845 -0.288524 -1.502745 0
M  V30 22 N -2.885196 -0.375475 -1.299184 0
M  V30 23 C -3.075633 -0.602487 0.003524 0
M  V30 24 C -1.866138 -0.664989 0.658876 0
M  V30 25 N -0.962830 -0.466074 -0.310687 0
M  V30 26 C 0.375312 -0.442618 -0.175283 0
M  V30 27 C 1.020321 -0.620492 1.028164 0
M  V30 28 C 2.849596 -2.500622 5.485302 0
M  V30 29 C 3.839448 -3.335770 5.982965 0
M  V30 30 C 3.477920 -4.551694 6.546034 0
M  V30 31 C 2.178084 -4.978746 6.638728 0
M  V30 32 C 1.198887 -4.146099 6.143256 0
M  V30 33 C 1.529466 -2.916908 5.570917 0
M  V30 34 H 2.069997 1.671339 4.723628 0
M  V30 35 H 3.146626 1.968758 6.112080 0
M  V30 36 H 3.788196 1.158849 4.586259 0
M  V30 37 H 3.340811 -0.208150 6.743005 0
M  V30 38 H 1.619510 -0.292571 6.117656 0
M  V30 39 H 4.242866 -1.123131 4.708746 0
M  V30 40 H 1.377764 -1.046998 3.673426 0
M  V30 41 H 4.243719 -0.349761 0.056230 0
M  V30 42 H 3.066867 -0.027297 -2.126579 0
M  V30 43 H -0.683071 0.205418 -4.731392 0
M  V30 44 H -3.276951 -0.733406 -3.909318 0
M  V30 45 H -2.888883 1.853439 -2.881187 0
M  V30 46 H -3.197923 2.213287 -4.589758 0
M  V30 47 H -5.055540 0.732873 -2.753575 0
M  V30 48 H -5.390169 2.166065 -3.753683 0
M  V30 49 H -6.285264 0.642382 -5.153230 0
M  V30 50 H -5.362003 -1.693639 -4.986235 0
M  V30 51 H -4.670982 1.065759 -6.749273 0
M  V30 52 H -4.704613 -0.688792 -6.593611 0
M  V30 53 H -2.466443 1.065406 -6.188365 0
M  V30 54 H -2.487433 -0.775296 -6.182493 0
M  V30 55 H -4.071837 -0.715642 0.441324 0
M  V30 56 H -1.772163 -0.840220 1.721776 0
M  V30 57 H 0.407648 -0.786095 1.900845 0
M  V30 58 H 4.840696 -2.983617 5.900165 0
M  V30 59 H 4.292249 -5.144525 6.909327 0
M  V30 60 H 1.913082 -5.920131 7.076058 0
M  V30 61 H 0.179843 -4.482766 6.216815 0
M  V30 62 H 0.696185 -2.330945 5.209337 0
M  V30 END ATOM
M  V30 BEGIN BOND
M  V30 1 1 1 2
M  V30 2 1 2 3
M  V30 3 1 3 4
M  V30 4 1 4 5
M  V30 5 2 5 6
M  V30 6 1 5 7
M  V30 7 2 7 8
M  V30 8 1 8 9
M  V30 9 2 9 10
M  V30 10 1 10 11
M  V30 11 2 11 12
M  V30 12 1 12 13
M  V30 13 1 13 14
M  V30 14 1 14 15
M  V30 15 1 15 16
M  V30 16 1 16 17
M  V30 17 1 17 18
M  V30 18 1 17 19
M  V30 19 1 19 20
M  V30 20 1 12 21
M  V30 21 2 21 22
M  V30 22 1 22 23
M  V30 23 2 23 24
M  V30 24 1 24 25
M  V30 25 1 25 26
M  V30 26 2 26 27
M  V30 27 1 3 28
M  V30 28 2 28 29
M  V30 29 1 29 30
M  V30 30 2 30 31
M  V30 31 1 31 32
M  V30 32 2 32 33
M  V30 33 1 27 7
M  V30 34 1 33 28
M  V30 35 1 26 10
M  V30 36 1 20 14
M  V30 37 1 25 21
M  V30 38 1 1 34
M  V30 39 1 1 35
M  V30 40 1 1 36
M  V30 41 1 2 37
M  V30 42 1 2 38
M  V30 43 1 3 39 CFG=3
M  V30 44 1 4 40
M  V30 45 1 8 41
M  V30 46 1 9 42
M  V30 47 1 13 43
M  V30 48 1 14 44 CFG=1
M  V30 49 1 15 45
M  V30 50 1 15 46
M  V30 51 1 16 47
M  V30 52 1 16 48
M  V30 53 1 17 49 CFG=3
M  V30 54 1 18 50
M  V30 55 1 19 51
M  V30 56 1 19 52
M  V30 57 1 20 53
M  V30 58 1 20 54
M  V30 59 1 23 55
M  V30 60 1 24 56
M  V30 61 1 27 57
M  V30 62 1 29 58
M  V30 63 1 30 59
M  V30 64 1 31 60
M  V30 65 1 32 61
M  V30 66 1 33 62
M  V30 END BOND
M  V30 END CTAB
M  END
>  <Dataset>  (877) 
ChEMBL_Kinases

>  <Ligand_Instance>  (877) 
nan

>  <PDB_ID>  (877) 
nan

>  <Standardized_SMILES>  (877) 
CC[C@H](NC(=O)c1ccc2nc(N[C@H]3CC[C@H](O)CC3)c3nccn3c2c1)c1ccccc1

>  <Name>  (877) 
nan

>  <Pocket>  (877) 
nan

>  <ATP_Site>  (877) 
nan

>  <Peripheral>  (877) 
nan

>  <Num_H_Atoms_ProtBoundConf>  (877) 
nan

>  <Num_Resolved_Atoms>  (877) 
nan

>  <Num_Not_Resolved_Atoms>  (877) 
nan

$$$$
CHEMBL2392226
     RDKit          3D

  0  0  0  0  0  0  0  0  0  0999 V3000
M  V30 BEGIN CTAB
M  V30 COUNTS 38 41 0 0 0
M  V30 BEGIN ATOM
M  V30 1 F -1.271987 -5.455565 1.245029 0
M  V30 2 C -0.146480 -4.699711 1.117530 0
M  V30 3 C 1.010643 -5.078586 0.449481 0
M  V30 4 C 2.087909 -4.218398 0.391167 0
M  V30 5 C 2.069161 -2.950733 0.988392 0
M  V30 6 C 3.303802 -2.129332 0.851547 0
M  V30 7 N 3.310540 -1.335713 -0.358397 0
M  V30 8 C 2.428888 -0.310220 -0.773123 0
M  V30 9 C 2.614520 0.304184 -2.016807 0
M  V30 10 C 1.784124 1.304154 -2.453202 0
M  V30 11 N 0.783004 1.675603 -1.643990 0
M  V30 12 C 0.557172 1.121283 -0.439873 0
M  V30 13 C -0.563554 1.605952 0.355142 0
M  V30 14 C -1.376262 2.603295 -0.142249 0
M  V30 15 C -2.457582 3.113662 0.546866 0
M  V30 16 C -2.774785 2.629918 1.796335 0
M  V30 17 C -1.981988 1.631128 2.324532 0
M  V30 18 C -0.909898 1.145708 1.607588 0
M  V30 19 O -2.509293 1.316314 3.592650 0
M  V30 20 C -3.875638 1.760783 3.615964 0
M  V30 21 O -3.771127 2.904658 2.753654 0
M  V30 22 N 1.390831 0.150074 -0.054445 0
M  V30 23 C 0.908160 -2.601242 1.644663 0
M  V30 24 C -0.173013 -3.451938 1.708784 0
M  V30 25 Br -1.682118 -2.752846 2.674792 0
M  V30 26 H 1.009099 -6.057907 -0.004634 0
M  V30 27 H 2.941851 -4.635488 -0.166065 0
M  V30 28 H 4.200442 -2.769490 0.939341 0
M  V30 29 H 3.372774 -1.446302 1.751344 0
M  V30 30 H 4.104640 -1.571519 -1.026436 0
M  V30 31 H 3.437582 -0.004481 -2.676853 0
M  V30 32 H 1.961227 1.752804 -3.419935 0
M  V30 33 H -1.225527 3.058366 -1.107911 0
M  V30 34 H -3.092108 3.888993 0.164132 0
M  V30 35 H -0.314909 0.371993 2.046546 0
M  V30 36 H -4.235372 2.000326 4.613221 0
M  V30 37 H -4.430690 0.921692 3.113704 0
M  V30 38 H 0.990681 -1.612548 2.073697 0
M  V30 END ATOM
M  V30 BEGIN BOND
M  V30 1 1 1 2
M  V30 2 2 2 3
M  V30 3 1 3 4
M  V30 4 2 4 5
M  V30 5 1 5 6
M  V30 6 1 6 7
M  V30 7 1 7 8
M  V30 8 2 8 9
M  V30 9 1 9 10
M  V30 10 2 10 11
M  V30 11 1 11 12
M  V30 12 1 12 13
M  V30 13 2 13 14
M  V30 14 1 14 15
M  V30 15 2 15 16
M  V30 16 1 16 17
M  V30 17 2 17 18
M  V30 18 1 17 19
M  V30 19 1 19 20
M  V30 20 1 20 21
M  V30 21 2 12 22
M  V30 22 1 5 23
M  V30 23 2 23 24
M  V30 24 1 24 25
M  V30 25 1 24 2
M  V30 26 1 22 8
M  V30 27 1 18 13
M  V30 28 1 21 16
M  V30 29 1 3 26
M  V30 30 1 4 27
M  V30 31 1 6 28
M  V30 32 1 6 29
M  V30 33 1 7 30
M  V30 34 1 9 31
M  V30 35 1 10 32
M  V30 36 1 14 33
M  V30 37 1 15 34
M  V30 38 1 18 35
M  V30 39 1 20 36
M  V30 40 1 20 37
M  V30 41 1 23 38
M  V30 END BOND
M  V30 END CTAB
M  END
>  <Dataset>  (878) 
ChEMBL_Kinases

>  <Ligand_Instance>  (878) 
nan

>  <PDB_ID>  (878) 
nan

>  <Standardized_SMILES>  (878) 
Fc1ccc(CNc2ccnc(-c3ccc4c(c3)OCO4)n2)cc1Br

>  <Name>  (878) 
nan

>  <Pocket>  (878) 
nan

>  <ATP_Site>  (878) 
nan

>  <Peripheral>  (878) 
nan

>  <Num_H_Atoms_ProtBoundConf>  (878) 
nan

>  <Num_Resolved_Atoms>  (878) 
nan

>  <Num_Not_Resolved_Atoms>  (878) 
nan

$$$$
CHEMBL2392227
     RDKit          3D

  0  0  0  0  0  0  0  0  0  0999 V3000
M  V30 BEGIN CTAB
M  V30 COUNTS 38 41 0 0 0
M  V30 BEGIN ATOM
M  V30 1 F -0.722577 -4.432440 0.866478 0
M  V30 2 C -0.253628 -3.549222 1.779322 0
M  V30 3 C 1.086440 -3.253593 1.670373 0
M  V30 4 C 1.675820 -2.369645 2.544864 0
M  V30 5 C 3.078034 -1.849194 2.616992 0
M  V30 6 N 3.149849 -0.568334 1.972339 0
M  V30 7 C 3.027334 0.229099 0.808349 0
M  V30 8 C 3.920604 0.880333 -0.016804 0
M  V30 9 C 3.410642 1.555278 -1.075280 0
M  V30 10 N 2.088556 1.580059 -1.296814 0
M  V30 11 C 1.188482 0.962562 -0.522539 0
M  V30 12 C -0.230163 1.059111 -0.838506 0
M  V30 13 C -0.666864 1.798217 -1.916413 0
M  V30 14 C -2.045209 1.811949 -2.092470 0
M  V30 15 C -2.909782 1.140543 -1.256762 0
M  V30 16 C -2.426576 0.415752 -0.194565 0
M  V30 17 C -1.045651 0.363900 0.034843 0
M  V30 18 O -3.527420 -0.149716 0.466591 0
M  V30 19 C -4.553591 -0.245664 -0.537472 0
M  V30 20 O -4.312193 1.000013 -1.215503 0
M  V30 21 N 1.720009 0.305795 0.512148 0
M  V30 22 C 0.908312 -1.792785 3.518807 0
M  V30 23 C -0.430273 -2.035803 3.691433 0
M  V30 24 F -1.241699 -1.469903 4.646542 0
M  V30 25 C -0.996109 -2.936403 2.791163 0
M  V30 26 F -2.326215 -3.281121 2.841849 0
M  V30 27 H 1.817749 -3.643393 0.938751 0
M  V30 28 H 3.722478 -2.598355 2.092786 0
M  V30 29 H 3.440808 -1.777605 3.644414 0
M  V30 30 H 3.408824 0.253086 2.591564 0
M  V30 31 H 4.939968 0.718688 0.360714 0
M  V30 32 H 4.181248 2.031522 -1.660266 0
M  V30 33 H 0.047624 2.304781 -2.532519 0
M  V30 34 H -2.420952 2.386650 -2.925265 0
M  V30 35 H -0.727966 -0.207373 0.867713 0
M  V30 36 H -5.552106 -0.348360 -0.142122 0
M  V30 37 H -4.202344 -1.041755 -1.222780 0
M  V30 38 H 1.253258 -1.067811 4.270224 0
M  V30 END ATOM
M  V30 BEGIN BOND
M  V30 1 1 1 2
M  V30 2 2 2 3
M  V30 3 1 3 4
M  V30 4 1 4 5
M  V30 5 1 5 6
M  V30 6 1 6 7
M  V30 7 2 7 8
M  V30 8 1 8 9
M  V30 9 2 9 10
M  V30 10 1 10 11
M  V30 11 1 11 12
M  V30 12 2 12 13
M  V30 13 1 13 14
M  V30 14 2 14 15
M  V30 15 1 15 16
M  V30 16 2 16 17
M  V30 17 1 16 18
M  V30 18 1 18 19
M  V30 19 1 19 20
M  V30 20 2 11 21
M  V30 21 2 4 22
M  V30 22 1 22 23
M  V30 23 1 23 24
M  V30 24 2 23 25
M  V30 25 1 25 26
M  V30 26 1 25 2
M  V30 27 1 21 7
M  V30 28 1 17 12
M  V30 29 1 20 15
M  V30 30 1 3 27
M  V30 31 1 5 28
M  V30 32 1 5 29
M  V30 33 1 6 30
M  V30 34 1 8 31
M  V30 35 1 9 32
M  V30 36 1 13 33
M  V30 37 1 14 34
M  V30 38 1 17 35
M  V30 39 1 19 36
M  V30 40 1 19 37
M  V30 41 1 22 38
M  V30 END BOND
M  V30 END CTAB
M  END
>  <Dataset>  (879) 
ChEMBL_Kinases

>  <Ligand_Instance>  (879) 
nan

>  <PDB_ID>  (879) 
nan

>  <Standardized_SMILES>  (879) 
Fc1cc(CNc2ccnc(-c3ccc4c(c3)OCO4)n2)cc(F)c1F

>  <Name>  (879) 
nan

>  <Pocket>  (879) 
nan

>  <ATP_Site>  (879) 
nan

>  <Peripheral>  (879) 
nan

>  <Num_H_Atoms_ProtBoundConf>  (879) 
nan

>  <Num_Resolved_Atoms>  (879) 
nan

>  <Num_Not_Resolved_Atoms>  (879) 
nan

$$$$
CHEMBL2392230
     RDKit          3D

  0  0  0  0  0  0  0  0  0  0999 V3000
M  V30 BEGIN CTAB
M  V30 COUNTS 38 41 0 0 0
M  V30 BEGIN ATOM
M  V30 1 Cl -2.134587 -6.020608 2.075125 0
M  V30 2 C -1.049132 -4.734780 2.603708 0
M  V30 3 C -0.499238 -3.941959 1.632474 0
M  V30 4 C 0.356158 -2.929442 2.070366 0
M  V30 5 C 0.637681 -2.732218 3.414686 0
M  V30 6 C 1.580911 -1.611990 3.632287 0
M  V30 7 N 0.858667 -0.358461 3.751034 0
M  V30 8 C -0.011475 0.031646 2.692198 0
M  V30 9 C 0.475356 0.538401 1.498784 0
M  V30 10 C -0.448337 0.888542 0.545582 0
M  V30 11 C -0.076454 1.409388 -0.781660 0
M  V30 12 C -1.103261 1.698343 -1.670323 0
M  V30 13 C -0.845994 2.172570 -2.970377 0
M  V30 14 C 0.502325 2.293441 -3.200510 0
M  V30 15 C 1.588600 2.045871 -2.417081 0
M  V30 16 C 1.250378 1.579018 -1.142455 0
M  V30 17 O 2.730970 2.340184 -3.144975 0
M  V30 18 C 2.362693 2.267011 -4.534175 0
M  V30 19 O 1.018544 2.749706 -4.438939 0
M  V30 20 N -1.757894 0.730111 0.802306 0
M  V30 21 C -2.207425 0.227890 1.990426 0
M  V30 22 N -1.318720 -0.132665 2.964201 0
M  V30 23 C 0.082082 -3.530849 4.380523 0
M  V30 24 C -0.769619 -4.539966 3.949331 0
M  V30 25 Cl -1.513007 -5.600523 5.122348 0
M  V30 26 H -0.718089 -4.092092 0.598718 0
M  V30 27 H 0.765087 -2.329117 1.250087 0
M  V30 28 H 2.122465 -1.848351 4.587631 0
M  V30 29 H 2.352355 -1.531377 2.829681 0
M  V30 30 H 0.963965 0.266624 4.599329 0
M  V30 31 H 1.533192 0.654320 1.324299 0
M  V30 32 H -2.146295 1.570438 -1.393183 0
M  V30 33 H -1.625058 2.401817 -3.665515 0
M  V30 34 H 2.064106 1.366819 -0.475674 0
M  V30 35 H 3.009071 2.909932 -5.152146 0
M  V30 36 H 2.380298 1.193729 -4.807233 0
M  V30 37 H -3.267822 0.117058 2.154461 0
M  V30 38 H 0.332224 -3.339594 5.406842 0
M  V30 END ATOM
M  V30 BEGIN BOND
M  V30 1 1 1 2
M  V30 2 2 2 3
M  V30 3 1 3 4
M  V30 4 2 4 5
M  V30 5 1 5 6
M  V30 6 1 6 7
M  V30 7 1 7 8
M  V30 8 2 8 9
M  V30 9 1 9 10
M  V30 10 1 10 11
M  V30 11 2 11 12
M  V30 12 1 12 13
M  V30 13 2 13 14
M  V30 14 1 14 15
M  V30 15 2 15 16
M  V30 16 1 15 17
M  V30 17 1 17 18
M  V30 18 1 18 19
M  V30 19 2 10 20
M  V30 20 1 20 21
M  V30 21 2 21 22
M  V30 22 1 5 23
M  V30 23 2 23 24
M  V30 24 1 24 25
M  V30 25 1 24 2
M  V30 26 1 22 8
M  V30 27 1 16 11
M  V30 28 1 19 14
M  V30 29 1 3 26
M  V30 30 1 4 27
M  V30 31 1 6 28
M  V30 32 1 6 29
M  V30 33 1 7 30
M  V30 34 1 9 31
M  V30 35 1 12 32
M  V30 36 1 13 33
M  V30 37 1 16 34
M  V30 38 1 18 35
M  V30 39 1 18 36
M  V30 40 1 21 37
M  V30 41 1 23 38
M  V30 END BOND
M  V30 END CTAB
M  END
>  <Dataset>  (880) 
ChEMBL_Kinases

>  <Ligand_Instance>  (880) 
nan

>  <PDB_ID>  (880) 
nan

>  <Standardized_SMILES>  (880) 
Clc1ccc(CNc2cc(-c3ccc4c(c3)OCO4)ncn2)cc1Cl

>  <Name>  (880) 
nan

>  <Pocket>  (880) 
nan

>  <ATP_Site>  (880) 
nan

>  <Peripheral>  (880) 
nan

>  <Num_H_Atoms_ProtBoundConf>  (880) 
nan

>  <Num_Resolved_Atoms>  (880) 
nan

>  <Num_Not_Resolved_Atoms>  (880) 
nan

$$$$
CHEMBL2392235
     RDKit          3D

  0  0  0  0  0  0  0  0  0  0999 V3000
M  V30 BEGIN CTAB
M  V30 COUNTS 37 40 0 0 0
M  V30 BEGIN ATOM
M  V30 1 F 1.423494 -3.534888 3.620568 0
M  V30 2 C 1.325963 -3.342395 2.286368 0
M  V30 3 C 0.087584 -3.586159 1.706284 0
M  V30 4 N -0.028973 -3.399620 0.376461 0
M  V30 5 C 1.000731 -2.992248 -0.387250 0
M  V30 6 C 2.260448 -2.732547 0.131353 0
M  V30 7 C 3.383638 -2.284707 -0.723121 0
M  V30 8 N 3.406892 -0.821307 -0.798586 0
M  V30 9 C 2.227560 -0.212335 -1.343884 0
M  V30 10 C 2.004274 0.072843 -2.679635 0
M  V30 11 C 0.791526 0.669554 -3.026723 0
M  V30 12 N -0.127457 0.955462 -2.083563 0
M  V30 13 C 0.094314 0.676982 -0.791449 0
M  V30 14 C -0.860905 0.962469 0.273605 0
M  V30 15 C -2.093600 1.559895 -0.012859 0
M  V30 16 C -3.028706 1.845726 0.983522 0
M  V30 17 C -2.697986 1.514260 2.301665 0
M  V30 18 C -1.491109 0.924204 2.619452 0
M  V30 19 C -0.601180 0.662374 1.597367 0
M  V30 20 O -1.477113 0.726516 4.007051 0
M  V30 21 C -2.835318 0.763492 4.470844 0
M  V30 22 O -3.401971 1.666049 3.511470 0
M  V30 23 N 1.254542 0.105085 -0.451951 0
M  V30 24 C 2.374119 -2.924675 1.490404 0
M  V30 25 H -0.756770 -3.913418 2.291215 0
M  V30 26 H 0.815523 -2.869120 -1.445442 0
M  V30 27 H 3.403069 -2.771317 -1.700647 0
M  V30 28 H 4.333266 -2.607069 -0.206266 0
M  V30 29 H 4.157173 -0.152579 -0.513378 0
M  V30 30 H 2.811507 -0.202718 -3.330894 0
M  V30 31 H 0.664211 0.872143 -4.078246 0
M  V30 32 H -2.357176 1.820768 -1.039608 0
M  V30 33 H -3.978340 2.307961 0.748549 0
M  V30 34 H 0.337144 0.202311 1.854034 0
M  V30 35 H -3.217062 -0.277703 4.304072 0
M  V30 36 H -2.931390 1.105195 5.500052 0
M  V30 37 H 3.325724 -2.744907 1.982136 0
M  V30 END ATOM
M  V30 BEGIN BOND
M  V30 1 1 1 2
M  V30 2 2 2 3
M  V30 3 1 3 4
M  V30 4 2 4 5
M  V30 5 1 5 6
M  V30 6 1 6 7
M  V30 7 1 7 8
M  V30 8 1 8 9
M  V30 9 2 9 10
M  V30 10 1 10 11
M  V30 11 2 11 12
M  V30 12 1 12 13
M  V30 13 1 13 14
M  V30 14 2 14 15
M  V30 15 1 15 16
M  V30 16 2 16 17
M  V30 17 1 17 18
M  V30 18 2 18 19
M  V30 19 1 18 20
M  V30 20 1 20 21
M  V30 21 1 21 22
M  V30 22 2 13 23
M  V30 23 2 6 24
M  V30 24 1 24 2
M  V30 25 1 23 9
M  V30 26 1 19 14
M  V30 27 1 22 17
M  V30 28 1 3 25
M  V30 29 1 5 26
M  V30 30 1 7 27
M  V30 31 1 7 28
M  V30 32 1 8 29
M  V30 33 1 10 30
M  V30 34 1 11 31
M  V30 35 1 15 32
M  V30 36 1 16 33
M  V30 37 1 19 34
M  V30 38 1 21 35
M  V30 39 1 21 36
M  V30 40 1 24 37
M  V30 END BOND
M  V30 END CTAB
M  END
>  <Dataset>  (881) 
ChEMBL_Kinases

>  <Ligand_Instance>  (881) 
nan

>  <PDB_ID>  (881) 
nan

>  <Standardized_SMILES>  (881) 
Fc1cncc(CNc2ccnc(-c3ccc4c(c3)OCO4)n2)c1

>  <Name>  (881) 
nan

>  <Pocket>  (881) 
nan

>  <ATP_Site>  (881) 
nan

>  <Peripheral>  (881) 
nan

>  <Num_H_Atoms_ProtBoundConf>  (881) 
nan

>  <Num_Resolved_Atoms>  (881) 
nan

>  <Num_Not_Resolved_Atoms>  (881) 
nan

$$$$
CHEMBL2392237
     RDKit          3D

  0  0  0  0  0  0  0  0  0  0999 V3000
M  V30 BEGIN CTAB
M  V30 COUNTS 37 40 0 0 0
M  V30 BEGIN ATOM
M  V30 1 Br 1.402026 -3.476394 4.312256 0
M  V30 2 C 1.365829 -3.255749 2.400982 0
M  V30 3 C 0.202862 -3.628905 1.730502 0
M  V30 4 N 0.197516 -3.466174 0.402818 0
M  V30 5 C 1.235543 -2.972769 -0.289584 0
M  V30 6 C 2.401234 -2.593845 0.342997 0
M  V30 7 C 3.618614 -2.028543 -0.301138 0
M  V30 8 N 3.548908 -0.567889 -0.339855 0
M  V30 9 C 2.459108 0.062998 -1.040387 0
M  V30 10 C 2.498199 0.479237 -2.363934 0
M  V30 11 C 1.323490 1.063315 -2.832686 0
M  V30 12 N 0.238939 1.208592 -2.054675 0
M  V30 13 C 0.209835 0.807439 -0.788583 0
M  V30 14 C -0.914531 0.917912 0.132603 0
M  V30 15 C -2.110729 1.499165 -0.302172 0
M  V30 16 C -3.196015 1.617264 0.540507 0
M  V30 17 C -3.122850 1.158785 1.845744 0
M  V30 18 C -1.948765 0.584350 2.285262 0
M  V30 19 C -0.864512 0.468571 1.437164 0
M  V30 20 O -2.149953 0.212752 3.629926 0
M  V30 21 C -3.568465 0.104717 3.840701 0
M  V30 22 O -4.009365 1.121729 2.936291 0
M  V30 23 N 1.350239 0.240489 -0.332836 0
M  V30 24 C 2.442315 -2.748183 1.714754 0
M  V30 25 H -0.634304 -4.028182 2.302915 0
M  V30 26 H 1.220018 -2.846216 -1.361289 0
M  V30 27 H 3.752497 -2.392961 -1.327991 0
M  V30 28 H 4.510404 -2.313962 0.288897 0
M  V30 29 H 4.068449 0.291247 -0.000144 0
M  V30 30 H 3.417226 0.315763 -2.900515 0
M  V30 31 H 1.347253 1.389467 -3.862106 0
M  V30 32 H -2.191502 1.862010 -1.309858 0
M  V30 33 H -4.141213 2.068883 0.220562 0
M  V30 34 H 0.048589 0.008868 1.818211 0
M  V30 35 H -3.835329 -0.911712 3.468190 0
M  V30 36 H -3.853864 0.286324 4.874650 0
M  V30 37 H 3.279954 -2.494816 2.324794 0
M  V30 END ATOM
M  V30 BEGIN BOND
M  V30 1 1 1 2
M  V30 2 2 2 3
M  V30 3 1 3 4
M  V30 4 2 4 5
M  V30 5 1 5 6
M  V30 6 1 6 7
M  V30 7 1 7 8
M  V30 8 1 8 9
M  V30 9 2 9 10
M  V30 10 1 10 11
M  V30 11 2 11 12
M  V30 12 1 12 13
M  V30 13 1 13 14
M  V30 14 2 14 15
M  V30 15 1 15 16
M  V30 16 2 16 17
M  V30 17 1 17 18
M  V30 18 2 18 19
M  V30 19 1 18 20
M  V30 20 1 20 21
M  V30 21 1 21 22
M  V30 22 2 13 23
M  V30 23 2 6 24
M  V30 24 1 24 2
M  V30 25 1 23 9
M  V30 26 1 19 14
M  V30 27 1 22 17
M  V30 28 1 3 25
M  V30 29 1 5 26
M  V30 30 1 7 27
M  V30 31 1 7 28
M  V30 32 1 8 29
M  V30 33 1 10 30
M  V30 34 1 11 31
M  V30 35 1 15 32
M  V30 36 1 16 33
M  V30 37 1 19 34
M  V30 38 1 21 35
M  V30 39 1 21 36
M  V30 40 1 24 37
M  V30 END BOND
M  V30 END CTAB
M  END
>  <Dataset>  (882) 
ChEMBL_Kinases

>  <Ligand_Instance>  (882) 
nan

>  <PDB_ID>  (882) 
nan

>  <Standardized_SMILES>  (882) 
Brc1cncc(CNc2ccnc(-c3ccc4c(c3)OCO4)n2)c1

>  <Name>  (882) 
nan

>  <Pocket>  (882) 
nan

>  <ATP_Site>  (882) 
nan

>  <Peripheral>  (882) 
nan

>  <Num_H_Atoms_ProtBoundConf>  (882) 
nan

>  <Num_Resolved_Atoms>  (882) 
nan

>  <Num_Not_Resolved_Atoms>  (882) 
nan

$$$$
CHEMBL2392240
     RDKit          3D

  0  0  0  0  0  0  0  0  0  0999 V3000
M  V30 BEGIN CTAB
M  V30 COUNTS 37 40 0 0 0
M  V30 BEGIN ATOM
M  V30 1 C -0.118625 -2.701543 4.345612 0
M  V30 2 C -0.474855 -2.640922 2.997932 0
M  V30 3 C 0.588204 -2.612203 2.124902 0
M  V30 4 C 1.907831 -2.639078 2.509254 0
M  V30 5 C 3.092356 -2.602153 1.608639 0
M  V30 6 N 3.566112 -1.266324 1.388360 0
M  V30 7 C 2.909079 -0.163967 0.791753 0
M  V30 8 C 3.545292 1.071250 0.694039 0
M  V30 9 C 2.988732 2.180281 0.133276 0
M  V30 10 N 1.745432 2.029485 -0.343860 0
M  V30 11 C 1.060149 0.873552 -0.290276 0
M  V30 12 C -0.287579 0.827373 -0.842076 0
M  V30 13 C -0.838337 1.965265 -1.392250 0
M  V30 14 C -2.105290 2.013100 -1.933858 0
M  V30 15 C -2.899855 0.885666 -1.947483 0
M  V30 16 C -2.370048 -0.264014 -1.402812 0
M  V30 17 C -1.100839 -0.284857 -0.867881 0
M  V30 18 O -3.312663 -1.274825 -1.511157 0
M  V30 19 C -4.464524 -0.811145 -2.188004 0
M  V30 20 O -4.170116 0.555782 -2.384013 0
M  V30 21 N 1.670554 -0.167700 0.273239 0
M  V30 22 N 2.186758 -2.698237 3.835834 0
M  V30 23 C 1.200526 -2.729202 4.742137 0
M  V30 24 H -0.935731 -2.725118 5.056760 0
M  V30 25 H -1.484778 -2.616565 2.618982 0
M  V30 26 H 0.489017 -2.570662 1.051323 0
M  V30 27 H 2.745829 -3.019712 0.617665 0
M  V30 28 H 3.870349 -3.256860 2.039397 0
M  V30 29 H 4.543812 -1.088598 1.721259 0
M  V30 30 H 4.567054 1.176225 1.091455 0
M  V30 31 H 3.516733 3.106948 0.081212 0
M  V30 32 H -0.282640 2.880630 -1.418266 0
M  V30 33 H -2.503910 2.923840 -2.356560 0
M  V30 34 H -0.728235 -1.196983 -0.456741 0
M  V30 35 H -4.475869 -1.373703 -3.160635 0
M  V30 36 H -5.390482 -0.965061 -1.600504 0
M  V30 37 H 1.348202 -2.776388 5.816314 0
M  V30 END ATOM
M  V30 BEGIN BOND
M  V30 1 2 1 2
M  V30 2 1 2 3
M  V30 3 2 3 4
M  V30 4 1 4 5
M  V30 5 1 5 6
M  V30 6 1 6 7
M  V30 7 2 7 8
M  V30 8 1 8 9
M  V30 9 2 9 10
M  V30 10 1 10 11
M  V30 11 1 11 12
M  V30 12 2 12 13
M  V30 13 1 13 14
M  V30 14 2 14 15
M  V30 15 1 15 16
M  V30 16 2 16 17
M  V30 17 1 16 18
M  V30 18 1 18 19
M  V30 19 1 19 20
M  V30 20 2 11 21
M  V30 21 1 4 22
M  V30 22 2 22 23
M  V30 23 1 23 1
M  V30 24 1 21 7
M  V30 25 1 17 12
M  V30 26 1 20 15
M  V30 27 1 1 24
M  V30 28 1 2 25
M  V30 29 1 3 26
M  V30 30 1 5 27
M  V30 31 1 5 28
M  V30 32 1 6 29
M  V30 33 1 8 30
M  V30 34 1 9 31
M  V30 35 1 13 32
M  V30 36 1 14 33
M  V30 37 1 17 34
M  V30 38 1 19 35
M  V30 39 1 19 36
M  V30 40 1 23 37
M  V30 END BOND
M  V30 END CTAB
M  END
>  <Dataset>  (883) 
ChEMBL_Kinases

>  <Ligand_Instance>  (883) 
nan

>  <PDB_ID>  (883) 
nan

>  <Standardized_SMILES>  (883) 
c1ccc(CNc2ccnc(-c3ccc4c(c3)OCO4)n2)nc1

>  <Name>  (883) 
nan

>  <Pocket>  (883) 
nan

>  <ATP_Site>  (883) 
nan

>  <Peripheral>  (883) 
nan

>  <Num_H_Atoms_ProtBoundConf>  (883) 
nan

>  <Num_Resolved_Atoms>  (883) 
nan

>  <Num_Not_Resolved_Atoms>  (883) 
nan

$$$$
CHEMBL2392243
     RDKit          3D

  0  0  0  0  0  0  0  0  0  0999 V3000
M  V30 BEGIN CTAB
M  V30 COUNTS 38 41 0 0 0
M  V30 BEGIN ATOM
M  V30 1 Cl -0.857055 -2.056489 3.794469 0
M  V30 2 C -1.502227 -2.734870 2.310710 0
M  V30 3 C -2.769113 -3.246063 2.259535 0
M  V30 4 C -3.196961 -3.760356 1.052601 0
M  V30 5 Cl -4.821391 -4.411202 1.002258 0
M  V30 6 C -2.354319 -3.743569 -0.039487 0
M  V30 7 C -1.061017 -3.215780 0.033425 0
M  V30 8 C -0.336463 -3.311981 -1.274489 0
M  V30 9 N -0.580585 -2.152466 -2.104993 0
M  V30 10 C -0.254459 -0.800458 -1.847831 0
M  V30 11 C -0.611536 0.159512 -2.782400 0
M  V30 12 C -0.344002 1.490561 -2.641064 0
M  V30 13 N 0.300603 1.866755 -1.529166 0
M  V30 14 C 0.674159 0.961012 -0.578639 0
M  V30 15 C 1.373265 1.445694 0.604558 0
M  V30 16 C 1.627578 2.794116 0.741150 0
M  V30 17 C 2.274483 3.369763 1.808740 0
M  V30 18 C 2.713616 2.566106 2.834928 0
M  V30 19 C 2.479570 1.211068 2.737901 0
M  V30 20 C 1.825982 0.668964 1.649203 0
M  V30 21 O 3.017258 0.640285 3.890332 0
M  V30 22 C 3.285225 1.647243 4.856565 0
M  V30 23 O 3.382667 2.800998 4.029827 0
M  V30 24 N 0.377527 -0.333648 -0.784467 0
M  V30 25 C -0.643397 -2.705580 1.240698 0
M  V30 26 H -3.404065 -3.244006 3.133261 0
M  V30 27 H -2.808861 -4.174485 -0.920035 0
M  V30 28 H 0.761167 -3.335912 -1.033558 0
M  V30 29 H -0.563657 -4.252658 -1.769164 0
M  V30 30 H -1.071265 -2.382897 -3.020579 0
M  V30 31 H -1.134209 -0.134357 -3.686916 0
M  V30 32 H -0.636256 2.214760 -3.389401 0
M  V30 33 H 1.299163 3.462379 -0.044021 0
M  V30 34 H 2.447609 4.428929 1.865956 0
M  V30 35 H 1.655469 -0.391634 1.593108 0
M  V30 36 H 2.366260 1.704798 5.481933 0
M  V30 37 H 4.208765 1.469206 5.428377 0
M  V30 38 H 0.355191 -2.334870 1.178854 0
M  V30 END ATOM
M  V30 BEGIN BOND
M  V30 1 1 1 2
M  V30 2 2 2 3
M  V30 3 1 3 4
M  V30 4 1 4 5
M  V30 5 2 4 6
M  V30 6 1 6 7
M  V30 7 1 7 8
M  V30 8 1 8 9
M  V30 9 1 9 10
M  V30 10 2 10 11
M  V30 11 1 11 12
M  V30 12 2 12 13
M  V30 13 1 13 14
M  V30 14 1 14 15
M  V30 15 2 15 16
M  V30 16 1 16 17
M  V30 17 2 17 18
M  V30 18 1 18 19
M  V30 19 2 19 20
M  V30 20 1 19 21
M  V30 21 1 21 22
M  V30 22 1 22 23
M  V30 23 2 14 24
M  V30 24 2 7 25
M  V30 25 1 25 2
M  V30 26 1 24 10
M  V30 27 1 20 15
M  V30 28 1 23 18
M  V30 29 1 3 26
M  V30 30 1 6 27
M  V30 31 1 8 28
M  V30 32 1 8 29
M  V30 33 1 9 30
M  V30 34 1 11 31
M  V30 35 1 12 32
M  V30 36 1 16 33
M  V30 37 1 17 34
M  V30 38 1 20 35
M  V30 39 1 22 36
M  V30 40 1 22 37
M  V30 41 1 25 38
M  V30 END BOND
M  V30 END CTAB
M  END
>  <Dataset>  (884) 
ChEMBL_Kinases

>  <Ligand_Instance>  (884) 
nan

>  <PDB_ID>  (884) 
nan

>  <Standardized_SMILES>  (884) 
Clc1cc(Cl)cc(CNc2ccnc(-c3ccc4c(c3)OCO4)n2)c1

>  <Name>  (884) 
nan

>  <Pocket>  (884) 
nan

>  <ATP_Site>  (884) 
nan

>  <Peripheral>  (884) 
nan

>  <Num_H_Atoms_ProtBoundConf>  (884) 
nan

>  <Num_Resolved_Atoms>  (884) 
nan

>  <Num_Not_Resolved_Atoms>  (884) 
nan

$$$$
CHEMBL2392544
     RDKit          3D

  0  0  0  0  0  0  0  0  0  0999 V3000
M  V30 BEGIN CTAB
M  V30 COUNTS 77 81 0 0 0
M  V30 BEGIN ATOM
M  V30 1 C 4.373555 -0.703165 3.681011 0
M  V30 2 C 4.212872 -0.719061 2.358996 0
M  V30 3 C 5.388588 -0.370708 1.543491 0 CFG=1
M  V30 4 F 6.504349 -0.911004 2.176013 0
M  V30 5 C 5.370299 -0.922580 0.167872 0
M  V30 6 N 4.159798 -0.681885 -0.596268 0
M  V30 7 C 3.801203 -1.784061 -1.382916 0
M  V30 8 C 2.611179 -1.789103 -2.246907 0
M  V30 9 C 2.683428 -3.240962 -2.781186 0
M  V30 10 C 2.859242 -4.009191 -1.497034 0
M  V30 11 C 3.556079 -3.041891 -0.550066 0
M  V30 12 C 3.411835 0.530242 -0.573686 0
M  V30 13 N 2.338421 0.407293 -1.335203 0
M  V30 14 C 1.425683 1.384632 -1.532279 0
M  V30 15 N 0.293009 1.155153 -2.364311 0
M  V30 16 C -0.987085 0.798603 -1.857863 0
M  V30 17 C -1.141599 0.724632 -0.482921 0
M  V30 18 C -2.356054 0.399611 0.077275 0
M  V30 19 C -3.477418 0.131537 -0.668438 0
M  V30 20 C -4.805411 -0.210248 -0.177753 0
M  V30 21 O -5.751915 -0.511699 -0.982203 0
M  V30 22 N -5.156048 -0.237447 1.198278 0
M  V30 23 N -6.411332 -0.560629 1.716672 0
M  V30 24 C -6.353083 -0.421146 3.159639 0
M  V30 25 C -5.372143 -1.372378 3.808730 0
M  V30 26 N -4.727756 -2.115390 2.771696 0
M  V30 27 C -3.587426 -2.893742 3.213953 0
M  V30 28 C -5.696069 -2.898511 2.066328 0
M  V30 29 C -6.705773 -1.961720 1.438580 0
M  V30 30 C -3.305184 0.210063 -2.046284 0
M  V30 31 C -2.095378 0.534058 -2.623308 0
M  V30 32 O -1.892655 0.620246 -3.994608 0
M  V30 33 C -3.018102 0.353468 -4.815536 0
M  V30 34 N 1.603905 2.589225 -0.912472 0
M  V30 35 C 2.679073 2.796735 -0.114211 0
M  V30 36 C 3.587545 1.759671 0.055201 0
M  V30 37 N 4.702595 2.057649 0.922695 0
M  V30 38 C 4.876065 3.471399 1.136396 0
M  V30 39 C 5.601768 1.122634 1.556283 0
M  V30 40 O 6.580573 1.674061 2.119835 0
M  V30 41 H 5.233188 -0.475506 4.303799 0
M  V30 42 H 3.654415 -0.922778 4.460832 0
M  V30 43 H 3.200206 -0.997451 2.085721 0
M  V30 44 H 6.201336 -0.399381 -0.395484 0
M  V30 45 H 5.676358 -1.975840 0.211895 0
M  V30 46 H 4.675253 -2.053568 -2.027822 0
M  V30 47 H 2.658871 -1.190988 -3.178496 0
M  V30 48 H 1.622670 -1.789902 -1.744279 0
M  V30 49 H 3.532149 -3.326635 -3.483841 0
M  V30 50 H 1.732657 -3.514041 -3.239022 0
M  V30 51 H 3.497599 -4.889434 -1.753555 0
M  V30 52 H 1.913638 -4.397816 -1.129531 0
M  V30 53 H 2.823079 -2.841490 0.269758 0
M  V30 54 H 4.472228 -3.547060 -0.235685 0
M  V30 55 H 0.342484 1.236274 -3.386723 0
M  V30 56 H -0.326402 0.915781 0.209607 0
M  V30 57 H -2.472141 0.342687 1.146484 0
M  V30 58 H -4.349944 0.022835 1.834580 0
M  V30 59 H -7.391720 -0.538951 3.533047 0
M  V30 60 H -6.094777 0.646560 3.382301 0
M  V30 61 H -5.966516 -2.083751 4.442251 0
M  V30 62 H -4.664561 -0.836243 4.476005 0
M  V30 63 H -2.803510 -2.181084 3.545409 0
M  V30 64 H -3.180012 -3.361328 2.270917 0
M  V30 65 H -3.845053 -3.641722 3.968775 0
M  V30 66 H -5.244554 -3.582342 1.316472 0
M  V30 67 H -6.155015 -3.585291 2.824268 0
M  V30 68 H -7.687941 -2.225614 1.895301 0
M  V30 69 H -6.700644 -2.165787 0.344650 0
M  V30 70 H -4.157789 0.008143 -2.698182 0
M  V30 71 H -3.804294 1.103680 -4.517413 0
M  V30 72 H -2.788818 0.388779 -5.889351 0
M  V30 73 H -3.393516 -0.656789 -4.516119 0
M  V30 74 H 2.880420 3.723453 0.405866 0
M  V30 75 H 5.909809 3.594763 1.563802 0
M  V30 76 H 4.208423 3.839804 1.948369 0
M  V30 77 H 4.873530 4.080655 0.227575 0
M  V30 END ATOM
M  V30 BEGIN BOND
M  V30 1 2 1 2
M  V30 2 1 2 3
M  V30 3 1 3 4 CFG=1
M  V30 4 1 3 5
M  V30 5 1 5 6
M  V30 6 1 6 7
M  V30 7 1 7 8
M  V30 8 1 8 9
M  V30 9 1 9 10
M  V30 10 1 10 11
M  V30 11 1 6 12
M  V30 12 2 12 13
M  V30 13 1 13 14
M  V30 14 1 14 15
M  V30 15 1 15 16
M  V30 16 2 16 17
M  V30 17 1 17 18
M  V30 18 2 18 19
M  V30 19 1 19 20
M  V30 20 2 20 21
M  V30 21 1 20 22
M  V30 22 1 22 23
M  V30 23 1 23 24
M  V30 24 1 24 25
M  V30 25 1 25 26
M  V30 26 1 26 27
M  V30 27 1 26 28
M  V30 28 1 28 29
M  V30 29 1 19 30
M  V30 30 2 30 31
M  V30 31 1 31 32
M  V30 32 1 32 33
M  V30 33 2 14 34
M  V30 34 1 34 35
M  V30 35 2 35 36
M  V30 36 1 36 37
M  V30 37 1 37 38
M  V30 38 1 37 39
M  V30 39 2 39 40
M  V30 40 1 39 3
M  V30 41 1 11 7
M  V30 42 1 36 12
M  V30 43 1 31 16
M  V30 44 1 29 23
M  V30 45 1 1 41
M  V30 46 1 1 42
M  V30 47 1 2 43
M  V30 48 1 5 44
M  V30 49 1 5 45
M  V30 50 1 7 46
M  V30 51 1 8 47
M  V30 52 1 8 48
M  V30 53 1 9 49
M  V30 54 1 9 50
M  V30 55 1 10 51
M  V30 56 1 10 52
M  V30 57 1 11 53
M  V30 58 1 11 54
M  V30 59 1 15 55
M  V30 60 1 17 56
M  V30 61 1 18 57
M  V30 62 1 22 58
M  V30 63 1 24 59
M  V30 64 1 24 60
M  V30 65 1 25 61
M  V30 66 1 25 62
M  V30 67 1 27 63
M  V30 68 1 27 64
M  V30 69 1 27 65
M  V30 70 1 28 66
M  V30 71 1 28 67
M  V30 72 1 29 68
M  V30 73 1 29 69
M  V30 74 1 30 70
M  V30 75 1 33 71
M  V30 76 1 33 72
M  V30 77 1 33 73
M  V30 78 1 35 74
M  V30 79 1 38 75
M  V30 80 1 38 76
M  V30 81 1 38 77
M  V30 END BOND
M  V30 END CTAB
M  END
>  <Dataset>  (885) 
ChEMBL_Kinases

>  <Ligand_Instance>  (885) 
nan

>  <PDB_ID>  (885) 
nan

>  <Standardized_SMILES>  (885) 
C=C[C@@]1(F)CN(C2CCCC2)c2nc(Nc3ccc(C(=O)NN4CCN(C)CC4)cc3OC)ncc2N(C)C1=O

>  <Name>  (885) 
nan

>  <Pocket>  (885) 
nan

>  <ATP_Site>  (885) 
nan

>  <Peripheral>  (885) 
nan

>  <Num_H_Atoms_ProtBoundConf>  (885) 
nan

>  <Num_Resolved_Atoms>  (885) 
nan

>  <Num_Not_Resolved_Atoms>  (885) 
nan

$$$$
CHEMBL2392245
     RDKit          3D

  0  0  0  0  0  0  0  0  0  0999 V3000
M  V30 BEGIN CTAB
M  V30 COUNTS 38 41 0 0 0
M  V30 BEGIN ATOM
M  V30 1 Br -1.430040 -2.103397 3.407075 0
M  V30 2 C -0.722475 -3.202974 2.032742 0
M  V30 3 C -1.284958 -4.364996 1.548081 0
M  V30 4 C -0.661232 -5.079367 0.534175 0
M  V30 5 Br -1.562707 -6.660273 -0.023896 0
M  V30 6 C 0.535064 -4.628650 -0.000408 0
M  V30 7 C 1.109298 -3.448648 0.489195 0
M  V30 8 C 2.404677 -3.051491 -0.150739 0
M  V30 9 N 2.231251 -2.250945 -1.330901 0
M  V30 10 C 1.619018 -0.979363 -1.472578 0
M  V30 11 C 1.544475 -0.379457 -2.736002 0
M  V30 12 C 0.967691 0.849459 -2.941794 0
M  V30 13 N 0.464013 1.475494 -1.867583 0
M  V30 14 C 0.507309 0.951085 -0.639801 0
M  V30 15 C -0.066382 1.703711 0.469673 0
M  V30 16 C -0.649322 2.930807 0.231342 0
M  V30 17 C -1.215586 3.705444 1.219575 0
M  V30 18 C -1.221954 3.270832 2.526156 0
M  V30 19 C -0.647488 2.047583 2.802475 0
M  V30 20 C -0.090918 1.301055 1.787914 0
M  V30 21 O -0.776680 1.831365 4.175898 0
M  V30 22 C -1.006892 3.099093 4.807843 0
M  V30 23 O -1.691132 3.774312 3.748970 0
M  V30 24 N 1.084082 -0.255301 -0.497754 0
M  V30 25 C 0.460712 -2.768506 1.495440 0
M  V30 26 H -2.223951 -4.632646 2.034357 0
M  V30 27 H 0.920260 -5.272479 -0.783572 0
M  V30 28 H 2.956834 -2.464819 0.645700 0
M  V30 29 H 2.960652 -3.961626 -0.370561 0
M  V30 30 H 2.618061 -2.674233 -2.227562 0
M  V30 31 H 1.954952 -0.892398 -3.603552 0
M  V30 32 H 0.936022 1.263377 -3.923299 0
M  V30 33 H -0.659219 3.303009 -0.799590 0
M  V30 34 H -1.672769 4.677527 1.001870 0
M  V30 35 H 0.342654 0.365696 2.036599 0
M  V30 36 H -1.586489 3.021251 5.726678 0
M  V30 37 H -0.004234 3.569370 4.968693 0
M  V30 38 H 1.032126 -1.890036 1.761322 0
M  V30 END ATOM
M  V30 BEGIN BOND
M  V30 1 1 1 2
M  V30 2 2 2 3
M  V30 3 1 3 4
M  V30 4 1 4 5
M  V30 5 2 4 6
M  V30 6 1 6 7
M  V30 7 1 7 8
M  V30 8 1 8 9
M  V30 9 1 9 10
M  V30 10 2 10 11
M  V30 11 1 11 12
M  V30 12 2 12 13
M  V30 13 1 13 14
M  V30 14 1 14 15
M  V30 15 2 15 16
M  V30 16 1 16 17
M  V30 17 2 17 18
M  V30 18 1 18 19
M  V30 19 2 19 20
M  V30 20 1 19 21
M  V30 21 1 21 22
M  V30 22 1 22 23
M  V30 23 2 14 24
M  V30 24 2 7 25
M  V30 25 1 25 2
M  V30 26 1 24 10
M  V30 27 1 20 15
M  V30 28 1 23 18
M  V30 29 1 3 26
M  V30 30 1 6 27
M  V30 31 1 8 28
M  V30 32 1 8 29
M  V30 33 1 9 30
M  V30 34 1 11 31
M  V30 35 1 12 32
M  V30 36 1 16 33
M  V30 37 1 17 34
M  V30 38 1 20 35
M  V30 39 1 22 36
M  V30 40 1 22 37
M  V30 41 1 25 38
M  V30 END BOND
M  V30 END CTAB
M  END
>  <Dataset>  (886) 
ChEMBL_Kinases

>  <Ligand_Instance>  (886) 
nan

>  <PDB_ID>  (886) 
nan

>  <Standardized_SMILES>  (886) 
Brc1cc(Br)cc(CNc2ccnc(-c3ccc4c(c3)OCO4)n2)c1

>  <Name>  (886) 
nan

>  <Pocket>  (886) 
nan

>  <ATP_Site>  (886) 
nan

>  <Peripheral>  (886) 
nan

>  <Num_H_Atoms_ProtBoundConf>  (886) 
nan

>  <Num_Resolved_Atoms>  (886) 
nan

>  <Num_Not_Resolved_Atoms>  (886) 
nan

$$$$
CHEMBL2392249
     RDKit          3D

  0  0  0  0  0  0  0  0  0  0999 V3000
M  V30 BEGIN CTAB
M  V30 COUNTS 21 22 0 0 0
M  V30 BEGIN ATOM
M  V30 1 N -0.163423 -1.024729 5.608756 0
M  V30 2 C 0.373150 -0.734172 4.624940 0
M  V30 3 C 1.047767 -0.378462 3.409971 0
M  V30 4 C 2.408257 -0.142777 3.399321 0
M  V30 5 C 3.033405 0.198164 2.216137 0
M  V30 6 C 2.310909 0.310016 1.021362 0
M  V30 7 C 0.945611 0.069780 1.050881 0
M  V30 8 C 0.194300 0.187091 -0.196592 0
M  V30 9 N 0.772821 0.517025 -1.364590 0
M  V30 10 C 0.109280 0.634088 -2.534498 0
M  V30 11 C -1.267160 0.389976 -2.495031 0
M  V30 12 C -1.882979 0.050374 -1.310500 0
M  V30 13 N -1.149640 -0.049228 -0.168337 0
M  V30 14 C 0.321357 -0.272649 2.242373 0
M  V30 15 H 3.017320 -0.215126 4.295373 0
M  V30 16 H 4.098980 0.399963 2.120662 0
M  V30 17 H 2.792812 0.576365 0.091411 0
M  V30 18 H 0.623579 0.902905 -3.448798 0
M  V30 19 H -1.854065 0.465137 -3.386091 0
M  V30 20 H -2.938462 -0.152409 -1.201263 0
M  V30 21 H -0.745979 -0.446166 2.193067 0
M  V30 END ATOM
M  V30 BEGIN BOND
M  V30 1 3 1 2
M  V30 2 1 2 3
M  V30 3 2 3 4
M  V30 4 1 4 5
M  V30 5 2 5 6
M  V30 6 1 6 7
M  V30 7 1 7 8
M  V30 8 2 8 9
M  V30 9 1 9 10
M  V30 10 2 10 11
M  V30 11 1 11 12
M  V30 12 2 12 13
M  V30 13 2 7 14
M  V30 14 1 14 3
M  V30 15 1 13 8
M  V30 16 1 4 15
M  V30 17 1 5 16
M  V30 18 1 6 17
M  V30 19 1 10 18
M  V30 20 1 11 19
M  V30 21 1 12 20
M  V30 22 1 14 21
M  V30 END BOND
M  V30 END CTAB
M  END
>  <Dataset>  (887) 
ChEMBL_Kinases

>  <Ligand_Instance>  (887) 
nan

>  <PDB_ID>  (887) 
nan

>  <Standardized_SMILES>  (887) 
N#Cc1cccc(-c2ncccn2)c1

>  <Name>  (887) 
nan

>  <Pocket>  (887) 
nan

>  <ATP_Site>  (887) 
nan

>  <Peripheral>  (887) 
nan

>  <Num_H_Atoms_ProtBoundConf>  (887) 
nan

>  <Num_Resolved_Atoms>  (887) 
nan

>  <Num_Not_Resolved_Atoms>  (887) 
nan

$$$$
CHEMBL2392358
     RDKit          3D

  0  0  0  0  0  0  0  0  0  0999 V3000
M  V30 BEGIN CTAB
M  V30 COUNTS 24 25 0 0 0
M  V30 BEGIN ATOM
M  V30 1 C 1.004389 -3.106375 4.450727 0
M  V30 2 O 1.822092 -2.106820 3.847334 0
M  V30 3 C 1.332697 -1.420626 2.738739 0
M  V30 4 C 0.093970 -1.621982 2.150531 0
M  V30 5 C -0.244892 -0.851846 1.045367 0
M  V30 6 C 0.624117 0.094941 0.536290 0
M  V30 7 C 0.229862 0.885295 -0.628596 0
M  V30 8 N -0.941755 0.760333 -1.259835 0
M  V30 9 C -1.304510 1.487479 -2.331587 0
M  V30 10 C -0.409823 2.438986 -2.829127 0
M  V30 11 C 0.806711 2.572708 -2.178231 0
M  V30 12 N 1.094009 1.807399 -1.112673 0
M  V30 13 C 1.852891 0.271607 1.146172 0
M  V30 14 C 2.217528 -0.480234 2.247435 0
M  V30 15 H 0.971490 -3.985143 3.776157 0
M  V30 16 H -0.044790 -2.755248 4.542939 0
M  V30 17 H 1.344098 -3.356508 5.469149 0
M  V30 18 H -0.537204 -2.378724 2.599326 0
M  V30 19 H -1.212733 -1.028789 0.608239 0
M  V30 20 H -2.283864 1.289551 -2.752279 0
M  V30 21 H -0.726600 3.012548 -3.694764 0
M  V30 22 H 1.502582 3.303878 -2.555033 0
M  V30 23 H 2.477268 1.028099 0.693171 0
M  V30 24 H 3.184605 -0.268784 2.644563 0
M  V30 END ATOM
M  V30 BEGIN BOND
M  V30 1 1 1 2
M  V30 2 1 2 3
M  V30 3 2 3 4
M  V30 4 1 4 5
M  V30 5 2 5 6
M  V30 6 1 6 7
M  V30 7 2 7 8
M  V30 8 1 8 9
M  V30 9 2 9 10
M  V30 10 1 10 11
M  V30 11 2 11 12
M  V30 12 1 6 13
M  V30 13 2 13 14
M  V30 14 1 14 3
M  V30 15 1 12 7
M  V30 16 1 1 15
M  V30 17 1 1 16
M  V30 18 1 1 17
M  V30 19 1 4 18
M  V30 20 1 5 19
M  V30 21 1 9 20
M  V30 22 1 10 21
M  V30 23 1 11 22
M  V30 24 1 13 23
M  V30 25 1 14 24
M  V30 END BOND
M  V30 END CTAB
M  END
>  <Dataset>  (888) 
ChEMBL_Kinases

>  <Ligand_Instance>  (888) 
nan

>  <PDB_ID>  (888) 
nan

>  <Standardized_SMILES>  (888) 
COc1ccc(-c2ncccn2)cc1

>  <Name>  (888) 
nan

>  <Pocket>  (888) 
nan

>  <ATP_Site>  (888) 
nan

>  <Peripheral>  (888) 
nan

>  <Num_H_Atoms_ProtBoundConf>  (888) 
nan

>  <Num_Resolved_Atoms>  (888) 
nan

>  <Num_Not_Resolved_Atoms>  (888) 
nan

$$$$
CHEMBL2392375
     RDKit          3D

  0  0  0  0  0  0  0  0  0  0999 V3000
M  V30 BEGIN CTAB
M  V30 COUNTS 34 36 0 0 0
M  V30 BEGIN ATOM
M  V30 1 Cl -4.418846 -2.669874 3.440159 0
M  V30 2 C -3.149453 -2.796394 2.264663 0
M  V30 3 C -2.325609 -3.912283 2.187939 0
M  V30 4 C -1.325748 -3.988649 1.246417 0
M  V30 5 C -1.088160 -2.970123 0.334495 0
M  V30 6 C 0.036075 -3.293936 -0.571885 0
M  V30 7 N 1.319587 -2.875575 -0.049087 0
M  V30 8 C 1.749572 -1.554620 0.230486 0
M  V30 9 C 3.010265 -1.363458 0.763219 0
M  V30 10 C 3.534358 -0.130341 1.068367 0
M  V30 11 N 2.740633 0.921801 0.818019 0
M  V30 12 C 1.520171 0.795456 0.306503 0
M  V30 13 C 0.735062 2.001255 0.070510 0
M  V30 14 C 1.254105 3.237971 0.394464 0
M  V30 15 C 0.564812 4.417308 0.200989 0
M  V30 16 C -0.705224 4.407755 -0.338535 0
M  V30 17 N -1.207276 3.200213 -0.652989 0
M  V30 18 C -0.535152 2.050517 -0.464322 0
M  V30 19 N 1.039326 -0.435814 0.019321 0
M  V30 20 C -1.902548 -1.860858 0.406036 0
M  V30 21 C -2.895595 -1.794674 1.347678 0
M  V30 22 Cl -3.881432 -0.340154 1.362760 0
M  V30 23 H -2.548710 -4.683544 2.921434 0
M  V30 24 H -0.775257 -4.924122 1.320766 0
M  V30 25 H 0.036734 -4.342840 -0.895741 0
M  V30 26 H -0.180486 -2.714168 -1.523087 0
M  V30 27 H 1.982885 -3.661409 0.133338 0
M  V30 28 H 3.654844 -2.222186 0.966140 0
M  V30 29 H 4.530714 -0.026347 1.485952 0
M  V30 30 H 2.232217 3.334851 0.817320 0
M  V30 31 H 0.963174 5.392141 0.451623 0
M  V30 32 H -1.325362 5.273137 -0.529000 0
M  V30 33 H -0.994523 1.116348 -0.739298 0
M  V30 34 H -1.646760 -1.130870 -0.336411 0
M  V30 END ATOM
M  V30 BEGIN BOND
M  V30 1 1 1 2
M  V30 2 2 2 3
M  V30 3 1 3 4
M  V30 4 2 4 5
M  V30 5 1 5 6
M  V30 6 1 6 7
M  V30 7 1 7 8
M  V30 8 2 8 9
M  V30 9 1 9 10
M  V30 10 2 10 11
M  V30 11 1 11 12
M  V30 12 1 12 13
M  V30 13 2 13 14
M  V30 14 1 14 15
M  V30 15 2 15 16
M  V30 16 1 16 17
M  V30 17 2 17 18
M  V30 18 2 12 19
M  V30 19 1 5 20
M  V30 20 2 20 21
M  V30 21 1 21 22
M  V30 22 1 21 2
M  V30 23 1 19 8
M  V30 24 1 18 13
M  V30 25 1 3 23
M  V30 26 1 4 24
M  V30 27 1 6 25
M  V30 28 1 6 26
M  V30 29 1 7 27
M  V30 30 1 9 28
M  V30 31 1 10 29
M  V30 32 1 14 30
M  V30 33 1 15 31
M  V30 34 1 16 32
M  V30 35 1 18 33
M  V30 36 1 20 34
M  V30 END BOND
M  V30 END CTAB
M  END
>  <Dataset>  (889) 
ChEMBL_Kinases

>  <Ligand_Instance>  (889) 
nan

>  <PDB_ID>  (889) 
nan

>  <Standardized_SMILES>  (889) 
Clc1ccc(CNc2ccnc(-c3cccnc3)n2)cc1Cl

>  <Name>  (889) 
nan

>  <Pocket>  (889) 
nan

>  <ATP_Site>  (889) 
nan

>  <Peripheral>  (889) 
nan

>  <Num_H_Atoms_ProtBoundConf>  (889) 
nan

>  <Num_Resolved_Atoms>  (889) 
nan

>  <Num_Not_Resolved_Atoms>  (889) 
nan

$$$$
CHEMBL2392382
     RDKit          3D

  0  0  0  0  0  0  0  0  0  0999 V3000
M  V30 BEGIN CTAB
M  V30 COUNTS 37 39 0 0 0
M  V30 BEGIN ATOM
M  V30 1 C -1.177791 -1.611456 3.735022 0
M  V30 2 C -0.294288 -2.015231 2.607916 0
M  V30 3 C -0.814559 -2.217378 1.357216 0
M  V30 4 C 0.039632 -2.590897 0.338036 0
M  V30 5 C 1.394033 -2.764933 0.543637 0
M  V30 6 C 2.097554 -3.164775 -0.700939 0
M  V30 7 N 2.535594 -1.956989 -1.394653 0
M  V30 8 C 1.400593 -1.131640 -1.720494 0
M  V30 9 C 0.616166 -1.144220 -2.851722 0
M  V30 10 C -0.424190 -0.229807 -2.904814 0
M  V30 11 N -0.650353 0.627729 -1.892748 0
M  V30 12 C 0.114874 0.641942 -0.786457 0
M  V30 13 C -0.135620 1.574263 0.307950 0
M  V30 14 C -1.180037 2.472780 0.228617 0
M  V30 15 C -1.358528 3.331661 1.311212 0
M  V30 16 C -0.532558 3.290444 2.414113 0
M  V30 17 N 0.472568 2.394283 2.441575 0
M  V30 18 C 0.700900 1.532589 1.425092 0
M  V30 19 N 1.112894 -0.235605 -0.735883 0
M  V30 20 C 1.913577 -2.563540 1.790830 0
M  V30 21 C 1.060018 -2.189124 2.814477 0
M  V30 22 H -0.828166 -0.692094 4.255095 0
M  V30 23 H -2.196430 -1.397150 3.337170 0
M  V30 24 H -1.252208 -2.411610 4.478547 0
M  V30 25 H -1.879194 -2.071503 1.235802 0
M  V30 26 H -0.488679 -2.723790 -0.616903 0
M  V30 27 H 1.519015 -3.846842 -1.323925 0
M  V30 28 H 3.017791 -3.708841 -0.375729 0
M  V30 29 H 3.486235 -1.599436 -1.684912 0
M  V30 30 H 0.920218 -1.881969 -3.567606 0
M  V30 31 H -1.011893 -0.284821 -3.822899 0
M  V30 32 H -1.842584 2.532423 -0.615237 0
M  V30 33 H -2.154365 4.074087 1.340372 0
M  V30 34 H -0.604677 3.916502 3.284996 0
M  V30 35 H 1.531807 0.848781 1.536758 0
M  V30 36 H 2.977479 -2.721346 1.861042 0
M  V30 37 H 1.512818 -2.038912 3.792417 0
M  V30 END ATOM
M  V30 BEGIN BOND
M  V30 1 1 1 2
M  V30 2 2 2 3
M  V30 3 1 3 4
M  V30 4 2 4 5
M  V30 5 1 5 6
M  V30 6 1 6 7
M  V30 7 1 7 8
M  V30 8 2 8 9
M  V30 9 1 9 10
M  V30 10 2 10 11
M  V30 11 1 11 12
M  V30 12 1 12 13
M  V30 13 2 13 14
M  V30 14 1 14 15
M  V30 15 2 15 16
M  V30 16 1 16 17
M  V30 17 2 17 18
M  V30 18 2 12 19
M  V30 19 1 5 20
M  V30 20 2 20 21
M  V30 21 1 21 2
M  V30 22 1 19 8
M  V30 23 1 18 13
M  V30 24 1 1 22
M  V30 25 1 1 23
M  V30 26 1 1 24
M  V30 27 1 3 25
M  V30 28 1 4 26
M  V30 29 1 6 27
M  V30 30 1 6 28
M  V30 31 1 7 29
M  V30 32 1 9 30
M  V30 33 1 10 31
M  V30 34 1 14 32
M  V30 35 1 15 33
M  V30 36 1 16 34
M  V30 37 1 18 35
M  V30 38 1 20 36
M  V30 39 1 21 37
M  V30 END BOND
M  V30 END CTAB
M  END
>  <Dataset>  (890) 
ChEMBL_Kinases

>  <Ligand_Instance>  (890) 
nan

>  <PDB_ID>  (890) 
nan

>  <Standardized_SMILES>  (890) 
Cc1ccc(CNc2ccnc(-c3cccnc3)n2)cc1

>  <Name>  (890) 
nan

>  <Pocket>  (890) 
nan

>  <ATP_Site>  (890) 
nan

>  <Peripheral>  (890) 
nan

>  <Num_H_Atoms_ProtBoundConf>  (890) 
nan

>  <Num_Resolved_Atoms>  (890) 
nan

>  <Num_Not_Resolved_Atoms>  (890) 
nan

$$$$
CHEMBL2392388
     RDKit          3D

  0  0  0  0  0  0  0  0  0  0999 V3000
M  V30 BEGIN CTAB
M  V30 COUNTS 34 36 0 0 0
M  V30 BEGIN ATOM
M  V30 1 Cl -1.894396 -1.806759 5.303919 0
M  V30 2 C -1.100749 -2.300126 3.820329 0
M  V30 3 C -1.688556 -3.385057 3.165215 0
M  V30 4 C -1.060995 -3.779596 1.980467 0
M  V30 5 C 0.069985 -3.135819 1.488734 0
M  V30 6 C 0.681864 -3.585055 0.244089 0
M  V30 7 N 0.188782 -2.941850 -0.952433 0
M  V30 8 C 0.524940 -1.564546 -0.921382 0
M  V30 9 C 1.896249 -1.462064 -1.162666 0
M  V30 10 C 2.574004 -0.244564 -1.209022 0
M  V30 11 N 1.843544 0.881945 -1.005759 0
M  V30 12 C 0.508912 0.786350 -0.771491 0
M  V30 13 C -0.330306 1.952017 -0.541185 0
M  V30 14 C 0.348220 3.179628 -0.510205 0
M  V30 15 C -0.359643 4.349714 -0.288482 0
M  V30 16 C -1.746710 4.292130 -0.097747 0
M  V30 17 N -2.372762 3.105355 -0.133024 0
M  V30 18 C -1.718055 1.926123 -0.347011 0
M  V30 19 N -0.110030 -0.398740 -0.735072 0
M  V30 20 C 0.545906 -2.085894 2.226407 0
M  V30 21 C 0.014482 -1.603729 3.409470 0
M  V30 22 H -2.553808 -3.878955 3.556992 0
M  V30 23 H -1.464485 -4.624092 1.414033 0
M  V30 24 H 1.798429 -3.376220 0.333466 0
M  V30 25 H 0.607935 -4.656764 0.130492 0
M  V30 26 H -0.338618 -3.256389 -1.800760 0
M  V30 27 H 2.625877 -2.264386 -1.341913 0
M  V30 28 H 3.616847 -0.096505 -1.387139 0
M  V30 29 H 1.421103 3.332437 -0.654735 0
M  V30 30 H 0.143485 5.313000 -0.260591 0
M  V30 31 H -2.318019 5.195701 0.079149 0
M  V30 32 H -2.190398 0.957937 -0.380162 0
M  V30 33 H 1.429216 -1.589886 1.834945 0
M  V30 34 H 0.406143 -0.778827 3.971315 0
M  V30 END ATOM
M  V30 BEGIN BOND
M  V30 1 1 1 2
M  V30 2 2 2 3
M  V30 3 1 3 4
M  V30 4 2 4 5
M  V30 5 1 5 6
M  V30 6 1 6 7
M  V30 7 1 7 8
M  V30 8 2 8 9
M  V30 9 1 9 10
M  V30 10 2 10 11
M  V30 11 1 11 12
M  V30 12 1 12 13
M  V30 13 2 13 14
M  V30 14 1 14 15
M  V30 15 2 15 16
M  V30 16 1 16 17
M  V30 17 2 17 18
M  V30 18 2 12 19
M  V30 19 1 5 20
M  V30 20 2 20 21
M  V30 21 1 21 2
M  V30 22 1 19 8
M  V30 23 1 18 13
M  V30 24 1 3 22
M  V30 25 1 4 23
M  V30 26 1 6 24
M  V30 27 1 6 25
M  V30 28 1 7 26
M  V30 29 1 9 27
M  V30 30 1 10 28
M  V30 31 1 14 29
M  V30 32 1 15 30
M  V30 33 1 16 31
M  V30 34 1 18 32
M  V30 35 1 20 33
M  V30 36 1 21 34
M  V30 END BOND
M  V30 END CTAB
M  END
>  <Dataset>  (891) 
ChEMBL_Kinases

>  <Ligand_Instance>  (891) 
nan

>  <PDB_ID>  (891) 
nan

>  <Standardized_SMILES>  (891) 
Clc1ccc(CNc2ccnc(-c3cccnc3)n2)cc1

>  <Name>  (891) 
nan

>  <Pocket>  (891) 
nan

>  <ATP_Site>  (891) 
nan

>  <Peripheral>  (891) 
nan

>  <Num_H_Atoms_ProtBoundConf>  (891) 
nan

>  <Num_Resolved_Atoms>  (891) 
nan

>  <Num_Not_Resolved_Atoms>  (891) 
nan

$$$$
CHEMBL2392391
     RDKit          3D

  0  0  0  0  0  0  0  0  0  0999 V3000
M  V30 BEGIN CTAB
M  V30 COUNTS 40 42 0 0 0
M  V30 BEGIN ATOM
M  V30 1 C -0.114645 -4.845495 2.544529 0
M  V30 2 O 0.708252 -3.725973 2.332630 0
M  V30 3 C 0.820057 -3.055272 1.130069 0
M  V30 4 C 1.652775 -1.960780 1.005272 0
M  V30 5 C 1.802811 -1.257699 -0.162590 0
M  V30 6 C 1.078677 -1.673809 -1.265481 0
M  V30 7 C 1.099506 -1.040722 -2.611616 0
M  V30 8 N 0.058128 -0.011506 -2.729931 0
M  V30 9 C 0.368197 0.944273 -1.723721 0
M  V30 10 C 1.162286 1.977596 -2.171930 0
M  V30 11 C 1.521458 2.962347 -1.250320 0
M  V30 12 N 1.095073 2.891133 0.041432 0
M  V30 13 C 0.317762 1.865394 0.449391 0
M  V30 14 C -0.178605 1.720890 1.823991 0
M  V30 15 C 0.184093 2.709762 2.744628 0
M  V30 16 C -0.263343 2.619825 4.067884 0
M  V30 17 C -1.052375 1.531967 4.378741 0
M  V30 18 C -1.417840 0.551740 3.485705 0
M  V30 19 C -2.238678 -0.576261 3.815996 0
M  V30 20 N -2.891416 -1.498267 4.069349 0
M  V30 21 C -0.981204 0.629303 2.172900 0
M  V30 22 N -0.005757 0.945923 -0.451950 0
M  V30 23 C 0.223231 -2.772426 -1.195803 0
M  V30 24 C 0.111254 -3.449870 0.020717 0
M  V30 25 H 0.137905 -5.688196 1.859839 0
M  V30 26 H 0.091516 -5.193583 3.590898 0
M  V30 27 H -1.180756 -4.621846 2.419129 0
M  V30 28 H 2.233763 -1.618816 1.872764 0
M  V30 29 H 2.442636 -0.397812 -0.303717 0
M  V30 30 H 2.126013 -0.581060 -2.708538 0
M  V30 31 H 1.053967 -1.774044 -3.438838 0
M  V30 32 H -0.696587 -0.115857 -3.469943 0
M  V30 33 H 1.535988 2.095021 -3.185513 0
M  V30 34 H 2.150302 3.817493 -1.525277 0
M  V30 35 H 0.804288 3.521373 2.405990 0
M  V30 36 H 0.006225 3.373704 4.792601 0
M  V30 37 H -1.438010 1.398796 5.396507 0
M  V30 38 H -1.201315 -0.076374 1.384764 0
M  V30 39 H -0.365666 -3.147374 -2.012388 0
M  V30 40 H -0.556484 -4.321944 0.107658 0
M  V30 END ATOM
M  V30 BEGIN BOND
M  V30 1 1 1 2
M  V30 2 1 2 3
M  V30 3 2 3 4
M  V30 4 1 4 5
M  V30 5 2 5 6
M  V30 6 1 6 7
M  V30 7 1 7 8
M  V30 8 1 8 9
M  V30 9 2 9 10
M  V30 10 1 10 11
M  V30 11 2 11 12
M  V30 12 1 12 13
M  V30 13 1 13 14
M  V30 14 2 14 15
M  V30 15 1 15 16
M  V30 16 2 16 17
M  V30 17 1 17 18
M  V30 18 1 18 19
M  V30 19 3 19 20
M  V30 20 2 18 21
M  V30 21 2 13 22
M  V30 22 1 6 23
M  V30 23 2 23 24
M  V30 24 1 24 3
M  V30 25 1 22 9
M  V30 26 1 21 14
M  V30 27 1 1 25
M  V30 28 1 1 26
M  V30 29 1 1 27
M  V30 30 1 4 28
M  V30 31 1 5 29
M  V30 32 1 7 30
M  V30 33 1 7 31
M  V30 34 1 8 32
M  V30 35 1 10 33
M  V30 36 1 11 34
M  V30 37 1 15 35
M  V30 38 1 16 36
M  V30 39 1 17 37
M  V30 40 1 21 38
M  V30 41 1 23 39
M  V30 42 1 24 40
M  V30 END BOND
M  V30 END CTAB
M  END
>  <Dataset>  (892) 
ChEMBL_Kinases

>  <Ligand_Instance>  (892) 
nan

>  <PDB_ID>  (892) 
nan

>  <Standardized_SMILES>  (892) 
COc1ccc(CNc2ccnc(-c3cccc(C#N)c3)n2)cc1

>  <Name>  (892) 
nan

>  <Pocket>  (892) 
nan

>  <ATP_Site>  (892) 
nan

>  <Peripheral>  (892) 
nan

>  <Num_H_Atoms_ProtBoundConf>  (892) 
nan

>  <Num_Resolved_Atoms>  (892) 
nan

>  <Num_Not_Resolved_Atoms>  (892) 
nan

$$$$
CHEMBL2392543
     RDKit          3D

  0  0  0  0  0  0  0  0  0  0999 V3000
M  V30 BEGIN CTAB
M  V30 COUNTS 78 82 0 0 0
M  V30 BEGIN ATOM
M  V30 1 C 5.973981 -3.715832 0.978184 0
M  V30 2 C 5.970272 -2.532922 0.337523 0
M  V30 3 C 5.310668 -1.376625 1.044924 0 CFG=2
M  V30 4 F 5.661156 -1.557522 2.396087 0
M  V30 5 C 3.832227 -1.530616 1.002409 0
M  V30 6 N 3.221818 -1.114194 -0.271057 0
M  V30 7 C 2.661187 -2.100561 -1.102399 0
M  V30 8 C 2.082170 -1.751146 -2.420570 0
M  V30 9 C 1.752862 -3.189412 -2.917928 0
M  V30 10 C 1.263787 -3.897238 -1.675019 0
M  V30 11 C 1.734780 -3.109091 -0.468671 0
M  V30 12 C 3.158711 0.250295 -0.748126 0
M  V30 13 N 2.001447 0.521774 -1.323464 0
M  V30 14 C 1.775166 1.732287 -1.837652 0
M  V30 15 N 0.509566 2.009095 -2.401411 0
M  V30 16 C -0.761215 1.566796 -1.939250 0
M  V30 17 C -0.769511 0.915612 -0.719618 0
M  V30 18 C -1.921880 0.471011 -0.108327 0
M  V30 19 C -3.128462 0.706801 -0.783972 0
M  V30 20 C -4.452187 0.357546 -0.312087 0
M  V30 21 O -5.576715 0.534912 -0.879757 0
M  V30 22 N -4.686106 -0.263126 0.924069 0
M  V30 23 C -5.635886 -0.785327 1.841457 0
M  V30 24 C -5.568546 -2.247896 2.073857 0
M  V30 25 C -5.777143 -2.526665 3.541569 0
M  V30 26 N -4.719903 -1.926908 4.336536 0
M  V30 27 C -4.928199 -2.149039 5.751842 0
M  V30 28 C -4.586140 -0.523880 4.105231 0
M  V30 29 C -5.676867 -0.047470 3.151616 0
M  V30 30 C -3.145964 1.348059 -1.993293 0
M  V30 31 C -1.977302 1.782989 -2.583374 0
M  V30 32 O -1.792045 2.438801 -3.781931 0
M  V30 33 C -2.921197 2.740793 -4.573508 0
M  V30 34 N 2.744452 2.690377 -1.768303 0
M  V30 35 C 3.948883 2.447618 -1.182199 0
M  V30 36 C 4.188871 1.199909 -0.648145 0
M  V30 37 N 5.502920 1.102218 -0.051877 0
M  V30 38 C 6.374812 2.240459 -0.206803 0
M  V30 39 C 5.867525 -0.093095 0.650443 0
M  V30 40 O 7.074418 0.005140 1.061868 0
M  V30 41 H 6.371389 -4.682583 0.700305 0
M  V30 42 H 5.539219 -3.916704 1.971936 0
M  V30 43 H 6.477214 -2.629066 -0.639671 0
M  V30 44 H 3.382552 -1.086508 1.885101 0
M  V30 45 H 3.634117 -2.636727 1.087873 0
M  V30 46 H 3.553061 -2.763841 -1.397443 0
M  V30 47 H 2.814447 -1.323408 -3.125617 0
M  V30 48 H 1.124638 -1.230534 -2.454661 0
M  V30 49 H 0.988239 -3.165719 -3.694028 0
M  V30 50 H 2.721165 -3.640810 -3.208273 0
M  V30 51 H 1.622503 -4.945922 -1.679673 0
M  V30 52 H 0.161906 -3.944687 -1.725427 0
M  V30 53 H 0.942481 -2.700411 0.149897 0
M  V30 54 H 2.295198 -3.838993 0.154648 0
M  V30 55 H 0.502478 2.612592 -3.262016 0
M  V30 56 H 0.067166 0.662392 -0.067478 0
M  V30 57 H -2.007658 -0.041130 0.838653 0
M  V30 58 H -3.837169 -0.496571 1.530595 0
M  V30 59 H -6.656567 -0.597376 1.375151 0
M  V30 60 H -6.324287 -2.804353 1.469664 0
M  V30 61 H -4.571684 -2.707642 1.838871 0
M  V30 62 H -5.854302 -3.622883 3.740112 0
M  V30 63 H -6.769627 -2.119249 3.816896 0
M  V30 64 H -4.006680 -1.883513 6.341422 0
M  V30 65 H -5.714270 -1.471019 6.145836 0
M  V30 66 H -5.110941 -3.216815 5.906851 0
M  V30 67 H -3.578446 -0.221792 3.748118 0
M  V30 68 H -4.731651 0.028454 5.052787 0
M  V30 69 H -6.635066 -0.126001 3.694398 0
M  V30 70 H -5.526242 1.034218 2.955298 0
M  V30 71 H -4.029620 1.566086 -2.577695 0
M  V30 72 H -3.827170 2.984916 -4.017326 0
M  V30 73 H -3.145394 1.839666 -5.206134 0
M  V30 74 H -2.702753 3.593560 -5.260586 0
M  V30 75 H 4.706271 3.198163 -1.126498 0
M  V30 76 H 7.372643 1.915903 0.213839 0
M  V30 77 H 6.090495 3.113576 0.410908 0
M  V30 78 H 6.610789 2.490334 -1.263591 0
M  V30 END ATOM
M  V30 BEGIN BOND
M  V30 1 2 1 2
M  V30 2 1 2 3
M  V30 3 1 3 4 CFG=1
M  V30 4 1 3 5
M  V30 5 1 5 6
M  V30 6 1 6 7
M  V30 7 1 7 8
M  V30 8 1 8 9
M  V30 9 1 9 10
M  V30 10 1 10 11
M  V30 11 1 6 12
M  V30 12 2 12 13
M  V30 13 1 13 14
M  V30 14 1 14 15
M  V30 15 1 15 16
M  V30 16 2 16 17
M  V30 17 1 17 18
M  V30 18 2 18 19
M  V30 19 1 19 20
M  V30 20 2 20 21
M  V30 21 1 20 22
M  V30 22 1 22 23
M  V30 23 1 23 24
M  V30 24 1 24 25
M  V30 25 1 25 26
M  V30 26 1 26 27
M  V30 27 1 26 28
M  V30 28 1 28 29
M  V30 29 1 19 30
M  V30 30 2 30 31
M  V30 31 1 31 32
M  V30 32 1 32 33
M  V30 33 2 14 34
M  V30 34 1 34 35
M  V30 35 2 35 36
M  V30 36 1 36 37
M  V30 37 1 37 38
M  V30 38 1 37 39
M  V30 39 2 39 40
M  V30 40 1 39 3
M  V30 41 1 11 7
M  V30 42 1 36 12
M  V30 43 1 31 16
M  V30 44 1 29 23
M  V30 45 1 1 41
M  V30 46 1 1 42
M  V30 47 1 2 43
M  V30 48 1 5 44
M  V30 49 1 5 45
M  V30 50 1 7 46
M  V30 51 1 8 47
M  V30 52 1 8 48
M  V30 53 1 9 49
M  V30 54 1 9 50
M  V30 55 1 10 51
M  V30 56 1 10 52
M  V30 57 1 11 53
M  V30 58 1 11 54
M  V30 59 1 15 55
M  V30 60 1 17 56
M  V30 61 1 18 57
M  V30 62 1 22 58
M  V30 63 1 23 59
M  V30 64 1 24 60
M  V30 65 1 24 61
M  V30 66 1 25 62
M  V30 67 1 25 63
M  V30 68 1 27 64
M  V30 69 1 27 65
M  V30 70 1 27 66
M  V30 71 1 28 67
M  V30 72 1 28 68
M  V30 73 1 29 69
M  V30 74 1 29 70
M  V30 75 1 30 71
M  V30 76 1 33 72
M  V30 77 1 33 73
M  V30 78 1 33 74
M  V30 79 1 35 75
M  V30 80 1 38 76
M  V30 81 1 38 77
M  V30 82 1 38 78
M  V30 END BOND
M  V30 END CTAB
M  END
>  <Dataset>  (893) 
ChEMBL_Kinases

>  <Ligand_Instance>  (893) 
nan

>  <PDB_ID>  (893) 
nan

>  <Standardized_SMILES>  (893) 
C=C[C@]1(F)CN(C2CCCC2)c2nc(Nc3ccc(C(=O)NC4CCN(C)CC4)cc3OC)ncc2N(C)C1=O

>  <Name>  (893) 
nan

>  <Pocket>  (893) 
nan

>  <ATP_Site>  (893) 
nan

>  <Peripheral>  (893) 
nan

>  <Num_H_Atoms_ProtBoundConf>  (893) 
nan

>  <Num_Resolved_Atoms>  (893) 
nan

>  <Num_Not_Resolved_Atoms>  (893) 
nan

$$$$
CHEMBL2392244
     RDKit          3D

  0  0  0  0  0  0  0  0  0  0999 V3000
M  V30 BEGIN CTAB
M  V30 COUNTS 38 41 0 0 0
M  V30 BEGIN ATOM
M  V30 1 Br -1.040041 -5.795215 1.840010 0
M  V30 2 C 0.399835 -4.566946 1.587643 0
M  V30 3 C 1.603649 -4.885090 0.989820 0
M  V30 4 C 2.596760 -3.916838 0.850587 0
M  V30 5 C 2.378021 -2.620740 1.315280 0
M  V30 6 C 3.501191 -1.660051 1.125153 0
M  V30 7 N 3.456950 -0.988777 -0.154904 0
M  V30 8 C 2.469987 -0.133469 -0.697285 0
M  V30 9 C 2.635888 0.391166 -1.980010 0
M  V30 10 C 1.710791 1.225990 -2.548406 0
M  V30 11 N 0.621941 1.530561 -1.825211 0
M  V30 12 C 0.414469 1.052694 -0.587019 0
M  V30 13 C -0.801525 1.446298 0.111949 0
M  V30 14 C -1.712313 2.283082 -0.497336 0
M  V30 15 C -2.886132 2.702967 0.091396 0
M  V30 16 C -3.206336 2.286501 1.360024 0
M  V30 17 C -2.325060 1.451263 2.003023 0
M  V30 18 C -1.161054 1.052233 1.382982 0
M  V30 19 O -2.863402 1.166517 3.269017 0
M  V30 20 C -4.282883 1.353565 3.145806 0
M  V30 21 O -4.262198 2.485592 2.262419 0
M  V30 22 N 1.344487 0.246326 -0.083298 0
M  V30 23 C 1.161522 -2.341574 1.907461 0
M  V30 24 C 0.191396 -3.293335 2.041754 0
M  V30 25 Br -1.419238 -2.677635 2.896553 0
M  V30 26 H 1.689563 -5.910932 0.658899 0
M  V30 27 H 3.517238 -4.263988 0.363646 0
M  V30 28 H 4.433762 -2.213827 1.285520 0
M  V30 29 H 3.460805 -0.904390 1.945655 0
M  V30 30 H 4.306269 -1.179971 -0.768997 0
M  V30 31 H 3.533993 0.132808 -2.561300 0
M  V30 32 H 1.890094 1.603232 -3.545073 0
M  V30 33 H -1.515749 2.643995 -1.495843 0
M  V30 34 H -3.587247 3.360517 -0.405278 0
M  V30 35 H -0.494665 0.399152 1.917192 0
M  V30 36 H -4.781908 1.543562 4.091265 0
M  V30 37 H -4.631515 0.485106 2.566278 0
M  V30 38 H 1.127375 -1.311483 2.222810 0
M  V30 END ATOM
M  V30 BEGIN BOND
M  V30 1 1 1 2
M  V30 2 2 2 3
M  V30 3 1 3 4
M  V30 4 2 4 5
M  V30 5 1 5 6
M  V30 6 1 6 7
M  V30 7 1 7 8
M  V30 8 2 8 9
M  V30 9 1 9 10
M  V30 10 2 10 11
M  V30 11 1 11 12
M  V30 12 1 12 13
M  V30 13 2 13 14
M  V30 14 1 14 15
M  V30 15 2 15 16
M  V30 16 1 16 17
M  V30 17 2 17 18
M  V30 18 1 17 19
M  V30 19 1 19 20
M  V30 20 1 20 21
M  V30 21 2 12 22
M  V30 22 1 5 23
M  V30 23 2 23 24
M  V30 24 1 24 25
M  V30 25 1 24 2
M  V30 26 1 22 8
M  V30 27 1 18 13
M  V30 28 1 21 16
M  V30 29 1 3 26
M  V30 30 1 4 27
M  V30 31 1 6 28
M  V30 32 1 6 29
M  V30 33 1 7 30
M  V30 34 1 9 31
M  V30 35 1 10 32
M  V30 36 1 14 33
M  V30 37 1 15 34
M  V30 38 1 18 35
M  V30 39 1 20 36
M  V30 40 1 20 37
M  V30 41 1 23 38
M  V30 END BOND
M  V30 END CTAB
M  END
>  <Dataset>  (894) 
ChEMBL_Kinases

>  <Ligand_Instance>  (894) 
nan

>  <PDB_ID>  (894) 
nan

>  <Standardized_SMILES>  (894) 
Brc1ccc(CNc2ccnc(-c3ccc4c(c3)OCO4)n2)cc1Br

>  <Name>  (894) 
nan

>  <Pocket>  (894) 
nan

>  <ATP_Site>  (894) 
nan

>  <Peripheral>  (894) 
nan

>  <Num_H_Atoms_ProtBoundConf>  (894) 
nan

>  <Num_Resolved_Atoms>  (894) 
nan

>  <Num_Not_Resolved_Atoms>  (894) 
nan

$$$$
CHEMBL2398650
     RDKit          3D

  0  0  0  0  0  0  0  0  0  0999 V3000
M  V30 BEGIN CTAB
M  V30 COUNTS 57 61 0 0 0
M  V30 BEGIN ATOM
M  V30 1 N 5.170339 -4.215042 4.631424 0
M  V30 2 C 4.913750 -3.006501 3.933297 0
M  V30 3 O 5.391044 -1.987281 4.472706 0
M  V30 4 N 4.193358 -2.900710 2.737560 0
M  V30 5 C 3.890586 -1.746569 1.976448 0
M  V30 6 C 4.241297 -0.465168 2.242412 0
M  V30 7 C 3.904786 0.611696 1.445677 0
M  V30 8 C 3.159026 0.422902 0.284561 0
M  V30 9 C 2.862239 1.624702 -0.494867 0
M  V30 10 C 1.615354 2.313264 -0.051432 0
M  V30 11 N 0.411330 1.525314 -0.143089 0
M  V30 12 C -0.817568 2.105688 0.274415 0
M  V30 13 N -0.845264 3.360901 0.755667 0
M  V30 14 C -2.002916 3.932239 1.168410 0
M  V30 15 N -3.143151 3.245605 1.100613 0
M  V30 16 C -3.214889 1.990565 0.636091 0
M  V30 17 O -4.148150 1.094890 0.453772 0
M  V30 18 C -3.652074 -0.005180 -0.048393 0
M  V30 19 C -4.535000 -1.117404 -0.321264 0
M  V30 20 C -5.614676 -1.131137 -1.204932 0
M  V30 21 C -6.367604 -2.277025 -1.356341 0
M  V30 22 C -6.060803 -3.421150 -0.635623 0
M  V30 23 C -4.990215 -3.432142 0.250687 0
M  V30 24 C -4.238882 -2.265551 0.392291 0
M  V30 25 C -2.274092 0.179329 -0.211882 0
M  V30 26 C -1.461203 -0.886737 -0.756854 0
M  V30 27 C -0.814773 -1.941724 -0.134420 0
M  V30 28 C -0.101764 -2.846099 -0.889486 0
M  V30 29 C -0.005865 -2.739614 -2.259771 0
M  V30 30 C -0.639717 -1.699552 -2.900792 0
M  V30 31 C -1.364542 -0.777147 -2.150041 0
M  V30 32 C -2.015914 1.448657 0.227357 0
M  V30 33 C 2.810282 -0.869667 0.023789 0
M  V30 34 C 3.153705 -1.928664 0.827887 0
M  V30 35 H 6.108771 -4.388336 5.081568 0
M  V30 36 H 4.399134 -4.897035 4.669636 0
M  V30 37 H 3.863393 -3.845435 2.420658 0
M  V30 38 H 4.819511 -0.253589 3.127138 0
M  V30 39 H 4.234111 1.614475 1.742012 0
M  V30 40 H 3.728294 2.331075 -0.426520 0
M  V30 41 H 2.827471 1.365637 -1.591922 0
M  V30 42 H 1.544490 3.255279 -0.650386 0
M  V30 43 H 1.736782 2.668436 1.009383 0
M  V30 44 H 0.560293 0.572526 -0.517780 0
M  V30 45 H -1.951460 4.948734 1.545617 0
M  V30 46 H -5.781850 -0.203680 -1.722197 0
M  V30 47 H -7.189443 -2.225270 -2.054360 0
M  V30 48 H -6.705571 -4.280719 -0.814980 0
M  V30 49 H -4.783474 -4.349879 0.796306 0
M  V30 50 H -3.419142 -2.371735 1.110712 0
M  V30 51 H -0.960681 -1.921671 0.935489 0
M  V30 52 H 0.366495 -3.630229 -0.330925 0
M  V30 53 H 0.563169 -3.469210 -2.820100 0
M  V30 54 H -0.546033 -1.642573 -3.975628 0
M  V30 55 H -1.819922 0.000160 -2.776117 0
M  V30 56 H 2.237297 -1.056580 -0.869921 0
M  V30 57 H 2.822345 -2.929820 0.527532 0
M  V30 END ATOM
M  V30 BEGIN BOND
M  V30 1 1 1 2
M  V30 2 2 2 3
M  V30 3 1 2 4
M  V30 4 1 4 5
M  V30 5 2 5 6
M  V30 6 1 6 7
M  V30 7 2 7 8
M  V30 8 1 8 9
M  V30 9 1 9 10
M  V30 10 1 10 11
M  V30 11 1 11 12
M  V30 12 2 12 13
M  V30 13 1 13 14
M  V30 14 2 14 15
M  V30 15 1 15 16
M  V30 16 1 16 17
M  V30 17 1 17 18
M  V30 18 1 18 19
M  V30 19 2 19 20
M  V30 20 1 20 21
M  V30 21 2 21 22
M  V30 22 1 22 23
M  V30 23 2 23 24
M  V30 24 2 18 25
M  V30 25 1 25 26
M  V30 26 2 26 27
M  V30 27 1 27 28
M  V30 28 2 28 29
M  V30 29 1 29 30
M  V30 30 2 30 31
M  V30 31 1 25 32
M  V30 32 1 8 33
M  V30 33 2 33 34
M  V30 34 1 34 5
M  V30 35 1 32 12
M  V30 36 2 32 16
M  V30 37 1 24 19
M  V30 38 1 31 26
M  V30 39 1 1 35
M  V30 40 1 1 36
M  V30 41 1 4 37
M  V30 42 1 6 38
M  V30 43 1 7 39
M  V30 44 1 9 40
M  V30 45 1 9 41
M  V30 46 1 10 42
M  V30 47 1 10 43
M  V30 48 1 11 44
M  V30 49 1 14 45
M  V30 50 1 20 46
M  V30 51 1 21 47
M  V30 52 1 22 48
M  V30 53 1 23 49
M  V30 54 1 24 50
M  V30 55 1 27 51
M  V30 56 1 28 52
M  V30 57 1 29 53
M  V30 58 1 30 54
M  V30 59 1 31 55
M  V30 60 1 33 56
M  V30 61 1 34 57
M  V30 END BOND
M  V30 END CTAB
M  END
>  <Dataset>  (895) 
ChEMBL_Kinases

>  <Ligand_Instance>  (895) 
nan

>  <PDB_ID>  (895) 
nan

>  <Standardized_SMILES>  (895) 
NC(=O)Nc1ccc(CCNc2ncnc3oc(-c4ccccc4)c(-c4ccccc4)c23)cc1

>  <Name>  (895) 
nan

>  <Pocket>  (895) 
nan

>  <ATP_Site>  (895) 
nan

>  <Peripheral>  (895) 
nan

>  <Num_H_Atoms_ProtBoundConf>  (895) 
nan

>  <Num_Resolved_Atoms>  (895) 
nan

>  <Num_Not_Resolved_Atoms>  (895) 
nan

$$$$
CHEMBL2398649
     RDKit          3D

  0  0  0  0  0  0  0  0  0  0999 V3000
M  V30 BEGIN CTAB
M  V30 COUNTS 70 75 0 0 0
M  V30 BEGIN ATOM
M  V30 1 O 3.657341 -0.520002 0.799871 0
M  V30 2 C 4.254731 -0.125876 -0.230283 0
M  V30 3 N 5.428904 -0.841455 -0.568138 0
M  V30 4 C 5.952292 -1.957026 0.170077 0
M  V30 5 C 5.228233 -3.229032 -0.074228 0
M  V30 6 C 4.155855 -3.786525 0.564973 0
M  V30 7 C 3.660167 -4.992459 0.142339 0
M  V30 8 C 4.194596 -5.710499 -0.930366 0
M  V30 9 C 5.273376 -5.140696 -1.566795 0
M  V30 10 C 5.783707 -3.922760 -1.149589 0
M  V30 11 N 3.732897 0.962503 -0.952105 0
M  V30 12 C 2.588653 1.738227 -0.696598 0
M  V30 13 C 1.719232 1.634621 0.357869 0
M  V30 14 C 0.609735 2.395032 0.585210 0
M  V30 15 C 0.312179 3.385531 -0.339458 0
M  V30 16 C -0.866765 4.299854 -0.227424 0
M  V30 17 C -2.076388 3.687506 -0.892543 0
M  V30 18 N -2.476908 2.421696 -0.302853 0
M  V30 19 C -2.901797 2.402619 1.051498 0
M  V30 20 N -2.942943 3.518879 1.797656 0
M  V30 21 C -3.338338 3.531258 3.080979 0
M  V30 22 N -3.716099 2.384411 3.671389 0
M  V30 23 C -3.715551 1.206399 3.022910 0
M  V30 24 O -4.010025 -0.046997 3.286821 0
M  V30 25 C -3.817823 -0.822246 2.239383 0
M  V30 26 C -4.116063 -2.239122 2.425457 0
M  V30 27 C -3.354407 -2.892855 3.364926 0
M  V30 28 C -3.490302 -4.231284 3.679132 0
M  V30 29 C -4.465157 -4.967770 2.997602 0
M  V30 30 C -5.228198 -4.318605 2.058392 0
M  V30 31 C -5.071260 -2.987590 1.766546 0
M  V30 32 C -3.361593 -0.015421 1.207137 0
M  V30 33 C -3.069543 -0.627194 -0.068647 0
M  V30 34 C -1.745231 -1.080448 -0.100941 0
M  V30 35 C -1.228449 -1.717813 -1.226105 0
M  V30 36 C -2.021683 -1.906124 -2.317704 0
M  V30 37 C -3.320015 -1.465140 -2.293977 0
M  V30 38 C -3.858898 -0.831426 -1.195503 0
M  V30 39 C -3.302602 1.265843 1.721046 0
M  V30 40 C 1.157914 3.537175 -1.428740 0
M  V30 41 C 2.261306 2.731191 -1.592267 0
M  V30 42 H 5.960121 -0.542875 -1.415119 0
M  V30 43 H 5.823148 -1.725552 1.271451 0
M  V30 44 H 7.041043 -2.074695 0.047766 0
M  V30 45 H 3.791901 -3.191196 1.377505 0
M  V30 46 H 2.809404 -5.397611 0.677498 0
M  V30 47 H 3.779829 -6.654793 -1.234887 0
M  V30 48 H 5.666104 -5.718463 -2.393404 0
M  V30 49 H 6.631649 -3.612412 -1.753661 0
M  V30 50 H 4.326247 1.173893 -1.783276 0
M  V30 51 H 1.901319 0.883055 1.105816 0
M  V30 52 H -0.037928 2.266053 1.437747 0
M  V30 53 H -1.102088 4.594474 0.792081 0
M  V30 54 H -0.637720 5.225771 -0.813805 0
M  V30 55 H -1.966449 3.644574 -1.992790 0
M  V30 56 H -2.904065 4.441313 -0.733962 0
M  V30 57 H -2.415424 1.621125 -0.931884 0
M  V30 58 H -3.336294 4.488795 3.599969 0
M  V30 59 H -2.581006 -2.377850 3.928114 0
M  V30 60 H -2.891926 -4.748939 4.417848 0
M  V30 61 H -4.567625 -6.012816 3.246787 0
M  V30 62 H -5.990930 -4.888792 1.522716 0
M  V30 63 H -5.655173 -2.438782 1.030515 0
M  V30 64 H -1.001878 -0.997539 0.697293 0
M  V30 65 H -0.209340 -2.082733 -1.288977 0
M  V30 66 H -1.630888 -2.400277 -3.197833 0
M  V30 67 H -4.012641 -1.583265 -3.135676 0
M  V30 68 H -4.847896 -0.441191 -1.046067 0
M  V30 69 H 0.970814 4.294501 -2.177985 0
M  V30 70 H 2.894386 2.895525 -2.472224 0
M  V30 END ATOM
M  V30 BEGIN BOND
M  V30 1 2 1 2
M  V30 2 1 2 3
M  V30 3 1 3 4
M  V30 4 1 4 5
M  V30 5 2 5 6
M  V30 6 1 6 7
M  V30 7 2 7 8
M  V30 8 1 8 9
M  V30 9 2 9 10
M  V30 10 1 2 11
M  V30 11 1 11 12
M  V30 12 2 12 13
M  V30 13 1 13 14
M  V30 14 2 14 15
M  V30 15 1 15 16
M  V30 16 1 16 17
M  V30 17 1 17 18
M  V30 18 1 18 19
M  V30 19 2 19 20
M  V30 20 1 20 21
M  V30 21 2 21 22
M  V30 22 1 22 23
M  V30 23 1 23 24
M  V30 24 1 24 25
M  V30 25 1 25 26
M  V30 26 2 26 27
M  V30 27 1 27 28
M  V30 28 2 28 29
M  V30 29 1 29 30
M  V30 30 2 30 31
M  V30 31 2 25 32
M  V30 32 1 32 33
M  V30 33 2 33 34
M  V30 34 1 34 35
M  V30 35 2 35 36
M  V30 36 1 36 37
M  V30 37 2 37 38
M  V30 38 1 32 39
M  V30 39 1 15 40
M  V30 40 2 40 41
M  V30 41 1 10 5
M  V30 42 1 41 12
M  V30 43 1 39 19
M  V30 44 2 39 23
M  V30 45 1 31 26
M  V30 46 1 38 33
M  V30 47 1 3 42
M  V30 48 1 4 43
M  V30 49 1 4 44
M  V30 50 1 6 45
M  V30 51 1 7 46
M  V30 52 1 8 47
M  V30 53 1 9 48
M  V30 54 1 10 49
M  V30 55 1 11 50
M  V30 56 1 13 51
M  V30 57 1 14 52
M  V30 58 1 16 53
M  V30 59 1 16 54
M  V30 60 1 17 55
M  V30 61 1 17 56
M  V30 62 1 18 57
M  V30 63 1 21 58
M  V30 64 1 27 59
M  V30 65 1 28 60
M  V30 66 1 29 61
M  V30 67 1 30 62
M  V30 68 1 31 63
M  V30 69 1 34 64
M  V30 70 1 35 65
M  V30 71 1 36 66
M  V30 72 1 37 67
M  V30 73 1 38 68
M  V30 74 1 40 69
M  V30 75 1 41 70
M  V30 END BOND
M  V30 END CTAB
M  END
>  <Dataset>  (896) 
ChEMBL_Kinases

>  <Ligand_Instance>  (896) 
nan

>  <PDB_ID>  (896) 
nan

>  <Standardized_SMILES>  (896) 
O=C(NCc1ccccc1)Nc1ccc(CCNc2ncnc3oc(-c4ccccc4)c(-c4ccccc4)c23)cc1

>  <Name>  (896) 
nan

>  <Pocket>  (896) 
nan

>  <ATP_Site>  (896) 
nan

>  <Peripheral>  (896) 
nan

>  <Num_H_Atoms_ProtBoundConf>  (896) 
nan

>  <Num_Resolved_Atoms>  (896) 
nan

>  <Num_Not_Resolved_Atoms>  (896) 
nan

$$$$
CHEMBL2398647
     RDKit          3D

  0  0  0  0  0  0  0  0  0  0999 V3000
M  V30 BEGIN CTAB
M  V30 COUNTS 64 69 0 0 0
M  V30 BEGIN ATOM
M  V30 1 O 5.586205 0.204169 0.689532 0
M  V30 2 C 5.447026 0.333521 -0.550702 0
M  V30 3 N 6.593956 0.044381 -1.310608 0
M  V30 4 C 7.788017 -0.359606 -0.648828 0
M  V30 5 C 8.021168 -1.713314 -0.410564 0
M  V30 6 C 9.166479 -2.178178 0.230803 0
M  V30 7 C 10.125844 -1.254192 0.655713 0
M  V30 8 C 9.914999 0.093669 0.429669 0
M  V30 9 C 8.770712 0.527365 -0.208507 0
M  V30 10 N 4.205298 0.740467 -1.056390 0
M  V30 11 C 2.991021 1.057290 -0.402232 0
M  V30 12 C 1.904572 1.431950 -1.128111 0
M  V30 13 C 0.703544 1.748617 -0.531830 0
M  V30 14 C 0.525635 1.704968 0.855485 0
M  V30 15 C -0.836895 2.092682 1.274857 0
M  V30 16 N -1.772390 0.988619 1.267327 0
M  V30 17 C -1.692412 -0.184614 2.051522 0
M  V30 18 N -0.698486 -0.386752 2.904414 0
M  V30 19 C -0.600144 -1.478254 3.646473 0
M  V30 20 N -1.532470 -2.446045 3.556847 0
M  V30 21 C -2.588330 -2.339013 2.717062 0
M  V30 22 O -3.628867 -3.069164 2.402144 0
M  V30 23 C -4.371855 -2.476616 1.494151 0
M  V30 24 C -5.562573 -3.198351 1.063877 0
M  V30 25 C -6.560812 -3.510512 1.971656 0
M  V30 26 C -7.703025 -4.203712 1.556581 0
M  V30 27 C -7.830051 -4.577671 0.225957 0
M  V30 28 C -6.835408 -4.265080 -0.671806 0
M  V30 29 C -5.700225 -3.577005 -0.262993 0
M  V30 30 C -3.762046 -1.276338 1.205140 0
M  V30 31 C -4.392723 -0.416107 0.216435 0
M  V30 32 C -4.046556 -0.612631 -1.125058 0
M  V30 33 C -4.550157 0.095130 -2.195701 0
M  V30 34 C -5.473525 1.081851 -1.931140 0
M  V30 35 C -5.842187 1.307778 -0.621587 0
M  V30 36 C -5.335054 0.596772 0.444424 0
M  V30 37 C -2.635076 -1.183039 1.973471 0
M  V30 38 C 1.622566 1.327160 1.587218 0
M  V30 39 C 2.801822 1.019248 0.955882 0
M  V30 40 H 6.527682 0.138665 -2.360163 0
M  V30 41 H 7.285465 -2.450491 -0.733871 0
M  V30 42 H 9.324650 -3.231759 0.403987 0
M  V30 43 H 11.035486 -1.548539 1.158748 0
M  V30 44 H 10.650429 0.839850 0.752069 0
M  V30 45 H 8.589665 1.583003 -0.393780 0
M  V30 46 H 4.240671 0.804065 -2.107370 0
M  V30 47 H 2.007341 1.476944 -2.212812 0
M  V30 48 H -0.091122 2.034323 -1.229421 0
M  V30 49 H -1.197795 2.960649 0.689448 0
M  V30 50 H -0.813830 2.430407 2.357742 0
M  V30 51 H -2.547083 1.129743 0.603623 0
M  V30 52 H 0.202398 -1.689688 4.364813 0
M  V30 53 H -6.495005 -3.232694 3.024681 0
M  V30 54 H -8.516597 -4.473764 2.228980 0
M  V30 55 H -8.730922 -5.120060 -0.082792 0
M  V30 56 H -6.972493 -4.572538 -1.692284 0
M  V30 57 H -4.957929 -3.363547 -1.018888 0
M  V30 58 H -3.311567 -1.394339 -1.362371 0
M  V30 59 H -4.222535 -0.128311 -3.197010 0
M  V30 60 H -5.895899 1.662483 -2.736446 0
M  V30 61 H -6.575208 2.088565 -0.393356 0
M  V30 62 H -5.588124 0.733553 1.474764 0
M  V30 63 H 1.453764 1.311441 2.650057 0
M  V30 64 H 3.591429 0.737222 1.624781 0
M  V30 END ATOM
M  V30 BEGIN BOND
M  V30 1 2 1 2
M  V30 2 1 2 3
M  V30 3 1 3 4
M  V30 4 2 4 5
M  V30 5 1 5 6
M  V30 6 2 6 7
M  V30 7 1 7 8
M  V30 8 2 8 9
M  V30 9 1 2 10
M  V30 10 1 10 11
M  V30 11 2 11 12
M  V30 12 1 12 13
M  V30 13 2 13 14
M  V30 14 1 14 15
M  V30 15 1 15 16
M  V30 16 1 16 17
M  V30 17 2 17 18
M  V30 18 1 18 19
M  V30 19 2 19 20
M  V30 20 1 20 21
M  V30 21 1 21 22
M  V30 22 1 22 23
M  V30 23 1 23 24
M  V30 24 2 24 25
M  V30 25 1 25 26
M  V30 26 2 26 27
M  V30 27 1 27 28
M  V30 28 2 28 29
M  V30 29 2 23 30
M  V30 30 1 30 31
M  V30 31 2 31 32
M  V30 32 1 32 33
M  V30 33 2 33 34
M  V30 34 1 34 35
M  V30 35 2 35 36
M  V30 36 1 30 37
M  V30 37 1 14 38
M  V30 38 2 38 39
M  V30 39 1 9 4
M  V30 40 1 39 11
M  V30 41 1 37 17
M  V30 42 2 37 21
M  V30 43 1 29 24
M  V30 44 1 36 31
M  V30 45 1 3 40
M  V30 46 1 5 41
M  V30 47 1 6 42
M  V30 48 1 7 43
M  V30 49 1 8 44
M  V30 50 1 9 45
M  V30 51 1 10 46
M  V30 52 1 12 47
M  V30 53 1 13 48
M  V30 54 1 15 49
M  V30 55 1 15 50
M  V30 56 1 16 51
M  V30 57 1 19 52
M  V30 58 1 25 53
M  V30 59 1 26 54
M  V30 60 1 27 55
M  V30 61 1 28 56
M  V30 62 1 29 57
M  V30 63 1 32 58
M  V30 64 1 33 59
M  V30 65 1 34 60
M  V30 66 1 35 61
M  V30 67 1 36 62
M  V30 68 1 38 63
M  V30 69 1 39 64
M  V30 END BOND
M  V30 END CTAB
M  END
>  <Dataset>  (897) 
ChEMBL_Kinases

>  <Ligand_Instance>  (897) 
nan

>  <PDB_ID>  (897) 
nan

>  <Standardized_SMILES>  (897) 
O=C(Nc1ccccc1)Nc1ccc(CNc2ncnc3oc(-c4ccccc4)c(-c4ccccc4)c23)cc1

>  <Name>  (897) 
nan

>  <Pocket>  (897) 
nan

>  <ATP_Site>  (897) 
nan

>  <Peripheral>  (897) 
nan

>  <Num_H_Atoms_ProtBoundConf>  (897) 
nan

>  <Num_Resolved_Atoms>  (897) 
nan

>  <Num_Not_Resolved_Atoms>  (897) 
nan

$$$$
CHEMBL2398646
     RDKit          3D

  0  0  0  0  0  0  0  0  0  0999 V3000
M  V30 BEGIN CTAB
M  V30 COUNTS 61 66 0 0 0
M  V30 BEGIN ATOM
M  V30 1 O 2.104457 0.518238 3.120292 0
M  V30 2 C 2.211757 1.313738 4.118881 0
M  V30 3 N 3.490153 1.320113 4.751032 0
M  V30 4 C 4.489200 0.419247 4.228818 0
M  V30 5 C 4.342634 -0.725310 5.008565 0
M  V30 6 C 5.183436 -1.829263 4.750395 0
M  V30 7 C 6.112282 -1.694108 3.720569 0
M  V30 8 C 6.251695 -0.553356 2.949217 0
M  V30 9 C 5.423224 0.476933 3.234974 0
M  V30 10 N 0.999261 2.047514 4.402289 0
M  V30 11 C -0.023008 1.680634 3.438833 0
M  V30 12 C -0.345291 2.384579 2.301955 0
M  V30 13 C -1.310723 1.883446 1.454603 0
M  V30 14 C -1.909258 0.688230 1.796478 0
M  V30 15 N -2.931720 0.093881 0.994905 0
M  V30 16 C -3.361827 -1.265722 1.093817 0
M  V30 17 N -4.031629 -1.826746 2.117320 0
M  V30 18 C -4.364930 -3.147850 2.021339 0
M  V30 19 N -4.077040 -3.959625 0.967182 0
M  V30 20 C -3.401775 -3.413466 -0.079892 0
M  V30 21 O -2.982925 -3.925930 -1.229217 0
M  V30 22 C -2.361485 -2.983254 -1.939372 0
M  V30 23 C -1.816830 -3.325549 -3.250025 0
M  V30 24 C -2.615148 -3.713091 -4.324180 0
M  V30 25 C -2.070890 -4.031056 -5.539682 0
M  V30 26 C -0.723746 -3.978048 -5.738732 0
M  V30 27 C 0.112608 -3.593878 -4.688710 0
M  V30 28 C -0.439603 -3.268662 -3.444806 0
M  V30 29 C -2.409273 -1.839356 -1.169498 0
M  V30 30 C -1.804601 -0.633091 -1.699895 0
M  V30 31 C -2.561768 -0.059363 -2.725153 0
M  V30 32 C -2.132643 1.107996 -3.366592 0
M  V30 33 C -0.933534 1.664149 -2.943627 0
M  V30 34 C -0.167456 1.116328 -1.932156 0
M  V30 35 C -0.619265 -0.034983 -1.320031 0
M  V30 36 C -3.067306 -2.082782 0.022583 0
M  V30 37 C -1.598113 -0.044767 2.947651 0
M  V30 38 C -0.620920 0.484328 3.783647 0
M  V30 39 H 3.504295 2.021241 5.547763 0
M  V30 40 H 3.684205 -0.996185 5.841859 0
M  V30 41 H 5.180782 -2.780567 5.278465 0
M  V30 42 H 6.777602 -2.522049 3.490081 0
M  V30 43 H 6.945979 -0.405541 2.146791 0
M  V30 44 H 5.352471 1.450967 2.765467 0
M  V30 45 H 1.144145 2.673419 5.236330 0
M  V30 46 H 0.195257 3.304773 2.151968 0
M  V30 47 H -1.576423 2.425643 0.563713 0
M  V30 48 H -3.478415 0.584132 0.243404 0
M  V30 49 H -4.899752 -3.433749 2.935356 0
M  V30 50 H -3.694142 -3.747387 -4.135671 0
M  V30 51 H -2.756437 -4.321156 -6.315611 0
M  V30 52 H -0.268897 -4.225965 -6.686918 0
M  V30 53 H 1.206268 -3.547125 -4.831069 0
M  V30 54 H 0.251508 -2.983135 -2.686755 0
M  V30 55 H -3.506095 -0.454331 -3.091593 0
M  V30 56 H -2.725573 1.543786 -4.160039 0
M  V30 57 H -0.591328 2.569261 -3.440030 0
M  V30 58 H 0.774402 1.540321 -1.590910 0
M  V30 59 H -0.108723 -0.537381 -0.530380 0
M  V30 60 H -2.084106 -0.980842 3.190049 0
M  V30 61 H -0.392837 -0.108844 4.679385 0
M  V30 END ATOM
M  V30 BEGIN BOND
M  V30 1 2 1 2
M  V30 2 1 2 3
M  V30 3 1 3 4
M  V30 4 2 4 5
M  V30 5 1 5 6
M  V30 6 2 6 7
M  V30 7 1 7 8
M  V30 8 2 8 9
M  V30 9 1 2 10
M  V30 10 1 10 11
M  V30 11 2 11 12
M  V30 12 1 12 13
M  V30 13 2 13 14
M  V30 14 1 14 15
M  V30 15 1 15 16
M  V30 16 2 16 17
M  V30 17 1 17 18
M  V30 18 2 18 19
M  V30 19 1 19 20
M  V30 20 1 20 21
M  V30 21 1 21 22
M  V30 22 1 22 23
M  V30 23 2 23 24
M  V30 24 1 24 25
M  V30 25 2 25 26
M  V30 26 1 26 27
M  V30 27 2 27 28
M  V30 28 2 22 29
M  V30 29 1 29 30
M  V30 30 2 30 31
M  V30 31 1 31 32
M  V30 32 2 32 33
M  V30 33 1 33 34
M  V30 34 2 34 35
M  V30 35 1 29 36
M  V30 36 1 14 37
M  V30 37 2 37 38
M  V30 38 1 9 4
M  V30 39 1 38 11
M  V30 40 1 36 16
M  V30 41 2 36 20
M  V30 42 1 28 23
M  V30 43 1 35 30
M  V30 44 1 3 39
M  V30 45 1 5 40
M  V30 46 1 6 41
M  V30 47 1 7 42
M  V30 48 1 8 43
M  V30 49 1 9 44
M  V30 50 1 10 45
M  V30 51 1 12 46
M  V30 52 1 13 47
M  V30 53 1 15 48
M  V30 54 1 18 49
M  V30 55 1 24 50
M  V30 56 1 25 51
M  V30 57 1 26 52
M  V30 58 1 27 53
M  V30 59 1 28 54
M  V30 60 1 31 55
M  V30 61 1 32 56
M  V30 62 1 33 57
M  V30 63 1 34 58
M  V30 64 1 35 59
M  V30 65 1 37 60
M  V30 66 1 38 61
M  V30 END BOND
M  V30 END CTAB
M  END
>  <Dataset>  (898) 
ChEMBL_Kinases

>  <Ligand_Instance>  (898) 
nan

>  <PDB_ID>  (898) 
nan

>  <Standardized_SMILES>  (898) 
O=C(Nc1ccccc1)Nc1ccc(Nc2ncnc3oc(-c4ccccc4)c(-c4ccccc4)c23)cc1

>  <Name>  (898) 
nan

>  <Pocket>  (898) 
nan

>  <ATP_Site>  (898) 
nan

>  <Peripheral>  (898) 
nan

>  <Num_H_Atoms_ProtBoundConf>  (898) 
nan

>  <Num_Resolved_Atoms>  (898) 
nan

>  <Num_Not_Resolved_Atoms>  (898) 
nan

$$$$
CHEMBL2398644
     RDKit          3D

  0  0  0  0  0  0  0  0  0  0999 V3000
M  V30 BEGIN CTAB
M  V30 COUNTS 72 76 0 0 0
M  V30 BEGIN ATOM
M  V30 1 C 4.080940 -4.336069 -2.428757 0
M  V30 2 N 3.556887 -3.068429 -2.078163 0
M  V30 3 C 2.742084 -2.988814 -0.921317 0
M  V30 4 C 4.387076 -1.930305 -2.352764 0
M  V30 5 C 5.579536 -2.016639 -1.432542 0
M  V30 6 O 6.510327 -1.009667 -1.530359 0
M  V30 7 C 6.371001 0.313288 -1.283362 0
M  V30 8 C 7.565028 1.005093 -1.528902 0
M  V30 9 C 7.615979 2.388782 -1.327243 0
M  V30 10 C 6.518826 3.102437 -0.890247 0
M  V30 11 C 5.352118 2.422907 -0.649723 0
M  V30 12 C 4.153770 3.113430 -0.167968 0
M  V30 13 C 2.939790 2.466922 0.086671 0
M  V30 14 C 2.176614 3.533407 0.502818 0
M  V30 15 C 0.858492 3.424131 0.883654 0
M  V30 16 N -0.069115 2.401883 0.968454 0
M  V30 17 C -1.185509 1.518317 1.140401 0
M  V30 18 C -2.271432 1.957314 0.165852 0
M  V30 19 C -3.479934 1.115023 0.232319 0
M  V30 20 C -4.557701 1.363343 1.054777 0
M  V30 21 C -5.635793 0.498243 1.030526 0
M  V30 22 C -5.572716 -0.580745 0.172381 0
M  V30 23 N -6.647267 -1.541347 0.085116 0
M  V30 24 C -6.375104 -2.579338 1.024517 0
M  V30 25 O -5.325861 -2.395638 1.649324 0
M  V30 26 N -7.171438 -3.707919 1.259141 0
M  V30 27 C -6.953397 -4.766305 2.171615 0
M  V30 28 C -5.894897 -4.919561 3.027248 0
M  V30 29 C -5.715768 -5.961965 3.905209 0
M  V30 30 C -6.669484 -6.950562 3.948460 0
M  V30 31 C -7.761816 -6.843895 3.104621 0
M  V30 32 C -7.884385 -5.776048 2.247135 0
M  V30 33 C -4.511687 -0.860941 -0.663634 0
M  V30 34 C -3.437771 0.009610 -0.633422 0
M  V30 35 N 0.205994 4.558272 1.279095 0
M  V30 36 C 0.858294 5.759003 1.288833 0
M  V30 37 N 2.137589 5.781309 0.904562 0
M  V30 38 C 2.838988 4.721199 0.508552 0
M  V30 39 O 4.027037 4.371360 0.088741 0
M  V30 40 C 5.318364 1.066635 -0.852135 0
M  V30 41 H 4.947433 -4.192052 -3.117813 0
M  V30 42 H 3.357267 -5.005565 -2.947890 0
M  V30 43 H 4.499027 -4.805793 -1.510419 0
M  V30 44 H 3.268259 -3.261293 0.016440 0
M  V30 45 H 2.377274 -1.943876 -0.827261 0
M  V30 46 H 1.829198 -3.624315 -1.008807 0
M  V30 47 H 4.749468 -1.917293 -3.412352 0
M  V30 48 H 3.798217 -1.024149 -2.216865 0
M  V30 49 H 5.123908 -2.088012 -0.391246 0
M  V30 50 H 6.038569 -3.038997 -1.558809 0
M  V30 51 H 8.491573 0.591725 -1.868868 0
M  V30 52 H 8.529909 2.973978 -1.510658 0
M  V30 53 H 6.554529 4.153190 -0.736878 0
M  V30 54 H 2.649835 1.424275 -0.007844 0
M  V30 55 H 0.574088 1.647955 0.601070 0
M  V30 56 H -1.590913 1.572993 2.193385 0
M  V30 57 H -0.951512 0.465971 0.988640 0
M  V30 58 H -1.788427 1.930620 -0.834662 0
M  V30 59 H -2.540175 3.006796 0.360343 0
M  V30 60 H -4.534468 2.211670 1.689731 0
M  V30 61 H -6.502387 0.647087 1.651848 0
M  V30 62 H -7.533109 -1.631420 -0.492221 0
M  V30 63 H -8.017544 -3.715949 0.653683 0
M  V30 64 H -5.120519 -4.179978 3.040915 0
M  V30 65 H -4.865495 -6.035093 4.553107 0
M  V30 66 H -6.637345 -7.813510 4.595140 0
M  V30 67 H -8.556475 -7.579522 3.082399 0
M  V30 68 H -8.764731 -5.718470 1.588334 0
M  V30 69 H -4.484441 -1.710046 -1.325545 0
M  V30 70 H -2.602959 -0.198863 -1.282910 0
M  V30 71 H 0.490788 6.734218 1.570548 0
M  V30 72 H 4.419768 0.547865 -0.653384 0
M  V30 END ATOM
M  V30 BEGIN BOND
M  V30 1 1 1 2
M  V30 2 1 2 3
M  V30 3 1 2 4
M  V30 4 1 4 5
M  V30 5 1 5 6
M  V30 6 1 6 7
M  V30 7 2 7 8
M  V30 8 1 8 9
M  V30 9 2 9 10
M  V30 10 1 10 11
M  V30 11 1 11 12
M  V30 12 2 12 13
M  V30 13 1 13 14
M  V30 14 2 14 15
M  V30 15 1 15 16
M  V30 16 1 16 17
M  V30 17 1 17 18
M  V30 18 1 18 19
M  V30 19 2 19 20
M  V30 20 1 20 21
M  V30 21 2 21 22
M  V30 22 1 22 23
M  V30 23 1 23 24
M  V30 24 2 24 25
M  V30 25 1 24 26
M  V30 26 1 26 27
M  V30 27 2 27 28
M  V30 28 1 28 29
M  V30 29 2 29 30
M  V30 30 1 30 31
M  V30 31 2 31 32
M  V30 32 1 22 33
M  V30 33 2 33 34
M  V30 34 1 15 35
M  V30 35 2 35 36
M  V30 36 1 36 37
M  V30 37 2 37 38
M  V30 38 1 38 39
M  V30 39 2 11 40
M  V30 40 1 40 7
M  V30 41 1 39 12
M  V30 42 1 38 14
M  V30 43 1 34 19
M  V30 44 1 32 27
M  V30 45 1 1 41
M  V30 46 1 1 42
M  V30 47 1 1 43
M  V30 48 1 3 44
M  V30 49 1 3 45
M  V30 50 1 3 46
M  V30 51 1 4 47
M  V30 52 1 4 48
M  V30 53 1 5 49
M  V30 54 1 5 50
M  V30 55 1 8 51
M  V30 56 1 9 52
M  V30 57 1 10 53
M  V30 58 1 13 54
M  V30 59 1 16 55
M  V30 60 1 17 56
M  V30 61 1 17 57
M  V30 62 1 18 58
M  V30 63 1 18 59
M  V30 64 1 20 60
M  V30 65 1 21 61
M  V30 66 1 23 62
M  V30 67 1 26 63
M  V30 68 1 28 64
M  V30 69 1 29 65
M  V30 70 1 30 66
M  V30 71 1 31 67
M  V30 72 1 32 68
M  V30 73 1 33 69
M  V30 74 1 34 70
M  V30 75 1 36 71
M  V30 76 1 40 72
M  V30 END BOND
M  V30 END CTAB
M  END
>  <Dataset>  (899) 
ChEMBL_Kinases

>  <Ligand_Instance>  (899) 
nan

>  <PDB_ID>  (899) 
nan

>  <Standardized_SMILES>  (899) 
CN(C)CCOc1cccc(-c2cc3c(NCCc4ccc(NC(=O)Nc5ccccc5)cc4)ncnc3o2)c1

>  <Name>  (899) 
nan

>  <Pocket>  (899) 
nan

>  <ATP_Site>  (899) 
nan

>  <Peripheral>  (899) 
nan

>  <Num_H_Atoms_ProtBoundConf>  (899) 
nan

>  <Num_Resolved_Atoms>  (899) 
nan

>  <Num_Not_Resolved_Atoms>  (899) 
nan

$$$$
CHEMBL2398643
     RDKit          3D

  0  0  0  0  0  0  0  0  0  0999 V3000
M  V30 BEGIN CTAB
M  V30 COUNTS 75 79 0 0 0
M  V30 BEGIN ATOM
M  V30 1 C 2.343733 -4.176651 3.624948 0
M  V30 2 N 2.247583 -5.310215 2.744139 0
M  V30 3 C 0.869630 -5.404796 2.258988 0
M  V30 4 C 3.191743 -5.189933 1.625899 0
M  V30 5 C 2.780260 -4.051652 0.740049 0
M  V30 6 C 3.707028 -3.878947 -0.456011 0
M  V30 7 O 3.254311 -2.723361 -1.187640 0
M  V30 8 C 3.408025 -1.456165 -0.595670 0
M  V30 9 C 2.828521 -0.448600 -1.333580 0
M  V30 10 C 2.926981 0.823184 -0.822799 0
M  V30 11 C 3.561086 1.124261 0.351770 0
M  V30 12 C 3.555317 2.369934 1.156344 0
M  V30 13 C 2.219372 2.819426 1.141769 0
M  V30 14 C 2.147793 3.990897 1.916355 0
M  V30 15 C 0.996874 4.785626 2.197288 0
M  V30 16 N -0.293118 4.451997 1.790209 0
M  V30 17 C -1.641351 4.117606 1.373180 0
M  V30 18 C -1.616516 2.876253 0.525988 0
M  V30 19 C -2.843420 2.268739 0.048237 0
M  V30 20 C -3.280948 1.312851 0.979784 0
M  V30 21 C -4.377445 0.512707 0.631381 0
M  V30 22 C -4.910647 0.773689 -0.625683 0
M  V30 23 N -5.947646 -0.206464 -0.949088 0
M  V30 24 C -5.120543 -1.215032 -1.544702 0
M  V30 25 O -3.970554 -0.614389 -1.425141 0
M  V30 26 N -5.159953 -2.491037 -2.139835 0
M  V30 27 C -4.129048 -3.294877 -2.671745 0
M  V30 28 C -4.457185 -4.515864 -3.126889 0
M  V30 29 C -3.408455 -5.277969 -3.646794 0
M  V30 30 C -2.079127 -4.850628 -3.714107 0
M  V30 31 C -1.781243 -3.584860 -3.236037 0
M  V30 32 C -2.834138 -2.821168 -2.716258 0
M  V30 33 C -4.494052 1.707393 -1.534127 0
M  V30 34 C -3.418592 2.486120 -1.183140 0
M  V30 35 N 1.208804 5.864043 2.971319 0
M  V30 36 C 2.481299 6.090357 3.410342 0
M  V30 37 N 3.466874 5.275653 3.088147 0
M  V30 38 C 3.425928 4.199455 2.353194 0
M  V30 39 O 4.163262 3.227470 1.872420 0
M  V30 40 C 4.155670 0.095629 1.095057 0
M  V30 41 C 4.059221 -1.196868 0.586981 0
M  V30 42 H 3.410225 -3.944069 3.838926 0
M  V30 43 H 1.819391 -3.309807 3.188977 0
M  V30 44 H 1.824885 -4.380297 4.586656 0
M  V30 45 H 0.767451 -6.119047 1.420309 0
M  V30 46 H 0.487908 -4.398868 2.000937 0
M  V30 47 H 0.193071 -5.806620 3.067722 0
M  V30 48 H 3.146459 -6.135482 1.032935 0
M  V30 49 H 4.188628 -5.010521 2.019400 0
M  V30 50 H 2.606154 -3.146447 1.315572 0
M  V30 51 H 1.739967 -4.332818 0.329184 0
M  V30 52 H 3.760368 -4.777881 -1.075701 0
M  V30 53 H 4.718836 -3.637919 -0.084941 0
M  V30 54 H 2.299228 -0.502614 -2.274909 0
M  V30 55 H 2.520430 1.738949 -1.276843 0
M  V30 56 H 1.318816 2.422539 0.650666 0
M  V30 57 H -0.142983 3.571616 1.359563 0
M  V30 58 H -2.101390 4.932842 0.748520 0
M  V30 59 H -2.319634 3.970461 2.235455 0
M  V30 60 H -0.944915 2.114191 1.048542 0
M  V30 61 H -0.941451 3.150822 -0.365076 0
M  V30 62 H -2.853161 1.116760 1.965877 0
M  V30 63 H -4.761111 -0.250041 1.314315 0
M  V30 64 H -6.907680 -0.582652 -0.988602 0
M  V30 65 H -6.166618 -2.728237 -2.105810 0
M  V30 66 H -5.454467 -4.931273 -3.105712 0
M  V30 67 H -3.607172 -6.249926 -4.018961 0
M  V30 68 H -1.274731 -5.458047 -4.121385 0
M  V30 69 H -0.754078 -3.227902 -3.279654 0
M  V30 70 H -2.464595 -1.862489 -2.388293 0
M  V30 71 H -4.989302 1.822794 -2.484394 0
M  V30 72 H -3.010888 3.247182 -1.829501 0
M  V30 73 H 2.583819 6.974052 4.026809 0
M  V30 74 H 4.699875 0.187322 2.046210 0
M  V30 75 H 4.529446 -2.001502 1.129515 0
M  V30 END ATOM
M  V30 BEGIN BOND
M  V30 1 1 1 2
M  V30 2 1 2 3
M  V30 3 1 2 4
M  V30 4 1 4 5
M  V30 5 1 5 6
M  V30 6 1 6 7
M  V30 7 1 7 8
M  V30 8 2 8 9
M  V30 9 1 9 10
M  V30 10 2 10 11
M  V30 11 1 11 12
M  V30 12 2 12 13
M  V30 13 1 13 14
M  V30 14 2 14 15
M  V30 15 1 15 16
M  V30 16 1 16 17
M  V30 17 1 17 18
M  V30 18 1 18 19
M  V30 19 2 19 20
M  V30 20 1 20 21
M  V30 21 2 21 22
M  V30 22 1 22 23
M  V30 23 1 23 24
M  V30 24 2 24 25
M  V30 25 1 24 26
M  V30 26 1 26 27
M  V30 27 2 27 28
M  V30 28 1 28 29
M  V30 29 2 29 30
M  V30 30 1 30 31
M  V30 31 2 31 32
M  V30 32 1 22 33
M  V30 33 2 33 34
M  V30 34 1 15 35
M  V30 35 2 35 36
M  V30 36 1 36 37
M  V30 37 2 37 38
M  V30 38 1 38 39
M  V30 39 1 11 40
M  V30 40 2 40 41
M  V30 41 1 41 8
M  V30 42 1 39 12
M  V30 43 1 38 14
M  V30 44 1 34 19
M  V30 45 1 32 27
M  V30 46 1 1 42
M  V30 47 1 1 43
M  V30 48 1 1 44
M  V30 49 1 3 45
M  V30 50 1 3 46
M  V30 51 1 3 47
M  V30 52 1 4 48
M  V30 53 1 4 49
M  V30 54 1 5 50
M  V30 55 1 5 51
M  V30 56 1 6 52
M  V30 57 1 6 53
M  V30 58 1 9 54
M  V30 59 1 10 55
M  V30 60 1 13 56
M  V30 61 1 16 57
M  V30 62 1 17 58
M  V30 63 1 17 59
M  V30 64 1 18 60
M  V30 65 1 18 61
M  V30 66 1 20 62
M  V30 67 1 21 63
M  V30 68 1 23 64
M  V30 69 1 26 65
M  V30 70 1 28 66
M  V30 71 1 29 67
M  V30 72 1 30 68
M  V30 73 1 31 69
M  V30 74 1 32 70
M  V30 75 1 33 71
M  V30 76 1 34 72
M  V30 77 1 36 73
M  V30 78 1 40 74
M  V30 79 1 41 75
M  V30 END BOND
M  V30 END CTAB
M  END
>  <Dataset>  (900) 
ChEMBL_Kinases

>  <Ligand_Instance>  (900) 
nan

>  <PDB_ID>  (900) 
nan

>  <Standardized_SMILES>  (900) 
CN(C)CCCOc1ccc(-c2cc3c(NCCc4ccc(NC(=O)Nc5ccccc5)cc4)ncnc3o2)cc1

>  <Name>  (900) 
nan

>  <Pocket>  (900) 
nan

>  <ATP_Site>  (900) 
nan

>  <Peripheral>  (900) 
nan

>  <Num_H_Atoms_ProtBoundConf>  (900) 
nan

>  <Num_Resolved_Atoms>  (900) 
nan

>  <Num_Not_Resolved_Atoms>  (900) 
nan

$$$$
CHEMBL2398641
     RDKit          3D

  0  0  0  0  0  0  0  0  0  0999 V3000
M  V30 BEGIN CTAB
M  V30 COUNTS 79 83 0 0 0
M  V30 BEGIN ATOM
M  V30 1 C -5.909098 1.141035 -4.190218 0
M  V30 2 C -4.406710 1.186317 -4.334690 0
M  V30 3 N -3.650969 1.035475 -3.195470 0
M  V30 4 C -3.472085 -0.114693 -2.478550 0
M  V30 5 C -4.585279 -0.715839 -1.720955 0
M  V30 6 O -5.694205 -1.112850 -2.432859 0
M  V30 7 C -3.031169 2.230467 -2.640049 0
M  V30 8 C -1.950247 2.831637 -3.461673 0
M  V30 9 O -1.314182 3.955240 -2.937458 0
M  V30 10 C -0.496025 3.988112 -1.810937 0
M  V30 11 C -0.207092 2.817638 -1.126578 0
M  V30 12 C 0.591507 2.799775 -0.007395 0
M  V30 13 C 1.150602 3.959276 0.492364 0
M  V30 14 C 2.019217 4.038075 1.671969 0
M  V30 15 C 2.320983 2.881870 2.358990 0
M  V30 16 C 3.158691 3.091218 3.468914 0
M  V30 17 C 3.794733 2.387498 4.517826 0
M  V30 18 N 3.403165 1.071503 4.306479 0
M  V30 19 C 3.019172 -0.253662 4.107791 0
M  V30 20 C 4.080013 -1.313934 3.881337 0
M  V30 21 C 3.347475 -2.619768 3.616089 0
M  V30 22 C 2.930235 -3.662216 4.396896 0
M  V30 23 C 2.201794 -4.698752 3.866486 0
M  V30 24 C 1.850183 -4.756206 2.543294 0
M  V30 25 N 1.067614 -5.862425 2.138809 0
M  V30 26 C 0.495980 -6.119958 0.879011 0
M  V30 27 O 0.681558 -5.285899 -0.060577 0
M  V30 28 N -0.298541 -7.198101 0.435928 0
M  V30 29 C -0.584014 -6.904875 -0.953563 0
M  V30 30 C -1.694323 -6.118834 -1.226404 0
M  V30 31 C -2.027329 -5.787836 -2.529124 0
M  V30 32 C -1.205711 -6.276128 -3.513481 0
M  V30 33 C -0.099140 -7.061489 -3.253266 0
M  V30 34 C 0.245513 -7.399791 -1.948829 0
M  V30 35 C 2.264941 -3.728150 1.766512 0
M  V30 36 C 3.005793 -2.652582 2.247738 0
M  V30 37 N 4.523952 3.116742 5.364855 0
M  V30 38 C 4.668437 4.434591 5.253043 0
M  V30 39 N 4.070807 5.077021 4.266855 0
M  V30 40 C 3.305653 4.481833 3.344918 0
M  V30 41 O 2.640505 4.989545 2.306418 0
M  V30 42 C 0.877323 5.121580 -0.168590 0
M  V30 43 C 0.061354 5.145670 -1.311117 0
M  V30 44 H -6.275940 1.347602 -3.175878 0
M  V30 45 H -6.337100 0.215893 -4.653037 0
M  V30 46 H -6.389841 1.975281 -4.810646 0
M  V30 47 H -4.203444 2.117662 -4.936339 0
M  V30 48 H -4.108358 0.366130 -5.089620 0
M  V30 49 H -3.051638 -0.918941 -3.168920 0
M  V30 50 H -2.642418 0.093471 -1.697956 0
M  V30 51 H -4.255744 -1.642222 -1.154048 0
M  V30 52 H -4.959880 -0.056085 -0.884184 0
M  V30 53 H -5.791018 -2.063956 -2.596170 0
M  V30 54 H -3.882565 3.014680 -2.589347 0
M  V30 55 H -2.741243 2.061395 -1.614629 0
M  V30 56 H -1.136451 2.046398 -3.550279 0
M  V30 57 H -2.332702 3.098795 -4.486203 0
M  V30 58 H -0.518460 1.820470 -1.387279 0
M  V30 59 H 0.813585 1.881467 0.539902 0
M  V30 60 H 1.977092 1.865751 2.119576 0
M  V30 61 H 3.945834 0.698560 5.158249 0
M  V30 62 H 2.437198 -0.252363 3.096910 0
M  V30 63 H 2.213590 -0.655309 4.784744 0
M  V30 64 H 4.657069 -1.463291 4.787127 0
M  V30 65 H 4.729876 -1.029211 3.043070 0
M  V30 66 H 3.270059 -3.494449 5.405222 0
M  V30 67 H 1.958663 -5.455779 4.633400 0
M  V30 68 H 0.831282 -6.641463 2.795953 0
M  V30 69 H -0.490108 -7.930033 1.181014 0
M  V30 70 H -2.272611 -5.782251 -0.377273 0
M  V30 71 H -2.894932 -5.174950 -2.770836 0
M  V30 72 H -1.365285 -6.072190 -4.553688 0
M  V30 73 H 0.558029 -7.456481 -4.007749 0
M  V30 74 H 1.091562 -8.010721 -1.691207 0
M  V30 75 H 2.020410 -3.722727 0.714457 0
M  V30 76 H 3.274824 -1.893601 1.511055 0
M  V30 77 H 5.291792 4.817809 6.044711 0
M  V30 78 H 1.271065 6.105338 0.147191 0
M  V30 79 H -0.122817 6.074913 -1.794229 0
M  V30 END ATOM
M  V30 BEGIN BOND
M  V30 1 1 1 2
M  V30 2 1 2 3
M  V30 3 1 3 4
M  V30 4 1 4 5
M  V30 5 1 5 6
M  V30 6 1 3 7
M  V30 7 1 7 8
M  V30 8 1 8 9
M  V30 9 1 9 10
M  V30 10 2 10 11
M  V30 11 1 11 12
M  V30 12 2 12 13
M  V30 13 1 13 14
M  V30 14 2 14 15
M  V30 15 1 15 16
M  V30 16 2 16 17
M  V30 17 1 17 18
M  V30 18 1 18 19
M  V30 19 1 19 20
M  V30 20 1 20 21
M  V30 21 2 21 22
M  V30 22 1 22 23
M  V30 23 2 23 24
M  V30 24 1 24 25
M  V30 25 1 25 26
M  V30 26 2 26 27
M  V30 27 1 26 28
M  V30 28 1 28 29
M  V30 29 2 29 30
M  V30 30 1 30 31
M  V30 31 2 31 32
M  V30 32 1 32 33
M  V30 33 2 33 34
M  V30 34 1 24 35
M  V30 35 2 35 36
M  V30 36 1 17 37
M  V30 37 2 37 38
M  V30 38 1 38 39
M  V30 39 2 39 40
M  V30 40 1 40 41
M  V30 41 1 13 42
M  V30 42 2 42 43
M  V30 43 1 43 10
M  V30 44 1 41 14
M  V30 45 1 40 16
M  V30 46 1 36 21
M  V30 47 1 34 29
M  V30 48 1 1 44
M  V30 49 1 1 45
M  V30 50 1 1 46
M  V30 51 1 2 47
M  V30 52 1 2 48
M  V30 53 1 4 49
M  V30 54 1 4 50
M  V30 55 1 5 51
M  V30 56 1 5 52
M  V30 57 1 6 53
M  V30 58 1 7 54
M  V30 59 1 7 55
M  V30 60 1 8 56
M  V30 61 1 8 57
M  V30 62 1 11 58
M  V30 63 1 12 59
M  V30 64 1 15 60
M  V30 65 1 18 61
M  V30 66 1 19 62
M  V30 67 1 19 63
M  V30 68 1 20 64
M  V30 69 1 20 65
M  V30 70 1 22 66
M  V30 71 1 23 67
M  V30 72 1 25 68
M  V30 73 1 28 69
M  V30 74 1 30 70
M  V30 75 1 31 71
M  V30 76 1 32 72
M  V30 77 1 33 73
M  V30 78 1 34 74
M  V30 79 1 35 75
M  V30 80 1 36 76
M  V30 81 1 38 77
M  V30 82 1 42 78
M  V30 83 1 43 79
M  V30 END BOND
M  V30 END CTAB
M  END
>  <Dataset>  (901) 
ChEMBL_Kinases

>  <Ligand_Instance>  (901) 
nan

>  <PDB_ID>  (901) 
nan

>  <Standardized_SMILES>  (901) 
CCN(CCO)CCOc1ccc(-c2cc3c(NCCc4ccc(NC(=O)Nc5ccccc5)cc4)ncnc3o2)cc1

>  <Name>  (901) 
nan

>  <Pocket>  (901) 
nan

>  <ATP_Site>  (901) 
nan

>  <Peripheral>  (901) 
nan

>  <Num_H_Atoms_ProtBoundConf>  (901) 
nan

>  <Num_Resolved_Atoms>  (901) 
nan

>  <Num_Not_Resolved_Atoms>  (901) 
nan

$$$$
CHEMBL2398640
     RDKit          3D

  0  0  0  0  0  0  0  0  0  0999 V3000
M  V30 BEGIN CTAB
M  V30 COUNTS 77 82 0 0 0
M  V30 BEGIN ATOM
M  V30 1 O 4.046772 -0.325253 0.080799 0
M  V30 2 C 4.447298 -0.042522 -1.070630 0
M  V30 3 N 4.662252 -1.074967 -1.992302 0
M  V30 4 C 4.503452 -2.471596 -1.866242 0
M  V30 5 C 4.079546 -3.138642 -0.741079 0
M  V30 6 C 3.932841 -4.499638 -0.647270 0
M  V30 7 C 4.226006 -5.281948 -1.750347 0
M  V30 8 C 4.652191 -4.629998 -2.886503 0
M  V30 9 C 4.779581 -3.277869 -2.922918 0
M  V30 10 N 4.634686 1.336975 -1.290597 0
M  V30 11 C 4.306820 2.089758 -0.102870 0
M  V30 12 C 2.980379 2.513413 0.043322 0
M  V30 13 C 2.668784 3.234553 1.180733 0
M  V30 14 C 3.590951 3.553214 2.168027 0
M  V30 15 C 3.089515 4.317074 3.309294 0
M  V30 16 C 2.632022 3.518489 4.480828 0
M  V30 17 N 1.558747 2.595683 4.179344 0
M  V30 18 C 1.018173 1.828231 5.246377 0
M  V30 19 N 1.417282 1.905222 6.532353 0
M  V30 20 C 0.827921 1.132546 7.491973 0
M  V30 21 N -0.173387 0.255433 7.233183 0
M  V30 22 C -0.633934 0.115693 5.968449 0
M  V30 23 O -1.544505 -0.599016 5.366565 0
M  V30 24 C -1.613177 -0.369874 4.087572 0
M  V30 25 C -2.476786 -0.943467 3.063801 0
M  V30 26 C -3.452470 -1.879871 3.319361 0
M  V30 27 C -4.242442 -2.404972 2.326817 0
M  V30 28 C -4.096252 -2.016381 1.007165 0
M  V30 29 O -4.906383 -2.558293 0.003864 0
M  V30 30 C -4.687227 -2.109882 -1.315875 0
M  V30 31 C -5.614601 -2.751431 -2.325061 0
M  V30 32 N -5.236049 -2.164754 -3.620668 0
M  V30 33 C -3.908980 -2.669766 -3.921995 0
M  V30 34 C -3.646928 -2.745324 -5.404122 0
M  V30 35 O -4.372999 -1.691476 -5.984799 0
M  V30 36 C -5.705530 -2.129499 -5.986202 0
M  V30 37 C -6.212684 -2.480762 -4.619996 0
M  V30 38 C -3.115387 -1.068455 0.716906 0
M  V30 39 C -2.344776 -0.566833 1.743579 0
M  V30 40 C -0.650871 0.587925 3.843031 0
M  V30 41 C -0.016519 0.910437 5.027526 0
M  V30 42 C 4.887044 3.124419 1.997760 0
M  V30 43 C 5.247247 2.391155 0.860415 0
M  V30 44 H 4.994968 -0.682654 -2.909863 0
M  V30 45 H 3.834552 -2.588228 0.152932 0
M  V30 46 H 3.594745 -4.990520 0.262771 0
M  V30 47 H 4.134900 -6.364225 -1.761064 0
M  V30 48 H 4.884592 -5.215866 -3.756205 0
M  V30 49 H 5.124336 -2.834635 -3.859215 0
M  V30 50 H 4.974888 1.638104 -2.252042 0
M  V30 51 H 2.287526 2.252558 -0.738759 0
M  V30 52 H 1.602986 3.512444 1.174118 0
M  V30 53 H 2.256135 4.993950 2.992573 0
M  V30 54 H 3.874651 5.025810 3.686913 0
M  V30 55 H 2.323547 4.197329 5.299523 0
M  V30 56 H 3.494315 2.922031 4.902797 0
M  V30 57 H 1.140201 2.439823 3.239007 0
M  V30 58 H 1.177082 1.220054 8.529888 0
M  V30 59 H -3.584971 -2.198497 4.341740 0
M  V30 60 H -5.002952 -3.150710 2.598470 0
M  V30 61 H -4.706575 -1.032962 -1.457665 0
M  V30 62 H -3.641865 -2.442321 -1.590356 0
M  V30 63 H -5.453241 -3.842117 -2.323926 0
M  V30 64 H -6.670244 -2.473565 -2.153508 0
M  V30 65 H -3.126135 -1.992536 -3.508555 0
M  V30 66 H -3.767134 -3.668085 -3.456025 0
M  V30 67 H -2.565954 -2.552867 -5.618777 0
M  V30 68 H -3.997844 -3.699661 -5.841197 0
M  V30 69 H -5.756408 -3.025711 -6.641115 0
M  V30 70 H -6.306201 -1.349141 -6.499519 0
M  V30 71 H -6.550048 -3.540825 -4.567115 0
M  V30 72 H -7.096825 -1.819563 -4.432167 0
M  V30 73 H -3.012577 -0.775492 -0.313840 0
M  V30 74 H -1.606571 0.169050 1.408905 0
M  V30 75 H -0.425029 1.021128 2.882496 0
M  V30 76 H 5.608448 3.368165 2.759162 0
M  V30 77 H 6.286824 2.049016 0.725722 0
M  V30 END ATOM
M  V30 BEGIN BOND
M  V30 1 2 1 2
M  V30 2 1 2 3
M  V30 3 1 3 4
M  V30 4 2 4 5
M  V30 5 1 5 6
M  V30 6 2 6 7
M  V30 7 1 7 8
M  V30 8 2 8 9
M  V30 9 1 2 10
M  V30 10 1 10 11
M  V30 11 2 11 12
M  V30 12 1 12 13
M  V30 13 2 13 14
M  V30 14 1 14 15
M  V30 15 1 15 16
M  V30 16 1 16 17
M  V30 17 1 17 18
M  V30 18 2 18 19
M  V30 19 1 19 20
M  V30 20 2 20 21
M  V30 21 1 21 22
M  V30 22 1 22 23
M  V30 23 1 23 24
M  V30 24 1 24 25
M  V30 25 2 25 26
M  V30 26 1 26 27
M  V30 27 2 27 28
M  V30 28 1 28 29
M  V30 29 1 29 30
M  V30 30 1 30 31
M  V30 31 1 31 32
M  V30 32 1 32 33
M  V30 33 1 33 34
M  V30 34 1 34 35
M  V30 35 1 35 36
M  V30 36 1 36 37
M  V30 37 1 28 38
M  V30 38 2 38 39
M  V30 39 2 24 40
M  V30 40 1 40 41
M  V30 41 1 14 42
M  V30 42 2 42 43
M  V30 43 1 9 4
M  V30 44 1 43 11
M  V30 45 1 41 18
M  V30 46 2 41 22
M  V30 47 1 39 25
M  V30 48 1 37 32
M  V30 49 1 3 44
M  V30 50 1 5 45
M  V30 51 1 6 46
M  V30 52 1 7 47
M  V30 53 1 8 48
M  V30 54 1 9 49
M  V30 55 1 10 50
M  V30 56 1 12 51
M  V30 57 1 13 52
M  V30 58 1 15 53
M  V30 59 1 15 54
M  V30 60 1 16 55
M  V30 61 1 16 56
M  V30 62 1 17 57
M  V30 63 1 20 58
M  V30 64 1 26 59
M  V30 65 1 27 60
M  V30 66 1 30 61
M  V30 67 1 30 62
M  V30 68 1 31 63
M  V30 69 1 31 64
M  V30 70 1 33 65
M  V30 71 1 33 66
M  V30 72 1 34 67
M  V30 73 1 34 68
M  V30 74 1 36 69
M  V30 75 1 36 70
M  V30 76 1 37 71
M  V30 77 1 37 72
M  V30 78 1 38 73
M  V30 79 1 39 74
M  V30 80 1 40 75
M  V30 81 1 42 76
M  V30 82 1 43 77
M  V30 END BOND
M  V30 END CTAB
M  END
>  <Dataset>  (902) 
ChEMBL_Kinases

>  <Ligand_Instance>  (902) 
nan

>  <PDB_ID>  (902) 
nan

>  <Standardized_SMILES>  (902) 
O=C(Nc1ccccc1)Nc1ccc(CCNc2ncnc3oc(-c4ccc(OCCN5CCOCC5)cc4)cc23)cc1

>  <Name>  (902) 
nan

>  <Pocket>  (902) 
nan

>  <ATP_Site>  (902) 
nan

>  <Peripheral>  (902) 
nan

>  <Num_H_Atoms_ProtBoundConf>  (902) 
nan

>  <Num_Resolved_Atoms>  (902) 
nan

>  <Num_Not_Resolved_Atoms>  (902) 
nan

$$$$
CHEMBL2398639
     RDKit          3D

  0  0  0  0  0  0  0  0  0  0999 V3000
M  V30 BEGIN CTAB
M  V30 COUNTS 81 86 0 0 0
M  V30 BEGIN ATOM
M  V30 1 C -4.170655 -0.245771 -5.048561 0
M  V30 2 N -3.616194 1.025611 -5.492838 0
M  V30 3 C -2.884523 0.810321 -6.726145 0
M  V30 4 C -2.278163 2.141800 -7.134047 0
M  V30 5 N -1.401785 2.678210 -6.118402 0
M  V30 6 C -0.121271 2.088089 -6.229643 0
M  V30 7 C 0.909136 2.435871 -5.218223 0
M  V30 8 O 0.574555 2.064193 -3.910402 0
M  V30 9 C 1.358885 2.274633 -2.798897 0
M  V30 10 C 2.596113 2.874265 -2.674991 0
M  V30 11 C 3.205546 2.970989 -1.435276 0
M  V30 12 C 2.577982 2.464956 -0.295999 0
M  V30 13 C 3.248245 2.566538 0.998130 0
M  V30 14 C 2.717821 2.059339 2.181755 0
M  V30 15 C 3.625438 2.335202 3.190596 0
M  V30 16 C 3.535881 2.021681 4.532653 0
M  V30 17 N 2.405064 1.332286 5.052655 0
M  V30 18 C 2.252449 0.960063 6.432433 0
M  V30 19 C 0.964496 0.261584 6.761449 0
M  V30 20 C 0.742029 -0.984816 5.995583 0
M  V30 21 C 1.217854 -2.230095 6.327560 0
M  V30 22 C 0.980073 -3.361146 5.580370 0
M  V30 23 C 0.228451 -3.287242 4.428879 0
M  V30 24 N -0.139388 -4.281644 3.503096 0
M  V30 25 C -1.261456 -5.150960 3.441636 0
M  V30 26 O -2.164618 -5.167668 4.288429 0
M  V30 27 N -1.141344 -5.947974 2.275181 0
M  V30 28 C -1.902922 -6.967942 1.657397 0
M  V30 29 C -2.884144 -6.569734 0.763305 0
M  V30 30 C -3.748834 -7.395009 0.030588 0
M  V30 31 C -3.538002 -8.749297 0.282230 0
M  V30 32 C -2.585882 -9.220498 1.154041 0
M  V30 33 C -1.782511 -8.321333 1.829333 0
M  V30 34 C -0.261905 -2.023789 4.082205 0
M  V30 35 C -0.027247 -0.865688 4.834057 0
M  V30 36 N 4.577826 2.415289 5.284464 0
M  V30 37 C 5.623213 3.068771 4.736311 0
M  V30 38 N 5.680589 3.359906 3.419511 0
M  V30 39 C 4.670162 2.998024 2.586806 0
M  V30 40 O 4.393171 3.103687 1.307719 0
M  V30 41 C 1.340519 1.864279 -0.407080 0
M  V30 42 C 0.722503 1.765043 -1.658504 0
M  V30 43 C -2.048715 2.777699 -4.875921 0
M  V30 44 C -2.615139 1.422265 -4.488325 0
M  V30 45 H -3.496671 -1.109539 -5.266260 0
M  V30 46 H -5.140655 -0.482112 -5.553675 0
M  V30 47 H -4.310463 -0.273204 -3.941777 0
M  V30 48 H -2.117169 0.021349 -6.579139 0
M  V30 49 H -3.583429 0.511959 -7.513872 0
M  V30 50 H -3.097354 2.805796 -7.434771 0
M  V30 51 H -1.641634 1.999560 -8.035322 0
M  V30 52 H -0.212760 0.953641 -6.313405 0
M  V30 53 H 0.273227 2.345442 -7.268135 0
M  V30 54 H 1.205967 3.517040 -5.279467 0
M  V30 55 H 1.857343 1.890005 -5.484339 0
M  V30 56 H 2.984107 3.227628 -3.619159 0
M  V30 57 H 4.178655 3.452949 -1.410716 0
M  V30 58 H 1.773159 1.543442 2.302679 0
M  V30 59 H 1.649824 1.090022 4.384103 0
M  V30 60 H 2.217529 1.933046 7.003263 0
M  V30 61 H 3.141693 0.412813 6.824563 0
M  V30 62 H 1.036018 -0.014346 7.844037 0
M  V30 63 H 0.138110 0.988547 6.633414 0
M  V30 64 H 1.800925 -2.317753 7.213835 0
M  V30 65 H 1.332673 -4.351637 5.795978 0
M  V30 66 H 0.686442 -4.179724 2.863836 0
M  V30 67 H -0.407272 -5.973483 1.538433 0
M  V30 68 H -3.026641 -5.494529 0.582888 0
M  V30 69 H -4.475963 -6.961740 -0.637967 0
M  V30 70 H -4.224414 -9.392213 -0.299050 0
M  V30 71 H -2.491518 -10.289320 1.288136 0
M  V30 72 H -1.018170 -8.652092 2.529602 0
M  V30 73 H -0.864368 -1.858156 3.197541 0
M  V30 74 H -0.463118 0.080049 4.489070 0
M  V30 75 H 6.476866 3.399171 5.307310 0
M  V30 76 H 0.846179 1.466209 0.491172 0
M  V30 77 H -0.250641 1.272833 -1.625732 0
M  V30 78 H -1.406021 3.112960 -4.043955 0
M  V30 79 H -2.957153 3.453893 -4.948241 0
M  V30 80 H -3.032641 1.388138 -3.476689 0
M  V30 81 H -1.793483 0.686428 -4.572127 0
M  V30 END ATOM
M  V30 BEGIN BOND
M  V30 1 1 1 2
M  V30 2 1 2 3
M  V30 3 1 3 4
M  V30 4 1 4 5
M  V30 5 1 5 6
M  V30 6 1 6 7
M  V30 7 1 7 8
M  V30 8 1 8 9
M  V30 9 2 9 10
M  V30 10 1 10 11
M  V30 11 2 11 12
M  V30 12 1 12 13
M  V30 13 2 13 14
M  V30 14 1 14 15
M  V30 15 2 15 16
M  V30 16 1 16 17
M  V30 17 1 17 18
M  V30 18 1 18 19
M  V30 19 1 19 20
M  V30 20 2 20 21
M  V30 21 1 21 22
M  V30 22 2 22 23
M  V30 23 1 23 24
M  V30 24 1 24 25
M  V30 25 2 25 26
M  V30 26 1 25 27
M  V30 27 1 27 28
M  V30 28 2 28 29
M  V30 29 1 29 30
M  V30 30 2 30 31
M  V30 31 1 31 32
M  V30 32 2 32 33
M  V30 33 1 23 34
M  V30 34 2 34 35
M  V30 35 1 16 36
M  V30 36 2 36 37
M  V30 37 1 37 38
M  V30 38 2 38 39
M  V30 39 1 39 40
M  V30 40 1 12 41
M  V30 41 2 41 42
M  V30 42 1 5 43
M  V30 43 1 43 44
M  V30 44 1 44 2
M  V30 45 1 42 9
M  V30 46 1 40 13
M  V30 47 1 39 15
M  V30 48 1 35 20
M  V30 49 1 33 28
M  V30 50 1 1 45
M  V30 51 1 1 46
M  V30 52 1 1 47
M  V30 53 1 3 48
M  V30 54 1 3 49
M  V30 55 1 4 50
M  V30 56 1 4 51
M  V30 57 1 6 52
M  V30 58 1 6 53
M  V30 59 1 7 54
M  V30 60 1 7 55
M  V30 61 1 10 56
M  V30 62 1 11 57
M  V30 63 1 14 58
M  V30 64 1 17 59
M  V30 65 1 18 60
M  V30 66 1 18 61
M  V30 67 1 19 62
M  V30 68 1 19 63
M  V30 69 1 21 64
M  V30 70 1 22 65
M  V30 71 1 24 66
M  V30 72 1 27 67
M  V30 73 1 29 68
M  V30 74 1 30 69
M  V30 75 1 31 70
M  V30 76 1 32 71
M  V30 77 1 33 72
M  V30 78 1 34 73
M  V30 79 1 35 74
M  V30 80 1 37 75
M  V30 81 1 41 76
M  V30 82 1 42 77
M  V30 83 1 43 78
M  V30 84 1 43 79
M  V30 85 1 44 80
M  V30 86 1 44 81
M  V30 END BOND
M  V30 END CTAB
M  END
>  <Dataset>  (903) 
ChEMBL_Kinases

>  <Ligand_Instance>  (903) 
nan

>  <PDB_ID>  (903) 
nan

>  <Standardized_SMILES>  (903) 
CN1CCN(CCOc2ccc(-c3cc4c(NCCc5ccc(NC(=O)Nc6ccccc6)cc5)ncnc4o3)cc2)CC1

>  <Name>  (903) 
nan

>  <Pocket>  (903) 
nan

>  <ATP_Site>  (903) 
nan

>  <Peripheral>  (903) 
nan

>  <Num_H_Atoms_ProtBoundConf>  (903) 
nan

>  <Num_Resolved_Atoms>  (903) 
nan

>  <Num_Not_Resolved_Atoms>  (903) 
nan

$$$$
CHEMBL2398638
     RDKit          3D

  0  0  0  0  0  0  0  0  0  0999 V3000
M  V30 BEGIN CTAB
M  V30 COUNTS 79 84 0 0 0
M  V30 BEGIN ATOM
M  V30 1 O 3.852984 -0.058173 -1.187516 0
M  V30 2 C 4.912413 -0.721012 -1.035822 0
M  V30 3 N 5.113397 -2.100913 -1.343754 0
M  V30 4 C 4.001755 -2.831416 -1.875749 0
M  V30 5 C 3.291693 -3.386843 -0.806758 0
M  V30 6 C 2.153401 -4.152637 -1.058856 0
M  V30 7 C 1.709504 -4.375558 -2.350274 0
M  V30 8 C 2.440820 -3.807300 -3.379914 0
M  V30 9 C 3.555350 -3.056005 -3.158330 0
M  V30 10 N 5.956765 0.101055 -0.488985 0
M  V30 11 C 5.531206 1.454796 -0.256517 0
M  V30 12 C 4.957765 1.590476 1.013195 0
M  V30 13 C 4.489415 2.828497 1.419145 0
M  V30 14 C 4.549461 3.950845 0.648781 0
M  V30 15 C 4.059118 5.301771 1.006591 0
M  V30 16 C 2.658814 5.454145 0.468977 0
M  V30 17 N 1.820762 4.440977 1.058191 0
M  V30 18 C 1.543620 4.306226 2.445129 0
M  V30 19 N 2.067985 5.139121 3.361395 0
M  V30 20 C 1.765033 4.945371 4.675752 0
M  V30 21 N 0.952265 3.942834 5.107863 0
M  V30 22 C 0.399548 3.079159 4.231086 0
M  V30 23 O -0.396891 2.041427 4.297735 0
M  V30 24 C -0.644548 1.533217 3.127970 0
M  V30 25 C -1.462038 0.394249 2.727050 0
M  V30 26 C -1.614349 0.027342 1.408864 0
M  V30 27 C -2.381343 -1.045122 1.014711 0
M  V30 28 C -3.043417 -1.814517 1.929574 0
M  V30 29 O -3.849418 -2.897949 1.840415 0
M  V30 30 C -4.310590 -3.624204 0.767725 0
M  V30 31 C -5.156432 -2.906678 -0.232835 0
M  V30 32 N -5.539623 -3.813022 -1.262471 0
M  V30 33 C -6.433172 -4.855685 -0.906419 0
M  V30 34 C -7.143309 -5.487494 -2.062705 0
M  V30 35 C -6.509766 -5.208593 -3.400893 0
M  V30 36 C -5.010683 -5.092686 -3.285127 0
M  V30 37 C -4.550314 -4.125209 -2.236870 0
M  V30 38 C -2.911400 -1.470963 3.284214 0
M  V30 39 C -2.124937 -0.373559 3.669163 0
M  V30 40 C 0.058353 2.315628 2.213320 0
M  V30 41 C 0.723100 3.299092 2.911425 0
M  V30 42 C 5.120884 3.770632 -0.591547 0
M  V30 43 C 5.606527 2.569210 -1.058849 0
M  V30 44 H 6.092606 -2.441126 -1.139014 0
M  V30 45 H 3.502210 -3.311521 0.267571 0
M  V30 46 H 1.556788 -4.610295 -0.262550 0
M  V30 47 H 0.828857 -4.969711 -2.547973 0
M  V30 48 H 2.165890 -3.929037 -4.419287 0
M  V30 49 H 4.204976 -2.568004 -3.866518 0
M  V30 50 H 6.908967 -0.313645 -0.304396 0
M  V30 51 H 4.845811 0.784205 1.731436 0
M  V30 52 H 4.050398 2.925520 2.411395 0
M  V30 53 H 4.680394 6.103914 0.546408 0
M  V30 54 H 4.048600 5.467841 2.103499 0
M  V30 55 H 2.647617 5.337660 -0.644937 0
M  V30 56 H 2.260314 6.483137 0.660069 0
M  V30 57 H 1.369438 3.735376 0.414171 0
M  V30 58 H 2.188415 5.619545 5.423615 0
M  V30 59 H -1.113257 0.597663 0.616841 0
M  V30 60 H -2.517565 -1.362698 0.010843 0
M  V30 61 H -3.445322 -4.151018 0.276627 0
M  V30 62 H -4.941022 -4.457115 1.174076 0
M  V30 63 H -6.116523 -2.546393 0.240059 0
M  V30 64 H -4.646591 -2.058516 -0.690220 0
M  V30 65 H -7.211895 -4.414599 -0.235472 0
M  V30 66 H -5.928737 -5.617762 -0.280509 0
M  V30 67 H -7.139610 -6.586147 -1.917285 0
M  V30 68 H -8.212418 -5.192077 -2.114847 0
M  V30 69 H -6.703727 -6.027223 -4.135961 0
M  V30 70 H -6.923451 -4.282364 -3.855440 0
M  V30 71 H -4.513156 -6.073991 -3.189261 0
M  V30 72 H -4.673354 -4.687532 -4.282078 0
M  V30 73 H -3.693735 -4.607129 -1.693673 0
M  V30 74 H -4.120256 -3.196328 -2.693204 0
M  V30 75 H -3.351016 -1.950168 4.166889 0
M  V30 76 H -1.981895 -0.057950 4.694914 0
M  V30 77 H 0.083694 2.181490 1.132324 0
M  V30 78 H 5.247172 4.566717 -1.334582 0
M  V30 79 H 6.062129 2.352466 -2.007813 0
M  V30 END ATOM
M  V30 BEGIN BOND
M  V30 1 2 1 2
M  V30 2 1 2 3
M  V30 3 1 3 4
M  V30 4 2 4 5
M  V30 5 1 5 6
M  V30 6 2 6 7
M  V30 7 1 7 8
M  V30 8 2 8 9
M  V30 9 1 2 10
M  V30 10 1 10 11
M  V30 11 2 11 12
M  V30 12 1 12 13
M  V30 13 2 13 14
M  V30 14 1 14 15
M  V30 15 1 15 16
M  V30 16 1 16 17
M  V30 17 1 17 18
M  V30 18 2 18 19
M  V30 19 1 19 20
M  V30 20 2 20 21
M  V30 21 1 21 22
M  V30 22 1 22 23
M  V30 23 1 23 24
M  V30 24 1 24 25
M  V30 25 2 25 26
M  V30 26 1 26 27
M  V30 27 2 27 28
M  V30 28 1 28 29
M  V30 29 1 29 30
M  V30 30 1 30 31
M  V30 31 1 31 32
M  V30 32 1 32 33
M  V30 33 1 33 34
M  V30 34 1 34 35
M  V30 35 1 35 36
M  V30 36 1 36 37
M  V30 37 1 28 38
M  V30 38 2 38 39
M  V30 39 2 24 40
M  V30 40 1 40 41
M  V30 41 1 14 42
M  V30 42 2 42 43
M  V30 43 1 9 4
M  V30 44 1 43 11
M  V30 45 1 41 18
M  V30 46 2 41 22
M  V30 47 1 39 25
M  V30 48 1 37 32
M  V30 49 1 3 44
M  V30 50 1 5 45
M  V30 51 1 6 46
M  V30 52 1 7 47
M  V30 53 1 8 48
M  V30 54 1 9 49
M  V30 55 1 10 50
M  V30 56 1 12 51
M  V30 57 1 13 52
M  V30 58 1 15 53
M  V30 59 1 15 54
M  V30 60 1 16 55
M  V30 61 1 16 56
M  V30 62 1 17 57
M  V30 63 1 20 58
M  V30 64 1 26 59
M  V30 65 1 27 60
M  V30 66 1 30 61
M  V30 67 1 30 62
M  V30 68 1 31 63
M  V30 69 1 31 64
M  V30 70 1 33 65
M  V30 71 1 33 66
M  V30 72 1 34 67
M  V30 73 1 34 68
M  V30 74 1 35 69
M  V30 75 1 35 70
M  V30 76 1 36 71
M  V30 77 1 36 72
M  V30 78 1 37 73
M  V30 79 1 37 74
M  V30 80 1 38 75
M  V30 81 1 39 76
M  V30 82 1 40 77
M  V30 83 1 42 78
M  V30 84 1 43 79
M  V30 END BOND
M  V30 END CTAB
M  END
>  <Dataset>  (904) 
ChEMBL_Kinases

>  <Ligand_Instance>  (904) 
nan

>  <PDB_ID>  (904) 
nan

>  <Standardized_SMILES>  (904) 
O=C(Nc1ccccc1)Nc1ccc(CCNc2ncnc3oc(-c4ccc(OCCN5CCCCC5)cc4)cc23)cc1

>  <Name>  (904) 
nan

>  <Pocket>  (904) 
nan

>  <ATP_Site>  (904) 
nan

>  <Peripheral>  (904) 
nan

>  <Num_H_Atoms_ProtBoundConf>  (904) 
nan

>  <Num_Resolved_Atoms>  (904) 
nan

>  <Num_Not_Resolved_Atoms>  (904) 
nan

$$$$
CHEMBL2398100
     RDKit          3D

  0  0  0  0  0  0  0  0  0  0999 V3000
M  V30 BEGIN CTAB
M  V30 COUNTS 15 16 0 0 0
M  V30 BEGIN ATOM
M  V30 1 O -0.436853 -3.487787 1.925540 0
M  V30 2 C -0.016281 -2.199285 1.586899 0
M  V30 3 N 1.070739 -1.725467 1.575600 0
M  V30 4 C 1.389842 -0.483500 1.238714 0
M  V30 5 C 2.638678 0.101292 1.213498 0
M  V30 6 C 2.748230 1.417054 0.828842 0
M  V30 7 C 1.713148 2.243673 0.453128 0
M  V30 8 Br 1.875377 4.061150 -0.076876 0
M  V30 9 C 0.455365 1.688926 0.468169 0
M  V30 10 C 0.303467 0.375657 0.846926 0
M  V30 11 S -1.128944 -0.739824 1.010352 0
M  V30 12 H -1.136216 -3.638851 2.654714 0
M  V30 13 H 3.546459 -0.395653 1.474043 0
M  V30 14 H 3.738397 1.900113 0.802987 0
M  V30 15 H -0.470647 2.181339 0.206784 0
M  V30 END ATOM
M  V30 BEGIN BOND
M  V30 1 1 1 2
M  V30 2 2 2 3
M  V30 3 1 3 4
M  V30 4 2 4 5
M  V30 5 1 5 6
M  V30 6 2 6 7
M  V30 7 1 7 8
M  V30 8 1 7 9
M  V30 9 2 9 10
M  V30 10 1 10 11
M  V30 11 1 11 2
M  V30 12 1 10 4
M  V30 13 1 1 12
M  V30 14 1 5 13
M  V30 15 1 6 14
M  V30 16 1 9 15
M  V30 END BOND
M  V30 END CTAB
M  END
>  <Dataset>  (905) 
ChEMBL_Kinases

>  <Ligand_Instance>  (905) 
nan

>  <PDB_ID>  (905) 
nan

>  <Standardized_SMILES>  (905) 
Oc1nc2ccc(Br)cc2s1

>  <Name>  (905) 
nan

>  <Pocket>  (905) 
nan

>  <ATP_Site>  (905) 
nan

>  <Peripheral>  (905) 
nan

>  <Num_H_Atoms_ProtBoundConf>  (905) 
nan

>  <Num_Resolved_Atoms>  (905) 
nan

>  <Num_Not_Resolved_Atoms>  (905) 
nan

$$$$
CHEMBL2397600
     RDKit          3D

  0  0  0  0  0  0  0  0  0  0999 V3000
M  V30 BEGIN CTAB
M  V30 COUNTS 27 30 0 0 0
M  V30 BEGIN ATOM
M  V30 1 O 2.033660 -3.901836 2.912964 0
M  V30 2 N 1.117121 -3.551694 2.173261 0 CHG=1 VAL=4
M  V30 3 O 0.021480 -4.400639 2.244038 0 CHG=-1 VAL=1
M  V30 4 C 1.111689 -2.415882 1.314468 0
M  V30 5 C 2.254730 -1.863023 0.776187 0
M  V30 6 C 2.266170 -0.764934 -0.055765 0
M  V30 7 C 3.275851 -0.070767 -0.686846 0
M  V30 8 N 2.645973 0.908532 -1.361527 0
M  V30 9 N 1.346617 0.835012 -1.169567 0
M  V30 10 C 1.058150 -0.179267 -0.371970 0
M  V30 11 C -0.096908 -0.705141 0.147174 0
M  V30 12 C -0.085066 -1.805862 0.978670 0
M  V30 13 N -1.360055 -2.087705 1.326331 0
M  V30 14 C -2.160295 -1.179492 0.723564 0
M  V30 15 C -3.554318 -1.062138 0.781988 0
M  V30 16 C -4.208849 -0.060296 0.093273 0
M  V30 17 C -3.458526 0.819123 -0.651163 0
M  V30 18 Cl -4.251921 2.100349 -1.536326 0
M  V30 19 C -2.086233 0.680843 -0.691453 0
M  V30 20 C -1.400859 -0.299826 -0.022045 0
M  V30 21 H 3.211039 -2.336386 1.033843 0
M  V30 22 H 4.319068 -0.353075 -0.582807 0
M  V30 23 H 0.758525 1.523291 -1.628497 0
M  V30 24 H -1.714820 -2.862819 1.950318 0
M  V30 25 H -4.160670 -1.763377 1.376513 0
M  V30 26 H -5.283133 0.036731 0.133170 0
M  V30 27 H -1.553120 1.381187 -1.277333 0
M  V30 END ATOM
M  V30 BEGIN BOND
M  V30 1 2 1 2
M  V30 2 1 2 3
M  V30 3 1 2 4
M  V30 4 2 4 5
M  V30 5 1 5 6
M  V30 6 1 6 7
M  V30 7 2 7 8
M  V30 8 1 8 9
M  V30 9 1 9 10
M  V30 10 1 10 11
M  V30 11 2 11 12
M  V30 12 1 12 13
M  V30 13 1 13 14
M  V30 14 2 14 15
M  V30 15 1 15 16
M  V30 16 2 16 17
M  V30 17 1 17 18
M  V30 18 1 17 19
M  V30 19 2 19 20
M  V30 20 1 12 4
M  V30 21 1 20 14
M  V30 22 2 10 6
M  V30 23 1 20 11
M  V30 24 1 5 21
M  V30 25 1 7 22
M  V30 26 1 9 23
M  V30 27 1 13 24
M  V30 28 1 15 25
M  V30 29 1 16 26
M  V30 30 1 19 27
M  V30 END BOND
M  V30 END CTAB
M  END
>  <Dataset>  (906) 
ChEMBL_Kinases

>  <Ligand_Instance>  (906) 
nan

>  <PDB_ID>  (906) 
nan

>  <Standardized_SMILES>  (906) 
O=[N+]([O-])c1cc2cn[nH]c2c2c1[nH]c1ccc(Cl)cc12

>  <Name>  (906) 
nan

>  <Pocket>  (906) 
nan

>  <ATP_Site>  (906) 
nan

>  <Peripheral>  (906) 
nan

>  <Num_H_Atoms_ProtBoundConf>  (906) 
nan

>  <Num_Resolved_Atoms>  (906) 
nan

>  <Num_Not_Resolved_Atoms>  (906) 
nan

$$$$
CHEMBL2397527
     RDKit          3D

  0  0  0  0  0  0  0  0  0  0999 V3000
M  V30 BEGIN CTAB
M  V30 COUNTS 31 34 0 0 0
M  V30 BEGIN ATOM
M  V30 1 C -2.718026 -1.579620 4.101428 0
M  V30 2 O -1.916164 -2.720216 3.781128 0
M  V30 3 C -0.966032 -2.625880 2.747072 0
M  V30 4 C -0.165932 -3.713746 2.404711 0
M  V30 5 C 0.752353 -3.557913 1.376078 0
M  V30 6 C 0.854268 -2.350066 0.722980 0
M  V30 7 N 1.693340 -2.032036 -0.296220 0
M  V30 8 C 1.472266 -0.749148 -0.646138 0
M  V30 9 C 2.016843 0.093376 -1.595403 0
M  V30 10 N 3.047442 -0.388522 -2.451856 0
M  V30 11 C 1.587845 1.400556 -1.739398 0
M  V30 12 C 0.581766 1.861719 -0.898600 0
M  V30 13 N 0.008938 3.070834 -0.848184 0
M  V30 14 N -0.887824 2.980806 0.127996 0
M  V30 15 C -0.890130 1.757173 0.684082 0
M  V30 16 C 0.044588 1.017504 0.043738 0
M  V30 17 C 0.478052 -0.258268 0.168822 0
M  V30 18 C 0.079472 -1.251345 1.034024 0
M  V30 19 C -0.821458 -1.437666 2.058362 0
M  V30 20 H -3.353628 -1.281230 3.257739 0
M  V30 21 H -1.980532 -0.766515 4.319319 0
M  V30 22 H -3.260907 -1.823600 5.035140 0
M  V30 23 H -0.320861 -4.619289 2.976294 0
M  V30 24 H 1.335650 -4.436920 1.165439 0
M  V30 25 H 2.406454 -2.629484 -0.769775 0
M  V30 26 H 2.872009 -1.275412 -2.980499 0
M  V30 27 H 4.011518 -0.144233 -2.769201 0
M  V30 28 H 2.018510 2.053875 -2.484292 0
M  V30 29 H 0.187871 3.925031 -1.421361 0
M  V30 30 H -1.565790 1.561427 1.477437 0
M  V30 31 H -1.447264 -0.605507 2.334601 0
M  V30 END ATOM
M  V30 BEGIN BOND
M  V30 1 1 1 2
M  V30 2 1 2 3
M  V30 3 2 3 4
M  V30 4 1 4 5
M  V30 5 2 5 6
M  V30 6 1 6 7
M  V30 7 1 7 8
M  V30 8 2 8 9
M  V30 9 1 9 10
M  V30 10 1 9 11
M  V30 11 2 11 12
M  V30 12 1 12 13
M  V30 13 1 13 14
M  V30 14 2 14 15
M  V30 15 1 15 16
M  V30 16 2 16 17
M  V30 17 1 17 18
M  V30 18 2 18 19
M  V30 19 1 19 3
M  V30 20 1 18 6
M  V30 21 1 17 8
M  V30 22 1 16 12
M  V30 23 1 1 20
M  V30 24 1 1 21
M  V30 25 1 1 22
M  V30 26 1 4 23
M  V30 27 1 5 24
M  V30 28 1 7 25
M  V30 29 1 10 26
M  V30 30 1 10 27
M  V30 31 1 11 28
M  V30 32 1 13 29
M  V30 33 1 15 30
M  V30 34 1 19 31
M  V30 END BOND
M  V30 END CTAB
M  END
>  <Dataset>  (907) 
ChEMBL_Kinases

>  <Ligand_Instance>  (907) 
nan

>  <PDB_ID>  (907) 
nan

>  <Standardized_SMILES>  (907) 
COc1ccc2[nH]c3c(N)cc4[nH]ncc4c3c2c1

>  <Name>  (907) 
nan

>  <Pocket>  (907) 
nan

>  <ATP_Site>  (907) 
nan

>  <Peripheral>  (907) 
nan

>  <Num_H_Atoms_ProtBoundConf>  (907) 
nan

>  <Num_Resolved_Atoms>  (907) 
nan

>  <Num_Not_Resolved_Atoms>  (907) 
nan

$$$$
CHEMBL2397521
     RDKit          3D

  0  0  0  0  0  0  0  0  0  0999 V3000
M  V30 BEGIN CTAB
M  V30 COUNTS 31 34 0 0 0
M  V30 BEGIN ATOM
M  V30 1 C -2.655442 -2.109226 4.096495 0
M  V30 2 O -1.744036 -3.066682 3.612904 0
M  V30 3 C -0.831159 -2.803506 2.598998 0
M  V30 4 C 0.036017 -3.795867 2.174132 0
M  V30 5 C 0.948900 -3.555387 1.170059 0
M  V30 6 C 0.973140 -2.289704 0.597786 0
M  V30 7 N 1.777960 -1.817775 -0.400031 0
M  V30 8 C 1.488706 -0.532810 -0.671621 0
M  V30 9 C 1.979871 0.405249 -1.562206 0
M  V30 10 N 3.037118 -0.053687 -2.405530 0
M  V30 11 C 1.458224 1.702994 -1.610252 0
M  V30 12 C 0.432853 2.011687 -0.733234 0
M  V30 13 C -0.255537 3.214478 -0.575762 0
M  V30 14 N -1.135305 2.935787 0.412221 0
M  V30 15 N -0.990914 1.685507 0.811575 0
M  V30 16 C -0.040635 1.061101 0.145355 0
M  V30 17 C 0.467874 -0.191068 0.186602 0
M  V30 18 C 0.133326 -1.264342 0.981384 0
M  V30 19 C -0.753207 -1.570053 1.987742 0
M  V30 20 H -3.093418 -1.481285 3.280482 0
M  V30 21 H -2.083413 -1.446138 4.767592 0
M  V30 22 H -3.483720 -2.629758 4.632751 0
M  V30 23 H -0.037125 -4.770563 2.668536 0
M  V30 24 H 1.613101 -4.332275 0.851920 0
M  V30 25 H 2.519420 -2.393966 -0.881288 0
M  V30 26 H 2.550001 -0.512420 -3.207712 0
M  V30 27 H 4.093121 -0.046758 -2.421103 0
M  V30 28 H 1.894305 2.393722 -2.339382 0
M  V30 29 H -0.080321 4.126653 -1.143683 0
M  V30 30 H -1.637191 1.401002 1.571916 0
M  V30 31 H -1.427875 -0.799220 2.318813 0
M  V30 END ATOM
M  V30 BEGIN BOND
M  V30 1 1 1 2
M  V30 2 1 2 3
M  V30 3 2 3 4
M  V30 4 1 4 5
M  V30 5 2 5 6
M  V30 6 1 6 7
M  V30 7 1 7 8
M  V30 8 2 8 9
M  V30 9 1 9 10
M  V30 10 1 9 11
M  V30 11 2 11 12
M  V30 12 1 12 13
M  V30 13 2 13 14
M  V30 14 1 14 15
M  V30 15 1 15 16
M  V30 16 2 16 17
M  V30 17 1 17 18
M  V30 18 2 18 19
M  V30 19 1 19 3
M  V30 20 1 18 6
M  V30 21 1 17 8
M  V30 22 1 16 12
M  V30 23 1 1 20
M  V30 24 1 1 21
M  V30 25 1 1 22
M  V30 26 1 4 23
M  V30 27 1 5 24
M  V30 28 1 7 25
M  V30 29 1 10 26
M  V30 30 1 10 27
M  V30 31 1 11 28
M  V30 32 1 13 29
M  V30 33 1 15 30
M  V30 34 1 19 31
M  V30 END BOND
M  V30 END CTAB
M  END
>  <Dataset>  (908) 
ChEMBL_Kinases

>  <Ligand_Instance>  (908) 
nan

>  <PDB_ID>  (908) 
nan

>  <Standardized_SMILES>  (908) 
COc1ccc2[nH]c3c(N)cc4cn[nH]c4c3c2c1

>  <Name>  (908) 
nan

>  <Pocket>  (908) 
nan

>  <ATP_Site>  (908) 
nan

>  <Peripheral>  (908) 
nan

>  <Num_H_Atoms_ProtBoundConf>  (908) 
nan

>  <Num_Resolved_Atoms>  (908) 
nan

>  <Num_Not_Resolved_Atoms>  (908) 
nan

$$$$
CHEMBL239737
     RDKit          3D

  0  0  0  0  0  0  0  0  0  0999 V3000
M  V30 BEGIN CTAB
M  V30 COUNTS 44 48 0 0 0
M  V30 BEGIN ATOM
M  V30 1 O 3.371958 0.689358 -0.432778 0
M  V30 2 C 2.194109 1.040926 -0.697174 0
M  V30 3 N 1.959974 2.042314 -1.672615 0
M  V30 4 C 2.959084 2.718711 -2.413979 0
M  V30 5 C 3.587649 3.891243 -2.045876 0
M  V30 6 C 4.560102 4.465056 -2.861971 0
M  V30 7 C 4.894722 3.836849 -4.065224 0
M  V30 8 O 5.874046 4.483331 -4.810425 0
M  V30 9 C 4.257958 2.662146 -4.423461 0
M  V30 10 C 3.293629 2.089848 -3.617852 0
M  V30 11 O 2.715240 0.904483 -4.075476 0
M  V30 12 C 1.112201 0.383226 0.031521 0
M  V30 13 C 1.422106 -0.582199 0.966147 0
M  V30 14 C 0.444028 -1.236088 1.683571 0
M  V30 15 C -0.892158 -0.960047 1.504974 0
M  V30 16 C -2.013661 -1.473792 2.093646 0
M  V30 17 C -2.211587 -2.485577 3.110089 0
M  V30 18 N -3.449982 -2.827942 3.536810 0
M  V30 19 C -3.422530 -3.775397 4.473416 0
M  V30 20 C -4.473570 -4.386839 5.153403 0
M  V30 21 C -4.099321 -5.356868 6.087826 0
M  V30 22 C -2.760886 -5.667886 6.301282 0
M  V30 23 C -1.754197 -5.030366 5.598594 0
M  V30 24 C -2.097848 -4.084012 4.685455 0
M  V30 25 N -1.437782 -3.283828 3.846123 0
M  V30 26 N -3.003790 -0.780148 1.476615 0
M  V30 27 N -2.511802 0.065477 0.603781 0
M  V30 28 C -1.167708 0.002339 0.570921 0
M  V30 29 C -0.221174 0.672789 -0.160673 0
M  V30 30 H 0.989619 2.347612 -1.905898 0
M  V30 31 H 3.276291 4.321314 -1.098810 0
M  V30 32 H 5.038022 5.397788 -2.536085 0
M  V30 33 H 5.787439 4.615264 -5.814361 0
M  V30 34 H 4.614790 2.287184 -5.377067 0
M  V30 35 H 3.044583 0.018985 -3.714286 0
M  V30 36 H 2.462467 -0.842576 1.150256 0
M  V30 37 H 0.754807 -1.975110 2.393804 0
M  V30 38 H -5.496774 -4.117374 4.958802 0
M  V30 39 H -4.898345 -5.860896 6.643591 0
M  V30 40 H -2.515999 -6.425242 7.034175 0
M  V30 41 H -0.710492 -5.246081 5.738487 0
M  V30 42 H -0.417207 -3.309916 3.799810 0
M  V30 43 H -3.153171 0.678740 0.041639 0
M  V30 44 H -0.506954 1.422381 -0.883140 0
M  V30 END ATOM
M  V30 BEGIN BOND
M  V30 1 2 1 2
M  V30 2 1 2 3
M  V30 3 1 3 4
M  V30 4 2 4 5
M  V30 5 1 5 6
M  V30 6 2 6 7
M  V30 7 1 7 8
M  V30 8 1 7 9
M  V30 9 2 9 10
M  V30 10 1 10 11
M  V30 11 1 2 12
M  V30 12 2 12 13
M  V30 13 1 13 14
M  V30 14 2 14 15
M  V30 15 1 15 16
M  V30 16 1 16 17
M  V30 17 2 17 18
M  V30 18 1 18 19
M  V30 19 2 19 20
M  V30 20 1 20 21
M  V30 21 2 21 22
M  V30 22 1 22 23
M  V30 23 2 23 24
M  V30 24 1 24 25
M  V30 25 2 16 26
M  V30 26 1 26 27
M  V30 27 1 27 28
M  V30 28 2 28 29
M  V30 29 1 10 4
M  V30 30 1 29 12
M  V30 31 1 28 15
M  V30 32 1 25 17
M  V30 33 1 24 19
M  V30 34 1 3 30
M  V30 35 1 5 31
M  V30 36 1 6 32
M  V30 37 1 8 33
M  V30 38 1 9 34
M  V30 39 1 11 35
M  V30 40 1 13 36
M  V30 41 1 14 37
M  V30 42 1 20 38
M  V30 43 1 21 39
M  V30 44 1 22 40
M  V30 45 1 23 41
M  V30 46 1 25 42
M  V30 47 1 27 43
M  V30 48 1 29 44
M  V30 END BOND
M  V30 END CTAB
M  END
>  <Dataset>  (909) 
ChEMBL_Kinases

>  <Ligand_Instance>  (909) 
nan

>  <PDB_ID>  (909) 
nan

>  <Standardized_SMILES>  (909) 
O=C(Nc1ccc(O)cc1O)c1ccc2c(-c3nc4ccccc4[nH]3)n[nH]c2c1

>  <Name>  (909) 
nan

>  <Pocket>  (909) 
nan

>  <ATP_Site>  (909) 
nan

>  <Peripheral>  (909) 
nan

>  <Num_H_Atoms_ProtBoundConf>  (909) 
nan

>  <Num_Resolved_Atoms>  (909) 
nan

>  <Num_Not_Resolved_Atoms>  (909) 
nan

$$$$
CHEMBL2393432
     RDKit          3D

  0  0  0  0  0  0  0  0  0  0999 V3000
M  V30 BEGIN CTAB
M  V30 COUNTS 45 47 0 0 0
M  V30 BEGIN ATOM
M  V30 1 C -1.255437 -3.811074 2.974747 0
M  V30 2 O -1.664953 -3.354638 1.704046 0
M  V30 3 C -0.831992 -2.636431 0.866427 0
M  V30 4 C 0.461459 -2.342453 1.267096 0
M  V30 5 C 1.262441 -1.622307 0.401635 0
M  V30 6 C 0.835418 -1.183516 -0.838032 0
M  V30 7 C 1.697514 -0.406543 -1.711879 0
M  V30 8 C 1.851425 -0.973284 -2.968712 0
M  V30 9 S 2.949700 0.092692 -3.830647 0
M  V30 10 C 3.181151 1.270705 -2.501970 0
M  V30 11 N 3.968361 2.432821 -2.482115 0
M  V30 12 C 2.393357 0.744969 -1.505981 0
M  V30 13 C 2.273557 1.433802 -0.233052 0
M  V30 14 O 2.876086 2.488673 0.054592 0
M  V30 15 O 1.534272 1.135628 0.882144 0
M  V30 16 C 1.500588 1.894378 2.074002 0
M  V30 17 C 0.567404 1.224943 3.049110 0
M  V30 18 C 0.912848 0.463931 4.159946 0
M  V30 19 C -0.103515 -0.062364 4.923744 0
M  V30 20 C -1.430294 0.124492 4.646460 0
M  V30 21 C -1.755064 0.888891 3.530890 0
M  V30 22 C -0.770349 1.438033 2.733967 0
M  V30 23 F -1.231496 2.157712 1.683835 0
M  V30 24 C -0.468733 -1.492079 -1.217564 0
M  V30 25 C -1.293033 -2.215619 -0.363877 0
M  V30 26 O -2.586243 -2.545120 -0.691419 0
M  V30 27 C -3.273330 -2.238111 -1.860607 0
M  V30 28 H -0.535807 -4.632919 2.884081 0
M  V30 29 H -0.752038 -2.975596 3.544845 0
M  V30 30 H -2.130890 -4.185770 3.566036 0
M  V30 31 H 0.799513 -2.685955 2.242147 0
M  V30 32 H 2.254116 -1.446972 0.779785 0
M  V30 33 H 1.477485 -1.843426 -3.477307 0
M  V30 34 H 3.691907 3.440939 -2.619767 0
M  V30 35 H 5.013358 2.412580 -2.311580 0
M  V30 36 H 2.501115 1.924231 2.542949 0
M  V30 37 H 1.177502 2.951922 1.879629 0
M  V30 38 H 1.964776 0.367082 4.302880 0
M  V30 39 H 0.205402 -0.647110 5.777694 0
M  V30 40 H -2.205441 -0.295722 5.255844 0
M  V30 41 H -2.831909 1.013758 3.344985 0
M  V30 42 H -0.825846 -1.162341 -2.179375 0
M  V30 43 H -3.737294 -3.171031 -2.244137 0
M  V30 44 H -2.701038 -1.789745 -2.670400 0
M  V30 45 H -4.137217 -1.555061 -1.644950 0
M  V30 END ATOM
M  V30 BEGIN BOND
M  V30 1 1 1 2
M  V30 2 1 2 3
M  V30 3 2 3 4
M  V30 4 1 4 5
M  V30 5 2 5 6
M  V30 6 1 6 7
M  V30 7 2 7 8
M  V30 8 1 8 9
M  V30 9 1 9 10
M  V30 10 1 10 11
M  V30 11 2 10 12
M  V30 12 1 12 13
M  V30 13 2 13 14
M  V30 14 1 13 15
M  V30 15 1 15 16
M  V30 16 1 16 17
M  V30 17 2 17 18
M  V30 18 1 18 19
M  V30 19 2 19 20
M  V30 20 1 20 21
M  V30 21 2 21 22
M  V30 22 1 22 23
M  V30 23 1 6 24
M  V30 24 2 24 25
M  V30 25 1 25 26
M  V30 26 1 26 27
M  V30 27 1 25 3
M  V30 28 1 12 7
M  V30 29 1 22 17
M  V30 30 1 1 28
M  V30 31 1 1 29
M  V30 32 1 1 30
M  V30 33 1 4 31
M  V30 34 1 5 32
M  V30 35 1 8 33
M  V30 36 1 11 34
M  V30 37 1 11 35
M  V30 38 1 16 36
M  V30 39 1 16 37
M  V30 40 1 18 38
M  V30 41 1 19 39
M  V30 42 1 20 40
M  V30 43 1 21 41
M  V30 44 1 24 42
M  V30 45 1 27 43
M  V30 46 1 27 44
M  V30 47 1 27 45
M  V30 END BOND
M  V30 END CTAB
M  END
>  <Dataset>  (910) 
ChEMBL_Kinases

>  <Ligand_Instance>  (910) 
nan

>  <PDB_ID>  (910) 
nan

>  <Standardized_SMILES>  (910) 
COc1ccc(-c2csc(N)c2C(=O)OCc2ccccc2F)cc1OC

>  <Name>  (910) 
nan

>  <Pocket>  (910) 
nan

>  <ATP_Site>  (910) 
nan

>  <Peripheral>  (910) 
nan

>  <Num_H_Atoms_ProtBoundConf>  (910) 
nan

>  <Num_Resolved_Atoms>  (910) 
nan

>  <Num_Not_Resolved_Atoms>  (910) 
nan

$$$$
CHEMBL2393437
     RDKit          3D

  0  0  0  0  0  0  0  0  0  0999 V3000
M  V30 BEGIN CTAB
M  V30 COUNTS 39 40 0 0 0
M  V30 BEGIN ATOM
M  V30 1 C -2.947200 -1.505483 3.845779 0
M  V30 2 C -2.624470 -2.073169 2.486264 0
M  V30 3 N -1.351333 -1.550419 2.057360 0
M  V30 4 C -0.285440 -1.875828 2.913757 0
M  V30 5 O -0.747707 -2.552972 3.859399 0
M  V30 6 C 1.111009 -1.520776 2.788485 0
M  V30 7 C 1.730219 -0.945002 1.750708 0
M  V30 8 C 1.342504 -0.551468 0.417837 0
M  V30 9 C 0.880165 -1.444582 -0.538172 0
M  V30 10 C 0.499951 -1.097177 -1.823029 0
M  V30 11 C 0.594811 0.236946 -2.159045 0
M  V30 12 O 0.239147 0.676295 -3.421710 0
M  V30 13 C -0.228770 -0.196043 -4.409229 0
M  V30 14 C 1.044011 1.201419 -1.278681 0
M  V30 15 O 1.116731 2.491688 -1.671197 0
M  V30 16 C 1.460650 3.686057 -1.158369 0
M  V30 17 C 1.403248 0.777818 -0.016975 0
M  V30 18 C 3.084470 -0.700307 1.888195 0
M  V30 19 S 3.504965 -1.316418 3.572162 0
M  V30 20 C 1.748807 -1.853441 3.918362 0
M  V30 21 N 1.601274 -2.420429 5.203777 0
M  V30 22 H -2.967840 -2.267729 4.657589 0
M  V30 23 H -3.917836 -0.966352 3.764005 0
M  V30 24 H -2.178753 -0.754851 4.115164 0
M  V30 25 H -2.534426 -3.184987 2.600417 0
M  V30 26 H -3.411679 -1.836470 1.730523 0
M  V30 27 H -1.217497 -0.974400 1.212461 0
M  V30 28 H 0.792954 -2.479716 -0.295154 0
M  V30 29 H 0.152223 -1.829989 -2.524753 0
M  V30 30 H -1.304247 -0.503966 -4.241057 0
M  V30 31 H 0.362374 -1.121377 -4.461859 0
M  V30 32 H -0.223177 0.351935 -5.397771 0
M  V30 33 H 0.621905 4.091101 -0.505815 0
M  V30 34 H 2.297970 3.579115 -0.409492 0
M  V30 35 H 1.750082 4.469690 -1.904233 0
M  V30 36 H 1.748960 1.553324 0.652159 0
M  V30 37 H 3.938052 -0.293524 1.375742 0
M  V30 38 H 0.767413 -2.039488 5.677796 0
M  V30 39 H 0.733446 -1.899829 5.474717 0
M  V30 END ATOM
M  V30 BEGIN BOND
M  V30 1 1 1 2
M  V30 2 1 2 3
M  V30 3 1 3 4
M  V30 4 2 4 5
M  V30 5 1 4 6
M  V30 6 1 6 7
M  V30 7 1 7 8
M  V30 8 2 8 9
M  V30 9 1 9 10
M  V30 10 2 10 11
M  V30 11 1 11 12
M  V30 12 1 12 13
M  V30 13 1 11 14
M  V30 14 1 14 15
M  V30 15 1 15 16
M  V30 16 2 14 17
M  V30 17 2 7 18
M  V30 18 1 18 19
M  V30 19 1 19 20
M  V30 20 1 20 21
M  V30 21 2 20 6
M  V30 22 1 17 8
M  V30 23 1 1 22
M  V30 24 1 1 23
M  V30 25 1 1 24
M  V30 26 1 2 25
M  V30 27 1 2 26
M  V30 28 1 3 27
M  V30 29 1 9 28
M  V30 30 1 10 29
M  V30 31 1 13 30
M  V30 32 1 13 31
M  V30 33 1 13 32
M  V30 34 1 16 33
M  V30 35 1 16 34
M  V30 36 1 16 35
M  V30 37 1 17 36
M  V30 38 1 18 37
M  V30 39 1 21 38
M  V30 40 1 21 39
M  V30 END BOND
M  V30 END CTAB
M  END
>  <Dataset>  (911) 
ChEMBL_Kinases

>  <Ligand_Instance>  (911) 
nan

>  <PDB_ID>  (911) 
nan

>  <Standardized_SMILES>  (911) 
CCNC(=O)c1c(-c2ccc(OC)c(OC)c2)csc1N

>  <Name>  (911) 
nan

>  <Pocket>  (911) 
nan

>  <ATP_Site>  (911) 
nan

>  <Peripheral>  (911) 
nan

>  <Num_H_Atoms_ProtBoundConf>  (911) 
nan

>  <Num_Resolved_Atoms>  (911) 
nan

>  <Num_Not_Resolved_Atoms>  (911) 
nan

$$$$
CHEMBL2393441
     RDKit          3D

  0  0  0  0  0  0  0  0  0  0999 V3000
M  V30 BEGIN CTAB
M  V30 COUNTS 30 31 0 0 0
M  V30 BEGIN ATOM
M  V30 1 C -3.160132 -0.261692 3.892865 0
M  V30 2 O -2.254680 -1.208010 3.402839 0
M  V30 3 C -1.271981 -0.943944 2.463935 0
M  V30 4 C -1.121020 0.324972 1.932458 0
M  V30 5 C -0.136814 0.591094 0.991590 0
M  V30 6 C 0.679509 -0.452728 0.609866 0
M  V30 7 C 1.712421 -0.145876 -0.387931 0
M  V30 8 C 2.981462 -0.663660 -0.099597 0
M  V30 9 S 4.031472 -0.116896 -1.510909 0
M  V30 10 C 2.639925 0.747477 -2.328870 0
M  V30 11 N 2.769263 1.439976 -3.560361 0
M  V30 12 C 1.578888 0.565468 -1.529553 0
M  V30 13 C 0.291718 1.141452 -1.907952 0
M  V30 14 N -0.752643 1.597142 -2.216032 0
M  V30 15 C 0.521569 -1.716671 1.145851 0
M  V30 16 C -0.454102 -1.991050 2.081895 0
M  V30 17 O -0.638616 -3.252178 2.640149 0
M  V30 18 C 0.233985 -4.278672 2.203982 0
M  V30 19 H -4.110109 -0.189613 3.303188 0
M  V30 20 H -3.479911 -0.610435 4.914195 0
M  V30 21 H -2.709331 0.727699 4.041270 0
M  V30 22 H -1.760431 1.115541 2.239958 0
M  V30 23 H -0.052986 1.587520 0.604478 0
M  V30 24 H 3.374682 -1.239227 0.692086 0
M  V30 25 H 2.334962 2.376041 -3.692118 0
M  V30 26 H 3.320457 0.967333 -4.329082 0
M  V30 27 H 1.185862 -2.505103 0.815996 0
M  V30 28 H 0.093861 -5.212514 2.784412 0
M  V30 29 H 0.065678 -4.483387 1.109524 0
M  V30 30 H 1.289919 -3.927199 2.274772 0
M  V30 END ATOM
M  V30 BEGIN BOND
M  V30 1 1 1 2
M  V30 2 1 2 3
M  V30 3 2 3 4
M  V30 4 1 4 5
M  V30 5 2 5 6
M  V30 6 1 6 7
M  V30 7 2 7 8
M  V30 8 1 8 9
M  V30 9 1 9 10
M  V30 10 1 10 11
M  V30 11 2 10 12
M  V30 12 1 12 13
M  V30 13 3 13 14
M  V30 14 1 6 15
M  V30 15 2 15 16
M  V30 16 1 16 17
M  V30 17 1 17 18
M  V30 18 1 16 3
M  V30 19 1 12 7
M  V30 20 1 1 19
M  V30 21 1 1 20
M  V30 22 1 1 21
M  V30 23 1 4 22
M  V30 24 1 5 23
M  V30 25 1 8 24
M  V30 26 1 11 25
M  V30 27 1 11 26
M  V30 28 1 15 27
M  V30 29 1 18 28
M  V30 30 1 18 29
M  V30 31 1 18 30
M  V30 END BOND
M  V30 END CTAB
M  END
>  <Dataset>  (912) 
ChEMBL_Kinases

>  <Ligand_Instance>  (912) 
nan

>  <PDB_ID>  (912) 
nan

>  <Standardized_SMILES>  (912) 
COc1ccc(-c2csc(N)c2C#N)cc1OC

>  <Name>  (912) 
nan

>  <Pocket>  (912) 
nan

>  <ATP_Site>  (912) 
nan

>  <Peripheral>  (912) 
nan

>  <Num_H_Atoms_ProtBoundConf>  (912) 
nan

>  <Num_Resolved_Atoms>  (912) 
nan

>  <Num_Not_Resolved_Atoms>  (912) 
nan

$$$$
CHEMBL2393447
     RDKit          3D

  0  0  0  0  0  0  0  0  0  0999 V3000
M  V30 BEGIN CTAB
M  V30 COUNTS 32 33 0 0 0
M  V30 BEGIN ATOM
M  V30 1 C -2.961735 -2.317440 2.711826 0
M  V30 2 C -1.521325 -2.743291 2.425194 0
M  V30 3 O -0.748621 -1.575929 2.382860 0
M  V30 4 C 0.619543 -1.533864 2.146225 0
M  V30 5 O 1.115852 -2.674350 1.968095 0
M  V30 6 C 1.237179 -0.218668 2.142907 0
M  V30 7 C 1.394349 0.612247 1.070079 0
M  V30 8 C 0.965269 0.314308 -0.286872 0
M  V30 9 C 1.210954 -0.863804 -0.955623 0
M  V30 10 C 0.785846 -1.122166 -2.242456 0
M  V30 11 C 0.069969 -0.153136 -2.915906 0
M  V30 12 N -0.355177 -0.448336 -4.241994 0
M  V30 13 C -0.210063 1.050988 -2.301759 0
M  V30 14 C 0.241605 1.250653 -1.013922 0
M  V30 15 C 2.018466 1.851652 1.261583 0
M  V30 16 S 2.437390 1.924287 3.030136 0
M  V30 17 C 1.722973 0.239819 3.385512 0
M  V30 18 N 1.715879 -0.370699 4.672000 0
M  V30 19 H -3.407984 -1.835031 1.823302 0
M  V30 20 H -2.881748 -1.558382 3.541870 0
M  V30 21 H -3.578594 -3.188653 3.027279 0
M  V30 22 H -1.213556 -3.333721 3.324810 0
M  V30 23 H -1.446503 -3.344282 1.496321 0
M  V30 24 H 1.766563 -1.633000 -0.462064 0
M  V30 25 H 1.020782 -2.081895 -2.704014 0
M  V30 26 H -1.349358 -0.708268 -4.170231 0
M  V30 27 H 0.142015 -0.436074 -5.145776 0
M  V30 28 H -0.772387 1.817107 -2.825676 0
M  V30 29 H 0.034040 2.198598 -0.499747 0
M  V30 30 H 2.248927 2.637267 0.623959 0
M  V30 31 H 2.535075 -0.982712 4.887708 0
M  V30 32 H 0.862262 -0.117523 5.251746 0
M  V30 END ATOM
M  V30 BEGIN BOND
M  V30 1 1 1 2
M  V30 2 1 2 3
M  V30 3 1 3 4
M  V30 4 2 4 5
M  V30 5 1 4 6
M  V30 6 1 6 7
M  V30 7 1 7 8
M  V30 8 2 8 9
M  V30 9 1 9 10
M  V30 10 2 10 11
M  V30 11 1 11 12
M  V30 12 1 11 13
M  V30 13 2 13 14
M  V30 14 2 7 15
M  V30 15 1 15 16
M  V30 16 1 16 17
M  V30 17 1 17 18
M  V30 18 2 17 6
M  V30 19 1 14 8
M  V30 20 1 1 19
M  V30 21 1 1 20
M  V30 22 1 1 21
M  V30 23 1 2 22
M  V30 24 1 2 23
M  V30 25 1 9 24
M  V30 26 1 10 25
M  V30 27 1 12 26
M  V30 28 1 12 27
M  V30 29 1 13 28
M  V30 30 1 14 29
M  V30 31 1 15 30
M  V30 32 1 18 31
M  V30 33 1 18 32
M  V30 END BOND
M  V30 END CTAB
M  END
>  <Dataset>  (913) 
ChEMBL_Kinases

>  <Ligand_Instance>  (913) 
nan

>  <PDB_ID>  (913) 
nan

>  <Standardized_SMILES>  (913) 
CCOC(=O)c1c(-c2ccc(N)cc2)csc1N

>  <Name>  (913) 
nan

>  <Pocket>  (913) 
nan

>  <ATP_Site>  (913) 
nan

>  <Peripheral>  (913) 
nan

>  <Num_H_Atoms_ProtBoundConf>  (913) 
nan

>  <Num_Resolved_Atoms>  (913) 
nan

>  <Num_Not_Resolved_Atoms>  (913) 
nan

$$$$
CHEMBL2393451
     RDKit          3D

  0  0  0  0  0  0  0  0  0  0999 V3000
M  V30 BEGIN CTAB
M  V30 COUNTS 34 35 0 0 0
M  V30 BEGIN ATOM
M  V30 1 C 0.704785 -2.588632 4.311025 0
M  V30 2 C 0.984918 -2.795872 2.836750 0
M  V30 3 O -0.168018 -2.426890 2.083287 0
M  V30 4 C -0.179895 -2.522286 0.678048 0
M  V30 5 O 0.850931 -2.940986 0.100962 0
M  V30 6 C -1.452881 -2.096478 0.105083 0
M  V30 7 C -1.696411 -0.811759 -0.257396 0
M  V30 8 C -0.775544 0.309082 -0.143201 0
M  V30 9 C 0.004044 0.455437 -1.296381 0
M  V30 10 C 0.941869 1.470179 -1.377484 0
M  V30 11 C 1.119410 2.347178 -0.326194 0
M  V30 12 O 2.023022 3.400198 -0.287071 0
M  V30 13 C 2.907444 3.729263 -1.341430 0
M  V30 14 C 0.341203 2.186024 0.801487 0
M  V30 15 C -0.600987 1.183628 0.909550 0
M  V30 16 F -1.400094 0.948337 1.958807 0
M  V30 17 C -2.983718 -0.551632 -0.800986 0
M  V30 18 S -3.867709 -2.184938 -0.793487 0
M  V30 19 C -2.375455 -3.071490 -0.040413 0
M  V30 20 N -2.443028 -4.430476 0.219515 0
M  V30 21 H 1.567141 -2.145984 4.837985 0
M  V30 22 H 0.463489 -3.540215 4.821634 0
M  V30 23 H -0.170058 -1.901995 4.430048 0
M  V30 24 H 1.854793 -2.157385 2.574582 0
M  V30 25 H 1.177085 -3.861459 2.665004 0
M  V30 26 H -0.054520 -0.181477 -2.184531 0
M  V30 27 H 1.557514 1.615622 -2.241633 0
M  V30 28 H 2.484224 4.572473 -1.954618 0
M  V30 29 H 3.135515 2.889159 -2.017186 0
M  V30 30 H 3.840688 4.090905 -0.850745 0
M  V30 31 H 0.431817 2.837793 1.656007 0
M  V30 32 H -3.387076 0.423917 -1.159195 0
M  V30 33 H -1.680491 -4.936829 -0.312166 0
M  V30 34 H -3.155617 -4.855896 0.852585 0
M  V30 END ATOM
M  V30 BEGIN BOND
M  V30 1 1 1 2
M  V30 2 1 2 3
M  V30 3 1 3 4
M  V30 4 2 4 5
M  V30 5 1 4 6
M  V30 6 1 6 7
M  V30 7 1 7 8
M  V30 8 2 8 9
M  V30 9 1 9 10
M  V30 10 2 10 11
M  V30 11 1 11 12
M  V30 12 1 12 13
M  V30 13 1 11 14
M  V30 14 2 14 15
M  V30 15 1 15 16
M  V30 16 2 7 17
M  V30 17 1 17 18
M  V30 18 1 18 19
M  V30 19 1 19 20
M  V30 20 2 19 6
M  V30 21 1 15 8
M  V30 22 1 1 21
M  V30 23 1 1 22
M  V30 24 1 1 23
M  V30 25 1 2 24
M  V30 26 1 2 25
M  V30 27 1 9 26
M  V30 28 1 10 27
M  V30 29 1 13 28
M  V30 30 1 13 29
M  V30 31 1 13 30
M  V30 32 1 14 31
M  V30 33 1 17 32
M  V30 34 1 20 33
M  V30 35 1 20 34
M  V30 END BOND
M  V30 END CTAB
M  END
>  <Dataset>  (914) 
ChEMBL_Kinases

>  <Ligand_Instance>  (914) 
nan

>  <PDB_ID>  (914) 
nan

>  <Standardized_SMILES>  (914) 
CCOC(=O)c1c(-c2ccc(OC)cc2F)csc1N

>  <Name>  (914) 
nan

>  <Pocket>  (914) 
nan

>  <ATP_Site>  (914) 
nan

>  <Peripheral>  (914) 
nan

>  <Num_H_Atoms_ProtBoundConf>  (914) 
nan

>  <Num_Resolved_Atoms>  (914) 
nan

>  <Num_Not_Resolved_Atoms>  (914) 
nan

$$$$
CHEMBL2393452
     RDKit          3D

  0  0  0  0  0  0  0  0  0  0999 V3000
M  V30 BEGIN CTAB
M  V30 COUNTS 34 35 0 0 0
M  V30 BEGIN ATOM
M  V30 1 C -3.316760 -1.283680 3.048546 0
M  V30 2 C -2.204623 -2.076270 2.388334 0
M  V30 3 O -2.062735 -1.618132 1.066718 0
M  V30 4 C -1.099871 -2.190830 0.238264 0
M  V30 5 O -1.970104 -1.673237 0.987039 0
M  V30 6 C -0.814805 -1.845499 -1.148717 0
M  V30 7 C 0.086277 -0.899198 -1.557158 0
M  V30 8 C 0.884839 -0.108572 -0.628781 0
M  V30 9 C 1.549345 -0.613467 0.468260 0
M  V30 10 C 2.287944 0.202338 1.301645 0
M  V30 11 C 2.372614 1.555666 1.044016 0
M  V30 12 O 3.070100 2.502608 1.781378 0
M  V30 13 C 3.809606 2.161797 2.939864 0
M  V30 14 C 1.722005 2.116655 -0.048779 0
M  V30 15 F 1.743662 3.434509 -0.386729 0
M  V30 16 C 0.983528 1.265668 -0.872119 0
M  V30 17 C 0.232406 -0.696593 -2.954752 0
M  V30 18 S -0.863231 -1.799850 -3.742106 0
M  V30 19 C -1.511525 -2.526631 -2.201599 0
M  V30 20 N -2.515558 -3.571556 -1.999285 0
M  V30 21 H -2.932007 -0.415909 3.610445 0
M  V30 22 H -3.819780 -1.929675 3.806201 0
M  V30 23 H -4.036435 -0.896837 2.295312 0
M  V30 24 H -1.276176 -1.917504 2.997787 0
M  V30 25 H -2.414695 -3.167058 2.469038 0
M  V30 26 H 1.475944 -1.675383 0.660328 0
M  V30 27 H 2.813127 -0.146598 2.154724 0
M  V30 28 H 3.249633 1.357514 3.464024 0
M  V30 29 H 3.863531 3.023998 3.645587 0
M  V30 30 H 4.816526 1.768194 2.692714 0
M  V30 31 H 0.465111 1.686921 -1.735447 0
M  V30 32 H 0.886360 -0.003181 -3.432135 0
M  V30 33 H -2.201742 -4.444951 -2.474292 0
M  V30 34 H -3.274114 -3.118741 -1.420085 0
M  V30 END ATOM
M  V30 BEGIN BOND
M  V30 1 1 1 2
M  V30 2 1 2 3
M  V30 3 1 3 4
M  V30 4 2 4 5
M  V30 5 1 4 6
M  V30 6 1 6 7
M  V30 7 1 7 8
M  V30 8 2 8 9
M  V30 9 1 9 10
M  V30 10 2 10 11
M  V30 11 1 11 12
M  V30 12 1 12 13
M  V30 13 1 11 14
M  V30 14 1 14 15
M  V30 15 2 14 16
M  V30 16 2 7 17
M  V30 17 1 17 18
M  V30 18 1 18 19
M  V30 19 1 19 20
M  V30 20 2 19 6
M  V30 21 1 16 8
M  V30 22 1 1 21
M  V30 23 1 1 22
M  V30 24 1 1 23
M  V30 25 1 2 24
M  V30 26 1 2 25
M  V30 27 1 9 26
M  V30 28 1 10 27
M  V30 29 1 13 28
M  V30 30 1 13 29
M  V30 31 1 13 30
M  V30 32 1 16 31
M  V30 33 1 17 32
M  V30 34 1 20 33
M  V30 35 1 20 34
M  V30 END BOND
M  V30 END CTAB
M  END
>  <Dataset>  (915) 
ChEMBL_Kinases

>  <Ligand_Instance>  (915) 
nan

>  <PDB_ID>  (915) 
nan

>  <Standardized_SMILES>  (915) 
CCOC(=O)c1c(-c2ccc(OC)c(F)c2)csc1N

>  <Name>  (915) 
nan

>  <Pocket>  (915) 
nan

>  <ATP_Site>  (915) 
nan

>  <Peripheral>  (915) 
nan

>  <Num_H_Atoms_ProtBoundConf>  (915) 
nan

>  <Num_Resolved_Atoms>  (915) 
nan

>  <Num_Not_Resolved_Atoms>  (915) 
nan

$$$$
CHEMBL2396994
     RDKit          3D

  0  0  0  0  0  0  0  0  0  0999 V3000
M  V30 BEGIN CTAB
M  V30 COUNTS 66 69 0 0 0
M  V30 BEGIN ATOM
M  V30 1 C 5.946644 2.781425 5.060949 0
M  V30 2 C 5.415973 2.486861 3.699011 0
M  V30 3 C 6.394021 1.762760 2.851860 0
M  V30 4 O 7.474628 1.563223 3.461292 0
M  V30 5 C 6.144603 1.332360 1.485513 0
M  V30 6 C 7.157319 0.636055 0.739767 0
M  V30 7 S 6.214848 0.382447 -0.870060 0
M  V30 8 C 4.772265 1.191367 -0.275620 0
M  V30 9 N 3.550610 1.379563 -1.039748 0
M  V30 10 C 2.623864 0.344676 -0.908223 0
M  V30 11 O 2.902238 -0.652393 -0.157704 0
M  V30 12 C 1.297157 0.017894 -1.417724 0 CFG=2
M  V30 13 C 0.284432 1.062460 -1.062632 0 CFG=1
M  V30 14 C 0.568503 2.431989 -1.591884 0
M  V30 15 C -1.070432 0.681720 -1.583426 0
M  V30 16 C -2.179069 0.429279 -0.801582 0
M  V30 17 C -3.377437 0.083459 -1.396256 0
M  V30 18 C -3.434551 -0.001037 -2.765638 0
M  V30 19 C -2.360105 0.239838 -3.597742 0
M  V30 20 C -1.163078 0.586976 -2.972396 0
M  V30 21 N 0.835303 -1.248223 -0.881450 0
M  V30 22 C 0.515350 -2.357393 -1.698110 0
M  V30 23 O 0.547174 -2.517116 -2.966018 0
M  V30 24 N 0.082626 -3.476694 -0.898598 0
M  V30 25 C -0.004794 -3.044895 0.483183 0 CFG=2
M  V30 26 C -1.394298 -2.943730 0.950704 0
M  V30 27 C -2.138205 -4.057839 0.548730 0
M  V30 28 C -3.474876 -4.199307 0.865849 0
M  V30 29 C -4.108342 -3.219507 1.600630 0
M  V30 30 O -5.414256 -3.186620 2.005544 0
M  V30 31 C -6.373572 -4.166664 1.742278 0
M  V30 32 C -7.720943 -3.811430 2.339065 0
M  V30 33 O -8.181457 -2.597939 1.800795 0
M  V30 34 C -3.377274 -2.115438 2.000618 0
M  V30 35 C -2.042502 -1.977328 1.682485 0
M  V30 36 C 0.595752 -1.689389 0.449688 0
M  V30 37 O 0.877243 -0.975642 1.472531 0
M  V30 38 N 4.970386 1.572884 0.901269 0
M  V30 39 H 5.321566 2.197584 5.779743 0
M  V30 40 H 5.875188 3.850297 5.270125 0
M  V30 41 H 6.999354 2.419802 5.139715 0
M  V30 42 H 4.429596 1.974268 3.721169 0
M  V30 43 H 5.201765 3.459637 3.172999 0
M  V30 44 H 8.163204 0.396987 1.154574 0
M  V30 45 H 3.173493 2.107759 -1.680873 0
M  V30 46 H 1.316589 -0.121452 -2.539125 0
M  V30 47 H 0.216740 1.070085 0.064995 0
M  V30 48 H 1.125961 2.998965 -0.821291 0
M  V30 49 H -0.396177 3.016264 -1.699703 0
M  V30 50 H 1.004033 2.442945 -2.595504 0
M  V30 51 H -1.981998 0.534603 0.237903 0
M  V30 52 H -4.215688 -0.103577 -0.733381 0
M  V30 53 H -4.386535 -0.275605 -3.233900 0
M  V30 54 H -2.405220 0.173558 -4.668579 0
M  V30 55 H -0.298964 0.781874 -3.615262 0
M  V30 56 H -0.152884 -4.459389 -1.157242 0
M  V30 57 H 0.586398 -3.704893 1.152638 0
M  V30 58 H -1.791743 -4.922411 -0.037455 0
M  V30 59 H -4.103806 -5.031187 0.587464 0
M  V30 60 H -6.522974 -4.369029 0.665344 0
M  V30 61 H -6.055906 -5.110792 2.225078 0
M  V30 62 H -7.599998 -3.728623 3.433697 0
M  V30 63 H -8.473549 -4.589742 2.101748 0
M  V30 64 H -7.671600 -1.850405 2.218532 0
M  V30 65 H -3.764856 -1.301778 2.570008 0
M  V30 66 H -1.390951 -1.158698 1.946869 0
M  V30 END ATOM
M  V30 BEGIN BOND
M  V30 1 1 1 2
M  V30 2 1 2 3
M  V30 3 2 3 4
M  V30 4 1 3 5
M  V30 5 2 5 6
M  V30 6 1 6 7
M  V30 7 1 7 8
M  V30 8 1 8 9
M  V30 9 1 9 10
M  V30 10 2 10 11
M  V30 11 1 10 12
M  V30 12 1 12 13
M  V30 13 1 13 14
M  V30 14 1 13 15
M  V30 15 2 15 16
M  V30 16 1 16 17
M  V30 17 2 17 18
M  V30 18 1 18 19
M  V30 19 2 19 20
M  V30 20 1 12 21
M  V30 21 1 21 22
M  V30 22 2 22 23
M  V30 23 1 22 24
M  V30 24 1 24 25
M  V30 25 1 25 26
M  V30 26 2 26 27
M  V30 27 1 27 28
M  V30 28 2 28 29
M  V30 29 1 29 30
M  V30 30 1 30 31
M  V30 31 1 31 32
M  V30 32 1 32 33
M  V30 33 1 29 34
M  V30 34 2 34 35
M  V30 35 1 25 36
M  V30 36 2 36 37
M  V30 37 2 8 38
M  V30 38 1 38 5
M  V30 39 1 20 15
M  V30 40 1 36 21
M  V30 41 1 35 26
M  V30 42 1 1 39
M  V30 43 1 1 40
M  V30 44 1 1 41
M  V30 45 1 2 42
M  V30 46 1 2 43
M  V30 47 1 6 44
M  V30 48 1 9 45
M  V30 49 1 12 46 CFG=3
M  V30 50 1 13 47 CFG=1
M  V30 51 1 14 48
M  V30 52 1 14 49
M  V30 53 1 14 50
M  V30 54 1 16 51
M  V30 55 1 17 52
M  V30 56 1 18 53
M  V30 57 1 19 54
M  V30 58 1 20 55
M  V30 59 1 24 56
M  V30 60 1 25 57 CFG=1
M  V30 61 1 27 58
M  V30 62 1 28 59
M  V30 63 1 31 60
M  V30 64 1 31 61
M  V30 65 1 32 62
M  V30 66 1 32 63
M  V30 67 1 33 64
M  V30 68 1 34 65
M  V30 69 1 35 66
M  V30 END BOND
M  V30 END CTAB
M  END
>  <Dataset>  (916) 
ChEMBL_Kinases

>  <Ligand_Instance>  (916) 
nan

>  <PDB_ID>  (916) 
nan

>  <Standardized_SMILES>  (916) 
CCC(=O)c1csc(NC(=O)[C@H]([C@@H](C)c2ccccc2)N2C(=O)N[C@H](c3ccc(OCCO)cc3)C2=O)n1

>  <Name>  (916) 
nan

>  <Pocket>  (916) 
nan

>  <ATP_Site>  (916) 
nan

>  <Peripheral>  (916) 
nan

>  <Num_H_Atoms_ProtBoundConf>  (916) 
nan

>  <Num_Resolved_Atoms>  (916) 
nan

>  <Num_Not_Resolved_Atoms>  (916) 
nan

$$$$
CHEMBL2396995
     RDKit          3D

  0  0  0  0  0  0  0  0  0  0999 V3000
M  V30 BEGIN CTAB
M  V30 COUNTS 68 71 0 0 0
M  V30 BEGIN ATOM
M  V30 1 C 4.005910 -6.134058 3.681019 0
M  V30 2 C 2.594211 -6.228852 3.141462 0 CFG=2
M  V30 3 C 2.040285 -7.632762 3.442547 0
M  V30 4 O 0.751235 -7.698180 2.941379 0
M  V30 5 C 2.524535 -6.060427 1.665275 0
M  V30 6 O 2.984844 -4.876442 1.132028 0
M  V30 7 C 2.561037 -3.590528 1.322195 0
M  V30 8 C 1.570821 -2.979394 2.058296 0
M  V30 9 C 1.390570 -1.615704 2.042388 0
M  V30 10 C 2.208067 -0.814544 1.277955 0
M  V30 11 C 1.987844 0.633447 1.286134 0 CFG=1
M  V30 12 N 2.028564 1.222559 -0.036116 0
M  V30 13 C 0.709880 1.627128 -0.381885 0
M  V30 14 O 0.466944 1.997637 -1.557357 0
M  V30 15 N -0.217942 1.557414 0.694970 0
M  V30 16 C -1.593876 1.880905 0.799238 0 CFG=2
M  V30 17 C -2.521175 1.090806 -0.033010 0
M  V30 18 O -3.724220 1.428655 0.094767 0
M  V30 19 N -2.190802 0.054419 -0.903853 0
M  V30 20 C -3.016148 -0.741986 -1.727588 0
M  V30 21 C -4.380161 -0.661477 -1.850702 0
M  V30 22 C -5.162437 -1.451375 -2.662627 0
M  V30 23 C -4.539895 -2.414961 -3.428236 0
M  V30 24 I -5.655021 -3.665956 -4.696127 0
M  V30 25 C -3.168716 -2.529327 -3.334145 0
M  V30 26 C -2.431607 -1.714193 -2.506224 0
M  V30 27 F -1.067218 -1.878508 -2.457435 0
M  V30 28 C -1.933521 3.360650 0.851685 0 CFG=1
M  V30 29 C -1.247998 3.928364 2.074557 0
M  V30 30 C -1.688989 4.133374 -0.350147 0
M  V30 31 C -2.660872 4.277587 -1.348830 0
M  V30 32 C -2.482546 5.028576 -2.494170 0
M  V30 33 C -1.289608 5.688728 -2.698904 0
M  V30 34 C -0.282295 5.596286 -1.761207 0
M  V30 35 C -0.539385 4.836438 -0.661821 0
M  V30 36 C 0.659853 1.065642 1.741040 0
M  V30 37 O 0.343507 0.996433 2.976029 0
M  V30 38 C 3.218090 -1.367860 0.518112 0
M  V30 39 C 3.386524 -2.759788 0.547305 0
M  V30 40 H 4.525323 -5.345351 3.112853 0
M  V30 41 H 3.943951 -5.804069 4.732127 0
M  V30 42 H 4.527657 -7.110079 3.670278 0
M  V30 43 H 1.956817 -5.535203 3.704187 0
M  V30 44 H 2.654121 -8.379872 2.880131 0
M  V30 45 H 2.075664 -7.822821 4.546828 0
M  V30 46 H 0.304951 -6.812626 3.118282 0
M  V30 47 H 1.424246 -6.133111 1.400906 0
M  V30 48 H 2.963901 -6.966369 1.196308 0
M  V30 49 H 0.996754 -3.708348 2.606061 0
M  V30 50 H 0.585765 -1.298256 2.662363 0
M  V30 51 H 2.770811 1.138450 1.878504 0
M  V30 52 H 2.900339 1.298277 -0.567677 0
M  V30 53 H -1.892508 1.575205 1.874129 0
M  V30 54 H -1.159886 -0.108898 -0.898924 0
M  V30 55 H -4.918751 0.070442 -1.278613 0
M  V30 56 H -6.236268 -1.332879 -2.710807 0
M  V30 57 H -2.626967 -3.266246 -3.910253 0
M  V30 58 H -3.046082 3.346181 1.103965 0
M  V30 59 H -0.170381 3.610956 2.007032 0
M  V30 60 H -1.655143 3.428586 2.975317 0
M  V30 61 H -1.333537 5.026255 2.142648 0
M  V30 62 H -3.619250 3.802109 -1.276790 0
M  V30 63 H -3.250641 5.120670 -3.246132 0
M  V30 64 H -1.153116 6.267948 -3.583191 0
M  V30 65 H 0.649153 6.102878 -1.906118 0
M  V30 66 H 0.281767 4.782239 0.066099 0
M  V30 67 H 3.816565 -0.680117 -0.053772 0
M  V30 68 H 4.229237 -3.035541 -0.108972 0
M  V30 END ATOM
M  V30 BEGIN BOND
M  V30 1 1 1 2
M  V30 2 1 2 3
M  V30 3 1 3 4
M  V30 4 1 2 5
M  V30 5 1 5 6
M  V30 6 1 6 7
M  V30 7 2 7 8
M  V30 8 1 8 9
M  V30 9 2 9 10
M  V30 10 1 10 11
M  V30 11 1 11 12
M  V30 12 1 12 13
M  V30 13 2 13 14
M  V30 14 1 13 15
M  V30 15 1 15 16
M  V30 16 1 16 17
M  V30 17 2 17 18
M  V30 18 1 17 19
M  V30 19 1 19 20
M  V30 20 2 20 21
M  V30 21 1 21 22
M  V30 22 2 22 23
M  V30 23 1 23 24
M  V30 24 1 23 25
M  V30 25 2 25 26
M  V30 26 1 26 27
M  V30 27 1 16 28
M  V30 28 1 28 29
M  V30 29 1 28 30
M  V30 30 2 30 31
M  V30 31 1 31 32
M  V30 32 2 32 33
M  V30 33 1 33 34
M  V30 34 2 34 35
M  V30 35 1 15 36
M  V30 36 2 36 37
M  V30 37 1 10 38
M  V30 38 2 38 39
M  V30 39 1 39 7
M  V30 40 1 36 11
M  V30 41 1 26 20
M  V30 42 1 35 30
M  V30 43 1 1 40
M  V30 44 1 1 41
M  V30 45 1 1 42
M  V30 46 1 2 43 CFG=1
M  V30 47 1 3 44
M  V30 48 1 3 45
M  V30 49 1 4 46
M  V30 50 1 5 47
M  V30 51 1 5 48
M  V30 52 1 8 49
M  V30 53 1 9 50
M  V30 54 1 11 51 CFG=1
M  V30 55 1 12 52
M  V30 56 1 16 53 CFG=1
M  V30 57 1 19 54
M  V30 58 1 21 55
M  V30 59 1 22 56
M  V30 60 1 25 57
M  V30 61 1 28 58 CFG=1
M  V30 62 1 29 59
M  V30 63 1 29 60
M  V30 64 1 29 61
M  V30 65 1 31 62
M  V30 66 1 32 63
M  V30 67 1 33 64
M  V30 68 1 34 65
M  V30 69 1 35 66
M  V30 70 1 38 67
M  V30 71 1 39 68
M  V30 END BOND
M  V30 END CTAB
M  END
>  <Dataset>  (917) 
ChEMBL_Kinases

>  <Ligand_Instance>  (917) 
nan

>  <PDB_ID>  (917) 
nan

>  <Standardized_SMILES>  (917) 
C[C@H](CO)COc1ccc([C@H]2NC(=O)N([C@H](C(=O)Nc3ccc(I)cc3F)[C@@H](C)c3ccccc3)C2=O)cc1

>  <Name>  (917) 
nan

>  <Pocket>  (917) 
nan

>  <ATP_Site>  (917) 
nan

>  <Peripheral>  (917) 
nan

>  <Num_H_Atoms_ProtBoundConf>  (917) 
nan

>  <Num_Resolved_Atoms>  (917) 
nan

>  <Num_Not_Resolved_Atoms>  (917) 
nan

$$$$
CHEMBL2397149
     RDKit          3D

  0  0  0  0  0  0  0  0  0  0999 V3000
M  V30 BEGIN CTAB
M  V30 COUNTS 49 51 0 0 0
M  V30 BEGIN ATOM
M  V30 1 C 8.136678 -4.563964 1.962542 0
M  V30 2 N 6.727699 -4.435557 2.204200 0
M  V30 3 C 6.104786 -3.228168 2.638967 0
M  V30 4 O 6.811723 -2.204489 2.827840 0
M  V30 5 C 4.654243 -3.252028 2.843264 0
M  V30 6 C 4.067431 -2.075148 3.264097 0
M  V30 7 C 2.722510 -2.053108 3.466107 0
M  V30 8 O 1.908497 -1.004587 3.883422 0
M  V30 9 C 1.335705 -0.152810 2.919823 0
M  V30 10 C 1.589524 -0.368642 1.563188 0
M  V30 11 C 1.027674 0.466778 0.618861 0
M  V30 12 C 0.222681 1.502307 1.047468 0
M  V30 13 N -0.395111 2.409188 0.137920 0
M  V30 14 C -1.703557 2.039551 -0.337541 0
M  V30 15 O -2.145265 0.947004 0.115033 0
M  V30 16 N -2.522274 2.754227 -1.234317 0
M  V30 17 C -3.791872 2.205636 -1.575331 0
M  V30 18 C -3.760104 1.374704 -2.681783 0
M  V30 19 C -4.927169 0.780439 -3.114033 0
M  V30 20 C -6.111216 1.025443 -2.433289 0
M  V30 21 O -7.228494 0.380171 -2.947888 0
M  V30 22 C -7.513070 -0.907261 -2.431843 0
M  V30 23 F -6.456490 -1.770863 -2.668782 0
M  V30 24 F -7.794373 -0.810096 -1.075749 0
M  V30 25 F -8.660522 -1.430962 -3.010081 0
M  V30 26 C -6.145890 1.852498 -1.331079 0
M  V30 27 C -4.961494 2.433248 -0.921899 0
M  V30 28 C -0.028806 1.715079 2.403556 0
M  V30 29 C 0.531636 0.881374 3.349669 0
M  V30 30 C 1.981121 -3.206890 3.245151 0
M  V30 31 C 2.589231 -4.388274 2.819934 0
M  V30 32 N 3.917758 -4.359082 2.634913 0
M  V30 33 H 8.751570 -4.760850 2.853749 0
M  V30 34 H 8.487901 -3.583243 1.542415 0
M  V30 35 H 8.315261 -5.325665 1.156196 0
M  V30 36 H 6.129936 -5.297440 2.045561 0
M  V30 37 H 4.558552 -1.142428 3.458470 0
M  V30 38 H 2.226871 -1.191603 1.257909 0
M  V30 39 H 1.216007 0.310942 -0.435360 0
M  V30 40 H -0.053152 3.331750 -0.261054 0
M  V30 41 H -2.097572 3.659585 -1.577540 0
M  V30 42 H -2.848924 1.156377 -3.244967 0
M  V30 43 H -4.894172 0.121927 -3.993256 0
M  V30 44 H -7.079801 2.020773 -0.827106 0
M  V30 45 H -4.933837 3.083784 -0.071511 0
M  V30 46 H -0.659533 2.526542 2.738107 0
M  V30 47 H 0.337938 1.043592 4.412439 0
M  V30 48 H 0.896752 -3.310814 3.373340 0
M  V30 49 H 2.055915 -5.306398 2.635869 0
M  V30 END ATOM
M  V30 BEGIN BOND
M  V30 1 1 1 2
M  V30 2 1 2 3
M  V30 3 2 3 4
M  V30 4 1 3 5
M  V30 5 2 5 6
M  V30 6 1 6 7
M  V30 7 1 7 8
M  V30 8 1 8 9
M  V30 9 2 9 10
M  V30 10 1 10 11
M  V30 11 2 11 12
M  V30 12 1 12 13
M  V30 13 1 13 14
M  V30 14 2 14 15
M  V30 15 1 14 16
M  V30 16 1 16 17
M  V30 17 2 17 18
M  V30 18 1 18 19
M  V30 19 2 19 20
M  V30 20 1 20 21
M  V30 21 1 21 22
M  V30 22 1 22 23
M  V30 23 1 22 24
M  V30 24 1 22 25
M  V30 25 1 20 26
M  V30 26 2 26 27
M  V30 27 1 12 28
M  V30 28 2 28 29
M  V30 29 2 7 30
M  V30 30 1 30 31
M  V30 31 2 31 32
M  V30 32 1 32 5
M  V30 33 1 29 9
M  V30 34 1 27 17
M  V30 35 1 1 33
M  V30 36 1 1 34
M  V30 37 1 1 35
M  V30 38 1 2 36
M  V30 39 1 6 37
M  V30 40 1 10 38
M  V30 41 1 11 39
M  V30 42 1 13 40
M  V30 43 1 16 41
M  V30 44 1 18 42
M  V30 45 1 19 43
M  V30 46 1 26 44
M  V30 47 1 27 45
M  V30 48 1 28 46
M  V30 49 1 29 47
M  V30 50 1 30 48
M  V30 51 1 31 49
M  V30 END BOND
M  V30 END CTAB
M  END
>  <Dataset>  (918) 
ChEMBL_Kinases

>  <Ligand_Instance>  (918) 
nan

>  <PDB_ID>  (918) 
nan

>  <Standardized_SMILES>  (918) 
CNC(=O)c1cc(Oc2ccc(NC(=O)Nc3ccc(OC(F)(F)F)cc3)cc2)ccn1

>  <Name>  (918) 
nan

>  <Pocket>  (918) 
nan

>  <ATP_Site>  (918) 
nan

>  <Peripheral>  (918) 
nan

>  <Num_H_Atoms_ProtBoundConf>  (918) 
nan

>  <Num_Resolved_Atoms>  (918) 
nan

>  <Num_Not_Resolved_Atoms>  (918) 
nan

$$$$
CHEMBL2397014
     RDKit          3D

  0  0  0  0  0  0  0  0  0  0999 V3000
M  V30 BEGIN CTAB
M  V30 COUNTS 59 62 0 0 0
M  V30 BEGIN ATOM
M  V30 1 C 4.375239 -2.210055 3.331431 0
M  V30 2 O 3.121242 -1.943674 2.748291 0
M  V30 3 C 2.762226 -0.639023 2.394076 0
M  V30 4 C 3.646946 0.396502 2.618351 0
M  V30 5 C 3.332782 1.694053 2.283773 0
M  V30 6 N 4.259203 2.743859 2.527946 0
M  V30 7 C 5.559195 2.578827 3.142589 0
M  V30 8 C 6.496761 3.648753 2.662187 0
M  V30 9 O 6.306489 3.950011 1.327873 0
M  V30 10 C 5.050933 4.454290 1.063186 0
M  V30 11 C 4.090962 4.147547 2.224757 0
M  V30 12 C 2.104045 1.931589 1.715826 0
M  V30 13 C 1.250401 0.866278 1.509827 0
M  V30 14 C 1.518760 -0.446256 1.826891 0
M  V30 15 N 0.644119 -1.540097 1.608769 0
M  V30 16 C -0.666845 -1.521929 1.069011 0
M  V30 17 N -1.345732 -0.434627 0.687673 0
M  V30 18 C -2.577768 -0.403748 0.176882 0
M  V30 19 C -3.247821 -1.593120 0.011782 0
M  V30 20 F -4.487093 -1.582423 -0.484440 0
M  V30 21 C -2.568184 -2.725655 0.396719 0
M  V30 22 N -3.160266 -4.004915 0.248948 0
M  V30 23 C -4.381864 -4.312476 -0.401288 0
M  V30 24 C -5.529112 -4.857567 0.151214 0
M  V30 25 C -6.642649 -5.119289 -0.606273 0
M  V30 26 C -6.672538 -4.852223 -1.952978 0
M  V30 27 C -5.537587 -4.308423 -2.524459 0
M  V30 28 C -4.405423 -4.038309 -1.774934 0
M  V30 29 N -3.342069 -3.505749 -2.543570 0
M  V30 30 S -3.371853 -2.937185 -4.149074 0
M  V30 31 C -4.492812 -1.558131 -4.236060 0
M  V30 32 O -2.043805 -2.463371 -4.621697 0
M  V30 33 O -3.863005 -3.970738 -5.137566 0
M  V30 34 N -1.331609 -2.658254 0.900497 0
M  V30 35 H 4.573388 -1.606822 4.240035 0
M  V30 36 H 5.152719 -2.044846 2.555085 0
M  V30 37 H 4.355437 -3.272386 3.658082 0
M  V30 38 H 4.577913 0.102443 3.069447 0
M  V30 39 H 5.428404 2.605339 4.245712 0
M  V30 40 H 5.919446 1.560919 2.889730 0
M  V30 41 H 7.558917 3.363835 2.871506 0
M  V30 42 H 6.325294 4.558917 3.262758 0
M  V30 43 H 4.685293 3.951592 0.153059 0
M  V30 44 H 5.125612 5.518705 0.842508 0
M  V30 45 H 4.321153 4.805391 3.089838 0
M  V30 46 H 3.089698 4.355403 1.814793 0
M  V30 47 H 1.779140 2.918554 1.424326 0
M  V30 48 H 0.303810 1.118205 1.062024 0
M  V30 49 H 1.017425 -2.489931 1.882767 0
M  V30 50 H -2.949491 0.559873 -0.066219 0
M  V30 51 H -2.725038 -4.869264 0.625188 0
M  V30 52 H -5.455545 -5.049457 1.212914 0
M  V30 53 H -7.494184 -5.546163 -0.088186 0
M  V30 54 H -7.568910 -5.066463 -2.544041 0
M  V30 55 H -5.625324 -4.123082 -3.591506 0
M  V30 56 H -2.437095 -3.467848 -2.044049 0
M  V30 57 H -4.729412 -1.305571 -5.285386 0
M  V30 58 H -3.990743 -0.642931 -3.804552 0
M  V30 59 H -5.420308 -1.733820 -3.662444 0
M  V30 END ATOM
M  V30 BEGIN BOND
M  V30 1 1 1 2
M  V30 2 1 2 3
M  V30 3 2 3 4
M  V30 4 1 4 5
M  V30 5 1 5 6
M  V30 6 1 6 7
M  V30 7 1 7 8
M  V30 8 1 8 9
M  V30 9 1 9 10
M  V30 10 1 10 11
M  V30 11 2 5 12
M  V30 12 1 12 13
M  V30 13 2 13 14
M  V30 14 1 14 15
M  V30 15 1 15 16
M  V30 16 2 16 17
M  V30 17 1 17 18
M  V30 18 2 18 19
M  V30 19 1 19 20
M  V30 20 1 19 21
M  V30 21 1 21 22
M  V30 22 1 22 23
M  V30 23 2 23 24
M  V30 24 1 24 25
M  V30 25 2 25 26
M  V30 26 1 26 27
M  V30 27 2 27 28
M  V30 28 1 28 29
M  V30 29 1 29 30
M  V30 30 1 30 31
M  V30 31 2 30 32
M  V30 32 2 30 33
M  V30 33 2 21 34
M  V30 34 1 14 3
M  V30 35 1 34 16
M  V30 36 1 11 6
M  V30 37 1 28 23
M  V30 38 1 1 35
M  V30 39 1 1 36
M  V30 40 1 1 37
M  V30 41 1 4 38
M  V30 42 1 7 39
M  V30 43 1 7 40
M  V30 44 1 8 41
M  V30 45 1 8 42
M  V30 46 1 10 43
M  V30 47 1 10 44
M  V30 48 1 11 45
M  V30 49 1 11 46
M  V30 50 1 12 47
M  V30 51 1 13 48
M  V30 52 1 15 49
M  V30 53 1 18 50
M  V30 54 1 22 51
M  V30 55 1 24 52
M  V30 56 1 25 53
M  V30 57 1 26 54
M  V30 58 1 27 55
M  V30 59 1 29 56
M  V30 60 1 31 57
M  V30 61 1 31 58
M  V30 62 1 31 59
M  V30 END BOND
M  V30 END CTAB
M  END
>  <Dataset>  (919) 
ChEMBL_Kinases

>  <Ligand_Instance>  (919) 
nan

>  <PDB_ID>  (919) 
nan

>  <Standardized_SMILES>  (919) 
COc1cc(N2CCOCC2)ccc1Nc1ncc(F)c(Nc2ccccc2NS(C)(=O)=O)n1

>  <Name>  (919) 
nan

>  <Pocket>  (919) 
nan

>  <ATP_Site>  (919) 
nan

>  <Peripheral>  (919) 
nan

>  <Num_H_Atoms_ProtBoundConf>  (919) 
nan

>  <Num_Resolved_Atoms>  (919) 
nan

>  <Num_Not_Resolved_Atoms>  (919) 
nan

$$$$
CHEMBL2397136
     RDKit          3D

  0  0  0  0  0  0  0  0  0  0999 V3000
M  V30 BEGIN CTAB
M  V30 COUNTS 59 63 0 0 0
M  V30 BEGIN ATOM
M  V30 1 C 1.420826 -2.995423 5.828971 0
M  V30 2 N 2.797264 -2.801227 5.423489 0
M  V30 3 C 2.968835 -2.141312 4.179208 0
M  V30 4 O 1.881183 -1.830103 3.627063 0
M  V30 5 C 4.280642 -1.851982 3.596981 0
M  V30 6 C 4.289454 -1.202527 2.377571 0
M  V30 7 C 5.493275 -0.897600 1.769326 0
M  V30 8 O 5.496481 -0.246926 0.547810 0
M  V30 9 C 4.348653 0.129364 -0.123592 0
M  V30 10 C 3.694285 1.318587 0.000268 0
M  V30 11 C 2.548941 1.626613 -0.704695 0
M  V30 12 C 2.112062 0.636198 -1.549428 0
M  V30 13 N 0.924165 0.829560 -2.346227 0
M  V30 14 C -0.236018 0.393690 -1.658683 0
M  V30 15 O -0.044732 -0.064160 -0.529003 0
M  V30 16 N -1.533544 0.450729 -2.167584 0
M  V30 17 C -2.756684 0.029944 -1.540302 0
M  V30 18 C -3.048589 0.736359 -0.241570 0
M  V30 19 C -4.236680 0.063123 0.406255 0
M  V30 20 C -5.420000 0.349706 -0.490245 0
M  V30 21 C -5.169801 -0.343422 -1.801833 0
M  V30 22 C -5.051610 -1.829914 -1.552655 0
M  V30 23 C -3.862404 -2.068765 -0.685052 0
M  V30 24 C -4.054458 -1.396246 0.667817 0
M  V30 25 C -2.610783 -1.448866 -1.259718 0
M  V30 26 C -3.946577 0.197027 -2.464896 0
M  V30 27 C 2.716075 -0.591487 -1.731314 0
M  V30 28 C 3.873932 -0.839283 -0.985601 0
M  V30 29 C 6.712968 -1.216141 2.330979 0
M  V30 30 C 6.632262 -1.869008 3.558914 0
M  V30 31 N 5.463859 -2.186233 4.189203 0
M  V30 32 H 1.368956 -3.361177 6.878681 0
M  V30 33 H 0.896998 -2.026337 5.706401 0
M  V30 34 H 0.986319 -3.735206 5.129451 0
M  V30 35 H 3.643642 -3.104223 5.967328 0
M  V30 36 H 3.377874 -0.917504 1.869612 0
M  V30 37 H 4.110654 2.042849 0.691208 0
M  V30 38 H 2.037121 2.573249 -0.599279 0
M  V30 39 H 0.812765 1.232333 -3.323462 0
M  V30 40 H -1.605050 0.862141 -3.147924 0
M  V30 41 H -3.381128 1.791067 -0.401868 0
M  V30 42 H -2.133131 0.703895 0.376216 0
M  V30 43 H -4.413117 0.625695 1.362318 0
M  V30 44 H -5.378605 1.451545 -0.710973 0
M  V30 45 H -6.392878 0.142957 -0.048533 0
M  V30 46 H -6.024274 -0.205850 -2.477520 0
M  V30 47 H -4.945568 -2.412886 -2.478298 0
M  V30 48 H -5.962200 -2.163046 -1.014300 0
M  V30 49 H -3.647167 -3.125347 -0.521691 0
M  V30 50 H -3.166911 -1.511579 1.305312 0
M  V30 51 H -4.979193 -1.775663 1.097433 0
M  V30 52 H -1.806023 -1.564210 -0.506215 0
M  V30 53 H -2.380920 -1.993815 -2.202845 0
M  V30 54 H -3.745072 -0.400378 -3.368703 0
M  V30 55 H -4.133103 1.251290 -2.715997 0
M  V30 56 H 2.333124 -1.339894 -2.409557 0
M  V30 57 H 4.342671 -1.812447 -1.137332 0
M  V30 58 H 7.679576 -1.002892 1.901931 0
M  V30 59 H 7.490227 -2.179779 4.116699 0
M  V30 END ATOM
M  V30 BEGIN BOND
M  V30 1 1 1 2
M  V30 2 1 2 3
M  V30 3 2 3 4
M  V30 4 1 3 5
M  V30 5 2 5 6
M  V30 6 1 6 7
M  V30 7 1 7 8
M  V30 8 1 8 9
M  V30 9 2 9 10
M  V30 10 1 10 11
M  V30 11 2 11 12
M  V30 12 1 12 13
M  V30 13 1 13 14
M  V30 14 2 14 15
M  V30 15 1 14 16
M  V30 16 1 16 17
M  V30 17 1 17 18
M  V30 18 1 18 19
M  V30 19 1 19 20
M  V30 20 1 20 21
M  V30 21 1 21 22
M  V30 22 1 22 23
M  V30 23 1 23 24
M  V30 24 1 23 25
M  V30 25 1 21 26
M  V30 26 1 12 27
M  V30 27 2 27 28
M  V30 28 2 7 29
M  V30 29 1 29 30
M  V30 30 2 30 31
M  V30 31 1 31 5
M  V30 32 1 28 9
M  V30 33 1 25 17
M  V30 34 1 26 17
M  V30 35 1 24 19
M  V30 36 1 1 32
M  V30 37 1 1 33
M  V30 38 1 1 34
M  V30 39 1 2 35
M  V30 40 1 6 36
M  V30 41 1 10 37
M  V30 42 1 11 38
M  V30 43 1 13 39
M  V30 44 1 16 40
M  V30 45 1 18 41
M  V30 46 1 18 42
M  V30 47 1 19 43
M  V30 48 1 20 44
M  V30 49 1 20 45
M  V30 50 1 21 46
M  V30 51 1 22 47
M  V30 52 1 22 48
M  V30 53 1 23 49
M  V30 54 1 24 50
M  V30 55 1 24 51
M  V30 56 1 25 52
M  V30 57 1 25 53
M  V30 58 1 26 54
M  V30 59 1 26 55
M  V30 60 1 27 56
M  V30 61 1 28 57
M  V30 62 1 29 58
M  V30 63 1 30 59
M  V30 END BOND
M  V30 END CTAB
M  END
>  <Dataset>  (920) 
ChEMBL_Kinases

>  <Ligand_Instance>  (920) 
nan

>  <PDB_ID>  (920) 
nan

>  <Standardized_SMILES>  (920) 
CNC(=O)c1cc(Oc2ccc(NC(=O)NC34CC5CC(CC(C5)C3)C4)cc2)ccn1

>  <Name>  (920) 
nan

>  <Pocket>  (920) 
nan

>  <ATP_Site>  (920) 
nan

>  <Peripheral>  (920) 
nan

>  <Num_H_Atoms_ProtBoundConf>  (920) 
nan

>  <Num_Resolved_Atoms>  (920) 
nan

>  <Num_Not_Resolved_Atoms>  (920) 
nan

$$$$
CHEMBL2397137
     RDKit          3D

  0  0  0  0  0  0  0  0  0  0999 V3000
M  V30 BEGIN CTAB
M  V30 COUNTS 54 56 0 0 0
M  V30 BEGIN ATOM
M  V30 1 C 7.736621 -5.677844 3.062564 0
M  V30 2 N 6.422278 -5.100354 2.980875 0
M  V30 3 C 6.073349 -3.978176 2.218066 0
M  V30 4 O 6.969077 -3.412948 1.540319 0
M  V30 5 C 4.702452 -3.490923 2.220914 0
M  V30 6 C 4.295808 -2.380733 1.483208 0
M  V30 7 C 2.969361 -1.927122 1.499654 0
M  V30 8 O 2.837791 -0.823920 0.691946 0
M  V30 9 C 1.653066 -0.119373 0.477701 0 CFG=1
M  V30 10 C 1.898402 1.314360 0.897646 0
M  V30 11 C 0.643707 2.163135 0.745444 0
M  V30 12 C -0.242561 1.441780 -0.213714 0 CFG=1
M  V30 13 N -1.380545 2.210642 -0.679925 0
M  V30 14 C -2.693489 1.709793 -0.473962 0
M  V30 15 O -2.900659 0.596707 0.112743 0
M  V30 16 N -3.915717 2.348226 -0.874286 0
M  V30 17 C -5.101594 1.595409 -0.527243 0
M  V30 18 C -5.820377 1.692791 0.647617 0
M  V30 19 C -6.931774 0.880171 0.786311 0
M  V30 20 C -7.303368 0.005022 -0.218534 0
M  V30 21 Cl -8.737216 -0.963740 0.099131 0
M  V30 22 C -6.569741 -0.075987 -1.385633 0
M  V30 23 C -7.024467 -1.040675 -2.430156 0
M  V30 24 F -6.980689 -2.295009 -1.808130 0
M  V30 25 F -8.350899 -0.823481 -2.723294 0
M  V30 26 F -6.195899 -1.057078 -3.509804 0
M  V30 27 C -5.457211 0.727389 -1.542016 0
M  V30 28 C 0.563151 1.029745 -1.439060 0
M  V30 29 C 1.357372 -0.196069 -1.022723 0
M  V30 30 C 2.081763 -2.631905 2.281848 0
M  V30 31 C 2.482769 -3.725127 3.008122 0
M  V30 32 N 3.763585 -4.111410 2.952687 0
M  V30 33 H 8.337515 -5.356971 2.200143 0
M  V30 34 H 8.270640 -5.337987 3.990718 0
M  V30 35 H 7.693234 -6.793391 3.179766 0
M  V30 36 H 5.681996 -5.579368 3.550096 0
M  V30 37 H 5.128428 -1.937090 0.915808 0
M  V30 38 H 0.845974 -0.594436 1.062223 0
M  V30 39 H 2.724213 1.704652 0.279712 0
M  V30 40 H 2.177450 1.303548 1.951373 0
M  V30 41 H 0.121000 2.268361 1.736384 0
M  V30 42 H 0.881247 3.165750 0.376277 0
M  V30 43 H -0.674654 0.531424 0.253642 0
M  V30 44 H -1.323499 3.135175 -1.172714 0
M  V30 45 H -3.801629 3.280019 -1.368256 0
M  V30 46 H -5.439221 2.409537 1.363157 0
M  V30 47 H -7.467441 0.978894 1.707439 0
M  V30 48 H -4.954804 0.591964 -2.480548 0
M  V30 49 H 1.216509 1.850719 -1.761764 0
M  V30 50 H -0.176210 0.803479 -2.244531 0
M  V30 51 H 2.279855 -0.316574 -1.603007 0
M  V30 52 H 0.712107 -1.074636 -1.218424 0
M  V30 53 H 1.087996 -2.214846 2.235124 0
M  V30 54 H 1.725909 -4.224972 3.597764 0
M  V30 END ATOM
M  V30 BEGIN BOND
M  V30 1 1 1 2
M  V30 2 1 2 3
M  V30 3 2 3 4
M  V30 4 1 3 5
M  V30 5 2 5 6
M  V30 6 1 6 7
M  V30 7 1 7 8
M  V30 8 1 8 9
M  V30 9 1 9 10
M  V30 10 1 10 11
M  V30 11 1 11 12
M  V30 12 1 12 13
M  V30 13 1 13 14
M  V30 14 2 14 15
M  V30 15 1 14 16
M  V30 16 1 16 17
M  V30 17 2 17 18
M  V30 18 1 18 19
M  V30 19 2 19 20
M  V30 20 1 20 21
M  V30 21 1 20 22
M  V30 22 1 22 23
M  V30 23 1 23 24
M  V30 24 1 23 25
M  V30 25 1 23 26
M  V30 26 2 22 27
M  V30 27 1 12 28
M  V30 28 1 28 29
M  V30 29 2 7 30
M  V30 30 1 30 31
M  V30 31 2 31 32
M  V30 32 1 32 5
M  V30 33 1 29 9
M  V30 34 1 27 17
M  V30 35 1 1 33
M  V30 36 1 1 34
M  V30 37 1 1 35
M  V30 38 1 2 36
M  V30 39 1 6 37
M  V30 40 1 9 38 CFG=1
M  V30 41 1 10 39
M  V30 42 1 10 40
M  V30 43 1 11 41
M  V30 44 1 11 42
M  V30 45 1 12 43 CFG=1
M  V30 46 1 13 44
M  V30 47 1 16 45
M  V30 48 1 18 46
M  V30 49 1 19 47
M  V30 50 1 27 48
M  V30 51 1 28 49
M  V30 52 1 28 50
M  V30 53 1 29 51
M  V30 54 1 29 52
M  V30 55 1 30 53
M  V30 56 1 31 54
M  V30 END BOND
M  V30 END CTAB
M  END
>  <Dataset>  (921) 
ChEMBL_Kinases

>  <Ligand_Instance>  (921) 
nan

>  <PDB_ID>  (921) 
nan

>  <Standardized_SMILES>  (921) 
CNC(=O)c1cc(O[C@H]2CC[C@@H](NC(=O)Nc3ccc(Cl)c(C(F)(F)F)c3)CC2)ccn1

>  <Name>  (921) 
nan

>  <Pocket>  (921) 
nan

>  <ATP_Site>  (921) 
nan

>  <Peripheral>  (921) 
nan

>  <Num_H_Atoms_ProtBoundConf>  (921) 
nan

>  <Num_Resolved_Atoms>  (921) 
nan

>  <Num_Not_Resolved_Atoms>  (921) 
nan

$$$$
CHEMBL2397140
     RDKit          3D

  0  0  0  0  0  0  0  0  0  0999 V3000
M  V30 BEGIN CTAB
M  V30 COUNTS 55 57 0 0 0
M  V30 BEGIN ATOM
M  V30 1 C 8.830562 -3.374330 2.493206 0
M  V30 2 N 8.040645 -2.426559 1.700773 0
M  V30 3 C 6.656069 -2.523612 1.982808 0
M  V30 4 O 6.267724 -3.363380 2.833998 0
M  V30 5 C 5.644749 -1.695269 1.334464 0
M  V30 6 C 4.327070 -1.884833 1.693874 0
M  V30 7 C 3.291004 -1.160028 1.147509 0
M  V30 8 C 3.539128 -0.194199 0.197504 0
M  V30 9 O 2.726208 0.669024 -0.510554 0
M  V30 10 C 1.333639 0.729708 -0.379543 0 CFG=1
M  V30 11 C 0.976618 2.152248 -0.035568 0
M  V30 12 C -0.501832 2.331411 0.220525 0
M  V30 13 C -1.371196 1.507864 -0.702026 0 CFG=2
M  V30 14 N -1.905905 0.392949 0.008011 0
M  V30 15 C -3.313056 0.305696 0.164542 0
M  V30 16 O -4.153631 1.129513 -0.268738 0
M  V30 17 N -3.899416 -0.785662 0.864136 0
M  V30 18 C -5.274532 -1.043932 1.120884 0
M  V30 19 C -5.920266 -0.586314 2.241545 0
M  V30 20 C -7.271633 -0.875525 2.433533 0
M  V30 21 C -7.980728 -1.629321 1.494606 0
M  V30 22 Cl -9.689217 -1.971255 1.778729 0
M  V30 23 C -7.369087 -2.110009 0.351520 0
M  V30 24 C -8.083400 -2.906279 -0.657495 0
M  V30 25 F -8.609275 -4.074834 -0.177893 0
M  V30 26 F -9.134245 -2.183592 -1.235927 0
M  V30 27 F -7.204423 -3.207980 -1.683992 0
M  V30 28 C -6.018536 -1.782965 0.225292 0
M  V30 29 C -0.583667 1.174789 -1.924366 0
M  V30 30 C 0.663881 0.390049 -1.694533 0
M  V30 31 C 4.871633 0.013018 -0.180724 0
M  V30 32 C 5.911724 -0.732663 0.384847 0
M  V30 33 H 8.536218 -3.199336 3.550737 0
M  V30 34 H 8.582923 -4.418747 2.233999 0
M  V30 35 H 9.908500 -3.169614 2.435138 0
M  V30 36 H 8.386387 -1.741294 1.002172 0
M  V30 37 H 4.013535 -2.622455 2.436280 0
M  V30 38 H 2.237418 -1.237573 1.364796 0
M  V30 39 H 1.006019 0.001355 0.355279 0
M  V30 40 H 1.239417 2.782377 -0.908671 0
M  V30 41 H 1.574987 2.493381 0.819216 0
M  V30 42 H -0.716900 2.028358 1.256539 0
M  V30 43 H -0.769045 3.415264 0.162264 0
M  V30 44 H -2.216011 2.152650 -1.024471 0
M  V30 45 H -1.355665 -0.384790 0.434783 0
M  V30 46 H -3.288778 -1.539822 1.272866 0
M  V30 47 H -5.339992 -0.009425 2.941042 0
M  V30 48 H -7.762762 -0.496595 3.339295 0
M  V30 49 H -5.532770 -2.160847 -0.675978 0
M  V30 50 H -1.179504 0.736188 -2.739379 0
M  V30 51 H -0.247755 2.170104 -2.339478 0
M  V30 52 H 1.421989 0.559132 -2.487654 0
M  V30 53 H 0.452495 -0.711336 -1.749140 0
M  V30 54 H 5.254136 0.734477 -0.917324 0
M  V30 55 H 6.943628 -0.606116 0.123992 0
M  V30 END ATOM
M  V30 BEGIN BOND
M  V30 1 1 1 2
M  V30 2 1 2 3
M  V30 3 2 3 4
M  V30 4 1 3 5
M  V30 5 2 5 6
M  V30 6 1 6 7
M  V30 7 2 7 8
M  V30 8 1 8 9
M  V30 9 1 9 10
M  V30 10 1 10 11
M  V30 11 1 11 12
M  V30 12 1 12 13
M  V30 13 1 13 14
M  V30 14 1 14 15
M  V30 15 2 15 16
M  V30 16 1 15 17
M  V30 17 1 17 18
M  V30 18 2 18 19
M  V30 19 1 19 20
M  V30 20 2 20 21
M  V30 21 1 21 22
M  V30 22 1 21 23
M  V30 23 1 23 24
M  V30 24 1 24 25
M  V30 25 1 24 26
M  V30 26 1 24 27
M  V30 27 2 23 28
M  V30 28 1 13 29
M  V30 29 1 29 30
M  V30 30 1 8 31
M  V30 31 2 31 32
M  V30 32 1 32 5
M  V30 33 1 30 10
M  V30 34 1 28 18
M  V30 35 1 1 33
M  V30 36 1 1 34
M  V30 37 1 1 35
M  V30 38 1 2 36
M  V30 39 1 6 37
M  V30 40 1 7 38
M  V30 41 1 10 39 CFG=1
M  V30 42 1 11 40
M  V30 43 1 11 41
M  V30 44 1 12 42
M  V30 45 1 12 43
M  V30 46 1 13 44 CFG=3
M  V30 47 1 14 45
M  V30 48 1 17 46
M  V30 49 1 19 47
M  V30 50 1 20 48
M  V30 51 1 28 49
M  V30 52 1 29 50
M  V30 53 1 29 51
M  V30 54 1 30 52
M  V30 55 1 30 53
M  V30 56 1 31 54
M  V30 57 1 32 55
M  V30 END BOND
M  V30 END CTAB
M  END
>  <Dataset>  (922) 
ChEMBL_Kinases

>  <Ligand_Instance>  (922) 
nan

>  <PDB_ID>  (922) 
nan

>  <Standardized_SMILES>  (922) 
CNC(=O)c1ccc(O[C@H]2CC[C@H](NC(=O)Nc3ccc(Cl)c(C(F)(F)F)c3)CC2)cc1

>  <Name>  (922) 
nan

>  <Pocket>  (922) 
nan

>  <ATP_Site>  (922) 
nan

>  <Peripheral>  (922) 
nan

>  <Num_H_Atoms_ProtBoundConf>  (922) 
nan

>  <Num_Resolved_Atoms>  (922) 
nan

>  <Num_Not_Resolved_Atoms>  (922) 
nan

$$$$
CHEMBL2397141
     RDKit          3D

  0  0  0  0  0  0  0  0  0  0999 V3000
M  V30 BEGIN CTAB
M  V30 COUNTS 54 56 0 0 0
M  V30 BEGIN ATOM
M  V30 1 C -5.284528 -3.722079 -2.806947 0
M  V30 2 N -5.081111 -2.271559 -2.801799 0
M  V30 3 C -3.918724 -1.881572 -2.083982 0
M  V30 4 O -3.197469 -2.756832 -1.541196 0
M  V30 5 C -3.584488 -0.463798 -1.991363 0
M  V30 6 C -2.460730 -0.014648 -1.303616 0
M  V30 7 C -2.135697 1.347139 -1.212059 0
M  V30 8 O -0.997988 1.535465 -0.492563 0
M  V30 9 C -0.402906 2.780163 -0.216027 0 CFG=1
M  V30 10 C -0.358138 3.083010 1.263290 0
M  V30 11 C 0.970071 2.706118 1.877520 0
M  V30 12 C 1.522721 1.547016 1.083648 0 CFG=2
M  V30 13 N 2.556245 0.835943 1.815390 0
M  V30 14 C 2.415598 -0.507727 2.180165 0
M  V30 15 O 1.334570 -1.080022 1.839039 0
M  V30 16 N 3.344424 -1.317929 2.892953 0
M  V30 17 C 2.913292 -2.663317 3.116992 0
M  V30 18 C 2.208136 -2.882272 4.288440 0
M  V30 19 C 1.737049 -4.151120 4.615018 0
M  V30 20 C 1.968617 -5.227353 3.763922 0
M  V30 21 Cl 1.388823 -6.845245 4.142999 0
M  V30 22 C 2.674649 -4.973373 2.605135 0
M  V30 23 C 2.928762 -6.121503 1.684576 0
M  V30 24 F 3.657026 -7.122988 2.309559 0
M  V30 25 F 1.721945 -6.687430 1.292826 0
M  V30 26 F 3.561301 -5.714485 0.539094 0
M  V30 27 C 3.151094 -3.723473 2.261281 0
M  V30 28 C 2.019560 2.051530 -0.227175 0
M  V30 29 C 0.959822 2.917588 -0.856280 0
M  V30 30 C -3.001062 2.210419 -1.847048 0
M  V30 31 C -4.116354 1.782430 -2.531161 0
M  V30 32 N -4.365430 0.461964 -2.577192 0
M  V30 33 H -5.234780 -4.163471 -1.801625 0
M  V30 34 H -6.180289 -4.033217 -3.343827 0
M  V30 35 H -4.401920 -4.142283 -3.370889 0
M  V30 36 H -5.661133 -1.527811 -3.241765 0
M  V30 37 H -1.887066 -0.828049 -0.861660 0
M  V30 38 H -1.029394 3.560532 -0.689033 0
M  V30 39 H -1.202216 2.567358 1.738412 0
M  V30 40 H -0.470494 4.179812 1.382941 0
M  V30 41 H 0.874260 2.424899 2.946249 0
M  V30 42 H 1.717704 3.523978 1.827666 0
M  V30 43 H 0.714747 0.833705 0.921424 0
M  V30 44 H 3.464439 1.294621 2.109112 0
M  V30 45 H 4.243269 -0.825109 3.171145 0
M  V30 46 H 1.979084 -2.097597 5.016618 0
M  V30 47 H 1.178164 -4.321875 5.544597 0
M  V30 48 H 3.705202 -3.511010 1.357183 0
M  V30 49 H 2.338486 1.225563 -0.901091 0
M  V30 50 H 2.908111 2.704891 0.001973 0
M  V30 51 H 0.844684 2.707085 -1.946808 0
M  V30 52 H 1.276335 3.978595 -0.807332 0
M  V30 53 H -2.707114 3.244459 -1.747023 0
M  V30 54 H -4.708201 2.551412 -2.981008 0
M  V30 END ATOM
M  V30 BEGIN BOND
M  V30 1 1 1 2
M  V30 2 1 2 3
M  V30 3 2 3 4
M  V30 4 1 3 5
M  V30 5 2 5 6
M  V30 6 1 6 7
M  V30 7 1 7 8
M  V30 8 1 8 9
M  V30 9 1 9 10
M  V30 10 1 10 11
M  V30 11 1 11 12
M  V30 12 1 12 13
M  V30 13 1 13 14
M  V30 14 2 14 15
M  V30 15 1 14 16
M  V30 16 1 16 17
M  V30 17 2 17 18
M  V30 18 1 18 19
M  V30 19 2 19 20
M  V30 20 1 20 21
M  V30 21 1 20 22
M  V30 22 1 22 23
M  V30 23 1 23 24
M  V30 24 1 23 25
M  V30 25 1 23 26
M  V30 26 2 22 27
M  V30 27 1 12 28
M  V30 28 1 28 29
M  V30 29 2 7 30
M  V30 30 1 30 31
M  V30 31 2 31 32
M  V30 32 1 32 5
M  V30 33 1 29 9
M  V30 34 1 27 17
M  V30 35 1 1 33
M  V30 36 1 1 34
M  V30 37 1 1 35
M  V30 38 1 2 36
M  V30 39 1 6 37
M  V30 40 1 9 38 CFG=3
M  V30 41 1 10 39
M  V30 42 1 10 40
M  V30 43 1 11 41
M  V30 44 1 11 42
M  V30 45 1 12 43 CFG=3
M  V30 46 1 13 44
M  V30 47 1 16 45
M  V30 48 1 18 46
M  V30 49 1 19 47
M  V30 50 1 27 48
M  V30 51 1 28 49
M  V30 52 1 28 50
M  V30 53 1 29 51
M  V30 54 1 29 52
M  V30 55 1 30 53
M  V30 56 1 31 54
M  V30 END BOND
M  V30 END CTAB
M  END
>  <Dataset>  (923) 
ChEMBL_Kinases

>  <Ligand_Instance>  (923) 
nan

>  <PDB_ID>  (923) 
nan

>  <Standardized_SMILES>  (923) 
CNC(=O)c1cc(O[C@H]2CC[C@H](NC(=O)Nc3ccc(Cl)c(C(F)(F)F)c3)CC2)ccn1

>  <Name>  (923) 
nan

>  <Pocket>  (923) 
nan

>  <ATP_Site>  (923) 
nan

>  <Peripheral>  (923) 
nan

>  <Num_H_Atoms_ProtBoundConf>  (923) 
nan

>  <Num_Resolved_Atoms>  (923) 
nan

>  <Num_Not_Resolved_Atoms>  (923) 
nan

$$$$
CHEMBL2397145
     RDKit          3D

  0  0  0  0  0  0  0  0  0  0999 V3000
M  V30 BEGIN CTAB
M  V30 COUNTS 55 57 0 0 0
M  V30 BEGIN ATOM
M  V30 1 C 5.510765 0.524344 -2.225246 0
M  V30 2 N 4.574241 0.786333 -1.147991 0
M  V30 3 C 5.212593 1.464106 -0.091285 0
M  V30 4 O 6.439248 1.714894 -0.260033 0
M  V30 5 C 4.610326 1.898622 1.157863 0
M  V30 6 C 5.393096 2.546300 2.077834 0
M  V30 7 C 4.775485 2.945092 3.259267 0
M  V30 8 C 3.428825 2.680819 3.458828 0
M  V30 9 C 2.650077 2.018232 2.505399 0
M  V30 10 O 1.363763 1.903606 2.984645 0
M  V30 11 C 0.362620 1.282924 2.247147 0 CFG=1
M  V30 12 C -0.174636 0.145960 3.078347 0
M  V30 13 C -1.665778 0.043705 2.945358 0
M  V30 14 C -2.059882 0.115794 1.524091 0 CFG=2
M  V30 15 N -1.510520 -0.840247 0.639386 0
M  V30 16 C -2.331345 -1.754917 -0.079198 0
M  V30 17 O -3.576608 -1.696355 0.088159 0
M  V30 18 N -1.901843 -2.757540 -0.990679 0
M  V30 19 C -2.968751 -3.525167 -1.558445 0
M  V30 20 C -3.672428 -3.253429 -2.733328 0
M  V30 21 C -4.671251 -4.088087 -3.137371 0
M  V30 22 C -4.988660 -5.199849 -2.389164 0
M  V30 23 Cl -6.277872 -6.271604 -2.915722 0
M  V30 24 C -4.321525 -5.526429 -1.203980 0
M  V30 25 C -4.672178 -6.720321 -0.408384 0
M  V30 26 F -3.915262 -6.875472 0.710164 0
M  V30 27 F -4.506676 -7.836989 -1.203394 0
M  V30 28 F -6.040325 -6.684579 -0.112622 0
M  V30 29 C -3.305302 -4.640245 -0.831385 0
M  V30 30 C -1.834539 1.552037 1.081902 0
M  V30 31 C -0.805783 2.227543 1.963343 0
M  V30 32 C 3.277270 1.631802 1.344298 0
M  V30 33 H 4.916168 0.146322 -3.082340 0
M  V30 34 H 6.282493 -0.225294 -1.964872 0
M  V30 35 H 6.024561 1.478084 -2.539763 0
M  V30 36 H 3.561061 0.569246 -1.030117 0
M  V30 37 H 6.428177 2.735877 1.896610 0
M  V30 38 H 5.423849 3.450362 3.955655 0
M  V30 39 H 3.115030 3.065514 4.440343 0
M  V30 40 H 0.714332 0.886766 1.261426 0
M  V30 41 H 0.343801 -0.779705 2.685037 0
M  V30 42 H 0.148803 0.233533 4.139519 0
M  V30 43 H -2.106233 0.915430 3.476726 0
M  V30 44 H -2.085654 -0.825768 3.497491 0
M  V30 45 H -3.180748 -0.034164 1.488955 0
M  V30 46 H -0.487586 -0.997949 0.404563 0
M  V30 47 H -0.849119 -2.811150 -1.136476 0
M  V30 48 H -3.341918 -2.363723 -3.234549 0
M  V30 49 H -5.185803 -3.833519 -4.054959 0
M  V30 50 H -2.814907 -4.926680 0.087011 0
M  V30 51 H -1.530297 1.583307 0.009385 0
M  V30 52 H -2.752513 2.144459 1.146880 0
M  V30 53 H -1.274256 2.637296 2.848948 0
M  V30 54 H -0.403978 3.069398 1.363619 0
M  V30 55 H 2.602675 1.130538 0.670351 0
M  V30 END ATOM
M  V30 BEGIN BOND
M  V30 1 1 1 2
M  V30 2 1 2 3
M  V30 3 2 3 4
M  V30 4 1 3 5
M  V30 5 2 5 6
M  V30 6 1 6 7
M  V30 7 2 7 8
M  V30 8 1 8 9
M  V30 9 1 9 10
M  V30 10 1 10 11
M  V30 11 1 11 12
M  V30 12 1 12 13
M  V30 13 1 13 14
M  V30 14 1 14 15
M  V30 15 1 15 16
M  V30 16 2 16 17
M  V30 17 1 16 18
M  V30 18 1 18 19
M  V30 19 2 19 20
M  V30 20 1 20 21
M  V30 21 2 21 22
M  V30 22 1 22 23
M  V30 23 1 22 24
M  V30 24 1 24 25
M  V30 25 1 25 26
M  V30 26 1 25 27
M  V30 27 1 25 28
M  V30 28 2 24 29
M  V30 29 1 14 30
M  V30 30 1 30 31
M  V30 31 2 9 32
M  V30 32 1 32 5
M  V30 33 1 31 11
M  V30 34 1 29 19
M  V30 35 1 1 33
M  V30 36 1 1 34
M  V30 37 1 1 35
M  V30 38 1 2 36
M  V30 39 1 6 37
M  V30 40 1 7 38
M  V30 41 1 8 39
M  V30 42 1 11 40 CFG=3
M  V30 43 1 12 41
M  V30 44 1 12 42
M  V30 45 1 13 43
M  V30 46 1 13 44
M  V30 47 1 14 45 CFG=1
M  V30 48 1 15 46
M  V30 49 1 18 47
M  V30 50 1 20 48
M  V30 51 1 21 49
M  V30 52 1 29 50
M  V30 53 1 30 51
M  V30 54 1 30 52
M  V30 55 1 31 53
M  V30 56 1 31 54
M  V30 57 1 32 55
M  V30 END BOND
M  V30 END CTAB
M  END
>  <Dataset>  (924) 
ChEMBL_Kinases

>  <Ligand_Instance>  (924) 
nan

>  <PDB_ID>  (924) 
nan

>  <Standardized_SMILES>  (924) 
CNC(=O)c1cccc(O[C@H]2CC[C@H](NC(=O)Nc3ccc(Cl)c(C(F)(F)F)c3)CC2)c1

>  <Name>  (924) 
nan

>  <Pocket>  (924) 
nan

>  <ATP_Site>  (924) 
nan

>  <Peripheral>  (924) 
nan

>  <Num_H_Atoms_ProtBoundConf>  (924) 
nan

>  <Num_Resolved_Atoms>  (924) 
nan

>  <Num_Not_Resolved_Atoms>  (924) 
nan

$$$$
CHEMBL2397146
     RDKit          3D

  0  0  0  0  0  0  0  0  0  0999 V3000
M  V30 BEGIN CTAB
M  V30 COUNTS 54 56 0 0 0
M  V30 BEGIN ATOM
M  V30 1 C 9.172723 -2.805355 2.448661 0
M  V30 2 N 8.148782 -2.066237 1.742434 0
M  V30 3 C 6.783170 -2.246368 2.095263 0
M  V30 4 O 6.492209 -3.058848 3.029785 0
M  V30 5 C 5.729480 -1.510205 1.396049 0
M  V30 6 C 4.416773 -1.714184 1.770083 0
M  V30 7 C 3.360906 -1.062926 1.165694 0
M  V30 8 C 3.627685 -0.171346 0.145950 0
M  V30 9 O 2.817084 0.625270 -0.647086 0
M  V30 10 C 1.428098 0.705282 -0.576846 0 CFG=1
M  V30 11 C 0.971335 2.083702 -0.184862 0
M  V30 12 C -0.505368 2.117466 0.114200 0
M  V30 13 C -1.330701 1.205430 -0.755966 0 CFG=2
M  V30 14 N -1.758740 0.080328 -0.013980 0
M  V30 15 C -3.138373 -0.087431 0.223754 0
M  V30 16 O -4.011741 0.711118 -0.189455 0
M  V30 17 N -3.694558 -1.181275 0.959125 0
M  V30 18 C -5.081994 -1.369004 1.210340 0
M  V30 19 C -5.725098 -0.862375 2.320507 0
M  V30 20 C -7.083896 -1.084677 2.501709 0
M  V30 21 C -7.828970 -1.808299 1.593575 0
M  V30 22 Cl -9.544125 -2.122347 1.766717 0
M  V30 23 C -7.214173 -2.338151 0.456016 0
M  V30 24 C -7.892230 -3.136391 -0.605013 0
M  V30 25 F -7.009199 -3.517350 -1.603731 0
M  V30 26 F -8.910405 -2.426255 -1.218624 0
M  V30 27 F -8.488346 -4.244191 -0.030784 0
M  V30 28 C -5.868296 -2.091505 0.320870 0
M  V30 29 C -0.579233 0.961592 -2.015987 0
M  V30 30 C 0.764508 0.343049 -1.879563 0
M  V30 31 C 4.964034 0.030567 -0.228424 0
M  V30 32 N 5.981262 -0.634634 0.395705 0
M  V30 33 H 9.552094 -2.173824 3.285347 0
M  V30 34 H 8.797554 -3.769806 2.844367 0
M  V30 35 H 10.018168 -2.925068 1.745165 0
M  V30 36 H 8.384638 -1.398572 0.974995 0
M  V30 37 H 4.100116 -2.399357 2.566010 0
M  V30 38 H 2.309120 -1.128793 1.356978 0
M  V30 39 H 1.088234 0.025516 0.229546 0
M  V30 40 H 1.505229 2.316750 0.776127 0
M  V30 41 H 1.271541 2.877810 -0.888724 0
M  V30 42 H -0.695846 1.834212 1.169628 0
M  V30 43 H -0.848132 3.178615 0.043659 0
M  V30 44 H -2.241302 1.798117 -1.049078 0
M  V30 45 H -1.190063 -0.685548 0.407536 0
M  V30 46 H -3.040673 -1.912909 1.351821 0
M  V30 47 H -5.149114 -0.290777 3.042494 0
M  V30 48 H -7.609727 -0.689667 3.377448 0
M  V30 49 H -5.345991 -2.487311 -0.554771 0
M  V30 50 H -1.141443 0.374818 -2.773731 0
M  V30 51 H -0.455200 1.962004 -2.494517 0
M  V30 52 H 1.470947 0.719375 -2.677011 0
M  V30 53 H 0.756854 -0.755140 -2.035259 0
M  V30 54 H 5.361351 0.681647 -0.995448 0
M  V30 END ATOM
M  V30 BEGIN BOND
M  V30 1 1 1 2
M  V30 2 1 2 3
M  V30 3 2 3 4
M  V30 4 1 3 5
M  V30 5 2 5 6
M  V30 6 1 6 7
M  V30 7 2 7 8
M  V30 8 1 8 9
M  V30 9 1 9 10
M  V30 10 1 10 11
M  V30 11 1 11 12
M  V30 12 1 12 13
M  V30 13 1 13 14
M  V30 14 1 14 15
M  V30 15 2 15 16
M  V30 16 1 15 17
M  V30 17 1 17 18
M  V30 18 2 18 19
M  V30 19 1 19 20
M  V30 20 2 20 21
M  V30 21 1 21 22
M  V30 22 1 21 23
M  V30 23 1 23 24
M  V30 24 1 24 25
M  V30 25 1 24 26
M  V30 26 1 24 27
M  V30 27 2 23 28
M  V30 28 1 13 29
M  V30 29 1 29 30
M  V30 30 1 8 31
M  V30 31 2 31 32
M  V30 32 1 32 5
M  V30 33 1 30 10
M  V30 34 1 28 18
M  V30 35 1 1 33
M  V30 36 1 1 34
M  V30 37 1 1 35
M  V30 38 1 2 36
M  V30 39 1 6 37
M  V30 40 1 7 38
M  V30 41 1 10 39 CFG=1
M  V30 42 1 11 40
M  V30 43 1 11 41
M  V30 44 1 12 42
M  V30 45 1 12 43
M  V30 46 1 13 44 CFG=3
M  V30 47 1 14 45
M  V30 48 1 17 46
M  V30 49 1 19 47
M  V30 50 1 20 48
M  V30 51 1 28 49
M  V30 52 1 29 50
M  V30 53 1 29 51
M  V30 54 1 30 52
M  V30 55 1 30 53
M  V30 56 1 31 54
M  V30 END BOND
M  V30 END CTAB
M  END
>  <Dataset>  (925) 
ChEMBL_Kinases

>  <Ligand_Instance>  (925) 
nan

>  <PDB_ID>  (925) 
nan

>  <Standardized_SMILES>  (925) 
CNC(=O)c1ccc(O[C@H]2CC[C@H](NC(=O)Nc3ccc(Cl)c(C(F)(F)F)c3)CC2)cn1

>  <Name>  (925) 
nan

>  <Pocket>  (925) 
nan

>  <ATP_Site>  (925) 
nan

>  <Peripheral>  (925) 
nan

>  <Num_H_Atoms_ProtBoundConf>  (925) 
nan

>  <Num_Resolved_Atoms>  (925) 
nan

>  <Num_Not_Resolved_Atoms>  (925) 
nan

$$$$
CHEMBL2397147
     RDKit          3D

  0  0  0  0  0  0  0  0  0  0999 V3000
M  V30 BEGIN CTAB
M  V30 COUNTS 51 53 0 0 0
M  V30 BEGIN ATOM
M  V30 1 O 2.451873 0.868949 -1.336201 0
M  V30 2 C 2.210393 0.906839 -0.106303 0
M  V30 3 N 2.949173 1.864772 0.625381 0
M  V30 4 C 3.872641 2.665643 -0.111240 0
M  V30 5 C 3.343695 3.830056 -0.606923 0
M  V30 6 C 4.174645 4.675279 -1.339574 0
M  V30 7 C 5.503484 4.366054 -1.572799 0
M  V30 8 Cl 6.484254 5.481740 -2.504897 0
M  V30 9 C 5.987413 3.197018 -1.060706 0
M  V30 10 C 7.415689 2.864193 -1.309125 0
M  V30 11 F 7.722991 1.645722 -0.716196 0
M  V30 12 F 7.624235 2.700617 -2.665913 0
M  V30 13 F 8.281366 3.807562 -0.789774 0
M  V30 14 C 5.198433 2.333915 -0.330796 0
M  V30 15 N 1.252408 0.009560 0.388167 0
M  V30 16 C 0.544952 -0.944023 -0.455530 0 CFG=1
M  V30 17 C 0.767731 -2.356692 -0.115277 0
M  V30 18 C -0.323585 -3.124495 0.534835 0
M  V30 19 C -1.645629 -2.451399 0.656524 0 CFG=2
M  V30 20 O -2.641236 -3.405812 0.848237 0
M  V30 21 C -3.608856 -3.441450 1.807900 0
M  V30 22 C -4.427520 -4.568120 1.674801 0
M  V30 23 C -5.488886 -4.809402 2.552723 0
M  V30 24 C -5.687387 -3.884731 3.552556 0
M  V30 25 C -6.791604 -4.120320 4.475012 0
M  V30 26 O -7.553626 -5.116956 4.390838 0
M  V30 27 O -7.134413 -3.296348 5.536548 0
M  V30 28 C -4.912305 -2.758686 3.729749 0
M  V30 29 C -3.855917 -2.534341 2.842105 0
M  V30 30 C -1.845967 -1.678710 -0.655627 0
M  V30 31 C -0.895191 -0.508471 -0.523460 0
M  V30 32 H 2.750577 1.905600 1.669367 0
M  V30 33 H 2.327892 4.183645 -0.495344 0
M  V30 34 H 3.797907 5.604015 -1.748412 0
M  V30 35 H 5.561067 1.401662 0.085049 0
M  V30 36 H 1.078671 0.076605 1.436114 0
M  V30 37 H 0.955227 -0.747465 -1.470698 0
M  V30 38 H 1.716282 -2.402660 0.502528 0
M  V30 39 H 1.078930 -2.937647 -1.026590 0
M  V30 40 H -0.033496 -3.496024 1.564837 0
M  V30 41 H -0.536827 -4.107173 0.010232 0
M  V30 42 H -1.733429 -1.682829 1.443736 0
M  V30 43 H -4.320852 -5.334633 0.905394 0
M  V30 44 H -6.123032 -5.684881 2.447301 0
M  V30 45 H -8.111199 -3.013810 5.709097 0
M  V30 46 H -5.062327 -2.027496 4.511816 0
M  V30 47 H -3.182284 -1.705767 2.866152 0
M  V30 48 H -2.873362 -1.271342 -0.612489 0
M  V30 49 H -1.686939 -2.298368 -1.537278 0
M  V30 50 H -1.124923 0.182947 -1.359172 0
M  V30 51 H -1.203435 0.010954 0.407984 0
M  V30 END ATOM
M  V30 BEGIN BOND
M  V30 1 2 1 2
M  V30 2 1 2 3
M  V30 3 1 3 4
M  V30 4 2 4 5
M  V30 5 1 5 6
M  V30 6 2 6 7
M  V30 7 1 7 8
M  V30 8 1 7 9
M  V30 9 1 9 10
M  V30 10 1 10 11
M  V30 11 1 10 12
M  V30 12 1 10 13
M  V30 13 2 9 14
M  V30 14 1 2 15
M  V30 15 1 15 16
M  V30 16 1 16 17
M  V30 17 1 17 18
M  V30 18 1 18 19
M  V30 19 1 19 20
M  V30 20 1 20 21
M  V30 21 2 21 22
M  V30 22 1 22 23
M  V30 23 2 23 24
M  V30 24 1 24 25
M  V30 25 2 25 26
M  V30 26 1 25 27
M  V30 27 1 24 28
M  V30 28 2 28 29
M  V30 29 1 19 30
M  V30 30 1 30 31
M  V30 31 1 14 4
M  V30 32 1 31 16
M  V30 33 1 29 21
M  V30 34 1 3 32
M  V30 35 1 5 33
M  V30 36 1 6 34
M  V30 37 1 14 35
M  V30 38 1 15 36
M  V30 39 1 16 37 CFG=3
M  V30 40 1 17 38
M  V30 41 1 17 39
M  V30 42 1 18 40
M  V30 43 1 18 41
M  V30 44 1 19 42 CFG=1
M  V30 45 1 22 43
M  V30 46 1 23 44
M  V30 47 1 27 45
M  V30 48 1 28 46
M  V30 49 1 29 47
M  V30 50 1 30 48
M  V30 51 1 30 49
M  V30 52 1 31 50
M  V30 53 1 31 51
M  V30 END BOND
M  V30 END CTAB
M  END
>  <Dataset>  (926) 
ChEMBL_Kinases

>  <Ligand_Instance>  (926) 
nan

>  <PDB_ID>  (926) 
nan

>  <Standardized_SMILES>  (926) 
O=C(Nc1ccc(Cl)c(C(F)(F)F)c1)N[C@H]1CC[C@H](Oc2ccc(C(=O)O)cc2)CC1

>  <Name>  (926) 
nan

>  <Pocket>  (926) 
nan

>  <ATP_Site>  (926) 
nan

>  <Peripheral>  (926) 
nan

>  <Num_H_Atoms_ProtBoundConf>  (926) 
nan

>  <Num_Resolved_Atoms>  (926) 
nan

>  <Num_Not_Resolved_Atoms>  (926) 
nan

$$$$
CHEMBL2397013
     RDKit          3D

  0  0  0  0  0  0  0  0  0  0999 V3000
M  V30 BEGIN CTAB
M  V30 COUNTS 35 38 0 0 0
M  V30 BEGIN ATOM
M  V30 1 O -2.427187 -1.920698 3.308212 0
M  V30 2 C -1.378781 -1.824342 2.643776 0
M  V30 3 N -0.230559 -2.651592 2.708059 0
M  V30 4 C 0.708516 -2.142864 1.759688 0
M  V30 5 C 1.968076 -2.623736 1.468594 0
M  V30 6 C 2.680401 -1.940358 0.495753 0
M  V30 7 C 2.184911 -0.816471 -0.180187 0
M  V30 8 C 3.006434 -0.154706 -1.196788 0
M  V30 9 C 3.892057 -0.928373 -1.955426 0
M  V30 10 C 4.669268 -0.320223 -2.914214 0
M  V30 11 C 4.509986 1.037304 -3.055300 0
M  V30 12 N 3.659598 1.769079 -2.324584 0
M  V30 13 C 2.871079 1.227215 -1.368952 0
M  V30 14 C 0.930765 -0.406474 0.168796 0
M  V30 15 C 0.153622 -1.027104 1.124443 0
M  V30 16 C -1.205008 -0.778207 1.663446 0
M  V30 17 C -1.938628 0.216254 1.199444 0
M  V30 18 C -3.278174 0.404395 1.729372 0
M  V30 19 C -4.332530 -0.488686 1.879552 0
M  V30 20 C -5.426583 0.080535 2.449395 0
M  V30 21 C -5.075314 1.400726 2.681515 0
M  V30 22 N -3.810771 1.551496 2.246180 0
M  V30 23 H -0.181260 -3.464426 3.368771 0
M  V30 24 H 2.359244 -3.490045 1.984452 0
M  V30 25 H 3.685787 -2.319319 0.259586 0
M  V30 26 H 3.990344 -1.995466 -1.815397 0
M  V30 27 H 5.381389 -0.818475 -3.553395 0
M  V30 28 H 5.046328 1.669657 -3.764709 0
M  V30 29 H 2.162507 1.746847 -0.742756 0
M  V30 30 H 0.553308 0.465197 -0.361078 0
M  V30 31 H -1.571832 0.893320 0.438987 0
M  V30 32 H -4.370308 -1.535183 1.586248 0
M  V30 33 H -6.384392 -0.344455 2.694180 0
M  V30 34 H -5.651711 2.202323 3.118602 0
M  V30 35 H -3.256416 2.455403 2.285024 0
M  V30 END ATOM
M  V30 BEGIN BOND
M  V30 1 2 1 2
M  V30 2 1 2 3
M  V30 3 1 3 4
M  V30 4 2 4 5
M  V30 5 1 5 6
M  V30 6 2 6 7
M  V30 7 1 7 8
M  V30 8 2 8 9
M  V30 9 1 9 10
M  V30 10 2 10 11
M  V30 11 1 11 12
M  V30 12 2 12 13
M  V30 13 1 7 14
M  V30 14 2 14 15
M  V30 15 1 15 16
M  V30 16 2 16 17
M  V30 17 1 17 18
M  V30 18 2 18 19
M  V30 19 1 19 20
M  V30 20 2 20 21
M  V30 21 1 21 22
M  V30 22 1 16 2
M  V30 23 1 22 18
M  V30 24 1 15 4
M  V30 25 1 13 8
M  V30 26 1 3 23
M  V30 27 1 5 24
M  V30 28 1 6 25
M  V30 29 1 9 26
M  V30 30 1 10 27
M  V30 31 1 11 28
M  V30 32 1 13 29
M  V30 33 1 14 30
M  V30 34 1 17 31
M  V30 35 1 19 32
M  V30 36 1 20 33
M  V30 37 1 21 34
M  V30 38 1 22 35
M  V30 END BOND
M  V30 END CTAB
M  END
>  <Dataset>  (927) 
ChEMBL_Kinases

>  <Ligand_Instance>  (927) 
nan

>  <PDB_ID>  (927) 
nan

>  <Standardized_SMILES>  (927) 
O=C1Nc2ccc(-c3cccnc3)cc2/C1=C/c1ccc[nH]1

>  <Name>  (927) 
nan

>  <Pocket>  (927) 
nan

>  <ATP_Site>  (927) 
nan

>  <Peripheral>  (927) 
nan

>  <Num_H_Atoms_ProtBoundConf>  (927) 
nan

>  <Num_Resolved_Atoms>  (927) 
nan

>  <Num_Not_Resolved_Atoms>  (927) 
nan

$$$$
CHEMBL2386274
     RDKit          3D

  0  0  0  0  0  0  0  0  0  0999 V3000
M  V30 BEGIN CTAB
M  V30 COUNTS 59 63 0 0 0
M  V30 BEGIN ATOM
M  V30 1 C 2.062700 -2.021223 0.406321 0
M  V30 2 N 0.842064 -1.302154 0.665803 0
M  V30 3 C 0.674440 0.026274 0.546923 0
M  V30 4 C -0.560063 0.503266 0.901816 0
M  V30 5 C -1.242857 1.780474 1.011681 0
M  V30 6 C -0.979141 2.953489 1.617225 0
M  V30 7 C 0.107596 3.470966 2.432242 0
M  V30 8 C -0.137940 3.973483 3.720052 0
M  V30 9 O 0.978788 4.391704 4.239876 0
M  V30 10 C 1.998113 4.238384 3.449133 0
M  V30 11 C 3.359397 4.480452 3.444173 0
M  V30 12 C 4.155023 4.169184 2.362634 0
M  V30 13 C 3.585720 3.594157 1.235404 0
M  V30 14 C 2.241423 3.348886 1.228144 0
M  V30 15 C 1.466015 3.664050 2.315041 0
M  V30 16 C -2.098549 3.870664 1.306140 0
M  V30 17 O -2.255018 5.085476 1.680286 0
M  V30 18 N -3.076582 3.245181 0.485636 0
M  V30 19 C -2.537718 1.943290 0.304831 0
M  V30 20 O -3.196719 1.109167 -0.409586 0
M  V30 21 C -1.226681 -0.674441 1.283340 0
M  V30 22 C -2.483624 -0.942553 1.784997 0
M  V30 23 C -2.920836 -2.198157 2.134578 0
M  V30 24 C -2.022055 -3.227636 1.957949 0
M  V30 25 C -0.726652 -3.030169 1.451329 0
M  V30 26 C 0.056874 -4.261542 1.205292 0
M  V30 27 C -0.240061 -4.858511 -0.147338 0
M  V30 28 O -0.007294 -4.013401 -1.183082 0
M  V30 29 C -0.265024 -4.509079 -2.443051 0
M  V30 30 C -1.689902 -4.931102 -2.672097 0
M  V30 31 C 0.133621 -3.424515 -3.423740 0
M  V30 32 C 0.600005 -5.723029 -2.766105 0
M  V30 33 C -0.356360 -1.742390 1.126588 0
M  V30 34 H 2.823959 -1.251115 0.061029 0
M  V30 35 H 2.544056 -2.370918 1.360961 0
M  V30 36 H 2.068361 -2.750295 -0.381580 0
M  V30 37 H 1.425592 0.684194 0.200956 0
M  V30 38 H -1.048385 4.064009 4.313343 0
M  V30 39 H 3.762410 4.930141 4.344176 0
M  V30 40 H 5.219327 4.373356 2.392978 0
M  V30 41 H 4.248237 3.372622 0.422992 0
M  V30 42 H 1.830628 2.927476 0.349867 0
M  V30 43 H -3.952137 3.656301 0.124357 0
M  V30 44 H -3.215863 -0.170345 1.949211 0
M  V30 45 H -3.900127 -2.409283 2.527049 0
M  V30 46 H -2.354419 -4.241864 2.232096 0
M  V30 47 H -0.325932 -5.042719 1.935705 0
M  V30 48 H 1.115563 -4.211824 1.438311 0
M  V30 49 H -1.324474 -5.164426 -0.226058 0
M  V30 50 H 0.331935 -5.824003 -0.273533 0
M  V30 51 H -2.422085 -4.325556 -2.101882 0
M  V30 52 H -1.796237 -6.018393 -2.556592 0
M  V30 53 H -1.911958 -4.697973 -3.749228 0
M  V30 54 H 1.223272 -3.230800 -3.200194 0
M  V30 55 H 0.046353 -3.765714 -4.474424 0
M  V30 56 H -0.388158 -2.488245 -3.221062 0
M  V30 57 H 0.096677 -6.669515 -2.495797 0
M  V30 58 H 1.623099 -5.638990 -2.345127 0
M  V30 59 H 0.710470 -5.739701 -3.870443 0
M  V30 END ATOM
M  V30 BEGIN BOND
M  V30 1 1 1 2
M  V30 2 1 2 3
M  V30 3 2 3 4
M  V30 4 1 4 5
M  V30 5 2 5 6
M  V30 6 1 6 7
M  V30 7 2 7 8
M  V30 8 1 8 9
M  V30 9 1 9 10
M  V30 10 2 10 11
M  V30 11 1 11 12
M  V30 12 2 12 13
M  V30 13 1 13 14
M  V30 14 2 14 15
M  V30 15 1 6 16
M  V30 16 2 16 17
M  V30 17 1 16 18
M  V30 18 1 18 19
M  V30 19 2 19 20
M  V30 20 1 4 21
M  V30 21 2 21 22
M  V30 22 1 22 23
M  V30 23 2 23 24
M  V30 24 1 24 25
M  V30 25 1 25 26
M  V30 26 1 26 27
M  V30 27 1 27 28
M  V30 28 1 28 29
M  V30 29 1 29 30
M  V30 30 1 29 31
M  V30 31 1 29 32
M  V30 32 2 25 33
M  V30 33 1 33 2
M  V30 34 1 19 5
M  V30 35 1 33 21
M  V30 36 1 15 7
M  V30 37 1 15 10
M  V30 38 1 1 34
M  V30 39 1 1 35
M  V30 40 1 1 36
M  V30 41 1 3 37
M  V30 42 1 8 38
M  V30 43 1 11 39
M  V30 44 1 12 40
M  V30 45 1 13 41
M  V30 46 1 14 42
M  V30 47 1 18 43
M  V30 48 1 22 44
M  V30 49 1 23 45
M  V30 50 1 24 46
M  V30 51 1 26 47
M  V30 52 1 26 48
M  V30 53 1 27 49
M  V30 54 1 27 50
M  V30 55 1 30 51
M  V30 56 1 30 52
M  V30 57 1 30 53
M  V30 58 1 31 54
M  V30 59 1 31 55
M  V30 60 1 31 56
M  V30 61 1 32 57
M  V30 62 1 32 58
M  V30 63 1 32 59
M  V30 END BOND
M  V30 END CTAB
M  END
>  <Dataset>  (928) 
ChEMBL_Kinases

>  <Ligand_Instance>  (928) 
nan

>  <PDB_ID>  (928) 
nan

>  <Standardized_SMILES>  (928) 
Cn1cc(C2=C(c3coc4ccccc34)C(=O)NC2=O)c2cccc(CCOC(C)(C)C)c21

>  <Name>  (928) 
nan

>  <Pocket>  (928) 
nan

>  <ATP_Site>  (928) 
nan

>  <Peripheral>  (928) 
nan

>  <Num_H_Atoms_ProtBoundConf>  (928) 
nan

>  <Num_Resolved_Atoms>  (928) 
nan

>  <Num_Not_Resolved_Atoms>  (928) 
nan

$$$$
CHEMBL2386273
     RDKit          3D

  0  0  0  0  0  0  0  0  0  0999 V3000
M  V30 BEGIN CTAB
M  V30 COUNTS 50 54 0 0 0
M  V30 BEGIN ATOM
M  V30 1 C 0.001619 -2.290049 4.219166 0
M  V30 2 O 0.869032 -2.579547 3.184076 0
M  V30 3 C 2.169674 -2.713395 3.581608 0
M  V30 4 C 3.038951 -3.021771 2.353236 0
M  V30 5 C 2.817785 -1.917888 1.427213 0
M  V30 6 C 3.569203 -0.768254 1.638437 0
M  V30 7 C 3.311373 0.367666 0.884636 0
M  V30 8 C 2.307631 0.316225 -0.060014 0
M  V30 9 C 1.593699 -0.848923 -0.231376 0
M  V30 10 C 0.604473 -1.052955 -1.142982 0
M  V30 11 C -0.124401 -0.236806 -2.137592 0
M  V30 12 C -0.704727 0.952626 -1.870510 0
M  V30 13 C -0.870673 1.836318 -0.731731 0
M  V30 14 C -0.176343 2.807912 -0.048238 0
M  V30 15 O -0.862890 3.232295 0.982932 0
M  V30 16 C -2.008706 2.619863 1.072518 0
M  V30 17 C -2.993184 2.799595 2.023159 0
M  V30 18 C -4.139436 2.009536 1.896640 0
M  V30 19 C -4.233361 1.110216 0.856225 0
M  V30 20 C -3.208744 0.985065 -0.056769 0
M  V30 21 C -2.057753 1.725721 0.004777 0
M  V30 22 C -1.313928 1.451112 -3.093785 0
M  V30 23 O -1.966658 2.459089 -3.459970 0
M  V30 24 N -1.083812 0.502208 -4.157197 0
M  V30 25 C -0.330524 -0.565035 -3.547497 0
M  V30 26 O 0.132925 -1.650384 -4.032617 0
M  V30 27 C 0.249381 -2.388776 -0.933258 0
M  V30 28 N 0.982423 -2.982485 0.062602 0
M  V30 29 C 0.930423 -4.351097 0.515665 0
M  V30 30 C 1.811681 -2.001536 0.488787 0
M  V30 31 H -1.011282 -2.216488 3.772190 0
M  V30 32 H -0.026874 -3.044597 5.007865 0
M  V30 33 H 0.261607 -1.302147 4.704421 0
M  V30 34 H 2.223724 -3.570364 4.313040 0
M  V30 35 H 2.509980 -1.771625 4.062779 0
M  V30 36 H 4.084040 -2.960133 2.743542 0
M  V30 37 H 2.854049 -4.024598 2.081004 0
M  V30 38 H 4.355513 -0.743572 2.386777 0
M  V30 39 H 3.915040 1.251782 1.072964 0
M  V30 40 H 2.133377 1.186755 -0.630457 0
M  V30 41 H 0.790440 3.094806 -0.410122 0
M  V30 42 H -2.870977 3.516120 2.818903 0
M  V30 43 H -4.883953 2.184864 2.668135 0
M  V30 44 H -5.139061 0.555409 0.844360 0
M  V30 45 H -3.315128 0.270919 -0.857495 0
M  V30 46 H -1.281789 0.360750 -5.171033 0
M  V30 47 H -0.521765 -2.930670 -1.486872 0
M  V30 48 H 0.584939 -4.543195 1.513250 0
M  V30 49 H 1.807427 -4.946274 0.175939 0
M  V30 50 H 0.117085 -4.815724 -0.128070 0
M  V30 END ATOM
M  V30 BEGIN BOND
M  V30 1 1 1 2
M  V30 2 1 2 3
M  V30 3 1 3 4
M  V30 4 1 4 5
M  V30 5 2 5 6
M  V30 6 1 6 7
M  V30 7 2 7 8
M  V30 8 1 8 9
M  V30 9 1 9 10
M  V30 10 1 10 11
M  V30 11 2 11 12
M  V30 12 1 12 13
M  V30 13 2 13 14
M  V30 14 1 14 15
M  V30 15 1 15 16
M  V30 16 2 16 17
M  V30 17 1 17 18
M  V30 18 2 18 19
M  V30 19 1 19 20
M  V30 20 2 20 21
M  V30 21 1 12 22
M  V30 22 2 22 23
M  V30 23 1 22 24
M  V30 24 1 24 25
M  V30 25 2 25 26
M  V30 26 2 10 27
M  V30 27 1 27 28
M  V30 28 1 28 29
M  V30 29 1 28 30
M  V30 30 1 30 5
M  V30 31 2 30 9
M  V30 32 1 25 11
M  V30 33 1 21 13
M  V30 34 1 21 16
M  V30 35 1 1 31
M  V30 36 1 1 32
M  V30 37 1 1 33
M  V30 38 1 3 34
M  V30 39 1 3 35
M  V30 40 1 4 36
M  V30 41 1 4 37
M  V30 42 1 6 38
M  V30 43 1 7 39
M  V30 44 1 8 40
M  V30 45 1 14 41
M  V30 46 1 17 42
M  V30 47 1 18 43
M  V30 48 1 19 44
M  V30 49 1 20 45
M  V30 50 1 24 46
M  V30 51 1 27 47
M  V30 52 1 29 48
M  V30 53 1 29 49
M  V30 54 1 29 50
M  V30 END BOND
M  V30 END CTAB
M  END
>  <Dataset>  (929) 
ChEMBL_Kinases

>  <Ligand_Instance>  (929) 
nan

>  <PDB_ID>  (929) 
nan

>  <Standardized_SMILES>  (929) 
COCCc1cccc2c(C3=C(c4coc5ccccc45)C(=O)NC3=O)cn(C)c12

>  <Name>  (929) 
nan

>  <Pocket>  (929) 
nan

>  <ATP_Site>  (929) 
nan

>  <Peripheral>  (929) 
nan

>  <Num_H_Atoms_ProtBoundConf>  (929) 
nan

>  <Num_Resolved_Atoms>  (929) 
nan

>  <Num_Not_Resolved_Atoms>  (929) 
nan

$$$$
CHEMBL2386272
     RDKit          3D

  0  0  0  0  0  0  0  0  0  0999 V3000
M  V30 BEGIN CTAB
M  V30 COUNTS 40 44 0 0 0
M  V30 BEGIN ATOM
M  V30 1 C -1.264628 -4.584309 3.411907 0
M  V30 2 N -0.856788 -3.511705 2.495719 0
M  V30 3 C 0.333076 -3.339814 1.925294 0
M  V30 4 C 0.369441 -2.220691 1.119120 0
M  V30 5 C 1.494814 -1.742282 0.339572 0
M  V30 6 C 2.018753 -0.549609 0.145949 0
M  V30 7 C 1.676324 0.790043 0.645798 0
M  V30 8 C 1.420131 1.246800 1.942988 0
M  V30 9 N 1.134094 2.558678 1.866643 0
M  V30 10 C 1.191307 2.975610 0.592794 0
M  V30 11 C 0.960791 4.227492 0.103863 0
M  V30 12 C 1.067613 4.425208 -1.259148 0
M  V30 13 C 1.401081 3.356693 -2.063816 0
M  V30 14 C 1.610237 2.141630 -1.452204 0
M  V30 15 N 1.519891 1.893046 -0.132826 0
M  V30 16 C 3.178829 -0.690763 -0.749020 0
M  V30 17 O 4.043907 0.102221 -1.261971 0
M  V30 18 N 3.352701 -2.076654 -1.114753 0
M  V30 19 C 2.280463 -2.741103 -0.420836 0
M  V30 20 O 2.117360 -3.996480 -0.512316 0
M  V30 21 C -0.898500 -1.727969 1.247450 0
M  V30 22 C -1.545003 -0.633208 0.709248 0
M  V30 23 C -2.842342 -0.304008 0.959372 0
M  V30 24 Br -3.648097 1.236404 0.160860 0
M  V30 25 C -3.594124 -1.093156 1.802664 0
M  V30 26 C -2.966563 -2.207953 2.361853 0
M  V30 27 C -1.661920 -2.508152 2.087350 0
M  V30 28 H -0.920008 -5.565621 3.019496 0
M  V30 29 H -0.833982 -4.336978 4.394685 0
M  V30 30 H -2.382326 -4.637500 3.458588 0
M  V30 31 H 1.164814 -4.032945 2.100129 0
M  V30 32 H 1.465258 0.579847 2.795355 0
M  V30 33 H 0.703972 5.082749 0.672291 0
M  V30 34 H 0.899453 5.388070 -1.747458 0
M  V30 35 H 1.485501 3.498721 -3.130551 0
M  V30 36 H 1.853116 1.351599 -2.146634 0
M  V30 37 H 4.061628 -2.553671 -1.729523 0
M  V30 38 H -1.000205 0.010514 0.039035 0
M  V30 39 H -4.619750 -0.842445 2.006861 0
M  V30 40 H -3.566840 -2.816754 3.022003 0
M  V30 END ATOM
M  V30 BEGIN BOND
M  V30 1 1 1 2
M  V30 2 1 2 3
M  V30 3 2 3 4
M  V30 4 1 4 5
M  V30 5 2 5 6
M  V30 6 1 6 7
M  V30 7 2 7 8
M  V30 8 1 8 9
M  V30 9 2 9 10
M  V30 10 1 10 11
M  V30 11 2 11 12
M  V30 12 1 12 13
M  V30 13 2 13 14
M  V30 14 1 14 15
M  V30 15 1 6 16
M  V30 16 2 16 17
M  V30 17 1 16 18
M  V30 18 1 18 19
M  V30 19 2 19 20
M  V30 20 1 4 21
M  V30 21 2 21 22
M  V30 22 1 22 23
M  V30 23 1 23 24
M  V30 24 2 23 25
M  V30 25 1 25 26
M  V30 26 2 26 27
M  V30 27 1 27 2
M  V30 28 1 19 5
M  V30 29 1 27 21
M  V30 30 1 15 7
M  V30 31 1 15 10
M  V30 32 1 1 28
M  V30 33 1 1 29
M  V30 34 1 1 30
M  V30 35 1 3 31
M  V30 36 1 8 32
M  V30 37 1 11 33
M  V30 38 1 12 34
M  V30 39 1 13 35
M  V30 40 1 14 36
M  V30 41 1 18 37
M  V30 42 1 22 38
M  V30 43 1 25 39
M  V30 44 1 26 40
M  V30 END BOND
M  V30 END CTAB
M  END
>  <Dataset>  (930) 
ChEMBL_Kinases

>  <Ligand_Instance>  (930) 
nan

>  <PDB_ID>  (930) 
nan

>  <Standardized_SMILES>  (930) 
Cn1cc(C2=C(c3cnc4ccccn34)C(=O)NC2=O)c2cc(Br)ccc21

>  <Name>  (930) 
nan

>  <Pocket>  (930) 
nan

>  <ATP_Site>  (930) 
nan

>  <Peripheral>  (930) 
nan

>  <Num_H_Atoms_ProtBoundConf>  (930) 
nan

>  <Num_Resolved_Atoms>  (930) 
nan

>  <Num_Not_Resolved_Atoms>  (930) 
nan

$$$$
CHEMBL238625
     RDKit          3D

  0  0  0  0  0  0  0  0  0  0999 V3000
M  V30 BEGIN CTAB
M  V30 COUNTS 30 34 0 0 0
M  V30 BEGIN ATOM
M  V30 1 O 3.087850 0.482230 2.413945 0
M  V30 2 C 2.315787 -0.482547 2.470226 0
M  V30 3 N 2.608727 -1.437248 3.473403 0
M  V30 4 C 1.638468 -2.487018 3.417946 0
M  V30 5 O 1.542082 -3.513688 4.127945 0
M  V30 6 C 0.766327 -2.071831 2.314055 0
M  V30 7 C 1.147676 -0.889615 1.738849 0
M  V30 8 C 0.439812 -0.371602 0.702459 0
M  V30 9 C 0.637983 0.772690 -0.007527 0
M  V30 10 C 1.481643 1.837856 -0.077489 0
M  V30 11 C 1.396615 2.884887 -0.965895 0
M  V30 12 Br 2.635847 4.334151 -0.979214 0
M  V30 13 C 0.347613 2.867722 -1.892942 0
M  V30 14 C -0.536340 1.807256 -1.862749 0
M  V30 15 C -0.379238 0.792386 -0.934682 0
M  V30 16 N -1.156722 -0.318611 -0.769842 0
M  V30 17 C -0.659121 -1.054068 0.246727 0
M  V30 18 C -1.034945 -2.244202 0.833029 0
M  V30 19 C -2.102411 -3.043924 0.496461 0
M  V30 20 C -2.044679 -4.106589 1.372535 0
M  V30 21 C -0.951769 -3.889361 2.183761 0
M  V30 22 N -0.324376 -2.745490 1.858869 0
M  V30 23 H 3.373668 -1.502012 4.209368 0
M  V30 24 H 2.299888 1.920355 0.592026 0
M  V30 25 H 0.200772 3.646390 -2.628593 0
M  V30 26 H -1.355419 1.767761 -2.566369 0
M  V30 27 H -2.014464 -0.585406 -1.331802 0
M  V30 28 H -2.838240 -2.903747 -0.271904 0
M  V30 29 H -2.711687 -4.956724 1.434067 0
M  V30 30 H -0.608471 -4.527143 2.986242 0
M  V30 END ATOM
M  V30 BEGIN BOND
M  V30 1 2 1 2
M  V30 2 1 2 3
M  V30 3 1 3 4
M  V30 4 2 4 5
M  V30 5 1 4 6
M  V30 6 2 6 7
M  V30 7 1 7 8
M  V30 8 1 8 9
M  V30 9 2 9 10
M  V30 10 1 10 11
M  V30 11 1 11 12
M  V30 12 2 11 13
M  V30 13 1 13 14
M  V30 14 2 14 15
M  V30 15 1 15 16
M  V30 16 1 16 17
M  V30 17 1 17 18
M  V30 18 2 18 19
M  V30 19 1 19 20
M  V30 20 2 20 21
M  V30 21 1 21 22
M  V30 22 1 7 2
M  V30 23 2 17 8
M  V30 24 1 22 18
M  V30 25 1 22 6
M  V30 26 1 15 9
M  V30 27 1 3 23
M  V30 28 1 10 24
M  V30 29 1 13 25
M  V30 30 1 14 26
M  V30 31 1 16 27
M  V30 32 1 19 28
M  V30 33 1 20 29
M  V30 34 1 21 30
M  V30 END BOND
M  V30 END CTAB
M  END
>  <Dataset>  (931) 
ChEMBL_Kinases

>  <Ligand_Instance>  (931) 
nan

>  <PDB_ID>  (931) 
nan

>  <Standardized_SMILES>  (931) 
O=C1NC(=O)c2c1c1c3cc(Br)ccc3[nH]c1c1cccn21

>  <Name>  (931) 
nan

>  <Pocket>  (931) 
nan

>  <ATP_Site>  (931) 
nan

>  <Peripheral>  (931) 
nan

>  <Num_H_Atoms_ProtBoundConf>  (931) 
nan

>  <Num_Resolved_Atoms>  (931) 
nan

>  <Num_Not_Resolved_Atoms>  (931) 
nan

$$$$
CHEMBL2386112
     RDKit          3D

  0  0  0  0  0  0  0  0  0  0999 V3000
M  V30 BEGIN CTAB
M  V30 COUNTS 43 48 0 0 0
M  V30 BEGIN ATOM
M  V30 1 C -3.585138 -1.691919 1.527060 0
M  V30 2 N -2.136482 -1.653295 1.531290 0
M  V30 3 C -1.309619 -0.580914 1.505466 0
M  V30 4 C 0.015884 -0.964530 1.516286 0
M  V30 5 C 1.274541 -0.234132 1.473706 0
M  V30 6 C 1.790286 0.694654 0.697780 0
M  V30 7 C 1.266954 1.383356 -0.477930 0
M  V30 8 C 0.696590 0.891830 -1.657898 0
M  V30 9 N 0.335983 1.922071 -2.470505 0
M  V30 10 C 0.673265 3.056211 -1.809593 0
M  V30 11 C 0.533721 4.413992 -2.138600 0
M  V30 12 C 0.933369 5.430228 -1.307280 0
M  V30 13 C 1.493864 5.095952 -0.099447 0
M  V30 14 C 1.616665 3.753257 0.190457 0
M  V30 15 N 1.225934 2.739997 -0.625256 0
M  V30 16 C 3.149946 1.047966 1.177502 0
M  V30 17 O 4.020992 1.875901 0.754006 0
M  V30 18 N 3.446163 0.262917 2.330699 0
M  V30 19 C 2.273912 -0.541570 2.520497 0
M  V30 20 O 2.292847 -1.346263 3.514062 0
M  V30 21 C -0.074481 -2.357465 1.549402 0
M  V30 22 C 0.935434 -3.324738 1.558456 0
M  V30 23 C 0.594735 -4.658361 1.577880 0
M  V30 24 C -0.717537 -5.091652 1.589997 0
M  V30 25 C -1.696872 -4.111818 1.580052 0
M  V30 26 C -1.386702 -2.759928 1.558755 0
M  V30 27 O -0.698236 -6.497174 1.610768 0
M  V30 28 C 0.608257 -6.917133 2.028673 0
M  V30 29 O 1.406414 -5.808580 1.591301 0
M  V30 30 H -4.041627 -0.856858 2.087905 0
M  V30 31 H -3.944832 -1.763115 0.478540 0
M  V30 32 H -3.950091 -2.620895 2.057344 0
M  V30 33 H -1.603659 0.452199 1.480369 0
M  V30 34 H 0.599397 -0.183087 -1.808418 0
M  V30 35 H 0.095359 4.716313 -3.078811 0
M  V30 36 H 0.813237 6.469780 -1.597009 0
M  V30 37 H 1.807044 5.888823 0.557492 0
M  V30 38 H 2.052398 3.597664 1.167827 0
M  V30 39 H 4.325254 0.287521 2.894729 0
M  V30 40 H 1.986964 -3.111322 1.541999 0
M  V30 41 H -2.740297 -4.446617 1.593621 0
M  V30 42 H 0.918369 -7.864807 1.566133 0
M  V30 43 H 0.676760 -6.973841 3.149484 0
M  V30 END ATOM
M  V30 BEGIN BOND
M  V30 1 1 1 2
M  V30 2 1 2 3
M  V30 3 2 3 4
M  V30 4 1 4 5
M  V30 5 2 5 6
M  V30 6 1 6 7
M  V30 7 2 7 8
M  V30 8 1 8 9
M  V30 9 2 9 10
M  V30 10 1 10 11
M  V30 11 2 11 12
M  V30 12 1 12 13
M  V30 13 2 13 14
M  V30 14 1 14 15
M  V30 15 1 6 16
M  V30 16 2 16 17
M  V30 17 1 16 18
M  V30 18 1 18 19
M  V30 19 2 19 20
M  V30 20 1 4 21
M  V30 21 2 21 22
M  V30 22 1 22 23
M  V30 23 2 23 24
M  V30 24 1 24 25
M  V30 25 2 25 26
M  V30 26 1 24 27
M  V30 27 1 27 28
M  V30 28 1 28 29
M  V30 29 1 26 2
M  V30 30 1 19 5
M  V30 31 1 26 21
M  V30 32 1 15 7
M  V30 33 1 29 23
M  V30 34 1 15 10
M  V30 35 1 1 30
M  V30 36 1 1 31
M  V30 37 1 1 32
M  V30 38 1 3 33
M  V30 39 1 8 34
M  V30 40 1 11 35
M  V30 41 1 12 36
M  V30 42 1 13 37
M  V30 43 1 14 38
M  V30 44 1 18 39
M  V30 45 1 22 40
M  V30 46 1 25 41
M  V30 47 1 28 42
M  V30 48 1 28 43
M  V30 END BOND
M  V30 END CTAB
M  END
>  <Dataset>  (932) 
ChEMBL_Kinases

>  <Ligand_Instance>  (932) 
nan

>  <PDB_ID>  (932) 
nan

>  <Standardized_SMILES>  (932) 
Cn1cc(C2=C(c3cnc4ccccn34)C(=O)NC2=O)c2cc3c(cc21)OCO3

>  <Name>  (932) 
nan

>  <Pocket>  (932) 
nan

>  <ATP_Site>  (932) 
nan

>  <Peripheral>  (932) 
nan

>  <Num_H_Atoms_ProtBoundConf>  (932) 
nan

>  <Num_Resolved_Atoms>  (932) 
nan

>  <Num_Not_Resolved_Atoms>  (932) 
nan

$$$$
CHEMBL2386111
     RDKit          3D

  0  0  0  0  0  0  0  0  0  0999 V3000
M  V30 BEGIN CTAB
M  V30 COUNTS 50 54 0 0 0
M  V30 BEGIN ATOM
M  V30 1 C 3.840158 -1.448872 5.169998 0
M  V30 2 O 3.498033 -0.758642 4.013822 0
M  V30 3 C 4.352424 -1.042044 2.955533 0
M  V30 4 C 3.893689 -0.237230 1.736243 0
M  V30 5 N 2.542187 -0.618471 1.402032 0
M  V30 6 C 1.397703 -0.064091 1.864711 0
M  V30 7 C 0.287768 -0.707345 1.310552 0
M  V30 8 C -1.065700 -0.306413 1.668074 0
M  V30 9 C -2.099471 0.108144 0.947743 0
M  V30 10 C -2.397145 0.359014 -0.448829 0
M  V30 11 C -2.255784 -0.340557 -1.610310 0
M  V30 12 O -2.637392 0.344896 -2.656356 0
M  V30 13 C -3.055128 1.525347 -2.309299 0
M  V30 14 C -3.542300 2.577357 -3.044101 0
M  V30 15 C -3.926881 3.752238 -2.441853 0
M  V30 16 C -3.803623 3.835858 -1.058297 0
M  V30 17 C -3.308631 2.759329 -0.334386 0
M  V30 18 C -2.918118 1.568945 -0.926628 0
M  V30 19 C -3.210760 0.337567 1.895402 0
M  V30 20 O -4.413032 0.728501 1.763618 0
M  V30 21 N -2.793620 0.040778 3.233178 0
M  V30 22 C -1.436479 -0.367391 3.096623 0
M  V30 23 O -0.729520 -0.711743 4.086927 0
M  V30 24 C 0.871477 -1.658121 0.510187 0
M  V30 25 C 0.251177 -2.587223 -0.262274 0
M  V30 26 C 0.970455 -3.483874 -1.003308 0
M  V30 27 O 0.320559 -4.422044 -1.785649 0
M  V30 28 C 1.049450 -5.348930 -2.551689 0
M  V30 29 N 2.320334 -3.408066 -0.934390 0
M  V30 30 C 2.973896 -2.510967 -0.185695 0
M  V30 31 C 2.233546 -1.614178 0.555797 0
M  V30 32 H 3.104565 -1.155174 5.949404 0
M  V30 33 H 3.723906 -2.555972 5.044774 0
M  V30 34 H 4.837404 -1.219820 5.556518 0
M  V30 35 H 5.415966 -0.850600 3.159008 0
M  V30 36 H 4.217606 -2.109938 2.671787 0
M  V30 37 H 4.548190 -0.436091 0.866521 0
M  V30 38 H 3.949171 0.851263 1.951242 0
M  V30 39 H 1.415571 0.768741 2.572733 0
M  V30 40 H -1.894408 -1.326851 -1.786577 0
M  V30 41 H -3.652678 2.555311 -4.104209 0
M  V30 42 H -4.316765 4.626127 -2.926091 0
M  V30 43 H -4.098436 4.753997 -0.543497 0
M  V30 44 H -3.238212 2.914854 0.728952 0
M  V30 45 H -3.311807 0.089857 4.145161 0
M  V30 46 H -0.811547 -2.660904 -0.298797 0
M  V30 47 H 2.079318 -4.964476 -2.744262 0
M  V30 48 H 1.123998 -6.319546 -2.045121 0
M  V30 49 H 0.540087 -5.450216 -3.553280 0
M  V30 50 H 4.060315 -2.453770 -0.132379 0
M  V30 END ATOM
M  V30 BEGIN BOND
M  V30 1 1 1 2
M  V30 2 1 2 3
M  V30 3 1 3 4
M  V30 4 1 4 5
M  V30 5 1 5 6
M  V30 6 2 6 7
M  V30 7 1 7 8
M  V30 8 2 8 9
M  V30 9 1 9 10
M  V30 10 2 10 11
M  V30 11 1 11 12
M  V30 12 1 12 13
M  V30 13 2 13 14
M  V30 14 1 14 15
M  V30 15 2 15 16
M  V30 16 1 16 17
M  V30 17 2 17 18
M  V30 18 1 9 19
M  V30 19 2 19 20
M  V30 20 1 19 21
M  V30 21 1 21 22
M  V30 22 2 22 23
M  V30 23 1 7 24
M  V30 24 2 24 25
M  V30 25 1 25 26
M  V30 26 1 26 27
M  V30 27 1 27 28
M  V30 28 2 26 29
M  V30 29 1 29 30
M  V30 30 2 30 31
M  V30 31 1 31 5
M  V30 32 1 22 8
M  V30 33 1 31 24
M  V30 34 1 18 10
M  V30 35 1 18 13
M  V30 36 1 1 32
M  V30 37 1 1 33
M  V30 38 1 1 34
M  V30 39 1 3 35
M  V30 40 1 3 36
M  V30 41 1 4 37
M  V30 42 1 4 38
M  V30 43 1 6 39
M  V30 44 1 11 40
M  V30 45 1 14 41
M  V30 46 1 15 42
M  V30 47 1 16 43
M  V30 48 1 17 44
M  V30 49 1 21 45
M  V30 50 1 25 46
M  V30 51 1 28 47
M  V30 52 1 28 48
M  V30 53 1 28 49
M  V30 54 1 30 50
M  V30 END BOND
M  V30 END CTAB
M  END
>  <Dataset>  (933) 
ChEMBL_Kinases

>  <Ligand_Instance>  (933) 
nan

>  <PDB_ID>  (933) 
nan

>  <Standardized_SMILES>  (933) 
COCCn1cc(C2=C(c3coc4ccccc34)C(=O)NC2=O)c2cc(OC)ncc21

>  <Name>  (933) 
nan

>  <Pocket>  (933) 
nan

>  <ATP_Site>  (933) 
nan

>  <Peripheral>  (933) 
nan

>  <Num_H_Atoms_ProtBoundConf>  (933) 
nan

>  <Num_Resolved_Atoms>  (933) 
nan

>  <Num_Not_Resolved_Atoms>  (933) 
nan

$$$$
CHEMBL2386110
     RDKit          3D

  0  0  0  0  0  0  0  0  0  0999 V3000
M  V30 BEGIN CTAB
M  V30 COUNTS 43 47 0 0 0
M  V30 BEGIN ATOM
M  V30 1 C -5.402443 -1.040401 3.115836 0
M  V30 2 O -4.327156 -0.920147 2.220101 0
M  V30 3 C -3.147295 -1.591269 2.413683 0
M  V30 4 C -2.195472 -1.342515 1.419555 0
M  V30 5 C -0.925835 -1.926969 1.424347 0
M  V30 6 C 0.216362 -1.885990 0.618105 0
M  V30 7 C 0.295914 -1.111284 -0.612889 0
M  V30 8 C 1.237053 -0.254340 -1.022899 0
M  V30 9 C 2.495095 0.265039 -0.505908 0
M  V30 10 C 3.601829 -0.377580 0.024952 0
M  V30 11 O 4.499127 0.505948 0.390973 0
M  V30 12 C 4.090218 1.724080 0.150747 0
M  V30 13 C 4.703035 2.965513 0.373442 0
M  V30 14 C 4.039085 4.138977 0.023033 0
M  V30 15 C 2.778440 4.048291 -0.541660 0
M  V30 16 C 2.241057 2.805950 -0.731005 0
M  V30 17 C 2.834491 1.618456 -0.412861 0
M  V30 18 C 0.850136 0.232711 -2.366002 0
M  V30 19 O 1.386837 1.045590 -3.188897 0
M  V30 20 N -0.388008 -0.369345 -2.770943 0
M  V30 21 C -0.719050 -1.211244 -1.655109 0
M  V30 22 O -1.794485 -1.904109 -1.706885 0
M  V30 23 C 1.076255 -2.729659 1.282802 0
M  V30 24 N 0.515172 -3.239700 2.390091 0
M  V30 25 C 1.220852 -4.153392 3.258713 0
M  V30 26 C -0.730990 -2.757332 2.503053 0
M  V30 27 C -1.636355 -3.030747 3.502095 0
M  V30 28 N -2.838892 -2.435301 3.435443 0
M  V30 29 H -5.030171 -1.541751 4.039365 0
M  V30 30 H -5.749213 -0.002004 3.335971 0
M  V30 31 H -6.270930 -1.557121 2.665411 0
M  V30 32 H -2.409521 -0.659167 0.589319 0
M  V30 33 H 3.715813 -1.432376 0.124086 0
M  V30 34 H 5.703123 2.931870 0.824009 0
M  V30 35 H 4.534991 5.081785 0.206171 0
M  V30 36 H 2.268246 4.975083 -0.810481 0
M  V30 37 H 1.258980 2.811733 -1.160731 0
M  V30 38 H -0.936979 -0.244399 -3.656446 0
M  V30 39 H 2.072211 -2.931400 0.919731 0
M  V30 40 H 0.666933 -4.334343 4.177211 0
M  V30 41 H 2.203156 -3.698938 3.504147 0
M  V30 42 H 1.386956 -5.151203 2.778107 0
M  V30 43 H -1.413605 -3.696384 4.321010 0
M  V30 END ATOM
M  V30 BEGIN BOND
M  V30 1 1 1 2
M  V30 2 1 2 3
M  V30 3 2 3 4
M  V30 4 1 4 5
M  V30 5 1 5 6
M  V30 6 1 6 7
M  V30 7 2 7 8
M  V30 8 1 8 9
M  V30 9 2 9 10
M  V30 10 1 10 11
M  V30 11 1 11 12
M  V30 12 2 12 13
M  V30 13 1 13 14
M  V30 14 2 14 15
M  V30 15 1 15 16
M  V30 16 2 16 17
M  V30 17 1 8 18
M  V30 18 2 18 19
M  V30 19 1 18 20
M  V30 20 1 20 21
M  V30 21 2 21 22
M  V30 22 2 6 23
M  V30 23 1 23 24
M  V30 24 1 24 25
M  V30 25 1 24 26
M  V30 26 1 26 27
M  V30 27 2 27 28
M  V30 28 1 28 3
M  V30 29 2 26 5
M  V30 30 1 21 7
M  V30 31 1 17 9
M  V30 32 1 17 12
M  V30 33 1 1 29
M  V30 34 1 1 30
M  V30 35 1 1 31
M  V30 36 1 4 32
M  V30 37 1 10 33
M  V30 38 1 13 34
M  V30 39 1 14 35
M  V30 40 1 15 36
M  V30 41 1 16 37
M  V30 42 1 20 38
M  V30 43 1 23 39
M  V30 44 1 25 40
M  V30 45 1 25 41
M  V30 46 1 25 42
M  V30 47 1 27 43
M  V30 END BOND
M  V30 END CTAB
M  END
>  <Dataset>  (934) 
ChEMBL_Kinases

>  <Ligand_Instance>  (934) 
nan

>  <PDB_ID>  (934) 
nan

>  <Standardized_SMILES>  (934) 
COc1cc2c(C3=C(c4coc5ccccc45)C(=O)NC3=O)cn(C)c2cn1

>  <Name>  (934) 
nan

>  <Pocket>  (934) 
nan

>  <ATP_Site>  (934) 
nan

>  <Peripheral>  (934) 
nan

>  <Num_H_Atoms_ProtBoundConf>  (934) 
nan

>  <Num_Resolved_Atoms>  (934) 
nan

>  <Num_Not_Resolved_Atoms>  (934) 
nan

$$$$
CHEMBL2386109
     RDKit          3D

  0  0  0  0  0  0  0  0  0  0999 V3000
M  V30 BEGIN CTAB
M  V30 COUNTS 46 50 0 0 0
M  V30 BEGIN ATOM
M  V30 1 C -0.175236 -3.568010 5.038605 0
M  V30 2 O 0.279258 -2.637383 4.082157 0
M  V30 3 C 1.160850 -3.351290 3.273986 0
M  V30 4 C 1.766395 -2.525466 2.172755 0
M  V30 5 N 0.730006 -1.998451 1.310012 0
M  V30 6 C 0.048080 -0.832641 1.371698 0
M  V30 7 C -0.865537 -0.745280 0.313879 0
M  V30 8 C -1.736642 0.401580 0.102242 0
M  V30 9 C -1.394285 1.698467 0.194992 0
M  V30 10 C -0.177497 2.438956 0.500910 0
M  V30 11 C -0.069013 3.556694 1.339465 0
M  V30 12 O 1.158287 3.969010 1.376382 0
M  V30 13 C 1.952409 3.240450 0.630810 0
M  V30 14 C 3.299369 3.295041 0.362452 0
M  V30 15 C 3.833541 2.356172 -0.488533 0
M  V30 16 C 3.035893 1.373297 -1.066951 0
M  V30 17 C 1.676373 1.346275 -0.773926 0
M  V30 18 C 1.143635 2.283336 0.076488 0
M  V30 19 C -2.603719 2.503691 -0.093996 0
M  V30 20 O -2.768311 3.772456 -0.126048 0
M  V30 21 N -3.706196 1.649441 -0.367679 0
M  V30 22 C -3.163424 0.334185 -0.244455 0
M  V30 23 O -3.912784 -0.665339 -0.431798 0
M  V30 24 C -0.659014 -1.933099 -0.351506 0
M  V30 25 C -1.286127 -2.391847 -1.488685 0
M  V30 26 C -0.963236 -3.612076 -2.042472 0
M  V30 27 C 0.017764 -4.354289 -1.406098 0
M  V30 28 N 0.628495 -3.904080 -0.296586 0
M  V30 29 C 0.301344 -2.710616 0.230483 0
M  V30 30 H 0.717149 -3.918885 5.587909 0
M  V30 31 H -0.905490 -3.156657 5.736281 0
M  V30 32 H -0.571342 -4.482264 4.524486 0
M  V30 33 H 0.598263 -4.237427 2.857928 0
M  V30 34 H 1.966587 -3.708946 3.973981 0
M  V30 35 H 2.499473 -3.145421 1.638003 0
M  V30 36 H 2.343328 -1.712274 2.664272 0
M  V30 37 H 0.201870 -0.075556 2.145143 0
M  V30 38 H -0.958335 3.948134 1.846346 0
M  V30 39 H 3.933618 4.058175 0.806455 0
M  V30 40 H 4.881118 2.323126 -0.755416 0
M  V30 41 H 3.465399 0.640755 -1.735375 0
M  V30 42 H 1.094280 0.584649 -1.239731 0
M  V30 43 H -4.697209 1.926210 -0.607531 0
M  V30 44 H -2.045406 -1.819856 -1.995443 0
M  V30 45 H -1.464531 -3.953235 -2.931032 0
M  V30 46 H 0.278846 -5.306179 -1.826961 0
M  V30 END ATOM
M  V30 BEGIN BOND
M  V30 1 1 1 2
M  V30 2 1 2 3
M  V30 3 1 3 4
M  V30 4 1 4 5
M  V30 5 1 5 6
M  V30 6 2 6 7
M  V30 7 1 7 8
M  V30 8 2 8 9
M  V30 9 1 9 10
M  V30 10 2 10 11
M  V30 11 1 11 12
M  V30 12 1 12 13
M  V30 13 2 13 14
M  V30 14 1 14 15
M  V30 15 2 15 16
M  V30 16 1 16 17
M  V30 17 2 17 18
M  V30 18 1 9 19
M  V30 19 2 19 20
M  V30 20 1 19 21
M  V30 21 1 21 22
M  V30 22 2 22 23
M  V30 23 1 7 24
M  V30 24 2 24 25
M  V30 25 1 25 26
M  V30 26 2 26 27
M  V30 27 1 27 28
M  V30 28 2 28 29
M  V30 29 1 29 5
M  V30 30 1 22 8
M  V30 31 1 29 24
M  V30 32 1 18 10
M  V30 33 1 18 13
M  V30 34 1 1 30
M  V30 35 1 1 31
M  V30 36 1 1 32
M  V30 37 1 3 33
M  V30 38 1 3 34
M  V30 39 1 4 35
M  V30 40 1 4 36
M  V30 41 1 6 37
M  V30 42 1 11 38
M  V30 43 1 14 39
M  V30 44 1 15 40
M  V30 45 1 16 41
M  V30 46 1 17 42
M  V30 47 1 21 43
M  V30 48 1 25 44
M  V30 49 1 26 45
M  V30 50 1 27 46
M  V30 END BOND
M  V30 END CTAB
M  END
>  <Dataset>  (935) 
ChEMBL_Kinases

>  <Ligand_Instance>  (935) 
nan

>  <PDB_ID>  (935) 
nan

>  <Standardized_SMILES>  (935) 
COCCn1cc(C2=C(c3coc4ccccc34)C(=O)NC2=O)c2cccnc21

>  <Name>  (935) 
nan

>  <Pocket>  (935) 
nan

>  <ATP_Site>  (935) 
nan

>  <Peripheral>  (935) 
nan

>  <Num_H_Atoms_ProtBoundConf>  (935) 
nan

>  <Num_Resolved_Atoms>  (935) 
nan

>  <Num_Not_Resolved_Atoms>  (935) 
nan

$$$$
CHEMBL2386108
     RDKit          3D

  0  0  0  0  0  0  0  0  0  0999 V3000
M  V30 BEGIN CTAB
M  V30 COUNTS 39 43 0 0 0
M  V30 BEGIN ATOM
M  V30 1 C 2.026581 -2.731846 4.220685 0
M  V30 2 N 1.243841 -2.346910 3.056768 0
M  V30 3 C 1.732719 -2.372397 1.787871 0
M  V30 4 C 0.751997 -1.949138 0.915744 0
M  V30 5 C 0.822606 -1.844751 -0.535182 0
M  V30 6 C 0.489384 -0.934747 -1.432517 0
M  V30 7 C -0.106749 0.387227 -1.300465 0
M  V30 8 C -1.143646 0.836517 -2.091599 0
M  V30 9 O -1.447278 2.064723 -1.753834 0
M  V30 10 C -0.691651 2.507181 -0.778366 0
M  V30 11 C -0.566881 3.674243 -0.052471 0
M  V30 12 C 0.375856 3.805816 0.942213 0
M  V30 13 C 1.211887 2.755915 1.220765 0
M  V30 14 C 1.136671 1.546781 0.523322 0
M  V30 15 C 0.173624 1.475513 -0.458560 0
M  V30 16 C 0.827234 -1.466614 -2.774066 0
M  V30 17 O 0.654921 -0.881222 -3.887033 0
M  V30 18 N 1.388988 -2.761713 -2.637516 0
M  V30 19 C 1.390366 -3.007301 -1.242358 0
M  V30 20 O 1.850267 -4.120920 -0.829630 0
M  V30 21 C -0.333732 -1.675116 1.727571 0
M  V30 22 C -1.613469 -1.230047 1.480196 0
M  V30 23 C -2.482416 -1.065054 2.538628 0
M  V30 24 C -2.163894 -1.315689 3.856419 0
M  V30 25 N -0.890380 -1.755770 4.083067 0
M  V30 26 C -0.029789 -1.922732 3.063086 0
M  V30 27 H 2.269243 -3.827513 4.143983 0
M  V30 28 H 1.426733 -2.658387 5.154092 0
M  V30 29 H 2.948974 -2.143606 4.314957 0
M  V30 30 H 2.753783 -2.685800 1.528824 0
M  V30 31 H -1.716771 0.393327 -2.888332 0
M  V30 32 H -1.254303 4.490787 -0.307559 0
M  V30 33 H 0.393336 4.749182 1.445872 0
M  V30 34 H 1.942693 2.883256 2.000623 0
M  V30 35 H 1.799855 0.726644 0.741866 0
M  V30 36 H 1.700328 -3.339580 -3.439194 0
M  V30 37 H -1.898864 -1.025102 0.454724 0
M  V30 38 H -3.468781 -0.720982 2.326309 0
M  V30 39 H -2.916319 -1.154978 4.627208 0
M  V30 END ATOM
M  V30 BEGIN BOND
M  V30 1 1 1 2
M  V30 2 1 2 3
M  V30 3 2 3 4
M  V30 4 1 4 5
M  V30 5 2 5 6
M  V30 6 1 6 7
M  V30 7 2 7 8
M  V30 8 1 8 9
M  V30 9 1 9 10
M  V30 10 2 10 11
M  V30 11 1 11 12
M  V30 12 2 12 13
M  V30 13 1 13 14
M  V30 14 2 14 15
M  V30 15 1 6 16
M  V30 16 2 16 17
M  V30 17 1 16 18
M  V30 18 1 18 19
M  V30 19 2 19 20
M  V30 20 1 4 21
M  V30 21 2 21 22
M  V30 22 1 22 23
M  V30 23 2 23 24
M  V30 24 1 24 25
M  V30 25 2 25 26
M  V30 26 1 26 2
M  V30 27 1 19 5
M  V30 28 1 26 21
M  V30 29 1 15 7
M  V30 30 1 15 10
M  V30 31 1 1 27
M  V30 32 1 1 28
M  V30 33 1 1 29
M  V30 34 1 3 30
M  V30 35 1 8 31
M  V30 36 1 11 32
M  V30 37 1 12 33
M  V30 38 1 13 34
M  V30 39 1 14 35
M  V30 40 1 18 36
M  V30 41 1 22 37
M  V30 42 1 23 38
M  V30 43 1 24 39
M  V30 END BOND
M  V30 END CTAB
M  END
>  <Dataset>  (936) 
ChEMBL_Kinases

>  <Ligand_Instance>  (936) 
nan

>  <PDB_ID>  (936) 
nan

>  <Standardized_SMILES>  (936) 
Cn1cc(C2=C(c3coc4ccccc34)C(=O)NC2=O)c2cccnc21

>  <Name>  (936) 
nan

>  <Pocket>  (936) 
nan

>  <ATP_Site>  (936) 
nan

>  <Peripheral>  (936) 
nan

>  <Num_H_Atoms_ProtBoundConf>  (936) 
nan

>  <Num_Resolved_Atoms>  (936) 
nan

>  <Num_Not_Resolved_Atoms>  (936) 
nan

$$$$
CHEMBL2386107
     RDKit          3D

  0  0  0  0  0  0  0  0  0  0999 V3000
M  V30 BEGIN CTAB
M  V30 COUNTS 46 50 0 0 0
M  V30 BEGIN ATOM
M  V30 1 C -1.716285 -3.617338 4.924956 0
M  V30 2 O -0.804676 -3.521984 3.875743 0
M  V30 3 C 0.229174 -2.659260 4.135571 0
M  V30 4 C 1.178703 -2.604626 2.956776 0
M  V30 5 N 0.420065 -2.142396 1.810921 0
M  V30 6 C 0.249429 -0.869863 1.425670 0
M  V30 7 C -0.518326 -0.709286 0.299120 0
M  V30 8 C -0.968732 0.369781 -0.542049 0
M  V30 9 C -0.392957 1.411128 -1.171987 0
M  V30 10 C 0.967451 1.898187 -1.267814 0
M  V30 11 C 1.600328 2.041918 -2.512292 0
M  V30 12 O 2.814443 2.515199 -2.352757 0
M  V30 13 C 3.081735 2.716271 -1.087713 0
M  V30 14 C 4.142339 3.181255 -0.326287 0
M  V30 15 C 4.067767 3.265993 1.047349 0
M  V30 16 C 2.905075 2.880769 1.720227 0
M  V30 17 C 1.867963 2.422796 0.946977 0
M  V30 18 C 1.944777 2.337890 -0.410943 0
M  V30 19 C -1.437237 2.182560 -1.873557 0
M  V30 20 O -1.325863 3.228820 -2.582574 0
M  V30 21 N -2.709018 1.588176 -1.662697 0
M  V30 22 C -2.419018 0.466862 -0.838194 0
M  V30 23 O -3.392460 -0.280763 -0.470600 0
M  V30 24 C -0.826507 -2.041664 -0.001713 0
M  V30 25 C -1.533589 -2.727165 -0.964181 0
M  V30 26 C -1.666255 -4.096372 -1.018132 0
M  V30 27 Br -2.656374 -4.962269 -2.374576 0
M  V30 28 C -1.060119 -4.867294 -0.055187 0
M  V30 29 N -0.360377 -4.228733 0.899788 0
M  V30 30 C -0.252028 -2.888628 0.920882 0
M  V30 31 H -2.509681 -4.334066 4.620647 0
M  V30 32 H -2.204943 -2.648248 5.106710 0
M  V30 33 H -1.237459 -3.999954 5.850227 0
M  V30 34 H -0.093247 -1.620099 4.344973 0
M  V30 35 H 0.838581 -3.083182 4.981741 0
M  V30 36 H 1.982594 -1.855685 3.110831 0
M  V30 37 H 1.643332 -3.592453 2.760676 0
M  V30 38 H 0.685699 -0.056147 1.972644 0
M  V30 39 H 1.304952 1.850152 -3.538828 0
M  V30 40 H 5.043387 3.480227 -0.847348 0
M  V30 41 H 4.919642 3.635294 1.615118 0
M  V30 42 H 2.877747 2.959772 2.792829 0
M  V30 43 H 0.976255 2.152340 1.480615 0
M  V30 44 H -3.628070 1.912754 -2.033908 0
M  V30 45 H -2.029630 -2.199039 -1.761154 0
M  V30 46 H -1.110294 -5.938100 -0.018598 0
M  V30 END ATOM
M  V30 BEGIN BOND
M  V30 1 1 1 2
M  V30 2 1 2 3
M  V30 3 1 3 4
M  V30 4 1 4 5
M  V30 5 1 5 6
M  V30 6 2 6 7
M  V30 7 1 7 8
M  V30 8 2 8 9
M  V30 9 1 9 10
M  V30 10 2 10 11
M  V30 11 1 11 12
M  V30 12 1 12 13
M  V30 13 2 13 14
M  V30 14 1 14 15
M  V30 15 2 15 16
M  V30 16 1 16 17
M  V30 17 2 17 18
M  V30 18 1 9 19
M  V30 19 2 19 20
M  V30 20 1 19 21
M  V30 21 1 21 22
M  V30 22 2 22 23
M  V30 23 1 7 24
M  V30 24 2 24 25
M  V30 25 1 25 26
M  V30 26 1 26 27
M  V30 27 2 26 28
M  V30 28 1 28 29
M  V30 29 2 29 30
M  V30 30 1 30 5
M  V30 31 1 22 8
M  V30 32 1 30 24
M  V30 33 1 18 10
M  V30 34 1 18 13
M  V30 35 1 1 31
M  V30 36 1 1 32
M  V30 37 1 1 33
M  V30 38 1 3 34
M  V30 39 1 3 35
M  V30 40 1 4 36
M  V30 41 1 4 37
M  V30 42 1 6 38
M  V30 43 1 11 39
M  V30 44 1 14 40
M  V30 45 1 15 41
M  V30 46 1 16 42
M  V30 47 1 17 43
M  V30 48 1 21 44
M  V30 49 1 25 45
M  V30 50 1 28 46
M  V30 END BOND
M  V30 END CTAB
M  END
>  <Dataset>  (937) 
ChEMBL_Kinases

>  <Ligand_Instance>  (937) 
nan

>  <PDB_ID>  (937) 
nan

>  <Standardized_SMILES>  (937) 
COCCn1cc(C2=C(c3coc4ccccc34)C(=O)NC2=O)c2cc(Br)cnc21

>  <Name>  (937) 
nan

>  <Pocket>  (937) 
nan

>  <ATP_Site>  (937) 
nan

>  <Peripheral>  (937) 
nan

>  <Num_H_Atoms_ProtBoundConf>  (937) 
nan

>  <Num_Resolved_Atoms>  (937) 
nan

>  <Num_Not_Resolved_Atoms>  (937) 
nan

$$$$
CHEMBL2386106
     RDKit          3D

  0  0  0  0  0  0  0  0  0  0999 V3000
M  V30 BEGIN CTAB
M  V30 COUNTS 39 43 0 0 0
M  V30 BEGIN ATOM
M  V30 1 C -0.992673 -3.947221 4.451411 0
M  V30 2 N -0.742126 -3.145540 3.273238 0
M  V30 3 C 0.465999 -2.863812 2.768942 0
M  V30 4 C 0.405056 -2.062754 1.618861 0
M  V30 5 C 1.595906 -1.634122 0.883206 0
M  V30 6 C 1.990584 -0.470158 0.368365 0
M  V30 7 C 1.293383 0.807080 0.397168 0
M  V30 8 C 0.653445 1.243695 1.539580 0
M  V30 9 O 0.095758 2.425363 1.306766 0
M  V30 10 C 0.322833 2.807663 0.075366 0
M  V30 11 C -0.002726 3.905118 -0.687305 0
M  V30 12 C 0.398869 4.014268 -1.998379 0
M  V30 13 C 1.156953 2.991617 -2.581491 0
M  V30 14 C 1.478186 1.897152 -1.809177 0
M  V30 15 C 1.061868 1.818259 -0.501086 0
M  V30 16 C 3.295370 -0.659456 -0.252239 0
M  V30 17 O 4.089704 0.102488 -0.862059 0
M  V30 18 N 3.719805 -2.008150 -0.112149 0
M  V30 19 C 2.645499 -2.641647 0.610674 0
M  V30 20 O 2.669213 -3.882375 0.928722 0
M  V30 21 C -0.962223 -1.881044 1.465895 0
M  V30 22 C -1.582821 -1.161429 0.467260 0
M  V30 23 C -2.979766 -1.117556 0.506242 0
M  V30 24 Br -3.981050 -0.164588 -0.804413 0
M  V30 25 C -3.640115 -1.790472 1.532326 0
M  V30 26 N -2.977770 -2.490076 2.498208 0
M  V30 27 C -1.632308 -2.541527 2.473013 0
M  V30 28 H -1.311740 -4.984886 4.213179 0
M  V30 29 H -0.077500 -4.020766 5.091506 0
M  V30 30 H -1.789944 -3.509115 5.097559 0
M  V30 31 H 1.401205 -3.224980 3.215535 0
M  V30 32 H 0.592545 0.735447 2.491308 0
M  V30 33 H -0.586618 4.715757 -0.267409 0
M  V30 34 H 0.169769 4.854923 -2.635935 0
M  V30 35 H 1.468391 3.095892 -3.626680 0
M  V30 36 H 2.048409 1.122674 -2.270095 0
M  V30 37 H 4.593794 -2.525768 -0.424864 0
M  V30 38 H -1.051344 -0.650471 -0.321801 0
M  V30 39 H -4.714855 -1.800287 1.626866 0
M  V30 END ATOM
M  V30 BEGIN BOND
M  V30 1 1 1 2
M  V30 2 1 2 3
M  V30 3 2 3 4
M  V30 4 1 4 5
M  V30 5 2 5 6
M  V30 6 1 6 7
M  V30 7 2 7 8
M  V30 8 1 8 9
M  V30 9 1 9 10
M  V30 10 2 10 11
M  V30 11 1 11 12
M  V30 12 2 12 13
M  V30 13 1 13 14
M  V30 14 2 14 15
M  V30 15 1 6 16
M  V30 16 2 16 17
M  V30 17 1 16 18
M  V30 18 1 18 19
M  V30 19 2 19 20
M  V30 20 1 4 21
M  V30 21 2 21 22
M  V30 22 1 22 23
M  V30 23 1 23 24
M  V30 24 2 23 25
M  V30 25 1 25 26
M  V30 26 2 26 27
M  V30 27 1 27 2
M  V30 28 1 19 5
M  V30 29 1 27 21
M  V30 30 1 15 7
M  V30 31 1 15 10
M  V30 32 1 1 28
M  V30 33 1 1 29
M  V30 34 1 1 30
M  V30 35 1 3 31
M  V30 36 1 8 32
M  V30 37 1 11 33
M  V30 38 1 12 34
M  V30 39 1 13 35
M  V30 40 1 14 36
M  V30 41 1 18 37
M  V30 42 1 22 38
M  V30 43 1 25 39
M  V30 END BOND
M  V30 END CTAB
M  END
>  <Dataset>  (938) 
ChEMBL_Kinases

>  <Ligand_Instance>  (938) 
nan

>  <PDB_ID>  (938) 
nan

>  <Standardized_SMILES>  (938) 
Cn1cc(C2=C(c3coc4ccccc34)C(=O)NC2=O)c2cc(Br)cnc21

>  <Name>  (938) 
nan

>  <Pocket>  (938) 
nan

>  <ATP_Site>  (938) 
nan

>  <Peripheral>  (938) 
nan

>  <Num_H_Atoms_ProtBoundConf>  (938) 
nan

>  <Num_Resolved_Atoms>  (938) 
nan

>  <Num_Not_Resolved_Atoms>  (938) 
nan

$$$$
CHEMBL2386105
     RDKit          3D

  0  0  0  0  0  0  0  0  0  0999 V3000
M  V30 BEGIN CTAB
M  V30 COUNTS 47 51 0 0 0
M  V30 BEGIN ATOM
M  V30 1 C 0.838611 -1.511684 6.345965 0
M  V30 2 O 1.352546 -0.734950 5.347298 0
M  V30 3 C 0.958279 -1.009938 4.073812 0
M  V30 4 C -0.514202 -0.903581 3.794734 0
M  V30 5 N -0.776406 -1.224857 2.400149 0
M  V30 6 C -0.782185 -0.334838 1.397953 0
M  V30 7 C -1.052753 -0.872494 0.163735 0
M  V30 8 C -1.141811 -0.418550 -1.211533 0
M  V30 9 C -0.362520 0.300354 -2.038514 0
M  V30 10 C 0.932487 0.943508 -1.892730 0
M  V30 11 C 1.987731 0.582899 -2.744395 0
M  V30 12 O 3.058702 1.285543 -2.466269 0
M  V30 13 C 2.835281 2.117740 -1.479923 0
M  V30 14 C 3.524896 3.081454 -0.758850 0
M  V30 15 C 2.912957 3.791320 0.261477 0
M  V30 16 C 1.578302 3.564356 0.602495 0
M  V30 17 C 0.888748 2.608943 -0.108561 0
M  V30 18 C 1.521276 1.916544 -1.115596 0
M  V30 19 C -1.056329 0.432157 -3.340160 0
M  V30 20 O -0.661716 1.032953 -4.386958 0
M  V30 21 N -2.323992 -0.244004 -3.293135 0
M  V30 22 C -2.363696 -0.762105 -1.976947 0
M  V30 23 O -3.412538 -1.423929 -1.660276 0
M  V30 24 C -1.221148 -2.224272 0.493470 0
M  V30 25 C -1.501256 -3.396807 -0.174061 0
M  V30 26 C -1.606160 -4.633067 0.421265 0
M  V30 27 F -1.885639 -5.748244 -0.293873 0
M  V30 28 C -1.422731 -4.741278 1.782930 0
M  V30 29 F -1.520931 -5.944447 2.397551 0
M  V30 30 C -1.138206 -3.609330 2.516442 0
M  V30 31 C -1.048998 -2.406445 1.848665 0
M  V30 32 H 1.088739 -2.606978 6.232045 0
M  V30 33 H 1.396982 -1.231761 7.280276 0
M  V30 34 H -0.229377 -1.366941 6.575364 0
M  V30 35 H 1.520031 -0.339847 3.390912 0
M  V30 36 H 1.275690 -2.044577 3.769839 0
M  V30 37 H -1.130857 -1.568556 4.391796 0
M  V30 38 H -0.825112 0.140165 4.001876 0
M  V30 39 H -0.594797 0.713133 1.546155 0
M  V30 40 H 2.123037 -0.123056 -3.558561 0
M  V30 41 H 4.555575 3.240337 -1.042287 0
M  V30 42 H 3.474614 4.548102 0.821546 0
M  V30 43 H 1.128534 4.135805 1.402744 0
M  V30 44 H -0.145037 2.454392 0.146551 0
M  V30 45 H -2.999678 -0.297040 -4.081508 0
M  V30 46 H -1.647480 -3.399780 -1.241676 0
M  V30 47 H -0.997375 -3.710621 3.580361 0
M  V30 END ATOM
M  V30 BEGIN BOND
M  V30 1 1 1 2
M  V30 2 1 2 3
M  V30 3 1 3 4
M  V30 4 1 4 5
M  V30 5 1 5 6
M  V30 6 2 6 7
M  V30 7 1 7 8
M  V30 8 2 8 9
M  V30 9 1 9 10
M  V30 10 2 10 11
M  V30 11 1 11 12
M  V30 12 1 12 13
M  V30 13 2 13 14
M  V30 14 1 14 15
M  V30 15 2 15 16
M  V30 16 1 16 17
M  V30 17 2 17 18
M  V30 18 1 9 19
M  V30 19 2 19 20
M  V30 20 1 19 21
M  V30 21 1 21 22
M  V30 22 2 22 23
M  V30 23 1 7 24
M  V30 24 2 24 25
M  V30 25 1 25 26
M  V30 26 1 26 27
M  V30 27 2 26 28
M  V30 28 1 28 29
M  V30 29 1 28 30
M  V30 30 2 30 31
M  V30 31 1 31 5
M  V30 32 1 22 8
M  V30 33 1 31 24
M  V30 34 1 18 10
M  V30 35 1 18 13
M  V30 36 1 1 32
M  V30 37 1 1 33
M  V30 38 1 1 34
M  V30 39 1 3 35
M  V30 40 1 3 36
M  V30 41 1 4 37
M  V30 42 1 4 38
M  V30 43 1 6 39
M  V30 44 1 11 40
M  V30 45 1 14 41
M  V30 46 1 15 42
M  V30 47 1 16 43
M  V30 48 1 17 44
M  V30 49 1 21 45
M  V30 50 1 25 46
M  V30 51 1 30 47
M  V30 END BOND
M  V30 END CTAB
M  END
>  <Dataset>  (939) 
ChEMBL_Kinases

>  <Ligand_Instance>  (939) 
nan

>  <PDB_ID>  (939) 
nan

>  <Standardized_SMILES>  (939) 
COCCn1cc(C2=C(c3coc4ccccc34)C(=O)NC2=O)c2cc(F)c(F)cc21

>  <Name>  (939) 
nan

>  <Pocket>  (939) 
nan

>  <ATP_Site>  (939) 
nan

>  <Peripheral>  (939) 
nan

>  <Num_H_Atoms_ProtBoundConf>  (939) 
nan

>  <Num_Resolved_Atoms>  (939) 
nan

>  <Num_Not_Resolved_Atoms>  (939) 
nan

$$$$
CHEMBL2386104
     RDKit          3D

  0  0  0  0  0  0  0  0  0  0999 V3000
M  V30 BEGIN CTAB
M  V30 COUNTS 47 51 0 0 0
M  V30 BEGIN ATOM
M  V30 1 C -1.490419 -1.030617 5.478483 0
M  V30 2 O -0.575366 -1.165782 4.440034 0
M  V30 3 C -0.077800 -2.443006 4.320647 0
M  V30 4 C 0.894791 -2.492609 3.182622 0
M  V30 5 N 0.202618 -2.116068 1.969471 0
M  V30 6 C 0.065747 -0.894296 1.459420 0
M  V30 7 C -0.636828 -0.823427 0.300923 0
M  V30 8 C -1.034398 0.186593 -0.661866 0
M  V30 9 C -0.413835 1.148961 -1.346078 0
M  V30 10 C 0.950296 1.613302 -1.425007 0
M  V30 11 C 1.652308 1.643853 -2.640608 0
M  V30 12 O 2.869181 2.128317 -2.446612 0
M  V30 13 C 3.071747 2.437860 -1.200474 0
M  V30 14 C 4.089200 2.960152 -0.428918 0
M  V30 15 C 3.947007 3.171076 0.941095 0
M  V30 16 C 2.747836 2.852135 1.573042 0
M  V30 17 C 1.752980 2.333711 0.783536 0
M  V30 18 C 1.893531 2.125289 -0.558145 0
M  V30 19 C -1.407313 1.870905 -2.166556 0
M  V30 20 O -1.246931 2.852299 -2.965367 0
M  V30 21 N -2.694992 1.315094 -1.964799 0
M  V30 22 C -2.465044 0.268494 -1.029274 0
M  V30 23 O -3.474169 -0.421501 -0.652093 0
M  V30 24 C -0.954485 -2.172521 0.101220 0
M  V30 25 C -1.632895 -2.928518 -0.841191 0
M  V30 26 C -1.791041 -4.285078 -0.791633 0
M  V30 27 Br -2.738670 -5.240713 -2.130461 0
M  V30 28 C -1.254988 -4.991489 0.249344 0
M  V30 29 C -0.572181 -4.311724 1.214589 0
M  V30 30 C -0.436801 -2.942568 1.124451 0
M  V30 31 H -1.822235 0.027717 5.482151 0
M  V30 32 H -2.402067 -1.656932 5.349016 0
M  V30 33 H -0.998499 -1.296612 6.440226 0
M  V30 34 H 0.432414 -2.722645 5.266980 0
M  V30 35 H -0.864451 -3.209970 4.160615 0
M  V30 36 H 1.679010 -1.716427 3.349562 0
M  V30 37 H 1.368635 -3.488473 3.061021 0
M  V30 38 H 0.488456 -0.041624 1.951778 0
M  V30 39 H 1.396874 1.358947 -3.658492 0
M  V30 40 H 5.029590 3.211458 -0.919773 0
M  V30 41 H 4.747214 3.583020 1.557007 0
M  V30 42 H 2.632226 3.013919 2.630732 0
M  V30 43 H 0.829148 2.115756 1.291005 0
M  V30 44 H -3.594547 1.623329 -2.414523 0
M  V30 45 H -2.073987 -2.454681 -1.695062 0
M  V30 46 H -1.350627 -6.060038 0.336146 0
M  V30 47 H -0.146151 -4.879137 2.043412 0
M  V30 END ATOM
M  V30 BEGIN BOND
M  V30 1 1 1 2
M  V30 2 1 2 3
M  V30 3 1 3 4
M  V30 4 1 4 5
M  V30 5 1 5 6
M  V30 6 2 6 7
M  V30 7 1 7 8
M  V30 8 2 8 9
M  V30 9 1 9 10
M  V30 10 2 10 11
M  V30 11 1 11 12
M  V30 12 1 12 13
M  V30 13 2 13 14
M  V30 14 1 14 15
M  V30 15 2 15 16
M  V30 16 1 16 17
M  V30 17 2 17 18
M  V30 18 1 9 19
M  V30 19 2 19 20
M  V30 20 1 19 21
M  V30 21 1 21 22
M  V30 22 2 22 23
M  V30 23 1 7 24
M  V30 24 2 24 25
M  V30 25 1 25 26
M  V30 26 1 26 27
M  V30 27 2 26 28
M  V30 28 1 28 29
M  V30 29 2 29 30
M  V30 30 1 30 5
M  V30 31 1 22 8
M  V30 32 1 30 24
M  V30 33 1 18 10
M  V30 34 1 18 13
M  V30 35 1 1 31
M  V30 36 1 1 32
M  V30 37 1 1 33
M  V30 38 1 3 34
M  V30 39 1 3 35
M  V30 40 1 4 36
M  V30 41 1 4 37
M  V30 42 1 6 38
M  V30 43 1 11 39
M  V30 44 1 14 40
M  V30 45 1 15 41
M  V30 46 1 16 42
M  V30 47 1 17 43
M  V30 48 1 21 44
M  V30 49 1 25 45
M  V30 50 1 28 46
M  V30 51 1 29 47
M  V30 END BOND
M  V30 END CTAB
M  END
>  <Dataset>  (940) 
ChEMBL_Kinases

>  <Ligand_Instance>  (940) 
nan

>  <PDB_ID>  (940) 
nan

>  <Standardized_SMILES>  (940) 
COCCn1cc(C2=C(c3coc4ccccc34)C(=O)NC2=O)c2cc(Br)ccc21

>  <Name>  (940) 
nan

>  <Pocket>  (940) 
nan

>  <ATP_Site>  (940) 
nan

>  <Peripheral>  (940) 
nan

>  <Num_H_Atoms_ProtBoundConf>  (940) 
nan

>  <Num_Resolved_Atoms>  (940) 
nan

>  <Num_Not_Resolved_Atoms>  (940) 
nan

$$$$
CHEMBL2386103
     RDKit          3D

  0  0  0  0  0  0  0  0  0  0999 V3000
M  V30 BEGIN CTAB
M  V30 COUNTS 47 51 0 0 0
M  V30 BEGIN ATOM
M  V30 1 C 2.869931 -1.223629 3.311023 0
M  V30 2 O 2.458233 -2.298909 2.553168 0
M  V30 3 C 1.542077 -3.118000 3.155959 0
M  V30 4 C 0.238051 -2.491634 3.521935 0
M  V30 5 N -0.512957 -1.958429 2.421737 0
M  V30 6 C -0.490666 -0.730447 1.890102 0
M  V30 7 C -1.340298 -0.532629 0.830202 0
M  V30 8 C -1.670435 0.522608 -0.093354 0
M  V30 9 C -0.987077 1.345291 -0.910732 0
M  V30 10 C 0.425716 1.520507 -1.213836 0
M  V30 11 C 0.880149 1.391762 -2.537289 0
M  V30 12 O 2.173967 1.606101 -2.585850 0
M  V30 13 C 2.662339 1.876100 -1.399670 0
M  V30 14 C 3.898918 2.175051 -0.860356 0
M  V30 15 C 4.027027 2.415011 0.498241 0
M  V30 16 C 2.929162 2.360016 1.329339 0
M  V30 17 C 1.691271 2.062014 0.802412 0
M  V30 18 C 1.586951 1.827035 -0.537998 0
M  V30 19 C -1.955905 2.238905 -1.587539 0
M  V30 20 O -1.712948 3.161061 -2.440974 0
M  V30 21 N -3.274263 1.954787 -1.169728 0
M  V30 22 C -3.095508 0.892908 -0.244497 0
M  V30 23 O -4.137313 0.406886 0.322635 0
M  V30 24 C -1.931662 -1.800025 0.729722 0
M  V30 25 C -2.870505 -2.394219 -0.086209 0
M  V30 26 C -3.295638 -3.696018 0.009129 0
M  V30 27 F -4.211662 -4.238736 -0.803978 0
M  V30 28 C -2.761941 -4.505052 0.988294 0
M  V30 29 C -1.818736 -3.956986 1.828368 0
M  V30 30 C -1.417160 -2.637247 1.697476 0
M  V30 31 H 3.604111 -0.641821 2.701162 0
M  V30 32 H 2.034957 -0.565395 3.587719 0
M  V30 33 H 3.408906 -1.534948 4.233894 0
M  V30 34 H 1.314909 -3.932348 2.421157 0
M  V30 35 H 1.929748 -3.628406 4.064782 0
M  V30 36 H 0.465329 -1.674905 4.259638 0
M  V30 37 H -0.365501 -3.242242 4.072673 0
M  V30 38 H 0.148568 0.038618 2.279021 0
M  V30 39 H 0.425015 1.164764 -3.492149 0
M  V30 40 H 4.751266 2.217345 -1.509599 0
M  V30 41 H 4.990594 2.649359 0.928816 0
M  V30 42 H 3.071250 2.552097 2.371431 0
M  V30 43 H 0.855607 2.044282 1.455289 0
M  V30 44 H -4.135786 2.424413 -1.481482 0
M  V30 45 H -3.337666 -1.849547 -0.887521 0
M  V30 46 H -3.059551 -5.524798 1.104988 0
M  V30 47 H -1.410790 -4.614818 2.594044 0
M  V30 END ATOM
M  V30 BEGIN BOND
M  V30 1 1 1 2
M  V30 2 1 2 3
M  V30 3 1 3 4
M  V30 4 1 4 5
M  V30 5 1 5 6
M  V30 6 2 6 7
M  V30 7 1 7 8
M  V30 8 2 8 9
M  V30 9 1 9 10
M  V30 10 2 10 11
M  V30 11 1 11 12
M  V30 12 1 12 13
M  V30 13 2 13 14
M  V30 14 1 14 15
M  V30 15 2 15 16
M  V30 16 1 16 17
M  V30 17 2 17 18
M  V30 18 1 9 19
M  V30 19 2 19 20
M  V30 20 1 19 21
M  V30 21 1 21 22
M  V30 22 2 22 23
M  V30 23 1 7 24
M  V30 24 2 24 25
M  V30 25 1 25 26
M  V30 26 1 26 27
M  V30 27 2 26 28
M  V30 28 1 28 29
M  V30 29 2 29 30
M  V30 30 1 30 5
M  V30 31 1 22 8
M  V30 32 1 30 24
M  V30 33 1 18 10
M  V30 34 1 18 13
M  V30 35 1 1 31
M  V30 36 1 1 32
M  V30 37 1 1 33
M  V30 38 1 3 34
M  V30 39 1 3 35
M  V30 40 1 4 36
M  V30 41 1 4 37
M  V30 42 1 6 38
M  V30 43 1 11 39
M  V30 44 1 14 40
M  V30 45 1 15 41
M  V30 46 1 16 42
M  V30 47 1 17 43
M  V30 48 1 21 44
M  V30 49 1 25 45
M  V30 50 1 28 46
M  V30 51 1 29 47
M  V30 END BOND
M  V30 END CTAB
M  END
>  <Dataset>  (941) 
ChEMBL_Kinases

>  <Ligand_Instance>  (941) 
nan

>  <PDB_ID>  (941) 
nan

>  <Standardized_SMILES>  (941) 
COCCn1cc(C2=C(c3coc4ccccc34)C(=O)NC2=O)c2cc(F)ccc21

>  <Name>  (941) 
nan

>  <Pocket>  (941) 
nan

>  <ATP_Site>  (941) 
nan

>  <Peripheral>  (941) 
nan

>  <Num_H_Atoms_ProtBoundConf>  (941) 
nan

>  <Num_Resolved_Atoms>  (941) 
nan

>  <Num_Not_Resolved_Atoms>  (941) 
nan

$$$$
CHEMBL2386102
     RDKit          3D

  0  0  0  0  0  0  0  0  0  0999 V3000
M  V30 BEGIN CTAB
M  V30 COUNTS 47 51 0 0 0
M  V30 BEGIN ATOM
M  V30 1 C 2.884657 -1.654772 5.005006 0
M  V30 2 O 3.165165 -2.214173 3.784906 0
M  V30 3 C 2.281909 -1.879508 2.782358 0
M  V30 4 C 0.859611 -2.302078 3.108431 0
M  V30 5 N -0.035701 -1.940059 2.016956 0
M  V30 6 C -0.740887 -0.799727 1.804989 0
M  V30 7 C -1.467445 -0.902146 0.625257 0
M  V30 8 C -2.312319 0.188550 0.134961 0
M  V30 9 C -1.979821 1.472839 0.005300 0
M  V30 10 C -0.798939 2.284847 0.245011 0
M  V30 11 C -0.652109 3.504857 0.868932 0
M  V30 12 O 0.582512 3.883774 0.840306 0
M  V30 13 C 1.359080 3.013255 0.228139 0
M  V30 14 C 2.714555 2.946403 -0.064595 0
M  V30 15 C 3.223226 1.844285 -0.752883 0
M  V30 16 C 2.387785 0.807710 -1.151531 0
M  V30 17 C 1.044934 0.909645 -0.841850 0
M  V30 18 C 0.506569 1.998950 -0.153909 0
M  V30 19 C -3.163150 2.185009 -0.519889 0
M  V30 20 O -3.370878 3.402280 -0.817018 0
M  V30 21 N -4.218673 1.248512 -0.692996 0
M  V30 22 C -3.715807 -0.020445 -0.289612 0
M  V30 23 O -4.347434 -1.109412 -0.293447 0
M  V30 24 C -1.191597 -2.152773 0.099802 0
M  V30 25 C -1.665096 -2.719404 -1.060930 0
M  V30 26 C -1.247250 -3.994370 -1.399076 0
M  V30 27 C -0.361439 -4.614048 -0.517648 0
M  V30 28 C 0.103994 -4.032732 0.639861 0
M  V30 29 C -0.316303 -2.761934 0.971562 0
M  V30 30 H 2.885137 -0.546564 5.000130 0
M  V30 31 H 1.929104 -2.033492 5.451920 0
M  V30 32 H 3.719976 -1.959085 5.694958 0
M  V30 33 H 2.269113 -0.764636 2.601141 0
M  V30 34 H 2.560311 -2.394601 1.857355 0
M  V30 35 H 0.792543 -3.375771 3.330793 0
M  V30 36 H 0.534046 -1.681904 3.978532 0
M  V30 37 H -0.651057 -0.020776 2.525592 0
M  V30 38 H -1.451265 4.066671 1.318893 0
M  V30 39 H 3.340196 3.779619 0.262903 0
M  V30 40 H 4.281878 1.805119 -0.976755 0
M  V30 41 H 2.850547 -0.003298 -1.674865 0
M  V30 42 H 0.470346 0.086386 -1.186470 0
M  V30 43 H -5.204493 1.335285 -1.036583 0
M  V30 44 H -2.355107 -2.216764 -1.748891 0
M  V30 45 H -1.613100 -4.439256 -2.308026 0
M  V30 46 H -0.081740 -5.610074 -0.850189 0
M  V30 47 H 0.784503 -4.564462 1.274765 0
M  V30 END ATOM
M  V30 BEGIN BOND
M  V30 1 1 1 2
M  V30 2 1 2 3
M  V30 3 1 3 4
M  V30 4 1 4 5
M  V30 5 1 5 6
M  V30 6 2 6 7
M  V30 7 1 7 8
M  V30 8 2 8 9
M  V30 9 1 9 10
M  V30 10 2 10 11
M  V30 11 1 11 12
M  V30 12 1 12 13
M  V30 13 2 13 14
M  V30 14 1 14 15
M  V30 15 2 15 16
M  V30 16 1 16 17
M  V30 17 2 17 18
M  V30 18 1 9 19
M  V30 19 2 19 20
M  V30 20 1 19 21
M  V30 21 1 21 22
M  V30 22 2 22 23
M  V30 23 1 7 24
M  V30 24 2 24 25
M  V30 25 1 25 26
M  V30 26 2 26 27
M  V30 27 1 27 28
M  V30 28 2 28 29
M  V30 29 1 29 5
M  V30 30 1 22 8
M  V30 31 1 29 24
M  V30 32 1 18 10
M  V30 33 1 18 13
M  V30 34 1 1 30
M  V30 35 1 1 31
M  V30 36 1 1 32
M  V30 37 1 3 33
M  V30 38 1 3 34
M  V30 39 1 4 35
M  V30 40 1 4 36
M  V30 41 1 6 37
M  V30 42 1 11 38
M  V30 43 1 14 39
M  V30 44 1 15 40
M  V30 45 1 16 41
M  V30 46 1 17 42
M  V30 47 1 21 43
M  V30 48 1 25 44
M  V30 49 1 26 45
M  V30 50 1 27 46
M  V30 51 1 28 47
M  V30 END BOND
M  V30 END CTAB
M  END
>  <Dataset>  (942) 
ChEMBL_Kinases

>  <Ligand_Instance>  (942) 
nan

>  <PDB_ID>  (942) 
nan

>  <Standardized_SMILES>  (942) 
COCCn1cc(C2=C(c3coc4ccccc34)C(=O)NC2=O)c2ccccc21

>  <Name>  (942) 
nan

>  <Pocket>  (942) 
nan

>  <ATP_Site>  (942) 
nan

>  <Peripheral>  (942) 
nan

>  <Num_H_Atoms_ProtBoundConf>  (942) 
nan

>  <Num_Resolved_Atoms>  (942) 
nan

>  <Num_Not_Resolved_Atoms>  (942) 
nan

$$$$
CHEMBL2392225
     RDKit          3D

  0  0  0  0  0  0  0  0  0  0999 V3000
M  V30 BEGIN CTAB
M  V30 COUNTS 38 41 0 0 0
M  V30 BEGIN ATOM
M  V30 1 F -0.784806 -5.544315 1.674138 0
M  V30 2 C 0.256247 -4.679099 1.484977 0
M  V30 3 C 1.449556 -4.987326 0.869646 0
M  V30 4 C 2.437500 -4.036562 0.729667 0
M  V30 5 C 2.225934 -2.740526 1.218939 0
M  V30 6 C 3.406006 -1.856934 0.980625 0
M  V30 7 N 3.310875 -1.232504 -0.322188 0
M  V30 8 C 2.344249 -0.334626 -0.839683 0
M  V30 9 C 2.448264 0.118525 -2.160913 0
M  V30 10 C 1.524443 0.991511 -2.676615 0
M  V30 11 N 0.522718 1.397565 -1.883381 0
M  V30 12 C 0.378962 0.992902 -0.611608 0
M  V30 13 C -0.746631 1.495834 0.164050 0
M  V30 14 C -1.648708 2.360560 -0.418866 0
M  V30 15 C -2.741520 2.880271 0.243910 0
M  V30 16 C -2.979209 2.541730 1.558914 0
M  V30 17 C -2.101238 1.679380 2.180045 0
M  V30 18 C -1.023234 1.185736 1.477276 0
M  V30 19 O -2.540049 1.484333 3.493066 0
M  V30 20 C -3.918145 1.879318 3.563705 0
M  V30 21 O -3.952010 2.861207 2.519486 0
M  V30 22 N 1.299059 0.140142 -0.140024 0
M  V30 23 C 1.029630 -2.446920 1.831400 0
M  V30 24 C 0.047346 -3.402199 1.967369 0
M  V30 25 Cl -1.397370 -2.810582 2.779619 0
M  V30 26 H 1.484294 -6.018348 0.538713 0
M  V30 27 H 3.319200 -4.424166 0.226049 0
M  V30 28 H 4.351360 -2.406390 1.100553 0
M  V30 29 H 3.427201 -1.060654 1.789082 0
M  V30 30 H 4.097578 -1.496860 -0.991030 0
M  V30 31 H 3.270331 -0.219715 -2.799348 0
M  V30 32 H 1.640374 1.317685 -3.700645 0
M  V30 33 H -1.516550 2.665795 -1.454146 0
M  V30 34 H -3.440792 3.563815 -0.241996 0
M  V30 35 H -0.349670 0.513725 1.986667 0
M  V30 36 H -4.208208 2.276000 4.533850 0
M  V30 37 H -4.470164 0.949645 3.256126 0
M  V30 38 H 1.021894 -1.419085 2.154750 0
M  V30 END ATOM
M  V30 BEGIN BOND
M  V30 1 1 1 2
M  V30 2 2 2 3
M  V30 3 1 3 4
M  V30 4 2 4 5
M  V30 5 1 5 6
M  V30 6 1 6 7
M  V30 7 1 7 8
M  V30 8 2 8 9
M  V30 9 1 9 10
M  V30 10 2 10 11
M  V30 11 1 11 12
M  V30 12 1 12 13
M  V30 13 2 13 14
M  V30 14 1 14 15
M  V30 15 2 15 16
M  V30 16 1 16 17
M  V30 17 2 17 18
M  V30 18 1 17 19
M  V30 19 1 19 20
M  V30 20 1 20 21
M  V30 21 2 12 22
M  V30 22 1 5 23
M  V30 23 2 23 24
M  V30 24 1 24 25
M  V30 25 1 24 2
M  V30 26 1 22 8
M  V30 27 1 18 13
M  V30 28 1 21 16
M  V30 29 1 3 26
M  V30 30 1 4 27
M  V30 31 1 6 28
M  V30 32 1 6 29
M  V30 33 1 7 30
M  V30 34 1 9 31
M  V30 35 1 10 32
M  V30 36 1 14 33
M  V30 37 1 15 34
M  V30 38 1 18 35
M  V30 39 1 20 36
M  V30 40 1 20 37
M  V30 41 1 23 38
M  V30 END BOND
M  V30 END CTAB
M  END
>  <Dataset>  (943) 
ChEMBL_Kinases

>  <Ligand_Instance>  (943) 
nan

>  <PDB_ID>  (943) 
nan

>  <Standardized_SMILES>  (943) 
Fc1ccc(CNc2ccnc(-c3ccc4c(c3)OCO4)n2)cc1Cl

>  <Name>  (943) 
nan

>  <Pocket>  (943) 
nan

>  <ATP_Site>  (943) 
nan

>  <Peripheral>  (943) 
nan

>  <Num_H_Atoms_ProtBoundConf>  (943) 
nan

>  <Num_Resolved_Atoms>  (943) 
nan

>  <Num_Not_Resolved_Atoms>  (943) 
nan

$$$$
CHEMBL2385590
     RDKit          3D

  0  0  0  0  0  0  0  0  0  0999 V3000
M  V30 BEGIN CTAB
M  V30 COUNTS 48 52 0 0 0
M  V30 BEGIN ATOM
M  V30 1 C -4.051826 -7.339699 -2.557266 0
M  V30 2 C -3.093001 -7.778484 -1.672688 0
M  V30 3 C -2.021965 -7.008780 -1.265412 0
M  V30 4 C -1.921369 -5.713741 -1.790618 0
M  V30 5 C -0.739681 -5.002769 -1.275921 0
M  V30 6 C 0.577500 -5.457668 -1.130091 0
M  V30 7 N 1.318555 -4.454680 -0.613255 0
M  V30 8 N 0.563798 -3.375444 -0.414291 0
M  V30 9 C 0.866993 -2.155822 0.076743 0
M  V30 10 C -0.128711 -1.201451 0.177633 0
M  V30 11 C 0.272181 0.092078 0.721823 0
M  V30 12 C 1.532724 0.614859 0.533537 0
M  V30 13 C 1.932916 1.834265 1.040451 0
M  V30 14 C 1.055424 2.601587 1.780318 0
M  V30 15 N 1.329112 3.870903 2.364716 0
M  V30 16 C 0.429969 4.675950 3.164710 0
M  V30 17 C 1.224751 5.400013 4.219746 0
M  V30 18 N 2.316626 4.531002 4.647618 0
M  V30 19 C 3.316239 4.637633 3.573783 0
M  V30 20 C 2.602561 4.570113 2.238833 0
M  V30 21 C -0.218951 2.102178 1.985683 0
M  V30 22 C -0.608014 0.875806 1.470806 0
M  V30 23 C -1.411532 -1.514703 -0.225819 0
M  V30 24 N -1.651038 -2.754197 -0.709349 0
M  V30 25 C -0.702784 -3.692042 -0.815097 0
M  V30 26 C -2.837801 -5.223691 -2.668512 0
M  V30 27 C -3.893176 -6.057946 -3.035061 0
M  V30 28 H -4.884176 -7.968621 -2.859065 0
M  V30 29 H -3.219442 -8.802019 -1.289919 0
M  V30 30 H -1.321012 -7.456433 -0.560939 0
M  V30 31 H 0.900491 -6.465298 -1.402979 0
M  V30 32 H 1.892621 -1.929030 0.390426 0
M  V30 33 H 2.249376 0.040074 -0.042180 0
M  V30 34 H 2.909796 2.220784 0.884943 0
M  V30 35 H -0.384790 4.108474 3.641626 0
M  V30 36 H 0.012657 5.479716 2.498653 0
M  V30 37 H 1.685687 6.326714 3.780289 0
M  V30 38 H 0.583698 5.717421 5.065789 0
M  V30 39 H 2.763392 4.868184 5.525073 0
M  V30 40 H 4.108386 3.877087 3.691020 0
M  V30 41 H 3.790098 5.630128 3.716686 0
M  V30 42 H 2.427175 5.627840 1.917550 0
M  V30 43 H 3.275654 4.112175 1.492260 0
M  V30 44 H -1.035222 2.550178 2.529924 0
M  V30 45 H -1.590858 0.423820 1.592789 0
M  V30 46 H -2.179943 -0.745277 -0.136499 0
M  V30 47 H -2.690051 -4.220422 -3.025762 0
M  V30 48 H -4.609009 -5.637977 -3.737979 0
M  V30 END ATOM
M  V30 BEGIN BOND
M  V30 1 2 1 2
M  V30 2 1 2 3
M  V30 3 2 3 4
M  V30 4 1 4 5
M  V30 5 1 5 6
M  V30 6 2 6 7
M  V30 7 1 7 8
M  V30 8 1 8 9
M  V30 9 2 9 10
M  V30 10 1 10 11
M  V30 11 2 11 12
M  V30 12 1 12 13
M  V30 13 2 13 14
M  V30 14 1 14 15
M  V30 15 1 15 16
M  V30 16 1 16 17
M  V30 17 1 17 18
M  V30 18 1 18 19
M  V30 19 1 19 20
M  V30 20 1 14 21
M  V30 21 2 21 22
M  V30 22 1 10 23
M  V30 23 2 23 24
M  V30 24 1 24 25
M  V30 25 1 4 26
M  V30 26 2 26 27
M  V30 27 1 27 1
M  V30 28 2 25 5
M  V30 29 1 25 8
M  V30 30 1 22 11
M  V30 31 1 20 15
M  V30 32 1 1 28
M  V30 33 1 2 29
M  V30 34 1 3 30
M  V30 35 1 6 31
M  V30 36 1 9 32
M  V30 37 1 12 33
M  V30 38 1 13 34
M  V30 39 1 16 35
M  V30 40 1 16 36
M  V30 41 1 17 37
M  V30 42 1 17 38
M  V30 43 1 18 39
M  V30 44 1 19 40
M  V30 45 1 19 41
M  V30 46 1 20 42
M  V30 47 1 20 43
M  V30 48 1 21 44
M  V30 49 1 22 45
M  V30 50 1 23 46
M  V30 51 1 26 47
M  V30 52 1 27 48
M  V30 END BOND
M  V30 END CTAB
M  END
>  <Dataset>  (944) 
ChEMBL_Kinases

>  <Ligand_Instance>  (944) 
nan

>  <PDB_ID>  (944) 
nan

>  <Standardized_SMILES>  (944) 
c1ccc(-c2cnn3cc(-c4ccc(N5CCNCC5)cc4)cnc23)cc1

>  <Name>  (944) 
nan

>  <Pocket>  (944) 
nan

>  <ATP_Site>  (944) 
nan

>  <Peripheral>  (944) 
nan

>  <Num_H_Atoms_ProtBoundConf>  (944) 
nan

>  <Num_Resolved_Atoms>  (944) 
nan

>  <Num_Not_Resolved_Atoms>  (944) 
nan

$$$$
CHEMBL2385597
     RDKit          3D

  0  0  0  0  0  0  0  0  0  0999 V3000
M  V30 BEGIN CTAB
M  V30 COUNTS 49 53 0 0 0
M  V30 BEGIN ATOM
M  V30 1 C 3.005719 -7.530717 2.989255 0
M  V30 2 C 3.620517 -6.175771 2.621098 0
M  V30 3 C 5.115411 -6.415220 2.525617 0
M  V30 4 O 3.080714 -5.750047 1.392059 0
M  V30 5 C 2.366941 -4.588957 1.201056 0
M  V30 6 C 1.981286 -3.568088 2.043299 0
M  V30 7 C 1.252830 -2.502123 1.561496 0
M  V30 8 C 0.874357 -2.392104 0.244634 0
M  V30 9 C 0.104922 -1.226112 -0.170601 0
M  V30 10 C 0.393130 -0.058264 0.536422 0
M  V30 11 N -0.277631 1.062998 0.211012 0
M  V30 12 C -1.208339 1.151273 -0.745007 0
M  V30 13 C -2.002548 2.173185 -1.234931 0
M  V30 14 C -1.998211 3.567861 -0.751643 0
M  V30 15 C -1.111288 4.401252 -1.401129 0
M  V30 16 C -0.998758 5.731403 -1.055898 0
M  V30 17 N -1.792586 6.193502 -0.052789 0
M  V30 18 C -2.669740 5.388676 0.596295 0
M  V30 19 C -3.460263 5.890246 1.609743 0
M  V30 20 C -4.336507 5.031110 2.239373 0
M  V30 21 C -4.437453 3.704100 1.883341 0
M  V30 22 C -3.654638 3.156762 0.862053 0
M  V30 23 C -2.802308 4.067509 0.275724 0
M  V30 24 C -2.758217 1.610059 -2.229112 0
M  V30 25 N -2.419758 0.295025 -2.322931 0
M  V30 26 N -1.479199 0.000575 -1.427801 0
M  V30 27 C -0.851700 -1.161371 -1.162372 0
M  V30 28 C 1.253909 -3.415232 -0.628686 0
M  V30 29 C 1.982438 -4.479411 -0.141911 0
M  V30 30 H 1.914233 -7.451165 3.181857 0
M  V30 31 H 3.232942 -8.201207 2.111204 0
M  V30 32 H 3.517096 -7.961537 3.856303 0
M  V30 33 H 3.375007 -5.427142 3.399878 0
M  V30 34 H 5.410467 -7.238016 3.214507 0
M  V30 35 H 5.715435 -5.529429 2.832835 0
M  V30 36 H 5.455215 -6.641053 1.491546 0
M  V30 37 H 2.321660 -3.740441 3.052473 0
M  V30 38 H 1.016028 -1.769533 2.334072 0
M  V30 39 H 1.117088 0.036822 1.336435 0
M  V30 40 H -0.462313 4.066815 -2.206236 0
M  V30 41 H -0.299719 6.404155 -1.562510 0
M  V30 42 H -3.338322 6.937692 1.846143 0
M  V30 43 H -4.945200 5.458516 3.034077 0
M  V30 44 H -5.132261 3.045725 2.390725 0
M  V30 45 H -3.687286 2.141360 0.541772 0
M  V30 46 H -3.485580 2.157767 -2.811492 0
M  V30 47 H -1.039451 -2.084610 -1.678316 0
M  V30 48 H 0.934369 -3.279600 -1.637765 0
M  V30 49 H 2.200459 -5.194689 -0.949576 0
M  V30 END ATOM
M  V30 BEGIN BOND
M  V30 1 1 1 2
M  V30 2 1 2 3
M  V30 3 1 2 4
M  V30 4 1 4 5
M  V30 5 2 5 6
M  V30 6 1 6 7
M  V30 7 2 7 8
M  V30 8 1 8 9
M  V30 9 1 9 10
M  V30 10 2 10 11
M  V30 11 1 11 12
M  V30 12 2 12 13
M  V30 13 1 13 14
M  V30 14 2 14 15
M  V30 15 1 15 16
M  V30 16 2 16 17
M  V30 17 1 17 18
M  V30 18 2 18 19
M  V30 19 1 19 20
M  V30 20 2 20 21
M  V30 21 1 21 22
M  V30 22 2 22 23
M  V30 23 1 13 24
M  V30 24 2 24 25
M  V30 25 1 25 26
M  V30 26 1 26 27
M  V30 27 1 8 28
M  V30 28 2 28 29
M  V30 29 1 29 5
M  V30 30 2 27 9
M  V30 31 1 26 12
M  V30 32 1 23 14
M  V30 33 1 23 18
M  V30 34 1 1 30
M  V30 35 1 1 31
M  V30 36 1 1 32
M  V30 37 1 2 33
M  V30 38 1 3 34
M  V30 39 1 3 35
M  V30 40 1 3 36
M  V30 41 1 6 37
M  V30 42 1 7 38
M  V30 43 1 10 39
M  V30 44 1 15 40
M  V30 45 1 16 41
M  V30 46 1 19 42
M  V30 47 1 20 43
M  V30 48 1 21 44
M  V30 49 1 22 45
M  V30 50 1 24 46
M  V30 51 1 27 47
M  V30 52 1 28 48
M  V30 53 1 29 49
M  V30 END BOND
M  V30 END CTAB
M  END
>  <Dataset>  (945) 
ChEMBL_Kinases

>  <Ligand_Instance>  (945) 
nan

>  <PDB_ID>  (945) 
nan

>  <Standardized_SMILES>  (945) 
CC(C)Oc1ccc(-c2cnc3c(-c4ccnc5ccccc45)cnn3c2)cc1

>  <Name>  (945) 
nan

>  <Pocket>  (945) 
nan

>  <ATP_Site>  (945) 
nan

>  <Peripheral>  (945) 
nan

>  <Num_H_Atoms_ProtBoundConf>  (945) 
nan

>  <Num_Resolved_Atoms>  (945) 
nan

>  <Num_Not_Resolved_Atoms>  (945) 
nan

$$$$
CHEMBL2385951
     RDKit          3D

  0  0  0  0  0  0  0  0  0  0999 V3000
M  V30 BEGIN CTAB
M  V30 COUNTS 53 57 0 0 0
M  V30 BEGIN ATOM
M  V30 1 O 6.241918 -4.902060 0.230575 0
M  V30 2 C 5.628512 -4.023723 -0.430694 0
M  V30 3 O 5.139486 -4.505938 -1.621072 0
M  V30 4 C 5.494167 -2.672361 0.071236 0
M  V30 5 C 6.049889 -2.352028 1.288957 0
M  V30 6 C 5.935880 -1.066047 1.792133 0
M  V30 7 C 5.261780 -0.128353 1.054065 0
M  V30 8 C 4.690656 -0.400618 -0.164658 0
M  V30 9 C 3.938520 0.588673 -1.015032 0
M  V30 10 N 2.514606 0.565752 -0.638651 0
M  V30 11 C 2.012551 1.440861 0.361377 0
M  V30 12 O 2.616491 2.297195 1.027346 0
M  V30 13 C 0.590277 1.171170 0.504244 0
M  V30 14 C -0.322397 1.728245 1.259964 0
M  V30 15 C -1.739510 1.483200 1.434026 0
M  V30 16 C -2.537598 2.628673 1.245960 0
M  V30 17 C -3.885408 2.331849 1.432475 0
M  V30 18 C -3.843433 0.995019 1.730759 0
M  V30 19 C -4.985199 0.136282 2.026266 0
M  V30 20 C -6.268186 0.644019 2.017447 0
M  V30 21 C -7.341894 -0.193522 2.304521 0
M  V30 22 C -7.127090 -1.539295 2.599924 0
M  V30 23 C -5.864969 -2.088524 2.620086 0
M  V30 24 N -5.600236 -3.449639 2.916072 0 CHG=1 VAL=4
M  V30 25 O -4.415390 -3.833133 2.906371 0
M  V30 26 O -6.634359 -4.318473 3.206351 0 CHG=-1 VAL=1
M  V30 27 C -4.854041 -1.201814 2.327000 0
M  V30 28 O -2.628388 0.568568 1.719379 0
M  V30 29 C 0.275052 0.122361 -0.434318 0
M  V30 30 C -0.870272 -0.534230 -0.769021 0
M  V30 31 C -0.934742 -1.517156 -1.729164 0
M  V30 32 C 0.249943 -1.853339 -2.394000 0
M  V30 33 C 1.412771 -1.195756 -2.065197 0
M  V30 34 C 1.421241 -0.219830 -1.096533 0
M  V30 35 C 4.823037 -1.709223 -0.646658 0
M  V30 36 H 4.796797 -5.459505 -1.702532 0
M  V30 37 H 6.574875 -3.142226 1.829778 0
M  V30 38 H 6.376596 -0.826844 2.749898 0
M  V30 39 H 5.136181 0.888406 1.385992 0
M  V30 40 H 4.340739 1.600776 -0.884807 0
M  V30 41 H 4.053511 0.263619 -2.059837 0
M  V30 42 H 0.120028 2.536223 1.875291 0
M  V30 43 H -2.307593 3.669771 0.989915 0
M  V30 44 H -4.755366 2.963156 1.367333 0
M  V30 45 H -6.469501 1.688980 1.790835 0
M  V30 46 H -8.341348 0.200019 2.296779 0
M  V30 47 H -7.967968 -2.202933 2.826767 0
M  V30 48 H -3.828158 -1.584840 2.327958 0
M  V30 49 H -1.853717 -0.404403 -0.389664 0
M  V30 50 H -1.775417 -2.100233 -2.074480 0
M  V30 51 H 0.304379 -2.605854 -3.157791 0
M  V30 52 H 2.322357 -1.454047 -2.579037 0
M  V30 53 H 4.416007 -2.040851 -1.596329 0
M  V30 END ATOM
M  V30 BEGIN BOND
M  V30 1 2 1 2
M  V30 2 1 2 3
M  V30 3 1 2 4
M  V30 4 2 4 5
M  V30 5 1 5 6
M  V30 6 2 6 7
M  V30 7 1 7 8
M  V30 8 1 8 9
M  V30 9 1 9 10
M  V30 10 1 10 11
M  V30 11 2 11 12
M  V30 12 1 11 13
M  V30 13 2 13 14
M  V30 14 1 14 15
M  V30 15 2 15 16
M  V30 16 1 16 17
M  V30 17 2 17 18
M  V30 18 1 18 19
M  V30 19 2 19 20
M  V30 20 1 20 21
M  V30 21 2 21 22
M  V30 22 1 22 23
M  V30 23 1 23 24
M  V30 24 2 24 25
M  V30 25 1 24 26
M  V30 26 2 23 27
M  V30 27 1 18 28
M  V30 28 1 13 29
M  V30 29 2 29 30
M  V30 30 1 30 31
M  V30 31 2 31 32
M  V30 32 1 32 33
M  V30 33 2 33 34
M  V30 34 2 8 35
M  V30 35 1 35 4
M  V30 36 1 34 10
M  V30 37 1 28 15
M  V30 38 1 34 29
M  V30 39 1 27 19
M  V30 40 1 3 36
M  V30 41 1 5 37
M  V30 42 1 6 38
M  V30 43 1 7 39
M  V30 44 1 9 40
M  V30 45 1 9 41
M  V30 46 1 14 42
M  V30 47 1 16 43
M  V30 48 1 17 44
M  V30 49 1 20 45
M  V30 50 1 21 46
M  V30 51 1 22 47
M  V30 52 1 27 48
M  V30 53 1 30 49
M  V30 54 1 31 50
M  V30 55 1 32 51
M  V30 56 1 33 52
M  V30 57 1 35 53
M  V30 END BOND
M  V30 END CTAB
M  END
>  <Dataset>  (946) 
ChEMBL_Kinases

>  <Ligand_Instance>  (946) 
nan

>  <PDB_ID>  (946) 
nan

>  <Standardized_SMILES>  (946) 
O=C(O)c1cccc(CN2C(=O)/C(=C/c3ccc(-c4cccc([N+](=O)[O-])c4)o3)c3ccccc32)c1

>  <Name>  (946) 
nan

>  <Pocket>  (946) 
nan

>  <ATP_Site>  (946) 
nan

>  <Peripheral>  (946) 
nan

>  <Num_H_Atoms_ProtBoundConf>  (946) 
nan

>  <Num_Resolved_Atoms>  (946) 
nan

>  <Num_Not_Resolved_Atoms>  (946) 
nan

$$$$
CHEMBL2386088
     RDKit          3D

  0  0  0  0  0  0  0  0  0  0999 V3000
M  V30 BEGIN CTAB
M  V30 COUNTS 46 51 0 0 0
M  V30 BEGIN ATOM
M  V30 1 O 2.181496 -3.346516 4.925778 0
M  V30 2 C 2.302602 -2.242023 4.337469 0
M  V30 3 N 3.035308 -1.061399 4.649589 0
M  V30 4 C 2.856292 -0.060028 3.665762 0
M  V30 5 O 3.368347 1.099489 3.644170 0
M  V30 6 C 1.957396 -0.659157 2.688274 0
M  V30 7 C 1.468259 -0.082336 1.444624 0
M  V30 8 C 1.462677 -0.876204 0.289204 0
M  V30 9 N 0.971058 -0.173721 -0.740567 0
M  V30 10 C 0.653420 1.073825 -0.270530 0
M  V30 11 C 0.110443 2.247621 -0.821609 0
M  V30 12 C -0.091512 3.349604 -0.067071 0
M  V30 13 C 0.227549 3.364784 1.272584 0
M  V30 14 F -0.009943 4.519793 1.960508 0
M  V30 15 C 0.762506 2.245915 1.869685 0
M  V30 16 C 0.958341 1.137575 1.080050 0
M  V30 17 C -0.243440 2.258270 -2.282010 0
M  V30 18 N -1.133836 1.168999 -2.500457 0
M  V30 19 C -0.651222 -0.134062 -2.584517 0
M  V30 20 C 0.732390 -0.454091 -2.133965 0
M  V30 21 C 1.641456 -1.912762 3.079453 0
M  V30 22 C 0.725911 -2.807110 2.350282 0
M  V30 23 C 1.093779 -4.101107 2.010986 0
M  V30 24 O 0.084542 -4.686233 1.372265 0
M  V30 25 C -0.934379 -3.836765 1.275827 0
M  V30 26 C -2.199295 -3.911327 0.729028 0
M  V30 27 C -3.047922 -2.801790 0.804636 0
M  V30 28 C -2.640387 -1.636044 1.417516 0
M  V30 29 C -1.374842 -1.560874 1.965281 0
M  V30 30 C -0.561330 -2.656395 1.878759 0
M  V30 31 H 3.624338 -0.977061 5.507717 0
M  V30 32 H 1.761155 -1.892179 0.073283 0
M  V30 33 H -0.518439 4.191004 -0.625691 0
M  V30 34 H 1.011860 2.247237 2.915851 0
M  V30 35 H 0.664412 2.217454 -2.909298 0
M  V30 36 H -0.789076 3.201908 -2.484744 0
M  V30 37 H -1.911692 1.245077 -1.799537 0
M  V30 38 H -0.737466 -0.522735 -3.634160 0
M  V30 39 H -1.328119 -0.821663 -1.992309 0
M  V30 40 H 1.459481 0.081327 -2.796354 0
M  V30 41 H 0.908770 -1.535878 -2.315051 0
M  V30 42 H 1.975273 -4.714907 2.142266 0
M  V30 43 H -2.448462 -4.851321 0.265147 0
M  V30 44 H -4.030473 -2.943076 0.345589 0
M  V30 45 H -3.347191 -0.797437 1.444176 0
M  V30 46 H -1.111737 -0.640151 2.440011 0
M  V30 END ATOM
M  V30 BEGIN BOND
M  V30 1 2 1 2
M  V30 2 1 2 3
M  V30 3 1 3 4
M  V30 4 2 4 5
M  V30 5 1 4 6
M  V30 6 1 6 7
M  V30 7 2 7 8
M  V30 8 1 8 9
M  V30 9 1 9 10
M  V30 10 2 10 11
M  V30 11 1 11 12
M  V30 12 2 12 13
M  V30 13 1 13 14
M  V30 14 1 13 15
M  V30 15 2 15 16
M  V30 16 1 11 17
M  V30 17 1 17 18
M  V30 18 1 18 19
M  V30 19 1 19 20
M  V30 20 2 6 21
M  V30 21 1 21 22
M  V30 22 2 22 23
M  V30 23 1 23 24
M  V30 24 1 24 25
M  V30 25 2 25 26
M  V30 26 1 26 27
M  V30 27 2 27 28
M  V30 28 1 28 29
M  V30 29 2 29 30
M  V30 30 1 21 2
M  V30 31 1 30 22
M  V30 32 1 16 7
M  V30 33 1 30 25
M  V30 34 1 20 9
M  V30 35 1 16 10
M  V30 36 1 3 31
M  V30 37 1 8 32
M  V30 38 1 12 33
M  V30 39 1 15 34
M  V30 40 1 17 35
M  V30 41 1 17 36
M  V30 42 1 18 37
M  V30 43 1 19 38
M  V30 44 1 19 39
M  V30 45 1 20 40
M  V30 46 1 20 41
M  V30 47 1 23 42
M  V30 48 1 26 43
M  V30 49 1 27 44
M  V30 50 1 28 45
M  V30 51 1 29 46
M  V30 END BOND
M  V30 END CTAB
M  END
>  <Dataset>  (947) 
ChEMBL_Kinases

>  <Ligand_Instance>  (947) 
nan

>  <PDB_ID>  (947) 
nan

>  <Standardized_SMILES>  (947) 
O=C1NC(=O)C(c2cn3c4c(cc(F)cc24)CNCC3)=C1c1coc2ccccc12

>  <Name>  (947) 
nan

>  <Pocket>  (947) 
nan

>  <ATP_Site>  (947) 
nan

>  <Peripheral>  (947) 
nan

>  <Num_H_Atoms_ProtBoundConf>  (947) 
nan

>  <Num_Resolved_Atoms>  (947) 
nan

>  <Num_Not_Resolved_Atoms>  (947) 
nan

$$$$
CHEMBL2386089
     RDKit          3D

  0  0  0  0  0  0  0  0  0  0999 V3000
M  V30 BEGIN CTAB
M  V30 COUNTS 46 51 0 0 0
M  V30 BEGIN ATOM
M  V30 1 O 2.256277 -3.303340 4.924975 0
M  V30 2 C 2.345946 -2.229557 4.304956 0
M  V30 3 N 3.118428 -1.087172 4.668536 0
M  V30 4 C 2.890579 -0.139897 3.658718 0
M  V30 5 O 3.367674 1.021886 3.563646 0
M  V30 6 C 1.974703 -0.661582 2.640345 0
M  V30 7 C 1.470114 -0.095015 1.396055 0
M  V30 8 C 1.436666 -0.902500 0.248682 0
M  V30 9 N 0.941161 -0.204856 -0.774831 0
M  V30 10 C 0.651089 1.045304 -0.310985 0
M  V30 11 C 0.120002 2.220197 -0.862489 0
M  V30 12 C -0.070815 3.353089 -0.153429 0
M  V30 13 C 0.273881 3.364883 1.192507 0
M  V30 14 Br -0.017213 4.994298 2.153391 0
M  V30 15 C 0.802648 2.251771 1.812249 0
M  V30 16 C 0.970330 1.132951 1.028734 0
M  V30 17 C -0.264285 2.236500 -2.323144 0
M  V30 18 N -1.178904 1.168158 -2.521835 0
M  V30 19 C -0.752688 -0.153897 -2.543968 0
M  V30 20 C 0.661131 -0.487595 -2.184606 0
M  V30 21 C 1.663659 -1.907652 3.049188 0
M  V30 22 C 0.734936 -2.804952 2.348847 0
M  V30 23 C 1.131242 -4.090254 2.027989 0
M  V30 24 O 0.114433 -4.669223 1.417555 0
M  V30 25 C -0.906346 -3.829648 1.331563 0
M  V30 26 C -2.176991 -3.928737 0.799825 0
M  V30 27 C -3.062365 -2.847004 0.858558 0
M  V30 28 C -2.637550 -1.683846 1.457981 0
M  V30 29 C -1.380195 -1.527302 2.004432 0
M  V30 30 C -0.559910 -2.627368 1.911737 0
M  V30 31 H 3.728313 -0.933371 5.484983 0
M  V30 32 H 1.717178 -1.921756 0.047716 0
M  V30 33 H -0.485615 4.186546 -0.694078 0
M  V30 34 H 1.064475 2.262331 2.858505 0
M  V30 35 H 0.673405 2.062621 -2.919839 0
M  V30 36 H -0.740951 3.187944 -2.535465 0
M  V30 37 H -1.983372 1.329738 -1.856557 0
M  V30 38 H -0.943202 -0.610091 -3.547146 0
M  V30 39 H -1.393731 -0.762983 -1.836069 0
M  V30 40 H 1.370246 0.042550 -2.852253 0
M  V30 41 H 0.813225 -1.566749 -2.324139 0
M  V30 42 H 2.055256 -4.595738 2.201355 0
M  V30 43 H -2.432236 -4.885401 0.341611 0
M  V30 44 H -4.041784 -2.989069 0.424974 0
M  V30 45 H -3.351624 -0.851787 1.491880 0
M  V30 46 H -1.078925 -0.608893 2.477241 0
M  V30 END ATOM
M  V30 BEGIN BOND
M  V30 1 2 1 2
M  V30 2 1 2 3
M  V30 3 1 3 4
M  V30 4 2 4 5
M  V30 5 1 4 6
M  V30 6 1 6 7
M  V30 7 2 7 8
M  V30 8 1 8 9
M  V30 9 1 9 10
M  V30 10 2 10 11
M  V30 11 1 11 12
M  V30 12 2 12 13
M  V30 13 1 13 14
M  V30 14 1 13 15
M  V30 15 2 15 16
M  V30 16 1 11 17
M  V30 17 1 17 18
M  V30 18 1 18 19
M  V30 19 1 19 20
M  V30 20 2 6 21
M  V30 21 1 21 22
M  V30 22 2 22 23
M  V30 23 1 23 24
M  V30 24 1 24 25
M  V30 25 2 25 26
M  V30 26 1 26 27
M  V30 27 2 27 28
M  V30 28 1 28 29
M  V30 29 2 29 30
M  V30 30 1 21 2
M  V30 31 1 30 22
M  V30 32 1 16 7
M  V30 33 1 30 25
M  V30 34 1 20 9
M  V30 35 1 16 10
M  V30 36 1 3 31
M  V30 37 1 8 32
M  V30 38 1 12 33
M  V30 39 1 15 34
M  V30 40 1 17 35
M  V30 41 1 17 36
M  V30 42 1 18 37
M  V30 43 1 19 38
M  V30 44 1 19 39
M  V30 45 1 20 40
M  V30 46 1 20 41
M  V30 47 1 23 42
M  V30 48 1 26 43
M  V30 49 1 27 44
M  V30 50 1 28 45
M  V30 51 1 29 46
M  V30 END BOND
M  V30 END CTAB
M  END
>  <Dataset>  (948) 
ChEMBL_Kinases

>  <Ligand_Instance>  (948) 
nan

>  <PDB_ID>  (948) 
nan

>  <Standardized_SMILES>  (948) 
O=C1NC(=O)C(c2cn3c4c(cc(Br)cc24)CNCC3)=C1c1coc2ccccc12

>  <Name>  (948) 
nan

>  <Pocket>  (948) 
nan

>  <ATP_Site>  (948) 
nan

>  <Peripheral>  (948) 
nan

>  <Num_H_Atoms_ProtBoundConf>  (948) 
nan

>  <Num_Resolved_Atoms>  (948) 
nan

>  <Num_Not_Resolved_Atoms>  (948) 
nan

$$$$
CHEMBL2386090
     RDKit          3D

  0  0  0  0  0  0  0  0  0  0999 V3000
M  V30 BEGIN CTAB
M  V30 COUNTS 56 62 0 0 0
M  V30 BEGIN ATOM
M  V30 1 O 4.978155 -3.746818 2.702475 0
M  V30 2 C 3.898141 -3.066470 2.635502 0
M  V30 3 N 3.332020 -2.628481 3.839178 0
M  V30 4 C 2.149675 -1.903202 3.487404 0
M  V30 5 O 1.362046 -1.352001 4.289690 0
M  V30 6 C 2.080792 -1.956802 2.020608 0
M  V30 7 C 0.987603 -1.383159 1.248963 0
M  V30 8 C 0.255909 -2.005556 0.260783 0
M  V30 9 N -0.678460 -1.124512 -0.215731 0
M  V30 10 C -0.503207 0.027783 0.489459 0
M  V30 11 C -1.198550 1.232496 0.381650 0
M  V30 12 C -0.903707 2.346871 1.170067 0
M  V30 13 C 0.125962 2.205321 2.079958 0
M  V30 14 C 0.796590 1.005424 2.167769 0
M  V30 15 C 0.517497 -0.101426 1.398782 0
M  V30 16 C -2.337182 1.489611 -0.550409 0
M  V30 17 N -3.021811 0.212657 -0.742241 0
M  V30 18 C -4.178577 -0.115756 0.008813 0
M  V30 19 O -4.821674 -1.203778 -0.113202 0
M  V30 20 C -5.032833 0.449058 1.044902 0
M  V30 21 C -6.240584 1.093006 0.898634 0
M  V30 22 N -6.869739 1.542821 2.023050 0
M  V30 23 C -6.295206 1.344884 3.232376 0
M  V30 24 C -5.081871 0.700769 3.409523 0
M  V30 25 N -4.480710 0.264208 2.265263 0
M  V30 26 C -2.651898 -0.820515 -1.658420 0
M  V30 27 C -1.509055 -1.680749 -1.265090 0
M  V30 28 C 3.091480 -2.629584 1.503597 0
M  V30 29 C 3.514918 -2.949754 0.154913 0
M  V30 30 C 3.947991 -4.218593 -0.264241 0
M  V30 31 O 4.267921 -4.122716 -1.530408 0
M  V30 32 C 4.095438 -2.918692 -2.005870 0
M  V30 33 C 4.334757 -2.475391 -3.288230 0
M  V30 34 C 4.056311 -1.122866 -3.500904 0
M  V30 35 C 3.575317 -0.326637 -2.463422 0
M  V30 36 C 3.354578 -0.835313 -1.189682 0
M  V30 37 C 3.621489 -2.157376 -0.965496 0
M  V30 38 H 3.618596 -2.746818 4.833601 0
M  V30 39 H 0.478664 -3.048187 -0.013100 0
M  V30 40 H -1.497401 3.253846 1.021557 0
M  V30 41 H 0.377844 3.038378 2.696799 0
M  V30 42 H 1.598572 0.941006 2.886467 0
M  V30 43 H -2.005324 1.835501 -1.545744 0
M  V30 44 H -3.029269 2.224363 -0.121137 0
M  V30 45 H -6.578727 1.179571 -0.113208 0
M  V30 46 H -6.823156 1.716171 4.123581 0
M  V30 47 H -4.668968 0.569748 4.398509 0
M  V30 48 H -3.514035 -1.507727 -1.862186 0
M  V30 49 H -2.437026 -0.375535 -2.676155 0
M  V30 50 H -1.831703 -2.721508 -0.973146 0
M  V30 51 H -0.886872 -1.879166 -2.192187 0
M  V30 52 H 4.010305 -5.127726 0.347750 0
M  V30 53 H 4.704391 -3.072821 -4.103322 0
M  V30 54 H 4.205753 -0.667313 -4.469488 0
M  V30 55 H 3.373439 0.727767 -2.682435 0
M  V30 56 H 2.988894 -0.214176 -0.393322 0
M  V30 END ATOM
M  V30 BEGIN BOND
M  V30 1 2 1 2
M  V30 2 1 2 3
M  V30 3 1 3 4
M  V30 4 2 4 5
M  V30 5 1 4 6
M  V30 6 1 6 7
M  V30 7 2 7 8
M  V30 8 1 8 9
M  V30 9 1 9 10
M  V30 10 2 10 11
M  V30 11 1 11 12
M  V30 12 2 12 13
M  V30 13 1 13 14
M  V30 14 2 14 15
M  V30 15 1 11 16
M  V30 16 1 16 17
M  V30 17 1 17 18
M  V30 18 2 18 19
M  V30 19 1 18 20
M  V30 20 2 20 21
M  V30 21 1 21 22
M  V30 22 2 22 23
M  V30 23 1 23 24
M  V30 24 2 24 25
M  V30 25 1 17 26
M  V30 26 1 26 27
M  V30 27 2 6 28
M  V30 28 1 28 29
M  V30 29 2 29 30
M  V30 30 1 30 31
M  V30 31 1 31 32
M  V30 32 2 32 33
M  V30 33 1 33 34
M  V30 34 2 34 35
M  V30 35 1 35 36
M  V30 36 2 36 37
M  V30 37 1 28 2
M  V30 38 1 37 29
M  V30 39 1 15 7
M  V30 40 1 25 20
M  V30 41 1 37 32
M  V30 42 1 27 9
M  V30 43 1 15 10
M  V30 44 1 3 38
M  V30 45 1 8 39
M  V30 46 1 12 40
M  V30 47 1 13 41
M  V30 48 1 14 42
M  V30 49 1 16 43
M  V30 50 1 16 44
M  V30 51 1 21 45
M  V30 52 1 23 46
M  V30 53 1 24 47
M  V30 54 1 26 48
M  V30 55 1 26 49
M  V30 56 1 27 50
M  V30 57 1 27 51
M  V30 58 1 30 52
M  V30 59 1 33 53
M  V30 60 1 34 54
M  V30 61 1 35 55
M  V30 62 1 36 56
M  V30 END BOND
M  V30 END CTAB
M  END
>  <Dataset>  (949) 
ChEMBL_Kinases

>  <Ligand_Instance>  (949) 
nan

>  <PDB_ID>  (949) 
nan

>  <Standardized_SMILES>  (949) 
O=C1NC(=O)C(c2cn3c4c(cccc24)CN(C(=O)c2cnccn2)CC3)=C1c1coc2ccccc12

>  <Name>  (949) 
nan

>  <Pocket>  (949) 
nan

>  <ATP_Site>  (949) 
nan

>  <Peripheral>  (949) 
nan

>  <Num_H_Atoms_ProtBoundConf>  (949) 
nan

>  <Num_Resolved_Atoms>  (949) 
nan

>  <Num_Not_Resolved_Atoms>  (949) 
nan

$$$$
CHEMBL2386091
     RDKit          3D

  0  0  0  0  0  0  0  0  0  0999 V3000
M  V30 BEGIN CTAB
M  V30 COUNTS 60 66 0 0 0
M  V30 BEGIN ATOM
M  V30 1 O 3.053875 -1.357224 5.659209 0
M  V30 2 C 2.879979 -0.484081 4.751141 0
M  V30 3 N 3.404611 0.823836 4.895205 0
M  V30 4 C 2.997093 1.466632 3.693285 0
M  V30 5 O 3.269906 2.666187 3.423656 0
M  V30 6 C 2.240190 0.538521 2.854805 0
M  V30 7 C 1.647592 0.745895 1.536977 0
M  V30 8 C 1.766321 -0.154626 0.482883 0
M  V30 9 N 1.069872 0.364469 -0.572139 0
M  V30 10 C 0.554648 1.536734 -0.155506 0
M  V30 11 C -0.241728 2.478110 -0.821109 0
M  V30 12 C -0.698964 3.646670 -0.245732 0
M  V30 13 C -0.355106 3.909902 1.064342 0
M  V30 14 C 0.431294 2.978896 1.720026 0
M  V30 15 C 0.883234 1.824803 1.150718 0
M  V30 16 C -0.704660 2.324724 -2.249683 0
M  V30 17 N -0.897638 0.876938 -2.465550 0
M  V30 18 C -2.186071 0.310878 -2.271901 0
M  V30 19 O -2.305218 -0.945479 -2.470398 0
M  V30 20 C -3.585562 0.006382 -2.005668 0
M  V30 21 C -3.875743 -1.450712 -2.198235 0
M  V30 22 C -4.324800 -2.097497 -3.314080 0
M  V30 23 C -4.506558 -3.445820 -3.223064 0
M  V30 24 N -4.284187 -4.186988 -2.139205 0
M  V30 25 C -3.839339 -3.560541 -1.028106 0
M  V30 26 C -3.629980 -2.196224 -1.038660 0
M  V30 27 C 0.164840 0.009778 -2.853359 0
M  V30 28 C 1.071216 -0.432887 -1.769063 0
M  V30 29 C 2.161597 -0.651085 3.486214 0
M  V30 30 C 1.470577 -1.835355 2.989586 0
M  V30 31 C 0.207290 -1.707195 2.390091 0
M  V30 32 O -0.217191 -2.907275 2.015112 0
M  V30 33 C 0.696226 -3.824690 2.333931 0
M  V30 34 C 0.785298 -5.199396 2.186382 0
M  V30 35 C 1.902630 -5.879431 2.637098 0
M  V30 36 C 2.940045 -5.190073 3.238972 0
M  V30 37 C 2.882715 -3.814476 3.403329 0
M  V30 38 C 1.765959 -3.177800 2.946977 0
M  V30 39 H 3.953070 1.232084 5.679462 0
M  V30 40 H 2.337505 -1.095133 0.551968 0
M  V30 41 H -1.313441 4.313824 -0.849492 0
M  V30 42 H -0.700257 4.811653 1.523773 0
M  V30 43 H 0.692019 3.182286 2.742562 0
M  V30 44 H 0.077145 2.717957 -2.897044 0
M  V30 45 H -1.641212 2.877428 -2.432813 0
M  V30 46 H -3.887784 0.340822 -0.996746 0
M  V30 47 H -4.240004 0.572499 -2.720897 0
M  V30 48 H -4.487129 -1.443149 -4.153152 0
M  V30 49 H -4.865377 -3.933562 -4.140872 0
M  V30 50 H -3.656550 -4.166877 -0.138135 0
M  V30 51 H -3.266378 -1.796778 -0.084461 0
M  V30 52 H 0.730872 0.508759 -3.684363 0
M  V30 53 H -0.245587 -0.919177 -3.346083 0
M  V30 54 H 0.882196 -1.511937 -1.495494 0
M  V30 55 H 2.115104 -0.447274 -2.155700 0
M  V30 56 H -0.461101 -0.880350 2.178465 0
M  V30 57 H -0.067323 -5.701077 1.702095 0
M  V30 58 H 1.955861 -6.954847 2.514842 0
M  V30 59 H 3.773402 -5.776209 3.567706 0
M  V30 60 H 3.677385 -3.286410 3.860770 0
M  V30 END ATOM
M  V30 BEGIN BOND
M  V30 1 2 1 2
M  V30 2 1 2 3
M  V30 3 1 3 4
M  V30 4 2 4 5
M  V30 5 1 4 6
M  V30 6 1 6 7
M  V30 7 2 7 8
M  V30 8 1 8 9
M  V30 9 1 9 10
M  V30 10 2 10 11
M  V30 11 1 11 12
M  V30 12 2 12 13
M  V30 13 1 13 14
M  V30 14 2 14 15
M  V30 15 1 11 16
M  V30 16 1 16 17
M  V30 17 1 17 18
M  V30 18 2 18 19
M  V30 19 1 18 20
M  V30 20 1 20 21
M  V30 21 2 21 22
M  V30 22 1 22 23
M  V30 23 2 23 24
M  V30 24 1 24 25
M  V30 25 2 25 26
M  V30 26 1 17 27
M  V30 27 1 27 28
M  V30 28 2 6 29
M  V30 29 1 29 30
M  V30 30 2 30 31
M  V30 31 1 31 32
M  V30 32 1 32 33
M  V30 33 2 33 34
M  V30 34 1 34 35
M  V30 35 2 35 36
M  V30 36 1 36 37
M  V30 37 2 37 38
M  V30 38 1 29 2
M  V30 39 1 38 30
M  V30 40 1 15 7
M  V30 41 1 26 21
M  V30 42 1 38 33
M  V30 43 1 28 9
M  V30 44 1 15 10
M  V30 45 1 3 39
M  V30 46 1 8 40
M  V30 47 1 12 41
M  V30 48 1 13 42
M  V30 49 1 14 43
M  V30 50 1 16 44
M  V30 51 1 16 45
M  V30 52 1 20 46
M  V30 53 1 20 47
M  V30 54 1 22 48
M  V30 55 1 23 49
M  V30 56 1 25 50
M  V30 57 1 26 51
M  V30 58 1 27 52
M  V30 59 1 27 53
M  V30 60 1 28 54
M  V30 61 1 28 55
M  V30 62 1 31 56
M  V30 63 1 34 57
M  V30 64 1 35 58
M  V30 65 1 36 59
M  V30 66 1 37 60
M  V30 END BOND
M  V30 END CTAB
M  END
>  <Dataset>  (950) 
ChEMBL_Kinases

>  <Ligand_Instance>  (950) 
nan

>  <PDB_ID>  (950) 
nan

>  <Standardized_SMILES>  (950) 
O=C1NC(=O)C(c2cn3c4c(cccc24)CN(C(=O)Cc2ccncc2)CC3)=C1c1coc2ccccc12

>  <Name>  (950) 
nan

>  <Pocket>  (950) 
nan

>  <ATP_Site>  (950) 
nan

>  <Peripheral>  (950) 
nan

>  <Num_H_Atoms_ProtBoundConf>  (950) 
nan

>  <Num_Resolved_Atoms>  (950) 
nan

>  <Num_Not_Resolved_Atoms>  (950) 
nan

$$$$
CHEMBL2386101
     RDKit          3D

  0  0  0  0  0  0  0  0  0  0999 V3000
M  V30 BEGIN CTAB
M  V30 COUNTS 51 55 0 0 0
M  V30 BEGIN ATOM
M  V30 1 C 2.303108 -0.351470 6.560060 0
M  V30 2 N 1.761024 -0.987028 5.344956 0
M  V30 3 C 2.576504 -0.528283 4.265410 0
M  V30 4 C 2.183119 -1.058043 2.911069 0
M  V30 5 C 0.796571 -0.679695 2.509394 0
M  V30 6 N 0.479207 -1.216190 1.201664 0
M  V30 7 C 0.678882 -0.636753 -0.018299 0
M  V30 8 C 0.240893 -1.470543 -1.056065 0
M  V30 9 C 0.365417 -1.029913 -2.438067 0
M  V30 10 C 0.070576 0.232964 -2.808655 0
M  V30 11 C -0.407174 1.336865 -1.952109 0
M  V30 12 C 0.200626 2.578247 -1.912787 0
M  V30 13 O -0.458102 3.341591 -1.078583 0
M  V30 14 C -1.476361 2.716105 -0.540772 0
M  V30 15 C -2.456697 3.069527 0.372666 0
M  V30 16 C -3.431569 2.141490 0.744692 0
M  V30 17 C -3.384297 0.864791 0.173003 0
M  V30 18 C -2.415927 0.498096 -0.735263 0
M  V30 19 C -1.464497 1.446946 -1.078740 0
M  V30 20 C 0.285055 0.413090 -4.235320 0
M  V30 21 O 0.110335 1.457249 -4.913716 0
M  V30 22 N 0.737112 -0.848835 -4.705370 0
M  V30 23 C 0.800039 -1.773983 -3.613575 0
M  V30 24 O 1.152168 -2.966469 -3.652471 0
M  V30 25 C -0.241554 -2.595052 -0.428370 0
M  V30 26 C -0.787106 -3.710621 -1.013183 0
M  V30 27 C -1.203886 -4.717111 -0.159141 0
M  V30 28 F -1.755957 -5.853254 -0.684153 0
M  V30 29 C -1.080297 -4.610633 1.201309 0
M  V30 30 C -0.518040 -3.454683 1.754460 0
M  V30 31 C -0.081884 -2.407618 0.931425 0
M  V30 32 H 1.657738 -0.536637 7.442403 0
M  V30 33 H 3.284074 -0.816096 6.830395 0
M  V30 34 H 2.515990 0.716061 6.415066 0
M  V30 35 H 1.936029 -2.021782 5.528838 0
M  V30 36 H 3.636071 -0.740310 4.497172 0
M  V30 37 H 2.518245 0.599699 4.258160 0
M  V30 38 H 2.323605 -2.153864 2.899680 0
M  V30 39 H 2.884711 -0.635436 2.168243 0
M  V30 40 H 0.011306 -1.035259 3.196322 0
M  V30 41 H 0.670776 0.431251 2.476039 0
M  V30 42 H 1.132444 0.359093 -0.050984 0
M  V30 43 H 1.058440 2.992503 -2.413552 0
M  V30 44 H -2.473812 4.072372 0.810877 0
M  V30 45 H -4.220370 2.395679 1.467871 0
M  V30 46 H -4.125885 0.155394 0.449956 0
M  V30 47 H -2.421210 -0.495700 -1.160220 0
M  V30 48 H 0.983956 -1.063494 -5.695463 0
M  V30 49 H -0.887521 -3.800610 -2.067243 0
M  V30 50 H -1.406187 -5.402809 1.896725 0
M  V30 51 H -0.407983 -3.347545 2.828905 0
M  V30 END ATOM
M  V30 BEGIN BOND
M  V30 1 1 1 2
M  V30 2 1 2 3
M  V30 3 1 3 4
M  V30 4 1 4 5
M  V30 5 1 5 6
M  V30 6 1 6 7
M  V30 7 2 7 8
M  V30 8 1 8 9
M  V30 9 2 9 10
M  V30 10 1 10 11
M  V30 11 2 11 12
M  V30 12 1 12 13
M  V30 13 1 13 14
M  V30 14 2 14 15
M  V30 15 1 15 16
M  V30 16 2 16 17
M  V30 17 1 17 18
M  V30 18 2 18 19
M  V30 19 1 10 20
M  V30 20 2 20 21
M  V30 21 1 20 22
M  V30 22 1 22 23
M  V30 23 2 23 24
M  V30 24 1 8 25
M  V30 25 2 25 26
M  V30 26 1 26 27
M  V30 27 1 27 28
M  V30 28 2 27 29
M  V30 29 1 29 30
M  V30 30 2 30 31
M  V30 31 1 31 6
M  V30 32 1 23 9
M  V30 33 1 31 25
M  V30 34 1 19 11
M  V30 35 1 19 14
M  V30 36 1 1 32
M  V30 37 1 1 33
M  V30 38 1 1 34
M  V30 39 1 2 35
M  V30 40 1 3 36
M  V30 41 1 3 37
M  V30 42 1 4 38
M  V30 43 1 4 39
M  V30 44 1 5 40
M  V30 45 1 5 41
M  V30 46 1 7 42
M  V30 47 1 12 43
M  V30 48 1 15 44
M  V30 49 1 16 45
M  V30 50 1 17 46
M  V30 51 1 18 47
M  V30 52 1 22 48
M  V30 53 1 26 49
M  V30 54 1 29 50
M  V30 55 1 30 51
M  V30 END BOND
M  V30 END CTAB
M  END
>  <Dataset>  (951) 
ChEMBL_Kinases

>  <Ligand_Instance>  (951) 
nan

>  <PDB_ID>  (951) 
nan

>  <Standardized_SMILES>  (951) 
CNCCCn1cc(C2=C(c3coc4ccccc34)C(=O)NC2=O)c2cc(F)ccc21

>  <Name>  (951) 
nan

>  <Pocket>  (951) 
nan

>  <ATP_Site>  (951) 
nan

>  <Peripheral>  (951) 
nan

>  <Num_H_Atoms_ProtBoundConf>  (951) 
nan

>  <Num_Resolved_Atoms>  (951) 
nan

>  <Num_Not_Resolved_Atoms>  (951) 
nan

$$$$
CHEMBL2386093
     RDKit          3D

  0  0  0  0  0  0  0  0  0  0999 V3000
M  V30 BEGIN CTAB
M  V30 COUNTS 78 85 0 0 0
M  V30 BEGIN ATOM
M  V30 1 O 5.175047 -1.589368 4.421753 0
M  V30 2 C 4.414056 -1.719690 3.421588 0
M  V30 3 N 3.863107 -3.000624 3.211260 0
M  V30 4 C 3.054509 -2.908102 2.048476 0
M  V30 5 O 2.356868 -3.809083 1.468453 0
M  V30 6 C 3.148196 -1.507012 1.572952 0
M  V30 7 C 2.422144 -1.015006 0.411793 0
M  V30 8 C 2.384286 -1.652120 -0.835518 0
M  V30 9 N 1.593823 -0.910750 -1.664751 0
M  V30 10 C 1.157601 0.158518 -0.934338 0
M  V30 11 C 0.319897 1.229638 -1.268090 0
M  V30 12 C -0.040658 2.239729 -0.406135 0
M  V30 13 C 0.474752 2.160171 0.863018 0
M  V30 14 F 0.139326 3.139103 1.739813 0
M  V30 15 C 1.298139 1.125838 1.223860 0
M  V30 16 C 1.650554 0.121964 0.347985 0
M  V30 17 C -0.290281 1.387324 -2.640108 0
M  V30 18 N -0.454963 0.044891 -3.225813 0
M  V30 19 C -1.593837 -0.818576 -3.200671 0
M  V30 20 O -1.684424 -1.941814 -3.748828 0
M  V30 21 N -2.900594 -0.746007 -2.614927 0
M  V30 22 C -3.802943 -1.840358 -2.796151 0
M  V30 23 C -4.168313 -2.527051 -1.518003 0
M  V30 24 C -4.496418 -1.601922 -0.383787 0
M  V30 25 N -4.489846 -2.336378 0.866798 0
M  V30 26 C -3.255554 -3.019115 1.105176 0
M  V30 27 C -3.036045 -3.173885 2.590405 0
M  V30 28 C -4.339818 -3.557052 3.285126 0
M  V30 29 C -5.243078 -2.363240 3.152596 0
M  V30 30 C -4.837693 -1.487314 1.990189 0
M  V30 31 C -3.614468 -0.420040 -0.393318 0
M  V30 32 C -3.649117 0.184353 -1.799254 0
M  V30 33 C 0.610554 -0.647141 -3.925399 0
M  V30 34 C 1.469983 -1.457565 -2.991327 0
M  V30 35 C 3.937525 -0.812316 2.365919 0
M  V30 36 C 4.428373 0.551154 2.387493 0
M  V30 37 C 4.517761 1.387598 3.506020 0
M  V30 38 O 5.020168 2.549616 3.169745 0
M  V30 39 C 5.300672 2.612484 1.889612 0
M  V30 40 C 5.830996 3.560803 1.022584 0
M  V30 41 C 6.012137 3.315914 -0.329097 0
M  V30 42 C 5.643197 2.064570 -0.823843 0
M  V30 43 C 5.121304 1.149435 0.061232 0
M  V30 44 C 4.931250 1.365016 1.400588 0
M  V30 45 H 3.916101 -3.925559 3.690196 0
M  V30 46 H 2.928859 -2.576875 -1.004413 0
M  V30 47 H -0.706624 3.035136 -0.780998 0
M  V30 48 H 1.663240 1.113161 2.238834 0
M  V30 49 H -1.201865 1.971350 -2.647892 0
M  V30 50 H 0.475022 1.913596 -3.229907 0
M  V30 51 H -4.769636 -1.539800 -3.279622 0
M  V30 52 H -3.381279 -2.602654 -3.471622 0
M  V30 53 H -5.096978 -3.139478 -1.713296 0
M  V30 54 H -3.398907 -3.289400 -1.239751 0
M  V30 55 H -5.552865 -1.245600 -0.572951 0
M  V30 56 H -3.285572 -4.059750 0.687316 0
M  V30 57 H -2.391626 -2.481912 0.685555 0
M  V30 58 H -2.316786 -3.993423 2.796430 0
M  V30 59 H -2.685691 -2.229113 3.020672 0
M  V30 60 H -4.807319 -4.394044 2.742592 0
M  V30 61 H -4.099014 -3.803307 4.331429 0
M  V30 62 H -6.313767 -2.665406 3.024193 0
M  V30 63 H -5.201035 -1.717273 4.067296 0
M  V30 64 H -3.953209 -0.866202 2.222741 0
M  V30 65 H -5.731459 -0.865446 1.764420 0
M  V30 66 H -2.555775 -0.736602 -0.261169 0
M  V30 67 H -3.883830 0.358449 0.355007 0
M  V30 68 H -3.229308 1.211798 -1.787634 0
M  V30 69 H -4.711911 0.291865 -2.075121 0
M  V30 70 H 1.253280 0.116786 -4.402561 0
M  V30 71 H 0.226169 -1.273442 -4.735172 0
M  V30 72 H 1.040098 -2.476910 -2.911304 0
M  V30 73 H 2.507440 -1.586030 -3.393693 0
M  V30 74 H 4.225996 1.150465 4.523426 0
M  V30 75 H 6.117614 4.539297 1.426716 0
M  V30 76 H 6.428359 4.051957 -1.014943 0
M  V30 77 H 5.783776 1.864930 -1.880783 0
M  V30 78 H 4.865181 0.212384 -0.377153 0
M  V30 END ATOM
M  V30 BEGIN BOND
M  V30 1 2 1 2
M  V30 2 1 2 3
M  V30 3 1 3 4
M  V30 4 2 4 5
M  V30 5 1 4 6
M  V30 6 1 6 7
M  V30 7 2 7 8
M  V30 8 1 8 9
M  V30 9 1 9 10
M  V30 10 2 10 11
M  V30 11 1 11 12
M  V30 12 2 12 13
M  V30 13 1 13 14
M  V30 14 1 13 15
M  V30 15 2 15 16
M  V30 16 1 11 17
M  V30 17 1 17 18
M  V30 18 1 18 19
M  V30 19 2 19 20
M  V30 20 1 19 21
M  V30 21 1 21 22
M  V30 22 1 22 23
M  V30 23 1 23 24
M  V30 24 1 24 25
M  V30 25 1 25 26
M  V30 26 1 26 27
M  V30 27 1 27 28
M  V30 28 1 28 29
M  V30 29 1 29 30
M  V30 30 1 24 31
M  V30 31 1 31 32
M  V30 32 1 18 33
M  V30 33 1 33 34
M  V30 34 2 6 35
M  V30 35 1 35 36
M  V30 36 2 36 37
M  V30 37 1 37 38
M  V30 38 1 38 39
M  V30 39 2 39 40
M  V30 40 1 40 41
M  V30 41 2 41 42
M  V30 42 1 42 43
M  V30 43 2 43 44
M  V30 44 1 35 2
M  V30 45 1 44 36
M  V30 46 1 16 7
M  V30 47 1 32 21
M  V30 48 1 44 39
M  V30 49 1 34 9
M  V30 50 1 16 10
M  V30 51 1 30 25
M  V30 52 1 3 45
M  V30 53 1 8 46
M  V30 54 1 12 47
M  V30 55 1 15 48
M  V30 56 1 17 49
M  V30 57 1 17 50
M  V30 58 1 22 51
M  V30 59 1 22 52
M  V30 60 1 23 53
M  V30 61 1 23 54
M  V30 62 1 24 55
M  V30 63 1 26 56
M  V30 64 1 26 57
M  V30 65 1 27 58
M  V30 66 1 27 59
M  V30 67 1 28 60
M  V30 68 1 28 61
M  V30 69 1 29 62
M  V30 70 1 29 63
M  V30 71 1 30 64
M  V30 72 1 30 65
M  V30 73 1 31 66
M  V30 74 1 31 67
M  V30 75 1 32 68
M  V30 76 1 32 69
M  V30 77 1 33 70
M  V30 78 1 33 71
M  V30 79 1 34 72
M  V30 80 1 34 73
M  V30 81 1 37 74
M  V30 82 1 40 75
M  V30 83 1 41 76
M  V30 84 1 42 77
M  V30 85 1 43 78
M  V30 END BOND
M  V30 END CTAB
M  END
>  <Dataset>  (952) 
ChEMBL_Kinases

>  <Ligand_Instance>  (952) 
nan

>  <PDB_ID>  (952) 
nan

>  <Standardized_SMILES>  (952) 
O=C1NC(=O)C(c2cn3c4c(cc(F)cc24)CN(C(=O)N2CCC(N4CCCCC4)CC2)CC3)=C1c1coc2ccccc12

>  <Name>  (952) 
nan

>  <Pocket>  (952) 
nan

>  <ATP_Site>  (952) 
nan

>  <Peripheral>  (952) 
nan

>  <Num_H_Atoms_ProtBoundConf>  (952) 
nan

>  <Num_Resolved_Atoms>  (952) 
nan

>  <Num_Not_Resolved_Atoms>  (952) 
nan

$$$$
CHEMBL2386094
     RDKit          3D

  0  0  0  0  0  0  0  0  0  0999 V3000
M  V30 BEGIN CTAB
M  V30 COUNTS 61 67 0 0 0
M  V30 BEGIN ATOM
M  V30 1 O 5.489620 -0.427056 4.415352 0
M  V30 2 C 5.091375 -0.566494 3.213392 0
M  V30 3 N 6.072091 -0.977714 2.276115 0
M  V30 4 C 5.360733 -1.053170 1.024922 0
M  V30 5 O 5.760580 -1.374718 -0.145474 0
M  V30 6 C 3.973637 -0.673898 1.299147 0
M  V30 7 C 2.914006 -0.580064 0.306302 0
M  V30 8 C 2.611492 -1.554766 -0.637922 0
M  V30 9 N 1.581029 -1.171705 -1.423853 0
M  V30 10 C 1.173186 0.061401 -1.025435 0
M  V30 11 C 0.190717 0.975234 -1.427530 0
M  V30 12 C 0.007846 2.199556 -0.826294 0
M  V30 13 C 0.835625 2.536735 0.222780 0
M  V30 14 F 0.609184 3.753685 0.773609 0
M  V30 15 C 1.799691 1.630989 0.613393 0
M  V30 16 C 2.000562 0.416329 0.037903 0
M  V30 17 C -0.699864 0.540550 -2.553170 0
M  V30 18 N -1.206568 -0.794892 -2.296663 0
M  V30 19 C -2.587169 -0.858613 -1.992184 0
M  V30 20 O -3.091165 0.289128 -2.003016 0
M  V30 21 N -3.698709 -1.665963 -1.666758 0
M  V30 22 C -4.922643 -0.915704 -1.462903 0
M  V30 23 C -5.760967 -1.729007 -0.507791 0
M  V30 24 O -5.006783 -2.380192 0.459008 0
M  V30 25 C -4.151120 -3.339901 -0.025895 0
M  V30 26 C -3.875451 -3.096144 -1.495160 0
M  V30 27 C -0.471771 -2.015936 -2.305754 0
M  V30 28 C 0.992849 -1.915089 -2.521650 0
M  V30 29 C 3.805284 -0.388022 2.579820 0
M  V30 30 C 2.684680 -0.002971 3.420602 0
M  V30 31 C 2.675412 1.010988 4.389475 0
M  V30 32 O 1.493828 1.064943 4.952883 0
M  V30 33 C 0.671137 0.174301 4.463419 0
M  V30 34 C -0.644793 -0.113095 4.763310 0
M  V30 35 C -1.210930 -1.138593 4.038844 0
M  V30 36 C -0.539888 -1.853152 3.071152 0
M  V30 37 C 0.772718 -1.525442 2.809931 0
M  V30 38 C 1.402795 -0.508601 3.497218 0
M  V30 39 H 7.091837 -1.220285 2.261354 0
M  V30 40 H 3.120591 -2.507812 -0.751890 0
M  V30 41 H -0.793486 2.764504 -1.272447 0
M  V30 42 H 2.408052 1.976761 1.426993 0
M  V30 43 H -1.544994 1.253237 -2.565732 0
M  V30 44 H -0.204307 0.626484 -3.541447 0
M  V30 45 H -4.752091 0.117337 -1.089412 0
M  V30 46 H -5.460950 -0.876579 -2.432283 0
M  V30 47 H -6.423772 -1.020350 0.065113 0
M  V30 48 H -6.426725 -2.376668 -1.092491 0
M  V30 49 H -4.620067 -4.360101 0.072792 0
M  V30 50 H -3.201636 -3.328889 0.581225 0
M  V30 51 H -4.818461 -3.410375 -2.026052 0
M  V30 52 H -3.004874 -3.669338 -1.854545 0
M  V30 53 H -0.637349 -2.579364 -1.344249 0
M  V30 54 H -0.874546 -2.694793 -3.107532 0
M  V30 55 H 1.187823 -1.306696 -3.437037 0
M  V30 56 H 1.440554 -2.915767 -2.634796 0
M  V30 57 H 3.538137 1.629543 4.603534 0
M  V30 58 H -1.213698 0.419015 5.514686 0
M  V30 59 H -2.242223 -1.460287 4.184294 0
M  V30 60 H -0.992440 -2.658585 2.506643 0
M  V30 61 H 1.294555 -2.094545 2.057584 0
M  V30 END ATOM
M  V30 BEGIN BOND
M  V30 1 2 1 2
M  V30 2 1 2 3
M  V30 3 1 3 4
M  V30 4 2 4 5
M  V30 5 1 4 6
M  V30 6 1 6 7
M  V30 7 2 7 8
M  V30 8 1 8 9
M  V30 9 1 9 10
M  V30 10 2 10 11
M  V30 11 1 11 12
M  V30 12 2 12 13
M  V30 13 1 13 14
M  V30 14 1 13 15
M  V30 15 2 15 16
M  V30 16 1 11 17
M  V30 17 1 17 18
M  V30 18 1 18 19
M  V30 19 2 19 20
M  V30 20 1 19 21
M  V30 21 1 21 22
M  V30 22 1 22 23
M  V30 23 1 23 24
M  V30 24 1 24 25
M  V30 25 1 25 26
M  V30 26 1 18 27
M  V30 27 1 27 28
M  V30 28 2 6 29
M  V30 29 1 29 30
M  V30 30 2 30 31
M  V30 31 1 31 32
M  V30 32 1 32 33
M  V30 33 2 33 34
M  V30 34 1 34 35
M  V30 35 2 35 36
M  V30 36 1 36 37
M  V30 37 2 37 38
M  V30 38 1 29 2
M  V30 39 1 38 30
M  V30 40 1 16 7
M  V30 41 1 26 21
M  V30 42 1 38 33
M  V30 43 1 28 9
M  V30 44 1 16 10
M  V30 45 1 3 39
M  V30 46 1 8 40
M  V30 47 1 12 41
M  V30 48 1 15 42
M  V30 49 1 17 43
M  V30 50 1 17 44
M  V30 51 1 22 45
M  V30 52 1 22 46
M  V30 53 1 23 47
M  V30 54 1 23 48
M  V30 55 1 25 49
M  V30 56 1 25 50
M  V30 57 1 26 51
M  V30 58 1 26 52
M  V30 59 1 27 53
M  V30 60 1 27 54
M  V30 61 1 28 55
M  V30 62 1 28 56
M  V30 63 1 31 57
M  V30 64 1 34 58
M  V30 65 1 35 59
M  V30 66 1 36 60
M  V30 67 1 37 61
M  V30 END BOND
M  V30 END CTAB
M  END
>  <Dataset>  (953) 
ChEMBL_Kinases

>  <Ligand_Instance>  (953) 
nan

>  <PDB_ID>  (953) 
nan

>  <Standardized_SMILES>  (953) 
O=C1NC(=O)C(c2cn3c4c(cc(F)cc24)CN(C(=O)N2CCOCC2)CC3)=C1c1coc2ccccc12

>  <Name>  (953) 
nan

>  <Pocket>  (953) 
nan

>  <ATP_Site>  (953) 
nan

>  <Peripheral>  (953) 
nan

>  <Num_H_Atoms_ProtBoundConf>  (953) 
nan

>  <Num_Resolved_Atoms>  (953) 
nan

>  <Num_Not_Resolved_Atoms>  (953) 
nan

$$$$
CHEMBL2386095
     RDKit          3D

  0  0  0  0  0  0  0  0  0  0999 V3000
M  V30 BEGIN CTAB
M  V30 COUNTS 44 48 0 0 0
M  V30 BEGIN ATOM
M  V30 1 O 0.350179 -4.257391 3.285115 0
M  V30 2 C 0.631508 -3.006757 3.207099 0
M  V30 3 N 1.402717 -2.421642 4.243845 0
M  V30 4 C 1.515972 -1.063839 3.836723 0
M  V30 5 O 2.136179 -0.183860 4.486001 0
M  V30 6 C 0.800543 -0.878197 2.554629 0
M  V30 7 C 0.661553 0.333993 1.753617 0
M  V30 8 C 0.800250 0.306874 0.369580 0
M  V30 9 N 0.626589 1.537131 -0.160042 0
M  V30 10 C 0.671674 1.989817 -1.536848 0
M  V30 11 C 2.079421 2.434887 -1.850792 0
M  V30 12 O 3.031465 1.465496 -1.707838 0
M  V30 13 C 0.372595 2.389260 0.847297 0
M  V30 14 C 0.114670 3.762241 0.914566 0
M  V30 15 C -0.115296 4.359111 2.155524 0
M  V30 16 C -0.084656 3.581788 3.301864 0
M  V30 17 Br -0.403744 4.475803 4.945535 0
M  V30 18 C 0.168288 2.220361 3.267847 0
M  V30 19 C 0.392251 1.657736 2.027610 0
M  V30 20 C 0.263390 -2.033293 2.159849 0
M  V30 21 C -0.555728 -2.348687 0.993253 0
M  V30 22 C -1.650786 -1.630384 0.499090 0
M  V30 23 O -2.111511 -2.249518 -0.579799 0
M  V30 24 C -1.377781 -3.320626 -0.808934 0
M  V30 25 C -1.599574 -4.171438 -1.855096 0
M  V30 26 C -0.716197 -5.249506 -1.933894 0
M  V30 27 C 0.283915 -5.386734 -0.995028 0
M  V30 28 C 0.473702 -4.492076 0.057784 0
M  V30 29 C -0.401342 -3.421891 0.140702 0
M  V30 30 H 1.799459 -2.877582 5.103515 0
M  V30 31 H 1.014200 -0.582687 -0.232318 0
M  V30 32 H 0.406439 1.142103 -2.213889 0
M  V30 33 H 0.000495 2.856187 -1.685943 0
M  V30 34 H 2.368198 3.282276 -1.192858 0
M  V30 35 H 2.135561 2.813652 -2.887814 0
M  V30 36 H 2.758808 0.624802 -1.313911 0
M  V30 37 H 0.103070 4.323603 -0.013384 0
M  V30 38 H -0.298164 5.405730 2.091803 0
M  V30 39 H 0.179336 1.647720 4.180675 0
M  V30 40 H -1.974913 -0.723145 1.010408 0
M  V30 41 H -2.330415 -4.163063 -2.627873 0
M  V30 42 H -0.769677 -6.004775 -2.706204 0
M  V30 43 H 0.982717 -6.216873 -1.038004 0
M  V30 44 H 1.262528 -4.597427 0.784128 0
M  V30 END ATOM
M  V30 BEGIN BOND
M  V30 1 2 1 2
M  V30 2 1 2 3
M  V30 3 1 3 4
M  V30 4 2 4 5
M  V30 5 1 4 6
M  V30 6 1 6 7
M  V30 7 2 7 8
M  V30 8 1 8 9
M  V30 9 1 9 10
M  V30 10 1 10 11
M  V30 11 1 11 12
M  V30 12 1 9 13
M  V30 13 2 13 14
M  V30 14 1 14 15
M  V30 15 2 15 16
M  V30 16 1 16 17
M  V30 17 1 16 18
M  V30 18 2 18 19
M  V30 19 2 6 20
M  V30 20 1 20 21
M  V30 21 2 21 22
M  V30 22 1 22 23
M  V30 23 1 23 24
M  V30 24 2 24 25
M  V30 25 1 25 26
M  V30 26 2 26 27
M  V30 27 1 27 28
M  V30 28 2 28 29
M  V30 29 1 20 2
M  V30 30 1 29 21
M  V30 31 1 19 7
M  V30 32 1 29 24
M  V30 33 1 19 13
M  V30 34 1 3 30
M  V30 35 1 8 31
M  V30 36 1 10 32
M  V30 37 1 10 33
M  V30 38 1 11 34
M  V30 39 1 11 35
M  V30 40 1 12 36
M  V30 41 1 14 37
M  V30 42 1 15 38
M  V30 43 1 18 39
M  V30 44 1 22 40
M  V30 45 1 25 41
M  V30 46 1 26 42
M  V30 47 1 27 43
M  V30 48 1 28 44
M  V30 END BOND
M  V30 END CTAB
M  END
>  <Dataset>  (954) 
ChEMBL_Kinases

>  <Ligand_Instance>  (954) 
nan

>  <PDB_ID>  (954) 
nan

>  <Standardized_SMILES>  (954) 
O=C1NC(=O)C(c2cn(CCO)c3ccc(Br)cc23)=C1c1coc2ccccc12

>  <Name>  (954) 
nan

>  <Pocket>  (954) 
nan

>  <ATP_Site>  (954) 
nan

>  <Peripheral>  (954) 
nan

>  <Num_H_Atoms_ProtBoundConf>  (954) 
nan

>  <Num_Resolved_Atoms>  (954) 
nan

>  <Num_Not_Resolved_Atoms>  (954) 
nan

$$$$
CHEMBL2386096
     RDKit          3D

  0  0  0  0  0  0  0  0  0  0999 V3000
M  V30 BEGIN CTAB
M  V30 COUNTS 44 48 0 0 0
M  V30 BEGIN ATOM
M  V30 1 O 0.704617 -4.086968 3.548524 0
M  V30 2 C 0.867556 -2.859171 3.245828 0
M  V30 3 N 1.697173 -2.102455 4.121280 0
M  V30 4 C 1.772599 -0.740167 3.636592 0
M  V30 5 O 2.426631 0.152020 4.195874 0
M  V30 6 C 0.935581 -0.764450 2.429515 0
M  V30 7 C 0.725061 0.401016 1.574717 0
M  V30 8 C 0.798765 0.381757 0.197689 0
M  V30 9 N 0.537045 1.629725 -0.256099 0
M  V30 10 C 0.516406 2.043439 -1.650002 0
M  V30 11 C 1.943505 2.501529 -1.993924 0
M  V30 12 O 2.789247 1.412712 -1.786603 0
M  V30 13 C 0.291230 2.481663 0.754444 0
M  V30 14 C -0.026068 3.836382 0.814408 0
M  V30 15 C -0.225756 4.412354 2.056500 0
M  V30 16 C -0.113389 3.662388 3.209482 0
M  V30 17 F -0.331652 4.328240 4.380624 0
M  V30 18 C 0.204251 2.313166 3.120289 0
M  V30 19 C 0.410872 1.703241 1.904906 0
M  V30 20 C 0.415062 -1.949801 2.189854 0
M  V30 21 C -0.472768 -2.417785 1.146831 0
M  V30 22 C -1.611861 -1.769413 0.672363 0
M  V30 23 O -2.189182 -2.478407 -0.295195 0
M  V30 24 C -1.508170 -3.570266 -0.505372 0
M  V30 25 C -1.724616 -4.599510 -1.404812 0
M  V30 26 C -0.819338 -5.642734 -1.401177 0
M  V30 27 C 0.260629 -5.656426 -0.532099 0
M  V30 28 C 0.454581 -4.619483 0.354983 0
M  V30 29 C -0.436285 -3.561185 0.375026 0
M  V30 30 H 2.214957 -2.404453 5.004257 0
M  V30 31 H 1.023215 -0.474217 -0.411532 0
M  V30 32 H 0.243739 1.191500 -2.300942 0
M  V30 33 H -0.153116 2.924037 -1.779139 0
M  V30 34 H 2.248573 3.287623 -1.285106 0
M  V30 35 H 1.999627 2.826849 -3.048198 0
M  V30 36 H 3.063313 0.958271 -2.624307 0
M  V30 37 H -0.102798 4.388533 -0.126664 0
M  V30 38 H -0.467540 5.466268 1.996855 0
M  V30 39 H 0.274026 1.763981 4.041640 0
M  V30 40 H -1.963467 -0.819596 1.051768 0
M  V30 41 H -2.551981 -4.592191 -2.072667 0
M  V30 42 H -0.954890 -6.465137 -2.088205 0
M  V30 43 H 0.924004 -6.508533 -0.592543 0
M  V30 44 H 1.308498 -4.655166 1.007924 0
M  V30 END ATOM
M  V30 BEGIN BOND
M  V30 1 2 1 2
M  V30 2 1 2 3
M  V30 3 1 3 4
M  V30 4 2 4 5
M  V30 5 1 4 6
M  V30 6 1 6 7
M  V30 7 2 7 8
M  V30 8 1 8 9
M  V30 9 1 9 10
M  V30 10 1 10 11
M  V30 11 1 11 12
M  V30 12 1 9 13
M  V30 13 2 13 14
M  V30 14 1 14 15
M  V30 15 2 15 16
M  V30 16 1 16 17
M  V30 17 1 16 18
M  V30 18 2 18 19
M  V30 19 2 6 20
M  V30 20 1 20 21
M  V30 21 2 21 22
M  V30 22 1 22 23
M  V30 23 1 23 24
M  V30 24 2 24 25
M  V30 25 1 25 26
M  V30 26 2 26 27
M  V30 27 1 27 28
M  V30 28 2 28 29
M  V30 29 1 20 2
M  V30 30 1 29 21
M  V30 31 1 19 7
M  V30 32 1 29 24
M  V30 33 1 19 13
M  V30 34 1 3 30
M  V30 35 1 8 31
M  V30 36 1 10 32
M  V30 37 1 10 33
M  V30 38 1 11 34
M  V30 39 1 11 35
M  V30 40 1 12 36
M  V30 41 1 14 37
M  V30 42 1 15 38
M  V30 43 1 18 39
M  V30 44 1 22 40
M  V30 45 1 25 41
M  V30 46 1 26 42
M  V30 47 1 27 43
M  V30 48 1 28 44
M  V30 END BOND
M  V30 END CTAB
M  END
>  <Dataset>  (955) 
ChEMBL_Kinases

>  <Ligand_Instance>  (955) 
nan

>  <PDB_ID>  (955) 
nan

>  <Standardized_SMILES>  (955) 
O=C1NC(=O)C(c2cn(CCO)c3ccc(F)cc23)=C1c1coc2ccccc12

>  <Name>  (955) 
nan

>  <Pocket>  (955) 
nan

>  <ATP_Site>  (955) 
nan

>  <Peripheral>  (955) 
nan

>  <Num_H_Atoms_ProtBoundConf>  (955) 
nan

>  <Num_Resolved_Atoms>  (955) 
nan

>  <Num_Not_Resolved_Atoms>  (955) 
nan

$$$$
CHEMBL2386097
     RDKit          3D

  0  0  0  0  0  0  0  0  0  0999 V3000
M  V30 BEGIN CTAB
M  V30 COUNTS 47 51 0 0 0
M  V30 BEGIN ATOM
M  V30 1 O -1.554655 -1.981756 5.523443 0
M  V30 2 C -0.635267 -1.637764 4.728436 0
M  V30 3 N 0.716163 -1.623794 5.234601 0
M  V30 4 C 1.497263 -1.198326 4.099960 0
M  V30 5 O 2.744629 -1.039752 4.069514 0
M  V30 6 C 0.630086 -0.966115 2.955803 0
M  V30 7 C 0.915283 -0.495043 1.604977 0
M  V30 8 C 0.249627 0.501693 0.877735 0
M  V30 9 N 0.808066 0.611939 -0.343305 0
M  V30 10 C 0.388312 1.545044 -1.394483 0
M  V30 11 C 1.166483 2.822722 -1.252332 0
M  V30 12 C 0.969468 3.506387 0.077276 0
M  V30 13 O -0.340172 3.841616 0.303695 0
M  V30 14 C 1.822416 -0.263343 -0.483027 0
M  V30 15 C 2.659698 -0.505995 -1.548737 0
M  V30 16 C 3.598724 -1.497630 -1.350901 0
M  V30 17 C 3.727334 -2.218000 -0.189728 0
M  V30 18 F 4.687556 -3.183162 -0.081060 0
M  V30 19 C 2.853087 -1.927600 0.853229 0
M  V30 20 C 1.885274 -0.943961 0.722640 0
M  V30 21 C -0.618243 -1.221597 3.314681 0
M  V30 22 C -1.937208 -1.233559 2.653935 0
M  V30 23 C -3.167281 -0.684999 3.047509 0
M  V30 24 O -4.007501 -1.000562 2.120328 0
M  V30 25 C -3.480014 -1.689928 1.167091 0
M  V30 26 C -4.090525 -2.187380 0.033425 0
M  V30 27 C -3.362508 -2.912485 -0.885575 0
M  V30 28 C -2.003063 -3.132022 -0.646484 0
M  V30 29 C -1.447650 -2.612061 0.500333 0
M  V30 30 C -2.131507 -1.882295 1.444732 0
M  V30 31 H 1.115245 -1.854140 6.185853 0
M  V30 32 H -0.581266 1.096052 1.227418 0
M  V30 33 H 0.624138 1.114077 -2.367900 0
M  V30 34 H -0.674922 1.798400 -1.329092 0
M  V30 35 H 0.835929 3.529260 -2.041782 0
M  V30 36 H 2.271114 2.609142 -1.308462 0
M  V30 37 H 1.467097 2.975364 0.912515 0
M  V30 38 H 1.537607 4.478085 -0.004280 0
M  V30 39 H -0.616247 3.758462 1.252479 0
M  V30 40 H 2.567198 0.062340 -2.482363 0
M  V30 41 H 4.294979 -1.746548 -2.148602 0
M  V30 42 H 2.953465 -2.488129 1.752125 0
M  V30 43 H -3.141959 -0.151853 3.983705 0
M  V30 44 H -5.130531 -2.066156 -0.230285 0
M  V30 45 H -3.699227 -3.364116 -1.815551 0
M  V30 46 H -1.361660 -3.692130 -1.316230 0
M  V30 47 H -0.414754 -2.792653 0.694335 0
M  V30 END ATOM
M  V30 BEGIN BOND
M  V30 1 2 1 2
M  V30 2 1 2 3
M  V30 3 1 3 4
M  V30 4 2 4 5
M  V30 5 1 4 6
M  V30 6 1 6 7
M  V30 7 2 7 8
M  V30 8 1 8 9
M  V30 9 1 9 10
M  V30 10 1 10 11
M  V30 11 1 11 12
M  V30 12 1 12 13
M  V30 13 1 9 14
M  V30 14 2 14 15
M  V30 15 1 15 16
M  V30 16 2 16 17
M  V30 17 1 17 18
M  V30 18 1 17 19
M  V30 19 2 19 20
M  V30 20 2 6 21
M  V30 21 1 21 22
M  V30 22 2 22 23
M  V30 23 1 23 24
M  V30 24 1 24 25
M  V30 25 2 25 26
M  V30 26 1 26 27
M  V30 27 2 27 28
M  V30 28 1 28 29
M  V30 29 2 29 30
M  V30 30 1 21 2
M  V30 31 1 30 22
M  V30 32 1 20 7
M  V30 33 1 30 25
M  V30 34 1 20 14
M  V30 35 1 3 31
M  V30 36 1 8 32
M  V30 37 1 10 33
M  V30 38 1 10 34
M  V30 39 1 11 35
M  V30 40 1 11 36
M  V30 41 1 12 37
M  V30 42 1 12 38
M  V30 43 1 13 39
M  V30 44 1 15 40
M  V30 45 1 16 41
M  V30 46 1 19 42
M  V30 47 1 23 43
M  V30 48 1 26 44
M  V30 49 1 27 45
M  V30 50 1 28 46
M  V30 51 1 29 47
M  V30 END BOND
M  V30 END CTAB
M  END
>  <Dataset>  (956) 
ChEMBL_Kinases

>  <Ligand_Instance>  (956) 
nan

>  <PDB_ID>  (956) 
nan

>  <Standardized_SMILES>  (956) 
O=C1NC(=O)C(c2cn(CCCO)c3ccc(F)cc23)=C1c1coc2ccccc12

>  <Name>  (956) 
nan

>  <Pocket>  (956) 
nan

>  <ATP_Site>  (956) 
nan

>  <Peripheral>  (956) 
nan

>  <Num_H_Atoms_ProtBoundConf>  (956) 
nan

>  <Num_Resolved_Atoms>  (956) 
nan

>  <Num_Not_Resolved_Atoms>  (956) 
nan

$$$$
CHEMBL2386098
     RDKit          3D

  0  0  0  0  0  0  0  0  0  0999 V3000
M  V30 BEGIN CTAB
M  V30 COUNTS 45 49 0 0 0
M  V30 BEGIN ATOM
M  V30 1 N -3.202596 -1.724663 3.775920 0
M  V30 2 C -2.511958 -0.469860 3.986476 0
M  V30 3 C -1.004543 -0.656033 3.836850 0
M  V30 4 N -0.711742 -1.137170 2.502849 0
M  V30 5 C -0.461397 -0.372275 1.431528 0
M  V30 6 C -0.212060 -1.081333 0.280181 0
M  V30 7 C 0.142520 -0.798380 -1.099222 0
M  V30 8 C 1.059004 -0.066343 -1.716860 0
M  V30 9 C 2.135946 0.797120 -1.254525 0
M  V30 10 C 3.464146 0.541011 -1.631368 0
M  V30 11 O 4.292604 1.429965 -1.137747 0
M  V30 12 C 3.616230 2.302820 -0.431737 0
M  V30 13 C 3.911068 3.433983 0.306687 0
M  V30 14 C 2.892455 4.140020 0.942479 0
M  V30 15 C 1.555858 3.740827 0.860805 0
M  V30 16 C 1.260866 2.613196 0.125965 0
M  V30 17 C 2.289532 1.934269 -0.490139 0
M  V30 18 C 0.872808 -0.183952 -3.180166 0
M  V30 19 O 1.543589 0.359898 -4.121755 0
M  V30 20 N -0.230136 -1.043006 -3.448591 0
M  V30 21 C -0.678696 -1.419593 -2.168390 0
M  V30 22 O -1.686746 -2.207424 -2.111030 0
M  V30 23 C -0.332439 -2.401536 0.742675 0
M  V30 24 C -0.220074 -3.662088 0.211997 0
M  V30 25 C -0.388101 -4.826343 0.924618 0
M  V30 26 Br -0.220409 -6.540785 0.133296 0
M  V30 27 C -0.690425 -4.766217 2.266443 0
M  V30 28 C -0.814381 -3.543689 2.851897 0
M  V30 29 C -0.635027 -2.410334 2.088930 0
M  V30 30 H -3.122688 -2.343614 4.621007 0
M  V30 31 H -4.227908 -1.517856 3.662605 0
M  V30 32 H -2.891810 0.296378 3.275675 0
M  V30 33 H -2.762744 -0.128954 5.011319 0
M  V30 34 H -0.730233 -1.455704 4.571681 0
M  V30 35 H -0.472677 0.285185 4.055887 0
M  V30 36 H -0.460305 0.683648 1.474549 0
M  V30 37 H 3.827767 -0.285968 -2.260370 0
M  V30 38 H 4.948017 3.758212 0.379829 0
M  V30 39 H 3.111018 5.028699 1.525012 0
M  V30 40 H 0.767934 4.294765 1.357153 0
M  V30 41 H 0.238622 2.318432 0.045663 0
M  V30 42 H -0.578700 -1.297356 -4.402368 0
M  V30 43 H 0.022621 -3.814769 -0.816326 0
M  V30 44 H -0.824832 -5.667837 2.835416 0
M  V30 45 H -1.051147 -3.508350 3.905347 0
M  V30 END ATOM
M  V30 BEGIN BOND
M  V30 1 1 1 2
M  V30 2 1 2 3
M  V30 3 1 3 4
M  V30 4 1 4 5
M  V30 5 2 5 6
M  V30 6 1 6 7
M  V30 7 2 7 8
M  V30 8 1 8 9
M  V30 9 2 9 10
M  V30 10 1 10 11
M  V30 11 1 11 12
M  V30 12 2 12 13
M  V30 13 1 13 14
M  V30 14 2 14 15
M  V30 15 1 15 16
M  V30 16 2 16 17
M  V30 17 1 8 18
M  V30 18 2 18 19
M  V30 19 1 18 20
M  V30 20 1 20 21
M  V30 21 2 21 22
M  V30 22 1 6 23
M  V30 23 2 23 24
M  V30 24 1 24 25
M  V30 25 1 25 26
M  V30 26 2 25 27
M  V30 27 1 27 28
M  V30 28 2 28 29
M  V30 29 1 29 4
M  V30 30 1 21 7
M  V30 31 1 29 23
M  V30 32 1 17 9
M  V30 33 1 17 12
M  V30 34 1 1 30
M  V30 35 1 1 31
M  V30 36 1 2 32
M  V30 37 1 2 33
M  V30 38 1 3 34
M  V30 39 1 3 35
M  V30 40 1 5 36
M  V30 41 1 10 37
M  V30 42 1 13 38
M  V30 43 1 14 39
M  V30 44 1 15 40
M  V30 45 1 16 41
M  V30 46 1 20 42
M  V30 47 1 24 43
M  V30 48 1 27 44
M  V30 49 1 28 45
M  V30 END BOND
M  V30 END CTAB
M  END
>  <Dataset>  (957) 
ChEMBL_Kinases

>  <Ligand_Instance>  (957) 
nan

>  <PDB_ID>  (957) 
nan

>  <Standardized_SMILES>  (957) 
NCCn1cc(C2=C(c3coc4ccccc34)C(=O)NC2=O)c2cc(Br)ccc21

>  <Name>  (957) 
nan

>  <Pocket>  (957) 
nan

>  <ATP_Site>  (957) 
nan

>  <Peripheral>  (957) 
nan

>  <Num_H_Atoms_ProtBoundConf>  (957) 
nan

>  <Num_Resolved_Atoms>  (957) 
nan

>  <Num_Not_Resolved_Atoms>  (957) 
nan

$$$$
CHEMBL2386099
     RDKit          3D

  0  0  0  0  0  0  0  0  0  0999 V3000
M  V30 BEGIN CTAB
M  V30 COUNTS 45 49 0 0 0
M  V30 BEGIN ATOM
M  V30 1 N -3.233165 -1.798498 3.680399 0
M  V30 2 C -2.568967 -0.531944 3.917573 0
M  V30 3 C -1.048630 -0.696323 3.812304 0
M  V30 4 N -0.726208 -1.168405 2.480659 0
M  V30 5 C -0.465676 -0.398064 1.415107 0
M  V30 6 C -0.188845 -1.101433 0.266578 0
M  V30 7 C 0.185527 -0.806840 -1.106008 0
M  V30 8 C 1.104198 -0.057363 -1.697988 0
M  V30 9 C 2.158205 0.816675 -1.214521 0
M  V30 10 C 3.498262 0.585937 -1.559054 0
M  V30 11 O 4.303336 1.485995 -1.047760 0
M  V30 12 C 3.596121 2.346767 -0.356721 0
M  V30 13 C 3.817683 3.486613 0.397222 0
M  V30 14 C 2.810250 4.194555 1.018733 0
M  V30 15 C 1.487485 3.755387 0.893250 0
M  V30 16 C 1.230211 2.623960 0.150879 0
M  V30 17 C 2.277016 1.955285 -0.446274 0
M  V30 18 C 0.948322 -0.167428 -3.164712 0
M  V30 19 O 1.625847 0.389049 -4.095238 0
M  V30 20 N -0.134796 -1.037992 -3.465357 0
M  V30 21 C -0.610816 -1.436036 -2.186900 0
M  V30 22 O -1.604263 -2.234696 -2.161551 0
M  V30 23 C -0.302124 -2.425053 0.721542 0
M  V30 24 C -0.167738 -3.682258 0.193703 0
M  V30 25 C -0.332981 -4.846523 0.891395 0
M  V30 26 F -0.191052 -6.068696 0.330612 0
M  V30 27 C -0.658618 -4.804455 2.226689 0
M  V30 28 C -0.807964 -3.576010 2.820447 0
M  V30 29 C -0.628419 -2.442193 2.065208 0
M  V30 30 H -3.153068 -2.450718 4.491108 0
M  V30 31 H -4.257874 -1.599734 3.565226 0
M  V30 32 H -2.940809 0.208402 3.186978 0
M  V30 33 H -2.852799 -0.224700 4.939530 0
M  V30 34 H -0.784535 -1.499637 4.547988 0
M  V30 35 H -0.546878 0.251382 4.012902 0
M  V30 36 H -0.477365 0.658529 1.463263 0
M  V30 37 H 3.974377 -0.198623 -2.167373 0
M  V30 38 H 4.843153 3.820473 0.489611 0
M  V30 39 H 2.999812 5.078519 1.601267 0
M  V30 40 H 0.673617 4.287920 1.366979 0
M  V30 41 H 0.206766 2.309383 0.045645 0
M  V30 42 H -0.467296 -1.295686 -4.426541 0
M  V30 43 H 0.094947 -3.826083 -0.833643 0
M  V30 44 H -0.794655 -5.699521 2.798317 0
M  V30 45 H -1.060759 -3.552923 3.858670 0
M  V30 END ATOM
M  V30 BEGIN BOND
M  V30 1 1 1 2
M  V30 2 1 2 3
M  V30 3 1 3 4
M  V30 4 1 4 5
M  V30 5 2 5 6
M  V30 6 1 6 7
M  V30 7 2 7 8
M  V30 8 1 8 9
M  V30 9 2 9 10
M  V30 10 1 10 11
M  V30 11 1 11 12
M  V30 12 2 12 13
M  V30 13 1 13 14
M  V30 14 2 14 15
M  V30 15 1 15 16
M  V30 16 2 16 17
M  V30 17 1 8 18
M  V30 18 2 18 19
M  V30 19 1 18 20
M  V30 20 1 20 21
M  V30 21 2 21 22
M  V30 22 1 6 23
M  V30 23 2 23 24
M  V30 24 1 24 25
M  V30 25 1 25 26
M  V30 26 2 25 27
M  V30 27 1 27 28
M  V30 28 2 28 29
M  V30 29 1 29 4
M  V30 30 1 21 7
M  V30 31 1 29 23
M  V30 32 1 17 9
M  V30 33 1 17 12
M  V30 34 1 1 30
M  V30 35 1 1 31
M  V30 36 1 2 32
M  V30 37 1 2 33
M  V30 38 1 3 34
M  V30 39 1 3 35
M  V30 40 1 5 36
M  V30 41 1 10 37
M  V30 42 1 13 38
M  V30 43 1 14 39
M  V30 44 1 15 40
M  V30 45 1 16 41
M  V30 46 1 20 42
M  V30 47 1 24 43
M  V30 48 1 27 44
M  V30 49 1 28 45
M  V30 END BOND
M  V30 END CTAB
M  END
>  <Dataset>  (958) 
ChEMBL_Kinases

>  <Ligand_Instance>  (958) 
nan

>  <PDB_ID>  (958) 
nan

>  <Standardized_SMILES>  (958) 
NCCn1cc(C2=C(c3coc4ccccc34)C(=O)NC2=O)c2cc(F)ccc21

>  <Name>  (958) 
nan

>  <Pocket>  (958) 
nan

>  <ATP_Site>  (958) 
nan

>  <Peripheral>  (958) 
nan

>  <Num_H_Atoms_ProtBoundConf>  (958) 
nan

>  <Num_Resolved_Atoms>  (958) 
nan

>  <Num_Not_Resolved_Atoms>  (958) 
nan

$$$$
CHEMBL2386100
     RDKit          3D

  0  0  0  0  0  0  0  0  0  0999 V3000
M  V30 BEGIN CTAB
M  V30 COUNTS 51 55 0 0 0
M  V30 BEGIN ATOM
M  V30 1 C 2.676846 0.708065 6.130199 0
M  V30 2 N 2.330666 0.465870 4.733494 0
M  V30 3 C 2.480831 -0.934701 4.493840 0
M  V30 4 C 2.166309 -1.336367 3.071739 0
M  V30 5 C 0.771819 -1.032487 2.651523 0
M  V30 6 N 0.526341 -1.442692 1.275632 0
M  V30 7 C 0.674053 -0.714603 0.131010 0
M  V30 8 C 0.320469 -1.490643 -0.976385 0
M  V30 9 C 0.374065 -0.973610 -2.340338 0
M  V30 10 C -0.058378 0.262718 -2.676929 0
M  V30 11 C -0.654087 1.340911 -1.855981 0
M  V30 12 C -0.187169 2.651032 -1.933263 0
M  V30 13 O -0.864719 3.440727 -1.128770 0
M  V30 14 C -1.781439 2.720200 -0.501546 0
M  V30 15 C -2.766961 3.007748 0.445505 0
M  V30 16 C -3.593733 2.001047 0.915391 0
M  V30 17 C -3.439844 0.701498 0.441489 0
M  V30 18 C -2.465503 0.390251 -0.500126 0
M  V30 19 C -1.673275 1.417665 -0.933667 0
M  V30 20 C 0.144293 0.449751 -4.091519 0
M  V30 21 O -0.138798 1.486460 -4.787214 0
M  V30 22 N 0.728235 -0.706689 -4.681928 0
M  V30 23 C 0.870378 -1.596196 -3.579874 0
M  V30 24 O 1.347096 -2.737934 -3.658216 0
M  V30 25 C -0.054559 -2.726582 -0.503667 0
M  V30 26 C -0.490882 -3.869350 -1.108280 0
M  V30 27 C -0.811089 -4.995423 -0.398088 0
M  V30 28 Br -1.413833 -6.549665 -1.335623 0
M  V30 29 C -0.672858 -4.924827 0.967489 0
M  V30 30 C -0.233712 -3.784179 1.615152 0
M  V30 31 C 0.087597 -2.645630 0.864623 0
M  V30 32 H 1.835866 0.393537 6.805504 0
M  V30 33 H 3.547019 0.097860 6.465144 0
M  V30 34 H 2.932688 1.761930 6.338136 0
M  V30 35 H 1.339942 0.770045 4.621578 0
M  V30 36 H 1.819075 -1.463313 5.216622 0
M  V30 37 H 3.511800 -1.247231 4.752186 0
M  V30 38 H 2.425179 -2.399016 2.907381 0
M  V30 39 H 2.860343 -0.742610 2.421332 0
M  V30 40 H -0.000165 -1.555699 3.248257 0
M  V30 41 H 0.533524 0.048762 2.773248 0
M  V30 42 H 1.027486 0.330205 0.166542 0
M  V30 43 H 0.590693 3.079514 -2.513208 0
M  V30 44 H -2.864903 4.024646 0.796929 0
M  V30 45 H -4.355946 2.214614 1.643638 0
M  V30 46 H -4.092405 -0.080097 0.815242 0
M  V30 47 H -2.371279 -0.606814 -0.848822 0
M  V30 48 H 0.974891 -0.831377 -5.674723 0
M  V30 49 H -0.592340 -3.888378 -2.175005 0
M  V30 50 H -0.930163 -5.833009 1.526440 0
M  V30 51 H -0.141764 -3.782642 2.692566 0
M  V30 END ATOM
M  V30 BEGIN BOND
M  V30 1 1 1 2
M  V30 2 1 2 3
M  V30 3 1 3 4
M  V30 4 1 4 5
M  V30 5 1 5 6
M  V30 6 1 6 7
M  V30 7 2 7 8
M  V30 8 1 8 9
M  V30 9 2 9 10
M  V30 10 1 10 11
M  V30 11 2 11 12
M  V30 12 1 12 13
M  V30 13 1 13 14
M  V30 14 2 14 15
M  V30 15 1 15 16
M  V30 16 2 16 17
M  V30 17 1 17 18
M  V30 18 2 18 19
M  V30 19 1 10 20
M  V30 20 2 20 21
M  V30 21 1 20 22
M  V30 22 1 22 23
M  V30 23 2 23 24
M  V30 24 1 8 25
M  V30 25 2 25 26
M  V30 26 1 26 27
M  V30 27 1 27 28
M  V30 28 2 27 29
M  V30 29 1 29 30
M  V30 30 2 30 31
M  V30 31 1 31 6
M  V30 32 1 23 9
M  V30 33 1 31 25
M  V30 34 1 19 11
M  V30 35 1 19 14
M  V30 36 1 1 32
M  V30 37 1 1 33
M  V30 38 1 1 34
M  V30 39 1 2 35
M  V30 40 1 3 36
M  V30 41 1 3 37
M  V30 42 1 4 38
M  V30 43 1 4 39
M  V30 44 1 5 40
M  V30 45 1 5 41
M  V30 46 1 7 42
M  V30 47 1 12 43
M  V30 48 1 15 44
M  V30 49 1 16 45
M  V30 50 1 17 46
M  V30 51 1 18 47
M  V30 52 1 22 48
M  V30 53 1 26 49
M  V30 54 1 29 50
M  V30 55 1 30 51
M  V30 END BOND
M  V30 END CTAB
M  END
>  <Dataset>  (959) 
ChEMBL_Kinases

>  <Ligand_Instance>  (959) 
nan

>  <PDB_ID>  (959) 
nan

>  <Standardized_SMILES>  (959) 
CNCCCn1cc(C2=C(c3coc4ccccc34)C(=O)NC2=O)c2cc(Br)ccc21

>  <Name>  (959) 
nan

>  <Pocket>  (959) 
nan

>  <ATP_Site>  (959) 
nan

>  <Peripheral>  (959) 
nan

>  <Num_H_Atoms_ProtBoundConf>  (959) 
nan

>  <Num_Resolved_Atoms>  (959) 
nan

>  <Num_Not_Resolved_Atoms>  (959) 
nan

$$$$
CHEMBL2386092
     RDKit          3D

  0  0  0  0  0  0  0  0  0  0999 V3000
M  V30 BEGIN CTAB
M  V30 COUNTS 63 69 0 0 0
M  V30 BEGIN ATOM
M  V30 1 O 2.858021 -0.139758 5.792590 0
M  V30 2 C 3.085105 -0.417683 4.589127 0
M  V30 3 N 4.317858 -0.879703 4.050719 0
M  V30 4 C 4.080526 -1.048872 2.677592 0
M  V30 5 O 4.978580 -1.456850 1.871841 0
M  V30 6 C 2.683788 -0.684698 2.372870 0
M  V30 7 C 2.208809 -0.747572 0.988008 0
M  V30 8 C 2.343770 -1.852334 0.156040 0
M  V30 9 N 1.789833 -1.503890 -1.046298 0
M  V30 10 C 1.339236 -0.220689 -0.927403 0
M  V30 11 C 0.701582 0.582028 -1.892912 0
M  V30 12 C 0.310581 1.876753 -1.612441 0
M  V30 13 C 0.560730 2.385979 -0.337925 0
M  V30 14 F 0.164154 3.653218 -0.103279 0
M  V30 15 C 1.186866 1.572435 0.582837 0
M  V30 16 C 1.582986 0.288009 0.330835 0
M  V30 17 C 0.377679 0.141614 -3.305664 0
M  V30 18 N 0.035061 -1.284562 -3.146026 0
M  V30 19 C -1.348213 -1.424135 -2.860782 0
M  V30 20 O -1.886291 -0.287849 -2.826109 0
M  V30 21 N -2.409609 -2.291111 -2.593104 0
M  V30 22 C -3.684649 -1.636619 -2.372212 0
M  V30 23 C -3.877915 -1.641487 -0.849566 0
M  V30 24 C -3.203700 -2.849572 -0.282545 0
M  V30 25 C -3.206045 -4.049221 -1.213516 0
M  V30 26 C -2.468248 -3.755108 -2.494686 0
M  V30 27 C 1.039524 -2.319138 -3.267308 0
M  V30 28 C 1.836465 -2.557210 -2.036772 0
M  V30 29 C 2.108356 -0.311401 3.532820 0
M  V30 30 C 0.702548 0.069943 3.512156 0
M  V30 31 C -0.250672 -0.620898 2.749730 0
M  V30 32 O -1.457154 -0.113391 2.865269 0
M  V30 33 C -1.378747 0.911227 3.684526 0
M  V30 34 C -2.320344 1.816082 4.171133 0
M  V30 35 C -1.916897 2.805133 5.037659 0
M  V30 36 C -0.596052 2.917742 5.433271 0
M  V30 37 C 0.385187 2.041582 4.978035 0
M  V30 38 C -0.060093 1.056409 4.105759 0
M  V30 39 H 5.174932 -1.037080 4.616807 0
M  V30 40 H 2.814299 -2.770418 0.491877 0
M  V30 41 H -0.185090 2.472222 -2.394082 0
M  V30 42 H 1.378652 1.986152 1.551521 0
M  V30 43 H -0.503890 0.696103 -3.682451 0
M  V30 44 H 1.221432 0.283444 -3.982134 0
M  V30 45 H -3.757232 -0.624136 -2.774562 0
M  V30 46 H -4.501768 -2.259992 -2.835735 0
M  V30 47 H -4.955964 -1.593184 -0.570079 0
M  V30 48 H -3.350762 -0.722283 -0.488269 0
M  V30 49 H -3.685340 -3.149144 0.666038 0
M  V30 50 H -2.137573 -2.648782 -0.065752 0
M  V30 51 H -4.271886 -4.314848 -1.388216 0
M  V30 52 H -2.695778 -4.869513 -0.680003 0
M  V30 53 H -3.141977 -4.073334 -3.338016 0
M  V30 54 H -1.491209 -4.237420 -2.593326 0
M  V30 55 H 1.644455 -2.089426 -4.171664 0
M  V30 56 H 0.549654 -3.307965 -3.533770 0
M  V30 57 H 2.913965 -2.707498 -2.360315 0
M  V30 58 H 1.594460 -3.556905 -1.557574 0
M  V30 59 H -0.065007 -1.473969 2.126113 0
M  V30 60 H -3.354766 1.717026 3.852676 0
M  V30 61 H -2.599874 3.523828 5.439200 0
M  V30 62 H -0.275517 3.692117 6.112092 0
M  V30 63 H 1.413702 2.108031 5.265647 0
M  V30 END ATOM
M  V30 BEGIN BOND
M  V30 1 2 1 2
M  V30 2 1 2 3
M  V30 3 1 3 4
M  V30 4 2 4 5
M  V30 5 1 4 6
M  V30 6 1 6 7
M  V30 7 2 7 8
M  V30 8 1 8 9
M  V30 9 1 9 10
M  V30 10 2 10 11
M  V30 11 1 11 12
M  V30 12 2 12 13
M  V30 13 1 13 14
M  V30 14 1 13 15
M  V30 15 2 15 16
M  V30 16 1 11 17
M  V30 17 1 17 18
M  V30 18 1 18 19
M  V30 19 2 19 20
M  V30 20 1 19 21
M  V30 21 1 21 22
M  V30 22 1 22 23
M  V30 23 1 23 24
M  V30 24 1 24 25
M  V30 25 1 25 26
M  V30 26 1 18 27
M  V30 27 1 27 28
M  V30 28 2 6 29
M  V30 29 1 29 30
M  V30 30 2 30 31
M  V30 31 1 31 32
M  V30 32 1 32 33
M  V30 33 2 33 34
M  V30 34 1 34 35
M  V30 35 2 35 36
M  V30 36 1 36 37
M  V30 37 2 37 38
M  V30 38 1 29 2
M  V30 39 1 38 30
M  V30 40 1 16 7
M  V30 41 1 26 21
M  V30 42 1 38 33
M  V30 43 1 28 9
M  V30 44 1 16 10
M  V30 45 1 3 39
M  V30 46 1 8 40
M  V30 47 1 12 41
M  V30 48 1 15 42
M  V30 49 1 17 43
M  V30 50 1 17 44
M  V30 51 1 22 45
M  V30 52 1 22 46
M  V30 53 1 23 47
M  V30 54 1 23 48
M  V30 55 1 24 49
M  V30 56 1 24 50
M  V30 57 1 25 51
M  V30 58 1 25 52
M  V30 59 1 26 53
M  V30 60 1 26 54
M  V30 61 1 27 55
M  V30 62 1 27 56
M  V30 63 1 28 57
M  V30 64 1 28 58
M  V30 65 1 31 59
M  V30 66 1 34 60
M  V30 67 1 35 61
M  V30 68 1 36 62
M  V30 69 1 37 63
M  V30 END BOND
M  V30 END CTAB
M  END
>  <Dataset>  (960) 
ChEMBL_Kinases

>  <Ligand_Instance>  (960) 
nan

>  <PDB_ID>  (960) 
nan

>  <Standardized_SMILES>  (960) 
O=C1NC(=O)C(c2cn3c4c(cc(F)cc24)CN(C(=O)N2CCCCC2)CC3)=C1c1coc2ccccc12

>  <Name>  (960) 
nan

>  <Pocket>  (960) 
nan

>  <ATP_Site>  (960) 
nan

>  <Peripheral>  (960) 
nan

>  <Num_H_Atoms_ProtBoundConf>  (960) 
nan

>  <Num_Resolved_Atoms>  (960) 
nan

>  <Num_Not_Resolved_Atoms>  (960) 
nan

$$$$
CHEMBL2392224
     RDKit          3D

  0  0  0  0  0  0  0  0  0  0999 V3000
M  V30 BEGIN CTAB
M  V30 COUNTS 38 41 0 0 0
M  V30 BEGIN ATOM
M  V30 1 F 0.107331 -2.395713 3.857979 0
M  V30 2 C 1.393599 -2.190821 3.493879 0
M  V30 3 C 2.402687 -3.134174 3.644479 0
M  V30 4 C 3.684174 -2.833934 3.243777 0
M  V30 5 F 4.582818 -3.826821 3.438598 0
M  V30 6 C 3.983450 -1.586639 2.685053 0
M  V30 7 C 2.961357 -0.641923 2.536772 0
M  V30 8 C 3.458372 0.616477 1.934623 0
M  V30 9 N 3.428799 0.628708 0.492062 0
M  V30 10 C 2.308017 0.520939 -0.370698 0
M  V30 11 C 2.492712 0.532676 -1.757322 0
M  V30 12 C 1.436465 0.434932 -2.629857 0
M  V30 13 N 0.203852 0.326384 -2.102523 0
M  V30 14 C -0.012265 0.311753 -0.775238 0
M  V30 15 C -1.400447 0.189797 -0.341178 0
M  V30 16 C -1.838416 0.165346 0.964616 0
M  V30 17 C -3.163587 0.050148 1.323136 0
M  V30 18 C -4.134543 -0.048483 0.352671 0
M  V30 19 C -3.732375 -0.027357 -0.966457 0
M  V30 20 C -2.390027 0.089788 -1.295663 0
M  V30 21 O -4.902998 -0.141658 -1.740276 0
M  V30 22 C -5.941175 -0.680283 -0.918821 0
M  V30 23 O -5.528732 -0.174113 0.347423 0
M  V30 24 N 1.043435 0.409119 0.049793 0
M  V30 25 C 1.686355 -0.966307 2.945705 0
M  V30 26 H 2.073223 -4.068644 4.086190 0
M  V30 27 H 5.030459 -1.530038 2.432394 0
M  V30 28 H 2.772757 1.417133 2.353281 0
M  V30 29 H 4.449553 0.886739 2.319648 0
M  V30 30 H 4.376955 0.732073 0.020230 0
M  V30 31 H 3.495747 0.621148 -2.194267 0
M  V30 32 H 1.607916 0.446647 -3.692646 0
M  V30 33 H -1.091049 0.242673 1.740224 0
M  V30 34 H -3.452260 0.036002 2.367608 0
M  V30 35 H -2.192114 0.095503 -2.360414 0
M  V30 36 H -5.789744 -1.793720 -0.971446 0
M  V30 37 H -6.944142 -0.369369 -1.213255 0
M  V30 38 H 1.008561 -0.165122 2.782100 0
M  V30 END ATOM
M  V30 BEGIN BOND
M  V30 1 1 1 2
M  V30 2 2 2 3
M  V30 3 1 3 4
M  V30 4 1 4 5
M  V30 5 2 4 6
M  V30 6 1 6 7
M  V30 7 1 7 8
M  V30 8 1 8 9
M  V30 9 1 9 10
M  V30 10 2 10 11
M  V30 11 1 11 12
M  V30 12 2 12 13
M  V30 13 1 13 14
M  V30 14 1 14 15
M  V30 15 2 15 16
M  V30 16 1 16 17
M  V30 17 2 17 18
M  V30 18 1 18 19
M  V30 19 2 19 20
M  V30 20 1 19 21
M  V30 21 1 21 22
M  V30 22 1 22 23
M  V30 23 2 14 24
M  V30 24 2 7 25
M  V30 25 1 25 2
M  V30 26 1 24 10
M  V30 27 1 20 15
M  V30 28 1 23 18
M  V30 29 1 3 26
M  V30 30 1 6 27
M  V30 31 1 8 28
M  V30 32 1 8 29
M  V30 33 1 9 30
M  V30 34 1 11 31
M  V30 35 1 12 32
M  V30 36 1 16 33
M  V30 37 1 17 34
M  V30 38 1 20 35
M  V30 39 1 22 36
M  V30 40 1 22 37
M  V30 41 1 25 38
M  V30 END BOND
M  V30 END CTAB
M  END
>  <Dataset>  (961) 
ChEMBL_Kinases

>  <Ligand_Instance>  (961) 
nan

>  <PDB_ID>  (961) 
nan

>  <Standardized_SMILES>  (961) 
Fc1cc(F)cc(CNc2ccnc(-c3ccc4c(c3)OCO4)n2)c1

>  <Name>  (961) 
nan

>  <Pocket>  (961) 
nan

>  <ATP_Site>  (961) 
nan

>  <Peripheral>  (961) 
nan

>  <Num_H_Atoms_ProtBoundConf>  (961) 
nan

>  <Num_Resolved_Atoms>  (961) 
nan

>  <Num_Not_Resolved_Atoms>  (961) 
nan

$$$$
CHEMBL2392108
     RDKit          3D

  0  0  0  0  0  0  0  0  0  0999 V3000
M  V30 BEGIN CTAB
M  V30 COUNTS 52 55 0 0 0
M  V30 BEGIN ATOM
M  V30 1 C 1.169352 -3.638918 3.212485 0
M  V30 2 C 2.061141 -2.457872 3.402458 0
M  V30 3 N 3.290717 -2.511288 2.630147 0
M  V30 4 C 4.101038 -1.349723 2.990036 0
M  V30 5 C 4.543748 -1.556031 4.445548 0
M  V30 6 C 3.049243 -2.521628 1.193413 0
M  V30 7 C 2.380575 -1.287947 0.709640 0
M  V30 8 C 3.236838 -0.243534 0.337338 0
M  V30 9 C 2.760309 0.971327 -0.132499 0
M  V30 10 C 1.408806 1.207310 -0.254669 0
M  V30 11 N 0.581158 2.212234 -0.654100 0
M  V30 12 C -0.713798 1.863843 -0.556784 0
M  V30 13 C -1.836560 2.708511 -0.914801 0
M  V30 14 N -1.914510 3.956643 -1.367228 0
M  V30 15 N -3.177664 4.318486 -1.543331 0
M  V30 16 C -3.973832 3.265095 -1.193402 0
M  V30 17 C -3.125583 2.240476 -0.793595 0
M  V30 18 N -3.777084 1.042656 -0.396303 0
M  V30 19 C -3.744315 -0.298104 -0.860419 0
M  V30 20 C -4.658768 -0.465349 -1.904860 0
M  V30 21 C -4.830022 -1.676176 -2.542271 0
M  V30 22 Cl -5.945158 -1.978773 -3.852405 0
M  V30 23 N -4.095951 -2.733834 -2.149920 0
M  V30 24 C -3.213592 -2.588749 -1.147662 0
M  V30 25 C -2.311784 -3.625389 -0.573060 0
M  V30 26 N -3.065842 -1.414051 -0.548730 0
M  V30 27 N -0.683845 0.613009 -0.084342 0
M  V30 28 C 0.571367 0.174028 0.113960 0
M  V30 29 C 1.031782 -1.038819 0.581746 0
M  V30 30 H 0.945696 -4.086204 4.215433 0
M  V30 31 H 0.243467 -3.322695 2.696326 0
M  V30 32 H 1.635689 -4.391127 2.540077 0
M  V30 33 H 1.485301 -1.531586 3.190386 0
M  V30 34 H 2.349935 -2.381147 4.463265 0
M  V30 35 H 3.548478 -0.411797 2.959999 0
M  V30 36 H 5.009672 -1.314328 2.383417 0
M  V30 37 H 4.726064 -2.617328 4.623872 0
M  V30 38 H 5.517834 -1.029912 4.644526 0
M  V30 39 H 3.793419 -1.088963 5.113492 0
M  V30 40 H 4.012431 -2.665113 0.698883 0
M  V30 41 H 2.422045 -3.388994 0.967257 0
M  V30 42 H 4.302929 -0.265216 0.369244 0
M  V30 43 H 3.404820 1.795910 -0.427147 0
M  V30 44 H 0.948592 3.133117 -0.991595 0
M  V30 45 H -3.430157 5.274203 -1.896050 0
M  V30 46 H -5.059834 3.394625 -1.281030 0
M  V30 47 H -4.460250 1.043688 0.417359 0
M  V30 48 H -5.321038 0.292237 -2.331034 0
M  V30 49 H -2.735787 -4.613908 -0.834892 0
M  V30 50 H -2.189071 -3.506687 0.511141 0
M  V30 51 H -1.295300 -3.569374 -1.059878 0
M  V30 52 H 0.391641 -1.833378 0.864246 0
M  V30 END ATOM
M  V30 BEGIN BOND
M  V30 1 1 1 2
M  V30 2 1 2 3
M  V30 3 1 3 4
M  V30 4 1 4 5
M  V30 5 1 3 6
M  V30 6 1 6 7
M  V30 7 2 7 8
M  V30 8 1 8 9
M  V30 9 2 9 10
M  V30 10 1 10 11
M  V30 11 1 11 12
M  V30 12 1 12 13
M  V30 13 2 13 14
M  V30 14 1 14 15
M  V30 15 1 15 16
M  V30 16 2 16 17
M  V30 17 1 17 18
M  V30 18 1 18 19
M  V30 19 2 19 20
M  V30 20 1 20 21
M  V30 21 1 21 22
M  V30 22 2 21 23
M  V30 23 1 23 24
M  V30 24 1 24 25
M  V30 25 2 24 26
M  V30 26 2 12 27
M  V30 27 1 27 28
M  V30 28 2 28 29
M  V30 29 1 29 7
M  V30 30 1 28 10
M  V30 31 1 17 13
M  V30 32 1 26 19
M  V30 33 1 1 30
M  V30 34 1 1 31
M  V30 35 1 1 32
M  V30 36 1 2 33
M  V30 37 1 2 34
M  V30 38 1 4 35
M  V30 39 1 4 36
M  V30 40 1 5 37
M  V30 41 1 5 38
M  V30 42 1 5 39
M  V30 43 1 6 40
M  V30 44 1 6 41
M  V30 45 1 8 42
M  V30 46 1 9 43
M  V30 47 1 11 44
M  V30 48 1 15 45
M  V30 49 1 16 46
M  V30 50 1 18 47
M  V30 51 1 20 48
M  V30 52 1 25 49
M  V30 53 1 25 50
M  V30 54 1 25 51
M  V30 55 1 29 52
M  V30 END BOND
M  V30 END CTAB
M  END
>  <Dataset>  (962) 
ChEMBL_Kinases

>  <Ligand_Instance>  (962) 
nan

>  <PDB_ID>  (962) 
nan

>  <Standardized_SMILES>  (962) 
CCN(CC)Cc1ccc2[nH]c(-c3n[nH]cc3Nc3cc(Cl)nc(C)n3)nc2c1

>  <Name>  (962) 
nan

>  <Pocket>  (962) 
nan

>  <ATP_Site>  (962) 
nan

>  <Peripheral>  (962) 
nan

>  <Num_H_Atoms_ProtBoundConf>  (962) 
nan

>  <Num_Resolved_Atoms>  (962) 
nan

>  <Num_Not_Resolved_Atoms>  (962) 
nan

$$$$
CHEMBL2392107
     RDKit          3D

  0  0  0  0  0  0  0  0  0  0999 V3000
M  V30 BEGIN CTAB
M  V30 COUNTS 57 62 0 0 0
M  V30 BEGIN ATOM
M  V30 1 C 1.276600 -1.516333 5.619874 0
M  V30 2 C 1.640932 -0.918349 4.301102 0
M  V30 3 C 2.693638 -1.404764 3.569173 0
M  V30 4 C 3.062510 -0.890280 2.330050 0
M  V30 5 C 2.380107 0.145270 1.771648 0
M  V30 6 N 2.401527 0.903487 0.633534 0
M  V30 7 C 1.430017 1.825410 0.615146 0
M  V30 8 C 1.225317 2.728549 -0.503982 0
M  V30 9 N 1.886096 2.871707 -1.667467 0
M  V30 10 N 1.272896 3.839823 -2.374021 0
M  V30 11 C 0.225965 4.312711 -1.668340 0
M  V30 12 C 0.175924 3.613558 -0.461508 0
M  V30 13 N -0.887670 3.970903 0.410304 0
M  V30 14 C -1.873280 3.107515 0.960600 0
M  V30 15 C -2.099296 3.094912 2.341468 0
M  V30 16 C -3.050884 2.241978 2.897302 0
M  V30 17 Cl -3.307907 2.248930 4.632504 0
M  V30 18 N -3.786976 1.395564 2.098176 0
M  V30 19 C -3.532377 1.445099 0.755472 0
M  V30 20 S -4.383014 0.410018 -0.425338 0
M  V30 21 C -3.442975 -1.089633 -0.635290 0
M  V30 22 C -3.538977 -2.264608 0.072351 0
M  V30 23 C -2.745648 -3.352117 -0.207607 0
M  V30 24 C -1.806895 -3.334209 -1.213225 0
M  V30 25 N -1.041747 -4.498517 -1.429610 0
M  V30 26 C -0.033205 -4.801104 -2.367335 0
M  V30 27 O 0.268339 -3.884337 -3.172078 0
M  V30 28 C 0.666437 -6.101853 -2.450004 0
M  V30 29 C 2.176749 -5.977858 -2.687981 0
M  V30 30 C 1.281122 -6.551055 -3.721235 0
M  V30 31 C -1.730181 -2.150625 -1.905916 0
M  V30 32 C -2.501076 -1.030591 -1.665182 0
M  V30 33 N -2.612626 2.263897 0.182428 0
M  V30 34 N 0.773925 1.654571 1.765955 0
M  V30 35 C 1.306036 0.665154 2.485890 0
M  V30 36 C 0.966234 0.129427 3.716689 0
M  V30 37 H 1.457742 -2.611931 5.523240 0
M  V30 38 H 1.828984 -1.036198 6.447180 0
M  V30 39 H 0.169294 -1.412046 5.792535 0
M  V30 40 H 3.302801 -2.226143 3.912550 0
M  V30 41 H 3.890330 -1.274880 1.761333 0
M  V30 42 H 3.127465 0.713889 -0.085594 0
M  V30 43 H 1.717962 4.031746 -3.313767 0
M  V30 44 H -0.306964 5.107586 -2.213535 0
M  V30 45 H -1.003128 4.982840 0.716480 0
M  V30 46 H -1.549860 3.737478 3.013755 0
M  V30 47 H -4.278786 -2.249388 0.847031 0
M  V30 48 H -2.885528 -4.248358 0.401932 0
M  V30 49 H -1.209743 -5.337746 -0.794574 0
M  V30 50 H 0.357221 -6.862835 -1.704359 0
M  V30 51 H 2.842321 -6.591999 -2.055781 0
M  V30 52 H 2.604204 -4.982271 -2.925217 0
M  V30 53 H 1.382683 -7.666263 -3.829440 0
M  V30 54 H 1.128424 -6.030505 -4.683123 0
M  V30 55 H -1.011227 -2.077936 -2.705080 0
M  V30 56 H -2.351367 -0.135333 -2.288525 0
M  V30 57 H 0.113547 0.554291 4.270506 0
M  V30 END ATOM
M  V30 BEGIN BOND
M  V30 1 1 1 2
M  V30 2 2 2 3
M  V30 3 1 3 4
M  V30 4 2 4 5
M  V30 5 1 5 6
M  V30 6 1 6 7
M  V30 7 1 7 8
M  V30 8 2 8 9
M  V30 9 1 9 10
M  V30 10 1 10 11
M  V30 11 2 11 12
M  V30 12 1 12 13
M  V30 13 1 13 14
M  V30 14 2 14 15
M  V30 15 1 15 16
M  V30 16 1 16 17
M  V30 17 2 16 18
M  V30 18 1 18 19
M  V30 19 1 19 20
M  V30 20 1 20 21
M  V30 21 2 21 22
M  V30 22 1 22 23
M  V30 23 2 23 24
M  V30 24 1 24 25
M  V30 25 1 25 26
M  V30 26 2 26 27
M  V30 27 1 26 28
M  V30 28 1 28 29
M  V30 29 1 29 30
M  V30 30 1 24 31
M  V30 31 2 31 32
M  V30 32 2 19 33
M  V30 33 2 7 34
M  V30 34 1 34 35
M  V30 35 2 35 36
M  V30 36 1 36 2
M  V30 37 1 35 5
M  V30 38 1 12 8
M  V30 39 1 33 14
M  V30 40 1 32 21
M  V30 41 1 30 28
M  V30 42 1 1 37
M  V30 43 1 1 38
M  V30 44 1 1 39
M  V30 45 1 3 40
M  V30 46 1 4 41
M  V30 47 1 6 42
M  V30 48 1 10 43
M  V30 49 1 11 44
M  V30 50 1 13 45
M  V30 51 1 15 46
M  V30 52 1 22 47
M  V30 53 1 23 48
M  V30 54 1 25 49
M  V30 55 1 28 50
M  V30 56 1 29 51
M  V30 57 1 29 52
M  V30 58 1 30 53
M  V30 59 1 30 54
M  V30 60 1 31 55
M  V30 61 1 32 56
M  V30 62 1 36 57
M  V30 END BOND
M  V30 END CTAB
M  END
>  <Dataset>  (963) 
ChEMBL_Kinases

>  <Ligand_Instance>  (963) 
nan

>  <PDB_ID>  (963) 
nan

>  <Standardized_SMILES>  (963) 
Cc1ccc2[nH]c(-c3n[nH]cc3Nc3cc(Cl)nc(Sc4ccc(NC(=O)C5CC5)cc4)n3)nc2c1

>  <Name>  (963) 
nan

>  <Pocket>  (963) 
nan

>  <ATP_Site>  (963) 
nan

>  <Peripheral>  (963) 
nan

>  <Num_H_Atoms_ProtBoundConf>  (963) 
nan

>  <Num_Resolved_Atoms>  (963) 
nan

>  <Num_Not_Resolved_Atoms>  (963) 
nan

$$$$
CHEMBL2391621
     RDKit          3D

  0  0  0  0  0  0  0  0  0  0999 V3000
M  V30 BEGIN CTAB
M  V30 COUNTS 21 22 0 0 0
M  V30 BEGIN ATOM
M  V30 1 C 2.209241 1.716444 3.683456 0
M  V30 2 O 1.578483 1.195582 2.535353 0
M  V30 3 C 1.361952 -0.164834 2.370640 0
M  V30 4 O 1.810857 -0.797878 3.382647 0
M  V30 5 C 0.718750 -0.779671 1.216108 0
M  V30 6 C 0.550694 -2.146730 1.148679 0
M  V30 7 N -0.072567 -2.354574 -0.045369 0
M  V30 8 C -0.287028 -1.198884 -0.694504 0
M  V30 9 N -0.866491 -0.947336 -1.891008 0
M  V30 10 C -0.960814 0.334106 -2.326619 0
M  V30 11 C -0.454395 1.358059 -1.522436 0
M  V30 12 C 0.135600 1.131283 -0.309887 0
M  V30 13 C 0.208879 -0.179634 0.089775 0
M  V30 14 H 1.973266 1.061392 4.565609 0
M  V30 15 H 3.318122 1.761337 3.588825 0
M  V30 16 H 1.820148 2.749437 3.863544 0
M  V30 17 H 0.812891 -2.964356 1.826714 0
M  V30 18 H -0.354381 -3.294029 -0.421098 0
M  V30 19 H -1.427050 0.531185 -3.288334 0
M  V30 20 H -0.554213 2.368839 -1.916366 0
M  V30 21 H 0.525895 1.905424 0.312825 0
M  V30 END ATOM
M  V30 BEGIN BOND
M  V30 1 1 1 2
M  V30 2 1 2 3
M  V30 3 2 3 4
M  V30 4 1 3 5
M  V30 5 2 5 6
M  V30 6 1 6 7
M  V30 7 1 7 8
M  V30 8 2 8 9
M  V30 9 1 9 10
M  V30 10 2 10 11
M  V30 11 1 11 12
M  V30 12 2 12 13
M  V30 13 1 13 5
M  V30 14 1 13 8
M  V30 15 1 1 14
M  V30 16 1 1 15
M  V30 17 1 1 16
M  V30 18 1 6 17
M  V30 19 1 7 18
M  V30 20 1 10 19
M  V30 21 1 11 20
M  V30 22 1 12 21
M  V30 END BOND
M  V30 END CTAB
M  END
>  <Dataset>  (964) 
ChEMBL_Kinases

>  <Ligand_Instance>  (964) 
nan

>  <PDB_ID>  (964) 
nan

>  <Standardized_SMILES>  (964) 
COC(=O)c1c[nH]c2ncccc12

>  <Name>  (964) 
nan

>  <Pocket>  (964) 
nan

>  <ATP_Site>  (964) 
nan

>  <Peripheral>  (964) 
nan

>  <Num_H_Atoms_ProtBoundConf>  (964) 
nan

>  <Num_Resolved_Atoms>  (964) 
nan

>  <Num_Not_Resolved_Atoms>  (964) 
nan

$$$$
CHEMBL2391620
     RDKit          3D

  0  0  0  0  0  0  0  0  0  0999 V3000
M  V30 BEGIN CTAB
M  V30 COUNTS 31 33 0 0 0
M  V30 BEGIN ATOM
M  V30 1 O -1.013678 -1.324817 5.687206 0
M  V30 2 C 0.012802 -1.132397 4.985285 0
M  V30 3 N 1.244473 -1.051718 5.537342 0
M  V30 4 C 2.343616 -0.845924 4.788014 0
M  V30 5 C 2.239938 -0.709933 3.416156 0
M  V30 6 C 0.975031 -0.794575 2.865772 0
M  V30 7 C 0.931776 -0.651687 1.493947 0
M  V30 8 C -0.279189 -0.718578 0.836092 0
M  V30 9 O -0.600364 -0.610332 -0.507667 0
M  V30 10 C 0.283470 -0.396428 -1.560050 0 CFG=1
M  V30 11 C 0.261258 -1.461407 -2.624914 0
M  V30 12 C -0.707760 -0.928199 -3.666890 0
M  V30 13 N -0.724779 0.500504 -3.513723 0
M  V30 14 C 0.018380 0.857093 -2.344285 0
M  V30 15 C -1.446251 -0.931635 1.581189 0
M  V30 16 Cl -3.075073 -1.048435 0.946303 0
M  V30 17 C -1.380008 -1.073827 2.970755 0
M  V30 18 C -0.162911 -1.005159 3.618590 0
M  V30 19 H 1.332007 -1.154866 6.587317 0
M  V30 20 H 3.319650 -0.786349 5.265958 0
M  V30 21 H 3.129430 -0.544008 2.815470 0
M  V30 22 H 1.746350 -0.485697 0.813370 0
M  V30 23 H 1.306429 -0.323041 -1.164007 0
M  V30 24 H 1.269457 -1.548525 -3.080703 0
M  V30 25 H -0.132256 -2.429125 -2.306748 0
M  V30 26 H -0.413557 -1.294361 -4.652056 0
M  V30 27 H -1.755195 -1.273522 -3.461922 0
M  V30 28 H -1.664058 0.934766 -3.585015 0
M  V30 29 H 0.942352 1.356425 -2.645926 0
M  V30 30 H -0.606749 1.591462 -1.784569 0
M  V30 31 H -2.239953 -1.240018 3.605173 0
M  V30 END ATOM
M  V30 BEGIN BOND
M  V30 1 2 1 2
M  V30 2 1 2 3
M  V30 3 1 3 4
M  V30 4 2 4 5
M  V30 5 1 5 6
M  V30 6 2 6 7
M  V30 7 1 7 8
M  V30 8 1 8 9
M  V30 9 1 9 10
M  V30 10 1 10 11
M  V30 11 1 11 12
M  V30 12 1 12 13
M  V30 13 1 13 14
M  V30 14 2 8 15
M  V30 15 1 15 16
M  V30 16 1 15 17
M  V30 17 2 17 18
M  V30 18 1 18 2
M  V30 19 1 18 6
M  V30 20 1 14 10
M  V30 21 1 3 19
M  V30 22 1 4 20
M  V30 23 1 5 21
M  V30 24 1 7 22
M  V30 25 1 10 23 CFG=1
M  V30 26 1 11 24
M  V30 27 1 11 25
M  V30 28 1 12 26
M  V30 29 1 12 27
M  V30 30 1 13 28
M  V30 31 1 14 29
M  V30 32 1 14 30
M  V30 33 1 17 31
M  V30 END BOND
M  V30 END CTAB
M  END
>  <Dataset>  (965) 
ChEMBL_Kinases

>  <Ligand_Instance>  (965) 
nan

>  <PDB_ID>  (965) 
nan

>  <Standardized_SMILES>  (965) 
O=c1[nH]ccc2cc(O[C@H]3CCNC3)c(Cl)cc12

>  <Name>  (965) 
nan

>  <Pocket>  (965) 
nan

>  <ATP_Site>  (965) 
nan

>  <Peripheral>  (965) 
nan

>  <Num_H_Atoms_ProtBoundConf>  (965) 
nan

>  <Num_Resolved_Atoms>  (965) 
nan

>  <Num_Not_Resolved_Atoms>  (965) 
nan

$$$$
CHEMBL2391619
     RDKit          3D

  0  0  0  0  0  0  0  0  0  0999 V3000
M  V30 BEGIN CTAB
M  V30 COUNTS 18 19 0 0 0
M  V30 BEGIN ATOM
M  V30 1 N -1.401173 -2.190911 1.962089 0
M  V30 2 C -0.519414 -1.427026 1.910350 0
M  V30 3 C 0.550277 -0.470186 1.844658 0
M  V30 4 C 1.171930 -0.102673 3.018873 0
M  V30 5 C 2.201471 0.817109 2.963031 0
M  V30 6 C 2.595292 1.355047 1.745078 0
M  V30 7 C 1.937445 0.951402 0.597251 0
M  V30 8 N 2.080461 1.279909 -0.701180 0
M  V30 9 N 1.218499 0.633910 -1.452173 0
M  V30 10 C 0.452314 -0.166012 -0.668528 0
M  V30 11 N -0.601746 -1.045240 -1.012934 0
M  V30 12 C 0.905115 0.035756 0.610616 0
M  V30 13 H 0.857732 -0.527507 3.962649 0
M  V30 14 H 2.717167 1.133897 3.860601 0
M  V30 15 H 3.397036 2.079127 1.651331 0
M  V30 16 H 2.780859 1.955261 -1.058187 0
M  V30 17 H -1.453371 -0.431714 -1.081232 0
M  V30 18 H -0.701920 -2.056757 -1.192835 0
M  V30 END ATOM
M  V30 BEGIN BOND
M  V30 1 3 1 2
M  V30 2 1 2 3
M  V30 3 2 3 4
M  V30 4 1 4 5
M  V30 5 2 5 6
M  V30 6 1 6 7
M  V30 7 1 7 8
M  V30 8 1 8 9
M  V30 9 2 9 10
M  V30 10 1 10 11
M  V30 11 1 10 12
M  V30 12 1 12 3
M  V30 13 2 12 7
M  V30 14 1 4 13
M  V30 15 1 5 14
M  V30 16 1 6 15
M  V30 17 1 8 16
M  V30 18 1 11 17
M  V30 19 1 11 18
M  V30 END BOND
M  V30 END CTAB
M  END
>  <Dataset>  (966) 
ChEMBL_Kinases

>  <Ligand_Instance>  (966) 
nan

>  <PDB_ID>  (966) 
nan

>  <Standardized_SMILES>  (966) 
N#Cc1cccc2[nH]nc(N)c12

>  <Name>  (966) 
nan

>  <Pocket>  (966) 
nan

>  <ATP_Site>  (966) 
nan

>  <Peripheral>  (966) 
nan

>  <Num_H_Atoms_ProtBoundConf>  (966) 
nan

>  <Num_Resolved_Atoms>  (966) 
nan

>  <Num_Not_Resolved_Atoms>  (966) 
nan

$$$$
CHEMBL2387464
     RDKit          3D

  0  0  0  0  0  0  0  0  0  0999 V3000
M  V30 BEGIN CTAB
M  V30 COUNTS 61 66 0 0 0
M  V30 BEGIN ATOM
M  V30 1 O 1.254730 -4.533242 4.091458 0
M  V30 2 C 0.549414 -3.622760 3.594170 0
M  V30 3 N 0.829739 -2.295357 3.184189 0
M  V30 4 C 2.166434 -1.901299 3.372916 0
M  V30 5 C 3.243855 -2.489637 3.978146 0
M  V30 6 N 4.285718 -1.667096 3.803042 0
M  V30 7 C 3.934798 -0.568505 3.107764 0
M  V30 8 N 4.682245 0.477377 2.720427 0
M  V30 9 C 4.189524 1.503285 2.017206 0
M  V30 10 C 2.847898 1.458384 1.688528 0
M  V30 11 C 2.174270 2.479567 0.893811 0
M  V30 12 C 2.444858 2.868478 -0.421442 0
M  V30 13 C 1.666358 3.848036 -0.985009 0
M  V30 14 C 0.621687 4.463077 -0.289963 0
M  V30 15 C 0.354715 4.069486 1.026972 0
M  V30 16 C 1.134538 3.089201 1.589393 0
M  V30 17 F 0.786706 2.802175 2.856408 0
M  V30 18 C 2.091825 0.380924 2.091649 0
M  V30 19 C 2.572497 -0.697923 2.820421 0
M  V30 20 C -0.767595 -4.252300 3.493332 0
M  V30 21 C -1.663319 -4.938366 4.313571 0
M  V30 22 N -2.750763 -5.266427 3.564292 0
M  V30 23 N -2.579111 -4.822280 2.320439 0
M  V30 24 C -3.385488 -4.917102 1.250030 0
M  V30 25 C -3.061852 -4.402643 0.022566 0
M  V30 26 C -1.836374 -3.768762 -0.052383 0
M  V30 27 N -1.160288 -3.091621 -1.130811 0
M  V30 28 C -1.593090 -1.731313 -1.042418 0
M  V30 29 C -0.946085 -0.781723 -2.013783 0 CFG=1
M  V30 30 C -1.151198 -1.133990 -3.449870 0
M  V30 31 C -2.623359 -1.282331 -3.792923 0
M  V30 32 N -3.325583 -0.095290 -3.394805 0
M  V30 33 C -2.477742 0.977569 -2.945201 0
M  V30 34 C -1.581458 0.589270 -1.809460 0 CFG=2
M  V30 35 F -0.635293 1.581656 -1.634269 0
M  V30 36 N -1.044258 -3.683110 1.030319 0
M  V30 37 C -1.384552 -4.201733 2.245387 0
M  V30 38 H 0.033061 -1.759668 2.796328 0
M  V30 39 H 3.210881 -3.437544 4.490488 0
M  V30 40 H 5.217039 -1.946163 4.207011 0
M  V30 41 H 4.760944 2.363019 1.688451 0
M  V30 42 H 3.257432 2.336893 -0.880960 0
M  V30 43 H 1.918683 4.115059 -2.023592 0
M  V30 44 H 0.068906 5.230770 -0.823291 0
M  V30 45 H -0.461242 4.594832 1.489294 0
M  V30 46 H 1.025245 0.294780 1.848084 0
M  V30 47 H -1.303772 -5.059166 5.318255 0
M  V30 48 H -4.343619 -5.410267 1.278304 0
M  V30 49 H -3.565496 -4.387455 -0.911687 0
M  V30 50 H -0.485520 -3.531912 -1.818839 0
M  V30 51 H -1.315382 -1.341058 -0.015930 0
M  V30 52 H -2.707812 -1.653635 -1.076492 0
M  V30 53 H 0.130694 -0.716317 -1.818408 0
M  V30 54 H -0.574350 -1.981680 -3.826566 0
M  V30 55 H -0.789338 -0.241630 -4.035841 0
M  V30 56 H -2.668365 -1.448613 -4.884624 0
M  V30 57 H -3.065769 -2.176839 -3.337726 0
M  V30 58 H -3.945364 0.229139 -4.145124 0
M  V30 59 H -3.166115 1.773651 -2.540645 0
M  V30 60 H -1.912414 1.453205 -3.787608 0
M  V30 61 H -2.210541 0.596306 -0.867554 0
M  V30 END ATOM
M  V30 BEGIN BOND
M  V30 1 2 1 2
M  V30 2 1 2 3
M  V30 3 1 3 4
M  V30 4 2 4 5
M  V30 5 1 5 6
M  V30 6 1 6 7
M  V30 7 2 7 8
M  V30 8 1 8 9
M  V30 9 2 9 10
M  V30 10 1 10 11
M  V30 11 2 11 12
M  V30 12 1 12 13
M  V30 13 2 13 14
M  V30 14 1 14 15
M  V30 15 2 15 16
M  V30 16 1 16 17
M  V30 17 1 10 18
M  V30 18 2 18 19
M  V30 19 1 2 20
M  V30 20 1 20 21
M  V30 21 2 21 22
M  V30 22 1 22 23
M  V30 23 1 23 24
M  V30 24 2 24 25
M  V30 25 1 25 26
M  V30 26 1 26 27
M  V30 27 1 27 28
M  V30 28 1 28 29
M  V30 29 1 29 30
M  V30 30 1 30 31
M  V30 31 1 31 32
M  V30 32 1 32 33
M  V30 33 1 33 34
M  V30 34 1 34 35
M  V30 35 2 26 36
M  V30 36 1 36 37
M  V30 37 1 19 4
M  V30 38 2 37 20
M  V30 39 1 19 7
M  V30 40 1 37 23
M  V30 41 1 16 11
M  V30 42 1 34 29
M  V30 43 1 3 38
M  V30 44 1 5 39
M  V30 45 1 6 40
M  V30 46 1 9 41
M  V30 47 1 12 42
M  V30 48 1 13 43
M  V30 49 1 14 44
M  V30 50 1 15 45
M  V30 51 1 18 46
M  V30 52 1 21 47
M  V30 53 1 24 48
M  V30 54 1 25 49
M  V30 55 1 27 50
M  V30 56 1 28 51
M  V30 57 1 28 52
M  V30 58 1 29 53 CFG=1
M  V30 59 1 30 54
M  V30 60 1 30 55
M  V30 61 1 31 56
M  V30 62 1 31 57
M  V30 63 1 32 58
M  V30 64 1 33 59
M  V30 65 1 33 60
M  V30 66 1 34 61 CFG=1
M  V30 END BOND
M  V30 END CTAB
M  END
>  <Dataset>  (967) 
ChEMBL_Kinases

>  <Ligand_Instance>  (967) 
nan

>  <PDB_ID>  (967) 
nan

>  <Standardized_SMILES>  (967) 
O=C(Nc1c[nH]c2ncc(-c3ccccc3F)cc12)c1cnn2ccc(NC[C@H]3CCNC[C@@H]3F)nc12

>  <Name>  (967) 
nan

>  <Pocket>  (967) 
nan

>  <ATP_Site>  (967) 
nan

>  <Peripheral>  (967) 
nan

>  <Num_H_Atoms_ProtBoundConf>  (967) 
nan

>  <Num_Resolved_Atoms>  (967) 
nan

>  <Num_Not_Resolved_Atoms>  (967) 
nan

$$$$
CHEMBL2387224
     RDKit          3D

  0  0  0  0  0  0  0  0  0  0999 V3000
M  V30 BEGIN CTAB
M  V30 COUNTS 36 38 0 0 0
M  V30 BEGIN ATOM
M  V30 1 O -0.112638 -1.049493 1.795401 0
M  V30 2 C 0.903158 -1.701720 2.222850 0
M  V30 3 N 1.163371 -2.672314 1.237078 0
M  V30 4 C 0.191009 -2.511053 0.196679 0
M  V30 5 C -0.973294 -3.243643 0.351049 0
M  V30 6 C -1.919603 -3.085734 -0.662962 0
M  V30 7 N -1.711168 -2.275728 -1.717423 0
M  V30 8 C -0.577654 -1.577444 -1.845125 0
M  V30 9 N -0.266013 -0.689498 -2.932926 0
M  V30 10 C -0.723858 0.615754 -2.596181 0
M  V30 11 O -1.280784 0.674709 -1.447658 0
M  V30 12 C -0.567050 1.801792 -3.500830 0
M  V30 13 C -1.777959 2.732897 -3.548442 0
M  V30 14 C -0.515503 3.163119 -2.900114 0
M  V30 15 C 0.398133 -1.681768 -0.888018 0
M  V30 16 C 1.471393 -1.308279 3.495596 0
M  V30 17 C 0.810962 -0.248919 4.083767 0
M  V30 18 Cl -0.594649 0.626265 3.455104 0
M  V30 19 C 1.286325 0.206044 5.320038 0
M  V30 20 C 2.369517 -0.360961 5.950933 0
M  V30 21 C 3.031452 -1.418153 5.367665 0
M  V30 22 C 2.546042 -1.846412 4.154779 0
M  V30 23 Cl 3.385473 -3.177484 3.428210 0
M  V30 24 H 1.979579 -3.268487 1.482275 0
M  V30 25 H -1.179154 -3.900350 1.175745 0
M  V30 26 H -2.849296 -3.637325 -0.590186 0
M  V30 27 H 0.203422 -0.826579 -3.858786 0
M  V30 28 H -0.068671 1.632734 -4.472474 0
M  V30 29 H -2.633487 2.527975 -2.870811 0
M  V30 30 H -2.080900 3.164712 -4.537325 0
M  V30 31 H 0.058275 3.931599 -3.457119 0
M  V30 32 H -0.513721 3.273867 -1.802633 0
M  V30 33 H 1.371210 -1.172016 -0.861975 0
M  V30 34 H 0.810590 1.027477 5.823243 0
M  V30 35 H 2.705521 0.018533 6.903713 0
M  V30 36 H 3.873637 -1.870989 5.841847 0
M  V30 END ATOM
M  V30 BEGIN BOND
M  V30 1 2 1 2
M  V30 2 1 2 3
M  V30 3 1 3 4
M  V30 4 2 4 5
M  V30 5 1 5 6
M  V30 6 2 6 7
M  V30 7 1 7 8
M  V30 8 1 8 9
M  V30 9 1 9 10
M  V30 10 2 10 11
M  V30 11 1 10 12
M  V30 12 1 12 13
M  V30 13 1 13 14
M  V30 14 2 8 15
M  V30 15 1 2 16
M  V30 16 2 16 17
M  V30 17 1 17 18
M  V30 18 1 17 19
M  V30 19 2 19 20
M  V30 20 1 20 21
M  V30 21 2 21 22
M  V30 22 1 22 23
M  V30 23 1 15 4
M  V30 24 1 22 16
M  V30 25 1 14 12
M  V30 26 1 3 24
M  V30 27 1 5 25
M  V30 28 1 6 26
M  V30 29 1 9 27
M  V30 30 1 12 28
M  V30 31 1 13 29
M  V30 32 1 13 30
M  V30 33 1 14 31
M  V30 34 1 14 32
M  V30 35 1 15 33
M  V30 36 1 19 34
M  V30 37 1 20 35
M  V30 38 1 21 36
M  V30 END BOND
M  V30 END CTAB
M  END
>  <Dataset>  (968) 
ChEMBL_Kinases

>  <Ligand_Instance>  (968) 
nan

>  <PDB_ID>  (968) 
nan

>  <Standardized_SMILES>  (968) 
O=C(Nc1ccnc(NC(=O)C2CC2)c1)c1c(Cl)cccc1Cl

>  <Name>  (968) 
nan

>  <Pocket>  (968) 
nan

>  <ATP_Site>  (968) 
nan

>  <Peripheral>  (968) 
nan

>  <Num_H_Atoms_ProtBoundConf>  (968) 
nan

>  <Num_Resolved_Atoms>  (968) 
nan

>  <Num_Not_Resolved_Atoms>  (968) 
nan

$$$$
CHEMBL2386818
     RDKit          3D

  0  0  0  0  0  0  0  0  0  0999 V3000
M  V30 BEGIN CTAB
M  V30 COUNTS 65 69 0 0 0
M  V30 BEGIN ATOM
M  V30 1 C 8.905499 -0.796491 7.602567 0
M  V30 2 C 8.750321 -0.549431 6.086042 0
M  V30 3 C 7.744793 0.315401 5.747010 0
M  V30 4 N 7.395815 0.681775 4.439435 0
M  V30 5 C 8.103819 0.134060 3.618693 0
M  V30 6 N 8.098431 0.152501 2.127491 0
M  V30 7 C 6.914856 0.867407 1.692417 0
M  V30 8 O 6.060547 1.389422 2.408630 0
M  V30 9 N 6.642479 1.016646 0.292169 0
M  V30 10 C 5.394007 1.725251 0.089662 0
M  V30 11 C 4.428962 0.730773 0.170303 0
M  V30 12 C 3.099034 1.041305 0.049729 0
M  V30 13 C 2.687286 2.324433 -0.151805 0
M  V30 14 C 1.485473 3.103729 -0.260303 0
M  V30 15 C 0.450447 2.085804 0.017183 0
M  V30 16 C -0.876393 2.652321 -0.038605 0
M  V30 17 N -1.989347 1.708354 0.217580 0
M  V30 18 C -2.701401 1.098805 -0.889592 0
M  V30 19 O -2.173612 1.604076 -1.947433 0
M  V30 20 C -3.748305 0.146566 -0.946378 0
M  V30 21 C -4.110263 -0.183745 -2.239686 0
M  V30 22 C -5.109471 -1.104384 -2.507965 0
M  V30 23 C -5.759068 -1.706885 -1.425626 0
M  V30 24 N -6.787902 -2.670041 -1.662655 0
M  V30 25 C -7.136533 -3.289383 -2.947807 0
M  V30 26 C -7.190271 -4.802394 -2.685912 0
M  V30 27 N -6.558633 -5.144761 -1.447425 0
M  V30 28 C -5.123864 -4.966595 -1.512966 0
M  V30 29 C -7.146819 -4.559256 -0.280603 0
M  V30 30 C -7.661783 -3.175483 -0.630877 0
M  V30 31 C -5.457593 -1.431419 -0.115707 0
M  V30 32 C -4.444957 -0.496862 0.020234 0
M  V30 33 N -0.656981 3.990539 -0.343978 0
M  V30 34 N 0.474922 3.754618 -0.350707 0
M  V30 35 C 3.665167 3.336577 -0.234709 0
M  V30 36 C 5.035268 3.038772 -0.113850 0
M  V30 37 S 9.376504 -0.983113 4.463025 0
M  V30 38 H 9.388478 -1.797071 7.681892 0
M  V30 39 H 9.459321 0.017748 8.076995 0
M  V30 40 H 7.881439 -0.824562 8.039478 0
M  V30 41 H 7.042306 0.873114 6.406206 0
M  V30 42 H 8.732420 -0.233300 1.450580 0
M  V30 43 H 7.284255 0.651409 -0.445075 0
M  V30 44 H 4.512108 -0.340408 0.323095 0
M  V30 45 H 2.260900 0.376127 0.083721 0
M  V30 46 H 0.454366 0.954402 0.275106 0
M  V30 47 H -2.403425 1.383873 1.137809 0
M  V30 48 H -3.667471 0.223481 -3.159650 0
M  V30 49 H -5.384685 -1.356399 -3.521407 0
M  V30 50 H -8.134035 -2.985726 -3.298824 0
M  V30 51 H -6.329161 -3.094512 -3.653835 0
M  V30 52 H -8.232209 -5.163145 -2.769251 0
M  V30 53 H -6.608849 -5.331361 -3.491193 0
M  V30 54 H -4.720474 -4.443378 -0.637987 0
M  V30 55 H -4.850957 -4.392619 -2.415413 0
M  V30 56 H -4.687588 -5.977458 -1.527812 0
M  V30 57 H -7.947321 -5.205219 0.123103 0
M  V30 58 H -6.324432 -4.400819 0.459183 0
M  V30 59 H -7.705254 -2.507526 0.254916 0
M  V30 60 H -8.710483 -3.304707 -1.017660 0
M  V30 61 H -5.895196 -1.845753 0.771493 0
M  V30 62 H -4.127437 -0.203469 1.036064 0
M  V30 63 H -1.655135 4.242194 -0.347927 0
M  V30 64 H 3.665840 4.424815 -0.389105 0
M  V30 65 H 5.941184 3.613572 -0.147292 0
M  V30 END ATOM
M  V30 BEGIN BOND
M  V30 1 1 1 2
M  V30 2 2 2 3
M  V30 3 1 3 4
M  V30 4 2 4 5
M  V30 5 1 5 6
M  V30 6 1 6 7
M  V30 7 2 7 8
M  V30 8 1 7 9
M  V30 9 1 9 10
M  V30 10 2 10 11
M  V30 11 1 11 12
M  V30 12 2 12 13
M  V30 13 1 13 14
M  V30 14 1 14 15
M  V30 15 2 15 16
M  V30 16 1 16 17
M  V30 17 1 17 18
M  V30 18 2 18 19
M  V30 19 1 18 20
M  V30 20 2 20 21
M  V30 21 1 21 22
M  V30 22 2 22 23
M  V30 23 1 23 24
M  V30 24 1 24 25
M  V30 25 1 25 26
M  V30 26 1 26 27
M  V30 27 1 27 28
M  V30 28 1 27 29
M  V30 29 1 29 30
M  V30 30 1 23 31
M  V30 31 2 31 32
M  V30 32 1 16 33
M  V30 33 1 33 34
M  V30 34 1 13 35
M  V30 35 2 35 36
M  V30 36 1 5 37
M  V30 37 1 37 2
M  V30 38 1 36 10
M  V30 39 2 34 14
M  V30 40 1 32 20
M  V30 41 1 30 24
M  V30 42 1 1 38
M  V30 43 1 1 39
M  V30 44 1 1 40
M  V30 45 1 3 41
M  V30 46 1 6 42
M  V30 47 1 9 43
M  V30 48 1 11 44
M  V30 49 1 12 45
M  V30 50 1 15 46
M  V30 51 1 17 47
M  V30 52 1 21 48
M  V30 53 1 22 49
M  V30 54 1 25 50
M  V30 55 1 25 51
M  V30 56 1 26 52
M  V30 57 1 26 53
M  V30 58 1 28 54
M  V30 59 1 28 55
M  V30 60 1 28 56
M  V30 61 1 29 57
M  V30 62 1 29 58
M  V30 63 1 30 59
M  V30 64 1 30 60
M  V30 65 1 31 61
M  V30 66 1 32 62
M  V30 67 1 33 63
M  V30 68 1 35 64
M  V30 69 1 36 65
M  V30 END BOND
M  V30 END CTAB
M  END
>  <Dataset>  (969) 
ChEMBL_Kinases

>  <Ligand_Instance>  (969) 
nan

>  <PDB_ID>  (969) 
nan

>  <Standardized_SMILES>  (969) 
Cc1cnc(NC(=O)Nc2ccc(-c3cc(NC(=O)c4ccc(N5CCN(C)CC5)cc4)[nH]n3)cc2)s1

>  <Name>  (969) 
nan

>  <Pocket>  (969) 
nan

>  <ATP_Site>  (969) 
nan

>  <Peripheral>  (969) 
nan

>  <Num_H_Atoms_ProtBoundConf>  (969) 
nan

>  <Num_Resolved_Atoms>  (969) 
nan

>  <Num_Not_Resolved_Atoms>  (969) 
nan

$$$$
CHEMBL2386817
     RDKit          3D

  0  0  0  0  0  0  0  0  0  0999 V3000
M  V30 BEGIN CTAB
M  V30 COUNTS 65 69 0 0 0
M  V30 BEGIN ATOM
M  V30 1 C 4.004369 4.656194 9.602330 0
M  V30 2 N 3.134722 4.379124 8.501992 0
M  V30 3 C 2.720289 3.016249 8.371337 0
M  V30 4 C 1.731297 2.957607 7.211309 0
M  V30 5 N 2.392941 3.267586 5.957746 0
M  V30 6 C 1.859508 2.939990 4.683905 0
M  V30 7 C 2.479198 3.216103 3.463050 0
M  V30 8 C 1.856801 2.846854 2.286895 0
M  V30 9 C 0.633377 2.210359 2.309138 0
M  V30 10 C -0.075613 1.795203 1.107651 0
M  V30 11 O -1.204607 1.205292 1.113984 0
M  V30 12 N 0.398439 1.993865 -0.218003 0
M  V30 13 C -0.565182 1.455537 -1.147973 0
M  V30 14 C -0.612960 0.155580 -1.655424 0
M  V30 15 C -1.701707 0.108807 -2.502271 0
M  V30 16 C -2.139844 -1.059270 -3.259446 0
M  V30 17 C -1.481043 -2.269609 -3.195598 0
M  V30 18 C -1.966704 -3.319092 -3.946401 0
M  V30 19 C -3.066564 -3.266585 -4.766358 0
M  V30 20 N -3.597268 -4.309069 -5.549004 0
M  V30 21 C -3.149388 -5.642971 -5.689478 0
M  V30 22 O -2.137149 -6.025251 -5.054405 0
M  V30 23 N -3.746318 -6.634227 -6.504307 0
M  V30 24 C -3.083568 -7.912090 -6.460463 0
M  V30 25 C -2.059296 -8.391325 -7.248907 0
M  V30 26 C -1.586358 -9.657792 -7.014545 0
M  V30 27 C -2.120040 -10.440302 -6.012787 0
M  V30 28 N -3.127374 -9.956995 -5.244271 0
M  V30 29 C -3.613211 -8.719529 -5.448644 0
M  V30 30 C -3.699477 -2.047035 -4.807121 0
M  V30 31 C -3.249447 -0.971050 -4.073865 0
M  V30 32 N -2.285122 1.341552 -2.500290 0
M  V30 33 N -1.608132 2.147794 -1.692083 0
M  V30 34 C 0.003942 1.928461 3.512527 0
M  V30 35 C 0.637514 2.303165 4.678814 0
M  V30 36 C 3.649156 3.946053 6.207843 0
M  V30 37 C 3.463805 5.030305 7.272824 0
M  V30 38 H 3.358278 4.968771 10.461460 0
M  V30 39 H 4.511439 3.719483 9.930508 0
M  V30 40 H 4.690531 5.495007 9.418020 0
M  V30 41 H 2.129556 2.758845 9.274084 0
M  V30 42 H 3.527463 2.285008 8.257601 0
M  V30 43 H 0.845821 3.553109 7.423657 0
M  V30 44 H 1.436283 1.874480 7.133945 0
M  V30 45 H 3.421413 3.707860 3.489401 0
M  V30 46 H 2.331112 3.057420 1.338080 0
M  V30 47 H 1.335372 2.479031 -0.344472 0
M  V30 48 H 0.073389 -0.639950 -1.420515 0
M  V30 49 H -0.606390 -2.380848 -2.568873 0
M  V30 50 H -1.421319 -4.232129 -3.861257 0
M  V30 51 H -4.442738 -4.153329 -6.138406 0
M  V30 52 H -4.604502 -6.353465 -7.058425 0
M  V30 53 H -1.739932 -7.668942 -7.993990 0
M  V30 54 H -0.782715 -9.972728 -7.667948 0
M  V30 55 H -1.724151 -11.437521 -5.852576 0
M  V30 56 H -4.407551 -8.495925 -4.752454 0
M  V30 57 H -4.590387 -1.921982 -5.441326 0
M  V30 58 H -3.806164 -0.051098 -4.165014 0
M  V30 59 H -1.774836 3.133800 -1.461903 0
M  V30 60 H -0.952179 1.431646 3.543473 0
M  V30 61 H 0.101064 2.059588 5.606060 0
M  V30 62 H 4.101251 4.368578 5.292361 0
M  V30 63 H 4.353516 3.190413 6.609310 0
M  V30 64 H 4.307079 5.721482 7.298095 0
M  V30 65 H 2.559247 5.616102 6.966193 0
M  V30 END ATOM
M  V30 BEGIN BOND
M  V30 1 1 1 2
M  V30 2 1 2 3
M  V30 3 1 3 4
M  V30 4 1 4 5
M  V30 5 1 5 6
M  V30 6 2 6 7
M  V30 7 1 7 8
M  V30 8 2 8 9
M  V30 9 1 9 10
M  V30 10 2 10 11
M  V30 11 1 10 12
M  V30 12 1 12 13
M  V30 13 2 13 14
M  V30 14 1 14 15
M  V30 15 1 15 16
M  V30 16 2 16 17
M  V30 17 1 17 18
M  V30 18 2 18 19
M  V30 19 1 19 20
M  V30 20 1 20 21
M  V30 21 2 21 22
M  V30 22 1 21 23
M  V30 23 1 23 24
M  V30 24 2 24 25
M  V30 25 1 25 26
M  V30 26 2 26 27
M  V30 27 1 27 28
M  V30 28 2 28 29
M  V30 29 1 19 30
M  V30 30 2 30 31
M  V30 31 2 15 32
M  V30 32 1 32 33
M  V30 33 1 9 34
M  V30 34 2 34 35
M  V30 35 1 5 36
M  V30 36 1 36 37
M  V30 37 1 37 2
M  V30 38 1 35 6
M  V30 39 1 33 13
M  V30 40 1 31 16
M  V30 41 1 29 24
M  V30 42 1 1 38
M  V30 43 1 1 39
M  V30 44 1 1 40
M  V30 45 1 3 41
M  V30 46 1 3 42
M  V30 47 1 4 43
M  V30 48 1 4 44
M  V30 49 1 7 45
M  V30 50 1 8 46
M  V30 51 1 12 47
M  V30 52 1 14 48
M  V30 53 1 17 49
M  V30 54 1 18 50
M  V30 55 1 20 51
M  V30 56 1 23 52
M  V30 57 1 25 53
M  V30 58 1 26 54
M  V30 59 1 27 55
M  V30 60 1 29 56
M  V30 61 1 30 57
M  V30 62 1 31 58
M  V30 63 1 33 59
M  V30 64 1 34 60
M  V30 65 1 35 61
M  V30 66 1 36 62
M  V30 67 1 36 63
M  V30 68 1 37 64
M  V30 69 1 37 65
M  V30 END BOND
M  V30 END CTAB
M  END
>  <Dataset>  (970) 
ChEMBL_Kinases

>  <Ligand_Instance>  (970) 
nan

>  <PDB_ID>  (970) 
nan

>  <Standardized_SMILES>  (970) 
CN1CCN(c2ccc(C(=O)Nc3cc(-c4ccc(NC(=O)Nc5cccnc5)cc4)n[nH]3)cc2)CC1

>  <Name>  (970) 
nan

>  <Pocket>  (970) 
nan

>  <ATP_Site>  (970) 
nan

>  <Peripheral>  (970) 
nan

>  <Num_H_Atoms_ProtBoundConf>  (970) 
nan

>  <Num_Resolved_Atoms>  (970) 
nan

>  <Num_Not_Resolved_Atoms>  (970) 
nan

$$$$
CHEMBL2386816
     RDKit          3D

  0  0  0  0  0  0  0  0  0  0999 V3000
M  V30 BEGIN CTAB
M  V30 COUNTS 65 69 0 0 0
M  V30 BEGIN ATOM
M  V30 1 C 3.215040 3.859884 9.840107 0
M  V30 2 N 3.810370 3.570129 8.559371 0
M  V30 3 C 3.601300 2.220496 8.125278 0
M  V30 4 C 2.556394 2.074250 7.066815 0
M  V30 5 N 2.783179 2.963601 5.927482 0
M  V30 6 C 2.113581 2.713267 4.699359 0
M  V30 7 C 2.258693 3.447968 3.541864 0
M  V30 8 C 1.585285 3.156555 2.395583 0
M  V30 9 C 0.706513 2.096846 2.319667 0
M  V30 10 C -0.063087 1.699357 1.146420 0
M  V30 11 O -0.857902 0.702743 1.149624 0
M  V30 12 N -0.018290 2.359271 -0.105023 0
M  V30 13 C -0.906568 1.691680 -1.026214 0
M  V30 14 C -0.571025 0.642805 -1.873587 0
M  V30 15 C -1.751441 0.357348 -2.544700 0
M  V30 16 C -1.867809 -0.693312 -3.549892 0
M  V30 17 C -0.797983 -1.504740 -3.925106 0
M  V30 18 C -0.959747 -2.491841 -4.887336 0
M  V30 19 C -2.196760 -2.694242 -5.500780 0
M  V30 20 N -2.331195 -3.724990 -6.493689 0
M  V30 21 C -2.708190 -4.996174 -5.951896 0
M  V30 22 O -2.881891 -5.092804 -4.696264 0
M  V30 23 N -2.899814 -6.161186 -6.743610 0
M  V30 24 C -3.273109 -7.418725 -6.203936 0
M  V30 25 C -3.452273 -8.536272 -7.005637 0
M  V30 26 C -3.816398 -9.766035 -6.485019 0
M  V30 27 C -3.986269 -9.794897 -5.117180 0
M  V30 28 C -3.810658 -8.689358 -4.310266 0
M  V30 29 N -3.451850 -7.503984 -4.878105 0
M  V30 30 C -3.256780 -1.892390 -5.130984 0
M  V30 31 C -3.081892 -0.910775 -4.169246 0
M  V30 32 N -2.704701 1.190691 -2.109308 0
M  V30 33 N -2.211523 2.009771 -1.185998 0
M  V30 34 C 0.541466 1.343416 3.464286 0
M  V30 35 C 1.232534 1.657102 4.610180 0
M  V30 36 C 3.700634 4.059656 6.155440 0
M  V30 37 C 3.548435 4.563847 7.567004 0
M  V30 38 H 2.485287 4.711837 9.773435 0
M  V30 39 H 2.753326 2.979001 10.312437 0
M  V30 40 H 4.023675 4.207431 10.516378 0
M  V30 41 H 3.231379 1.657651 9.014018 0
M  V30 42 H 4.571704 1.761832 7.846491 0
M  V30 43 H 1.532641 2.083394 7.434486 0
M  V30 44 H 2.712224 1.043565 6.629909 0
M  V30 45 H 2.927018 4.278727 3.544885 0
M  V30 46 H 1.703265 3.737469 1.488818 0
M  V30 47 H 0.609861 3.194967 -0.206953 0
M  V30 48 H 0.418431 0.214035 -1.924747 0
M  V30 49 H 0.139149 -1.311304 -3.423602 0
M  V30 50 H -0.090923 -3.105996 -5.150971 0
M  V30 51 H -2.190408 -3.663847 -7.545488 0
M  V30 52 H -2.746529 -6.043540 -7.785199 0
M  V30 53 H -3.309171 -8.472897 -8.077134 0
M  V30 54 H -3.953980 -10.633084 -7.118931 0
M  V30 55 H -4.275406 -10.743928 -4.646438 0
M  V30 56 H -3.963529 -8.789453 -3.231959 0
M  V30 57 H -4.196510 -2.079825 -5.627760 0
M  V30 58 H -3.978043 -0.316533 -3.933365 0
M  V30 59 H -2.769028 2.750979 -0.698139 0
M  V30 60 H -0.149666 0.487392 3.451910 0
M  V30 61 H 1.039671 1.006711 5.467944 0
M  V30 62 H 4.766740 3.739560 5.991545 0
M  V30 63 H 3.509689 4.828639 5.401354 0
M  V30 64 H 4.214014 5.435636 7.732373 0
M  V30 65 H 2.507787 4.924818 7.694787 0
M  V30 END ATOM
M  V30 BEGIN BOND
M  V30 1 1 1 2
M  V30 2 1 2 3
M  V30 3 1 3 4
M  V30 4 1 4 5
M  V30 5 1 5 6
M  V30 6 2 6 7
M  V30 7 1 7 8
M  V30 8 2 8 9
M  V30 9 1 9 10
M  V30 10 2 10 11
M  V30 11 1 10 12
M  V30 12 1 12 13
M  V30 13 2 13 14
M  V30 14 1 14 15
M  V30 15 1 15 16
M  V30 16 2 16 17
M  V30 17 1 17 18
M  V30 18 2 18 19
M  V30 19 1 19 20
M  V30 20 1 20 21
M  V30 21 2 21 22
M  V30 22 1 21 23
M  V30 23 1 23 24
M  V30 24 2 24 25
M  V30 25 1 25 26
M  V30 26 2 26 27
M  V30 27 1 27 28
M  V30 28 2 28 29
M  V30 29 1 19 30
M  V30 30 2 30 31
M  V30 31 2 15 32
M  V30 32 1 32 33
M  V30 33 1 9 34
M  V30 34 2 34 35
M  V30 35 1 5 36
M  V30 36 1 36 37
M  V30 37 1 37 2
M  V30 38 1 35 6
M  V30 39 1 33 13
M  V30 40 1 31 16
M  V30 41 1 29 24
M  V30 42 1 1 38
M  V30 43 1 1 39
M  V30 44 1 1 40
M  V30 45 1 3 41
M  V30 46 1 3 42
M  V30 47 1 4 43
M  V30 48 1 4 44
M  V30 49 1 7 45
M  V30 50 1 8 46
M  V30 51 1 12 47
M  V30 52 1 14 48
M  V30 53 1 17 49
M  V30 54 1 18 50
M  V30 55 1 20 51
M  V30 56 1 23 52
M  V30 57 1 25 53
M  V30 58 1 26 54
M  V30 59 1 27 55
M  V30 60 1 28 56
M  V30 61 1 30 57
M  V30 62 1 31 58
M  V30 63 1 33 59
M  V30 64 1 34 60
M  V30 65 1 35 61
M  V30 66 1 36 62
M  V30 67 1 36 63
M  V30 68 1 37 64
M  V30 69 1 37 65
M  V30 END BOND
M  V30 END CTAB
M  END
>  <Dataset>  (971) 
ChEMBL_Kinases

>  <Ligand_Instance>  (971) 
nan

>  <PDB_ID>  (971) 
nan

>  <Standardized_SMILES>  (971) 
CN1CCN(c2ccc(C(=O)Nc3cc(-c4ccc(NC(=O)Nc5ccccn5)cc4)n[nH]3)cc2)CC1

>  <Name>  (971) 
nan

>  <Pocket>  (971) 
nan

>  <ATP_Site>  (971) 
nan

>  <Peripheral>  (971) 
nan

>  <Num_H_Atoms_ProtBoundConf>  (971) 
nan

>  <Num_Resolved_Atoms>  (971) 
nan

>  <Num_Not_Resolved_Atoms>  (971) 
nan

$$$$
CHEMBL2386812
     RDKit          3D

  0  0  0  0  0  0  0  0  0  0999 V3000
M  V30 BEGIN CTAB
M  V30 COUNTS 66 70 0 0 0
M  V30 BEGIN ATOM
M  V30 1 C 4.923760 1.292207 6.992195 0
M  V30 2 N 5.872588 2.388011 6.918871 0
M  V30 3 C 5.252679 3.616725 7.395904 0
M  V30 4 C 4.015137 3.974530 6.578793 0
M  V30 5 N 4.269509 3.645938 5.204013 0
M  V30 6 C 3.265711 3.270922 4.271662 0
M  V30 7 C 1.953189 3.264158 4.687672 0
M  V30 8 C 0.932875 2.905187 3.824436 0
M  V30 9 C 1.201462 2.543000 2.519417 0
M  V30 10 C 0.225317 2.144172 1.508483 0
M  V30 11 O 0.520929 1.823884 0.320269 0
M  V30 12 N -1.162520 2.075071 1.758518 0
M  V30 13 C -1.909945 1.654664 0.593724 0
M  V30 14 C -2.114221 0.288016 0.434330 0
M  V30 15 C -2.840052 0.145166 -0.729949 0
M  V30 16 C -3.332092 -1.066550 -1.377753 0
M  V30 17 C -4.035547 -0.967632 -2.535812 0
M  V30 18 C -4.525549 -2.100232 -3.190840 0
M  V30 19 C -4.289614 -3.365336 -2.647047 0
M  V30 20 N -4.810230 -4.478441 -3.354766 0
M  V30 21 C -4.113952 -5.196069 -4.374354 0
M  V30 22 O -2.956995 -4.786515 -4.640775 0
M  V30 23 N -4.758100 -6.303296 -5.009669 0
M  V30 24 C -4.114558 -7.054824 -6.031038 0
M  V30 25 C -4.332833 -6.577001 -7.308673 0
M  V30 26 C -3.757648 -7.224796 -8.406078 0
M  V30 27 C -2.966030 -8.349620 -8.213487 0
M  V30 28 C -2.784719 -8.780042 -6.907719 0
M  V30 29 C -3.326226 -8.179253 -5.808265 0
M  V30 30 C -3.568467 -3.441294 -1.463122 0
M  V30 31 C -3.085458 -2.321551 -0.817796 0
M  V30 32 N -3.045310 1.379479 -1.220907 0
M  V30 33 N -2.502627 2.300473 -0.453794 0
M  V30 34 C 2.530434 2.565055 2.148875 0
M  V30 35 C 3.576850 2.916594 2.978575 0
M  V30 36 C 5.688862 3.760375 4.935168 0
M  V30 37 C 6.385511 2.565615 5.567128 0
M  V30 38 H 4.463543 1.080581 5.996522 0
M  V30 39 H 5.455634 0.419560 7.404288 0
M  V30 40 H 4.057810 1.595253 7.648305 0
M  V30 41 H 6.010152 4.402577 7.391385 0
M  V30 42 H 4.969421 3.416000 8.469727 0
M  V30 43 H 3.833060 5.067161 6.642236 0
M  V30 44 H 3.141778 3.448961 6.965561 0
M  V30 45 H 1.590558 3.522155 5.671214 0
M  V30 46 H -0.114782 2.885320 4.108694 0
M  V30 47 H -1.530274 2.322399 2.725122 0
M  V30 48 H -1.814386 -0.567707 1.031308 0
M  V30 49 H -4.253486 -0.015274 -3.010922 0
M  V30 50 H -5.085710 -2.003564 -4.115463 0
M  V30 51 H -5.785353 -4.772050 -3.084539 0
M  V30 52 H -5.733402 -6.546194 -4.693515 0
M  V30 53 H -4.938744 -5.707460 -7.519575 0
M  V30 54 H -3.893544 -6.894650 -9.438759 0
M  V30 55 H -2.500604 -8.881380 -9.049437 0
M  V30 56 H -2.163314 -9.658883 -6.786634 0
M  V30 57 H -3.192698 -8.503197 -4.797939 0
M  V30 58 H -3.399556 -4.446157 -1.060910 0
M  V30 59 H -2.517489 -2.426209 0.119812 0
M  V30 60 H -2.432659 3.340032 -0.471990 0
M  V30 61 H 2.801010 2.286209 1.120446 0
M  V30 62 H 4.587412 2.903384 2.599257 0
M  V30 63 H 5.896808 3.798538 3.848240 0
M  V30 64 H 6.148196 4.671541 5.375362 0
M  V30 65 H 6.197803 1.633613 4.998394 0
M  V30 66 H 7.477478 2.728350 5.684857 0
M  V30 END ATOM
M  V30 BEGIN BOND
M  V30 1 1 1 2
M  V30 2 1 2 3
M  V30 3 1 3 4
M  V30 4 1 4 5
M  V30 5 1 5 6
M  V30 6 2 6 7
M  V30 7 1 7 8
M  V30 8 2 8 9
M  V30 9 1 9 10
M  V30 10 2 10 11
M  V30 11 1 10 12
M  V30 12 1 12 13
M  V30 13 2 13 14
M  V30 14 1 14 15
M  V30 15 1 15 16
M  V30 16 2 16 17
M  V30 17 1 17 18
M  V30 18 2 18 19
M  V30 19 1 19 20
M  V30 20 1 20 21
M  V30 21 2 21 22
M  V30 22 1 21 23
M  V30 23 1 23 24
M  V30 24 2 24 25
M  V30 25 1 25 26
M  V30 26 2 26 27
M  V30 27 1 27 28
M  V30 28 2 28 29
M  V30 29 1 19 30
M  V30 30 2 30 31
M  V30 31 2 15 32
M  V30 32 1 32 33
M  V30 33 1 9 34
M  V30 34 2 34 35
M  V30 35 1 5 36
M  V30 36 1 36 37
M  V30 37 1 37 2
M  V30 38 1 35 6
M  V30 39 1 33 13
M  V30 40 1 31 16
M  V30 41 1 29 24
M  V30 42 1 1 38
M  V30 43 1 1 39
M  V30 44 1 1 40
M  V30 45 1 3 41
M  V30 46 1 3 42
M  V30 47 1 4 43
M  V30 48 1 4 44
M  V30 49 1 7 45
M  V30 50 1 8 46
M  V30 51 1 12 47
M  V30 52 1 14 48
M  V30 53 1 17 49
M  V30 54 1 18 50
M  V30 55 1 20 51
M  V30 56 1 23 52
M  V30 57 1 25 53
M  V30 58 1 26 54
M  V30 59 1 27 55
M  V30 60 1 28 56
M  V30 61 1 29 57
M  V30 62 1 30 58
M  V30 63 1 31 59
M  V30 64 1 33 60
M  V30 65 1 34 61
M  V30 66 1 35 62
M  V30 67 1 36 63
M  V30 68 1 36 64
M  V30 69 1 37 65
M  V30 70 1 37 66
M  V30 END BOND
M  V30 END CTAB
M  END
>  <Dataset>  (972) 
ChEMBL_Kinases

>  <Ligand_Instance>  (972) 
nan

>  <PDB_ID>  (972) 
nan

>  <Standardized_SMILES>  (972) 
CN1CCN(c2ccc(C(=O)Nc3cc(-c4ccc(NC(=O)Nc5ccccc5)cc4)n[nH]3)cc2)CC1

>  <Name>  (972) 
nan

>  <Pocket>  (972) 
nan

>  <ATP_Site>  (972) 
nan

>  <Peripheral>  (972) 
nan

>  <Num_H_Atoms_ProtBoundConf>  (972) 
nan

>  <Num_Resolved_Atoms>  (972) 
nan

>  <Num_Not_Resolved_Atoms>  (972) 
nan

$$$$
CHEMBL2386810
     RDKit          3D

  0  0  0  0  0  0  0  0  0  0999 V3000
M  V30 BEGIN CTAB
M  V30 COUNTS 65 69 0 0 0
M  V30 BEGIN ATOM
M  V30 1 C 6.079261 -3.062379 4.583529 0
M  V30 2 C 5.224379 -2.169703 3.742978 0
M  V30 3 N 5.462074 -2.086760 2.401155 0
M  V30 4 C 4.671133 -1.264936 1.655454 0
M  V30 5 N 4.892137 -1.159726 0.254545 0
M  V30 6 C 4.104422 -0.321745 -0.596140 0
M  V30 7 C 2.947467 -0.866474 -1.166874 0
M  V30 8 C 2.353361 0.113471 -1.943134 0
M  V30 9 C 1.124585 -0.030348 -2.718785 0
M  V30 10 C 0.631227 1.021576 -3.459405 0
M  V30 11 C -0.539320 0.820324 -4.170139 0
M  V30 12 C -1.242363 -0.393507 -4.172661 0
M  V30 13 C -2.459510 -0.385083 -5.003556 0
M  V30 14 N -3.645883 0.041733 -4.336549 0
M  V30 15 C -4.404768 -0.733150 -3.422778 0
M  V30 16 O -3.970309 -1.889138 -3.201257 0
M  V30 17 N -5.574519 -0.306946 -2.768543 0
M  V30 18 C -6.387457 -0.987892 -1.859358 0
M  V30 19 C -6.225052 -2.265481 -1.396673 0
M  V30 20 C -7.047412 -2.909922 -0.495751 0
M  V30 21 C -8.143040 -2.202350 -0.009462 0
M  V30 22 C -8.349724 -0.923496 -0.440092 0
M  V30 23 Cl -9.706081 -0.007778 0.144273 0
M  V30 24 C -7.486790 -0.342040 -1.342040 0
M  V30 25 C -0.710646 -1.419673 -3.416231 0
M  V30 26 C 0.455842 -1.243491 -2.698785 0
M  V30 27 N 3.141671 1.196692 -1.827158 0
M  V30 28 N 4.174778 0.967722 -1.042885 0
M  V30 29 C 3.680685 -0.571190 2.315090 0
M  V30 30 C 3.423995 -0.642149 3.674361 0
M  V30 31 N 2.375250 0.104301 4.305375 0
M  V30 32 C 2.305153 -0.138392 5.753192 0
M  V30 33 C 1.265565 0.813652 6.282499 0
M  V30 34 N 0.029420 0.575975 5.570981 0
M  V30 35 C 0.092496 1.003762 4.194828 0
M  V30 36 C 1.484421 0.989722 3.635125 0
M  V30 37 N 4.247495 -1.469474 4.317087 0
M  V30 38 H 5.617244 -4.069447 4.557640 0
M  V30 39 H 7.115327 -3.090024 4.201710 0
M  V30 40 H 6.013548 -2.707958 5.633254 0
M  V30 41 H 5.642420 -1.698291 -0.189547 0
M  V30 42 H 2.527325 -1.858944 -1.069344 0
M  V30 43 H 1.153712 1.956577 -3.468710 0
M  V30 44 H -0.870146 1.697164 -4.734128 0
M  V30 45 H -2.299748 0.161390 -5.955252 0
M  V30 46 H -2.625957 -1.443536 -5.313447 0
M  V30 47 H -3.976151 1.007883 -4.545612 0
M  V30 48 H -5.816076 0.675721 -3.051115 0
M  V30 49 H -5.404452 -2.852805 -1.734045 0
M  V30 50 H -6.860680 -3.930422 -0.170084 0
M  V30 51 H -8.817799 -2.668424 0.701439 0
M  V30 52 H -7.693229 0.677262 -1.653980 0
M  V30 53 H -1.279087 -2.325921 -3.446647 0
M  V30 54 H 0.797389 -2.090829 -2.138666 0
M  V30 55 H 4.985546 1.533229 -0.712437 0
M  V30 56 H 3.103552 0.054053 1.658943 0
M  V30 57 H 1.919653 -1.152602 5.883072 0
M  V30 58 H 3.299591 0.018746 6.220958 0
M  V30 59 H 1.628768 1.849822 6.239188 0
M  V30 60 H 1.073593 0.519704 7.339664 0
M  V30 61 H -0.702443 1.162294 6.036046 0
M  V30 62 H -0.354592 2.008691 4.070141 0
M  V30 63 H -0.521856 0.301842 3.600840 0
M  V30 64 H 1.475537 0.775032 2.552684 0
M  V30 65 H 1.914005 2.026282 3.750007 0
M  V30 END ATOM
M  V30 BEGIN BOND
M  V30 1 1 1 2
M  V30 2 2 2 3
M  V30 3 1 3 4
M  V30 4 1 4 5
M  V30 5 1 5 6
M  V30 6 2 6 7
M  V30 7 1 7 8
M  V30 8 1 8 9
M  V30 9 2 9 10
M  V30 10 1 10 11
M  V30 11 2 11 12
M  V30 12 1 12 13
M  V30 13 1 13 14
M  V30 14 1 14 15
M  V30 15 2 15 16
M  V30 16 1 15 17
M  V30 17 1 17 18
M  V30 18 2 18 19
M  V30 19 1 19 20
M  V30 20 2 20 21
M  V30 21 1 21 22
M  V30 22 1 22 23
M  V30 23 2 22 24
M  V30 24 1 12 25
M  V30 25 2 25 26
M  V30 26 2 8 27
M  V30 27 1 27 28
M  V30 28 2 4 29
M  V30 29 1 29 30
M  V30 30 1 30 31
M  V30 31 1 31 32
M  V30 32 1 32 33
M  V30 33 1 33 34
M  V30 34 1 34 35
M  V30 35 1 35 36
M  V30 36 2 30 37
M  V30 37 1 37 2
M  V30 38 1 28 6
M  V30 39 1 36 31
M  V30 40 1 26 9
M  V30 41 1 24 18
M  V30 42 1 1 38
M  V30 43 1 1 39
M  V30 44 1 1 40
M  V30 45 1 5 41
M  V30 46 1 7 42
M  V30 47 1 10 43
M  V30 48 1 11 44
M  V30 49 1 13 45
M  V30 50 1 13 46
M  V30 51 1 14 47
M  V30 52 1 17 48
M  V30 53 1 19 49
M  V30 54 1 20 50
M  V30 55 1 21 51
M  V30 56 1 24 52
M  V30 57 1 25 53
M  V30 58 1 26 54
M  V30 59 1 28 55
M  V30 60 1 29 56
M  V30 61 1 32 57
M  V30 62 1 32 58
M  V30 63 1 33 59
M  V30 64 1 33 60
M  V30 65 1 34 61
M  V30 66 1 35 62
M  V30 67 1 35 63
M  V30 68 1 36 64
M  V30 69 1 36 65
M  V30 END BOND
M  V30 END CTAB
M  END
>  <Dataset>  (973) 
ChEMBL_Kinases

>  <Ligand_Instance>  (973) 
nan

>  <PDB_ID>  (973) 
nan

>  <Standardized_SMILES>  (973) 
Cc1nc(Nc2cc(-c3ccc(CNC(=O)Nc4cccc(Cl)c4)cc3)n[nH]2)cc(N2CCNCC2)n1

>  <Name>  (973) 
nan

>  <Pocket>  (973) 
nan

>  <ATP_Site>  (973) 
nan

>  <Peripheral>  (973) 
nan

>  <Num_H_Atoms_ProtBoundConf>  (973) 
nan

>  <Num_Resolved_Atoms>  (973) 
nan

>  <Num_Not_Resolved_Atoms>  (973) 
nan

$$$$
CHEMBL2386809
     RDKit          3D

  0  0  0  0  0  0  0  0  0  0999 V3000
M  V30 BEGIN CTAB
M  V30 COUNTS 73 77 0 0 0
M  V30 BEGIN ATOM
M  V30 1 C 8.414844 0.063546 2.461721 0
M  V30 2 C 6.969660 -0.117244 2.235287 0
M  V30 3 N 6.240162 0.954106 2.488125 0
M  V30 4 C 4.901207 1.024459 2.349971 0
M  V30 5 N 4.173110 2.201702 2.619120 0
M  V30 6 C 2.813042 2.565898 2.690943 0
M  V30 7 C 1.627386 1.873880 2.638725 0
M  V30 8 C 0.528510 2.695626 2.736084 0
M  V30 9 C -0.877571 2.305604 2.719730 0
M  V30 10 C -1.245432 0.985681 2.594019 0
M  V30 11 C -2.571683 0.617459 2.580943 0
M  V30 12 C -3.595528 1.531976 2.690783 0
M  V30 13 C -5.037768 1.262240 2.692401 0
M  V30 14 N -5.657218 1.281276 1.395646 0
M  V30 15 C -5.590731 0.273588 0.397050 0
M  V30 16 O -4.901360 -0.756051 0.696286 0
M  V30 17 N -6.259817 0.408647 -0.870859 0
M  V30 18 C -6.063265 -0.726124 -1.735729 0
M  V30 19 C -5.154960 -1.105313 -2.703787 0
M  V30 20 C -5.538248 -2.356586 -3.166610 0
M  V30 21 C -4.791142 -3.071512 -4.211468 0
M  V30 22 C -5.349440 -2.716941 -5.569048 0
M  V30 23 C -3.322170 -2.695043 -4.192683 0
M  V30 24 C -4.862055 -4.577897 -3.997429 0
M  V30 25 O -6.615331 -2.679371 -2.495870 0
M  V30 26 N -6.954811 -1.754442 -1.650286 0
M  V30 27 C -3.194297 2.864144 2.817249 0
M  V30 28 C -1.862083 3.258353 2.832941 0
M  V30 29 N 1.103312 3.882314 2.846404 0
M  V30 30 N 2.402809 3.837045 2.823851 0
M  V30 31 C 4.352560 -0.157683 1.908383 0
M  V30 32 C 5.038199 -1.309920 1.624528 0
M  V30 33 N 4.479518 -2.524758 1.162337 0
M  V30 34 C 5.293640 -3.708989 0.967563 0
M  V30 35 C 4.873615 -4.284960 -0.365974 0
M  V30 36 N 4.236589 -3.344172 -1.246077 0
M  V30 37 C 3.067158 -2.715595 -0.702030 0
M  V30 38 C 3.084837 -2.732259 0.831048 0
M  V30 39 N 6.389680 -1.252149 1.805379 0
M  V30 40 H 8.956102 -0.877289 2.494707 0
M  V30 41 H 8.601218 0.609194 3.408395 0
M  V30 42 H 8.857659 0.685914 1.650281 0
M  V30 43 H 4.851455 3.007435 2.816077 0
M  V30 44 H 1.506890 0.807974 2.540855 0
M  V30 45 H -0.469674 0.230578 2.504253 0
M  V30 46 H -2.858552 -0.405833 2.482790 0
M  V30 47 H -5.244624 0.278662 3.187564 0
M  V30 48 H -5.542567 2.026701 3.327226 0
M  V30 49 H -6.241658 2.117535 1.097030 0
M  V30 50 H -6.809952 1.272609 -1.060482 0
M  V30 51 H -4.357653 -0.430056 -2.930133 0
M  V30 52 H -4.530777 -2.492465 -6.281914 0
M  V30 53 H -5.944305 -3.581792 -5.975974 0
M  V30 54 H -6.014136 -1.848605 -5.468103 0
M  V30 55 H -3.048571 -2.558643 -3.113148 0
M  V30 56 H -2.730454 -3.567442 -4.542522 0
M  V30 57 H -3.109548 -1.792373 -4.800802 0
M  V30 58 H -5.895775 -4.939591 -4.005800 0
M  V30 59 H -4.419883 -4.826307 -3.015608 0
M  V30 60 H -4.269296 -5.062401 -4.801777 0
M  V30 61 H -3.938347 3.656768 2.908958 0
M  V30 62 H -1.614598 4.304160 2.934202 0
M  V30 63 H 2.908058 4.748474 2.908167 0
M  V30 64 H 3.316568 -0.276160 1.736102 0
M  V30 65 H 5.076282 -4.411614 1.809806 0
M  V30 66 H 6.354522 -3.407517 1.012247 0
M  V30 67 H 4.254887 -5.175498 -0.174466 0
M  V30 68 H 5.797743 -4.638487 -0.871514 0
M  V30 69 H 4.859276 -2.756878 -1.802789 0
M  V30 70 H 2.110738 -3.082879 -1.097241 0
M  V30 71 H 3.145488 -1.631066 -0.971927 0
M  V30 72 H 2.389535 -2.015691 1.254845 0
M  V30 73 H 2.749752 -3.773581 1.105156 0
M  V30 END ATOM
M  V30 BEGIN BOND
M  V30 1 1 1 2
M  V30 2 2 2 3
M  V30 3 1 3 4
M  V30 4 1 4 5
M  V30 5 1 5 6
M  V30 6 2 6 7
M  V30 7 1 7 8
M  V30 8 1 8 9
M  V30 9 2 9 10
M  V30 10 1 10 11
M  V30 11 2 11 12
M  V30 12 1 12 13
M  V30 13 1 13 14
M  V30 14 1 14 15
M  V30 15 2 15 16
M  V30 16 1 15 17
M  V30 17 1 17 18
M  V30 18 1 18 19
M  V30 19 2 19 20
M  V30 20 1 20 21
M  V30 21 1 21 22
M  V30 22 1 21 23
M  V30 23 1 21 24
M  V30 24 1 20 25
M  V30 25 1 25 26
M  V30 26 1 12 27
M  V30 27 2 27 28
M  V30 28 2 8 29
M  V30 29 1 29 30
M  V30 30 2 4 31
M  V30 31 1 31 32
M  V30 32 1 32 33
M  V30 33 1 33 34
M  V30 34 1 34 35
M  V30 35 1 35 36
M  V30 36 1 36 37
M  V30 37 1 37 38
M  V30 38 2 32 39
M  V30 39 1 39 2
M  V30 40 1 30 6
M  V30 41 1 38 33
M  V30 42 1 28 9
M  V30 43 2 26 18
M  V30 44 1 1 40
M  V30 45 1 1 41
M  V30 46 1 1 42
M  V30 47 1 5 43
M  V30 48 1 7 44
M  V30 49 1 10 45
M  V30 50 1 11 46
M  V30 51 1 13 47
M  V30 52 1 13 48
M  V30 53 1 14 49
M  V30 54 1 17 50
M  V30 55 1 19 51
M  V30 56 1 22 52
M  V30 57 1 22 53
M  V30 58 1 22 54
M  V30 59 1 23 55
M  V30 60 1 23 56
M  V30 61 1 23 57
M  V30 62 1 24 58
M  V30 63 1 24 59
M  V30 64 1 24 60
M  V30 65 1 27 61
M  V30 66 1 28 62
M  V30 67 1 30 63
M  V30 68 1 31 64
M  V30 69 1 34 65
M  V30 70 1 34 66
M  V30 71 1 35 67
M  V30 72 1 35 68
M  V30 73 1 36 69
M  V30 74 1 37 70
M  V30 75 1 37 71
M  V30 76 1 38 72
M  V30 77 1 38 73
M  V30 END BOND
M  V30 END CTAB
M  END
>  <Dataset>  (974) 
ChEMBL_Kinases

>  <Ligand_Instance>  (974) 
nan

>  <PDB_ID>  (974) 
nan

>  <Standardized_SMILES>  (974) 
Cc1nc(Nc2cc(-c3ccc(CNC(=O)Nc4cc(C(C)(C)C)on4)cc3)n[nH]2)cc(N2CCNCC2)n1

>  <Name>  (974) 
nan

>  <Pocket>  (974) 
nan

>  <ATP_Site>  (974) 
nan

>  <Peripheral>  (974) 
nan

>  <Num_H_Atoms_ProtBoundConf>  (974) 
nan

>  <Num_Resolved_Atoms>  (974) 
nan

>  <Num_Not_Resolved_Atoms>  (974) 
nan

$$$$
CHEMBL2386808
     RDKit          3D

  0  0  0  0  0  0  0  0  0  0999 V3000
M  V30 BEGIN CTAB
M  V30 COUNTS 80 84 0 0 0
M  V30 BEGIN ATOM
M  V30 1 C -0.229459 -5.720817 0.663469 0
M  V30 2 C 1.146848 -5.179290 0.788254 0
M  V30 3 N 1.662291 -4.861049 2.006751 0
M  V30 4 C 2.908695 -4.369709 2.131359 0
M  V30 5 N 3.319240 -4.071737 3.470211 0
M  V30 6 C 2.987910 -2.722044 3.867156 0
M  V30 7 C 2.336956 -1.767419 3.077484 0
M  V30 8 C 2.193574 -0.582220 3.802121 0
M  V30 9 C 1.554232 0.647124 3.293962 0
M  V30 10 C 1.045828 0.667022 2.010124 0
M  V30 11 C 0.447386 1.781850 1.499358 0
M  V30 12 C 0.322179 2.938190 2.239096 0
M  V30 13 C -0.286925 4.221960 1.856132 0
M  V30 14 N -1.698295 4.299799 2.175095 0
M  V30 15 C -2.740145 3.673692 1.439688 0
M  V30 16 O -2.457673 2.990916 0.423893 0
M  V30 17 N -4.086972 3.825668 1.859016 0
M  V30 18 C -5.183575 3.235427 1.176275 0
M  V30 19 C -5.239329 2.454779 0.043072 0
M  V30 20 C -6.556123 2.124899 -0.217934 0
M  V30 21 C -7.100831 1.297400 -1.337441 0
M  V30 22 C -5.983228 0.831508 -2.253998 0
M  V30 23 C -7.807225 0.055547 -0.832812 0
M  V30 24 C -8.066524 2.164381 -2.109892 0
M  V30 25 O -7.237985 2.694214 0.730276 0
M  V30 26 N -6.471334 3.341531 1.548512 0
M  V30 27 C 0.848749 2.876750 3.531499 0
M  V30 28 C 1.468646 1.749078 4.085033 0
M  V30 29 N 2.755890 -0.855271 4.993162 0
M  V30 30 N 3.212245 -2.083658 5.031750 0
M  V30 31 C 3.726154 -4.163524 1.039422 0
M  V30 32 C 3.166351 -4.497978 -0.173541 0
M  V30 33 N 3.916490 -4.328097 -1.367048 0
M  V30 34 C 3.329120 -4.566477 -2.693253 0
M  V30 35 C 3.193821 -3.212247 -3.386039 0
M  V30 36 N 4.278156 -2.377533 -2.915317 0
M  V30 37 C 4.468160 -1.237240 -3.757183 0
M  V30 38 C 3.297348 -0.306903 -3.629816 0
M  V30 39 O 3.188310 0.108325 -2.301989 0
M  V30 40 C 5.475377 -3.157679 -2.724685 0
M  V30 41 C 5.303180 -3.916851 -1.421523 0
M  V30 42 N 1.920357 -4.988363 -0.292611 0
M  V30 43 H -0.765245 -5.464130 1.607810 0
M  V30 44 H -0.804176 -5.297205 -0.177861 0
M  V30 45 H -0.192254 -6.829059 0.487277 0
M  V30 46 H 3.806929 -4.631814 4.210801 0
M  V30 47 H 1.980174 -1.867399 2.075049 0
M  V30 48 H 1.090940 -0.184944 1.345558 0
M  V30 49 H 0.036700 1.842470 0.501077 0
M  V30 50 H 0.270201 5.099328 2.191451 0
M  V30 51 H -0.254548 4.274145 0.727331 0
M  V30 52 H -1.928923 4.867140 3.014121 0
M  V30 53 H -4.245824 4.396235 2.697861 0
M  V30 54 H -4.387906 2.149366 -0.547236 0
M  V30 55 H -5.566158 1.657020 -2.870409 0
M  V30 56 H -6.397036 0.077535 -2.950793 0
M  V30 57 H -5.143926 0.400266 -1.679103 0
M  V30 58 H -7.323485 -0.242932 0.120278 0
M  V30 59 H -7.627369 -0.786378 -1.530556 0
M  V30 60 H -8.885796 0.234628 -0.634934 0
M  V30 61 H -8.376768 1.722668 -3.078085 0
M  V30 62 H -7.540316 3.125024 -2.327247 0
M  V30 63 H -8.910476 2.406121 -1.443666 0
M  V30 64 H 0.796739 3.748403 4.196946 0
M  V30 65 H 1.848553 1.788065 5.096055 0
M  V30 66 H 3.690308 -2.522460 5.853742 0
M  V30 67 H 4.708833 -3.774222 1.162574 0
M  V30 68 H 4.052402 -5.160232 -3.268214 0
M  V30 69 H 2.370136 -5.086084 -2.638760 0
M  V30 70 H 2.224371 -2.765379 -3.034081 0
M  V30 71 H 3.185592 -3.325540 -4.477464 0
M  V30 72 H 5.388174 -0.688923 -3.427612 0
M  V30 73 H 4.601404 -1.579980 -4.800772 0
M  V30 74 H 2.359052 -0.795191 -3.946883 0
M  V30 75 H 3.406442 0.598332 -4.266449 0
M  V30 76 H 3.407306 1.080085 -2.226345 0
M  V30 77 H 6.390597 -2.538626 -2.685613 0
M  V30 78 H 5.609890 -3.881838 -3.565586 0
M  V30 79 H 5.952518 -4.821237 -1.522977 0
M  V30 80 H 5.616490 -3.265756 -0.590560 0
M  V30 END ATOM
M  V30 BEGIN BOND
M  V30 1 1 1 2
M  V30 2 2 2 3
M  V30 3 1 3 4
M  V30 4 1 4 5
M  V30 5 1 5 6
M  V30 6 2 6 7
M  V30 7 1 7 8
M  V30 8 1 8 9
M  V30 9 2 9 10
M  V30 10 1 10 11
M  V30 11 2 11 12
M  V30 12 1 12 13
M  V30 13 1 13 14
M  V30 14 1 14 15
M  V30 15 2 15 16
M  V30 16 1 15 17
M  V30 17 1 17 18
M  V30 18 1 18 19
M  V30 19 2 19 20
M  V30 20 1 20 21
M  V30 21 1 21 22
M  V30 22 1 21 23
M  V30 23 1 21 24
M  V30 24 1 20 25
M  V30 25 1 25 26
M  V30 26 1 12 27
M  V30 27 2 27 28
M  V30 28 2 8 29
M  V30 29 1 29 30
M  V30 30 2 4 31
M  V30 31 1 31 32
M  V30 32 1 32 33
M  V30 33 1 33 34
M  V30 34 1 34 35
M  V30 35 1 35 36
M  V30 36 1 36 37
M  V30 37 1 37 38
M  V30 38 1 38 39
M  V30 39 1 36 40
M  V30 40 1 40 41
M  V30 41 2 32 42
M  V30 42 1 42 2
M  V30 43 1 30 6
M  V30 44 1 41 33
M  V30 45 1 28 9
M  V30 46 2 26 18
M  V30 47 1 1 43
M  V30 48 1 1 44
M  V30 49 1 1 45
M  V30 50 1 5 46
M  V30 51 1 7 47
M  V30 52 1 10 48
M  V30 53 1 11 49
M  V30 54 1 13 50
M  V30 55 1 13 51
M  V30 56 1 14 52
M  V30 57 1 17 53
M  V30 58 1 19 54
M  V30 59 1 22 55
M  V30 60 1 22 56
M  V30 61 1 22 57
M  V30 62 1 23 58
M  V30 63 1 23 59
M  V30 64 1 23 60
M  V30 65 1 24 61
M  V30 66 1 24 62
M  V30 67 1 24 63
M  V30 68 1 27 64
M  V30 69 1 28 65
M  V30 70 1 30 66
M  V30 71 1 31 67
M  V30 72 1 34 68
M  V30 73 1 34 69
M  V30 74 1 35 70
M  V30 75 1 35 71
M  V30 76 1 37 72
M  V30 77 1 37 73
M  V30 78 1 38 74
M  V30 79 1 38 75
M  V30 80 1 39 76
M  V30 81 1 40 77
M  V30 82 1 40 78
M  V30 83 1 41 79
M  V30 84 1 41 80
M  V30 END BOND
M  V30 END CTAB
M  END
>  <Dataset>  (975) 
ChEMBL_Kinases

>  <Ligand_Instance>  (975) 
nan

>  <PDB_ID>  (975) 
nan

>  <Standardized_SMILES>  (975) 
Cc1nc(Nc2cc(-c3ccc(CNC(=O)Nc4cc(C(C)(C)C)on4)cc3)n[nH]2)cc(N2CCN(CCO)CC2)n1

>  <Name>  (975) 
nan

>  <Pocket>  (975) 
nan

>  <ATP_Site>  (975) 
nan

>  <Peripheral>  (975) 
nan

>  <Num_H_Atoms_ProtBoundConf>  (975) 
nan

>  <Num_Resolved_Atoms>  (975) 
nan

>  <Num_Not_Resolved_Atoms>  (975) 
nan

$$$$
CHEMBL2386275
     RDKit          3D

  0  0  0  0  0  0  0  0  0  0999 V3000
M  V30 BEGIN CTAB
M  V30 COUNTS 57 61 0 0 0
M  V30 BEGIN ATOM
M  V30 1 C -2.113738 -0.548225 4.698581 0
M  V30 2 O -1.022421 -1.239683 4.307310 0
M  V30 3 C -1.087434 -2.360512 3.614726 0
M  V30 4 C -1.657289 -2.420373 2.213291 0
M  V30 5 C -0.934797 -1.557142 1.289536 0
M  V30 6 C 0.415587 -1.942138 1.369349 0
M  V30 7 C 1.425494 -1.224889 0.703950 0
M  V30 8 C 1.053897 -0.101386 -0.053702 0
M  V30 9 C -0.266251 0.227675 -0.107311 0
M  V30 10 C -0.913059 1.214743 -0.812965 0
M  V30 11 C -0.404782 2.249824 -1.750380 0
M  V30 12 C 0.531619 2.068981 -2.663918 0
M  V30 13 C 1.392099 0.968417 -3.148781 0
M  V30 14 C 1.009659 -0.300033 -3.549276 0
M  V30 15 O 2.079702 -1.044049 -3.841916 0
M  V30 16 C 3.166690 -0.318340 -3.650867 0
M  V30 17 C 4.517992 -0.559332 -3.786336 0
M  V30 18 C 5.393242 0.449014 -3.487195 0
M  V30 19 C 5.024108 1.709597 -3.054617 0
M  V30 20 C 3.672808 1.957415 -2.918491 0
M  V30 21 C 2.768251 0.926359 -3.223598 0
M  V30 22 C 0.750116 3.328322 -3.397727 0
M  V30 23 O 1.501682 3.696310 -4.337459 0
M  V30 24 N -0.134422 4.318759 -2.859655 0
M  V30 25 C -0.859899 3.660880 -1.832919 0
M  V30 26 O -1.761980 4.052060 -1.033040 0
M  V30 27 C -2.248145 1.031458 -0.522076 0
M  V30 28 N -2.506987 -0.022212 0.332891 0
M  V30 29 C -3.762707 -0.400047 0.847719 0
M  V30 30 C -4.568957 -1.513858 0.314441 0
M  V30 31 O -4.961467 -1.519755 -0.974225 0
M  V30 32 C -3.992859 -1.763060 -1.880751 0
M  V30 33 C -1.255513 -0.459236 0.536373 0
M  V30 34 H -2.727257 -0.174908 3.873252 0
M  V30 35 H -2.739771 -1.094750 5.455701 0
M  V30 36 H -1.750031 0.369477 5.244766 0
M  V30 37 H -0.075427 -2.872605 3.631864 0
M  V30 38 H -1.789176 -3.073133 4.195023 0
M  V30 39 H -1.628763 -3.509946 1.945147 0
M  V30 40 H -2.733460 -2.112896 2.397718 0
M  V30 41 H 0.909914 -2.765504 1.882546 0
M  V30 42 H 2.493675 -1.441150 0.705042 0
M  V30 43 H 1.825031 0.473083 -0.540115 0
M  V30 44 H 0.020909 -0.695765 -3.634753 0
M  V30 45 H 4.838504 -1.519865 -4.117802 0
M  V30 46 H 6.464323 0.305778 -3.572983 0
M  V30 47 H 5.769786 2.486181 -2.826006 0
M  V30 48 H 3.392278 2.939910 -2.574379 0
M  V30 49 H -0.276933 5.309784 -3.102605 0
M  V30 50 H -3.012219 1.677879 -0.947127 0
M  V30 51 H -4.448185 0.517755 0.561397 0
M  V30 52 H -3.870557 -0.265322 1.957129 0
M  V30 53 H -5.556705 -1.460921 0.924993 0
M  V30 54 H -4.188892 -2.529287 0.647845 0
M  V30 55 H -4.360868 -1.720248 -2.941904 0
M  V30 56 H -3.681118 -2.866815 -1.714597 0
M  V30 57 H -3.085574 -1.211307 -1.757552 0
M  V30 END ATOM
M  V30 BEGIN BOND
M  V30 1 1 1 2
M  V30 2 1 2 3
M  V30 3 1 3 4
M  V30 4 1 4 5
M  V30 5 2 5 6
M  V30 6 1 6 7
M  V30 7 2 7 8
M  V30 8 1 8 9
M  V30 9 1 9 10
M  V30 10 1 10 11
M  V30 11 2 11 12
M  V30 12 1 12 13
M  V30 13 2 13 14
M  V30 14 1 14 15
M  V30 15 1 15 16
M  V30 16 2 16 17
M  V30 17 1 17 18
M  V30 18 2 18 19
M  V30 19 1 19 20
M  V30 20 2 20 21
M  V30 21 1 12 22
M  V30 22 2 22 23
M  V30 23 1 22 24
M  V30 24 1 24 25
M  V30 25 2 25 26
M  V30 26 2 10 27
M  V30 27 1 27 28
M  V30 28 1 28 29
M  V30 29 1 29 30
M  V30 30 1 30 31
M  V30 31 1 31 32
M  V30 32 1 28 33
M  V30 33 1 33 5
M  V30 34 2 33 9
M  V30 35 1 25 11
M  V30 36 1 21 13
M  V30 37 1 21 16
M  V30 38 1 1 34
M  V30 39 1 1 35
M  V30 40 1 1 36
M  V30 41 1 3 37
M  V30 42 1 3 38
M  V30 43 1 4 39
M  V30 44 1 4 40
M  V30 45 1 6 41
M  V30 46 1 7 42
M  V30 47 1 8 43
M  V30 48 1 14 44
M  V30 49 1 17 45
M  V30 50 1 18 46
M  V30 51 1 19 47
M  V30 52 1 20 48
M  V30 53 1 24 49
M  V30 54 1 27 50
M  V30 55 1 29 51
M  V30 56 1 29 52
M  V30 57 1 30 53
M  V30 58 1 30 54
M  V30 59 1 32 55
M  V30 60 1 32 56
M  V30 61 1 32 57
M  V30 END BOND
M  V30 END CTAB
M  END
>  <Dataset>  (976) 
ChEMBL_Kinases

>  <Ligand_Instance>  (976) 
nan

>  <PDB_ID>  (976) 
nan

>  <Standardized_SMILES>  (976) 
COCCc1cccc2c(C3=C(c4coc5ccccc45)C(=O)NC3=O)cn(CCOC)c12

>  <Name>  (976) 
nan

>  <Pocket>  (976) 
nan

>  <ATP_Site>  (976) 
nan

>  <Peripheral>  (976) 
nan

>  <Num_H_Atoms_ProtBoundConf>  (976) 
nan

>  <Num_Resolved_Atoms>  (976) 
nan

>  <Num_Not_Resolved_Atoms>  (976) 
nan

$$$$
CHEMBL2386756
     RDKit          3D

  0  0  0  0  0  0  0  0  0  0999 V3000
M  V30 BEGIN CTAB
M  V30 COUNTS 52 56 0 0 0
M  V30 BEGIN ATOM
M  V30 1 C 1.358550 -1.474833 2.450230 0
M  V30 2 N 2.621666 -2.039486 2.698504 0
M  V30 3 C 2.681338 -3.349006 3.232030 0
M  V30 4 C 3.770876 -1.463078 2.153412 0
M  V30 5 C 3.980779 -1.527573 0.682380 0
M  V30 6 N 2.870340 -0.863751 -0.014096 0
M  V30 7 C 2.845005 0.539696 0.211164 0
M  V30 8 N 3.807892 1.275520 0.547861 0
M  V30 9 C 1.576497 1.300273 0.068912 0
M  V30 10 N 1.201139 2.424918 0.189269 0
M  V30 11 C -0.018850 2.874101 -0.002062 0
M  V30 12 C -0.540085 4.167606 0.122434 0
M  V30 13 C -1.851051 4.399380 -0.123402 0
M  V30 14 C -2.787647 3.467989 -0.502731 0
M  V30 15 N -4.083510 3.619607 -0.758002 0
M  V30 16 C -4.890861 2.608047 -1.122806 0
M  V30 17 N -4.415633 1.334993 -1.255237 0
M  V30 18 C -3.112952 1.084695 -1.016183 0
M  V30 19 N -2.611093 -0.230735 -1.157569 0
M  V30 20 C -2.382873 -1.399469 -0.388823 0
M  V30 21 C -2.622766 -1.397132 0.964912 0
M  V30 22 C -2.358846 -2.602972 1.603732 0
M  V30 23 C -1.891153 -3.715227 0.926616 0
M  V30 24 C -1.674838 -3.640307 -0.434331 0
M  V30 25 C -1.919706 -2.476930 -1.107624 0
M  V30 26 O -1.204053 -4.873603 -0.919972 0
M  V30 27 C -0.850340 -5.645178 0.202874 0
M  V30 28 O -1.541253 -5.024977 1.272370 0
M  V30 29 C -2.349181 2.176422 -0.645825 0
M  V30 30 C -0.979752 1.937829 -0.387491 0
M  V30 31 S 0.033070 0.400207 -0.441033 0
M  V30 32 H 0.841023 -1.746116 1.535464 0
M  V30 33 H 0.680597 -1.785588 3.302492 0
M  V30 34 H 1.405648 -0.368135 2.540254 0
M  V30 35 H 2.008904 -3.356606 4.140576 0
M  V30 36 H 2.269602 -4.146675 2.571020 0
M  V30 37 H 3.692568 -3.555239 3.611016 0
M  V30 38 H 3.791693 -0.370567 2.427811 0
M  V30 39 H 4.686129 -1.880238 2.642121 0
M  V30 40 H 4.957543 -1.041911 0.463946 0
M  V30 41 H 4.070433 -2.561712 0.287761 0
M  V30 42 H 2.131301 -1.284366 -0.627502 0
M  V30 43 H 4.787355 1.065323 0.733244 0
M  V30 44 H 0.091597 5.006168 0.417876 0
M  V30 45 H -2.261068 5.419697 -0.023461 0
M  V30 46 H -5.920710 2.923783 -1.289540 0
M  V30 47 H -2.389374 -0.143141 -2.183949 0
M  V30 48 H -2.986164 -0.546169 1.506327 0
M  V30 49 H -2.526230 -2.676327 2.682593 0
M  V30 50 H -1.741279 -2.439712 -2.178106 0
M  V30 51 H 0.249836 -5.607275 0.330803 0
M  V30 52 H -1.135774 -6.688766 0.043427 0
M  V30 END ATOM
M  V30 BEGIN BOND
M  V30 1 1 1 2
M  V30 2 1 2 3
M  V30 3 1 2 4
M  V30 4 1 4 5
M  V30 5 1 5 6
M  V30 6 1 6 7
M  V30 7 2 7 8 CFG=2
M  V30 8 1 7 9
M  V30 9 2 9 10
M  V30 10 1 10 11
M  V30 11 2 11 12
M  V30 12 1 12 13
M  V30 13 2 13 14
M  V30 14 1 14 15
M  V30 15 2 15 16
M  V30 16 1 16 17
M  V30 17 2 17 18
M  V30 18 1 18 19
M  V30 19 1 19 20
M  V30 20 2 20 21
M  V30 21 1 21 22
M  V30 22 2 22 23
M  V30 23 1 23 24
M  V30 24 2 24 25
M  V30 25 1 24 26
M  V30 26 1 26 27
M  V30 27 1 27 28
M  V30 28 1 18 29
M  V30 29 2 29 30
M  V30 30 1 30 31
M  V30 31 1 31 9
M  V30 32 1 30 11
M  V30 33 1 29 14
M  V30 34 1 25 20
M  V30 35 1 28 23
M  V30 36 1 1 32
M  V30 37 1 1 33
M  V30 38 1 1 34
M  V30 39 1 3 35
M  V30 40 1 3 36
M  V30 41 1 3 37
M  V30 42 1 4 38
M  V30 43 1 4 39
M  V30 44 1 5 40
M  V30 45 1 5 41
M  V30 46 1 6 42
M  V30 47 1 8 43
M  V30 48 1 12 44
M  V30 49 1 13 45
M  V30 50 1 16 46
M  V30 51 1 19 47
M  V30 52 1 21 48
M  V30 53 1 22 49
M  V30 54 1 25 50
M  V30 55 1 27 51
M  V30 56 1 27 52
M  V30 END BOND
M  V30 END CTAB
M  END
>  <Dataset>  (977) 
ChEMBL_Kinases

>  <Ligand_Instance>  (977) 
nan

>  <PDB_ID>  (977) 
nan

>  <Standardized_SMILES>  (977) 
CN(C)CCNC(=N)c1nc2ccc3ncnc(Nc4ccc5c(c4)OCO5)c3c2s1

>  <Name>  (977) 
nan

>  <Pocket>  (977) 
nan

>  <ATP_Site>  (977) 
nan

>  <Peripheral>  (977) 
nan

>  <Num_H_Atoms_ProtBoundConf>  (977) 
nan

>  <Num_Resolved_Atoms>  (977) 
nan

>  <Num_Not_Resolved_Atoms>  (977) 
nan

$$$$
CHEMBL2386757
     RDKit          3D

  0  0  0  0  0  0  0  0  0  0999 V3000
M  V30 BEGIN CTAB
M  V30 COUNTS 34 37 0 0 0
M  V30 BEGIN ATOM
M  V30 1 N -1.040820 -3.578417 3.441933 0
M  V30 2 C 0.280934 -3.869972 3.006779 0
M  V30 3 O 0.500945 -4.982904 3.488279 0
M  V30 4 C 1.106566 -2.937522 2.155682 0
M  V30 5 N 2.083257 -2.760128 1.629145 0
M  V30 6 C 2.503352 -1.742985 0.915430 0
M  V30 7 C 3.710506 -1.544715 0.276168 0
M  V30 8 C 3.947297 -0.395434 -0.423385 0
M  V30 9 C 3.057208 0.645729 -0.566113 0
M  V30 10 N 3.203892 1.802095 -1.226616 0
M  V30 11 C 2.205677 2.730949 -1.260253 0
M  V30 12 N 1.033756 2.523153 -0.631722 0
M  V30 13 C 0.801047 1.372533 0.063996 0
M  V30 14 N -0.434763 1.159572 0.727796 0
M  V30 15 C -1.673931 0.616706 0.293711 0
M  V30 16 C -1.811842 0.183994 -1.007406 0
M  V30 17 C -3.035689 -0.334796 -1.390377 0
M  V30 18 C -4.073176 -0.399116 -0.451831 0
M  V30 19 Br -5.775825 -1.113499 -0.958555 0
M  V30 20 C -3.887147 0.048639 0.846436 0
M  V30 21 C -2.668372 0.571629 1.248522 0
M  V30 22 F -2.502799 1.002687 2.515901 0
M  V30 23 C 1.845772 0.472936 0.061661 0
M  V30 24 C 1.606105 -0.716599 0.783202 0
M  V30 25 S 0.217590 -1.323455 1.715328 0
M  V30 26 H -1.983828 -3.349352 3.801608 0
M  V30 27 H -1.850174 -3.795483 2.786304 0
M  V30 28 H 4.552003 -2.256289 0.270898 0
M  V30 29 H 4.907939 -0.224678 -0.938280 0
M  V30 30 H 2.409949 3.637159 -1.817480 0
M  V30 31 H -0.241392 1.510753 1.688356 0
M  V30 32 H -1.016150 0.228575 -1.743061 0
M  V30 33 H -3.268746 -0.707695 -2.385108 0
M  V30 34 H -4.710748 -0.017557 1.541292 0
M  V30 END ATOM
M  V30 BEGIN BOND
M  V30 1 1 1 2
M  V30 2 2 2 3
M  V30 3 1 2 4
M  V30 4 2 4 5
M  V30 5 1 5 6
M  V30 6 2 6 7
M  V30 7 1 7 8
M  V30 8 2 8 9
M  V30 9 1 9 10
M  V30 10 2 10 11
M  V30 11 1 11 12
M  V30 12 2 12 13
M  V30 13 1 13 14
M  V30 14 1 14 15
M  V30 15 2 15 16
M  V30 16 1 16 17
M  V30 17 2 17 18
M  V30 18 1 18 19
M  V30 19 1 18 20
M  V30 20 2 20 21
M  V30 21 1 21 22
M  V30 22 1 13 23
M  V30 23 2 23 24
M  V30 24 1 24 25
M  V30 25 1 25 4
M  V30 26 1 24 6
M  V30 27 1 23 9
M  V30 28 1 21 15
M  V30 29 1 1 26
M  V30 30 1 1 27
M  V30 31 1 7 28
M  V30 32 1 8 29
M  V30 33 1 11 30
M  V30 34 1 14 31
M  V30 35 1 16 32
M  V30 36 1 17 33
M  V30 37 1 20 34
M  V30 END BOND
M  V30 END CTAB
M  END
>  <Dataset>  (978) 
ChEMBL_Kinases

>  <Ligand_Instance>  (978) 
nan

>  <PDB_ID>  (978) 
nan

>  <Standardized_SMILES>  (978) 
NC(=O)c1nc2ccc3ncnc(Nc4ccc(Br)cc4F)c3c2s1

>  <Name>  (978) 
nan

>  <Pocket>  (978) 
nan

>  <ATP_Site>  (978) 
nan

>  <Peripheral>  (978) 
nan

>  <Num_H_Atoms_ProtBoundConf>  (978) 
nan

>  <Num_Resolved_Atoms>  (978) 
nan

>  <Num_Not_Resolved_Atoms>  (978) 
nan

$$$$
CHEMBL2386788
     RDKit          3D

  0  0  0  0  0  0  0  0  0  0999 V3000
M  V30 BEGIN CTAB
M  V30 COUNTS 65 69 0 0 0
M  V30 BEGIN ATOM
M  V30 1 C 10.638619 -0.984500 1.710639 0
M  V30 2 C 10.068301 0.320777 1.260441 0
M  V30 3 C 9.009755 1.080936 1.765612 0
M  V30 4 C 8.896826 2.220832 0.966380 0
M  V30 5 N 7.862028 3.121248 1.334770 0
M  V30 6 C 6.518028 3.147972 0.910581 0
M  V30 7 O 6.268533 2.211810 0.085541 0
M  V30 8 N 5.629155 4.122658 1.389704 0
M  V30 9 C 4.308943 4.008690 0.869438 0
M  V30 10 C 3.701395 4.555072 -0.239860 0
M  V30 11 C 2.387496 4.286423 -0.537003 0
M  V30 12 C 1.623746 3.461943 0.257760 0
M  V30 13 C 0.227796 3.201856 -0.070074 0
M  V30 14 C -0.599209 2.374021 0.695384 0
M  V30 15 C -1.807871 2.425663 0.023112 0
M  V30 16 N -2.968546 1.723905 0.447679 0
M  V30 17 C -3.423488 0.469103 0.095606 0
M  V30 18 O -2.366426 0.361675 -0.691475 0
M  V30 19 C -4.022445 -0.778911 -0.152542 0
M  V30 20 C -3.696944 -1.817905 -0.959251 0
M  V30 21 C -4.527802 -2.919364 -0.945900 0
M  V30 22 C -5.643896 -2.971718 -0.149906 0
M  V30 23 N -6.433345 -4.175181 -0.233335 0
M  V30 24 C -6.500314 -5.048627 -1.384800 0
M  V30 25 C -6.693698 -6.456563 -0.917252 0
M  V30 26 N -5.976392 -6.679183 0.307780 0
M  V30 27 C -4.597362 -6.296846 0.115871 0
M  V30 28 C -6.516836 -5.900982 1.403844 0
M  V30 29 C -7.271972 -4.688444 0.869269 0
M  V30 30 C -6.029081 -1.949367 0.690827 0
M  V30 31 C -5.164598 -0.836733 0.658948 0
M  V30 32 N -1.749245 3.209364 -1.061012 0
M  V30 33 N -0.512824 3.661195 -1.090452 0
M  V30 34 C 2.216620 2.917774 1.354953 0
M  V30 35 C 3.548743 3.164528 1.694243 0
M  V30 36 N 9.878539 2.091510 0.034820 0
M  V30 37 O 10.523408 0.995476 0.236761 0
M  V30 38 H 11.041884 -1.513685 0.822610 0
M  V30 39 H 11.407274 -0.840636 2.497517 0
M  V30 40 H 9.825061 -1.595655 2.140295 0
M  V30 41 H 8.461981 0.716965 2.637787 0
M  V30 42 H 8.277852 3.798497 2.010431 0
M  V30 43 H 6.008847 4.836489 2.076880 0
M  V30 44 H 4.399561 5.179675 -0.781489 0
M  V30 45 H 2.003223 4.762018 -1.426667 0
M  V30 46 H -0.358761 1.824419 1.592961 0
M  V30 47 H -3.839894 1.831534 1.101940 0
M  V30 48 H -2.810053 -1.716677 -1.558983 0
M  V30 49 H -4.155477 -3.681679 -1.631225 0
M  V30 50 H -7.375503 -4.681274 -1.982660 0
M  V30 51 H -5.600726 -4.949515 -2.041511 0
M  V30 52 H -7.804832 -6.578646 -0.767504 0
M  V30 53 H -6.340431 -7.127472 -1.735255 0
M  V30 54 H -4.307291 -5.375101 0.654006 0
M  V30 55 H -4.368005 -6.145867 -0.960283 0
M  V30 56 H -3.981112 -7.170451 0.432345 0
M  V30 57 H -7.235668 -6.539114 1.951325 0
M  V30 58 H -5.731697 -5.587771 2.116478 0
M  V30 59 H -8.266710 -4.979314 0.541091 0
M  V30 60 H -7.251950 -3.950949 1.675730 0
M  V30 61 H -6.916198 -2.031545 1.295051 0
M  V30 62 H -5.570572 -0.084122 1.363369 0
M  V30 63 H -2.490892 3.441461 -1.756370 0
M  V30 64 H 1.603222 2.264362 1.979732 0
M  V30 65 H 3.890167 2.656138 2.610088 0
M  V30 END ATOM
M  V30 BEGIN BOND
M  V30 1 1 1 2
M  V30 2 2 2 3
M  V30 3 1 3 4
M  V30 4 1 4 5
M  V30 5 1 5 6
M  V30 6 2 6 7
M  V30 7 1 6 8
M  V30 8 1 8 9
M  V30 9 2 9 10
M  V30 10 1 10 11
M  V30 11 2 11 12
M  V30 12 1 12 13
M  V30 13 1 13 14
M  V30 14 2 14 15
M  V30 15 1 15 16
M  V30 16 1 16 17
M  V30 17 2 17 18
M  V30 18 1 17 19
M  V30 19 2 19 20
M  V30 20 1 20 21
M  V30 21 2 21 22
M  V30 22 1 22 23
M  V30 23 1 23 24
M  V30 24 1 24 25
M  V30 25 1 25 26
M  V30 26 1 26 27
M  V30 27 1 26 28
M  V30 28 1 28 29
M  V30 29 1 22 30
M  V30 30 2 30 31
M  V30 31 1 15 32
M  V30 32 1 32 33
M  V30 33 1 12 34
M  V30 34 2 34 35
M  V30 35 2 4 36
M  V30 36 1 36 37
M  V30 37 1 37 2
M  V30 38 1 35 9
M  V30 39 2 33 13
M  V30 40 1 31 19
M  V30 41 1 29 23
M  V30 42 1 1 38
M  V30 43 1 1 39
M  V30 44 1 1 40
M  V30 45 1 3 41
M  V30 46 1 5 42
M  V30 47 1 8 43
M  V30 48 1 10 44
M  V30 49 1 11 45
M  V30 50 1 14 46
M  V30 51 1 16 47
M  V30 52 1 20 48
M  V30 53 1 21 49
M  V30 54 1 24 50
M  V30 55 1 24 51
M  V30 56 1 25 52
M  V30 57 1 25 53
M  V30 58 1 27 54
M  V30 59 1 27 55
M  V30 60 1 27 56
M  V30 61 1 28 57
M  V30 62 1 28 58
M  V30 63 1 29 59
M  V30 64 1 29 60
M  V30 65 1 30 61
M  V30 66 1 31 62
M  V30 67 1 32 63
M  V30 68 1 34 64
M  V30 69 1 35 65
M  V30 END BOND
M  V30 END CTAB
M  END
>  <Dataset>  (979) 
ChEMBL_Kinases

>  <Ligand_Instance>  (979) 
nan

>  <PDB_ID>  (979) 
nan

>  <Standardized_SMILES>  (979) 
Cc1cc(NC(=O)Nc2ccc(-c3cc(NC(=O)c4ccc(N5CCN(C)CC5)cc4)[nH]n3)cc2)no1

>  <Name>  (979) 
nan

>  <Pocket>  (979) 
nan

>  <ATP_Site>  (979) 
nan

>  <Peripheral>  (979) 
nan

>  <Num_H_Atoms_ProtBoundConf>  (979) 
nan

>  <Num_Resolved_Atoms>  (979) 
nan

>  <Num_Not_Resolved_Atoms>  (979) 
nan

$$$$
CHEMBL2386789
     RDKit          3D

  0  0  0  0  0  0  0  0  0  0999 V3000
M  V30 BEGIN CTAB
M  V30 COUNTS 74 78 0 0 0
M  V30 BEGIN ATOM
M  V30 1 C 9.085434 -2.764948 5.372834 0
M  V30 2 N 8.276790 -2.611591 4.204049 0
M  V30 3 C 7.490666 -3.788833 3.968587 0
M  V30 4 C 6.663076 -3.694728 2.724989 0
M  V30 5 N 6.924290 -2.483277 1.972018 0
M  V30 6 C 5.956177 -1.540420 1.543064 0
M  V30 7 C 4.672598 -1.521812 2.026125 0
M  V30 8 C 3.668511 -0.629773 1.634954 0
M  V30 9 C 4.030012 0.304248 0.675610 0
M  V30 10 C 2.961448 1.242247 0.271390 0
M  V30 11 O 1.844587 1.172091 0.873842 0
M  V30 12 N 3.011984 2.245041 -0.731413 0
M  V30 13 C 1.721270 2.859656 -0.714725 0
M  V30 14 C 0.651490 2.404372 -1.461487 0
M  V30 15 C -0.443577 3.223923 -1.214594 0
M  V30 16 C -1.766923 3.055360 -1.816713 0
M  V30 17 C -1.995116 2.025017 -2.709591 0
M  V30 18 C -3.277747 1.895751 -3.248347 0
M  V30 19 C -4.247878 2.776548 -2.881162 0
M  V30 20 N -5.489939 2.439390 -3.547874 0
M  V30 21 C -6.197762 1.534896 -2.704438 0
M  V30 22 O -5.640538 1.238708 -1.617256 0
M  V30 23 N -7.479999 0.901688 -2.921509 0
M  V30 24 C -8.018774 0.012547 -1.921386 0
M  V30 25 C -7.698224 -1.326646 -1.956502 0
M  V30 26 C -8.328759 -1.954585 -0.901798 0
M  V30 27 C -8.290975 -3.388829 -0.516374 0
M  V30 28 C -9.381980 -4.167675 -1.172783 0
M  V30 29 C -8.399572 -3.447800 1.008365 0
M  V30 30 C -6.950734 -4.014076 -0.871558 0
M  V30 31 O -9.000292 -0.995074 -0.271543 0
M  V30 32 N -8.829493 0.149997 -0.851937 0
M  V30 33 C -4.060643 3.819218 -1.993620 0
M  V30 34 C -2.772637 3.930681 -1.467542 0
M  V30 35 N 0.023513 4.128276 -0.335109 0
M  V30 36 N 1.284575 3.931052 -0.031460 0
M  V30 37 C 5.300040 0.329071 0.159759 0
M  V30 38 C 6.234546 -0.584291 0.596935 0
M  V30 39 C 8.335084 -2.384596 1.738102 0
M  V30 40 C 9.001998 -2.115499 3.077943 0
M  V30 41 H 9.469076 -3.792867 5.545508 0
M  V30 42 H 8.572640 -2.380093 6.280774 0
M  V30 43 H 9.995484 -2.123993 5.267508 0
M  V30 44 H 6.765671 -3.835824 4.832273 0
M  V30 45 H 8.065536 -4.731392 4.018350 0
M  V30 46 H 5.577454 -3.805401 2.932042 0
M  V30 47 H 6.965860 -4.581075 2.083433 0
M  V30 48 H 4.338555 -2.230530 2.782616 0
M  V30 49 H 2.673016 -0.689565 2.075755 0
M  V30 50 H 3.917190 2.315979 -1.234534 0
M  V30 51 H 0.684968 1.539627 -2.127923 0
M  V30 52 H -1.173935 1.370617 -2.947760 0
M  V30 53 H -3.347235 1.066033 -3.928517 0
M  V30 54 H -6.016703 2.649601 -4.440854 0
M  V30 55 H -7.869241 1.209399 -3.854364 0
M  V30 56 H -7.079360 -1.893141 -2.635939 0
M  V30 57 H -10.348971 -3.673852 -0.988842 0
M  V30 58 H -9.172527 -4.165447 -2.263364 0
M  V30 59 H -9.359671 -5.206602 -0.776060 0
M  V30 60 H -9.421514 -3.313340 1.371797 0
M  V30 61 H -7.948835 -4.440558 1.298342 0
M  V30 62 H -7.736784 -2.660562 1.438513 0
M  V30 63 H -6.933113 -4.404458 -1.907537 0
M  V30 64 H -6.755466 -4.828638 -0.141104 0
M  V30 65 H -6.142726 -3.258993 -0.774312 0
M  V30 66 H -4.919080 4.435815 -1.798702 0
M  V30 67 H -2.650520 4.766621 -0.762472 0
M  V30 68 H 1.865277 4.504735 0.628795 0
M  V30 69 H 5.547916 1.086502 -0.599618 0
M  V30 70 H 7.206899 -0.495806 0.139452 0
M  V30 71 H 8.765288 -3.367772 1.380811 0
M  V30 72 H 8.647160 -1.571039 1.063759 0
M  V30 73 H 10.046416 -2.504545 2.991126 0
M  V30 74 H 9.140958 -1.009971 3.254668 0
M  V30 END ATOM
M  V30 BEGIN BOND
M  V30 1 1 1 2
M  V30 2 1 2 3
M  V30 3 1 3 4
M  V30 4 1 4 5
M  V30 5 1 5 6
M  V30 6 2 6 7
M  V30 7 1 7 8
M  V30 8 2 8 9
M  V30 9 1 9 10
M  V30 10 2 10 11
M  V30 11 1 10 12
M  V30 12 1 12 13
M  V30 13 2 13 14
M  V30 14 1 14 15
M  V30 15 1 15 16
M  V30 16 2 16 17
M  V30 17 1 17 18
M  V30 18 2 18 19
M  V30 19 1 19 20
M  V30 20 1 20 21
M  V30 21 2 21 22
M  V30 22 1 21 23
M  V30 23 1 23 24
M  V30 24 1 24 25
M  V30 25 2 25 26
M  V30 26 1 26 27
M  V30 27 1 27 28
M  V30 28 1 27 29
M  V30 29 1 27 30
M  V30 30 1 26 31
M  V30 31 1 31 32
M  V30 32 1 19 33
M  V30 33 2 33 34
M  V30 34 2 15 35
M  V30 35 1 35 36
M  V30 36 1 9 37
M  V30 37 2 37 38
M  V30 38 1 5 39
M  V30 39 1 39 40
M  V30 40 1 40 2
M  V30 41 1 38 6
M  V30 42 1 36 13
M  V30 43 1 34 16
M  V30 44 2 32 24
M  V30 45 1 1 41
M  V30 46 1 1 42
M  V30 47 1 1 43
M  V30 48 1 3 44
M  V30 49 1 3 45
M  V30 50 1 4 46
M  V30 51 1 4 47
M  V30 52 1 7 48
M  V30 53 1 8 49
M  V30 54 1 12 50
M  V30 55 1 14 51
M  V30 56 1 17 52
M  V30 57 1 18 53
M  V30 58 1 20 54
M  V30 59 1 23 55
M  V30 60 1 25 56
M  V30 61 1 28 57
M  V30 62 1 28 58
M  V30 63 1 28 59
M  V30 64 1 29 60
M  V30 65 1 29 61
M  V30 66 1 29 62
M  V30 67 1 30 63
M  V30 68 1 30 64
M  V30 69 1 30 65
M  V30 70 1 33 66
M  V30 71 1 34 67
M  V30 72 1 36 68
M  V30 73 1 37 69
M  V30 74 1 38 70
M  V30 75 1 39 71
M  V30 76 1 39 72
M  V30 77 1 40 73
M  V30 78 1 40 74
M  V30 END BOND
M  V30 END CTAB
M  END
>  <Dataset>  (980) 
ChEMBL_Kinases

>  <Ligand_Instance>  (980) 
nan

>  <PDB_ID>  (980) 
nan

>  <Standardized_SMILES>  (980) 
CN1CCN(c2ccc(C(=O)Nc3cc(-c4ccc(NC(=O)Nc5cc(C(C)(C)C)on5)cc4)n[nH]3)cc2)CC1

>  <Name>  (980) 
nan

>  <Pocket>  (980) 
nan

>  <ATP_Site>  (980) 
nan

>  <Peripheral>  (980) 
nan

>  <Num_H_Atoms_ProtBoundConf>  (980) 
nan

>  <Num_Resolved_Atoms>  (980) 
nan

>  <Num_Not_Resolved_Atoms>  (980) 
nan

$$$$
CHEMBL2386790
     RDKit          3D

  0  0  0  0  0  0  0  0  0  0999 V3000
M  V30 BEGIN CTAB
M  V30 COUNTS 68 72 0 0 0
M  V30 BEGIN ATOM
M  V30 1 C 9.207564 2.730505 8.725510 0
M  V30 2 C 8.916443 1.979194 7.477040 0
M  V30 3 C 8.804246 2.507427 6.214424 0
M  V30 4 C 8.528092 1.519843 5.294247 0
M  V30 5 N 8.306574 1.417802 3.892707 0
M  V30 6 C 6.985076 1.540328 3.383063 0
M  V30 7 O 6.013715 1.744426 4.190011 0
M  V30 8 N 6.627717 1.454402 2.018076 0
M  V30 9 C 5.299730 1.576725 1.528229 0
M  V30 10 C 4.571850 0.399636 1.452618 0
M  V30 11 C 3.272824 0.399247 0.992347 0
M  V30 12 C 2.663633 1.594974 0.591576 0
M  V30 13 C 1.273329 1.578004 0.095722 0
M  V30 14 C 0.498138 0.443658 -0.014961 0
M  V30 15 C -0.755185 0.748561 -0.514784 0
M  V30 16 N -1.823315 -0.155605 -0.765602 0
M  V30 17 C -3.070974 0.172080 -1.304399 0
M  V30 18 O -3.303638 1.364755 -1.606141 0
M  V30 19 C -4.150473 -0.773525 -1.555661 0
M  V30 20 C -5.316872 -0.345472 -2.163745 0
M  V30 21 C -6.332915 -1.246460 -2.397276 0
M  V30 22 C -6.260257 -2.577984 -2.056484 0
M  V30 23 N -7.252395 -3.566412 -2.292339 0
M  V30 24 C -8.339856 -3.666899 -3.248390 0
M  V30 25 C -8.349659 -5.041342 -3.901669 0
M  V30 26 N -7.056712 -5.644857 -3.726417 0
M  V30 27 C -6.863253 -6.865437 -4.452074 0
M  V30 28 C -6.888366 -5.962112 -2.322697 0
M  V30 29 C -7.367422 -4.785472 -1.520753 0
M  V30 30 C -5.093963 -3.048444 -1.439363 0
M  V30 31 C -4.101094 -2.113907 -1.223303 0
M  V30 32 N -0.703058 2.078741 -0.694736 0
M  V30 33 N 0.472706 2.568080 -0.342135 0
M  V30 34 C 3.367107 2.768339 0.659569 0
M  V30 35 C 4.662735 2.726153 1.124341 0
M  V30 36 C 5.532605 3.950510 1.240362 0
M  V30 37 N 8.483309 0.391364 6.070202 0
M  V30 38 O 8.708181 0.692893 7.302048 0
M  V30 39 H 10.030935 2.262741 9.304361 0
M  V30 40 H 8.248164 2.791619 9.319014 0
M  V30 41 H 9.437335 3.781997 8.457390 0
M  V30 42 H 8.896589 3.530389 5.866510 0
M  V30 43 H 9.035593 1.249563 3.136121 0
M  V30 44 H 7.449522 1.284145 1.367284 0
M  V30 45 H 5.017771 -0.553707 1.757612 0
M  V30 46 H 2.749043 -0.549944 0.955183 0
M  V30 47 H 0.797017 -0.560487 0.246652 0
M  V30 48 H -1.667841 -1.157755 -0.529315 0
M  V30 49 H -5.475164 0.687851 -2.470182 0
M  V30 50 H -7.250287 -0.918980 -2.870829 0
M  V30 51 H -8.306732 -2.861877 -4.004862 0
M  V30 52 H -9.301593 -3.571030 -2.708292 0
M  V30 53 H -8.550945 -4.909769 -5.003083 0
M  V30 54 H -9.104043 -5.725743 -3.466573 0
M  V30 55 H -7.324152 -6.770469 -5.443834 0
M  V30 56 H -5.781679 -7.047626 -4.631269 0
M  V30 57 H -7.288644 -7.725102 -3.859950 0
M  V30 58 H -7.482567 -6.847562 -2.022142 0
M  V30 59 H -5.803751 -6.118243 -2.146852 0
M  V30 60 H -6.697631 -4.715408 -0.613054 0
M  V30 61 H -8.385498 -4.922026 -1.091191 0
M  V30 62 H -4.865348 -4.069813 -1.107417 0
M  V30 63 H -3.184068 -2.446051 -0.749273 0
M  V30 64 H -1.470571 2.690078 -1.064496 0
M  V30 65 H 2.940733 3.722951 0.360955 0
M  V30 66 H 6.384132 3.865428 0.518247 0
M  V30 67 H 4.970927 4.875042 1.055460 0
M  V30 68 H 5.999365 3.995204 2.263433 0
M  V30 END ATOM
M  V30 BEGIN BOND
M  V30 1 1 1 2
M  V30 2 2 2 3
M  V30 3 1 3 4
M  V30 4 1 4 5
M  V30 5 1 5 6
M  V30 6 2 6 7
M  V30 7 1 6 8
M  V30 8 1 8 9
M  V30 9 2 9 10
M  V30 10 1 10 11
M  V30 11 2 11 12
M  V30 12 1 12 13
M  V30 13 1 13 14
M  V30 14 2 14 15
M  V30 15 1 15 16
M  V30 16 1 16 17
M  V30 17 2 17 18
M  V30 18 1 17 19
M  V30 19 2 19 20
M  V30 20 1 20 21
M  V30 21 2 21 22
M  V30 22 1 22 23
M  V30 23 1 23 24
M  V30 24 1 24 25
M  V30 25 1 25 26
M  V30 26 1 26 27
M  V30 27 1 26 28
M  V30 28 1 28 29
M  V30 29 1 22 30
M  V30 30 2 30 31
M  V30 31 1 15 32
M  V30 32 1 32 33
M  V30 33 1 12 34
M  V30 34 2 34 35
M  V30 35 1 35 36
M  V30 36 2 4 37
M  V30 37 1 37 38
M  V30 38 1 38 2
M  V30 39 1 35 9
M  V30 40 2 33 13
M  V30 41 1 31 19
M  V30 42 1 29 23
M  V30 43 1 1 39
M  V30 44 1 1 40
M  V30 45 1 1 41
M  V30 46 1 3 42
M  V30 47 1 5 43
M  V30 48 1 8 44
M  V30 49 1 10 45
M  V30 50 1 11 46
M  V30 51 1 14 47
M  V30 52 1 16 48
M  V30 53 1 20 49
M  V30 54 1 21 50
M  V30 55 1 24 51
M  V30 56 1 24 52
M  V30 57 1 25 53
M  V30 58 1 25 54
M  V30 59 1 27 55
M  V30 60 1 27 56
M  V30 61 1 27 57
M  V30 62 1 28 58
M  V30 63 1 28 59
M  V30 64 1 29 60
M  V30 65 1 29 61
M  V30 66 1 30 62
M  V30 67 1 31 63
M  V30 68 1 32 64
M  V30 69 1 34 65
M  V30 70 1 36 66
M  V30 71 1 36 67
M  V30 72 1 36 68
M  V30 END BOND
M  V30 END CTAB
M  END
>  <Dataset>  (981) 
ChEMBL_Kinases

>  <Ligand_Instance>  (981) 
nan

>  <PDB_ID>  (981) 
nan

>  <Standardized_SMILES>  (981) 
Cc1cc(NC(=O)Nc2ccc(-c3cc(NC(=O)c4ccc(N5CCN(C)CC5)cc4)[nH]n3)cc2C)no1

>  <Name>  (981) 
nan

>  <Pocket>  (981) 
nan

>  <ATP_Site>  (981) 
nan

>  <Peripheral>  (981) 
nan

>  <Num_H_Atoms_ProtBoundConf>  (981) 
nan

>  <Num_Resolved_Atoms>  (981) 
nan

>  <Num_Not_Resolved_Atoms>  (981) 
nan

$$$$
CHEMBL2386791
     RDKit          3D

  0  0  0  0  0  0  0  0  0  0999 V3000
M  V30 BEGIN CTAB
M  V30 COUNTS 65 69 0 0 0
M  V30 BEGIN ATOM
M  V30 1 C 8.584285 -1.401146 5.412521 0
M  V30 2 C 8.672849 -0.321806 4.399288 0
M  V30 3 C 7.918702 0.826025 4.376096 0
M  V30 4 C 8.321861 1.562222 3.258967 0
M  V30 5 N 7.659486 2.815004 3.028933 0
M  V30 6 C 6.487851 2.862304 2.216544 0
M  V30 7 O 6.054545 1.796283 1.707832 0
M  V30 8 N 5.741620 4.046821 1.920590 0
M  V30 9 C 4.618594 3.729956 1.069527 0
M  V30 10 C 4.702649 3.755750 -0.309239 0
M  V30 11 C 3.571677 3.421868 -1.023764 0
M  V30 12 C 2.379998 3.069281 -0.412323 0
M  V30 13 C 1.196738 2.705541 -1.176025 0
M  V30 14 C -0.012937 2.318470 -0.619372 0
M  V30 15 C -0.829186 2.051570 -1.725340 0
M  V30 16 N -2.185974 1.611375 -1.449430 0
M  V30 17 C -2.115012 0.180051 -1.347822 0
M  V30 18 O -0.920561 -0.240791 -1.527121 0
M  V30 19 C -3.261197 -0.692269 -1.068873 0
M  V30 20 C -4.601642 -0.273690 -1.074684 0
M  V30 21 C -5.592168 -1.214271 -0.779093 0
M  V30 22 C -5.262369 -2.521355 -0.488491 0
M  V30 23 N -6.287555 -3.468504 -0.214628 0
M  V30 24 C -7.521221 -3.492442 -0.948942 0
M  V30 25 C -7.570913 -4.799936 -1.692664 0
M  V30 26 N -6.859980 -5.879213 -1.115710 0
M  V30 27 C -5.728764 -6.360411 -1.856543 0
M  V30 28 C -6.591426 -5.839276 0.277770 0
M  V30 29 C -6.267876 -4.492481 0.814070 0
M  V30 30 C -3.942050 -2.906714 -0.490316 0
M  V30 31 C -2.919154 -2.000047 -0.779454 0
M  V30 32 N -0.153153 2.264027 -2.868544 0
M  V30 33 N 1.053816 2.655036 -2.506076 0
M  V30 34 C 2.386794 3.071955 0.965310 0
M  V30 35 C 3.463177 3.389495 1.766874 0
M  V30 36 Cl 3.336685 3.356529 3.508284 0
M  V30 37 N 9.283026 0.812664 2.692844 0
M  V30 38 O 9.475314 -0.290231 3.375777 0
M  V30 39 H 9.458568 -2.095902 5.315164 0
M  V30 40 H 7.660908 -1.999309 5.233863 0
M  V30 41 H 8.558695 -1.007400 6.435363 0
M  V30 42 H 7.161996 1.043586 5.133068 0
M  V30 43 H 7.931415 3.747748 3.397831 0
M  V30 44 H 6.114071 4.925806 2.354193 0
M  V30 45 H 5.639178 4.032860 -0.794008 0
M  V30 46 H 3.581606 3.424677 -2.120172 0
M  V30 47 H -0.205149 2.260485 0.439202 0
M  V30 48 H -3.128997 2.063379 -1.316213 0
M  V30 49 H -4.768181 0.767653 -1.317373 0
M  V30 50 H -6.605157 -0.848432 -0.789541 0
M  V30 51 H -7.595893 -2.676965 -1.700075 0
M  V30 52 H -8.426462 -3.426024 -0.310822 0
M  V30 53 H -7.130586 -4.613092 -2.716241 0
M  V30 54 H -8.637795 -5.073052 -1.923151 0
M  V30 55 H -5.872823 -7.472824 -1.997774 0
M  V30 56 H -5.672941 -5.832307 -2.815667 0
M  V30 57 H -4.806023 -6.176867 -1.225550 0
M  V30 58 H -7.370168 -6.304186 0.931162 0
M  V30 59 H -5.681420 -6.480056 0.469976 0
M  V30 60 H -5.294064 -4.405468 1.335376 0
M  V30 61 H -7.036820 -4.163317 1.560080 0
M  V30 62 H -3.731207 -3.939260 -0.265110 0
M  V30 63 H -1.911465 -2.360788 -0.766390 0
M  V30 64 H -0.669209 2.089965 -3.750012 0
M  V30 65 H 1.470331 2.803638 1.490841 0
M  V30 END ATOM
M  V30 BEGIN BOND
M  V30 1 1 1 2
M  V30 2 2 2 3
M  V30 3 1 3 4
M  V30 4 1 4 5
M  V30 5 1 5 6
M  V30 6 2 6 7
M  V30 7 1 6 8
M  V30 8 1 8 9
M  V30 9 2 9 10
M  V30 10 1 10 11
M  V30 11 2 11 12
M  V30 12 1 12 13
M  V30 13 1 13 14
M  V30 14 2 14 15
M  V30 15 1 15 16
M  V30 16 1 16 17
M  V30 17 2 17 18
M  V30 18 1 17 19
M  V30 19 2 19 20
M  V30 20 1 20 21
M  V30 21 2 21 22
M  V30 22 1 22 23
M  V30 23 1 23 24
M  V30 24 1 24 25
M  V30 25 1 25 26
M  V30 26 1 26 27
M  V30 27 1 26 28
M  V30 28 1 28 29
M  V30 29 1 22 30
M  V30 30 2 30 31
M  V30 31 1 15 32
M  V30 32 1 32 33
M  V30 33 1 12 34
M  V30 34 2 34 35
M  V30 35 1 35 36
M  V30 36 2 4 37
M  V30 37 1 37 38
M  V30 38 1 38 2
M  V30 39 1 35 9
M  V30 40 2 33 13
M  V30 41 1 31 19
M  V30 42 1 29 23
M  V30 43 1 1 39
M  V30 44 1 1 40
M  V30 45 1 1 41
M  V30 46 1 3 42
M  V30 47 1 5 43
M  V30 48 1 8 44
M  V30 49 1 10 45
M  V30 50 1 11 46
M  V30 51 1 14 47
M  V30 52 1 16 48
M  V30 53 1 20 49
M  V30 54 1 21 50
M  V30 55 1 24 51
M  V30 56 1 24 52
M  V30 57 1 25 53
M  V30 58 1 25 54
M  V30 59 1 27 55
M  V30 60 1 27 56
M  V30 61 1 27 57
M  V30 62 1 28 58
M  V30 63 1 28 59
M  V30 64 1 29 60
M  V30 65 1 29 61
M  V30 66 1 30 62
M  V30 67 1 31 63
M  V30 68 1 32 64
M  V30 69 1 34 65
M  V30 END BOND
M  V30 END CTAB
M  END
>  <Dataset>  (982) 
ChEMBL_Kinases

>  <Ligand_Instance>  (982) 
nan

>  <PDB_ID>  (982) 
nan

>  <Standardized_SMILES>  (982) 
Cc1cc(NC(=O)Nc2ccc(-c3cc(NC(=O)c4ccc(N5CCN(C)CC5)cc4)[nH]n3)cc2Cl)no1

>  <Name>  (982) 
nan

>  <Pocket>  (982) 
nan

>  <ATP_Site>  (982) 
nan

>  <Peripheral>  (982) 
nan

>  <Num_H_Atoms_ProtBoundConf>  (982) 
nan

>  <Num_Resolved_Atoms>  (982) 
nan

>  <Num_Not_Resolved_Atoms>  (982) 
nan

$$$$
CHEMBL2386792
     RDKit          3D

  0  0  0  0  0  0  0  0  0  0999 V3000
M  V30 BEGIN CTAB
M  V30 COUNTS 76 80 0 0 0
M  V30 BEGIN ATOM
M  V30 1 C 8.492847 -3.162210 5.631344 0
M  V30 2 C 9.588789 -2.123488 5.469460 0
M  V30 3 C 9.723005 -1.369066 6.784906 0
M  V30 4 C 10.873511 -2.867723 5.259287 0
M  V30 5 C 9.289961 -1.215979 4.348362 0
M  V30 6 C 8.592266 -0.004827 4.291092 0
M  V30 7 C 8.615657 0.427885 2.959360 0
M  V30 8 N 7.921829 1.666125 2.804525 0
M  V30 9 C 6.530982 1.590868 2.509908 0
M  V30 10 O 5.965885 0.450451 2.394038 0
M  V30 11 N 5.652000 2.705898 2.320235 0
M  V30 12 C 4.282492 2.440250 2.031152 0
M  V30 13 C 3.486138 2.329055 3.155283 0
M  V30 14 C 2.133064 2.071968 3.021562 0
M  V30 15 C 1.622376 1.933887 1.739249 0
M  V30 16 C 0.190928 1.660518 1.649403 0
M  V30 17 C -0.520669 1.490093 0.481733 0
M  V30 18 C -1.827851 1.254557 0.859139 0
M  V30 19 N -3.028867 1.007597 0.138174 0
M  V30 20 C -3.187652 -0.384832 -0.083971 0
M  V30 21 O -2.263169 -1.102501 0.384461 0
M  V30 22 C -4.307117 -0.996161 -0.789606 0
M  V30 23 C -5.318716 -0.187085 -1.255506 0
M  V30 24 C -6.361379 -0.783080 -1.918953 0
M  V30 25 C -6.494777 -2.125760 -2.166883 0
M  V30 26 O -7.362649 -2.978656 -2.767554 0
M  V30 27 C -8.553546 -2.694974 -3.421478 0
M  V30 28 C -8.385291 -1.837911 -4.630588 0
M  V30 29 N -9.673341 -1.587991 -5.258654 0
M  V30 30 C -9.455645 -0.741978 -6.418041 0
M  V30 31 C -8.884107 -1.698030 -7.424110 0
M  V30 32 C -9.326236 -3.076586 -6.996649 0
M  V30 33 C -10.263431 -2.749692 -5.852888 0
M  V30 34 C -5.436835 -2.915333 -1.672190 0
M  V30 35 C -4.342994 -2.361172 -0.984826 0
M  V30 36 N -1.881784 1.286030 2.217299 0
M  V30 37 N -0.649403 1.533619 2.692829 0
M  V30 38 C 2.383240 2.037795 0.590307 0
M  V30 39 C 3.727509 2.294832 0.775297 0
M  V30 40 N 9.293468 -0.497816 2.307381 0
M  V30 41 O 9.679331 -1.443653 3.116889 0
M  V30 42 H 7.528221 -2.811813 5.226328 0
M  V30 43 H 8.454561 -3.431510 6.700669 0
M  V30 44 H 8.770829 -4.103412 5.079794 0
M  V30 45 H 10.684079 -0.785331 6.695641 0
M  V30 46 H 9.755278 -2.103131 7.608762 0
M  V30 47 H 8.915358 -0.620981 6.900331 0
M  V30 48 H 10.758692 -3.751409 4.604717 0
M  V30 49 H 11.178832 -3.262501 6.261461 0
M  V30 50 H 11.694971 -2.251318 4.891167 0
M  V30 51 H 8.188471 0.341437 5.256568 0
M  V30 52 H 8.299779 2.622094 2.880613 0
M  V30 53 H 6.081572 3.645290 2.408403 0
M  V30 54 H 3.868128 2.434550 4.172529 0
M  V30 55 H 1.525507 1.988134 3.906578 0
M  V30 56 H -0.219314 1.515850 -0.538283 0
M  V30 57 H -3.758983 1.657083 -0.225527 0
M  V30 58 H -5.381440 0.867177 -1.155704 0
M  V30 59 H -7.203331 -0.237846 -2.307208 0
M  V30 60 H -9.118729 -3.633912 -3.634564 0
M  V30 61 H -9.176357 -2.076306 -2.698304 0
M  V30 62 H -7.980206 -0.856966 -4.372721 0
M  V30 63 H -7.711110 -2.283647 -5.394584 0
M  V30 64 H -8.810607 0.121999 -6.224730 0
M  V30 65 H -10.431089 -0.391647 -6.815547 0
M  V30 66 H -9.238075 -1.469628 -8.466075 0
M  V30 67 H -7.787132 -1.676743 -7.487702 0
M  V30 68 H -8.519040 -3.741529 -6.683640 0
M  V30 69 H -9.945755 -3.509543 -7.820311 0
M  V30 70 H -11.224263 -2.424833 -6.304309 0
M  V30 71 H -10.435383 -3.593705 -5.186251 0
M  V30 72 H -5.288346 -4.007850 -1.728889 0
M  V30 73 H -3.508415 -2.909442 -0.585310 0
M  V30 74 H -2.639769 1.163909 2.900791 0
M  V30 75 H 1.973120 1.928314 -0.401252 0
M  V30 76 H 4.412733 2.394413 -0.066768 0
M  V30 END ATOM
M  V30 BEGIN BOND
M  V30 1 1 1 2
M  V30 2 1 2 3
M  V30 3 1 2 4
M  V30 4 1 2 5
M  V30 5 2 5 6
M  V30 6 1 6 7
M  V30 7 1 7 8
M  V30 8 1 8 9
M  V30 9 2 9 10
M  V30 10 1 9 11
M  V30 11 1 11 12
M  V30 12 2 12 13
M  V30 13 1 13 14
M  V30 14 2 14 15
M  V30 15 1 15 16
M  V30 16 1 16 17
M  V30 17 2 17 18
M  V30 18 1 18 19
M  V30 19 1 19 20
M  V30 20 2 20 21
M  V30 21 1 20 22
M  V30 22 2 22 23
M  V30 23 1 23 24
M  V30 24 2 24 25
M  V30 25 1 25 26
M  V30 26 1 26 27
M  V30 27 1 27 28
M  V30 28 1 28 29
M  V30 29 1 29 30
M  V30 30 1 30 31
M  V30 31 1 31 32
M  V30 32 1 32 33
M  V30 33 1 25 34
M  V30 34 2 34 35
M  V30 35 1 18 36
M  V30 36 1 36 37
M  V30 37 1 15 38
M  V30 38 2 38 39
M  V30 39 2 7 40
M  V30 40 1 40 41
M  V30 41 1 41 5
M  V30 42 1 39 12
M  V30 43 2 37 16
M  V30 44 1 35 22
M  V30 45 1 33 29
M  V30 46 1 1 42
M  V30 47 1 1 43
M  V30 48 1 1 44
M  V30 49 1 3 45
M  V30 50 1 3 46
M  V30 51 1 3 47
M  V30 52 1 4 48
M  V30 53 1 4 49
M  V30 54 1 4 50
M  V30 55 1 6 51
M  V30 56 1 8 52
M  V30 57 1 11 53
M  V30 58 1 13 54
M  V30 59 1 14 55
M  V30 60 1 17 56
M  V30 61 1 19 57
M  V30 62 1 23 58
M  V30 63 1 24 59
M  V30 64 1 27 60
M  V30 65 1 27 61
M  V30 66 1 28 62
M  V30 67 1 28 63
M  V30 68 1 30 64
M  V30 69 1 30 65
M  V30 70 1 31 66
M  V30 71 1 31 67
M  V30 72 1 32 68
M  V30 73 1 32 69
M  V30 74 1 33 70
M  V30 75 1 33 71
M  V30 76 1 34 72
M  V30 77 1 35 73
M  V30 78 1 36 74
M  V30 79 1 38 75
M  V30 80 1 39 76
M  V30 END BOND
M  V30 END CTAB
M  END
>  <Dataset>  (983) 
ChEMBL_Kinases

>  <Ligand_Instance>  (983) 
nan

>  <PDB_ID>  (983) 
nan

>  <Standardized_SMILES>  (983) 
CC(C)(C)c1cc(NC(=O)Nc2ccc(-c3cc(NC(=O)c4ccc(OCCN5CCCC5)cc4)[nH]n3)cc2)no1

>  <Name>  (983) 
nan

>  <Pocket>  (983) 
nan

>  <ATP_Site>  (983) 
nan

>  <Peripheral>  (983) 
nan

>  <Num_H_Atoms_ProtBoundConf>  (983) 
nan

>  <Num_Resolved_Atoms>  (983) 
nan

>  <Num_Not_Resolved_Atoms>  (983) 
nan

$$$$
CHEMBL2386807
     RDKit          3D

  0  0  0  0  0  0  0  0  0  0999 V3000
M  V30 BEGIN CTAB
M  V30 COUNTS 71 75 0 0 0
M  V30 BEGIN ATOM
M  V30 1 C 6.882246 -1.591639 -3.118576 0
M  V30 2 C 5.798749 -1.395147 -2.121090 0
M  V30 3 N 5.735288 -0.217984 -1.505348 0
M  V30 4 C 4.779379 0.064927 -0.572974 0
M  V30 5 N 4.690000 1.324755 0.106310 0
M  V30 6 C 3.622331 1.553491 1.052853 0
M  V30 7 C 2.461289 2.136106 0.524666 0
M  V30 8 C 1.568277 2.265352 1.597085 0
M  V30 9 C 0.226402 2.828209 1.488359 0
M  V30 10 C -0.250029 3.284575 0.276603 0
M  V30 11 C -1.515432 3.817398 0.151290 0
M  V30 12 C -2.371923 3.924251 1.221158 0
M  V30 13 C -3.749736 4.469830 1.218227 0
M  V30 14 N -4.750156 3.450758 0.969654 0
M  V30 15 C -5.033239 2.892116 -0.285714 0
M  V30 16 O -4.406952 3.271567 -1.287333 0
M  V30 17 N -6.025916 1.893549 -0.449722 0
M  V30 18 C -6.371740 1.279164 -1.682377 0
M  V30 19 C -5.857245 1.504168 -2.939383 0
M  V30 20 C -6.528272 0.646256 -3.813175 0
M  V30 21 C -6.339219 0.501069 -5.292577 0
M  V30 22 O -7.369768 -0.019605 -3.081998 0
M  V30 23 N -7.303206 0.326679 -1.831865 0
M  V30 24 C -1.867639 3.455570 2.438950 0
M  V30 25 C -0.589455 2.910724 2.597240 0
M  V30 26 N 2.212362 1.772345 2.677884 0
M  V30 27 N 3.414899 1.354403 2.365462 0
M  V30 28 C 3.887797 -0.951805 -0.314699 0
M  V30 29 C 3.916522 -2.195862 -0.933110 0
M  V30 30 N 2.964162 -3.228640 -0.617296 0
M  V30 31 C 2.064194 -2.942072 0.501789 0
M  V30 32 C 1.559674 -4.253466 1.055116 0
M  V30 33 N 1.271598 -5.228334 0.080698 0
M  V30 34 C 0.308598 -6.214869 0.362490 0
M  V30 35 C -1.108765 -5.723601 0.472207 0
M  V30 36 O -1.551229 -5.121077 -0.703066 0
M  V30 37 C 2.230227 -5.517672 -0.903040 0
M  V30 38 C 3.032157 -4.404574 -1.459570 0
M  V30 39 N 4.907564 -2.363134 -1.840302 0
M  V30 40 H 7.716765 -0.881047 -2.958397 0
M  V30 41 H 6.440492 -1.533311 -4.136428 0
M  V30 42 H 7.314825 -2.602640 -2.974557 0
M  V30 43 H 5.446729 2.023193 -0.148713 0
M  V30 44 H 2.211373 2.453427 -0.479028 0
M  V30 45 H 0.337600 3.247915 -0.629232 0
M  V30 46 H -1.876473 4.170192 -0.787425 0
M  V30 47 H -3.817453 5.167648 0.357743 0
M  V30 48 H -3.943158 4.977837 2.184159 0
M  V30 49 H -5.299836 3.112930 1.800277 0
M  V30 50 H -6.523095 1.611381 0.426864 0
M  V30 51 H -5.085355 2.201857 -3.226020 0
M  V30 52 H -7.246938 0.710697 -5.864424 0
M  V30 53 H -5.569099 1.254719 -5.605918 0
M  V30 54 H -5.917390 -0.507846 -5.552253 0
M  V30 55 H -2.485897 3.506061 3.334800 0
M  V30 56 H -0.268882 2.569663 3.569004 0
M  V30 57 H 4.192171 0.923624 2.907388 0
M  V30 58 H 3.135181 -0.717743 0.424229 0
M  V30 59 H 1.265211 -2.233322 0.228398 0
M  V30 60 H 2.656837 -2.471459 1.311510 0
M  V30 61 H 0.703615 -4.097270 1.723002 0
M  V30 62 H 2.388701 -4.664426 1.703276 0
M  V30 63 H 0.567443 -6.697868 1.333227 0
M  V30 64 H 0.330118 -6.996802 -0.392055 0
M  V30 65 H -1.270982 -5.037792 1.325239 0
M  V30 66 H -1.755952 -6.609055 0.647393 0
M  V30 67 H -2.344904 -4.566915 -0.413031 0
M  V30 68 H 2.930126 -6.311330 -0.505983 0
M  V30 69 H 1.712798 -6.052465 -1.750684 0
M  V30 70 H 2.597564 -4.098128 -2.436052 0
M  V30 71 H 4.098644 -4.699055 -1.555084 0
M  V30 END ATOM
M  V30 BEGIN BOND
M  V30 1 1 1 2
M  V30 2 2 2 3
M  V30 3 1 3 4
M  V30 4 1 4 5
M  V30 5 1 5 6
M  V30 6 2 6 7
M  V30 7 1 7 8
M  V30 8 1 8 9
M  V30 9 2 9 10
M  V30 10 1 10 11
M  V30 11 2 11 12
M  V30 12 1 12 13
M  V30 13 1 13 14
M  V30 14 1 14 15
M  V30 15 2 15 16
M  V30 16 1 15 17
M  V30 17 1 17 18
M  V30 18 1 18 19
M  V30 19 2 19 20
M  V30 20 1 20 21
M  V30 21 1 20 22
M  V30 22 1 22 23
M  V30 23 1 12 24
M  V30 24 2 24 25
M  V30 25 2 8 26
M  V30 26 1 26 27
M  V30 27 2 4 28
M  V30 28 1 28 29
M  V30 29 1 29 30
M  V30 30 1 30 31
M  V30 31 1 31 32
M  V30 32 1 32 33
M  V30 33 1 33 34
M  V30 34 1 34 35
M  V30 35 1 35 36
M  V30 36 1 33 37
M  V30 37 1 37 38
M  V30 38 2 29 39
M  V30 39 1 39 2
M  V30 40 1 27 6
M  V30 41 1 38 30
M  V30 42 1 25 9
M  V30 43 2 23 18
M  V30 44 1 1 40
M  V30 45 1 1 41
M  V30 46 1 1 42
M  V30 47 1 5 43
M  V30 48 1 7 44
M  V30 49 1 10 45
M  V30 50 1 11 46
M  V30 51 1 13 47
M  V30 52 1 13 48
M  V30 53 1 14 49
M  V30 54 1 17 50
M  V30 55 1 19 51
M  V30 56 1 21 52
M  V30 57 1 21 53
M  V30 58 1 21 54
M  V30 59 1 24 55
M  V30 60 1 25 56
M  V30 61 1 27 57
M  V30 62 1 28 58
M  V30 63 1 31 59
M  V30 64 1 31 60
M  V30 65 1 32 61
M  V30 66 1 32 62
M  V30 67 1 34 63
M  V30 68 1 34 64
M  V30 69 1 35 65
M  V30 70 1 35 66
M  V30 71 1 36 67
M  V30 72 1 37 68
M  V30 73 1 37 69
M  V30 74 1 38 70
M  V30 75 1 38 71
M  V30 END BOND
M  V30 END CTAB
M  END
>  <Dataset>  (984) 
ChEMBL_Kinases

>  <Ligand_Instance>  (984) 
nan

>  <PDB_ID>  (984) 
nan

>  <Standardized_SMILES>  (984) 
Cc1nc(Nc2cc(-c3ccc(CNC(=O)Nc4cc(C)on4)cc3)n[nH]2)cc(N2CCN(CCO)CC2)n1

>  <Name>  (984) 
nan

>  <Pocket>  (984) 
nan

>  <ATP_Site>  (984) 
nan

>  <Peripheral>  (984) 
nan

>  <Num_H_Atoms_ProtBoundConf>  (984) 
nan

>  <Num_Resolved_Atoms>  (984) 
nan

>  <Num_Not_Resolved_Atoms>  (984) 
nan

$$$$
CHEMBL2386794
     RDKit          3D

  0  0  0  0  0  0  0  0  0  0999 V3000
M  V30 BEGIN CTAB
M  V30 COUNTS 77 81 0 0 0
M  V30 BEGIN ATOM
M  V30 1 C 6.115041 -0.396250 5.315971 0
M  V30 2 N 7.435988 -0.896157 5.099842 0
M  V30 3 C 7.599179 -1.669333 3.908889 0
M  V30 4 C 7.635391 -0.864188 2.646861 0
M  V30 5 N 8.392229 0.331351 2.720003 0
M  V30 6 C 8.458263 1.132508 1.552348 0
M  V30 7 C 7.133397 1.601674 1.075403 0
M  V30 8 C 6.517350 2.776967 1.445463 0
M  V30 9 C 5.278676 3.117749 0.939965 0
M  V30 10 C 4.603496 2.308714 0.049804 0
M  V30 11 C 3.297956 2.751197 -0.430330 0
M  V30 12 O 2.871994 3.872830 -0.004888 0
M  V30 13 N 2.536054 1.980357 -1.323056 0
M  V30 14 C 1.263223 2.210851 -1.910058 0
M  V30 15 C 0.154995 1.741686 -1.191689 0
M  V30 16 C -1.001969 2.040865 -1.897633 0
M  V30 17 C -2.377489 1.734300 -1.522085 0
M  V30 18 C -3.419072 2.087685 -2.323324 0
M  V30 19 C -4.702064 1.780360 -1.931248 0
M  V30 20 C -4.973042 1.123695 -0.748677 0
M  V30 21 N -6.261065 0.761100 -0.258495 0
M  V30 22 C -6.686565 -0.550174 -0.671940 0
M  V30 23 O -5.914830 -1.205477 -1.386421 0
M  V30 24 N -7.919141 -1.096147 -0.300015 0
M  V30 25 C -8.388734 -2.382986 -0.674722 0
M  V30 26 C -7.769427 -3.340155 -1.448187 0
M  V30 27 C -8.617089 -4.439641 -1.537851 0
M  V30 28 C -8.338950 -5.706481 -2.283803 0
M  V30 29 C -6.984452 -5.631369 -2.949619 0
M  V30 30 C -9.382201 -5.886404 -3.365731 0
M  V30 31 C -8.427128 -6.906744 -1.365150 0
M  V30 32 O -9.668874 -4.132576 -0.853005 0
M  V30 33 N -9.565961 -2.934726 -0.334835 0
M  V30 34 C -3.903607 0.758534 0.078869 0
M  V30 35 C -2.627711 1.077085 -0.335596 0
M  V30 36 N -0.582853 2.672627 -3.007270 0
M  V30 37 N 0.735427 2.769993 -3.011647 0
M  V30 38 C 5.164040 1.118913 -0.361141 0
M  V30 39 C 6.418144 0.829326 0.184782 0
M  V30 40 C 8.480798 0.975364 3.971045 0
M  V30 41 C 8.487727 0.065847 5.162097 0
M  V30 42 H 5.485437 -0.563908 4.406962 0
M  V30 43 H 5.592461 -0.961169 6.142552 0
M  V30 44 H 6.073886 0.657349 5.615149 0
M  V30 45 H 8.594300 -2.194244 4.010270 0
M  V30 46 H 6.825625 -2.447099 3.852511 0
M  V30 47 H 8.031794 -1.506161 1.834145 0
M  V30 48 H 6.585643 -0.618868 2.385515 0
M  V30 49 H 8.877617 0.480967 0.735543 0
M  V30 50 H 9.152646 1.984419 1.703200 0
M  V30 51 H 7.056969 3.417561 2.153748 0
M  V30 52 H 4.888517 4.076872 1.307876 0
M  V30 53 H 2.855750 1.057580 -1.691172 0
M  V30 54 H 0.078373 1.214116 -0.228604 0
M  V30 55 H -3.269859 2.607003 -3.267403 0
M  V30 56 H -5.582102 2.025269 -2.509134 0
M  V30 57 H -6.899254 1.326518 0.344351 0
M  V30 58 H -8.516230 -0.487994 0.301000 0
M  V30 59 H -6.817739 -3.289187 -1.911026 0
M  V30 60 H -7.079871 -5.001578 -3.856867 0
M  V30 61 H -6.235921 -5.216567 -2.242491 0
M  V30 62 H -6.713971 -6.645754 -3.299375 0
M  V30 63 H -10.230823 -6.533218 -2.993727 0
M  V30 64 H -8.881233 -6.410853 -4.230687 0
M  V30 65 H -9.776399 -4.897067 -3.686939 0
M  V30 66 H -7.469499 -7.446315 -1.427614 0
M  V30 67 H -8.597687 -6.538425 -0.314461 0
M  V30 68 H -9.204255 -7.618779 -1.690687 0
M  V30 69 H -4.060647 0.233642 1.032430 0
M  V30 70 H -1.825113 0.770992 0.343739 0
M  V30 71 H 1.435972 3.185764 -3.685580 0
M  V30 72 H 4.680738 0.462865 -1.046435 0
M  V30 73 H 6.872957 -0.116038 -0.136580 0
M  V30 74 H 7.660721 1.714584 4.089875 0
M  V30 75 H 9.436768 1.568311 4.007773 0
M  V30 76 H 9.444890 -0.476797 5.260972 0
M  V30 77 H 8.324137 0.690448 6.073919 0
M  V30 END ATOM
M  V30 BEGIN BOND
M  V30 1 1 1 2
M  V30 2 1 2 3
M  V30 3 1 3 4
M  V30 4 1 4 5
M  V30 5 1 5 6
M  V30 6 1 6 7
M  V30 7 2 7 8
M  V30 8 1 8 9
M  V30 9 2 9 10
M  V30 10 1 10 11
M  V30 11 2 11 12
M  V30 12 1 11 13
M  V30 13 1 13 14
M  V30 14 2 14 15
M  V30 15 1 15 16
M  V30 16 1 16 17
M  V30 17 2 17 18
M  V30 18 1 18 19
M  V30 19 2 19 20
M  V30 20 1 20 21
M  V30 21 1 21 22
M  V30 22 2 22 23
M  V30 23 1 22 24
M  V30 24 1 24 25
M  V30 25 1 25 26
M  V30 26 2 26 27
M  V30 27 1 27 28
M  V30 28 1 28 29
M  V30 29 1 28 30
M  V30 30 1 28 31
M  V30 31 1 27 32
M  V30 32 1 32 33
M  V30 33 1 20 34
M  V30 34 2 34 35
M  V30 35 2 16 36
M  V30 36 1 36 37
M  V30 37 1 10 38
M  V30 38 2 38 39
M  V30 39 1 5 40
M  V30 40 1 40 41
M  V30 41 1 41 2
M  V30 42 1 39 7
M  V30 43 1 37 14
M  V30 44 1 35 17
M  V30 45 2 33 25
M  V30 46 1 1 42
M  V30 47 1 1 43
M  V30 48 1 1 44
M  V30 49 1 3 45
M  V30 50 1 3 46
M  V30 51 1 4 47
M  V30 52 1 4 48
M  V30 53 1 6 49
M  V30 54 1 6 50
M  V30 55 1 8 51
M  V30 56 1 9 52
M  V30 57 1 13 53
M  V30 58 1 15 54
M  V30 59 1 18 55
M  V30 60 1 19 56
M  V30 61 1 21 57
M  V30 62 1 24 58
M  V30 63 1 26 59
M  V30 64 1 29 60
M  V30 65 1 29 61
M  V30 66 1 29 62
M  V30 67 1 30 63
M  V30 68 1 30 64
M  V30 69 1 30 65
M  V30 70 1 31 66
M  V30 71 1 31 67
M  V30 72 1 31 68
M  V30 73 1 34 69
M  V30 74 1 35 70
M  V30 75 1 37 71
M  V30 76 1 38 72
M  V30 77 1 39 73
M  V30 78 1 40 74
M  V30 79 1 40 75
M  V30 80 1 41 76
M  V30 81 1 41 77
M  V30 END BOND
M  V30 END CTAB
M  END
>  <Dataset>  (985) 
ChEMBL_Kinases

>  <Ligand_Instance>  (985) 
nan

>  <PDB_ID>  (985) 
nan

>  <Standardized_SMILES>  (985) 
CN1CCN(Cc2ccc(C(=O)Nc3cc(-c4ccc(NC(=O)Nc5cc(C(C)(C)C)on5)cc4)n[nH]3)cc2)CC1

>  <Name>  (985) 
nan

>  <Pocket>  (985) 
nan

>  <ATP_Site>  (985) 
nan

>  <Peripheral>  (985) 
nan

>  <Num_H_Atoms_ProtBoundConf>  (985) 
nan

>  <Num_Resolved_Atoms>  (985) 
nan

>  <Num_Not_Resolved_Atoms>  (985) 
nan

$$$$
CHEMBL2386795
     RDKit          3D

  0  0  0  0  0  0  0  0  0  0999 V3000
M  V30 BEGIN CTAB
M  V30 COUNTS 80 84 0 0 0
M  V30 BEGIN ATOM
M  V30 1 C -0.304163 -7.901065 0.654166 0
M  V30 2 C 0.416280 -6.663333 1.037042 0
M  V30 3 C -0.023703 -5.817116 2.038835 0
M  V30 4 C 0.704250 -4.684649 2.350664 0
M  V30 5 C 0.197432 -3.808860 3.407070 0
M  V30 6 C 0.786972 -2.601773 3.803926 0
M  V30 7 C 0.047248 -1.993939 4.796906 0
M  V30 8 N 0.430420 -0.722453 5.375451 0
M  V30 9 C -0.236556 0.208996 4.517449 0
M  V30 10 O -0.869957 -0.459910 3.638732 0
M  V30 11 C -0.166535 1.680108 4.670528 0
M  V30 12 C 0.504569 2.447857 5.606326 0
M  V30 13 C 0.423474 3.844928 5.530566 0
M  V30 14 C -0.332550 4.443333 4.511299 0
M  V30 15 O -0.198358 5.775093 4.717140 0
M  V30 16 C -0.693013 6.879018 4.039412 0
M  V30 17 C -0.218354 6.970364 2.606960 0
M  V30 18 N -0.662491 8.091516 1.880643 0
M  V30 19 C -0.226194 8.128100 0.492051 0
M  V30 20 C -0.932936 7.006949 -0.254304 0
M  V30 21 O -2.146998 6.687399 0.362326 0
M  V30 22 C -2.737414 7.901513 0.720787 0
M  V30 23 C -2.022294 8.488772 1.949835 0
M  V30 24 C -0.981896 3.664829 3.608588 0
M  V30 25 C -0.923135 2.267969 3.654569 0
M  V30 26 N -0.979405 -2.828502 5.000377 0
M  V30 27 N -0.880516 -3.859318 4.200843 0
M  V30 28 C 1.879188 -4.325176 1.714864 0
M  V30 29 C 2.280773 -5.201139 0.721398 0
M  V30 30 C 1.585779 -6.352262 0.365342 0
M  V30 31 N 2.141848 -7.155757 -0.710402 0
M  V30 32 C 1.691332 -6.605345 -1.953345 0
M  V30 33 O 0.945545 -5.574245 -1.772064 0
M  V30 34 N 2.030258 -7.127123 -3.258675 0
M  V30 35 C 1.493670 -6.370251 -4.362686 0
M  V30 36 C 0.440146 -6.176542 -5.226991 0
M  V30 37 C 0.815534 -5.121741 -6.013440 0
M  V30 38 C -0.108985 -4.642697 -7.075217 0
M  V30 39 C 0.581595 -3.455905 -7.754085 0
M  V30 40 C -1.410208 -4.124017 -6.500633 0
M  V30 41 C -0.383229 -5.669125 -8.138379 0
M  V30 42 O 2.022154 -4.683870 -5.666751 0
M  V30 43 N 2.439602 -5.432857 -4.668827 0
M  V30 44 H -1.258298 -7.718012 0.110635 0
M  V30 45 H -0.464238 -8.489089 1.582907 0
M  V30 46 H 0.371353 -8.530808 0.029784 0
M  V30 47 H -0.941618 -6.099586 2.535589 0
M  V30 48 H 1.714043 -2.196379 3.374765 0
M  V30 49 H 1.006928 -0.385184 6.168096 0
M  V30 50 H 1.004771 1.760715 6.274974 0
M  V30 51 H 1.017890 4.238047 6.351501 0
M  V30 52 H -1.812102 6.939248 4.090076 0
M  V30 53 H -0.312065 7.799064 4.555629 0
M  V30 54 H -0.488044 6.050733 2.017697 0
M  V30 55 H 0.908863 6.972765 2.630300 0
M  V30 56 H -0.539354 9.076404 0.000974 0
M  V30 57 H 0.881428 8.012702 0.399097 0
M  V30 58 H -0.246086 6.145780 -0.282193 0
M  V30 59 H -1.121737 7.285349 -1.331705 0
M  V30 60 H -2.740027 8.620872 -0.123004 0
M  V30 61 H -3.799780 7.710870 0.992276 0
M  V30 62 H -2.598842 8.181213 2.825197 0
M  V30 63 H -2.121656 9.596802 1.803040 0
M  V30 64 H -1.541886 4.204397 2.881931 0
M  V30 65 H -1.502151 1.807599 2.862877 0
M  V30 66 H -1.710279 -2.614934 5.717099 0
M  V30 67 H 2.456634 -3.453062 1.947840 0
M  V30 68 H 3.207389 -4.980748 0.175113 0
M  V30 69 H 2.756355 -7.988753 -0.801590 0
M  V30 70 H 2.629664 -7.964839 -3.333400 0
M  V30 71 H -0.349868 -6.861479 -5.066740 0
M  V30 72 H 1.484834 -3.875515 -8.253592 0
M  V30 73 H 0.965284 -2.738699 -6.989580 0
M  V30 74 H -0.086353 -2.969033 -8.467203 0
M  V30 75 H -1.335846 -3.028396 -6.375883 0
M  V30 76 H -1.547993 -4.542700 -5.500696 0
M  V30 77 H -2.246536 -4.395651 -7.182801 0
M  V30 78 H -1.408601 -6.091439 -8.061238 0
M  V30 79 H 0.395837 -6.451096 -8.071775 0
M  V30 80 H -0.275681 -5.183482 -9.140483 0
M  V30 END ATOM
M  V30 BEGIN BOND
M  V30 1 1 1 2
M  V30 2 2 2 3
M  V30 3 1 3 4
M  V30 4 1 4 5
M  V30 5 1 5 6
M  V30 6 2 6 7
M  V30 7 1 7 8
M  V30 8 1 8 9
M  V30 9 2 9 10
M  V30 10 1 9 11
M  V30 11 2 11 12
M  V30 12 1 12 13
M  V30 13 2 13 14
M  V30 14 1 14 15
M  V30 15 1 15 16
M  V30 16 1 16 17
M  V30 17 1 17 18
M  V30 18 1 18 19
M  V30 19 1 19 20
M  V30 20 1 20 21
M  V30 21 1 21 22
M  V30 22 1 22 23
M  V30 23 1 14 24
M  V30 24 2 24 25
M  V30 25 1 7 26
M  V30 26 1 26 27
M  V30 27 2 4 28
M  V30 28 1 28 29
M  V30 29 2 29 30
M  V30 30 1 30 31
M  V30 31 1 31 32
M  V30 32 2 32 33
M  V30 33 1 32 34
M  V30 34 1 34 35
M  V30 35 1 35 36
M  V30 36 2 36 37
M  V30 37 1 37 38
M  V30 38 1 38 39
M  V30 39 1 38 40
M  V30 40 1 38 41
M  V30 41 1 37 42
M  V30 42 1 42 43
M  V30 43 1 30 2
M  V30 44 2 43 35
M  V30 45 2 27 5
M  V30 46 1 25 11
M  V30 47 1 23 18
M  V30 48 1 1 44
M  V30 49 1 1 45
M  V30 50 1 1 46
M  V30 51 1 3 47
M  V30 52 1 6 48
M  V30 53 1 8 49
M  V30 54 1 12 50
M  V30 55 1 13 51
M  V30 56 1 16 52
M  V30 57 1 16 53
M  V30 58 1 17 54
M  V30 59 1 17 55
M  V30 60 1 19 56
M  V30 61 1 19 57
M  V30 62 1 20 58
M  V30 63 1 20 59
M  V30 64 1 22 60
M  V30 65 1 22 61
M  V30 66 1 23 62
M  V30 67 1 23 63
M  V30 68 1 24 64
M  V30 69 1 25 65
M  V30 70 1 26 66
M  V30 71 1 28 67
M  V30 72 1 29 68
M  V30 73 1 31 69
M  V30 74 1 34 70
M  V30 75 1 36 71
M  V30 76 1 39 72
M  V30 77 1 39 73
M  V30 78 1 39 74
M  V30 79 1 40 75
M  V30 80 1 40 76
M  V30 81 1 40 77
M  V30 82 1 41 78
M  V30 83 1 41 79
M  V30 84 1 41 80
M  V30 END BOND
M  V30 END CTAB
M  END
>  <Dataset>  (986) 
ChEMBL_Kinases

>  <Ligand_Instance>  (986) 
nan

>  <PDB_ID>  (986) 
nan

>  <Standardized_SMILES>  (986) 
Cc1cc(-c2cc(NC(=O)c3ccc(OCCN4CCOCC4)cc3)[nH]n2)ccc1NC(=O)Nc1cc(C(C)(C)C)on1

>  <Name>  (986) 
nan

>  <Pocket>  (986) 
nan

>  <ATP_Site>  (986) 
nan

>  <Peripheral>  (986) 
nan

>  <Num_H_Atoms_ProtBoundConf>  (986) 
nan

>  <Num_Resolved_Atoms>  (986) 
nan

>  <Num_Not_Resolved_Atoms>  (986) 
nan

$$$$
CHEMBL2386796
     RDKit          3D

  0  0  0  0  0  0  0  0  0  0999 V3000
M  V30 BEGIN CTAB
M  V30 COUNTS 80 84 0 0 0
M  V30 BEGIN ATOM
M  V30 1 C 2.249609 -3.258324 2.916993 0
M  V30 2 C 2.021824 -4.244869 1.809287 0
M  V30 3 C 0.963314 -3.867589 0.992083 0
M  V30 4 C 0.653914 -4.714547 -0.078830 0
M  V30 5 C -0.423018 -4.435447 -1.031424 0
M  V30 6 C -1.170796 -3.283081 -0.980740 0
M  V30 7 C -2.106437 -3.174047 -1.982300 0
M  V30 8 N -3.044959 -2.189868 -2.388139 0
M  V30 9 C -3.066080 -0.890512 -1.853260 0
M  V30 10 O -2.187511 -0.640800 -0.980433 0
M  V30 11 C -4.010207 0.174608 -2.226251 0
M  V30 12 C -5.190826 0.039954 -2.939718 0
M  V30 13 C -5.924429 1.149783 -3.232131 0
M  V30 14 C -5.581972 2.427038 -2.867861 0
M  V30 15 C -6.349553 3.666282 -3.154503 0
M  V30 16 N -7.169979 4.033777 -2.083923 0
M  V30 17 C -8.167883 3.211680 -1.582192 0
M  V30 18 C -7.736326 2.573776 -0.275237 0
M  V30 19 N -7.178161 3.564659 0.581621 0
M  V30 20 C -5.922610 3.196737 1.163436 0
M  V30 21 C -7.280000 4.916219 0.140889 0
M  V30 22 C -6.845239 5.140445 -1.284729 0
M  V30 23 C -4.395039 2.610412 -2.145057 0
M  V30 24 C -3.676565 1.485750 -1.862656 0
M  V30 25 N -1.890522 -4.345950 -2.666199 0
M  V30 26 N -0.926805 -5.052959 -2.109910 0
M  V30 27 C 1.367179 -5.873362 -0.313462 0
M  V30 28 C 2.414080 -6.230780 0.506536 0
M  V30 29 C 2.736317 -5.411859 1.565974 0
M  V30 30 N 3.779575 -5.523083 2.555294 0
M  V30 31 C 4.936594 -4.816085 2.125470 0
M  V30 32 O 4.822590 -4.242380 0.984943 0
M  V30 33 N 6.213517 -4.651855 2.792689 0
M  V30 34 C 7.231261 -3.856210 2.135717 0
M  V30 35 C 7.254677 -2.488699 2.410820 0
M  V30 36 C 8.320820 -1.996180 1.642244 0
M  V30 37 C 8.611126 -0.530044 1.720336 0
M  V30 38 C 9.745891 -0.191233 0.790055 0
M  V30 39 C 9.076711 -0.151808 3.116006 0
M  V30 40 C 7.402819 0.264809 1.320535 0
M  V30 41 O 8.855557 -2.997930 0.988623 0
M  V30 42 N 8.228674 -4.101343 1.266544 0
M  V30 43 H 3.187633 -3.441201 3.442789 0
M  V30 44 H 2.209422 -2.230332 2.495262 0
M  V30 45 H 1.426748 -3.334450 3.653574 0
M  V30 46 H 0.369798 -2.975825 1.126087 0
M  V30 47 H -1.066189 -2.491937 -0.228228 0
M  V30 48 H -3.757771 -2.428979 -3.109042 0
M  V30 49 H -5.446609 -0.970711 -3.218115 0
M  V30 50 H -6.860834 1.045279 -3.797740 0
M  V30 51 H -6.902784 3.567247 -4.133509 0
M  V30 52 H -5.607832 4.480378 -3.359890 0
M  V30 53 H -8.551627 2.432478 -2.279893 0
M  V30 54 H -9.065830 3.840356 -1.313824 0
M  V30 55 H -6.905102 1.859142 -0.545807 0
M  V30 56 H -8.604503 2.028694 0.194215 0
M  V30 57 H -5.437403 2.417217 0.531420 0
M  V30 58 H -5.197033 4.025416 1.282585 0
M  V30 59 H -6.143125 2.714592 2.153450 0
M  V30 60 H -8.316101 5.287391 0.316288 0
M  V30 61 H -6.580891 5.522069 0.779418 0
M  V30 62 H -5.761243 5.413635 -1.347267 0
M  V30 63 H -7.406268 6.059528 -1.641107 0
M  V30 64 H -4.051301 3.582549 -1.821235 0
M  V30 65 H -2.746599 1.650769 -1.292719 0
M  V30 66 H -2.415378 -4.655776 -3.527543 0
M  V30 67 H 1.183703 -6.571331 -1.116447 0
M  V30 68 H 3.067791 -7.086001 0.467840 0
M  V30 69 H 3.925947 -5.977156 3.499502 0
M  V30 70 H 6.239233 -5.149644 3.719861 0
M  V30 71 H 6.589373 -1.933698 3.075315 0
M  V30 72 H 9.983915 0.907959 0.917787 0
M  V30 73 H 10.641773 -0.808783 0.949099 0
M  V30 74 H 9.365374 -0.247048 -0.266993 0
M  V30 75 H 10.169290 -0.198260 3.204831 0
M  V30 76 H 8.652472 -0.848143 3.870637 0
M  V30 77 H 8.725490 0.901946 3.279834 0
M  V30 78 H 7.254595 1.204000 1.874855 0
M  V30 79 H 6.492065 -0.391013 1.412009 0
M  V30 80 H 7.470083 0.476015 0.229370 0
M  V30 END ATOM
M  V30 BEGIN BOND
M  V30 1 1 1 2
M  V30 2 2 2 3
M  V30 3 1 3 4
M  V30 4 1 4 5
M  V30 5 1 5 6
M  V30 6 2 6 7
M  V30 7 1 7 8
M  V30 8 1 8 9
M  V30 9 2 9 10
M  V30 10 1 9 11
M  V30 11 2 11 12
M  V30 12 1 12 13
M  V30 13 2 13 14
M  V30 14 1 14 15
M  V30 15 1 15 16
M  V30 16 1 16 17
M  V30 17 1 17 18
M  V30 18 1 18 19
M  V30 19 1 19 20
M  V30 20 1 19 21
M  V30 21 1 21 22
M  V30 22 1 14 23
M  V30 23 2 23 24
M  V30 24 1 7 25
M  V30 25 1 25 26
M  V30 26 2 4 27
M  V30 27 1 27 28
M  V30 28 2 28 29
M  V30 29 1 29 30
M  V30 30 1 30 31
M  V30 31 2 31 32
M  V30 32 1 31 33
M  V30 33 1 33 34
M  V30 34 1 34 35
M  V30 35 2 35 36
M  V30 36 1 36 37
M  V30 37 1 37 38
M  V30 38 1 37 39
M  V30 39 1 37 40
M  V30 40 1 36 41
M  V30 41 1 41 42
M  V30 42 1 29 2
M  V30 43 2 42 34
M  V30 44 2 26 5
M  V30 45 1 24 11
M  V30 46 1 22 16
M  V30 47 1 1 43
M  V30 48 1 1 44
M  V30 49 1 1 45
M  V30 50 1 3 46
M  V30 51 1 6 47
M  V30 52 1 8 48
M  V30 53 1 12 49
M  V30 54 1 13 50
M  V30 55 1 15 51
M  V30 56 1 15 52
M  V30 57 1 17 53
M  V30 58 1 17 54
M  V30 59 1 18 55
M  V30 60 1 18 56
M  V30 61 1 20 57
M  V30 62 1 20 58
M  V30 63 1 20 59
M  V30 64 1 21 60
M  V30 65 1 21 61
M  V30 66 1 22 62
M  V30 67 1 22 63
M  V30 68 1 23 64
M  V30 69 1 24 65
M  V30 70 1 25 66
M  V30 71 1 27 67
M  V30 72 1 28 68
M  V30 73 1 30 69
M  V30 74 1 33 70
M  V30 75 1 35 71
M  V30 76 1 38 72
M  V30 77 1 38 73
M  V30 78 1 38 74
M  V30 79 1 39 75
M  V30 80 1 39 76
M  V30 81 1 39 77
M  V30 82 1 40 78
M  V30 83 1 40 79
M  V30 84 1 40 80
M  V30 END BOND
M  V30 END CTAB
M  END
>  <Dataset>  (987) 
ChEMBL_Kinases

>  <Ligand_Instance>  (987) 
nan

>  <PDB_ID>  (987) 
nan

>  <Standardized_SMILES>  (987) 
Cc1cc(-c2cc(NC(=O)c3ccc(CN4CCN(C)CC4)cc3)[nH]n2)ccc1NC(=O)Nc1cc(C(C)(C)C)on1

>  <Name>  (987) 
nan

>  <Pocket>  (987) 
nan

>  <ATP_Site>  (987) 
nan

>  <Peripheral>  (987) 
nan

>  <Num_H_Atoms_ProtBoundConf>  (987) 
nan

>  <Num_Resolved_Atoms>  (987) 
nan

>  <Num_Not_Resolved_Atoms>  (987) 
nan

$$$$
CHEMBL2386797
     RDKit          3D

  0  0  0  0  0  0  0  0  0  0999 V3000
M  V30 BEGIN CTAB
M  V30 COUNTS 72 76 0 0 0
M  V30 BEGIN ATOM
M  V30 1 O 6.725709 -1.259864 3.006469 0
M  V30 2 C 7.549276 -0.518968 2.458854 0
M  V30 3 N 7.727523 0.853201 2.795236 0
M  V30 4 C 6.978292 1.584717 3.805913 0
M  V30 5 C 5.661402 1.922073 3.207397 0
M  V30 6 C 4.521035 1.171635 3.200394 0
M  V30 7 C 3.359443 1.615201 2.613514 0
M  V30 8 C 3.272648 2.848715 1.994650 0
M  V30 9 C 2.022523 3.291854 1.377015 0
M  V30 10 C 0.847058 2.568662 1.319644 0
M  V30 11 C -0.113685 3.345620 0.640848 0
M  V30 12 N -1.382342 2.696465 0.505900 0
M  V30 13 C -1.606653 2.032238 -0.757415 0
M  V30 14 O -0.605971 2.185553 -1.498190 0
M  V30 15 C -2.884885 1.333752 -0.951491 0
M  V30 16 C -3.855777 1.096386 -0.002796 0
M  V30 17 C -4.984762 0.424396 -0.403212 0
M  V30 18 C -5.175205 -0.012863 -1.705438 0
M  V30 19 O -6.391037 -0.649356 -1.810942 0
M  V30 20 C -6.855926 -1.190408 -3.033767 0
M  V30 21 C -8.201757 -1.872928 -2.847485 0
M  V30 22 N -8.083125 -2.972312 -1.895929 0
M  V30 23 C -7.292694 -3.999322 -2.503205 0
M  V30 24 C -7.456094 -5.367460 -1.939197 0
M  V30 25 O -8.676587 -5.669159 -1.400223 0
M  V30 26 C -9.237091 -4.631052 -0.666181 0
M  V30 27 C -9.416461 -3.486173 -1.667770 0
M  V30 28 C -4.178807 0.240590 -2.641599 0
M  V30 29 C -3.018436 0.915850 -2.284788 0
M  V30 30 N 0.522667 4.488393 0.324975 0
M  V30 31 N 1.762716 4.463605 0.747748 0
M  V30 32 C 4.426157 3.619308 1.996655 0
M  V30 33 C 5.601051 3.158807 2.595538 0
M  V30 34 N 8.291874 -1.209789 1.453284 0
M  V30 35 C 7.805045 -2.557984 1.443402 0
M  V30 36 C 6.723584 -2.937593 0.640135 0
M  V30 37 C 6.337080 -4.264948 0.713061 0
M  V30 38 C 6.974080 -5.171318 1.528294 0
M  V30 39 C 8.035202 -4.742465 2.299997 0
M  V30 40 C 8.474550 -3.433681 2.276766 0
M  V30 41 H 8.474953 1.331073 2.237395 0
M  V30 42 H 6.816721 0.907952 4.686416 0
M  V30 43 H 7.559651 2.474119 4.071239 0
M  V30 44 H 4.559299 0.211660 3.682582 0
M  V30 45 H 2.512604 0.936569 2.664614 0
M  V30 46 H 0.793742 1.567322 1.765666 0
M  V30 47 H -2.071714 2.725651 1.292465 0
M  V30 48 H -3.630675 1.463500 0.985532 0
M  V30 49 H -5.670060 0.305097 0.450370 0
M  V30 50 H -6.158034 -1.895334 -3.505939 0
M  V30 51 H -7.008250 -0.346768 -3.742283 0
M  V30 52 H -8.535876 -2.253772 -3.831521 0
M  V30 53 H -8.917397 -1.100850 -2.524644 0
M  V30 54 H -6.227387 -3.691206 -2.406566 0
M  V30 55 H -7.585550 -4.032937 -3.592419 0
M  V30 56 H -7.299612 -6.107527 -2.777235 0
M  V30 57 H -6.664154 -5.638240 -1.203827 0
M  V30 58 H -10.175384 -4.982893 -0.236432 0
M  V30 59 H -8.513151 -4.266907 0.113997 0
M  V30 60 H -9.771724 -3.942545 -2.613141 0
M  V30 61 H -10.122026 -2.722936 -1.285171 0
M  V30 62 H -4.460086 -0.158680 -3.617121 0
M  V30 63 H -2.323774 1.057295 -3.071254 0
M  V30 64 H -0.092322 5.157587 -0.189222 0
M  V30 65 H 4.353574 4.581850 1.513342 0
M  V30 66 H 6.463914 3.831966 2.550848 0
M  V30 67 H 9.030053 -0.660081 0.913183 0
M  V30 68 H 6.225076 -2.213175 0.001986 0
M  V30 69 H 5.514895 -4.634538 0.127284 0
M  V30 70 H 6.713702 -6.216333 1.625781 0
M  V30 71 H 8.571342 -5.425326 2.960208 0
M  V30 72 H 9.318302 -3.089105 2.888440 0
M  V30 END ATOM
M  V30 BEGIN BOND
M  V30 1 2 1 2
M  V30 2 1 2 3
M  V30 3 1 3 4
M  V30 4 1 4 5
M  V30 5 2 5 6
M  V30 6 1 6 7
M  V30 7 2 7 8
M  V30 8 1 8 9
M  V30 9 1 9 10
M  V30 10 2 10 11
M  V30 11 1 11 12
M  V30 12 1 12 13
M  V30 13 2 13 14
M  V30 14 1 13 15
M  V30 15 2 15 16
M  V30 16 1 16 17
M  V30 17 2 17 18
M  V30 18 1 18 19
M  V30 19 1 19 20
M  V30 20 1 20 21
M  V30 21 1 21 22
M  V30 22 1 22 23
M  V30 23 1 23 24
M  V30 24 1 24 25
M  V30 25 1 25 26
M  V30 26 1 26 27
M  V30 27 1 18 28
M  V30 28 2 28 29
M  V30 29 1 11 30
M  V30 30 1 30 31
M  V30 31 1 8 32
M  V30 32 2 32 33
M  V30 33 1 2 34
M  V30 34 1 34 35
M  V30 35 2 35 36
M  V30 36 1 36 37
M  V30 37 2 37 38
M  V30 38 1 38 39
M  V30 39 2 39 40
M  V30 40 1 33 5
M  V30 41 1 40 35
M  V30 42 2 31 9
M  V30 43 1 29 15
M  V30 44 1 27 22
M  V30 45 1 3 41
M  V30 46 1 4 42
M  V30 47 1 4 43
M  V30 48 1 6 44
M  V30 49 1 7 45
M  V30 50 1 10 46
M  V30 51 1 12 47
M  V30 52 1 16 48
M  V30 53 1 17 49
M  V30 54 1 20 50
M  V30 55 1 20 51
M  V30 56 1 21 52
M  V30 57 1 21 53
M  V30 58 1 23 54
M  V30 59 1 23 55
M  V30 60 1 24 56
M  V30 61 1 24 57
M  V30 62 1 26 58
M  V30 63 1 26 59
M  V30 64 1 27 60
M  V30 65 1 27 61
M  V30 66 1 28 62
M  V30 67 1 29 63
M  V30 68 1 30 64
M  V30 69 1 32 65
M  V30 70 1 33 66
M  V30 71 1 34 67
M  V30 72 1 36 68
M  V30 73 1 37 69
M  V30 74 1 38 70
M  V30 75 1 39 71
M  V30 76 1 40 72
M  V30 END BOND
M  V30 END CTAB
M  END
>  <Dataset>  (988) 
ChEMBL_Kinases

>  <Ligand_Instance>  (988) 
nan

>  <PDB_ID>  (988) 
nan

>  <Standardized_SMILES>  (988) 
O=C(NCc1ccc(-c2cc(NC(=O)c3ccc(OCCN4CCOCC4)cc3)[nH]n2)cc1)Nc1ccccc1

>  <Name>  (988) 
nan

>  <Pocket>  (988) 
nan

>  <ATP_Site>  (988) 
nan

>  <Peripheral>  (988) 
nan

>  <Num_H_Atoms_ProtBoundConf>  (988) 
nan

>  <Num_Resolved_Atoms>  (988) 
nan

>  <Num_Not_Resolved_Atoms>  (988) 
nan

$$$$
CHEMBL2386801
     RDKit          3D

  0  0  0  0  0  0  0  0  0  0999 V3000
M  V30 BEGIN CTAB
M  V30 COUNTS 68 72 0 0 0
M  V30 BEGIN ATOM
M  V30 1 C 9.759925 -5.137840 -2.060881 0
M  V30 2 C 9.048778 -3.853867 -2.288959 0
M  V30 3 C 9.288757 -2.599172 -1.777101 0
M  V30 4 C 8.345601 -1.748125 -2.298954 0
M  V30 5 N 8.198111 -0.357653 -2.057497 0
M  V30 6 C 7.159377 0.423864 -2.684834 0
M  V30 7 O 6.354194 -0.114457 -3.467674 0
M  V30 8 N 7.106283 1.805236 -2.370207 0
M  V30 9 C 6.128697 2.726123 -2.915194 0
M  V30 10 C 4.788929 2.609243 -2.308070 0
M  V30 11 C 3.748884 1.807981 -2.729586 0
M  V30 12 C 2.530424 1.774829 -2.088013 0
M  V30 13 C 2.314109 2.564304 -0.976842 0
M  V30 14 C 1.071398 2.627753 -0.214381 0
M  V30 15 C -0.015073 1.868438 -0.589099 0
M  V30 16 C -1.016388 2.155627 0.315612 0
M  V30 17 N -2.377651 1.819538 0.590303 0
M  V30 18 C -2.368372 0.653858 1.396698 0
M  V30 19 O -1.249000 0.162612 1.697257 0
M  V30 20 C -3.572940 -0.028606 1.912668 0
M  V30 21 C -3.389369 -1.182212 2.644075 0
M  V30 22 C -4.491858 -1.861439 3.150187 0
M  V30 23 C -5.781799 -1.419032 2.945316 0
M  V30 24 N -6.920731 -2.123827 3.458320 0
M  V30 25 C -8.296476 -1.721611 3.410147 0
M  V30 26 C -9.017877 -2.734012 2.535926 0
M  V30 27 N -8.577074 -4.082885 2.833172 0
M  V30 28 C -7.606035 -4.504267 1.846885 0
M  V30 29 C -7.949686 -4.166059 4.134814 0
M  V30 30 C -6.653379 -3.398915 4.094843 0
M  V30 31 C -5.900822 -0.259682 2.206583 0
M  V30 32 C -4.844596 0.454533 1.681395 0
M  V30 33 N -0.529222 3.070309 1.210570 0
M  V30 34 N 0.733780 3.342375 0.872880 0
M  V30 35 C 3.354405 3.370356 -0.548458 0
M  V30 36 C 4.581314 3.412465 -1.183682 0
M  V30 37 N 7.574501 -2.495496 -3.097097 0
M  V30 38 O 8.002241 -3.716986 -3.075748 0
M  V30 39 H 9.101590 -5.983773 -2.358289 0
M  V30 40 H 10.037008 -5.285182 -0.996404 0
M  V30 41 H 10.657473 -5.222837 -2.737931 0
M  V30 42 H 10.084711 -2.380396 -1.097938 0
M  V30 43 H 8.869770 0.106710 -1.400995 0
M  V30 44 H 7.812987 2.219545 -1.698031 0
M  V30 45 H 6.028350 2.423070 -3.997231 0
M  V30 46 H 6.495397 3.766823 -2.852478 0
M  V30 47 H 3.942716 1.200477 -3.600810 0
M  V30 48 H 1.718670 1.144677 -2.422944 0
M  V30 49 H -0.272331 1.154643 -1.354256 0
M  V30 50 H -3.299430 2.231112 0.335351 0
M  V30 51 H -2.401489 -1.578474 2.836935 0
M  V30 52 H -4.294504 -2.746453 3.711483 0
M  V30 53 H -8.790877 -1.638295 4.399852 0
M  V30 54 H -8.381275 -0.743272 2.909714 0
M  V30 55 H -8.899846 -2.518186 1.476845 0
M  V30 56 H -10.093558 -2.679168 2.795652 0
M  V30 57 H -8.083801 -5.010384 0.984355 0
M  V30 58 H -6.912528 -3.690483 1.548818 0
M  V30 59 H -6.966549 -5.293352 2.326497 0
M  V30 60 H -8.619293 -3.618997 4.851354 0
M  V30 61 H -7.811612 -5.205657 4.465901 0
M  V30 62 H -6.217763 -3.237446 5.100753 0
M  V30 63 H -5.914296 -3.937536 3.431918 0
M  V30 64 H -6.862756 0.179406 1.984000 0
M  V30 65 H -4.973563 1.361264 1.107442 0
M  V30 66 H -0.861389 3.589453 2.049119 0
M  V30 67 H 3.215367 4.003455 0.323372 0
M  V30 68 H 5.344244 4.065090 -0.792659 0
M  V30 END ATOM
M  V30 BEGIN BOND
M  V30 1 1 1 2
M  V30 2 2 2 3
M  V30 3 1 3 4
M  V30 4 1 4 5
M  V30 5 1 5 6
M  V30 6 2 6 7
M  V30 7 1 6 8
M  V30 8 1 8 9
M  V30 9 1 9 10
M  V30 10 2 10 11
M  V30 11 1 11 12
M  V30 12 2 12 13
M  V30 13 1 13 14
M  V30 14 1 14 15
M  V30 15 2 15 16
M  V30 16 1 16 17
M  V30 17 1 17 18
M  V30 18 2 18 19
M  V30 19 1 18 20
M  V30 20 2 20 21
M  V30 21 1 21 22
M  V30 22 2 22 23
M  V30 23 1 23 24
M  V30 24 1 24 25
M  V30 25 1 25 26
M  V30 26 1 26 27
M  V30 27 1 27 28
M  V30 28 1 27 29
M  V30 29 1 29 30
M  V30 30 1 23 31
M  V30 31 2 31 32
M  V30 32 1 16 33
M  V30 33 1 33 34
M  V30 34 1 13 35
M  V30 35 2 35 36
M  V30 36 2 4 37
M  V30 37 1 37 38
M  V30 38 1 38 2
M  V30 39 1 36 10
M  V30 40 2 34 14
M  V30 41 1 32 20
M  V30 42 1 30 24
M  V30 43 1 1 39
M  V30 44 1 1 40
M  V30 45 1 1 41
M  V30 46 1 3 42
M  V30 47 1 5 43
M  V30 48 1 8 44
M  V30 49 1 9 45
M  V30 50 1 9 46
M  V30 51 1 11 47
M  V30 52 1 12 48
M  V30 53 1 15 49
M  V30 54 1 17 50
M  V30 55 1 21 51
M  V30 56 1 22 52
M  V30 57 1 25 53
M  V30 58 1 25 54
M  V30 59 1 26 55
M  V30 60 1 26 56
M  V30 61 1 28 57
M  V30 62 1 28 58
M  V30 63 1 28 59
M  V30 64 1 29 60
M  V30 65 1 29 61
M  V30 66 1 30 62
M  V30 67 1 30 63
M  V30 68 1 31 64
M  V30 69 1 32 65
M  V30 70 1 33 66
M  V30 71 1 35 67
M  V30 72 1 36 68
M  V30 END BOND
M  V30 END CTAB
M  END
>  <Dataset>  (989) 
ChEMBL_Kinases

>  <Ligand_Instance>  (989) 
nan

>  <PDB_ID>  (989) 
nan

>  <Standardized_SMILES>  (989) 
Cc1cc(NC(=O)NCc2ccc(-c3cc(NC(=O)c4ccc(N5CCN(C)CC5)cc4)[nH]n3)cc2)no1

>  <Name>  (989) 
nan

>  <Pocket>  (989) 
nan

>  <ATP_Site>  (989) 
nan

>  <Peripheral>  (989) 
nan

>  <Num_H_Atoms_ProtBoundConf>  (989) 
nan

>  <Num_Resolved_Atoms>  (989) 
nan

>  <Num_Not_Resolved_Atoms>  (989) 
nan

$$$$
CHEMBL2386804
     RDKit          3D

  0  0  0  0  0  0  0  0  0  0999 V3000
M  V30 BEGIN CTAB
M  V30 COUNTS 65 69 0 0 0
M  V30 BEGIN ATOM
M  V30 1 C 3.300229 0.418585 4.964577 0
M  V30 2 C 3.727211 0.117855 3.584972 0
M  V30 3 N 3.893824 -1.138214 3.094464 0
M  V30 4 C 4.295788 -1.336966 1.804606 0
M  V30 5 N 4.425647 -2.704018 1.424677 0
M  V30 6 C 3.249908 -3.240583 0.804466 0
M  V30 7 C 2.058632 -2.600951 0.534012 0
M  V30 8 C 1.176575 -3.476565 -0.079833 0
M  V30 9 C -0.175413 -3.113544 -0.507171 0
M  V30 10 C -0.679270 -1.843930 -0.312538 0
M  V30 11 C -1.952094 -1.500917 -0.723092 0
M  V30 12 C -2.778717 -2.434636 -1.354091 0
M  V30 13 N -4.084095 -2.026719 -1.758038 0
M  V30 14 C -5.115025 -2.216771 -0.823450 0
M  V30 15 O -4.732164 -2.732687 0.254853 0
M  V30 16 N -6.479311 -1.884683 -1.004239 0
M  V30 17 C -7.564841 -2.051931 -0.112480 0
M  V30 18 C -7.514072 -2.621119 1.128852 0
M  V30 19 C -8.637302 -2.720073 1.912497 0
M  V30 20 C -9.875295 -2.264814 1.520064 0
M  V30 21 C -9.900612 -1.694959 0.264811 0
M  V30 22 C -8.784340 -1.588205 -0.532177 0
M  V30 23 C -2.276231 -3.709115 -1.550675 0
M  V30 24 C -0.982789 -4.045006 -1.129404 0
M  V30 25 N 1.848294 -4.642008 -0.173523 0
M  V30 26 N 3.059140 -4.508691 0.341505 0
M  V30 27 C 4.548558 -0.284404 0.948504 0
M  V30 28 C 4.364883 0.967488 1.492797 0
M  V30 29 N 4.588510 2.109453 0.707348 0
M  V30 30 C 4.991982 2.215642 -0.670917 0
M  V30 31 C 3.998970 3.003318 -1.492857 0
M  V30 32 N 2.966363 3.631518 -0.759597 0
M  V30 33 C 1.634895 3.333747 -1.136676 0
M  V30 34 C 3.206878 4.060240 0.551011 0
M  V30 35 C 4.432827 3.470371 1.203275 0
M  V30 36 N 3.969290 1.172665 2.762718 0
M  V30 37 H 3.637758 -0.382722 5.668957 0
M  V30 38 H 2.199350 0.550123 4.963262 0
M  V30 39 H 3.787509 1.358111 5.345098 0
M  V30 40 H 5.236617 -3.349411 1.532968 0
M  V30 41 H 1.831422 -1.574176 0.759708 0
M  V30 42 H -0.064863 -1.092201 0.175268 0
M  V30 43 H -2.276716 -0.480720 -0.533920 0
M  V30 44 H -4.346621 -1.596518 -2.693810 0
M  V30 45 H -6.617171 -1.466359 -1.949872 0
M  V30 46 H -6.590942 -3.002314 1.510375 0
M  V30 47 H -8.543738 -3.180502 2.889875 0
M  V30 48 H -10.736168 -2.361217 2.166568 0
M  V30 49 H -10.830342 -1.311380 -0.121591 0
M  V30 50 H -8.895293 -1.118225 -1.521390 0
M  V30 51 H -2.917265 -4.435145 -2.040737 0
M  V30 52 H -0.615221 -5.051411 -1.296037 0
M  V30 53 H 3.816783 -5.246820 0.411873 0
M  V30 54 H 4.862051 -0.478456 -0.055142 0
M  V30 55 H 5.182235 1.224697 -1.148808 0
M  V30 56 H 5.972673 2.747639 -0.690323 0
M  V30 57 H 3.530414 2.310914 -2.234474 0
M  V30 58 H 4.531395 3.775036 -2.094687 0
M  V30 59 H 1.640401 2.678596 -2.039704 0
M  V30 60 H 1.119375 4.308153 -1.389574 0
M  V30 61 H 1.033242 2.923008 -0.300738 0
M  V30 62 H 2.316062 3.792969 1.190673 0
M  V30 63 H 3.277806 5.166386 0.587268 0
M  V30 64 H 5.314983 4.105437 1.026812 0
M  V30 65 H 4.256369 3.459332 2.307642 0
M  V30 END ATOM
M  V30 BEGIN BOND
M  V30 1 1 1 2
M  V30 2 2 2 3
M  V30 3 1 3 4
M  V30 4 1 4 5
M  V30 5 1 5 6
M  V30 6 2 6 7
M  V30 7 1 7 8
M  V30 8 1 8 9
M  V30 9 2 9 10
M  V30 10 1 10 11
M  V30 11 2 11 12
M  V30 12 1 12 13
M  V30 13 1 13 14
M  V30 14 2 14 15
M  V30 15 1 14 16
M  V30 16 1 16 17
M  V30 17 2 17 18
M  V30 18 1 18 19
M  V30 19 2 19 20
M  V30 20 1 20 21
M  V30 21 2 21 22
M  V30 22 1 12 23
M  V30 23 2 23 24
M  V30 24 2 8 25
M  V30 25 1 25 26
M  V30 26 2 4 27
M  V30 27 1 27 28
M  V30 28 1 28 29
M  V30 29 1 29 30
M  V30 30 1 30 31
M  V30 31 1 31 32
M  V30 32 1 32 33
M  V30 33 1 32 34
M  V30 34 1 34 35
M  V30 35 2 28 36
M  V30 36 1 36 2
M  V30 37 1 26 6
M  V30 38 1 35 29
M  V30 39 1 24 9
M  V30 40 1 22 17
M  V30 41 1 1 37
M  V30 42 1 1 38
M  V30 43 1 1 39
M  V30 44 1 5 40
M  V30 45 1 7 41
M  V30 46 1 10 42
M  V30 47 1 11 43
M  V30 48 1 13 44
M  V30 49 1 16 45
M  V30 50 1 18 46
M  V30 51 1 19 47
M  V30 52 1 20 48
M  V30 53 1 21 49
M  V30 54 1 22 50
M  V30 55 1 23 51
M  V30 56 1 24 52
M  V30 57 1 26 53
M  V30 58 1 27 54
M  V30 59 1 30 55
M  V30 60 1 30 56
M  V30 61 1 31 57
M  V30 62 1 31 58
M  V30 63 1 33 59
M  V30 64 1 33 60
M  V30 65 1 33 61
M  V30 66 1 34 62
M  V30 67 1 34 63
M  V30 68 1 35 64
M  V30 69 1 35 65
M  V30 END BOND
M  V30 END CTAB
M  END
>  <Dataset>  (990) 
ChEMBL_Kinases

>  <Ligand_Instance>  (990) 
nan

>  <PDB_ID>  (990) 
nan

>  <Standardized_SMILES>  (990) 
Cc1nc(Nc2cc(-c3ccc(NC(=O)Nc4ccccc4)cc3)n[nH]2)cc(N2CCN(C)CC2)n1

>  <Name>  (990) 
nan

>  <Pocket>  (990) 
nan

>  <ATP_Site>  (990) 
nan

>  <Peripheral>  (990) 
nan

>  <Num_H_Atoms_ProtBoundConf>  (990) 
nan

>  <Num_Resolved_Atoms>  (990) 
nan

>  <Num_Not_Resolved_Atoms>  (990) 
nan

$$$$
CHEMBL2386805
     RDKit          3D

  0  0  0  0  0  0  0  0  0  0999 V3000
M  V30 BEGIN CTAB
M  V30 COUNTS 67 71 0 0 0
M  V30 BEGIN ATOM
M  V30 1 C 6.794774 -2.401622 5.280888 0
M  V30 2 C 5.614274 -2.148159 4.415426 0
M  V30 3 N 5.417744 -2.884911 3.320118 0
M  V30 4 C 4.351598 -2.696937 2.487426 0
M  V30 5 N 4.171502 -3.521555 1.355267 0
M  V30 6 C 3.307431 -3.434202 0.240512 0
M  V30 7 C 2.501377 -2.451817 -0.290347 0
M  V30 8 C 1.796161 -2.853166 -1.383899 0
M  V30 9 C 0.855559 -2.056805 -2.154850 0
M  V30 10 C 0.610454 -0.723345 -1.820984 0
M  V30 11 C -0.307481 0.017681 -2.574817 0
M  V30 12 C -0.975888 -0.567649 -3.654532 0
M  V30 13 C -1.874932 0.459533 -4.264267 0
M  V30 14 N -3.149438 0.513630 -3.612945 0
M  V30 15 C -4.218262 -0.396486 -3.782355 0
M  V30 16 O -4.221359 -1.386626 -4.534234 0
M  V30 17 N -5.377651 -0.131211 -3.010406 0
M  V30 18 C -6.584468 -0.871456 -2.993432 0
M  V30 19 C -7.594046 -0.472795 -3.881551 0
M  V30 20 C -8.642012 -1.363166 -3.642070 0
M  V30 21 C -9.946274 -1.314569 -4.372970 0
M  V30 22 O -8.284825 -2.196164 -2.713015 0
M  V30 23 N -7.086605 -1.921443 -2.324132 0
M  V30 24 C -0.721234 -1.881823 -3.967995 0
M  V30 25 C 0.183503 -2.604751 -3.221627 0
M  V30 26 N 2.210133 -4.124571 -1.495179 0
M  V30 27 N 3.067843 -4.472958 -0.583680 0
M  V30 28 C 3.527074 -1.678551 2.909056 0
M  V30 29 C 3.669563 -0.883345 4.019562 0
M  V30 30 N 2.747574 0.146135 4.360403 0
M  V30 31 C 1.586603 0.322821 3.511731 0
M  V30 32 C 0.654528 1.286048 4.226581 0
M  V30 33 N 1.365681 2.513946 4.504528 0
M  V30 34 C 0.463623 3.506014 5.054911 0
M  V30 35 C 2.467649 2.355586 5.412755 0
M  V30 36 C 3.002123 0.962311 5.526772 0
M  V30 37 N 4.773939 -1.149774 4.793695 0
M  V30 38 H 7.510062 -1.529791 5.209646 0
M  V30 39 H 7.364836 -3.295558 5.021089 0
M  V30 40 H 6.477223 -2.384084 6.354093 0
M  V30 41 H 4.824036 -4.368141 1.361993 0
M  V30 42 H 2.428234 -1.446069 0.095247 0
M  V30 43 H 1.149085 -0.310825 -0.976559 0
M  V30 44 H -0.393109 1.039579 -2.198703 0
M  V30 45 H -1.394454 1.431183 -4.388928 0
M  V30 46 H -2.085827 0.056134 -5.302759 0
M  V30 47 H -3.233567 1.327235 -2.960601 0
M  V30 48 H -5.469948 0.677699 -2.347352 0
M  V30 49 H -7.645265 0.325102 -4.618003 0
M  V30 50 H -10.189582 -0.229736 -4.572312 0
M  V30 51 H -9.881533 -1.786021 -5.360673 0
M  V30 52 H -10.728039 -1.758839 -3.741740 0
M  V30 53 H -1.300994 -2.194046 -4.815100 0
M  V30 54 H 0.319456 -3.629652 -3.540841 0
M  V30 55 H 3.446289 -5.454164 -0.591826 0
M  V30 56 H 2.653380 -1.449060 2.348692 0
M  V30 57 H 1.861886 0.811986 2.546315 0
M  V30 58 H 1.060630 -0.631786 3.315378 0
M  V30 59 H -0.241926 1.533348 3.625596 0
M  V30 60 H 0.406069 0.805746 5.211701 0
M  V30 61 H 0.507420 3.431332 6.176504 0
M  V30 62 H -0.553522 3.307735 4.656457 0
M  V30 63 H 0.774976 4.510049 4.713950 0
M  V30 64 H 3.303827 3.036466 5.117723 0
M  V30 65 H 2.174362 2.673072 6.438609 0
M  V30 66 H 2.603905 0.458398 6.447459 0
M  V30 67 H 4.106616 1.048644 5.739375 0
M  V30 END ATOM
M  V30 BEGIN BOND
M  V30 1 1 1 2
M  V30 2 2 2 3
M  V30 3 1 3 4
M  V30 4 1 4 5
M  V30 5 1 5 6
M  V30 6 2 6 7
M  V30 7 1 7 8
M  V30 8 1 8 9
M  V30 9 2 9 10
M  V30 10 1 10 11
M  V30 11 2 11 12
M  V30 12 1 12 13
M  V30 13 1 13 14
M  V30 14 1 14 15
M  V30 15 2 15 16
M  V30 16 1 15 17
M  V30 17 1 17 18
M  V30 18 1 18 19
M  V30 19 2 19 20
M  V30 20 1 20 21
M  V30 21 1 20 22
M  V30 22 1 22 23
M  V30 23 1 12 24
M  V30 24 2 24 25
M  V30 25 2 8 26
M  V30 26 1 26 27
M  V30 27 2 4 28
M  V30 28 1 28 29
M  V30 29 1 29 30
M  V30 30 1 30 31
M  V30 31 1 31 32
M  V30 32 1 32 33
M  V30 33 1 33 34
M  V30 34 1 33 35
M  V30 35 1 35 36
M  V30 36 2 29 37
M  V30 37 1 37 2
M  V30 38 1 27 6
M  V30 39 1 36 30
M  V30 40 1 25 9
M  V30 41 2 23 18
M  V30 42 1 1 38
M  V30 43 1 1 39
M  V30 44 1 1 40
M  V30 45 1 5 41
M  V30 46 1 7 42
M  V30 47 1 10 43
M  V30 48 1 11 44
M  V30 49 1 13 45
M  V30 50 1 13 46
M  V30 51 1 14 47
M  V30 52 1 17 48
M  V30 53 1 19 49
M  V30 54 1 21 50
M  V30 55 1 21 51
M  V30 56 1 21 52
M  V30 57 1 24 53
M  V30 58 1 25 54
M  V30 59 1 27 55
M  V30 60 1 28 56
M  V30 61 1 31 57
M  V30 62 1 31 58
M  V30 63 1 32 59
M  V30 64 1 32 60
M  V30 65 1 34 61
M  V30 66 1 34 62
M  V30 67 1 34 63
M  V30 68 1 35 64
M  V30 69 1 35 65
M  V30 70 1 36 66
M  V30 71 1 36 67
M  V30 END BOND
M  V30 END CTAB
M  END
>  <Dataset>  (991) 
ChEMBL_Kinases

>  <Ligand_Instance>  (991) 
nan

>  <PDB_ID>  (991) 
nan

>  <Standardized_SMILES>  (991) 
Cc1nc(Nc2cc(-c3ccc(CNC(=O)Nc4cc(C)on4)cc3)n[nH]2)cc(N2CCN(C)CC2)n1

>  <Name>  (991) 
nan

>  <Pocket>  (991) 
nan

>  <ATP_Site>  (991) 
nan

>  <Peripheral>  (991) 
nan

>  <Num_H_Atoms_ProtBoundConf>  (991) 
nan

>  <Num_Resolved_Atoms>  (991) 
nan

>  <Num_Not_Resolved_Atoms>  (991) 
nan

$$$$
CHEMBL2386806
     RDKit          3D

  0  0  0  0  0  0  0  0  0  0999 V3000
M  V30 BEGIN CTAB
M  V30 COUNTS 76 80 0 0 0
M  V30 BEGIN ATOM
M  V30 1 C 2.983530 -2.103778 7.439885 0
M  V30 2 C 2.736700 -1.263730 6.247765 0
M  V30 3 N 2.000111 -0.142603 6.512974 0
M  V30 4 C 1.722828 0.697316 5.470956 0
M  V30 5 N 0.947425 1.867569 5.695662 0
M  V30 6 C 0.703019 2.721269 4.571335 0
M  V30 7 C -0.359733 2.295115 3.762262 0
M  V30 8 C -0.457303 3.234381 2.727670 0
M  V30 9 C -1.423756 3.204469 1.632962 0
M  V30 10 C -2.348232 2.182663 1.559666 0
M  V30 11 C -3.249443 2.171901 0.510347 0
M  V30 12 C -3.273556 3.137699 -0.477253 0
M  V30 13 C -4.234990 3.122448 -1.617167 0
M  V30 14 N -3.585750 2.418112 -2.707753 0
M  V30 15 C -3.369167 1.029277 -2.897857 0
M  V30 16 O -3.799146 0.258200 -2.000116 0
M  V30 17 N -2.716025 0.480642 -4.005521 0
M  V30 18 C -2.546897 -0.926868 -4.093896 0
M  V30 19 C -3.144026 -2.062214 -4.566402 0
M  V30 20 C -2.283172 -3.105316 -4.225753 0
M  V30 21 C -2.666550 -4.491702 -4.613263 0
M  V30 22 C -3.502940 -5.133977 -3.530909 0
M  V30 23 C -3.462248 -4.529500 -5.898946 0
M  V30 24 C -1.427740 -5.350462 -4.757985 0
M  V30 25 O -1.251341 -2.615831 -3.596122 0
M  V30 26 N -1.378348 -1.320680 -3.501488 0
M  V30 27 C -2.313572 4.136904 -0.339203 0
M  V30 28 C -1.387821 4.203879 0.683853 0
M  V30 29 N 0.504697 4.147381 2.943993 0
M  V30 30 N 1.194573 3.850552 4.031739 0
M  V30 31 C 2.202234 0.354079 4.245024 0
M  V30 32 C 2.951824 -0.774971 3.941124 0
M  V30 33 N 3.437034 -1.103124 2.661897 0
M  V30 34 C 4.078136 -2.408777 2.499634 0
M  V30 35 C 4.917000 -2.365183 1.253310 0
M  V30 36 N 4.152349 -2.028424 0.074297 0
M  V30 37 C 3.684886 -3.264022 -0.523535 0
M  V30 38 C 3.101062 -1.085384 0.293800 0
M  V30 39 C 3.336299 -0.222702 1.525085 0
M  V30 40 N 3.180464 -1.547851 5.018809 0
M  V30 41 H 3.641273 -2.976483 7.201029 0
M  V30 42 H 2.039182 -2.454933 7.879274 0
M  V30 43 H 3.552773 -1.485382 8.195629 0
M  V30 44 H 0.584414 2.068494 6.652527 0
M  V30 45 H -1.049311 1.437308 3.808339 0
M  V30 46 H -2.394309 1.390589 2.291774 0
M  V30 47 H -3.959210 1.363514 0.485048 0
M  V30 48 H -5.155101 2.585554 -1.291755 0
M  V30 49 H -4.444359 4.156930 -1.910476 0
M  V30 50 H -3.196759 2.999644 -3.510540 0
M  V30 51 H -2.362911 1.146163 -4.749781 0
M  V30 52 H -4.081045 -1.903555 -5.061398 0
M  V30 53 H -3.006547 -4.931531 -2.575634 0
M  V30 54 H -4.562422 -4.810802 -3.564589 0
M  V30 55 H -3.488119 -6.232907 -3.714881 0
M  V30 56 H -3.281059 -3.558243 -6.434577 0
M  V30 57 H -3.061608 -5.330365 -6.531050 0
M  V30 58 H -4.562670 -4.666087 -5.722890 0
M  V30 59 H -1.210481 -5.854760 -3.812878 0
M  V30 60 H -1.648156 -6.123170 -5.519619 0
M  V30 61 H -0.557705 -4.752632 -5.106899 0
M  V30 62 H -2.349285 4.892602 -1.131775 0
M  V30 63 H -0.673585 5.012570 0.724009 0
M  V30 64 H 1.995936 4.256637 4.559627 0
M  V30 65 H 1.955662 1.047889 3.465153 0
M  V30 66 H 4.728517 -2.609027 3.371824 0
M  V30 67 H 3.310856 -3.205379 2.372574 0
M  V30 68 H 5.308315 -3.406360 1.111761 0
M  V30 69 H 5.817458 -1.725829 1.366116 0
M  V30 70 H 3.128123 -3.029999 -1.455921 0
M  V30 71 H 3.030655 -3.827226 0.172451 0
M  V30 72 H 4.556015 -3.910363 -0.737408 0
M  V30 73 H 2.957845 -0.385674 -0.562684 0
M  V30 74 H 2.133127 -1.595442 0.424119 0
M  V30 75 H 2.536296 0.506689 1.625537 0
M  V30 76 H 4.348383 0.264977 1.424536 0
M  V30 END ATOM
M  V30 BEGIN BOND
M  V30 1 1 1 2
M  V30 2 2 2 3
M  V30 3 1 3 4
M  V30 4 1 4 5
M  V30 5 1 5 6
M  V30 6 2 6 7
M  V30 7 1 7 8
M  V30 8 1 8 9
M  V30 9 2 9 10
M  V30 10 1 10 11
M  V30 11 2 11 12
M  V30 12 1 12 13
M  V30 13 1 13 14
M  V30 14 1 14 15
M  V30 15 2 15 16
M  V30 16 1 15 17
M  V30 17 1 17 18
M  V30 18 1 18 19
M  V30 19 2 19 20
M  V30 20 1 20 21
M  V30 21 1 21 22
M  V30 22 1 21 23
M  V30 23 1 21 24
M  V30 24 1 20 25
M  V30 25 1 25 26
M  V30 26 1 12 27
M  V30 27 2 27 28
M  V30 28 2 8 29
M  V30 29 1 29 30
M  V30 30 2 4 31
M  V30 31 1 31 32
M  V30 32 1 32 33
M  V30 33 1 33 34
M  V30 34 1 34 35
M  V30 35 1 35 36
M  V30 36 1 36 37
M  V30 37 1 36 38
M  V30 38 1 38 39
M  V30 39 2 32 40
M  V30 40 1 40 2
M  V30 41 1 30 6
M  V30 42 1 39 33
M  V30 43 1 28 9
M  V30 44 2 26 18
M  V30 45 1 1 41
M  V30 46 1 1 42
M  V30 47 1 1 43
M  V30 48 1 5 44
M  V30 49 1 7 45
M  V30 50 1 10 46
M  V30 51 1 11 47
M  V30 52 1 13 48
M  V30 53 1 13 49
M  V30 54 1 14 50
M  V30 55 1 17 51
M  V30 56 1 19 52
M  V30 57 1 22 53
M  V30 58 1 22 54
M  V30 59 1 22 55
M  V30 60 1 23 56
M  V30 61 1 23 57
M  V30 62 1 23 58
M  V30 63 1 24 59
M  V30 64 1 24 60
M  V30 65 1 24 61
M  V30 66 1 27 62
M  V30 67 1 28 63
M  V30 68 1 30 64
M  V30 69 1 31 65
M  V30 70 1 34 66
M  V30 71 1 34 67
M  V30 72 1 35 68
M  V30 73 1 35 69
M  V30 74 1 37 70
M  V30 75 1 37 71
M  V30 76 1 37 72
M  V30 77 1 38 73
M  V30 78 1 38 74
M  V30 79 1 39 75
M  V30 80 1 39 76
M  V30 END BOND
M  V30 END CTAB
M  END
>  <Dataset>  (992) 
ChEMBL_Kinases

>  <Ligand_Instance>  (992) 
nan

>  <PDB_ID>  (992) 
nan

>  <Standardized_SMILES>  (992) 
Cc1nc(Nc2cc(-c3ccc(CNC(=O)Nc4cc(C(C)(C)C)on4)cc3)n[nH]2)cc(N2CCN(C)CC2)n1

>  <Name>  (992) 
nan

>  <Pocket>  (992) 
nan

>  <ATP_Site>  (992) 
nan

>  <Peripheral>  (992) 
nan

>  <Num_H_Atoms_ProtBoundConf>  (992) 
nan

>  <Num_Resolved_Atoms>  (992) 
nan

>  <Num_Not_Resolved_Atoms>  (992) 
nan

$$$$
CHEMBL2386793
     RDKit          3D

  0  0  0  0  0  0  0  0  0  0999 V3000
M  V30 BEGIN CTAB
M  V30 COUNTS 77 81 0 0 0
M  V30 BEGIN ATOM
M  V30 1 C 5.941711 -6.557768 2.477791 0
M  V30 2 C 7.370843 -6.045910 2.615043 0
M  V30 3 C 8.113410 -7.029841 3.486405 0
M  V30 4 C 8.008254 -6.029427 1.256734 0
M  V30 5 C 7.383284 -4.694458 3.252115 0
M  V30 6 C 7.304733 -3.466550 2.662594 0
M  V30 7 C 7.355040 -2.509760 3.654756 0
M  V30 8 N 7.305134 -1.070314 3.557927 0
M  V30 9 C 6.024145 -0.404535 3.610012 0
M  V30 10 O 5.022769 -1.154950 3.738062 0
M  V30 11 N 5.850616 1.006411 3.525968 0
M  V30 12 C 4.449591 1.355707 3.604962 0
M  V30 13 C 3.870932 1.412841 2.350498 0
M  V30 14 C 2.531173 1.731989 2.257579 0
M  V30 15 C 1.751461 1.996337 3.390294 0
M  V30 16 C 0.336703 2.334378 3.270630 0
M  V30 17 C -0.320895 2.422241 2.048311 0
M  V30 18 C -1.622385 2.759221 2.353566 0
M  V30 19 N -2.657273 2.959805 1.362653 0
M  V30 20 C -3.225068 1.678073 1.134720 0
M  V30 21 O -2.671576 0.770308 1.843651 0
M  V30 22 C -4.316810 1.369047 0.208472 0
M  V30 23 C -4.986449 2.335622 -0.498690 0
M  V30 24 C -5.998287 1.997862 -1.366105 0
M  V30 25 C -6.403315 0.701564 -1.584346 0
M  V30 26 O -7.315714 0.071017 -2.332470 0
M  V30 27 C -8.239228 0.554751 -3.224278 0
M  V30 28 C -7.724480 1.270432 -4.424012 0
M  V30 29 N -6.875364 0.559564 -5.296859 0
M  V30 30 C -5.580779 0.200462 -4.870885 0
M  V30 31 C -4.659288 0.306771 -6.097789 0
M  V30 32 O -5.357883 0.787658 -7.212343 0
M  V30 33 C -6.374470 -0.115210 -7.519292 0
M  V30 34 C -7.433848 -0.110581 -6.405712 0
M  V30 35 C -5.697364 -0.262619 -0.844440 0
M  V30 36 C -4.658992 0.026727 0.052789 0
M  V30 37 N -1.765890 2.874218 3.685862 0
M  V30 38 N -0.574595 2.614543 4.218680 0
M  V30 39 C 2.374739 1.926886 4.622579 0
M  V30 40 C 3.713240 1.610152 4.743888 0
M  V30 41 N 7.461082 -3.193115 4.792666 0
M  V30 42 O 7.478574 -4.489004 4.563109 0
M  V30 43 H 5.222232 -5.798420 2.894962 0
M  V30 44 H 5.800710 -7.558919 2.931812 0
M  V30 45 H 5.677881 -6.661946 1.408781 0
M  V30 46 H 8.416226 -6.497643 4.428505 0
M  V30 47 H 7.505821 -7.928860 3.716674 0
M  V30 48 H 9.068826 -7.276122 2.985489 0
M  V30 49 H 7.243435 -6.189244 0.471604 0
M  V30 50 H 8.734814 -6.878193 1.129033 0
M  V30 51 H 8.598286 -5.099696 1.051111 0
M  V30 52 H 7.217579 -3.253951 1.606253 0
M  V30 53 H 8.108497 -0.390887 3.449380 0
M  V30 54 H 6.730505 1.575966 3.421521 0
M  V30 55 H 4.360989 1.229330 1.390915 0
M  V30 56 H 2.025738 1.790328 1.292216 0
M  V30 57 H 0.043020 2.272918 1.041443 0
M  V30 58 H -3.066270 3.756709 0.808651 0
M  V30 59 H -4.735127 3.366904 -0.389563 0
M  V30 60 H -6.567031 2.708089 -1.939500 0
M  V30 61 H -9.024591 -0.202964 -3.477596 0
M  V30 62 H -8.846892 1.336190 -2.654384 0
M  V30 63 H -7.179734 2.180605 -4.097101 0
M  V30 64 H -8.582348 1.696660 -5.031449 0
M  V30 65 H -5.202978 0.979210 -4.176781 0
M  V30 66 H -5.563908 -0.822171 -4.480693 0
M  V30 67 H -3.803267 0.963024 -5.930837 0
M  V30 68 H -4.263376 -0.684631 -6.359189 0
M  V30 69 H -6.822147 0.085991 -8.507914 0
M  V30 70 H -5.872650 -1.121246 -7.552447 0
M  V30 71 H -8.293808 0.464740 -6.811482 0
M  V30 72 H -7.718333 -1.171010 -6.258572 0
M  V30 73 H -5.851278 -1.358730 -0.859398 0
M  V30 74 H -4.112226 -0.704043 0.624539 0
M  V30 75 H -2.669036 3.120570 4.107715 0
M  V30 76 H 1.822660 2.122218 5.542922 0
M  V30 77 H 4.272039 1.535690 5.663958 0
M  V30 END ATOM
M  V30 BEGIN BOND
M  V30 1 1 1 2
M  V30 2 1 2 3
M  V30 3 1 2 4
M  V30 4 1 2 5
M  V30 5 2 5 6
M  V30 6 1 6 7
M  V30 7 1 7 8
M  V30 8 1 8 9
M  V30 9 2 9 10
M  V30 10 1 9 11
M  V30 11 1 11 12
M  V30 12 2 12 13
M  V30 13 1 13 14
M  V30 14 2 14 15
M  V30 15 1 15 16
M  V30 16 1 16 17
M  V30 17 2 17 18
M  V30 18 1 18 19
M  V30 19 1 19 20
M  V30 20 2 20 21
M  V30 21 1 20 22
M  V30 22 2 22 23
M  V30 23 1 23 24
M  V30 24 2 24 25
M  V30 25 1 25 26
M  V30 26 1 26 27
M  V30 27 1 27 28
M  V30 28 1 28 29
M  V30 29 1 29 30
M  V30 30 1 30 31
M  V30 31 1 31 32
M  V30 32 1 32 33
M  V30 33 1 33 34
M  V30 34 1 25 35
M  V30 35 2 35 36
M  V30 36 1 18 37
M  V30 37 1 37 38
M  V30 38 1 15 39
M  V30 39 2 39 40
M  V30 40 2 7 41
M  V30 41 1 41 42
M  V30 42 1 42 5
M  V30 43 1 40 12
M  V30 44 2 38 16
M  V30 45 1 36 22
M  V30 46 1 34 29
M  V30 47 1 1 43
M  V30 48 1 1 44
M  V30 49 1 1 45
M  V30 50 1 3 46
M  V30 51 1 3 47
M  V30 52 1 3 48
M  V30 53 1 4 49
M  V30 54 1 4 50
M  V30 55 1 4 51
M  V30 56 1 6 52
M  V30 57 1 8 53
M  V30 58 1 11 54
M  V30 59 1 13 55
M  V30 60 1 14 56
M  V30 61 1 17 57
M  V30 62 1 19 58
M  V30 63 1 23 59
M  V30 64 1 24 60
M  V30 65 1 27 61
M  V30 66 1 27 62
M  V30 67 1 28 63
M  V30 68 1 28 64
M  V30 69 1 30 65
M  V30 70 1 30 66
M  V30 71 1 31 67
M  V30 72 1 31 68
M  V30 73 1 33 69
M  V30 74 1 33 70
M  V30 75 1 34 71
M  V30 76 1 34 72
M  V30 77 1 35 73
M  V30 78 1 36 74
M  V30 79 1 37 75
M  V30 80 1 39 76
M  V30 81 1 40 77
M  V30 END BOND
M  V30 END CTAB
M  END
>  <Dataset>  (993) 
ChEMBL_Kinases

>  <Ligand_Instance>  (993) 
nan

>  <PDB_ID>  (993) 
nan

>  <Standardized_SMILES>  (993) 
CC(C)(C)c1cc(NC(=O)Nc2ccc(-c3cc(NC(=O)c4ccc(OCCN5CCOCC5)cc4)[nH]n3)cc2)no1

>  <Name>  (993) 
nan

>  <Pocket>  (993) 
nan

>  <ATP_Site>  (993) 
nan

>  <Peripheral>  (993) 
nan

>  <Num_H_Atoms_ProtBoundConf>  (993) 
nan

>  <Num_Resolved_Atoms>  (993) 
nan

>  <Num_Not_Resolved_Atoms>  (993) 
nan

$$$$
CHEMBL240799
     RDKit          3D

  0  0  0  0  0  0  0  0  0  0999 V3000
M  V30 BEGIN CTAB
M  V30 COUNTS 34 37 0 0 0
M  V30 BEGIN ATOM
M  V30 1 O 0.049533 -0.613557 3.541022 0
M  V30 2 C 0.729573 -1.151211 2.653389 0
M  V30 3 N 1.352751 -2.426173 2.760668 0
M  V30 4 C 2.131960 -3.040708 1.741801 0
M  V30 5 C 2.724190 -4.266711 1.860602 0
M  V30 6 C 3.461939 -4.780134 0.815380 0
M  V30 7 C 3.611411 -4.060551 -0.365721 0
M  V30 8 C 2.994141 -2.812005 -0.455069 0
M  V30 9 C 2.257291 -2.297265 0.586594 0
M  V30 10 C 1.704109 -0.962711 0.252762 0
M  V30 11 N 0.949468 -0.507048 1.403595 0
M  V30 12 C 0.361765 0.794888 1.185134 0
M  V30 13 C 0.907757 2.082622 1.456945 0
M  V30 14 S -0.509159 3.188111 0.874184 0
M  V30 15 C -1.501815 1.729797 0.404354 0
M  V30 16 C -2.887842 1.924062 -0.190159 0
M  V30 17 C -3.569174 0.774801 -0.516761 0
M  V30 18 C -4.829361 0.943888 -1.057501 0
M  V30 19 N -5.378329 2.165372 -1.261376 0
M  V30 20 C -4.650008 3.241104 -0.916466 0
M  V30 21 C -3.388622 3.193110 -0.371865 0
M  V30 22 N -0.866205 0.799894 0.653806 0
M  V30 23 H 1.233490 -2.961758 3.657670 0
M  V30 24 H 2.543991 -4.739420 2.819849 0
M  V30 25 H 3.907706 -5.747172 0.956866 0
M  V30 26 H 4.200300 -4.530654 -1.129097 0
M  V30 27 H 3.189791 -2.359510 -1.425074 0
M  V30 28 H 2.575273 -0.289966 0.131400 0
M  V30 29 H 1.111070 -0.950711 -0.680500 0
M  V30 30 H 2.010252 1.995743 1.931710 0
M  V30 31 H -3.115347 -0.192801 -0.347057 0
M  V30 32 H -5.389678 0.040037 -1.324955 0
M  V30 33 H -5.109481 4.206173 -1.088686 0
M  V30 34 H -2.814346 4.066978 -0.099200 0
M  V30 END ATOM
M  V30 BEGIN BOND
M  V30 1 2 1 2
M  V30 2 1 2 3
M  V30 3 1 3 4
M  V30 4 2 4 5
M  V30 5 1 5 6
M  V30 6 2 6 7
M  V30 7 1 7 8
M  V30 8 2 8 9
M  V30 9 1 9 10
M  V30 10 1 10 11
M  V30 11 1 11 12
M  V30 12 2 12 13
M  V30 13 1 13 14
M  V30 14 1 14 15
M  V30 15 1 15 16
M  V30 16 2 16 17
M  V30 17 1 17 18
M  V30 18 2 18 19
M  V30 19 1 19 20
M  V30 20 2 20 21
M  V30 21 2 15 22
M  V30 22 1 11 2
M  V30 23 1 22 12
M  V30 24 1 9 4
M  V30 25 1 21 16
M  V30 26 1 3 23
M  V30 27 1 5 24
M  V30 28 1 6 25
M  V30 29 1 7 26
M  V30 30 1 8 27
M  V30 31 1 10 28
M  V30 32 1 10 29
M  V30 33 1 13 30
M  V30 34 1 17 31
M  V30 35 1 18 32
M  V30 36 1 20 33
M  V30 37 1 21 34
M  V30 END BOND
M  V30 END CTAB
M  END
>  <Dataset>  (994) 
ChEMBL_Kinases

>  <Ligand_Instance>  (994) 
nan

>  <PDB_ID>  (994) 
nan

>  <Standardized_SMILES>  (994) 
O=C1Nc2ccccc2CN1c1csc(-c2ccncc2)n1

>  <Name>  (994) 
nan

>  <Pocket>  (994) 
nan

>  <ATP_Site>  (994) 
nan

>  <Peripheral>  (994) 
nan

>  <Num_H_Atoms_ProtBoundConf>  (994) 
nan

>  <Num_Resolved_Atoms>  (994) 
nan

>  <Num_Not_Resolved_Atoms>  (994) 
nan

$$$$
CHEMBL2407917
     RDKit          3D

  0  0  0  0  0  0  0  0  0  0999 V3000
M  V30 BEGIN CTAB
M  V30 COUNTS 38 41 0 0 0
M  V30 BEGIN ATOM
M  V30 1 C 1.953956 -5.371185 0.848822 0
M  V30 2 N 0.892038 -4.544340 1.343531 0
M  V30 3 C 0.787044 -3.161435 1.091622 0
M  V30 4 O 1.718623 -2.688312 0.380576 0
M  V30 5 C -0.289178 -2.309731 1.589734 0
M  V30 6 C -1.303764 -2.872324 2.375746 0
M  V30 7 C -2.350582 -2.129890 2.880439 0
M  V30 8 C -2.434945 -0.781445 2.622065 0
M  V30 9 C -1.442193 -0.235120 1.852186 0
M  V30 10 C -0.396453 -0.958912 1.345802 0
M  V30 11 C -1.750265 1.174135 1.743583 0
M  V30 12 C -1.068779 2.020825 1.030338 0
M  V30 13 C 0.090575 1.909884 0.177787 0
M  V30 14 C 1.181127 2.705017 0.573322 0
M  V30 15 C 2.379846 2.838748 -0.096491 0
M  V30 16 C 2.508429 2.118916 -1.264040 0
M  V30 17 C 3.494685 1.962969 -2.212049 0
M  V30 18 N 3.058138 1.122374 -3.150050 0
M  V30 19 N 1.838290 0.715259 -2.872987 0
M  V30 20 C 1.488173 1.315562 -1.723086 0
M  V30 21 C 0.317829 1.225590 -1.008460 0
M  V30 22 C -2.954418 1.449708 2.476102 0
M  V30 23 O -3.524449 2.540097 2.613573 0
M  V30 24 N -3.372826 0.205512 3.022782 0
M  V30 25 H 1.512117 -6.279321 0.356619 0
M  V30 26 H 2.576351 -4.886676 0.088123 0
M  V30 27 H 2.577146 -5.795702 1.677531 0
M  V30 28 H 0.170373 -5.021149 1.919935 0
M  V30 29 H -1.346314 -3.901706 2.641209 0
M  V30 30 H -3.133939 -2.552992 3.485094 0
M  V30 31 H 0.445803 -0.656993 0.765026 0
M  V30 32 H -1.421016 3.067569 1.047906 0
M  V30 33 H 1.140813 3.304441 1.497334 0
M  V30 34 H 3.181833 3.466856 0.259198 0
M  V30 35 H 4.457807 2.455974 -2.174759 0
M  V30 36 H 1.260204 0.043610 -3.456129 0
M  V30 37 H -0.552833 0.624864 -1.273751 0
M  V30 38 H -4.214526 0.058189 3.608000 0
M  V30 END ATOM
M  V30 BEGIN BOND
M  V30 1 1 1 2
M  V30 2 1 2 3
M  V30 3 2 3 4
M  V30 4 1 3 5
M  V30 5 2 5 6
M  V30 6 1 6 7
M  V30 7 2 7 8
M  V30 8 1 8 9
M  V30 9 2 9 10
M  V30 10 1 9 11
M  V30 11 2 11 12
M  V30 12 1 12 13
M  V30 13 2 13 14
M  V30 14 1 14 15
M  V30 15 2 15 16
M  V30 16 1 16 17
M  V30 17 2 17 18
M  V30 18 1 18 19
M  V30 19 1 19 20
M  V30 20 2 20 21
M  V30 21 1 11 22
M  V30 22 2 22 23
M  V30 23 1 22 24
M  V30 24 1 10 5
M  V30 25 1 21 13
M  V30 26 1 24 8
M  V30 27 1 20 16
M  V30 28 1 1 25
M  V30 29 1 1 26
M  V30 30 1 1 27
M  V30 31 1 2 28
M  V30 32 1 6 29
M  V30 33 1 7 30
M  V30 34 1 10 31
M  V30 35 1 12 32
M  V30 36 1 14 33
M  V30 37 1 15 34
M  V30 38 1 17 35
M  V30 39 1 19 36
M  V30 40 1 21 37
M  V30 41 1 24 38
M  V30 END BOND
M  V30 END CTAB
M  END
>  <Dataset>  (995) 
ChEMBL_Kinases

>  <Ligand_Instance>  (995) 
nan

>  <PDB_ID>  (995) 
nan

>  <Standardized_SMILES>  (995) 
CNC(=O)c1ccc2c(c1)/C(=C\c1ccc3cn[nH]c3c1)C(=O)N2

>  <Name>  (995) 
nan

>  <Pocket>  (995) 
nan

>  <ATP_Site>  (995) 
nan

>  <Peripheral>  (995) 
nan

>  <Num_H_Atoms_ProtBoundConf>  (995) 
nan

>  <Num_Resolved_Atoms>  (995) 
nan

>  <Num_Not_Resolved_Atoms>  (995) 
nan

$$$$
CHEMBL2407914
     RDKit          3D

  0  0  0  0  0  0  0  0  0  0999 V3000
M  V30 BEGIN CTAB
M  V30 COUNTS 31 34 0 0 0
M  V30 BEGIN ATOM
M  V30 1 O -0.004347 -4.199015 -1.882578 0
M  V30 2 C 0.729581 -3.668009 -1.038298 0
M  V30 3 N 1.908429 -4.130851 -0.396881 0
M  V30 4 C 2.362927 -3.124101 0.496485 0
M  V30 5 C 3.449947 -3.126521 1.340914 0
M  V30 6 C 3.713550 -2.047167 2.153913 0
M  V30 7 C 2.871905 -0.934450 2.126543 0
M  V30 8 Cl 3.340409 0.348709 3.215036 0
M  V30 9 C 1.801941 -0.978517 1.268604 0
M  V30 10 C 1.527865 -2.035250 0.457378 0
M  V30 11 C 0.493186 -2.340717 -0.495930 0
M  V30 12 C -0.479799 -1.494988 -0.720001 0
M  V30 13 C -0.809798 -0.168580 -0.255074 0
M  V30 14 C -0.224645 1.105990 -0.321877 0
M  V30 15 C -0.782797 2.222529 0.245870 0
M  V30 16 C -1.974898 2.118043 0.920536 0
M  V30 17 C -2.688490 3.115182 1.553855 0
M  V30 18 N -3.770428 2.464921 2.045902 0
M  V30 19 N -3.723375 1.180679 1.740469 0
M  V30 20 C -2.616107 0.903721 1.032791 0
M  V30 21 C -2.029344 -0.203266 0.450332 0
M  V30 22 H 2.347451 -5.058483 -0.569942 0
M  V30 23 H 4.093987 -3.992210 1.354219 0
M  V30 24 H 4.582896 -2.128932 2.784541 0
M  V30 25 H 1.267518 -0.070277 1.399344 0
M  V30 26 H -1.224850 -1.884448 -1.440860 0
M  V30 27 H 0.706174 0.980104 -0.893518 0
M  V30 28 H -0.192634 3.098287 0.090116 0
M  V30 29 H -2.430223 4.157578 1.628563 0
M  V30 30 H -4.434933 0.460736 2.000923 0
M  V30 31 H -2.656462 -1.095010 0.624089 0
M  V30 END ATOM
M  V30 BEGIN BOND
M  V30 1 2 1 2
M  V30 2 1 2 3
M  V30 3 1 3 4
M  V30 4 2 4 5
M  V30 5 1 5 6
M  V30 6 2 6 7
M  V30 7 1 7 8
M  V30 8 1 7 9
M  V30 9 2 9 10
M  V30 10 1 10 11
M  V30 11 2 11 12
M  V30 12 1 12 13
M  V30 13 2 13 14
M  V30 14 1 14 15
M  V30 15 2 15 16
M  V30 16 1 16 17
M  V30 17 2 17 18
M  V30 18 1 18 19
M  V30 19 1 19 20
M  V30 20 2 20 21
M  V30 21 1 11 2
M  V30 22 1 21 13
M  V30 23 1 10 4
M  V30 24 1 20 16
M  V30 25 1 3 22
M  V30 26 1 5 23
M  V30 27 1 6 24
M  V30 28 1 9 25
M  V30 29 1 12 26
M  V30 30 1 14 27
M  V30 31 1 15 28
M  V30 32 1 17 29
M  V30 33 1 19 30
M  V30 34 1 21 31
M  V30 END BOND
M  V30 END CTAB
M  END
>  <Dataset>  (996) 
ChEMBL_Kinases

>  <Ligand_Instance>  (996) 
nan

>  <PDB_ID>  (996) 
nan

>  <Standardized_SMILES>  (996) 
O=C1Nc2ccc(Cl)cc2/C1=C\c1ccc2cn[nH]c2c1

>  <Name>  (996) 
nan

>  <Pocket>  (996) 
nan

>  <ATP_Site>  (996) 
nan

>  <Peripheral>  (996) 
nan

>  <Num_H_Atoms_ProtBoundConf>  (996) 
nan

>  <Num_Resolved_Atoms>  (996) 
nan

>  <Num_Not_Resolved_Atoms>  (996) 
nan

$$$$
CHEMBL2407908
     RDKit          3D

  0  0  0  0  0  0  0  0  0  0999 V3000
M  V30 BEGIN CTAB
M  V30 COUNTS 30 32 0 0 0
M  V30 BEGIN ATOM
M  V30 1 O -0.074175 -2.166644 2.240297 0
M  V30 2 C 0.685975 -1.159739 2.232972 0
M  V30 3 N 1.503607 -0.755181 3.311847 0
M  V30 4 C 2.191442 0.423526 2.864290 0
M  V30 5 C 3.101167 1.162006 3.605253 0
M  V30 6 C 3.630883 2.257689 2.964801 0
M  V30 7 C 3.310996 2.642880 1.665044 0
M  V30 8 Br 4.045891 4.158537 0.786937 0
M  V30 9 C 2.390162 1.856010 0.977797 0
M  V30 10 C 1.829043 0.746973 1.573459 0
M  V30 11 C 0.859809 -0.244554 1.122946 0
M  V30 12 C 0.255948 -0.279991 -0.031840 0
M  V30 13 C -0.733555 -1.250258 -0.450251 0
M  V30 14 C -0.479016 -1.929445 -1.630247 0
M  V30 15 C -1.436202 -2.826081 -2.045859 0
M  V30 16 C -2.621646 -3.083203 -1.360880 0
M  V30 17 O -3.567332 -3.993174 -1.805111 0
M  V30 18 C -2.818357 -2.366543 -0.180827 0
M  V30 19 O -3.975038 -2.563201 0.561826 0
M  V30 20 C -1.865138 -1.447339 0.269495 0
M  V30 21 H 1.546317 -1.261595 4.218763 0
M  V30 22 H 3.423290 0.966383 4.603347 0
M  V30 23 H 4.359176 2.894566 3.484618 0
M  V30 24 H 2.116958 2.122672 -0.030544 0
M  V30 25 H 0.489522 0.471811 -0.778224 0
M  V30 26 H 0.410728 -1.796779 -2.228648 0
M  V30 27 H -1.296960 -3.399089 -2.974114 0
M  V30 28 H -3.318270 -4.974510 -1.988277 0
M  V30 29 H -4.631265 -3.296230 0.413878 0
M  V30 30 H -2.131086 -0.926641 1.190160 0
M  V30 END ATOM
M  V30 BEGIN BOND
M  V30 1 2 1 2
M  V30 2 1 2 3
M  V30 3 1 3 4
M  V30 4 2 4 5
M  V30 5 1 5 6
M  V30 6 2 6 7
M  V30 7 1 7 8
M  V30 8 1 7 9
M  V30 9 2 9 10
M  V30 10 1 10 11
M  V30 11 2 11 12
M  V30 12 1 12 13
M  V30 13 2 13 14
M  V30 14 1 14 15
M  V30 15 2 15 16
M  V30 16 1 16 17
M  V30 17 1 16 18
M  V30 18 1 18 19
M  V30 19 2 18 20
M  V30 20 1 11 2
M  V30 21 1 20 13
M  V30 22 1 10 4
M  V30 23 1 3 21
M  V30 24 1 5 22
M  V30 25 1 6 23
M  V30 26 1 9 24
M  V30 27 1 12 25
M  V30 28 1 14 26
M  V30 29 1 15 27
M  V30 30 1 17 28
M  V30 31 1 19 29
M  V30 32 1 20 30
M  V30 END BOND
M  V30 END CTAB
M  END
>  <Dataset>  (997) 
ChEMBL_Kinases

>  <Ligand_Instance>  (997) 
nan

>  <PDB_ID>  (997) 
nan

>  <Standardized_SMILES>  (997) 
O=C1Nc2ccc(Br)cc2/C1=C/c1ccc(O)c(O)c1

>  <Name>  (997) 
nan

>  <Pocket>  (997) 
nan

>  <ATP_Site>  (997) 
nan

>  <Peripheral>  (997) 
nan

>  <Num_H_Atoms_ProtBoundConf>  (997) 
nan

>  <Num_Resolved_Atoms>  (997) 
nan

>  <Num_Not_Resolved_Atoms>  (997) 
nan

$$$$
CHEMBL2407904
     RDKit          3D

  0  0  0  0  0  0  0  0  0  0999 V3000
M  V30 BEGIN CTAB
M  V30 COUNTS 36 38 0 0 0
M  V30 BEGIN ATOM
M  V30 1 C 1.169385 -5.610922 2.317270 0
M  V30 2 O -0.137296 -5.131300 2.260104 0
M  V30 3 C -0.550440 -3.852326 2.018911 0
M  V30 4 C 0.170072 -2.704668 1.771921 0
M  V30 5 C -0.427829 -1.463268 1.543441 0
M  V30 6 C 0.472921 -0.345109 1.326219 0
M  V30 7 C 0.523986 0.547875 0.355860 0
M  V30 8 C -0.417824 0.523592 -0.750906 0
M  V30 9 O -1.342964 -0.272334 -0.977946 0
M  V30 10 N -0.093358 1.618683 -1.585690 0
M  V30 11 C -0.776357 1.985624 -2.816621 0
M  V30 12 C 1.033766 2.299704 -0.993666 0
M  V30 13 C 1.713120 3.427175 -1.441576 0
M  V30 14 C 2.777826 3.921714 -0.716695 0
M  V30 15 C 3.161569 3.278933 0.464645 0
M  V30 16 Br 4.651171 3.986093 1.462193 0
M  V30 17 C 2.478968 2.148188 0.912259 0
M  V30 18 C 1.416828 1.665992 0.176626 0
M  V30 19 C -1.803717 -1.468845 1.585314 0
M  V30 20 C -2.594823 -2.559401 1.822691 0
M  V30 21 Cl -4.342258 -2.397243 1.840377 0
M  V30 22 C -1.944808 -3.778200 2.044008 0
M  V30 23 O -2.824088 -4.854032 2.280477 0
M  V30 24 H 1.682594 -5.454725 3.293505 0
M  V30 25 H 1.774069 -5.049468 1.556453 0
M  V30 26 H 1.269430 -6.672869 2.029974 0
M  V30 27 H 1.232194 -2.883226 1.777584 0
M  V30 28 H 1.237073 -0.228721 2.103944 0
M  V30 29 H -1.846539 1.660932 -2.794315 0
M  V30 30 H -0.269274 1.541626 -3.688746 0
M  V30 31 H -0.811960 3.080708 -2.948185 0
M  V30 32 H 1.439561 3.952520 -2.359476 0
M  V30 33 H 3.353384 4.791252 -1.001411 0
M  V30 34 H 2.773949 1.636478 1.841992 0
M  V30 35 H -2.308510 -0.522040 1.441931 0
M  V30 36 H -3.626155 -4.945265 1.642519 0
M  V30 END ATOM
M  V30 BEGIN BOND
M  V30 1 1 1 2
M  V30 2 1 2 3
M  V30 3 2 3 4
M  V30 4 1 4 5
M  V30 5 1 5 6
M  V30 6 2 6 7
M  V30 7 1 7 8
M  V30 8 2 8 9
M  V30 9 1 8 10
M  V30 10 1 10 11
M  V30 11 1 10 12
M  V30 12 2 12 13
M  V30 13 1 13 14
M  V30 14 2 14 15
M  V30 15 1 15 16
M  V30 16 1 15 17
M  V30 17 2 17 18
M  V30 18 2 5 19
M  V30 19 1 19 20
M  V30 20 1 20 21
M  V30 21 2 20 22
M  V30 22 1 22 23
M  V30 23 1 22 3
M  V30 24 1 18 7
M  V30 25 1 18 12
M  V30 26 1 1 24
M  V30 27 1 1 25
M  V30 28 1 1 26
M  V30 29 1 4 27
M  V30 30 1 6 28
M  V30 31 1 11 29
M  V30 32 1 11 30
M  V30 33 1 11 31
M  V30 34 1 13 32
M  V30 35 1 14 33
M  V30 36 1 17 34
M  V30 37 1 19 35
M  V30 38 1 23 36
M  V30 END BOND
M  V30 END CTAB
M  END
>  <Dataset>  (998) 
ChEMBL_Kinases

>  <Ligand_Instance>  (998) 
nan

>  <PDB_ID>  (998) 
nan

>  <Standardized_SMILES>  (998) 
COc1cc(/C=C2\C(=O)N(C)c3ccc(Br)cc32)cc(Cl)c1O

>  <Name>  (998) 
nan

>  <Pocket>  (998) 
nan

>  <ATP_Site>  (998) 
nan

>  <Peripheral>  (998) 
nan

>  <Num_H_Atoms_ProtBoundConf>  (998) 
nan

>  <Num_Resolved_Atoms>  (998) 
nan

>  <Num_Not_Resolved_Atoms>  (998) 
nan

$$$$
CHEMBL2407902
     RDKit          3D

  0  0  0  0  0  0  0  0  0  0999 V3000
M  V30 BEGIN CTAB
M  V30 COUNTS 72 77 0 0 0
M  V30 BEGIN ATOM
M  V30 1 C 5.734793 -2.686848 4.750007 0
M  V30 2 N 5.883916 -2.273656 3.365932 0
M  V30 3 C 5.428956 -0.907105 3.172320 0
M  V30 4 C 4.058069 -0.875079 2.524301 0
M  V30 5 N 4.063204 -1.423210 1.203890 0
M  V30 6 C 2.783751 -1.939037 0.849567 0
M  V30 7 C 1.682497 -0.944096 0.852050 0
M  V30 8 C 1.431993 -0.238871 -0.317336 0
M  V30 9 C 0.445966 0.725351 -0.507240 0
M  V30 10 C -0.359398 1.003591 0.578123 0
M  V30 11 C -0.146193 0.334844 1.740025 0
M  V30 12 C 0.836249 -0.620425 1.916318 0
M  V30 13 N -0.900239 0.519599 2.933224 0
M  V30 14 C -2.310521 0.690464 2.936760 0
M  V30 15 N -3.028281 1.487353 3.748360 0
M  V30 16 C -4.379217 1.554038 3.639848 0
M  V30 17 C -4.996414 0.783440 2.676087 0
M  V30 18 C -4.237784 -0.026428 1.855431 0
M  V30 19 N -2.916702 -0.051025 2.007754 0
M  V30 20 C -4.796143 -0.875491 0.811964 0
M  V30 21 C -6.105799 -1.259425 1.004041 0
M  V30 22 C -6.689666 -2.076641 0.028931 0
M  V30 23 C -5.914245 -2.452079 -1.074620 0
M  V30 24 C -4.603068 -2.057520 -1.250112 0
M  V30 25 C -4.042664 -1.251049 -0.277807 0
M  V30 26 C -3.789785 -2.465934 -2.428872 0
M  V30 27 N -2.610014 -1.617448 -2.496302 0
M  V30 28 C -2.562667 -0.265520 -2.939584 0
M  V30 29 O -3.792883 -0.376511 -3.125860 0
M  V30 30 C -1.629838 0.861100 -3.146907 0 CFG=2
M  V30 31 C -1.702041 1.436618 -4.542703 0
M  V30 32 C -0.479894 0.874848 -5.215578 0
M  V30 33 C 0.493629 0.775778 -4.069107 0
M  V30 34 N -0.276413 0.582717 -2.853425 0
M  V30 35 C 0.312691 1.389217 -1.827552 0
M  V30 36 C 5.020125 -2.510531 1.139519 0
M  V30 37 C 5.180842 -3.190127 2.482542 0
M  V30 38 H 4.674107 -3.038523 4.894658 0
M  V30 39 H 6.399087 -3.497024 5.051211 0
M  V30 40 H 5.860814 -1.859778 5.469141 0
M  V30 41 H 5.345754 -0.425843 4.163070 0
M  V30 42 H 6.182747 -0.359137 2.580497 0
M  V30 43 H 3.368452 -1.437961 3.205585 0
M  V30 44 H 3.751453 0.187783 2.464113 0
M  V30 45 H 2.845029 -2.358571 -0.181892 0
M  V30 46 H 2.501228 -2.738523 1.569419 0
M  V30 47 H 2.069116 -0.453040 -1.189620 0
M  V30 48 H -1.161485 1.727743 0.570771 0
M  V30 49 H 1.028073 -1.169859 2.831153 0
M  V30 50 H -0.493432 0.543815 3.895614 0
M  V30 51 H -4.917608 2.201956 4.306060 0
M  V30 52 H -6.068334 0.804985 2.551640 0
M  V30 53 H -6.701739 -0.972536 1.852518 0
M  V30 54 H -7.724372 -2.434136 0.091374 0
M  V30 55 H -6.316428 -3.083511 -1.858979 0
M  V30 56 H -3.039620 -0.915330 -0.357328 0
M  V30 57 H -4.351167 -2.481260 -3.363411 0
M  V30 58 H -3.421991 -3.513920 -2.259930 0
M  V30 59 H -1.593530 -1.690124 -2.286056 0
M  V30 60 H -1.991912 1.668180 -2.478278 0
M  V30 61 H -2.603786 0.951074 -5.013134 0
M  V30 62 H -1.781726 2.521783 -4.585672 0
M  V30 63 H -0.700603 -0.124457 -5.638317 0
M  V30 64 H -0.155457 1.612457 -5.990195 0
M  V30 65 H 1.247349 -0.018788 -4.241246 0
M  V30 66 H 0.993829 1.788142 -4.026544 0
M  V30 67 H 1.289033 1.746280 -2.139893 0
M  V30 68 H -0.313962 2.313354 -1.656616 0
M  V30 69 H 6.014694 -2.181842 0.774709 0
M  V30 70 H 4.635953 -3.308115 0.452340 0
M  V30 71 H 4.197067 -3.427262 2.923811 0
M  V30 72 H 5.728830 -4.131046 2.346071 0
M  V30 END ATOM
M  V30 BEGIN BOND
M  V30 1 1 1 2
M  V30 2 1 2 3
M  V30 3 1 3 4
M  V30 4 1 4 5
M  V30 5 1 5 6
M  V30 6 1 6 7
M  V30 7 2 7 8
M  V30 8 1 8 9
M  V30 9 2 9 10
M  V30 10 1 10 11
M  V30 11 2 11 12
M  V30 12 1 11 13
M  V30 13 1 13 14
M  V30 14 2 14 15
M  V30 15 1 15 16
M  V30 16 2 16 17
M  V30 17 1 17 18
M  V30 18 2 18 19
M  V30 19 1 18 20
M  V30 20 2 20 21
M  V30 21 1 21 22
M  V30 22 2 22 23
M  V30 23 1 23 24
M  V30 24 2 24 25
M  V30 25 1 24 26
M  V30 26 1 26 27
M  V30 27 1 27 28
M  V30 28 2 28 29
M  V30 29 1 28 30
M  V30 30 1 30 31
M  V30 31 1 31 32
M  V30 32 1 32 33
M  V30 33 1 33 34
M  V30 34 1 34 35
M  V30 35 1 5 36
M  V30 36 1 36 37
M  V30 37 1 37 2
M  V30 38 1 12 7
M  V30 39 1 19 14
M  V30 40 1 25 20
M  V30 41 1 34 30
M  V30 42 1 35 9
M  V30 43 1 1 38
M  V30 44 1 1 39
M  V30 45 1 1 40
M  V30 46 1 3 41
M  V30 47 1 3 42
M  V30 48 1 4 43
M  V30 49 1 4 44
M  V30 50 1 6 45
M  V30 51 1 6 46
M  V30 52 1 8 47
M  V30 53 1 10 48
M  V30 54 1 12 49
M  V30 55 1 13 50
M  V30 56 1 16 51
M  V30 57 1 17 52
M  V30 58 1 21 53
M  V30 59 1 22 54
M  V30 60 1 23 55
M  V30 61 1 25 56
M  V30 62 1 26 57
M  V30 63 1 26 58
M  V30 64 1 27 59
M  V30 65 1 30 60 CFG=1
M  V30 66 1 31 61
M  V30 67 1 31 62
M  V30 68 1 32 63
M  V30 69 1 32 64
M  V30 70 1 33 65
M  V30 71 1 33 66
M  V30 72 1 35 67
M  V30 73 1 35 68
M  V30 74 1 36 69
M  V30 75 1 36 70
M  V30 76 1 37 71
M  V30 77 1 37 72
M  V30 END BOND
M  V30 END CTAB
M  END
>  <Dataset>  (999) 
ChEMBL_Kinases

>  <Ligand_Instance>  (999) 
nan

>  <PDB_ID>  (999) 
nan

>  <Standardized_SMILES>  (999) 
CN1CCN(Cc2cc3cc(c2)Nc2nccc(n2)-c2cccc(c2)CNC(=O)[C@@H]2CCCN2C3)CC1

>  <Name>  (999) 
nan

>  <Pocket>  (999) 
nan

>  <ATP_Site>  (999) 
nan

>  <Peripheral>  (999) 
nan

>  <Num_H_Atoms_ProtBoundConf>  (999) 
nan

>  <Num_Resolved_Atoms>  (999) 
nan

>  <Num_Not_Resolved_Atoms>  (999) 
nan

$$$$
